drugbank_target|Q96SW2 Protein cereblon (DB00480; DB01041; DB08910)
 OpenBabel12092120583D

  0  0  0     0  0            999 V3000
M  V30 BEGIN CTAB
M  V30 COUNTS 7042 7122 0 0 0
M  V30 BEGIN ATOM
M  V30 1 H -0.908 1.98254 -0.117106 0
M  V30 2 N 0 1.576 0 0
M  V30 3 C 0.933 2.03868 1.02534 0
M  V30 4 C 1.911 0.928543 1.3348 0
M  V30 5 O 3.095 1.19667 1.45644 0
M  V30 6 C 0.222 2.43627 2.35294 0
M  V30 7 C -0.732 3.65373 2.2001 0
M  V30 8 S 0.101 5.13292 1.52614 0
M  V30 9 C 1.257 5.56322 2.86805 0
M  V30 10 H 1.49 2.90518 0.631377 0
M  V30 11 H -0.977 1.52953 0.210867 0
M  V30 12 H 0.981 2.67203 3.11629 0
M  V30 13 H -0.358 1.57376 2.7183 0
M  V30 14 H -1.165 3.90944 3.18086 0
M  V30 15 H -1.563 3.418 1.51819 0
M  V30 16 H 0.729 5.58782 3.83104 0
M  V30 17 H 1.672 6.56266 2.65933 0
M  V30 18 H 2.08 4.83886 2.90714 0
M  V30 19 N 1.4781 -0.272755 1.55222 0
M  V30 20 C 2.4411 -1.32041 1.87344 0
M  V30 21 C 3.4411 -1.42342 0.74803 0
M  V30 22 O 4.6311 -1.41488 1.0162 0
M  V30 23 C 1.7631 -2.70173 2.07893 0
M  V30 24 H 2.9561 -1.04789 2.80997 0
M  V30 25 H 0.5091 -0.51083 1.47717 0
M  V30 26 H 1.2441 -3.02605 1.16622 0
M  V30 27 H 1.0291 -2.64082 2.89833 0
M  V30 28 H 2.5191 -3.45869 2.34017 0
M  V30 29 N 2.9562 -1.48159 -0.537278 0
M  V30 30 C 4.2042 -1.55497 -1.29094 0
M  V30 31 C 4.5252 -0.227454 -1.93669 0
M  V30 32 O 3.7952 0.750386 -1.80959 0
M  V30 33 H 2.3752 -0.572832 -0.47945 0
M  V30 34 H 5.0372 -1.84579 -0.625818 0
M  V30 35 H 4.1332 -2.33216 -2.07405 0
M  V30 36 N 4.4343 0.785586 -1.36625 0
M  V30 37 C 5.3443 1.92964 -1.33425 0
M  V30 38 C 6.3603 1.72394 -0.235851 0
M  V30 39 O 7.5363 1.95866 -0.468878 0
M  V30 40 C 4.6013 3.27884 -1.12662 0
M  V30 41 C 3.6623 3.61204 -2.32013 0
M  V30 42 C 2.8953 4.89687 -2.12231 0
M  V30 43 O 3.1183 5.59704 -1.09945 0
M  V30 44 O 2.0523 5.21752 -3.00098 0
M  V30 45 H 5.8783 1.98613 -2.29753 0
M  V30 46 H 3.4633 0.926384 -1.17211 0
M  V30 47 H 5.3453 4.08614 -1.03016 0
M  V30 48 H 4.0203 3.23118 -0.193991 0
M  V30 49 H 2.9273 2.80765 -2.47228 0
M  V30 50 H 4.2603 3.70698 -3.23796 0
M  V30 51 N 5.9124 1.20967 1.01018 0
M  V30 52 C 7.1604 1.02172 1.74371 0
M  V30 53 C 7.4814 -0.446414 1.89821 0
M  V30 54 O 6.7514 -1.32234 1.44537 0
M  V30 55 H 5.3314 0.375066 0.646014 0
M  V30 56 H 7.9934 1.52187 1.21758 0
M  V30 57 H 7.0894 1.48538 2.74487 0
M  V30 58 N 7.3905 -1.2043 1.01659 0
M  V30 59 C 8.6675 -1.8548 0.621004 0
M  V30 60 C 9.0475 -1.9091 -0.900919 0
M  V30 61 O 8.3955 -1.41694 -1.79263 0
M  V30 62 C 8.6055 -3.25119 1.2688 0
M  V30 63 C 9.9535 -4.01403 1.38423 0
M  V30 64 O 10.9775 -3.34473 1.22501 0
M  V30 65 O 9.8365 -5.21265 1.64151 0
M  V30 66 H 6.9305 -0.798761 0.214266 0
M  V30 67 H 9.4765 -1.28019 1.11396 0
M  V30 68 H 8.2485 -3.15932 2.30873 0
M  V30 69 H 7.8715 -3.90212 0.762917 0
M  V30 70 N 8.8686 -0.792821 -1.36206 0
M  V30 71 C 9.8006 -0.151469 -2.28699 0
M  V30 72 C 10.8136 0.641262 -1.49638 0
M  V30 73 O 12.0026 0.475885 -1.72039 0
M  V30 74 C 9.1026 0.808424 -3.29117 0
M  V30 75 C 8.2756 0.0650202 -4.37352 0
M  V30 76 C 7.3346 0.941358 -5.17711 0
M  V30 77 O 6.3606 0.397352 -5.67811 0
M  V30 78 N 7.5626 2.2652 -5.3448 0
M  V30 79 H 10.3276 -0.945982 -2.84379 0
M  V30 80 H 7.8886 -0.647032 -1.48409 0
M  V30 81 H 9.8806 1.3986 -3.79765 0
M  V30 82 H 8.4506 1.5038 -2.74052 0
M  V30 83 H 7.6706 -0.706255 -3.87822 0
M  V30 84 H 8.9586 -0.447847 -5.06825 0
M  V30 85 H 8.3566 2.73128 -4.95396 0
M  V30 86 H 6.9136 2.80493 -5.88359 0
M  V30 87 N 10.3467 1.47872 -0.545128 0
M  V30 88 C 11.2787 2.27869 0.246621 0
M  V30 89 C 12.2917 1.36282 0.890561 0
M  V30 90 O 13.4807 1.61207 0.766449 0
M  V30 91 C 10.5807 3.10159 1.36582 0
M  V30 92 C 9.7537 4.29627 0.820954 0
M  V30 93 C 8.8127 4.93607 1.82314 0
M  V30 94 O 7.8387 5.52366 1.37406 0
M  V30 95 N 9.0407 4.87211 3.15603 0
M  V30 96 H 11.8057 2.96459 -0.439539 0
M  V30 97 H 9.3667 1.57367 -0.380421 0
M  V30 98 H 11.3587 3.49829 2.03474 0
M  V30 99 H 9.9287 2.43891 1.9554 0
M  V30 100 H 9.1487 3.94192 -0.0244032 0
M  V30 101 H 10.4367 5.06928 0.436063 0
M  V30 102 H 9.8347 4.40651 3.54744 0
M  V30 103 H 8.3917 5.30937 3.78087 0
M  V30 104 N 11.8248 0.280983 1.55075 0
M  V30 105 C 13.1018 -0.386207 1.91749 0
M  V30 106 C 13.4818 -1.73264 1.20594 0
M  V30 107 O 12.8298 -2.26034 0.334784 0
M  V30 108 C 13.0398 -0.520687 3.45094 0
M  V30 109 C 14.3878 -0.800865 4.16979 0
M  V30 110 O 15.4118 -0.605271 3.5102 0
M  V30 111 O 14.2708 -1.1753 5.33712 0
M  V30 112 H 11.3648 -0.212408 0.799257 0
M  V30 113 H 13.9108 0.327568 1.66509 0
M  V30 114 H 12.6828 0.426633 3.88967 0
M  V30 115 H 12.3058 -1.2837 3.76307 0
M  V30 116 N 13.3029 -1.57598 0.00835791 0
M  V30 117 C 14.2659 -2.07884 -0.965242 0
M  V30 118 C 15.2659 -0.989825 -1.26725 0
M  V30 119 O 16.4559 -1.25218 -1.21104 0
M  V30 120 C 13.5879 -2.52731 -2.28779 0
M  V30 121 H 14.7809 -2.95178 -0.530112 0
M  V30 122 H 12.3339 -1.54458 -0.239283 0
M  V30 123 H 13.0689 -1.68705 -2.76964 0
M  V30 124 H 12.8539 -3.32272 -2.08177 0
M  V30 125 H 14.3439 -2.91933 -2.98605 0
M  V30 126 N 14.781 0.264519 -1.55364 0
M  V30 127 C 15.744 1.31046 -1.88042 0
M  V30 128 C 16.744 1.41943 -0.755569 0
M  V30 129 O 17.934 1.40947 -1.02369 0
M  V30 130 C 15.066 2.69067 -2.09323 0
M  V30 131 H 16.259 1.03297 -2.81549 0
M  V30 132 H 13.812 0.502989 -1.47986 0
M  V30 133 H 14.547 3.01982 -1.18226 0
M  V30 134 H 14.332 2.62542 -2.91229 0
M  V30 135 H 15.822 3.44623 -2.35848 0
M  V30 136 N 16.2591 1.48442 0.529413 0
M  V30 137 C 17.2091 1.59407 1.63014 0
M  V30 138 C 18.1931 0.451166 1.54445 0
M  V30 139 O 19.3851 0.702635 1.62456 0
M  V30 140 C 16.5141 1.63746 3.01732 0
M  V30 141 C 15.6001 2.83518 3.15402 0
M  V30 142 N 15.9911 4.07929 2.99045 0
M  V30 143 C 14.2891 2.80862 3.46457 0
M  V30 144 C 14.9901 4.8829 3.16146 0
M  V30 145 N 13.9661 4.21117 3.43746 0
M  V30 146 H 17.7681 2.53343 1.48978 0
M  V30 147 H 15.2821 1.44821 0.734885 0
M  V30 148 H 17.2791 1.69695 3.80801 0
M  V30 149 H 15.9391 0.709264 3.16859 0
M  V30 150 H 16.9501 4.38357 2.75796 0
M  V30 151 H 13.6271 1.97301 3.67938 0
M  V30 152 H 15.0171 5.97028 3.08232 0
M  V30 153 N 17.7372 -0.778329 1.37039 0
M  V30 154 C 18.6852 -1.91278 1.32345 0
M  V30 155 C 19.6792 -1.68051 0.213331 0
M  V30 156 O 20.8852 -1.75922 0.38098 0
M  V30 157 H 17.2602 -0.628909 0.412283 0
M  V30 158 H 19.2312 -1.92355 2.28127 0
M  V30 159 C 17.9802 -3.28455 1.14073 0
M  V30 160 H 17.3032 -3.46901 1.98746 0
M  V30 161 H 18.7432 -4.08152 1.14837 0
M  V30 162 C 17.2022 -3.36548 -0.154015 0
M  V30 163 O 17.7322 -3.85186 -1.13993 0
M  V30 164 N 15.9382 -2.89894 -0.202475 0
M  V30 165 H 15.4852 -2.50504 0.600476 0
M  V30 166 H 15.4432 -2.9569 -1.06841 0
M  V30 167 N 19.2153 -1.21501 -1.00376 0
M  V30 168 C 20.1483 -0.918669 -2.08892 0
M  V30 169 C 21.1263 0.134277 -1.62045 0
M  V30 170 O 22.3103 0.00504255 -1.88499 0
M  V30 171 C 19.4373 -0.379645 -3.36566 0
M  V30 172 C 18.4833 -1.41559 -4.02323 0
M  V30 173 S 19.3163 -2.98521 -4.44574 0
M  V30 174 C 20.4723 -2.46228 -5.75433 0
M  V30 175 H 20.7053 -1.83761 -2.33707 0
M  V30 176 H 18.2383 -1.04489 -1.13673 0
M  V30 177 H 20.1963 -0.0752195 -4.10431 0
M  V30 178 H 18.8573 0.518008 -3.09799 0
M  V30 179 H 18.0503 -0.988076 -4.9422 0
M  V30 180 H 17.6523 -1.66815 -3.34737 0
M  V30 181 H 19.9443 -1.86791 -6.51241 0
M  V30 182 H 20.8873 -3.36572 -6.22997 0
M  V30 183 H 21.2953 -1.87894 -5.32312 0
M  V30 184 N 20.6934 1.19889 -1.02296 0
M  V30 185 C 21.9414 1.89046 -0.714558 0
M  V30 186 C 22.2624 1.79636 0.758681 0
M  V30 187 O 21.5324 1.20292 1.54618 0
M  V30 188 H 20.1124 0.699802 -0.261317 0
M  V30 189 H 22.7744 1.45574 -1.29592 0
M  V30 190 H 21.8704 2.95524 -1.0036 0
M  V30 191 N 22.1715 0.800033 1.35784 0
M  V30 192 C 23.1195 0.193851 2.31791 0
M  V30 193 C 24.1135 -0.652744 1.56319 0
M  V30 194 O 25.3195 -0.546641 1.71499 0
M  V30 195 H 21.6945 0.04392 0.750716 0
M  V30 196 H 23.6655 1.01883 2.80468 0
M  V30 197 C 22.4145 -0.648338 3.41602 0
M  V30 198 H 21.7375 -0.00624665 3.998 0
M  V30 199 H 23.1775 -1.03898 4.11073 0
M  V30 200 C 21.6365 -1.8111 2.84079 0
M  V30 201 O 22.1665 -2.90825 2.77099 0
M  V30 202 N 20.3725 -1.62056 2.41218 0
M  V30 203 H 19.9195 -0.728123 2.47095 0
M  V30 204 H 19.8775 -2.40013 2.03079 0
M  V30 205 N 23.6496 -1.47581 0.552962 0
M  V30 206 C 24.5996 -2.26961 -0.217423 0
M  V30 207 C 25.5836 -1.34099 -0.889168 0
M  V30 208 O 26.7756 -1.58483 -0.788176 0
M  V30 209 C 23.9046 -3.19756 -1.24944 0
M  V30 210 C 22.9906 -4.20097 -0.581327 0
M  V30 211 N 23.3816 -5.04614 0.346171 0
M  V30 212 C 21.6796 -4.38099 -0.835767 0
M  V30 213 C 22.3806 -5.77052 0.733854 0
M  V30 214 N 21.3566 -5.43526 0.0896567 0
M  V30 215 H 25.1586 -2.89688 0.495761 0
M  V30 216 H 22.6726 -1.58068 0.372597 0
M  V30 217 H 24.6696 -3.75305 -1.81527 0
M  V30 218 H 23.3296 -2.58585 -1.96376 0
M  V30 219 H 24.3406 -5.12869 0.720098 0
M  V30 220 H 21.0176 -3.88102 -1.53892 0
M  V30 221 H 22.4076 -6.5504 1.49574 0
M  V30 222 N 25.1277 -0.289203 -1.54924 0
M  V30 223 C 26.0577 0.58549 -2.2604 0
M  V30 224 C 27.0387 1.14753 -1.25562 0
M  V30 225 O 28.2237 1.17906 -1.54311 0
M  V30 226 C 25.3537 1.76305 -2.99222 0
M  V30 227 C 24.3077 1.33191 -4.06748 0
M  V30 228 C 23.6337 2.5937 -4.6758 0
M  V30 229 C 24.9337 0.471775 -5.20165 0
M  V30 230 H 26.6277 -0.00763532 -2.99399 0
M  V30 231 H 24.1737 -0.00511229 -1.43999 0
M  V30 232 H 26.1267 2.38097 -3.47689 0
M  V30 233 H 24.8507 2.38223 -2.23422 0
M  V30 234 H 23.5097 0.737121 -3.59113 0
M  V30 235 H 23.1577 3.19576 -3.88433 0
M  V30 236 H 22.8577 2.31228 -5.40192 0
M  V30 237 H 24.3817 3.21985 -5.18804 0
M  V30 238 H 25.7957 0.995056 -5.64599 0
M  V30 239 H 24.1927 0.284639 -5.99425 0
M  V30 240 H 25.2627 -0.506041 -4.82252 0
M  V30 241 N 26.6058 1.57591 -0.0167156 0
M  V30 242 C 28.0168 1.79201 0.523834 0
M  V30 243 C 28.3678 0.925796 1.72984 0
M  V30 244 O 27.4928 0.132792 2.15992 0
M  V30 245 C 28.0878 3.25 0.957091 0
M  V30 246 C 26.6468 3.47648 1.44283 0
M  V30 247 C 25.7938 2.74374 0.401757 0
M  V30 248 H 28.7448 1.56831 -0.242816 0
M  V30 249 H 28.7658 3.34031 1.82219 0
M  V30 250 H 28.2778 3.88019 0.0791415 0
M  V30 251 H 26.3788 2.89866 2.34113 0
M  V30 252 H 26.4918 4.56352 1.45877 0
M  V30 253 H 24.8558 2.39485 0.867121 0
M  V30 254 H 25.6388 3.40102 -0.467513 0
M  V30 255 N 28.0839 -0.256276 1.55502 0
M  V30 256 C 29.0139 -1.32102 1.92539 0
M  V30 257 C 29.9949 -1.50684 0.789194 0
M  V30 258 O 31.1799 -1.63449 1.04872 0
M  V30 259 C 28.3099 -2.67752 2.21192 0
M  V30 260 C 27.2639 -2.63878 3.36975 0
M  V30 261 C 26.5899 -4.03236 3.51147 0
M  V30 262 C 27.8899 -2.21682 4.72921 0
M  V30 263 H 29.5839 -1.01351 2.81724 0
M  V30 264 H 27.1299 -0.486105 1.35547 0
M  V30 265 H 29.0829 -3.42365 2.45691 0
M  V30 266 H 27.8069 -3.0012 1.28824 0
M  V30 267 H 26.4659 -1.91722 3.12471 0
M  V30 268 H 26.1139 -4.32854 2.56216 0
M  V30 269 H 25.8139 -4.01535 4.29003 0
M  V30 270 H 27.3379 -4.79563 3.77957 0
M  V30 271 H 28.7519 -2.86023 4.96854 0
M  V30 272 H 27.1489 -2.3111 5.53812 0
M  V30 273 H 28.2189 -1.16833 4.70615 0
M  V30 274 N 29.562 -1.4872 -0.521534 0
M  V30 275 C 30.492 -1.66771 -1.63431 0
M  V30 276 C 31.473 -0.516499 -1.62069 0
M  V30 277 O 32.658 -0.750013 -1.79132 0
M  V30 278 C 29.788 -1.71515 -3.01993 0
M  V30 279 C 28.742 -2.86222 -3.18216 0
M  V30 280 C 28.068 -2.76061 -4.57924 0
M  V30 281 C 29.368 -4.27419 -3.00184 0
M  V30 282 H 31.062 -2.59932 -1.48579 0
M  V30 283 H 28.608 -1.25089 -0.713358 0
M  V30 284 H 30.561 -1.82731 -3.7972 0
M  V30 285 H 29.285 -0.749393 -3.17886 0
M  V30 286 H 27.944 -2.74575 -2.42908 0
M  V30 287 H 27.592 -1.77437 -4.70665 0
M  V30 288 H 27.292 -3.53037 -4.69722 0
M  V30 289 H 28.816 -2.89256 -5.37739 0
M  V30 290 H 30.23 -4.39855 -3.67697 0
M  V30 291 H 28.627 -5.05458 -3.2347 0
M  V30 292 H 29.697 -4.43293 -1.96518 0
M  V30 293 N 31.0401 0.771051 -1.3745 0
M  V30 294 C 32.4511 1.34737 -1.29239 0
M  V30 295 C 32.8021 1.96109 0.0596908 0
M  V30 296 O 31.9271 1.93865 0.961534 0
M  V30 297 C 32.5221 2.44973 -2.34037 0
M  V30 298 C 31.0811 2.98372 -2.29458 0
M  V30 299 C 30.2281 1.71595 -2.17831 0
M  V30 300 H 33.1791 0.571256 -1.48062 0
M  V30 301 H 33.2001 3.24471 -1.98744 0
M  V30 302 H 32.7121 2.00276 -3.32432 0
M  V30 303 H 30.8131 3.47443 -1.34589 0
M  V30 304 H 30.9261 3.53939 -3.229 0
M  V30 305 H 29.2901 1.94547 -1.64388 0
M  V30 306 H 30.0731 1.29001 -3.18141 0
M  V30 307 N 32.5182 1.22032 0.997298 0
M  V30 308 C 33.4812 0.987909 2.06816 0
M  V30 309 C 34.4812 -0.0440084 1.6074 0
M  V30 310 O 35.6712 0.194053 1.73116 0
M  V30 311 C 32.8032 0.49132 3.37341 0
M  V30 312 H 33.9962 1.93803 2.28868 0
M  V30 313 H 31.5492 1.03838 1.16822 0
M  V30 314 H 32.2842 -0.463364 3.20973 0
M  V30 315 H 32.0692 1.23575 3.72118 0
M  V30 316 H 33.5592 0.348824 4.16141 0
M  V30 317 N 33.9963 -1.19345 1.0293 0
M  V30 318 C 34.9063 -2.26245 0.620515 0
M  V30 319 C 35.9223 -1.70486 -0.347928 0
M  V30 320 O 37.0983 -2.00347 -0.205704 0
M  V30 321 C 34.1633 -3.46693 -0.0218957 0
M  V30 322 C 33.2243 -4.17632 0.994102 0
M  V30 323 C 32.4573 -5.32329 0.382253 0
M  V30 324 O 32.6803 -5.64552 -0.814676 0
M  V30 325 O 31.6143 -5.91664 1.10531 0
M  V30 326 H 35.4403 -2.63453 1.51083 0
M  V30 327 H 33.0253 -1.26207 0.799513 0
M  V30 328 H 34.9073 -4.19683 -0.380072 0
M  V30 329 H 33.5823 -3.11333 -0.886209 0
M  V30 330 H 32.4893 -3.4676 1.40387 0
M  V30 331 H 33.8223 -4.56964 1.8288 0
M  V30 332 N 35.4744 -0.807222 -1.35358 0
M  V30 333 C 36.6994 -0.399309 -2.0352 0
M  V30 334 C 37.1244 0.981986 -1.60433 0
M  V30 335 O 36.4824 1.63601 -0.781299 0
M  V30 336 C 36.5304 -0.491552 -3.57234 0
M  V30 337 O 35.6344 0.494754 -4.09421 0
M  V30 338 H 34.9754 -0.166682 -0.642739 0
M  V30 339 H 37.5054 -1.09328 -1.72941 0
M  V30 340 H 37.5154 -0.361588 -4.06395 0
M  V30 341 H 36.1904 -1.49907 -3.87944 0
M  V30 342 H 34.7674 0.324977 -3.71481 0
M  V30 343 N 36.9525 1.47285 -0.560781 0
M  V30 344 C 37.8625 2.33846 0.187954 0
M  V30 345 C 38.8785 1.48412 0.908293 0
M  V30 346 O 40.0545 1.81332 0.876388 0
M  V30 347 C 37.1195 3.25178 1.2025 0
M  V30 348 C 36.1805 4.26504 0.489208 0
M  V30 349 C 35.4135 5.13472 1.45542 0
M  V30 350 O 35.6365 5.02959 2.6905 0
M  V30 351 O 34.5705 5.93902 0.977963 0
M  V30 352 H 38.3965 2.99177 -0.522177 0
M  V30 353 H 35.9815 1.45903 -0.321364 0
M  V30 354 H 37.8635 3.81584 1.78805 0
M  V30 355 H 36.5385 2.6247 1.89449 0
M  V30 356 H 35.4455 3.73847 -0.137627 0
M  V30 357 H 36.7785 4.91935 -0.161399 0
M  V30 358 N 38.4306 0.297415 1.54768 0
M  V30 359 C 39.3406 -0.58983 2.27064 0
M  V30 360 C 40.3566 -1.15144 1.30453 0
M  V30 361 O 41.5326 -1.17699 1.63428 0
M  V30 362 C 38.5976 -1.74714 2.9946 0
M  V30 363 C 37.6586 -1.21997 4.11601 0
M  V30 364 C 36.8916 -2.32212 4.80535 0
M  V30 365 O 37.1146 -3.52036 4.48806 0
M  V30 366 O 36.0486 -1.99106 5.68014 0
M  V30 367 H 39.8746 -0.00348199 3.037 0
M  V30 368 H 37.4596 0.0640035 1.49263 0
M  V30 369 H 39.3416 -2.42147 3.44881 0
M  V30 370 H 38.0166 -2.32016 2.25722 0
M  V30 371 H 36.9236 -0.511458 3.70587 0
M  V30 372 H 38.2566 -0.692419 4.87305 0
M  V30 373 N 39.9087 -1.5758 0.0250728 0
M  V30 374 C 40.8187 -2.1343 -0.973905 0
M  V30 375 C 41.8347 -1.08556 -1.35984 0
M  V30 376 O 43.0107 -1.40592 -1.44207 0
M  V30 377 C 40.0757 -2.64703 -2.23904 0
M  V30 378 C 39.1367 -3.84276 -1.91391 0
M  V30 379 C 38.3697 -4.33095 -3.11873 0
M  V30 380 O 38.5927 -3.81107 -4.24398 0
M  V30 381 O 37.5267 -5.24984 -2.94406 0
M  V30 382 H 41.3527 -2.99057 -0.529036 0
M  V30 383 H 38.9377 -1.48118 -0.195288 0
M  V30 384 H 40.8197 -2.97769 -2.98181 0
M  V30 385 H 39.4947 -1.82161 -2.6758 0
M  V30 386 H 38.4017 -3.56143 -1.14511 0
M  V30 387 H 39.7347 -4.67968 -1.52534 0
M  V30 388 N 41.3868 0.248026 -1.55636 0
M  V30 389 C 42.6638 0.998988 -1.68165 0
M  V30 390 C 43.0438 2.03409 -0.564621 0
M  V30 391 O 42.3918 2.24378 0.432076 0
M  V30 392 C 42.6018 1.63334 -3.0842 0
M  V30 393 C 43.9498 2.13562 -3.66983 0
M  V30 394 O 44.9738 1.73277 -3.11213 0
M  V30 395 O 43.8328 2.87526 -4.64749 0
M  V30 396 H 40.9268 0.464933 -0.683935 0
M  V30 397 H 43.4728 0.241902 -1.67967 0
M  V30 398 H 42.2448 0.884583 -3.8117 0
M  V30 399 H 41.8678 2.45666 -3.12624 0
M  V30 400 N 42.8649 1.48995 0.513639 0
M  V30 401 C 43.7749 1.67443 1.64317 0
M  V30 402 C 44.7909 0.556947 1.64846 0
M  V30 403 O 45.9669 0.830082 1.83498 0
M  V30 404 C 43.0319 1.72515 3.00732 0
M  V30 405 C 42.0929 2.96009 3.1093 0
M  V30 406 C 41.3259 3.00829 4.40837 0
M  V30 407 O 41.5489 2.13594 5.28898 0
M  V30 408 O 40.4829 3.93168 4.55744 0
M  V30 409 H 44.3089 2.63106 1.51687 0
M  V30 410 H 41.8939 1.32588 0.688543 0
M  V30 411 H 43.7759 1.78277 3.81831 0
M  V30 412 H 42.4509 0.800278 3.13651 0
M  V30 413 H 41.3579 2.9577 2.29065 0
M  V30 414 H 42.6909 3.87934 3.02933 0
M  V30 415 N 44.343 -0.763751 1.37857 0
M  V30 416 C 45.276 -1.88486 1.28639 0
M  V30 417 C 46.254 -1.61757 0.165363 0
M  V30 418 O 47.438 -1.85391 0.340948 0
M  V30 419 C 44.565 -3.23884 0.990811 0
M  V30 420 C 43.611 -3.69514 2.12983 0
M  V30 421 S 44.444 -3.82244 3.75033 0
M  V30 422 C 45.6 -5.20477 3.47641 0
M  V30 423 H 45.833 -1.96017 2.23527 0
M  V30 424 H 43.366 -0.925684 1.23574 0
M  V30 425 H 45.324 -4.02081 0.827101 0
M  V30 426 H 43.985 -3.14044 0.0592832 0
M  V30 427 H 43.178 -4.67696 1.87821 0
M  V30 428 H 42.78 -2.98441 2.25408 0
M  V30 429 H 45.072 -6.05905 3.03125 0
M  V30 430 H 46.015 -5.50655 4.4518 0
M  V30 431 H 46.423 -4.88793 2.82385 0
M  V30 432 N 45.8211 -1.22559 -0.990812 0
M  V30 433 C 46.7311 -1.01394 -2.11557 0
M  V30 434 C 47.7471 0.0383962 -1.73958 0
M  V30 435 O 48.9231 -0.154787 -2.00804 0
M  V30 436 C 45.9881 -0.596569 -3.41529 0
M  V30 437 C 45.0491 -1.72276 -3.93217 0
M  V30 438 C 44.2821 -1.32521 -5.16985 0
M  V30 439 O 44.5051 -0.204909 -5.70032 0
M  V30 440 O 43.4391 -2.14247 -5.62478 0
M  V30 441 H 47.2651 -1.95633 -2.32296 0
M  V30 442 H 44.8501 -1.01172 -1.0993 0
M  V30 443 H 46.7321 -0.374263 -4.19735 0
M  V30 444 H 45.4071 0.316939 -3.22145 0
M  V30 445 H 44.3141 -1.99961 -3.16174 0
M  V30 446 H 45.6471 -2.61421 -4.17037 0
M  V30 447 N 47.2992 1.18797 -1.03562 0
M  V30 448 C 48.5452 1.8893 -0.737113 0
M  V30 449 C 48.8782 1.79837 0.732956 0
M  V30 450 O 48.1532 1.19525 1.5344 0
M  V30 451 C 48.4362 3.39607 -1.19745 0
M  V30 452 C 48.2892 3.57537 -2.72924 0
M  V30 453 C 49.6082 4.33069 -0.783526 0
M  V30 454 H 46.7272 0.686057 -0.269249 0
M  V30 455 H 49.3692 1.39797 -1.28673 0
M  V30 456 H 47.5192 3.81583 -0.729855 0
M  V30 457 H 49.1912 3.24688 -3.27682 0
M  V30 458 H 47.4342 3.00363 -3.12993 0
M  V30 459 H 48.1052 4.63238 -3.00191 0
M  V30 460 H 50.5812 3.98846 -1.18581 0
M  V30 461 H 49.4572 5.3707 -1.13343 0
M  V30 462 H 49.7182 4.40986 0.313681 0
M  V30 463 N 48.7773 0.814389 1.34928 0
M  V30 464 C 49.6873 0.231978 2.3345 0
M  V30 465 C 50.7033 -0.629139 1.62228 0
M  V30 466 O 51.8793 -0.539052 1.94052 0
M  V30 467 C 48.9443 -0.603482 3.41407 0
M  V30 468 C 48.0053 0.279037 4.28392 0
M  V30 469 C 47.2383 -0.516643 5.31193 0
M  V30 470 O 47.4613 -1.75068 5.4287 0
M  V30 471 O 46.3953 0.0965652 6.01823 0
M  V30 472 H 50.2213 1.04721 2.85074 0
M  V30 473 H 47.8063 0.576343 1.37836 0
M  V30 474 H 49.6883 -1.07908 4.0735 0
M  V30 475 H 48.3633 -1.39618 2.92042 0
M  V30 476 H 47.2703 0.801948 3.65403 0
M  V30 477 H 48.6033 1.03588 4.81176 0
M  V30 478 N 50.2554 -1.46986 0.568584 0
M  V30 479 C 51.5324 -1.95592 -0.0174074 0
M  V30 480 C 51.9124 -1.51124 -1.47393 0
M  V30 481 O 51.2604 -0.755329 -2.15655 0
M  V30 482 C 51.4704 -3.48719 0.139913 0
M  V30 483 C 52.8184 -4.246 0.000426376 0
M  V30 484 O 53.8424 -3.56135 0.0680316 0
M  V30 485 O 52.7014 -5.46302 -0.146988 0
M  V30 486 H 49.7954 -0.82498 -0.0577599 0
M  V30 487 H 52.3414 -1.57335 0.635909 0
M  V30 488 H 51.1134 -3.73927 1.15301 0
M  V30 489 H 50.7364 -3.93771 -0.550491 0
M  V30 490 N 51.7335 -0.305618 -1.54608 0
M  V30 491 C 52.6655 0.602161 -2.21149 0
M  V30 492 C 53.6785 1.09394 -1.20569 0
M  V30 493 O 54.8675 1.0106 -1.47136 0
M  V30 494 C 51.9675 1.83692 -2.84799 0
M  V30 495 C 51.1405 1.48686 -4.11353 0
M  V30 496 C 50.1995 2.57725 -4.58764 0
M  V30 497 O 49.2255 2.22623 -5.23858 0
M  V30 498 N 50.4275 3.88346 -4.31471 0
M  V30 499 H 53.1925 0.0324966 -2.99682 0
M  V30 500 H 50.7535 -0.128021 -1.61393 0
M  V30 501 H 52.7455 2.55994 -3.13448 0
M  V30 502 H 51.3155 2.31486 -2.10078 0
M  V30 503 H 50.5355 0.596269 -3.89664 0
M  V30 504 H 51.8235 1.22842 -4.93748 0
M  V30 505 H 51.2215 4.19671 -3.79331 0
M  V30 506 H 49.7785 4.56932 -4.64818 0
M  V30 507 N 53.2116 1.57565 -0.0334293 0
M  V30 508 C 54.4886 1.83282 0.683163 0
M  V30 509 C 54.8686 0.91823 1.90084 0
M  V30 510 O 54.2166 -0.025113 2.28486 0
M  V30 511 C 54.4266 3.32599 1.0573 0
M  V30 512 C 55.7746 3.99179 1.44711 0
M  V30 513 O 56.7986 3.3712 1.15015 0
M  V30 514 O 55.6576 5.08565 2.0006 0
M  V30 515 H 52.7516 0.755869 0.335546 0
M  V30 516 H 55.2976 1.69589 -0.0614402 0
M  V30 517 H 54.0696 3.90834 0.190828 0
M  V30 518 H 53.6926 3.51415 1.85993 0
M  V30 519 N 54.6897 -0.239769 1.55765 0
M  V30 520 C 55.9147 -0.988373 1.82335 0
M  V30 521 C 56.3397 -1.77886 0.611421 0
M  V30 522 O 55.6977 -1.75889 -0.439639 0
M  V30 523 C 55.7457 -1.89627 3.06715 0
M  V30 524 O 54.8497 -2.98904 2.84131 0
M  V30 525 H 54.1907 -0.280858 0.601677 0
M  V30 526 H 56.7207 -0.258597 2.02959 0
M  V30 527 H 56.7307 -2.30957 3.36338 0
M  V30 528 H 55.4057 -1.31511 3.9456 0
M  V30 529 H 53.9827 -2.61651 2.65694 0
M  V30 530 N 56.1678 -1.49265 -0.50573 0
M  V30 531 C 57.1148 -1.65585 -1.6078 0
M  V30 532 C 58.0848 -0.497396 -1.58478 0
M  V30 533 O 59.2698 -0.72385 -1.76536 0
M  V30 534 C 56.4098 -1.72408 -2.98948 0
M  V30 535 C 55.5228 -2.99525 -3.11301 0
M  V30 536 C 54.6578 -2.97356 -4.40174 0
M  V30 537 C 53.6968 -4.19074 -4.46143 0
M  V30 538 N 52.8338 -4.14841 -5.66437 0
M  V30 539 H 57.6738 -2.59688 -1.46172 0
M  V30 540 H 55.2108 -1.28761 -0.711261 0
M  V30 541 H 57.1688 -1.74344 -3.79025 0
M  V30 542 H 55.7988 -0.817753 -3.1227 0
M  V30 543 H 54.8508 -3.07222 -2.24318 0
M  V30 544 H 56.1628 -3.89518 -3.11572 0
M  V30 545 H 55.3168 -2.97829 -5.28567 0
M  V30 546 H 54.0558 -2.05133 -4.42461 0
M  V30 547 H 53.0608 -4.1885 -3.56153 0
M  V30 548 H 54.2858 -5.12483 -4.45575 0
M  V30 549 H 52.2318 -3.25453 -5.69575 0
M  V30 550 H 52.1488 -4.98564 -5.68304 0
M  V30 551 H 53.4168 -4.1941 -6.57051 0
M  V30 552 N 57.6459 0.756429 -1.3826 0
M  V30 553 C 58.5559 1.9009 -1.37488 0
M  V30 554 C 59.5719 1.71855 -0.272366 0
M  V30 555 O 60.7479 1.94827 -0.510318 0
M  V30 556 C 57.8129 3.25421 -1.19592 0
M  V30 557 C 56.8739 3.56202 -2.39622 0
M  V30 558 C 56.1069 4.85075 -2.2257 0
M  V30 559 O 56.3299 5.57246 -1.21793 0
M  V30 560 O 55.2639 5.15269 -3.11098 0
M  V30 561 H 59.0899 1.93695 -2.33914 0
M  V30 562 H 56.6749 0.901313 -1.1915 0
M  V30 563 H 58.5569 4.06337 -1.11661 0
M  V30 564 H 57.2319 3.22634 -0.262486 0
M  V30 565 H 56.1389 2.75458 -2.53128 0
M  V30 566 H 57.4719 3.63747 -3.31586 0
M  V30 567 N 59.124 1.23083 0.984299 0
M  V30 568 C 60.087 1.00979 2.05757 0
M  V30 569 C 61.087 -0.0269573 1.60777 0
M  V30 570 O 62.277 0.212403 1.729 0
M  V30 571 C 59.409 0.527072 3.36801 0
M  V30 572 H 60.602 1.9622 2.26799 0
M  V30 573 H 58.155 1.05072 1.15714 0
M  V30 574 H 58.89 -0.429294 3.21446 0
M  V30 575 H 58.675 1.27515 3.70786 0
M  V30 576 H 60.165 0.392942 4.15747 0
M  V30 577 N 60.6021 -1.18246 1.0419 0
M  V30 578 C 61.5491 -2.2192 0.634037 0
M  V30 579 C 62.5191 -1.62179 -0.358765 0
M  V30 580 O 63.7041 -1.89122 -0.252466 0
M  V30 581 C 60.8441 -3.451 0.00445535 0
M  V30 582 C 59.9571 -4.19174 1.04487 0
M  V30 583 C 59.0921 -5.29813 0.383676 0
M  V30 584 C 58.1311 -5.9566 1.4091 0
M  V30 585 N 57.2681 -6.97834 0.772784 0
M  V30 586 H 62.1081 -2.56164 1.52263 0
M  V30 587 H 59.6451 -1.25843 0.761701 0
M  V30 588 H 61.6031 -4.15485 -0.377919 0
M  V30 589 H 60.2331 -3.11472 -0.847652 0
M  V30 590 H 59.2851 -3.47604 1.54518 0
M  V30 591 H 60.5971 -4.64267 1.82368 0
M  V30 592 H 59.7511 -6.06677 -0.0528366 0
M  V30 593 H 58.4901 -4.85825 -0.427208 0
M  V30 594 H 57.4951 -5.17535 1.85574 0
M  V30 595 H 58.7201 -6.4173 2.22171 0
M  V30 596 H 56.6661 -6.55998 -0.0177708 0
M  V30 597 H 56.5831 -7.41186 1.48928 0
M  V30 598 H 57.8511 -7.78665 0.36071 0
M  V30 599 N 62.0802 -0.821533 -1.34494 0
M  V30 600 C 63.0272 -0.240397 -2.29545 0
M  V30 601 C 63.9972 0.634031 -1.53523 0
M  V30 602 O 65.1822 0.575966 -1.81899 0
M  V30 603 C 62.3222 0.592869 -3.39969 0
M  V30 604 C 61.4352 -0.30365 -4.30932 0
M  V30 605 C 60.5702 0.539049 -5.28458 0
M  V30 606 C 59.6092 -0.356942 -6.11058 0
M  V30 607 N 58.7462 0.446603 -7.00678 0
M  V30 608 H 63.5862 -1.05632 -2.7865 0
M  V30 609 H 61.1232 -0.532413 -1.37127 0
M  V30 610 H 63.0812 1.09129 -4.02675 0
M  V30 611 H 61.7112 1.37392 -2.92102 0
M  V30 612 H 60.7632 -0.920276 -3.691 0
M  V30 613 H 62.0752 -0.992661 -4.88823 0
M  V30 614 H 61.2292 1.102 -5.96608 0
M  V30 615 H 59.9682 1.26157 -4.71101 0
M  V30 616 H 58.9732 -0.932047 -5.41842 0
M  V30 617 H 60.1982 -1.07755 -6.70497 0
M  V30 618 H 58.1442 1.15282 -6.45791 0
M  V30 619 H 58.0612 -0.184048 -7.55776 0
M  V30 620 H 59.3292 0.992352 -7.73158 0
M  V30 621 N 63.5583 1.46682 -0.576371 0
M  V30 622 C 64.9693 1.86112 -0.148091 0
M  V30 623 C 65.3203 1.48073 1.2872 0
M  V30 624 O 64.4453 0.892656 1.97131 0
M  V30 625 C 65.0403 3.37786 -0.261982 0
M  V30 626 C 63.5993 3.76235 0.111384 0
M  V30 627 C 62.7463 2.70713 -0.60083 0
M  V30 628 H 65.6973 1.37927 -0.78497 0
M  V30 629 H 65.7183 3.77007 0.514364 0
M  V30 630 H 65.2303 3.6544 -1.30671 0
M  V30 631 H 63.3313 3.54198 1.15649 0
M  V30 632 H 63.4443 4.78391 -0.26052 0
M  V30 633 H 61.8083 2.54666 -0.0417783 0
M  V30 634 H 62.5913 3.01208 -1.64708 0
M  V30 635 N 65.0364 0.313813 1.54444 0
M  V30 636 C 65.9844 -0.572171 2.25453 0
M  V30 637 C 66.9784 -1.12657 1.2651 0
M  V30 638 O 68.1844 -1.07573 1.44319 0
M  V30 639 H 64.5594 -0.203146 0.724041 0
M  V30 640 H 66.5304 0.0491145 2.9836 0
M  V30 641 C 65.2794 -1.72626 3.0182 0
M  V30 642 H 64.6024 -1.30891 3.77767 0
M  V30 643 H 66.0424 -2.32199 3.54767 0
M  V30 644 C 64.5014 -2.63806 2.09542 0
M  V30 645 O 65.0314 -3.65256 1.67185 0
M  V30 646 N 63.2374 -2.31824 1.75232 0
M  V30 647 H 62.7844 -1.49368 2.09873 0
M  V30 648 H 62.7424 -2.93095 1.13767 0
M  V30 649 N 66.5145 -1.57545 0.0417849 0
M  V30 650 C 67.7635 -1.91494 -0.633492 0
M  V30 651 C 68.0765 -0.921084 -1.72556 0
M  V30 652 O 69.2825 -1.15228 -2.45835 0
M  V30 653 C 67.7385 -3.40072 -1.17808 0
M  V30 654 C 67.3465 -4.47843 -0.118633 0
M  V30 655 C 69.0905 -3.8307 -1.82915 0
M  V30 656 C 66.9975 -5.87529 -0.675578 0
M  V30 657 H 65.9275 -0.714653 -0.24039 0
M  V30 658 H 68.5785 -1.83175 0.109148 0
M  V30 659 H 66.9605 -3.43364 -1.97274 0
M  V30 660 H 68.1345 -4.56128 0.654494 0
M  V30 661 H 66.4495 -4.14128 0.434414 0
M  V30 662 H 69.0465 -4.84794 -2.25563 0
M  V30 663 H 69.3895 -3.1881 -2.67705 0
M  V30 664 H 69.9225 -3.82255 -1.10119 0
M  V30 665 H 66.6615 -6.55362 0.134475 0
M  V30 666 H 66.1815 -5.82824 -1.4169 0
M  V30 667 H 67.8605 -6.36491 -1.1614 0
M  V30 668 N 67.9926 0.231505 -1.5589 0
M  V30 669 C 69.2416 0.955346 -1.7764 0
M  V30 670 C 69.5546 1.85893 -0.608546 0
M  V30 671 O 70.7606 2.62067 -0.70943 0
M  V30 672 C 69.2166 1.74886 -3.14552 0
M  V30 673 C 68.8246 0.891915 -4.39032 0
M  V30 674 C 70.5686 2.46452 -3.45633 0
M  V30 675 C 68.4756 1.68221 -5.66971 0
M  V30 676 H 67.4056 0.360446 -0.662265 0
M  V30 677 H 70.0566 0.209516 -1.823 0
M  V30 678 H 68.4386 2.53723 -3.04041 0
M  V30 679 H 69.6126 0.144793 -4.60572 0
M  V30 680 H 67.9276 0.288863 -4.15397 0
M  V30 681 H 70.5246 3.06061 -4.38441 0
M  V30 682 H 70.8676 3.18841 -2.67668 0
M  V30 683 H 71.4006 1.74613 -3.57428 0
M  V30 684 H 68.1396 1.00178 -6.478 0
M  V30 685 H 67.6596 2.4042 -5.49507 0
M  V30 686 H 69.3386 2.24544 -6.06786 0
M  V30 687 N 69.4707 1.49531 0.497807 0
M  V30 688 C 70.4187 1.66926 1.61983 0
M  V30 689 C 71.4127 0.535167 1.60724 0
M  V30 690 O 72.6187 0.714896 1.65195 0
M  V30 691 H 68.9937 0.526415 0.537021 0
M  V30 692 H 70.9647 2.61098 1.44465 0
M  V30 693 C 69.7137 1.75602 3.00099 0
M  V30 694 H 69.0367 2.62244 3.01775 0
M  V30 695 H 70.4767 1.91807 3.78135 0
M  V30 696 C 68.9357 0.501543 3.33146 0
M  V30 697 O 69.4657 -0.371342 3.9998 0
M  V30 698 N 67.6717 0.363531 2.88317 0
M  V30 699 H 67.2187 1.07485 2.34104 0
M  V30 700 H 67.1767 -0.474728 3.10795 0
M  V30 701 N 70.9488 -0.749086 1.3866 0
M  V30 702 C 72.1958 -1.50833 1.35114 0
M  V30 703 C 72.5238 -1.94415 -0.0574049 0
M  V30 704 O 71.7788 -1.66065 -1.03541 0
M  V30 705 C 72.0778 -2.7712 2.25697 0
M  V30 706 C 71.7438 -2.52477 3.73585 0
M  V30 707 C 70.4058 -2.45466 4.13884 0
M  V30 708 C 72.7578 -2.31066 4.67181 0
M  V30 709 C 70.0858 -2.15064 5.45861 0
M  V30 710 C 72.4378 -2.02183 5.9942 0
M  V30 711 C 71.1018 -1.93631 6.38798 0
M  V30 712 H 70.3718 -0.551936 0.494416 0
M  V30 713 H 73.0188 -0.860979 1.71054 0
M  V30 714 H 71.3238 -3.46528 1.82827 0
M  V30 715 H 73.0208 -3.35096 2.20254 0
M  V30 716 H 69.6108 -2.58807 3.41638 0
M  V30 717 H 73.7948 -2.35459 4.3689 0
M  V30 718 H 69.0508 -2.06954 5.75308 0
M  V30 719 H 73.2248 -1.8462 6.71482 0
M  V30 720 H 70.8518 -1.69839 7.40985 0
M  V30 721 N 72.4269 -1.23603 -0.977757 0
M  V30 722 C 73.7039 -0.977897 -1.69401 0
M  V30 723 C 74.0839 0.502738 -2.05026 0
M  V30 724 O 73.4319 1.47459 -1.74551 0
M  V30 725 C 73.6419 -1.89077 -2.93345 0
M  V30 726 C 74.9899 -2.15579 -3.65802 0
M  V30 727 O 76.0139 -1.86648 -3.03383 0
M  V30 728 O 74.8729 -2.64658 -4.78141 0
M  V30 729 H 71.9669 -0.369025 -0.740101 0
M  V30 730 H 74.5129 -1.34657 -1.03274 0
M  V30 731 H 73.2849 -2.89158 -2.63634 0
M  V30 732 H 72.9079 -1.52463 -3.67207 0
M  V30 733 N 73.905 1.17692 -1.04816 0
M  V30 734 C 75.133 1.91786 -0.776254 0
M  V30 735 C 75.548 1.76604 0.667577 0
M  V30 736 O 74.905 1.10067 1.45573 0
M  V30 737 C 74.956 3.42967 -1.14263 0
M  V30 738 O 74.677 3.57678 -2.52978 0
M  V30 739 C 76.178 4.34144 -0.896311 0
M  V30 740 H 73.398 0.608624 -0.282519 0
M  V30 741 H 75.942 1.49268 -1.39783 0
M  V30 742 H 74.097 3.83245 -0.565874 0
M  V30 743 H 74.511 4.51319 -2.67229 0
M  V30 744 H 75.985 5.38744 -1.20244 0
M  V30 745 H 76.462 4.38876 0.168636 0
M  V30 746 H 77.068 3.99574 -1.45672 0
M  V30 747 N 75.3831 0.828654 1.34056 0
M  V30 748 C 76.6081 0.431637 2.02859 0
M  V30 749 C 77.0331 -0.956339 1.61975 0
M  V30 750 O 76.3911 -1.62338 0.807228 0
M  V30 751 C 76.4391 0.548323 3.56407 0
M  V30 752 O 75.5431 -0.429556 4.10157 0
M  V30 753 H 74.8841 0.176886 0.640006 0
M  V30 754 H 77.4141 1.12066 1.71179 0
M  V30 755 H 77.4241 0.426196 4.05768 0
M  V30 756 H 76.0991 1.5606 3.8551 0
M  V30 757 H 74.6761 -0.265836 3.71951 0
M  V30 758 N 76.8612 -1.46375 0.584142 0
M  V30 759 C 77.7912 -2.33103 -0.136037 0
M  V30 760 C 78.7722 -1.45431 -0.882255 0
M  V30 761 O 79.9572 -1.74246 -0.857434 0
M  V30 762 C 77.0872 -3.27731 -1.14933 0
M  V30 763 C 76.0412 -4.24855 -0.517862 0
M  V30 764 C 75.3672 -5.09001 -1.63773 0
M  V30 765 C 76.6672 -5.19439 0.545886 0
M  V30 766 H 78.3612 -2.93568 0.588086 0
M  V30 767 H 75.9072 -1.41166 0.284259 0
M  V30 768 H 77.8602 -3.87261 -1.66153 0
M  V30 769 H 76.5842 -2.65377 -1.90375 0
M  V30 770 H 75.2432 -3.6659 -0.0267361 0
M  V30 771 H 74.8912 -4.43031 -2.38185 0
M  V30 772 H 74.5912 -5.74777 -1.22085 0
M  V30 773 H 76.1152 -5.71396 -2.15266 0
M  V30 774 H 77.5292 -5.73177 0.118704 0
M  V30 775 H 75.9262 -5.93566 0.88317 0
M  V30 776 H 76.9962 -4.63285 1.43162 0
M  V30 777 N 78.3393 -0.321999 -1.54275 0
M  V30 778 C 79.7503 0.166384 -1.85957 0
M  V30 779 C 80.1013 1.51747 -1.24367 0
M  V30 780 O 79.2263 2.09317 -0.549124 0
M  V30 781 C 79.8213 0.308681 -3.37391 0
M  V30 782 C 78.3803 0.741286 -3.69028 0
M  V30 783 C 77.5273 -0.137937 -2.76957 0
M  V30 784 H 80.4783 -0.542335 -1.49146 0
M  V30 785 H 80.4993 1.13984 -3.63026 0
M  V30 786 H 80.0113 -0.674809 -3.82188 0
M  V30 787 H 78.1123 1.73458 -3.29762 0
M  V30 788 H 78.2253 0.546118 -4.75977 0
M  V30 789 H 76.5893 0.386251 -2.51754 0
M  V30 790 H 77.3723 -1.11816 -3.2458 0
M  V30 791 N 79.8174 1.5752 -0.0501392 0
M  V30 792 C 81.0454 1.96963 0.633492 0
M  V30 793 C 81.4604 0.927631 1.6444 0
M  V30 794 O 80.8174 -0.0882665 1.82286 0
M  V30 795 C 80.8684 3.36487 1.32132 0
M  V30 796 O 80.5894 4.36693 0.350894 0
M  V30 797 C 82.0904 3.90682 2.09481 0
M  V30 798 H 79.3104 0.648244 0.173266 0
M  V30 799 H 81.8544 2.0417 -0.116134 0
M  V30 800 H 80.0094 3.30434 2.02218 0
M  V30 801 H 80.4234 5.17702 0.841735 0
M  V30 802 H 81.8974 4.90591 2.5303 0
M  V30 803 H 82.3744 3.26053 2.94255 0
M  V30 804 H 82.9804 4.00069 1.44307 0
M  V30 805 N 81.2955 -0.223234 1.56011 0
M  V30 806 C 82.5205 -0.968978 1.83373 0
M  V30 807 C 82.9455 -1.77227 0.630254 0
M  V30 808 O 82.3035 -1.76345 -0.420959 0
M  V30 809 C 82.3515 -1.86363 3.08709 0
M  V30 810 O 81.4555 -2.95873 2.87285 0
M  V30 811 H 80.7965 -0.274461 0.604622 0
M  V30 812 H 83.3265 -0.237056 2.03222 0
M  V30 813 H 83.3365 -2.27376 3.38768 0
M  V30 814 H 82.0115 -1.27319 3.95933 0
M  V30 815 H 80.5885 -2.58818 2.68454 0
M  V30 816 N 82.7736 -1.49793 -0.48987 0
M  V30 817 C 83.7236 -1.63673 -1.5873 0
M  V30 818 C 84.7076 -0.491956 -1.53195 0
M  V30 819 O 85.8996 -0.745461 -1.60536 0
M  V30 820 C 83.0286 -1.71689 -2.97284 0
M  V30 821 C 82.1146 -2.91781 -3.07774 0
M  V30 822 N 82.5056 -4.15714 -2.88124 0
M  V30 823 C 80.8036 -2.89949 -3.38889 0
M  V30 824 C 81.5046 -4.965 -3.03088 0
M  V30 825 N 80.4806 -4.30083 -3.3246 0
M  V30 826 H 84.2826 -2.57204 -1.42208 0
M  V30 827 H 81.7966 -1.46719 -0.69623 0
M  V30 828 H 83.7936 -1.79732 -3.76168 0
M  V30 829 H 82.4536 -0.793024 -3.14867 0
M  V30 830 H 83.4646 -4.45515 -2.64077 0
M  V30 831 H 80.1416 -2.06987 -3.62578 0
M  V30 832 H 81.5316 -6.04991 -2.92294 0
M  V30 833 N 84.2517 0.741722 -1.39055 0
M  V30 834 C 85.4797 1.53098 -1.39171 0
M  V30 835 C 85.8947 1.88794 0.0155099 0
M  V30 836 O 85.2517 1.53626 0.985159 0
M  V30 837 C 85.3027 2.82274 -2.2584 0
M  V30 838 O 85.0237 2.48097 -3.61081 0
M  V30 839 C 86.5247 3.76343 -2.34266 0
M  V30 840 H 83.7447 0.473335 -0.4756 0
M  V30 841 H 86.2887 0.917045 -1.82785 0
M  V30 842 H 84.4437 3.40015 -1.85656 0
M  V30 843 H 84.8577 3.31029 -4.06842 0
M  V30 844 H 86.3317 4.63898 -2.9917 0
M  V30 845 H 86.8087 4.17619 -1.35982 0
M  V30 846 H 87.4147 3.24523 -2.74891 0
M  V30 847 N 85.7298 1.2412 0.971189 0
M  V30 848 C 86.9598 1.10415 1.7462 0
M  V30 849 C 87.3678 -0.346462 1.86001 0
M  V30 850 O 86.7108 -1.25104 1.34517 0
M  V30 851 C 86.7728 1.66596 3.18568 0
M  V30 852 C 86.4368 3.15446 3.3067 0
M  V30 853 C 87.4338 4.12636 3.16271 0
M  V30 854 C 85.1188 3.55337 3.55022 0
M  V30 855 C 87.1128 5.47699 3.26044 0
M  V30 856 C 84.7998 4.90542 3.64434 0
M  V30 857 C 85.7978 5.86532 3.49956 0
M  V30 858 O 85.4858 7.19279 3.59017 0
M  V30 859 H 85.2178 0.386616 0.55453 0
M  V30 860 H 87.7718 1.64633 1.22821 0
M  V30 861 H 86.0018 1.06808 3.71657 0
M  V30 862 H 87.6908 1.48232 3.77865 0
M  V30 863 H 88.4568 3.8316 2.97344 0
M  V30 864 H 84.3358 2.8113 3.65359 0
M  V30 865 H 87.8798 6.22603 3.14661 0
M  V30 866 H 83.7768 5.19691 3.82873 0
M  V30 867 H 84.5448 7.27153 3.75754 0
M  V30 868 N 87.2079 -1.17134 1.05439 0
M  V30 869 C 88.1379 -2.2342 0.678649 0
M  V30 870 C 89.1189 -1.66971 -0.32476 0
M  V30 871 O 90.3039 -1.93149 -0.201802 0
M  V30 872 C 87.4339 -3.47256 0.0552099 0
M  V30 873 C 86.3879 -4.16543 0.98365 0
M  V30 874 C 85.7139 -5.34231 0.223961 0
M  V30 875 C 87.0139 -4.68495 2.3089 0
M  V30 876 H 88.7079 -2.55105 1.56722 0
M  V30 877 H 86.2539 -1.2262 0.754998 0
M  V30 878 H 88.2069 -4.20828 -0.21946 0
M  V30 879 H 86.9309 -3.14846 -0.868319 0
M  V30 880 H 85.5899 -3.44887 1.24293 0
M  V30 881 H 85.2379 -4.98071 -0.702412 0
M  V30 882 H 84.9379 -5.81527 0.842627 0
M  V30 883 H 86.4619 -6.10585 -0.0433671 0
M  V30 884 H 87.8759 -5.33691 2.09396 0
M  V30 885 H 86.2729 -5.26379 2.88176 0
M  V30 886 H 87.3429 -3.85169 2.94572 0
M  V30 887 N 88.686 -0.835752 -1.33615 0
M  V30 888 C 89.934 -0.429109 -1.97492 0
M  V30 889 C 90.255 1.01433 -1.66543 0
M  V30 890 O 89.525 1.70611 -0.962744 0
M  V30 891 H 88.105 -0.155686 -0.730596 0
M  V30 892 H 90.767 -1.06802 -1.63031 0
M  V30 893 H 89.863 -0.55861 -3.0706 0
M  V30 894 N 90.1641 1.46063 -0.591896 0
M  V30 895 C 91.1271 2.28854 0.125973 0
M  V30 896 C 92.1271 1.38903 0.810107 0
M  V30 897 O 93.3171 1.61186 0.66066 0
M  V30 898 C 90.4491 3.19526 1.1881 0
M  V30 899 H 91.6421 2.93802 -0.601717 0
M  V30 900 H 89.1951 1.52325 -0.350254 0
M  V30 901 H 89.9301 2.59345 1.94707 0
M  V30 902 H 89.7151 3.85766 0.701936 0
M  V30 903 H 91.2051 3.81817 1.69132 0
M  V30 904 N 91.6422 0.330177 1.54103 0
M  V30 905 C 92.9192 -0.325007 1.92881 0
M  V30 906 C 93.2992 -1.6934 1.26045 0
M  V30 907 O 92.6472 -2.24855 0.406526 0
M  V30 908 C 92.8572 -0.410634 3.46576 0
M  V30 909 C 94.2052 -0.667801 4.19316 0
M  V30 910 O 95.2292 -0.49329 3.52768 0
M  V30 911 O 94.0882 -1.00491 5.37181 0
M  V30 912 H 91.1822 -0.186873 0.80561 0
M  V30 913 H 93.7282 0.380376 1.65382 0
M  V30 914 H 92.5002 0.550164 3.87413 0
M  V30 915 H 92.1232 -1.16333 3.802 0
M  V30 916 N 93.1203 -1.57491 0.0584922 0
M  V30 917 C 94.0533 -2.07533 -0.948969 0
M  V30 918 C 95.0313 -0.977444 -1.29942 0
M  V30 919 O 96.2153 -1.2499 -1.41102 0
M  V30 920 C 93.3423 -2.52192 -2.2609 0
M  V30 921 C 92.3883 -3.73287 -2.06298 0
M  V30 922 S 93.2213 -5.18603 -1.33459 0
M  V30 923 C 94.3773 -5.66583 -2.65959 0
M  V30 924 H 94.6103 -2.92662 -0.523118 0
M  V30 925 H 92.1433 -1.53631 -0.153954 0
M  V30 926 H 94.1013 -2.78585 -3.01498 0
M  V30 927 H 92.7623 -1.67356 -2.65802 0
M  V30 928 H 91.9553 -4.0248 -3.03357 0
M  V30 929 H 91.5573 -3.47199 -1.39029 0
M  V30 930 H 93.8493 -5.72616 -3.62101 0
M  V30 931 H 94.7923 -6.65684 -2.41393 0
M  V30 932 H 95.2003 -4.94342 -2.72554 0
M  V30 933 N 94.5984 0.214957 -1.56127 0
M  V30 934 C 95.5084 1.28727 -1.96129 0
M  V30 935 C 96.5244 1.50916 -0.866044 0
M  V30 936 O 97.7004 1.63918 -1.17016 0
M  V30 937 C 94.7654 2.61569 -2.27558 0
M  V30 938 C 93.8264 2.47625 -3.50685 0
M  V30 939 C 93.0594 3.74132 -3.80606 0
M  V30 940 O 93.2824 4.77438 -3.12104 0
M  V30 941 O 92.2164 3.70849 -4.74083 0
M  V30 942 H 96.0424 0.977855 -2.87527 0
M  V30 943 H 93.6274 0.418358 -1.43423 0
M  V30 944 H 95.5094 3.40012 -2.48938 0
M  V30 945 H 94.1844 2.92178 -1.39332 0
M  V30 946 H 93.0914 1.67361 -3.34576 0
M  V30 947 H 94.4244 2.21954 -4.39315 0
M  V30 948 N 96.0765 1.50051 0.48192 0
M  V30 949 C 96.9865 1.7089 1.60728 0
M  V30 950 C 98.0025 0.591788 1.63627 0
M  V30 951 O 99.1785 0.868817 1.81696 0
M  V30 952 C 96.2435 1.78855 2.97005 0
M  V30 953 C 95.3045 3.02537 3.04581 0
M  V30 954 C 94.5375 3.10112 4.34357 0
M  V30 955 O 94.7605 2.24765 5.24249 0
M  V30 956 O 93.6945 4.02747 4.47301 0
M  V30 957 H 97.5205 2.66264 1.46072 0
M  V30 958 H 95.1055 1.34018 0.660264 0
M  V30 959 H 96.9875 1.86336 3.77964 0
M  V30 960 H 95.6625 0.866628 3.11883 0
M  V30 961 H 94.5695 3.00563 2.22739 0
M  V30 962 H 95.9025 3.94272 2.94636 0
M  V30 963 N 97.5546 -0.734337 1.39446 0
M  V30 964 C 98.8016 -1.49391 1.36706 0
M  V30 965 C 99.1296 -1.94465 -0.0367813 0
M  V30 966 O 98.3846 -1.67154 -1.01774 0
M  V30 967 C 98.6836 -2.74711 2.28623 0
M  V30 968 C 98.3496 -2.48501 3.76242 0
M  V30 969 C 97.0116 -2.41062 4.16464 0
M  V30 970 C 99.3636 -2.26098 4.69606 0
M  V30 971 C 96.6916 -2.09262 5.48112 0
M  V30 972 C 99.0436 -1.95814 6.01531 0
M  V30 973 C 97.7076 -1.86845 6.40816 0
M  V30 974 H 96.9776 -0.546661 0.500243 0
M  V30 975 H 99.6246 -0.842788 1.71957 0
M  V30 976 H 97.9296 -3.44569 1.86492 0
M  V30 977 H 99.6266 -3.32741 2.23796 0
M  V30 978 H 96.2166 -2.55169 3.44364 0
M  V30 979 H 100.401 -2.30812 4.39363 0
M  V30 980 H 95.6566 -2.00841 5.77471 0
M  V30 981 H 99.8306 -1.77488 6.73403 0
M  V30 982 H 97.4576 -1.6197 7.42745 0
M  V30 983 N 99.0327 -1.24633 -0.964593 0
M  V30 984 C 99.9827 -1.00841 -2.04487 0
M  V30 985 C 100.967 0.0512468 -1.60818 0
M  V30 986 O 102.159 -0.162865 -1.76249 0
M  V30 987 C 99.2877 -0.618474 -3.37683 0
M  V30 988 C 98.3737 -1.71437 -3.87905 0
M  V30 989 N 98.7647 -2.9477 -4.11029 0
M  V30 990 C 97.0627 -1.5926 -4.16596 0
M  V30 991 C 97.7637 -3.65834 -4.52261 0
M  V30 992 N 96.7397 -2.9341 -4.57615 0
M  V30 993 H 100.542 -1.94487 -2.20345 0
M  V30 994 H 98.0557 -1.14805 -1.14863 0
M  V30 995 H 100.053 -0.429247 -4.14684 0
M  V30 996 H 98.7127 0.310766 -3.23209 0
M  V30 997 H 99.7237 -3.30917 -3.9839 0
M  V30 998 H 96.4007 -0.731606 -4.1104 0
M  V30 999 H 97.7907 -4.71646 -4.78539 0
M  V30 1000 N 100.511 1.16574 -1.06058 0
M  V30 1001 C 101.759 1.86677 -0.77434 0
M  V30 1002 C 102.08 1.81959 0.701147 0
M  V30 1003 O 101.35 1.2515 1.50713 0
M  V30 1004 H 99.9298 0.691134 -0.283449 0
M  V30 1005 H 102.592 1.41378 -1.34158 0
M  V30 1006 H 101.688 2.92181 -1.09711 0
M  V30 1007 N 101.989 0.842826 1.3317 0
M  V30 1008 C 103.405 0.531128 1.50503 0
M  V30 1009 C 103.605 -0.940734 1.78192 0
M  V30 1010 O 102.661 -1.72436 1.84451 0
M  V30 1011 C 103.974 1.40789 2.65705 0
M  V30 1012 C 105.522 1.40708 2.79589 0
M  V30 1013 C 105.997 2.26878 3.97857 0
M  V30 1014 N 107.488 2.24609 4.05099 0
M  V30 1015 C 108.223 2.88019 4.95815 0
M  V30 1016 N 107.719 3.60496 5.9162 0
M  V30 1017 N 109.512 2.77469 4.88843 0
M  V30 1018 H 101.663 1.79557 1.1346 0
M  V30 1019 H 103.926 0.766267 0.558156 0
M  V30 1020 H 103.632 2.454 2.51936 0
M  V30 1021 H 103.506 1.08677 3.61205 0
M  V30 1022 H 105.893 0.368668 2.92788 0
M  V30 1023 H 105.974 1.76829 1.84838 0
M  V30 1024 H 105.618 3.3078 3.85418 0
M  V30 1025 H 105.548 1.88096 4.91861 0
M  V30 1026 H 108.039 1.71906 3.36536 0
M  V30 1027 H 108.352 4.06076 6.57512 0
M  V30 1028 H 106.697 3.64604 5.91683 0
M  V30 1029 H 109.888 2.20406 4.12963 0
M  V30 1030 H 110.061 3.2717 5.59342 0
M  V30 1031 N 103.467 -1.45747 0.599634 0
M  V30 1032 C 104.695 -2.06668 0.0978551 0
M  V30 1033 C 105.11 -1.44562 -1.21439 0
M  V30 1034 O 104.467 -0.556923 -1.73795 0
M  V30 1035 C 104.518 -3.61456 -0.0567044 0
M  V30 1036 O 104.239 -4.21242 1.20361 0
M  V30 1037 C 105.74 -4.39345 -0.590869 0
M  V30 1038 H 102.96 -0.667825 0.0651943 0
M  V30 1039 H 105.504 -1.87115 0.82511 0
M  V30 1040 H 103.659 -3.80378 -0.734251 0
M  V30 1041 H 104.073 -5.14323 1.02821 0
M  V30 1042 H 105.547 -5.48182 -0.648131 0
M  V30 1043 H 106.024 -4.08568 -1.61147 0
M  V30 1044 H 106.63 -4.25268 0.0523679 0
M  V30 1045 N 104.945 -0.338344 -1.53925 0
M  V30 1046 C 105.875 0.51328 -2.27789 0
M  V30 1047 C 106.856 1.107 -1.29149 0
M  V30 1048 O 108.041 1.12937 -1.57984 0
M  V30 1049 C 105.171 1.66697 -3.04679 0
M  V30 1050 C 104.125 1.20183 -4.1078 0
M  V30 1051 C 103.451 2.44363 -4.75595 0
M  V30 1052 C 104.751 0.30605 -5.21403 0
M  V30 1053 H 106.445 -0.102883 -2.99223 0
M  V30 1054 H 103.991 -0.0509219 -1.4391 0
M  V30 1055 H 105.944 2.26915 -3.55088 0
M  V30 1056 H 104.668 2.30995 -2.30887 0
M  V30 1057 H 103.327 0.622499 -3.61276 0
M  V30 1058 H 102.975 3.07057 -3.98403 0
M  V30 1059 H 102.675 2.13925 -5.47275 0
M  V30 1060 H 104.199 3.05317 -5.28786 0
M  V30 1061 H 105.613 0.814929 -5.67478 0
M  V30 1062 H 104.01 0.0937929 -6.00027 0
M  V30 1063 H 105.08 -0.65921 -4.80398 0
M  V30 1064 N 106.423 1.57458 -0.0668435 0
M  V30 1065 C 107.373 2.0896 0.912119 0
M  V30 1066 C 108.357 0.998186 1.26195 0
M  V30 1067 O 109.549 1.26133 1.24175 0
M  V30 1068 C 106.678 2.6508 2.18145 0
M  V30 1069 C 105.764 3.81218 1.85832 0
M  V30 1070 N 106.155 4.90378 1.23948 0
M  V30 1071 C 104.453 3.9042 2.15612 0
M  V30 1072 C 105.154 5.71279 1.09616 0
M  V30 1073 N 104.13 5.19389 1.60423 0
M  V30 1074 H 107.932 2.90749 0.42924 0
M  V30 1075 H 105.446 1.6182 0.137184 0
M  V30 1076 H 107.443 3.0029 2.89192 0
M  V30 1077 H 106.103 1.84736 2.67025 0
M  V30 1078 H 107.114 5.09847 0.909731 0
M  V30 1079 H 103.791 3.21043 2.66903 0
M  V30 1080 H 105.181 6.69085 0.614425 0
M  V30 1081 N 107.901 -0.206675 1.56239 0
M  V30 1082 C 109.178 -0.954051 1.70755 0
M  V30 1083 C 109.558 -2.01841 0.618353 0
M  V30 1084 O 108.906 -2.25444 -0.372434 0
M  V30 1085 C 109.116 -1.551 3.12642 0
M  V30 1086 C 110.464 -2.03757 3.72516 0
M  V30 1087 O 111.488 -1.64965 3.15698 0
M  V30 1088 O 110.347 -2.75103 4.72208 0
M  V30 1089 H 107.441 -0.446636 0.696021 0
M  V30 1090 H 109.987 -0.197283 1.68549 0
M  V30 1091 H 108.759 -0.783212 3.83382 0
M  V30 1092 H 108.382 -2.37291 3.19028 0
M  V30 1093 N 109.379 -1.50304 -0.473955 0
M  V30 1094 C 110.656 -1.51667 -1.23518 0
M  V30 1095 C 111.036 -0.259701 -2.09496 0
M  V30 1096 O 110.384 0.756986 -2.15597 0
M  V30 1097 C 110.594 -2.81082 -2.06868 0
M  V30 1098 C 111.942 -3.31631 -2.65153 0
M  V30 1099 O 112.966 -2.82384 -2.17113 0
M  V30 1100 O 111.825 -4.17471 -3.52675 0
M  V30 1101 H 108.919 -0.60822 -0.560355 0
M  V30 1102 H 111.465 -1.62592 -0.486011 0
M  V30 1103 H 110.237 -3.64041 -1.4349 0
M  V30 1104 H 109.86 -2.73146 -2.88924 0
M  V30 1105 N 110.857 0.726932 -1.39834 0
M  V30 1106 C 112.134 1.47902 -1.28001 0
M  V30 1107 C 112.514 2.1083 0.106789 0
M  V30 1108 O 111.862 1.99242 1.11869 0
M  V30 1109 C 112.072 2.52392 -2.41038 0
M  V30 1110 C 113.42 3.18546 -2.80737 0
M  V30 1111 O 114.444 2.62708 -2.40547 0
M  V30 1112 O 113.303 4.19604 -3.50135 0
M  V30 1113 H 110.397 0.657163 -0.502062 0
M  V30 1114 H 112.943 0.760071 -1.51727 0
M  V30 1115 H 111.715 2.04329 -3.33715 0
M  V30 1116 H 111.338 3.31837 -2.19021 0
M  V30 1117 N 112.336 1.25143 0.95797 0
M  V30 1118 C 113.561 1.12521 1.74223 0
M  V30 1119 C 113.986 -0.317402 1.85403 0
M  V30 1120 O 113.344 -1.2299 1.33204 0
M  V30 1121 C 113.392 1.78062 3.1357 0
M  V30 1122 O 112.496 1.058 3.98598 0
M  V30 1123 H 111.837 0.39304 0.535178 0
M  V30 1124 H 114.367 1.65641 1.201 0
M  V30 1125 H 114.377 1.84213 3.64046 0
M  V30 1126 H 113.052 2.83021 3.04749 0
M  V30 1127 H 111.629 1.07506 3.57067 0
M  V30 1128 N 113.814 -1.1601 1.06675 0
M  V30 1129 C 115.054 -1.88304 0.795037 0
M  V30 1130 C 115.418 -1.80062 -0.666466 0
M  V30 1131 O 116.619 -2.47319 -1.05293 0
M  V30 1132 C 114.89 -3.33664 1.28076 0
M  V30 1133 S 116.449 -4.23768 1.13868 0
M  V30 1134 H 113.267 -0.649928 0.288296 0
M  V30 1135 H 115.869 -1.4001 1.36445 0
M  V30 1136 H 114.573 -3.37203 2.33927 0
M  V30 1137 H 114.104 -3.87009 0.706253 0
M  V30 1138 H 116.119 -4.96148 0.0719668 0
M  V30 1139 N 115.292 -0.849877 -1.32721 0
M  V30 1140 C 116.224 -0.248332 -2.27851 0
M  V30 1141 C 117.237 0.577218 -1.52224 0
M  V30 1142 O 118.426 0.402489 -1.73903 0
M  V30 1143 C 115.526 0.668107 -3.32249 0
M  V30 1144 C 114.699 -0.120534 -4.37234 0
M  V30 1145 C 113.758 0.720932 -5.21238 0
M  V30 1146 O 112.784 0.156166 -5.68986 0
M  V30 1147 N 113.986 2.03647 -5.43607 0
M  V30 1148 H 116.751 -1.06575 -2.80111 0
M  V30 1149 H 114.312 -0.709395 -1.45531 0
M  V30 1150 H 116.304 1.23627 -3.85355 0
M  V30 1151 H 114.874 1.38621 -2.80184 0
M  V30 1152 H 114.094 -0.870108 -3.84477 0
M  V30 1153 H 115.382 -0.662406 -5.0447 0
M  V30 1154 H 114.78 2.51871 -5.06535 0
M  V30 1155 H 113.337 2.55287 -5.99727 0
M  V30 1156 N 116.77 1.45427 -0.607355 0
M  V30 1157 C 118.016 2.0254 -0.102607 0
M  V30 1158 C 118.349 1.47478 1.26348 0
M  V30 1159 O 117.624 0.64939 1.83339 0
M  V30 1160 C 117.907 3.60044 -0.0634347 0
M  V30 1161 C 117.76 4.2544 -1.46017 0
M  V30 1162 C 119.079 4.35646 0.624514 0
M  V30 1163 H 116.198 0.73598 -0.0387607 0
M  V30 1164 H 118.84 1.73284 -0.779282 0
M  V30 1165 H 116.99 3.85101 0.512808 0
M  V30 1166 H 118.662 4.11569 -2.08347 0
M  V30 1167 H 116.905 3.83849 -2.02094 0
M  V30 1168 H 117.576 5.34342 -1.385 0
M  V30 1169 H 120.052 4.15882 0.134723 0
M  V30 1170 H 118.928 5.45376 0.621028 0
M  V30 1171 H 119.189 4.08501 1.69055 0
M  V30 1172 N 118.248 0.346503 1.53744 0
M  V30 1173 C 119.497 -0.250122 2.00143 0
M  V30 1174 C 119.81 -1.51418 1.23822 0
M  V30 1175 O 121.016 -2.18823 1.60713 0
M  V30 1176 C 119.472 -0.496252 3.56462 0
M  V30 1177 C 119.08 0.752077 4.41642 0
M  V30 1178 C 120.824 -1.05157 4.11269 0
M  V30 1179 C 118.731 0.476583 5.89477 0
M  V30 1180 H 117.661 -0.0972409 0.747703 0
M  V30 1181 H 120.312 0.46229 1.77581 0
M  V30 1182 H 118.694 -1.26944 3.75102 0
M  V30 1183 H 119.868 1.5266 4.34778 0
M  V30 1184 H 118.183 1.22925 3.97842 0
M  V30 1185 H 120.78 -1.27269 5.19333 0
M  V30 1186 H 121.123 -2.00799 3.64672 0
M  V30 1187 H 121.656 -0.339019 3.96353 0
M  V30 1188 H 118.395 1.4028 6.40314 0
M  V30 1189 H 117.915 -0.259794 5.99237 0
M  V30 1190 H 119.594 0.0949315 6.4693 0
M  V30 1191 N 119.726 -1.57421 0.075193 0
M  V30 1192 C 121.137 -1.81021 -0.456964 0
M  V30 1193 C 121.488 -0.98936 -1.69429 0
M  V30 1194 O 120.613 -0.212865 -2.15351 0
M  V30 1195 C 121.208 -3.28329 -0.83581 0
M  V30 1196 C 119.767 -3.52764 -1.31281 0
M  V30 1197 C 118.914 -2.75676 -0.299648 0
M  V30 1198 H 121.865 -1.55822 0.300856 0
M  V30 1199 H 121.886 -3.40564 -1.69696 0
M  V30 1200 H 121.398 -3.88046 0.0649238 0
M  V30 1201 H 119.499 -2.98355 -2.23193 0
M  V30 1202 H 119.612 -4.61451 -1.28839 0
M  V30 1203 H 117.976 -2.42538 -0.777641 0
M  V30 1204 H 118.759 -3.38132 0.593417 0
M  V30 1205 N 121.204 0.198386 -1.56346 0
M  V30 1206 C 122.45 0.920648 -1.80698 0
M  V30 1207 C 122.783 1.83045 -0.648697 0
M  V30 1208 O 122.058 1.91308 0.350925 0
M  V30 1209 C 122.341 1.73971 -3.15287 0
M  V30 1210 C 122.194 0.85485 -4.41602 0
M  V30 1211 C 123.513 2.71296 -3.46535 0
M  V30 1212 H 120.632 0.333261 -0.657348 0
M  V30 1213 H 123.274 0.188198 -1.89066 0
M  V30 1214 H 121.424 2.36416 -3.08285 0
M  V30 1215 H 123.096 0.245362 -4.60647 0
M  V30 1216 H 121.339 0.161398 -4.335 0
M  V30 1217 H 122.01 1.46286 -5.32264 0
M  V30 1218 H 124.486 2.18983 -3.53816 0
M  V30 1219 H 123.362 3.2569 -4.41834 0
M  V30 1220 H 123.623 3.5018 -2.69864 0
M  V30 1221 N 122.682 1.50554 0.465978 0
M  V30 1222 C 123.612 1.72722 1.57128 0
M  V30 1223 C 124.593 0.576294 1.6004 0
M  V30 1224 O 125.778 0.81598 1.76225 0
M  V30 1225 C 122.908 1.82605 2.95419 0
M  V30 1226 C 121.862 2.97835 3.07373 0
M  V30 1227 C 121.188 2.92867 4.47363 0
M  V30 1228 C 122.488 4.38265 2.84114 0
M  V30 1229 H 124.182 2.65267 1.38829 0
M  V30 1230 H 121.728 1.2765 0.666441 0
M  V30 1231 H 123.681 1.96698 3.72677 0
M  V30 1232 H 122.405 0.866858 3.14886 0
M  V30 1233 H 121.064 2.83401 2.3255 0
M  V30 1234 H 120.712 1.94783 4.63755 0
M  V30 1235 H 120.412 3.70227 4.56296 0
M  V30 1236 H 121.936 3.09015 5.26633 0
M  V30 1237 H 123.35 4.53198 3.51118 0
M  V30 1238 H 121.747 5.17115 3.04487 0
M  V30 1239 H 122.817 4.50281 1.7993 0
M  V30 1240 N 124.16 -0.719506 1.40217 0
M  V30 1241 C 125.571 -1.29848 1.34151 0
M  V30 1242 C 125.922 -1.96196 0.0131349 0
M  V30 1243 O 125.047 -1.973 -0.88892 0
M  V30 1244 C 125.642 -2.36118 2.42968 0
M  V30 1245 C 124.201 -2.8965 2.40374 0
M  V30 1246 C 123.348 -1.63393 2.24049 0
M  V30 1247 H 126.299 -0.51591 1.5008 0
M  V30 1248 H 126.32 -3.16871 2.10649 0
M  V30 1249 H 125.832 -1.878 3.39636 0
M  V30 1250 H 123.933 -3.42208 1.47392 0
M  V30 1251 H 124.046 -3.4171 3.35814 0
M  V30 1252 H 122.41 -1.88312 1.71495 0
M  V30 1253 H 123.193 -1.17104 3.2271 0
M  V30 1254 N 125.638 -1.25649 -0.95132 0
M  V30 1255 C 126.57 -1.02112 -2.05197 0
M  V30 1256 C 127.583 0.0150571 -1.62793 0
M  V30 1257 O 128.772 -0.223874 -1.77091 0
M  V30 1258 C 125.872 -0.522361 -3.3485 0
M  V30 1259 C 125.045 -1.62546 -4.06076 0
M  V30 1260 C 124.104 -1.12649 -5.14001 0
M  V30 1261 O 123.13 -1.82156 -5.39266 0
M  V30 1262 N 124.332 0.03047 -5.80492 0
M  V30 1263 H 127.097 -1.96885 -2.25957 0
M  V30 1264 H 124.658 -1.16899 -1.1201 0
M  V30 1265 H 126.65 -0.172961 -4.0433 0
M  V30 1266 H 125.22 0.33151 -3.10837 0
M  V30 1267 H 124.44 -2.14628 -3.30649 0
M  V30 1268 H 125.728 -2.36644 -4.50419 0
M  V30 1269 H 125.126 0.611169 -5.62389 0
M  V30 1270 H 123.683 0.320875 -6.5101 0
M  V30 1271 N 127.117 1.15442 -1.07289 0
M  V30 1272 C 128.363 1.86489 -0.796846 0
M  V30 1273 C 128.696 1.82078 0.675371 0
M  V30 1274 O 127.971 1.24346 1.4956 0
M  V30 1275 C 128.254 3.35626 -1.30489 0
M  V30 1276 C 128.107 3.48673 -2.84161 0
M  V30 1277 C 129.426 4.30357 -0.920907 0
M  V30 1278 H 126.545 0.677144 -0.290939 0
M  V30 1279 H 129.187 1.35633 -1.33056 0
M  V30 1280 H 127.337 3.79068 -0.850883 0
M  V30 1281 H 129.009 3.14099 -3.37846 0
M  V30 1282 H 127.252 2.90253 -3.22391 0
M  V30 1283 H 127.923 4.53453 -3.14777 0
M  V30 1284 H 130.399 3.94871 -1.3121 0
M  V30 1285 H 129.275 5.33193 -1.30372 0
M  V30 1286 H 129.536 4.4176 0.173226 0
M  V30 1287 N 128.595 0.856903 1.32268 0
M  V30 1288 C 129.528 0.247937 2.26849 0
M  V30 1289 C 130.506 -0.615382 1.50505 0
M  V30 1290 O 131.69 -0.571689 1.79622 0
M  V30 1291 C 128.817 -0.650093 3.32403 0
M  V30 1292 C 127.863 0.140138 4.2627 0
M  V30 1293 S 128.696 1.51004 5.13769 0
M  V30 1294 C 129.852 0.61778 6.22844 0
M  V30 1295 H 130.085 1.04971 2.78152 0
M  V30 1296 H 127.618 0.654665 1.39834 0
M  V30 1297 H 129.576 -1.16256 3.93694 0
M  V30 1298 H 128.237 -1.4257 2.7988 0
M  V30 1299 H 127.43 -0.543945 5.01056 0
M  V30 1300 H 127.032 0.584267 3.69408 0
M  V30 1301 H 129.324 -0.177053 6.77269 0
M  V30 1302 H 130.267 1.33636 6.95375 0
M  V30 1303 H 130.675 0.191124 5.64176 0
M  V30 1304 N 130.073 -1.45103 0.615059 0
M  V30 1305 C 131.006 -2.27717 -0.148408 0
M  V30 1306 C 131.984 -1.37584 -0.866572 0
M  V30 1307 O 133.168 -1.67017 -0.87393 0
M  V30 1308 C 130.295 -3.16136 -1.21557 0
M  V30 1309 C 129.341 -4.22263 -0.599712 0
M  V30 1310 S 130.174 -5.3215 0.598081 0
M  V30 1311 C 131.33 -6.24137 -0.469484 0
M  V30 1312 H 131.563 -2.92121 0.552483 0
M  V30 1313 H 129.096 -1.49054 0.402778 0
M  V30 1314 H 131.054 -3.67633 -1.82638 0
M  V30 1315 H 129.715 -2.50982 -1.88857 0
M  V30 1316 H 128.908 -4.84081 -1.4029 0
M  V30 1317 H 128.51 -3.73945 -0.063876 0
M  V30 1318 H 130.802 -6.63984 -1.34652 0
M  V30 1319 H 131.745 -7.0801 0.112725 0
M  V30 1320 H 132.153 -5.58971 -0.788168 0
M  V30 1321 N 131.551 -0.354651 -1.53558 0
M  V30 1322 C 132.8 0.239504 -2.00273 0
M  V30 1323 C 133.113 1.50759 -1.24623 0
M  V30 1324 O 134.319 2.17968 -1.61871 0
M  V30 1325 C 132.775 0.477341 -3.5672 0
M  V30 1326 C 132.383 -0.775488 -4.41237 0
M  V30 1327 C 134.127 1.02975 -4.11821 0
M  V30 1328 C 132.034 -0.507838 -5.89216 0
M  V30 1329 H 130.964 0.0932743 -0.748208 0
M  V30 1330 H 133.615 -0.471701 -1.77334 0
M  V30 1331 H 131.997 1.24953 -3.7577 0
M  V30 1332 H 133.171 -1.54963 -4.33962 0
M  V30 1333 H 131.486 -1.25033 -3.97185 0
M  V30 1334 H 134.083 1.24513 -5.2 0
M  V30 1335 H 134.426 1.98862 -3.65731 0
M  V30 1336 H 134.959 0.317994 -3.96527 0
M  V30 1337 H 131.698 -1.43674 -6.39561 0
M  V30 1338 H 131.218 0.228011 -5.99366 0
M  V30 1339 H 132.897 -0.129238 -6.46871 0
M  V30 1340 N 133.029 1.57378 -0.0835403 0
M  V30 1341 C 133.959 2.1641 0.87686 0
M  V30 1342 C 134.94 1.09429 1.30228 0
M  V30 1343 O 136.125 1.37516 1.37124 0
M  V30 1344 C 133.255 2.73517 2.14022 0
M  V30 1345 C 132.209 3.85769 1.85381 0
M  V30 1346 C 131.535 4.29529 3.18448 0
M  V30 1347 C 132.835 5.09486 1.14984 0
M  V30 1348 H 134.529 2.96914 0.385059 0
M  V30 1349 H 132.075 1.42823 0.18377 0
M  V30 1350 H 134.028 3.13463 2.81636 0
M  V30 1351 H 132.752 1.90252 2.65465 0
M  V30 1352 H 131.411 3.46345 1.20169 0
M  V30 1353 H 131.059 3.43169 3.67755 0
M  V30 1354 H 130.759 5.05204 3.00071 0
M  V30 1355 H 132.283 4.72099 3.8724 0
M  V30 1356 H 133.697 5.46674 1.72687 0
M  V30 1357 H 132.094 5.90515 1.06826 0
M  V30 1358 H 133.164 4.84724 0.130749 0
M  V30 1359 N 134.507 -0.190092 1.56449 0
M  V30 1360 C 135.756 -0.907912 1.80111 0
M  V30 1361 C 136.069 -1.84214 0.657619 0
M  V30 1362 O 137.275 -2.60094 0.778663 0
M  V30 1363 C 135.731 -1.66485 3.19078 0
M  V30 1364 C 135.339 -0.7752 4.41242 0
M  V30 1365 C 137.083 -2.37201 3.52045 0
M  V30 1366 C 134.99 -1.53129 5.71231 0
M  V30 1367 H 133.92 -0.34276 0.671589 0
M  V30 1368 H 136.571 -0.161109 1.82791 0
M  V30 1369 H 134.953 -2.45572 3.10661 0
M  V30 1370 H 136.127 -0.0226298 4.60794 0
M  V30 1371 H 134.442 -0.178627 4.16017 0
M  V30 1372 H 137.039 -2.94329 4.46402 0
M  V30 1373 H 137.382 -3.11632 2.76028 0
M  V30 1374 H 137.915 -1.65075 3.61932 0
M  V30 1375 H 134.654 -0.82967 6.50228 0
M  V30 1376 H 134.174 -2.25767 5.55688 0
M  V30 1377 H 135.853 -2.08377 6.12526 0
M  V30 1378 N 135.985 -1.50799 -0.457987 0
M  V30 1379 C 137.396 -1.55152 -1.0385 0
M  V30 1380 C 137.747 -0.362719 -1.92818 0
M  V30 1381 O 136.872 0.522915 -2.09987 0
M  V30 1382 C 137.467 -2.81173 -1.89017 0
M  V30 1383 C 136.026 -2.88164 -2.42154 0
M  V30 1384 C 135.173 -2.49591 -1.20829 0
M  V30 1385 H 138.124 -1.56874 -0.240068 0
M  V30 1386 H 138.145 -2.63769 -2.74238 0
M  V30 1387 H 137.657 -3.67677 -1.24238 0
M  V30 1388 H 135.758 -2.06042 -3.10447 0
M  V30 1389 H 135.871 -3.91356 -2.76364 0
M  V30 1390 H 134.235 -2.02322 -1.54719 0
M  V30 1391 H 135.018 -3.38418 -0.576927 0
M  V30 1392 N 137.463 0.71206 -1.40597 0
M  V30 1393 C 138.711 1.46907 -1.38791 0
M  V30 1394 C 139.032 1.94998 0.00780391 0
M  V30 1395 O 138.302 1.70587 0.963174 0
M  V30 1396 H 136.882 0.545043 -0.51082 0
M  V30 1397 H 139.544 0.843882 -1.75683 0
M  V30 1398 H 138.64 2.34021 -2.06496 0
M  V30 1399 N 138.941 1.26152 0.944643 0
M  V30 1400 C 139.873 1.03199 2.04652 0
M  V30 1401 C 140.886 -0.00642356 1.62799 0
M  V30 1402 O 142.075 0.233263 1.76969 0
M  V30 1403 C 139.175 0.540111 3.34568 0
M  V30 1404 C 138.348 1.64697 4.05208 0
M  V30 1405 C 137.407 1.15374 5.13396 0
M  V30 1406 O 136.433 1.85013 5.38293 0
M  V30 1407 N 137.635 0.00031529 5.805 0
M  V30 1408 H 140.4 1.9808 2.2491 0
M  V30 1409 H 137.961 1.17491 1.11389 0
M  V30 1410 H 139.953 0.194401 4.04233 0
M  V30 1411 H 138.523 -0.315021 3.11009 0
M  V30 1412 H 137.743 2.16379 3.29506 0
M  V30 1413 H 139.031 2.3903 4.49157 0
M  V30 1414 H 138.429 -0.581336 5.62705 0
M  V30 1415 H 136.986 -0.286346 6.51171 0
M  V30 1416 N 140.419 -1.14872 1.07899 0
M  V30 1417 C 141.647 -1.89661 0.82683 0
M  V30 1418 C 142.062 -1.78312 -0.620519 0
M  V30 1419 O 141.419 -1.13888 -1.42604 0
M  V30 1420 C 141.47 -3.39817 1.23316 0
M  V30 1421 O 141.191 -3.50845 2.62372 0
M  V30 1422 C 142.692 -4.31615 1.0111 0
M  V30 1423 H 139.912 -0.60092 0.298557 0
M  V30 1424 H 142.456 -1.4551 1.43691 0
M  V30 1425 H 140.611 -3.8161 0.667286 0
M  V30 1426 H 141.025 -4.44076 2.79101 0
M  V30 1427 H 142.499 -5.35367 1.34486 0
M  V30 1428 H 142.976 -4.39169 -0.0522168 0
M  V30 1429 H 143.582 -3.95572 1.56215 0
M  V30 1430 N 141.898 -0.863906 -1.31812 0
M  V30 1431 C 142.828 -0.330843 -2.31144 0
M  V30 1432 C 143.809 0.575005 -1.60087 0
M  V30 1433 O 144.994 0.493304 -1.8783 0
M  V30 1434 C 142.124 0.47374 -3.44054 0
M  V30 1435 C 141.078 -0.338481 -4.26659 0
M  V30 1436 C 140.404 0.591412 -5.31419 0
M  V30 1437 C 141.704 -1.56926 -4.98168 0
M  V30 1438 H 143.398 -1.16086 -2.75979 0
M  V30 1439 H 140.944 -0.559657 -1.32679 0
M  V30 1440 H 142.897 0.857143 -4.12591 0
M  V30 1441 H 141.621 1.33721 -2.9797 0
M  V30 1442 H 140.28 -0.703754 -3.59782 0
M  V30 1443 H 139.928 1.45199 -4.81587 0
M  V30 1444 H 139.628 0.0519022 -5.87577 0
M  V30 1445 H 141.152 0.97179 -6.02817 0
M  V30 1446 H 142.566 -1.25764 -5.59336 0
M  V30 1447 H 140.963 -2.04739 -5.64094 0
M  V30 1448 H 142.033 -2.32544 -4.25501 0
M  V30 1449 N 143.376 1.44774 -0.622745 0
M  V30 1450 C 144.787 1.85546 -0.207226 0
M  V30 1451 C 145.138 1.52093 1.23944 0
M  V30 1452 O 144.263 0.95492 1.94191 0
M  V30 1453 C 144.858 3.36781 -0.369313 0
M  V30 1454 C 143.417 3.76399 -0.00836847 0
M  V30 1455 C 142.564 2.68664 -0.686651 0
M  V30 1456 H 145.515 1.3536 -0.828454 0
M  V30 1457 H 145.536 3.78453 0.394162 0
M  V30 1458 H 145.048 3.61098 -1.42231 0
M  V30 1459 H 143.149 3.57698 1.04322 0
M  V30 1460 H 143.262 4.7732 -0.412584 0
M  V30 1461 H 141.626 2.54404 -0.122777 0
M  V30 1462 H 142.409 2.95815 -1.74208 0
M  V30 1463 N 144.854 0.36279 1.53368 0
M  V30 1464 C 145.784 -0.476976 2.28576 0
M  V30 1465 C 146.765 -1.08631 1.30894 0
M  V30 1466 O 147.95 -1.10409 1.59761 0
M  V30 1467 C 145.08 -1.61828 3.07293 0
M  V30 1468 C 144.034 -1.13633 4.1264 0
M  V30 1469 C 143.36 -2.36766 4.79423 0
M  V30 1470 C 144.66 -0.223061 5.21823 0
M  V30 1471 H 146.354 0.150474 2.99022 0
M  V30 1472 H 143.9 0.0738103 1.43811 0
M  V30 1473 H 145.853 -2.21237 3.58653 0
M  V30 1474 H 144.577 -2.27292 2.34533 0
M  V30 1475 H 143.236 -0.564945 3.62221 0
M  V30 1476 H 142.884 -3.0068 4.03238 0
M  V30 1477 H 142.584 -2.05192 5.50609 0
M  V30 1478 H 144.108 -2.96865 5.33576 0
M  V30 1479 H 145.522 -0.724545 5.68703 0
M  V30 1480 H 143.919 0.001678 6.001 0
M  V30 1481 H 144.989 0.735553 4.79289 0
M  V30 1482 N 146.332 -1.57332 0.0918853 0
M  V30 1483 C 147.264 -2.10869 -0.898168 0
M  V30 1484 C 148.277 -1.04521 -1.24817 0
M  V30 1485 O 149.466 -1.31977 -1.20184 0
M  V30 1486 C 146.566 -2.57083 -2.2082 0
M  V30 1487 C 145.739 -3.87229 -2.03402 0
M  V30 1488 C 144.798 -4.19324 -3.17889 0
M  V30 1489 O 143.824 -4.88598 -2.91994 0
M  V30 1490 N 145.026 -3.74471 -4.43567 0
M  V30 1491 H 147.791 -2.96439 -0.440943 0
M  V30 1492 H 145.352 -1.61631 -0.0933064 0
M  V30 1493 H 147.344 -2.75602 -2.96354 0
M  V30 1494 H 145.914 -1.76541 -2.57977 0
M  V30 1495 H 145.134 -3.7789 -1.12218 0
M  V30 1496 H 146.422 -4.72379 -1.89038 0
M  V30 1497 H 145.82 -3.18546 -4.67488 0
M  V30 1498 H 144.377 -3.98151 -5.16061 0
M  V30 1499 N 147.81 0.181792 -1.56548 0
M  V30 1500 C 148.74 1.22765 -1.98623 0
M  V30 1501 C 149.721 1.46747 -0.860189 0
M  V30 1502 O 150.906 1.58259 -1.12551 0
M  V30 1503 C 148.036 2.56894 -2.33715 0
M  V30 1504 C 146.99 2.475 -3.49182 0
M  V30 1505 C 146.316 3.86023 -3.69986 0
M  V30 1506 C 147.616 1.98866 -4.82959 0
M  V30 1507 H 149.31 0.877942 -2.86239 0
M  V30 1508 H 146.856 0.42088 -1.37712 0
M  V30 1509 H 148.809 3.30253 -2.61746 0
M  V30 1510 H 147.533 2.93632 -1.42997 0
M  V30 1511 H 146.192 1.76596 -3.21262 0
M  V30 1512 H 145.84 4.20136 -2.76576 0
M  V30 1513 H 145.54 3.80609 -4.47672 0
M  V30 1514 H 147.064 4.60984 -4.00407 0
M  V30 1515 H 148.478 2.61992 -5.09934 0
M  V30 1516 H 146.875 2.04424 -5.64208 0
M  V30 1517 H 147.945 0.942465 -4.75653 0
M  V30 1518 N 149.288 1.51039 0.449983 0
M  V30 1519 C 150.535 1.63081 1.20045 0
M  V30 1520 C 150.863 0.341024 1.91487 0
M  V30 1521 O 150.118 -0.674276 1.83717 0
M  V30 1522 C 150.417 2.77556 2.25161 0
M  V30 1523 C 150.083 4.17289 1.70823 0
M  V30 1524 C 148.745 4.55305 1.55725 0
M  V30 1525 C 151.097 5.04536 1.3074 0
M  V30 1526 C 148.425 5.78287 0.989999 0
M  V30 1527 C 150.777 6.28085 0.754482 0
M  V30 1528 C 149.441 6.64885 0.590308 0
M  V30 1529 H 148.711 0.596755 0.439277 0
M  V30 1530 H 151.358 1.85037 0.49333 0
M  V30 1531 H 149.663 2.49771 3.01863 0
M  V30 1532 H 151.36 2.84073 2.83026 0
M  V30 1533 H 147.95 3.8731 1.83546 0
M  V30 1534 H 152.134 4.75782 1.41229 0
M  V30 1535 H 147.39 6.05456 0.850451 0
M  V30 1536 H 151.564 6.95038 0.435324 0
M  V30 1537 H 149.191 7.60055 0.14862 0
M  V30 1538 N 150.766 -0.704594 1.40972 0
M  V30 1539 C 151.716 -1.81051 1.38581 0
M  V30 1540 C 152.7 -1.58759 0.261585 0
M  V30 1541 O 153.892 -1.69745 0.501556 0
M  V30 1542 C 151.021 -3.19279 1.26157 0
M  V30 1543 C 150.107 -3.47296 2.43405 0
M  V30 1544 N 150.498 -3.46064 3.68881 0
M  V30 1545 C 148.796 -3.77804 2.37023 0
M  V30 1546 C 149.497 -3.72733 4.46592 0
M  V30 1547 N 148.473 -3.9203 3.76581 0
M  V30 1548 H 152.275 -1.78448 2.33525 0
M  V30 1549 H 149.789 -0.904198 1.349 0
M  V30 1550 H 151.786 -3.98488 1.22526 0
M  V30 1551 H 150.446 -3.231 0.321902 0
M  V30 1552 H 151.457 -3.26656 4.01891 0
M  V30 1553 H 148.134 -3.8905 1.51481 0
M  V30 1554 H 149.524 -3.77993 5.55492 0
M  V30 1555 N 152.244 -1.26651 -0.937939 0
M  V30 1556 C 153.655 -1.1125 -1.49934 0
M  V30 1557 C 154.006 0.306077 -1.93798 0
M  V30 1558 O 153.131 1.19792 -1.80219 0
M  V30 1559 C 153.726 -2.01339 -2.72485 0
M  V30 1560 C 152.285 -1.90074 -3.24883 0
M  V30 1561 C 151.432 -1.94498 -1.97651 0
M  V30 1562 H 154.383 -1.39693 -0.753091 0
M  V30 1563 H 154.404 -1.56319 -3.46907 0
M  V30 1564 H 153.916 -3.04577 -2.40529 0
M  V30 1565 H 152.017 -0.897827 -3.61621 0
M  V30 1566 H 152.13 -2.75778 -3.9177 0
M  V30 1567 H 150.494 -1.38591 -2.13693 0
M  V30 1568 H 151.277 -2.99372 -1.68022 0
M  V30 1569 N 153.722 1.14298 -1.08507 0
M  V30 1570 C 154.654 2.1907 -0.673859 0
M  V30 1571 C 155.667 1.60381 0.279577 0
M  V30 1572 O 156.856 1.78374 0.0670754 0
M  V30 1573 C 153.956 3.38888 0.0290979 0
M  V30 1574 C 153.129 4.27103 -0.943494 0
M  V30 1575 C 152.188 5.25477 -0.275676 0
M  V30 1576 O 151.214 5.61709 -0.920401 0
M  V30 1577 N 152.416 5.7227 0.974013 0
M  V30 1578 H 155.181 2.54965 -1.57521 0
M  V30 1579 H 152.742 1.29528 -0.971287 0
M  V30 1580 H 154.734 4.01761 0.48683 0
M  V30 1581 H 153.304 3.01309 0.832555 0
M  V30 1582 H 152.524 3.61149 -1.58004 0
M  V30 1583 H 153.812 4.82905 -1.60251 0
M  V30 1584 H 153.21 5.44965 1.51755 0
M  V30 1585 H 151.767 6.37127 1.37522 0
M  V30 1586 N 155.201 0.870884 1.31352 0
M  V30 1587 C 156.111 0.330783 2.32256 0
M  V30 1588 C 157.127 -0.559767 1.6475 0
M  V30 1589 O 158.303 -0.456263 1.96164 0
M  V30 1590 C 155.368 -0.458137 3.4366 0
M  V30 1591 C 154.429 0.460482 4.26823 0
M  V30 1592 C 153.662 -0.290881 5.32907 0
M  V30 1593 O 153.885 -1.51885 5.49806 0
M  V30 1594 O 152.819 0.351732 6.00871 0
M  V30 1595 H 156.645 1.16718 2.80376 0
M  V30 1596 H 154.23 0.634285 1.35267 0
M  V30 1597 H 156.112 -0.905343 4.1156 0
M  V30 1598 H 154.787 -1.27106 2.97701 0
M  V30 1599 H 153.694 0.956207 3.61673 0
M  V30 1600 H 155.027 1.23903 4.7635 0
M  V30 1601 N 156.679 -1.44442 0.630414 0
M  V30 1602 C 157.925 -2.02351 0.134816 0
M  V30 1603 C 158.258 -1.4947 -1.23986 0
M  V30 1604 O 157.533 -0.678475 -1.82283 0
M  V30 1605 C 157.816 -3.59898 0.120707 0
M  V30 1606 C 157.669 -4.23063 1.52767 0
M  V30 1607 C 158.988 -4.36585 -0.555127 0
M  V30 1608 H 156.107 -0.73527 0.0504646 0
M  V30 1609 H 158.749 -1.72022 0.806751 0
M  V30 1610 H 156.899 -3.85868 -0.451477 0
M  V30 1611 H 158.571 -4.08202 2.14869 0
M  V30 1612 H 156.814 -3.80586 2.08175 0
M  V30 1613 H 157.485 -5.32071 1.46984 0
M  V30 1614 H 159.961 -4.16044 -0.0685429 0
M  V30 1615 H 158.837 -5.46294 -0.534185 0
M  V30 1616 H 159.098 -4.11138 -1.62535 0
M  V30 1617 N 158.157 -0.370918 -1.53173 0
M  V30 1618 C 159.382 0.220293 -2.06227 0
M  V30 1619 C 159.807 1.41243 -1.24225 0
M  V30 1620 O 159.165 1.79387 -0.262645 0
M  V30 1621 C 159.213 0.586663 -3.55796 0
M  V30 1622 O 158.317 1.68317 -3.76488 0
M  V30 1623 H 157.658 0.0308099 -0.663285 0
M  V30 1624 H 160.188 -0.533068 -1.97534 0
M  V30 1625 H 160.198 0.85617 -3.98916 0
M  V30 1626 H 158.873 -0.285013 -4.14922 0
M  V30 1627 H 157.45 1.40881 -3.45264 0
M  V30 1628 N 159.635 1.57281 -0.100228 0
M  V30 1629 C 160.568 2.09976 0.893612 0
M  V30 1630 C 161.546 1.01155 1.27304 0
M  V30 1631 O 162.73 1.28687 1.37739 0
M  V30 1632 C 159.857 2.58098 2.19324 0
M  V30 1633 C 158.903 3.78626 1.96328 0
M  V30 1634 S 159.736 5.21959 1.19662 0
M  V30 1635 C 160.892 5.73435 2.50844 0
M  V30 1636 H 161.125 2.93946 0.44534 0
M  V30 1637 H 158.658 1.53985 0.113167 0
M  V30 1638 H 160.616 2.8648 2.94005 0
M  V30 1639 H 159.277 1.74344 2.61272 0
M  V30 1640 H 158.47 4.10382 2.92579 0
M  V30 1641 H 158.072 3.50763 1.29775 0
M  V30 1642 H 160.364 5.82015 3.46792 0
M  V30 1643 H 161.307 6.7185 2.23659 0
M  V30 1644 H 161.715 5.01395 2.59352 0
M  V30 1645 N 161.113 -0.173488 1.56642 0
M  V30 1646 C 162.359 -0.891784 1.8214 0
M  V30 1647 C 162.692 -1.8199 0.677736 0
M  V30 1648 O 161.967 -1.91842 -0.320446 0
M  V30 1649 C 162.25 -1.68933 3.18015 0
M  V30 1650 C 162.103 -0.784487 4.42906 0
M  V30 1651 C 163.422 -2.65748 3.50808 0
M  V30 1652 H 160.541 -0.322761 0.662567 0
M  V30 1653 H 163.183 -0.158095 1.89341 0
M  V30 1654 H 161.333 -2.31482 3.12007 0
M  V30 1655 H 163.005 -0.172046 4.60979 0
M  V30 1656 H 161.248 -0.0924117 4.33702 0
M  V30 1657 H 161.919 -1.37799 5.34524 0
M  V30 1658 H 164.395 -2.13327 3.57255 0
M  V30 1659 H 163.271 -3.18619 4.4696 0
M  V30 1660 H 163.532 -3.45842 2.75401 0
M  V30 1661 N 162.591 -1.51276 -0.441967 0
M  V30 1662 C 164.007 -1.39349 -0.778083 0
M  V30 1663 C 164.207 -0.472212 -1.95889 0
M  V30 1664 O 163.263 0.0743551 -2.5239 0
M  V30 1665 C 164.576 -2.81292 -1.0628 0
M  V30 1666 C 166.124 -2.9041 -1.16751 0
M  V30 1667 C 166.599 -4.33251 -1.48519 0
M  V30 1668 N 168.09 -4.36336 -1.55453 0
M  V30 1669 C 168.825 -5.43885 -1.81596 0
M  V30 1670 N 168.321 -6.61601 -2.05562 0
M  V30 1671 N 170.114 -5.3136 -1.8334 0
M  V30 1672 H 162.265 -2.09729 0.335774 0
M  V30 1673 H 164.528 -0.943925 0.0878028 0
M  V30 1674 H 164.234 -3.50678 -0.267905 0
M  V30 1675 H 164.108 -3.20334 -1.99163 0
M  V30 1676 H 166.495 -2.21225 -1.95304 0
M  V30 1677 H 166.576 -2.54871 -0.217801 0
M  V30 1678 H 166.22 -5.02984 -0.704958 0
M  V30 1679 H 166.15 -4.66299 -2.44689 0
M  V30 1680 H 168.641 -3.51466 -1.38853 0
M  V30 1681 H 168.954 -7.39361 -2.24867 0
M  V30 1682 H 167.299 -6.64725 -2.02894 0
M  V30 1683 H 170.49 -4.38382 -1.64132 0
M  V30 1684 H 170.663 -6.15258 -2.03377 0
M  V30 1685 N 164.069 0.697108 -1.41344 0
M  V30 1686 C 165.017 1.83237 -1.43272 0
M  V30 1687 C 166.011 1.66522 -0.310947 0
M  V30 1688 O 167.217 1.73402 -0.482899 0
M  V30 1689 H 163.592 0.603802 -0.448249 0
M  V30 1690 H 165.563 1.78727 -2.38954 0
M  V30 1691 C 164.312 3.21245 -1.33029 0
M  V30 1692 H 163.635 3.34723 -2.18633 0
M  V30 1693 H 165.075 4.00763 -1.38439 0
M  V30 1694 C 163.534 3.36873 -0.0424635 0
M  V30 1695 O 164.064 3.91177 0.913421 0
M  V30 1696 N 162.27 2.90581 0.0331145 0
M  V30 1697 H 161.817 2.46577 -0.745506 0
M  V30 1698 H 161.775 3.01416 0.894199 0
M  V30 1699 N 165.547 1.27147 0.931209 0
M  V30 1700 C 166.477 1.12081 2.04842 0
M  V30 1701 C 167.458 0.0232364 1.70084 0
M  V30 1702 O 168.643 0.197085 1.93197 0
M  V30 1703 C 165.773 0.76354 3.38803 0
M  V30 1704 C 164.727 1.81396 3.87659 0
M  V30 1705 C 164.053 1.31075 5.18385 0
M  V30 1706 C 165.353 3.21739 4.11438 0
M  V30 1707 H 167.047 2.05537 2.17703 0
M  V30 1708 H 164.593 0.989603 1.04608 0
M  V30 1709 H 166.546 0.644982 4.16435 0
M  V30 1710 H 165.27 -0.206727 3.25945 0
M  V30 1711 H 163.929 1.92136 3.12217 0
M  V30 1712 H 163.577 0.330037 5.01916 0
M  V30 1713 H 163.277 2.013 5.52044 0
M  V30 1714 H 164.801 1.20506 5.98591 0
M  V30 1715 H 166.215 3.14019 4.79651 0
M  V30 1716 H 164.612 3.89644 4.56397 0
M  V30 1717 H 165.682 3.67054 3.16859 0
M  V30 1718 N 167.025 -1.13721 1.09112 0
M  V30 1719 C 168.274 -1.84275 0.82009 0
M  V30 1720 C 168.587 -1.84253 -0.656509 0
M  V30 1721 O 169.793 -2.50668 -1.04296 0
M  V30 1722 C 168.249 -3.30825 1.41714 0
M  V30 1723 C 167.857 -3.39244 2.92605 0
M  V30 1724 C 169.601 -4.06443 1.22492 0
M  V30 1725 C 167.508 -4.80047 3.45411 0
M  V30 1726 H 166.438 -0.690387 0.30312 0
M  V30 1727 H 169.089 -1.28146 1.31343 0
M  V30 1728 H 167.471 -3.86737 0.851498 0
M  V30 1729 H 168.645 -2.93344 3.55367 0
M  V30 1730 H 166.96 -2.77088 3.10823 0
M  V30 1731 H 169.557 -5.10387 1.59402 0
M  V30 1732 H 169.9 -4.15972 0.165299 0
M  V30 1733 H 170.433 -3.56852 1.75788 0
M  V30 1734 H 167.172 -4.75709 4.50978 0
M  V30 1735 H 166.692 -5.26455 2.87411 0
M  V30 1736 H 168.371 -5.48957 3.42425 0
M  V30 1737 N 168.503 -0.877838 -1.30888 0
M  V30 1738 C 169.435 -0.296607 -2.27273 0
M  V30 1739 C 170.448 0.544799 -1.53414 0
M  V30 1740 O 171.637 0.365511 -1.74718 0
M  V30 1741 C 168.737 0.597481 -3.33592 0
M  V30 1742 C 167.91 -0.213251 -4.3688 0
M  V30 1743 C 166.969 0.610208 -5.2265 0
M  V30 1744 O 165.995 0.035441 -5.69189 0
M  V30 1745 N 167.197 1.92071 -5.47804 0
M  V30 1746 H 169.962 -1.12492 -2.77787 0
M  V30 1747 H 167.523 -0.740105 -1.43993 0
M  V30 1748 H 169.515 1.15425 -3.87891 0
M  V30 1749 H 168.085 1.32647 -2.83061 0
M  V30 1750 H 167.305 -0.951466 -3.82545 0
M  V30 1751 H 168.593 -0.769262 -5.02951 0
M  V30 1752 H 167.991 2.4107 -5.11763 0
M  V30 1753 H 166.548 2.42508 -6.05007 0
M  V30 1754 N 169.982 1.44106 -0.638065 0
M  V30 1755 C 170.929 2.30715 0.062701 0
M  V30 1756 C 171.899 1.43882 0.829883 0
M  V30 1757 O 173.084 1.72775 0.809532 0
M  V30 1758 C 170.224 3.29258 1.03358 0
M  V30 1759 C 169.337 4.31192 0.26409 0
M  V30 1760 C 168.472 5.16825 1.22741 0
M  V30 1761 C 167.511 6.10462 0.447475 0
M  V30 1762 N 166.648 6.8877 1.36161 0
M  V30 1763 H 171.488 2.90096 -0.681781 0
M  V30 1764 H 169.025 1.42925 -0.347988 0
M  V30 1765 H 170.983 3.84886 1.60992 0
M  V30 1766 H 169.613 2.71562 1.74511 0
M  V30 1767 H 168.665 3.77981 -0.428295 0
M  V30 1768 H 169.977 4.97619 -0.343052 0
M  V30 1769 H 169.131 5.77004 1.87487 0
M  V30 1770 H 167.87 4.50488 1.86847 0
M  V30 1771 H 166.875 5.49386 -0.213433 0
M  V30 1772 H 168.1 6.78837 -0.188968 0
M  V30 1773 H 166.046 6.25096 1.98975 0
M  V30 1774 H 165.963 7.51663 0.808656 0
M  V30 1775 H 167.231 7.53467 1.99769 0
M  V30 1776 N 171.46 0.379036 1.52974 0
M  V30 1777 C 172.737 -0.263479 1.93817 0
M  V30 1778 C 173.117 -1.65244 1.31368 0
M  V30 1779 O 172.465 -2.23448 0.477856 0
M  V30 1780 C 172.675 -0.300166 3.47707 0
M  V30 1781 C 174.023 -0.534061 4.21228 0
M  V30 1782 O 175.047 -0.38081 3.54159 0
M  V30 1783 O 173.906 -0.833501 5.40106 0
M  V30 1784 H 171 -0.161149 0.811147 0
M  V30 1785 H 173.546 0.432798 1.64088 0
M  V30 1786 H 172.318 0.673138 3.85467 0
M  V30 1787 H 171.941 -1.04179 3.83709 0
M  V30 1788 N 172.938 -1.57226 0.108567 0
M  V30 1789 C 174.354 -1.5766 -0.248058 0
M  V30 1790 C 174.554 -1.12063 -1.67464 0
M  V30 1791 O 173.61 -0.803236 -2.39383 0
M  V30 1792 C 174.923 -3.0069 -0.0242287 0
M  V30 1793 C 176.471 -3.12868 -0.0909372 0
M  V30 1794 C 176.946 -4.57879 0.105067 0
M  V30 1795 N 178.437 -4.63172 0.0506846 0
M  V30 1796 C 179.172 -5.73126 0.177396 0
M  V30 1797 N 178.668 -6.91866 0.359696 0
M  V30 1798 N 180.461 -5.61977 0.117709 0
M  V30 1799 H 172.612 -1.85169 1.04049 0
M  V30 1800 H 174.875 -0.85529 0.40888 0
M  V30 1801 H 174.581 -3.38299 0.961604 0
M  V30 1802 H 174.455 -3.6945 -0.76068 0
M  V30 1803 H 176.842 -2.75124 -1.06729 0
M  V30 1804 H 176.923 -2.46672 0.677225 0
M  V30 1805 H 176.567 -4.96321 1.07834 0
M  V30 1806 H 176.497 -5.22153 -0.682954 0
M  V30 1807 H 178.988 -3.778 -0.0871266 0
M  V30 1808 H 179.301 -7.71503 0.447529 0
M  V30 1809 H 177.646 -6.93874 0.395536 0
M  V30 1810 H 180.837 -4.68094 -0.0236741 0
M  V30 1811 H 181.01 -6.47627 0.219905 0
M  V30 1812 N 174.416 0.165178 -1.56732 0
M  V30 1813 C 175.644 0.896218 -1.86482 0
M  V30 1814 C 176.059 1.75555 -0.694675 0
M  V30 1815 O 175.416 1.79379 0.33607 0
M  V30 1816 C 175.467 1.76792 -3.1532 0
M  V30 1817 O 175.188 0.943239 -4.27825 0
M  V30 1818 C 176.689 2.6081 -3.58459 0
M  V30 1819 H 173.909 0.260064 -0.618553 0
M  V30 1820 H 176.453 0.163428 -2.03846 0
M  V30 1821 H 174.608 2.45398 -2.99764 0
M  V30 1822 H 175.022 1.53998 -5.01383 0
M  V30 1823 H 176.496 3.17579 -4.51495 0
M  V30 1824 H 176.973 3.35977 -2.82872 0
M  V30 1825 H 177.579 1.97526 -3.76648 0
M  V30 1826 N 175.894 1.51508 0.433938 0
M  V30 1827 C 177.141 1.64345 1.18309 0
M  V30 1828 C 177.469 0.361315 1.91115 0
M  V30 1829 O 176.724 -0.654753 1.84422 0
M  V30 1830 C 177.023 2.79928 2.22205 0
M  V30 1831 C 176.689 4.19078 1.66387 0
M  V30 1832 C 175.351 4.56932 1.50887 0
M  V30 1833 C 177.703 5.05894 1.25381 0
M  V30 1834 C 175.031 5.79305 0.928608 0
M  V30 1835 C 177.383 6.2885 0.687823 0
M  V30 1836 C 176.047 6.65473 0.519755 0
M  V30 1837 H 175.317 0.601381 0.432923 0
M  V30 1838 H 177.964 1.85549 0.473676 0
M  V30 1839 H 176.269 2.52959 2.99197 0
M  V30 1840 H 177.966 2.87059 2.79997 0
M  V30 1841 H 174.556 3.89234 1.79428 0
M  V30 1842 H 178.74 4.77253 1.36175 0
M  V30 1843 H 173.996 6.06324 0.786186 0
M  V30 1844 H 178.17 6.95461 0.361581 0
M  V30 1845 H 175.797 7.6017 0.0679979 0
M  V30 1846 N 177.372 -0.689602 1.41712 0
M  V30 1847 C 178.335 -1.78521 1.43746 0
M  V30 1848 C 179.335 -1.57436 0.327191 0
M  V30 1849 O 180.525 -1.64 0.587348 0
M  V30 1850 C 177.657 -3.16971 1.25467 0
M  V30 1851 H 178.85 -1.78108 2.41283 0
M  V30 1852 H 176.403 -0.89781 1.27942 0
M  V30 1853 H 177.138 -3.23019 0.287948 0
M  V30 1854 H 176.923 -3.33678 2.05917 0
M  V30 1855 H 178.413 -3.96935 1.2974 0
M  V30 1856 N 178.85 -1.27639 -0.924453 0
M  V30 1857 C 180.096 -1.14336 -1.67497 0
M  V30 1858 C 180.429 0.309465 -1.91718 0
M  V30 1859 O 179.704 1.22608 -1.50989 0
M  V30 1860 C 179.987 -1.93096 -3.0395 0
M  V30 1861 C 179.84 -3.46381 -2.8695 0
M  V30 1862 C 181.159 -1.73798 -4.0433 0
M  V30 1863 H 178.278 -0.416728 -0.607871 0
M  V30 1864 H 180.92 -1.56832 -1.07256 0
M  V30 1865 H 179.07 -1.56982 -3.55372 0
M  V30 1866 H 180.742 -3.92343 -2.42621 0
M  V30 1867 H 178.985 -3.72557 -2.22225 0
M  V30 1868 H 179.656 -3.96735 -3.83804 0
M  V30 1869 H 182.132 -2.05293 -3.61931 0
M  V30 1870 H 181.008 -2.31294 -4.97789 0
M  V30 1871 H 181.269 -0.686725 -4.36734 0
M  V30 1872 N 180.328 1.1314 -1.09713 0
M  V30 1873 C 181.258 2.20748 -0.761102 0
M  V30 1874 C 182.239 1.68061 0.262566 0
M  V30 1875 O 183.424 1.93765 0.129977 0
M  V30 1876 C 180.554 3.46812 -0.184054 0
M  V30 1877 C 179.508 4.12606 -1.13757 0
M  V30 1878 C 178.834 5.33031 -0.422083 0
M  V30 1879 C 180.134 4.59603 -2.48118 0
M  V30 1880 H 181.828 2.49113 -1.66082 0
M  V30 1881 H 179.374 1.19734 -0.799987 0
M  V30 1882 H 181.327 4.21353 0.0631215 0
M  V30 1883 H 180.051 3.17851 0.750868 0
M  V30 1884 H 178.71 3.40036 -1.37007 0
M  V30 1885 H 178.358 5.00335 0.517072 0
M  V30 1886 H 178.058 5.77999 -1.05788 0
M  V30 1887 H 179.582 6.10325 -0.183277 0
M  V30 1888 H 180.996 5.25552 -2.29059 0
M  V30 1889 H 179.393 5.15321 -3.07514 0
M  V30 1890 H 180.463 3.73971 -3.08665 0
M  V30 1891 N 181.806 0.884767 1.30421 0
M  V30 1892 C 182.769 0.356277 2.26414 0
M  V30 1893 C 183.769 -0.501124 1.52792 0
M  V30 1894 O 184.959 -0.30831 1.7145 0
M  V30 1895 C 182.091 -0.492316 3.37326 0
M  V30 1896 H 183.284 1.20389 2.74675 0
M  V30 1897 H 180.837 0.661607 1.41607 0
M  V30 1898 H 181.572 -1.36052 2.94381 0
M  V30 1899 H 181.357 0.121832 3.91911 0
M  V30 1900 H 182.847 -0.853871 4.08777 0
M  V30 1901 N 183.284 -1.43765 0.645699 0
M  V30 1902 C 184.514 -2.05953 0.163318 0
M  V30 1903 C 184.922 -1.48432 -1.17322 0
M  V30 1904 O 184.265 -0.607295 -1.73371 0
M  V30 1905 C 184.327 -3.59499 -0.0103065 0
M  V30 1906 C 183.991 -4.39563 1.25035 0
M  V30 1907 C 184.988 -4.72108 2.17739 0
M  V30 1908 C 182.673 -4.79697 1.48983 0
M  V30 1909 C 184.667 -5.43688 3.3269 0
M  V30 1910 C 182.354 -5.51023 2.64229 0
M  V30 1911 C 183.352 -5.8294 3.55908 0
M  V30 1912 O 183.04 -6.5281 4.69142 0
M  V30 1913 H 182.772 -0.670798 0.0836986 0
M  V30 1914 H 185.326 -1.85384 0.884407 0
M  V30 1915 H 183.556 -3.78613 -0.78669 0
M  V30 1916 H 185.245 -4.03408 -0.449087 0
M  V30 1917 H 186.011 -4.41627 2.00476 0
M  V30 1918 H 181.89 -4.54266 0.785078 0
M  V30 1919 H 185.434 -5.68517 4.04269 0
M  V30 1920 H 181.331 -5.8092 2.81429 0
M  V30 1921 H 182.099 -6.71288 4.6831 0
M  V30 1922 N 184.763 -0.387143 -1.52771 0
M  V30 1923 C 185.988 0.198407 -2.06449 0
M  V30 1924 C 186.413 1.39918 -1.25716 0
M  V30 1925 O 185.771 1.79099 -0.281657 0
M  V30 1926 C 185.819 0.548893 -3.56398 0
M  V30 1927 O 184.923 1.64315 -3.78252 0
M  V30 1928 H 184.264 0.0237731 -0.663574 0
M  V30 1929 H 186.794 -0.553989 -1.96957 0
M  V30 1930 H 186.804 0.813812 -3.99801 0
M  V30 1931 H 185.479 -0.329005 -4.14597 0
M  V30 1932 H 184.056 1.37211 -3.46738 0
M  V30 1933 N 186.241 1.57166 -0.116904 0
M  V30 1934 C 187.189 2.16457 0.851418 0
M  V30 1935 C 188.183 1.11323 1.27686 0
M  V30 1936 O 189.389 1.2963 1.24884 0
M  V30 1937 H 185.764 0.69271 0.292672 0
M  V30 1938 H 187.735 2.96605 0.32685 0
M  V30 1939 C 186.484 2.77689 2.09246 0
M  V30 1940 H 185.807 3.58285 1.77402 0
M  V30 1941 H 187.247 3.22716 2.7501 0
M  V30 1942 C 185.706 1.74667 2.88085 0
M  V30 1943 O 186.236 1.19877 3.83396 0
M  V30 1944 N 184.442 1.44656 2.52038 0
M  V30 1945 H 183.989 1.89402 1.74599 0
M  V30 1946 H 183.947 0.759675 3.05084 0
M  V30 1947 N 187.719 -0.156864 1.56817 0
M  V30 1948 C 188.965 -0.872416 1.83076 0
M  V30 1949 C 189.298 -1.81261 0.697001 0
M  V30 1950 O 188.573 -1.92171 -0.30008 0
M  V30 1951 C 188.856 -1.65551 3.19789 0
M  V30 1952 C 188.709 -0.737467 4.43713 0
M  V30 1953 C 190.028 -2.62012 3.53606 0
M  V30 1954 H 187.147 -0.315715 0.665953 0
M  V30 1955 H 189.789 -0.138004 1.89498 0
M  V30 1956 H 187.939 -2.28159 3.14445 0
M  V30 1957 H 189.611 -0.123143 4.61136 0
M  V30 1958 H 187.854 -0.0464067 4.33775 0
M  V30 1959 H 188.525 -1.32122 5.35955 0
M  V30 1960 H 191.001 -2.09525 3.59497 0
M  V30 1961 H 189.877 -3.13861 4.50314 0
M  V30 1962 H 190.138 -3.42902 2.79053 0
M  V30 1963 N 189.197 -1.51736 -0.425897 0
M  V30 1964 C 190.129 -1.70083 -1.53638 0
M  V30 1965 C 191.142 -0.581349 -1.52066 0
M  V30 1966 O 192.331 -0.856017 -1.56635 0
M  V30 1967 C 189.431 -1.71078 -2.9255 0
M  V30 1968 C 188.604 -2.99795 -3.185 0
M  V30 1969 C 187.663 -2.92825 -4.37196 0
M  V30 1970 O 186.689 -3.66756 -4.35291 0
M  V30 1971 N 187.891 -2.0946 -5.41393 0
M  V30 1972 H 190.656 -2.65882 -1.383 0
M  V30 1973 H 188.217 -1.49765 -0.614988 0
M  V30 1974 H 190.209 -1.63969 -3.69995 0
M  V30 1975 H 188.779 -0.828242 -3.01428 0
M  V30 1976 H 187.999 -3.20684 -2.2925 0
M  V30 1977 H 189.287 -3.84977 -3.32671 0
M  V30 1978 H 188.685 -1.48792 -5.45781 0
M  V30 1979 H 187.242 -2.08221 -6.17647 0
M  V30 1980 N 190.675 0.682077 -1.42076 0
M  V30 1981 C 191.585 1.82535 -1.47371 0
M  V30 1982 C 192.601 1.7017 -0.363079 0
M  V30 1983 O 193.777 1.91848 -0.612875 0
M  V30 1984 C 190.842 3.18624 -1.36674 0
M  V30 1985 C 189.903 3.42999 -2.58167 0
M  V30 1986 C 189.136 4.72595 -2.4797 0
M  V30 1987 O 189.359 5.50006 -1.5116 0
M  V30 1988 O 188.293 4.98054 -3.37974 0
M  V30 1989 H 192.119 1.81023 -2.43853 0
M  V30 1990 H 189.704 0.836887 -1.2376 0
M  V30 1991 H 191.586 3.99847 -1.33043 0
M  V30 1992 H 190.261 3.20789 -0.433138 0
M  V30 1993 H 189.168 2.61653 -2.67373 0
M  V30 1994 H 190.501 3.45659 -3.50401 0
M  V30 1995 N 192.153 1.28127 0.917671 0
M  V30 1996 C 193.569 1.05749 1.19538 0
M  V30 1997 C 193.769 -0.202633 2.00479 0
M  V30 1998 O 192.825 -0.905382 2.3571 0
M  V30 1999 C 194.138 2.30273 1.93378 0
M  V30 2000 C 195.686 2.35412 2.06277 0
M  V30 2001 C 196.161 3.59692 2.83524 0
M  V30 2002 N 197.652 3.60309 2.91087 0
M  V30 2003 C 198.387 4.53147 3.51348 0
M  V30 2004 N 197.883 5.563 4.12919 0
M  V30 2005 N 199.676 4.40751 3.48849 0
M  V30 2006 H 191.827 2.09024 0.377184 0
M  V30 2007 H 194.09 0.919798 0.22951 0
M  V30 2008 H 193.796 3.22055 1.41328 0
M  V30 2009 H 193.67 2.36378 2.93947 0
M  V30 2010 H 196.057 1.4413 2.57508 0
M  V30 2011 H 196.138 2.33304 1.04895 0
M  V30 2012 H 195.782 4.51316 2.32973 0
M  V30 2013 H 195.712 3.59054 3.85211 0
M  V30 2014 H 198.203 2.85714 2.47338 0
M  V30 2015 H 198.516 6.2329 4.56869 0
M  V30 2016 H 196.861 5.60131 4.11435 0
M  V30 2017 H 200.052 3.59367 2.99955 0
M  V30 2018 H 200.225 5.13291 3.9552 0
M  V30 2019 N 193.631 -1.12557 1.10312 0
M  V30 2020 C 194.541 -2.21841 0.763142 0
M  V30 2021 C 195.557 -1.72354 -0.238801 0
M  V30 2022 O 196.733 -2.01249 -0.0778746 0
M  V30 2023 C 193.798 -3.46131 0.198632 0
M  V30 2024 C 192.859 -4.10464 1.25769 0
M  V30 2025 C 192.092 -5.28821 0.72002 0
M  V30 2026 O 192.315 -5.6859 -0.453993 0
M  V30 2027 O 191.249 -5.83437 1.47935 0
M  V30 2028 H 195.075 -2.53312 1.67532 0
M  V30 2029 H 192.66 -1.20867 0.878157 0
M  V30 2030 H 194.542 -4.2125 -0.112401 0
M  V30 2031 H 193.217 -3.16338 -0.686419 0
M  V30 2032 H 192.124 -3.3713 1.62156 0
M  V30 2033 H 193.457 -4.44408 2.11571 0
M  V30 2034 N 195.109 -0.891671 -1.2995 0
M  V30 2035 C 196.072 -0.36828 -2.26222 0
M  V30 2036 C 197.072 0.493014 -1.53056 0
M  V30 2037 O 198.262 0.299213 -1.71611 0
M  V30 2038 C 195.394 0.47442 -3.37583 0
M  V30 2039 H 196.587 -1.21844 -2.74033 0
M  V30 2040 H 194.14 -0.669107 -1.41254 0
M  V30 2041 H 194.875 1.34489 -2.95099 0
M  V30 2042 H 194.66 -0.142615 -3.91841 0
M  V30 2043 H 196.15 0.83218 -4.09224 0
M  V30 2044 N 196.587 1.43421 -0.653314 0
M  V30 2045 C 197.519 2.29071 0.0769134 0
M  V30 2046 C 198.532 1.42513 0.787017 0
M  V30 2047 O 199.721 1.66449 0.644757 0
M  V30 2048 C 196.821 3.19436 1.13199 0
M  V30 2049 C 195.994 4.34533 0.500006 0
M  V30 2050 C 195.053 5.05771 1.45198 0
M  V30 2051 O 194.079 5.61037 0.960538 0
M  V30 2052 N 195.281 5.0928 2.78594 0
M  V30 2053 H 198.046 2.92382 -0.658235 0
M  V30 2054 H 195.607 1.54112 -0.496104 0
M  V30 2055 H 197.599 3.63958 1.76964 0
M  V30 2056 H 196.169 2.57724 1.7691 0
M  V30 2057 H 195.389 3.92925 -0.316738 0
M  V30 2058 H 196.677 5.08766 0.0588345 0
M  V30 2059 H 196.075 4.65751 3.2108 0
M  V30 2060 H 194.632 5.57519 3.37662 0
M  V30 2061 N 198.065 0.39524 1.52563 0
M  V30 2062 C 199.312 -0.185044 2.01653 0
M  V30 2063 C 199.64 -1.46317 1.28146 0
M  V30 2064 O 198.895 -1.9213 0.372074 0
M  V30 2065 C 199.194 -0.493444 3.53977 0
M  V30 2066 C 198.86 0.69384 4.4553 0
M  V30 2067 C 197.522 1.01954 4.70275 0
M  V30 2068 C 199.874 1.48785 4.99512 0
M  V30 2069 C 197.202 2.14069 5.46252 0
M  V30 2070 C 199.554 2.59965 5.76716 0
M  V30 2071 C 198.218 2.93037 5.99738 0
M  V30 2072 H 197.488 -0.0677123 0.7379 0
M  V30 2073 H 200.135 0.533807 1.8391 0
M  V30 2074 H 198.44 -1.29369 3.69825 0
M  V30 2075 H 200.137 -0.955163 3.89458 0
M  V30 2076 H 196.727 0.429987 4.26438 0
M  V30 2077 H 200.911 1.24946 4.80315 0
M  V30 2078 H 196.167 2.40056 5.62302 0
M  V30 2079 H 200.341 3.21887 6.17545 0
M  V30 2080 H 197.968 3.8003 6.58393 0
M  V30 2081 N 199.544 -1.57102 0.125237 0
M  V30 2082 C 200.792 -1.95021 -0.530198 0
M  V30 2083 C 201.113 -1.00982 -1.66816 0
M  V30 2084 O 200.383 -0.0672693 -1.95784 0
M  V30 2085 H 198.963 -0.720046 -0.198853 0
M  V30 2086 H 201.625 -1.93916 0.19564 0
M  V30 2087 H 200.721 -2.98211 -0.920681 0
M  V30 2088 N 201.022 0.148545 -1.56898 0
M  V30 2089 C 202.25 0.876389 -1.87422 0
M  V30 2090 C 202.665 1.74809 -0.713256 0
M  V30 2091 O 202.022 1.79725 0.317025 0
M  V30 2092 C 202.073 1.73438 -3.17178 0
M  V30 2093 O 201.794 0.897809 -4.28802 0
M  V30 2094 C 203.295 2.56993 -3.61205 0
M  V30 2095 H 200.515 0.253489 -0.621277 0
M  V30 2096 H 203.059 0.141798 -2.04008 0
M  V30 2097 H 201.214 2.42205 -3.0235 0
M  V30 2098 H 201.628 1.48672 -5.02988 0
M  V30 2099 H 203.102 3.12773 -4.54838 0
M  V30 2100 H 203.579 3.32958 -2.86419 0
M  V30 2101 H 204.185 1.9352 -3.78722 0
M  V30 2102 N 202.5 1.5196 0.417844 0
M  V30 2103 C 203.728 1.69426 1.18753 0
M  V30 2104 C 204.143 0.399955 1.84515 0
M  V30 2105 O 203.5 -0.623288 1.71527 0
M  V30 2106 C 203.551 2.82375 2.25714 0
M  V30 2107 O 203.272 4.06793 1.62638 0
M  V30 2108 C 204.773 3.11277 3.15628 0
M  V30 2109 H 201.993 0.568031 0.357186 0
M  V30 2110 H 204.537 1.98475 0.49273 0
M  V30 2111 H 202.692 2.5587 2.90877 0
M  V30 2112 H 203.106 4.69667 2.3348 0
M  V30 2113 H 204.58 3.93843 3.86771 0
M  V30 2114 H 205.057 2.24473 3.77503 0
M  V30 2115 H 205.663 3.39515 2.56144 0
M  V30 2116 N 203.978 -0.674533 1.42435 0
M  V30 2117 C 204.941 -1.76986 1.45632 0
M  V30 2118 C 205.941 -1.5708 0.343871 0
M  V30 2119 O 207.131 -1.63367 0.604709 0
M  V30 2120 C 204.263 -3.15623 1.28822 0
M  V30 2121 H 205.456 -1.75539 2.43158 0
M  V30 2122 H 203.009 -0.884189 1.28887 0
M  V30 2123 H 203.744 -3.22696 0.322193 0
M  V30 2124 H 203.529 -3.31475 2.09444 0
M  V30 2125 H 205.019 -3.95537 1.33942 0
M  V30 2126 N 205.456 -1.28612 -0.910864 0
M  V30 2127 C 206.366 -1.14643 -2.0468 0
M  V30 2128 C 207.382 -0.0723121 -1.7385 0
M  V30 2129 O 208.558 -0.282178 -1.99413 0
M  V30 2130 C 205.623 -0.812561 -3.37044 0
M  V30 2131 C 204.684 -1.96935 -3.81465 0
M  V30 2132 C 203.917 -1.65131 -5.07511 0
M  V30 2133 O 204.14 -0.567013 -5.67575 0
M  V30 2134 O 203.074 -2.49585 -5.47714 0
M  V30 2135 H 206.9 -2.1001 -2.19384 0
M  V30 2136 H 204.485 -1.07958 -1.03274 0
M  V30 2137 H 206.367 -0.640441 -4.16505 0
M  V30 2138 H 205.042 0.111426 -3.23508 0
M  V30 2139 H 203.949 -2.19664 -3.02818 0
M  V30 2140 H 205.282 -2.87414 -3.99567 0
M  V30 2141 N 206.934 1.1197 -1.10907 0
M  V30 2142 C 208.183 1.82947 -0.849302 0
M  V30 2143 C 208.496 1.85275 0.627112 0
M  V30 2144 O 209.702 2.52296 1.00295 0
M  V30 2145 C 208.158 3.28529 -1.46959 0
M  V30 2146 C 207.766 3.34546 -2.97965 0
M  V30 2147 C 209.51 4.04443 -1.28942 0
M  V30 2148 C 207.417 4.74491 -3.53004 0
M  V30 2149 H 206.347 0.685477 -0.314065 0
M  V30 2150 H 208.998 1.2604 -1.33365 0
M  V30 2151 H 207.38 3.85333 -0.912917 0
M  V30 2152 H 208.554 2.87654 -3.59989 0
M  V30 2153 H 206.869 2.72108 -3.15192 0
M  V30 2154 H 209.466 5.07787 -1.67502 0
M  V30 2155 H 209.809 4.15656 -0.231456 0
M  V30 2156 H 210.342 3.5401 -1.81443 0
M  V30 2157 H 207.081 4.68474 -4.58489 0
M  V30 2158 H 206.601 5.21816 -2.9575 0
M  V30 2159 H 208.28 5.4344 -3.51115 0
M  V30 2160 N 208.412 0.89855 1.29475 0
M  V30 2161 C 209.642 0.538479 1.99459 0
M  V30 2162 C 210.05 -0.880922 1.67441 0
M  V30 2163 O 209.393 -1.59283 0.915127 0
M  V30 2164 C 209.455 0.649564 3.53583 0
M  V30 2165 C 209.119 2.03573 4.09154 0
M  V30 2166 C 210.116 3.00675 4.24135 0
M  V30 2167 C 207.801 2.3448 4.44212 0
M  V30 2168 C 209.795 4.26809 4.73405 0
M  V30 2169 C 207.482 3.60857 4.93179 0
M  V30 2170 C 208.48 4.56836 5.0773 0
M  V30 2171 O 208.168 5.80969 5.55635 0
M  V30 2172 H 207.9 0.205372 0.644048 0
M  V30 2173 H 210.454 1.20958 1.66007 0
M  V30 2174 H 208.684 -0.0785592 3.8662 0
M  V30 2175 H 210.373 0.29881 4.04799 0
M  V30 2176 H 211.139 2.78112 3.97339 0
M  V30 2177 H 207.018 1.60534 4.32145 0
M  V30 2178 H 210.562 5.0173 4.84678 0
M  V30 2179 H 206.459 3.83251 5.19412 0
M  V30 2180 H 207.227 5.83542 5.73952 0
M  V30 2181 N 209.89 -1.43072 0.660911 0
M  V30 2182 C 210.853 -2.29194 -0.0166406 0
M  V30 2183 C 211.853 -1.42609 -0.742912 0
M  V30 2184 O 213.043 -1.64155 -0.583004 0
M  V30 2185 C 210.175 -3.24831 -1.0343 0
M  V30 2186 H 211.368 -2.90596 0.741208 0
M  V30 2187 H 208.921 -1.5048 0.422532 0
M  V30 2188 H 209.656 -2.68339 -1.82111 0
M  V30 2189 H 209.441 -3.88676 -0.517082 0
M  V30 2190 H 210.931 -3.89451 -1.50723 0
M  V30 2191 N 211.368 -0.403325 -1.52352 0
M  V30 2192 C 212.598 0.17376 -2.05868 0
M  V30 2193 C 213.006 1.39898 -1.27378 0
M  V30 2194 O 212.349 1.80939 -0.31729 0
M  V30 2195 C 212.411 0.594756 -3.54546 0
M  V30 2196 C 212.075 -0.518926 -4.54044 0
M  V30 2197 C 213.072 -1.3807 -5.01231 0
M  V30 2198 C 210.757 -0.689961 -4.97539 0
M  V30 2199 C 212.751 -2.39852 -5.90551 0
M  V30 2200 C 210.438 -1.71109 -5.86656 0
M  V30 2201 C 211.436 -2.56378 -6.33056 0
M  V30 2202 O 211.124 -3.56743 -7.20409 0
M  V30 2203 H 210.856 0.0264951 -0.675481 0
M  V30 2204 H 213.41 -0.571179 -1.97299 0
M  V30 2205 H 211.64 1.39189 -3.60782 0
M  V30 2206 H 213.329 1.0991 -3.90736 0
M  V30 2207 H 214.095 -1.25994 -4.68349 0
M  V30 2208 H 209.974 -0.035939 -4.60986 0
M  V30 2209 H 213.518 -3.06441 -6.26689 0
M  V30 2210 H 209.415 -1.83218 -6.18952 0
M  V30 2211 H 210.183 -3.52918 -7.38506 0
M  V30 2212 N 212.846 1.57033 -0.133567 0
M  V30 2213 C 214.262 1.58035 0.222944 0
M  V30 2214 C 214.462 1.14713 1.6566 0
M  V30 2215 O 213.518 0.841218 2.38075 0
M  V30 2216 C 214.831 3.00691 -0.0236116 0
M  V30 2217 C 216.379 3.12973 0.0411512 0
M  V30 2218 C 216.854 4.57654 -0.177899 0
M  V30 2219 N 218.345 4.63033 -0.124365 0
M  V30 2220 C 219.08 5.72771 -0.268553 0
M  V30 2221 N 218.576 6.91206 -0.46972 0
M  V30 2222 N 220.369 5.61718 -0.2071 0
M  V30 2223 H 212.52 1.8349 -1.06981 0
M  V30 2224 H 214.783 0.848677 -0.422436 0
M  V30 2225 H 214.489 3.36726 -1.0153 0
M  V30 2226 H 214.363 3.70614 0.701808 0
M  V30 2227 H 216.75 2.76787 1.02338 0
M  V30 2228 H 216.831 2.45564 -0.716383 0
M  V30 2229 H 216.475 4.94542 -1.15717 0
M  V30 2230 H 216.405 5.23173 0.599797 0
M  V30 2231 H 218.896 3.7789 0.027011 0
M  V30 2232 H 219.209 7.70693 -0.570212 0
M  V30 2233 H 217.554 6.93156 -0.505876 0
M  V30 2234 H 220.745 4.68072 -0.0507986 0
M  V30 2235 H 220.918 6.47195 -0.322909 0
M  V30 2236 N 214.325 -0.140222 1.56975 0
M  V30 2237 C 215.235 -1.19223 2.02047 0
M  V30 2238 C 216.251 -1.46612 0.937062 0
M  V30 2239 O 217.427 -1.58148 1.24704 0
M  V30 2240 C 214.492 -2.50414 2.39778 0
M  V30 2241 C 213.553 -2.30612 3.621 0
M  V30 2242 C 212.786 -3.55547 3.98023 0
M  V30 2243 O 213.009 -4.62004 3.34528 0
M  V30 2244 O 211.943 -3.47808 4.91237 0
M  V30 2245 H 215.769 -0.839559 2.91865 0
M  V30 2246 H 213.354 -0.349453 1.45256 0
M  V30 2247 H 215.236 -3.27747 2.64877 0
M  V30 2248 H 213.911 -2.85198 1.53114 0
M  V30 2249 H 212.818 -1.51207 3.4218 0
M  V30 2250 H 214.151 -2.00741 4.49404 0
M  V30 2251 N 215.803 -1.52179 -0.40978 0
M  V30 2252 C 216.713 -1.78364 -1.52392 0
M  V30 2253 C 217.729 -0.669183 -1.60617 0
M  V30 2254 O 218.905 -0.954518 -1.77344 0
M  V30 2255 C 215.97 -1.92822 -2.88133 0
M  V30 2256 C 215.031 -3.16725 -2.898 0
M  V30 2257 C 214.264 -3.30483 -4.19067 0
M  V30 2258 O 214.487 -2.49522 -5.12928 0
M  V30 2259 O 213.421 -4.2363 -4.27576 0
M  V30 2260 H 217.247 -2.72931 -1.33201 0
M  V30 2261 H 214.832 -1.37016 -0.59557 0
M  V30 2262 H 216.714 -2.04157 -3.68643 0
M  V30 2263 H 215.389 -1.01444 -3.07393 0
M  V30 2264 H 214.296 -3.10848 -2.08146 0
M  V30 2265 H 215.629 -4.07881 -2.75489 0
M  V30 2266 N 217.281 0.66697 -1.42791 0
M  V30 2267 C 218.213 1.7925 -1.42836 0
M  V30 2268 C 219.226 1.59496 -0.326333 0
M  V30 2269 O 220.415 1.6847 -0.589916 0
M  V30 2270 C 217.515 3.16476 -1.21229 0
M  V30 2271 C 216.688 3.63011 -2.44013 0
M  V30 2272 C 215.747 4.78993 -2.17834 0
M  V30 2273 O 214.773 4.89137 -2.91091 0
M  V30 2274 N 215.975 5.68248 -1.18635 0
M  V30 2275 H 218.74 1.79695 -2.39854 0
M  V30 2276 H 216.301 0.850338 -1.37771 0
M  V30 2277 H 218.293 3.91734 -1.01621 0
M  V30 2278 H 216.863 3.10884 -0.32706 0
M  V30 2279 H 216.083 2.78346 -2.79137 0
M  V30 2280 H 217.371 3.90845 -3.25757 0
M  V30 2281 H 216.769 5.62712 -0.580615 0
M  V30 2282 H 215.326 6.43285 -1.05013 0
M  V30 2283 N 218.759 1.29093 0.90403 0
M  V30 2284 C 220.036 1.075 1.63411 0
M  V30 2285 C 220.416 -0.382346 2.07609 0
M  V30 2286 O 219.764 -1.37031 1.82851 0
M  V30 2287 C 219.974 2.05858 2.81822 0
M  V30 2288 C 221.322 2.36539 3.52611 0
M  V30 2289 O 222.346 2.04019 2.91984 0
M  V30 2290 O 221.205 2.92085 4.61897 0
M  V30 2291 H 218.299 0.411547 0.717327 0
M  V30 2292 H 220.845 1.40449 0.952479 0
M  V30 2293 H 219.617 3.04037 2.46327 0
M  V30 2294 H 219.24 1.73613 3.57693 0
M  V30 2295 N 220.237 -1.11381 1.11499 0
M  V30 2296 C 221.484 -1.83132 0.864231 0
M  V30 2297 C 221.812 -1.84683 -0.610114 0
M  V30 2298 O 221.067 -1.29589 -1.46646 0
M  V30 2299 C 221.366 -3.30026 1.37177 0
M  V30 2300 C 221.032 -3.48634 2.85946 0
M  V30 2301 C 219.694 -3.53421 3.26569 0
M  V30 2302 C 222.046 -3.54837 3.81759 0
M  V30 2303 C 219.374 -3.61967 4.61733 0
M  V30 2304 C 221.726 -3.64915 5.1674 0
M  V30 2305 C 220.39 -3.67962 5.5692 0
M  V30 2306 H 219.66 -0.670127 0.316245 0
M  V30 2307 H 222.307 -1.31354 1.3935 0
M  V30 2308 H 220.612 -3.84304 0.762753 0
M  V30 2309 H 222.309 -3.84034 1.15408 0
M  V30 2310 H 218.899 -3.45579 2.53521 0
M  V30 2311 H 223.083 -3.50399 3.51474 0
M  V30 2312 H 218.339 -3.62603 4.92269 0
M  V30 2313 H 222.513 -3.68658 5.90816 0
M  V30 2314 H 220.14 -3.74336 6.61647 0
M  V30 2315 N 221.715 -0.905404 -1.28997 0
M  V30 2316 C 222.963 -0.533192 -1.9494 0
M  V30 2317 C 223.284 0.924618 -1.71685 0
M  V30 2318 O 222.554 1.65268 -1.05183 0
M  V30 2319 H 221.134 -0.194194 -0.721317 0
M  V30 2320 H 223.796 -1.15294 -1.57141 0
M  V30 2321 H 222.892 -0.72059 -3.03667 0
M  V30 2322 N 223.193 1.4272 -0.668489 0
M  V30 2323 C 224.442 2.00846 -0.185389 0
M  V30 2324 C 224.755 1.53442 1.21305 0
M  V30 2325 O 225.961 2.03944 1.79218 0
M  V30 2326 C 224.417 3.58805 -0.280591 0
M  V30 2327 C 224.025 4.15198 -1.68268 0
M  V30 2328 C 225.769 4.24255 0.14412 0
M  V30 2329 C 223.676 5.655 -1.73099 0
M  V30 2330 H 222.606 0.751145 -0.0655475 0
M  V30 2331 H 225.257 1.63516 -0.832752 0
M  V30 2332 H 223.639 3.93608 0.434553 0
M  V30 2333 H 224.813 3.91866 -2.42441 0
M  V30 2334 H 223.128 3.62176 -2.05469 0
M  V30 2335 H 225.725 5.34547 0.128086 0
M  V30 2336 H 226.068 3.99277 1.17827 0
M  V30 2337 H 226.601 3.94389 -0.519798 0
M  V30 2338 H 223.34 5.95268 -2.74475 0
M  V30 2339 H 222.86 5.90842 -1.03274 0
M  V30 2340 H 224.539 6.29808 -1.48158 0
M  V30 2341 N 224.671 0.411399 1.52136 0
M  V30 2342 C 225.581 -0.419774 2.30814 0
M  V30 2343 C 226.597 -1.0515 1.38634 0
M  V30 2344 O 227.773 -1.05252 1.71709 0
M  V30 2345 C 224.838 -1.52019 3.11594 0
M  V30 2346 C 223.899 -0.91129 4.19516 0
M  V30 2347 C 223.132 -1.95927 4.96436 0
M  V30 2348 O 223.355 -3.17775 4.73683 0
M  V30 2349 O 222.289 -1.56423 5.81219 0
M  V30 2350 H 226.115 0.221805 3.02889 0
M  V30 2351 H 223.7 0.174547 1.48377 0
M  V30 2352 H 225.582 -2.15898 3.61892 0
M  V30 2353 H 224.257 -2.14633 2.42311 0
M  V30 2354 H 223.164 -0.235157 3.7336 0
M  V30 2355 H 224.497 -0.32904 4.91099 0
M  V30 2356 N 226.149 -1.5696 0.141893 0
M  V30 2357 C 227.398 -1.95135 -0.510427 0
M  V30 2358 C 227.711 -1.02896 -1.66348 0
M  V30 2359 O 228.917 -1.30629 -2.38009 0
M  V30 2360 C 227.373 -3.46876 -0.959427 0
M  V30 2361 C 226.981 -4.47691 0.166419 0
M  V30 2362 C 228.725 -3.93927 -1.58183 0
M  V30 2363 C 226.632 -5.90636 -0.300565 0
M  V30 2364 H 225.562 -0.728494 -0.194454 0
M  V30 2365 H 228.213 -1.8211 0.22542 0
M  V30 2366 H 226.595 -3.55215 -1.75038 0
M  V30 2367 H 227.769 -4.51043 0.94325 0
M  V30 2368 H 226.084 -4.10527 0.696905 0
M  V30 2369 H 228.681 -4.98158 -1.94275 0
M  V30 2370 H 229.024 -3.3519 -2.46888 0
M  V30 2371 H 229.557 -3.88484 -0.855863 0
M  V30 2372 H 226.296 -6.5318 0.550989 0
M  V30 2373 H 225.816 -5.90655 -1.04338 0
M  V30 2374 H 227.495 -6.42588 -0.754265 0
M  V30 2375 N 227.627 0.131896 -1.57047 0
M  V30 2376 C 228.873 0.843179 -1.84441 0
M  V30 2377 C 229.206 1.80129 -0.725749 0
M  V30 2378 O 228.481 1.92624 0.269469 0
M  V30 2379 C 228.764 1.60442 -3.22382 0
M  V30 2380 C 228.617 0.666782 -4.4483 0
M  V30 2381 C 229.936 2.56354 -3.5773 0
M  V30 2382 H 227.055 0.305081 -0.670891 0
M  V30 2383 H 229.697 0.107839 -1.89694 0
M  V30 2384 H 227.847 2.23128 -3.18035 0
M  V30 2385 H 229.519 0.0497646 -4.61273 0
M  V30 2386 H 227.762 -0.022609 -4.33794 0
M  V30 2387 H 228.433 1.23579 -5.37989 0
M  V30 2388 H 230.909 2.0378 -3.62785 0
M  V30 2389 H 229.785 3.06657 -4.5525 0
M  V30 2390 H 230.046 3.38419 -2.84473 0
M  V30 2391 N 229.106 1.52395 0.401703 0
M  V30 2392 C 230.053 1.76268 1.48991 0
M  V30 2393 C 231.023 0.605386 1.54675 0
M  V30 2394 O 232.208 0.843742 1.7113 0
M  V30 2395 C 229.348 1.92592 2.86361 0
M  V30 2396 C 228.461 3.20259 2.89928 0
M  V30 2397 C 227.596 3.26972 4.18644 0
M  V30 2398 C 226.635 4.48812 4.16214 0
M  V30 2399 N 225.772 4.52877 5.36514 0
M  V30 2400 H 230.612 2.6914 1.27935 0
M  V30 2401 H 228.149 1.33355 0.620871 0
M  V30 2402 H 230.107 2.0004 3.66115 0
M  V30 2403 H 228.737 1.03093 3.05895 0
M  V30 2404 H 227.789 3.21945 2.02621 0
M  V30 2405 H 229.101 4.10056 2.83999 0
M  V30 2406 H 228.255 3.33533 5.06794 0
M  V30 2407 H 226.994 2.35126 4.27278 0
M  V30 2408 H 225.999 4.4239 3.26453 0
M  V30 2409 H 227.224 5.41961 4.09213 0
M  V30 2410 H 225.17 3.63917 5.45802 0
M  V30 2411 H 225.087 5.36529 5.32609 0
M  V30 2412 H 226.355 4.63676 6.26597 0
M  V30 2413 N 230.584 -0.659388 1.43143 0
M  V30 2414 C 231.83 -1.42145 1.44647 0
M  V30 2415 C 232.163 -1.9408 0.0681907 0
M  V30 2416 O 231.438 -1.71899 -0.910007 0
M  V30 2417 C 231.721 -2.60735 2.48373 0
M  V30 2418 C 231.574 -2.14332 3.95451 0
M  V30 2419 C 232.893 -3.62951 2.48906 0
M  V30 2420 H 230.012 -0.51552 0.526696 0
M  V30 2421 H 232.654 -0.748069 1.74654 0
M  V30 2422 H 230.804 -3.18184 2.22916 0
M  V30 2423 H 232.476 -1.61932 4.31944 0
M  V30 2424 H 230.719 -1.4576 4.08578 0
M  V30 2425 H 231.39 -2.99583 4.63631 0
M  V30 2426 H 233.866 -3.1525 2.71582 0
M  V30 2427 H 232.742 -4.43487 3.23435 0
M  V30 2428 H 233.003 -4.15126 1.52061 0
M  V30 2429 N 232.062 -1.29571 -0.897171 0
M  V30 2430 C 233.009 -1.14916 -2.00158 0
M  V30 2431 C 233.979 -0.0418149 -1.66047 0
M  V30 2432 O 235.164 -0.209793 -1.89643 0
M  V30 2433 C 232.304 -0.834307 -3.34863 0
M  V30 2434 C 231.417 -2.02234 -3.8174 0
M  V30 2435 C 230.552 -1.64664 -5.05034 0
M  V30 2436 C 229.591 -2.80033 -5.44286 0
M  V30 2437 N 228.728 -2.42843 -6.58765 0
M  V30 2438 H 233.568 -2.09403 -2.12025 0
M  V30 2439 H 231.105 -1.042 -1.0383 0
M  V30 2440 H 233.063 -0.632436 -4.12379 0
M  V30 2441 H 231.693 0.0736656 -3.22716 0
M  V30 2442 H 230.745 -2.33583 -3.00238 0
M  V30 2443 H 232.057 -2.88673 -4.06779 0
M  V30 2444 H 231.211 -1.4078 -5.9014 0
M  V30 2445 H 229.95 -0.753766 -4.8184 0
M  V30 2446 H 228.955 -3.04596 -4.57713 0
M  V30 2447 H 230.18 -3.69989 -5.6946 0
M  V30 2448 H 228.126 -1.56046 -6.3717 0
M  V30 2449 H 228.043 -3.22815 -6.83613 0
M  V30 2450 H 229.311 -2.22285 -7.47134 0
M  V30 2451 N 233.54 1.10788 -1.12088 0
M  V30 2452 C 234.503 2.15207 -0.788577 0
M  V30 2453 C 235.503 1.59609 0.195317 0
M  V30 2454 O 236.693 1.74174 -0.0300193 0
M  V30 2455 C 233.825 3.4047 -0.171174 0
M  V30 2456 H 235.018 2.46116 -1.71368 0
M  V30 2457 H 232.571 1.26089 -0.923652 0
M  V30 2458 H 233.306 3.15176 0.763832 0
M  V30 2459 H 233.091 3.82109 -0.879514 0
M  V30 2460 H 234.581 4.17576 0.04496 0
M  V30 2461 N 235.018 0.912232 1.28515 0
M  V30 2462 C 236.267 0.540504 1.94323 0
M  V30 2463 C 236.58 -0.920044 1.72611 0
M  V30 2464 O 237.786 -1.39986 2.32629 0
M  V30 2465 C 236.242 0.915803 3.48053 0
M  V30 2466 C 235.85 2.39598 3.78546 0
M  V30 2467 C 237.594 0.614588 4.20027 0
M  V30 2468 C 235.501 2.71148 5.25578 0
M  V30 2469 H 234.431 0.198418 0.727424 0
M  V30 2470 H 237.082 1.11094 1.46049 0
M  V30 2471 H 235.464 0.274168 3.9505 0
M  V30 2472 H 236.638 3.08422 3.42364 0
M  V30 2473 H 234.953 2.66749 3.1974 0
M  V30 2474 H 237.55 0.827002 5.28266 0
M  V30 2475 H 237.893 -0.447531 4.13887 0
M  V30 2476 H 238.426 1.21462 3.78803 0
M  V30 2477 H 235.165 3.76207 5.36794 0
M  V30 2478 H 234.685 2.0696 5.62963 0
M  V30 2479 H 236.364 2.58072 5.93302 0
M  V30 2480 N 236.496 -1.42363 0.676048 0
M  V30 2481 C 237.744 -2.01123 0.198437 0
M  V30 2482 C 238.065 -1.53731 -1.19966 0
M  V30 2483 O 237.335 -0.759518 -1.80577 0
M  V30 2484 H 235.915 -0.743678 0.0703721 0
M  V30 2485 H 238.577 -1.74263 0.872837 0
M  V30 2486 H 237.673 -3.11454 0.200686 0
M  V30 2487 N 237.974 -0.419461 -1.51915 0
M  V30 2488 C 239.39 -0.0708431 -1.59443 0
M  V30 2489 C 239.59 1.41796 -1.43164 0
M  V30 2490 O 238.646 2.18596 -1.26381 0
M  V30 2491 C 239.959 -0.574991 -2.95151 0
M  V30 2492 C 241.507 -0.533867 -3.08413 0
M  V30 2493 C 241.982 -1.01469 -4.46618 0
M  V30 2494 N 243.473 -0.971939 -4.52888 0
M  V30 2495 C 244.208 -1.31505 -5.58116 0
M  V30 2496 N 243.704 -1.73014 -6.70849 0
M  V30 2497 N 245.497 -1.23436 -5.48379 0
M  V30 2498 H 237.648 -1.38836 -1.60743 0
M  V30 2499 H 239.911 -0.570998 -0.756747 0
M  V30 2500 H 239.617 -1.61597 -3.12377 0
M  V30 2501 H 239.491 0.00979777 -3.77199 0
M  V30 2502 H 241.878 0.498086 -2.90866 0
M  V30 2503 H 241.959 -1.15484 -2.28248 0
M  V30 2504 H 241.603 -2.04502 -4.6491 0
M  V30 2505 H 241.533 -0.370433 -5.25295 0
M  V30 2506 H 244.024 -0.666893 -3.71969 0
M  V30 2507 H 244.337 -1.97479 -7.47143 0
M  V30 2508 H 242.682 -1.76926 -6.72103 0
M  V30 2509 H 245.873 -0.908869 -4.59192 0
M  V30 2510 H 246.046 -1.50506 -6.30279 0
M  V30 2511 N 239.452 1.56882 -0.150215 0
M  V30 2512 C 240.384 2.14057 0.819286 0
M  V30 2513 C 241.397 1.09082 1.20851 0
M  V30 2514 O 242.586 1.36347 1.15203 0
M  V30 2515 C 239.686 2.65102 2.11127 0
M  V30 2516 C 238.859 3.94511 1.88891 0
M  V30 2517 C 237.918 4.30834 3.02107 0
M  V30 2518 O 236.944 4.99099 2.73659 0
M  V30 2519 N 238.146 3.90676 4.29363 0
M  V30 2520 H 240.911 2.97871 0.330618 0
M  V30 2521 H 238.472 1.61866 0.0332538 0
M  V30 2522 H 240.464 2.86411 2.85921 0
M  V30 2523 H 239.034 1.85994 2.51247 0
M  V30 2524 H 238.254 3.81795 0.981152 0
M  V30 2525 H 239.542 4.7907 1.71376 0
M  V30 2526 H 238.94 3.35677 4.55343 0
M  V30 2527 H 237.497 4.1703 5.00928 0
M  V30 2528 N 240.93 -0.123565 1.57115 0
M  V30 2529 C 242.346 -0.476961 1.52306 0
M  V30 2530 C 242.546 -1.82109 0.86248 0
M  V30 2531 O 241.602 -2.48586 0.442884 0
M  V30 2532 C 242.915 -0.465661 2.97073 0
M  V30 2533 C 244.463 -0.549534 3.08138 0
M  V30 2534 C 244.938 -0.568669 4.54456 0
M  V30 2535 N 246.429 -0.630237 4.58892 0
M  V30 2536 C 247.164 -0.666415 5.69514 0
M  V30 2537 N 246.66 -0.660514 6.89644 0
M  V30 2538 N 248.453 -0.709077 5.5761 0
M  V30 2539 H 240.604 0.757198 1.98445 0
M  V30 2540 H 242.867 0.278808 0.906074 0
M  V30 2541 H 242.573 0.454232 3.48754 0
M  V30 2542 H 242.447 -1.29513 3.54269 0
M  V30 2543 H 244.834 -1.45985 2.56461 0
M  V30 2544 H 244.915 0.307532 2.53945 0
M  V30 2545 H 244.559 0.337581 5.06777 0
M  V30 2546 H 244.489 -1.44256 5.06456 0
M  V30 2547 H 246.98 -0.641146 3.72421 0
M  V30 2548 H 247.293 -0.690616 7.69708 0
M  V30 2549 H 245.638 -0.628012 6.92157 0
M  V30 2550 H 248.829 -0.711019 4.62668 0
M  V30 2551 H 249.002 -0.733804 6.43832 0
M  V30 2552 N 242.408 -1.52605 -0.393616 0
M  V30 2553 C 243.655 -1.67424 -1.1391 0
M  V30 2554 C 243.983 -0.411859 -1.90089 0
M  V30 2555 O 243.238 0.605626 -1.86093 0
M  V30 2556 C 243.537 -2.85721 -2.14705 0
M  V30 2557 C 243.203 -4.23342 -1.55218 0
M  V30 2558 C 241.865 -4.60771 -1.3872 0
M  V30 2559 C 244.217 -5.09041 -1.11924 0
M  V30 2560 C 241.545 -5.81563 -0.774689 0
M  V30 2561 C 243.897 -6.30452 -0.520853 0
M  V30 2562 C 242.561 -6.66617 -0.343134 0
M  V30 2563 H 241.831 -0.612648 -0.416826 0
M  V30 2564 H 244.478 -1.8674 -0.424315 0
M  V30 2565 H 242.783 -2.60803 -2.92385 0
M  V30 2566 H 244.48 -2.94382 -2.72288 0
M  V30 2567 H 241.07 -3.93855 -1.69045 0
M  V30 2568 H 245.254 -4.80695 -1.23473 0
M  V30 2569 H 240.51 -6.08196 -0.625154 0
M  V30 2570 H 244.684 -6.96175 -0.177065 0
M  V30 2571 H 242.311 -7.60083 0.133571 0
M  V30 2572 N 243.887 0.651787 -1.4349 0
M  V30 2573 C 244.834 1.76462 -1.4876 0
M  V30 2574 C 245.804 1.62641 -0.337189 0
M  V30 2575 O 246.989 1.82864 -0.544544 0
M  V30 2576 C 244.129 3.14623 -1.41796 0
M  V30 2577 C 243.242 3.39568 -2.67053 0
M  V30 2578 C 242.377 4.67585 -2.52068 0
M  V30 2579 C 241.416 4.85639 -3.72587 0
M  V30 2580 N 240.553 6.04915 -3.56402 0
M  V30 2581 H 245.393 1.71293 -2.43849 0
M  V30 2582 H 242.93 0.835889 -1.21043 0
M  V30 2583 H 244.888 3.94496 -1.35753 0
M  V30 2584 H 243.518 3.18859 -0.50288 0
M  V30 2585 H 242.57 2.53783 -2.8337 0
M  V30 2586 H 243.882 3.48795 -3.56572 0
M  V30 2587 H 243.036 5.55586 -2.4374 0
M  V30 2588 H 241.775 4.60681 -1.60075 0
M  V30 2589 H 240.78 3.96073 -3.81321 0
M  V30 2590 H 242.005 4.94372 -4.65589 0
M  V30 2591 H 239.951 5.9914 -2.67146 0
M  V30 2592 H 239.868 6.15106 -4.39524 0
M  V30 2593 H 241.136 6.95533 -3.51929 0
M  V30 2594 N 245.365 1.30045 0.890287 0
M  V30 2595 C 246.611 1.18737 1.64406 0
M  V30 2596 C 246.944 -0.258525 1.92472 0
M  V30 2597 O 246.219 -1.18562 1.54186 0
M  V30 2598 C 246.502 2.01087 2.98724 0
M  V30 2599 C 246.355 3.53867 2.77665 0
M  V30 2600 C 247.674 1.84457 3.9958 0
M  V30 2601 H 244.793 0.432698 0.596608 0
M  V30 2602 H 247.435 1.5962 1.0306 0
M  V30 2603 H 245.585 1.66349 3.51084 0
M  V30 2604 H 247.257 3.98637 2.32133 0
M  V30 2605 H 245.5 3.78318 2.12269 0
M  V30 2606 H 246.171 4.06772 3.7315 0
M  V30 2607 H 248.647 2.14817 3.56361 0
M  V30 2608 H 247.523 2.44411 4.91482 0
M  V30 2609 H 247.784 0.802276 4.3476 0
M  V30 2610 N 246.843 -1.10192 1.12674 0
M  V30 2611 C 247.773 -2.18652 0.819362 0
M  V30 2612 C 248.754 -1.68698 -0.217915 0
M  V30 2613 O 249.939 -1.94041 -0.0785581 0
M  V30 2614 C 247.069 -3.46202 0.27594 0
M  V30 2615 C 246.023 -4.09444 1.24656 0
M  V30 2616 C 245.349 -5.31725 0.563258 0
M  V30 2617 C 246.649 -4.52863 2.60217 0
M  V30 2618 H 248.343 -2.44622 1.72628 0
M  V30 2619 H 245.889 -1.17571 0.831451 0
M  V30 2620 H 247.842 -4.21372 0.0486149 0
M  V30 2621 H 246.566 -3.1973 -0.666331 0
M  V30 2622 H 245.225 -3.36284 1.45974 0
M  V30 2623 H 244.873 -5.0153 -0.384235 0
M  V30 2624 H 244.573 -5.74991 1.21075 0
M  V30 2625 H 246.097 -6.09624 0.34503 0
M  V30 2626 H 247.511 -5.19294 2.42913 0
M  V30 2627 H 245.908 -5.06986 3.21068 0
M  V30 2628 H 246.978 -3.65656 3.18471 0
M  V30 2629 N 248.321 -0.919034 -1.28029 0
M  V30 2630 C 249.231 -0.416756 -2.30869 0
M  V30 2631 C 250.247 0.498235 -1.66714 0
M  V30 2632 O 251.423 0.383144 -1.97722 0
M  V30 2633 C 248.488 0.330274 -3.45123 0
M  V30 2634 C 247.549 -0.618578 -4.2482 0
M  V30 2635 C 246.782 0.0928959 -5.33619 0
M  V30 2636 O 247.005 1.31375 -5.55065 0
M  V30 2637 O 245.939 -0.574499 -5.99152 0
M  V30 2638 H 249.765 -1.27043 -2.75851 0
M  V30 2639 H 247.35 -0.684052 -1.3282 0
M  V30 2640 H 249.232 0.751972 -4.14636 0
M  V30 2641 H 247.907 1.1597 -3.02213 0
M  V30 2642 H 246.814 -1.08978 -3.57875 0
M  V30 2643 H 248.147 -1.41497 -4.71423 0
M  V30 2644 N 249.799 1.42003 -0.683588 0
M  V30 2645 C 250.729 2.33487 -0.024866 0
M  V30 2646 C 251.71 1.51163 0.779975 0
M  V30 2647 O 252.895 1.79739 0.735362 0
M  V30 2648 C 250.025 3.3487 0.920836 0
M  V30 2649 C 248.979 4.27414 0.223958 0
M  V30 2650 C 248.305 5.19074 1.2832 0
M  V30 2651 C 249.605 5.14445 -0.90242 0
M  V30 2652 H 251.299 2.88819 -0.788921 0
M  V30 2653 H 248.845 1.38873 -0.38083 0
M  V30 2654 H 250.798 3.97787 1.39081 0
M  V30 2655 H 249.522 2.77861 1.71642 0
M  V30 2656 H 248.181 3.65904 -0.225864 0
M  V30 2657 H 247.829 4.58387 2.071 0
M  V30 2658 H 247.529 5.81822 0.821995 0
M  V30 2659 H 249.053 5.84867 1.75392 0
M  V30 2660 H 250.467 5.70998 -0.513272 0
M  V30 2661 H 248.864 5.86072 -1.28997 0
M  V30 2662 H 249.934 4.52322 -1.74737 0
M  V30 2663 N 251.277 0.427512 1.51691 0
M  V30 2664 C 252.693 0.0792977 1.59403 0
M  V30 2665 C 252.893 -1.41035 1.43914 0
M  V30 2666 O 251.949 -2.17922 1.27539 0
M  V30 2667 C 253.262 0.590636 2.94842 0
M  V30 2668 C 254.81 0.550215 3.08126 0
M  V30 2669 C 255.285 1.03836 4.46074 0
M  V30 2670 N 256.776 0.995943 4.52366 0
M  V30 2671 C 257.511 1.34463 5.57411 0
M  V30 2672 N 257.007 1.76569 6.69922 0
M  V30 2673 N 258.8 1.26343 5.47717 0
M  V30 2674 H 250.951 1.39687 1.60004 0
M  V30 2675 H 253.214 0.575003 0.753708 0
M  V30 2676 H 252.92 1.63251 3.11516 0
M  V30 2677 H 252.794 0.0102061 3.77199 0
M  V30 2678 H 255.181 -0.482654 2.91126 0
M  V30 2679 H 255.262 1.16693 2.27632 0
M  V30 2680 H 254.906 2.06965 4.63819 0
M  V30 2681 H 254.836 0.398286 5.25092 0
M  V30 2682 H 257.327 0.68661 3.7161 0
M  V30 2683 H 257.64 2.01438 7.46085 0
M  V30 2684 H 255.985 1.80488 6.71155 0
M  V30 2685 H 259.176 0.933209 4.58703 0
M  V30 2686 H 259.349 1.53846 6.29472 0
M  V30 2687 N 252.755 -1.56801 0.158532 0
M  V30 2688 C 253.983 -2.00859 -0.496303 0
M  V30 2689 C 254.398 -1.03871 -1.57659 0
M  V30 2690 O 253.755 -0.0375165 -1.82461 0
M  V30 2691 C 253.806 -3.4479 -1.08638 0
M  V30 2692 O 253.527 -4.38072 -0.0492322 0
M  V30 2693 C 255.028 -4.04185 -1.8207 0
M  V30 2694 H 252.248 -0.65864 -0.128199 0
M  V30 2695 H 254.792 -2.02885 0.256506 0
M  V30 2696 H 252.947 -3.43579 -1.78975 0
M  V30 2697 H 253.361 -5.2227 -0.483102 0
M  V30 2698 H 254.835 -5.06857 -2.18633 0
M  V30 2699 H 255.312 -3.45549 -2.71095 0
M  V30 2700 H 255.918 -4.0906 -1.16405 0
M  V30 2701 N 254.233 0.115231 -1.57178 0
M  V30 2702 C 255.165 1.16694 -1.97269 0
M  V30 2703 C 256.178 1.37445 -0.872502 0
M  V30 2704 O 257.367 1.36454 -1.15077 0
M  V30 2705 C 254.467 2.52627 -2.25905 0
M  V30 2706 C 253.64 2.52427 -3.57211 0
M  V30 2707 C 252.699 3.70134 -3.74016 0
M  V30 2708 O 251.725 3.53546 -4.46087 0
M  V30 2709 N 252.927 4.88844 -3.13068 0
M  V30 2710 H 255.692 0.82588 -2.88096 0
M  V30 2711 H 253.253 0.304461 -1.59011 0
M  V30 2712 H 255.245 3.29937 -2.34359 0
M  V30 2713 H 253.815 2.789 -1.41186 0
M  V30 2714 H 253.035 1.60805 -3.5991 0
M  V30 2715 H 254.323 2.49353 -4.43509 0
M  V30 2716 H 253.721 5.05225 -2.54489 0
M  V30 2717 H 252.278 5.63817 -3.27037 0
M  V30 2718 N 255.711 1.52812 0.385517 0
M  V30 2719 C 256.936 1.72207 1.15583 0
M  V30 2720 C 257.361 0.441034 1.82857 0
M  V30 2721 O 256.719 -0.603465 1.70962 0
M  V30 2722 C 256.767 2.87476 2.17692 0
M  V30 2723 O 255.871 2.54693 3.24354 0
M  V30 2724 H 255.212 0.572526 0.336319 0
M  V30 2725 H 257.742 1.99618 0.448744 0
M  V30 2726 H 257.752 3.13072 2.6163 0
M  V30 2727 H 256.427 3.80408 1.68115 0
M  V30 2728 H 255.004 2.3985 2.85529 0
M  V30 2729 N 257.189 -0.644168 1.43834 0
M  V30 2730 C 258.466 -1.40188 1.36406 0
M  V30 2731 C 258.846 -2.11094 0.0163124 0
M  V30 2732 O 258.194 -2.05426 -1.00062 0
M  V30 2733 C 258.404 -2.3791 2.55343 0
M  V30 2734 C 259.752 -3.01637 2.98832 0
M  V30 2735 O 260.776 -2.48237 2.55455 0
M  V30 2736 O 259.635 -3.98477 3.74003 0
M  V30 2737 H 256.729 -0.626773 0.539523 0
M  V30 2738 H 259.275 -0.670317 1.559 0
M  V30 2739 H 258.047 -1.84525 3.4506 0
M  V30 2740 H 257.67 -3.18503 2.37995 0
M  V30 2741 N 258.668 -1.30515 -0.883378 0
M  V30 2742 C 259.916 -1.19194 -1.63209 0
M  V30 2743 C 260.237 0.253205 -1.93349 0
M  V30 2744 O 259.507 1.17025 -1.57105 0
M  V30 2745 H 258.087 -0.438148 -0.605009 0
M  V30 2746 H 260.749 -1.63663 -1.05832 0
M  V30 2747 H 259.845 -1.75396 -2.58153 0
M  V30 2748 N 260.146 1.09593 -1.13257 0
M  V30 2749 C 261.395 1.81105 -0.887917 0
M  V30 2750 C 261.708 1.86563 0.587672 0
M  V30 2751 O 262.914 2.54367 0.949204 0
M  V30 2752 C 261.37 3.25338 -1.53895 0
M  V30 2753 C 260.978 3.28151 -3.04994 0
M  V30 2754 C 262.722 4.01617 -1.37492 0
M  V30 2755 C 260.629 4.66897 -3.6299 0
M  V30 2756 H 259.559 0.678661 -0.328534 0
M  V30 2757 H 262.21 1.23183 -1.36008 0
M  V30 2758 H 260.592 3.8331 -0.994446 0
M  V30 2759 H 261.766 2.79953 -3.66009 0
M  V30 2760 H 260.081 2.65361 -3.20893 0
M  V30 2761 H 262.678 5.04119 -1.78235 0
M  V30 2762 H 263.021 4.15072 -0.31957 0
M  V30 2763 H 263.554 3.50082 -1.88912 0
M  V30 2764 H 260.293 4.58643 -4.68323 0
M  V30 2765 H 259.813 5.15426 -3.06752 0
M  V30 2766 H 261.492 5.3587 -3.62563 0
M  V30 2767 N 261.624 0.925811 1.2754 0
M  V30 2768 C 262.556 0.380753 2.26015 0
M  V30 2769 C 263.569 -0.487485 1.5533 0
M  V30 2770 O 264.758 -0.300413 1.75954 0
M  V30 2771 C 261.858 -0.473259 3.35579 0
M  V30 2772 C 261.031 0.375249 4.35787 0
M  V30 2773 C 260.09 -0.415809 5.24555 0
M  V30 2774 O 259.116 0.175834 5.68928 0
M  V30 2775 N 260.318 -1.71607 5.54555 0
M  V30 2776 H 263.083 1.22725 2.73421 0
M  V30 2777 H 260.644 0.793037 1.41147 0
M  V30 2778 H 262.636 -1.00949 3.91907 0
M  V30 2779 H 261.206 -1.2205 2.87789 0
M  V30 2780 H 260.426 1.09279 3.7875 0
M  V30 2781 H 261.714 0.955399 4.99749 0
M  V30 2782 H 261.112 -2.2191 5.20358 0
M  V30 2783 H 259.669 -2.19887 6.1359 0
M  V30 2784 N 263.102 -1.41638 0.69111 0
M  V30 2785 C 264.034 -2.29194 -0.0161523 0
M  V30 2786 C 265.047 -1.44549 -0.748955 0
M  V30 2787 O 266.236 -1.681 -0.6004 0
M  V30 2788 C 263.336 -3.22325 -1.0469 0
M  V30 2789 C 262.509 -4.35706 -0.384621 0
M  V30 2790 C 261.568 -5.09443 -1.31737 0
M  V30 2791 O 260.594 -5.63386 -0.811451 0
M  V30 2792 N 261.796 -5.16487 -2.64993 0
M  V30 2793 H 264.561 -2.90534 0.735523 0
M  V30 2794 H 262.122 -1.52742 0.53679 0
M  V30 2795 H 264.114 -3.68522 -1.67252 0
M  V30 2796 H 262.684 -2.62323 -1.70015 0
M  V30 2797 H 261.904 -3.91948 0.420804 0
M  V30 2798 H 263.192 -5.08743 0.0760765 0
M  V30 2799 H 262.59 -4.741 -3.08619 0
M  V30 2800 H 261.147 -5.66276 -3.22761 0
M  V30 2801 N 264.58 -0.43555 -1.51462 0
M  V30 2802 C 265.543 0.365137 -2.26273 0
M  V30 2803 C 266.543 0.951227 -1.29647 0
M  V30 2804 O 267.733 0.825958 -1.53374 0
M  V30 2805 C 264.865 1.51645 -3.05314 0
M  V30 2806 H 266.058 -0.290474 -2.9849 0
M  V30 2807 H 263.611 -0.188676 -1.55157 0
M  V30 2808 H 264.346 2.20816 -2.3751 0
M  V30 2809 H 264.131 1.10238 -3.76284 0
M  V30 2810 H 265.621 2.08218 -3.61987 0
M  V30 2811 N 266.058 1.56714 -0.166846 0
M  V30 2812 C 267.005 2.17746 0.765193 0
M  V30 2813 C 267.975 1.11614 1.23011 0
M  V30 2814 O 269.16 1.39745 1.29908 0
M  V30 2815 C 266.3 2.81882 1.9909 0
M  V30 2816 C 265.413 4.02462 1.56997 0
M  V30 2817 C 264.548 4.54537 2.749 0
M  V30 2818 C 263.587 5.67538 2.29275 0
M  V30 2819 N 262.724 6.14142 3.40255 0
M  V30 2820 H 267.564 2.97048 0.237952 0
M  V30 2821 H 265.101 1.4672 0.105725 0
M  V30 2822 H 267.059 3.17221 2.70974 0
M  V30 2823 H 265.689 2.05191 2.49192 0
M  V30 2824 H 264.741 3.72973 0.748037 0
M  V30 2825 H 266.053 4.84273 1.19503 0
M  V30 2826 H 265.207 4.92035 3.54946 0
M  V30 2827 H 263.946 3.71774 3.1565 0
M  V30 2828 H 262.951 5.29597 1.47674 0
M  V30 2829 H 264.176 6.52099 1.89588 0
M  V30 2830 H 262.122 5.3431 3.8059 0
M  V30 2831 H 262.039 6.9093 3.06841 0
M  V30 2832 H 263.307 6.56289 4.206 0
M  V30 2833 N 267.536 -0.106894 1.57237 0
M  V30 2834 C 268.782 -0.81373 1.85759 0
M  V30 2835 C 269.115 -1.78952 0.754315 0
M  V30 2836 O 268.39 -1.93029 -0.23879 0
M  V30 2837 C 268.673 -1.55293 3.24894 0
M  V30 2838 C 268.526 -0.595929 4.45835 0
M  V30 2839 C 269.845 -2.5063 3.61763 0
M  V30 2840 H 266.964 -0.294369 0.67566 0
M  V30 2841 H 269.606 -0.0776472 1.89841 0
M  V30 2842 H 267.756 -2.1804 3.21544 0
M  V30 2843 H 269.428 0.0236262 4.61294 0
M  V30 2844 H 267.671 0.0916191 4.33703 0
M  V30 2845 H 268.342 -1.15004 5.39887 0
M  V30 2846 H 270.818 -1.97982 3.65981 0
M  V30 2847 H 269.694 -2.99376 4.60071 0
M  V30 2848 H 269.955 -3.3385 2.89821 0
M  V30 2849 N 269.014 -1.53014 -0.377408 0
M  V30 2850 C 269.946 -1.74884 -1.48149 0
M  V30 2851 C 270.959 -0.629433 -1.5014 0
M  V30 2852 O 272.148 -0.905416 -1.53833 0
M  V30 2853 C 269.248 -1.80299 -2.86959 0
M  V30 2854 C 268.421 -3.09776 -3.08801 0
M  V30 2855 C 267.48 -3.06586 -4.27658 0
M  V30 2856 O 266.506 -3.80419 -4.23403 0
M  V30 2857 N 267.708 -2.26578 -5.34455 0
M  V30 2858 H 270.473 -2.70147 -1.29771 0
M  V30 2859 H 268.034 -1.51646 -0.56703 0
M  V30 2860 H 270.026 -1.75657 -3.64591 0
M  V30 2861 H 268.596 -0.92372 -2.98641 0
M  V30 2862 H 267.816 -3.27815 -2.18931 0
M  V30 2863 H 269.104 -3.95366 -3.20255 0
M  V30 2864 H 268.502 -1.66081 -5.40771 0
M  V30 2865 H 267.059 -2.27766 -6.10709 0
M  V30 2866 N 270.492 0.636531 -1.44174 0
M  V30 2867 C 271.741 1.39213 -1.45954 0
M  V30 2868 C 272.054 1.95374 -0.0939119 0
M  V30 2869 O 273.26 2.71498 0.0107767 0
M  V30 2870 C 271.716 2.52025 -2.56927 0
M  V30 2871 C 271.324 2.024 -3.99673 0
M  V30 2872 C 273.068 3.29269 -2.67922 0
M  V30 2873 C 270.975 3.12521 -5.0208 0
M  V30 2874 H 269.905 0.523132 -0.542999 0
M  V30 2875 H 272.556 0.685349 -1.70221 0
M  V30 2876 H 270.938 3.25253 -2.25891 0
M  V30 2877 H 272.112 1.36073 -4.40251 0
M  V30 2878 H 270.427 1.37987 -3.92872 0
M  V30 2879 H 273.024 4.11352 -3.41605 0
M  V30 2880 H 273.367 3.78397 -1.73555 0
M  V30 2881 H 273.9 2.63129 -2.98342 0
M  V30 2882 H 270.639 2.68343 -5.98057 0
M  V30 2883 H 270.159 3.77507 -4.66099 0
M  V30 2884 H 271.838 3.77385 -5.25538 0
M  V30 2885 N 271.97 1.30982 0.876444 0
M  V30 2886 C 272.9 1.20668 1.99903 0
M  V30 2887 C 273.881 0.095354 1.69833 0
M  V30 2888 O 275.066 0.27885 1.92188 0
M  V30 2889 C 272.196 0.90655 3.3526 0
M  V30 2890 C 271.15 1.97675 3.79617 0
M  V30 2891 C 270.476 1.52943 5.1236 0
M  V30 2892 C 271.776 3.389 3.97422 0
M  V30 2893 H 273.47 2.14586 2.0879 0
M  V30 2894 H 271.016 1.03308 1.00317 0
M  V30 2895 H 272.969 0.821025 4.13324 0
M  V30 2896 H 271.693 -0.0682969 3.26529 0
M  V30 2897 H 270.352 2.05205 3.03787 0
M  V30 2898 H 270 0.54262 5.00065 0
M  V30 2899 H 269.7 2.24532 5.43009 0
M  V30 2900 H 271.224 1.45786 5.92941 0
M  V30 2901 H 272.638 3.34081 4.659 0
M  V30 2902 H 271.035 4.0865 4.3946 0
M  V30 2903 H 272.105 3.80163 3.01006 0
M  V30 2904 N 273.449 -1.08991 1.13837 0
M  V30 2905 C 274.86 -1.62746 0.914917 0
M  V30 2906 C 275.211 -1.88403 -0.547594 0
M  V30 2907 O 274.336 -1.63706 -1.41525 0
M  V30 2908 C 274.931 -2.95662 1.65437 0
M  V30 2909 C 273.49 -3.46225 1.47666 0
M  V30 2910 C 272.637 -2.20562 1.6807 0
M  V30 2911 H 275.588 -0.922946 1.29102 0
M  V30 2912 H 275.609 -3.63825 1.11407 0
M  V30 2913 H 275.121 -2.76956 2.71877 0
M  V30 2914 H 273.222 -3.70046 0.435478 0
M  V30 2915 H 273.335 -4.23368 2.24268 0
M  V30 2916 H 271.699 -2.29439 1.10589 0
M  V30 2917 H 272.482 -2.0437 2.7584 0
M  V30 2918 N 274.927 -0.932562 -1.27047 0
M  V30 2919 C 275.837 -0.441219 -2.30414 0
M  V30 2920 C 276.853 0.480525 -1.67233 0
M  V30 2921 O 278.029 0.362151 -1.98117 0
M  V30 2922 C 275.094 0.293651 -3.45454 0
M  V30 2923 C 274.155 -0.663601 -4.2414 0
M  V30 2924 C 273.388 0.0362932 -5.33688 0
M  V30 2925 O 273.611 1.2548 -5.56427 0
M  V30 2926 O 272.545 -0.638015 -5.98509 0
M  V30 2927 H 276.371 -1.29962 -2.74488 0
M  V30 2928 H 273.956 -0.6981 -1.32087 0
M  V30 2929 H 275.838 0.707951 -4.15411 0
M  V30 2930 H 274.513 1.12758 -3.03426 0
M  V30 2931 H 273.42 -1.12768 -3.56699 0
M  V30 2932 H 274.753 -1.46489 -4.69896 0
M  V30 2933 N 276.405 1.4127 -0.698611 0
M  V30 2934 C 277.645 2.03044 -0.235062 0
M  V30 2935 C 278.009 1.54146 1.14468 0
M  V30 2936 O 279.21 2.07867 1.70425 0
M  V30 2937 C 277.481 3.56192 -0.293651 0
M  V30 2938 S 279.04 4.38696 0.0954053 0
M  V30 2939 H 275.858 0.704697 -0.0944648 0
M  V30 2940 H 278.46 1.72656 -0.917064 0
M  V30 2941 H 277.164 3.89274 -1.29977 0
M  V30 2942 H 276.695 3.91285 0.407397 0
M  V30 2943 H 278.71 4.78257 1.3223 0
M  V30 2944 N 277.883 0.443576 1.51229 0
M  V30 2945 C 279.129 -0.120975 2.02439 0
M  V30 2946 C 279.462 -1.41815 1.32674 0
M  V30 2947 O 278.737 -1.89373 0.443622 0
M  V30 2948 C 279.02 -0.333291 3.58554 0
M  V30 2949 C 278.873 0.982968 4.38928 0
M  V30 2950 C 280.192 -1.10028 4.26124 0
M  V30 2951 H 277.311 -0.0424923 0.735774 0
M  V30 2952 H 279.953 0.583794 1.80809 0
M  V30 2953 H 278.103 -0.933614 3.77115 0
M  V30 2954 H 279.775 1.61775 4.32003 0
M  V30 2955 H 278.018 1.58611 4.03763 0
M  V30 2956 H 278.689 0.788379 5.46341 0
M  V30 2957 H 281.165 -0.591711 4.11871 0
M  V30 2958 H 280.041 -1.21761 5.35225 0
M  V30 2959 H 280.302 -2.12996 3.87408 0
M  V30 2960 N 279.361 -1.56624 0.175154 0
M  V30 2961 C 280.291 -2.21155 -0.749195 0
M  V30 2962 C 281.272 -1.16836 -1.23626 0
M  V30 2963 O 282.457 -1.45277 -1.28873 0
M  V30 2964 C 279.587 -2.8553 -1.97711 0
M  V30 2965 C 278.541 -3.95921 -1.62575 0
M  V30 2966 C 277.867 -4.47365 -2.92864 0
M  V30 2967 C 279.167 -5.15323 -0.850838 0
M  V30 2968 H 280.861 -2.98653 -0.211295 0
M  V30 2969 H 278.407 -1.43651 -0.100188 0
M  V30 2970 H 280.36 -3.2935 -2.62881 0
M  V30 2971 H 279.084 -2.05406 -2.53921 0
M  V30 2972 H 277.743 -3.52762 -0.997719 0
M  V30 2973 H 277.391 -3.64027 -3.47122 0
M  V30 2974 H 277.091 -5.21839 -2.70106 0
M  V30 2975 H 278.615 -4.93873 -3.59056 0
M  V30 2976 H 280.029 -5.55812 -1.40521 0
M  V30 2977 H 278.426 -5.95739 -0.722154 0
M  V30 2978 H 279.496 -4.84661 0.152082 0
M  V30 2979 N 280.839 0.0985539 -1.57292 0
M  V30 2980 C 282.25 0.653457 -1.74891 0
M  V30 2981 C 282.601 1.7929 -0.796838 0
M  V30 2982 O 281.726 2.16385 0.0254886 0
M  V30 2983 C 282.321 1.19216 -3.17133 0
M  V30 2984 C 280.88 1.69316 -3.36168 0
M  V30 2985 C 280.027 0.601294 -2.70702 0
M  V30 2986 H 282.978 -0.127497 -1.58187 0
M  V30 2987 H 282.999 2.06154 -3.19814 0
M  V30 2988 H 282.511 0.362635 -3.86402 0
M  V30 2989 H 280.612 2.5468 -2.71972 0
M  V30 2990 H 280.725 1.78853 -4.44464 0
M  V30 2991 H 279.089 1.0399 -2.32504 0
M  V30 2992 H 279.872 -0.217592 -3.4261 0
M  V30 2993 N 282.317 1.53212 0.369288 0
M  V30 2994 C 283.542 1.73423 1.1375 0
M  V30 2995 C 283.967 0.460404 1.82378 0
M  V30 2996 O 283.325 -0.585298 1.71592 0
M  V30 2997 C 283.373 2.89769 2.1463 0
M  V30 2998 O 282.477 2.58119 3.21634 0
M  V30 2999 H 281.818 0.576061 0.330227 0
M  V30 3000 H 284.348 2.00083 0.427547 0
M  V30 3001 H 284.358 3.15829 2.58294 0
M  V30 3002 H 283.033 3.8217 1.64071 0
M  V30 3003 H 281.61 2.42864 2.82969 0
M  V30 3004 N 283.795 -0.628877 1.44509 0
M  V30 3005 C 285.023 -1.41554 1.50897 0
M  V30 3006 C 285.438 -1.8832 0.134564 0
M  V30 3007 O 284.795 -1.60969 -0.859965 0
M  V30 3008 C 284.846 -2.63435 2.47556 0
M  V30 3009 O 284.567 -2.18619 3.79654 0
M  V30 3010 C 286.068 -3.56537 2.63431 0
M  V30 3011 H 283.288 -0.434044 0.511709 0
M  V30 3012 H 285.832 -0.768895 1.89495 0
M  V30 3013 H 283.987 -3.24187 2.12089 0
M  V30 3014 H 284.401 -2.97652 4.31861 0
M  V30 3015 H 285.875 -4.38657 3.35088 0
M  V30 3016 H 286.352 -4.05493 1.68738 0
M  V30 3017 H 286.958 -3.01653 2.9981 0
M  V30 3018 N 285.273 -1.31445 -0.869486 0
M  V30 3019 C 286.206 -1.13465 -1.97992 0
M  V30 3020 C 287.184 -0.0380291 -1.62556 0
M  V30 3021 O 288.368 -0.194544 -1.87493 0
M  V30 3022 C 285.495 -0.733822 -3.30655 0
M  V30 3023 C 284.541 -1.83356 -3.85075 0
M  V30 3024 S 285.374 -3.43909 -4.10472 0
M  V30 3025 C 286.53 -3.05763 -5.46132 0
M  V30 3026 H 286.763 -2.07471 -2.1294 0
M  V30 3027 H 284.296 -1.15936 -1.01972 0
M  V30 3028 H 286.254 -0.509306 -4.07328 0
M  V30 3029 H 284.915 0.187123 -3.13542 0
M  V30 3030 H 284.108 -1.50574 -4.80982 0
M  V30 3031 H 283.71 -2.01315 -3.15195 0
M  V30 3032 H 286.002 -2.54686 -6.27807 0
M  V30 3033 H 286.945 -4.00635 -5.83864 0
M  V30 3034 H 287.353 -2.43192 -5.09429 0
M  V30 3035 N 286.751 1.08385 -1.14413 0
M  V30 3036 C 287.976 1.85057 -0.936413 0
M  V30 3037 C 288.401 1.81055 0.509971 0
M  V30 3038 O 287.759 1.1958 1.36273 0
M  V30 3039 C 287.807 3.30505 -1.44217 0
M  V30 3040 O 286.911 4.07491 -0.634409 0
M  V30 3041 H 286.252 0.573425 -0.334784 0
M  V30 3042 H 288.782 1.36799 -1.52142 0
M  V30 3043 H 288.792 3.81348 -1.45043 0
M  V30 3044 H 287.467 3.32734 -2.49522 0
M  V30 3045 H 286.044 3.66368 -0.694902 0
M  V30 3046 N 288.23 0.939286 1.26551 0
M  V30 3047 C 289.193 0.451987 2.24699 0
M  V30 3048 C 290.193 -0.435869 1.5478 0
M  V30 3049 O 291.383 -0.235314 1.72603 0
M  V30 3050 C 288.515 -0.348801 3.39111 0
M  V30 3051 H 289.708 1.3193 2.69322 0
M  V30 3052 H 287.261 0.721072 1.38673 0
M  V30 3053 H 287.996 -1.23444 2.99887 0
M  V30 3054 H 287.781 0.287945 3.91041 0
M  V30 3055 H 289.271 -0.679726 4.12031 0
M  V30 3056 N 289.708 -1.40897 0.706093 0
M  V30 3057 C 290.954 -2.01352 0.241889 0
M  V30 3058 C 291.287 -1.55832 -1.15888 0
M  V30 3059 O 290.562 -0.774145 -1.7843 0
M  V30 3060 C 290.845 -3.58752 0.311311 0
M  V30 3061 C 290.698 -4.1437 1.74978 0
M  V30 3062 C 292.017 -4.38914 -0.322922 0
M  V30 3063 H 289.136 -0.731562 0.0893687 0
M  V30 3064 H 291.778 -1.67504 0.896802 0
M  V30 3065 H 289.928 -3.87718 -0.246302 0
M  V30 3066 H 291.6 -3.96239 2.36205 0
M  V30 3067 H 289.843 -3.69016 2.28057 0
M  V30 3068 H 290.514 -5.23532 1.74981 0
M  V30 3069 H 292.99 -4.15822 0.152089 0
M  V30 3070 H 291.866 -5.48358 -0.243855 0
M  V30 3071 H 292.127 -4.19176 -1.40513 0
M  V30 3072 N 291.186 -0.45159 -1.50991 0
M  V30 3073 C 292.118 0.388634 -2.25881 0
M  V30 3074 C 293.131 0.974041 -1.30446 0
M  V30 3075 O 294.32 0.865758 -1.56099 0
M  V30 3076 C 291.42 1.5571 -3.01011 0
M  V30 3077 C 290.593 1.08801 -4.23652 0
M  V30 3078 C 289.652 2.12825 -4.8124 0
M  V30 3079 O 288.678 1.71678 -5.42693 0
M  V30 3080 N 289.88 3.45453 -4.66522 0
M  V30 3081 H 292.645 -0.25329 -2.98628 0
M  V30 3082 H 290.206 -0.281268 -1.59438 0
M  V30 3083 H 292.198 2.24952 -3.3642 0
M  V30 3084 H 290.768 2.10409 -2.31186 0
M  V30 3085 H 289.988 0.22215 -3.93574 0
M  V30 3086 H 291.276 0.752213 -5.03209 0
M  V30 3087 H 290.674 3.81605 -4.17605 0
M  V30 3088 H 289.231 4.10549 -5.06254 0
M  V30 3089 N 292.664 1.56529 -0.183458 0
M  V30 3090 C 293.594 2.21549 0.737456 0
M  V30 3091 C 294.575 1.17489 1.23005 0
M  V30 3092 O 295.76 1.45959 1.281 0
M  V30 3093 C 292.89 2.86575 1.96194 0
M  V30 3094 C 291.844 3.96778 1.60473 0
M  V30 3095 C 291.17 4.48911 2.90487 0
M  V30 3096 C 292.47 5.15767 0.823497 0
M  V30 3097 H 294.164 2.98761 0.195453 0
M  V30 3098 H 291.71 1.43702 0.0925686 0
M  V30 3099 H 293.663 3.30739 2.61131 0
M  V30 3100 H 292.387 2.06749 2.52828 0
M  V30 3101 H 291.046 3.53286 0.978997 0
M  V30 3102 H 290.694 3.65862 3.45186 0
M  V30 3103 H 290.394 5.23265 2.67335 0
M  V30 3104 H 291.918 4.95771 3.56432 0
M  V30 3105 H 293.332 5.56549 1.37571 0
M  V30 3106 H 291.729 5.96114 0.690551 0
M  V30 3107 H 292.799 4.84574 -0.177782 0
M  V30 3108 N 294.142 -0.090211 1.57342 0
M  V30 3109 C 295.052 -1.12735 2.05738 0
M  V30 3110 C 296.068 -1.43557 0.983231 0
M  V30 3111 O 297.244 -1.54101 1.29672 0
M  V30 3112 C 294.309 -2.42659 2.47624 0
M  V30 3113 C 293.37 -2.18975 3.69254 0
M  V30 3114 C 292.603 -3.42704 4.09133 0
M  V30 3115 O 292.826 -4.51127 3.49057 0
M  V30 3116 O 291.76 -3.32003 5.02053 0
M  V30 3117 H 295.586 -0.746279 2.94388 0
M  V30 3118 H 293.171 -0.303064 1.46294 0
M  V30 3119 H 295.053 -3.19155 2.7517 0
M  V30 3120 H 293.728 -2.80182 1.62109 0
M  V30 3121 H 292.635 -1.40244 3.46818 0
M  V30 3122 H 293.968 -1.86342 4.55563 0
M  V30 3123 N 295.62 -1.53406 -0.361157 0
M  V30 3124 C 296.845 -1.74024 -1.12829 0
M  V30 3125 C 297.27 -0.470069 -1.82132 0
M  V30 3126 O 296.628 0.57619 -1.719 0
M  V30 3127 C 296.676 -2.90903 -2.13091 0
M  V30 3128 O 295.78 -2.59821 -3.20261 0
M  V30 3129 H 295.121 -0.577804 -0.327168 0
M  V30 3130 H 297.651 -2.00307 -0.41693 0
M  V30 3131 H 297.661 -3.17194 -2.56616 0
M  V30 3132 H 296.336 -3.83034 -1.62042 0
M  V30 3133 H 294.913 -2.44362 -2.81677 0
M  V30 3134 N 297.098 0.621204 -1.44841 0
M  V30 3135 C 298.028 1.74366 -1.55303 0
M  V30 3136 C 299.009 1.65199 -0.405385 0
M  V30 3137 O 300.194 1.83807 -0.626787 0
M  V30 3138 C 297.324 3.12931 -1.50637 0
M  V30 3139 C 296.278 3.36896 -2.63979 0
M  V30 3140 C 295.604 4.75594 -2.44366 0
M  V30 3141 C 296.904 3.28483 -4.06074 0
M  V30 3142 H 298.598 1.65867 -2.49256 0
M  V30 3143 H 296.144 0.796558 -1.19962 0
M  V30 3144 H 298.097 3.9124 -1.56555 0
M  V30 3145 H 296.821 3.22237 -0.532057 0
M  V30 3146 H 295.48 2.60972 -2.57467 0
M  V30 3147 H 295.128 4.81616 -1.45105 0
M  V30 3148 H 294.828 4.92586 -3.20364 0
M  V30 3149 H 296.352 5.5612 -2.52117 0
M  V30 3150 H 297.766 3.96684 -4.13902 0
M  V30 3151 H 296.163 3.57008 -4.82354 0
M  V30 3152 H 297.233 2.26133 -4.28943 0
M  V30 3153 N 298.576 1.31904 0.862503 0
M  V30 3154 C 299.524 1.20125 1.9918 0
M  V30 3155 C 300.518 0.107824 1.69056 0
M  V30 3156 O 301.724 0.270223 1.7796 0
M  V30 3157 H 298.099 0.372148 0.65346 0
M  V30 3158 H 300.07 2.15652 2.06244 0
M  V30 3159 C 298.819 0.933099 3.34946 0
M  V30 3160 H 298.142 1.76664 3.5865 0
M  V30 3161 H 299.582 0.890892 4.14535 0
M  V30 3162 C 298.041 -0.364172 3.34926 0
M  V30 3163 O 298.571 -1.37858 3.77304 0
M  V30 3164 N 296.777 -0.383362 2.8806 0
M  V30 3165 H 296.324 0.442651 2.53768 0
M  V30 3166 H 296.282 -1.25123 2.8843 0
M  V30 3167 N 300.054 -1.07777 1.14986 0
M  V30 3168 C 301.001 -2.14867 0.842672 0
M  V30 3169 C 301.971 -1.6486 -0.202552 0
M  V30 3170 O 303.156 -1.90668 -0.0710568 0
M  V30 3171 C 300.296 -3.43486 0.333363 0
M  V30 3172 C 299.409 -4.07306 1.43965 0
M  V30 3173 C 298.544 -5.23744 0.886914 0
M  V30 3174 C 297.583 -5.79517 1.97043 0
M  V30 3175 N 296.72 -6.87291 1.4344 0
M  V30 3176 H 301.56 -2.40485 1.75986 0
M  V30 3177 H 299.097 -1.1801 0.878179 0
M  V30 3178 H 301.055 -4.17195 0.0198163 0
M  V30 3179 H 299.685 -3.18133 -0.546916 0
M  V30 3180 H 298.737 -3.31293 1.86946 0
M  V30 3181 H 300.049 -4.44771 2.25788 0
M  V30 3182 H 299.203 -6.04419 0.525651 0
M  V30 3183 H 297.942 -4.87685 0.0377957 0
M  V30 3184 H 296.947 -4.97491 2.34057 0
M  V30 3185 H 298.172 -6.17632 2.82325 0
M  V30 3186 H 296.118 -6.5318 0.607567 0
M  V30 3187 H 296.035 -7.23617 2.18895 0
M  V30 3188 H 297.303 -7.71682 1.10124 0
M  V30 3189 N 301.532 -0.945985 -1.26051 0
M  V30 3190 C 302.772 -0.603665 -1.95282 0
M  V30 3191 C 303.136 0.842377 -1.72534 0
M  V30 3192 O 304.337 1.29387 -2.35611 0
M  V30 3193 C 302.608 -0.942292 -3.44754 0
M  V30 3194 S 304.167 -0.711242 -4.32997 0
M  V30 3195 H 300.985 -0.222176 -0.675395 0
M  V30 3196 H 303.587 -1.21832 -1.52896 0
M  V30 3197 H 302.291 -1.99203 -3.58812 0
M  V30 3198 H 301.822 -0.317546 -3.92116 0
M  V30 3199 H 303.837 0.422221 -4.944 0
M  V30 3200 N 303.011 1.40521 -0.713556 0
M  V30 3201 C 303.943 2.29191 -0.0203126 0
M  V30 3202 C 304.956 1.45723 0.725864 0
M  V30 3203 O 306.145 1.69033 0.573581 0
M  V30 3204 C 303.245 3.2395 0.995486 0
M  V30 3205 C 302.418 4.36262 0.315256 0
M  V30 3206 C 301.477 5.11474 1.23616 0
M  V30 3207 O 300.503 5.64606 0.721719 0
M  V30 3208 N 301.705 5.20638 2.56743 0
M  V30 3209 H 304.47 2.89327 -0.781652 0
M  V30 3210 H 302.031 1.51869 -0.561022 0
M  V30 3211 H 304.023 3.71137 1.61368 0
M  V30 3212 H 302.593 2.64995 1.6582 0
M  V30 3213 H 301.813 3.91228 -0.483106 0
M  V30 3214 H 303.101 5.08558 -0.157004 0
M  V30 3215 H 302.499 4.7895 3.01037 0
M  V30 3216 H 301.056 5.71339 3.13712 0
M  V30 3217 N 304.489 0.459591 1.5075 0
M  V30 3218 C 305.738 -0.100971 2.01447 0
M  V30 3219 C 306.051 -1.41816 1.34713 0
M  V30 3220 O 307.257 -2.06299 1.76502 0
M  V30 3221 C 305.713 -0.23047 3.59161 0
M  V30 3222 C 305.321 1.0776 4.34847 0
M  V30 3223 C 307.065 -0.743608 4.17936 0
M  V30 3224 C 304.972 0.91253 5.84317 0
M  V30 3225 H 303.902 -0.0415102 0.752856 0
M  V30 3226 H 306.553 0.592742 1.73663 0
M  V30 3227 H 304.935 -0.987703 3.83485 0
M  V30 3228 H 306.109 1.8449 4.22256 0
M  V30 3229 H 304.424 1.52097 3.87628 0
M  V30 3230 H 307.021 -0.883959 5.27343 0
M  V30 3231 H 307.364 -1.73196 3.78562 0
M  V30 3232 H 307.897 -0.04408 3.97776 0
M  V30 3233 H 304.636 1.87391 6.28144 0
M  V30 3234 H 304.156 0.185422 5.99513 0
M  V30 3235 H 305.835 0.574547 6.44444 0
M  V30 3236 N 305.967 -1.56429 0.191757 0
M  V30 3237 C 307.214 -1.97485 -0.447891 0
M  V30 3238 C 307.542 -1.07852 -1.61859 0
M  V30 3239 O 306.797 -0.116903 -1.95351 0
M  V30 3240 C 307.096 -3.44449 -0.953384 0
M  V30 3241 C 306.762 -4.50781 0.103586 0
M  V30 3242 C 305.424 -4.79584 0.394023 0
M  V30 3243 C 307.776 -5.1471 0.819946 0
M  V30 3244 C 305.104 -5.69607 1.40585 0
M  V30 3245 C 307.456 -6.05827 1.8209 0
M  V30 3246 C 306.12 -6.32987 2.11857 0
M  V30 3247 H 305.39 -0.722648 -0.163895 0
M  V30 3248 H 308.037 -1.89322 0.28802 0
M  V30 3249 H 306.342 -3.49666 -1.76751 0
M  V30 3250 H 308.039 -3.73569 -1.45765 0
M  V30 3251 H 304.629 -4.28394 -0.132951 0
M  V30 3252 H 308.813 -4.92552 0.608789 0
M  V30 3253 H 304.069 -5.88926 1.64243 0
M  V30 3254 H 308.243 -6.54424 2.38123 0
M  V30 3255 H 305.87 -7.02544 2.90407 0
M  V30 3256 N 307.445 0.0818655 -1.57387 0
M  V30 3257 C 308.856 0.634871 -1.75574 0
M  V30 3258 C 309.207 1.78435 -0.815809 0
M  V30 3259 O 308.332 2.164 0.0025366 0
M  V30 3260 C 308.927 1.15845 -3.18379 0
M  V30 3261 C 307.486 1.65741 -3.37945 0
M  V30 3262 C 306.633 0.572549 -2.71325 0
M  V30 3263 H 309.584 -0.144268 -1.58043 0
M  V30 3264 H 309.605 2.02751 -3.21982 0
M  V30 3265 H 309.117 0.321631 -3.86765 0
M  V30 3266 H 307.218 2.51781 -2.74658 0
M  V30 3267 H 307.331 1.74129 -4.46336 0
M  V30 3268 H 305.695 1.01518 -2.33594 0
M  V30 3269 H 306.478 -0.253918 -3.4236 0
M  V30 3270 N 308.923 1.53595 0.353017 0
M  V30 3271 C 310.148 1.7462 1.11904 0
M  V30 3272 C 310.573 0.479721 1.8188 0
M  V30 3273 O 309.931 -0.567066 1.72204 0
M  V30 3274 C 309.979 2.92029 2.11545 0
M  V30 3275 O 309.083 2.61516 3.18878 0
M  V30 3276 H 308.424 0.579531 0.324099 0
M  V30 3277 H 310.954 2.00525 0.406301 0
M  V30 3278 H 310.964 3.18551 2.5493 0
M  V30 3279 H 309.639 3.83888 1.60008 0
M  V30 3280 H 308.216 2.45852 2.80377 0
M  V30 3281 N 310.401 -0.613514 1.45168 0
M  V30 3282 C 311.348 -1.72456 1.53387 0
M  V30 3283 C 312.318 -1.6169 0.380191 0
M  V30 3284 O 313.503 -1.81356 0.592836 0
M  V30 3285 C 310.643 -3.10753 1.50088 0
M  V30 3286 C 309.756 -3.32368 2.75963 0
M  V30 3287 C 308.891 -4.60737 2.64376 0
M  V30 3288 C 307.93 -4.7559 3.85332 0
M  V30 3289 N 307.067 -5.95253 3.72315 0
M  V30 3290 H 311.907 -1.64768 2.48305 0
M  V30 3291 H 309.444 -0.803503 1.23216 0
M  V30 3292 H 311.402 -3.90758 1.46164 0
M  V30 3293 H 310.032 -3.17413 0.587243 0
M  V30 3294 H 309.084 -2.4618 2.89999 0
M  V30 3295 H 310.396 -3.39218 3.65695 0
M  V30 3296 H 309.55 -5.48928 2.58385 0
M  V30 3297 H 308.289 -4.56275 1.72233 0
M  V30 3298 H 307.294 -3.85824 3.91688 0
M  V30 3299 H 308.519 -4.81854 4.78533 0
M  V30 3300 H 306.465 -5.91847 2.82937 0
M  V30 3301 H 306.382 -6.03236 4.55677 0
M  V30 3302 H 307.65 -6.85958 3.70246 0
M  V30 3303 N 311.879 -1.3236 -0.855495 0
M  V30 3304 C 313.29 -1.2056 -1.42556 0
M  V30 3305 C 313.641 0.182209 -1.95352 0
M  V30 3306 O 312.766 1.08088 -1.87472 0
M  V30 3307 C 313.361 -2.1826 -2.59129 0
M  V30 3308 C 311.92 -2.10351 -3.12137 0
M  V30 3309 C 311.067 -2.06674 -1.84882 0
M  V30 3310 H 314.018 -1.442 -0.662727 0
M  V30 3311 H 314.039 -1.78064 -3.36264 0
M  V30 3312 H 313.551 -3.19257 -2.20673 0
M  V30 3313 H 311.652 -1.12599 -3.55179 0
M  V30 3314 H 311.765 -3.00135 -3.73438 0
M  V30 3315 H 310.129 -1.51901 -2.04446 0
M  V30 3316 H 310.912 -3.09451 -1.48643 0
M  V30 3317 N 313.357 1.07166 -1.15556 0
M  V30 3318 C 314.603 1.80065 -0.932984 0
M  V30 3319 C 314.936 1.86586 0.53845 0
M  V30 3320 O 314.211 1.35098 1.39924 0
M  V30 3321 C 314.494 3.25022 -1.55025 0
M  V30 3322 C 314.347 3.26634 -3.09242 0
M  V30 3323 C 315.666 4.22341 -1.2376 0
M  V30 3324 H 312.785 0.653697 -0.340366 0
M  V30 3325 H 315.427 1.25389 -1.4275 0
M  V30 3326 H 313.577 3.71712 -1.12972 0
M  V30 3327 H 315.249 2.88173 -3.60214 0
M  V30 3328 H 313.492 2.65539 -3.43033 0
M  V30 3329 H 314.163 4.28854 -3.47546 0
M  V30 3330 H 316.639 3.8405 -1.60139 0
M  V30 3331 H 315.515 5.22053 -1.69564 0
M  V30 3332 H 315.776 4.41828 -0.154938 0
M  V30 3333 N 314.835 0.952656 1.25548 0
M  V30 3334 C 316.06 0.623025 1.97821 0
M  V30 3335 C 316.485 -0.7976 1.70352 0
M  V30 3336 O 315.843 -1.53905 0.958283 0
M  V30 3337 C 315.891 0.885532 3.49558 0
M  V30 3338 O 314.995 -0.0366641 4.12384 0
M  V30 3339 H 314.336 0.237082 0.620232 0
M  V30 3340 H 316.866 1.27871 1.59719 0
M  V30 3341 H 316.876 0.811009 3.99858 0
M  V30 3342 H 315.551 1.92094 3.6888 0
M  V30 3343 H 314.128 0.0898954 3.72792 0
M  V30 3344 N 316.313 -1.40141 0.720998 0
M  V30 3345 C 317.729 -1.54632 0.395113 0
M  V30 3346 C 317.929 -1.69115 -1.09555 0
M  V30 3347 O 316.985 -1.68377 -1.88163 0
M  V30 3348 C 318.298 -2.77177 1.1659 0
M  V30 3349 C 319.846 -2.91 1.15274 0
M  V30 3350 C 320.321 -4.16465 1.90579 0
M  V30 3351 N 321.812 -4.23476 1.87675 0
M  V30 3352 C 322.547 -5.19475 2.42762 0
M  V30 3353 N 322.043 -6.21348 3.06428 0
M  V30 3354 N 323.836 -5.11592 2.32874 0
M  V30 3355 H 315.987 -1.28986 1.68749 0
M  V30 3356 H 318.25 -0.62412 0.713567 0
M  V30 3357 H 317.956 -2.72771 2.22011 0
M  V30 3358 H 317.83 -3.69442 0.76108 0
M  V30 3359 H 320.217 -2.94907 0.106702 0
M  V30 3360 H 320.298 -1.99838 1.59682 0
M  V30 3361 H 319.942 -4.1332 2.95176 0
M  V30 3362 H 319.872 -5.06646 1.43587 0
M  V30 3363 H 322.363 -3.50497 1.41281 0
M  V30 3364 H 322.676 -6.91034 3.45965 0
M  V30 3365 H 321.021 -6.21777 3.10514 0
M  V30 3366 H 324.212 -4.30936 1.82789 0
M  V30 3367 H 324.385 -5.86233 2.76106 0
M  V30 3368 N 317.792 -0.46758 -1.50504 0
M  V30 3369 C 318.702 0.33382 -2.32213 0
M  V30 3370 C 319.718 0.999323 -1.42441 0
M  V30 3371 O 320.894 0.988068 -1.75497 0
M  V30 3372 C 317.959 1.4035 -3.17022 0
M  V30 3373 C 317.02 0.754961 -4.2261 0
M  V30 3374 C 316.253 1.77367 -5.03365 0
M  V30 3375 O 316.476 2.99976 -4.8515 0
M  V30 3376 O 315.41 1.34744 -5.86624 0
M  V30 3377 H 319.236 -0.334067 -3.01857 0
M  V30 3378 H 316.821 -0.229496 -1.47627 0
M  V30 3379 H 318.703 2.02318 -3.69656 0
M  V30 3380 H 317.378 2.05492 -2.5011 0
M  V30 3381 H 316.285 0.0964244 -3.73976 0
M  V30 3382 H 317.618 0.146545 -4.91982 0
M  V30 3383 N 319.27 1.56325 -0.20005 0
M  V30 3384 C 320.547 1.89484 0.48529 0
M  V30 3385 C 320.927 1.1143 1.79294 0
M  V30 3386 O 320.275 0.216919 2.27468 0
M  V30 3387 C 320.485 3.41923 0.699243 0
M  V30 3388 C 321.833 4.12256 1.01638 0
M  V30 3389 O 322.857 3.47402 0.786792 0
M  V30 3390 O 321.716 5.26887 1.45095 0
M  V30 3391 H 318.81 0.787144 0.253639 0
M  V30 3392 H 321.356 1.67985 -0.240633 0
M  V30 3393 H 320.128 3.90658 -0.224008 0
M  V30 3394 H 319.751 3.69131 1.47744 0
M  V30 3395 N 320.748 -0.0735177 1.57428 0
M  V30 3396 C 321.68 -1.11423 2.00294 0
M  V30 3397 C 322.693 -1.35084 0.908637 0
M  V30 3398 O 323.882 -1.33355 1.18654 0
M  V30 3399 C 320.982 -2.46548 2.32523 0
M  V30 3400 C 320.155 -2.42867 3.63778 0
M  V30 3401 C 319.214 -3.60087 3.83697 0
M  V30 3402 O 318.24 -3.41595 4.55304 0
M  V30 3403 N 319.442 -4.80372 3.25919 0
M  V30 3404 H 322.207 -0.749206 2.90184 0
M  V30 3405 H 319.768 -0.262195 1.59763 0
M  V30 3406 H 321.76 -3.23607 2.43024 0
M  V30 3407 H 320.33 -2.75059 1.48531 0
M  V30 3408 H 319.55 -1.51206 3.64047 0
M  V30 3409 H 320.838 -2.37506 4.49965 0
M  V30 3410 H 320.236 -4.983 2.67795 0
M  V30 3411 H 318.793 -5.54948 3.41871 0
M  V30 3412 N 322.226 -1.5378 -0.344866 0
M  V30 3413 C 323.466 -1.72677 -1.09371 0
M  V30 3414 C 323.83 -0.479084 -1.85927 0
M  V30 3415 O 325.031 -0.54505 -2.63216 0
M  V30 3416 C 323.302 -2.95457 -2.01097 0
M  V30 3417 S 324.861 -3.35158 -2.83222 0
M  V30 3418 H 321.679 -0.607402 -0.369573 0
M  V30 3419 H 324.281 -1.91922 -0.372307 0
M  V30 3420 H 322.985 -3.84437 -1.43655 0
M  V30 3421 H 322.516 -2.78673 -2.77678 0
M  V30 3422 H 324.531 -2.88789 -4.03504 0
M  V30 3423 N 323.704 0.605807 -1.45491 0
M  V30 3424 C 324.929 1.39625 -1.53361 0
M  V30 3425 C 325.354 1.87351 -0.167645 0
M  V30 3426 O 324.712 1.60243 0.848051 0
M  V30 3427 C 324.76 2.57559 -2.5238 0
M  V30 3428 O 323.864 3.58248 -2.04285 0
M  V30 3429 H 323.205 0.416771 -0.516912 0
M  V30 3430 H 325.735 0.737103 -1.90861 0
M  V30 3431 H 325.745 3.0478 -2.71244 0
M  V30 3432 H 324.42 2.22171 -3.51586 0
M  V30 3433 H 322.997 3.17664 -1.95305 0
M  V30 3434 N 325.182 1.32811 0.848464 0
M  V30 3435 C 326.412 1.26556 1.63301 0
M  V30 3436 C 326.82 -0.1676 1.88456 0
M  V30 3437 O 326.163 -1.11713 1.45828 0
M  V30 3438 C 326.225 1.96202 3.01239 0
M  V30 3439 C 325.889 3.45528 2.99098 0
M  V30 3440 C 326.886 4.40903 2.75501 0
M  V30 3441 C 324.571 3.87558 3.19537 0
M  V30 3442 C 326.565 5.76282 2.72356 0
M  V30 3443 C 324.252 5.23044 3.16019 0
M  V30 3444 C 325.25 6.17217 2.92458 0
M  V30 3445 O 324.938 7.50223 2.88825 0
M  V30 3446 H 324.67 0.43771 0.515156 0
M  V30 3447 H 327.224 1.7559 1.0657 0
M  V30 3448 H 325.454 1.41746 3.59785 0
M  V30 3449 H 327.143 1.83573 3.62016 0
M  V30 3450 H 327.909 4.09756 2.5947 0
M  V30 3451 H 323.788 3.14674 3.369 0
M  V30 3452 H 327.332 6.4976 2.53886 0
M  V30 3453 H 323.229 5.53818 3.31596 0
M  V30 3454 H 323.997 7.59657 3.04735 0
M  V30 3455 N 326.66 -1.06551 1.16123 0
M  V30 3456 C 327.607 -2.13961 0.865414 0
M  V30 3457 C 328.577 -1.65066 -0.185055 0
M  V30 3458 O 329.762 -1.90732 -0.05083 0
M  V30 3459 C 326.902 -3.43113 0.369776 0
M  V30 3460 C 326.015 -4.05756 1.48276 0
M  V30 3461 C 325.15 -5.22773 0.942414 0
M  V30 3462 C 324.189 -5.77395 2.03179 0
M  V30 3463 N 323.326 -6.85731 1.50721 0
M  V30 3464 H 328.166 -2.38605 1.78527 0
M  V30 3465 H 325.703 -1.17072 0.890646 0
M  V30 3466 H 327.661 -4.17151 0.0640643 0
M  V30 3467 H 326.291 -3.18695 -0.513143 0
M  V30 3468 H 325.343 -3.29292 1.9045 0
M  V30 3469 H 326.655 -4.42351 2.30493 0
M  V30 3470 H 325.809 -6.03827 0.589729 0
M  V30 3471 H 324.548 -4.87618 0.0895191 0
M  V30 3472 H 323.553 -4.94981 2.3932 0
M  V30 3473 H 324.778 -6.14603 2.8886 0
M  V30 3474 H 322.724 -6.52499 0.676811 0
M  V30 3475 H 322.641 -7.21254 2.26557 0
M  V30 3476 H 323.909 -7.7047 1.18303 0
M  V30 3477 N 328.138 -0.959301 -1.25041 0
M  V30 3478 C 329.384 -0.627096 -1.93492 0
M  V30 3479 C 329.739 0.827484 -1.73696 0
M  V30 3480 O 329.032 1.58651 -1.07427 0
M  V30 3481 C 329.226 -0.927136 -3.45165 0
M  V30 3482 C 329.055 -2.40933 -3.79712 0
M  V30 3483 C 327.825 -3.0677 -4.01522 0
M  V30 3484 C 330.023 -3.38894 -3.86853 0
M  V30 3485 N 328.005 -4.44815 -4.231 0
M  V30 3486 C 329.376 -4.62263 -4.13174 0
M  V30 3487 C 331.431 -3.33668 -3.69554 0
M  V30 3488 C 330.134 -5.81052 -4.23995 0
M  V30 3489 C 332.16 -4.518 -3.81616 0
M  V30 3490 C 331.522 -5.73957 -4.08354 0
M  V30 3491 H 327.621 -0.280166 -0.73009 0
M  V30 3492 H 330.205 -1.23244 -1.50729 0
M  V30 3493 H 328.376 -0.350685 -3.86814 0
M  V30 3494 H 330.108 -0.554361 -4.00885 0
M  V30 3495 H 326.863 -2.57327 -3.97593 0
M  V30 3496 H 327.287 -5.16319 -4.37885 0
M  V30 3497 H 331.929 -2.40268 -3.47895 0
M  V30 3498 H 329.647 -6.74888 -4.44468 0
M  V30 3499 H 333.233 -4.49309 -3.69612 0
M  V30 3500 H 332.113 -6.6384 -4.17475 0
M  V30 3501 N 329.616 1.39756 -0.72842 0
M  V30 3502 C 330.862 2.01425 -0.282761 0
M  V30 3503 C 331.217 1.56754 1.11561 0
M  V30 3504 O 330.51 0.783482 1.74849 0
M  V30 3505 C 330.704 3.56002 -0.315776 0
M  V30 3506 C 330.533 4.1568 -1.71582 0
M  V30 3507 C 329.303 4.48555 -2.32651 0
M  V30 3508 C 331.501 4.39667 -2.66829 0
M  V30 3509 N 329.483 4.93698 -3.64877 0
M  V30 3510 C 330.854 4.86942 -3.8378 0
M  V30 3511 C 332.909 4.21724 -2.64675 0
M  V30 3512 C 331.612 5.18158 -4.98904 0
M  V30 3513 C 333.638 4.54049 -3.78937 0
M  V30 3514 C 333 5.01525 -4.94623 0
M  V30 3515 H 329.099 0.76756 -0.149583 0
M  V30 3516 H 331.683 1.69784 -0.952976 0
M  V30 3517 H 329.854 3.87046 0.324057 0
M  V30 3518 H 331.586 4.0443 0.147808 0
M  V30 3519 H 328.341 4.36128 -1.84633 0
M  V30 3520 H 328.765 5.20635 -4.32744 0
M  V30 3521 H 333.407 3.84228 -1.76433 0
M  V30 3522 H 331.125 5.54562 -5.87781 0
M  V30 3523 H 334.711 4.41795 -3.78561 0
M  V30 3524 H 333.591 5.26065 -5.81572 0
M  V30 3525 N 331.094 0.475555 1.50254 0
M  V30 3526 C 332.026 -0.352649 2.26471 0
M  V30 3527 C 333.039 -0.953165 1.3198 0
M  V30 3528 O 334.228 -0.840815 1.57457 0
M  V30 3529 C 331.328 -1.50902 3.0345 0
M  V30 3530 C 330.501 -1.02047 4.25329 0
M  V30 3531 C 329.56 -2.05142 4.84565 0
M  V30 3532 O 328.586 -1.63023 5.45355 0
M  V30 3533 N 329.788 -3.37987 4.71959 0
M  V30 3534 H 332.553 0.300767 2.98187 0
M  V30 3535 H 330.114 0.306598 1.5897 0
M  V30 3536 H 332.106 -2.19572 3.39956 0
M  V30 3537 H 330.676 -2.06705 2.34504 0
M  V30 3538 H 329.896 -0.159507 3.93877 0
M  V30 3539 H 331.184 -0.672061 5.04342 0
M  V30 3540 H 330.582 -3.74913 4.23623 0
M  V30 3541 H 329.139 -4.02443 5.12721 0
M  V30 3542 N 332.573 -1.56217 0.208337 0
M  V30 3543 C 333.52 -2.19699 -0.707192 0
M  V30 3544 C 334.49 -1.14836 -1.20008 0
M  V30 3545 O 335.675 -1.4314 -1.26157 0
M  V30 3546 C 332.815 -2.87061 -1.91546 0
M  V30 3547 C 331.928 -4.06483 -1.46271 0
M  V30 3548 C 331.063 -4.61665 -2.62752 0
M  V30 3549 C 330.102 -5.73417 -2.14147 0
M  V30 3550 N 329.239 -6.22948 -3.23853 0
M  V30 3551 H 334.079 -2.97575 -0.159111 0
M  V30 3552 H 331.616 -1.46948 -0.0667874 0
M  V30 3553 H 333.574 -3.24294 -2.62468 0
M  V30 3554 H 332.204 -2.11725 -2.43664 0
M  V30 3555 H 331.256 -3.74825 -0.648886 0
M  V30 3556 H 332.568 -4.87271 -1.06622 0
M  V30 3557 H 331.722 -5.01272 -3.41776 0
M  V30 3558 H 330.461 -3.80013 -3.05682 0
M  V30 3559 H 329.466 -5.33326 -1.33581 0
M  V30 3560 H 330.691 -6.56897 -1.72232 0
M  V30 3561 H 328.637 -5.44213 -3.6629 0
M  V30 3562 H 328.554 -6.98823 -2.88414 0
M  V30 3563 H 329.822 -6.6721 -4.03052 0
M  V30 3564 N 334.051 0.0651679 -1.57465 0
M  V30 3565 C 335.281 0.774683 -1.91526 0
M  V30 3566 C 335.689 1.71305 -0.803196 0
M  V30 3567 O 335.032 1.82231 0.231881 0
M  V30 3568 C 335.094 1.61645 -3.21109 0
M  V30 3569 C 334.758 0.846753 -4.49087 0
M  V30 3570 C 335.755 0.163024 -5.19644 0
M  V30 3571 C 333.44 0.811966 -4.95694 0
M  V30 3572 C 335.434 -0.54519 -6.35064 0
M  V30 3573 C 333.121 0.0999836 -6.11018 0
M  V30 3574 C 334.119 -0.577388 -6.80555 0
M  V30 3575 O 333.807 -1.27789 -7.93678 0
M  V30 3576 H 333.539 0.225031 -0.637446 0
M  V30 3577 H 336.093 0.0377134 -2.05365 0
M  V30 3578 H 334.323 2.39638 -3.03497 0
M  V30 3579 H 336.012 2.20525 -3.40769 0
M  V30 3580 H 336.778 0.181163 -4.84662 0
M  V30 3581 H 332.657 1.32867 -4.41438 0
M  V30 3582 H 336.201 -1.07446 -6.89276 0
M  V30 3583 H 332.098 0.0797945 -6.45451 0
M  V30 3584 H 332.866 -1.18784 -8.09835 0
M  V30 3585 N 335.529 1.53961 0.336706 0
M  V30 3586 C 336.461 1.78751 1.4346 0
M  V30 3587 C 337.474 0.669019 1.48418 0
M  V30 3588 O 338.663 0.945884 1.51378 0
M  V30 3589 C 335.763 1.87844 2.82078 0
M  V30 3590 C 334.936 3.17854 3.00479 0
M  V30 3591 C 333.995 3.17816 4.19379 0
M  V30 3592 O 333.021 3.91511 4.13168 0
M  V30 3593 N 334.223 2.40669 5.2826 0
M  V30 3594 H 336.988 2.73493 1.22563 0
M  V30 3595 H 334.549 1.53096 0.526625 0
M  V30 3596 H 336.541 1.85261 3.59806 0
M  V30 3597 H 335.111 1.00257 2.96086 0
M  V30 3598 H 334.331 3.33504 2.10163 0
M  V30 3599 H 335.619 4.03718 3.0966 0
M  V30 3600 H 335.017 1.8036 5.36178 0
M  V30 3601 H 333.574 2.43877 6.04456 0
M  V30 3602 N 337.007 -0.598083 1.45811 0
M  V30 3603 C 337.954 -1.7082 1.55207 0
M  V30 3604 C 338.924 -1.61278 0.39732 0
M  V30 3605 O 340.109 -1.80717 0.612038 0
M  V30 3606 C 337.249 -3.09144 1.53376 0
M  V30 3607 C 336.362 -3.29423 2.79472 0
M  V30 3608 C 335.497 -4.57907 2.69248 0
M  V30 3609 C 334.536 -4.71476 3.90354 0
M  V30 3610 N 333.673 -5.9127 3.78608 0
M  V30 3611 H 338.513 -1.62125 2.50039 0
M  V30 3612 H 336.05 -0.790389 1.24062 0
M  V30 3613 H 338.008 -3.89186 1.50301 0
M  V30 3614 H 336.638 -3.16773 0.620876 0
M  V30 3615 H 335.69 -2.43091 2.92594 0
M  V30 3616 H 337.002 -3.3532 3.69272 0
M  V30 3617 H 336.156 -5.46157 2.64192 0
M  V30 3618 H 334.895 -4.54423 1.77063 0
M  V30 3619 H 333.9 -3.81648 3.95759 0
M  V30 3620 H 335.125 -4.76751 4.83617 0
M  V30 3621 H 333.071 -5.88813 2.89199 0
M  V30 3622 H 332.988 -5.98369 4.6205 0
M  V30 3623 H 334.256 -6.81992 3.77501 0
M  V30 3624 N 338.485 -1.33259 -0.841409 0
M  V30 3625 C 339.901 -1.12538 -1.13169 0
M  V30 3626 C 340.101 0.0854037 -2.01319 0
M  V30 3627 O 339.157 0.766417 -2.40587 0
M  V30 3628 C 340.47 -2.41156 -1.79623 0
M  V30 3629 C 342.018 -2.47038 -1.922 0
M  V30 3630 C 342.493 -3.7561 -2.6207 0
M  V30 3631 N 343.984 -3.76667 -2.69585 0
M  V30 3632 C 344.719 -4.72861 -3.2433 0
M  V30 3633 N 344.215 -5.79428 -3.79783 0
M  V30 3634 N 346.008 -4.6034 -3.22558 0
M  V30 3635 H 338.159 -2.10868 -0.254676 0
M  V30 3636 H 340.422 -0.931615 -0.175493 0
M  V30 3637 H 340.128 -3.29747 -1.22311 0
M  V30 3638 H 340.002 -2.53114 -2.79666 0
M  V30 3639 H 342.389 -1.58898 -2.48667 0
M  V30 3640 H 342.47 -2.39022 -0.911148 0
M  V30 3641 H 342.114 -4.64131 -2.06263 0
M  V30 3642 H 342.044 -3.80902 -3.63622 0
M  V30 3643 H 344.535 -2.99648 -2.30259 0
M  V30 3644 H 344.848 -6.48867 -4.19752 0
M  V30 3645 H 343.193 -5.83166 -3.78078 0
M  V30 3646 H 346.384 -3.76244 -2.78492 0
M  V30 3647 H 346.557 -5.35478 -3.64921 0
M  V30 3648 N 339.963 1.05934 -1.16686 0
M  V30 3649 C 340.91 2.13499 -0.876748 0
M  V30 3650 C 341.88 1.65162 0.176299 0
M  V30 3651 O 343.065 1.90757 0.0407143 0
M  V30 3652 C 340.205 3.42912 -0.387967 0
M  V30 3653 C 339.318 4.04964 -1.50426 0
M  V30 3654 C 338.453 5.22266 -0.970125 0
M  V30 3655 C 337.492 5.76309 -2.06238 0
M  V30 3656 N 336.629 6.84922 -1.54356 0
M  V30 3657 H 341.469 2.37654 -1.7979 0
M  V30 3658 H 339.006 1.16598 -0.896843 0
M  V30 3659 H 340.964 4.17111 -0.086186 0
M  V30 3660 H 339.594 3.18963 0.496235 0
M  V30 3661 H 338.646 3.28277 -1.92193 0
M  V30 3662 H 339.958 4.41122 -2.32836 0
M  V30 3663 H 339.112 6.03506 -0.621743 0
M  V30 3664 H 337.851 4.87564 -0.115377 0
M  V30 3665 H 336.856 4.93704 -2.41942 0
M  V30 3666 H 338.081 6.13062 -2.92115 0
M  V30 3667 H 336.027 6.52131 -0.711406 0
M  V30 3668 H 335.944 7.20043 -2.30379 0
M  V30 3669 H 337.212 7.69832 -1.22387 0
M  V30 3670 N 341.441 0.965919 1.2453 0
M  V30 3671 C 342.688 0.626831 1.92554 0
M  V30 3672 C 343.016 -0.837739 1.75534 0
M  V30 3673 O 342.271 -1.61793 1.10098 0
M  V30 3674 C 342.57 0.945428 3.44669 0
M  V30 3675 C 342.236 2.39785 3.81856 0
M  V30 3676 C 340.898 2.79483 3.91718 0
M  V30 3677 C 343.25 3.34055 4.00071 0
M  V30 3678 C 340.578 4.12496 4.1721 0
M  V30 3679 C 342.93 4.66694 4.27059 0
M  V30 3680 C 341.594 5.06172 4.3514 0
M  V30 3681 H 340.864 0.229374 0.704605 0
M  V30 3682 H 343.511 1.21707 1.4785 0
M  V30 3683 H 341.816 0.272926 3.90848 0
M  V30 3684 H 343.513 0.661484 3.95507 0
M  V30 3685 H 340.103 2.08003 3.74743 0
M  V30 3686 H 344.287 3.04571 3.91855 0
M  V30 3687 H 339.543 4.42709 4.21685 0
M  V30 3688 H 343.717 5.3971 4.40097 0
M  V30 3689 H 341.344 6.09262 4.54646 0
M  V30 3690 N 342.919 -1.39368 0.735821 0
M  V30 3691 C 343.869 -2.27885 0.0724287 0
M  V30 3692 C 344.853 -1.44301 -0.711756 0
M  V30 3693 O 346.045 -1.67206 -0.58063 0
M  V30 3694 C 343.174 -3.33029 -0.833454 0
M  V30 3695 C 342.26 -4.24078 -0.0433749 0
M  V30 3696 N 342.651 -4.96138 0.983903 0
M  V30 3697 C 340.949 -4.45164 -0.272905 0
M  V30 3698 C 341.65 -5.63069 1.4604 0
M  V30 3699 N 340.626 -5.37991 0.778857 0
M  V30 3700 H 344.428 -2.81052 0.859467 0
M  V30 3701 H 341.942 -1.5206 0.570227 0
M  V30 3702 H 343.939 -3.95311 -1.32419 0
M  V30 3703 H 342.599 -2.81421 -1.61964 0
M  V30 3704 H 343.61 -4.9958 1.36528 0
M  V30 3705 H 340.287 -4.04497 -1.03383 0
M  V30 3706 H 341.677 -6.30755 2.31511 0
M  V30 3707 N 344.397 -0.483516 -1.5 0
M  V30 3708 C 345.637 0.0657469 -2.04294 0
M  V30 3709 C 346.001 1.35869 -1.35659 0
M  V30 3710 O 347.202 1.99111 -1.80578 0
M  V30 3711 C 345.473 0.232758 -3.56641 0
M  V30 3712 S 347.032 0.738788 -4.32536 0
M  V30 3713 H 343.85 0.0100755 -0.710929 0
M  V30 3714 H 346.452 -0.653494 -1.84254 0
M  V30 3715 H 345.156 -0.713847 -4.04144 0
M  V30 3716 H 344.687 0.977751 -3.81056 0
M  V30 3717 H 346.702 2.01048 -4.53645 0
M  V30 3718 N 345.875 1.56104 -0.216619 0
M  V30 3719 C 346.838 2.18819 0.681962 0
M  V30 3720 C 347.838 1.14866 1.12528 0
M  V30 3721 O 349.028 1.40128 1.03488 0
M  V30 3722 C 346.16 2.80756 1.93362 0
M  V30 3723 H 347.353 2.99595 0.135254 0
M  V30 3724 H 344.906 1.56265 0.0330003 0
M  V30 3725 H 345.641 2.03837 2.52232 0
M  V30 3726 H 345.426 3.56876 1.62426 0
M  V30 3727 H 346.916 3.28844 2.57393 0
M  V30 3728 N 347.353 -0.0568162 1.57498 0
M  V30 3729 C 348.301 -1.08452 2.05769 0
M  V30 3730 C 349.295 -1.39164 0.965903 0
M  V30 3731 O 350.501 -1.38395 1.15095 0
M  V30 3732 H 346.876 -0.367148 0.656282 0
M  V30 3733 H 348.847 -0.651368 2.91204 0
M  V30 3734 C 347.596 -2.38543 2.52968 0
M  V30 3735 H 346.919 -2.15765 3.36579 0
M  V30 3736 H 348.359 -3.08863 2.90481 0
M  V30 3737 C 346.818 -3.05562 1.41893 0
M  V30 3738 O 347.348 -3.94262 0.769442 0
M  V30 3739 N 345.554 -2.6643 1.16032 0
M  V30 3740 H 345.101 -1.94387 1.6903 0
M  V30 3741 H 345.059 -3.11593 0.419219 0
M  V30 3742 N 348.832 -1.54138 -0.328536 0
M  V30 3743 C 349.762 -1.86167 -1.40939 0
M  V30 3744 C 350.743 -0.718044 -1.54202 0
M  V30 3745 O 351.928 -0.971328 -1.68163 0
M  V30 3746 C 349.058 -2.08461 -2.77779 0
M  V30 3747 C 348.012 -3.24299 -2.7931 0
M  V30 3748 C 347.338 -3.31955 -4.19178 0
M  V30 3749 C 348.638 -4.62065 -2.43502 0
M  V30 3750 H 350.332 -2.76689 -1.14383 0
M  V30 3751 H 347.878 -1.33132 -0.548806 0
M  V30 3752 H 349.831 -2.29453 -3.53454 0
M  V30 3753 H 348.555 -1.14684 -3.05802 0
M  V30 3754 H 347.214 -3.03187 -2.0609 0
M  V30 3755 H 346.862 -2.35745 -4.44335 0
M  V30 3756 H 346.562 -4.09805 -4.2111 0
M  V30 3757 H 348.086 -3.55175 -4.96672 0
M  V30 3758 H 349.5 -4.8297 -3.08889 0
M  V30 3759 H 347.897 -5.42429 -2.56693 0
M  V30 3760 H 348.967 -4.64652 -1.38659 0
M  V30 3761 N 350.31 0.590341 -1.46126 0
M  V30 3762 C 351.538 1.37504 -1.54597 0
M  V30 3763 C 351.953 1.87897 -0.184447 0
M  V30 3764 O 351.31 1.63192 0.816984 0
M  V30 3765 C 351.361 2.56779 -2.54454 0
M  V30 3766 O 351.082 2.08476 -3.85317 0
M  V30 3767 C 352.583 3.49427 -2.72792 0
M  V30 3768 H 349.803 0.420325 -0.523037 0
M  V30 3769 H 352.347 0.718383 -1.91467 0
M  V30 3770 H 350.502 3.1845 -2.20609 0
M  V30 3771 H 350.916 2.86097 -4.396 0
M  V30 3772 H 352.39 4.29619 -3.466 0
M  V30 3773 H 352.867 4.00876 -1.79429 0
M  V30 3774 H 353.473 2.93598 -3.07702 0
M  V30 3775 N 351.788 1.33704 0.83433 0
M  V30 3776 C 353.013 1.28615 1.62705 0
M  V30 3777 C 353.438 -0.139242 1.87584 0
M  V30 3778 O 352.796 -1.09734 1.4432 0
M  V30 3779 C 352.844 2.07139 2.95171 0
M  V30 3780 O 351.948 1.4331 3.86699 0
M  V30 3781 H 351.289 0.44226 0.49528 0
M  V30 3782 H 353.819 1.76335 1.03766 0
M  V30 3783 H 353.829 2.18073 3.44831 0
M  V30 3784 H 352.504 3.10779 2.76386 0
M  V30 3785 H 351.081 1.4105 3.45195 0
M  V30 3786 N 353.266 -1.05314 1.17247 0
M  V30 3787 C 354.512 -1.78699 0.971513 0
M  V30 3788 C 354.867 -1.85932 -0.494692 0
M  V30 3789 O 354.16 -1.34716 -1.36243 0
M  V30 3790 C 354.354 -3.2229 1.54479 0
M  V30 3791 C 354.183 -3.29052 3.06521 0
M  V30 3792 C 352.953 -3.3841 3.75242 0
M  V30 3793 C 355.151 -3.18095 4.04129 0
M  V30 3794 N 353.133 -3.34289 5.14902 0
M  V30 3795 C 354.504 -3.21331 5.30232 0
M  V30 3796 C 356.559 -3.02049 3.95817 0
M  V30 3797 C 355.262 -3.10169 6.4899 0
M  V30 3798 C 357.288 -2.92228 5.14156 0
M  V30 3799 C 356.65 -2.96096 6.39145 0
M  V30 3800 H 352.749 -0.66628 0.409383 0
M  V30 3801 H 355.333 -1.25553 1.4881 0
M  V30 3802 H 353.504 -3.7381 1.05455 0
M  V30 3803 H 355.236 -3.83905 1.28059 0
M  V30 3804 H 351.991 -3.43621 3.25917 0
M  V30 3805 H 352.415 -3.35702 5.87906 0
M  V30 3806 H 357.057 -2.97897 3.00029 0
M  V30 3807 H 354.775 -3.13076 7.44989 0
M  V30 3808 H 358.361 -2.80885 5.09505 0
M  V30 3809 H 357.241 -2.88568 7.29176 0
M  V30 3810 N 354.744 -0.972509 -1.24016 0
M  V30 3811 C 356.155 -0.67517 -1.74064 0
M  V30 3812 C 356.506 0.808939 -1.78747 0
M  V30 3813 O 355.631 1.63286 -1.42009 0
M  V30 3814 C 356.226 -1.21889 -3.16115 0
M  V30 3815 C 354.785 -0.971358 -3.6365 0
M  V30 3816 C 353.932 -1.35134 -2.42145 0
M  V30 3817 H 356.883 -1.14727 -1.09651 0
M  V30 3818 H 356.904 -0.587489 -3.75937 0
M  V30 3819 H 356.416 -2.29906 -3.12674 0
M  V30 3820 H 354.517 0.0930686 -3.72484 0
M  V30 3821 H 354.63 -1.62039 -4.50866 0
M  V30 3822 H 352.994 -0.769751 -2.4279 0
M  V30 3823 H 353.777 -2.4411 -2.41381 0
M  V30 3824 N 356.222 1.38976 -0.743202 0
M  V30 3825 C 357.638 1.53984 -0.419664 0
M  V30 3826 C 357.838 1.70837 1.0685 0
M  V30 3827 O 356.894 1.7135 1.8546 0
M  V30 3828 C 358.207 2.75287 -1.20985 0
M  V30 3829 C 359.755 2.89129 -1.19889 0
M  V30 3830 C 360.23 4.13381 -1.97181 0
M  V30 3831 N 361.721 4.20437 -1.94389 0
M  V30 3832 C 362.456 5.15547 -2.50996 0
M  V30 3833 N 361.952 6.16395 -3.16274 0
M  V30 3834 N 363.745 5.07822 -2.40984 0
M  V30 3835 H 355.896 1.26285 -1.7078 0
M  V30 3836 H 358.159 0.612689 -0.723406 0
M  V30 3837 H 357.865 2.69204 -2.26323 0
M  V30 3838 H 357.739 3.68184 -0.819759 0
M  V30 3839 H 360.126 2.947 -0.153606 0
M  V30 3840 H 360.207 1.97272 -1.62841 0
M  V30 3841 H 359.851 4.08572 -3.01714 0
M  V30 3842 H 359.781 5.04298 -1.51629 0
M  V30 3843 H 362.272 3.48205 -1.46839 0
M  V30 3844 H 362.585 6.85443 -3.56915 0
M  V30 3845 H 360.93 6.16758 -3.20367 0
M  V30 3846 H 364.121 4.27973 -1.89622 0
M  V30 3847 H 364.294 5.81767 -2.85397 0
M  V30 3848 N 357.7 0.491464 1.49741 0
M  V30 3849 C 358.946 -0.0485431 2.03342 0
M  V30 3850 C 359.301 -1.35566 1.36527 0
M  V30 3851 O 358.594 -1.85262 0.488729 0
M  V30 3852 C 358.788 -0.267329 3.56399 0
M  V30 3853 C 358.617 1.01703 4.38049 0
M  V30 3854 C 357.387 1.56614 4.80417 0
M  V30 3855 C 359.585 1.91782 4.77204 0
M  V30 3856 N 357.567 2.7974 5.4646 0
M  V30 3857 C 358.938 2.99489 5.42868 0
M  V30 3858 C 360.993 1.92575 4.5915 0
M  V30 3859 C 359.696 4.08005 5.92389 0
M  V30 3860 C 361.722 3.0006 5.09626 0
M  V30 3861 C 361.084 4.06485 5.75282 0
M  V30 3862 H 357.183 0.0227779 0.781668 0
M  V30 3863 H 359.767 0.664204 1.8302 0
M  V30 3864 H 357.938 -0.949126 3.76625 0
M  V30 3865 H 359.67 -0.803492 3.96644 0
M  V30 3866 H 356.425 1.11256 4.60347 0
M  V30 3867 H 356.849 3.42323 5.84075 0
M  V30 3868 H 361.491 1.11605 4.07804 0
M  V30 3869 H 359.209 4.89779 6.42761 0
M  V30 3870 H 362.795 3.01681 4.97473 0
M  V30 3871 H 361.675 4.88287 6.13633 0
M  V30 3872 N 359.178 -1.55987 0.224894 0
M  V30 3873 C 360.108 -2.23426 -0.678457 0
M  V30 3874 C 361.089 -1.20709 -1.19847 0
M  V30 3875 O 362.274 -1.49304 -1.24186 0
M  V30 3876 C 359.404 -2.91676 -1.88527 0
M  V30 3877 C 358.358 -4.00893 -1.49896 0
M  V30 3878 C 357.684 -4.56455 -2.78483 0
M  V30 3879 C 358.984 -5.17769 -0.686461 0
M  V30 3880 H 360.678 -2.99175 -0.116173 0
M  V30 3881 H 358.224 -1.43897 -0.054436 0
M  V30 3882 H 360.177 -3.37547 -2.5227 0
M  V30 3883 H 358.901 -2.1338 -2.47258 0
M  V30 3884 H 357.56 -3.55758 -0.884985 0
M  V30 3885 H 357.208 -3.74886 -3.35365 0
M  V30 3886 H 356.908 -5.30169 -2.53368 0
M  V30 3887 H 358.432 -5.05047 -3.43162 0
M  V30 3888 H 359.846 -5.60001 -1.22767 0
M  V30 3889 H 358.243 -5.97735 -0.532259 0
M  V30 3890 H 359.313 -4.83932 0.306196 0
M  V30 3891 N 360.656 0.0484629 -1.57525 0
M  V30 3892 C 361.886 0.754326 -1.92337 0
M  V30 3893 C 362.294 1.70443 -0.82132 0
M  V30 3894 O 361.637 1.82466 0.21254 0
M  V30 3895 C 361.699 1.58231 -3.22805 0
M  V30 3896 C 361.363 0.799074 -4.4996 0
M  V30 3897 C 362.36 0.1079 -5.19788 0
M  V30 3898 C 360.045 0.759345 -4.96527 0
M  V30 3899 C 362.039 -0.612516 -6.3445 0
M  V30 3900 C 359.726 0.0351713 -6.1109 0
M  V30 3901 C 360.724 -0.649537 -6.79904 0
M  V30 3902 O 360.412 -1.36199 -7.92278 0
M  V30 3903 H 360.144 0.218257 -0.639797 0
M  V30 3904 H 362.698 0.0159295 -2.05394 0
M  V30 3905 H 360.928 2.36406 -3.06021 0
M  V30 3906 H 362.617 2.16898 -3.43089 0
M  V30 3907 H 363.383 0.129748 -4.84826 0
M  V30 3908 H 359.262 1.28177 -4.42822 0
M  V30 3909 H 362.806 -1.14751 -6.88097 0
M  V30 3910 H 358.703 0.0113314 -6.45499 0
M  V30 3911 H 359.471 -1.27366 -8.0853 0
M  V30 3912 N 362.134 1.5431 0.320358 0
M  V30 3913 C 363.359 1.76954 1.08175 0
M  V30 3914 C 363.784 0.518193 1.80821 0
M  V30 3915 O 363.142 -0.530411 1.73368 0
M  V30 3916 C 363.19 2.96451 2.05303 0
M  V30 3917 O 362.294 2.68221 3.13259 0
M  V30 3918 H 361.635 0.586275 0.311733 0
M  V30 3919 H 364.165 2.01342 0.363676 0
M  V30 3920 H 364.175 3.23887 2.48116 0
M  V30 3921 H 362.85 3.87196 1.51829 0
M  V30 3922 H 361.427 2.51744 2.75099 0
M  V30 3923 N 363.613 -0.582584 1.46437 0
M  V30 3924 C 364.543 -1.70187 1.59871 0
M  V30 3925 C 365.524 -1.64066 0.449042 0
M  V30 3926 O 366.709 -1.82081 0.6753 0
M  V30 3927 C 363.839 -3.08827 1.58881 0
M  V30 3928 C 362.793 -3.29779 2.72819 0
M  V30 3929 C 362.119 -4.68947 2.5689 0
M  V30 3930 C 363.419 -3.17601 4.1464 0
M  V30 3931 H 365.113 -1.592 2.53566 0
M  V30 3932 H 362.659 -0.764472 1.22032 0
M  V30 3933 H 364.612 -3.86951 1.66873 0
M  V30 3934 H 363.336 -3.20713 0.617306 0
M  V30 3935 H 361.995 -2.54054 2.64296 0
M  V30 3936 H 361.643 -4.77599 1.57823 0
M  V30 3937 H 361.343 -4.83919 3.33312 0
M  V30 3938 H 362.867 -5.4924 2.66773 0
M  V30 3939 H 364.281 -3.8557 4.24274 0
M  V30 3940 H 362.678 -3.44094 4.9165 0
M  V30 3941 H 363.748 -2.14681 4.34788 0
M  V30 3942 N 365.091 -1.34144 -0.827227 0
M  V30 3943 C 366.321 -1.29138 -1.61267 0
M  V30 3944 C 366.729 0.137597 -1.88699 0
M  V30 3945 O 366.072 1.09379 -1.47587 0
M  V30 3946 C 366.134 -2.0097 -2.9808 0
M  V30 3947 C 365.798 -3.50242 -2.93563 0
M  V30 3948 C 366.795 -4.4523 -2.68452 0
M  V30 3949 C 364.48 -3.92592 -3.13331 0
M  V30 3950 C 366.474 -5.80542 -2.63154 0
M  V30 3951 C 364.161 -5.28005 -3.07658 0
M  V30 3952 C 365.159 -6.21792 -2.82602 0
M  V30 3953 O 364.847 -7.54723 -2.76853 0
M  V30 3954 H 364.579 -0.445851 -0.508127 0
M  V30 3955 H 367.133 -1.77263 -1.03763 0
M  V30 3956 H 365.363 -1.47451 -3.57484 0
M  V30 3957 H 367.052 -1.89309 -3.5905 0
M  V30 3958 H 367.818 -4.13832 -2.52919 0
M  V30 3959 H 363.697 -3.19994 -3.31851 0
M  V30 3960 H 367.241 -6.53717 -2.43516 0
M  V30 3961 H 363.138 -5.59023 -3.22743 0
M  V30 3962 H 363.906 -7.64409 -2.92611 0
M  V30 3963 N 366.569 1.04691 -1.17803 0
M  V30 3964 C 367.846 1.7472 -0.879328 0
M  V30 3965 C 368.226 2.01812 0.619271 0
M  V30 3966 O 367.574 1.65824 1.57209 0
M  V30 3967 C 367.784 3.03686 -1.71976 0
M  V30 3968 C 369.132 3.77542 -1.94286 0
M  V30 3969 O 370.156 3.13569 -1.68976 0
M  V30 3970 O 369.015 4.92506 -2.36855 0
M  V30 3971 H 366.109 0.760011 -0.326056 0
M  V30 3972 H 368.655 1.10813 -1.28525 0
M  V30 3973 H 367.427 2.79754 -2.73594 0
M  V30 3974 H 367.05 3.75332 -1.31194 0
M  V30 3975 N 368.047 0.979072 1.23499 0
M  V30 3976 C 369.01 0.523244 2.23147 0
M  V30 3977 C 370.01 -0.386406 1.56088 0
M  V30 3978 O 371.2 -0.180283 1.73265 0
M  V30 3979 C 368.332 -0.240739 3.40049 0
M  V30 3980 H 369.525 1.40432 2.64989 0
M  V30 3981 H 367.078 0.764824 1.36309 0
M  V30 3982 H 367.813 -1.13841 3.03662 0
M  V30 3983 H 367.598 0.412207 3.89927 0
M  V30 3984 H 369.088 -0.548297 4.13985 0
M  V30 3985 N 369.525 -1.3858 0.750561 0
M  V30 3986 C 370.435 -2.34278 0.122825 0
M  V30 3987 C 371.451 -1.59116 -0.704131 0
M  V30 3988 O 372.627 -1.91326 -0.628987 0
M  V30 3989 C 369.692 -3.38221 -0.762086 0
M  V30 3990 C 368.753 -4.29227 0.078896 0
M  V30 3991 C 367.986 -5.28205 -0.763874 0
M  V30 3992 O 368.209 -5.34112 -2.00201 0
M  V30 3993 O 367.143 -6.01618 -0.18428 0
M  V30 3994 H 370.969 -2.89649 0.913088 0
M  V30 3995 H 368.554 -1.40374 0.511417 0
M  V30 3996 H 370.436 -4.01872 -1.26793 0
M  V30 3997 H 369.111 -2.85211 -1.5309 0
M  V30 3998 H 368.018 -3.68747 0.630621 0
M  V30 3999 H 369.351 -4.85484 0.810289 0
M  V30 4000 N 371.003 -0.499398 -1.49478 0
M  V30 4001 C 372.231 0.0425456 -2.06856 0
M  V30 4002 C 372.646 1.30964 -1.35992 0
M  V30 4003 O 372.003 1.77172 -0.437762 0
M  V30 4004 C 372.054 0.301735 -3.60239 0
M  V30 4005 O 371.775 -0.915127 -4.28436 0
M  V30 4006 C 373.276 0.887499 -4.34325 0
M  V30 4007 H 370.496 -0.0197482 -0.670709 0
M  V30 4008 H 373.04 -0.696297 -1.92281 0
M  V30 4009 H 371.195 0.990556 -3.74522 0
M  V30 4010 H 371.609 -0.676993 -5.20113 0
M  V30 4011 H 373.083 1.01845 -5.42523 0
M  V30 4012 H 373.56 1.88488 -3.96698 0
M  V30 4013 H 374.166 0.236196 -4.24644 0
M  V30 4014 N 372.481 1.55866 -0.233164 0
M  V30 4015 C 373.411 2.23783 0.666599 0
M  V30 4016 C 374.392 1.21343 1.19205 0
M  V30 4017 O 375.577 1.4996 1.23392 0
M  V30 4018 C 372.707 2.92671 1.86978 0
M  V30 4019 C 371.661 4.01682 1.47768 0
M  V30 4020 C 370.987 4.57926 2.76058 0
M  V30 4021 C 372.287 5.18126 0.658993 0
M  V30 4022 H 373.981 2.99232 0.100306 0
M  V30 4023 H 371.527 1.43924 0.046804 0
M  V30 4024 H 373.48 3.3888 2.50476 0
M  V30 4025 H 372.204 2.14688 2.46123 0
M  V30 4026 H 370.863 3.56222 0.866106 0
M  V30 4027 H 370.511 3.76659 3.33372 0
M  V30 4028 H 370.211 5.31505 2.50552 0
M  V30 4029 H 371.735 5.06859 3.40479 0
M  V30 4030 H 373.149 5.60644 1.19795 0
M  V30 4031 H 371.546 5.98009 0.500552 0
M  V30 4032 H 372.616 4.83763 -0.331856 0
M  V30 4033 N 373.959 -0.0401083 1.57549 0
M  V30 4034 C 374.892 -1.07689 2.01192 0
M  V30 4035 C 375.87 -1.358 0.894273 0
M  V30 4036 O 377.054 -1.48642 1.15921 0
M  V30 4037 C 374.181 -2.41418 2.3756 0
M  V30 4038 C 373.227 -2.29237 3.59656 0
M  V30 4039 S 374.06 -1.65628 5.09242 0
M  V30 4040 C 375.216 -3.0087 5.48843 0
M  V30 4041 H 375.449 -0.705108 2.88817 0
M  V30 4042 H 372.982 -0.249724 1.52367 0
M  V30 4043 H 374.94 -3.18329 2.59186 0
M  V30 4044 H 373.601 -2.75747 1.50407 0
M  V30 4045 H 372.794 -3.27932 3.82722 0
M  V30 4046 H 372.396 -1.60469 3.37825 0
M  V30 4047 H 374.688 -3.97201 5.48851 0
M  V30 4048 H 375.631 -2.82549 6.49286 0
M  V30 4049 H 376.039 -3.02934 4.76331 0
M  V30 4050 N 375.437 -1.54477 -0.31217 0
M  V30 4051 C 376.714 -1.63891 -1.06767 0
M  V30 4052 C 377.094 -0.480028 -2.0557 0
M  V30 4053 O 376.442 0.524487 -2.22399 0
M  V30 4054 C 376.652 -3.01402 -1.75948 0
M  V30 4055 C 378 -3.57838 -2.28554 0
M  V30 4056 O 379.024 -3.03782 -1.85998 0
M  V30 4057 O 377.883 -4.52462 -3.06497 0
M  V30 4058 H 374.977 -0.664125 -0.492816 0
M  V30 4059 H 377.523 -1.66823 -0.311149 0
M  V30 4060 H 376.295 -3.77187 -1.04144 0
M  V30 4061 H 375.918 -3.02199 -2.58383 0
M  V30 4062 N 376.915 0.57481 -1.46744 0
M  V30 4063 C 378.331 0.898981 -1.31873 0
M  V30 4064 C 378.531 1.99313 -0.29605 0
M  V30 4065 O 377.587 2.50728 0.298621 0
M  V30 4066 C 378.9 1.30886 -2.7072 0
M  V30 4067 C 380.448 1.42127 -2.78871 0
M  V30 4068 C 380.923 1.86478 -4.18318 0
M  V30 4069 N 382.414 1.93658 -4.20774 0
M  V30 4070 C 383.149 2.29267 -5.2557 0
M  V30 4071 N 382.645 2.63612 -6.40688 0
M  V30 4072 N 384.438 2.29889 -5.1294 0
M  V30 4073 H 376.589 -0.147839 -2.11885 0
M  V30 4074 H 378.852 -0.00347013 -0.947994 0
M  V30 4075 H 378.558 0.578853 -3.46904 0
M  V30 4076 H 378.432 2.26874 -3.01343 0
M  V30 4077 H 380.819 2.14213 -2.0297 0
M  V30 4078 H 380.9 0.443705 -2.51922 0
M  V30 4079 H 380.544 1.14968 -4.94717 0
M  V30 4080 H 380.474 2.85207 -4.42679 0
M  V30 4081 H 382.965 1.69574 -3.37718 0
M  V30 4082 H 383.278 2.89759 -7.16421 0
M  V30 4083 H 381.623 2.61232 -6.44036 0
M  V30 4084 H 384.814 2.02485 -4.22039 0
M  V30 4085 H 384.987 2.57312 -5.94722 0
M  V30 4086 N 378.394 1.34581 0.820102 0
M  V30 4087 C 379.643 1.26437 1.57151 0
M  V30 4088 C 379.956 -0.163111 1.94919 0
M  V30 4089 O 381.162 -0.366722 2.69012 0
M  V30 4090 C 379.618 2.21658 2.83541 0
M  V30 4091 C 379.226 3.69679 2.53065 0
M  V30 4092 C 380.97 2.22428 3.61561 0
M  V30 4093 C 378.877 4.56761 3.75664 0
M  V30 4094 H 377.807 0.469707 0.589823 0
M  V30 4095 H 380.458 1.59763 0.902656 0
M  V30 4096 H 378.84 1.81287 3.52067 0
M  V30 4097 H 380.014 4.18605 1.92631 0
M  V30 4098 H 378.329 3.71384 1.88316 0
M  V30 4099 H 380.926 2.8471 4.52597 0
M  V30 4100 H 381.269 1.22434 3.97889 0
M  V30 4101 H 381.802 2.61259 2.99981 0
M  V30 4102 H 378.541 5.57702 3.44454 0
M  V30 4103 H 378.061 4.12568 4.35371 0
M  V30 4104 H 379.74 4.71509 4.43044 0
M  V30 4105 N 379.872 -1.04064 1.18357 0
M  V30 4106 C 380.819 -2.12077 0.910603 0
M  V30 4107 C 381.789 -1.65421 -0.15 0
M  V30 4108 O 382.974 -1.90797 -0.0103614 0
M  V30 4109 C 380.114 -3.42252 0.442472 0
M  V30 4110 C 379.227 -4.0252 1.5685 0
M  V30 4111 C 378.362 -5.20657 1.05309 0
M  V30 4112 C 377.401 -5.72955 2.1538 0
M  V30 4113 N 376.538 -6.8238 1.65233 0
M  V30 4114 H 381.378 -2.34764 1.83548 0
M  V30 4115 H 378.915 -1.15157 0.915279 0
M  V30 4116 H 380.873 -4.16921 0.152534 0
M  V30 4117 H 379.503 -3.19712 -0.445428 0
M  V30 4118 H 378.555 -3.25178 1.97391 0
M  V30 4119 H 379.867 -4.37362 2.39824 0
M  V30 4120 H 379.021 -6.0244 0.717677 0
M  V30 4121 H 377.76 -4.87318 0.19293 0
M  V30 4122 H 376.765 -4.89793 2.49766 0
M  V30 4123 H 377.99 -6.08337 3.01832 0
M  V30 4124 H 375.936 -6.50917 0.815064 0
M  V30 4125 H 375.853 -7.16286 2.41805 0
M  V30 4126 H 377.121 -7.67788 1.34619 0
M  V30 4127 N 381.35 -0.985608 -1.22978 0
M  V30 4128 C 382.297 -0.529825 -2.24636 0
M  V30 4129 C 383.267 0.434028 -1.60329 0
M  V30 4130 O 384.452 0.340414 -1.87739 0
M  V30 4131 C 381.592 0.156533 -3.44745 0
M  V30 4132 C 380.705 -0.848197 -4.23591 0
M  V30 4133 C 379.84 -0.136109 -5.31026 0
M  V30 4134 C 378.879 -1.1297 -6.01585 0
M  V30 4135 N 378.016 -0.446415 -7.00679 0
M  V30 4136 H 382.856 -1.40148 -2.62988 0
M  V30 4137 H 380.393 -0.702168 -1.29259 0
M  V30 4138 H 382.351 0.571324 -4.1327 0
M  V30 4139 H 380.981 0.992025 -3.07179 0
M  V30 4140 H 380.033 -1.38135 -3.54433 0
M  V30 4141 H 381.345 -1.60512 -4.72268 0
M  V30 4142 H 380.499 0.335784 -6.0577 0
M  V30 4143 H 379.238 0.653373 -4.83304 0
M  V30 4144 H 378.243 -1.6123 -5.25628 0
M  V30 4145 H 379.468 -1.91993 -6.51395 0
M  V30 4146 H 377.414 0.323763 -6.55201 0
M  V30 4147 H 377.331 -1.1419 -7.47326 0
M  V30 4148 H 378.599 0.00291697 -7.795 0
M  V30 4149 N 382.828 1.3818 -0.7579 0
M  V30 4150 C 383.76 2.2901 -0.0932177 0
M  V30 4151 C 384.773 1.47958 0.679136 0
M  V30 4152 O 385.962 1.70773 0.519514 0
M  V30 4153 C 383.062 3.26953 0.89192 0
M  V30 4154 C 382.235 4.37045 0.176303 0
M  V30 4155 C 381.294 5.15148 1.07281 0
M  V30 4156 O 380.32 5.66616 0.541728 0
M  V30 4157 N 381.522 5.28542 2.40049 0
M  V30 4158 H 384.287 2.86694 -0.873303 0
M  V30 4159 H 381.848 1.50007 -0.609054 0
M  V30 4160 H 383.84 3.76083 1.49479 0
M  V30 4161 H 382.41 2.70136 1.57306 0
M  V30 4162 H 381.63 3.89493 -0.607328 0
M  V30 4163 H 382.918 5.07801 -0.318718 0
M  V30 4164 H 382.316 4.88285 2.85647 0
M  V30 4165 H 380.873 5.8103 2.95376 0
M  V30 4166 N 384.306 0.507319 1.49211 0
M  V30 4167 C 385.236 -0.256939 2.32082 0
M  V30 4168 C 386.217 -0.956609 1.40652 0
M  V30 4169 O 387.402 -0.946788 1.69557 0
M  V30 4170 C 384.532 -1.31802 3.21318 0
M  V30 4171 C 383.486 -0.737855 4.21592 0
M  V30 4172 C 382.812 -1.89992 4.99807 0
M  V30 4173 C 384.112 0.275325 5.21574 0
M  V30 4174 H 385.806 0.434798 2.96226 0
M  V30 4175 H 383.352 0.210546 1.42452 0
M  V30 4176 H 385.305 -1.86045 3.78107 0
M  V30 4177 H 384.029 -2.03903 2.5513 0
M  V30 4178 H 382.688 -0.217126 3.65956 0
M  V30 4179 H 382.336 -2.60877 4.30061 0
M  V30 4180 H 382.036 -1.51777 5.6766 0
M  V30 4181 H 383.56 -2.44657 5.59442 0
M  V30 4182 H 384.974 -0.179193 5.7302 0
M  V30 4183 H 383.371 0.573649 5.97352 0
M  V30 4184 H 384.441 1.18903 4.70096 0
M  V30 4185 N 385.784 -1.5574 0.241426 0
M  V30 4186 C 387.2 -1.59196 -0.113548 0
M  V30 4187 C 387.4 -1.25852 -1.57364 0
M  V30 4188 O 386.456 -1.00322 -2.31715 0
M  V30 4189 C 387.769 -2.99814 0.230695 0
M  V30 4190 C 389.317 -3.12513 0.174547 0
M  V30 4191 C 389.792 -4.55342 0.492744 0
M  V30 4192 N 391.283 -4.61076 0.443043 0
M  V30 4193 C 392.018 -5.6956 0.662484 0
M  V30 4194 N 391.514 -6.86328 0.944761 0
M  V30 4195 N 393.307 -5.58957 0.593564 0
M  V30 4196 H 385.458 -1.75685 1.19368 0
M  V30 4197 H 387.721 -0.81756 0.479896 0
M  V30 4198 H 387.427 -3.28932 1.24485 0
M  V30 4199 H 387.301 -3.74568 -0.444833 0
M  V30 4200 H 389.688 -2.83179 -0.830277 0
M  V30 4201 H 389.769 -2.40045 0.883845 0
M  V30 4202 H 389.413 -4.85396 1.4951 0
M  V30 4203 H 389.343 -5.26062 -0.23797 0
M  V30 4204 H 391.834 -3.77179 0.233374 0
M  V30 4205 H 392.147 -7.64935 1.09977 0
M  V30 4206 H 390.492 -6.88025 0.982175 0
M  V30 4207 H 393.683 -4.66611 0.373123 0
M  V30 4208 H 393.856 -6.43433 0.767981 0
M  V30 4209 N 387.262 0.0317525 -1.57568 0
M  V30 4210 C 388.172 1.05021 -2.0978 0
M  V30 4211 C 389.188 1.39809 -1.03583 0
M  V30 4212 O 390.364 1.49182 -1.35302 0
M  V30 4213 C 387.429 2.33301 -2.56459 0
M  V30 4214 C 386.49 2.0512 -3.77127 0
M  V30 4215 C 385.723 3.27283 -4.2157 0
M  V30 4216 O 385.946 4.37861 -3.65559 0
M  V30 4217 O 384.88 3.13141 -5.14029 0
M  V30 4218 H 388.706 0.636505 -2.96955 0
M  V30 4219 H 386.291 0.248559 -1.47318 0
M  V30 4220 H 388.173 3.08722 -2.86825 0
M  V30 4221 H 386.848 2.73973 -1.72397 0
M  V30 4222 H 385.755 1.27276 -3.51784 0
M  V30 4223 H 387.088 1.69305 -4.62165 0
M  V30 4224 N 388.74 1.54641 0.303973 0
M  V30 4225 C 389.986 1.74969 1.03718 0
M  V30 4226 C 390.341 0.527461 1.85029 0
M  V30 4227 O 389.634 -0.480143 1.85486 0
M  V30 4228 C 389.828 2.97753 1.97681 0
M  V30 4229 C 389.657 4.318 1.25613 0
M  V30 4230 C 388.427 4.95616 0.984518 0
M  V30 4231 C 390.625 5.10021 0.662081 0
M  V30 4232 N 388.607 6.13455 0.233794 0
M  V30 4233 C 389.978 6.19984 0.0439736 0
M  V30 4234 C 392.033 4.94663 0.566835 0
M  V30 4235 C 390.736 7.16264 -0.66016 0
M  V30 4236 C 392.762 5.91271 -0.123637 0
M  V30 4237 C 392.124 7.00601 -0.730608 0
M  V30 4238 H 388.223 0.692873 0.362562 0
M  V30 4239 H 390.807 1.92116 0.316135 0
M  V30 4240 H 388.978 2.82036 2.6704 0
M  V30 4241 H 390.71 3.06621 2.64132 0
M  V30 4242 H 387.465 4.55921 1.28191 0
M  V30 4243 H 387.889 6.76879 -0.127996 0
M  V30 4244 H 392.531 4.10267 1.02181 0
M  V30 4245 H 390.249 8.00204 -1.12691 0
M  V30 4246 H 393.835 5.81466 -0.197236 0
M  V30 4247 H 392.715 7.7407 -1.2564 0
M  V30 4248 N 390.218 -0.567019 1.47046 0
M  V30 4249 C 391.495 -1.3276 1.43646 0
M  V30 4250 C 391.875 -2.1071 0.128186 0
M  V30 4251 O 391.223 -2.10441 -0.890326 0
M  V30 4252 C 391.433 -2.2404 2.67595 0
M  V30 4253 C 392.781 -2.85372 3.14401 0
M  V30 4254 O 393.805 -2.34346 2.68254 0
M  V30 4255 O 392.664 -3.78091 3.946 0
M  V30 4256 H 389.758 -0.597293 0.571988 0
M  V30 4257 H 392.304 -0.586735 1.59234 0
M  V30 4258 H 391.076 -1.65975 3.54356 0
M  V30 4259 H 390.699 -3.05439 2.54544 0
M  V30 4260 N 391.696 -1.35014 -0.812953 0
M  V30 4261 C 392.606 -1.2951 -1.95613 0
M  V30 4262 C 393.622 -0.20107 -1.72834 0
M  V30 4263 O 394.798 -0.42932 -1.96771 0
M  V30 4264 C 391.863 -1.06033 -3.30088 0
M  V30 4265 C 390.924 -2.24688 -3.65805 0
M  V30 4266 C 390.157 -2.02322 -4.93864 0
M  V30 4267 O 390.38 -0.986464 -5.61805 0
M  V30 4268 O 389.314 -2.89525 -5.27692 0
M  V30 4269 H 393.14 -2.25705 -2.03202 0
M  V30 4270 H 390.725 -1.15321 -0.949811 0
M  V30 4271 H 392.607 -0.94763 -4.10607 0
M  V30 4272 H 391.282 -0.128852 -3.23443 0
M  V30 4273 H 390.189 -2.41521 -2.85689 0
M  V30 4274 H 391.522 -3.16261 -3.77147 0
M  V30 4275 N 393.175 1.03435 -1.18907 0
M  V30 4276 C 394.123 2.13703 -0.918353 0
M  V30 4277 C 395.117 1.68947 0.123767 0
M  V30 4278 O 396.323 1.79983 -0.0249701 0
M  V30 4279 H 392.698 0.698112 -0.279542 0
M  V30 4280 H 394.669 2.33731 -1.85506 0
M  V30 4281 C 393.418 3.44542 -0.467532 0
M  V30 4282 H 392.741 3.79394 -1.26095 0
M  V30 4283 H 394.181 4.22812 -0.317164 0
M  V30 4284 C 392.64 3.26829 0.817588 0
M  V30 4285 O 393.17 3.54975 1.88031 0
M  V30 4286 N 391.376 2.80139 0.772677 0
M  V30 4287 H 390.923 2.57434 -0.0923883 0
M  V30 4288 H 390.881 2.68668 1.63294 0
M  V30 4289 N 394.653 0.992116 1.22453 0
M  V30 4290 C 395.583 0.561677 2.26644 0
M  V30 4291 C 396.564 -0.411055 1.65059 0
M  V30 4292 O 397.749 -0.301861 1.9184 0
M  V30 4293 C 394.879 -0.125247 3.47074 0
M  V30 4294 C 393.833 0.765948 4.21091 0
M  V30 4295 C 393.159 -0.0538484 5.34673 0
M  V30 4296 C 394.459 2.06242 4.79856 0
M  V30 4297 H 396.153 1.43259 2.62902 0
M  V30 4298 H 393.699 0.690283 1.26377 0
M  V30 4299 H 395.652 -0.437764 4.1912 0
M  V30 4300 H 394.376 -1.03069 3.0991 0
M  V30 4301 H 393.035 1.0621 3.50878 0
M  V30 4302 H 392.683 -0.960188 4.9375 0
M  V30 4303 H 392.383 0.539415 5.85119 0
M  V30 4304 H 393.907 -0.360477 6.09535 0
M  V30 4305 H 395.321 1.8139 5.43848 0
M  V30 4306 H 393.718 2.60444 5.40638 0
M  V30 4307 H 394.788 2.74167 3.99951 0
M  V30 4308 N 396.131 -1.37776 0.765217 0
M  V30 4309 C 397.078 -2.30342 0.145274 0
M  V30 4310 C 398.048 -1.5077 -0.696971 0
M  V30 4311 O 399.233 -1.79362 -0.650689 0
M  V30 4312 C 396.373 -3.37227 -0.732939 0
M  V30 4313 C 395.486 -4.31819 0.125199 0
M  V30 4314 C 394.621 -5.25777 -0.757107 0
M  V30 4315 C 393.66 -6.12012 0.103963 0
M  V30 4316 N 392.797 -6.98232 -0.735953 0
M  V30 4317 H 397.637 -2.8278 0.940195 0
M  V30 4318 H 395.174 -1.39211 0.475255 0
M  V30 4319 H 397.132 -3.97818 -1.25686 0
M  V30 4320 H 395.762 -2.86171 -1.49353 0
M  V30 4321 H 394.814 -3.7259 0.766865 0
M  V30 4322 H 396.126 -4.92509 0.789683 0
M  V30 4323 H 395.28 -5.91541 -1.34776 0
M  V30 4324 H 394.019 -4.65481 -1.45529 0
M  V30 4325 H 393.024 -5.45233 0.707197 0
M  V30 4326 H 394.249 -6.74379 0.799381 0
M  V30 4327 H 392.195 -6.40472 -1.41887 0
M  V30 4328 H 392.112 -7.55891 -0.128624 0
M  V30 4329 H 393.38 -7.68393 -1.31121 0
M  V30 4330 N 397.609 -0.515225 -1.4894 0
M  V30 4331 C 398.886 0.0879088 -1.95402 0
M  V30 4332 C 399.266 1.52745 -1.45712 0
M  V30 4333 O 398.614 2.18238 -0.677093 0
M  V30 4334 C 398.824 -0.0141055 -3.48997 0
M  V30 4335 C 400.172 0.152646 -4.24326 0
M  V30 4336 O 401.196 0.0604025 -3.56149 0
M  V30 4337 O 400.055 0.34384 -5.45417 0
M  V30 4338 H 397.149 0.0874636 -0.822362 0
M  V30 4339 H 399.695 -0.578775 -1.59525 0
M  V30 4340 H 398.467 -1.01745 -3.77841 0
M  V30 4341 H 398.09 0.692091 -3.9153 0
M  V30 4342 N 399.087 1.5561 -0.249682 0
M  V30 4343 C 400.364 1.90932 0.424761 0
M  V30 4344 C 400.744 1.17078 1.75658 0
M  V30 4345 O 400.092 0.289176 2.26663 0
M  V30 4346 C 400.302 3.43975 0.590109 0
M  V30 4347 C 401.65 4.15281 0.884714 0
M  V30 4348 O 402.674 3.49729 0.67587 0
M  V30 4349 O 401.533 5.31236 1.28259 0
M  V30 4350 H 398.627 0.794815 0.228468 0
M  V30 4351 H 401.173 1.67135 -0.293954 0
M  V30 4352 H 399.945 3.89748 -0.34818 0
M  V30 4353 H 399.568 3.73644 1.35926 0
M  V30 4354 N 400.565 -0.0233959 1.57583 0
M  V30 4355 C 401.79 -0.728376 1.94189 0
M  V30 4356 C 402.215 -1.67793 0.850119 0
M  V30 4357 O 401.573 -1.80262 -0.19371 0
M  V30 4358 C 401.621 -1.45669 3.29868 0
M  V30 4359 O 400.725 -2.57013 3.22518 0
M  V30 4360 H 400.066 -0.195493 0.63457 0
M  V30 4361 H 402.596 0.0228214 2.04587 0
M  V30 4362 H 402.606 -1.82535 3.6489 0
M  V30 4363 H 401.281 -0.760314 4.08891 0
M  V30 4364 H 399.858 -2.22648 2.99136 0
M  V30 4365 N 402.043 -1.548 -0.295768 0
M  V30 4366 C 402.973 -1.89115 -1.36959 0
M  V30 4367 C 403.954 -0.75059 -1.52644 0
M  V30 4368 O 405.139 -1.00678 -1.66065 0
M  V30 4369 C 402.269 -2.14307 -2.73295 0
M  V30 4370 C 401.223 -3.30151 -2.72368 0
M  V30 4371 C 400.549 -3.40772 -4.12042 0
M  V30 4372 C 401.849 -4.67126 -2.33646 0
M  V30 4373 H 403.543 -2.79053 -1.08488 0
M  V30 4374 H 401.089 -1.34266 -0.520443 0
M  V30 4375 H 403.042 -2.36898 -3.48507 0
M  V30 4376 H 401.766 -1.21145 -3.03301 0
M  V30 4377 H 400.425 -3.0749 -1.99613 0
M  V30 4378 H 400.073 -2.45117 -4.39234 0
M  V30 4379 H 399.773 -4.18645 -4.12322 0
M  V30 4380 H 401.297 -3.6563 -4.89027 0
M  V30 4381 H 402.711 -4.89414 -2.98575 0
M  V30 4382 H 401.108 -5.47751 -2.45129 0
M  V30 4383 H 402.178 -4.67489 -1.28772 0
M  V30 4384 N 403.521 0.559213 -1.47345 0
M  V30 4385 C 404.932 1.14134 -1.47751 0
M  V30 4386 C 405.283 1.94834 -0.231103 0
M  V30 4387 O 404.408 2.05957 0.664137 0
M  V30 4388 C 405.003 2.07653 -2.67705 0
M  V30 4389 C 403.562 2.61141 -2.71076 0
M  V30 4390 C 402.709 1.3748 -2.40821 0
M  V30 4391 H 405.66 0.345917 -1.54884 0
M  V30 4392 H 405.681 2.91497 -2.44561 0
M  V30 4393 H 405.193 1.4889 -3.58404 0
M  V30 4394 H 403.294 3.23707 -1.84511 0
M  V30 4395 H 403.407 3.02272 -3.7171 0
M  V30 4396 H 401.771 1.68086 -1.91362 0
M  V30 4397 H 402.554 0.805135 -3.33725 0
M  V30 4398 N 404.999 1.35443 0.805782 0
M  V30 4399 C 406.224 1.32037 1.59941 0
M  V30 4400 C 406.649 -0.0994215 1.87837 0
M  V30 4401 O 406.007 -1.06648 1.46615 0
M  V30 4402 C 406.055 2.13354 2.90711 0
M  V30 4403 O 405.159 1.5148 3.83572 0
M  V30 4404 H 404.5 0.452666 0.485787 0
M  V30 4405 H 407.03 1.78496 1.00002 0
M  V30 4406 H 407.04 2.25338 3.40128 0
M  V30 4407 H 405.715 3.16572 2.69732 0
M  V30 4408 H 404.292 1.4834 3.42125 0
M  V30 4409 N 406.477 -1.02803 1.19454 0
M  V30 4410 C 407.425 -2.13213 0.929673 0
M  V30 4411 C 408.419 -1.69011 -0.114806 0
M  V30 4412 O 409.625 -1.79967 0.0345147 0
M  V30 4413 H 406 -0.69662 0.28324 0
M  V30 4414 H 407.971 -2.32744 1.86743 0
M  V30 4415 C 406.72 -3.4429 0.485797 0
M  V30 4416 H 406.043 -3.7872 1.28105 0
M  V30 4417 H 407.483 -4.22638 0.339582 0
M  V30 4418 C 405.942 -3.27258 -0.800244 0
M  V30 4419 O 406.472 -3.55967 -1.86146 0
M  V30 4420 N 404.678 -2.80545 -0.75781 0
M  V30 4421 H 404.225 -2.57382 0.106039 0
M  V30 4422 H 404.183 -2.6953 -1.61867 0
M  V30 4423 N 407.956 -0.998596 -1.21925 0
M  V30 4424 C 409.367 -0.711939 -1.72593 0
M  V30 4425 C 409.718 0.770842 -1.80423 0
M  V30 4426 O 408.843 1.60237 -1.4544 0
M  V30 4427 C 409.438 -1.28567 -3.13458 0
M  V30 4428 C 407.997 -1.04828 -3.61508 0
M  V30 4429 C 407.144 -1.4024 -2.39224 0
M  V30 4430 H 410.095 -1.17027 -1.07193 0
M  V30 4431 H 410.116 -0.667098 -3.74607 0
M  V30 4432 H 409.628 -2.36486 -3.07727 0
M  V30 4433 H 407.729 0.0140383 -3.72597 0
M  V30 4434 H 407.842 -1.71566 -4.47328 0
M  V30 4435 H 406.206 -0.821077 -2.41103 0
M  V30 4436 H 406.989 -2.49176 -2.36149 0
M  V30 4437 N 409.434 1.37368 -0.772513 0
M  V30 4438 C 410.683 1.98918 -0.333861 0
M  V30 4439 C 410.996 1.62017 1.09589 0
M  V30 4440 O 412.202 2.16676 1.63596 0
M  V30 4441 C 410.658 3.55735 -0.545971 0
M  V30 4442 C 410.266 4.01573 -1.98603 0
M  V30 4443 C 412.01 4.24156 -0.170979 0
M  V30 4444 C 409.917 5.51102 -2.1457 0
M  V30 4445 H 408.847 0.744214 -0.121085 0
M  V30 4446 H 411.498 1.56888 -0.95175 0
M  V30 4447 H 409.88 3.95748 0.141387 0
M  V30 4448 H 411.054 3.72803 -2.7084 0
M  V30 4449 H 409.369 3.45937 -2.31769 0
M  V30 4450 H 411.966 5.34024 -0.26878 0
M  V30 4451 H 412.309 4.06917 0.878855 0
M  V30 4452 H 412.842 3.89447 -0.810914 0
M  V30 4453 H 409.581 5.73268 -3.17875 0
M  V30 4454 H 409.101 5.81554 -1.46817 0
M  V30 4455 H 410.78 6.17083 -1.94468 0
M  V30 4456 N 410.912 0.523116 1.48665 0
M  V30 4457 C 412.189 -0.0775449 1.95446 0
M  V30 4458 C 412.569 -1.5197 1.4652 0
M  V30 4459 O 411.917 -2.17876 0.688657 0
M  V30 4460 C 412.127 0.0326135 3.48985 0
M  V30 4461 C 413.475 -0.130141 4.24401 0
M  V30 4462 O 414.499 -0.0415142 3.56176 0
M  V30 4463 O 413.358 -0.31491 5.45592 0
M  V30 4464 H 410.452 -0.0831012 0.822814 0
M  V30 4465 H 412.998 0.587227 1.59216 0
M  V30 4466 H 411.77 1.03748 3.77296 0
M  V30 4467 H 411.393 -0.671317 3.91892 0
M  V30 4468 N 412.39 -1.55475 0.257931 0
M  V30 4469 C 413.637 -1.99207 -0.363728 0
M  V30 4470 C 413.965 -1.1462 -1.57139 0
M  V30 4471 O 413.22 -0.199653 -1.94679 0
M  V30 4472 C 413.519 -3.48183 -0.806433 0
M  V30 4473 C 413.185 -4.49936 0.294684 0
M  V30 4474 C 411.847 -4.77481 0.597076 0
M  V30 4475 C 414.199 -5.10769 1.03751 0
M  V30 4476 C 411.527 -5.63132 1.64618 0
M  V30 4477 C 413.879 -5.97558 2.07622 0
M  V30 4478 C 412.543 -6.23432 2.38514 0
M  V30 4479 H 411.813 -0.728949 -0.133097 0
M  V30 4480 H 414.46 -1.8793 0.368059 0
M  V30 4481 H 412.765 -3.56848 -1.61761 0
M  V30 4482 H 414.462 -3.79415 -1.29789 0
M  V30 4483 H 411.052 -4.28572 0.0488649 0
M  V30 4484 H 415.236 -4.89527 0.817149 0
M  V30 4485 H 410.492 -5.8143 1.89074 0
M  V30 4486 H 414.666 -6.43735 2.65666 0
M  V30 4487 H 412.293 -6.89594 3.19943 0
M  V30 4488 N 413.868 0.0150385 -1.57593 0
M  V30 4489 C 415.093 0.718067 -1.94573 0
M  V30 4490 C 415.518 1.6734 -0.859005 0
M  V30 4491 O 414.876 1.80362 0.184147 0
M  V30 4492 C 414.924 1.43918 -3.30636 0
M  V30 4493 O 414.028 2.55299 -3.23876 0
M  V30 4494 H 413.369 0.192125 -0.635597 0
M  V30 4495 H 415.899 -0.0336708 -2.04572 0
M  V30 4496 H 415.909 1.80598 -3.65853 0
M  V30 4497 H 414.584 0.738619 -4.09289 0
M  V30 4498 H 413.161 2.21058 -3.00312 0
M  V30 4499 N 415.346 1.54954 0.287554 0
M  V30 4500 C 416.576 1.78622 1.03816 0
M  V30 4501 C 416.984 0.552451 1.80955 0
M  V30 4502 O 416.327 -0.487665 1.77109 0
M  V30 4503 C 416.389 2.94975 2.055 0
M  V30 4504 C 416.053 4.32565 1.47433 0
M  V30 4505 C 417.05 5.12096 0.897436 0
M  V30 4506 C 414.735 4.79195 1.50591 0
M  V30 4507 C 416.729 6.36383 0.359851 0
M  V30 4508 C 414.416 6.03441 0.964459 0
M  V30 4509 C 415.414 6.81872 0.392413 0
M  V30 4510 O 415.102 8.03777 -0.140788 0
M  V30 4511 H 414.834 0.599144 0.313053 0
M  V30 4512 H 417.388 2.02761 0.328225 0
M  V30 4513 H 415.618 2.66493 2.80211 0
M  V30 4514 H 417.307 3.06097 2.6657 0
M  V30 4515 H 418.073 4.77209 0.865841 0
M  V30 4516 H 413.952 4.18167 1.94055 0
M  V30 4517 H 417.496 6.97545 -0.0872951 0
M  V30 4518 H 413.393 6.37813 0.993246 0
M  V30 4519 H 414.161 8.18495 -0.0287617 0
M  V30 4520 N 416.824 -0.551391 1.4764 0
M  V30 4521 C 418.24 -0.877887 1.33287 0
M  V30 4522 C 418.44 -1.98817 0.327721 0
M  V30 4523 O 417.496 -2.51171 -0.258695 0
M  V30 4524 C 418.809 -1.26563 2.72768 0
M  V30 4525 C 420.357 -1.37673 2.81097 0
M  V30 4526 C 420.832 -1.79799 4.21232 0
M  V30 4527 N 422.323 -1.8694 4.23802 0
M  V30 4528 C 423.058 -2.20876 5.29151 0
M  V30 4529 N 422.554 -2.53386 6.448 0
M  V30 4530 N 424.347 -2.217 5.16532 0
M  V30 4531 H 416.498 0.18153 2.11623 0
M  V30 4532 H 418.761 0.0185514 0.947818 0
M  V30 4533 H 418.467 -0.523591 3.47781 0
M  V30 4534 H 418.341 -2.22052 3.04915 0
M  V30 4535 H 420.728 -2.10956 2.06353 0
M  V30 4536 H 420.809 -0.40357 2.52596 0
M  V30 4537 H 420.453 -1.07083 4.96483 0
M  V30 4538 H 420.383 -2.78128 4.4716 0
M  V30 4539 H 422.874 -1.64179 3.40373 0
M  V30 4540 H 423.187 -2.78325 7.20941 0
M  V30 4541 H 421.532 -2.50953 6.48111 0
M  V30 4542 H 424.723 -1.95745 4.25207 0
M  V30 4543 H 424.896 -2.47818 5.98741 0
M  V30 4544 N 418.302 -1.35869 -0.798587 0
M  V30 4545 C 419.548 -1.2978 -1.55836 0
M  V30 4546 C 419.881 0.125322 -1.93795 0
M  V30 4547 O 419.156 1.07658 -1.61987 0
M  V30 4548 C 419.439 -2.21188 -2.84162 0
M  V30 4549 C 419.292 -3.72155 -2.52628 0
M  V30 4550 C 420.611 -2.11545 -3.85923 0
M  V30 4551 H 417.73 -0.472769 -0.565383 0
M  V30 4552 H 420.372 -1.66341 -0.918192 0
M  V30 4553 H 418.522 -1.90139 -3.38791 0
M  V30 4554 H 420.194 -4.13682 -2.04121 0
M  V30 4555 H 418.437 -3.92042 -1.85704 0
M  V30 4556 H 419.108 -4.31511 -3.44242 0
M  V30 4557 H 421.584 -2.38855 -3.40716 0
M  V30 4558 H 420.46 -2.77688 -4.73477 0
M  V30 4559 H 420.721 -1.09987 -4.282 0
M  V30 4560 N 419.78 1.02168 -1.19998 0
M  V30 4561 C 420.743 2.08765 -0.94604 0
M  V30 4562 C 421.743 1.60618 0.0763846 0
M  V30 4563 O 422.933 1.73472 -0.159135 0
M  V30 4564 C 420.065 3.38262 -0.423255 0
M  V30 4565 H 421.258 2.32726 -1.89153 0
M  V30 4566 H 418.811 1.1889 -1.01464 0
M  V30 4567 H 419.546 3.19974 0.527938 0
M  V30 4568 H 419.331 3.74532 -1.16053 0
M  V30 4569 H 420.821 4.16759 -0.264911 0
M  V30 4570 N 421.258 1.00505 1.21394 0
M  V30 4571 C 422.221 0.570459 2.21987 0
M  V30 4572 C 423.221 -0.353211 1.56873 0
M  V30 4573 O 424.411 -0.14349 1.73608 0
M  V30 4574 C 421.543 -0.168555 3.40483 0
M  V30 4575 H 422.736 1.46021 2.6195 0
M  V30 4576 H 420.289 0.793565 1.34656 0
M  V30 4577 H 421.024 -1.07374 3.06009 0
M  V30 4578 H 420.809 0.494823 3.88965 0
M  V30 4579 H 422.299 -0.460362 4.15055 0
M  V30 4580 N 422.737 -1.36956 0.779787 0
M  V30 4581 C 423.977 -2.01328 0.353043 0
M  V30 4582 C 424.341 -1.60558 -1.05286 0
M  V30 4583 O 425.542 -2.1745 -1.58016 0
M  V30 4584 C 423.813 -3.53874 0.500822 0
M  V30 4585 S 425.372 -4.38506 0.16053 0
M  V30 4586 H 422.19 -0.69799 0.13539 0
M  V30 4587 H 424.792 -1.67016 1.01617 0
M  V30 4588 H 423.496 -3.81034 1.52451 0
M  V30 4589 H 423.027 -3.92994 -0.178574 0
M  V30 4590 H 425.042 -4.85153 -1.04121 0
M  V30 4591 N 424.215 -0.530993 -1.48385 0
M  V30 4592 C 425.145 0.219985 -2.32461 0
M  V30 4593 C 426.126 0.934111 -1.42156 0
M  V30 4594 O 427.311 0.919694 -1.71042 0
M  V30 4595 C 424.441 1.26674 -3.23375 0
M  V30 4596 C 423.395 0.67069 -4.22712 0
M  V30 4597 C 422.721 1.82017 -5.02766 0
M  V30 4598 C 424.021 -0.358268 -5.2107 0
M  V30 4599 H 425.715 -0.48187 -2.95497 0
M  V30 4600 H 423.261 -0.233182 -1.42099 0
M  V30 4601 H 425.214 1.80006 -3.81019 0
M  V30 4602 H 423.938 1.99818 -2.58341 0
M  V30 4603 H 422.597 0.158878 -3.66256 0
M  V30 4604 H 422.245 2.54002 -4.34157 0
M  V30 4605 H 421.945 1.42727 -5.70003 0
M  V30 4606 H 423.469 2.35725 -5.63264 0
M  V30 4607 H 424.883 0.0880081 -5.73232 0
M  V30 4608 H 423.28 -0.66861 -5.96364 0
M  V30 4609 H 424.35 -1.26367 -4.68145 0
M  V30 4610 N 425.693 1.55336 -0.266172 0
M  V30 4611 C 427.104 1.85236 0.233315 0
M  V30 4612 C 427.455 1.18816 1.56132 0
M  V30 4613 O 426.58 0.473307 2.11161 0
M  V30 4614 C 427.175 3.36059 0.430113 0
M  V30 4615 C 425.734 3.66116 0.873842 0
M  V30 4616 C 424.881 2.77274 -0.0380016 0
M  V30 4617 H 427.832 1.51004 -0.488214 0
M  V30 4618 H 427.853 3.58681 1.26998 0
M  V30 4619 H 427.365 3.84373 -0.536588 0
M  V30 4620 H 425.466 3.23295 1.85233 0
M  V30 4621 H 425.579 4.73699 0.717358 0
M  V30 4622 H 423.943 2.50198 0.476759 0
M  V30 4623 H 424.726 3.284 -1.00042 0
M  V30 4624 N 427.171 -0.0066808 1.57599 0
M  V30 4625 C 428.42 -0.692078 1.89455 0
M  V30 4626 C 428.733 -1.75306 0.867586 0
M  V30 4627 O 429.939 -2.49262 1.07614 0
M  V30 4628 C 428.395 -1.2821 3.36289 0
M  V30 4629 C 428.003 -0.256291 4.47266 0
M  V30 4630 C 429.747 -1.94608 3.77264 0
M  V30 4631 C 427.654 -0.855927 5.85173 0
M  V30 4632 H 426.584 -0.262252 0.706923 0
M  V30 4633 H 429.235 0.052769 1.83424 0
M  V30 4634 H 427.617 -2.0774 3.37135 0
M  V30 4635 H 428.791 0.513923 4.57925 0
M  V30 4636 H 427.106 0.306862 4.15268 0
M  V30 4637 H 429.703 -2.40364 4.77629 0
M  V30 4638 H 430.046 -2.77382 3.10427 0
M  V30 4639 H 430.579 -1.21822 3.78688 0
M  V30 4640 H 427.318 -0.0671161 6.55466 0
M  V30 4641 H 426.838 -1.59546 5.78191 0
M  V30 4642 H 428.517 -1.35658 6.32618 0
M  V30 4643 N 428.649 -1.55105 -0.279332 0
M  V30 4644 C 429.926 -1.66119 -1.03267 0
M  V30 4645 C 430.306 -0.523525 -2.04505 0
M  V30 4646 O 429.654 0.477194 -2.23462 0
M  V30 4647 C 429.864 -3.05067 -1.69515 0
M  V30 4648 C 431.212 -3.62606 -2.20912 0
M  V30 4649 O 432.236 -3.07659 -1.79512 0
M  V30 4650 O 431.095 -4.58861 -2.96831 0
M  V30 4651 H 428.189 -0.674429 -0.478618 0
M  V30 4652 H 430.735 -1.67446 -0.275694 0
M  V30 4653 H 429.507 -3.79311 -0.9612 0
M  V30 4654 H 429.13 -3.07611 -2.51915 0
M  V30 4655 N 430.127 0.543554 -1.4793 0
M  V30 4656 C 431.404 1.30458 -1.4574 0
M  V30 4657 C 431.784 2.1048 -0.161692 0
M  V30 4658 O 431.132 2.11831 0.856734 0
M  V30 4659 C 431.342 2.19754 -2.71126 0
M  V30 4660 C 432.69 2.80334 -3.18901 0
M  V30 4661 O 433.714 2.30049 -2.71948 0
M  V30 4662 O 432.573 3.71766 -4.00565 0
M  V30 4663 H 429.667 0.588117 -0.581418 0
M  V30 4664 H 432.213 0.561328 -1.60147 0
M  V30 4665 H 430.985 1.60316 -3.56952 0
M  V30 4666 H 430.608 3.01351 -2.59371 0
M  V30 4667 N 431.605 1.3629 0.791371 0
M  V30 4668 C 432.851 1.30605 1.55146 0
M  V30 4669 C 433.184 -0.115042 1.93859 0
M  V30 4670 O 432.459 -1.06798 1.62556 0
M  V30 4671 C 432.742 2.22692 2.82985 0
M  V30 4672 C 432.595 3.73489 2.50651 0
M  V30 4673 C 433.914 2.13588 3.84796 0
M  V30 4674 H 431.033 0.475761 0.562868 0
M  V30 4675 H 433.675 1.66825 0.909358 0
M  V30 4676 H 431.825 1.91933 3.37778 0
M  V30 4677 H 433.497 4.14758 2.01924 0
M  V30 4678 H 431.74 3.93021 1.83622 0
M  V30 4679 H 432.411 4.3333 3.41949 0
M  V30 4680 H 434.887 2.40659 3.39445 0
M  V30 4681 H 433.763 2.80195 4.71998 0
M  V30 4682 H 434.024 1.12256 4.27611 0
M  V30 4683 N 433.083 -1.0153 1.20538 0
M  V30 4684 C 434.013 -2.11972 0.979295 0
M  V30 4685 C 434.994 -1.6985 -0.0921787 0
M  V30 4686 O 436.179 -1.94089 0.0655932 0
M  V30 4687 C 433.309 -3.43201 0.531984 0
M  V30 4688 C 432.263 -3.9907 1.54685 0
M  V30 4689 C 431.589 -5.26082 0.956127 0
M  V30 4690 C 432.889 -4.32313 2.93092 0
M  V30 4691 H 434.583 -2.31143 1.90298 0
M  V30 4692 H 432.129 -1.11079 0.916372 0
M  V30 4693 H 434.082 -4.1985 0.361044 0
M  V30 4694 H 432.806 -3.23792 -0.427327 0
M  V30 4695 H 431.465 -3.2453 1.70517 0
M  V30 4696 H 431.113 -5.02999 -0.0111538 0
M  V30 4697 H 430.813 -5.64426 1.63393 0
M  V30 4698 H 432.337 -6.05386 0.796284 0
M  V30 4699 H 433.751 -4.99845 2.80763 0
M  V30 4700 H 432.148 -4.81774 3.57791 0
M  V30 4701 H 433.218 -3.41025 3.44717 0
M  V30 4702 N 434.561 -1.01147 -1.20859 0
M  V30 4703 C 435.977 -0.725422 -1.42161 0
M  V30 4704 C 436.177 0.696919 -1.89064 0
M  V30 4705 O 435.233 1.46539 -2.05627 0
M  V30 4706 C 436.546 -1.74678 -2.44761 0
M  V30 4707 C 438.094 -1.76433 -2.58535 0
M  V30 4708 C 438.569 -2.77481 -3.64374 0
M  V30 4709 N 440.06 -2.76189 -3.71852 0
M  V30 4710 C 440.795 -3.51035 -4.53389 0
M  V30 4711 N 440.291 -4.35541 -5.38773 0
M  V30 4712 N 442.084 -3.39655 -4.47873 0
M  V30 4713 H 434.235 -1.92979 -0.887282 0
M  V30 4714 H 436.498 -0.833327 -0.451962 0
M  V30 4715 H 436.204 -2.76551 -2.17285 0
M  V30 4716 H 436.078 -1.55472 -3.43669 0
M  V30 4717 H 438.465 -0.75248 -2.85345 0
M  V30 4718 H 438.546 -1.99712 -1.5984 0
M  V30 4719 H 438.19 -3.78827 -3.38308 0
M  V30 4720 H 438.12 -2.51466 -4.6268 0
M  V30 4721 H 440.611 -2.14885 -3.10858 0
M  V30 4722 H 440.924 -4.89432 -5.98061 0
M  V30 4723 H 439.269 -4.39621 -5.38292 0
M  V30 4724 H 442.46 -2.73063 -3.80203 0
M  V30 4725 H 442.633 -3.9824 -5.11184 0
M  V30 4726 N 436.039 1.36541 -0.78704 0
M  V30 4727 C 437.288 1.98552 -0.35494 0
M  V30 4728 C 437.601 1.63171 1.07864 0
M  V30 4729 O 438.807 2.18399 1.61289 0
M  V30 4730 C 437.263 3.55136 -0.583671 0
M  V30 4731 C 436.871 3.99444 -2.02851 0
M  V30 4732 C 438.615 4.2395 -0.215957 0
M  V30 4733 C 436.522 5.48796 -2.20403 0
M  V30 4734 H 435.452 0.742888 -0.128972 0
M  V30 4735 H 438.103 1.5587 -0.968337 0
M  V30 4736 H 436.485 3.95875 0.0994046 0
M  V30 4737 H 437.659 3.6991 -2.74779 0
M  V30 4738 H 435.974 3.43459 -2.35425 0
M  V30 4739 H 438.571 5.33709 -0.325405 0
M  V30 4740 H 438.914 4.07827 0.835646 0
M  V30 4741 H 439.447 3.88565 -0.852175 0
M  V30 4742 H 436.186 5.69864 -3.23937 0
M  V30 4743 H 435.706 5.79964 -1.52977 0
M  V30 4744 H 437.385 6.14986 -2.01002 0
M  V30 4745 N 437.518 0.538854 1.48102 0
M  V30 4746 C 438.45 -0.256278 2.27763 0
M  V30 4747 C 439.463 -0.89633 1.35904 0
M  V30 4748 O 440.652 -0.773275 1.60881 0
M  V30 4749 C 437.752 -1.37896 3.09577 0
M  V30 4750 C 436.925 -0.839159 4.29275 0
M  V30 4751 C 435.984 -1.84405 4.9283 0
M  V30 4752 O 435.01 -1.39746 5.51779 0
M  V30 4753 N 436.212 -3.17666 4.85869 0
M  V30 4754 H 438.977 0.426968 2.96643 0
M  V30 4755 H 436.538 0.373747 1.57527 0
M  V30 4756 H 438.53 -2.04955 3.48963 0
M  V30 4757 H 437.1 -1.96572 2.4306 0
M  V30 4758 H 436.32 0.00769287 3.94199 0
M  V30 4759 H 437.608 -0.457548 5.06739 0
M  V30 4760 H 437.006 -3.56609 4.39143 0
M  V30 4761 H 435.563 -3.80334 5.29329 0
M  V30 4762 N 438.996 -1.55193 0.274407 0
M  V30 4763 C 439.926 -2.25471 -0.607032 0
M  V30 4764 C 440.907 -1.24461 -1.15946 0
M  V30 4765 O 442.092 -1.53179 -1.19373 0
M  V30 4766 C 439.222 -2.97526 -1.79153 0
M  V30 4767 C 438.176 -4.05459 -1.37067 0
M  V30 4768 C 437.502 -4.65084 -2.6382 0
M  V30 4769 C 438.802 -5.19691 -0.521389 0
M  V30 4770 H 440.496 -2.99393 -0.0209343 0
M  V30 4771 H 438.042 -1.43997 -0.00862866 0
M  V30 4772 H 439.995 -3.45402 -2.41404 0
M  V30 4773 H 438.719 -2.21138 -2.40344 0
M  V30 4774 H 437.378 -3.58393 -0.771355 0
M  V30 4775 H 437.026 -3.85365 -3.23268 0
M  V30 4776 H 436.726 -5.37961 -2.36372 0
M  V30 4777 H 438.25 -5.15708 -3.26921 0
M  V30 4778 H 439.664 -5.63623 -1.04889 0
M  V30 4779 H 438.061 -5.99126 -0.341825 0
M  V30 4780 H 439.131 -4.82713 0.46 0
M  V30 4781 N 440.474 -0.00167713 -1.576 0
M  V30 4782 C 441.404 0.988091 -2.11563 0
M  V30 4783 C 442.385 1.35736 -1.02517 0
M  V30 4784 O 443.57 1.44082 -1.30208 0
M  V30 4785 C 440.7 2.27941 -2.62031 0
M  V30 4786 C 439.654 2.0517 -3.75619 0
M  V30 4787 C 438.98 3.4033 -4.12407 0
M  V30 4788 C 440.28 1.41294 -5.02825 0
M  V30 4789 H 441.974 0.538771 -2.94513 0
M  V30 4790 H 439.52 0.257712 -1.41675 0
M  V30 4791 H 441.473 2.97539 -2.9841 0
M  V30 4792 H 440.197 2.74989 -1.76205 0
M  V30 4793 H 438.856 1.37998 -3.39635 0
M  V30 4794 H 438.504 3.85085 -3.23603 0
M  V30 4795 H 438.204 3.25909 -4.88935 0
M  V30 4796 H 439.728 4.1124 -4.51347 0
M  V30 4797 H 441.142 2.00851 -5.36965 0
M  V30 4798 H 439.539 1.37356 -5.84169 0
M  V30 4799 H 440.609 0.382362 -4.8339 0
M  V30 4800 N 441.952 1.55251 0.271103 0
M  V30 4801 C 442.899 1.88261 1.33516 0
M  V30 4802 C 443.869 0.734296 1.48988 0
M  V30 4803 O 445.054 0.985741 1.63364 0
M  V30 4804 C 442.194 2.16168 2.69008 0
M  V30 4805 C 441.307 3.43678 2.61743 0
M  V30 4806 C 440.442 3.61276 3.89427 0
M  V30 4807 C 439.481 4.82472 3.7668 0
M  V30 4808 N 438.618 4.96717 4.96202 0
M  V30 4809 H 443.458 2.79015 1.04665 0
M  V30 4810 H 440.995 1.38137 0.505618 0
M  V30 4811 H 442.953 2.30349 3.47844 0
M  V30 4812 H 441.583 1.28646 2.96057 0
M  V30 4813 H 440.635 3.37959 1.74607 0
M  V30 4814 H 441.947 4.3265 2.48224 0
M  V30 4815 H 441.101 3.75284 4.76704 0
M  V30 4816 H 439.84 2.70492 4.05814 0
M  V30 4817 H 438.845 4.68465 2.87786 0
M  V30 4818 H 440.07 5.74692 3.61809 0
M  V30 4819 H 438.016 4.08865 5.12997 0
M  V30 4820 H 437.933 5.79738 4.85222 0
M  V30 4821 H 439.201 5.15113 5.85046 0
M  V30 4822 N 443.43 -0.535701 1.48216 0
M  V30 4823 C 444.679 -1.28828 1.55197 0
M  V30 4824 C 444.992 -1.94263 0.228278 0
M  V30 4825 O 446.198 -2.70927 0.176278 0
M  V30 4826 C 444.654 -2.33727 2.73678 0
M  V30 4827 C 444.262 -1.74386 4.12666 0
M  V30 4828 C 446.006 -3.1003 2.89968 0
M  V30 4829 C 443.913 -2.77192 5.22416 0
M  V30 4830 H 442.843 -0.484484 0.577747 0
M  V30 4831 H 445.494 -0.56646 1.74538 0
M  V30 4832 H 443.876 -3.08919 2.4776 0
M  V30 4833 H 445.05 -1.05421 4.48579 0
M  V30 4834 H 443.365 -1.10595 4.01445 0
M  V30 4835 H 445.962 -3.86842 3.6913 0
M  V30 4836 H 446.305 -3.65542 1.9921 0
M  V30 4837 H 446.838 -2.41952 3.15759 0
M  V30 4838 H 443.577 -2.26507 6.15122 0
M  V30 4839 H 443.097 -3.44502 4.90998 0
M  V30 4840 H 444.776 -3.40285 5.50286 0
M  V30 4841 N 444.908 -1.36708 -0.784132 0
M  V30 4842 C 446.156 -1.30972 -1.53918 0
M  V30 4843 C 446.477 0.109086 -1.94695 0
M  V30 4844 O 445.747 1.05048 -1.65353 0
M  V30 4845 H 444.327 -0.481819 -0.570841 0
M  V30 4846 H 446.989 -1.71063 -0.934002 0
M  V30 4847 H 446.085 -1.94061 -2.44431 0
M  V30 4848 N 446.386 1.0089 -1.21074 0
M  V30 4849 C 447.611 1.78727 -1.05221 0
M  V30 4850 C 448.036 1.83932 0.393795 0
M  V30 4851 O 447.394 1.28004 1.28393 0
M  V30 4852 C 447.442 3.20665 -1.64944 0
M  V30 4853 O 446.546 4.02632 -0.892273 0
M  V30 4854 H 445.887 0.550973 -0.370574 0
M  V30 4855 H 448.417 1.26847 -1.60534 0
M  V30 4856 H 448.427 3.71352 -1.69002 0
M  V30 4857 H 447.102 3.16191 -2.70177 0
M  V30 4858 H 445.679 3.61207 -0.926492 0
M  V30 4859 N 447.864 1.01787 1.20321 0
M  V30 4860 C 448.827 0.593972 2.2137 0
M  V30 4861 C 449.827 -0.336553 1.57239 0
M  V30 4862 O 451.017 -0.125069 1.7375 0
M  V30 4863 C 448.149 -0.132433 3.40643 0
M  V30 4864 H 449.342 1.48791 2.60387 0
M  V30 4865 H 446.895 0.807803 1.33807 0
M  V30 4866 H 447.63 -1.04123 3.0713 0
M  V30 4867 H 447.415 0.53605 3.88418 0
M  V30 4868 H 448.905 -0.416314 4.1552 0
M  V30 4869 N 449.342 -1.36122 0.79427 0
M  V30 4870 C 450.591 -1.98361 0.365464 0
M  V30 4871 C 450.904 -1.6374 -1.06997 0
M  V30 4872 O 452.11 -2.19251 -1.60129 0
M  V30 4873 C 450.566 -3.54821 0.602496 0
M  V30 4874 C 450.174 -3.98362 2.04967 0
M  V30 4875 C 451.918 -4.2383 0.238437 0
M  V30 4876 C 449.825 -5.47619 2.2331 0
M  V30 4877 H 448.755 -0.742193 0.13291 0
M  V30 4878 H 451.406 -1.55354 0.976589 0
M  V30 4879 H 449.788 -3.95922 -0.078409 0
M  V30 4880 H 450.962 -3.68447 2.76737 0
M  V30 4881 H 449.277 -3.42206 2.37243 0
M  V30 4882 H 451.874 -5.33529 0.353705 0
M  V30 4883 H 452.217 -4.08264 -0.814006 0
M  V30 4884 H 452.75 -3.88108 0.872769 0
M  V30 4885 H 449.489 -5.68138 3.26955 0
M  V30 4886 H 449.009 -5.79145 1.5605 0
M  V30 4887 H 450.688 -6.13911 2.0426 0
M  V30 4888 N 450.82 -0.546701 -1.47814 0
M  V30 4889 C 451.752 0.244196 -2.27895 0
M  V30 4890 C 452.765 0.88911 -1.36377 0
M  V30 4891 O 453.954 0.764733 -1.61289 0
M  V30 4892 C 451.054 1.36252 -3.10304 0
M  V30 4893 C 450.227 0.816382 -4.29714 0
M  V30 4894 C 449.286 1.81789 -4.93801 0
M  V30 4895 O 448.312 1.36818 -5.52512 0
M  V30 4896 N 449.514 3.15085 -4.87547 0
M  V30 4897 H 452.279 -0.442694 -2.96412 0
M  V30 4898 H 449.84 -0.382095 -1.57327 0
M  V30 4899 H 451.832 2.03102 -3.50045 0
M  V30 4900 H 450.402 1.95281 -2.44099 0
M  V30 4901 H 449.622 -0.0285981 -3.9419 0
M  V30 4902 H 450.91 0.430668 -5.06974 0
M  V30 4903 H 450.308 3.54275 -4.41028 0
M  V30 4904 H 448.865 3.77522 -5.31339 0
M  V30 4905 N 452.299 1.55045 -0.282633 0
M  V30 4906 C 453.715 1.59441 0.0712997 0
M  V30 4907 C 453.915 1.2998 1.53972 0
M  V30 4908 O 452.971 1.06431 2.28973 0
M  V30 4909 C 454.284 2.99097 -0.310104 0
M  V30 4910 C 455.832 3.1194 -0.257343 0
M  V30 4911 C 456.307 4.53875 -0.613297 0
M  V30 4912 N 457.798 4.5974 -0.565134 0
M  V30 4913 C 458.533 5.67603 -0.81326 0
M  V30 4914 N 458.029 6.83582 -1.1264 0
M  V30 4915 N 459.822 5.57187 -0.741553 0
M  V30 4916 H 451.973 1.72458 -1.23984 0
M  V30 4917 H 454.236 0.804549 -0.501403 0
M  V30 4918 H 453.942 3.25516 -1.33163 0
M  V30 4919 H 453.816 3.75616 0.345366 0
M  V30 4920 H 456.203 2.85281 0.754905 0
M  V30 4921 H 456.284 2.37618 -0.947178 0
M  V30 4922 H 455.928 4.81261 -1.62327 0
M  V30 4923 H 455.858 5.26508 0.09841 0
M  V30 4924 H 458.349 3.76427 -0.333294 0
M  V30 4925 H 458.662 7.6175 -1.30219 0
M  V30 4926 H 457.007 6.85179 -1.16425 0
M  V30 4927 H 460.198 4.65457 -0.496705 0
M  V30 4928 H 460.371 6.41171 -0.938306 0
M  V30 4929 N 453.777 0.010035 1.57597 0
M  V30 4930 C 454.707 -0.976857 2.12084 0
M  V30 4931 C 455.688 -1.35191 1.03235 0
M  V30 4932 O 456.873 -1.43389 1.3097 0
M  V30 4933 C 454.003 -2.26548 2.63236 0
M  V30 4934 C 452.957 -2.03175 3.76701 0
M  V30 4935 C 452.283 -3.38138 4.14206 0
M  V30 4936 C 453.583 -1.38625 5.03568 0
M  V30 4937 H 455.277 -0.523145 2.94794 0
M  V30 4938 H 452.823 -0.250195 1.4181 0
M  V30 4939 H 454.776 -2.95952 2.99984 0
M  V30 4940 H 453.5 -2.74051 1.77661 0
M  V30 4941 H 452.159 -1.36195 3.40362 0
M  V30 4942 H 451.807 -3.83363 3.25641 0
M  V30 4943 H 451.507 -3.23312 4.90656 0
M  V30 4944 H 453.031 -4.08841 4.53521 0
M  V30 4945 H 454.445 -1.98 5.38023 0
M  V30 4946 H 452.842 -1.34256 5.84889 0
M  V30 4947 H 453.912 -0.356722 4.83586 0
M  V30 4948 N 455.255 -1.55392 -0.262866 0
M  V30 4949 C 456.671 -1.47459 -0.610582 0
M  V30 4950 C 456.871 -0.697031 -1.8906 0
M  V30 4951 O 455.927 -0.219952 -2.5154 0
M  V30 4952 C 457.24 -2.91751 -0.728131 0
M  V30 4953 C 458.788 -3.02027 -0.821517 0
M  V30 4954 C 459.263 -4.47594 -0.97076 0
M  V30 4955 N 460.754 -4.51465 -1.03603 0
M  V30 4956 C 461.489 -5.61326 -1.17049 0
M  V30 4957 N 460.985 -6.81032 -1.2715 0
M  V30 4958 N 462.778 -5.49089 -1.20239 0
M  V30 4959 H 454.929 -2.04395 0.577632 0
M  V30 4960 H 457.192 -0.927287 0.197086 0
M  V30 4961 H 456.898 -3.51413 0.142132 0
M  V30 4962 H 456.772 -3.4134 -1.6052 0
M  V30 4963 H 459.159 -2.42456 -1.68224 0
M  V30 4964 H 459.24 -2.55674 0.0803688 0
M  V30 4965 H 458.884 -5.07771 -0.114655 0
M  V30 4966 H 458.814 -4.91613 -1.88745 0
M  V30 4967 H 461.305 -3.6524 -0.96996 0
M  V30 4968 H 461.618 -7.60511 -1.37271 0
M  V30 4969 H 459.963 -6.83824 -1.24136 0
M  V30 4970 H 463.154 -4.54507 -1.11985 0
M  V30 4971 H 463.327 -6.34749 -1.30373 0
M  V30 4972 N 456.733 0.527833 -1.48498 0
M  V30 4973 C 457.973 1.29401 -1.58224 0
M  V30 4974 C 458.337 1.90348 -0.251327 0
M  V30 4975 O 459.538 2.67868 -0.223588 0
M  V30 4976 C 457.809 2.35266 -2.69044 0
M  V30 4977 S 459.368 3.2158 -2.98549 0
M  V30 4978 H 456.186 0.440138 -0.558391 0
M  V30 4979 H 458.788 0.601079 -1.8603 0
M  V30 4980 H 457.492 1.88975 -3.64303 0
M  V30 4981 H 457.023 3.09263 -2.43146 0
M  V30 4982 H 459.038 4.35391 -2.38011 0
M  V30 4983 N 458.211 1.37122 0.776871 0
M  V30 4984 C 459.121 1.34651 1.9211 0
M  V30 4985 C 460.137 0.246824 1.7224 0
M  V30 4986 O 461.313 0.48134 1.95563 0
M  V30 4987 C 458.378 1.14748 3.2716 0
M  V30 4988 C 457.439 2.34308 3.5972 0
M  V30 4989 C 456.672 2.15345 4.88326 0
M  V30 4990 O 456.895 1.13507 5.58992 0
M  V30 4991 O 455.829 3.03414 5.1983 0
M  V30 4992 H 459.655 2.31013 1.97146 0
M  V30 4993 H 457.24 1.17799 0.918901 0
M  V30 4994 H 459.122 1.05616 4.0795 0
M  V30 4995 H 457.797 0.214562 3.22988 0
M  V30 4996 H 456.704 2.49011 2.79185 0
M  V30 4997 H 458.037 3.26149 3.68629 0
M  V30 4998 N 459.689 -1.00246 1.21608 0
M  V30 4999 C 460.619 -2.10921 1.00172 0
M  V30 5000 C 461.6 -1.69938 -0.0741587 0
M  V30 5001 O 462.785 -1.94009 0.0861753 0
M  V30 5002 C 459.915 -3.42618 0.568355 0
M  V30 5003 C 458.869 -3.97407 1.58909 0
M  V30 5004 C 458.195 -5.25038 1.01187 0
M  V30 5005 C 459.495 -4.2918 2.97661 0
M  V30 5006 H 461.189 -2.29112 1.92739 0
M  V30 5007 H 458.735 -1.10101 0.928102 0
M  V30 5008 H 460.688 -4.19444 0.405555 0
M  V30 5009 H 459.412 -3.24227 -0.392961 0
M  V30 5010 H 458.071 -3.22703 1.73949 0
M  V30 5011 H 457.719 -5.02982 0.0421965 0
M  V30 5012 H 457.419 -5.62661 1.6937 0
M  V30 5013 H 458.943 -6.04507 0.860448 0
M  V30 5014 H 460.357 -4.96839 2.86049 0
M  V30 5015 H 458.754 -4.77952 3.6288 0
M  V30 5016 H 459.824 -3.3735 3.48315 0
M  V30 5017 N 461.167 -1.02423 -1.1978 0
M  V30 5018 C 462.444 -0.632802 -1.85081 0
M  V30 5019 C 462.824 0.888745 -1.9148 0
M  V30 5020 O 462.172 1.78357 -1.42832 0
M  V30 5021 C 462.382 -1.28947 -3.24305 0
M  V30 5022 C 463.73 -1.40976 -4.00513 0
M  V30 5023 O 464.754 -1.24628 -3.33686 0
M  V30 5024 O 463.613 -1.67467 -5.20209 0
M  V30 5025 H 460.707 -0.219348 -0.79738 0
M  V30 5026 H 463.253 -1.12209 -1.27307 0
M  V30 5027 H 462.025 -2.3288 -3.14456 0
M  V30 5028 H 461.648 -0.787748 -3.89718 0
M  V30 5029 N 462.645 1.35699 -0.801477 0
M  V30 5030 C 463.894 1.98165 -0.375979 0
M  V30 5031 C 464.207 1.64306 1.06127 0
M  V30 5032 O 465.413 2.20097 1.58964 0
M  V30 5033 C 463.869 3.54497 -0.621305 0
M  V30 5034 C 463.477 3.9727 -2.07076 0
M  V30 5035 C 465.221 4.23697 -0.26091 0
M  V30 5036 C 463.128 5.46427 -2.26211 0
M  V30 5037 H 462.058 0.741478 -0.136844 0
M  V30 5038 H 464.709 1.54834 -0.984814 0
M  V30 5039 H 463.091 3.95958 0.0574112 0
M  V30 5040 H 464.265 3.66974 -2.78687 0
M  V30 5041 H 462.58 3.40943 -2.39054 0
M  V30 5042 H 465.177 5.33334 -0.381994 0
M  V30 5043 H 465.52 4.0869 0.792344 0
M  V30 5044 H 466.053 3.87639 -0.893339 0
M  V30 5045 H 462.792 5.66396 -3.29963 0
M  V30 5046 H 462.312 5.78309 -1.59119 0
M  V30 5047 H 463.991 6.12819 -2.07513 0
M  V30 5048 N 464.123 0.554532 1.47522 0
M  V30 5049 C 465.056 -0.242442 2.26908 0
M  V30 5050 C 466.034 -0.922722 1.33883 0
M  V30 5051 O 467.218 -0.942244 1.63261 0
M  V30 5052 C 464.345 -1.34525 3.10839 0
M  V30 5053 C 463.391 -0.773805 4.19422 0
M  V30 5054 S 464.224 0.377525 5.34168 0
M  V30 5055 C 465.38 -0.727164 6.21662 0
M  V30 5056 H 465.613 0.431218 2.94156 0
M  V30 5057 H 463.146 0.3408 1.50592 0
M  V30 5058 H 465.104 -1.97683 3.59766 0
M  V30 5059 H 463.765 -1.99073 2.42958 0
M  V30 5060 H 462.958 -1.60187 4.77866 0
M  V30 5061 H 462.56 -0.218448 3.73361 0
M  V30 5062 H 464.852 -1.61992 6.57849 0
M  V30 5063 H 465.795 -0.180135 7.07871 0
M  V30 5064 H 466.203 -1.01863 5.55233 0
M  V30 5065 N 465.601 -1.54893 0.290851 0
M  V30 5066 C 466.549 -2.24579 -0.605576 0
M  V30 5067 C 467.543 -1.24824 -1.14522 0
M  V30 5068 O 468.749 -1.42706 -1.09704 0
M  V30 5069 H 465.124 -0.720946 -0.213872 0
M  V30 5070 H 467.095 -2.984 0.0048173 0
M  V30 5071 C 465.844 -2.99224 -1.77088 0
M  V30 5072 H 465.167 -3.75782 -1.36484 0
M  V30 5073 H 466.607 -3.51281 -2.3744 0
M  V30 5074 C 465.066 -2.05602 -2.66888 0
M  V30 5075 O 465.596 -1.61745 -3.67698 0
M  V30 5076 N 463.802 -1.71771 -2.34399 0
M  V30 5077 H 463.349 -2.07633 -1.52468 0
M  V30 5078 H 463.307 -1.09403 -2.94751 0
M  V30 5079 N 467.08 -0.0183926 -1.57589 0
M  V30 5080 C 468.027 0.967022 -2.09565 0
M  V30 5081 C 468.997 1.32983 -0.995225 0
M  V30 5082 O 470.182 1.42501 -1.26878 0
M  V30 5083 C 467.322 2.24772 -2.61861 0
M  V30 5084 C 466.435 1.94232 -3.85873 0
M  V30 5085 C 465.57 3.16518 -4.26603 0
M  V30 5086 C 464.609 2.81748 -5.43401 0
M  V30 5087 N 463.746 3.96626 -5.79338 0
M  V30 5088 H 468.586 0.516874 -2.93483 0
M  V30 5089 H 466.123 0.243544 -1.4507 0
M  V30 5090 H 468.081 2.99667 -2.90268 0
M  V30 5091 H 466.711 2.67423 -1.8079 0
M  V30 5092 H 465.763 1.09625 -3.64262 0
M  V30 5093 H 467.075 1.64616 -4.70853 0
M  V30 5094 H 466.229 3.99743 -4.56389 0
M  V30 5095 H 464.968 3.49286 -3.40368 0
M  V30 5096 H 463.973 1.96933 -5.1332 0
M  V30 5097 H 465.198 2.50207 -6.31327 0
M  V30 5098 H 463.144 4.29257 -4.96059 0
M  V30 5099 H 463.061 3.70598 -6.58933 0
M  V30 5100 H 464.329 4.80586 -6.13724 0
M  V30 5101 N 468.558 1.5553 0.254621 0
M  V30 5102 C 469.798 1.7876 0.991179 0
M  V30 5103 C 470.162 0.586669 1.82817 0
M  V30 5104 O 471.363 0.697585 2.5959 0
M  V30 5105 C 469.634 3.06679 1.83529 0
M  V30 5106 S 471.193 3.511 2.632 0
M  V30 5107 H 468.011 0.627916 0.333531 0
M  V30 5108 H 470.613 1.93766 0.259778 0
M  V30 5109 H 469.317 3.92158 1.20996 0
M  V30 5110 H 468.848 2.94388 2.60958 0
M  V30 5111 H 470.863 3.11823 3.8598 0
M  V30 5112 N 470.036 -0.519951 1.48776 0
M  V30 5113 C 471.264 -1.29971 1.60982 0
M  V30 5114 C 471.679 -1.86803 0.273885 0
M  V30 5115 O 471.036 -1.66904 -0.738193 0
M  V30 5116 C 471.087 -2.44346 2.66415 0
M  V30 5117 O 470.808 -1.89855 3.94825 0
M  V30 5118 C 472.309 -3.36014 2.89153 0
M  V30 5119 H 469.529 -0.394891 0.542496 0
M  V30 5120 H 472.073 -0.626214 1.94676 0
M  V30 5121 H 470.228 -3.07562 2.35552 0
M  V30 5122 H 470.642 -2.64798 4.5275 0
M  V30 5123 H 472.116 -4.12593 3.66703 0
M  V30 5124 H 472.593 -3.91859 1.98351 0
M  V30 5125 H 473.199 -2.78582 3.21359 0
M  V30 5126 N 471.514 -1.37532 -0.769588 0
M  V30 5127 C 472.739 -1.36231 -1.56384 0
M  V30 5128 C 473.164 0.0495849 -1.88035 0
M  V30 5129 O 472.522 1.02723 -1.49391 0
M  V30 5130 C 472.57 -2.20986 -2.84952 0
M  V30 5131 O 471.674 -1.61597 -3.79421 0
M  V30 5132 H 471.015 -0.465387 -0.473615 0
M  V30 5133 H 473.545 -1.81085 -0.952342 0
M  V30 5134 H 473.555 -2.34277 -3.34034 0
M  V30 5135 H 472.23 -3.23612 -2.61243 0
M  V30 5136 H 470.807 -1.57359 -3.38072 0
M  V30 5137 N 472.992 0.995999 -1.22138 0
M  V30 5138 C 473.922 2.10387 -1.01289 0
M  V30 5139 C 474.903 1.69975 0.0651454 0
M  V30 5140 O 476.088 1.9396 -0.0964628 0
M  V30 5141 C 473.218 3.42312 -0.586517 0
M  V30 5142 C 472.172 3.96558 -1.61014 0
M  V30 5143 C 471.498 5.24494 -1.0397 0
M  V30 5144 C 472.798 4.27595 -2.99933 0
M  V30 5145 H 474.492 2.28086 -1.93951 0
M  V30 5146 H 472.038 1.09607 -0.933928 0
M  V30 5147 H 473.991 4.19223 -0.427793 0
M  V30 5148 H 472.715 3.24431 0.375761 0
M  V30 5149 H 471.374 3.21776 -1.75658 0
M  V30 5150 H 471.022 5.02953 -0.0688703 0
M  V30 5151 H 470.722 5.61755 -1.72352 0
M  V30 5152 H 472.246 6.04042 -0.892494 0
M  V30 5153 H 473.66 4.95315 -2.8868 0
M  V30 5154 H 472.057 4.76021 -3.6541 0
M  V30 5155 H 473.127 3.35498 -3.50099 0
M  V30 5156 N 474.47 1.03057 1.19235 0
M  V30 5157 C 475.71 0.736757 1.9066 0
M  V30 5158 C 476.074 -0.721521 1.77927 0
M  V30 5159 O 477.275 -1.12849 2.43964 0
M  V30 5160 C 475.546 1.17755 3.37444 0
M  V30 5161 S 477.105 1.00783 4.27069 0
M  V30 5162 H 473.923 0.268174 0.658486 0
M  V30 5163 H 476.525 1.32076 1.4414 0
M  V30 5164 H 475.229 2.23448 3.44237 0
M  V30 5165 H 474.76 0.586912 3.88997 0
M  V30 5166 H 476.775 -0.0806356 4.96134 0
M  V30 5167 N 475.948 -1.35272 0.808662 0
M  V30 5168 C 477.188 -2.00534 0.395668 0
M  V30 5169 C 477.552 -1.62755 -1.01857 0
M  V30 5170 O 478.753 -2.20752 -1.53368 0
M  V30 5171 C 477.024 -3.52732 0.575771 0
M  V30 5172 S 478.583 -4.38067 0.253507 0
M  V30 5173 H 475.401 -0.694962 0.150165 0
M  V30 5174 H 478.003 -1.64823 1.05137 0
M  V30 5175 H 476.707 -3.77714 1.60499 0
M  V30 5176 H 476.238 -3.93285 -0.0951739 0
M  V30 5177 H 478.253 -4.87252 -0.938068 0
M  V30 5178 N 477.426 -0.562348 -1.47226 0
M  V30 5179 C 478.373 0.182461 -2.30078 0
M  V30 5180 C 479.343 0.903503 -1.39377 0
M  V30 5181 O 480.528 0.898188 -1.68337 0
M  V30 5182 C 477.668 1.20322 -3.23445 0
M  V30 5183 C 476.781 0.487717 -4.29238 0
M  V30 5184 C 475.916 1.49422 -5.09752 0
M  V30 5185 C 474.955 0.763976 -6.07314 0
M  V30 5186 N 474.092 1.71755 -6.80768 0
M  V30 5187 H 478.932 -0.530169 -2.93246 0
M  V30 5188 H 476.469 -0.273276 -1.44539 0
M  V30 5189 H 478.427 1.80768 -3.76004 0
M  V30 5190 H 477.057 1.88382 -2.6213 0
M  V30 5191 H 476.109 -0.231374 -3.79696 0
M  V30 5192 H 477.421 -0.0841003 -4.98729 0
M  V30 5193 H 476.575 2.17206 -5.66486 0
M  V30 5194 H 475.314 2.09995 -4.40174 0
M  V30 5195 H 474.319 0.0722344 -5.49753 0
M  V30 5196 H 475.544 0.16391 -6.78902 0
M  V30 5197 H 473.49 2.31177 -6.13916 0
M  V30 5198 H 473.407 1.19802 -7.46447 0
M  V30 5199 H 474.675 2.38638 -7.42073 0
M  V30 5200 N 478.904 1.54736 -0.299062 0
M  V30 5201 C 479.836 2.20891 0.61153 0
M  V30 5202 C 480.849 1.20104 1.09904 0
M  V30 5203 O 482.038 1.46707 1.01683 0
M  V30 5204 C 479.138 2.84018 1.84897 0
M  V30 5205 C 478.311 4.10719 1.50428 0
M  V30 5206 C 477.37 4.57667 2.59667 0
M  V30 5207 O 476.396 5.2291 2.24842 0
M  V30 5208 N 477.598 4.29821 3.90172 0
M  V30 5209 H 480.363 2.99666 0.0452001 0
M  V30 5210 H 477.924 1.61446 -0.121178 0
M  V30 5211 H 479.916 3.1236 2.5732 0
M  V30 5212 H 478.486 2.09095 2.32375 0
M  V30 5213 H 477.706 3.89408 0.612781 0
M  V30 5214 H 478.994 4.93223 1.24934 0
M  V30 5215 H 478.392 3.77549 4.21276 0
M  V30 5216 H 476.949 4.62877 4.58899 0
M  V30 5217 N 480.382 0.0267497 1.57577 0
M  V30 5218 C 481.622 -0.65659 1.93567 0
M  V30 5219 C 481.986 -1.69429 0.903213 0
M  V30 5220 O 483.187 -2.42994 1.14923 0
M  V30 5221 C 481.458 -1.25912 3.34486 0
M  V30 5222 S 483.017 -1.96386 3.924 0
M  V30 5223 H 479.835 -0.216237 0.67732 0
M  V30 5224 H 482.437 0.0898475 1.95293 0
M  V30 5225 H 481.141 -0.491405 4.07447 0
M  V30 5226 H 480.672 -2.04291 3.36198 0
M  V30 5227 H 482.687 -3.24202 3.75643 0
M  V30 5228 N 481.861 -1.55662 -0.24637 0
M  V30 5229 C 482.793 -1.86811 -1.32794 0
M  V30 5230 C 483.806 -0.754413 -1.44265 0
M  V30 5231 O 484.995 -1.03253 -1.45606 0
M  V30 5232 C 482.095 -2.0397 -2.70646 0
M  V30 5233 C 481.268 -3.34832 -2.81436 0
M  V30 5234 C 480.327 -3.41727 -4.00136 0
M  V30 5235 O 479.353 -4.14934 -3.89639 0
M  V30 5236 N 480.555 -2.71058 -5.1333 0
M  V30 5237 H 483.32 -2.80174 -1.06409 0
M  V30 5238 H 480.881 -1.55906 -0.43647 0
M  V30 5239 H 482.873 -2.05924 -3.48393 0
M  V30 5240 H 481.443 -1.1735 -2.89738 0
M  V30 5241 H 480.663 -3.4519 -1.90361 0
M  V30 5242 H 481.951 -4.21085 -2.85595 0
M  V30 5243 H 481.349 -2.11314 -5.2475 0
M  V30 5244 H 479.906 -2.78704 -5.89209 0
M  V30 5245 N 483.339 0.512053 -1.4905 0
M  V30 5246 C 484.249 1.64139 -1.67617 0
M  V30 5247 C 485.265 1.64786 -0.558701 0
M  V30 5248 O 486.441 1.8341 -0.832034 0
M  V30 5249 C 483.506 3.00548 -1.72835 0
M  V30 5250 C 482.567 3.10615 -2.96339 0
M  V30 5251 C 481.8 4.40517 -3.01298 0
M  V30 5252 O 482.023 5.28671 -2.14157 0
M  V30 5253 O 480.957 4.55325 -3.93653 0
M  V30 5254 H 484.783 1.51407 -2.63267 0
M  V30 5255 H 482.368 0.687131 -1.32661 0
M  V30 5256 H 484.25 3.81641 -1.78683 0
M  V30 5257 H 482.925 3.13566 -0.803616 0
M  V30 5258 H 481.832 2.2875 -2.96014 0
M  V30 5259 H 483.165 3.0252 -3.88256 0
M  V30 5260 N 484.817 1.37938 0.762283 0
M  V30 5261 C 486.045 1.36883 1.55147 0
M  V30 5262 C 486.46 -0.0435348 1.8875 0
M  V30 5263 O 485.817 -1.00786 1.52146 0
M  V30 5264 C 485.868 2.21624 2.85596 0
M  V30 5265 O 485.589 3.57358 2.5343 0
M  V30 5266 C 487.09 2.28653 3.7978 0
M  V30 5267 H 484.31 0.468521 0.480343 0
M  V30 5268 H 486.854 1.81404 0.944079 0
M  V30 5269 H 485.009 1.80588 3.42734 0
M  V30 5270 H 485.423 4.01883 3.37032 0
M  V30 5271 H 486.897 2.9225 4.68288 0
M  V30 5272 H 487.374 1.29767 4.19592 0
M  V30 5273 H 487.98 2.70043 3.28568 0
M  V30 5274 N 486.295 -0.989507 1.22664 0
M  V30 5275 C 487.205 -2.11449 1.01619 0
M  V30 5276 C 488.221 -1.73962 -0.036545 0
M  V30 5277 O 489.397 -2.00788 0.156924 0
M  V30 5278 C 486.462 -3.41465 0.600204 0
M  V30 5279 C 485.523 -3.93033 1.72695 0
M  V30 5280 C 484.756 -5.16844 1.33071 0
M  V30 5281 O 484.979 -5.7001 0.210975 0
M  V30 5282 O 483.913 -5.6225 2.14845 0
M  V30 5283 H 487.739 -2.32088 1.9588 0
M  V30 5284 H 485.324 -1.09823 1.01289 0
M  V30 5285 H 487.206 -4.19695 0.37873 0
M  V30 5286 H 485.881 -3.22178 -0.313511 0
M  V30 5287 H 484.788 -3.15961 2.00298 0
M  V30 5288 H 486.121 -4.16758 2.61865 0
M  V30 5289 N 487.773 -1.03688 -1.18687 0
M  V30 5290 C 489.022 -0.733235 -1.879 0
M  V30 5291 C 489.335 0.741745 -1.8099 0
M  V30 5292 O 490.541 1.15875 -2.4553 0
M  V30 5293 C 488.997 -1.26127 -3.37076 0
M  V30 5294 C 488.605 -2.76461 -3.52524 0
M  V30 5295 C 490.349 -1.03398 -4.11715 0
M  V30 5296 C 488.256 -3.22642 -4.95637 0
M  V30 5297 H 487.186 -0.270584 -0.703776 0
M  V30 5298 H 489.837 -1.25222 -1.34133 0
M  V30 5299 H 488.219 -0.670165 -3.90288 0
M  V30 5300 H 489.393 -3.41296 -3.09602 0
M  V30 5301 H 487.708 -2.97559 -2.91286 0
M  V30 5302 H 490.305 -1.3542 -5.17267 0
M  V30 5303 H 490.648 0.0289246 -4.1629 0
M  V30 5304 H 491.181 -1.5895 -3.64664 0
M  V30 5305 H 487.92 -4.28296 -4.96228 0
M  V30 5306 H 487.44 -2.62539 -5.39289 0
M  V30 5307 H 489.119 -3.16444 -5.64333 0
M  V30 5308 N 489.251 1.34841 -0.815825 0
M  V30 5309 C 490.479 2.0273 -0.413294 0
M  V30 5310 C 490.894 1.61459 0.978599 0
M  V30 5311 O 490.251 0.816584 1.63212 0
M  V30 5312 C 490.302 3.58058 -0.497676 0
M  V30 5313 O 490.023 3.97832 -1.8347 0
M  V30 5314 C 491.524 4.4321 -0.0891339 0
M  V30 5315 H 488.744 0.649956 -0.166728 0
M  V30 5316 H 491.288 1.72267 -1.10201 0
M  V30 5317 H 489.443 3.87136 0.142886 0
M  V30 5318 H 489.857 4.92501 -1.80396 0
M  V30 5319 H 491.331 5.5164 -0.199274 0
M  V30 5320 H 491.808 4.28432 0.966571 0
M  V30 5321 H 492.414 4.19446 -0.703214 0
M  V30 5322 N 490.729 0.570148 1.46925 0
M  V30 5323 C 491.957 0.0561966 2.06824 0
M  V30 5324 C 492.372 -1.24326 1.42086 0
M  V30 5325 O 491.729 -1.74882 0.521794 0
M  V30 5326 C 491.78 -0.129517 3.61268 0
M  V30 5327 O 491.501 1.1185 4.23581 0
M  V30 5328 C 493.002 -0.679266 4.38065 0
M  V30 5329 H 490.222 0.0517261 0.669003 0
M  V30 5330 H 492.766 0.787243 1.8874 0
M  V30 5331 H 490.921 -0.810739 3.78822 0
M  V30 5332 H 491.335 0.924375 5.1629 0
M  V30 5333 H 492.809 -0.758445 5.46765 0
M  V30 5334 H 493.286 -1.69346 4.05239 0
M  V30 5335 H 493.892 -0.0333237 4.25287 0
M  V30 5336 N 492.207 -1.54576 0.307264 0
M  V30 5337 C 493.154 -2.23751 -0.56604 0
M  V30 5338 C 494.124 -1.22235 -1.12462 0
M  V30 5339 O 495.309 -1.50873 -1.16799 0
M  V30 5340 C 492.449 -2.98661 -1.72903 0
M  V30 5341 C 491.562 -4.14963 -1.20124 0
M  V30 5342 C 490.697 -4.77441 -2.3286 0
M  V30 5343 C 489.736 -5.85875 -1.77247 0
M  V30 5344 N 488.873 -6.42282 -2.8358 0
M  V30 5345 H 493.713 -2.97984 0.0304578 0
M  V30 5346 H 491.25 -1.47076 0.0268015 0
M  V30 5347 H 493.208 -3.40329 -2.41313 0
M  V30 5348 H 491.838 -2.26793 -2.29706 0
M  V30 5349 H 490.89 -3.78193 -0.409198 0
M  V30 5350 H 492.202 -4.93066 -0.754171 0
M  V30 5351 H 491.356 -5.21993 -3.09205 0
M  V30 5352 H 490.095 -3.98684 -2.80896 0
M  V30 5353 H 489.1 -5.40741 -0.993926 0
M  V30 5354 H 490.325 -6.6652 -1.30107 0
M  V30 5355 H 488.271 -5.66406 -3.30939 0
M  V30 5356 H 488.188 -7.1575 -2.43388 0
M  V30 5357 H 489.456 -6.91492 -3.59804 0
M  V30 5358 N 493.685 -0.035106 -1.57561 0
M  V30 5359 C 494.633 0.962707 -2.11742 0
M  V30 5360 C 495.627 1.33296 -1.0454 0
M  V30 5361 O 496.833 1.31449 -1.22968 0
M  V30 5362 H 493.208 0.32826 -0.676572 0
M  V30 5363 H 495.179 0.48048 -2.94506 0
M  V30 5364 C 493.928 2.23388 -2.66445 0
M  V30 5365 H 493.251 1.95774 -3.48587 0
M  V30 5366 H 494.691 2.91402 -3.07995 0
M  V30 5367 C 493.15 2.96769 -1.59467 0
M  V30 5368 O 493.68 3.89105 -0.998 0
M  V30 5369 N 491.886 2.59212 -1.31369 0
M  V30 5370 H 491.433 1.84202 -1.80076 0
M  V30 5371 H 491.391 3.08618 -0.600173 0
M  V30 5372 N 495.163 1.55791 0.238111 0
M  V30 5373 C 496.073 1.94196 1.31625 0
M  V30 5374 C 497.089 0.843545 1.52185 0
M  V30 5375 O 498.265 1.1457 1.65637 0
M  V30 5376 C 495.33 2.2365 2.64918 0
M  V30 5377 C 494.391 3.46971 2.52804 0
M  V30 5378 C 493.624 3.7501 3.79741 0
M  V30 5379 O 493.847 3.04982 4.82019 0
M  V30 5380 O 492.781 4.68525 3.77846 0
M  V30 5381 H 496.607 2.86044 1.02043 0
M  V30 5382 H 494.192 1.42786 0.439603 0
M  V30 5383 H 496.074 2.43863 3.4367 0
M  V30 5384 H 494.749 1.34979 2.94215 0
M  V30 5385 H 493.656 3.32055 1.72309 0
M  V30 5386 H 494.989 4.35971 2.28451 0
M  V30 5387 N 496.642 -0.504142 1.49319 0
M  V30 5388 C 497.891 -1.25507 1.57895 0
M  V30 5389 C 498.204 -1.93735 0.269433 0
M  V30 5390 O 499.41 -2.70492 0.233706 0
M  V30 5391 C 497.866 -2.27869 2.78574 0
M  V30 5392 C 497.474 -1.65594 4.16272 0
M  V30 5393 C 499.218 -3.0381 2.96479 0
M  V30 5394 C 497.125 -2.66048 5.28178 0
M  V30 5395 H 496.055 -0.47212 0.587894 0
M  V30 5396 H 498.706 -0.52931 1.757 0
M  V30 5397 H 497.088 -3.03594 2.54257 0
M  V30 5398 H 498.262 -0.958826 4.50714 0
M  V30 5399 H 496.577 -1.02055 4.037 0
M  V30 5400 H 499.174 -3.78925 3.77253 0
M  V30 5401 H 499.517 -3.61235 2.06918 0
M  V30 5402 H 500.05 -2.352 3.20821 0
M  V30 5403 H 496.789 -2.13408 6.19788 0
M  V30 5404 H 496.309 -3.34009 4.98195 0
M  V30 5405 H 497.988 -3.28536 5.57381 0
M  V30 5406 N 498.12 -1.38341 -0.754957 0
M  V30 5407 C 499.367 -1.34473 -1.51404 0
M  V30 5408 C 499.695 0.0656458 -1.94389 0
M  V30 5409 O 498.95 1.04244 -1.65625 0
M  V30 5410 C 499.249 -2.2452 -2.78075 0
M  V30 5411 C 498.915 -3.72512 -2.54059 0
M  V30 5412 C 497.577 -4.1284 -2.47218 0
M  V30 5413 C 499.929 -4.66197 -2.33044 0
M  V30 5414 C 497.257 -5.44945 -2.17376 0
M  V30 5415 C 499.609 -5.98558 -2.04723 0
M  V30 5416 C 498.273 -6.37972 -1.96337 0
M  V30 5417 H 497.543 -0.492072 -0.554027 0
M  V30 5418 H 500.19 -1.70687 -0.868223 0
M  V30 5419 H 498.495 -1.81357 -3.473 0
M  V30 5420 H 500.192 -2.18832 -3.36026 0
M  V30 5421 H 496.782 -3.40538 -2.60253 0
M  V30 5422 H 500.966 -4.35888 -2.37309 0
M  V30 5423 H 496.222 -5.74426 -2.09391 0
M  V30 5424 H 500.396 -6.70693 -1.87465 0
M  V30 5425 H 498.023 -7.40258 -1.72978 0
M  V30 5426 N 499.598 0.982988 -1.23187 0
M  V30 5427 C 500.823 1.76455 -1.08988 0
M  V30 5428 C 501.248 1.84726 0.354691 0
M  V30 5429 O 500.606 1.30699 1.25649 0
M  V30 5430 C 500.654 3.17094 -1.71708 0
M  V30 5431 O 499.758 4.00648 -0.977477 0
M  V30 5432 H 499.099 0.542988 -0.382177 0
M  V30 5433 H 501.629 1.23413 -1.63188 0
M  V30 5434 H 501.639 3.67684 -1.76841 0
M  V30 5435 H 500.314 3.10389 -2.76823 0
M  V30 5436 H 498.891 3.59161 -1.0029 0
M  V30 5437 N 501.076 1.04316 1.18135 0
M  V30 5438 C 502.006 0.657299 2.24058 0
M  V30 5439 C 502.987 -0.340678 1.66654 0
M  V30 5440 O 504.172 -0.220223 1.92947 0
M  V30 5441 C 501.302 0.0220715 3.47293 0
M  V30 5442 C 500.256 0.943857 4.17463 0
M  V30 5443 C 499.582 0.172973 5.3442 0
M  V30 5444 C 500.882 2.26409 4.70677 0
M  V30 5445 H 502.576 1.5428 2.56589 0
M  V30 5446 H 500.122 0.743263 1.23335 0
M  V30 5447 H 502.075 -0.259607 4.206 0
M  V30 5448 H 500.799 -0.898323 3.14003 0
M  V30 5449 H 499.458 1.20996 3.46057 0
M  V30 5450 H 499.106 -0.749907 4.97379 0
M  V30 5451 H 498.806 0.787098 5.82304 0
M  V30 5452 H 500.33 -0.101628 6.10515 0
M  V30 5453 H 501.744 2.04294 5.35665 0
M  V30 5454 H 500.141 2.8314 5.29105 0
M  V30 5455 H 501.211 2.90883 3.87962 0
M  V30 5456 N 502.554 -1.34406 0.822964 0
M  V30 5457 C 503.779 -2.0304 0.423034 0
M  V30 5458 C 504.204 -1.61568 -0.963196 0
M  V30 5459 O 503.562 -0.800339 -1.62678 0
M  V30 5460 C 503.61 -3.56636 0.53321 0
M  V30 5461 O 502.714 -4.09971 -0.446939 0
M  V30 5462 H 502.055 -0.64075 0.174171 0
M  V30 5463 H 504.585 -1.71653 1.11339 0
M  V30 5464 H 504.595 -4.05945 0.408991 0
M  V30 5465 H 503.27 -3.86168 1.54425 0
M  V30 5466 H 501.847 -3.71835 -0.281601 0
M  V30 5467 N 504.032 -0.577932 -1.46621 0
M  V30 5468 C 504.962 0.145917 -2.33044 0
M  V30 5469 C 505.943 0.888412 -1.45056 0
M  V30 5470 O 507.128 0.864812 -1.73881 0
M  V30 5471 C 504.258 1.16322 -3.27241 0
M  V30 5472 C 503.212 0.535868 -4.24632 0
M  V30 5473 C 502.538 1.65929 -5.08303 0
M  V30 5474 C 503.838 -0.523861 -5.19666 0
M  V30 5475 H 505.532 -0.575636 -2.93814 0
M  V30 5476 H 503.078 -0.278272 -1.41286 0
M  V30 5477 H 505.031 1.67793 -3.86553 0
M  V30 5478 H 503.755 1.91498 -2.64567 0
M  V30 5479 H 502.414 0.0422759 -3.66576 0
M  V30 5480 H 502.062 2.40061 -4.42018 0
M  V30 5481 H 501.762 1.2452 -5.74255 0
M  V30 5482 H 503.286 2.17686 -5.70478 0
M  V30 5483 H 504.7 -0.0944059 -5.73222 0
M  V30 5484 H 503.097 -0.858 -5.93935 0
M  V30 5485 H 504.167 -1.41197 -4.63887 0
M  V30 5486 N 505.51 1.54411 -0.315457 0
M  V30 5487 C 506.75 2.02329 0.290236 0
M  V30 5488 C 507.114 1.19878 1.49977 0
M  V30 5489 O 508.315 1.57562 2.17779 0
M  V30 5490 C 506.586 3.51912 0.623937 0
M  V30 5491 S 508.145 4.21775 1.21044 0
M  V30 5492 H 504.963 0.705499 0.0882739 0
M  V30 5493 H 507.565 1.90328 -0.446694 0
M  V30 5494 H 506.269 4.09546 -0.264624 0
M  V30 5495 H 505.8 3.67977 1.39128 0
M  V30 5496 H 507.815 4.28757 2.49764 0
M  V30 5497 N 506.988 0.0434614 1.5754 0
M  V30 5498 C 508.236 -0.630786 1.92004 0
M  V30 5499 C 508.557 -1.71836 0.921807 0
M  V30 5500 O 507.827 -1.9587 -0.034522 0
M  V30 5501 H 506.407 -0.235988 0.708745 0
M  V30 5502 H 509.069 0.0946462 1.9467 0
M  V30 5503 H 508.165 -1.07434 2.93026 0
M  V30 5504 N 508.466 -1.55915 -0.229846 0
M  V30 5505 C 509.877 -1.68809 -0.797531 0
M  V30 5506 C 510.228 -0.643995 -1.8533 0
M  V30 5507 O 509.353 0.206492 -2.15413 0
M  V30 5508 C 509.948 -3.06043 -1.45338 0
M  V30 5509 C 508.507 -3.20819 -1.96856 0
M  V30 5510 C 507.654 -2.6472 -0.825736 0
M  V30 5511 H 510.605 -1.58699 -0.00533733 0
M  V30 5512 H 510.626 -3.01438 -2.32196 0
M  V30 5513 H 510.138 -3.82012 -0.684743 0
M  V30 5514 H 508.239 -2.49704 -2.76548 0
M  V30 5515 H 508.352 -4.27937 -2.15423 0
M  V30 5516 H 506.716 -2.22985 -1.23084 0
M  V30 5517 H 507.499 -3.43229 -0.0699019 0
M  V30 5518 N 509.944 0.496216 -1.49584 0
M  V30 5519 C 510.877 1.61508 -1.61215 0
M  V30 5520 C 511.855 1.55927 -0.461045 0
M  V30 5521 O 513.039 1.75914 -0.677231 0
M  V30 5522 C 510.166 3.00035 -1.57152 0
M  V30 5523 C 509.212 3.23861 -2.77518 0
M  V30 5524 S 510.045 3.06466 -4.39134 0
M  V30 5525 C 511.201 4.4738 -4.37724 0
M  V30 5526 H 511.434 1.51398 -2.55863 0
M  V30 5527 H 508.967 0.681727 -1.38535 0
M  V30 5528 H 510.925 3.7991 -1.55494 0
M  V30 5529 H 509.586 3.07556 -0.637834 0
M  V30 5530 H 508.779 4.25 -2.70908 0
M  V30 5531 H 508.381 2.51716 -2.76614 0
M  V30 5532 H 510.673 5.39556 -4.09738 0
M  V30 5533 H 511.616 4.59038 -5.39156 0
M  V30 5534 H 512.024 4.28283 -3.67742 0
M  V30 5535 N 511.423 1.38739 0.74761 0
M  V30 5536 C 512.386 1.36241 1.84312 0
M  V30 5537 C 513.386 0.261811 1.58654 0
M  V30 5538 O 514.576 0.519031 1.66288 0
M  V30 5539 C 511.708 1.12253 3.21888 0
M  V30 5540 H 512.901 2.33712 1.87933 0
M  V30 5541 H 510.454 1.2412 0.949946 0
M  V30 5542 H 511.189 0.154133 3.23934 0
M  V30 5543 H 510.974 1.91943 3.41907 0
M  V30 5544 H 512.464 1.13215 4.0196 0
M  V30 5545 N 512.901 -0.976442 1.23707 0
M  V30 5546 C 513.864 -2.0511 1.02287 0
M  V30 5547 C 514.864 -1.60791 -0.0167195 0
M  V30 5548 O 516.054 -1.72761 0.223408 0
M  V30 5549 C 513.186 -3.36458 0.548507 0
M  V30 5550 H 514.379 -2.25545 1.9766 0
M  V30 5551 H 511.932 -1.15042 1.05806 0
M  V30 5552 H 512.667 -3.21713 -0.408818 0
M  V30 5553 H 512.452 -3.69967 1.29874 0
M  V30 5554 H 513.942 -4.15489 0.419406 0
M  V30 5555 N 514.379 -1.04941 -1.1758 0
M  V30 5556 C 515.609 -0.777166 -1.91425 0
M  V30 5557 C 516.017 0.670647 -1.76915 0
M  V30 5558 O 515.36 1.46965 -1.10213 0
M  V30 5559 C 515.422 -1.07495 -3.43052 0
M  V30 5560 C 515.086 -2.51844 -3.81345 0
M  V30 5561 C 516.083 -3.50047 -3.844 0
M  V30 5562 C 513.768 -2.86787 -4.12382 0
M  V30 5563 C 515.762 -4.81239 -4.17957 0
M  V30 5564 C 513.449 -4.18182 -4.45608 0
M  V30 5565 C 514.447 -5.15219 -4.48373 0
M  V30 5566 O 514.135 -6.44258 -4.80819 0
M  V30 5567 H 513.867 -0.282209 -0.614275 0
M  V30 5568 H 516.421 -1.40258 -1.50056 0
M  V30 5569 H 514.651 -0.392437 -3.84704 0
M  V30 5570 H 516.34 -0.78912 -3.98155 0
M  V30 5571 H 517.106 -3.24391 -3.60548 0
M  V30 5572 H 512.985 -2.11922 -4.09402 0
M  V30 5573 H 516.529 -5.56974 -4.2003 0
M  V30 5574 H 512.426 -4.43602 -4.68922 0
M  V30 5575 H 513.194 -6.49041 -4.98686 0
M  V30 5576 N 515.857 1.33968 -0.830081 0
M  V30 5577 C 517.103 1.98357 -0.422191 0
M  V30 5578 C 517.436 1.65633 1.01387 0
M  V30 5579 O 516.711 0.931648 1.70735 0
M  V30 5580 C 516.994 3.54492 -0.633043 0
M  V30 5581 C 516.847 3.96934 -2.11574 0
M  V30 5582 C 518.166 4.40039 -0.0735584 0
M  V30 5583 H 515.285 0.720544 -0.154871 0
M  V30 5584 H 517.927 1.58749 -1.04397 0
M  V30 5585 H 516.077 3.88361 -0.103775 0
M  V30 5586 H 517.749 3.73363 -2.7092 0
M  V30 5587 H 515.992 3.46984 -2.60354 0
M  V30 5588 H 516.663 5.05651 -2.21406 0
M  V30 5589 H 519.139 4.12764 -0.52585 0
M  V30 5590 H 518.015 5.48327 -0.250841 0
M  V30 5591 H 518.276 4.30124 1.02202 0
M  V30 5592 N 517.335 0.585699 1.46312 0
M  V30 5593 C 518.283 -0.158577 2.32059 0
M  V30 5594 C 519.277 -0.881427 1.44662 0
M  V30 5595 O 520.483 -0.799476 1.61271 0
M  V30 5596 H 516.858 -0.0700066 0.748734 0
M  V30 5597 H 518.829 0.583383 2.92642 0
M  V30 5598 C 517.578 -1.15701 3.27885 0
M  V30 5599 H 516.901 -0.610215 3.95116 0
M  V30 5600 H 518.341 -1.64812 3.90657 0
M  V30 5601 C 516.8 -2.21951 2.53455 0
M  V30 5602 O 517.33 -3.29352 2.29978 0
M  V30 5603 N 515.536 -1.9664 2.13965 0
M  V30 5604 H 515.083 -1.09309 2.33258 0
M  V30 5605 H 515.041 -2.6794 1.64485 0
M  V30 5606 N 518.813 -1.54241 0.323641 0
M  V30 5607 C 520.224 -1.85975 -0.164405 0
M  V30 5608 C 520.575 -1.24529 -1.51615 0
M  V30 5609 O 519.7 -0.551351 -2.09258 0
M  V30 5610 C 520.295 -3.37424 -0.305091 0
M  V30 5611 C 518.854 -3.69107 -0.737358 0
M  V30 5612 C 518.001 -2.76942 0.140884 0
M  V30 5613 H 520.952 -1.49088 0.543922 0
M  V30 5614 H 520.973 -3.63147 -1.13598 0
M  V30 5615 H 520.485 -3.82116 0.678876 0
M  V30 5616 H 518.586 -3.29947 -1.73107 0
M  V30 5617 H 518.699 -4.76035 -0.541053 0
M  V30 5618 H 517.063 -2.51795 -0.383572 0
M  V30 5619 H 517.846 -3.24461 1.12162 0
M  V30 5620 N 520.291 -0.0518155 -1.57515 0
M  V30 5621 C 521.241 0.932017 -2.0808 0
M  V30 5622 C 522.225 1.27141 -0.986098 0
M  V30 5623 O 523.417 1.25373 -1.24943 0
M  V30 5624 C 520.546 2.20665 -2.62986 0
M  V30 5625 C 519.632 1.89462 -3.79427 0
M  V30 5626 N 520.023 1.28621 -4.89173 0
M  V30 5627 C 518.321 2.19327 -3.88345 0
M  V30 5628 C 519.022 1.15062 -5.70207 0
M  V30 5629 N 517.998 1.65372 -5.17835 0
M  V30 5630 H 521.8 0.456964 -2.90326 0
M  V30 5631 H 519.314 0.152619 -1.61681 0
M  V30 5632 H 521.311 2.92044 -2.97516 0
M  V30 5633 H 519.971 2.68776 -1.8218 0
M  V30 5634 H 520.982 0.958341 -5.08956 0
M  V30 5635 H 517.659 2.69955 -3.18482 0
M  V30 5636 H 519.049 0.678243 -6.68468 0
M  V30 5637 N 521.769 1.56035 0.221574 0
M  V30 5638 C 523.017 1.78693 0.944102 0
M  V30 5639 C 523.338 0.620317 1.8487 0
M  V30 5640 O 522.608 -0.362784 1.92512 0
M  V30 5641 H 521.188 0.659082 0.351597 0
M  V30 5642 H 523.85 1.93497 0.233435 0
M  V30 5643 H 522.946 2.70837 1.55093 0
M  V30 5644 N 523.247 -0.488276 1.49845 0
M  V30 5645 C 524.477 -1.26344 1.63465 0
M  V30 5646 C 524.885 -1.86637 0.310379 0
M  V30 5647 O 524.228 -1.69184 -0.715712 0
M  V30 5648 C 524.29 -2.42407 2.65479 0
M  V30 5649 C 523.954 -2.02886 4.09495 0
M  V30 5650 C 524.951 -1.56124 4.95904 0
M  V30 5651 C 522.636 -2.12131 4.55308 0
M  V30 5652 C 524.63 -1.19129 6.26169 0
M  V30 5653 C 522.317 -1.74747 5.85582 0
M  V30 5654 C 523.315 -1.28322 6.70837 0
M  V30 5655 O 523.003 -0.914491 7.98682 0
M  V30 5656 H 522.735 -0.388921 0.552916 0
M  V30 5657 H 525.289 -0.591288 1.96705 0
M  V30 5658 H 523.519 -3.12739 2.27445 0
M  V30 5659 H 525.208 -3.04409 2.68495 0
M  V30 5660 H 525.974 -1.48417 4.61733 0
M  V30 5661 H 521.853 -2.47217 3.89107 0
M  V30 5662 H 525.397 -0.828211 6.92666 0
M  V30 5663 H 521.294 -1.82109 6.19279 0
M  V30 5664 H 522.062 -1.04485 8.11804 0
M  V30 5665 N 524.725 -1.39134 -0.740242 0
M  V30 5666 C 525.971 -1.36273 -1.50192 0
M  V30 5667 C 526.304 0.0430136 -1.94152 0
M  V30 5668 O 525.579 1.00691 -1.66408 0
M  V30 5669 C 525.862 -2.33041 -2.74525 0
M  V30 5670 C 525.715 -3.82535 -2.36617 0
M  V30 5671 C 527.034 -2.27723 -3.76604 0
M  V30 5672 H 524.153 -0.496323 -0.544823 0
M  V30 5673 H 526.795 -1.70085 -0.846815 0
M  V30 5674 H 524.945 -2.04337 -3.30422 0
M  V30 5675 H 526.617 -4.21967 -1.86391 0
M  V30 5676 H 524.86 -3.99565 -1.68909 0
M  V30 5677 H 525.531 -4.45723 -3.2563 0
M  V30 5678 H 528.007 -2.53091 -3.30279 0
M  V30 5679 H 526.883 -2.97519 -4.61274 0
M  V30 5680 H 527.144 -1.28049 -4.2315 0
M  V30 5681 N 526.204 0.969867 -1.24223 0
M  V30 5682 C 527.154 2.04913 -0.999732 0
M  V30 5683 C 528.138 1.60795 0.0580636 0
M  V30 5684 O 529.33 1.76317 -0.155392 0
M  V30 5685 C 526.459 3.37942 -0.604154 0
M  V30 5686 C 525.545 3.88628 -1.69791 0
M  V30 5687 N 525.936 4.12274 -2.93025 0
M  V30 5688 C 524.234 4.17268 -1.57492 0
M  V30 5689 C 524.935 4.53808 -3.63914 0
M  V30 5690 N 523.911 4.58855 -2.91468 0
M  V30 5691 H 527.713 2.21168 -1.93551 0
M  V30 5692 H 525.227 1.15349 -1.14317 0
M  V30 5693 H 527.224 4.14863 -0.411665 0
M  V30 5694 H 525.884 3.23075 0.324465 0
M  V30 5695 H 526.895 3.99789 -3.29225 0
M  V30 5696 H 523.572 4.11346 -0.714175 0
M  V30 5697 H 524.962 4.80534 -4.69614 0
M  V30 5698 N 527.682 1.05563 1.17022 0
M  V30 5699 C 528.592 0.670758 2.24807 0
M  V30 5700 C 529.608 -0.309865 1.71219 0
M  V30 5701 O 530.784 -0.161025 2.00755 0
M  V30 5702 C 527.849 0.055337 3.46656 0
M  V30 5703 C 526.91 1.08688 4.15314 0
M  V30 5704 C 526.143 0.500736 5.31346 0
M  V30 5705 O 526.366 -0.688718 5.66227 0
M  V30 5706 O 525.3 1.23683 5.89055 0
M  V30 5707 H 529.126 1.56914 2.60023 0
M  V30 5708 H 526.711 0.827428 1.24395 0
M  V30 5709 H 528.593 -0.286492 4.20425 0
M  V30 5710 H 527.268 -0.816638 3.13229 0
M  V30 5711 H 526.175 1.48077 3.43546 0
M  V30 5712 H 527.508 1.93014 4.52777 0
M  V30 5713 N 529.16 -1.33526 0.837174 0
M  V30 5714 C 530.388 -2.02047 0.445494 0
M  V30 5715 C 530.803 -1.62995 -0.952788 0
M  V30 5716 O 530.16 -0.842447 -1.61892 0
M  V30 5717 C 530.211 -3.57221 0.554577 0
M  V30 5718 O 529.932 -3.94863 1.89776 0
M  V30 5719 C 531.433 -4.43012 0.159634 0
M  V30 5720 H 528.653 -0.647221 0.177048 0
M  V30 5721 H 531.197 -1.70492 1.12928 0
M  V30 5722 H 529.352 -3.87315 -0.0812781 0
M  V30 5723 H 529.766 -4.89569 1.88208 0
M  V30 5724 H 531.24 -5.51253 0.28701 0
M  V30 5725 H 531.717 -4.29916 -0.898289 0
M  V30 5726 H 532.323 -4.18274 0.769855 0
M  V30 5727 N 530.638 -0.59345 -1.46 0
M  V30 5728 C 531.568 0.121192 -2.33185 0
M  V30 5729 C 532.549 0.872977 -1.4599 0
M  V30 5730 O 533.734 0.846321 -1.74789 0
M  V30 5731 C 530.864 1.12844 -3.28456 0
M  V30 5732 C 529.818 0.4908 -4.25177 0
M  V30 5733 C 529.144 1.60529 -5.10034 0
M  V30 5734 C 530.444 -0.578949 -5.19081 0
M  V30 5735 H 532.138 -0.606767 -2.93187 0
M  V30 5736 H 529.684 -0.293242 -1.40983 0
M  V30 5737 H 531.637 1.63684 -3.88311 0
M  V30 5738 H 530.361 1.88681 -2.66584 0
M  V30 5739 H 529.02 0.00339328 -3.666 0
M  V30 5740 H 528.668 2.35359 -4.44539 0
M  V30 5741 H 528.368 1.18422 -5.75543 0
M  V30 5742 H 529.892 2.11623 -5.72755 0
M  V30 5743 H 531.306 -0.155199 -5.7309 0
M  V30 5744 H 529.703 -0.920947 -5.92991 0
M  V30 5745 H 530.773 -1.46109 -4.62364 0
M  V30 5746 N 532.116 1.54067 -0.331816 0
M  V30 5747 C 533.344 2.05131 0.269996 0
M  V30 5748 C 533.759 1.20749 1.45138 0
M  V30 5749 O 533.116 0.240069 1.80914 0
M  V30 5750 C 533.167 3.54728 0.696456 0
M  V30 5751 O 532.888 4.35906 -0.43794 0
M  V30 5752 C 534.389 4.21916 1.36021 0
M  V30 5753 H 531.609 0.668807 0.0542042 0
M  V30 5754 H 534.153 1.98777 -0.4804 0
M  V30 5755 H 532.308 3.61342 1.39681 0
M  V30 5756 H 532.722 5.24404 -0.100334 0
M  V30 5757 H 534.196 5.28015 1.60947 0
M  V30 5758 H 534.673 3.73538 2.31011 0
M  V30 5759 H 535.279 4.19463 0.702212 0
M  V30 5760 N 533.594 0.0601682 1.57485 0
M  V30 5761 C 534.84 -0.612501 1.93329 0
M  V30 5762 C 535.173 -1.6996 0.939526 0
M  V30 5763 O 534.448 -1.94472 -0.0330957 0
M  V30 5764 C 534.731 -1.20025 3.39508 0
M  V30 5765 C 534.584 -0.12059 4.49638 0
M  V30 5766 C 535.903 -2.10923 3.86264 0
M  V30 5767 H 533.022 -0.221185 0.703027 0
M  V30 5768 H 535.664 0.123768 1.89596 0
M  V30 5769 H 533.814 -1.82774 3.42821 0
M  V30 5770 H 535.486 0.51185 4.58452 0
M  V30 5771 H 533.729 0.550251 4.30296 0
M  V30 5772 H 534.4 -0.572019 5.49028 0
M  V30 5773 H 536.876 -1.58124 3.84884 0
M  V30 5774 H 535.752 -2.48987 4.8918 0
M  V30 5775 H 536.013 -3.01292 3.23536 0
M  V30 5776 N 535.072 -1.5615 -0.213296 0
M  V30 5777 C 536.302 -1.83372 -0.951757 0
M  V30 5778 C 536.71 -0.638158 -1.78113 0
M  V30 5779 O 536.053 0.402609 -1.79234 0
M  V30 5780 C 536.115 -3.04444 -1.91192 0
M  V30 5781 C 535.779 -4.39107 -1.26627 0
M  V30 5782 C 536.776 -5.15794 -0.652087 0
M  V30 5783 C 534.461 -4.85834 -1.27556 0
M  V30 5784 C 536.455 -6.37376 -0.055814 0
M  V30 5785 C 534.142 -6.07356 -0.675451 0
M  V30 5786 C 535.14 -6.82967 -0.0666367 0
M  V30 5787 O 534.828 -8.0219 0.524119 0
M  V30 5788 H 534.56 -0.613398 -0.284111 0
M  V30 5789 H 537.114 -2.04096 -0.231112 0
M  V30 5790 H 535.344 -2.79559 -2.67178 0
M  V30 5791 H 537.033 -3.18466 -2.51662 0
M  V30 5792 H 537.799 -4.80796 -0.637172 0
M  V30 5793 H 533.678 -4.26949 -1.73883 0
M  V30 5794 H 537.222 -6.96334 0.420004 0
M  V30 5795 H 533.119 -6.41825 -0.687806 0
M  V30 5796 H 533.887 -8.17426 0.419243 0
M  V30 5797 N 536.55 0.480323 -1.50102 0
M  V30 5798 C 537.497 1.57946 -1.6829 0
M  V30 5799 C 538.467 1.57611 -0.524223 0
M  V30 5800 O 539.652 1.75282 -0.753709 0
M  V30 5801 C 536.792 2.95978 -1.77457 0
M  V30 5802 C 535.905 3.06173 -3.04766 0
M  V30 5803 C 535.04 4.35063 -3.04784 0
M  V30 5804 C 534.079 4.38966 -4.26586 0
M  V30 5805 N 533.216 5.59314 -4.24396 0
M  V30 5806 H 538.056 1.41743 -2.62131 0
M  V30 5807 H 535.593 0.689304 -1.2995 0
M  V30 5808 H 537.551 3.76011 -1.80752 0
M  V30 5809 H 536.181 3.10837 -0.870637 0
M  V30 5810 H 535.233 2.19071 -3.10986 0
M  V30 5811 H 536.545 3.04916 -3.9475 0
M  V30 5812 H 535.699 5.23436 -3.06757 0
M  V30 5813 H 534.438 4.38915 -2.12614 0
M  V30 5814 H 533.443 3.48992 -4.24835 0
M  V30 5815 H 534.668 4.36813 -5.19972 0
M  V30 5816 H 532.614 5.63969 -3.35074 0
M  V30 5817 H 532.531 5.5976 -5.08138 0
M  V30 5818 H 533.799 6.49837 -4.30502 0
M  V30 5819 N 538.028 1.39524 0.732853 0
M  V30 5820 C 538.991 1.38189 1.82857 0
M  V30 5821 C 539.991 0.278624 1.58368 0
M  V30 5822 O 541.181 0.536639 1.65728 0
M  V30 5823 C 538.313 1.15661 3.2068 0
M  V30 5824 H 539.506 2.35692 1.85444 0
M  V30 5825 H 537.059 1.2512 0.936728 0
M  V30 5826 H 537.794 0.188482 3.23752 0
M  V30 5827 H 537.579 1.95559 3.39852 0
M  V30 5828 H 539.069 1.17472 4.00737 0
M  V30 5829 N 539.506 -0.963266 1.24736 0
M  V30 5830 C 540.746 -1.72172 1.10165 0
M  V30 5831 C 541.11 -1.88731 -0.352784 0
M  V30 5832 O 542.311 -2.61549 -0.620107 0
M  V30 5833 C 540.582 -3.0724 1.82589 0
M  V30 5834 S 542.141 -3.98449 1.83803 0
M  V30 5835 H 538.959 -0.591901 0.393922 0
M  V30 5836 H 541.561 -1.14955 1.58132 0
M  V30 5837 H 540.265 -2.92851 2.87518 0
M  V30 5838 H 539.796 -3.69521 1.34973 0
M  V30 5839 H 541.811 -4.87805 0.908883 0
M  V30 5840 N 540.985 -1.06182 -1.16461 0
M  V30 5841 C 541.933 -0.665716 -2.2287 0
M  V30 5842 C 542.927 0.317822 -1.66392 0
M  V30 5843 O 544.133 0.182807 -1.79069 0
M  V30 5844 H 540.508 -0.197148 -0.725697 0
M  V30 5845 H 542.479 -1.57307 -2.53569 0
M  V30 5846 C 541.228 -0.0669803 -3.47635 0
M  V30 5847 H 540.551 -0.814899 -3.91407 0
M  V30 5848 H 541.991 0.172669 -4.23648 0
M  V30 5849 C 540.45 1.18913 -3.15216 0
M  V30 5850 O 540.98 2.27723 -3.30916 0
M  V30 5851 N 539.186 1.09066 -2.69357 0
M  V30 5852 H 538.733 0.20518 -2.56782 0
M  V30 5853 H 538.691 1.93195 -2.48039 0
M  V30 5854 N 542.463 1.3308 -0.844243 0
M  V30 5855 C 543.393 2.3161 -0.296493 0
M  V30 5856 C 544.374 1.59215 0.598707 0
M  V30 5857 O 545.559 1.87077 0.521134 0
M  V30 5858 C 542.689 3.43313 0.524762 0
M  V30 5859 C 541.643 4.27115 -0.275106 0
M  V30 5860 C 540.969 5.30483 0.670236 0
M  V30 5861 C 542.269 5.00443 -1.49514 0
M  V30 5862 H 543.963 2.77672 -1.11976 0
M  V30 5863 H 541.509 1.33496 -0.539899 0
M  V30 5864 H 543.462 4.11273 0.918298 0
M  V30 5865 H 542.186 2.95952 1.3813 0
M  V30 5866 H 540.845 3.60787 -0.650267 0
M  V30 5867 H 540.493 4.79379 1.52332 0
M  V30 5868 H 540.193 5.87435 0.139123 0
M  V30 5869 H 541.717 6.01308 1.06117 0
M  V30 5870 H 543.131 5.61141 -1.17447 0
M  V30 5871 H 541.528 5.67071 -1.96343 0
M  V30 5872 H 542.598 4.28906 -2.26202 0
M  V30 5873 N 543.941 0.601185 1.45683 0
M  V30 5874 C 544.889 -0.133955 2.32214 0
M  V30 5875 C 545.883 -0.866034 1.45589 0
M  V30 5876 O 547.089 -0.782326 1.6211 0
M  V30 5877 H 543.464 -0.0620613 0.749435 0
M  V30 5878 H 545.435 0.614389 2.92007 0
M  V30 5879 C 544.184 -1.12216 3.29094 0
M  V30 5880 H 543.507 -0.568273 3.95741 0
M  V30 5881 H 544.947 -1.60659 3.92383 0
M  V30 5882 C 543.406 -2.19251 2.55794 0
M  V30 5883 O 543.936 -3.26894 2.33459 0
M  V30 5884 N 542.142 -1.9436 2.16039 0
M  V30 5885 H 541.689 -1.06829 2.34404 0
M  V30 5886 H 541.647 -2.66181 1.67318 0
M  V30 5887 N 545.419 -1.53889 0.339982 0
M  V30 5888 C 546.349 -2.27843 -0.510856 0
M  V30 5889 C 547.33 -1.29267 -1.10563 0
M  V30 5890 O 548.515 -1.58104 -1.12768 0
M  V30 5891 C 545.645 -3.04857 -1.66372 0
M  V30 5892 C 544.599 -4.10907 -1.19746 0
M  V30 5893 C 543.925 -4.75855 -2.43857 0
M  V30 5894 C 545.225 -5.21435 -0.300501 0
M  V30 5895 H 546.919 -2.99212 0.106067 0
M  V30 5896 H 544.465 -1.43904 0.0524533 0
M  V30 5897 H 546.418 -3.5533 -2.26537 0
M  V30 5898 H 545.142 -2.31133 -2.30749 0
M  V30 5899 H 543.801 -3.61342 -0.618654 0
M  V30 5900 H 543.449 -3.9873 -3.06633 0
M  V30 5901 H 543.149 -5.47502 -2.13343 0
M  V30 5902 H 544.673 -5.2911 -3.04754 0
M  V30 5903 H 546.087 -5.67565 -0.80889 0
M  V30 5904 H 544.484 -6.00036 -0.0874076 0
M  V30 5905 H 545.554 -4.80328 0.664321 0
M  V30 5906 N 546.897 -0.0685191 -1.57451 0
M  V30 5907 C 548.146 0.600898 -1.92541 0
M  V30 5908 C 548.459 1.70967 -0.950239 0
M  V30 5909 O 549.665 2.43844 -1.19384 0
M  V30 5910 C 548.121 1.12019 -3.42023 0
M  V30 5911 C 547.729 0.0426028 -4.4798 0
M  V30 5912 C 549.473 1.76386 -3.86119 0
M  V30 5913 C 547.38 0.575759 -5.88591 0
M  V30 5914 H 546.31 0.228225 -0.71863 0
M  V30 5915 H 548.961 -0.140223 -1.82963 0
M  V30 5916 H 547.343 1.91418 -3.46663 0
M  V30 5917 H 548.517 -0.73182 -4.54952 0
M  V30 5918 H 546.832 -0.504642 -4.13331 0
M  V30 5919 H 549.429 2.17302 -4.88553 0
M  V30 5920 H 549.772 2.62255 -3.23308 0
M  V30 5921 H 550.305 1.03615 -3.84069 0
M  V30 5922 H 547.044 -0.245691 -6.55039 0
M  V30 5923 H 546.564 1.31778 -5.85145 0
M  V30 5924 H 548.243 1.0532 -6.3837 0
M  V30 5925 N 548.375 1.56261 0.205012 0
M  V30 5926 C 549.623 1.79684 0.925096 0
M  V30 5927 C 549.944 0.63989 1.84202 0
M  V30 5928 O 549.214 -0.342345 1.92885 0
M  V30 5929 H 547.794 0.662774 0.344587 0
M  V30 5930 H 550.456 1.93734 0.212899 0
M  V30 5931 H 549.552 2.72467 1.52211 0
M  V30 5932 N 549.853 -0.472356 1.50355 0
M  V30 5933 C 551.269 -0.806001 1.37753 0
M  V30 5934 C 551.469 -1.968 0.432649 0
M  V30 5935 O 550.525 -2.52189 -0.12519 0
M  V30 5936 C 551.838 -1.11926 2.79093 0
M  V30 5937 C 553.386 -1.22579 2.87999 0
M  V30 5938 C 553.861 -1.57218 4.3017 0
M  V30 5939 N 555.352 -1.64212 4.33115 0
M  V30 5940 C 556.087 -1.92517 5.40116 0
M  V30 5941 N 555.583 -2.1885 6.57325 0
M  V30 5942 N 557.376 -1.94008 5.27558 0
M  V30 5943 H 549.527 0.293451 2.10363 0
M  V30 5944 H 551.79 0.0687672 0.945503 0
M  V30 5945 H 551.496 -0.338504 3.50067 0
M  V30 5946 H 551.37 -2.05577 3.16256 0
M  V30 5947 H 553.757 -1.99722 2.17245 0
M  V30 5948 H 553.838 -0.269107 2.54381 0
M  V30 5949 H 553.482 -0.806154 5.01461 0
M  V30 5950 H 553.412 -2.54034 4.61275 0
M  V30 5951 H 555.903 -1.45906 3.48597 0
M  V30 5952 H 556.216 -2.39718 7.3468 0
M  V30 5953 H 554.561 -2.16245 6.60502 0
M  V30 5954 H 557.752 -1.72931 4.34986 0
M  V30 5955 H 557.925 -2.15731 6.11035 0
M  V30 5956 N 551.331 -1.39911 -0.725443 0
M  V30 5957 C 552.742 -1.33599 -1.30415 0
M  V30 5958 C 553.093 -0.00481792 -1.96199 0
M  V30 5959 O 552.218 0.897275 -1.96921 0
M  V30 5960 C 552.813 -2.41965 -2.37146 0
M  V30 5961 C 551.372 -2.39144 -2.90667 0
M  V30 5962 C 550.519 -2.23355 -1.64341 0
M  V30 5963 H 553.47 -1.4986 -0.522267 0
M  V30 5964 H 553.491 -2.09304 -3.17761 0
M  V30 5965 H 553.003 -3.38837 -1.89238 0
M  V30 5966 H 551.104 -1.4594 -3.4283 0
M  V30 5967 H 551.217 -3.34362 -3.43131 0
M  V30 5968 H 549.581 -1.70696 -1.89037 0
M  V30 5969 H 550.364 -3.2221 -1.18471 0
M  V30 5970 N 552.809 0.956637 -1.25245 0
M  V30 5971 C 554.034 1.74104 -1.12706 0
M  V30 5972 C 554.459 1.85436 0.315429 0
M  V30 5973 O 553.817 1.33334 1.22848 0
M  V30 5974 C 553.865 3.1338 -1.78396 0
M  V30 5975 O 552.969 3.98485 -1.06224 0
M  V30 5976 H 552.31 0.53476 -0.393609 0
M  V30 5977 H 554.84 1.19924 -1.65769 0
M  V30 5978 H 554.85 3.6385 -1.846 0
M  V30 5979 H 553.525 3.04448 -2.83345 0
M  V30 5980 H 552.102 3.56952 -1.07886 0
M  V30 5981 N 554.287 1.06798 1.15896 0
M  V30 5982 C 555.515 0.808694 1.90441 0
M  V30 5983 C 555.93 -0.637506 1.77711 0
M  V30 5984 O 555.287 -1.43684 1.12522 0
M  V30 5985 C 555.338 1.20068 3.40978 0
M  V30 5986 O 555.059 2.59013 3.53333 0
M  V30 5987 C 556.56 0.96987 4.3256 0
M  V30 5988 H 553.78 0.292809 0.603742 0
M  V30 5989 H 556.324 1.42296 1.46874 0
M  V30 5990 H 554.479 0.630842 3.82229 0
M  V30 5991 H 554.893 2.7485 4.46719 0
M  V30 5992 H 556.367 1.29371 5.36626 0
M  V30 5993 H 556.844 -0.0941209 4.39099 0
M  V30 5994 H 557.45 1.52433 3.97044 0
M  V30 5995 N 555.766 -1.3263 0.851289 0
M  V30 5996 C 556.676 -2.32722 0.296268 0
M  V30 5997 C 557.692 -1.63901 -0.584162 0
M  V30 5998 O 558.868 -1.95465 -0.485334 0
M  V30 5999 C 555.933 -3.42942 -0.509103 0
M  V30 6000 C 554.994 -4.2746 0.397069 0
M  V30 6001 C 554.227 -5.32416 -0.36996 0
M  V30 6002 O 554.45 -5.47491 -1.6003 0
M  V30 6003 O 553.384 -6.01327 0.262493 0
M  V30 6004 H 557.21 -2.82078 1.12543 0
M  V30 6005 H 554.795 -1.36194 0.614135 0
M  V30 6006 H 556.677 -4.1017 -0.96634 0
M  V30 6007 H 555.352 -2.95781 -1.31512 0
M  V30 6008 H 554.259 -3.63053 0.902411 0
M  V30 6009 H 555.592 -4.78136 1.16818 0
M  V30 6010 N 557.244 -0.608902 -1.45362 0
M  V30 6011 C 558.194 0.130616 -2.27626 0
M  V30 6012 C 559.178 0.837323 -1.37396 0
M  V30 6013 O 560.37 0.727096 -1.61376 0
M  V30 6014 C 557.499 1.12646 -3.24293 0
M  V30 6015 C 556.585 0.42052 -4.2201 0
M  V30 6016 N 556.976 -0.538569 -5.02925 0
M  V30 6017 C 555.274 0.667901 -4.40971 0
M  V30 6018 C 555.975 -0.953625 -5.7383 0
M  V30 6019 N 554.951 -0.297097 -5.42788 0
M  V30 6020 H 558.753 -0.605996 -2.87585 0
M  V30 6021 H 556.267 -0.432672 -1.5653 0
M  V30 6022 H 558.264 1.67066 -3.81961 0
M  V30 6023 H 556.924 1.86361 -2.65894 0
M  V30 6024 H 557.935 -0.915375 -5.09746 0
M  V30 6025 H 554.612 1.38963 -3.93695 0
M  V30 6026 H 556.002 -1.74473 -6.48852 0
M  V30 6027 N 558.722 1.53707 -0.348139 0
M  V30 6028 C 559.947 2.05877 0.250883 0
M  V30 6029 C 560.372 1.22115 1.43072 0
M  V30 6030 O 559.73 0.235986 1.79758 0
M  V30 6031 C 559.778 3.54886 0.639416 0
M  V30 6032 O 558.882 3.73948 1.73888 0
M  V30 6033 H 558.223 0.662754 0.040653 0
M  V30 6034 H 560.753 1.98303 -0.503685 0
M  V30 6035 H 560.763 3.97601 0.915295 0
M  V30 6036 H 559.438 4.153 -0.223386 0
M  V30 6037 H 558.015 3.43134 1.45991 0
M  V30 6038 N 560.2 0.0768682 1.57412 0
M  V30 6039 C 561.446 -0.585926 1.94778 0
M  V30 6040 C 561.801 -1.66912 0.956982 0
M  V30 6041 O 561.094 -1.9159 -0.0199454 0
M  V30 6042 C 561.288 -1.20268 3.36557 0
M  V30 6043 C 561.117 -0.18076 4.49337 0
M  V30 6044 C 559.887 0.236362 5.04747 0
M  V30 6045 C 562.085 0.583978 5.10974 0
M  V30 6046 N 560.067 1.24846 6.01071 0
M  V30 6047 C 561.438 1.44841 6.02844 0
M  V30 6048 C 563.493 0.639492 4.93776 0
M  V30 6049 C 562.196 2.36343 6.79363 0
M  V30 6050 C 564.222 1.54204 5.70942 0
M  V30 6051 C 563.584 2.39414 6.62465 0
M  V30 6052 H 559.683 -0.185281 0.759734 0
M  V30 6053 H 562.267 0.155193 1.9408 0
M  V30 6054 H 560.438 -1.9137 3.37982 0
M  V30 6055 H 562.17 -1.82636 3.61146 0
M  V30 6056 H 558.925 -0.14777 4.73369 0
M  V30 6057 H 559.349 1.75217 6.53933 0
M  V30 6058 H 563.991 -0.00510074 4.228 0
M  V30 6059 H 561.709 3.01836 7.49614 0
M  V30 6060 H 565.295 1.5899 5.59655 0
M  V30 6061 H 564.175 3.0812 7.21132 0
M  V30 6062 N 561.678 -1.56367 -0.196722 0
M  V30 6063 C 562.925 -1.80529 -0.917366 0
M  V30 6064 C 563.253 -0.649817 -1.83324 0
M  V30 6065 O 562.508 0.36451 -1.92275 0
M  V30 6066 C 562.807 -3.10663 -1.767 0
M  V30 6067 C 562.473 -4.3962 -1.00225 0
M  V30 6068 C 561.135 -4.74653 -0.791095 0
M  V30 6069 C 563.487 -5.1913 -0.464035 0
M  V30 6070 C 560.815 -5.86692 -0.0302155 0
M  V30 6071 C 563.167 -6.31964 0.283625 0
M  V30 6072 C 561.831 -6.65581 0.505813 0
M  V30 6073 H 561.101 -0.660602 -0.335688 0
M  V30 6074 H 563.748 -1.90615 -0.183844 0
M  V30 6075 H 562.053 -2.95807 -2.56915 0
M  V30 6076 H 563.75 -3.26563 -2.32718 0
M  V30 6077 H 560.34 -4.12127 -1.17684 0
M  V30 6078 H 564.524 -4.9248 -0.614575 0
M  V30 6079 H 559.78 -6.11211 0.151917 0
M  V30 6080 H 563.954 -6.92791 0.708057 0
M  V30 6081 H 561.581 -7.52239 1.0973 0
M  V30 6082 N 563.156 0.464375 -1.50603 0
M  V30 6083 C 564.567 1.04507 -1.5471 0
M  V30 6084 C 564.918 1.9297 -0.354542 0
M  V30 6085 O 564.043 2.09763 0.531812 0
M  V30 6086 C 564.638 1.90207 -2.80369 0
M  V30 6087 C 563.197 2.43373 -2.87135 0
M  V30 6088 C 562.344 1.21886 -2.49076 0
M  V30 6089 H 565.295 0.246716 -1.56771 0
M  V30 6090 H 565.316 2.75353 -2.62604 0
M  V30 6091 H 564.828 1.25796 -3.67147 0
M  V30 6092 H 562.929 3.11318 -2.04724 0
M  V30 6093 H 563.042 2.7802 -3.90181 0
M  V30 6094 H 561.406 1.55575 -2.01664 0
M  V30 6095 H 562.189 0.591268 -3.3817 0
M  V30 6096 N 564.634 1.40294 0.718013 0
M  V30 6097 C 565.882 1.38167 1.47494 0
M  V30 6098 C 566.203 -0.01607 1.94993 0
M  V30 6099 O 565.473 -0.970396 1.70177 0
M  V30 6100 H 564.053 0.508505 0.547203 0
M  V30 6101 H 566.715 1.75324 0.851322 0
M  V30 6102 H 565.811 2.05503 2.34894 0
M  V30 6103 N 566.112 -0.949982 1.2575 0
M  V30 6104 C 567.342 -1.72721 1.13363 0
M  V30 6105 C 567.75 -1.86562 -0.314842 0
M  V30 6106 O 567.093 -1.36621 -1.22803 0
M  V30 6107 C 567.155 -3.15695 1.7198 0
M  V30 6108 C 566.819 -3.25268 3.21014 0
M  V30 6109 C 567.816 -3.09222 4.17945 0
M  V30 6110 C 565.501 -3.4894 3.61312 0
M  V30 6111 C 567.495 -3.16701 5.53154 0
M  V30 6112 C 565.182 -3.56055 4.96657 0
M  V30 6113 C 566.18 -3.3995 5.92387 0
M  V30 6114 O 565.868 -3.46757 7.25269 0
M  V30 6115 H 565.6 -0.547888 0.395973 0
M  V30 6116 H 568.154 -1.20009 1.66694 0
M  V30 6117 H 566.384 -3.69791 1.13101 0
M  V30 6118 H 568.073 -3.75295 1.54624 0
M  V30 6119 H 568.839 -2.90798 3.88151 0
M  V30 6120 H 564.718 -3.60534 2.87291 0
M  V30 6121 H 568.262 -3.04048 6.27854 0
M  V30 6122 H 564.159 -3.73997 5.26115 0
M  V30 6123 H 564.927 -3.63358 7.33426 0
M  V30 6124 N 567.59 -1.07411 -1.15328 0
M  V30 6125 C 568.553 -0.698914 -2.18284 0
M  V30 6126 C 569.553 0.261149 -1.58665 0
M  V30 6127 O 570.743 0.0420277 -1.74149 0
M  V30 6128 C 567.875 -0.0302427 -3.40887 0
M  V30 6129 H 569.068 -1.61045 -2.52991 0
M  V30 6130 H 566.621 -0.870724 -1.298 0
M  V30 6131 H 567.356 0.893505 -3.11748 0
M  V30 6132 H 567.141 -0.720759 -3.85419 0
M  V30 6133 H 568.631 0.21759 -4.17033 0
M  V30 6134 N 569.068 1.32177 -0.85831 0
M  V30 6135 C 570.314 1.97813 -0.47346 0
M  V30 6136 C 570.669 1.66674 0.961122 0
M  V30 6137 O 569.962 0.94657 1.66585 0
M  V30 6138 C 570.156 3.51372 -0.653658 0
M  V30 6139 C 569.985 3.97433 -2.1042 0
M  V30 6140 C 568.755 4.24338 -2.74345 0
M  V30 6141 C 570.953 4.12233 -3.0752 0
M  V30 6142 N 568.935 4.56672 -4.10272 0
M  V30 6143 C 570.306 4.48146 -4.28445 0
M  V30 6144 C 572.361 3.94577 -3.03667 0
M  V30 6145 C 571.064 4.68246 -5.4602 0
M  V30 6146 C 573.09 4.15864 -4.20489 0
M  V30 6147 C 572.452 4.52098 -5.40173 0
M  V30 6148 H 568.551 0.749808 -0.222061 0
M  V30 6149 H 571.135 1.59927 -1.11047 0
M  V30 6150 H 569.306 3.88372 -0.0463267 0
M  V30 6151 H 571.038 4.03998 -0.238343 0
M  V30 6152 H 567.793 4.16544 -2.25362 0
M  V30 6153 H 568.217 4.77019 -4.80398 0
M  V30 6154 H 572.859 3.65662 -2.12252 0
M  V30 6155 H 570.577 4.96014 -6.37962 0
M  V30 6156 H 574.163 4.03702 -4.18947 0
M  V30 6157 H 573.043 4.68238 -6.29065 0
M  V30 6158 N 570.547 0.616602 1.45037 0
M  V30 6159 C 571.775 0.121968 2.0654 0
M  V30 6160 C 572.19 -1.19743 1.45969 0
M  V30 6161 O 571.547 -1.73133 0.577168 0
M  V30 6162 C 571.598 -0.0145171 3.61497 0
M  V30 6163 O 571.319 1.25269 4.19809 0
M  V30 6164 C 572.82 -0.539555 4.40004 0
M  V30 6165 H 570.04 0.0729837 0.667019 0
M  V30 6166 H 572.584 0.846891 1.8614 0
M  V30 6167 H 570.739 -0.689809 3.81209 0
M  V30 6168 H 571.153 1.08816 5.13088 0
M  V30 6169 H 572.627 -0.584112 5.48901 0
M  V30 6170 H 573.104 -1.56368 4.10421 0
M  V30 6171 H 573.71 0.101995 4.25178 0
M  V30 6172 N 572.025 -1.5352 0.356285 0
M  V30 6173 C 573.271 -2.01414 -0.236653 0
M  V30 6174 C 573.604 -1.24339 -1.49176 0
M  V30 6175 O 572.879 -0.334496 -1.91602 0
M  V30 6176 C 573.162 -3.56059 -0.537982 0
M  V30 6177 C 573.015 -4.43835 0.730112 0
M  V30 6178 C 574.334 -4.19127 -1.34239 0
M  V30 6179 H 571.453 -0.732135 -0.0845386 0
M  V30 6180 H 574.095 -1.83854 0.479341 0
M  V30 6181 H 572.245 -3.71153 -1.14795 0
M  V30 6182 H 573.917 -4.40555 1.36782 0
M  V30 6183 H 572.16 -4.1218 1.3524 0
M  V30 6184 H 572.831 -5.49958 0.474358 0
M  V30 6185 H 575.307 -4.07809 -0.826498 0
M  V30 6186 H 574.183 -5.27378 -1.52198 0
M  V30 6187 H 574.444 -3.74581 -2.34822 0
M  V30 6188 N 573.503 -0.0852151 -1.57369 0
M  V30 6189 C 574.466 0.8627 -2.12344 0
M  V30 6190 C 575.466 1.21746 -1.05046 0
M  V30 6191 O 576.656 1.14852 -1.30976 0
M  V30 6192 C 573.788 2.1618 -2.63589 0
M  V30 6193 H 574.981 0.385511 -2.97412 0
M  V30 6194 H 572.534 0.163663 -1.55441 0
M  V30 6195 H 573.269 2.68406 -1.82013 0
M  V30 6196 H 573.054 1.91723 -3.4203 0
M  V30 6197 H 574.544 2.84011 -3.06149 0
M  V30 6198 N 574.981 1.5647 0.188427 0
M  V30 6199 C 575.913 1.91611 1.25769 0
M  V30 6200 C 576.926 0.807436 1.41366 0
M  V30 6201 O 578.115 1.08586 1.41673 0
M  V30 6202 C 575.215 2.13874 2.6289 0
M  V30 6203 C 574.388 3.45047 2.68815 0
M  V30 6204 C 573.447 3.56342 3.87178 0
M  V30 6205 O 572.473 4.29109 3.73971 0
M  V30 6206 N 573.675 2.89924 5.02916 0
M  V30 6207 H 576.44 2.8393 0.959373 0
M  V30 6208 H 574.001 1.57418 0.378306 0
M  V30 6209 H 575.993 2.18713 3.4051 0
M  V30 6210 H 574.563 1.28022 2.85183 0
M  V30 6211 H 573.783 3.52017 1.77419 0
M  V30 6212 H 575.071 4.31395 2.6977 0
M  V30 6213 H 574.469 2.30644 5.16546 0
M  V30 6214 H 573.026 3.0038 5.78459 0
M  V30 6215 N 576.459 -0.456382 1.50847 0
M  V30 6216 C 577.699 -1.21704 1.64218 0
M  V30 6217 C 578.063 -1.88932 0.341859 0
M  V30 6218 O 579.264 -2.66497 0.351137 0
M  V30 6219 C 577.535 -2.22162 2.79962 0
M  V30 6220 S 579.094 -3.0697 3.13552 0
M  V30 6221 H 575.912 -0.412995 0.578754 0
M  V30 6222 H 578.514 -0.511637 1.88686 0
M  V30 6223 H 577.218 -1.71379 3.72904 0
M  V30 6224 H 576.749 -2.9731 2.57624 0
M  V30 6225 H 578.764 -4.23539 2.58513 0
M  V30 6226 N 577.937 -1.40673 -0.710563 0
M  V30 6227 C 578.884 -1.41336 -1.82463 0
M  V30 6228 C 579.854 -0.269648 -1.63897 0
M  V30 6229 O 581.039 -0.468463 -1.8496 0
M  V30 6230 C 578.179 -1.28665 -3.20218 0
M  V30 6231 C 577.292 -2.52784 -3.5032 0
M  V30 6232 C 576.427 -2.32517 -4.77608 0
M  V30 6233 C 575.466 -3.52187 -5.0063 0
M  V30 6234 N 574.603 -3.31084 -6.19135 0
M  V30 6235 H 579.443 -2.36558 -1.8123 0
M  V30 6236 H 576.98 -1.17483 -0.885226 0
M  V30 6237 H 578.938 -1.19324 -3.99772 0
M  V30 6238 H 577.568 -0.370602 -3.20666 0
M  V30 6239 H 576.62 -2.72634 -2.65283 0
M  V30 6240 H 577.932 -3.41845 -3.63241 0
M  V30 6241 H 577.086 -2.20558 -5.65189 0
M  V30 6242 H 575.825 -1.40889 -4.66906 0
M  V30 6243 H 574.83 -3.64617 -4.11502 0
M  V30 6244 H 576.055 -4.44749 -5.13201 0
M  V30 6245 H 574.001 -2.42143 -6.09674 0
M  V30 6246 H 573.918 -4.13713 -6.32754 0
M  V30 6247 H 575.186 -3.22868 -7.0949 0
M  V30 6248 N 579.415 0.9433 -1.26252 0
M  V30 6249 C 580.664 1.68369 -1.11062 0
M  V30 6250 C 580.977 1.92514 0.346104 0
M  V30 6251 O 582.183 2.64358 0.618646 0
M  V30 6252 C 580.639 3.03171 -1.93946 0
M  V30 6253 C 580.247 2.86782 -3.4418 0
M  V30 6254 C 581.991 3.80916 -1.87359 0
M  V30 6255 C 579.898 4.17044 -4.19319 0
M  V30 6256 H 578.828 0.631469 -0.412023 0
M  V30 6257 H 581.479 1.04922 -1.50544 0
M  V30 6258 H 579.861 3.67587 -1.47296 0
M  V30 6259 H 581.035 2.31229 -3.98585 0
M  V30 6260 H 579.35 2.22482 -3.51981 0
M  V30 6261 H 581.947 4.77417 -2.40784 0
M  V30 6262 H 582.29 4.07658 -0.843857 0
M  V30 6263 H 582.823 3.2327 -2.31821 0
M  V30 6264 H 579.562 3.95487 -5.22753 0
M  V30 6265 H 579.082 4.72319 -3.69696 0
M  V30 6266 H 580.761 4.85513 -4.27651 0
M  V30 6267 N 580.893 1.08022 1.14757 0
M  V30 6268 C 582.133 0.816959 1.87364 0
M  V30 6269 C 582.497 -0.645407 1.80827 0
M  V30 6270 O 583.698 -1.024 2.48531 0
M  V30 6271 C 581.969 1.31961 3.32146 0
M  V30 6272 S 583.528 1.18806 4.2241 0
M  V30 6273 H 580.346 0.295862 0.646519 0
M  V30 6274 H 582.948 1.3807 1.38408 0
M  V30 6275 H 581.652 2.37847 3.3445 0
M  V30 6276 H 581.183 0.751371 3.86158 0
M  V30 6277 H 583.198 0.129865 4.9603 0
M  V30 6278 N 582.371 -1.3172 0.865308 0
M  V30 6279 C 583.334 -2.26918 0.322627 0
M  V30 6280 C 584.334 -1.52031 -0.523751 0
M  V30 6281 O 585.524 -1.70973 -0.333727 0
M  V30 6282 C 582.656 -3.36558 -0.542338 0
M  V30 6283 H 583.849 -2.76432 1.16298 0
M  V30 6284 H 581.402 -1.42573 0.640512 0
M  V30 6285 H 582.137 -2.92329 -1.40407 0
M  V30 6286 H 581.922 -3.92048 0.0636395 0
M  V30 6287 H 583.412 -4.07465 -0.91446 0
M  V30 6288 N 583.85 -0.624285 -1.44708 0
M  V30 6289 C 585.075 -0.131171 -2.06985 0
M  V30 6290 C 585.5 1.18234 -1.46295 0
M  V30 6291 O 584.858 1.72375 -0.561842 0
M  V30 6292 C 584.906 -0.0226724 -3.60593 0
M  V30 6293 O 584.01 1.02314 -3.99507 0
M  V30 6294 H 583.351 -0.0816556 -0.65896 0
M  V30 6295 H 585.88 -0.859027 -1.85693 0
M  V30 6296 H 585.891 0.170138 -4.07645 0
M  V30 6297 H 584.566 -0.981685 -4.04148 0
M  V30 6298 H 583.143 0.805452 -3.64097 0
M  V30 6299 N 585.328 1.53329 -0.364422 0
M  V30 6300 C 586.278 2.22472 0.499024 0
M  V30 6301 C 587.262 1.21952 1.0496 0
M  V30 6302 O 588.454 1.47405 0.979836 0
M  V30 6303 C 585.583 3.01659 1.6388 0
M  V30 6304 C 584.669 4.09555 1.10116 0
M  V30 6305 N 585.06 5.04988 0.286414 0
M  V30 6306 C 583.358 4.2424 1.37608 0
M  V30 6307 C 584.059 5.81699 -0.00781682 0
M  V30 6308 N 583.035 5.40394 0.589494 0
M  V30 6309 H 586.837 2.93611 -0.130284 0
M  V30 6310 H 584.351 1.61483 -0.172377 0
M  V30 6311 H 586.348 3.4971 2.26954 0
M  V30 6312 H 585.008 2.32051 2.27118 0
M  V30 6313 H 586.019 5.17847 -0.0742839 0
M  V30 6314 H 582.696 3.65858 2.01133 0
M  V30 6315 H 584.086 6.68587 -0.666394 0
M  V30 6316 N 586.806 0.0935595 1.57322 0
M  V30 6317 C 588.055 -0.570191 1.93473 0
M  V30 6318 C 588.368 -1.69434 0.977318 0
M  V30 6319 O 589.574 -2.41914 1.23248 0
M  V30 6320 C 588.03 -1.06564 3.43762 0
M  V30 6321 C 587.638 0.0286723 4.47991 0
M  V30 6322 C 589.382 -1.70221 3.88877 0
M  V30 6323 C 587.289 -0.482046 5.89432 0
M  V30 6324 H 586.219 -0.216764 0.72217 0
M  V30 6325 H 588.87 0.169313 1.82717 0
M  V30 6326 H 587.252 -1.85878 3.49664 0
M  V30 6327 H 588.426 0.804106 4.5373 0
M  V30 6328 H 586.741 0.570336 4.12476 0
M  V30 6329 H 589.338 -2.09502 4.91948 0
M  V30 6330 H 589.681 -2.57078 3.27439 0
M  V30 6331 H 590.214 -0.974919 3.85668 0
M  V30 6332 H 586.953 0.349871 6.54566 0
M  V30 6333 H 586.473 -1.22452 5.87167 0
M  V30 6334 H 588.152 -0.951508 6.39965 0
M  V30 6335 N 588.284 -1.56567 -0.180126 0
M  V30 6336 C 589.532 -1.81133 -0.896392 0
M  V30 6337 C 589.853 -0.669114 -1.83161 0
M  V30 6338 O 589.123 0.311616 -1.93406 0
M  V30 6339 H 587.703 -0.668172 -0.333999 0
M  V30 6340 H 590.365 -1.94048 -0.182051 0
M  V30 6341 H 589.461 -2.74854 -1.47857 0
M  V30 6342 N 589.762 0.448376 -1.51087 0
M  V30 6343 C 591.008 1.19748 -1.64414 0
M  V30 6344 C 591.363 1.89177 -0.350715 0
M  V30 6345 O 590.656 1.80135 0.652834 0
M  V30 6346 C 590.85 2.24866 -2.77795 0
M  V30 6347 C 590.679 1.65753 -4.18038 0
M  V30 6348 C 589.449 1.44728 -4.8413 0
M  V30 6349 C 591.647 1.13985 -5.0151 0
M  V30 6350 N 589.629 0.810962 -6.0852 0
M  V30 6351 C 591 0.628141 -6.1681 0
M  V30 6352 C 593.055 1.03055 -4.87118 0
M  V30 6353 C 591.758 0.0178906 -7.19298 0
M  V30 6354 C 593.784 0.434212 -5.89804 0
M  V30 6355 C 593.146 -0.0670069 -7.04368 0
M  V30 6356 H 589.245 0.426254 -0.655615 0
M  V30 6357 H 591.829 0.495806 -1.88281 0
M  V30 6358 H 590 2.92434 -2.55611 0
M  V30 6359 H 591.732 2.91857 -2.8036 0
M  V30 6360 H 588.487 1.70593 -4.41809 0
M  V30 6361 H 588.911 0.510563 -6.75072 0
M  V30 6362 H 593.553 1.40395 -3.9881 0
M  V30 6363 H 591.271 -0.367662 -8.07263 0
M  V30 6364 H 594.857 0.3517 -5.80736 0
M  V30 6365 H 593.737 -0.521209 -7.82466 0
M  V30 6366 N 591.24 1.41047 0.703093 0
M  V30 6367 C 592.187 1.42302 1.81711 0
M  V30 6368 C 593.157 0.278336 1.63751 0
M  V30 6369 O 594.342 0.478266 1.84709 0
M  V30 6370 C 591.482 1.30362 3.19531 0
M  V30 6371 C 590.595 2.54638 3.48975 0
M  V30 6372 C 589.73 2.35047 4.76368 0
M  V30 6373 C 588.769 3.54837 4.98756 0
M  V30 6374 N 587.906 3.34363 6.1737 0
M  V30 6375 H 592.746 2.37516 1.79973 0
M  V30 6376 H 590.283 1.1795 0.878983 0
M  V30 6377 H 592.241 1.21443 3.99134 0
M  V30 6378 H 590.871 0.387602 3.20464 0
M  V30 6379 H 589.923 2.74037 2.63833 0
M  V30 6380 H 591.235 3.43766 3.61423 0
M  V30 6381 H 590.389 2.23552 5.64012 0
M  V30 6382 H 589.128 1.43363 4.66153 0
M  V30 6383 H 588.133 3.66795 4.09563 0
M  V30 6384 H 589.358 4.47464 5.10835 0
M  V30 6385 H 587.304 2.45373 6.08382 0
M  V30 6386 H 587.221 4.17063 6.30551 0
M  V30 6387 H 588.489 3.26626 7.07768 0
M  V30 6388 N 592.718 -0.936591 1.26751 0
M  V30 6389 C 593.965 -1.68331 1.12566 0
M  V30 6390 C 594.293 -1.91677 -0.330168 0
M  V30 6391 O 593.548 -1.49859 -1.2586 0
M  V30 6392 C 593.847 -3.06099 1.84494 0
M  V30 6393 C 593.513 -3.02493 3.34378 0
M  V30 6394 C 592.175 -3.01217 3.75262 0
M  V30 6395 C 594.527 -2.94453 4.30055 0
M  V30 6396 C 591.855 -2.89672 5.10203 0
M  V30 6397 C 594.207 -2.84449 5.65041 0
M  V30 6398 C 592.871 -2.81518 6.0523 0
M  V30 6399 H 592.141 -0.615965 0.411907 0
M  V30 6400 H 594.788 -1.09292 1.5725 0
M  V30 6401 H 593.093 -3.6879 1.32292 0
M  V30 6402 H 594.79 -3.62733 1.70955 0
M  V30 6403 H 591.38 -3.04269 3.01858 0
M  V30 6404 H 595.564 -2.94544 3.99447 0
M  V30 6405 H 590.82 -2.85783 5.40498 0
M  V30 6406 H 594.994 -2.77192 6.38856 0
M  V30 6407 H 592.621 -2.72329 7.09747 0
M  V30 6408 N 594.196 -1.08629 -1.14182 0
M  V30 6409 C 595.424 -0.838889 -1.8913 0
M  V30 6410 C 595.839 0.609153 -1.78703 0
M  V30 6411 O 595.196 1.41876 -1.14794 0
M  V30 6412 C 595.247 -1.25477 -3.39025 0
M  V30 6413 O 594.968 -2.64601 -3.49167 0
M  V30 6414 C 596.469 -1.03856 -4.30963 0
M  V30 6415 H 593.689 -0.302377 -0.599007 0
M  V30 6416 H 596.233 -1.44615 -1.44592 0
M  V30 6417 H 594.388 -0.691571 -3.81177 0
M  V30 6418 H 594.802 -2.81922 -4.42289 0
M  V30 6419 H 596.276 -1.37892 -5.345 0
M  V30 6420 H 596.753 0.0242522 -4.39193 0
M  V30 6421 H 597.359 -1.58731 -3.94569 0
M  V30 6422 N 595.674 1.31259 -0.872281 0
M  V30 6423 C 596.637 2.26744 -0.334656 0
M  V30 6424 C 597.637 1.52307 0.515681 0
M  V30 6425 O 598.827 1.71148 0.324656 0
M  V30 6426 C 595.959 3.36841 0.524482 0
M  V30 6427 H 597.152 2.75812 -1.17762 0
M  V30 6428 H 594.705 1.42232 -0.648064 0
M  V30 6429 H 595.44 2.93069 1.38855 0
M  V30 6430 H 595.225 3.92009 -0.0844299 0
M  V30 6431 H 596.715 4.07944 0.892838 0
M  V30 6432 N 597.152 0.631951 1.44375 0
M  V30 6433 C 598.38 0.143867 2.06399 0
M  V30 6434 C 598.795 -1.18188 1.47231 0
M  V30 6435 O 598.152 -1.72511 0.595498 0
M  V30 6436 C 598.203 0.0238253 3.61492 0
M  V30 6437 O 597.924 1.29715 4.18456 0
M  V30 6438 C 599.425 -0.492856 4.40552 0
M  V30 6439 H 596.645 0.0800542 0.666207 0
M  V30 6440 H 599.189 0.866586 1.85231 0
M  V30 6441 H 597.344 -0.649338 3.81919 0
M  V30 6442 H 597.758 1.14252 5.11905 0
M  V30 6443 H 599.232 -0.525861 5.49489 0
M  V30 6444 H 599.709 -1.52006 4.12057 0
M  V30 6445 H 600.315 0.147085 4.25046 0
M  V30 6446 N 598.631 -1.53133 0.372548 0
M  V30 6447 C 599.578 -2.25951 -0.470631 0
M  V30 6448 C 600.548 -1.26895 -1.07176 0
M  V30 6449 O 601.733 -1.55691 -1.10294 0
M  V30 6450 C 598.873 -3.05726 -1.6008 0
M  V30 6451 C 597.986 -4.19684 -1.02416 0
M  V30 6452 C 597.121 -4.86888 -2.124 0
M  V30 6453 C 596.16 -5.92866 -1.52238 0
M  V30 6454 N 595.297 -6.53732 -2.56084 0
M  V30 6455 H 600.137 -2.97587 0.156816 0
M  V30 6456 H 597.674 -1.4683 0.0891571 0
M  V30 6457 H 599.632 -3.50258 -2.26661 0
M  V30 6458 H 598.262 -2.36331 -2.1988 0
M  V30 6459 H 597.314 -3.79588 -0.248426 0
M  V30 6460 H 598.626 -4.95821 -0.544366 0
M  V30 6461 H 597.78 -5.34638 -2.86787 0
M  V30 6462 H 596.519 -4.10239 -2.63734 0
M  V30 6463 H 595.524 -5.4447 -0.763685 0
M  V30 6464 H 596.749 -6.71439 -1.0172 0
M  V30 6465 H 594.695 -5.79932 -3.06618 0
M  V30 6466 H 594.612 -7.25429 -2.12811 0
M  V30 6467 H 595.88 -7.0613 -3.30152 0
M  V30 6468 N 600.109 -0.101901 -1.5727 0
M  V30 6469 C 601.056 0.854577 -2.14396 0
M  V30 6470 C 602.026 1.27521 -1.06432 0
M  V30 6471 O 603.211 1.35575 -1.34253 0
M  V30 6472 C 600.351 2.10576 -2.73408 0
M  V30 6473 C 599.464 1.73504 -3.95626 0
M  V30 6474 C 598.599 2.9346 -4.42781 0
M  V30 6475 C 597.638 2.52547 -5.57572 0
M  V30 6476 N 596.775 3.65359 -5.99547 0
M  V30 6477 H 601.615 0.360578 -2.9581 0
M  V30 6478 H 599.152 0.166303 -1.46157 0
M  V30 6479 H 601.11 2.83859 -3.05745 0
M  V30 6480 H 599.74 2.57463 -1.94711 0
M  V30 6481 H 598.792 0.901622 -3.6956 0
M  V30 6482 H 600.104 1.39426 -4.78917 0
M  V30 6483 H 599.258 3.74988 -4.76937 0
M  V30 6484 H 597.997 3.30753 -3.58404 0
M  V30 6485 H 597.002 1.69446 -5.23037 0
M  V30 6486 H 598.227 2.1639 -6.43702 0
M  V30 6487 H 596.173 4.02358 -5.18116 0
M  V30 6488 H 596.09 3.35148 -6.77652 0
M  V30 6489 H 597.358 4.47378 -6.38336 0
M  V30 6490 N 601.587 1.56661 0.17182 0
M  V30 6491 C 602.864 1.72838 0.915778 0
M  V30 6492 C 603.244 0.66316 2.00413 0
M  V30 6493 O 602.592 -0.322123 2.26218 0
M  V30 6494 C 602.802 3.16019 1.48097 0
M  V30 6495 C 604.15 3.76962 1.95408 0
M  V30 6496 O 605.174 3.19294 1.57892 0
M  V30 6497 O 604.033 4.78219 2.64516 0
M  V30 6498 H 601.127 0.705797 0.431021 0
M  V30 6499 H 603.673 1.68947 0.159689 0
M  V30 6500 H 602.445 3.85031 0.697618 0
M  V30 6501 H 602.068 3.24234 2.30126 0
M  V30 6502 N 603.065 -0.440357 1.51323 0
M  V30 6503 C 603.998 -1.55414 1.67098 0
M  V30 6504 C 604.976 -1.54108 0.518599 0
M  V30 6505 O 606.16 -1.7328 0.742054 0
M  V30 6506 C 603.287 -2.93996 1.68179 0
M  V30 6507 C 602.333 -3.13338 2.89347 0
M  V30 6508 S 603.166 -2.89957 4.50206 0
M  V30 6509 C 604.322 -4.30826 4.54027 0
M  V30 6510 H 604.555 -1.41798 2.61306 0
M  V30 6511 H 602.088 -0.629841 1.40969 0
M  V30 6512 H 604.046 -3.73878 1.69487 0
M  V30 6513 H 602.707 -3.04976 0.751542 0
M  V30 6514 H 601.9 -4.14652 2.86495 0
M  V30 6515 H 601.502 -2.41276 2.85766 0
M  V30 6516 H 603.794 -5.23977 4.29481 0
M  V30 6517 H 604.737 -4.38712 5.55822 0
M  V30 6518 H 605.145 -4.1434 3.83384 0
M  V30 6519 N 604.543 -1.41418 -0.695603 0
M  V30 6520 C 605.768 -1.44329 -1.48942 0
M  V30 6521 C 606.193 -0.0501579 -1.88033 0
M  V30 6522 O 605.551 0.946598 -1.54626 0
M  V30 6523 C 605.599 -2.3578 -2.72837 0
M  V30 6524 O 604.703 -1.81482 -3.70322 0
M  V30 6525 H 604.044 -0.489838 -0.44828 0
M  V30 6526 H 606.574 -1.85878 -0.855014 0
M  V30 6527 H 606.584 -2.51654 -3.21145 0
M  V30 6528 H 605.259 -3.37005 -2.43722 0
M  V30 6529 H 603.836 -1.75058 -3.29255 0
M  V30 6530 N 606.021 0.929856 -1.27246 0
M  V30 6531 C 607.432 1.49223 -1.12203 0
M  V30 6532 C 607.783 1.93989 0.293731 0
M  V30 6533 O 606.908 1.80978 1.18642 0
M  V30 6534 C 607.503 2.71198 -2.0307 0
M  V30 6535 C 606.062 3.23666 -1.92139 0
M  V30 6536 C 605.209 1.96409 -1.95752 0
M  V30 6537 H 608.16 0.744181 -1.4017 0
M  V30 6538 H 608.181 3.45905 -1.58524 0
M  V30 6539 H 607.693 2.38585 -3.06102 0
M  V30 6540 H 605.794 3.61042 -0.920834 0
M  V30 6541 H 605.907 3.90006 -2.78267 0
M  V30 6542 H 604.271 2.12806 -1.39949 0
M  V30 6543 H 605.054 1.66113 -3.00436 0
M  V30 6544 N 607.499 1.09233 1.13605 0
M  V30 6545 C 608.431 0.687794 2.18637 0
M  V30 6546 C 609.444 -0.26936 1.60556 0
M  V30 6547 O 610.633 -0.0557162 1.78413 0
M  V30 6548 C 607.733 -0.00751901 3.38899 0
M  V30 6549 C 606.906 0.97067 4.26494 0
M  V30 6550 C 605.965 0.309129 5.25291 0
M  V30 6551 O 604.991 0.956149 5.61112 0
M  V30 6552 N 606.193 -0.937555 5.72879 0
M  V30 6553 H 608.958 1.59141 2.53957 0
M  V30 6554 H 606.519 0.979515 1.28907 0
M  V30 6555 H 608.511 -0.461238 4.02063 0
M  V30 6556 H 607.081 -0.813353 3.01833 0
M  V30 6557 H 606.301 1.603 3.60135 0
M  V30 6558 H 607.589 1.63323 4.81875 0
M  V30 6559 H 606.987 -1.48281 5.4592 0
M  V30 6560 H 605.544 -1.33463 6.3799 0
M  V30 6561 N 608.977 -1.30795 0.87923 0
M  V30 6562 C 609.924 -2.28282 0.339968 0
M  V30 6563 C 610.894 -1.56134 -0.566685 0
M  V30 6564 O 612.079 -1.84231 -0.496338 0
M  V30 6565 C 609.219 -3.42225 -0.444501 0
M  V30 6566 C 608.332 -4.29204 0.490717 0
M  V30 6567 C 607.467 -5.30302 -0.308784 0
M  V30 6568 C 606.506 -6.08929 0.622272 0
M  V30 6569 N 605.643 -7.01957 -0.14155 0
M  V30 6570 H 610.483 -2.73794 1.17647 0
M  V30 6571 H 608.02 -1.34682 0.591527 0
M  V30 6572 H 609.978 -4.07038 -0.915186 0
M  V30 6573 H 608.608 -2.97799 -1.24562 0
M  V30 6574 H 607.66 -3.6475 1.07988 0
M  V30 6575 H 608.972 -4.84045 1.20425 0
M  V30 6576 H 608.126 -6.00835 -0.841575 0
M  V30 6577 H 606.865 -4.7614 -1.05556 0
M  V30 6578 H 605.87 -5.37278 1.16674 0
M  V30 6579 H 607.095 -6.65178 1.36804 0
M  V30 6580 H 605.041 -6.50192 -0.870966 0
M  V30 6581 H 604.958 -7.54261 0.51246 0
M  V30 6582 H 606.226 -7.76741 -0.655271 0
M  V30 6583 N 610.455 -0.639598 -1.44038 0
M  V30 6584 C 611.702 -0.14748 -2.01962 0
M  V30 6585 C 612.03 1.23372 -1.50365 0
M  V30 6586 O 611.285 1.8345 -0.681501 0
M  V30 6587 C 611.584 -0.0925348 -3.5728 0
M  V30 6588 C 611.25 -1.41365 -4.28167 0
M  V30 6589 C 609.912 -1.77545 -4.47248 0
M  V30 6590 C 612.264 -2.2853 -4.68427 0
M  V30 6591 C 609.592 -3.00583 -5.03852 0
M  V30 6592 C 611.944 -3.50846 -5.26393 0
M  V30 6593 C 610.608 -3.8724 -5.43692 0
M  V30 6594 H 609.878 -0.0539666 -0.739032 0
M  V30 6595 H 612.525 -0.827599 -1.72694 0
M  V30 6596 H 610.83 0.670987 -3.86012 0
M  V30 6597 H 612.527 0.304891 -3.99839 0
M  V30 6598 H 609.117 -1.1221 -4.13651 0
M  V30 6599 H 613.301 -2.0187 -4.5339 0
M  V30 6600 H 608.557 -3.28846 -5.15432 0
M  V30 6601 H 612.731 -4.18616 -5.56537 0
M  V30 6602 H 610.358 -4.8266 -5.87319 0
M  V30 6603 N 611.933 1.52934 -0.380664 0
M  V30 6604 C 613.179 2.02443 0.197089 0
M  V30 6605 C 613.534 1.26249 1.45186 0
M  V30 6606 O 612.827 0.351964 1.8834 0
M  V30 6607 C 613.021 3.5349 0.527199 0
M  V30 6608 C 612.85 4.44312 -0.694027 0
M  V30 6609 C 611.62 4.90582 -1.21068 0
M  V30 6610 C 613.818 4.8995 -1.56377 0
M  V30 6611 N 611.8 5.65451 -2.39036 0
M  V30 6612 C 613.171 5.63313 -2.58995 0
M  V30 6613 C 615.226 4.72002 -1.58488 0
M  V30 6614 C 613.929 6.20635 -3.63599 0
M  V30 6615 C 615.955 5.30201 -2.61995 0
M  V30 6616 C 615.317 6.03463 -3.63335 0
M  V30 6617 H 611.416 0.781241 0.0344357 0
M  V30 6618 H 614 1.87387 -0.528609 0
M  V30 6619 H 612.171 3.68677 1.22196 0
M  V30 6620 H 613.903 3.89707 1.09135 0
M  V30 6621 H 610.658 4.67249 -0.772995 0
M  V30 6622 H 611.082 6.07541 -2.98701 0
M  V30 6623 H 615.724 4.14873 -0.814891 0
M  V30 6624 H 613.442 6.76852 -4.41472 0
M  V30 6625 H 617.028 5.182 -2.645 0
M  V30 6626 H 615.908 6.47693 -4.42113 0
M  V30 6627 N 613.412 0.11024 1.57214 0
M  V30 6628 C 614.66 -0.548783 1.94506 0
M  V30 6629 C 614.981 -1.67772 0.99386 0
M  V30 6630 O 614.251 -1.9584 0.0485841 0
M  V30 6631 H 612.831 -0.205715 0.718116 0
M  V30 6632 H 615.493 0.177127 1.94093 0
M  V30 6633 H 614.589 -0.949096 2.97319 0
M  V30 6634 N 614.89 -1.56749 -0.16351 0
M  V30 6635 C 615.82 -2.00042 -1.20438 0
M  V30 6636 C 616.801 -0.877256 -1.45733 0
M  V30 6637 O 617.986 -1.1439 -1.56935 0
M  V30 6638 C 615.116 -2.36697 -2.54149 0
M  V30 6639 C 614.07 -3.52046 -2.43408 0
M  V30 6640 C 613.396 -3.74466 -3.81679 0
M  V30 6641 C 614.696 -4.85247 -1.93216 0
M  V30 6642 H 616.39 -2.87244 -0.844477 0
M  V30 6643 H 613.936 -1.38194 -0.40478 0
M  V30 6644 H 615.889 -2.65582 -3.27176 0
M  V30 6645 H 614.613 -1.46414 -2.91943 0
M  V30 6646 H 613.272 -3.23301 -1.72834 0
M  V30 6647 H 612.92 -2.81461 -4.1688 0
M  V30 6648 H 612.62 -4.52084 -3.75359 0
M  V30 6649 H 614.144 -4.0576 -4.5628 0
M  V30 6650 H 615.558 -5.12957 -2.56023 0
M  V30 6651 H 613.955 -5.66556 -1.97825 0
M  V30 6652 H 615.025 -4.7672 -0.88689 0
M  V30 6653 N 616.368 0.432326 -1.51554 0
M  V30 6654 C 617.596 1.20364 -1.68286 0
M  V30 6655 C 618.011 1.84888 -0.38233 0
M  V30 6656 O 617.368 1.70924 0.639627 0
M  V30 6657 C 617.419 2.28398 -2.80208 0
M  V30 6658 O 617.14 1.66512 -4.05223 0
M  V30 6659 C 618.641 3.18584 -3.08251 0
M  V30 6660 H 615.861 0.36259 -0.564596 0
M  V30 6661 H 618.405 0.511647 -1.97996 0
M  V30 6662 H 616.56 2.93305 -2.53083 0
M  V30 6663 H 616.974 2.37951 -4.67418 0
M  V30 6664 H 618.448 3.90511 -3.90135 0
M  V30 6665 H 618.925 3.79628 -2.2086 0
M  V30 6666 H 619.531 2.59372 -3.37055 0
M  V30 6667 N 617.846 1.41785 0.688094 0
M  V30 6668 C 619.262 1.24419 0.999608 0
M  V30 6669 C 619.462 0.138868 2.01021 0
M  V30 6670 O 618.518 -0.494283 2.47615 0
M  V30 6671 C 619.831 2.59625 1.51709 0
M  V30 6672 C 621.379 2.66869 1.63554 0
M  V30 6673 C 621.854 4.0241 2.18702 0
M  V30 6674 N 623.345 4.04295 2.26053 0
M  V30 6675 C 624.08 5.05977 2.69768 0
M  V30 6676 N 623.576 6.18047 3.13033 0
M  V30 6677 N 625.369 4.93336 2.69398 0
M  V30 6678 H 617.52 2.12392 0.0187427 0
M  V30 6679 H 619.783 0.945347 0.0708673 0
M  V30 6680 H 619.489 3.41297 0.849059 0
M  V30 6681 H 619.363 2.82628 2.49803 0
M  V30 6682 H 621.75 1.8555 2.29467 0
M  V30 6683 H 621.831 2.47668 0.639857 0
M  V30 6684 H 621.475 4.8418 1.53402 0
M  V30 6685 H 621.405 4.18955 3.19037 0
M  V30 6686 H 623.896 3.23383 1.9553 0
M  V30 6687 H 624.209 6.91498 3.45038 0
M  V30 6688 H 622.554 6.21572 3.10923 0
M  V30 6689 H 625.745 4.04865 2.34952 0
M  V30 6690 H 625.918 5.72717 3.03148 0
M  V30 6691 N 619.324 -0.923095 1.27737 0
M  V30 6692 C 620.549 -1.71054 1.17283 0
M  V30 6693 C 620.974 -1.86208 -0.266153 0
M  V30 6694 O 620.332 -1.36545 -1.1927 0
M  V30 6695 C 620.38 -3.0854 1.86642 0
M  V30 6696 O 619.484 -3.95528 1.16752 0
M  V30 6697 H 618.825 -0.524136 0.407649 0
M  V30 6698 H 621.355 -1.15487 1.6889 0
M  V30 6699 H 621.365 -3.58828 1.94182 0
M  V30 6700 H 620.04 -2.96828 2.91317 0
M  V30 6701 H 618.617 -3.53967 1.17312 0
M  V30 6702 N 620.802 -1.09834 -1.13024 0
M  V30 6703 C 621.765 -0.745058 -2.16752 0
M  V30 6704 C 622.765 0.227435 -1.59183 0
M  V30 6705 O 623.955 0.0050786 -1.74199 0
M  V30 6706 C 621.087 -0.102543 -3.40746 0
M  V30 6707 H 622.28 -1.66375 -2.49518 0
M  V30 6708 H 619.833 -0.898061 -1.27924 0
M  V30 6709 H 620.568 0.827177 -3.13573 0
M  V30 6710 H 620.353 -0.80235 -3.83803 0
M  V30 6711 H 621.843 0.129082 -4.174 0
M  V30 6712 N 622.28 1.30327 -0.886154 0
M  V30 6713 C 623.21 2.30549 -0.370028 0
M  V30 6714 C 624.191 1.61039 0.547751 0
M  V30 6715 O 625.376 1.8864 0.461353 0
M  V30 6716 C 622.506 3.44808 0.415275 0
M  V30 6717 C 621.46 4.26024 -0.41085 0
M  V30 6718 C 620.786 5.32347 0.501128 0
M  V30 6719 C 622.086 4.95433 -1.65359 0
M  V30 6720 H 623.78 2.73969 -1.20754 0
M  V30 6721 H 621.326 1.3171 -0.582097 0
M  V30 6722 H 623.279 4.13986 0.78699 0
M  V30 6723 H 622.003 3.00197 1.28644 0
M  V30 6724 H 620.662 3.58535 -0.764719 0
M  V30 6725 H 620.31 4.83982 1.37004 0
M  V30 6726 H 620.01 5.87581 -0.0478356 0
M  V30 6727 H 621.534 6.0438 0.869333 0
M  V30 6728 H 622.948 5.5712 -1.35239 0
M  V30 6729 H 621.345 5.60537 -2.14284 0
M  V30 6730 H 622.415 4.21493 -2.39733 0
M  V30 6731 N 623.758 0.647228 1.43697 0
M  V30 6732 C 624.688 -0.0345631 2.33474 0
M  V30 6733 C 625.669 -0.818193 1.4913 0
M  V30 6734 O 626.854 -0.780867 1.77809 0
M  V30 6735 C 623.984 -1.00576 3.32418 0
M  V30 6736 C 622.938 -0.33266 4.26705 0
M  V30 6737 C 622.264 -1.41489 5.1564 0
M  V30 6738 C 623.564 0.771204 5.16575 0
M  V30 6739 H 625.258 0.715163 2.90733 0
M  V30 6740 H 622.804 0.345364 1.39797 0
M  V30 6741 H 624.757 -1.49159 3.94119 0
M  V30 6742 H 623.481 -1.78657 2.73403 0
M  V30 6743 H 622.14 0.13267 3.6636 0
M  V30 6744 H 621.788 -2.18698 4.52968 0
M  V30 6745 H 621.488 -0.969799 5.79542 0
M  V30 6746 H 623.012 -1.9022 5.80214 0
M  V30 6747 H 624.426 0.36779 5.72119 0
M  V30 6748 H 622.823 1.1404 5.89165 0
M  V30 6749 H 623.893 1.63169 4.56622 0
M  V30 6750 N 625.236 -1.5273 0.388769 0
M  V30 6751 C 626.647 -1.86505 -0.0853788 0
M  V30 6752 C 626.998 -1.30847 -1.46197 0
M  V30 6753 O 626.123 -0.639609 -2.06732 0
M  V30 6754 C 626.718 -3.38414 -0.161703 0
M  V30 6755 C 625.277 -3.71902 -0.580144 0
M  V30 6756 C 624.424 -2.76095 0.258218 0
M  V30 6757 H 627.375 -1.46647 0.606665 0
M  V30 6758 H 627.396 -3.67638 -0.980936 0
M  V30 6759 H 626.908 -3.78893 0.840333 0
M  V30 6760 H 625.009 -3.36992 -1.58957 0
M  V30 6761 H 625.122 -4.77902 -0.338663 0
M  V30 6762 H 623.486 -2.53195 -0.276432 0
M  V30 6763 H 624.269 -3.19411 1.25822 0
M  V30 6764 N 626.714 -0.118576 -1.57153 0
M  V30 6765 C 627.942 0.54726 -1.99531 0
M  V30 6766 C 628.357 1.60251 -0.998246 0
M  V30 6767 O 627.714 1.82498 0.00893106 0
M  V30 6768 C 627.765 1.17378 -3.41913 0
M  V30 6769 O 627.486 0.160703 -4.37805 0
M  V30 6770 C 628.987 1.92297 -3.9942 0
M  V30 6771 H 626.207 0.144919 -0.655164 0
M  V30 6772 H 628.751 -0.20479 -2.03472 0
M  V30 6773 H 626.906 1.87661 -3.38913 0
M  V30 6774 H 627.32 0.61586 -5.20872 0
M  V30 6775 H 628.794 2.31462 -5.01128 0
M  V30 6776 H 629.271 2.79801 -3.38538 0
M  V30 6777 H 629.877 1.26777 -4.05965 0
M  V30 6778 N 628.193 1.56834 0.155195 0
M  V30 6779 C 629.442 1.82088 0.867567 0
M  V30 6780 C 629.755 0.69849 1.82703 0
M  V30 6781 O 630.961 0.836407 2.58295 0
M  V30 6782 C 629.417 3.22707 1.59336 0
M  V30 6783 C 629.025 4.42859 0.676719 0
M  V30 6784 C 630.769 3.57242 2.293 0
M  V30 6785 C 628.676 5.74501 1.40367 0
M  V30 6786 H 627.606 0.679057 0.327715 0
M  V30 6787 H 630.257 1.83105 0.120351 0
M  V30 6788 H 628.639 3.16054 2.38591 0
M  V30 6789 H 629.813 4.60731 -0.0800196 0
M  V30 6790 H 628.128 4.16311 0.0859129 0
M  V30 6791 H 630.725 4.52847 2.84312 0
M  V30 6792 H 631.068 2.82901 3.05406 0
M  V30 6793 H 631.601 3.6552 1.56972 0
M  V30 6794 H 628.34 6.51915 0.684623 0
M  V30 6795 H 627.86 5.60579 2.13332 0
M  V30 6796 H 629.539 6.17016 1.94681 0
M  V30 6797 N 629.671 -0.424282 1.51781 0
M  V30 6798 C 631.082 -1.00368 1.57427 0
M  V30 6799 C 631.433 -1.91962 0.40558 0
M  V30 6800 O 630.558 -2.111 -0.47601 0
M  V30 6801 C 631.153 -1.82707 2.85313 0
M  V30 6802 C 629.712 -2.35675 2.93487 0
M  V30 6803 C 628.859 -1.1524 2.5222 0
M  V30 6804 H 631.81 -0.205064 1.5737 0
M  V30 6805 H 631.831 -2.68294 2.69812 0
M  V30 6806 H 631.343 -1.16017 3.70353 0
M  V30 6807 H 629.444 -3.05781 2.12906 0
M  V30 6808 H 629.557 -2.67578 3.97415 0
M  V30 6809 H 627.921 -1.50174 2.05718 0
M  V30 6810 H 628.704 -0.5014 3.39619 0
M  V30 6811 N 631.149 -1.42148 -0.680565 0
M  V30 6812 C 632.426 -1.32795 -1.43614 0
M  V30 6813 C 632.806 0.037415 -2.11067 0
M  V30 6814 O 632.154 1.05258 -2.02813 0
M  V30 6815 C 632.364 -2.49206 -2.44331 0
M  V30 6816 C 633.712 -2.91059 -3.09144 0
M  V30 6817 O 634.736 -2.49054 -2.54657 0
M  V30 6818 O 633.595 -3.63741 -4.07866 0
M  V30 6819 H 630.689 -0.523397 -0.640301 0
M  V30 6820 H 633.235 -1.54144 -0.709775 0
M  V30 6821 H 632.007 -3.40252 -1.93247 0
M  V30 6822 H 631.63 -2.29813 -3.24456 0
M  V30 6823 N 632.627 0.916307 -1.28225 0
M  V30 6824 C 633.855 1.69901 -1.18073 0
M  V30 6825 C 634.27 1.86988 0.260968 0
M  V30 6826 O 633.627 1.39505 1.17663 0
M  V30 6827 C 633.678 3.09254 -1.87201 0
M  V30 6828 O 633.399 2.92959 -3.2574 0
M  V30 6829 C 634.9 4.0362 -1.83319 0
M  V30 6830 H 632.12 0.531181 -0.409985 0
M  V30 6831 H 634.664 1.14703 -1.69303 0
M  V30 6832 H 632.819 3.61277 -1.39848 0
M  V30 6833 H 633.233 3.81139 -3.60324 0
M  V30 6834 H 634.707 4.98873 -2.36282 0
M  V30 6835 H 635.184 4.3176 -0.805007 0
M  V30 6836 H 635.79 3.57524 -2.3034 0
M  V30 6837 N 634.105 1.10431 1.1244 0
M  V30 6838 C 635.015 0.765502 2.21759 0
M  V30 6839 C 636.031 -0.236966 1.72379 0
M  V30 6840 O 637.207 -0.0757329 2.01258 0
M  V30 6841 C 634.272 0.202316 3.46109 0
M  V30 6842 C 633.333 1.26205 4.1033 0
M  V30 6843 C 632.566 0.725648 5.28744 0
M  V30 6844 O 632.789 -0.447942 5.68638 0
M  V30 6845 O 631.723 1.48555 5.83279 0
M  V30 6846 H 635.549 1.67801 2.53133 0
M  V30 6847 H 633.134 0.879443 1.20773 0
M  V30 6848 H 635.016 -0.107918 4.21262 0
M  V30 6849 H 633.691 -0.683052 3.16411 0
M  V30 6850 H 632.598 1.62514 3.36957 0
M  V30 6851 H 633.931 2.12044 4.44183 0
M  V30 6852 N 635.583 -1.29855 0.893053 0
M  V30 6853 C 636.86 -1.90694 0.435336 0
M  V30 6854 C 637.24 -1.8111 -1.08454 0
M  V30 6855 O 636.588 -1.23352 -1.92345 0
M  V30 6856 C 636.798 -3.36033 0.942472 0
M  V30 6857 C 638.146 -4.13083 0.982226 0
M  V30 6858 O 639.17 -3.4491 0.889686 0
M  V30 6859 O 638.029 -5.34896 1.12022 0
M  V30 6860 H 635.123 -0.815978 0.134567 0
M  V30 6861 H 637.669 -1.38367 0.982484 0
M  V30 6862 H 636.441 -3.37132 1.9864 0
M  V30 6863 H 636.064 -3.95828 0.374952 0
M  V30 6864 N 637.061 -0.65484 -1.43351 0
M  V30 6865 C 637.971 0.0363603 -2.34572 0
M  V30 6866 C 638.987 0.810432 -1.53974 0
M  V30 6867 O 640.163 0.757308 -1.86619 0
M  V30 6868 C 637.228 0.989733 -3.32273 0
M  V30 6869 C 636.289 0.212414 -4.28774 0
M  V30 6870 C 635.522 1.12038 -5.21808 0
M  V30 6871 O 635.745 2.35967 -5.19303 0
M  V30 6872 O 634.679 0.59191 -5.98982 0
M  V30 6873 H 638.505 -0.714527 -2.95175 0
M  V30 6874 H 636.09 -0.415029 -1.4352 0
M  V30 6875 H 637.972 1.53759 -3.92347 0
M  V30 6876 H 636.647 1.72082 -2.74171 0
M  V30 6877 H 635.554 -0.379062 -3.72175 0
M  V30 6878 H 636.887 -0.479138 -4.89862 0
M  V30 6879 N 638.539 1.52521 -0.396863 0
M  V30 6880 C 639.788 2.00857 0.184184 0
M  V30 6881 C 640.101 1.28733 1.47265 0
M  V30 6882 O 641.307 1.67821 2.13421 0
M  V30 6883 C 639.763 3.57901 0.378787 0
M  V30 6884 C 639.371 4.38931 -0.896873 0
M  V30 6885 C 641.115 4.14504 0.915789 0
M  V30 6886 C 639.022 5.87591 -0.670133 0
M  V30 6887 H 637.952 0.750496 0.0726055 0
M  V30 6888 H 640.603 1.75965 -0.520425 0
M  V30 6889 H 638.985 3.79072 1.14543 0
M  V30 6890 H 640.159 4.29524 -1.66872 0
M  V30 6891 H 638.474 3.93586 -1.35938 0
M  V30 6892 H 641.071 5.23236 1.10126 0
M  V30 6893 H 641.414 3.71076 1.88701 0
M  V30 6894 H 641.947 3.97253 0.208523 0
M  V30 6895 H 638.686 6.35355 -1.61257 0
M  V30 6896 H 638.206 5.99767 0.0626368 0
M  V30 6897 H 639.885 6.46268 -0.307577 0
M  V30 6898 N 640.017 0.126909 1.57088 0
M  V30 6899 C 641.242 -0.53997 2.00248 0
M  V30 6900 C 641.667 -1.58927 1.00618 0
M  V30 6901 O 641.025 -1.81288 -0.0210131 0
M  V30 6902 C 641.073 -1.13565 3.4225 0
M  V30 6903 O 640.177 -2.25103 3.45547 0
M  V30 6904 H 639.518 -0.13412 0.650314 0
M  V30 6905 H 642.048 0.217718 2.03438 0
M  V30 6906 H 642.058 -1.46925 3.80627 0
M  V30 6907 H 640.733 -0.367122 4.14277 0
M  V30 6908 H 639.31 -1.93123 3.18995 0
M  V30 6909 N 641.495 -1.56914 -0.146875 0
M  V30 6910 C 642.906 -1.72799 -0.706928 0
M  V30 6911 C 643.257 -0.741329 -1.81656 0
M  V30 6912 O 642.382 0.0920162 -2.16204 0
M  V30 6913 C 642.977 -3.13317 -1.28911 0
M  V30 6914 C 641.536 -3.30803 -1.79573 0
M  V30 6915 C 640.683 -2.68725 -0.684252 0
M  V30 6916 H 643.634 -1.58504 0.0787931 0
M  V30 6917 H 643.655 -3.13323 -2.15891 0
M  V30 6918 H 643.167 -3.85104 -0.481284 0
M  V30 6919 H 641.268 -2.64012 -2.62923 0
M  V30 6920 H 641.381 -4.38754 -1.92436 0
M  V30 6921 H 639.745 -2.29196 -1.11091 0
M  V30 6922 H 640.528 -3.43117 0.112134 0
M  V30 6923 N 642.974 0.416227 -1.52004 0
M  V30 6924 C 644.251 1.17637 -1.56272 0
M  V30 6925 C 644.631 2.08352 -0.339493 0
M  V30 6926 O 643.979 2.1833 0.674124 0
M  V30 6927 C 644.189 1.95986 -2.88774 0
M  V30 6928 C 645.537 2.52299 -3.41512 0
M  V30 6929 O 646.561 2.06174 -2.90467 0
M  V30 6930 O 645.42 3.3648 -4.30631 0
M  V30 6931 H 642.514 0.536726 -0.629169 0
M  V30 6932 H 645.06 0.423583 -1.64329 0
M  V30 6933 H 643.832 1.29487 -3.69254 0
M  V30 6934 H 643.455 2.78285 -2.83978 0
M  V30 6935 N 644.452 1.42507 0.673017 0
M  V30 6936 C 645.399 1.46124 1.78651 0
M  V30 6937 C 646.369 0.313007 1.63124 0
M  V30 6938 O 647.554 0.517337 1.83653 0
M  V30 6939 C 644.694 1.3711 3.16694 0
M  V30 6940 C 643.807 2.61983 3.43495 0
M  V30 6941 C 642.942 2.45098 4.71275 0
M  V30 6942 C 641.981 3.65336 4.91117 0
M  V30 6943 N 641.118 3.47383 6.10139 0
M  V30 6944 H 645.958 2.4128 1.74895 0
M  V30 6945 H 643.495 1.19788 0.853766 0
M  V30 6946 H 645.453 1.29881 3.96468 0
M  V30 6947 H 644.083 0.45549 3.1957 0
M  V30 6948 H 643.135 2.79571 2.57961 0
M  V30 6949 H 644.447 3.51355 3.5405 0
M  V30 6950 H 643.601 2.35466 5.59143 0
M  V30 6951 H 642.34 1.53219 4.63007 0
M  V30 6952 H 641.345 3.754 4.0169 0
M  V30 6953 H 642.57 4.58199 5.01229 0
M  V30 6954 H 640.516 2.58222 6.0304 0
M  V30 6955 H 640.433 4.30344 6.21563 0
M  V30 6956 H 641.701 3.41565 7.00681 0
M  V30 6957 N 645.93 -0.909495 1.28709 0
M  V30 6958 C 647.176 -1.66151 1.16283 0
M  V30 6959 C 647.509 -1.92067 -0.287069 0
M  V30 6960 O 646.784 -1.52409 -1.20837 0
M  V30 6961 C 647.067 -3.01676 1.9663 0
M  V30 6962 C 646.92 -2.82888 3.49707 0
M  V30 6963 C 648.239 -4.02274 1.78504 0
M  V30 6964 H 645.358 -0.602966 0.423793 0
M  V30 6965 H 648 -1.05418 1.58073 0
M  V30 6966 H 646.15 -3.53515 1.61119 0
M  V30 6967 H 647.822 -2.38026 3.95147 0
M  V30 6968 H 646.065 -2.17862 3.75125 0
M  V30 6969 H 646.736 -3.79147 4.01187 0
M  V30 6970 H 649.212 -3.59511 2.09503 0
M  V30 6971 H 648.088 -4.95056 2.37088 0
M  V30 6972 H 648.349 -4.35903 0.737647 0
M  V30 6973 N 647.408 -1.11026 -1.11852 0
M  V30 6974 C 648.657 -0.851249 -1.82857 0
M  V30 6975 C 648.97 0.62514 -1.85341 0
M  V30 6976 O 650.176 1.00026 -2.52403 0
M  V30 6977 C 648.632 -1.47309 -3.28372 0
M  V30 6978 C 648.24 -2.9832 -3.34229 0
M  V30 6979 C 649.984 -1.29373 -4.04306 0
M  V30 6980 C 647.891 -3.53509 -4.74115 0
M  V30 6981 H 646.821 -0.314794 -0.685143 0
M  V30 6982 H 649.472 -1.33499 -1.25898 0
M  V30 6983 H 647.854 -0.917017 -3.85236 0
M  V30 6984 H 649.028 -3.60295 -2.87271 0
M  V30 6985 H 647.343 -3.15482 -2.71772 0
M  V30 6986 H 649.94 -1.68042 -5.07608 0
M  V30 6987 H 650.283 -0.235879 -4.15631 0
M  V30 6988 H 650.816 -1.8182 -3.53817 0
M  V30 6989 H 647.555 -4.58987 -4.67986 0
M  V30 6990 H 647.075 -2.96305 -5.21501 0
M  V30 6991 H 648.754 -3.51693 -5.43066 0
M  V30 6992 N 648.886 1.2938 -0.899927 0
M  V30 6993 C 649.816 2.30144 -0.39446 0
M  V30 6994 C 650.797 1.61611 0.530639 0
M  V30 6995 O 651.982 1.89119 0.441319 0
M  V30 6996 C 649.112 3.45229 0.37868 0
M  V30 6997 C 648.066 4.25564 -0.456012 0
M  V30 6998 C 647.392 5.32848 0.444637 0
M  V30 6999 C 648.692 4.93651 -1.70605 0
M  V30 7000 H 650.386 2.72673 -1.23653 0
M  V30 7001 H 647.932 1.31086 -0.596034 0
M  V30 7002 H 649.885 4.14797 0.743037 0
M  V30 7003 H 648.609 3.01545 1.25453 0
M  V30 7004 H 647.268 3.57704 -0.802704 0
M  V30 7005 H 646.916 4.85408 1.31863 0
M  V30 7006 H 646.616 5.87497 -0.110154 0
M  V30 7007 H 648.14 6.05268 0.805182 0
M  V30 7008 H 649.554 5.55655 -1.41141 0
M  V30 7009 H 647.951 5.58233 -2.20217 0
M  V30 7010 H 649.021 4.18926 -2.4419 0
M  V30 7011 N 650.364 0.662433 1.43002 0
M  V30 7012 C 651.604 0.183312 2.03576 0
M  V30 7013 C 651.968 -1.18354 1.51183 0
M  V30 7014 O 653.169 -1.7566 2.03462 0
M  V30 7015 C 651.44 0.202908 3.56824 0
M  V30 7016 S 652.999 -0.20702 4.38311 0
M  V30 7017 H 649.817 0.0765001 0.706872 0
M  V30 7018 H 652.419 0.872827 1.74934 0
M  V30 7019 H 651.123 1.20028 3.92456 0
M  V30 7020 H 650.654 -0.506845 3.90121 0
M  V30 7021 H 652.669 -1.44358 4.74737 0
M  V30 7022 N 651.842 -1.52309 0.404946 0
M  V30 7023 C 652.772 -2.29805 -0.41376 0
M  V30 7024 C 653.753 -1.3384 -1.0498 0
M  V30 7025 O 654.938 -1.62745 -1.05961 0
M  V30 7026 C 652.068 -3.11639 -1.53292 0
M  V30 7027 C 651.022 -4.15616 -1.02211 0
M  V30 7028 C 650.348 -4.8577 -2.23455 0
M  V30 7029 C 651.648 -5.2224 -0.0790725 0
M  V30 7030 H 653.342 -2.98493 0.232878 0
M  V30 7031 H 650.888 -1.43552 0.113441 0
M  V30 7032 H 652.841 -3.64618 -2.11262 0
M  V30 7033 H 651.565 -2.40712 -2.20738 0
M  V30 7034 H 650.224 -3.63641 -0.46484 0
M  V30 7035 H 649.872 -4.11376 -2.89445 0
M  V30 7036 H 649.572 -5.56058 -1.89929 0
M  V30 7037 H 651.096 -5.4156 -2.82038 0
M  V30 7038 H 652.51 -5.70485 -0.567438 0
M  V30 7039 H 650.907 -5.99867 0.167167 0
M  V30 7040 H 651.977 -4.77078 0.867447 0
M  V30 7041 O 653.359 -0.275866 -1.59126 0
M  V30 7042 H 654.05 0.293949 -1.91457 0
M  V30 END ATOM
M  V30 BEGIN BOND
M  V30 END BOND
M  V30 END CTAB
M  END
$$$$
