drugbank_target|P26276 Phosphomannomutase/phosphoglucomutase (DB02007; DB02843; DB02867; DB02900; DB04522)
 OpenBabel12092119533D

  0  0  0     0  0            999 V3000
M  V30 BEGIN CTAB
M  V30 COUNTS 7087 7155 0 0 0
M  V30 BEGIN ATOM
M  V30 1 H -0.908 1.98254 -0.117106 0
M  V30 2 N 0 1.576 0 0
M  V30 3 C 0.933 2.03868 1.02534 0
M  V30 4 C 1.911 0.928543 1.3348 0
M  V30 5 O 3.095 1.19667 1.45644 0
M  V30 6 C 0.222 2.43627 2.35294 0
M  V30 7 C -0.732 3.65373 2.2001 0
M  V30 8 S 0.101 5.13292 1.52614 0
M  V30 9 C 1.257 5.56322 2.86805 0
M  V30 10 H 1.49 2.90518 0.631377 0
M  V30 11 H -0.977 1.52953 0.210867 0
M  V30 12 H 0.981 2.67203 3.11629 0
M  V30 13 H -0.358 1.57376 2.7183 0
M  V30 14 H -1.165 3.90944 3.18086 0
M  V30 15 H -1.563 3.418 1.51819 0
M  V30 16 H 0.729 5.58782 3.83104 0
M  V30 17 H 1.672 6.56266 2.65933 0
M  V30 18 H 2.08 4.83886 2.90714 0
M  V30 19 N 1.4781 -0.272755 1.55222 0
M  V30 20 C 2.7031 -1.02683 1.80197 0
M  V30 21 C 3.1281 -1.79142 0.573551 0
M  V30 22 O 2.4861 -1.74917 -0.476849 0
M  V30 23 C 2.5341 -1.9609 3.02624 0
M  V30 24 O 1.6381 -3.04863 2.77727 0
M  V30 25 H 0.9791 -0.293557 0.595584 0
M  V30 26 H 3.5091 -0.30159 2.02365 0
M  V30 27 H 3.5191 -2.38039 3.31363 0
M  V30 28 H 2.1941 -1.39851 3.91682 0
M  V30 29 H 0.7711 -2.67228 2.60084 0
M  V30 30 N 2.9562 -1.48159 -0.537278 0
M  V30 31 C 4.1842 -1.59454 -1.31841 0
M  V30 32 C 4.5992 -0.252065 -1.8711 0
M  V30 33 O 3.9562 0.757621 -1.66031 0
M  V30 34 C 4.0072 -2.63546 -2.47439 0
M  V30 35 O 3.7282 -3.92583 -1.94449 0
M  V30 36 C 5.2292 -2.85212 -3.39366 0
M  V30 37 H 2.4492 -0.53785 -0.401196 0
M  V30 38 H 4.9932 -1.93932 -0.648891 0
M  V30 39 H 3.1482 -2.31946 -3.1029 0
M  V30 40 H 3.5622 -4.49629 -2.70063 0
M  V30 41 H 5.0362 -3.61863 -4.16844 0
M  V30 42 H 5.5132 -1.93765 -3.94147 0
M  V30 43 H 6.1192 -3.18086 -2.82314 0
M  V30 44 N 4.4343 0.785586 -1.36625 0
M  V30 45 C 5.3973 1.87999 -1.31107 0
M  V30 46 C 6.3973 1.59316 -0.217959 0
M  V30 47 O 7.5873 1.67656 -0.472977 0
M  V30 48 C 4.7193 3.24861 -1.03334 0
M  V30 49 H 5.9123 1.94307 -2.2844 0
M  V30 50 H 3.4653 0.983813 -1.21453 0
M  V30 51 H 4.2003 3.24235 -0.0647432 0
M  V30 52 H 3.9853 3.4707 -1.82441 0
M  V30 53 H 5.4753 4.04929 -1.02088 0
M  V30 54 N 5.9124 1.20967 1.01018 0
M  V30 55 C 6.8594 0.964281 2.09691 0
M  V30 56 C 7.8294 -0.107853 1.65749 0
M  V30 57 O 9.0144 0.0381987 1.90762 0
M  V30 58 C 6.1544 0.52943 3.41015 0
M  V30 59 C 5.2674 1.67043 3.98398 0
M  V30 60 C 4.4024 1.18525 5.17808 0
M  V30 61 C 3.4414 2.29892 5.67288 0
M  V30 62 N 2.5784 1.82546 6.77954 0
M  V30 63 H 7.4184 1.89463 2.30017 0
M  V30 64 H 4.9554 0.944289 1.1279 0
M  V30 65 H 6.9134 0.258588 4.16398 0
M  V30 66 H 5.5434 -0.363919 3.20742 0
M  V30 67 H 4.5954 2.05603 3.20049 0
M  V30 68 H 5.9074 2.50877 4.31117 0
M  V30 69 H 5.0614 0.870762 6.00419 0
M  V30 70 H 3.8004 0.316887 4.86669 0
M  V30 71 H 2.8054 2.6215 4.83278 0
M  V30 72 H 4.0304 3.17216 6.00459 0
M  V30 73 H 1.9764 0.980454 6.48632 0
M  V30 74 H 1.8934 2.59956 7.09901 0
M  V30 75 H 3.1614 1.54115 7.64113 0
M  V30 76 N 7.3905 -1.2043 1.01659 0
M  V30 77 C 8.3535 -2.21433 0.591616 0
M  V30 78 C 9.3535 -1.57203 -0.338226 0
M  V30 79 O 10.5435 -1.73737 -0.126918 0
M  V30 80 C 7.6755 -3.40628 -0.136058 0
M  V30 81 H 8.8685 -2.60545 1.48514 0
M  V30 82 H 6.4215 -1.33893 0.806379 0
M  V30 83 H 7.1565 -3.07019 -1.04449 0
M  V30 84 H 6.9415 -3.88475 0.531917 0
M  V30 85 H 8.4315 -4.15475 -0.420735 0
M  V30 86 N 8.8686 -0.792821 -1.36206 0
M  V30 87 C 10.2796 -0.429513 -1.81692 0
M  V30 88 C 10.6306 1.04695 -1.65932 0
M  V30 89 O 9.7556 1.81256 -1.18218 0
M  V30 90 C 10.3506 -0.772831 -3.29868 0
M  V30 91 C 8.9096 -0.462307 -3.7355 0
M  V30 92 C 8.0566 -1.00569 -2.5842 0
M  V30 93 H 11.0076 -0.985672 -1.24379 0
M  V30 94 H 11.0286 -0.0651928 -3.80444 0
M  V30 95 H 10.5406 -1.84747 -3.41307 0
M  V30 96 H 8.6416 0.604158 -3.67669 0
M  V30 97 H 8.7546 -0.985299 -4.68859 0
M  V30 98 H 7.1186 -0.428734 -2.51066 0
M  V30 99 H 7.9016 -2.08616 -2.72643 0
M  V30 100 N 10.3467 1.47872 -0.545128 0
M  V30 101 C 11.5747 2.06889 -0.021084 0
M  V30 102 C 11.9897 1.39955 1.2672 0
M  V30 103 O 11.3467 0.492036 1.75742 0
M  V30 104 C 11.3977 3.60996 0.190817 0
M  V30 105 O 11.1187 4.25419 -1.04644 0
M  V30 106 C 12.6197 4.36849 0.753521 0
M  V30 107 H 9.8397 0.669785 -0.0403635 0
M  V30 108 H 12.3837 1.90049 -0.755095 0
M  V30 109 H 10.5387 3.77391 0.87492 0
M  V30 110 H 10.9527 5.17785 -0.836611 0
M  V30 111 H 12.4267 5.45399 0.851139 0
M  V30 112 H 12.9037 4.02306 1.762 0
M  V30 113 H 13.5097 4.25169 0.105503 0
M  V30 114 N 11.8248 0.280983 1.55075 0
M  V30 115 C 12.7548 -0.597469 2.25727 0
M  V30 116 C 13.7358 -1.15417 1.24952 0
M  V30 117 O 14.9208 -1.18722 1.53684 0
M  V30 118 C 12.0508 -1.7789 2.98283 0
M  V30 119 C 11.0048 -1.35347 4.06036 0
M  V30 120 C 10.3308 -2.61846 4.66198 0
M  V30 121 C 11.6308 -0.499354 5.19907 0
M  V30 122 H 13.3248 -0.00824265 2.99399 0
M  V30 123 H 10.8708 -0.0025244 1.44 0
M  V30 124 H 12.8238 -2.39937 3.46422 0
M  V30 125 H 11.5478 -2.39405 2.22155 0
M  V30 126 H 10.2068 -0.756156 3.58717 0
M  V30 127 H 9.8548 -3.21632 3.86732 0
M  V30 128 H 9.5548 -2.3409 5.38958 0
M  V30 129 H 11.0788 -3.24732 5.1709 0
M  V30 130 H 12.4928 -1.02498 5.64063 0
M  V30 131 H 10.8898 -0.316424 5.99265 0
M  V30 132 H 11.9598 0.480459 4.82514 0
M  V30 133 N 13.3029 -1.57598 0.00835791 0
M  V30 134 C 14.7139 -1.7892 -0.53333 0
M  V30 135 C 15.0649 -0.916609 -1.73473 0
M  V30 136 O 14.1899 -0.121336 -2.1606 0
M  V30 137 C 14.7849 -3.24488 -0.974313 0
M  V30 138 C 13.3439 -3.46878 -1.46125 0
M  V30 139 C 12.4909 -2.74157 -0.416302 0
M  V30 140 H 15.4419 -1.56958 0.234495 0
M  V30 141 H 15.4629 -3.3306 -1.83988 0
M  V30 142 H 14.9749 -3.87972 -0.099718 0
M  V30 143 H 13.0759 -2.8862 -2.35646 0
M  V30 144 H 13.1889 -4.55572 -1.48295 0
M  V30 145 H 11.5529 -2.39022 -0.87981 0
M  V30 146 H 12.3359 -3.40345 0.44947 0
M  V30 147 N 14.781 0.264519 -1.55364 0
M  V30 148 C 15.744 1.31046 -1.88042 0
M  V30 149 C 16.744 1.41943 -0.755569 0
M  V30 150 O 17.934 1.40947 -1.02369 0
M  V30 151 C 15.066 2.69067 -2.09323 0
M  V30 152 H 16.259 1.03297 -2.81549 0
M  V30 153 H 13.812 0.502989 -1.47986 0
M  V30 154 H 14.547 3.01982 -1.18226 0
M  V30 155 H 14.332 2.62542 -2.91229 0
M  V30 156 H 15.822 3.44623 -2.35848 0
M  V30 157 N 16.2591 1.48442 0.529413 0
M  V30 158 C 17.4841 1.60406 1.31471 0
M  V30 159 C 17.9091 0.264738 1.86228 0
M  V30 160 O 17.2671 -0.763668 1.64432 0
M  V30 161 C 17.3151 2.65419 2.44101 0
M  V30 162 O 16.4191 2.22618 3.47153 0
M  V30 163 H 15.7601 0.537863 0.389357 0
M  V30 164 H 18.2901 1.94432 0.636965 0
M  V30 165 H 18.3001 2.86709 2.90279 0
M  V30 166 H 16.9751 3.62652 2.03608 0
M  V30 167 H 15.5521 2.11543 3.0709 0
M  V30 168 N 17.7372 -0.778329 1.37039 0
M  V30 169 C 18.9862 -1.53189 1.3121 0
M  V30 170 C 19.2992 -1.95328 -0.103095 0
M  V30 171 O 20.5052 -2.70012 -0.283826 0
M  V30 172 C 18.9612 -2.76591 2.30272 0
M  V30 173 C 18.5692 -2.41577 3.77286 0
M  V30 174 C 20.3132 -3.5455 2.33441 0
M  V30 175 C 18.2202 -3.61441 4.68096 0
M  V30 176 H 17.1502 -0.5751 0.487622 0
M  V30 177 H 19.8012 -0.853101 1.62464 0
M  V30 178 H 18.1832 -3.46326 1.92027 0
M  V30 179 H 19.3572 -1.79668 4.2433 0
M  V30 180 H 17.6722 -1.76806 3.76999 0
M  V30 181 H 20.2692 -4.43628 2.98493 0
M  V30 182 H 20.6122 -3.93936 1.34611 0
M  V30 183 H 21.1452 -2.91805 2.7036 0
M  V30 184 H 17.8842 -3.27142 5.6803 0
M  V30 185 H 17.4042 -4.22478 4.25761 0
M  V30 186 H 19.0832 -4.28335 4.8491 0
M  V30 187 N 19.2153 -1.21501 -1.00376 0
M  V30 188 C 20.4623 -1.03299 -1.74171 0
M  V30 189 C 20.7903 0.433326 -1.89612 0
M  V30 190 O 20.0453 1.33779 -1.42834 0
M  V30 191 C 20.3443 -1.67673 -3.15627 0
M  V30 192 C 20.0103 -3.17533 -3.2013 0
M  V30 193 C 18.6723 -3.58427 -3.21067 0
M  V30 194 C 21.0243 -4.13504 -3.17275 0
M  V30 195 C 18.3523 -4.93794 -3.16835 0
M  V30 196 C 20.7043 -5.48834 -3.14585 0
M  V30 197 C 19.3683 -5.89123 -3.13831 0
M  V30 198 H 18.6383 -0.377999 -0.637336 0
M  V30 199 H 21.2853 -1.51111 -1.17634 0
M  V30 200 H 19.5903 -1.12158 -3.75404 0
M  V30 201 H 21.2873 -1.51091 -3.71446 0
M  V30 202 H 17.8773 -2.84965 -3.20145 0
M  V30 203 H 22.0613 -3.82936 -3.15711 0
M  V30 204 H 17.3173 -5.24255 -3.1459 0
M  V30 205 H 21.4913 -6.22934 -3.1133 0
M  V30 206 H 19.1183 -6.93984 -3.10307 0
M  V30 207 N 20.6934 1.19889 -1.02296 0
M  V30 208 C 22.1094 1.41462 -0.738954 0
M  V30 209 C 22.3094 1.89721 0.678846 0
M  V30 210 O 21.3654 2.07016 1.4457 0
M  V30 211 C 22.6784 2.43083 -1.77005 0
M  V30 212 C 24.2264 2.5684 -1.78892 0
M  V30 213 C 24.7014 3.61709 -2.80945 0
M  V30 214 N 26.1924 3.69199 -2.79725 0
M  V30 215 C 26.9274 4.50019 -3.55345 0
M  V30 216 N 26.4234 5.34592 -4.40662 0
M  V30 217 N 28.2164 4.44612 -3.43914 0
M  V30 218 H 20.3674 0.868827 -1.93817 0
M  V30 219 H 22.6304 0.44399 -0.837602 0
M  V30 220 H 22.3364 2.14636 -2.78612 0
M  V30 221 H 22.2104 3.4217 -1.58744 0
M  V30 222 H 24.5974 2.84614 -0.779674 0
M  V30 223 H 24.6784 1.57927 -2.01228 0
M  V30 224 H 24.3224 3.34678 -3.82038 0
M  V30 225 H 24.2524 4.60259 -2.5587 0
M  V30 226 H 26.7434 3.08794 -2.17842 0
M  V30 227 H 27.0564 5.93363 -4.95116 0
M  V30 228 H 25.4014 5.34073 -4.44737 0
M  V30 229 H 28.5924 3.7758 -2.76679 0
M  V30 230 H 28.7654 5.0736 -4.031 0
M  V30 231 N 22.1715 0.800033 1.35784 0
M  V30 232 C 23.1345 0.211565 2.28221 0
M  V30 233 C 24.1345 -0.59728 1.49296 0
M  V30 234 O 25.3245 -0.416721 1.69142 0
M  V30 235 C 22.4565 -0.705846 3.33513 0
M  V30 236 H 23.6495 1.02677 2.81776 0
M  V30 237 H 21.2025 0.570211 1.45528 0
M  V30 238 H 21.9375 -1.54498 2.85133 0
M  V30 239 H 21.7225 -0.127655 3.91892 0
M  V30 240 H 23.2125 -1.11211 4.02519 0
M  V30 241 N 23.6496 -1.47581 0.552962 0
M  V30 242 C 24.8796 -2.06575 0.0320091 0
M  V30 243 C 25.2876 -1.4067 -1.26525 0
M  V30 244 O 24.6306 -0.495808 -1.76883 0
M  V30 245 C 24.6926 -3.58705 -0.238913 0
M  V30 246 C 24.3566 -4.46625 0.968272 0
M  V30 247 C 25.3536 -4.85 1.87274 0
M  V30 248 C 23.0386 -4.88201 1.18175 0
M  V30 249 C 25.0326 -5.63745 2.9744 0
M  V30 250 C 22.7196 -5.66712 2.28651 0
M  V30 251 C 23.7176 -6.04394 3.18114 0
M  V30 252 O 23.4056 -6.81324 4.26676 0
M  V30 253 H 23.1376 -0.674763 0.0408689 0
M  V30 254 H 25.6916 -1.90634 0.764719 0
M  V30 255 H 23.9216 -3.72844 -1.02588 0
M  V30 256 H 25.6106 -3.99735 -0.704731 0
M  V30 257 H 26.3766 -4.53482 1.71984 0
M  V30 258 H 22.2556 -4.58339 0.494593 0
M  V30 259 H 25.7996 -5.93077 3.67296 0
M  V30 260 H 21.6966 -5.97642 2.43915 0
M  V30 261 H 22.4646 -6.99712 4.24671 0
M  V30 262 N 25.1277 -0.289203 -1.54924 0
M  V30 263 C 26.4047 0.376032 -1.91951 0
M  V30 264 C 26.7847 1.72622 -1.21511 0
M  V30 265 O 26.1327 2.25853 -0.346767 0
M  V30 266 C 26.3427 0.502378 -3.45365 0
M  V30 267 C 27.6907 0.778741 -4.17398 0
M  V30 268 O 28.7147 0.586647 -3.51336 0
M  V30 269 O 27.5737 1.14698 -5.34328 0
M  V30 270 H 24.6677 0.208167 -0.800372 0
M  V30 271 H 27.2137 -0.336394 -1.66332 0
M  V30 272 H 25.9857 -0.447255 -3.88736 0
M  V30 273 H 25.6087 1.26373 -3.76982 0
M  V30 274 N 26.6058 1.57591 -0.0167156 0
M  V30 275 C 27.8548 1.90461 0.663877 0
M  V30 276 C 28.1678 0.893515 1.73999 0
M  V30 277 O 29.3738 1.11302 2.47637 0
M  V30 278 C 27.8298 3.38155 1.23204 0
M  V30 279 C 27.4378 4.47597 0.189866 0
M  V30 280 C 29.1818 3.80111 1.88986 0
M  V30 281 C 27.0888 5.86379 0.768964 0
M  V30 282 H 26.0188 0.710738 0.251729 0
M  V30 283 H 28.6698 1.83326 -0.0799926 0
M  V30 284 H 27.0518 3.40182 2.02712 0
M  V30 285 H 28.2258 4.57112 -0.581846 0
M  V30 286 H 26.5408 4.14766 -0.368475 0
M  V30 287 H 29.1378 4.81145 2.33247 0
M  V30 288 H 29.4808 3.14511 2.72743 0
M  V30 289 H 30.0138 3.80454 1.16187 0
M  V30 290 H 26.7528 6.55493 -0.0301957 0
M  V30 291 H 26.2728 5.80496 1.50945 0
M  V30 292 H 27.9518 6.34563 1.26251 0
M  V30 293 N 28.0839 -0.256276 1.55502 0
M  V30 294 C 29.4999 -0.604325 1.47716 0
M  V30 295 C 29.6999 -1.88763 0.705039 0
M  V30 296 O 28.7559 -2.51445 0.230613 0
M  V30 297 C 30.0689 -0.715756 2.92057 0
M  V30 298 C 31.6169 -0.808706 3.02372 0
M  V30 299 C 32.0919 -0.951777 4.48001 0
M  V30 300 N 33.5829 -1.01688 4.519 0
M  V30 301 C 34.3179 -1.14668 5.61817 0
M  V30 302 N 33.8139 -1.24261 6.81565 0
M  V30 303 N 35.6069 -1.1791 5.49594 0
M  V30 304 H 27.7579 0.586291 2.04148 0
M  V30 305 H 30.0209 0.201015 0.926443 0
M  V30 306 H 29.7269 0.157027 3.51349 0
M  V30 307 H 29.6009 -1.59071 3.42018 0
M  V30 308 H 31.9879 -1.67195 2.43166 0
M  V30 309 H 32.0689 0.0912063 2.55637 0
M  V30 310 H 31.7129 -0.0931291 5.07815 0
M  V30 311 H 31.6429 -1.86659 4.92408 0
M  V30 312 H 34.1339 -0.954468 3.65648 0
M  V30 313 H 34.4469 -1.34046 7.61086 0
M  V30 314 H 32.7919 -1.21236 6.84344 0
M  V30 315 H 35.9829 -1.10057 4.54978 0
M  V30 316 H 36.1559 -1.27681 6.35296 0
M  V30 317 N 29.562 -1.4872 -0.521534 0
M  V30 318 C 30.81 -1.56857 -1.27437 0
M  V30 319 C 31.131 -0.247982 -1.93417 0
M  V30 320 O 30.401 0.731151 -1.81744 0
M  V30 321 H 28.981 -0.577885 -0.473347 0
M  V30 322 H 31.643 -1.85233 -0.606205 0
M  V30 323 H 30.739 -2.35402 -2.0492 0
M  V30 324 N 31.0401 0.771051 -1.3745 0
M  V30 325 C 32.2861 1.5319 -1.32894 0
M  V30 326 C 32.6191 1.94008 0.0862511 0
M  V30 327 O 31.8941 1.64124 1.04373 0
M  V30 328 C 32.1771 2.79648 -2.26868 0
M  V30 329 C 32.0301 2.45079 -3.77169 0
M  V30 330 C 33.3491 3.81583 -2.19277 0
M  V30 331 H 30.4681 0.555744 -0.484064 0
M  V30 332 H 33.1101 0.884492 -1.68157 0
M  V30 333 H 31.2601 3.34891 -1.96926 0
M  V30 334 H 32.9321 1.95745 -4.1771 0
M  V30 335 H 31.1751 1.77767 -3.95704 0
M  V30 336 H 31.8461 3.35478 -4.38359 0
M  V30 337 H 34.3221 3.35835 -2.45671 0
M  V30 338 H 33.1981 4.67787 -2.87171 0
M  V30 339 H 33.4591 4.25897 -1.18592 0
M  V30 340 N 32.5182 1.22032 0.997298 0
M  V30 341 C 33.7642 1.04376 1.73878 0
M  V30 342 C 34.0972 -0.420716 1.89588 0
M  V30 343 O 33.3722 -1.31202 1.43583 0
M  V30 344 C 33.6552 1.75047 3.14691 0
M  V30 345 C 33.5082 3.29062 3.06656 0
M  V30 346 C 34.8272 1.49928 4.13775 0
M  V30 347 H 31.9462 0.380578 0.631133 0
M  V30 348 H 34.5882 1.50312 1.16217 0
M  V30 349 H 32.7382 1.35996 3.63919 0
M  V30 350 H 34.4102 3.7753 2.65083 0
M  V30 351 H 32.6532 3.58967 2.43568 0
M  V30 352 H 33.3242 3.73683 4.06282 0
M  V30 353 H 35.8002 1.83842 3.73285 0
M  V30 354 H 34.6762 2.01878 5.10428 0
M  V30 355 H 34.9372 0.430929 4.39995 0
M  V30 356 N 33.9963 -1.19345 1.0293 0
M  V30 357 C 35.2443 -1.88665 0.724574 0
M  V30 358 C 35.5653 -1.80036 -0.749144 0
M  V30 359 O 34.8353 -1.2111 -1.53978 0
M  V30 360 H 33.4153 -0.698406 0.265025 0
M  V30 361 H 36.0773 -1.44885 1.30362 0
M  V30 362 H 35.1733 -2.94987 1.01926 0
M  V30 363 N 35.4744 -0.807222 -1.35358 0
M  V30 364 C 36.7514 -0.311126 -1.9311 0
M  V30 365 C 37.1314 1.19937 -1.73719 0
M  V30 366 O 36.4794 1.99918 -1.10657 0
M  V30 367 C 36.6894 -0.723226 -3.41424 0
M  V30 368 C 38.0374 -0.713078 -4.18569 0
M  V30 369 O 39.0614 -0.664811 -3.49941 0
M  V30 370 O 37.9204 -0.772022 -5.41019 0
M  V30 371 H 35.0144 -0.081526 -0.822972 0
M  V30 372 H 37.5604 -0.890962 -1.4443 0
M  V30 373 H 36.3324 -1.76426 -3.4927 0
M  V30 374 H 35.9554 -0.118232 -3.97424 0
M  V30 375 N 36.9525 1.47285 -0.560781 0
M  V30 376 C 38.1805 2.06855 -0.0430262 0
M  V30 377 C 38.5955 1.41291 1.25229 0
M  V30 378 O 37.9525 0.510648 1.7521 0
M  V30 379 C 38.0035 3.61178 0.152518 0
M  V30 380 O 37.7245 4.24285 -1.0915 0
M  V30 381 C 39.2255 4.37624 0.707145 0
M  V30 382 H 36.4455 0.669319 -0.0474652 0
M  V30 383 H 38.9895 1.89237 -0.77521 0
M  V30 384 H 37.1445 3.78298 0.834843 0
M  V30 385 H 37.5585 5.16868 -0.891482 0
M  V30 386 H 39.0325 5.46271 0.793244 0
M  V30 387 H 39.5095 4.04152 1.71923 0
M  V30 388 H 40.1155 4.25257 0.0604027 0
M  V30 389 N 38.4306 0.297415 1.54768 0
M  V30 390 C 39.3606 -0.573494 2.26348 0
M  V30 391 C 40.3416 -1.14085 1.26169 0
M  V30 392 O 41.5266 -1.17086 1.54934 0
M  V30 393 C 38.6566 -1.74716 3.00153 0
M  V30 394 C 37.6106 -1.31032 4.07449 0
M  V30 395 C 36.9366 -2.56887 4.68949 0
M  V30 396 C 38.2366 -0.444183 5.20408 0
M  V30 397 H 39.9306 0.0235131 2.99391 0
M  V30 398 H 37.4766 0.0127488 1.43994 0
M  V30 399 H 39.4296 -2.3625 3.48947 0
M  V30 400 H 38.1536 -2.37035 2.24682 0
M  V30 401 H 36.8126 -0.718066 3.59499 0
M  V30 402 H 36.4606 -3.17512 3.90122 0
M  V30 403 H 36.1606 -2.2836 5.41411 0
M  V30 404 H 37.6846 -3.19229 5.20505 0
M  V30 405 H 39.0986 -0.9651 5.65118 0
M  V30 406 H 37.4956 -0.252846 5.99567 0
M  V30 407 H 38.5656 0.531609 4.81977 0
M  V30 408 N 39.9087 -1.5758 0.0250728 0
M  V30 409 C 41.1367 -1.9593 -0.664747 0
M  V30 410 C 41.5517 -0.901352 -1.65895 0
M  V30 411 O 40.9087 0.117255 -1.82123 0
M  V30 412 C 40.9597 -3.34342 -1.37468 0
M  V30 413 O 40.6807 -4.36079 -0.420324 0
M  V30 414 C 42.1817 -3.873 -2.1567 0
M  V30 415 H 39.4017 -0.645405 -0.183557 0
M  V30 416 H 41.9457 -2.04329 0.0836372 0
M  V30 417 H 40.1007 -3.27175 -2.0745 0
M  V30 418 H 40.5147 -5.16297 -0.923991 0
M  V30 419 H 41.9887 -4.86504 -2.60803 0
M  V30 420 H 42.4657 -3.21331 -2.99405 0
M  V30 421 H 43.0717 -3.97723 -1.50654 0
M  V30 422 N 41.3868 0.248026 -1.55636 0
M  V30 423 C 42.3498 1.29044 -1.89421 0
M  V30 424 C 43.3498 1.41134 -0.770581 0
M  V30 425 O 44.5398 1.39854 -1.03858 0
M  V30 426 C 41.6718 2.66831 -2.12165 0
M  V30 427 H 42.8648 1.00305 -2.82629 0
M  V30 428 H 40.4178 0.487265 -1.48511 0
M  V30 429 H 41.1528 3.00711 -1.21422 0
M  V30 430 H 40.9378 2.59438 -2.93997 0
M  V30 431 H 42.4278 3.42103 -2.3949 0
M  V30 432 N 42.8649 1.48995 0.513639 0
M  V30 433 C 43.7749 1.67443 1.64317 0
M  V30 434 C 44.7909 0.556947 1.64846 0
M  V30 435 O 45.9669 0.830082 1.83498 0
M  V30 436 C 43.0319 1.72515 3.00732 0
M  V30 437 C 42.0929 2.96009 3.1093 0
M  V30 438 C 41.3259 3.00829 4.40837 0
M  V30 439 O 41.5489 2.13594 5.28898 0
M  V30 440 O 40.4829 3.93168 4.55744 0
M  V30 441 H 44.3089 2.63106 1.51687 0
M  V30 442 H 41.8939 1.32588 0.688543 0
M  V30 443 H 43.7759 1.78277 3.81831 0
M  V30 444 H 42.4509 0.800278 3.13651 0
M  V30 445 H 41.3579 2.9577 2.29065 0
M  V30 446 H 42.6909 3.87934 3.02933 0
M  V30 447 N 44.343 -0.763751 1.37857 0
M  V30 448 C 45.571 -1.55293 1.36718 0
M  V30 449 C 45.986 -1.88745 -0.0455434 0
M  V30 450 O 45.343 -1.52039 -1.00947 0
M  V30 451 C 45.394 -2.85831 2.2132 0
M  V30 452 O 45.115 -2.5381 3.57089 0
M  V30 453 C 46.616 -3.80023 2.28249 0
M  V30 454 H 43.836 -0.480841 0.468009 0
M  V30 455 H 46.38 -0.946009 1.81303 0
M  V30 456 H 44.535 -3.42926 1.80223 0
M  V30 457 H 44.949 -3.37459 4.01524 0
M  V30 458 H 46.423 -4.68599 2.91752 0
M  V30 459 H 46.9 -4.1973 1.2932 0
M  V30 460 H 47.506 -3.28855 2.69693 0
M  V30 461 N 45.8211 -1.22559 -0.990812 0
M  V30 462 C 46.7841 -0.998863 -2.0629 0
M  V30 463 C 47.7841 0.0354834 -1.60761 0
M  V30 464 O 48.9741 -0.203231 -1.7301 0
M  V30 465 C 46.1061 -0.509203 -3.37076 0
M  V30 466 H 47.2991 -1.95014 -2.27837 0
M  V30 467 H 44.8521 -1.04456 -1.16269 0
M  V30 468 H 45.5871 0.446335 -3.21214 0
M  V30 469 H 45.3721 -1.25547 -3.71457 0
M  V30 470 H 46.8621 -0.370888 -4.1595 0
M  V30 471 N 47.2992 1.18797 -1.03562 0
M  V30 472 C 48.5292 1.92319 -0.754773 0
M  V30 473 C 48.9372 1.7612 0.691248 0
M  V30 474 O 48.2802 1.08491 1.48241 0
M  V30 475 C 48.3422 3.44284 -1.03484 0
M  V30 476 C 48.0062 3.84258 -2.47376 0
M  V30 477 C 49.0032 3.88459 -3.45537 0
M  V30 478 C 46.6882 4.15701 -2.81954 0
M  V30 479 C 48.6822 4.23545 -4.76328 0
M  V30 480 C 46.3692 4.50458 -4.12954 0
M  V30 481 C 47.3672 4.54356 -5.09951 0
M  V30 482 O 47.0552 4.88305 -6.38603 0
M  V30 483 H 46.7872 0.617527 -0.275021 0
M  V30 484 H 49.3412 1.51683 -1.38497 0
M  V30 485 H 47.5712 3.85135 -0.347513 0
M  V30 486 H 49.2602 3.99049 -0.7426 0
M  V30 487 H 50.0262 3.6431 -3.20162 0
M  V30 488 H 45.9052 4.11847 -2.0713 0
M  V30 489 H 49.4492 4.26502 -5.52035 0
M  V30 490 H 45.3462 4.74067 -4.38099 0
M  V30 491 H 46.1142 5.06227 -6.43177 0
M  V30 492 N 48.7773 0.814389 1.34928 0
M  V30 493 C 50.0233 0.408167 1.99263 0
M  V30 494 C 50.3783 -1.0154 1.63424 0
M  V30 495 O 49.6713 -1.69607 0.891289 0
M  V30 496 C 49.8653 0.537781 3.53331 0
M  V30 497 C 49.6943 1.9724 4.04137 0
M  V30 498 C 48.4643 2.60245 4.33129 0
M  V30 499 C 50.6623 2.93801 4.2212 0
M  V30 500 N 48.6443 3.95036 4.69914 0
M  V30 501 C 50.0153 4.1348 4.6199 0
M  V30 502 C 52.0703 2.9053 4.04348 0
M  V30 503 C 50.7733 5.3033 4.85945 0
M  V30 504 C 52.7993 4.06589 4.29464 0
M  V30 505 C 52.1613 5.25017 4.69613 0
M  V30 506 H 48.2603 0.197289 0.756704 0
M  V30 507 H 50.8443 1.05728 1.63492 0
M  V30 508 H 49.0153 -0.0813868 3.88315 0
M  V30 509 H 50.7473 0.105389 4.04563 0
M  V30 510 H 47.5023 2.11545 4.23728 0
M  V30 511 H 47.9263 4.64455 4.92555 0
M  V30 512 H 52.5683 2.00115 3.72443 0
M  V30 513 H 50.2863 6.21309 5.16721 0
M  V30 514 H 53.8723 4.05447 4.17257 0
M  V30 515 H 52.7523 6.1333 4.88667 0
M  V30 516 N 50.2554 -1.46986 0.568584 0
M  V30 517 C 51.5044 -2.01646 0.0465894 0
M  V30 518 C 51.8174 -1.44721 -1.31587 0
M  V30 519 O 53.0234 -1.91113 -1.92842 0
M  V30 520 C 51.4794 -3.59885 0.032752 0
M  V30 521 C 51.0874 -4.25804 1.39266 0
M  V30 522 C 52.8314 -4.22255 -0.436038 0
M  V30 523 C 50.7384 -5.76081 1.33732 0
M  V30 524 H 49.6684 -0.753876 0.013647 0
M  V30 525 H 52.3194 -1.68864 0.718131 0
M  V30 526 H 50.7014 -3.8968 -0.704669 0
M  V30 527 H 51.8754 -4.07637 2.1487 0
M  V30 528 H 50.1904 -3.7547 1.80032 0
M  V30 529 H 52.7874 -5.32394 -0.49602 0
M  V30 530 H 53.1304 -3.90212 -1.45053 0
M  V30 531 H 53.6634 -3.97033 0.246877 0
M  V30 532 H 50.4024 -6.12761 2.32817 0
M  V30 533 H 49.9224 -5.96553 0.623267 0
M  V30 534 H 51.6014 -6.38518 1.0442 0
M  V30 535 N 51.7335 -0.305618 -1.54608 0
M  V30 536 C 52.9815 0.301701 -1.99835 0
M  V30 537 C 53.3025 1.54054 -1.19551 0
M  V30 538 O 52.5725 1.93702 -0.292658 0
M  V30 539 H 51.1525 0.114468 -0.738178 0
M  V30 540 H 53.8145 -0.418016 -1.90364 0
M  V30 541 H 52.9105 0.570548 -3.06841 0
M  V30 542 N 53.2116 1.57565 -0.0334293 0
M  V30 543 C 54.6276 1.56297 0.322997 0
M  V30 544 C 54.8276 1.03945 1.7262 0
M  V30 545 O 53.8836 0.688109 2.42943 0
M  V30 546 C 55.1966 3.00232 0.167664 0
M  V30 547 C 56.7446 3.12078 0.240107 0
M  V30 548 C 57.2196 4.57859 0.113513 0
M  V30 549 N 58.7106 4.62887 0.170359 0
M  V30 550 C 59.4456 5.73319 0.0962517 0
M  V30 551 N 58.9416 6.92794 -0.0291881 0
M  V30 552 N 60.7346 5.61898 0.150551 0
M  V30 553 H 52.8856 1.89923 -0.950956 0
M  V30 554 H 55.1486 0.873824 -0.367608 0
M  V30 555 H 54.8546 3.42501 -0.799102 0
M  V30 556 H 54.7286 3.654 0.936083 0
M  V30 557 H 57.1156 2.69718 1.19733 0
M  V30 558 H 57.1966 2.49623 -0.558763 0
M  V30 559 H 56.8406 5.009 -0.840314 0
M  V30 560 H 56.7706 5.18299 0.931302 0
M  V30 561 H 59.2616 3.76954 0.26728 0
M  V30 562 H 59.5746 7.7276 -0.0789252 0
M  V30 563 H 57.9196 6.94971 -0.0640299 0
M  V30 564 H 61.1106 4.67448 0.246981 0
M  V30 565 H 61.2836 6.47938 0.0893365 0
M  V30 566 N 54.6897 -0.239769 1.55765 0
M  V30 567 C 55.6527 -1.28038 1.90103 0
M  V30 568 C 56.6527 -1.40723 0.778055 0
M  V30 569 O 57.8427 -1.39301 1.04599 0
M  V30 570 C 54.9747 -2.65702 2.13577 0
M  V30 571 H 56.1677 -0.988048 2.83157 0
M  V30 572 H 53.7207 -0.479382 1.48767 0
M  V30 573 H 54.4557 -3.00063 1.23015 0
M  V30 574 H 54.2407 -2.57875 2.95369 0
M  V30 575 H 55.7307 -3.40828 2.41301 0
M  V30 576 N 56.1678 -1.49265 -0.50573 0
M  V30 577 C 57.4168 -1.57761 -1.25675 0
M  V30 578 C 57.7298 -0.267371 -1.93764 0
M  V30 579 O 58.9358 -0.230827 -2.70517 0
M  V30 580 C 57.3918 -2.78332 -2.28165 0
M  V30 581 C 56.9998 -4.16096 -1.66037 0
M  V30 582 C 58.7438 -2.96155 -3.04125 0
M  V30 583 C 56.6508 -5.27895 -2.6661 0
M  V30 584 H 55.5808 -0.587391 -0.472745 0
M  V30 585 H 58.2318 -1.75644 -0.53118 0
M  V30 586 H 56.6138 -2.53934 -3.03865 0
M  V30 587 H 57.7878 -4.50612 -0.963622 0
M  V30 588 H 56.1028 -4.03591 -1.02484 0
M  V30 589 H 58.6998 -3.76849 -3.79327 0
M  V30 590 H 59.0428 -2.06534 -3.61455 0
M  V30 591 H 59.5758 -3.2057 -2.35541 0
M  V30 592 H 56.3148 -6.1956 -2.14068 0
M  V30 593 H 55.8348 -4.97839 -3.34539 0
M  V30 594 H 57.5138 -5.57031 -3.29129 0
M  V30 595 N 57.6459 0.756429 -1.3826 0
M  V30 596 C 58.8939 1.51248 -1.34047 0
M  V30 597 C 59.2149 1.94875 0.0698372 0
M  V30 598 O 58.4849 1.67436 1.01696 0
M  V30 599 H 57.0649 0.561018 -0.493222 0
M  V30 600 H 59.7269 0.899347 -1.7291 0
M  V30 601 H 58.8229 2.40472 -1.98947 0
M  V30 602 N 59.124 1.23083 0.984299 0
M  V30 603 C 60.349 1.088 1.76571 0
M  V30 604 C 60.774 -0.356657 1.84688 0
M  V30 605 O 60.132 -1.25788 1.30565 0
M  V30 606 C 60.18 1.71371 3.17277 0
M  V30 607 O 59.284 0.973213 4.00752 0
M  V30 608 H 58.625 0.381599 0.543395 0
M  V30 609 H 61.155 1.63057 1.23587 0
M  V30 610 H 61.165 1.76449 3.67872 0
M  V30 611 H 59.84 2.76493 3.10684 0
M  V30 612 H 58.417 0.999078 3.59267 0
M  V30 613 N 60.6021 -1.18246 1.0419 0
M  V30 614 C 61.5121 -2.25574 0.644476 0
M  V30 615 C 62.5281 -1.70845 -0.329826 0
M  V30 616 O 63.7041 -2.00554 -0.184443 0
M  V30 617 C 60.7691 -3.46697 0.014877 0
M  V30 618 C 59.8301 -4.16554 1.03834 0
M  V30 619 C 59.0631 -5.31894 0.438692 0
M  V30 620 O 59.2861 -5.65385 -0.754752 0
M  V30 621 O 58.2201 -5.90459 1.168 0
M  V30 622 H 62.0461 -2.61836 1.53869 0
M  V30 623 H 59.6311 -1.25352 0.812854 0
M  V30 624 H 61.5131 -4.20062 -0.335538 0
M  V30 625 H 60.1881 -3.12255 -0.853138 0
M  V30 626 H 59.0951 -3.45251 1.44057 0
M  V30 627 H 60.4281 -4.54998 1.87716 0
M  V30 628 N 62.0802 -0.821533 -1.34494 0
M  V30 629 C 63.3052 -0.420873 -2.03085 0
M  V30 630 C 63.7302 0.964915 -1.61465 0
M  V30 631 O 63.0882 1.62763 -0.798607 0
M  V30 632 C 63.1362 -0.529414 -3.56693 0
M  V30 633 O 62.2402 0.451302 -4.09923 0
M  V30 634 H 61.5812 -0.173489 -0.640935 0
M  V30 635 H 64.1112 -1.11157 -1.71771 0
M  V30 636 H 64.1212 -0.404671 -4.05988 0
M  V30 637 H 62.7962 -1.54014 -3.86332 0
M  V30 638 H 61.3732 0.285558 -3.71805 0
M  V30 639 N 63.5583 1.46682 -0.576371 0
M  V30 640 C 64.4883 2.33028 0.148397 0
M  V30 641 C 65.4693 1.44961 0.889956 0
M  V30 642 O 66.6543 1.73789 0.866662 0
M  V30 643 C 63.7843 3.27117 1.1667 0
M  V30 644 C 62.7383 4.24575 0.540386 0
M  V30 645 C 62.0643 5.08126 1.6647 0
M  V30 646 C 63.3643 5.19722 -0.518331 0
M  V30 647 H 65.0583 2.93875 -0.572509 0
M  V30 648 H 62.6043 1.41315 -0.276768 0
M  V30 649 H 64.5573 3.86374 1.68204 0
M  V30 650 H 63.2813 2.64364 1.9178 0
M  V30 651 H 61.9403 3.66571 0.0461769 0
M  V30 652 H 61.5883 4.41762 2.40531 0
M  V30 653 H 61.2883 5.74122 1.25131 0
M  V30 654 H 62.8123 5.70246 2.18293 0
M  V30 655 H 64.2263 5.73232 -0.0883058 0
M  V30 656 H 62.6233 5.94026 -0.851679 0
M  V30 657 H 63.6933 4.64037 -1.40703 0
M  V30 658 N 65.0364 0.313813 1.54444 0
M  V30 659 C 65.9994 -0.54379 2.22656 0
M  V30 660 C 66.9994 -1.05124 1.21678 0
M  V30 661 O 68.1894 -0.945225 1.46325 0
M  V30 662 C 65.3214 -1.75427 2.92298 0
M  V30 663 H 66.5144 0.0523599 2.99854 0
M  V30 664 H 64.0674 0.0647834 1.56166 0
M  V30 665 H 64.8024 -2.38991 2.19211 0
M  V30 666 H 64.5874 -1.39791 3.66334 0
M  V30 667 H 66.0774 -2.36325 3.44297 0
M  V30 668 N 66.5145 -1.57545 0.0417849 0
M  V30 669 C 67.9305 -1.56467 -0.314704 0
M  V30 670 C 68.1305 -1.04859 -1.72066 0
M  V30 671 O 67.1865 -0.700983 -2.42575 0
M  V30 672 C 68.4995 -3.00317 -0.15174 0
M  V30 673 C 70.0475 -3.12201 -0.223553 0
M  V30 674 C 70.5225 -4.57913 -0.0892295 0
M  V30 675 N 72.0135 -4.6297 -0.145808 0
M  V30 676 C 72.7485 -5.73362 -0.0658459 0
M  V30 677 N 72.2445 -6.92769 0.0659282 0
M  V30 678 N 74.0375 -5.6197 -0.12075 0
M  V30 679 H 66.1885 -1.89416 0.961014 0
M  V30 680 H 68.4515 -0.871862 0.372237 0
M  V30 681 H 68.1575 -3.42073 0.817254 0
M  V30 682 H 68.0315 -3.65892 -0.916692 0
M  V30 683 H 70.4185 -2.70349 -1.18301 0
M  V30 684 H 70.4995 -2.49323 0.571994 0
M  V30 685 H 70.1435 -5.00448 0.866867 0
M  V30 686 H 70.0735 -5.18786 -0.903802 0
M  V30 687 H 72.5645 -3.7709 -0.247286 0
M  V30 688 H 72.8775 -7.72707 0.119905 0
M  V30 689 H 71.2225 -6.94927 0.100885 0
M  V30 690 H 74.4135 -4.67572 -0.222187 0
M  V30 691 H 74.5865 -6.47977 -0.0549735 0
M  V30 692 N 67.9926 0.231505 -1.5589 0
M  V30 693 C 69.2406 0.955461 -1.78088 0
M  V30 694 C 69.5616 1.85262 -0.608533 0
M  V30 695 O 68.8316 1.92277 0.375035 0
M  V30 696 H 67.4116 0.355787 -0.656829 0
M  V30 697 H 70.0736 0.245751 -1.93344 0
M  V30 698 H 69.1696 1.56814 -2.69844 0
M  V30 699 N 69.4707 1.49531 0.497807 0
M  V30 700 C 70.3807 1.69176 1.62532 0
M  V30 701 C 71.3967 0.5744 1.64246 0
M  V30 702 O 72.5727 0.849497 1.82608 0
M  V30 703 C 69.6377 1.75695 2.98885 0
M  V30 704 C 68.6987 2.9929 3.07773 0
M  V30 705 C 67.9317 3.05488 4.37622 0
M  V30 706 O 68.1547 2.19192 5.26603 0
M  V30 707 O 67.0887 3.9798 4.51548 0
M  V30 708 H 70.9147 2.647 1.48887 0
M  V30 709 H 68.4997 1.3331 0.674441 0
M  V30 710 H 70.3817 1.82317 3.79919 0
M  V30 711 H 69.0567 0.8335 3.12785 0
M  V30 712 H 67.9637 2.98183 2.25915 0
M  V30 713 H 69.2967 3.91125 2.98801 0
M  V30 714 N 70.9488 -0.749086 1.3866 0
M  V30 715 C 72.3598 -1.32664 1.31366 0
M  V30 716 C 72.7108 -1.96179 -0.028484 0
M  V30 717 O 71.8358 -1.9537 -0.93057 0
M  V30 718 C 72.4308 -2.41219 2.37905 0
M  V30 719 C 70.9898 -2.94684 2.34176 0
M  V30 720 C 70.1368 -1.68108 2.20533 0
M  V30 721 H 73.0878 -0.547628 1.48952 0
M  V30 722 H 73.1088 -3.21268 2.0388 0
M  V30 723 H 72.6208 -1.94962 3.35576 0
M  V30 724 H 70.7218 -3.45258 1.401 0
M  V30 725 H 70.8348 -3.48757 3.2849 0
M  V30 726 H 69.1988 -1.91907 1.67463 0
M  V30 727 H 69.9818 -1.23923 3.20153 0
M  V30 728 N 72.4269 -1.23603 -0.977757 0
M  V30 729 C 73.6669 -1.08148 -1.73446 0
M  V30 730 C 74.0309 0.374785 -1.88307 0
M  V30 731 O 75.2319 0.650588 -2.60808 0
M  V30 732 C 73.5029 -1.78991 -3.0935 0
M  V30 733 S 75.0619 -1.79141 -4.00567 0
M  V30 734 H 71.8799 -0.386987 -0.596458 0
M  V30 735 H 74.4819 -1.5678 -1.16792 0
M  V30 736 H 73.1859 -2.8408 -2.96187 0
M  V30 737 H 72.7169 -1.30651 -3.71071 0
M  V30 738 H 74.7319 -0.851892 -4.88833 0
M  V30 739 N 73.905 1.17692 -1.04816 0
M  V30 740 C 75.151 1.88137 -0.75711 0
M  V30 741 C 75.484 1.80604 0.713841 0
M  V30 742 O 74.759 1.21146 1.52164 0
M  V30 743 C 75.042 3.38318 -1.2334 0
M  V30 744 C 74.895 3.54622 -2.76701 0
M  V30 745 C 76.214 4.32214 -0.829415 0
M  V30 746 H 73.333 0.683163 -0.27651 0
M  V30 747 H 75.975 1.38424 -1.30149 0
M  V30 748 H 74.125 3.80787 -0.770286 0
M  V30 749 H 75.797 3.21194 -3.31107 0
M  V30 750 H 74.04 2.97026 -3.16161 0
M  V30 751 H 74.711 4.60028 -3.05088 0
M  V30 752 H 77.187 3.97565 -1.22805 0
M  V30 753 H 76.063 5.35838 -1.19033 0
M  V30 754 H 76.324 4.41294 0.266891 0
M  V30 755 N 75.3831 0.828654 1.34056 0
M  V30 756 C 76.3461 0.259927 2.27721 0
M  V30 757 C 77.3461 -0.565478 1.50529 0
M  V30 758 O 78.5361 -0.38075 1.69988 0
M  V30 759 C 75.6681 -0.634944 3.34935 0
M  V30 760 H 76.8611 1.0863 2.79534 0
M  V30 761 H 74.4141 0.600951 1.44285 0
M  V30 762 H 75.1491 -1.48416 2.88346 0
M  V30 763 H 74.9341 -0.0444999 3.92075 0
M  V30 764 H 76.4241 -1.02648 4.04788 0
M  V30 765 N 76.8612 -1.46375 0.584142 0
M  V30 766 C 78.1072 -2.02678 0.0703716 0
M  V30 767 C 78.4402 -1.4545 -1.28678 0
M  V30 768 O 77.7152 -0.62014 -1.84349 0
M  V30 769 C 77.9982 -3.60099 0.00614674 0
M  V30 770 C 77.8512 -4.27709 1.3923 0
M  V30 771 C 79.1702 -4.34598 -0.693742 0
M  V30 772 H 76.2892 -0.736504 0.027047 0
M  V30 773 H 78.9312 -1.74501 0.751615 0
M  V30 774 H 77.0812 -3.84236 -0.574009 0
M  V30 775 H 78.7532 -4.14832 2.01773 0
M  V30 776 H 76.9962 -3.87016 1.95962 0
M  V30 777 H 77.6672 -5.36478 1.29982 0
M  V30 778 H 80.1432 -4.15615 -0.200869 0
M  V30 779 H 79.0192 -5.44318 -0.707714 0
M  V30 780 H 79.2802 -4.05759 -1.75533 0
M  V30 781 N 78.3393 -0.321999 -1.54275 0
M  V30 782 C 79.5873 0.280489 -2.00144 0
M  V30 783 C 79.9083 1.52777 -1.21178 0
M  V30 784 O 79.1783 1.9338 -0.313187 0
M  V30 785 H 77.7583 0.106632 -0.73935 0
M  V30 786 H 80.4203 -0.438184 -1.8991 0
M  V30 787 H 79.5163 0.537972 -3.07428 0
M  V30 788 N 79.8174 1.5752 -0.0501392 0
M  V30 789 C 81.2334 1.56631 0.306402 0
M  V30 790 C 81.4334 1.0577 1.71508 0
M  V30 791 O 80.4894 0.713837 2.422 0
M  V30 792 C 81.8024 3.00393 0.135811 0
M  V30 793 C 83.3504 3.12315 0.206993 0
M  V30 794 C 83.8254 4.57954 0.064944 0
M  V30 795 N 85.3164 4.63041 0.121254 0
M  V30 796 C 86.0514 5.73389 0.0354381 0
M  V30 797 N 85.5474 6.92724 -0.102666 0
M  V30 798 N 87.3404 5.62026 0.090946 0
M  V30 799 H 79.4914 1.88903 -0.971046 0
M  V30 800 H 81.7544 0.869876 -0.376855 0
M  V30 801 H 81.4604 3.41635 -0.835384 0
M  V30 802 H 81.3344 3.66373 0.897275 0
M  V30 803 H 83.7214 2.70973 1.16866 0
M  V30 804 H 83.8024 2.49016 -0.585208 0
M  V30 805 H 83.4464 4.99981 -0.893394 0
M  V30 806 H 83.3764 5.19258 0.876277 0
M  V30 807 H 85.8674 3.77216 0.227284 0
M  V30 808 H 86.1804 7.72633 -0.160882 0
M  V30 809 H 84.5254 6.94864 -0.137737 0
M  V30 810 H 87.7164 4.67684 0.197388 0
M  V30 811 H 87.8894 6.47997 0.0206089 0
M  V30 812 N 81.2955 -0.223234 1.56011 0
M  V30 813 C 82.5725 -0.972108 1.69733 0
M  V30 814 C 82.9525 -2.02485 0.59691 0
M  V30 815 O 82.3005 -2.25037 -0.396324 0
M  V30 816 C 82.5105 -1.58407 3.10979 0
M  V30 817 C 83.8585 -2.07696 3.70334 0
M  V30 818 O 84.8825 -1.68304 3.1393 0
M  V30 819 O 83.7415 -2.80096 4.69264 0
M  V30 820 H 80.8355 -0.453993 0.691245 0
M  V30 821 H 83.3815 -0.215149 1.68331 0
M  V30 822 H 82.1535 -0.823831 3.82529 0
M  V30 823 H 81.7765 -2.40661 3.16493 0
M  V30 824 N 82.7736 -1.49793 -0.48987 0
M  V30 825 C 84.0216 -1.59525 -1.24081 0
M  V30 826 C 84.3426 -0.288953 -1.92847 0
M  V30 827 O 83.6126 0.692436 -1.83254 0
M  V30 828 H 82.1926 -0.587796 -0.460983 0
M  V30 829 H 84.8546 -1.86477 -0.566778 0
M  V30 830 H 83.9506 -2.39696 -1.99881 0
M  V30 831 N 84.2517 0.741722 -1.39055 0
M  V30 832 C 85.6677 1.04638 -1.20512 0
M  V30 833 C 85.8677 2.01405 -0.0620218 0
M  V30 834 O 84.9237 2.45547 0.588457 0
M  V30 835 C 86.2367 1.6151 -2.53643 0
M  V30 836 C 87.7847 1.73623 -2.6043 0
M  V30 837 C 88.2597 2.33906 -3.93767 0
M  V30 838 N 89.7507 2.41323 -3.9537 0
M  V30 839 C 90.4857 2.88888 -4.95309 0
M  V30 840 N 89.9817 3.36401 -6.05645 0
M  V30 841 N 91.7747 2.88037 -4.82692 0
M  V30 842 H 83.9257 0.0998155 -2.12165 0
M  V30 843 H 86.1887 0.106907 -0.941953 0
M  V30 844 H 85.8947 0.978739 -3.37807 0
M  V30 845 H 85.7687 2.60411 -2.72885 0
M  V30 846 H 88.1557 2.36384 -1.76655 0
M  V30 847 H 88.2367 0.733945 -2.45045 0
M  V30 848 H 87.8807 1.71776 -4.7797 0
M  V30 849 H 87.8107 3.34799 -4.06469 0
M  V30 850 H 90.3017 2.07734 -3.15682 0
M  V30 851 H 90.6147 3.71186 -6.77821 0
M  V30 852 H 88.9597 3.34427 -6.09248 0
M  V30 853 H 92.1507 2.50237 -3.95599 0
M  V30 854 H 92.3237 3.24792 -5.60726 0
M  V30 855 N 85.7298 1.2412 0.971189 0
M  V30 856 C 86.6598 1.05508 2.08304 0
M  V30 857 C 87.6408 -0.0308864 1.70072 0
M  V30 858 O 88.8258 0.135521 1.93727 0
M  V30 859 C 85.9558 0.655365 3.4106 0
M  V30 860 C 84.9098 1.68971 3.93234 0
M  V30 861 C 84.2358 1.14516 5.22293 0
M  V30 862 C 85.5358 3.08487 4.21465 0
M  V30 863 H 87.2298 1.98507 2.24132 0
M  V30 864 H 84.7758 0.955821 1.07704 0
M  V30 865 H 86.7288 0.51217 4.18276 0
M  V30 866 H 85.4528 -0.31032 3.25122 0
M  V30 867 H 84.1118 1.82106 3.18171 0
M  V30 868 H 83.7598 0.170189 5.02712 0
M  V30 869 H 83.4598 1.83635 5.58168 0
M  V30 870 H 84.9838 1.01401 6.02121 0
M  V30 871 H 86.3978 2.98601 4.89398 0
M  V30 872 H 84.7948 3.74926 4.68562 0
M  V30 873 H 85.8648 3.56787 3.28376 0
M  V30 874 N 87.2079 -1.17134 1.05439 0
M  V30 875 C 88.4329 -1.91913 0.786396 0
M  V30 876 C 88.8579 -1.7643 -0.652234 0
M  V30 877 O 88.2159 -1.08372 -1.45345 0
M  V30 878 C 88.2639 -3.40921 1.17497 0
M  V30 879 O 87.3679 -4.11244 0.308589 0
M  V30 880 H 86.7089 -0.598215 0.288158 0
M  V30 881 H 89.2389 -1.48457 1.4079 0
M  V30 882 H 89.2489 -3.91668 1.14281 0
M  V30 883 H 87.9239 -3.5151 2.22292 0
M  V30 884 H 86.5009 -3.70731 0.40157 0
M  V30 885 N 88.686 -0.835752 -1.33615 0
M  V30 886 C 89.934 -0.429109 -1.97492 0
M  V30 887 C 90.255 1.01433 -1.66543 0
M  V30 888 O 89.525 1.70611 -0.962744 0
M  V30 889 H 88.105 -0.155686 -0.730596 0
M  V30 890 H 90.767 -1.06802 -1.63031 0
M  V30 891 H 89.863 -0.55861 -3.0706 0
M  V30 892 N 90.1641 1.46063 -0.591896 0
M  V30 893 C 91.5751 1.85944 -0.167822 0
M  V30 894 C 91.9261 1.49429 1.27143 0
M  V30 895 O 91.0511 0.913515 1.96173 0
M  V30 896 C 91.6461 3.37489 -0.297794 0
M  V30 897 C 90.2051 3.76332 0.0714732 0
M  V30 898 C 89.3521 2.7006 -0.629509 0
M  V30 899 H 92.3031 1.37087 -0.799555 0
M  V30 900 H 92.3241 3.77532 0.474349 0
M  V30 901 H 91.8361 3.64034 -1.3454 0
M  V30 902 H 89.9371 3.55405 1.11886 0
M  V30 903 H 90.0501 4.78088 -0.311245 0
M  V30 904 H 88.4141 2.54607 -0.0687867 0
M  V30 905 H 89.1971 2.99444 -1.67894 0
M  V30 906 N 91.6422 0.330177 1.54103 0
M  V30 907 C 92.5522 -0.541534 2.28264 0
M  V30 908 C 93.5682 -1.12351 1.32866 0
M  V30 909 O 94.7442 -1.14206 1.65888 0
M  V30 910 C 91.8092 -1.68322 3.03098 0
M  V30 911 C 90.8702 -1.13238 4.14096 0
M  V30 912 C 90.1032 -2.21966 4.85352 0
M  V30 913 O 90.3262 -3.42437 4.56172 0
M  V30 914 O 89.2602 -1.87013 5.7211 0
M  V30 915 H 93.0862 0.060938 3.03639 0
M  V30 916 H 90.6712 0.09565 1.49093 0
M  V30 917 H 92.5532 -2.34777 3.49939 0
M  V30 918 H 91.2282 -2.27176 2.30593 0
M  V30 919 H 90.1352 -0.432736 3.71589 0
M  V30 920 H 91.4682 -0.588898 4.88664 0
M  V30 921 N 93.1203 -1.57491 0.0584922 0
M  V30 922 C 94.0503 -2.14988 -0.911178 0
M  V30 923 C 95.0313 -1.07343 -1.31952 0
M  V30 924 O 96.2163 -1.35318 -1.39294 0
M  V30 925 C 93.3463 -2.70078 -2.18347 0
M  V30 926 C 92.3003 -3.82771 -1.91495 0
M  V30 927 C 91.6263 -4.24408 -3.25241 0
M  V30 928 C 92.9263 -5.07592 -1.23075 0
M  V30 929 H 94.6203 -2.96263 -0.432246 0
M  V30 930 H 92.1663 -1.42512 -0.206469 0
M  V30 931 H 94.1193 -3.08943 -2.86587 0
M  V30 932 H 92.8433 -1.86005 -2.68458 0
M  V30 933 H 91.5023 -3.44389 -1.25664 0
M  V30 934 H 91.1503 -3.37275 -3.73168 0
M  V30 935 H 90.8503 -5.00366 -3.08071 0
M  V30 936 H 92.3743 -4.65879 -3.94701 0
M  V30 937 H 93.7883 -5.43857 -1.81362 0
M  V30 938 H 92.1853 -5.88741 -1.16207 0
M  V30 939 H 93.2553 -4.84454 -0.207847 0
M  V30 940 N 94.5984 0.214957 -1.56127 0
M  V30 941 C 95.8444 0.939762 -1.79712 0
M  V30 942 C 96.1774 1.83723 -0.629247 0
M  V30 943 O 95.4524 1.90925 0.371197 0
M  V30 944 C 95.7354 1.77306 -3.13424 0
M  V30 945 C 95.5884 0.90164 -4.40671 0
M  V30 946 C 96.9074 2.74956 -3.43638 0
M  V30 947 H 94.0264 0.340214 -0.653776 0
M  V30 948 H 96.6684 0.20824 -1.88855 0
M  V30 949 H 94.8184 2.39673 -3.0576 0
M  V30 950 H 96.4904 0.294206 -4.60361 0
M  V30 951 H 94.7334 0.207368 -4.33304 0
M  V30 952 H 95.4044 1.51923 -5.30682 0
M  V30 953 H 97.8804 2.22724 -3.51473 0
M  V30 954 H 96.7564 3.30358 -4.38355 0
M  V30 955 H 97.0174 3.53023 -2.66134 0
M  V30 956 N 96.0765 1.50051 0.48192 0
M  V30 957 C 97.0235 1.68122 1.58125 0
M  V30 958 C 97.9935 0.522545 1.57666 0
M  V30 959 O 99.1785 0.751844 1.75362 0
M  V30 960 C 96.3185 1.77142 2.96167 0
M  V30 961 C 95.4315 3.0444 3.06497 0
M  V30 962 C 94.5665 3.04321 4.35387 0
M  V30 963 C 93.6055 4.26118 4.3942 0
M  V30 964 N 92.7425 4.238 5.59766 0
M  V30 965 H 97.5825 2.6198 1.42022 0
M  V30 966 H 95.1195 1.29877 0.690687 0
M  V30 967 H 97.0775 1.80352 3.76203 0
M  V30 968 H 95.7075 0.867329 3.1093 0
M  V30 969 H 94.7595 3.10752 2.19402 0
M  V30 970 H 96.0715 3.94426 3.05336 0
M  V30 971 H 95.2255 3.062 5.23762 0
M  V30 972 H 93.9645 2.12147 4.39141 0
M  V30 973 H 92.9695 4.24463 3.49444 0
M  V30 974 H 94.1945 5.19507 4.37366 0
M  V30 975 H 92.1405 3.34474 5.64326 0
M  V30 976 H 92.0575 5.07542 5.60301 0
M  V30 977 H 93.3255 4.2981 6.50295 0
M  V30 978 N 97.5546 -0.734337 1.39446 0
M  V30 979 C 98.4866 -1.85861 1.34121 0
M  V30 980 C 99.4996 -1.60871 0.249864 0
M  V30 981 O 100.689 -1.71093 0.508865 0
M  V30 982 C 97.7886 -3.21899 1.05991 0
M  V30 983 C 96.9616 -3.74239 2.26415 0
M  V30 984 C 96.0206 -4.88841 1.94733 0
M  V30 985 O 95.0466 -5.02468 2.67422 0
M  V30 986 N 96.2486 -5.73261 0.913884 0
M  V30 987 H 99.0136 -1.90934 2.31007 0
M  V30 988 H 96.5746 -0.915102 1.33557 0
M  V30 989 H 98.5666 -3.96136 0.828147 0
M  V30 990 H 97.1366 -3.12091 0.178361 0
M  V30 991 H 96.3566 -2.91347 2.65539 0
M  V30 992 H 97.6446 -4.05942 3.06738 0
M  V30 993 H 97.0426 -5.64842 0.311476 0
M  V30 994 H 95.5996 -6.47563 0.742015 0
M  V30 995 N 99.0327 -1.24633 -0.964593 0
M  V30 996 C 99.9627 -1.06611 -2.07741 0
M  V30 997 C 100.944 0.0218666 -1.70086 0
M  V30 998 O 102.129 -0.145793 -1.93652 0
M  V30 999 C 99.2587 -0.673444 -3.40708 0
M  V30 1000 C 98.2127 -1.71054 -3.92332 0
M  V30 1001 C 97.5387 -1.17285 -5.21678 0
M  V30 1002 C 98.8387 -3.10718 -4.19824 0
M  V30 1003 H 100.533 -1.99693 -2.23076 0
M  V30 1004 H 98.0787 -0.96152 -1.07195 0
M  V30 1005 H 100.032 -0.534345 -4.17998 0
M  V30 1006 H 98.7557 0.293073 -3.25282 0
M  V30 1007 H 97.4147 -1.83791 -3.17201 0
M  V30 1008 H 97.0627 -0.196847 -5.02615 0
M  V30 1009 H 96.7627 -1.86592 -5.57187 0
M  V30 1010 H 98.2867 -1.04593 -6.01575 0
M  V30 1011 H 99.7007 -3.01192 -4.87808 0
M  V30 1012 H 98.0977 -3.77406 -4.66567 0
M  V30 1013 H 99.1677 -3.58524 -3.26479 0
M  V30 1014 N 100.511 1.16574 -1.06058 0
M  V30 1015 C 101.76 1.86385 -0.770944 0
M  V30 1016 C 102.073 1.82448 0.705129 0
M  V30 1017 O 103.279 2.47815 1.10905 0
M  V30 1018 C 101.735 3.34466 -1.32893 0
M  V30 1019 C 101.343 3.46883 -2.83507 0
M  V30 1020 C 103.087 4.09548 -1.11672 0
M  V30 1021 C 100.994 4.89036 -3.32562 0
M  V30 1022 H 99.9238 0.698181 -0.284709 0
M  V30 1023 H 102.575 1.31583 -1.27899 0
M  V30 1024 H 100.957 3.88859 -0.748662 0
M  V30 1025 H 102.131 3.02663 -3.47465 0
M  V30 1026 H 100.446 2.85232 -3.03368 0
M  V30 1027 H 103.043 5.14434 -1.45814 0
M  V30 1028 H 103.386 4.16264 -0.0549535 0
M  V30 1029 H 103.919 3.61387 -1.66265 0
M  V30 1030 H 100.658 4.87499 -4.38207 0
M  V30 1031 H 100.178 5.3389 -2.73351 0
M  V30 1032 H 101.857 5.57843 -3.2775 0
M  V30 1033 N 101.989 0.842826 1.3317 0
M  V30 1034 C 102.921 0.236245 2.27979 0
M  V30 1035 C 103.934 -0.585282 1.51915 0
M  V30 1036 O 105.123 -0.411705 1.73687 0
M  V30 1037 C 102.223 -0.685717 3.3189 0
M  V30 1038 C 101.396 0.0973448 4.37292 0
M  V30 1039 C 100.455 -0.748565 5.20848 0
M  V30 1040 O 99.4809 -0.186339 5.68895 0
M  V30 1041 N 100.683 -2.06527 5.42519 0
M  V30 1042 H 103.448 1.05088 2.80672 0
M  V30 1043 H 101.009 0.701667 1.45905 0
M  V30 1044 H 103.001 -1.25669 3.84694 0
M  V30 1045 H 101.571 -1.40105 2.79445 0
M  V30 1046 H 100.791 0.849706 3.84933 0
M  V30 1047 H 102.079 0.635643 5.04814 0
M  V30 1048 H 101.477 -2.54554 5.05192 0
M  V30 1049 H 100.034 -2.58464 5.98364 0
M  V30 1050 N 103.467 -1.45747 0.599634 0
M  V30 1051 C 104.715 -2.01893 0.0915472 0
M  V30 1052 C 105.036 -1.47155 -1.27946 0
M  V30 1053 O 104.306 -0.66273 -1.84349 0
M  V30 1054 H 102.886 -0.746363 0.0308524 0
M  V30 1055 H 105.548 -1.78645 0.779237 0
M  V30 1056 H 104.644 -3.1208 0.0353086 0
M  V30 1057 N 104.945 -0.338344 -1.53925 0
M  V30 1058 C 105.875 0.51328 -2.27789 0
M  V30 1059 C 106.856 1.107 -1.29149 0
M  V30 1060 O 108.041 1.12937 -1.57984 0
M  V30 1061 C 105.171 1.66697 -3.04679 0
M  V30 1062 C 104.125 1.20183 -4.1078 0
M  V30 1063 C 103.451 2.44363 -4.75595 0
M  V30 1064 C 104.751 0.30605 -5.21403 0
M  V30 1065 H 106.445 -0.102883 -2.99223 0
M  V30 1066 H 103.991 -0.0509219 -1.4391 0
M  V30 1067 H 105.944 2.26915 -3.55088 0
M  V30 1068 H 104.668 2.30995 -2.30887 0
M  V30 1069 H 103.327 0.622499 -3.61276 0
M  V30 1070 H 102.975 3.07057 -3.98403 0
M  V30 1071 H 102.675 2.13925 -5.47275 0
M  V30 1072 H 104.199 3.05317 -5.28786 0
M  V30 1073 H 105.613 0.814929 -5.67478 0
M  V30 1074 H 104.01 0.0937929 -6.00027 0
M  V30 1075 H 105.08 -0.65921 -4.80398 0
M  V30 1076 N 106.423 1.57458 -0.0668435 0
M  V30 1077 C 107.669 1.93587 0.6043 0
M  V30 1078 C 108.002 0.946722 1.69561 0
M  V30 1079 O 107.277 -0.0248516 1.94484 0
M  V30 1080 C 107.56 3.40014 1.18585 0
M  V30 1081 C 107.413 4.49685 0.101529 0
M  V30 1082 C 108.732 3.87154 2.09284 0
M  V30 1083 H 105.851 0.703958 0.218202 0
M  V30 1084 H 108.493 1.89542 -0.131804 0
M  V30 1085 H 106.643 3.43592 1.81319 0
M  V30 1086 H 108.315 4.5823 -0.531279 0
M  V30 1087 H 106.558 4.30059 -0.568487 0
M  V30 1088 H 107.229 5.49266 0.54874 0
M  V30 1089 H 109.705 3.85551 1.56491 0
M  V30 1090 H 108.581 4.90231 2.46911 0
M  V30 1091 H 108.842 3.2481 2.99918 0
M  V30 1092 N 107.901 -0.206675 1.56239 0
M  V30 1093 C 109.178 -0.954051 1.70755 0
M  V30 1094 C 109.558 -2.01841 0.618353 0
M  V30 1095 O 108.906 -2.25444 -0.372434 0
M  V30 1096 C 109.116 -1.551 3.12642 0
M  V30 1097 C 110.464 -2.03757 3.72516 0
M  V30 1098 O 111.488 -1.64965 3.15698 0
M  V30 1099 O 110.347 -2.75103 4.72208 0
M  V30 1100 H 107.441 -0.446636 0.696021 0
M  V30 1101 H 109.987 -0.197283 1.68549 0
M  V30 1102 H 108.759 -0.783212 3.83382 0
M  V30 1103 H 108.382 -2.37291 3.19028 0
M  V30 1104 N 109.379 -1.50304 -0.473955 0
M  V30 1105 C 110.619 -1.62786 -1.23612 0
M  V30 1106 C 110.983 -0.319786 -1.89318 0
M  V30 1107 O 112.184 -0.320012 -2.66888 0
M  V30 1108 C 110.455 -2.77351 -2.25414 0
M  V30 1109 S 112.014 -3.09948 -3.10608 0
M  V30 1110 H 108.832 -0.573895 -0.419721 0
M  V30 1111 H 111.434 -1.88076 -0.533623 0
M  V30 1112 H 110.138 -3.70879 -1.75719 0
M  V30 1113 H 109.669 -2.54137 -3.00296 0
M  V30 1114 H 111.684 -2.53553 -4.26527 0
M  V30 1115 N 110.857 0.726932 -1.39834 0
M  V30 1116 C 112.105 1.4837 -1.37225 0
M  V30 1117 C 112.426 1.94979 0.0284857 0
M  V30 1118 O 111.696 1.69555 0.981213 0
M  V30 1119 H 110.276 0.55043 -0.505011 0
M  V30 1120 H 112.938 0.862468 -1.74778 0
M  V30 1121 H 112.034 2.36198 -2.04003 0
M  V30 1122 N 112.336 1.25143 0.95797 0
M  V30 1123 C 113.576 1.10893 1.71703 0
M  V30 1124 C 113.94 -0.34478 1.88879 0
M  V30 1125 O 115.141 -0.609014 2.6181 0
M  V30 1126 C 113.412 1.83889 3.06463 0
M  V30 1127 S 114.971 1.85491 3.97666 0
M  V30 1128 H 111.789 0.396428 0.590226 0
M  V30 1129 H 114.391 1.58618 1.14283 0
M  V30 1130 H 113.095 2.88756 2.9163 0
M  V30 1131 H 112.626 1.36538 3.68946 0
M  V30 1132 H 114.641 0.929553 4.87415 0
M  V30 1133 N 113.814 -1.1601 1.06675 0
M  V30 1134 C 114.746 -2.20115 0.638921 0
M  V30 1135 C 115.759 -1.59916 -0.305057 0
M  V30 1136 O 116.948 -1.78245 -0.0954446 0
M  V30 1137 C 114.048 -3.38798 -0.0830083 0
M  V30 1138 C 113.221 -4.2855 0.875426 0
M  V30 1139 C 112.28 -5.25849 0.192042 0
M  V30 1140 O 111.306 -5.63102 0.830921 0
M  V30 1141 N 112.508 -5.70648 -1.06493 0
M  V30 1142 H 115.273 -2.57439 1.53444 0
M  V30 1143 H 112.834 -1.31057 0.950557 0
M  V30 1144 H 114.826 -4.00936 -0.550685 0
M  V30 1145 H 113.396 -2.99947 -0.880386 0
M  V30 1146 H 112.616 -3.63617 1.52238 0
M  V30 1147 H 113.904 -4.85393 1.52548 0
M  V30 1148 H 113.302 -5.42482 -1.60405 0
M  V30 1149 H 111.859 -6.34859 -1.47641 0
M  V30 1150 N 115.292 -0.849877 -1.32721 0
M  V30 1151 C 116.538 -0.451591 -1.97708 0
M  V30 1152 C 116.871 0.989175 -1.6712 0
M  V30 1153 O 116.146 1.69334 -0.956891 0
M  V30 1154 C 116.429 -0.685598 -3.53513 0
M  V30 1155 C 116.282 -2.17444 -3.93749 0
M  V30 1156 C 117.601 -0.138874 -4.39881 0
M  V30 1157 H 114.72 -0.16555 -0.718166 0
M  V30 1158 H 117.362 -1.06742 -1.57182 0
M  V30 1159 H 115.512 -0.161416 -3.88165 0
M  V30 1160 H 117.184 -2.76433 -3.693 0
M  V30 1161 H 115.427 -2.65476 -3.43081 0
M  V30 1162 H 116.098 -2.28888 -5.02309 0
M  V30 1163 H 118.574 -0.587068 -4.11938 0
M  V30 1164 H 117.45 -0.332213 -5.47894 0
M  V30 1165 H 117.711 0.95806 -4.31594 0
M  V30 1166 N 116.77 1.45427 -0.607355 0
M  V30 1167 C 117.995 2.07124 -0.107006 0
M  V30 1168 C 118.42 1.44906 1.19933 0
M  V30 1169 O 117.778 0.541687 1.73019 0
M  V30 1170 C 117.826 3.60595 0.0194119 0
M  V30 1171 O 116.93 3.98285 1.0697 0
M  V30 1172 H 116.271 0.659868 -0.0739597 0
M  V30 1173 H 118.801 1.86683 -0.837297 0
M  V30 1174 H 118.811 4.07419 0.2177 0
M  V30 1175 H 117.486 4.05266 -0.934453 0
M  V30 1176 H 116.063 3.63133 0.847889 0
M  V30 1177 N 118.248 0.346503 1.53744 0
M  V30 1178 C 119.525 -0.304532 1.93215 0
M  V30 1179 C 119.905 -1.67993 1.27834 0
M  V30 1180 O 119.253 -2.24411 0.430352 0
M  V30 1181 C 119.463 -0.373852 3.46992 0
M  V30 1182 C 120.811 -0.62329 4.2 0
M  V30 1183 O 121.835 -0.455847 3.53271 0
M  V30 1184 O 120.694 -0.947879 5.38217 0
M  V30 1185 H 117.788 -0.178318 0.807547 0
M  V30 1186 H 120.334 0.397895 1.64969 0
M  V30 1187 H 119.106 0.591224 3.86808 0
M  V30 1188 H 118.729 -1.12294 3.81413 0
M  V30 1189 N 119.726 -1.57421 0.075193 0
M  V30 1190 C 120.972 -1.93905 -0.594025 0
M  V30 1191 C 121.305 -0.955701 -1.69056 0
M  V30 1192 O 120.58 0.0145373 -1.94495 0
M  V30 1193 C 120.863 -3.40638 -1.1678 0
M  V30 1194 C 120.716 -4.49733 -0.0776792 0
M  V30 1195 C 122.035 -3.88259 -2.07228 0
M  V30 1196 H 119.154 -0.705105 -0.214466 0
M  V30 1197 H 121.796 -1.8947 0.141854 0
M  V30 1198 H 119.946 -3.44549 -1.79494 0
M  V30 1199 H 121.618 -4.57942 0.555573 0
M  V30 1200 H 119.861 -4.29751 0.591286 0
M  V30 1201 H 120.532 -5.49549 -0.519603 0
M  V30 1202 H 123.008 -3.86376 -1.54445 0
M  V30 1203 H 121.884 -4.91533 -2.44308 0
M  V30 1204 H 122.145 -3.26396 -2.98191 0
M  V30 1205 N 121.204 0.198386 -1.56346 0
M  V30 1206 C 122.452 0.91747 -1.80075 0
M  V30 1207 C 122.773 1.83929 -0.647692 0
M  V30 1208 O 122.043 1.93029 0.334166 0
M  V30 1209 H 120.623 0.341774 -0.664228 0
M  V30 1210 H 123.285 0.204684 -1.93822 0
M  V30 1211 H 122.381 1.51055 -2.7311 0
M  V30 1212 N 122.682 1.50554 0.465978 0
M  V30 1213 C 123.615 1.64436 1.58227 0
M  V30 1214 C 124.593 0.492367 1.54966 0
M  V30 1215 O 125.777 0.712536 1.74514 0
M  V30 1216 C 122.904 1.63165 2.96808 0
M  V30 1217 C 121.95 2.83987 3.18204 0
M  V30 1218 S 122.783 4.45219 2.97557 0
M  V30 1219 C 123.939 4.46649 4.3847 0
M  V30 1220 H 124.172 2.58861 1.46213 0
M  V30 1221 H 121.705 1.3988 0.653678 0
M  V30 1222 H 123.663 1.63116 3.76701 0
M  V30 1223 H 122.324 0.69967 3.06208 0
M  V30 1224 H 121.517 2.79416 4.19455 0
M  V30 1225 H 121.119 2.81629 2.46092 0
M  V30 1226 H 123.411 4.20526 5.31191 0
M  V30 1227 H 124.354 5.48295 4.48082 0
M  V30 1228 H 124.762 3.76296 4.20787 0
M  V30 1229 N 124.16 -0.719506 1.40217 0
M  V30 1230 C 125.406 -1.48152 1.38488 0
M  V30 1231 C 125.739 -1.94195 -0.0141867 0
M  V30 1232 O 125.014 -1.67884 -0.982096 0
M  V30 1233 C 125.297 -2.71035 2.37091 0
M  V30 1234 C 125.15 -2.30912 3.86005 0
M  V30 1235 C 126.469 -3.73182 2.33288 0
M  V30 1236 H 123.588 -0.537395 0.504357 0
M  V30 1237 H 126.23 -0.821472 1.71324 0
M  V30 1238 H 124.38 -3.27352 2.0922 0
M  V30 1239 H 126.052 -1.80107 4.24687 0
M  V30 1240 H 124.295 -1.62958 4.02029 0
M  V30 1241 H 124.966 -3.18978 4.50508 0
M  V30 1242 H 127.442 -3.26485 2.57966 0
M  V30 1243 H 126.318 -4.56806 3.04334 0
M  V30 1244 H 126.579 -4.21202 1.34317 0
M  V30 1245 N 125.638 -1.25649 -0.95132 0
M  V30 1246 C 127.049 -1.09654 -1.51106 0
M  V30 1247 C 127.4 0.326615 -1.93462 0
M  V30 1248 O 126.525 1.21697 -1.78938 0
M  V30 1249 C 127.12 -1.98437 -2.74605 0
M  V30 1250 C 125.679 -1.86618 -3.2688 0
M  V30 1251 C 124.826 -1.9239 -1.99703 0
M  V30 1252 H 127.777 -1.38887 -0.767865 0
M  V30 1253 H 127.798 -1.5263 -3.48546 0
M  V30 1254 H 127.31 -3.02009 -2.43746 0
M  V30 1255 H 125.411 -0.859421 -3.62553 0
M  V30 1256 H 125.524 -2.71607 -3.94673 0
M  V30 1257 H 123.888 -1.36317 -2.15151 0
M  V30 1258 H 124.671 -2.97573 -1.71188 0
M  V30 1259 N 127.117 1.15442 -1.07289 0
M  V30 1260 C 128.345 1.90096 -0.81676 0
M  V30 1261 C 128.76 1.7798 0.629966 0
M  V30 1262 O 128.117 1.1313 1.43206 0
M  V30 1263 C 128.168 3.40466 -1.21512 0
M  V30 1264 O 127.889 3.52232 -2.60508 0
M  V30 1265 C 129.39 4.32145 -0.988198 0
M  V30 1266 H 126.61 0.602495 -0.295366 0
M  V30 1267 H 129.154 1.4627 -1.42918 0
M  V30 1268 H 127.309 3.81958 -0.647039 0
M  V30 1269 H 127.723 4.45549 -2.76742 0
M  V30 1270 H 129.197 5.36072 -1.31645 0
M  V30 1271 H 129.674 4.39135 0.0755063 0
M  V30 1272 H 130.28 3.96395 -1.54115 0
M  V30 1273 N 128.595 0.856903 1.32268 0
M  V30 1274 C 130.006 0.515711 1.79436 0
M  V30 1275 C 130.357 -0.966586 1.70738 0
M  V30 1276 O 129.482 -1.75409 1.26731 0
M  V30 1277 C 130.077 0.929335 3.25805 0
M  V30 1278 C 128.636 0.640006 3.70919 0
M  V30 1279 C 127.783 1.12784 2.53328 0
M  V30 1280 H 130.734 1.04389 1.19535 0
M  V30 1281 H 130.755 0.246633 3.797 0
M  V30 1282 H 130.267 2.00821 3.32103 0
M  V30 1283 H 128.368 -0.428051 3.70133 0
M  V30 1284 H 128.481 1.20788 4.63624 0
M  V30 1285 H 126.845 0.548033 2.48734 0
M  V30 1286 H 127.628 2.21387 2.62379 0
M  V30 1287 N 130.073 -1.45103 0.615059 0
M  V30 1288 C 131.319 -2.02483 0.113347 0
M  V30 1289 C 131.652 -1.48146 -1.25564 0
M  V30 1290 O 130.927 -0.659104 -1.82992 0
M  V30 1291 C 131.21 -3.60005 0.0825278 0
M  V30 1292 C 131.063 -4.2466 1.48271 0
M  V30 1293 C 132.382 -4.35972 -0.601401 0
M  V30 1294 H 129.501 -0.735764 0.0426632 0
M  V30 1295 H 132.143 -1.72868 0.788461 0
M  V30 1296 H 130.293 -3.85367 -0.492378 0
M  V30 1297 H 131.965 -4.10458 2.10527 0
M  V30 1298 H 130.208 -3.82772 2.04127 0
M  V30 1299 H 130.879 -5.336 1.41332 0
M  V30 1300 H 133.355 -4.15947 -0.112666 0
M  V30 1301 H 132.231 -5.45697 -0.592097 0
M  V30 1302 H 132.492 -4.09391 -1.66887 0
M  V30 1303 N 131.551 -0.354651 -1.53558 0
M  V30 1304 C 132.481 0.489091 -2.2832 0
M  V30 1305 C 133.462 1.09324 -1.30316 0
M  V30 1306 O 134.647 1.11255 -1.59173 0
M  V30 1307 C 131.777 1.63456 -3.0643 0
M  V30 1308 C 130.731 1.1582 -4.12031 0
M  V30 1309 C 130.057 2.39305 -4.7816 0
M  V30 1310 C 131.357 0.250731 -5.21698 0
M  V30 1311 H 133.051 -0.134614 -2.99097 0
M  V30 1312 H 130.597 -0.0661826 -1.43848 0
M  V30 1313 H 132.55 2.23136 -3.57475 0
M  V30 1314 H 131.274 2.28533 -2.33325 0
M  V30 1315 H 129.933 0.584146 -3.61916 0
M  V30 1316 H 129.581 3.02814 -4.01637 0
M  V30 1317 H 129.281 2.08109 -5.49513 0
M  V30 1318 H 130.805 2.99691 -5.31994 0
M  V30 1319 H 132.219 0.754695 -5.68311 0
M  V30 1320 H 130.616 0.0301468 -6.00092 0
M  V30 1321 H 131.686 -0.710125 -4.79672 0
M  V30 1322 N 133.029 1.57378 -0.0835403 0
M  V30 1323 C 134.259 1.97975 0.590713 0
M  V30 1324 C 134.667 0.961083 1.62972 0
M  V30 1325 O 134.01 -0.0590879 1.83605 0
M  V30 1326 C 134.072 3.34915 1.3066 0
M  V30 1327 C 133.736 4.55069 0.419698 0
M  V30 1328 C 134.733 5.18868 -0.32749 0
M  V30 1329 C 132.418 5.0114 0.341137 0
M  V30 1330 C 134.412 6.27098 -1.14134 0
M  V30 1331 C 132.099 6.0924 -0.476374 0
M  V30 1332 C 133.097 6.72083 -1.21627 0
M  V30 1333 O 132.785 7.781 -2.02028 0
M  V30 1334 H 132.517 0.655818 0.163947 0
M  V30 1335 H 135.071 2.04807 -0.156021 0
M  V30 1336 H 133.301 3.24733 2.09966 0
M  V30 1337 H 134.99 3.60037 1.87424 0
M  V30 1338 H 135.756 4.84211 -0.276459 0
M  V30 1339 H 131.635 4.51996 0.90668 0
M  V30 1340 H 135.179 6.7608 -1.71935 0
M  V30 1341 H 131.076 6.43329 -0.528927 0
M  V30 1342 H 131.844 7.95034 -1.94586 0
M  V30 1343 N 134.507 -0.190092 1.56449 0
M  V30 1344 C 135.737 -0.92443 1.84764 0
M  V30 1345 C 136.145 -1.77146 0.664529 0
M  V30 1346 O 135.488 -1.79812 -0.375957 0
M  V30 1347 C 135.55 -1.86651 3.07248 0
M  V30 1348 C 135.214 -1.20094 4.40938 0
M  V30 1349 C 136.211 -0.575445 5.16706 0
M  V30 1350 C 133.896 -1.2033 4.87674 0
M  V30 1351 C 135.89 0.0388111 6.37388 0
M  V30 1352 C 133.577 -0.585214 6.08291 0
M  V30 1353 C 134.575 0.0347578 6.82991 0
M  V30 1354 O 134.263 0.643147 8.01323 0
M  V30 1355 H 133.995 -0.274974 0.617548 0
M  V30 1356 H 136.549 -0.200788 2.04416 0
M  V30 1357 H 134.779 -2.62998 2.83494 0
M  V30 1358 H 136.468 -2.46907 3.22167 0
M  V30 1359 H 137.234 -0.565728 4.81689 0
M  V30 1360 H 133.113 -1.67526 4.29484 0
M  V30 1361 H 136.657 0.523329 6.95634 0
M  V30 1362 H 132.554 -0.592451 6.42775 0
M  V30 1363 H 133.322 0.540545 8.16713 0
M  V30 1364 N 135.985 -1.50799 -0.457987 0
M  V30 1365 C 136.948 -1.7005 -1.53674 0
M  V30 1366 C 137.948 -0.570881 -1.50325 0
M  V30 1367 O 139.138 -0.838126 -1.52712 0
M  V30 1368 C 136.27 -1.73788 -2.93276 0
M  V30 1369 H 137.463 -2.66306 -1.37917 0
M  V30 1370 H 135.016 -1.40477 -0.685271 0
M  V30 1371 H 135.751 -0.792717 -3.14462 0
M  V30 1372 H 135.536 -2.55864 -2.97113 0
M  V30 1373 H 137.026 -1.90591 -3.71571 0
M  V30 1374 N 137.463 0.71206 -1.40597 0
M  V30 1375 C 138.426 1.80785 -1.40888 0
M  V30 1376 C 139.426 1.57937 -0.302103 0
M  V30 1377 O 140.616 1.64913 -0.561182 0
M  V30 1378 C 137.748 3.18927 -1.20409 0
M  V30 1379 H 138.941 1.81924 -2.38419 0
M  V30 1380 H 136.494 0.91805 -1.26497 0
M  V30 1381 H 137.229 3.23436 -0.236522 0
M  V30 1382 H 137.014 3.36911 -2.00582 0
M  V30 1383 H 138.504 3.98949 -1.23408 0
M  V30 1384 N 138.941 1.26152 0.944643 0
M  V30 1385 C 139.889 1.07215 2.06417 0
M  V30 1386 C 140.883 9.2007e-05 1.694 0
M  V30 1387 O 142.089 0.1565 1.79318 0
M  V30 1388 H 138.464 0.329837 0.675805 0
M  V30 1389 H 140.435 2.02099 2.19541 0
M  V30 1390 C 139.184 0.718197 3.40202 0
M  V30 1391 H 138.507 1.53497 3.69159 0
M  V30 1392 H 139.947 0.625459 4.19361 0
M  V30 1393 C 138.406 -0.576435 3.31932 0
M  V30 1394 O 138.936 -1.61574 3.67773 0
M  V30 1395 N 137.142 -0.565781 2.85039 0
M  V30 1396 H 136.689 0.280367 2.5607 0
M  V30 1397 H 136.647 -1.43213 2.79888 0
M  V30 1398 N 140.419 -1.14872 1.07899 0
M  V30 1399 C 141.665 -1.86064 0.806725 0
M  V30 1400 C 141.998 -1.82434 -0.665706 0
M  V30 1401 O 141.273 -1.25138 -1.48899 0
M  V30 1402 C 141.556 -3.34929 1.32267 0
M  V30 1403 C 141.409 -3.47161 2.86006 0
M  V30 1404 C 142.728 -4.29863 0.943717 0
M  V30 1405 H 139.847 -0.675591 0.294526 0
M  V30 1406 H 142.489 -1.34925 1.33773 0
M  V30 1407 H 140.639 -3.78611 0.870974 0
M  V30 1408 H 142.311 -3.12302 3.39507 0
M  V30 1409 H 140.554 -2.88539 3.23925 0
M  V30 1410 H 141.225 -4.51777 3.17177 0
M  V30 1411 H 143.701 -3.9417 1.33302 0
M  V30 1412 H 142.577 -5.32494 1.33198 0
M  V30 1413 H 142.838 -4.41846 -0.149796 0
M  V30 1414 N 141.898 -0.863906 -1.31812 0
M  V30 1415 C 142.828 -0.330843 -2.31144 0
M  V30 1416 C 143.809 0.575005 -1.60087 0
M  V30 1417 O 144.994 0.493304 -1.8783 0
M  V30 1418 C 142.124 0.47374 -3.44054 0
M  V30 1419 C 141.078 -0.338481 -4.26659 0
M  V30 1420 C 140.404 0.591412 -5.31419 0
M  V30 1421 C 141.704 -1.56926 -4.98168 0
M  V30 1422 H 143.398 -1.16086 -2.75979 0
M  V30 1423 H 140.944 -0.559657 -1.32679 0
M  V30 1424 H 142.897 0.857143 -4.12591 0
M  V30 1425 H 141.621 1.33721 -2.9797 0
M  V30 1426 H 140.28 -0.703754 -3.59782 0
M  V30 1427 H 139.928 1.45199 -4.81587 0
M  V30 1428 H 139.628 0.0519022 -5.87577 0
M  V30 1429 H 141.152 0.97179 -6.02817 0
M  V30 1430 H 142.566 -1.25764 -5.59336 0
M  V30 1431 H 140.963 -2.04739 -5.64094 0
M  V30 1432 H 142.033 -2.32544 -4.25501 0
M  V30 1433 N 143.376 1.44774 -0.622745 0
M  V30 1434 C 144.286 2.34433 0.0886031 0
M  V30 1435 C 145.302 1.52131 0.844529 0
M  V30 1436 O 146.478 1.84886 0.798691 0
M  V30 1437 C 143.543 3.29986 1.0635 0
M  V30 1438 C 142.604 4.28195 0.307873 0
M  V30 1439 C 141.837 5.19183 1.23633 0
M  V30 1440 O 142.06 5.13918 2.47476 0
M  V30 1441 O 140.994 5.97515 0.725189 0
M  V30 1442 H 144.82 2.96693 -0.648599 0
M  V30 1443 H 142.405 1.44408 -0.382957 0
M  V30 1444 H 144.287 3.88825 1.6246 0
M  V30 1445 H 142.962 2.70269 1.78146 0
M  V30 1446 H 141.869 3.72927 -0.296064 0
M  V30 1447 H 143.202 4.90808 -0.3699 0
M  V30 1448 N 144.854 0.36279 1.53368 0
M  V30 1449 C 146.102 -0.227326 2.00817 0
M  V30 1450 C 146.423 -1.49511 1.25186 0
M  V30 1451 O 145.693 -1.92482 0.364348 0
M  V30 1452 H 144.273 -0.0869923 0.741917 0
M  V30 1453 H 146.935 0.488381 1.88682 0
M  V30 1454 H 146.031 -0.456273 3.08747 0
M  V30 1455 N 146.332 -1.57332 0.0918853 0
M  V30 1456 C 147.279 -2.13847 -0.868211 0
M  V30 1457 C 148.249 -1.05618 -1.28196 0
M  V30 1458 O 149.434 -1.33387 -1.36427 0
M  V30 1459 C 146.574 -2.72062 -2.12312 0
M  V30 1460 C 145.687 -3.94514 -1.7602 0
M  V30 1461 C 144.822 -4.40903 -2.96273 0
M  V30 1462 C 143.861 -5.55953 -2.56092 0
M  V30 1463 N 142.998 -5.97209 -3.69169 0
M  V30 1464 H 147.838 -2.95575 -0.379406 0
M  V30 1465 H 145.375 -1.46048 -0.175606 0
M  V30 1466 H 147.333 -3.03931 -2.858 0
M  V30 1467 H 145.963 -1.93068 -2.58698 0
M  V30 1468 H 145.015 -3.68979 -0.925135 0
M  V30 1469 H 146.327 -4.7802 -1.42472 0
M  V30 1470 H 145.481 -4.74539 -3.78018 0
M  V30 1471 H 144.22 -3.56291 -3.33029 0
M  V30 1472 H 143.225 -5.21948 -1.72773 0
M  V30 1473 H 144.45 -6.42311 -2.20484 0
M  V30 1474 H 142.396 -5.15543 -4.05649 0
M  V30 1475 H 142.313 -6.75504 -3.39456 0
M  V30 1476 H 143.581 -6.35475 -4.51434 0
M  V30 1477 N 147.81 0.181792 -1.56548 0
M  V30 1478 C 149.035 0.920019 -1.85877 0
M  V30 1479 C 149.46 1.75494 -0.677021 0
M  V30 1480 O 148.818 1.77399 0.374056 0
M  V30 1481 C 148.866 1.78112 -3.13542 0
M  V30 1482 O 147.97 2.88152 -2.95029 0
M  V30 1483 H 147.311 0.258334 -0.611686 0
M  V30 1484 H 149.841 0.183092 -2.03779 0
M  V30 1485 H 149.851 2.18314 -3.44678 0
M  V30 1486 H 148.526 1.16777 -3.99169 0
M  V30 1487 H 147.103 2.51609 -2.75222 0
M  V30 1488 N 149.288 1.51039 0.449983 0
M  V30 1489 C 150.536 1.62759 1.19808 0
M  V30 1490 C 150.857 0.339981 1.92013 0
M  V30 1491 O 150.127 -0.643606 1.85026 0
M  V30 1492 H 148.707 0.599811 0.445237 0
M  V30 1493 H 151.369 1.87914 0.517138 0
M  V30 1494 H 150.465 2.44911 1.93455 0
M  V30 1495 N 150.766 -0.704594 1.40972 0
M  V30 1496 C 152.012 -1.46675 1.40051 0
M  V30 1497 C 152.345 -1.94199 0.00641102 0
M  V30 1498 O 151.62 -1.68916 -0.964235 0
M  V30 1499 C 151.903 -2.68505 2.39952 0
M  V30 1500 C 151.756 -2.26805 3.88432 0
M  V30 1501 C 153.075 -3.70686 2.37233 0
M  V30 1502 H 150.194 -0.532015 0.510028 0
M  V30 1503 H 152.836 -0.803255 1.72185 0
M  V30 1504 H 150.986 -3.25114 2.1268 0
M  V30 1505 H 152.658 -1.75592 4.26574 0
M  V30 1506 H 150.901 -1.58685 4.03734 0
M  V30 1507 H 151.572 -3.14181 4.53866 0
M  V30 1508 H 154.048 -3.23731 2.61415 0
M  V30 1509 H 152.924 -4.53553 3.09162 0
M  V30 1510 H 153.185 -4.19754 1.38777 0
M  V30 1511 N 152.244 -1.26651 -0.937939 0
M  V30 1512 C 153.177 -1.02811 -2.03728 0
M  V30 1513 C 154.155 0.0481915 -1.62529 0
M  V30 1514 O 155.339 -0.0948839 -1.88261 0
M  V30 1515 C 152.466 -0.557517 -3.3408 0
M  V30 1516 C 151.512 -1.62686 -3.94253 0
M  V30 1517 S 152.345 -3.21667 -4.28125 0
M  V30 1518 C 153.501 -2.76384 -5.61572 0
M  V30 1519 H 153.734 -1.95891 -2.23638 0
M  V30 1520 H 151.267 -1.10367 -1.07974 0
M  V30 1521 H 153.225 -0.292674 -4.09455 0
M  V30 1522 H 151.886 0.353062 -3.12109 0
M  V30 1523 H 151.079 -1.24866 -4.88287 0
M  V30 1524 H 150.681 -1.84324 -3.25424 0
M  V30 1525 H 152.973 -2.2105 -6.40424 0
M  V30 1526 H 153.916 -3.69123 -6.0428 0
M  V30 1527 H 154.324 -2.15847 -5.21604 0
M  V30 1528 N 153.722 1.14298 -1.08507 0
M  V30 1529 C 154.652 2.21542 -0.737646 0
M  V30 1530 C 155.633 1.67773 0.280377 0
M  V30 1531 O 156.818 1.93616 0.150521 0
M  V30 1532 C 153.948 3.46988 -0.147259 0
M  V30 1533 C 152.902 4.13789 -1.09374 0
M  V30 1534 C 152.228 5.33449 -0.365524 0
M  V30 1535 C 153.528 4.62208 -2.4323 0
M  V30 1536 H 155.222 2.5086 -1.6343 0
M  V30 1537 H 152.768 1.20576 -0.787243 0
M  V30 1538 H 154.721 4.21262 0.107808 0
M  V30 1539 H 153.445 3.17037 0.784538 0
M  V30 1540 H 152.104 3.4147 -1.33393 0
M  V30 1541 H 151.752 4.99759 0.57011 0
M  V30 1542 H 151.452 5.79088 -0.996512 0
M  V30 1543 H 152.976 6.10485 -0.118534 0
M  V30 1544 H 154.39 5.27952 -2.23472 0
M  V30 1545 H 152.787 5.18553 -3.02031 0
M  V30 1546 H 153.857 3.77224 -3.04681 0
M  V30 1547 N 155.201 0.870884 1.31352 0
M  V30 1548 C 156.429 0.49677 2.00848 0
M  V30 1549 C 156.844 -0.910998 1.65367 0
M  V30 1550 O 156.201 -1.59696 0.883374 0
M  V30 1551 C 156.252 0.645308 3.55694 0
M  V30 1552 O 155.973 1.99764 3.89905 0
M  V30 1553 C 157.474 0.272326 4.42463 0
M  V30 1554 H 154.694 0.193462 0.642506 0
M  V30 1555 H 157.238 1.1723 1.67563 0
M  V30 1556 H 155.393 0.0173176 3.87396 0
M  V30 1557 H 155.807 2.00607 4.84621 0
M  V30 1558 H 157.281 0.427208 5.50344 0
M  V30 1559 H 157.758 -0.788587 4.32062 0
M  V30 1560 H 158.364 0.876054 4.1618 0
M  V30 1561 N 156.679 -1.44442 0.630414 0
M  V30 1562 C 157.927 -2.01653 0.134351 0
M  V30 1563 C 158.248 -1.49836 -1.24796 0
M  V30 1564 O 157.518 -0.701684 -1.82902 0
M  V30 1565 H 156.098 -0.74554 0.0466769 0
M  V30 1566 H 158.76 -1.76952 0.816955 0
M  V30 1567 H 157.856 -3.11935 0.101498 0
M  V30 1568 N 158.157 -0.370918 -1.53173 0
M  V30 1569 C 159.382 0.220293 -2.06227 0
M  V30 1570 C 159.807 1.41243 -1.24225 0
M  V30 1571 O 159.165 1.79387 -0.262645 0
M  V30 1572 C 159.213 0.586663 -3.55796 0
M  V30 1573 O 158.317 1.68317 -3.76488 0
M  V30 1574 H 157.658 0.0308099 -0.663285 0
M  V30 1575 H 160.188 -0.533068 -1.97534 0
M  V30 1576 H 160.198 0.85617 -3.98916 0
M  V30 1577 H 158.873 -0.285013 -4.14922 0
M  V30 1578 H 157.45 1.40881 -3.45264 0
M  V30 1579 N 159.635 1.57281 -0.100228 0
M  V30 1580 C 160.585 2.10848 0.86759 0
M  V30 1581 C 161.569 1.02473 1.24049 0
M  V30 1582 O 162.761 1.28739 1.21471 0
M  V30 1583 C 159.89 2.69648 2.12474 0
M  V30 1584 C 158.976 3.85074 1.77704 0
M  V30 1585 N 159.367 4.92897 1.13518 0
M  V30 1586 C 157.665 3.94905 2.07282 0
M  V30 1587 C 158.366 5.73475 0.974735 0
M  V30 1588 N 157.342 5.22675 1.4937 0
M  V30 1589 H 161.144 2.91594 0.367471 0
M  V30 1590 H 158.658 1.62074 0.102829 0
M  V30 1591 H 160.655 3.06356 2.82757 0
M  V30 1592 H 159.315 1.90359 2.63047 0
M  V30 1593 H 160.326 5.11662 0.801381 0
M  V30 1594 H 157.003 3.26633 2.60033 0
M  V30 1595 H 158.393 6.70238 0.472364 0
M  V30 1596 N 161.113 -0.173488 1.56642 0
M  V30 1597 C 162.061 -1.23417 1.97157 0
M  V30 1598 C 163.055 -1.45946 0.860013 0
M  V30 1599 O 164.261 -1.46551 1.04512 0
M  V30 1600 H 160.636 -0.414818 0.62724 0
M  V30 1601 H 162.607 -0.865582 2.8557 0
M  V30 1602 C 161.356 -2.5665 2.34576 0
M  V30 1603 H 160.679 -2.40137 3.19647 0
M  V30 1604 H 162.119 -3.2956 2.6677 0
M  V30 1605 C 160.578 -3.15245 1.18836 0
M  V30 1606 O 161.108 -3.98883 0.474869 0
M  V30 1607 N 159.314 -2.74303 0.959497 0
M  V30 1608 H 158.861 -2.0639 1.54146 0
M  V30 1609 H 158.819 -3.13844 0.186932 0
M  V30 1610 N 162.591 -1.51276 -0.441967 0
M  V30 1611 C 164.002 -1.56244 -1.02199 0
M  V30 1612 C 164.353 -0.383149 -1.92422 0
M  V30 1613 O 163.478 0.500613 -2.1053 0
M  V30 1614 C 164.073 -2.83162 -1.86024 0
M  V30 1615 C 162.632 -2.90716 -2.39084 0
M  V30 1616 C 161.779 -2.50858 -1.18175 0
M  V30 1617 H 164.73 -1.5712 -0.223416 0
M  V30 1618 H 164.751 -2.66663 -2.71425 0
M  V30 1619 H 164.263 -3.68974 -1.20331 0
M  V30 1620 H 162.364 -2.09323 -3.08244 0
M  V30 1621 H 162.477 -3.94266 -2.72198 0
M  V30 1622 H 160.841 -2.03951 -1.52565 0
M  V30 1623 H 161.624 -3.3901 -0.541001 0
M  V30 1624 N 164.069 0.697108 -1.41344 0
M  V30 1625 C 165.48 1.27697 -1.36199 0
M  V30 1626 C 165.831 1.9615 -0.0443463 0
M  V30 1627 O 164.956 1.98689 0.857419 0
M  V30 1628 C 165.551 2.32223 -2.46694 0
M  V30 1629 C 164.11 2.8579 -2.44952 0
M  V30 1630 C 163.257 1.59807 -2.26621 0
M  V30 1631 H 166.208 0.491968 -1.50882 0
M  V30 1632 H 166.229 3.1348 -2.15664 0
M  V30 1633 H 165.741 1.82373 -3.42581 0
M  V30 1634 H 163.842 3.3982 -1.52817 0
M  V30 1635 H 163.955 3.36325 -3.41207 0
M  V30 1636 H 162.319 1.8556 -1.7447 0
M  V30 1637 H 163.102 1.11956 -3.24532 0
M  V30 1638 N 165.547 1.27147 0.931209 0
M  V30 1639 C 166.824 1.0401 1.65654 0
M  V30 1640 C 167.204 -0.426297 2.06751 0
M  V30 1641 O 166.552 -1.40879 1.79904 0
M  V30 1642 C 166.762 1.99834 2.86125 0
M  V30 1643 C 168.11 2.29007 3.57549 0
M  V30 1644 O 169.134 1.97779 2.96246 0
M  V30 1645 O 167.993 2.82222 4.67989 0
M  V30 1646 H 165.087 0.396239 0.725895 0
M  V30 1647 H 167.633 1.38397 0.982056 0
M  V30 1648 H 166.405 2.98744 2.52721 0
M  V30 1649 H 166.028 1.65987 3.61295 0
M  V30 1650 N 167.025 -1.13721 1.09112 0
M  V30 1651 C 168.255 -1.88499 0.845671 0
M  V30 1652 C 168.663 -1.79218 -0.606432 0
M  V30 1653 O 168.006 -1.1544 -1.42896 0
M  V30 1654 C 168.068 -3.38954 1.19793 0
M  V30 1655 C 167.732 -3.72018 2.65428 0
M  V30 1656 C 168.729 -3.7153 3.63677 0
M  V30 1657 C 166.414 -4.01775 3.01467 0
M  V30 1658 C 168.408 -4.00336 4.95994 0
M  V30 1659 C 166.095 -4.30243 4.33975 0
M  V30 1660 C 167.093 -4.29508 5.31048 0
M  V30 1661 O 166.781 -4.5728 6.61173 0
M  V30 1662 H 166.513 -0.603702 0.304171 0
M  V30 1663 H 169.067 -1.44903 1.45576 0
M  V30 1664 H 167.297 -3.83039 0.530871 0
M  V30 1665 H 168.986 -3.95052 0.932146 0
M  V30 1666 H 169.752 -3.4862 3.37179 0
M  V30 1667 H 165.631 -4.01496 2.26544 0
M  V30 1668 H 169.175 -3.99678 5.71755 0
M  V30 1669 H 165.072 -4.52625 4.60219 0
M  V30 1670 H 165.84 -4.74964 6.66597 0
M  V30 1671 N 168.503 -0.877838 -1.30888 0
M  V30 1672 C 169.451 -0.328662 -2.30266 0
M  V30 1673 C 170.445 0.560496 -1.59859 0
M  V30 1674 O 171.651 0.445722 -1.74394 0
M  V30 1675 H 168.026 -0.0876142 -0.746879 0
M  V30 1676 H 169.997 -1.18061 -2.74051 0
M  V30 1677 C 168.746 0.448071 -3.44801 0
M  V30 1678 H 168.069 -0.226859 -3.99156 0
M  V30 1679 H 169.509 0.797541 -4.16432 0
M  V30 1680 C 167.968 1.64239 -2.94155 0
M  V30 1681 O 168.498 2.74175 -2.93583 0
M  V30 1682 N 166.704 1.47716 -2.50256 0
M  V30 1683 H 166.251 0.582821 -2.5092 0
M  V30 1684 H 166.209 2.27765 -2.16727 0
M  V30 1685 N 169.982 1.44106 -0.638065 0
M  V30 1686 C 171.23 2.01579 -0.145043 0
M  V30 1687 C 171.551 1.50496 1.24 0
M  V30 1688 O 170.821 0.711374 1.82527 0
M  V30 1689 H 169.401 0.745282 -0.05063 0
M  V30 1690 H 172.063 1.76516 -0.826327 0
M  V30 1691 H 171.159 3.11877 -0.118039 0
M  V30 1692 N 171.46 0.379036 1.52974 0
M  V30 1693 C 172.707 -0.206421 2.01445 0
M  V30 1694 C 173.035 -1.47668 1.26587 0
M  V30 1695 O 172.29 -1.92514 0.351675 0
M  V30 1696 C 172.589 -0.53096 3.53434 0
M  V30 1697 C 172.255 0.646546 4.46241 0
M  V30 1698 C 170.917 0.969604 4.7133 0
M  V30 1699 C 173.269 1.43479 5.01062 0
M  V30 1700 C 170.597 2.08263 5.48492 0
M  V30 1701 C 172.949 2.53834 5.7944 0
M  V30 1702 C 171.613 2.86659 6.02812 0
M  V30 1703 H 170.883 -0.0755349 0.73714 0
M  V30 1704 H 173.53 0.514271 1.84465 0
M  V30 1705 H 171.835 -1.33285 3.68432 0
M  V30 1706 H 173.532 -0.996417 3.88423 0
M  V30 1707 H 170.122 0.384734 4.2687 0
M  V30 1708 H 174.306 1.19844 4.81613 0
M  V30 1709 H 169.562 2.34078 5.64816 0
M  V30 1710 H 173.736 3.15319 6.20924 0
M  V30 1711 H 171.363 3.73026 6.62387 0
M  V30 1712 N 172.938 -1.57226 0.108567 0
M  V30 1713 C 173.885 -2.14756 -0.845481 0
M  V30 1714 C 174.855 -1.06971 -1.27068 0
M  V30 1715 O 176.04 -1.34827 -1.35005 0
M  V30 1716 C 173.18 -2.74298 -2.09415 0
M  V30 1717 C 172.293 -3.96358 -1.71826 0
M  V30 1718 C 171.428 -4.44021 -2.9158 0
M  V30 1719 C 170.467 -5.58637 -2.50181 0
M  V30 1720 N 169.604 -6.01091 -3.62814 0
M  V30 1721 H 174.444 -2.95961 -0.348035 0
M  V30 1722 H 171.981 -1.46226 -0.160106 0
M  V30 1723 H 173.939 -3.06945 -2.82561 0
M  V30 1724 H 172.569 -1.95801 -2.56636 0
M  V30 1725 H 171.621 -3.69939 -0.885947 0
M  V30 1726 H 172.933 -4.79504 -1.37394 0
M  V30 1727 H 172.087 -4.78522 -3.72963 0
M  V30 1728 H 170.826 -3.59803 -3.29231 0
M  V30 1729 H 169.831 -5.23751 -1.67228 0
M  V30 1730 H 171.056 -6.44613 -2.13659 0
M  V30 1731 H 169.002 -5.19817 -4.00158 0
M  V30 1732 H 168.919 -6.79066 -3.32273 0
M  V30 1733 H 170.187 -6.40227 -4.44668 0
M  V30 1734 N 174.416 0.165178 -1.56732 0
M  V30 1735 C 175.665 0.879143 -1.81532 0
M  V30 1736 C 175.978 1.83144 -0.686842 0
M  V30 1737 O 177.184 2.58823 -0.819944 0
M  V30 1738 C 175.64 1.61388 -3.21686 0
M  V30 1739 C 175.248 0.704904 -4.4242 0
M  V30 1740 C 176.992 2.3157 -3.55774 0
M  V30 1741 C 174.899 1.44022 -5.73595 0
M  V30 1742 H 173.829 0.332033 -0.676957 0
M  V30 1743 H 176.48 0.132008 -1.83025 0
M  V30 1744 H 174.862 2.40599 -3.14529 0
M  V30 1745 H 176.036 -0.0506815 -4.60772 0
M  V30 1746 H 174.351 0.112419 -4.16248 0
M  V30 1747 H 176.948 2.8719 -4.51028 0
M  V30 1748 H 177.291 3.07201 -2.8095 0
M  V30 1749 H 177.824 1.59297 -3.64513 0
M  V30 1750 H 174.563 0.72612 -6.51466 0
M  V30 1751 H 174.083 2.16898 -5.5921 0
M  V30 1752 H 175.762 1.98606 -6.15764 0
M  V30 1753 N 175.894 1.51508 0.433938 0
M  V30 1754 C 177.14 1.64588 1.18484 0
M  V30 1755 C 177.473 0.362666 1.90784 0
M  V30 1756 O 176.748 -0.637892 1.83742 0
M  V30 1757 C 177.031 2.85149 2.19913 0
M  V30 1758 C 176.884 4.23456 1.51674 0
M  V30 1759 C 178.203 3.01227 3.20858 0
M  V30 1760 H 175.322 0.598994 0.429389 0
M  V30 1761 H 177.964 1.84002 0.473647 0
M  V30 1762 H 176.114 2.68729 2.80566 0
M  V30 1763 H 177.786 4.51552 0.943322 0
M  V30 1764 H 176.029 4.25998 0.819035 0
M  V30 1765 H 176.7 5.03812 2.2556 0
M  V30 1766 H 179.176 3.16382 2.70263 0
M  V30 1767 H 178.052 3.87141 3.89118 0
M  V30 1768 H 178.313 2.13447 3.8716 0
M  V30 1769 N 177.372 -0.689602 1.41712 0
M  V30 1770 C 178.618 -1.45181 1.41599 0
M  V30 1771 C 178.951 -1.94181 0.0270081 0
M  V30 1772 O 178.226 -1.6993 -0.946265 0
M  V30 1773 C 178.509 -2.65945 2.42787 0
M  V30 1774 C 178.362 -2.22672 3.90816 0
M  V30 1775 C 179.681 -3.68149 2.41151 0
M  V30 1776 H 176.8 -0.526576 0.515642 0
M  V30 1777 H 179.442 -0.784947 1.73028 0
M  V30 1778 H 177.592 -3.2284 2.16116 0
M  V30 1779 H 179.264 -1.71058 4.28412 0
M  V30 1780 H 177.507 -1.54394 4.05395 0
M  V30 1781 H 178.178 -3.0935 4.57172 0
M  V30 1782 H 180.654 -3.2094 2.64834 0
M  V30 1783 H 179.53 -4.50248 3.13955 0
M  V30 1784 H 179.791 -4.18259 1.43221 0
M  V30 1785 N 178.85 -1.27639 -0.924453 0
M  V30 1786 C 179.813 -1.10681 -2.00705 0
M  V30 1787 C 180.813 -0.0497823 -1.60723 0
M  V30 1788 O 182.003 -0.294654 -1.7169 0
M  V30 1789 C 179.135 -0.687164 -3.33902 0
M  V30 1790 H 180.328 -2.06817 -2.17179 0
M  V30 1791 H 177.881 -1.10473 -1.10569 0
M  V30 1792 H 178.616 0.275439 -3.23128 0
M  V30 1793 H 178.401 -1.45061 -3.6428 0
M  V30 1794 H 179.891 -0.590853 -4.13399 0
M  V30 1795 N 180.328 1.1314 -1.09713 0
M  V30 1796 C 181.576 1.84119 -0.833338 0
M  V30 1797 C 181.897 1.84097 0.642904 0
M  V30 1798 O 181.167 1.29881 1.46655 0
M  V30 1799 H 179.747 0.681766 -0.305293 0
M  V30 1800 H 182.409 1.37038 -1.38588 0
M  V30 1801 H 181.505 2.88543 -1.18951 0
M  V30 1802 N 181.806 0.884767 1.30421 0
M  V30 1803 C 182.716 0.355398 2.31892 0
M  V30 1804 C 183.732 -0.542261 1.65335 0
M  V30 1805 O 184.908 -0.435432 1.96637 0
M  V30 1806 C 181.973 -0.421661 3.44126 0
M  V30 1807 C 181.034 0.505727 4.26311 0
M  V30 1808 C 180.267 -0.234343 5.33185 0
M  V30 1809 O 180.49 -1.46045 5.51386 0
M  V30 1810 O 179.424 0.415443 6.00465 0
M  V30 1811 H 183.25 1.19685 2.79122 0
M  V30 1812 H 180.835 0.648596 1.34587 0
M  V30 1813 H 182.717 -0.861641 4.12497 0
M  V30 1814 H 181.392 -1.23942 2.99032 0
M  V30 1815 H 180.299 0.994513 3.60639 0
M  V30 1816 H 181.632 1.28948 4.75009 0
M  V30 1817 N 183.284 -1.43765 0.645699 0
M  V30 1818 C 184.512 -2.06253 0.163556 0
M  V30 1819 C 184.927 -1.48352 -1.16778 0
M  V30 1820 O 184.284 -0.611932 -1.71935 0
M  V30 1821 C 184.335 -3.61453 0.0583186 0
M  V30 1822 O 184.056 -4.172 1.33702 0
M  V30 1823 C 185.557 -4.41002 -0.450795 0
M  V30 1824 H 182.777 -0.665413 0.0864077 0
M  V30 1825 H 185.321 -1.84396 0.884222 0
M  V30 1826 H 183.476 -3.82522 -0.612865 0
M  V30 1827 H 183.89 -5.10791 1.19131 0
M  V30 1828 H 185.364 -5.49966 -0.473403 0
M  V30 1829 H 185.841 -4.13488 -1.48068 0
M  V30 1830 H 186.447 -4.24886 0.187637 0
M  V30 1831 N 184.763 -0.387143 -1.52771 0
M  V30 1832 C 185.693 0.440551 -2.29306 0
M  V30 1833 C 186.674 1.06535 -1.32606 0
M  V30 1834 O 187.859 1.07853 -1.61497 0
M  V30 1835 C 184.989 1.56919 -3.09829 0
M  V30 1836 C 183.943 1.07054 -4.14395 0
M  V30 1837 C 183.269 2.29109 -4.83129 0
M  V30 1838 C 184.569 0.140015 -5.22112 0
M  V30 1839 H 186.263 -0.198026 -2.98744 0
M  V30 1840 H 183.809 -0.09668 -1.43675 0
M  V30 1841 H 185.762 2.15503 -3.62128 0
M  V30 1842 H 184.486 2.23532 -2.3812 0
M  V30 1843 H 183.145 0.507247 -3.63074 0
M  V30 1844 H 182.793 2.94227 -4.0797 0
M  V30 1845 H 182.493 1.96406 -5.53804 0
M  V30 1846 H 184.017 2.88339 -5.38231 0
M  V30 1847 H 185.431 0.633978 -5.69784 0
M  V30 1848 H 183.828 -0.0971485 -6.00021 0
M  V30 1849 H 184.898 -0.811711 -4.78058 0
M  V30 1850 N 186.241 1.57166 -0.116904 0
M  V30 1851 C 187.204 2.14039 0.819742 0
M  V30 1852 C 188.204 1.07477 1.19605 0
M  V30 1853 O 189.394 1.33263 1.1219 0
M  V30 1854 C 186.526 2.67891 2.10826 0
M  V30 1855 H 187.719 2.98128 0.325511 0
M  V30 1856 H 185.272 1.55739 0.132312 0
M  V30 1857 H 186.007 1.87384 2.64685 0
M  V30 1858 H 185.792 3.45823 1.84793 0
M  V30 1859 H 187.282 3.11809 2.77785 0
M  V30 1860 N 187.719 -0.156864 1.56817 0
M  V30 1861 C 188.667 -1.21319 1.98455 0
M  V30 1862 C 189.661 -1.45025 0.875444 0
M  V30 1863 O 190.867 -1.45435 1.0606 0
M  V30 1864 H 187.242 -0.408142 0.631605 0
M  V30 1865 H 189.213 -0.835244 2.86472 0
M  V30 1866 C 187.962 -2.54148 2.37285 0
M  V30 1867 H 187.285 -2.36733 3.22176 0
M  V30 1868 H 188.725 -3.26712 2.70251 0
M  V30 1869 C 187.184 -3.13967 1.22173 0
M  V30 1870 O 187.714 -3.98357 0.517149 0
M  V30 1871 N 185.92 -2.7327 0.988536 0
M  V30 1872 H 185.467 -2.04744 1.56326 0
M  V30 1873 H 185.425 -3.13628 0.220209 0
M  V30 1874 N 189.197 -1.51736 -0.425897 0
M  V30 1875 C 190.107 -1.76738 -1.54275 0
M  V30 1876 C 191.123 -0.65211 -1.61318 0
M  V30 1877 O 192.299 -0.935654 -1.78346 0
M  V30 1878 C 189.364 -1.89755 -2.90162 0
M  V30 1879 C 188.425 -3.13633 -2.93143 0
M  V30 1880 C 187.658 -3.2602 -4.22548 0
M  V30 1881 O 187.881 -2.44067 -5.15546 0
M  V30 1882 O 186.815 -4.19071 -4.32046 0
M  V30 1883 H 190.641 -2.71502 -1.36089 0
M  V30 1884 H 188.226 -1.36376 -0.610069 0
M  V30 1885 H 190.108 -2.00236 -3.70788 0
M  V30 1886 H 188.783 -0.981785 -3.08452 0
M  V30 1887 H 187.69 -3.08622 -2.11431 0
M  V30 1888 H 189.023 -4.04936 -2.798 0
M  V30 1889 N 190.675 0.682077 -1.42076 0
M  V30 1890 C 191.607 1.80755 -1.40926 0
M  V30 1891 C 192.62 1.59833 -0.309398 0
M  V30 1892 O 193.809 1.69087 -0.572014 0
M  V30 1893 C 190.909 3.17744 -1.17865 0
M  V30 1894 C 190.082 3.65578 -2.40149 0
M  V30 1895 C 189.141 4.81277 -2.12742 0
M  V30 1896 O 188.167 4.92197 -2.85887 0
M  V30 1897 N 189.369 5.69474 -1.12602 0
M  V30 1898 H 192.134 1.82229 -2.37935 0
M  V30 1899 H 189.695 0.864903 -1.36861 0
M  V30 1900 H 191.687 3.9279 -0.9746 0
M  V30 1901 H 190.257 3.11214 -0.294068 0
M  V30 1902 H 189.477 2.81291 -2.76169 0
M  V30 1903 H 190.765 3.94278 -3.21593 0
M  V30 1904 H 190.163 5.63297 -0.520899 0
M  V30 1905 H 188.72 6.44363 -0.981842 0
M  V30 1906 N 192.153 1.28127 0.917671 0
M  V30 1907 C 193.402 1.14432 1.66097 0
M  V30 1908 C 193.715 -0.307247 1.93172 0
M  V30 1909 O 194.921 -0.565259 2.65551 0
M  V30 1910 C 193.377 2.00015 2.99202 0
M  V30 1911 C 192.985 3.49889 2.79789 0
M  V30 1912 C 194.729 1.94996 3.77064 0
M  V30 1913 C 192.636 4.27636 4.08511 0
M  V30 1914 H 191.566 0.424662 0.62304 0
M  V30 1915 H 194.217 1.52628 1.01868 0
M  V30 1916 H 192.599 1.54672 3.64544 0
M  V30 1917 H 193.773 4.03162 2.23152 0
M  V30 1918 H 192.088 3.56392 2.15345 0
M  V30 1919 H 194.685 2.50354 4.72469 0
M  V30 1920 H 195.028 0.925819 4.05875 0
M  V30 1921 H 195.561 2.38287 3.18534 0
M  V30 1922 H 192.3 5.30615 3.84874 0
M  V30 1923 H 191.82 3.79137 4.64774 0
M  V30 1924 H 193.499 4.37346 4.76799 0
M  V30 1925 N 193.631 -1.12557 1.10312 0
M  V30 1926 C 194.563 -2.17971 0.708625 0
M  V30 1927 C 195.576 -1.60806 -0.254027 0
M  V30 1928 O 196.765 -1.78458 -0.0386891 0
M  V30 1929 C 193.865 -3.38891 0.0248198 0
M  V30 1930 C 193.038 -4.25548 1.01132 0
M  V30 1931 C 192.097 -5.24972 0.35924 0
M  V30 1932 O 191.123 -5.60174 1.00965 0
M  V30 1933 N 192.325 -5.73747 -0.882847 0
M  V30 1934 H 195.09 -2.52427 1.61557 0
M  V30 1935 H 192.651 -1.27967 0.991771 0
M  V30 1936 H 194.643 -4.02485 -0.422852 0
M  V30 1937 H 193.213 -3.02596 -0.784514 0
M  V30 1938 H 192.433 -3.58589 1.6373 0
M  V30 1939 H 193.721 -4.80294 1.67914 0
M  V30 1940 H 193.119 -5.4731 -1.43065 0
M  V30 1941 H 191.676 -6.39234 -1.27369 0
M  V30 1942 N 195.109 -0.891671 -1.2995 0
M  V30 1943 C 196.072 -0.36828 -2.26222 0
M  V30 1944 C 197.072 0.493014 -1.53056 0
M  V30 1945 O 198.262 0.299213 -1.71611 0
M  V30 1946 C 195.394 0.47442 -3.37583 0
M  V30 1947 H 196.587 -1.21844 -2.74033 0
M  V30 1948 H 194.14 -0.669107 -1.41254 0
M  V30 1949 H 194.875 1.34489 -2.95099 0
M  V30 1950 H 194.66 -0.142615 -3.91841 0
M  V30 1951 H 196.15 0.83218 -4.09224 0
M  V30 1952 N 196.587 1.43421 -0.653314 0
M  V30 1953 C 197.517 2.33487 0.0246656 0
M  V30 1954 C 198.498 1.49475 0.811863 0
M  V30 1955 O 199.683 1.78139 0.773322 0
M  V30 1956 C 196.813 3.32841 0.99166 0
M  V30 1957 C 195.767 4.26842 0.314568 0
M  V30 1958 C 195.093 5.16236 1.39302 0
M  V30 1959 C 196.393 5.16243 -0.793095 0
M  V30 1960 H 198.087 2.90427 -0.727481 0
M  V30 1961 H 195.633 1.39649 -0.351287 0
M  V30 1962 H 197.586 3.94747 1.47487 0
M  V30 1963 H 196.31 2.74158 1.77497 0
M  V30 1964 H 194.969 3.663 -0.148199 0
M  V30 1965 H 194.617 4.53891 2.16776 0
M  V30 1966 H 194.317 5.79948 0.945223 0
M  V30 1967 H 195.841 5.81015 1.87759 0
M  V30 1968 H 197.255 5.71958 -0.392039 0
M  V30 1969 H 195.652 5.88676 -1.16536 0
M  V30 1970 H 196.722 4.55927 -1.65103 0
M  V30 1971 N 198.065 0.39524 1.52563 0
M  V30 1972 C 199.481 0.0454682 1.59535 0
M  V30 1973 C 199.681 -1.44056 1.4089 0
M  V30 1974 O 198.737 -2.20579 1.22888 0
M  V30 1975 C 200.05 0.527963 2.96029 0
M  V30 1976 C 201.598 0.484733 3.09224 0
M  V30 1977 C 202.073 0.943512 4.48176 0
M  V30 1978 N 203.564 0.899765 4.54377 0
M  V30 1979 C 204.299 1.22609 5.60138 0
M  V30 1980 N 203.795 1.62319 6.73516 0
M  V30 1981 N 205.588 1.14696 5.50274 0
M  V30 1982 H 197.739 1.36261 1.62931 0
M  V30 1983 H 200.002 0.558887 0.765735 0
M  V30 1984 H 199.708 1.56607 3.14908 0
M  V30 1985 H 199.582 -0.0698056 3.77135 0
M  V30 1986 H 201.969 -0.544298 2.90037 0
M  V30 1987 H 202.05 1.11838 2.30056 0
M  V30 1988 H 201.694 1.9708 4.68104 0
M  V30 1989 H 201.624 0.286817 5.25818 0
M  V30 1990 H 204.115 0.607632 3.72983 0
M  V30 1991 H 204.428 1.85567 7.5019 0
M  V30 1992 H 202.773 1.66211 6.74833 0
M  V30 1993 H 205.964 0.835701 4.6058 0
M  V30 1994 H 206.137 1.40459 6.32594 0
M  V30 1995 N 199.544 -1.57102 0.125237 0
M  V30 1996 C 200.454 -2.19191 -0.8362 0
M  V30 1997 C 201.47 -1.16985 -1.28805 0
M  V30 1998 O 202.646 -1.49479 -1.34974 0
M  V30 1999 C 199.711 -2.78407 -2.06617 0
M  V30 2000 C 198.772 -3.9567 -1.66565 0
M  V30 2001 C 198.005 -4.52052 -2.83698 0
M  V30 2002 O 198.228 -4.07326 -3.99302 0
M  V30 2003 O 197.162 -5.42645 -2.60423 0
M  V30 2004 H 200.988 -3.01816 -0.337776 0
M  V30 2005 H 198.573 -1.4906 -0.100695 0
M  V30 2006 H 200.455 -3.16129 -2.7864 0
M  V30 2007 H 199.13 -1.9881 -2.55453 0
M  V30 2008 H 198.037 -3.62705 -0.916296 0
M  V30 2009 H 199.37 -4.76722 -1.22464 0
M  V30 2010 N 201.022 0.148545 -1.56898 0
M  V30 2011 C 202.438 0.501131 -1.51528 0
M  V30 2012 C 202.638 1.83458 -0.833399 0
M  V30 2013 O 201.694 2.49259 -0.40328 0
M  V30 2014 C 203.007 0.512864 -2.96294 0
M  V30 2015 C 204.555 0.598487 -3.07225 0
M  V30 2016 C 205.03 0.640897 -4.53494 0
M  V30 2017 N 206.521 0.703163 -4.57832 0
M  V30 2018 C 207.256 0.756935 -5.68382 0
M  V30 2019 N 206.752 0.770147 -6.88506 0
M  V30 2020 N 208.545 0.797698 -5.56411 0
M  V30 2021 H 200.696 -0.725532 -1.99624 0
M  V30 2022 H 202.959 -0.264358 -0.910395 0
M  V30 2023 H 202.665 -0.398691 -3.49433 0
M  V30 2024 H 202.539 1.35133 -3.52163 0
M  V30 2025 H 204.926 1.50046 -2.54106 0
M  V30 2026 H 205.007 -0.267093 -2.54402 0
M  V30 2027 H 204.651 -0.256915 -5.0725 0
M  V30 2028 H 204.581 1.52295 -5.04097 0
M  V30 2029 H 207.072 0.700314 -3.71354 0
M  V30 2030 H 207.385 0.812983 -7.68512 0
M  V30 2031 H 205.73 0.738049 -6.9107 0
M  V30 2032 H 208.921 0.784535 -4.61479 0
M  V30 2033 H 209.094 0.83614 -6.42583 0
M  V30 2034 N 202.5 1.5196 0.417844 0
M  V30 2035 C 203.749 1.6482 1.16264 0
M  V30 2036 C 204.062 0.379886 1.91876 0
M  V30 2037 O 205.268 0.388154 2.68711 0
M  V30 2038 C 203.724 2.91161 2.1155 0
M  V30 2039 C 203.332 4.25068 1.41495 0
M  V30 2040 C 205.076 3.13383 2.86341 0
M  V30 2041 C 202.983 5.42541 2.35379 0
M  V30 2042 H 201.913 0.613954 0.437694 0
M  V30 2043 H 204.564 1.78442 0.427871 0
M  V30 2044 H 202.946 2.71218 2.88543 0
M  V30 2045 H 204.12 4.55463 0.699263 0
M  V30 2046 H 202.435 4.0888 0.787792 0
M  V30 2047 H 205.032 3.98324 3.5671 0
M  V30 2048 H 205.375 2.27256 3.48798 0
M  V30 2049 H 205.908 3.33757 2.1645 0
M  V30 2050 H 202.647 6.30987 1.77582 0
M  V30 2051 H 202.167 5.16497 3.04945 0
M  V30 2052 H 203.846 5.75272 2.96093 0
M  V30 2053 N 203.978 -0.674533 1.42435 0
M  V30 2054 C 204.888 -1.81751 1.48337 0
M  V30 2055 C 205.904 -1.69975 0.372099 0
M  V30 2056 O 207.08 -1.91521 0.62304 0
M  V30 2057 C 204.145 -3.17895 1.38361 0
M  V30 2058 C 203.206 -3.41625 2.59982 0
M  V30 2059 C 202.439 -4.71274 2.50473 0
M  V30 2060 O 202.662 -5.49197 1.54075 0
M  V30 2061 O 201.596 -4.96254 3.4061 0
M  V30 2062 H 205.422 -1.79728 2.44809 0
M  V30 2063 H 203.007 -0.830312 1.24202 0
M  V30 2064 H 204.889 -3.99136 1.35161 0
M  V30 2065 H 203.564 -3.20555 0.450144 0
M  V30 2066 H 202.471 -2.60231 2.68757 0
M  V30 2067 H 203.804 -3.43796 3.52229 0
M  V30 2068 N 205.456 -1.28612 -0.910864 0
M  V30 2069 C 206.403 -1.12786 -2.01365 0
M  V30 2070 C 207.373 -0.024201 -1.66082 0
M  V30 2071 O 208.558 -0.189667 -1.89855 0
M  V30 2072 C 205.698 -0.798743 -3.35729 0
M  V30 2073 C 204.811 -1.98173 -3.83864 0
M  V30 2074 C 203.946 -1.59298 -5.06752 0
M  V30 2075 C 202.985 -2.74245 -5.47226 0
M  V30 2076 N 202.122 -2.35842 -6.61304 0
M  V30 2077 H 206.962 -2.07142 -2.14234 0
M  V30 2078 H 204.499 -1.03093 -1.0493 0
M  V30 2079 H 206.457 -0.588662 -4.13026 0
M  V30 2080 H 205.087 0.10789 -3.2262 0
M  V30 2081 H 204.139 -2.30386 -3.02699 0
M  V30 2082 H 205.451 -2.84343 -4.09818 0
M  V30 2083 H 204.605 -1.34513 -5.916 0
M  V30 2084 H 203.344 -0.702618 -4.82612 0
M  V30 2085 H 202.349 -2.99725 -4.60918 0
M  V30 2086 H 203.574 -3.63928 -5.73353 0
M  V30 2087 H 201.52 -1.49279 -6.38789 0
M  V30 2088 H 201.437 -3.15546 -6.86998 0
M  V30 2089 H 202.705 -2.14348 -7.4945 0
M  V30 2090 N 206.934 1.1197 -1.10907 0
M  V30 2091 C 207.882 2.19927 -0.757303 0
M  V30 2092 C 208.876 1.67564 0.248747 0
M  V30 2093 O 210.082 1.79672 0.108605 0
M  V30 2094 H 206.457 0.716925 -0.226987 0
M  V30 2095 H 208.428 2.46847 -1.67658 0
M  V30 2096 C 207.177 3.47061 -0.210671 0
M  V30 2097 H 206.5 3.87703 -0.976049 0
M  V30 2098 H 207.94 4.24 -0.0026584 0
M  V30 2099 C 206.399 3.19864 1.05777 0
M  V30 2100 O 206.929 3.40049 2.13845 0
M  V30 2101 N 205.135 2.73636 0.978349 0
M  V30 2102 H 204.682 2.5741 0.0988246 0
M  V30 2103 H 204.64 2.55815 1.82773 0
M  V30 2104 N 208.412 0.89855 1.29475 0
M  V30 2105 C 209.689 0.443416 1.90508 0
M  V30 2106 C 210.069 -1.07685 1.81569 0
M  V30 2107 O 209.417 -1.9182 1.24166 0
M  V30 2108 C 209.627 0.956708 3.35631 0
M  V30 2109 C 210.975 0.999728 4.12663 0
M  V30 2110 O 211.999 0.904299 3.4453 0
M  V30 2111 O 210.858 1.14289 5.34416 0
M  V30 2112 H 207.952 0.138025 0.815401 0
M  V30 2113 H 210.498 0.98834 1.37949 0
M  V30 2114 H 209.27 2.00067 3.36287 0
M  V30 2115 H 208.893 0.391728 3.95666 0
M  V30 2116 N 209.89 -1.43072 0.660911 0
M  V30 2117 C 210.82 -2.33497 -0.0122829 0
M  V30 2118 C 211.801 -1.49903 -0.803925 0
M  V30 2119 O 212.986 -1.78546 -0.763864 0
M  V30 2120 C 210.116 -3.33363 -0.973994 0
M  V30 2121 C 209.07 -4.27003 -0.291928 0
M  V30 2122 C 208.396 -5.16967 -1.36562 0
M  V30 2123 C 209.696 -5.15816 0.820462 0
M  V30 2124 H 211.39 -2.90038 0.742873 0
M  V30 2125 H 208.936 -1.39461 0.358688 0
M  V30 2126 H 210.889 -3.95524 -1.45392 0
M  V30 2127 H 209.613 -2.75095 -1.7604 0
M  V30 2128 H 208.272 -3.66217 0.167623 0
M  V30 2129 H 207.92 -4.55034 -2.14366 0
M  V30 2130 H 207.62 -5.80441 -0.914454 0
M  V30 2131 H 209.144 -5.82003 -1.84675 0
M  V30 2132 H 210.558 -5.71742 0.422366 0
M  V30 2133 H 208.955 -5.8805 1.19656 0
M  V30 2134 H 210.025 -4.55045 1.67518 0
M  V30 2135 N 211.368 -0.403325 -1.52352 0
M  V30 2136 C 212.331 0.413051 -2.25447 0
M  V30 2137 C 213.331 0.978513 -1.276 0
M  V30 2138 O 214.521 0.858305 -1.51587 0
M  V30 2139 C 211.653 1.58087 -3.02029 0
M  V30 2140 H 212.846 -0.227094 -2.99039 0
M  V30 2141 H 210.399 -0.155722 -1.55522 0
M  V30 2142 H 211.134 2.25804 -2.32772 0
M  V30 2143 H 210.919 1.18195 -3.73861 0
M  V30 2144 H 212.409 2.1585 -3.57489 0
M  V30 2145 N 212.846 1.57033 -0.133567 0
M  V30 2146 C 214.071 2.00475 0.531477 0
M  V30 2147 C 214.496 1.01291 1.58499 0
M  V30 2148 O 213.854 -0.0133279 1.81295 0
M  V30 2149 C 213.902 3.42729 1.12113 0
M  V30 2150 O 213.006 3.46498 2.23636 0
M  V30 2151 H 212.347 0.650876 0.131362 0
M  V30 2152 H 214.877 2.03344 -0.22634 0
M  V30 2153 H 214.887 3.81246 1.4531 0
M  V30 2154 H 213.562 4.14428 0.349557 0
M  V30 2155 H 212.139 3.19811 1.91769 0
M  V30 2156 N 214.325 -0.140222 1.56975 0
M  V30 2157 C 215.573 -0.850005 1.83356 0
M  V30 2158 C 215.894 -1.81399 0.71551 0
M  V30 2159 O 215.164 -1.94136 -0.262294 0
M  V30 2160 H 213.744 -0.316886 0.676456 0
M  V30 2161 H 216.406 -0.132608 1.94448 0
M  V30 2162 H 215.502 -1.40814 2.78528 0
M  V30 2163 N 215.803 -1.52179 -0.40978 0
M  V30 2164 C 217.049 -1.66453 -1.15851 0
M  V30 2165 C 217.382 -0.392972 -1.90182 0
M  V30 2166 O 216.657 0.608579 -1.84734 0
M  V30 2167 C 216.94 -2.88612 -2.15349 0
M  V30 2168 C 216.793 -4.25815 -1.44918 0
M  V30 2169 C 218.112 -3.06294 -3.16026 0
M  V30 2170 H 215.231 -0.60575 -0.419805 0
M  V30 2171 H 217.873 -1.84732 -0.444314 0
M  V30 2172 H 216.023 -2.73158 -2.76255 0
M  V30 2173 H 217.695 -4.52995 -0.871365 0
M  V30 2174 H 215.938 -4.27247 -0.751159 0
M  V30 2175 H 216.609 -5.07337 -2.17516 0
M  V30 2176 H 219.085 -3.20641 -2.65195 0
M  V30 2177 H 217.961 -3.93283 -3.8291 0
M  V30 2178 H 218.222 -2.19579 -3.83715 0
M  V30 2179 N 217.281 0.66697 -1.42791 0
M  V30 2180 C 218.529 1.42417 -1.43394 0
M  V30 2181 C 218.85 1.94925 -0.0542373 0
M  V30 2182 O 218.12 1.73564 0.908415 0
M  V30 2183 H 216.7 0.528515 -0.527902 0
M  V30 2184 H 219.362 0.787562 -1.78279 0
M  V30 2185 H 218.458 2.27333 -2.13837 0
M  V30 2186 N 218.759 1.29093 0.90403 0
M  V30 2187 C 219.984 1.19809 1.69294 0
M  V30 2188 C 220.409 -0.238481 1.86582 0
M  V30 2189 O 219.767 -1.1723 1.383 0
M  V30 2190 C 219.815 1.91202 3.05736 0
M  V30 2191 O 218.919 1.22611 3.93752 0
M  V30 2192 H 218.26 0.415385 0.518027 0
M  V30 2193 H 220.79 1.70586 1.12967 0
M  V30 2194 H 220.8 1.99487 3.55906 0
M  V30 2195 H 219.475 2.95692 2.92471 0
M  V30 2196 H 218.052 1.22554 3.52186 0
M  V30 2197 N 220.237 -1.11381 1.11499 0
M  V30 2198 C 221.483 -1.83403 0.865512 0
M  V30 2199 C 221.816 -1.84459 -0.607329 0
M  V30 2200 O 221.091 -1.29811 -1.44842 0
M  V30 2201 C 221.374 -3.30552 1.42855 0
M  V30 2202 C 221.227 -3.37886 2.96906 0
M  V30 2203 C 222.546 -4.26643 1.08 0
M  V30 2204 H 219.665 -0.665879 0.31587 0
M  V30 2205 H 222.307 -1.30601 1.37998 0
M  V30 2206 H 220.457 -3.75648 0.990985 0
M  V30 2207 H 222.129 -3.01343 3.49271 0
M  V30 2208 H 220.372 -2.78088 3.32941 0
M  V30 2209 H 221.043 -4.41458 3.31389 0
M  V30 2210 H 223.519 -3.89729 1.45775 0
M  V30 2211 H 222.395 -5.27986 1.50072 0
M  V30 2212 H 222.656 -4.42099 -0.00915037 0
M  V30 2213 N 221.715 -0.905404 -1.28997 0
M  V30 2214 C 222.625 -0.392246 -2.31298 0
M  V30 2215 C 223.641 0.515889 -1.66176 0
M  V30 2216 O 224.817 0.404093 -1.97304 0
M  V30 2217 C 221.882 0.36686 -3.44754 0
M  V30 2218 C 220.943 -0.573485 -4.25452 0
M  V30 2219 C 220.176 0.149488 -5.33491 0
M  V30 2220 O 220.399 1.37255 -5.5364 0
M  V30 2221 O 219.333 -0.510919 -5.99728 0
M  V30 2222 H 223.159 -1.2411 -2.77183 0
M  V30 2223 H 220.744 -0.669926 -1.33538 0
M  V30 2224 H 222.626 0.795907 -4.13816 0
M  V30 2225 H 221.301 1.19169 -3.00966 0
M  V30 2226 H 220.208 -1.05176 -3.59011 0
M  V30 2227 H 221.541 -1.36489 -4.72897 0
M  V30 2228 N 223.193 1.4272 -0.668489 0
M  V30 2229 C 224.125 2.2914 0.052613 0
M  V30 2230 C 225.138 1.43339 0.771857 0
M  V30 2231 O 226.327 1.67123 0.627067 0
M  V30 2232 C 223.427 3.20618 1.09804 0
M  V30 2233 C 222.6 4.35039 0.45389 0
M  V30 2234 C 221.659 5.07282 1.39825 0
M  V30 2235 O 220.685 5.62024 0.900978 0
M  V30 2236 N 221.887 5.12206 2.73176 0
M  V30 2237 H 224.652 2.91668 -0.689209 0
M  V30 2238 H 222.213 1.53577 -0.512422 0
M  V30 2239 H 224.205 3.65815 1.73094 0
M  V30 2240 H 222.775 2.59585 1.74167 0
M  V30 2241 H 221.995 3.92567 -0.358396 0
M  V30 2242 H 223.283 5.088 0.00486972 0
M  V30 2243 H 222.681 4.6913 3.16122 0
M  V30 2244 H 221.238 5.61069 3.31729 0
M  V30 2245 N 224.671 0.411399 1.52136 0
M  V30 2246 C 225.917 -0.163888 2.02137 0
M  V30 2247 C 226.25 -1.44597 1.29636 0
M  V30 2248 O 225.525 -1.90272 0.403353 0
M  V30 2249 C 225.808 -0.40927 3.57767 0
M  V30 2250 C 225.661 0.889643 4.40914 0
M  V30 2251 C 226.98 -1.19042 4.23694 0
M  V30 2252 H 224.099 -0.0580896 0.734707 0
M  V30 2253 H 226.741 0.54531 1.82007 0
M  V30 2254 H 224.891 -1.0134 3.7505 0
M  V30 2255 H 226.563 1.52575 4.35337 0
M  V30 2256 H 224.806 1.50011 4.07037 0
M  V30 2257 H 225.477 0.672314 5.4789 0
M  V30 2258 H 227.953 -0.678942 4.10524 0
M  V30 2259 H 226.829 -1.33086 5.32522 0
M  V30 2260 H 227.09 -2.21166 3.82803 0
M  V30 2261 N 226.149 -1.5696 0.141893 0
M  V30 2262 C 227.426 -1.87553 -0.555281 0
M  V30 2263 C 227.806 -1.04699 -1.83306 0
M  V30 2264 O 227.154 -0.132346 -2.28116 0
M  V30 2265 C 227.364 -3.39093 -0.825664 0
M  V30 2266 C 228.712 -4.08199 -1.16869 0
M  V30 2267 O 229.736 -3.44242 -0.915185 0
M  V30 2268 O 228.595 -5.21139 -1.6455 0
M  V30 2269 H 225.689 -0.777188 -0.282679 0
M  V30 2270 H 228.235 -1.68763 0.17812 0
M  V30 2271 H 227.007 -3.91221 0.0788633 0
M  V30 2272 H 226.63 -3.63393 -1.61343 0
M  V30 2273 N 227.627 0.131896 -1.57047 0
M  V30 2274 C 228.876 0.84044 -1.83356 0
M  V30 2275 C 229.189 1.81646 -0.725535 0
M  V30 2276 O 230.395 2.57025 -0.874659 0
M  V30 2277 C 228.851 1.54528 -3.25037 0
M  V30 2278 C 228.459 0.610902 -4.43815 0
M  V30 2279 C 230.203 2.23972 -3.60606 0
M  V30 2280 C 228.11 1.31823 -5.76521 0
M  V30 2281 H 227.04 0.317599 -0.683847 0
M  V30 2282 H 229.691 0.0931561 -1.83263 0
M  V30 2283 H 228.073 2.33873 -3.19561 0
M  V30 2284 H 229.247 -0.148407 -4.60561 0
M  V30 2285 H 227.562 0.0241016 -4.16393 0
M  V30 2286 H 230.159 2.77558 -4.57018 0
M  V30 2287 H 230.502 3.01173 -2.87403 0
M  V30 2288 H 231.035 1.51529 -3.6781 0
M  V30 2289 H 227.774 0.587771 -6.52859 0
M  V30 2290 H 227.294 2.04987 -5.63685 0
M  V30 2291 H 228.973 1.855 -6.19838 0
M  V30 2292 N 229.106 1.52395 0.401703 0
M  V30 2293 C 230.036 1.79231 1.49661 0
M  V30 2294 C 231.017 0.643654 1.57452 0
M  V30 2295 O 232.202 0.889989 1.72606 0
M  V30 2296 C 229.332 1.94971 2.87409 0
M  V30 2297 C 228.286 3.10604 2.94465 0
M  V30 2298 C 227.612 3.11577 4.34538 0
M  V30 2299 C 228.912 4.49921 2.6527 0
M  V30 2300 H 230.606 2.70917 1.27454 0
M  V30 2301 H 228.152 1.30362 0.6117 0
M  V30 2302 H 230.105 2.12328 3.63999 0
M  V30 2303 H 228.829 0.999632 3.10926 0
M  V30 2304 H 227.488 2.93009 2.20321 0
M  V30 2305 H 227.136 2.14277 4.55076 0
M  V30 2306 H 226.836 3.89247 4.40183 0
M  V30 2307 H 228.36 3.31073 5.13053 0
M  V30 2308 H 229.774 4.67683 3.31581 0
M  V30 2309 H 228.171 5.29564 2.82281 0
M  V30 2310 H 229.241 4.57507 1.60671 0
M  V30 2311 N 230.584 -0.659388 1.43143 0
M  V30 2312 C 231.995 -1.24041 1.39537 0
M  V30 2313 C 232.346 -1.95963 0.0963364 0
M  V30 2314 O 231.471 -2.00892 -0.804438 0
M  V30 2315 C 232.066 -2.25601 2.52764 0
M  V30 2316 C 230.625 -2.79195 2.52443 0
M  V30 2317 C 229.772 -1.53743 2.30778 0
M  V30 2318 H 232.723 -0.451792 1.52133 0
M  V30 2319 H 232.744 -3.07651 2.23899 0
M  V30 2320 H 232.256 -1.73226 3.47296 0
M  V30 2321 H 230.357 -3.35649 1.61773 0
M  V30 2322 H 230.47 -3.2716 3.50004 0
M  V30 2323 H 228.834 -1.80869 1.79328 0
M  V30 2324 H 229.617 -1.03312 3.27386 0
M  V30 2325 N 232.062 -1.29571 -0.897171 0
M  V30 2326 C 233.478 -1.07637 -1.17841 0
M  V30 2327 C 233.678 0.170713 -2.00776 0
M  V30 2328 O 232.734 0.867768 -2.3712 0
M  V30 2329 C 234.047 -2.3332 -1.8969 0
M  V30 2330 C 235.595 -2.38664 -2.02505 0
M  V30 2331 C 236.07 -3.64157 -2.77765 0
M  V30 2332 N 237.561 -3.64894 -2.85318 0
M  V30 2333 C 238.296 -4.58679 -3.44094 0
M  V30 2334 N 237.792 -5.62799 -4.04017 0
M  V30 2335 N 239.585 -4.46245 -3.41793 0
M  V30 2336 H 231.736 -2.09598 -0.343883 0
M  V30 2337 H 233.999 -0.923333 -0.214848 0
M  V30 2338 H 233.705 -3.24262 -1.36187 0
M  V30 2339 H 233.579 -2.41025 -2.9015 0
M  V30 2340 H 235.966 -1.48208 -2.55183 0
M  V30 2341 H 236.047 -2.34943 -1.01171 0
M  V30 2342 H 235.691 -4.54965 -2.25763 0
M  V30 2343 H 235.621 -3.65137 -3.7945 0
M  V30 2344 H 238.112 -2.89613 -2.42761 0
M  V30 2345 H 238.425 -6.3048 -4.46895 0
M  V30 2346 H 236.77 -5.66605 -4.02472 0
M  V30 2347 H 239.961 -3.64094 -2.94199 0
M  V30 2348 H 240.134 -5.19518 -3.87304 0
M  V30 2349 N 233.54 1.10788 -1.12088 0
M  V30 2350 C 234.77 1.86191 -0.895351 0
M  V30 2351 C 235.178 1.80763 0.558702 0
M  V30 2352 O 234.521 1.19188 1.39785 0
M  V30 2353 C 234.583 3.35659 -1.28737 0
M  V30 2354 C 234.247 3.64849 -2.75198 0
M  V30 2355 C 235.244 3.61757 -3.734 0
M  V30 2356 C 232.929 3.93641 -3.12013 0
M  V30 2357 C 234.923 3.87045 -5.06434 0
M  V30 2358 C 232.61 4.18585 -4.4523 0
M  V30 2359 C 233.608 4.15277 -5.42249 0
M  V30 2360 O 233.296 4.3959 -6.73065 0
M  V30 2361 H 233.028 0.595425 -0.32007 0
M  V30 2362 H 235.582 1.40992 -1.49367 0
M  V30 2363 H 233.812 3.81497 -0.63224 0
M  V30 2364 H 235.501 3.92441 -1.03656 0
M  V30 2365 H 236.267 3.39557 -3.46303 0
M  V30 2366 H 232.146 3.95348 -2.37109 0
M  V30 2367 H 235.69 3.84378 -5.82151 0
M  V30 2368 H 231.587 4.40264 -4.72057 0
M  V30 2369 H 232.355 4.57123 -6.78956 0
M  V30 2370 N 235.018 0.912232 1.28515 0
M  V30 2371 C 236.265 0.544599 1.95039 0
M  V30 2372 C 236.593 -0.911435 1.71823 0
M  V30 2373 O 235.848 -1.66317 1.03137 0
M  V30 2374 C 236.147 0.798392 3.48368 0
M  V30 2375 C 235.813 2.23374 3.91682 0
M  V30 2376 C 234.475 2.62617 4.03219 0
M  V30 2377 C 236.827 3.16786 4.13879 0
M  V30 2378 C 234.155 3.94429 4.3433 0
M  V30 2379 C 236.507 4.48161 4.46469 0
M  V30 2380 C 235.171 4.8726 4.56217 0
M  V30 2381 H 234.441 0.199283 0.7137 0
M  V30 2382 H 237.088 1.15327 1.52879 0
M  V30 2383 H 235.393 0.106908 3.91654 0
M  V30 2384 H 237.09 0.493141 3.97956 0
M  V30 2385 H 233.68 1.91922 3.83228 0
M  V30 2386 H 237.864 2.87677 4.0442 0
M  V30 2387 H 233.12 4.24426 4.40082 0
M  V30 2388 H 237.294 5.20559 4.62592 0
M  V30 2389 H 234.921 5.89431 4.80078 0
M  V30 2390 N 236.496 -1.42363 0.676048 0
M  V30 2391 C 237.443 -2.308 -0.00150904 0
M  V30 2392 C 238.413 -1.46032 -0.791444 0
M  V30 2393 O 239.598 -1.74861 -0.76344 0
M  V30 2394 C 236.738 -3.31883 -0.945919 0
M  V30 2395 C 235.851 -4.31741 -0.149675 0
M  V30 2396 C 234.986 -5.19898 -1.08995 0
M  V30 2397 C 234.025 -6.11434 -0.285465 0
M  V30 2398 N 233.162 -6.92138 -1.17851 0
M  V30 2399 H 238.002 -2.88187 0.758455 0
M  V30 2400 H 235.539 -1.41952 0.38576 0
M  V30 2401 H 237.497 -3.89019 -1.50731 0
M  V30 2402 H 236.127 -2.76093 -1.6725 0
M  V30 2403 H 235.179 -3.76713 0.528359 0
M  V30 2404 H 236.491 -4.96534 0.474866 0
M  V30 2405 H 235.645 -5.81772 -1.72123 0
M  V30 2406 H 234.384 -4.55284 -1.74837 0
M  V30 2407 H 233.389 -5.48627 0.359018 0
M  V30 2408 H 234.614 -6.78097 0.368883 0
M  V30 2409 H 232.56 -6.30152 -1.82332 0
M  V30 2410 H 232.477 -7.53542 -0.609082 0
M  V30 2411 H 233.745 -7.58499 -1.79722 0
M  V30 2412 N 237.974 -0.419461 -1.51915 0
M  V30 2413 C 238.906 0.43646 -2.25006 0
M  V30 2414 C 239.919 1.00149 -1.28351 0
M  V30 2415 O 241.108 0.898674 -1.54227 0
M  V30 2416 C 238.208 1.6206 -2.9764 0
M  V30 2417 C 237.381 1.17763 -4.21249 0
M  V30 2418 C 236.44 2.22985 -4.76617 0
M  V30 2419 O 235.466 1.83151 -5.38929 0
M  V30 2420 N 236.668 3.55271 -4.59089 0
M  V30 2421 H 239.433 -0.18989 -2.99098 0
M  V30 2422 H 236.994 -0.247386 -1.59999 0
M  V30 2423 H 238.986 2.32038 -3.31573 0
M  V30 2424 H 237.556 2.15266 -2.2667 0
M  V30 2425 H 236.776 0.305582 -3.93014 0
M  V30 2426 H 238.064 0.858781 -5.015 0
M  V30 2427 H 237.462 3.90377 -4.09417 0
M  V30 2428 H 236.019 4.21195 -4.97432 0
M  V30 2429 N 239.452 1.56882 -0.150215 0
M  V30 2430 C 240.701 1.95403 0.500071 0
M  V30 2431 C 241.014 1.03777 1.658 0
M  V30 2432 O 242.22 1.31889 2.37313 0
M  V30 2433 C 240.676 3.4738 0.941018 0
M  V30 2434 C 240.284 4.47596 -0.190158 0
M  V30 2435 C 242.028 3.9476 1.56091 0
M  V30 2436 C 239.935 5.90787 0.269237 0
M  V30 2437 H 238.865 0.729515 0.190588 0
M  V30 2438 H 241.516 1.81988 -0.235074 0
M  V30 2439 H 239.898 3.56138 1.73152 0
M  V30 2440 H 241.072 4.50536 -0.967157 0
M  V30 2441 H 239.387 4.10151 -0.718666 0
M  V30 2442 H 241.984 4.99181 1.9163 0
M  V30 2443 H 242.327 3.36494 2.45107 0
M  V30 2444 H 242.86 3.88932 0.835249 0
M  V30 2445 H 239.599 6.52879 -0.585621 0
M  V30 2446 H 239.119 5.912 1.01204 0
M  V30 2447 H 240.798 6.42979 0.720176 0
M  V30 2448 N 240.93 -0.123565 1.57115 0
M  V30 2449 C 242.346 -0.476961 1.52306 0
M  V30 2450 C 242.546 -1.82109 0.86248 0
M  V30 2451 O 241.602 -2.48586 0.442884 0
M  V30 2452 C 242.915 -0.465661 2.97073 0
M  V30 2453 C 244.463 -0.549534 3.08138 0
M  V30 2454 C 244.938 -0.568669 4.54456 0
M  V30 2455 N 246.429 -0.630237 4.58892 0
M  V30 2456 C 247.164 -0.666415 5.69514 0
M  V30 2457 N 246.66 -0.660514 6.89644 0
M  V30 2458 N 248.453 -0.709077 5.5761 0
M  V30 2459 H 240.604 0.757198 1.98445 0
M  V30 2460 H 242.867 0.278808 0.906074 0
M  V30 2461 H 242.573 0.454232 3.48754 0
M  V30 2462 H 242.447 -1.29513 3.54269 0
M  V30 2463 H 244.834 -1.45985 2.56461 0
M  V30 2464 H 244.915 0.307532 2.53945 0
M  V30 2465 H 244.559 0.337581 5.06777 0
M  V30 2466 H 244.489 -1.44256 5.06456 0
M  V30 2467 H 246.98 -0.641146 3.72421 0
M  V30 2468 H 247.293 -0.690616 7.69708 0
M  V30 2469 H 245.638 -0.628012 6.92157 0
M  V30 2470 H 248.829 -0.711019 4.62668 0
M  V30 2471 H 249.002 -0.733804 6.43832 0
M  V30 2472 N 242.408 -1.52605 -0.393616 0
M  V30 2473 C 243.685 -1.58001 -1.15304 0
M  V30 2474 C 244.065 -0.370385 -2.07825 0
M  V30 2475 O 243.413 0.641638 -2.19306 0
M  V30 2476 C 243.623 -2.91652 -1.91677 0
M  V30 2477 C 244.971 -3.4522 -2.47201 0
M  V30 2478 O 245.995 -2.93495 -2.01839 0
M  V30 2479 O 244.854 -4.35579 -3.3005 0
M  V30 2480 H 241.948 -0.637068 -0.527327 0
M  V30 2481 H 244.494 -1.64939 -0.399141 0
M  V30 2482 H 243.266 -3.71136 -1.23992 0
M  V30 2483 H 242.889 -2.88077 -2.74039 0
M  V30 2484 N 243.887 0.651787 -1.4349 0
M  V30 2485 C 245.164 1.40909 -1.35661 0
M  V30 2486 C 245.544 2.11099 -0.00511733 0
M  V30 2487 O 244.892 2.04892 1.0115 0
M  V30 2488 C 245.102 2.3926 -2.54078 0
M  V30 2489 C 246.45 3.03217 -2.97228 0
M  V30 2490 O 247.474 2.49588 -2.54135 0
M  V30 2491 O 246.333 4.00455 -3.71885 0
M  V30 2492 H 243.427 0.629625 -0.536191 0
M  V30 2493 H 245.973 0.678575 -1.55542 0
M  V30 2494 H 244.745 1.86352 -3.44076 0
M  V30 2495 H 244.368 3.1976 -2.36303 0
M  V30 2496 N 245.365 1.30045 0.890287 0
M  V30 2497 C 246.614 1.17929 1.63633 0
M  V30 2498 C 246.927 -0.266204 1.9378 0
M  V30 2499 O 248.133 -0.508804 2.6669 0
M  V30 2500 C 246.589 2.06317 2.94892 0
M  V30 2501 C 246.197 3.55745 2.72305 0
M  V30 2502 C 247.941 2.0295 3.72843 0
M  V30 2503 C 245.848 4.36205 3.99348 0
M  V30 2504 H 244.778 0.437782 0.613892 0
M  V30 2505 H 247.429 1.54754 0.986075 0
M  V30 2506 H 245.811 1.6237 3.61182 0
M  V30 2507 H 246.985 4.07805 2.1455 0
M  V30 2508 H 245.3 3.6088 2.07737 0
M  V30 2509 H 247.897 2.60319 4.67053 0
M  V30 2510 H 248.24 1.0117 4.0382 0
M  V30 2511 H 248.773 2.4499 3.13408 0
M  V30 2512 H 245.512 5.38659 3.73533 0
M  V30 2513 H 245.032 3.8891 4.56628 0
M  V30 2514 H 246.711 4.47362 4.67415 0
M  V30 2515 N 246.843 -1.10192 1.12674 0
M  V30 2516 C 247.806 -2.14786 0.799979 0
M  V30 2517 C 248.806 -1.59711 -0.18685 0
M  V30 2518 O 249.996 -1.74156 0.0392558 0
M  V30 2519 C 247.128 -3.40374 0.189228 0
M  V30 2520 H 248.321 -2.45203 1.72671 0
M  V30 2521 H 245.874 -1.25597 0.930326 0
M  V30 2522 H 246.609 -3.15577 -0.747107 0
M  V30 2523 H 246.394 -3.81637 0.899766 0
M  V30 2524 H 247.884 -4.17594 -0.0228143 0
M  V30 2525 N 248.321 -0.919034 -1.28029 0
M  V30 2526 C 249.254 -0.355887 -2.25408 0
M  V30 2527 C 250.232 0.542874 -1.5327 0
M  V30 2528 O 251.416 0.485338 -1.82145 0
M  V30 2529 C 248.543 0.490759 -3.35126 0
M  V30 2530 C 247.589 -0.343358 -4.25116 0
M  V30 2531 S 248.422 -1.75344 -5.05979 0
M  V30 2532 C 249.578 -0.914244 -6.19187 0
M  V30 2533 H 249.811 -1.18123 -2.72826 0
M  V30 2534 H 247.344 -0.720636 -1.36551 0
M  V30 2535 H 249.302 0.973404 -3.98792 0
M  V30 2536 H 247.963 1.29054 -2.86363 0
M  V30 2537 H 247.156 0.304266 -5.03081 0
M  V30 2538 H 246.758 -0.759851 -3.662 0
M  V30 2539 H 249.05 -0.146282 -6.77342 0
M  V30 2540 H 249.993 -1.66661 -6.88208 0
M  V30 2541 H 250.401 -0.460082 -5.62622 0
M  V30 2542 N 249.799 1.42003 -0.683588 0
M  V30 2543 C 250.762 2.29191 -0.0198243 0
M  V30 2544 C 251.762 1.43773 0.72013 0
M  V30 2545 O 252.952 1.65061 0.556815 0
M  V30 2546 C 250.084 3.26435 0.982487 0
M  V30 2547 H 251.277 2.8938 -0.787345 0
M  V30 2548 H 248.83 1.49789 -0.446418 0
M  V30 2549 H 249.565 2.71203 1.77819 0
M  V30 2550 H 249.35 3.89449 0.455182 0
M  V30 2551 H 250.84 3.918 1.44508 0
M  V30 2552 N 251.277 0.427512 1.51691 0
M  V30 2553 C 252.224 -0.388867 2.275 0
M  V30 2554 C 253.194 -1.02532 1.30677 0
M  V30 2555 O 254.379 -1.0461 1.59566 0
M  V30 2556 C 251.519 -1.48954 3.11298 0
M  V30 2557 C 250.632 -0.872194 4.23104 0
M  V30 2558 C 249.767 -1.94709 4.94228 0
M  V30 2559 C 248.806 -1.30766 5.97969 0
M  V30 2560 N 247.943 -2.32349 6.62539 0
M  V30 2561 H 252.783 0.263997 2.96828 0
M  V30 2562 H 250.32 0.142033 1.46413 0
M  V30 2563 H 252.278 -2.13887 3.58201 0
M  V30 2564 H 250.908 -2.11217 2.44105 0
M  V30 2565 H 249.96 -0.111419 3.80237 0
M  V30 2566 H 251.272 -0.365264 4.97461 0
M  V30 2567 H 250.426 -2.67327 5.44629 0
M  V30 2568 H 249.165 -2.48773 4.1948 0
M  V30 2569 H 248.17 -0.566902 5.4687 0
M  V30 2570 H 249.395 -0.774483 6.74669 0
M  V30 2571 H 247.341 -2.85511 5.90609 0
M  V30 2572 H 247.258 -1.8652 7.3263 0
M  V30 2573 H 248.526 -3.04481 7.17574 0
M  V30 2574 N 252.755 -1.56801 0.158532 0
M  V30 2575 C 254.166 -1.83189 -0.360366 0
M  V30 2576 C 254.517 -1.07778 -1.63946 0
M  V30 2577 O 253.642 -0.326718 -2.13919 0
M  V30 2578 C 254.237 -3.32297 -0.660595 0
M  V30 2579 C 252.796 -3.59227 -1.12398 0
M  V30 2580 C 251.943 -2.76877 -0.153097 0
M  V30 2581 H 254.894 -1.54008 0.383031 0
M  V30 2582 H 254.915 -3.4908 -1.51405 0
M  V30 2583 H 254.427 -3.87156 0.270527 0
M  V30 2584 H 252.528 -3.09766 -2.07064 0
M  V30 2585 H 252.641 -4.67632 -1.04197 0
M  V30 2586 H 251.005 -2.46319 -0.647983 0
M  V30 2587 H 251.788 -3.34511 0.77182 0
M  V30 2588 N 254.233 0.115231 -1.57178 0
M  V30 2589 C 255.166 1.17166 -1.95825 0
M  V30 2590 C 256.144 1.39912 -0.828463 0
M  V30 2591 O 257.328 1.54004 -1.08697 0
M  V30 2592 C 254.455 2.52478 -2.25771 0
M  V30 2593 C 253.501 2.46136 -3.48309 0
M  V30 2594 S 254.334 1.89736 -5.0076 0
M  V30 2595 C 255.49 3.26713 -5.33863 0
M  V30 2596 H 255.723 0.842103 -2.85124 0
M  V30 2597 H 253.256 0.322136 -1.51002 0
M  V30 2598 H 255.214 3.30332 -2.43702 0
M  V30 2599 H 253.875 2.82609 -1.37079 0
M  V30 2600 H 253.068 3.45819 -3.66641 0
M  V30 2601 H 252.67 1.76404 -3.29784 0
M  V30 2602 H 254.962 4.22935 -5.29275 0
M  V30 2603 H 255.905 3.13205 -6.35065 0
M  V30 2604 H 256.313 3.25316 -4.61335 0
M  V30 2605 N 255.711 1.52812 0.385517 0
M  V30 2606 C 256.658 1.77838 1.47113 0
M  V30 2607 C 257.628 0.621757 1.54024 0
M  V30 2608 O 258.813 0.861846 1.70226 0
M  V30 2609 C 255.953 1.95618 2.84302 0
M  V30 2610 C 255.066 3.23316 2.86515 0
M  V30 2611 C 254.201 3.31394 4.15152 0
M  V30 2612 C 253.24 4.53201 4.1143 0
M  V30 2613 N 252.377 4.58542 5.3168 0
M  V30 2614 H 257.217 2.70482 1.25073 0
M  V30 2615 H 254.754 1.34006 0.606692 0
M  V30 2616 H 256.712 2.03912 3.63972 0
M  V30 2617 H 255.342 1.06331 3.04784 0
M  V30 2618 H 254.394 3.24076 1.99195 0
M  V30 2619 H 255.706 4.13045 2.79634 0
M  V30 2620 H 254.86 3.3889 5.03228 0
M  V30 2621 H 253.599 2.39645 4.24761 0
M  V30 2622 H 252.604 4.45827 3.21742 0
M  V30 2623 H 253.829 5.46271 4.03442 0
M  V30 2624 H 251.775 3.69686 5.41912 0
M  V30 2625 H 251.692 5.42148 5.26889 0
M  V30 2626 H 252.96 4.70296 6.21644 0
M  V30 2627 N 257.189 -0.644168 1.43834 0
M  V30 2628 C 258.435 -1.40603 1.46146 0
M  V30 2629 C 258.768 -1.93997 0.0887717 0
M  V30 2630 O 258.043 -1.72854 -0.891724 0
M  V30 2631 C 258.326 -2.58086 2.51124 0
M  V30 2632 C 258.179 -2.10126 3.97702 0
M  V30 2633 C 259.498 -3.60291 2.52742 0
M  V30 2634 H 256.617 -0.509905 0.532134 0
M  V30 2635 H 259.259 -0.729502 1.75437 0
M  V30 2636 H 257.409 -3.15801 2.26278 0
M  V30 2637 H 259.081 -1.57342 4.33637 0
M  V30 2638 H 257.324 -1.41419 4.10101 0
M  V30 2639 H 257.995 -2.94649 4.66783 0
M  V30 2640 H 260.471 -3.12352 2.7491 0
M  V30 2641 H 259.347 -4.40032 3.28121 0
M  V30 2642 H 259.608 -4.1349 1.56455 0
M  V30 2643 N 258.668 -1.30515 -0.883378 0
M  V30 2644 C 259.914 -1.19607 -1.63774 0
M  V30 2645 C 260.247 0.248314 -1.92606 0
M  V30 2646 O 259.522 1.17742 -1.54813 0
M  V30 2647 C 259.805 -2.02669 -2.97653 0
M  V30 2648 C 259.658 -3.55335 -2.75784 0
M  V30 2649 C 260.977 -1.86573 -3.98596 0
M  V30 2650 H 258.096 -0.435856 -0.594305 0
M  V30 2651 H 260.738 -1.60165 -1.02212 0
M  V30 2652 H 258.888 -1.68208 -3.50197 0
M  V30 2653 H 260.56 -3.99863 -2.30016 0
M  V30 2654 H 258.803 -3.79438 -2.1026 0
M  V30 2655 H 259.474 -4.08745 -3.70988 0
M  V30 2656 H 261.95 -2.16703 -3.55217 0
M  V30 2657 H 260.826 -2.47014 -4.90179 0
M  V30 2658 H 261.087 -0.825321 -4.34328 0
M  V30 2659 N 260.146 1.09593 -1.13257 0
M  V30 2660 C 261.392 1.82003 -0.89458 0
M  V30 2661 C 261.725 1.85402 0.577906 0
M  V30 2662 O 261 1.32099 1.42759 0
M  V30 2663 C 261.283 3.28237 -1.48096 0
M  V30 2664 C 261.136 3.3312 -3.02244 0
M  V30 2665 C 262.455 4.24871 -1.14774 0
M  V30 2666 H 259.574 0.66077 -0.326424 0
M  V30 2667 H 262.216 1.28389 -1.40058 0
M  V30 2668 H 260.366 3.74024 -1.05062 0
M  V30 2669 H 262.038 2.95748 -3.54021 0
M  V30 2670 H 260.281 2.72756 -3.37323 0
M  V30 2671 H 260.952 4.3613 -3.38371 0
M  V30 2672 H 263.428 3.87361 -1.51957 0
M  V30 2673 H 262.304 5.25532 -1.58452 0
M  V30 2674 H 262.565 4.42058 -0.0611849 0
M  V30 2675 N 261.624 0.925811 1.2754 0
M  V30 2676 C 262.901 0.483726 1.89524 0
M  V30 2677 C 263.281 -1.03809 1.83812 0
M  V30 2678 O 262.629 -1.89143 1.28207 0
M  V30 2679 C 262.839 1.02769 3.33526 0
M  V30 2680 C 264.187 1.08703 4.10449 0
M  V30 2681 O 265.211 0.977175 3.42534 0
M  V30 2682 O 264.07 1.25599 5.31871 0
M  V30 2683 H 261.164 0.15529 0.812289 0
M  V30 2684 H 263.71 1.01738 1.35822 0
M  V30 2685 H 262.482 2.07155 3.31967 0
M  V30 2686 H 262.105 0.475567 3.94746 0
M  V30 2687 N 263.102 -1.41638 0.69111 0
M  V30 2688 C 264.342 -2.03166 0.224291 0
M  V30 2689 C 264.706 -1.53537 -1.15284 0
M  V30 2690 O 265.907 -2.0696 -1.71525 0
M  V30 2691 C 264.178 -3.56342 0.274758 0
M  V30 2692 S 265.737 -4.3864 -0.118669 0
M  V30 2693 H 262.555 -0.705188 0.0907263 0
M  V30 2694 H 265.157 -1.7314 0.907895 0
M  V30 2695 H 263.861 -3.89958 1.2791 0
M  V30 2696 H 263.392 -3.91063 -0.428142 0
M  V30 2697 H 265.407 -4.77549 -1.34764 0
M  V30 2698 N 264.58 -0.43555 -1.51462 0
M  V30 2699 C 265.828 0.131254 -2.01673 0
M  V30 2700 C 266.149 1.43368 -1.32177 0
M  V30 2701 O 265.419 1.90524 -0.455769 0
M  V30 2702 H 263.999 0.0514954 -0.745223 0
M  V30 2703 H 266.661 -0.577847 -1.86137 0
M  V30 2704 H 265.757 0.308446 -3.10572 0
M  V30 2705 N 266.058 1.56714 -0.166846 0
M  V30 2706 C 267.006 2.19056 0.782123 0
M  V30 2707 C 268 1.15328 1.24079 0
M  V30 2708 O 269.206 1.33537 1.20697 0
M  V30 2709 H 265.581 0.70167 0.270486 0
M  V30 2710 H 267.552 2.97494 0.232322 0
M  V30 2711 C 266.301 2.84206 2.00306 0
M  V30 2712 H 265.624 3.63748 1.65914 0
M  V30 2713 H 267.064 3.31302 2.64604 0
M  V30 2714 C 265.523 1.83744 2.82382 0
M  V30 2715 O 266.053 1.32014 3.79388 0
M  V30 2716 N 264.259 1.52601 2.47308 0
M  V30 2717 H 263.806 1.9486 1.68485 0
M  V30 2718 H 263.764 0.856351 3.02513 0
M  V30 2719 N 267.536 -0.106894 1.57237 0
M  V30 2720 C 268.784 -0.810921 1.85117 0
M  V30 2721 C 269.105 -1.7984 0.753827 0
M  V30 2722 O 268.375 -1.94649 -0.221056 0
M  V30 2723 H 266.955 -0.302466 0.683025 0
M  V30 2724 H 269.617 -0.0913324 1.94686 0
M  V30 2725 H 268.713 -1.34875 2.81452 0
M  V30 2726 N 269.014 -1.53014 -0.377408 0
M  V30 2727 C 270.26 -1.68872 -1.12294 0
M  V30 2728 C 270.593 -0.433224 -1.89306 0
M  V30 2729 O 269.868 0.569258 -1.85983 0
M  V30 2730 C 270.151 -2.93115 -2.09179 0
M  V30 2731 C 270.004 -4.28794 -1.35853 0
M  V30 2732 C 271.323 -3.12928 -3.09458 0
M  V30 2733 H 268.442 -0.614518 -0.406862 0
M  V30 2734 H 271.084 -1.85633 -0.40503 0
M  V30 2735 H 269.234 -2.78956 -2.70399 0
M  V30 2736 H 270.906 -4.54742 -0.775082 0
M  V30 2737 H 269.149 -4.28744 -0.660364 0
M  V30 2738 H 269.82 -5.11837 -2.06706 0
M  V30 2739 H 272.296 -3.26194 -2.58334 0
M  V30 2740 H 271.172 -4.01316 -3.74482 0
M  V30 2741 H 271.433 -2.27669 -3.78971 0
M  V30 2742 N 270.492 0.636531 -1.44174 0
M  V30 2743 C 271.455 1.73063 -1.50273 0
M  V30 2744 C 272.455 1.56113 -0.385397 0
M  V30 2745 O 273.645 1.61707 -0.64781 0
M  V30 2746 C 270.777 3.12096 -1.37145 0
M  V30 2747 H 271.97 1.69031 -2.47727 0
M  V30 2748 H 269.523 0.849706 -1.31186 0
M  V30 2749 H 270.258 3.21728 -0.407636 0
M  V30 2750 H 270.043 3.25805 -2.18159 0
M  V30 2751 H 271.533 3.91846 -1.44382 0
M  V30 2752 N 271.97 1.30982 0.876444 0
M  V30 2753 C 273.218 1.20058 1.62575 0
M  V30 2754 C 273.539 -0.242947 1.93481 0
M  V30 2755 O 272.809 -1.1619 1.57724 0
M  V30 2756 H 271.389 0.44135 0.602677 0
M  V30 2757 H 274.051 1.64222 1.04962 0
M  V30 2758 H 273.147 1.76762 2.57219 0
M  V30 2759 N 273.449 -1.08991 1.13837 0
M  V30 2760 C 274.695 -1.81526 0.90422 0
M  V30 2761 C 275.028 -1.85706 -0.568066 0
M  V30 2762 O 274.303 -1.32855 -1.42056 0
M  V30 2763 C 274.586 -3.27447 1.49835 0
M  V30 2764 C 274.439 -3.31512 3.04006 0
M  V30 2765 C 275.758 -4.24256 1.17025 0
M  V30 2766 H 272.877 -0.659029 0.329923 0
M  V30 2767 H 275.519 -1.27644 1.40737 0
M  V30 2768 H 273.669 -3.73462 1.07044 0
M  V30 2769 H 275.341 -2.93867 3.55584 0
M  V30 2770 H 273.584 -2.70963 3.38765 0
M  V30 2771 H 274.255 -4.34329 3.40679 0
M  V30 2772 H 276.731 -3.86549 1.54009 0
M  V30 2773 H 275.607 -5.24684 1.61237 0
M  V30 2774 H 275.868 -4.42019 0.0846274 0
M  V30 2775 N 274.927 -0.932562 -1.27047 0
M  V30 2776 C 276.176 -0.571351 -1.93439 0
M  V30 2777 C 276.489 0.892467 -1.74053 0
M  V30 2778 O 277.695 1.36267 -2.34826 0
M  V30 2779 C 276.151 -0.97106 -3.46552 0
M  V30 2780 C 275.759 -2.4559 -3.74686 0
M  V30 2781 C 277.503 -0.681333 -4.18997 0
M  V30 2782 C 275.41 -2.79475 -5.21198 0
M  V30 2783 H 274.34 -0.209966 -0.724176 0
M  V30 2784 H 276.991 -1.13403 -1.44263 0
M  V30 2785 H 275.373 -0.336983 -3.94564 0
M  V30 2786 H 276.547 -3.13829 -3.37414 0
M  V30 2787 H 274.862 -2.71802 -3.15456 0
M  V30 2788 H 277.459 -0.910939 -5.26883 0
M  V30 2789 H 277.802 0.381628 -4.14547 0
M  V30 2790 H 278.335 -1.27473 -3.76823 0
M  V30 2791 H 275.074 -3.847 -5.30741 0
M  V30 2792 H 274.594 -2.1589 -5.596 0
M  V30 2793 H 276.273 -2.67478 -5.89122 0
M  V30 2794 N 276.405 1.4127 -0.698611 0
M  V30 2795 C 277.368 2.29158 -0.044132 0
M  V30 2796 C 278.368 1.44529 0.704841 0
M  V30 2797 O 279.558 1.65643 0.539276 0
M  V30 2798 C 276.69 3.27459 0.947809 0
M  V30 2799 H 277.883 2.88529 -0.817994 0
M  V30 2800 H 275.436 1.49307 -0.46228 0
M  V30 2801 H 276.171 2.73073 1.74933 0
M  V30 2802 H 275.956 3.8991 0.41385 0
M  V30 2803 H 277.446 3.93311 1.40344 0
M  V30 2804 N 277.883 0.443576 1.51229 0
M  V30 2805 C 279.294 -0.0180867 1.86691 0
M  V30 2806 C 279.645 -1.41384 1.36033 0
M  V30 2807 O 278.77 -2.04291 0.713722 0
M  V30 2808 C 279.365 -0.039597 3.38777 0
M  V30 2809 C 277.924 -0.445692 3.73752 0
M  V30 2810 C 277.071 0.357584 2.74985 0
M  V30 2811 H 280.022 0.659138 1.44364 0
M  V30 2812 H 280.043 -0.847761 3.70936 0
M  V30 2813 H 279.555 0.976382 3.75617 0
M  V30 2814 H 277.656 -1.46704 3.42503 0
M  V30 2815 H 277.769 -0.166155 4.78812 0
M  V30 2816 H 276.133 -0.184973 2.54027 0
M  V30 2817 H 276.916 1.37256 3.14668 0
M  V30 2818 N 279.361 -1.56624 0.175154 0
M  V30 2819 C 280.293 -2.15333 -0.785128 0
M  V30 2820 C 281.306 -1.1099 -1.19101 0
M  V30 2821 O 282.495 -1.38162 -1.13019 0
M  V30 2822 C 279.595 -2.68427 -2.06882 0
M  V30 2823 C 278.768 -3.97466 -1.8259 0
M  V30 2824 C 277.827 -4.35585 -2.95215 0
M  V30 2825 O 276.853 -5.03389 -2.65684 0
M  V30 2826 N 278.055 -3.97457 -4.23094 0
M  V30 2827 H 280.82 -2.98359 -0.283187 0
M  V30 2828 H 278.381 -1.61898 -0.00749817 0
M  V30 2829 H 280.373 -2.90924 -2.81328 0
M  V30 2830 H 278.943 -1.89968 -2.48256 0
M  V30 2831 H 278.163 -3.83307 -0.920287 0
M  V30 2832 H 279.451 -4.81736 -1.63733 0
M  V30 2833 H 278.849 -3.42878 -4.49945 0
M  V30 2834 H 277.406 -4.24947 -4.9423 0
M  V30 2835 N 280.839 0.0985539 -1.57292 0
M  V30 2836 C 281.769 1.12064 -2.04851 0
M  V30 2837 C 282.75 1.41981 -0.936767 0
M  V30 2838 O 283.935 1.52071 -1.20781 0
M  V30 2839 C 281.065 2.44144 -2.47004 0
M  V30 2840 C 280.019 2.28643 -3.6181 0
M  V30 2841 C 279.345 3.65869 -3.89929 0
M  V30 2842 C 280.645 1.72986 -4.92822 0
M  V30 2843 H 282.339 0.724979 -2.9049 0
M  V30 2844 H 279.885 0.34729 -1.39749 0
M  V30 2845 H 281.838 3.15914 -2.78884 0
M  V30 2846 H 280.562 2.85639 -1.5836 0
M  V30 2847 H 279.221 1.59318 -3.30172 0
M  V30 2848 H 278.869 4.04885 -2.98458 0
M  V30 2849 H 278.569 3.56344 -4.67218 0
M  V30 2850 H 280.093 4.39112 -4.2428 0
M  V30 2851 H 281.507 2.34593 -5.23105 0
M  V30 2852 H 279.904 1.74229 -5.74251 0
M  V30 2853 H 280.974 0.689007 -4.7998 0
M  V30 2854 N 282.317 1.53212 0.369288 0
M  V30 2855 C 283.566 1.68436 1.10961 0
M  V30 2856 C 283.879 0.440738 1.9057 0
M  V30 2857 O 285.085 0.473446 2.6734 0
M  V30 2858 C 283.541 2.97744 2.0218 0
M  V30 2859 C 283.149 4.29355 1.279 0
M  V30 2860 C 284.893 3.22334 2.76226 0
M  V30 2861 C 282.8 5.49755 2.17999 0
M  V30 2862 H 281.73 0.627568 0.41794 0
M  V30 2863 H 284.381 1.79713 0.370884 0
M  V30 2864 H 282.763 2.8026 2.79768 0
M  V30 2865 H 283.937 4.57458 0.554007 0
M  V30 2866 H 282.252 4.11179 0.657311 0
M  V30 2867 H 284.849 4.09471 3.43857 0
M  V30 2868 H 285.192 2.38238 3.41392 0
M  V30 2869 H 285.725 3.40475 2.05723 0
M  V30 2870 H 282.464 6.36318 1.57417 0
M  V30 2871 H 281.984 5.25937 2.88359 0
M  V30 2872 H 283.663 5.84401 2.77641 0
M  V30 2873 N 283.795 -0.628877 1.44509 0
M  V30 2874 C 284.705 -1.7694 1.54044 0
M  V30 2875 C 285.721 -1.68705 0.425987 0
M  V30 2876 O 286.897 -1.89442 0.683656 0
M  V30 2877 C 283.962 -3.13332 1.48405 0
M  V30 2878 C 283.023 -3.33181 2.70719 0
M  V30 2879 C 282.256 -4.63067 2.6534 0
M  V30 2880 O 282.479 -5.44017 1.71469 0
M  V30 2881 O 281.413 -4.85167 3.56226 0
M  V30 2882 H 285.239 -1.71848 2.50403 0
M  V30 2883 H 282.824 -0.790378 1.26781 0
M  V30 2884 H 284.706 -3.94634 1.47791 0
M  V30 2885 H 283.381 -3.1896 0.551898 0
M  V30 2886 H 282.288 -2.51549 2.769 0
M  V30 2887 H 283.621 -3.32416 3.62988 0
M  V30 2888 N 285.273 -1.31445 -0.869486 0
M  V30 2889 C 286.236 -1.19094 -1.9583 0
M  V30 2890 C 287.236 -0.117906 -1.60367 0
M  V30 2891 O 288.426 -0.367208 -1.70286 0
M  V30 2892 C 285.558 -0.828165 -3.30688 0
M  V30 2893 H 286.751 -2.15842 -2.08212 0
M  V30 2894 H 284.304 -1.15063 -1.05784 0
M  V30 2895 H 285.039 0.138142 -3.24006 0
M  V30 2896 H 284.824 -1.6038 -3.578 0
M  V30 2897 H 286.314 -0.765658 -4.10521 0
M  V30 2898 N 286.751 1.08385 -1.14413 0
M  V30 2899 C 287.681 2.17321 -0.854044 0
M  V30 2900 C 288.662 1.69024 0.191049 0
M  V30 2901 O 289.847 1.94141 0.0476779 0
M  V30 2902 C 286.977 3.45719 -0.330983 0
M  V30 2903 C 285.931 4.07409 -1.31155 0
M  V30 2904 C 285.257 5.30762 -0.64778 0
M  V30 2905 C 286.557 4.48665 -2.67388 0
M  V30 2906 H 288.251 2.41845 -1.76498 0
M  V30 2907 H 285.797 1.16233 -0.850051 0
M  V30 2908 H 287.75 4.21241 -0.115645 0
M  V30 2909 H 286.474 3.2075 0.615381 0
M  V30 2910 H 285.133 3.33919 -1.51306 0
M  V30 2911 H 284.781 5.02078 0.304398 0
M  V30 2912 H 284.481 5.72992 -1.30207 0
M  V30 2913 H 286.005 6.08998 -0.441972 0
M  V30 2914 H 287.419 5.15364 -2.51143 0
M  V30 2915 H 285.816 5.01814 -3.29093 0
M  V30 2916 H 286.886 3.60543 -3.24248 0
M  V30 2917 N 288.23 0.939286 1.26551 0
M  V30 2918 C 289.478 0.58469 1.93457 0
M  V30 2919 C 289.799 -0.878774 1.74076 0
M  V30 2920 O 289.069 -1.62421 1.09528 0
M  V30 2921 H 287.649 0.21325 0.715914 0
M  V30 2922 H 290.311 1.1942 1.54029 0
M  V30 2923 H 289.407 0.800849 3.0165 0
M  V30 2924 N 289.708 -1.40897 0.706093 0
M  V30 2925 C 290.948 -2.02916 0.245827 0
M  V30 2926 C 291.312 -1.54751 -1.13649 0
M  V30 2927 O 292.513 -2.08768 -1.69321 0
M  V30 2928 C 290.784 -3.56031 0.312537 0
M  V30 2929 S 292.343 -4.38741 -0.0721388 0
M  V30 2930 H 289.161 -0.704186 0.0982007 0
M  V30 2931 H 291.763 -1.72168 0.926207 0
M  V30 2932 H 290.467 -3.88579 1.32039 0
M  V30 2933 H 289.998 -3.91495 -0.386641 0
M  V30 2934 H 292.013 -4.78952 -1.29692 0
M  V30 2935 N 291.186 -0.45159 -1.50991 0
M  V30 2936 C 292.411 0.110667 -2.07105 0
M  V30 2937 C 292.836 1.3446 -1.31538 0
M  V30 2938 O 292.194 1.77743 -0.357365 0
M  V30 2939 C 292.242 0.397238 -3.58405 0
M  V30 2940 O 291.346 1.48124 -3.84881 0
M  V30 2941 H 290.687 -0.00439271 -0.663985 0
M  V30 2942 H 293.217 -0.637026 -1.9443 0
M  V30 2943 H 293.227 0.64351 -4.02893 0
M  V30 2944 H 291.902 -0.504553 -4.12828 0
M  V30 2945 H 290.479 1.22381 -3.52246 0
M  V30 2946 N 292.664 1.56529 -0.183458 0
M  V30 2947 C 293.91 1.97537 0.459036 0
M  V30 2948 C 294.243 1.06989 1.62071 0
M  V30 2949 O 293.518 0.11948 1.94133 0
M  V30 2950 C 293.801 3.47874 0.930368 0
M  V30 2951 C 293.654 4.492 -0.232317 0
M  V30 2952 C 294.973 4.01612 1.79989 0
M  V30 2953 H 292.092 0.718204 0.165383 0
M  V30 2954 H 294.734 1.88042 -0.272038 0
M  V30 2955 H 292.884 3.56095 1.55333 0
M  V30 2956 H 294.556 4.53027 -0.86972 0
M  V30 2957 H 292.799 4.24657 -0.885928 0
M  V30 2958 H 293.47 5.51823 0.139796 0
M  V30 2959 H 295.946 3.96097 1.27461 0
M  V30 2960 H 294.822 5.07195 2.09867 0
M  V30 2961 H 295.083 3.46163 2.74998 0
M  V30 2962 N 294.142 -0.090211 1.57342 0
M  V30 2963 C 295.391 -0.791531 1.8552 0
M  V30 2964 C 295.704 -1.79659 0.773441 0
M  V30 2965 O 296.91 -2.54616 0.942497 0
M  V30 2966 C 295.366 -1.45856 3.2902 0
M  V30 2967 C 294.974 -0.493017 4.45279 0
M  V30 2968 C 296.718 -2.14332 3.66418 0
M  V30 2969 C 294.625 -1.16491 5.79814 0
M  V30 2970 H 293.555 -0.299356 0.692027 0
M  V30 2971 H 296.206 -0.0445343 1.83446 0
M  V30 2972 H 294.588 -2.25318 3.2565 0
M  V30 2973 H 295.762 0.270464 4.60006 0
M  V30 2974 H 294.077 0.0863061 4.16311 0
M  V30 2975 H 296.674 -2.65344 4.64216 0
M  V30 2976 H 297.017 -2.93447 2.95287 0
M  V30 2977 H 297.55 -1.41724 3.71698 0
M  V30 2978 H 294.289 -0.41447 6.54188 0
M  V30 2979 H 293.809 -1.8997 5.68921 0
M  V30 2980 H 295.488 -1.69001 6.24538 0
M  V30 2981 N 295.62 -1.53406 -0.361157 0
M  V30 2982 C 297.031 -1.61442 -0.937728 0
M  V30 2983 C 297.382 -0.48461 -1.90121 0
M  V30 2984 O 296.507 0.388312 -2.12888 0
M  V30 2985 C 297.102 -2.92624 -1.70753 0
M  V30 2986 C 295.661 -3.02981 -2.23337 0
M  V30 2987 C 294.808 -2.5677 -1.04712 0
M  V30 2988 H 297.759 -1.58083 -0.139816 0
M  V30 2989 H 297.78 -2.80675 -2.56908 0
M  V30 2990 H 297.292 -3.74834 -1.00604 0
M  V30 2991 H 295.393 -2.25368 -2.96715 0
M  V30 2992 H 295.506 -4.0814 -2.50916 0
M  V30 2993 H 293.87 -2.11752 -1.41539 0
M  V30 2994 H 294.653 -3.41402 -0.360539 0
M  V30 2995 N 297.098 0.621204 -1.44841 0
M  V30 2996 C 298.028 1.74366 -1.55303 0
M  V30 2997 C 299.009 1.65199 -0.405385 0
M  V30 2998 O 300.194 1.83807 -0.626787 0
M  V30 2999 C 297.324 3.12931 -1.50637 0
M  V30 3000 C 296.278 3.36896 -2.63979 0
M  V30 3001 C 295.604 4.75594 -2.44366 0
M  V30 3002 C 296.904 3.28483 -4.06074 0
M  V30 3003 H 298.598 1.65867 -2.49256 0
M  V30 3004 H 296.144 0.796558 -1.19962 0
M  V30 3005 H 298.097 3.9124 -1.56555 0
M  V30 3006 H 296.821 3.22237 -0.532057 0
M  V30 3007 H 295.48 2.60972 -2.57467 0
M  V30 3008 H 295.128 4.81616 -1.45105 0
M  V30 3009 H 294.828 4.92586 -3.20364 0
M  V30 3010 H 296.352 5.5612 -2.52117 0
M  V30 3011 H 297.766 3.96684 -4.13902 0
M  V30 3012 H 296.163 3.57008 -4.82354 0
M  V30 3013 H 297.233 2.26133 -4.28943 0
M  V30 3014 N 298.576 1.31904 0.862503 0
M  V30 3015 C 299.806 1.24817 1.64634 0
M  V30 3016 C 300.214 -0.187579 1.88268 0
M  V30 3017 O 299.557 -1.13253 1.44635 0
M  V30 3018 C 299.619 1.92996 3.03303 0
M  V30 3019 C 299.283 3.42336 3.02746 0
M  V30 3020 C 300.28 4.37956 2.80162 0
M  V30 3021 C 297.965 3.84147 3.2363 0
M  V30 3022 C 299.959 5.73361 2.78453 0
M  V30 3023 C 297.646 5.19663 3.21549 0
M  V30 3024 C 298.644 6.14081 2.98988 0
M  V30 3025 O 298.332 7.47118 2.96766 0
M  V30 3026 H 298.064 0.432222 0.519769 0
M  V30 3027 H 300.618 1.7445 1.08427 0
M  V30 3028 H 298.848 1.37922 3.61268 0
M  V30 3029 H 300.537 1.79723 3.63943 0
M  V30 3030 H 301.303 4.06981 2.63802 0
M  V30 3031 H 297.182 3.11083 3.40218 0
M  V30 3032 H 300.726 6.4703 2.60763 0
M  V30 3033 H 296.623 5.5027 3.37451 0
M  V30 3034 H 297.391 7.56382 3.12775 0
M  V30 3035 N 300.054 -1.07777 1.14986 0
M  V30 3036 C 301.294 -1.81888 0.932527 0
M  V30 3037 C 301.658 -1.84509 -0.531064 0
M  V30 3038 O 302.859 -2.54448 -0.866577 0
M  V30 3039 C 301.13 -3.23244 1.52473 0
M  V30 3040 S 302.689 -4.14154 1.44989 0
M  V30 3041 H 299.507 -0.626752 0.335712 0
M  V30 3042 H 302.109 -1.29503 1.46455 0
M  V30 3043 H 300.813 -3.18922 2.58296 0
M  V30 3044 H 300.344 -3.80704 0.991381 0
M  V30 3045 H 302.359 -4.94247 0.439799 0
M  V30 3046 N 301.532 -0.945985 -1.26051 0
M  V30 3047 C 302.442 -0.465633 -2.29933 0
M  V30 3048 C 303.458 0.462761 -1.67733 0
M  V30 3049 O 304.634 0.341118 -1.9849 0
M  V30 3050 C 301.699 0.256994 -3.45746 0
M  V30 3051 C 300.76 -0.708549 -4.23412 0
M  V30 3052 C 299.993 -0.0203135 -5.33696 0
M  V30 3053 O 300.216 1.19571 -5.57726 0
M  V30 3054 O 299.15 -0.701459 -5.97799 0
M  V30 3055 H 302.976 -1.32866 -2.73094 0
M  V30 3056 H 300.561 -0.712071 -1.31339 0
M  V30 3057 H 302.443 0.663852 -4.16138 0
M  V30 3058 H 301.118 1.09533 -3.04605 0
M  V30 3059 H 300.025 -1.16545 -3.55483 0
M  V30 3060 H 301.358 -1.51465 -4.68315 0
M  V30 3061 N 303.011 1.40521 -0.713556 0
M  V30 3062 C 304.257 2.01221 -0.252564 0
M  V30 3063 C 304.59 1.56444 1.1506 0
M  V30 3064 O 303.865 0.783597 1.78017 0
M  V30 3065 C 304.148 3.58582 -0.330332 0
M  V30 3066 C 304.001 4.13437 -1.77173 0
M  V30 3067 C 305.32 4.39079 0.299641 0
M  V30 3068 H 302.439 0.731077 -0.0932471 0
M  V30 3069 H 305.081 1.67026 -0.905673 0
M  V30 3070 H 303.231 3.87844 0.225737 0
M  V30 3071 H 304.903 3.9498 -2.38303 0
M  V30 3072 H 303.146 3.67801 -2.3001 0
M  V30 3073 H 303.817 5.22597 -1.77755 0
M  V30 3074 H 306.293 4.15735 -0.174139 0
M  V30 3075 H 305.169 5.4848 0.214771 0
M  V30 3076 H 305.43 4.19915 1.38288 0
M  V30 3077 N 304.489 0.459591 1.5075 0
M  V30 3078 C 305.766 -0.160371 1.94941 0
M  V30 3079 C 306.146 -1.58048 1.39943 0
M  V30 3080 O 305.494 -2.206 0.595629 0
M  V30 3081 C 305.704 -0.115432 3.48809 0
M  V30 3082 C 307.052 -0.310026 4.23467 0
M  V30 3083 O 308.076 -0.192543 3.55679 0
M  V30 3084 O 306.935 -0.546031 5.43765 0
M  V30 3085 H 304.029 -0.117925 0.818549 0
M  V30 3086 H 306.575 0.519169 1.61563 0
M  V30 3087 H 305.347 0.87652 3.81357 0
M  V30 3088 H 304.97 -0.836928 3.88692 0
M  V30 3089 N 305.967 -1.56429 0.191757 0
M  V30 3090 C 307.215 -1.97095 -0.447006 0
M  V30 3091 C 307.536 -1.07967 -1.62383 0
M  V30 3092 O 306.806 -0.150248 -1.95323 0
M  V30 3093 H 305.386 -0.727832 -0.168135 0
M  V30 3094 H 308.048 -1.92911 0.27771 0
M  V30 3095 H 307.144 -3.01848 -0.793371 0
M  V30 3096 N 307.445 0.0818655 -1.57387 0
M  V30 3097 C 308.393 1.11712 -2.04018 0
M  V30 3098 C 309.387 1.40683 -0.94364 0
M  V30 3099 O 310.593 1.40209 -1.12878 0
M  V30 3100 H 306.968 0.377542 -0.650358 0
M  V30 3101 H 308.939 0.697614 -2.90131 0
M  V30 3102 C 307.688 2.42537 -2.49141 0
M  V30 3103 H 307.011 2.21092 -3.33104 0
M  V30 3104 H 308.451 3.13446 -2.85531 0
M  V30 3105 C 306.91 3.0778 -1.37014 0
M  V30 3106 O 307.44 3.95436 -0.706621 0
M  V30 3107 N 305.646 2.68242 -1.11779 0
M  V30 3108 H 305.193 1.97052 -1.65917 0
M  V30 3109 H 305.151 3.1222 -0.369594 0
M  V30 3110 N 308.923 1.53595 0.353017 0
M  V30 3111 C 310.17 1.70385 1.09431 0
M  V30 3112 C 310.498 0.462113 1.88931 0
M  V30 3113 O 309.753 -0.556074 1.87633 0
M  V30 3114 C 310.052 2.91313 2.07054 0
M  V30 3115 C 309.718 4.27308 1.43939 0
M  V30 3116 C 308.38 4.64287 1.26454 0
M  V30 3117 C 310.732 5.11829 0.983883 0
M  V30 3118 C 308.06 5.83412 0.620226 0
M  V30 3119 C 310.412 6.31611 0.353516 0
M  V30 3120 C 309.076 6.67293 0.166272 0
M  V30 3121 H 308.346 0.623484 0.400436 0
M  V30 3122 H 310.993 1.87799 0.374655 0
M  V30 3123 H 309.298 2.68463 2.85368 0
M  V30 3124 H 310.995 3.01497 2.64387 0
M  V30 3125 H 307.585 3.98198 1.58543 0
M  V30 3126 H 311.769 4.838 1.10685 0
M  V30 3127 H 307.025 6.09639 0.463681 0
M  V30 3128 H 311.199 6.964 -0.00757555 0
M  V30 3129 H 308.826 7.59461 -0.335047 0
M  V30 3130 N 310.401 -0.613514 1.45168 0
M  V30 3131 C 311.812 -1.19539 1.43413 0
M  V30 3132 C 312.163 -1.95558 0.158632 0
M  V30 3133 O 311.288 -2.0335 -0.740119 0
M  V30 3134 C 311.883 -2.17445 2.59813 0
M  V30 3135 C 310.442 -2.71022 2.61197 0
M  V30 3136 C 309.589 -1.46323 2.35552 0
M  V30 3137 H 312.54 -0.403163 1.53494 0
M  V30 3138 H 312.561 -3.00373 2.33574 0
M  V30 3139 H 312.073 -1.62089 3.52631 0
M  V30 3140 H 310.174 -3.30332 1.7237 0
M  V30 3141 H 310.287 -3.15859 3.60236 0
M  V30 3142 H 308.651 -1.75072 1.84992 0
M  V30 3143 H 309.434 -0.92844 3.30507 0
M  V30 3144 N 311.879 -1.3236 -0.855495 0
M  V30 3145 C 312.827 -1.2118 -1.9854 0
M  V30 3146 C 313.821 -0.116788 -1.68997 0
M  V30 3147 O 315.027 -0.279657 -1.77814 0
M  V30 3148 H 311.402 -0.375608 -0.651477 0
M  V30 3149 H 313.373 -2.16743 -2.05098 0
M  V30 3150 C 312.122 -0.950849 -3.34446 0
M  V30 3151 H 311.445 -1.78563 -3.57708 0
M  V30 3152 H 312.885 -0.912863 -4.14057 0
M  V30 3153 C 311.344 0.346404 -3.35114 0
M  V30 3154 O 311.874 1.35855 -3.7803 0
M  V30 3155 N 310.08 0.36808 -2.88259 0
M  V30 3156 H 309.627 -0.456102 -2.5353 0
M  V30 3157 H 309.585 1.23591 -2.89089 0
M  V30 3158 N 313.357 1.07166 -1.15556 0
M  V30 3159 C 314.307 2.12649 -0.82247 0
M  V30 3160 C 315.291 1.59725 0.194129 0
M  V30 3161 O 316.483 1.76999 -0.00540402 0
M  V30 3162 C 313.612 3.41847 -0.315572 0
M  V30 3163 C 312.698 4.0162 -1.36244 0
M  V30 3164 N 313.089 4.35625 -2.5703 0
M  V30 3165 C 311.387 4.29114 -1.21562 0
M  V30 3166 C 312.088 4.83017 -3.24144 0
M  V30 3167 N 311.064 4.81906 -2.51531 0
M  V30 3168 H 314.866 2.36776 -1.74111 0
M  V30 3169 H 312.38 1.24622 -1.0413 0
M  V30 3170 H 314.377 4.16859 -0.0585855 0
M  V30 3171 H 313.037 3.19163 0.597105 0
M  V30 3172 H 314.048 4.26253 -2.94158 0
M  V30 3173 H 310.725 4.15919 -0.362988 0
M  V30 3174 H 312.115 5.18605 -4.27198 0
M  V30 3175 N 314.835 0.952656 1.25548 0
M  V30 3176 C 315.785 0.442033 2.23674 0
M  V30 3177 C 316.769 -0.467632 1.53955 0
M  V30 3178 O 317.961 -0.301006 1.74422 0
M  V30 3179 C 315.09 -0.280816 3.4215 0
M  V30 3180 C 314.176 0.646803 4.19139 0
M  V30 3181 N 314.567 1.77759 4.73535 0
M  V30 3182 C 312.865 0.454617 4.43677 0
M  V30 3183 C 313.566 2.35658 5.31827 0
M  V30 3184 N 312.542 1.64333 5.18166 0
M  V30 3185 H 316.344 1.30505 2.63336 0
M  V30 3186 H 313.858 0.809904 1.40763 0
M  V30 3187 H 315.855 -0.663747 4.11582 0
M  V30 3188 H 314.515 -1.14046 3.04012 0
M  V30 3189 H 315.526 2.15949 4.7073 0
M  V30 3190 H 312.203 -0.362312 4.15925 0
M  V30 3191 H 313.593 3.30998 5.84713 0
M  V30 3192 N 316.313 -1.40141 0.720998 0
M  V30 3193 C 317.724 -1.83678 0.334553 0
M  V30 3194 C 318.075 -1.6027 -1.13173 0
M  V30 3195 O 317.2 -1.08643 -1.87152 0
M  V30 3196 C 317.795 -3.33437 0.600437 0
M  V30 3197 C 316.354 -3.75447 0.267642 0
M  V30 3198 C 315.501 -2.63296 0.870097 0
M  V30 3199 H 318.452 -1.29331 0.919732 0
M  V30 3200 H 318.473 -3.80269 -0.132517 0
M  V30 3201 H 317.985 -3.50442 1.66768 0
M  V30 3202 H 316.086 -3.64035 -0.794329 0
M  V30 3203 H 316.199 -4.73344 0.74042 0
M  V30 3204 H 314.563 -2.52954 0.297739 0
M  V30 3205 H 315.346 -2.83112 1.94172 0
M  V30 3206 N 317.792 -0.46758 -1.50504 0
M  V30 3207 C 319.069 0.15003 -1.95024 0
M  V30 3208 C 319.449 1.57304 -1.40779 0
M  V30 3209 O 318.797 2.20281 -0.607319 0
M  V30 3210 C 319.007 0.0969324 -3.48865 0
M  V30 3211 C 320.355 0.287565 -4.23625 0
M  V30 3212 O 321.379 0.173678 -3.55776 0
M  V30 3213 O 320.238 0.517186 -5.44047 0
M  V30 3214 H 317.332 0.113582 -0.819163 0
M  V30 3215 H 319.878 -0.52773 -1.61286 0
M  V30 3216 H 318.65 -0.896732 -3.80886 0
M  V30 3217 H 318.273 0.816303 -3.8913 0
M  V30 3218 N 319.27 1.56325 -0.20005 0
M  V30 3219 C 320.681 1.8408 0.31167 0
M  V30 3220 C 321.032 1.12087 1.61031 0
M  V30 3221 O 320.157 0.38332 2.12978 0
M  V30 3222 C 320.752 3.33932 0.57226 0
M  V30 3223 C 319.311 3.6208 1.02834 0
M  V30 3224 C 318.458 2.77186 0.079634 0
M  V30 3225 H 321.409 1.52939 -0.423729 0
M  V30 3226 H 321.43 3.52971 1.42096 0
M  V30 3227 H 320.942 3.86303 -0.37308 0
M  V30 3228 H 319.043 3.15147 1.98778 0
M  V30 3229 H 319.156 4.7023 0.917624 0
M  V30 3230 H 317.52 2.47951 0.582448 0
M  V30 3231 H 318.303 3.32347 -0.860238 0
M  V30 3232 N 320.748 -0.0735177 1.57428 0
M  V30 3233 C 321.996 -0.771472 1.86796 0
M  V30 3234 C 322.317 -1.78201 0.791804 0
M  V30 3235 O 321.587 -1.95074 -0.179718 0
M  V30 3236 H 320.167 -0.28791 0.689287 0
M  V30 3237 H 322.829 -0.0500161 1.94836 0
M  V30 3238 H 321.925 -1.28874 2.8425 0
M  V30 3239 N 322.226 -1.5378 -0.344866 0
M  V30 3240 C 323.173 -1.81676 -1.42346 0
M  V30 3241 C 324.143 -0.662376 -1.52321 0
M  V30 3242 O 325.328 -0.906675 -1.67881 0
M  V30 3243 C 322.468 -2.03087 -2.79015 0
M  V30 3244 C 321.581 -3.30799 -2.77842 0
M  V30 3245 C 320.716 -3.42285 -4.0622 0
M  V30 3246 C 319.755 -4.6395 -3.9927 0
M  V30 3247 N 318.892 -4.72477 -5.19336 0
M  V30 3248 H 323.732 -2.73703 -1.17858 0
M  V30 3249 H 321.269 -1.35568 -0.570949 0
M  V30 3250 H 323.227 -2.1349 -3.58438 0
M  V30 3251 H 321.857 -1.14375 -3.01858 0
M  V30 3252 H 320.909 -3.29244 -1.90533 0
M  V30 3253 H 322.221 -4.20314 -2.68584 0
M  V30 3254 H 321.375 -3.52113 -4.94066 0
M  V30 3255 H 320.114 -2.50823 -4.18258 0
M  V30 3256 H 319.119 -4.54201 -3.09809 0
M  V30 3257 H 320.344 -5.56775 -3.88817 0
M  V30 3258 H 318.29 -3.83924 -5.3192 0
M  V30 3259 H 318.207 -5.55927 -5.12329 0
M  V30 3260 H 319.475 -4.86613 -6.08957 0
M  V30 3261 N 323.704 0.605807 -1.45491 0
M  V30 3262 C 325.115 1.18777 -1.44045 0
M  V30 3263 C 325.466 1.95471 -0.169001 0
M  V30 3264 O 324.591 2.0374 0.729324 0
M  V30 3265 C 325.186 2.16064 -2.60963 0
M  V30 3266 C 323.745 2.69633 -2.62631 0
M  V30 3267 C 322.892 1.45072 -2.36325 0
M  V30 3268 H 325.843 0.395017 -1.53705 0
M  V30 3269 H 325.864 2.9913 -2.35163 0
M  V30 3270 H 325.376 1.60217 -3.53486 0
M  V30 3271 H 323.477 3.29414 -1.74119 0
M  V30 3272 H 323.59 3.13944 -3.61906 0
M  V30 3273 H 321.954 1.74089 -1.85917 0
M  V30 3274 H 322.737 0.910899 -3.30995 0
M  V30 3275 N 325.182 1.32811 0.848464 0
M  V30 3276 C 326.092 1.24278 1.98978 0
M  V30 3277 C 327.108 0.155176 1.73307 0
M  V30 3278 O 328.284 0.376999 1.9784 0
M  V30 3279 C 325.349 0.972444 3.32783 0
M  V30 3280 C 324.41 2.14911 3.71634 0
M  V30 3281 C 323.643 1.89157 4.99054 0
M  V30 3282 O 323.866 0.837165 5.64223 0
M  V30 3283 O 322.8 2.75433 5.35183 0
M  V30 3284 H 326.626 2.20238 2.09115 0
M  V30 3285 H 324.211 1.12762 0.980052 0
M  V30 3286 H 326.093 0.838432 4.12975 0
M  V30 3287 H 324.768 0.043051 3.23671 0
M  V30 3288 H 323.675 2.33862 2.91992 0
M  V30 3289 H 325.008 3.06151 3.85399 0
M  V30 3290 N 326.66 -1.06551 1.16123 0
M  V30 3291 C 327.608 -2.16063 0.861371 0
M  V30 3292 C 328.602 -1.6856 -0.168517 0
M  V30 3293 O 329.808 -1.79986 -0.0227579 0
M  V30 3294 H 326.183 -0.705278 0.260934 0
M  V30 3295 H 328.154 -2.38567 1.79244 0
M  V30 3296 C 326.903 -3.45661 0.376018 0
M  V30 3297 H 326.226 -3.82604 1.15992 0
M  V30 3298 H 327.666 -4.23504 0.204951 0
M  V30 3299 C 326.125 -3.24546 -0.903954 0
M  V30 3300 O 326.655 -3.49865 -1.97377 0
M  V30 3301 N 324.861 -2.77992 -0.846679 0
M  V30 3302 H 324.408 -2.57589 0.0241017 0
M  V30 3303 H 324.366 -2.64244 -1.70359 0
M  V30 3304 N 328.138 -0.959301 -1.25041 0
M  V30 3305 C 329.068 -0.501388 -2.28053 0
M  V30 3306 C 330.049 0.454673 -1.63911 0
M  V30 3307 O 331.234 0.352618 -1.90972 0
M  V30 3308 C 328.364 0.217224 -3.4662 0
M  V30 3309 C 327.318 -0.654034 -4.22973 0
M  V30 3310 C 326.644 0.195589 -5.34342 0
M  V30 3311 C 327.944 -1.93447 -4.85155 0
M  V30 3312 H 329.638 -1.36238 -2.66608 0
M  V30 3313 H 327.184 -0.656534 -1.28163 0
M  V30 3314 H 329.137 0.548732 -4.17812 0
M  V30 3315 H 327.861 1.1125 -3.07068 0
M  V30 3316 H 326.52 -0.968693 -3.5357 0
M  V30 3317 H 326.168 1.09076 -4.91031 0
M  V30 3318 H 325.868 -0.384091 -5.86343 0
M  V30 3319 H 327.392 0.521958 -6.08365 0
M  V30 3320 H 328.806 -1.66908 -5.48466 0
M  V30 3321 H 327.203 -2.46018 -5.47353 0
M  V30 3322 H 328.273 -2.63466 -4.07079 0
M  V30 3323 N 329.616 1.39756 -0.72842 0
M  V30 3324 C 330.563 2.30647 -0.0841519 0
M  V30 3325 C 331.533 1.48869 0.7367 0
M  V30 3326 O 332.718 1.77574 0.698015 0
M  V30 3327 C 329.858 3.35165 0.822091 0
M  V30 3328 C 328.971 4.31999 -0.0106663 0
M  V30 3329 C 328.106 5.23585 0.896241 0
M  V30 3330 C 327.145 6.12072 0.0583381 0
M  V30 3331 N 326.282 6.96035 0.920818 0
M  V30 3332 H 331.122 2.85173 -0.864891 0
M  V30 3333 H 328.659 1.40422 -0.438179 0
M  V30 3334 H 330.617 3.94345 1.36189 0
M  V30 3335 H 329.247 2.8211 1.56888 0
M  V30 3336 H 328.299 3.74492 -0.66781 0
M  V30 3337 H 329.611 4.9443 -0.658825 0
M  V30 3338 H 328.765 5.87759 1.50412 0
M  V30 3339 H 327.504 4.61459 1.57819 0
M  V30 3340 H 326.509 5.46916 -0.562389 0
M  V30 3341 H 327.734 6.76261 -0.6203 0
M  V30 3342 H 325.68 6.36485 1.58818 0
M  V30 3343 H 325.597 7.55284 0.32899 0
M  V30 3344 H 326.865 7.64646 1.51447 0
M  V30 3345 N 331.094 0.475555 1.50254 0
M  V30 3346 C 332.371 -0.139685 1.95101 0
M  V30 3347 C 332.751 -1.56555 1.41611 0
M  V30 3348 O 332.099 -2.19956 0.618993 0
M  V30 3349 C 332.309 -0.0784298 3.48912 0
M  V30 3350 C 333.657 -0.265095 4.23772 0
M  V30 3351 O 334.681 -0.154808 3.55863 0
M  V30 3352 O 333.54 -0.488327 5.44314 0
M  V30 3353 H 330.634 -0.109236 0.819754 0
M  V30 3354 H 333.18 0.536276 1.61004 0
M  V30 3355 H 331.952 0.916918 3.80405 0
M  V30 3356 H 331.575 -0.795655 3.89558 0
M  V30 3357 N 332.573 -1.56217 0.208337 0
M  V30 3358 C 333.503 -2.22694 -0.702116 0
M  V30 3359 C 334.484 -1.19432 -1.2112 0
M  V30 3360 O 335.669 -1.47978 -1.25762 0
M  V30 3361 C 332.799 -2.8966 -1.9161 0
M  V30 3362 C 331.753 -3.9928 -1.5414 0
M  V30 3363 C 331.079 -4.53476 -2.83308 0
M  V30 3364 C 332.379 -5.17012 -0.741339 0
M  V30 3365 H 334.073 -2.99034 -0.147898 0
M  V30 3366 H 331.619 -1.43831 -0.0696951 0
M  V30 3367 H 333.572 -3.34852 -2.55836 0
M  V30 3368 H 332.296 -2.10746 -2.49507 0
M  V30 3369 H 330.955 -3.54799 -0.922668 0
M  V30 3370 H 330.603 -3.71308 -3.39322 0
M  V30 3371 H 330.303 -5.27451 -2.58976 0
M  V30 3372 H 331.827 -5.01378 -3.485 0
M  V30 3373 H 333.241 -5.58667 -1.28699 0
M  V30 3374 H 331.638 -5.97137 -0.595627 0
M  V30 3375 H 332.708 -4.8423 0.254851 0
M  V30 3376 N 334.051 0.0651679 -1.57465 0
M  V30 3377 C 335.3 0.761916 -1.86756 0
M  V30 3378 C 335.613 1.78406 -0.801925 0
M  V30 3379 O 336.819 2.53084 -0.982885 0
M  V30 3380 C 335.275 1.40603 -3.31299 0
M  V30 3381 C 334.883 0.422115 -4.46007 0
M  V30 3382 C 336.627 2.08476 -3.69781 0
M  V30 3383 C 334.534 1.07252 -5.81593 0
M  V30 3384 H 333.464 0.288308 -0.696702 0
M  V30 3385 H 336.115 0.015344 -1.83494 0
M  V30 3386 H 334.497 2.20109 -3.29193 0
M  V30 3387 H 335.671 -0.343613 -4.59517 0
M  V30 3388 H 333.986 -0.152527 -4.16121 0
M  V30 3389 H 336.583 2.57925 -4.68379 0
M  V30 3390 H 336.926 2.88712 -2.99919 0
M  V30 3391 H 337.459 1.35792 -3.73905 0
M  V30 3392 H 334.198 0.310342 -6.54765 0
M  V30 3393 H 333.718 1.80895 -5.71872 0
M  V30 3394 H 335.397 1.59043 -6.27148 0
M  V30 3395 N 335.529 1.53961 0.336706 0
M  V30 3396 C 336.492 1.81724 1.39675 0
M  V30 3397 C 337.492 0.688532 1.45313 0
M  V30 3398 O 338.682 0.956829 1.45569 0
M  V30 3399 C 335.814 1.96543 2.78538 0
M  V30 3400 H 337.007 2.76424 1.16318 0
M  V30 3401 H 334.56 1.45478 0.571474 0
M  V30 3402 H 335.295 1.0401 3.07168 0
M  V30 3403 H 335.08 2.78665 2.75841 0
M  V30 3404 H 336.57 2.19516 3.5525 0
M  V30 3405 N 337.007 -0.598083 1.45811 0
M  V30 3406 C 337.954 -1.7082 1.55207 0
M  V30 3407 C 338.924 -1.61278 0.39732 0
M  V30 3408 O 340.109 -1.80717 0.612038 0
M  V30 3409 C 337.249 -3.09144 1.53376 0
M  V30 3410 C 336.362 -3.29423 2.79472 0
M  V30 3411 C 335.497 -4.57907 2.69248 0
M  V30 3412 C 334.536 -4.71476 3.90354 0
M  V30 3413 N 333.673 -5.9127 3.78608 0
M  V30 3414 H 338.513 -1.62125 2.50039 0
M  V30 3415 H 336.05 -0.790389 1.24062 0
M  V30 3416 H 338.008 -3.89186 1.50301 0
M  V30 3417 H 336.638 -3.16773 0.620876 0
M  V30 3418 H 335.69 -2.43091 2.92594 0
M  V30 3419 H 337.002 -3.3532 3.69272 0
M  V30 3420 H 336.156 -5.46157 2.64192 0
M  V30 3421 H 334.895 -4.54423 1.77063 0
M  V30 3422 H 333.9 -3.81648 3.95759 0
M  V30 3423 H 335.125 -4.76751 4.83617 0
M  V30 3424 H 333.071 -5.88813 2.89199 0
M  V30 3425 H 332.988 -5.98369 4.6205 0
M  V30 3426 H 334.256 -6.81992 3.77501 0
M  V30 3427 N 338.485 -1.33259 -0.841409 0
M  V30 3428 C 339.731 -1.24757 -1.59886 0
M  V30 3429 C 340.064 0.186913 -1.93298 0
M  V30 3430 O 339.339 1.12757 -1.5848 0
M  V30 3431 C 339.622 -2.12036 -2.91055 0
M  V30 3432 C 339.475 -3.63929 -2.6434 0
M  V30 3433 C 340.794 -1.9916 -3.92458 0
M  V30 3434 H 337.913 -0.454542 -0.580138 0
M  V30 3435 H 340.555 -1.63335 -0.970647 0
M  V30 3436 H 338.705 -1.79265 -3.44669 0
M  V30 3437 H 340.377 -4.06978 -2.17178 0
M  V30 3438 H 338.62 -3.85935 -1.98082 0
M  V30 3439 H 339.291 -4.20341 -3.57796 0
M  V30 3440 H 341.767 -2.27895 -3.48143 0
M  V30 3441 H 340.643 -2.62484 -4.82072 0
M  V30 3442 H 340.904 -0.963082 -4.31482 0
M  V30 3443 N 339.963 1.05934 -1.16686 0
M  V30 3444 C 340.91 2.13499 -0.876748 0
M  V30 3445 C 341.88 1.65162 0.176299 0
M  V30 3446 O 343.065 1.90757 0.0407143 0
M  V30 3447 C 340.205 3.42912 -0.387967 0
M  V30 3448 C 339.318 4.04964 -1.50426 0
M  V30 3449 C 338.453 5.22266 -0.970125 0
M  V30 3450 C 337.492 5.76309 -2.06238 0
M  V30 3451 N 336.629 6.84922 -1.54356 0
M  V30 3452 H 341.469 2.37654 -1.7979 0
M  V30 3453 H 339.006 1.16598 -0.896843 0
M  V30 3454 H 340.964 4.17111 -0.086186 0
M  V30 3455 H 339.594 3.18963 0.496235 0
M  V30 3456 H 338.646 3.28277 -1.92193 0
M  V30 3457 H 339.958 4.41122 -2.32836 0
M  V30 3458 H 339.112 6.03506 -0.621743 0
M  V30 3459 H 337.851 4.87564 -0.115377 0
M  V30 3460 H 336.856 4.93704 -2.41942 0
M  V30 3461 H 338.081 6.13062 -2.92115 0
M  V30 3462 H 336.027 6.52131 -0.711406 0
M  V30 3463 H 335.944 7.20043 -2.30379 0
M  V30 3464 H 337.212 7.69832 -1.22387 0
M  V30 3465 N 341.441 0.965919 1.2453 0
M  V30 3466 C 342.404 0.499547 2.2369 0
M  V30 3467 C 343.404 -0.40294 1.5567 0
M  V30 3468 O 344.594 -0.19865 1.73064 0
M  V30 3469 C 341.726 -0.276792 3.39774 0
M  V30 3470 H 342.919 1.37613 2.66463 0
M  V30 3471 H 340.472 0.750324 1.37112 0
M  V30 3472 H 341.207 -1.17055 3.02438 0
M  V30 3473 H 340.992 0.370826 3.90343 0
M  V30 3474 H 342.482 -0.592175 4.1338 0
M  V30 3475 N 342.919 -1.39368 0.735821 0
M  V30 3476 C 343.829 -2.34395 0.0979693 0
M  V30 3477 C 344.845 -1.58361 -0.720968 0
M  V30 3478 O 346.021 -1.90648 -0.649245 0
M  V30 3479 C 343.086 -3.37393 -0.797916 0
M  V30 3480 C 342.147 -4.29287 0.0333662 0
M  V30 3481 C 341.38 -5.27365 -0.819854 0
M  V30 3482 O 341.603 -5.31959 -2.05855 0
M  V30 3483 O 340.537 -6.01389 -0.248079 0
M  V30 3484 H 344.363 -2.90601 0.882315 0
M  V30 3485 H 341.948 -1.40909 0.4965 0
M  V30 3486 H 343.83 -4.00505 -1.31048 0
M  V30 3487 H 342.505 -2.83571 -1.56106 0
M  V30 3488 H 341.412 -3.69395 0.591475 0
M  V30 3489 H 342.745 -4.86317 0.758752 0
M  V30 3490 N 344.397 -0.483516 -1.5 0
M  V30 3491 C 345.345 0.318061 -2.30415 0
M  V30 3492 C 346.339 0.978988 -1.38247 0
M  V30 3493 O 347.545 0.908673 -1.55381 0
M  V30 3494 H 343.92 0.121419 -0.742133 0
M  V30 3495 H 345.891 -0.380403 -2.95965 0
M  V30 3496 C 344.64 1.38013 -3.19136 0
M  V30 3497 H 343.963 0.880952 -3.89973 0
M  V30 3498 H 345.403 1.91332 -3.78375 0
M  V30 3499 C 343.862 2.38884 -2.37563 0
M  V30 3500 O 344.392 3.44412 -2.06744 0
M  V30 3501 N 342.598 2.10912 -1.99911 0
M  V30 3502 H 342.145 1.25118 -2.25174 0
M  V30 3503 H 342.103 2.78635 -1.45636 0
M  V30 3504 N 345.875 1.56104 -0.216619 0
M  V30 3505 C 346.838 2.18819 0.681962 0
M  V30 3506 C 347.838 1.14866 1.12528 0
M  V30 3507 O 349.028 1.40128 1.03488 0
M  V30 3508 C 346.16 2.80756 1.93362 0
M  V30 3509 H 347.353 2.99595 0.135254 0
M  V30 3510 H 344.906 1.56265 0.0330003 0
M  V30 3511 H 345.641 2.03837 2.52232 0
M  V30 3512 H 345.426 3.56876 1.62426 0
M  V30 3513 H 346.916 3.28844 2.57393 0
M  V30 3514 N 347.353 -0.0568162 1.57498 0
M  V30 3515 C 348.63 -0.786954 1.79071 0
M  V30 3516 C 349.01 -1.95028 0.80792 0
M  V30 3517 O 348.358 -2.27968 -0.155858 0
M  V30 3518 C 348.568 -1.24594 3.26002 0
M  V30 3519 C 349.916 -1.67323 3.90241 0
M  V30 3520 O 350.94 -1.34124 3.29984 0
M  V30 3521 O 349.799 -2.28842 4.9628 0
M  V30 3522 H 346.893 -0.378262 0.735423 0
M  V30 3523 H 349.439 -0.035734 1.69662 0
M  V30 3524 H 348.211 -0.41423 3.89101 0
M  V30 3525 H 347.834 -2.05803 3.40192 0
M  V30 3526 N 348.832 -1.54138 -0.328536 0
M  V30 3527 C 349.762 -1.86167 -1.40939 0
M  V30 3528 C 350.743 -0.718044 -1.54202 0
M  V30 3529 O 351.928 -0.971328 -1.68163 0
M  V30 3530 C 349.058 -2.08461 -2.77779 0
M  V30 3531 C 348.012 -3.24299 -2.7931 0
M  V30 3532 C 347.338 -3.31955 -4.19178 0
M  V30 3533 C 348.638 -4.62065 -2.43502 0
M  V30 3534 H 350.332 -2.76689 -1.14383 0
M  V30 3535 H 347.878 -1.33132 -0.548806 0
M  V30 3536 H 349.831 -2.29453 -3.53454 0
M  V30 3537 H 348.555 -1.14684 -3.05802 0
M  V30 3538 H 347.214 -3.03187 -2.0609 0
M  V30 3539 H 346.862 -2.35745 -4.44335 0
M  V30 3540 H 346.562 -4.09805 -4.2111 0
M  V30 3541 H 348.086 -3.55175 -4.96672 0
M  V30 3542 H 349.5 -4.8297 -3.08889 0
M  V30 3543 H 347.897 -5.42429 -2.56693 0
M  V30 3544 H 348.967 -4.64652 -1.38659 0
M  V30 3545 N 350.31 0.590341 -1.46126 0
M  V30 3546 C 351.558 1.34616 -1.50742 0
M  V30 3547 C 351.879 1.94363 -0.157486 0
M  V30 3548 O 351.149 1.78136 0.815136 0
M  V30 3549 H 349.729 0.499789 -0.555175 0
M  V30 3550 H 352.391 0.691953 -1.82203 0
M  V30 3551 H 351.487 2.15678 -2.25587 0
M  V30 3552 N 351.788 1.33704 0.83433 0
M  V30 3553 C 352.718 1.26967 1.95963 0
M  V30 3554 C 353.699 0.149337 1.69443 0
M  V30 3555 O 354.884 0.339852 1.91203 0
M  V30 3556 C 352.014 1.01275 3.32206 0
M  V30 3557 C 350.968 2.09652 3.73136 0
M  V30 3558 C 350.294 1.69166 5.07235 0
M  V30 3559 C 351.594 3.51372 3.86439 0
M  V30 3560 H 353.288 2.2112 2.01857 0
M  V30 3561 H 350.834 1.06447 0.969793 0
M  V30 3562 H 352.787 0.952106 4.10503 0
M  V30 3563 H 351.511 0.0356203 3.26581 0
M  V30 3564 H 350.17 2.14766 2.97104 0
M  V30 3565 H 349.818 0.701437 4.98085 0
M  V30 3566 H 349.518 2.41694 5.35591 0
M  V30 3567 H 351.042 1.64576 5.88003 0
M  V30 3568 H 352.456 3.48734 4.55036 0
M  V30 3569 H 350.853 4.22425 4.26236 0
M  V30 3570 H 351.923 3.89546 2.88759 0
M  V30 3571 N 353.266 -1.05314 1.17247 0
M  V30 3572 C 354.229 -2.112 0.890357 0
M  V30 3573 C 355.229 -1.60359 -0.118943 0
M  V30 3574 O 356.419 -1.73833 0.113086 0
M  V30 3575 C 353.551 -3.39266 0.333422 0
M  V30 3576 H 354.744 -2.37659 1.82916 0
M  V30 3577 H 352.297 -1.21538 0.982758 0
M  V30 3578 H 353.032 -3.18462 -0.612587 0
M  V30 3579 H 352.817 -3.77477 1.06082 0
M  V30 3580 H 354.307 -4.17315 0.154322 0
M  V30 3581 N 354.744 -0.972509 -1.24016 0
M  V30 3582 C 355.991 -0.637034 -1.92219 0
M  V30 3583 C 356.319 0.828418 -1.75976 0
M  V30 3584 O 355.574 1.61206 -1.10955 0
M  V30 3585 C 355.873 -0.963694 -3.44162 0
M  V30 3586 C 355.539 -2.41807 -3.80579 0
M  V30 3587 C 354.201 -2.81556 -3.9023 0
M  V30 3588 C 356.553 -3.36172 -3.98293 0
M  V30 3589 C 353.881 -4.14702 -4.15017 0
M  V30 3590 C 356.233 -4.68952 -4.24578 0
M  V30 3591 C 354.897 -5.08472 -4.32449 0
M  V30 3592 H 354.167 -0.233107 -0.703379 0
M  V30 3593 H 356.814 -1.2249 -1.47202 0
M  V30 3594 H 355.119 -0.29365 -3.90698 0
M  V30 3595 H 356.816 -0.682449 -3.9515 0
M  V30 3596 H 353.406 -2.09988 -3.73635 0
M  V30 3597 H 357.59 -3.06644 -3.90234 0
M  V30 3598 H 352.846 -4.4494 -4.19331 0
M  V30 3599 H 357.02 -5.42037 -4.37229 0
M  V30 3600 H 354.647 -6.11665 -4.51409 0
M  V30 3601 N 356.222 1.38976 -0.743202 0
M  V30 3602 C 357.499 1.94351 -0.220705 0
M  V30 3603 C 357.879 1.67935 1.2791 0
M  V30 3604 O 357.227 1.01211 2.04862 0
M  V30 3605 C 357.437 3.44426 -0.563171 0
M  V30 3606 C 358.785 4.2144 -0.517046 0
M  V30 3607 O 359.809 3.52661 -0.500846 0
M  V30 3608 O 358.668 5.44032 -0.518806 0
M  V30 3609 H 355.762 0.825879 -0.043047 0
M  V30 3610 H 358.308 1.48429 -0.822618 0
M  V30 3611 H 357.08 3.5712 -1.59941 0
M  V30 3612 H 356.703 3.97543 0.0672883 0
M  V30 3613 N 357.7 0.491464 1.49741 0
M  V30 3614 C 358.948 -0.0563141 2.02022 0
M  V30 3615 C 359.269 -1.38363 1.37407 0
M  V30 3616 O 358.539 -1.88702 0.526166 0
M  V30 3617 H 357.119 -0.0238014 0.746621 0
M  V30 3618 H 359.781 0.646533 1.83864 0
M  V30 3619 H 358.877 -0.192967 3.11503 0
M  V30 3620 N 359.178 -1.55987 0.224894 0
M  V30 3621 C 360.455 -1.90232 -0.455083 0
M  V30 3622 C 360.835 -1.14269 -1.77499 0
M  V30 3623 O 360.183 -0.253079 -2.27094 0
M  V30 3624 C 360.393 -3.42993 -0.644758 0
M  V30 3625 C 361.741 -4.13821 -0.950669 0
M  V30 3626 O 362.765 -3.4861 -0.731423 0
M  V30 3627 O 361.624 -5.29128 -1.36695 0
M  V30 3628 H 358.718 -0.79108 -0.241084 0
M  V30 3629 H 361.264 -1.67581 0.267327 0
M  V30 3630 H 360.036 -3.90252 0.28613 0
M  V30 3631 H 359.659 -3.71434 -1.41853 0
M  V30 3632 N 360.656 0.0484629 -1.57525 0
M  V30 3633 C 361.904 0.741657 -1.88 0
M  V30 3634 C 362.225 1.76918 -0.820054 0
M  V30 3635 O 361.495 1.95335 0.148661 0
M  V30 3636 H 360.075 0.276908 -0.69378 0
M  V30 3637 H 362.737 0.019013 -1.94891 0
M  V30 3638 H 361.833 1.24336 -2.86264 0
M  V30 3639 N 362.134 1.5431 0.320358 0
M  V30 3640 C 363.411 1.63322 1.07635 0
M  V30 3641 C 363.791 0.46912 2.05821 0
M  V30 3642 O 363.139 -0.536274 2.22118 0
M  V30 3643 C 363.349 3.00465 1.77544 0
M  V30 3644 C 364.697 3.56621 2.30449 0
M  V30 3645 O 365.721 3.02791 1.87606 0
M  V30 3646 O 364.58 4.5083 3.08892 0
M  V30 3647 H 361.674 0.661502 0.496331 0
M  V30 3648 H 364.22 1.66656 0.319992 0
M  V30 3649 H 362.992 3.76629 1.06143 0
M  V30 3650 H 362.615 3.00824 2.59982 0
M  V30 3651 N 363.613 -0.582584 1.46437 0
M  V30 3652 C 365.029 -0.905962 1.31394 0
M  V30 3653 C 365.229 -1.99468 0.285476 0
M  V30 3654 O 364.285 -2.50566 -0.311914 0
M  V30 3655 C 365.598 -1.3232 2.70022 0
M  V30 3656 C 367.146 -1.43604 2.78113 0
M  V30 3657 C 367.621 -1.88694 4.17323 0
M  V30 3658 N 369.112 -1.95887 4.19741 0
M  V30 3659 C 369.847 -2.32051 5.24347 0
M  V30 3660 N 369.343 -2.67006 6.39281 0
M  V30 3661 N 371.136 -2.32606 5.11713 0
M  V30 3662 H 363.287 0.1366 2.1196 0
M  V30 3663 H 365.55 -0.00155736 0.947999 0
M  V30 3664 H 365.256 -0.597242 3.46592 0
M  V30 3665 H 365.13 -2.28469 3.00136 0
M  V30 3666 H 367.517 -2.15286 2.01832 0
M  V30 3667 H 367.598 -0.457059 2.51684 0
M  V30 3668 H 367.242 -1.1759 4.941 0
M  V30 3669 H 367.172 -2.8755 4.4116 0
M  V30 3670 H 369.663 -1.71362 3.36814 0
M  V30 3671 H 369.976 -2.93554 7.14875 0
M  V30 3672 H 368.321 -2.64644 6.42642 0
M  V30 3673 H 371.512 -2.04721 4.2096 0
M  V30 3674 H 371.685 -2.60462 5.93349 0
M  V30 3675 N 365.091 -1.34144 -0.827227 0
M  V30 3676 C 366.337 -1.26446 -1.58554 0
M  V30 3677 C 366.67 0.1664 -1.93486 0
M  V30 3678 O 365.945 1.1107 -1.59667 0
M  V30 3679 C 366.228 -2.15111 -2.8879 0
M  V30 3680 C 366.081 -3.66712 -2.60465 0
M  V30 3681 C 367.4 -2.03311 -3.90324 0
M  V30 3682 H 364.519 -0.46067 -0.575284 0
M  V30 3683 H 367.161 -1.64356 -0.953269 0
M  V30 3684 H 365.311 -1.8291 -3.42748 0
M  V30 3685 H 366.983 -4.09259 -2.1285 0
M  V30 3686 H 365.226 -3.88014 -1.93978 0
M  V30 3687 H 365.897 -4.24112 -3.53317 0
M  V30 3688 H 368.373 -2.31574 -3.45706 0
M  V30 3689 H 367.249 -2.67582 -4.79261 0
M  V30 3690 H 367.51 -1.00879 -4.30437 0
M  V30 3691 N 366.569 1.04691 -1.17803 0
M  V30 3692 C 367.817 1.7743 -0.967617 0
M  V30 3693 C 368.138 1.88359 0.504574 0
M  V30 3694 O 367.408 1.40402 1.36617 0
M  V30 3695 H 365.988 0.657242 -0.355024 0
M  V30 3696 H 368.65 1.2638 -1.48371 0
M  V30 3697 H 367.746 2.78924 -1.40027 0
M  V30 3698 N 368.047 0.979072 1.23499 0
M  V30 3699 C 369.293 0.648178 1.92163 0
M  V30 3700 C 369.626 -0.816049 1.76222 0
M  V30 3701 O 368.901 -1.58849 1.12237 0
M  V30 3702 C 369.184 1.03773 3.44824 0
M  V30 3703 C 369.037 2.55948 3.69879 0
M  V30 3704 C 370.356 0.580653 4.36253 0
M  V30 3705 H 367.475 0.236952 0.69787 0
M  V30 3706 H 370.117 1.22012 1.45647 0
M  V30 3707 H 368.267 0.551058 3.84572 0
M  V30 3708 H 369.939 3.12179 3.3962 0
M  V30 3709 H 368.182 2.98641 3.14636 0
M  V30 3710 H 368.853 2.78255 4.76737 0
M  V30 3711 H 371.329 0.998465 4.03943 0
M  V30 3712 H 370.205 0.881663 5.41773 0
M  V30 3713 H 370.466 -0.519052 4.39042 0
M  V30 3714 N 369.525 -1.3858 0.750561 0
M  V30 3715 C 370.771 -2.00481 0.305825 0
M  V30 3716 C 371.104 -1.5944 -1.10872 0
M  V30 3717 O 370.379 -0.83052 -1.75877 0
M  V30 3718 C 370.662 -3.5758 0.425287 0
M  V30 3719 C 370.515 -4.08594 1.88072 0
M  V30 3720 C 371.834 -4.39719 -0.183122 0
M  V30 3721 H 368.953 -0.728348 0.112598 0
M  V30 3722 H 371.595 -1.64566 0.949638 0
M  V30 3723 H 369.745 -3.88306 -0.122828 0
M  V30 3724 H 371.417 -3.88523 2.48691 0
M  V30 3725 H 369.66 -3.61574 2.39681 0
M  V30 3726 H 370.331 -5.177 1.91548 0
M  V30 3727 H 372.807 -4.15128 0.284303 0
M  V30 3728 H 371.683 -5.48856 -0.0692757 0
M  V30 3729 H 371.944 -4.23434 -1.27106 0
M  V30 3730 N 371.003 -0.499398 -1.49478 0
M  V30 3731 C 372.231 0.0425456 -2.06856 0
M  V30 3732 C 372.646 1.30964 -1.35992 0
M  V30 3733 O 372.003 1.77172 -0.437762 0
M  V30 3734 C 372.054 0.301735 -3.60239 0
M  V30 3735 O 371.775 -0.915127 -4.28436 0
M  V30 3736 C 373.276 0.887499 -4.34325 0
M  V30 3737 H 370.496 -0.0197482 -0.670709 0
M  V30 3738 H 373.04 -0.696297 -1.92281 0
M  V30 3739 H 371.195 0.990556 -3.74522 0
M  V30 3740 H 371.609 -0.676993 -5.20113 0
M  V30 3741 H 373.083 1.01845 -5.42523 0
M  V30 3742 H 373.56 1.88488 -3.96698 0
M  V30 3743 H 374.166 0.236196 -4.24644 0
M  V30 3744 N 372.481 1.55866 -0.233164 0
M  V30 3745 C 373.429 2.22176 0.68851 0
M  V30 3746 C 374.423 1.20487 1.19076 0
M  V30 3747 O 375.629 1.38536 1.14925 0
M  V30 3748 H 372.004 0.712511 0.240483 0
M  V30 3749 H 373.975 2.98212 0.105935 0
M  V30 3750 C 372.724 2.92446 1.88071 0
M  V30 3751 H 372.047 3.70458 1.50337 0
M  V30 3752 H 373.487 3.42226 2.50314 0
M  V30 3753 C 371.946 1.95555 2.74335 0
M  V30 3754 O 372.476 1.47986 3.73447 0
M  V30 3755 N 370.682 1.62953 2.40613 0
M  V30 3756 H 370.229 2.01831 1.60069 0
M  V30 3757 H 370.187 0.983886 2.98609 0
M  V30 3758 N 373.959 -0.0401083 1.57549 0
M  V30 3759 C 375.187 -0.745196 1.93014 0
M  V30 3760 C 375.602 -1.6948 0.831984 0
M  V30 3761 O 374.959 -1.81482 -0.192463 0
M  V30 3762 C 375.01 -1.51176 3.28372 0
M  V30 3763 O 374.731 -0.600284 4.33968 0
M  V30 3764 C 376.232 -2.315 3.78051 0
M  V30 3765 H 373.452 -0.210088 0.637263 0
M  V30 3766 H 375.996 -0.000924689 2.045 0
M  V30 3767 H 374.151 -2.20801 3.18317 0
M  V30 3768 H 374.565 -1.13669 5.12035 0
M  V30 3769 H 376.039 -2.80697 4.75303 0
M  V30 3770 H 376.516 -3.12436 3.08675 0
M  V30 3771 H 377.122 -1.66971 3.91153 0
M  V30 3772 N 375.437 -1.54477 -0.31217 0
M  V30 3773 C 376.685 -1.72884 -1.04668 0
M  V30 3774 C 377.006 -0.511477 -1.88173 0
M  V30 3775 O 376.276 0.474407 -1.90069 0
M  V30 3776 H 374.856 -0.637461 -0.389425 0
M  V30 3777 H 377.518 -1.91807 -0.345852 0
M  V30 3778 H 376.614 -2.61334 -1.70619 0
M  V30 3779 N 376.915 0.57481 -1.46744 0
M  V30 3780 C 378.143 1.35856 -1.56047 0
M  V30 3781 C 378.558 1.87691 -0.204365 0
M  V30 3782 O 377.915 1.64049 0.79963 0
M  V30 3783 C 377.966 2.54066 -2.57163 0
M  V30 3784 O 377.687 2.04377 -3.87507 0
M  V30 3785 C 379.188 3.46514 -2.76483 0
M  V30 3786 H 376.408 0.414754 -0.527466 0
M  V30 3787 H 378.952 0.698035 -1.92218 0
M  V30 3788 H 377.107 3.16092 -2.23974 0
M  V30 3789 H 377.521 2.81419 -4.4261 0
M  V30 3790 H 378.995 4.25919 -3.51137 0
M  V30 3791 H 379.472 3.98951 -1.83671 0
M  V30 3792 H 380.078 2.90318 -3.10799 0
M  V30 3793 N 378.394 1.34581 0.820102 0
M  V30 3794 C 379.643 1.26437 1.57151 0
M  V30 3795 C 379.956 -0.163111 1.94919 0
M  V30 3796 O 381.162 -0.366722 2.69012 0
M  V30 3797 C 379.618 2.21658 2.83541 0
M  V30 3798 C 379.226 3.69679 2.53065 0
M  V30 3799 C 380.97 2.22428 3.61561 0
M  V30 3800 C 378.877 4.56761 3.75664 0
M  V30 3801 H 377.807 0.469707 0.589823 0
M  V30 3802 H 380.458 1.59763 0.902656 0
M  V30 3803 H 378.84 1.81287 3.52067 0
M  V30 3804 H 380.014 4.18605 1.92631 0
M  V30 3805 H 378.329 3.71384 1.88316 0
M  V30 3806 H 380.926 2.8471 4.52597 0
M  V30 3807 H 381.269 1.22434 3.97889 0
M  V30 3808 H 381.802 2.61259 2.99981 0
M  V30 3809 H 378.541 5.57702 3.44454 0
M  V30 3810 H 378.061 4.12568 4.35371 0
M  V30 3811 H 379.74 4.71509 4.43044 0
M  V30 3812 N 379.872 -1.04064 1.18357 0
M  V30 3813 C 381.121 -1.76662 0.973313 0
M  V30 3814 C 381.434 -1.89154 -0.497991 0
M  V30 3815 O 382.64 -2.58606 -0.826762 0
M  V30 3816 C 381.096 -3.17624 1.69242 0
M  V30 3817 C 380.704 -3.13225 3.20303 0
M  V30 3818 C 382.448 -3.946 1.56497 0
M  V30 3819 C 380.355 -4.49046 3.84853 0
M  V30 3820 H 379.285 -0.662214 0.36054 0
M  V30 3821 H 381.936 -1.16553 1.41731 0
M  V30 3822 H 380.318 -3.78129 1.1762 0
M  V30 3823 H 381.492 -2.62172 3.78949 0
M  V30 3824 H 379.807 -2.49749 3.33189 0
M  V30 3825 H 382.404 -4.95042 2.02084 0
M  V30 3826 H 382.747 -4.13074 0.517243 0
M  V30 3827 H 383.28 -3.4067 2.05399 0
M  V30 3828 H 380.019 -4.35777 4.89672 0
M  V30 3829 H 379.539 -5.00203 3.30994 0
M  V30 3830 H 381.218 -5.17961 3.87718 0
M  V30 3831 N 381.35 -0.985608 -1.22978 0
M  V30 3832 C 382.58 -0.674603 -1.95276 0
M  V30 3833 C 382.988 0.763483 -1.73111 0
M  V30 3834 O 382.331 1.52601 -1.02268 0
M  V30 3835 C 382.393 -0.891597 -3.48268 0
M  V30 3836 C 382.057 -2.31275 -3.94158 0
M  V30 3837 C 383.054 -3.29179 -4.02415 0
M  V30 3838 C 380.739 -2.64524 -4.27004 0
M  V30 3839 C 382.733 -4.58407 -4.42879 0
M  V30 3840 C 380.42 -3.93974 -4.67149 0
M  V30 3841 C 381.418 -4.90727 -4.75053 0
M  V30 3842 O 381.106 -6.17865 -5.14294 0
M  V30 3843 H 380.838 -0.249251 -0.628371 0
M  V30 3844 H 383.392 -1.32106 -1.5728 0
M  V30 3845 H 381.622 -0.187962 -3.86243 0
M  V30 3846 H 383.311 -0.576957 -4.01779 0
M  V30 3847 H 384.077 -3.04823 -3.77237 0
M  V30 3848 H 379.956 -1.89923 -4.2006 0
M  V30 3849 H 383.5 -5.33926 -4.48964 0
M  V30 3850 H 379.397 -4.18122 -4.91777 0
M  V30 3851 H 380.165 -6.21694 -5.32389 0
M  V30 3852 N 382.828 1.3818 -0.7579 0
M  V30 3853 C 384.239 1.82726 -0.383134 0
M  V30 3854 C 384.59 1.63214 1.08884 0
M  V30 3855 O 383.715 1.13566 1.84205 0
M  V30 3856 C 384.31 3.31728 -0.688631 0
M  V30 3857 C 382.869 3.74606 -0.367091 0
M  V30 3858 C 382.016 2.60896 -0.939599 0
M  V30 3859 H 384.967 1.26847 -0.953699 0
M  V30 3860 H 384.988 3.80487 0.0316492 0
M  V30 3861 H 384.5 3.45898 -1.76001 0
M  V30 3862 H 382.601 3.66013 0.697532 0
M  V30 3863 H 382.714 4.71215 -0.865658 0
M  V30 3864 H 381.078 2.52075 -0.3647 0
M  V30 3865 H 381.861 2.77864 -2.0161 0
M  V30 3866 N 384.306 0.507319 1.49211 0
M  V30 3867 C 385.583 -0.0982702 1.95353 0
M  V30 3868 C 385.963 -1.53516 1.449 0
M  V30 3869 O 385.311 -2.18594 0.66551 0
M  V30 3870 C 385.521 -0.00440283 3.49 0
M  V30 3871 C 386.869 -0.175147 4.24239 0
M  V30 3872 O 387.893 -0.0792891 3.56112 0
M  V30 3873 O 386.752 -0.37276 5.45227 0
M  V30 3874 H 383.846 -0.0918236 0.821887 0
M  V30 3875 H 386.392 0.570307 1.5983 0
M  V30 3876 H 385.164 0.997402 3.78375 0
M  V30 3877 H 384.787 -0.712845 3.91158 0
M  V30 3878 N 385.784 -1.5574 0.241426 0
M  V30 3879 C 387.2 -1.59196 -0.113548 0
M  V30 3880 C 387.4 -1.25852 -1.57364 0
M  V30 3881 O 386.456 -1.00322 -2.31715 0
M  V30 3882 C 387.769 -2.99814 0.230695 0
M  V30 3883 C 389.317 -3.12513 0.174547 0
M  V30 3884 C 389.792 -4.55342 0.492744 0
M  V30 3885 N 391.283 -4.61076 0.443043 0
M  V30 3886 C 392.018 -5.6956 0.662484 0
M  V30 3887 N 391.514 -6.86328 0.944761 0
M  V30 3888 N 393.307 -5.58957 0.593564 0
M  V30 3889 H 385.458 -1.75685 1.19368 0
M  V30 3890 H 387.721 -0.81756 0.479896 0
M  V30 3891 H 387.427 -3.28932 1.24485 0
M  V30 3892 H 387.301 -3.74568 -0.444833 0
M  V30 3893 H 389.688 -2.83179 -0.830277 0
M  V30 3894 H 389.769 -2.40045 0.883845 0
M  V30 3895 H 389.413 -4.85396 1.4951 0
M  V30 3896 H 389.343 -5.26062 -0.23797 0
M  V30 3897 H 391.834 -3.77179 0.233374 0
M  V30 3898 H 392.147 -7.64935 1.09977 0
M  V30 3899 H 390.492 -6.88025 0.982175 0
M  V30 3900 H 393.683 -4.66611 0.373123 0
M  V30 3901 H 393.856 -6.43433 0.767981 0
M  V30 3902 N 387.262 0.0317525 -1.57568 0
M  V30 3903 C 388.192 1.03274 -2.0942 0
M  V30 3904 C 389.173 1.3788 -0.996143 0
M  V30 3905 O 390.358 1.46811 -1.27122 0
M  V30 3906 C 387.488 2.33448 -2.57137 0
M  V30 3907 C 386.442 2.13091 -3.71182 0
M  V30 3908 C 385.768 3.49001 -4.05095 0
M  V30 3909 C 387.068 1.51928 -4.99715 0
M  V30 3910 H 388.762 0.60112 -2.93303 0
M  V30 3911 H 386.308 0.287705 -1.41097 0
M  V30 3912 H 388.261 3.03802 -2.92032 0
M  V30 3913 H 386.985 2.78665 -1.70333 0
M  V30 3914 H 385.644 1.45171 -3.36632 0
M  V30 3915 H 385.292 3.91862 -3.15362 0
M  V30 3916 H 384.992 3.36207 -4.81911 0
M  V30 3917 H 386.516 4.20721 -4.42522 0
M  V30 3918 H 387.93 2.12196 -5.32584 0
M  V30 3919 H 386.327 1.49716 -5.81124 0
M  V30 3920 H 387.397 0.484811 -4.8247 0
M  V30 3921 N 388.74 1.54641 0.303973 0
M  V30 3922 C 389.67 1.88386 1.3796 0
M  V30 3923 C 390.651 0.742485 1.5304 0
M  V30 3924 O 391.836 0.997959 1.66597 0
M  V30 3925 C 388.966 2.12854 2.74427 0
M  V30 3926 C 387.92 3.28702 2.74115 0
M  V30 3927 C 387.246 3.38582 4.13844 0
M  V30 3928 C 388.546 4.65881 2.3612 0
M  V30 3929 H 390.24 2.78474 1.09966 0
M  V30 3930 H 387.786 1.33988 0.527556 0
M  V30 3931 H 389.739 2.35047 3.49758 0
M  V30 3932 H 388.463 1.19535 3.03939 0
M  V30 3933 H 387.122 3.06428 2.0124 0
M  V30 3934 H 386.77 2.42784 4.40528 0
M  V30 3935 H 386.47 4.16453 4.14537 0
M  V30 3936 H 387.994 3.63031 4.90959 0
M  V30 3937 H 389.408 4.87823 3.01167 0
M  V30 3938 H 387.805 5.46444 2.48031 0
M  V30 3939 H 388.875 4.66799 1.3125 0
M  V30 3940 N 390.218 -0.567019 1.47046 0
M  V30 3941 C 391.151 -1.69016 1.53326 0
M  V30 3942 C 392.129 -1.57949 0.386126 0
M  V30 3943 O 393.313 -1.78945 0.592529 0
M  V30 3944 C 390.44 -3.07191 1.42658 0
M  V30 3945 C 389.486 -3.36733 2.6175 0
M  V30 3946 S 390.319 -3.27069 4.24012 0
M  V30 3947 C 391.475 -4.67755 4.1588 0
M  V30 3948 H 391.708 -1.63434 2.48348 0
M  V30 3949 H 389.241 -0.747048 1.35124 0
M  V30 3950 H 391.199 -3.86897 1.37191 0
M  V30 3951 H 389.86 -3.10249 0.490369 0
M  V30 3952 H 389.053 -4.37441 2.50323 0
M  V30 3953 H 388.655 -2.64627 2.64289 0
M  V30 3954 H 390.947 -5.58491 3.83529 0
M  V30 3955 H 391.89 -4.84239 5.16641 0
M  V30 3956 H 392.298 -4.45341 3.46889 0
M  V30 3957 N 391.696 -1.35014 -0.812953 0
M  V30 3958 C 392.626 -1.30069 -1.93919 0
M  V30 3959 C 393.607 -0.176275 -1.69184 0
M  V30 3960 O 394.792 -0.370227 -1.90638 0
M  V30 3961 C 391.922 -1.06547 -3.30552 0
M  V30 3962 C 390.876 -2.15561 -3.69753 0
M  V30 3963 C 390.202 -1.77214 -5.04479 0
M  V30 3964 C 391.502 -3.57476 -3.808 0
M  V30 3965 H 393.196 -2.24303 -1.98314 0
M  V30 3966 H 390.742 -1.07977 -0.952736 0
M  V30 3967 H 392.695 -1.01729 -4.08937 0
M  V30 3968 H 391.419 -0.0875719 -3.26483 0
M  V30 3969 H 390.078 -2.19466 -2.9365 0
M  V30 3970 H 389.726 -0.780589 -4.96906 0
M  V30 3971 H 389.426 -2.50184 -5.31678 0
M  V30 3972 H 390.95 -1.7391 -5.8531 0
M  V30 3973 H 392.364 -3.55929 -4.4943 0
M  V30 3974 H 390.761 -4.29152 -4.19462 0
M  V30 3975 H 391.831 -3.94091 -2.82525 0
M  V30 3976 N 393.175 1.03435 -1.18907 0
M  V30 3977 C 394.422 1.76743 -0.988334 0
M  V30 3978 C 394.75 1.88447 0.481441 0
M  V30 3979 O 394.005 1.39383 1.37371 0
M  V30 3980 C 394.304 3.19792 -1.59586 0
M  V30 3981 C 393.97 3.28108 -3.09283 0
M  V30 3982 C 392.632 3.30084 -3.5014 0
M  V30 3983 C 394.984 3.27696 -4.05296 0
M  V30 3984 C 392.312 3.29299 -4.85571 0
M  V30 3985 C 394.664 3.28451 -5.4065 0
M  V30 3986 C 393.328 3.28723 -5.80946 0
M  V30 3987 H 392.598 0.64675 -0.361657 0
M  V30 3988 H 395.245 1.21442 -1.48068 0
M  V30 3989 H 393.55 3.78136 -1.02568 0
M  V30 3990 H 395.247 3.75171 -1.41589 0
M  V30 3991 H 391.837 3.27294 -2.76725 0
M  V30 3992 H 396.021 3.25354 -3.74778 0
M  V30 3993 H 391.277 3.2783 -5.16079 0
M  V30 3994 H 395.451 3.27082 -6.14809 0
M  V30 3995 H 393.078 3.27868 -6.85862 0
M  V30 3996 N 394.653 0.992116 1.22453 0
M  V30 3997 C 395.616 0.546883 2.2258 0
M  V30 3998 C 396.616 -0.369829 1.56489 0
M  V30 3999 O 397.806 -0.161896 1.73446 0
M  V30 4000 C 394.938 -0.204659 3.40285 0
M  V30 4001 H 396.131 1.43234 2.63484 0
M  V30 4002 H 393.684 0.779239 1.3549 0
M  V30 4003 H 394.419 -1.10614 3.04853 0
M  V30 4004 H 394.204 0.45354 3.89468 0
M  V30 4005 H 395.694 -0.504358 4.14543 0
M  V30 4006 N 396.131 -1.37776 0.765217 0
M  V30 4007 C 397.078 -2.30342 0.145274 0
M  V30 4008 C 398.048 -1.5077 -0.696971 0
M  V30 4009 O 399.233 -1.79362 -0.650689 0
M  V30 4010 C 396.373 -3.37227 -0.732939 0
M  V30 4011 C 395.486 -4.31819 0.125199 0
M  V30 4012 C 394.621 -5.25777 -0.757107 0
M  V30 4013 C 393.66 -6.12012 0.103963 0
M  V30 4014 N 392.797 -6.98232 -0.735953 0
M  V30 4015 H 397.637 -2.8278 0.940195 0
M  V30 4016 H 395.174 -1.39211 0.475255 0
M  V30 4017 H 397.132 -3.97818 -1.25686 0
M  V30 4018 H 395.762 -2.86171 -1.49353 0
M  V30 4019 H 394.814 -3.7259 0.766865 0
M  V30 4020 H 396.126 -4.92509 0.789683 0
M  V30 4021 H 395.28 -5.91541 -1.34776 0
M  V30 4022 H 394.019 -4.65481 -1.45529 0
M  V30 4023 H 393.024 -5.45233 0.707197 0
M  V30 4024 H 394.249 -6.74379 0.799381 0
M  V30 4025 H 392.195 -6.40472 -1.41887 0
M  V30 4026 H 392.112 -7.55891 -0.128624 0
M  V30 4027 H 393.38 -7.68393 -1.31121 0
M  V30 4028 N 397.609 -0.515225 -1.4894 0
M  V30 4029 C 398.886 0.0879088 -1.95402 0
M  V30 4030 C 399.266 1.52745 -1.45712 0
M  V30 4031 O 398.614 2.18238 -0.677093 0
M  V30 4032 C 398.824 -0.0141055 -3.48997 0
M  V30 4033 C 400.172 0.152646 -4.24326 0
M  V30 4034 O 401.196 0.0604025 -3.56149 0
M  V30 4035 O 400.055 0.34384 -5.45417 0
M  V30 4036 H 397.149 0.0874636 -0.822362 0
M  V30 4037 H 399.695 -0.578775 -1.59525 0
M  V30 4038 H 398.467 -1.01745 -3.77841 0
M  V30 4039 H 398.09 0.692091 -3.9153 0
M  V30 4040 N 399.087 1.5561 -0.249682 0
M  V30 4041 C 400.333 1.99306 0.374841 0
M  V30 4042 C 400.666 1.13767 1.57387 0
M  V30 4043 O 399.941 0.201711 1.93451 0
M  V30 4044 C 400.224 3.51507 0.781986 0
M  V30 4045 C 400.077 4.4781 -0.422629 0
M  V30 4046 C 401.396 4.08884 1.62793 0
M  V30 4047 H 398.515 0.724572 0.134773 0
M  V30 4048 H 401.157 1.86719 -0.351549 0
M  V30 4049 H 399.307 3.62363 1.4009 0
M  V30 4050 H 400.979 4.48931 -1.06108 0
M  V30 4051 H 399.222 4.20518 -1.06524 0
M  V30 4052 H 399.893 5.51919 -0.0943766 0
M  V30 4053 H 402.369 4.01147 1.10547 0
M  V30 4054 H 401.245 5.1564 1.88166 0
M  V30 4055 H 401.506 3.57515 2.60068 0
M  V30 4056 N 400.565 -0.0233959 1.57583 0
M  V30 4057 C 401.811 -0.714119 1.89811 0
M  V30 4058 C 402.144 -1.74702 0.848113 0
M  V30 4059 O 401.419 -1.94023 -0.136135 0
M  V30 4060 C 401.702 -1.37853 3.32669 0
M  V30 4061 C 401.555 -0.358764 4.48367 0
M  V30 4062 C 402.874 -2.31101 3.7454 0
M  V30 4063 H 399.993 -0.25814 0.690314 0
M  V30 4064 H 402.635 0.0230927 1.89986 0
M  V30 4065 H 400.785 -2.00689 3.3265 0
M  V30 4066 H 402.457 0.268115 4.6052 0
M  V30 4067 H 400.7 0.321387 4.32608 0
M  V30 4068 H 401.371 -0.862242 5.45224 0
M  V30 4069 H 403.847 -1.78304 3.75961 0
M  V30 4070 H 402.723 -2.74567 4.75294 0
M  V30 4071 H 402.984 -3.18018 3.0711 0
M  V30 4072 N 402.043 -1.548 -0.295768 0
M  V30 4073 C 403.268 -1.78653 -1.05346 0
M  V30 4074 C 403.693 -0.546894 -1.79974 0
M  V30 4075 O 403.051 0.502763 -1.7419 0
M  V30 4076 C 403.099 -2.99679 -2.00561 0
M  V30 4077 O 402.203 -2.7317 -3.08953 0
M  V30 4078 H 401.544 -0.59116 -0.302367 0
M  V30 4079 H 404.074 -2.01895 -0.331598 0
M  V30 4080 H 404.084 -3.27793 -2.42932 0
M  V30 4081 H 402.759 -3.89562 -1.4565 0
M  V30 4082 H 401.336 -2.56089 -2.71059 0
M  V30 4083 N 403.521 0.559213 -1.47345 0
M  V30 4084 C 404.937 0.884943 -1.32819 0
M  V30 4085 C 405.137 1.98988 -0.317173 0
M  V30 4086 O 404.193 2.51031 0.272011 0
M  V30 4087 C 405.506 1.28007 -2.72093 0
M  V30 4088 C 407.054 1.39161 -2.80363 0
M  V30 4089 C 407.529 1.82031 -4.20272 0
M  V30 4090 N 409.02 1.89185 -4.22804 0
M  V30 4091 C 409.755 2.2368 -5.27973 0
M  V30 4092 N 409.251 2.56802 -6.43447 0
M  V30 4093 N 411.044 2.24436 -5.15349 0
M  V30 4094 H 403.195 -0.170304 -2.11716 0
M  V30 4095 H 405.458 -0.0135247 -0.947904 0
M  V30 4096 H 405.164 0.542027 -3.47498 0
M  V30 4097 H 405.038 2.23665 -3.03733 0
M  V30 4098 H 407.425 2.12048 -2.05231 0
M  V30 4099 H 407.506 0.41696 -2.52379 0
M  V30 4100 H 407.15 1.09715 -4.95908 0
M  V30 4101 H 407.08 2.80495 -4.45679 0
M  V30 4102 H 409.571 1.65982 -3.39497 0
M  V30 4103 H 409.884 2.82144 -7.19454 0
M  V30 4104 H 408.229 2.54387 -6.46771 0
M  V30 4105 H 411.42 1.97998 -4.24163 0
M  V30 4106 H 411.593 2.50989 -5.97418 0
M  V30 4107 N 404.999 1.35443 0.805782 0
M  V30 4108 C 405.947 1.28465 1.93906 0
M  V30 4109 C 406.941 0.17943 1.68447 0
M  V30 4110 O 408.147 0.345459 1.76654 0
M  V30 4111 H 404.522 0.399528 0.637088 0
M  V30 4112 H 406.493 2.24206 1.96912 0
M  V30 4113 C 405.242 1.07432 3.30687 0
M  V30 4114 H 404.565 1.91716 3.50835 0
M  V30 4115 H 406.005 1.06591 4.10383 0
M  V30 4116 C 404.464 -0.22179 3.36169 0
M  V30 4117 O 404.994 -1.21731 3.82811 0
M  V30 4118 N 403.2 -0.260841 2.89427 0
M  V30 4119 H 402.747 0.549884 2.51663 0
M  V30 4120 H 402.705 -1.12777 2.93477 0
M  V30 4121 N 406.477 -1.02803 1.19454 0
M  V30 4122 C 407.888 -1.57667 0.999899 0
M  V30 4123 C 408.239 -1.91041 -0.446956 0
M  V30 4124 O 407.364 -1.70978 -1.32648 0
M  V30 4125 C 407.959 -2.86477 1.80877 0
M  V30 4126 C 406.518 -3.37911 1.65811 0
M  V30 4127 C 405.665 -2.11343 1.79526 0
M  V30 4128 H 408.616 -0.853214 1.33813 0
M  V30 4129 H 408.637 -3.57408 1.30536 0
M  V30 4130 H 408.149 -2.62155 2.86175 0
M  V30 4131 H 406.25 -3.67218 0.63102 0
M  V30 4132 H 406.363 -4.10885 2.46395 0
M  V30 4133 H 404.727 -2.23254 1.22596 0
M  V30 4134 H 405.51 -1.89461 2.86285 0
M  V30 4135 N 407.956 -0.998596 -1.21925 0
M  V30 4136 C 409.204 -0.676325 -1.90448 0
M  V30 4137 C 409.525 0.794719 -1.78071 0
M  V30 4138 O 408.795 1.5701 -1.17152 0
M  V30 4139 H 407.375 -0.247165 -0.704925 0
M  V30 4140 H 410.037 -1.26633 -1.48156 0
M  V30 4141 H 409.133 -0.943858 -2.97486 0
M  V30 4142 N 409.434 1.37368 -0.772513 0
M  V30 4143 C 410.397 2.28601 -0.165541 0
M  V30 4144 C 411.397 1.48062 0.627238 0
M  V30 4145 O 412.587 1.68268 0.450715 0
M  V30 4146 C 409.719 3.32023 0.772897 0
M  V30 4147 H 410.912 2.83787 -0.969787 0
M  V30 4148 H 408.465 1.46647 -0.540775 0
M  V30 4149 H 409.2 2.81962 1.60212 0
M  V30 4150 H 408.985 3.91555 0.206585 0
M  V30 4151 H 410.475 4.00197 1.19298 0
M  V30 4152 N 410.912 0.523116 1.48665 0
M  V30 4153 C 412.189 -0.0775449 1.95446 0
M  V30 4154 C 412.569 -1.5197 1.4652 0
M  V30 4155 O 411.917 -2.17876 0.688657 0
M  V30 4156 C 412.127 0.0326135 3.48985 0
M  V30 4157 C 413.475 -0.130141 4.24401 0
M  V30 4158 O 414.499 -0.0415142 3.56176 0
M  V30 4159 O 413.358 -0.31491 5.45592 0
M  V30 4160 H 410.452 -0.0831012 0.822814 0
M  V30 4161 H 412.998 0.587227 1.59216 0
M  V30 4162 H 411.77 1.03748 3.77296 0
M  V30 4163 H 411.393 -0.671317 3.91892 0
M  V30 4164 N 412.39 -1.55475 0.257931 0
M  V30 4165 C 413.639 -1.98383 -0.364275 0
M  V30 4166 C 413.952 -1.14952 -1.58258 0
M  V30 4167 O 415.158 -1.47924 -2.27664 0
M  V30 4168 C 413.614 -3.53037 -0.699479 0
M  V30 4169 C 413.222 -4.45223 0.498046 0
M  V30 4170 C 414.966 -4.04575 -1.28526 0
M  V30 4171 C 412.873 -5.91238 0.138383 0
M  V30 4172 H 411.803 -0.740911 -0.13988 0
M  V30 4173 H 414.454 -1.79936 0.359883 0
M  V30 4174 H 412.836 -3.6722 -1.48207 0
M  V30 4175 H 414.01 -4.42803 1.27522 0
M  V30 4176 H 412.325 -4.04226 0.999503 0
M  V30 4177 H 414.922 -5.11196 -1.56788 0
M  V30 4178 H 415.265 -3.5258 -2.21344 0
M  V30 4179 H 415.798 -3.93762 -0.565337 0
M  V30 4180 H 412.537 -6.47294 1.03398 0
M  V30 4181 H 412.057 -5.96768 -0.602374 0
M  V30 4182 H 413.736 -6.46413 -0.27553 0
M  V30 4183 N 413.868 0.0150385 -1.57593 0
M  V30 4184 C 415.117 0.702115 -1.89085 0
M  V30 4185 C 415.43 1.75764 -0.858277 0
M  V30 4186 O 416.636 2.49829 -1.0629 0
M  V30 4187 C 415.092 1.29992 -3.35604 0
M  V30 4188 C 414.7 0.280007 -4.47124 0
M  V30 4189 C 416.444 1.96606 -3.76227 0
M  V30 4190 C 414.351 0.886949 -5.84711 0
M  V30 4191 H 413.281 0.265997 -0.705522 0
M  V30 4192 H 415.932 -0.0430408 -1.8345 0
M  V30 4193 H 414.314 2.09525 -3.36029 0
M  V30 4194 H 415.488 -0.489631 -4.58191 0
M  V30 4195 H 413.803 -0.284835 -4.15425 0
M  V30 4196 H 416.4 2.42893 -4.76347 0
M  V30 4197 H 416.743 2.79024 -3.08952 0
M  V30 4198 H 417.276 1.23828 -3.78036 0
M  V30 4199 H 414.015 0.101876 -6.55421 0
M  V30 4200 H 413.535 1.6261 -5.77337 0
M  V30 4201 H 415.214 1.39011 -6.3189 0
M  V30 4202 N 415.346 1.54954 0.287554 0
M  V30 4203 C 416.593 1.74873 1.02106 0
M  V30 4204 C 416.921 0.541829 1.86801 0
M  V30 4205 O 416.176 -0.475992 1.89823 0
M  V30 4206 C 416.475 2.99833 1.94512 0
M  V30 4207 C 416.141 4.33029 1.25686 0
M  V30 4208 C 414.803 4.69233 1.06649 0
M  V30 4209 C 417.155 5.15542 0.765913 0
M  V30 4210 C 414.483 5.85518 0.372222 0
M  V30 4211 C 416.835 6.32542 0.0853101 0
M  V30 4212 C 415.499 6.67398 -0.1169 0
M  V30 4213 H 414.769 0.639906 0.373632 0
M  V30 4214 H 417.416 1.89219 0.294665 0
M  V30 4215 H 415.721 2.80325 2.73725 0
M  V30 4216 H 417.418 3.1244 2.51361 0
M  V30 4217 H 414.008 4.04564 1.41512 0
M  V30 4218 H 418.192 4.88059 0.90066 0
M  V30 4219 H 413.448 6.11057 0.204695 0
M  V30 4220 H 417.622 6.95741 -0.302936 0
M  V30 4221 H 415.249 7.57357 -0.656859 0
M  V30 4222 N 416.824 -0.551391 1.4764 0
M  V30 4223 C 418.101 -1.31229 1.45046 0
M  V30 4224 C 418.481 -2.10563 0.150527 0
M  V30 4225 O 417.829 -2.11374 -0.867956 0
M  V30 4226 C 418.039 -2.21189 2.69956 0
M  V30 4227 C 419.387 -2.82021 3.1741 0
M  V30 4228 O 420.411 -2.31488 2.70724 0
M  V30 4229 O 419.27 -3.73885 3.98588 0
M  V30 4230 H 416.364 -0.591193 0.578291 0
M  V30 4231 H 418.91 -0.569813 1.59847 0
M  V30 4232 H 417.682 -1.62207 3.56096 0
M  V30 4233 H 417.305 -3.02722 2.57769 0
M  V30 4234 N 418.302 -1.35869 -0.798587 0
M  V30 4235 C 419.548 -1.2978 -1.55836 0
M  V30 4236 C 419.881 0.125322 -1.93795 0
M  V30 4237 O 419.156 1.07658 -1.61987 0
M  V30 4238 C 419.439 -2.21188 -2.84162 0
M  V30 4239 C 419.292 -3.72155 -2.52628 0
M  V30 4240 C 420.611 -2.11545 -3.85923 0
M  V30 4241 H 417.73 -0.472769 -0.565383 0
M  V30 4242 H 420.372 -1.66341 -0.918192 0
M  V30 4243 H 418.522 -1.90139 -3.38791 0
M  V30 4244 H 420.194 -4.13682 -2.04121 0
M  V30 4245 H 418.437 -3.92042 -1.85704 0
M  V30 4246 H 419.108 -4.31511 -3.44242 0
M  V30 4247 H 421.584 -2.38855 -3.40716 0
M  V30 4248 H 420.46 -2.77688 -4.73477 0
M  V30 4249 H 420.721 -1.09987 -4.282 0
M  V30 4250 N 419.78 1.02168 -1.19998 0
M  V30 4251 C 420.727 2.10601 -0.944228 0
M  V30 4252 C 421.697 1.65639 0.123664 0
M  V30 4253 O 422.882 1.9079 -0.0199941 0
M  V30 4254 C 420.022 3.41504 -0.496865 0
M  V30 4255 C 419.135 3.99973 -1.63234 0
M  V30 4256 C 418.27 5.18915 -1.13579 0
M  V30 4257 C 417.309 5.69456 -2.24468 0
M  V30 4258 N 416.446 6.79665 -1.76068 0
M  V30 4259 H 421.286 2.31814 -1.8726 0
M  V30 4260 H 418.823 1.13686 -0.933483 0
M  V30 4261 H 420.781 4.16626 -0.218843 0
M  V30 4262 H 419.411 3.2038 0.394508 0
M  V30 4263 H 418.463 3.21997 -2.0254 0
M  V30 4264 H 419.775 4.33492 -2.46752 0
M  V30 4265 H 418.929 6.01222 -0.813429 0
M  V30 4266 H 417.668 4.8695 -0.270434 0
M  V30 4267 H 416.673 4.85757 -2.57526 0
M  V30 4268 H 417.898 6.03459 -3.11472 0
M  V30 4269 H 415.844 6.49538 -0.918516 0
M  V30 4270 H 415.761 7.12349 -2.5317 0
M  V30 4271 H 417.029 7.65549 -1.46817 0
M  V30 4272 N 421.258 1.00505 1.21394 0
M  V30 4273 C 422.498 0.696149 1.9218 0
M  V30 4274 C 422.862 -0.759099 1.76357 0
M  V30 4275 O 424.063 -1.17998 2.41516 0
M  V30 4276 C 422.334 1.10571 3.39866 0
M  V30 4277 S 423.893 0.91702 4.29111 0
M  V30 4278 H 420.711 0.254147 0.664026 0
M  V30 4279 H 423.313 1.28988 1.46909 0
M  V30 4280 H 422.017 2.16096 3.489 0
M  V30 4281 H 421.548 0.504268 3.90155 0
M  V30 4282 H 423.563 -0.185855 4.95852 0
M  V30 4283 N 422.737 -1.36956 0.779787 0
M  V30 4284 C 423.965 -2.03755 0.359398 0
M  V30 4285 C 424.38 -1.58807 -1.02106 0
M  V30 4286 O 423.737 -0.773024 -1.6532 0
M  V30 4287 C 423.788 -3.59251 0.402568 0
M  V30 4288 O 423.509 -4.02557 1.72858 0
M  V30 4289 C 425.01 -4.43291 -0.0284068 0
M  V30 4290 H 422.23 -0.654148 0.149437 0
M  V30 4291 H 424.774 -1.75128 1.05595 0
M  V30 4292 H 422.929 -3.86621 -0.245478 0
M  V30 4293 H 423.343 -4.97111 1.67275 0
M  V30 4294 H 424.817 -5.51975 0.0529466 0
M  V30 4295 H 425.294 -4.25719 -1.07982 0
M  V30 4296 H 425.9 -4.21163 0.591758 0
M  V30 4297 N 424.215 -0.530993 -1.48385 0
M  V30 4298 C 425.631 -0.188919 -1.58478 0
M  V30 4299 C 425.831 1.30786 -1.53288 0
M  V30 4300 O 424.887 2.08619 -1.42248 0
M  V30 4301 C 426.2 -0.792343 -2.90073 0
M  V30 4302 C 427.748 -0.76117 -3.03604 0
M  V30 4303 C 428.223 -1.34319 -4.37861 0
M  V30 4304 N 429.714 -1.3052 -4.44431 0
M  V30 4305 C 430.449 -1.72543 -5.46824 0
M  V30 4306 N 429.945 -2.22299 -6.56167 0
M  V30 4307 N 431.738 -1.63773 -5.37712 0
M  V30 4308 H 423.889 -1.50377 -1.50002 0
M  V30 4309 H 426.152 -0.625559 -0.712306 0
M  V30 4310 H 425.858 -1.84323 -2.99529 0
M  V30 4311 H 425.732 -0.270026 -3.76232 0
M  V30 4312 H 428.119 0.280957 -2.93759 0
M  V30 4313 H 428.2 -1.32097 -2.19053 0
M  V30 4314 H 427.844 -2.38425 -4.4846 0
M  V30 4315 H 427.774 -0.759064 -5.21101 0
M  V30 4316 H 430.265 -0.940973 -3.65997 0
M  V30 4317 H 430.578 -2.52356 -7.30436 0
M  V30 4318 H 428.923 -2.26293 -6.57127 0
M  V30 4319 H 432.114 -1.24698 -4.51185 0
M  V30 4320 H 432.287 -1.96844 -6.17379 0
M  V30 4321 N 425.693 1.55336 -0.266172 0
M  V30 4322 C 427.109 1.59356 0.0882065 0
M  V30 4323 C 427.309 1.2834 1.55342 0
M  V30 4324 O 426.365 1.03996 2.30089 0
M  V30 4325 C 427.678 2.99409 -0.278364 0
M  V30 4326 C 429.226 3.12196 -0.224243 0
M  V30 4327 C 429.701 4.545 -0.565123 0
M  V30 4328 N 431.192 4.60313 -0.51634 0
M  V30 4329 C 431.927 5.68434 -0.753013 0
M  V30 4330 N 431.423 6.84738 -1.05383 0
M  V30 4331 N 433.216 5.57942 -0.682414 0
M  V30 4332 H 425.367 1.73764 -1.22147 0
M  V30 4333 H 427.63 0.809822 -0.492841 0
M  V30 4334 H 427.336 3.2691 -1.29703 0
M  V30 4335 H 427.21 3.75228 0.385186 0
M  V30 4336 H 429.597 2.84464 0.78512 0
M  V30 4337 H 429.678 2.38609 -0.921922 0
M  V30 4338 H 429.322 4.82956 -1.57213 0
M  V30 4339 H 429.252 5.26374 0.154248 0
M  V30 4340 H 431.743 3.7676 -0.29335 0
M  V30 4341 H 432.056 7.63088 -1.22133 0
M  V30 4342 H 430.401 6.86375 -1.09151 0
M  V30 4343 H 433.592 4.65958 -0.44731 0
M  V30 4344 H 433.765 6.4213 -0.870248 0
M  V30 4345 N 427.171 -0.0066808 1.57599 0
M  V30 4346 C 428.101 -0.999296 2.11036 0
M  V30 4347 C 429.082 -1.36278 1.01795 0
M  V30 4348 O 430.267 -1.4477 1.29442 0
M  V30 4349 C 427.397 -2.29328 2.60818 0
M  V30 4350 C 426.351 -2.07159 3.74525 0
M  V30 4351 C 425.677 -3.42512 4.10596 0
M  V30 4352 C 426.977 -1.43959 5.02069 0
M  V30 4353 H 428.671 -0.554382 2.94223 0
M  V30 4354 H 426.217 -0.265221 1.41536 0
M  V30 4355 H 428.17 -2.99117 2.96828 0
M  V30 4356 H 426.894 -2.7592 1.74745 0
M  V30 4357 H 425.553 -1.39797 3.38899 0
M  V30 4358 H 425.201 -3.86795 3.21556 0
M  V30 4359 H 424.901 -3.28498 4.87199 0
M  V30 4360 H 426.425 -4.13628 4.4916 0
M  V30 4361 H 427.839 -2.03696 5.35893 0
M  V30 4362 H 426.236 -1.40452 5.83432 0
M  V30 4363 H 427.306 -0.407992 4.83181 0
M  V30 4364 N 428.649 -1.55105 -0.279332 0
M  V30 4365 C 429.898 -1.74618 -1.00952 0
M  V30 4366 C 430.211 -0.551096 -1.87676 0
M  V30 4367 O 431.417 -0.628507 -2.64125 0
M  V30 4368 C 429.873 -3.09025 -1.84476 0
M  V30 4369 C 429.481 -4.36081 -1.0265 0
M  V30 4370 C 431.225 -3.37891 -2.56963 0
M  V30 4371 C 429.132 -5.6153 -1.85576 0
M  V30 4372 H 428.062 -0.650868 -0.38064 0
M  V30 4373 H 430.713 -1.81569 -0.265475 0
M  V30 4374 H 429.095 -2.96095 -2.62952 0
M  V30 4375 H 430.269 -4.59909 -0.286354 0
M  V30 4376 H 428.584 -4.14312 -0.416464 0
M  V30 4377 H 431.181 -4.28822 -3.19399 0
M  V30 4378 H 431.524 -2.57737 -3.26921 0
M  V30 4379 H 432.057 -3.5189 -1.85522 0
M  V30 4380 H 428.796 -6.44413 -1.2005 0
M  V30 4381 H 428.316 -5.41854 -2.57204 0
M  V30 4382 H 429.995 -5.99594 -2.43096 0
M  V30 4383 N 430.127 0.543554 -1.4793 0
M  V30 4384 C 431.09 1.63156 -1.60975 0
M  V30 4385 C 432.09 1.53346 -0.483899 0
M  V30 4386 O 433.28 1.5726 -0.749339 0
M  V30 4387 C 430.412 3.02743 -1.56716 0
M  V30 4388 H 431.605 1.52934 -2.57975 0
M  V30 4389 H 429.158 0.764557 -1.36324 0
M  V30 4390 H 429.893 3.18484 -0.611418 0
M  V30 4391 H 429.678 3.11272 -2.38438 0
M  V30 4392 H 431.168 3.81871 -1.6901 0
M  V30 4393 N 431.605 1.3629 0.791371 0
M  V30 4394 C 432.535 1.33137 1.91825 0
M  V30 4395 C 433.516 0.203168 1.68882 0
M  V30 4396 O 434.701 0.400509 1.90025 0
M  V30 4397 C 431.831 1.11793 3.28816 0
M  V30 4398 C 430.785 2.21417 3.66277 0
M  V30 4399 C 430.111 1.85218 5.01596 0
M  V30 4400 C 431.411 3.63489 3.75064 0
M  V30 4401 H 433.105 2.2743 1.9472 0
M  V30 4402 H 430.651 1.09479 0.935437 0
M  V30 4403 H 432.604 1.08222 4.07266 0
M  V30 4404 H 431.328 0.139501 3.26302 0
M  V30 4405 H 429.987 2.2411 2.90121 0
M  V30 4406 H 429.635 0.859544 4.95602 0
M  V30 4407 H 429.335 2.58611 5.27631 0
M  V30 4408 H 430.859 1.832 5.82469 0
M  V30 4409 H 432.273 3.63034 4.43711 0
M  V30 4410 H 430.67 4.35771 4.12582 0
M  V30 4411 H 431.74 3.98536 2.76219 0
M  V30 4412 N 433.083 -1.0153 1.20538 0
M  V30 4413 C 434.332 -1.74558 1.01057 0
M  V30 4414 C 434.645 -1.90168 -0.457756 0
M  V30 4415 O 435.851 -2.60301 -0.771722 0
M  V30 4416 C 434.307 -3.13963 1.75941 0
M  V30 4417 C 433.915 -3.06361 3.26875 0
M  V30 4418 C 435.659 -3.91191 1.64832 0
M  V30 4419 C 433.566 -4.40782 3.94291 0
M  V30 4420 H 432.496 -0.654417 0.374505 0
M  V30 4421 H 435.147 -1.13521 1.44171 0
M  V30 4422 H 433.529 -3.75549 1.25614 0
M  V30 4423 H 434.703 -2.54074 3.84425 0
M  V30 4424 H 433.018 -2.42625 3.38411 0
M  V30 4425 H 435.615 -4.90644 2.12539 0
M  V30 4426 H 435.958 -4.11884 0.604745 0
M  V30 4427 H 436.491 -3.36236 2.12579 0
M  V30 4428 H 433.23 -4.25292 4.98805 0
M  V30 4429 H 432.75 -4.9307 3.41529 0
M  V30 4430 H 434.429 -5.09621 3.98617 0
M  V30 4431 N 434.561 -1.01147 -1.20859 0
M  V30 4432 C 435.786 -0.716698 -1.94623 0
M  V30 4433 C 436.211 0.715415 -1.73964 0
M  V30 4434 O 435.569 1.49157 -1.03062 0
M  V30 4435 C 435.617 -1.0513 -3.44935 0
M  V30 4436 O 434.721 -0.160131 -4.12089 0
M  V30 4437 H 434.062 -0.266404 -0.608214 0
M  V30 4438 H 436.592 -1.35346 -1.53436 0
M  V30 4439 H 436.602 -1.00086 -3.95533 0
M  V30 4440 H 435.277 -2.09475 -3.59295 0
M  V30 4441 H 433.854 -0.267657 -3.71938 0
M  V30 4442 N 436.039 1.36541 -0.78704 0
M  V30 4443 C 437.287 1.98911 -0.357633 0
M  V30 4444 C 437.608 1.62778 1.07371 0
M  V30 4445 O 436.878 0.900612 1.73971 0
M  V30 4446 H 435.458 0.735734 -0.129246 0
M  V30 4447 H 438.12 1.66776 -1.00855 0
M  V30 4448 H 437.216 3.08874 -0.447549 0
M  V30 4449 N 437.518 0.538854 1.48102 0
M  V30 4450 C 438.748 0.0122958 2.06596 0
M  V30 4451 C 439.156 -1.27861 1.39457 0
M  V30 4452 O 438.499 -1.77348 0.478907 0
M  V30 4453 C 438.561 -0.273131 3.58461 0
M  V30 4454 C 438.225 0.92561 4.47528 0
M  V30 4455 C 439.222 1.82637 4.86765 0
M  V30 4456 C 436.907 1.13511 4.89306 0
M  V30 4457 C 438.901 2.92047 5.66558 0
M  V30 4458 C 436.588 2.23233 5.68868 0
M  V30 4459 C 437.586 3.12333 6.07402 0
M  V30 4460 O 437.274 4.20155 6.85365 0
M  V30 4461 H 437.006 0.0344283 0.675123 0
M  V30 4462 H 439.56 0.746494 1.91355 0
M  V30 4463 H 437.79 -1.06141 3.71848 0
M  V30 4464 H 439.479 -0.742842 3.99045 0
M  V30 4465 H 440.245 1.67649 4.55103 0
M  V30 4466 H 436.124 0.450835 4.5879 0
M  V30 4467 H 439.668 3.6162 5.96554 0
M  V30 4468 H 435.565 2.38201 5.99942 0
M  V30 4469 H 436.333 4.17975 7.03732 0
M  V30 4470 N 438.996 -1.55193 0.274407 0
M  V30 4471 C 440.244 -1.99187 -0.341902 0
M  V30 4472 C 440.565 -1.16422 -1.56431 0
M  V30 4473 O 439.835 -0.253573 -1.94252 0
M  V30 4474 H 438.415 -0.735721 -0.129317 0
M  V30 4475 H 441.077 -1.91168 0.379578 0
M  V30 4476 H 440.173 -3.05629 -0.632253 0
M  V30 4477 N 440.474 -0.00167713 -1.576 0
M  V30 4478 C 441.722 0.681471 -1.90264 0
M  V30 4479 C 442.043 1.7422 -0.875924 0
M  V30 4480 O 441.313 1.95709 0.0864412 0
M  V30 4481 H 439.893 0.254696 -0.702239 0
M  V30 4482 H 442.555 -0.0429996 -1.94853 0
M  V30 4483 H 441.651 1.15166 -2.90075 0
M  V30 4484 N 441.952 1.55251 0.271103 0
M  V30 4485 C 443.368 1.47133 0.618393 0
M  V30 4486 C 443.568 0.686994 1.89427 0
M  V30 4487 O 442.624 0.206609 2.51653 0
M  V30 4488 C 443.937 2.91361 0.743593 0
M  V30 4489 C 445.485 3.01587 0.837522 0
M  V30 4490 C 445.96 4.47073 0.994483 0
M  V30 4491 N 447.451 4.50909 1.05996 0
M  V30 4492 C 448.186 5.60698 1.20024 0
M  V30 4493 N 447.682 6.80348 1.30759 0
M  V30 4494 N 449.475 5.48444 1.23149 0
M  V30 4495 H 441.626 2.04698 -0.566784 0
M  V30 4496 H 443.889 0.928319 -0.192165 0
M  V30 4497 H 443.595 3.51483 -0.123493 0
M  V30 4498 H 443.469 3.40484 1.62328 0
M  V30 4499 H 445.856 2.4156 1.69507 0
M  V30 4500 H 445.937 2.55713 -0.0668086 0
M  V30 4501 H 445.581 5.07703 0.141582 0
M  V30 4502 H 445.511 4.90605 1.91349 0
M  V30 4503 H 448.002 3.6472 0.989316 0
M  V30 4504 H 448.315 7.59772 1.41303 0
M  V30 4505 H 446.66 6.83156 1.27761 0
M  V30 4506 H 449.851 4.53907 1.14394 0
M  V30 4507 H 450.024 6.34049 1.33738 0
M  V30 4508 N 443.43 -0.535701 1.48216 0
M  V30 4509 C 444.841 -1.11769 1.49548 0
M  V30 4510 C 445.192 -1.94442 0.26207 0
M  V30 4511 O 444.317 -2.06987 -0.631287 0
M  V30 4512 C 444.912 -2.03367 2.70975 0
M  V30 4513 C 443.471 -2.56795 2.75196 0
M  V30 4514 C 442.618 -1.33631 2.42977 0
M  V30 4515 H 445.569 -0.321232 1.55415 0
M  V30 4516 H 445.59 -2.87569 2.49167 0
M  V30 4517 H 445.102 -1.43169 3.60727 0
M  V30 4518 H 443.203 -3.20731 1.89638 0
M  V30 4519 H 443.316 -2.9632 3.76472 0
M  V30 4520 H 441.68 -1.6502 1.94012 0
M  V30 4521 H 442.463 -0.75194 3.34964 0
M  V30 4522 N 444.908 -1.36708 -0.784132 0
M  V30 4523 C 446.154 -1.31426 -1.54451 0
M  V30 4524 C 446.487 0.10476 -1.93917 0
M  V30 4525 O 445.762 1.05934 -1.6312 0
M  V30 4526 C 446.045 -2.24189 -2.818 0
M  V30 4527 C 445.898 -3.74813 -2.48667 0
M  V30 4528 C 447.217 -2.15626 -3.83658 0
M  V30 4529 H 444.336 -0.478739 -0.560337 0
M  V30 4530 H 446.978 -1.67305 -0.900498 0
M  V30 4531 H 445.128 -1.93722 -3.36755 0
M  V30 4532 H 446.8 -4.15823 -1.99722 0
M  V30 4533 H 445.043 -3.93989 -1.81535 0
M  V30 4534 H 445.714 -4.35138 -3.39646 0
M  V30 4535 H 448.19 -2.42456 -3.38163 0
M  V30 4536 H 447.066 -2.82694 -4.70506 0
M  V30 4537 H 447.327 -1.14522 -4.27009 0
M  V30 4538 N 446.386 1.0089 -1.21074 0
M  V30 4539 C 447.319 2.09279 -0.909806 0
M  V30 4540 C 448.297 1.61986 0.141145 0
M  V30 4541 O 449.481 1.88495 0.0130332 0
M  V30 4542 C 446.608 3.36723 -0.365374 0
M  V30 4543 C 445.654 4.02919 -1.39852 0
M  V30 4544 S 446.487 4.45835 -2.96633 0
M  V30 4545 C 447.643 5.76471 -2.43786 0
M  V30 4546 H 447.876 2.34484 -1.82769 0
M  V30 4547 H 445.409 1.14115 -1.04006 0
M  V30 4548 H 447.367 4.10459 -0.0578203 0
M  V30 4549 H 446.028 3.09577 0.531136 0
M  V30 4550 H 445.221 4.94634 -0.967117 0
M  V30 4551 H 444.823 3.35441 -1.65395 0
M  V30 4552 H 447.115 6.52027 -1.84029 0
M  V30 4553 H 448.058 6.24418 -3.33928 0
M  V30 4554 H 448.466 5.33104 -1.85636 0
M  V30 4555 N 447.864 1.01787 1.20321 0
M  V30 4556 C 449.11 0.718699 1.90279 0
M  V30 4557 C 449.465 -0.743669 1.77447 0
M  V30 4558 O 448.758 -1.53345 1.14874 0
M  V30 4559 C 448.952 1.09076 3.40349 0
M  V30 4560 C 448.781 2.58775 3.67784 0
M  V30 4561 C 447.551 3.25578 3.86428 0
M  V30 4562 C 449.749 3.56966 3.70243 0
M  V30 4563 N 447.731 4.64495 4.01395 0
M  V30 4564 C 449.102 4.8145 3.90649 0
M  V30 4565 C 451.157 3.5092 3.53213 0
M  V30 4566 C 449.86 6.00619 3.95789 0
M  V30 4567 C 451.886 4.69493 3.59625 0
M  V30 4568 C 451.248 5.92786 3.80505 0
M  V30 4569 H 447.347 0.31468 0.715891 0
M  V30 4570 H 449.931 1.30295 1.44677 0
M  V30 4571 H 448.102 0.534839 3.847 0
M  V30 4572 H 449.834 0.744997 3.97784 0
M  V30 4573 H 446.589 2.76003 3.84862 0
M  V30 4574 H 447.013 5.36624 4.12752 0
M  V30 4575 H 451.655 2.56593 3.36035 0
M  V30 4576 H 449.373 6.95326 4.11762 0
M  V30 4577 H 452.959 4.66432 3.47754 0
M  V30 4578 H 451.839 6.83003 3.85327 0
M  V30 4579 N 449.342 -1.36122 0.79427 0
M  V30 4580 C 450.289 -2.29982 0.194101 0
M  V30 4581 C 451.259 -1.52214 -0.664833 0
M  V30 4582 O 452.444 -1.80702 -0.612498 0
M  V30 4583 C 449.584 -3.38706 -0.661244 0
M  V30 4584 C 448.697 -4.31456 0.216766 0
M  V30 4585 C 447.832 -5.27265 -0.645411 0
M  V30 4586 C 446.871 -6.11653 0.233756 0
M  V30 4587 N 446.008 -6.99636 -0.587682 0
M  V30 4588 H 450.848 -2.80722 0.999965 0
M  V30 4589 H 448.385 -1.38172 0.504677 0
M  V30 4590 H 450.343 -4.00394 -1.17219 0
M  V30 4591 H 448.973 -2.89274 -1.43249 0
M  V30 4592 H 448.025 -3.7088 0.845724 0
M  V30 4593 H 449.337 -4.90724 0.893973 0
M  V30 4594 H 448.491 -5.94266 -1.22198 0
M  V30 4595 H 447.23 -4.68463 -1.35623 0
M  V30 4596 H 446.235 -5.4361 0.82269 0
M  V30 4597 H 447.46 -6.72531 0.942247 0
M  V30 4598 H 445.406 -6.43337 -1.2827 0
M  V30 4599 H 445.323 -7.55993 0.0317402 0
M  V30 4600 H 446.591 -7.71001 -1.14792 0
M  V30 4601 N 450.82 -0.546701 -1.47814 0
M  V30 4602 C 452.048 -0.0232857 -2.06887 0
M  V30 4603 C 452.463 1.26571 -1.4009 0
M  V30 4604 O 451.82 1.7569 -0.493906 0
M  V30 4605 C 451.871 0.186975 -3.61016 0
M  V30 4606 O 451.592 -1.05097 -4.25307 0
M  V30 4607 C 453.093 0.748872 -4.36929 0
M  V30 4608 H 450.313 -0.0410763 -0.669742 0
M  V30 4609 H 452.857 -0.757117 -1.89968 0
M  V30 4610 H 451.012 0.870903 -3.77484 0
M  V30 4611 H 451.426 -0.842121 -5.17695 0
M  V30 4612 H 452.9 0.845334 -5.45489 0
M  V30 4613 H 453.377 1.75772 -4.02493 0
M  V30 4614 H 453.983 0.100979 -4.2518 0
M  V30 4615 N 452.299 1.55045 -0.282633 0
M  V30 4616 C 453.547 1.99365 0.331334 0
M  V30 4617 C 453.868 1.1725 1.55812 0
M  V30 4618 O 453.138 0.263871 1.94115 0
M  V30 4619 H 451.718 0.736397 0.125414 0
M  V30 4620 H 454.38 1.90964 -0.389711 0
M  V30 4621 H 453.476 3.0596 0.616036 0
M  V30 4622 N 453.777 0.010035 1.57597 0
M  V30 4623 C 454.727 -0.986858 2.05536 0
M  V30 4624 C 455.711 -1.29711 0.952042 0
M  V30 4625 O 456.903 -1.28641 1.21575 0
M  V30 4626 C 454.032 -2.2756 2.57043 0
M  V30 4627 C 453.118 -1.99455 3.74271 0
M  V30 4628 N 453.509 -1.41546 4.85591 0
M  V30 4629 C 451.807 -2.29547 3.82393 0
M  V30 4630 C 452.508 -1.3014 5.66956 0
M  V30 4631 N 451.484 -1.79044 5.13268 0
M  V30 4632 H 455.286 -0.533778 2.89012 0
M  V30 4633 H 452.8 -0.195432 1.6122 0
M  V30 4634 H 454.797 -2.99829 2.89669 0
M  V30 4635 H 453.457 -2.73512 1.7499 0
M  V30 4636 H 454.468 -1.09294 5.06236 0
M  V30 4637 H 451.145 -2.78304 3.11213 0
M  V30 4638 H 452.535 -0.855237 6.66435 0
M  V30 4639 N 455.255 -1.55392 -0.262866 0
M  V30 4640 C 456.48 -1.80847 -1.01533 0
M  V30 4641 C 456.905 -0.584946 -1.78774 0
M  V30 4642 O 456.263 0.465701 -1.75217 0
M  V30 4643 C 456.311 -3.03866 -1.94159 0
M  V30 4644 O 455.415 -2.79662 -3.03089 0
M  V30 4645 H 454.756 -0.597441 -0.289759 0
M  V30 4646 H 457.286 -2.02553 -0.288698 0
M  V30 4647 H 457.296 -3.32872 -2.35924 0
M  V30 4648 H 455.971 -3.92564 -1.37354 0
M  V30 4649 H 454.548 -2.61781 -2.65566 0
M  V30 4650 N 456.733 0.527833 -1.48498 0
M  V30 4651 C 457.663 1.64136 -1.66077 0
M  V30 4652 C 458.644 1.62286 -0.509625 0
M  V30 4653 O 459.829 1.79449 -0.742413 0
M  V30 4654 C 456.959 3.02717 -1.70234 0
M  V30 4655 C 455.913 3.19426 -2.8487 0
M  V30 4656 C 455.239 4.5909 -2.74118 0
M  V30 4657 C 456.539 3.01993 -4.26142 0
M  V30 4658 H 458.233 1.4968 -2.593 0
M  V30 4659 H 455.779 0.718654 -1.24785 0
M  V30 4660 H 457.732 3.80491 -1.8112 0
M  V30 4661 H 456.456 3.18201 -0.735911 0
M  V30 4662 H 455.115 2.4407 -2.73542 0
M  V30 4663 H 454.763 4.71413 -1.7544 0
M  V30 4664 H 454.463 4.71214 -3.51042 0
M  V30 4665 H 455.987 5.3896 -2.86974 0
M  V30 4666 H 457.401 3.69558 -4.38292 0
M  V30 4667 H 455.798 3.2561 -5.04082 0
M  V30 4668 H 456.868 1.98396 -4.42456 0
M  V30 4669 N 458.211 1.37122 0.776871 0
M  V30 4670 C 459.46 1.31373 1.53049 0
M  V30 4671 C 459.773 -0.101016 1.95339 0
M  V30 4672 O 460.979 -0.280953 2.70042 0
M  V30 4673 C 459.435 2.30567 2.76346 0
M  V30 4674 C 459.043 3.77543 2.41175 0
M  V30 4675 C 460.787 2.33818 3.54301 0
M  V30 4676 C 458.694 4.68481 3.60943 0
M  V30 4677 H 457.624 0.488234 0.574581 0
M  V30 4678 H 460.275 1.62554 0.851372 0
M  V30 4679 H 458.657 1.92396 3.46121 0
M  V30 4680 H 459.831 4.24521 1.79216 0
M  V30 4681 H 458.146 3.77187 1.76405 0
M  V30 4682 H 460.743 2.98965 4.4331 0
M  V30 4683 H 461.086 1.3503 3.93793 0
M  V30 4684 H 461.619 2.7067 2.91518 0
M  V30 4685 H 458.358 5.68378 3.26537 0
M  V30 4686 H 457.878 4.2621 4.22025 0
M  V30 4687 H 459.557 4.85366 4.27819 0
M  V30 4688 N 459.689 -1.00246 1.21608 0
M  V30 4689 C 460.636 -2.09073 0.977613 0
M  V30 4690 C 461.606 -1.65815 -0.097297 0
M  V30 4691 O 462.791 -1.90734 0.0503445 0
M  V30 4692 C 459.931 -3.40671 0.551133 0
M  V30 4693 C 459.044 -3.97326 1.69576 0
M  V30 4694 C 458.179 -5.17043 1.2182 0
M  V30 4695 C 457.218 -5.65813 2.335 0
M  V30 4696 N 456.355 -6.76778 1.86859 0
M  V30 4697 H 461.195 -2.28806 1.90924 0
M  V30 4698 H 458.732 -1.12186 0.951452 0
M  V30 4699 H 460.69 -4.16225 0.285097 0
M  V30 4700 H 459.32 -3.20967 -0.343489 0
M  V30 4701 H 458.372 -3.18734 2.07637 0
M  V30 4702 H 459.684 -4.29511 2.53617 0
M  V30 4703 H 458.838 -5.99852 0.908975 0
M  V30 4704 H 457.577 -4.86458 0.347869 0
M  V30 4705 H 456.582 -4.81599 2.65222 0
M  V30 4706 H 457.807 -5.98427 3.21033 0
M  V30 4707 H 455.753 -6.47994 1.02174 0
M  V30 4708 H 455.67 -7.08231 2.64471 0
M  V30 4709 H 456.938 -7.63116 1.58978 0
M  V30 4710 N 461.167 -1.02423 -1.1978 0
M  V30 4711 C 462.114 -0.601023 -2.22837 0
M  V30 4712 C 463.084 0.382801 -1.61629 0
M  V30 4713 O 464.269 0.280514 -1.88727 0
M  V30 4714 C 461.409 0.0467755 -3.45068 0
M  V30 4715 C 460.522 -0.98253 -4.20678 0
M  V30 4716 C 459.657 -0.304982 -5.30324 0
M  V30 4717 C 458.696 -1.32052 -5.97686 0
M  V30 4718 N 457.833 -0.669105 -6.98904 0
M  V30 4719 H 462.673 -1.48444 -2.58396 0
M  V30 4720 H 460.21 -0.742936 -1.2696 0
M  V30 4721 H 462.168 0.439556 -4.14878 0
M  V30 4722 H 460.798 0.893796 -3.10179 0
M  V30 4723 H 459.85 -1.49341 -3.49859 0
M  V30 4724 H 461.162 -1.75455 -4.66923 0
M  V30 4725 H 460.316 0.142893 -6.06532 0
M  V30 4726 H 459.055 0.499283 -4.85138 0
M  V30 4727 H 458.06 -1.7787 -5.20233 0
M  V30 4728 H 459.285 -2.1262 -6.44957 0
M  V30 4729 H 457.231 0.115152 -6.55899 0
M  V30 4730 H 457.148 -1.37908 -7.43315 0
M  V30 4731 H 458.416 -0.245076 -7.79115 0
M  V30 4732 N 462.645 1.35699 -0.801477 0
M  V30 4733 C 463.592 2.29876 -0.206294 0
M  V30 4734 C 464.562 1.52565 0.656752 0
M  V30 4735 O 465.747 1.81024 0.602906 0
M  V30 4736 C 462.887 3.39052 0.643272 0
M  V30 4737 C 462 4.31335 -0.239644 0
M  V30 4738 C 461.135 5.27599 0.61744 0
M  V30 4739 C 460.174 6.11521 -0.26619 0
M  V30 4740 N 459.311 6.99938 0.550571 0
M  V30 4741 H 464.151 2.80187 -1.01484 0
M  V30 4742 H 461.688 1.37902 -0.511997 0
M  V30 4743 H 463.646 4.0101 1.15094 0
M  V30 4744 H 462.276 2.9003 1.41713 0
M  V30 4745 H 461.328 3.70426 -0.865381 0
M  V30 4746 H 462.64 4.90243 -0.919985 0
M  V30 4747 H 461.794 5.94906 1.19045 0
M  V30 4748 H 460.533 4.69176 1.33137 0
M  V30 4749 H 459.538 5.43166 -0.851507 0
M  V30 4750 H 460.763 6.72022 -0.9779 0
M  V30 4751 H 458.709 6.44008 1.24856 0
M  V30 4752 H 458.626 7.55966 -0.071832 0
M  V30 4753 H 459.894 7.71599 1.10702 0
M  V30 4754 N 464.123 0.554532 1.47522 0
M  V30 4755 C 465.056 -0.242442 2.26908 0
M  V30 4756 C 466.034 -0.922722 1.33883 0
M  V30 4757 O 467.218 -0.942244 1.63261 0
M  V30 4758 C 464.345 -1.34525 3.10839 0
M  V30 4759 C 463.391 -0.773805 4.19422 0
M  V30 4760 S 464.224 0.377525 5.34168 0
M  V30 4761 C 465.38 -0.727164 6.21662 0
M  V30 4762 H 465.613 0.431218 2.94156 0
M  V30 4763 H 463.146 0.3408 1.50592 0
M  V30 4764 H 465.104 -1.97683 3.59766 0
M  V30 4765 H 463.765 -1.99073 2.42958 0
M  V30 4766 H 462.958 -1.60187 4.77866 0
M  V30 4767 H 462.56 -0.218448 3.73361 0
M  V30 4768 H 464.852 -1.61992 6.57849 0
M  V30 4769 H 465.795 -0.180135 7.07871 0
M  V30 4770 H 466.203 -1.01863 5.55233 0
M  V30 4771 N 465.601 -1.54893 0.290851 0
M  V30 4772 C 466.548 -2.23138 -0.58974 0
M  V30 4773 C 467.518 -1.21036 -1.13752 0
M  V30 4774 O 468.703 -1.49626 -1.18392 0
M  V30 4775 C 465.843 -2.96811 -1.76061 0
M  V30 4776 C 464.956 -4.13665 -1.24519 0
M  V30 4777 C 464.091 -4.74944 -2.3791 0
M  V30 4778 C 463.13 -5.83963 -1.83451 0
M  V30 4779 N 462.267 -6.39239 -2.90376 0
M  V30 4780 H 467.107 -2.98 -0.00114915 0
M  V30 4781 H 464.644 -1.47096 0.0112006 0
M  V30 4782 H 466.602 -3.37751 -2.44909 0
M  V30 4783 H 465.232 -2.24344 -2.32098 0
M  V30 4784 H 464.284 -3.77737 -0.449288 0
M  V30 4785 H 465.596 -4.92238 -0.806424 0
M  V30 4786 H 464.75 -5.18684 -3.14724 0
M  V30 4787 H 463.489 -3.95682 -2.85109 0
M  V30 4788 H 462.494 -5.39657 -1.05122 0
M  V30 4789 H 463.719 -6.65103 -1.37169 0
M  V30 4790 H 461.665 -5.62864 -3.36927 0
M  V30 4791 H 461.582 -7.13129 -2.50965 0
M  V30 4792 H 462.85 -6.87637 -3.67118 0
M  V30 4793 N 467.08 -0.0183926 -1.57589 0
M  V30 4794 C 467.99 0.982943 -2.13015 0
M  V30 4795 C 469.006 1.36443 -1.07979 0
M  V30 4796 O 470.182 1.44802 -1.3998 0
M  V30 4797 C 467.247 2.25024 -2.63752 0
M  V30 4798 C 466.308 1.93018 -3.83461 0
M  V30 4799 C 465.541 3.13706 -4.31769 0
M  V30 4800 O 465.764 4.2601 -3.79305 0
M  V30 4801 O 464.698 2.96629 -5.23732 0
M  V30 4802 H 468.524 0.541709 -2.9883 0
M  V30 4803 H 466.109 0.201565 -1.48034 0
M  V30 4804 H 467.991 2.99441 -2.96502 0
M  V30 4805 H 466.666 2.68349 -1.81026 0
M  V30 4806 H 465.573 1.16019 -3.55655 0
M  V30 4807 H 466.906 1.54516 -4.67317 0
M  V30 4808 N 468.558 1.5553 0.254621 0
M  V30 4809 C 469.786 1.81046 1.00149 0
M  V30 4810 C 470.201 0.593047 1.79244 0
M  V30 4811 O 469.558 -0.438196 1.77161 0
M  V30 4812 C 469.609 3.04684 1.94551 0
M  V30 4813 O 469.33 4.21725 1.18658 0
M  V30 4814 C 470.831 3.42943 2.80901 0
M  V30 4815 H 468.051 0.602653 0.295044 0
M  V30 4816 H 470.595 2.02576 0.279842 0
M  V30 4817 H 468.75 2.85226 2.62154 0
M  V30 4818 H 469.164 4.91746 1.82445 0
M  V30 4819 H 470.638 4.32576 3.42902 0
M  V30 4820 H 471.115 2.63176 3.51617 0
M  V30 4821 H 471.721 3.64724 2.18762 0
M  V30 4822 N 470.036 -0.519951 1.48776 0
M  V30 4823 C 471.284 -1.2727 1.56993 0
M  V30 4824 C 471.605 -1.9339 0.25004 0
M  V30 4825 O 470.875 -1.81822 -0.729216 0
M  V30 4826 H 469.455 -0.472732 0.578389 0
M  V30 4827 H 472.117 -0.604234 1.85297 0
M  V30 4828 H 471.213 -2.04669 2.3562 0
M  V30 4829 N 471.514 -1.37532 -0.769588 0
M  V30 4830 C 472.477 -1.33292 -1.86456 0
M  V30 4831 C 473.477 -0.236537 -1.59051 0
M  V30 4832 O 474.667 -0.492511 -1.67093 0
M  V30 4833 C 471.799 -1.07118 -3.23633 0
M  V30 4834 H 472.992 -2.30692 -1.91628 0
M  V30 4835 H 470.545 -1.22593 -0.969572 0
M  V30 4836 H 471.28 -0.102578 -3.24138 0
M  V30 4837 H 471.065 -1.86479 -3.44917 0
M  V30 4838 H 472.555 -1.06806 -4.03711 0
M  V30 4839 N 472.992 0.995999 -1.22138 0
M  V30 4840 C 473.922 2.10387 -1.01289 0
M  V30 4841 C 474.903 1.69975 0.0651454 0
M  V30 4842 O 476.088 1.9396 -0.0964628 0
M  V30 4843 C 473.218 3.42312 -0.586517 0
M  V30 4844 C 472.172 3.96558 -1.61014 0
M  V30 4845 C 471.498 5.24494 -1.0397 0
M  V30 4846 C 472.798 4.27595 -2.99933 0
M  V30 4847 H 474.492 2.28086 -1.93951 0
M  V30 4848 H 472.038 1.09607 -0.933928 0
M  V30 4849 H 473.991 4.19223 -0.427793 0
M  V30 4850 H 472.715 3.24431 0.375761 0
M  V30 4851 H 471.374 3.21776 -1.75658 0
M  V30 4852 H 471.022 5.02953 -0.0688703 0
M  V30 4853 H 470.722 5.61755 -1.72352 0
M  V30 4854 H 472.246 6.04042 -0.892494 0
M  V30 4855 H 473.66 4.95315 -2.8868 0
M  V30 4856 H 472.057 4.76021 -3.6541 0
M  V30 4857 H 473.127 3.35498 -3.50099 0
M  V30 4858 N 474.47 1.03057 1.19235 0
M  V30 4859 C 475.4 0.633497 2.24742 0
M  V30 4860 C 476.381 -0.358335 1.66283 0
M  V30 4861 O 477.566 -0.240676 1.92703 0
M  V30 4862 C 474.696 -0.0147648 3.47297 0
M  V30 4863 C 473.65 0.899527 4.18441 0
M  V30 4864 C 472.976 0.116281 5.34574 0
M  V30 4865 C 474.276 2.21404 4.73051 0
M  V30 4866 H 475.97 1.5155 2.58211 0
M  V30 4867 H 473.516 0.73014 1.24117 0
M  V30 4868 H 475.469 -0.304202 4.20301 0
M  V30 4869 H 474.193 -0.931577 3.13032 0
M  V30 4870 H 472.852 1.17319 3.47321 0
M  V30 4871 H 472.5 -0.802619 4.96555 0
M  V30 4872 H 472.2 0.725293 5.83107 0
M  V30 4873 H 473.724 -0.166376 6.10373 0
M  V30 4874 H 475.138 1.98601 5.37802 0
M  V30 4875 H 473.535 2.77512 5.32078 0
M  V30 4876 H 474.605 2.86752 3.91026 0
M  V30 4877 N 475.948 -1.35272 0.808662 0
M  V30 4878 C 476.911 -2.28082 0.226093 0
M  V30 4879 C 477.911 -1.49673 -0.587762 0
M  V30 4880 O 479.101 -1.69404 -0.405943 0
M  V30 4881 C 476.233 -3.33955 -0.684596 0
M  V30 4882 H 477.426 -2.81116 1.04469 0
M  V30 4883 H 474.979 -1.45162 0.579466 0
M  V30 4884 H 475.714 -2.86111 -1.5268 0
M  V30 4885 H 475.499 -3.91965 -0.102699 0
M  V30 4886 H 476.989 -4.03219 -1.08646 0
M  V30 4887 N 477.426 -0.562348 -1.47226 0
M  V30 4888 C 478.674 -0.0401371 -2.0206 0
M  V30 4889 C 478.995 1.3165 -1.43852 0
M  V30 4890 O 478.265 1.85976 -0.615599 0
M  V30 4891 H 476.845 -0.0118479 -0.746906 0
M  V30 4892 H 479.507 -0.73352 -1.8057 0
M  V30 4893 H 478.603 0.0441254 -3.12069 0
M  V30 4894 N 478.904 1.54736 -0.299062 0
M  V30 4895 C 479.814 2.27127 0.587413 0
M  V30 4896 C 480.83 1.30575 1.15005 0
M  V30 4897 O 482.006 1.63554 1.17525 0
M  V30 4898 C 479.071 2.99645 1.74395 0
M  V30 4899 C 478.132 4.11731 1.21559 0
M  V30 4900 C 477.365 4.80781 2.317 0
M  V30 4901 O 477.588 4.4918 3.51558 0
M  V30 4902 O 476.522 5.68226 1.98501 0
M  V30 4903 H 480.348 3.037 0.000250109 0
M  V30 4904 H 477.933 1.49256 -0.0655919 0
M  V30 4905 H 479.815 3.45138 2.4178 0
M  V30 4906 H 478.49 2.25969 2.31775 0
M  V30 4907 H 477.397 3.70641 0.507514 0
M  V30 4908 H 478.73 4.87379 0.687233 0
M  V30 4909 N 480.382 0.0267497 1.57577 0
M  V30 4910 C 481.315 -0.99059 2.05579 0
M  V30 4911 C 482.293 -1.31884 0.951065 0
M  V30 4912 O 483.477 -1.43592 1.22121 0
M  V30 4913 C 480.604 -2.31125 2.47586 0
M  V30 4914 C 479.65 -2.13777 3.69055 0
M  V30 4915 S 480.483 -1.4388 5.15809 0
M  V30 4916 C 481.639 -2.77321 5.6111 0
M  V30 4917 H 481.872 -0.581976 2.91548 0
M  V30 4918 H 479.405 -0.184876 1.53289 0
M  V30 4919 H 481.363 -3.07049 2.72454 0
M  V30 4920 H 480.024 -2.6912 1.61967 0
M  V30 4921 H 479.217 -3.11405 3.96287 0
M  V30 4922 H 478.819 -1.45996 3.44327 0
M  V30 4923 H 481.111 -3.73565 5.65204 0
M  V30 4924 H 482.054 -2.54756 6.60685 0
M  V30 4925 H 482.462 -2.82459 4.88751 0
M  V30 4926 N 481.861 -1.55662 -0.24637 0
M  V30 4927 C 483.086 -1.81914 -0.996093 0
M  V30 4928 C 483.511 -0.603875 -1.78143 0
M  V30 4929 O 482.869 0.447091 -1.75701 0
M  V30 4930 C 482.917 -3.05908 -1.90925 0
M  V30 4931 O 482.021 -2.82861 -3.00105 0
M  V30 4932 H 481.362 -0.600481 -0.283406 0
M  V30 4933 H 483.892 -2.02848 -0.267199 0
M  V30 4934 H 483.902 -3.35356 -2.3238 0
M  V30 4935 H 482.577 -3.93999 -1.33183 0
M  V30 4936 H 481.154 -2.64583 -2.62775 0
M  V30 4937 N 483.339 0.512053 -1.4905 0
M  V30 4938 C 484.587 1.26436 -1.57665 0
M  V30 4939 C 484.908 1.93255 -0.260293 0
M  V30 4940 O 484.178 1.82206 0.719564 0
M  V30 4941 H 482.758 0.469658 -0.580888 0
M  V30 4942 H 485.42 0.594398 -1.85615 0
M  V30 4943 H 484.516 2.03417 -2.36702 0
M  V30 4944 N 484.817 1.37938 0.762283 0
M  V30 4945 C 485.767 1.30976 1.86626 0
M  V30 4946 C 486.751 0.195714 1.59705 0
M  V30 4947 O 487.943 0.430937 1.71674 0
M  V30 4948 C 485.072 1.12847 3.24223 0
M  V30 4949 C 484.158 2.28836 3.57064 0
M  V30 4950 N 484.549 3.54256 3.61022 0
M  V30 4951 C 482.847 2.21198 3.87282 0
M  V30 4952 C 483.548 4.30798 3.90881 0
M  V30 4953 N 482.524 3.60049 4.07266 0
M  V30 4954 H 486.326 2.25946 1.87951 0
M  V30 4955 H 483.84 1.31046 0.959206 0
M  V30 4956 H 485.837 1.05943 4.03214 0
M  V30 4957 H 484.497 0.188024 3.24155 0
M  V30 4958 H 485.508 3.8804 3.42995 0
M  V30 4959 H 482.185 1.35264 3.94981 0
M  V30 4960 H 483.575 5.39386 4.00639 0
M  V30 4961 N 486.295 -0.989507 1.22664 0
M  V30 4962 C 487.541 -1.7321 1.05481 0
M  V30 4963 C 487.874 -1.89852 -0.408635 0
M  V30 4964 O 487.149 -1.44416 -1.30285 0
M  V30 4965 C 487.432 -3.1357 1.77047 0
M  V30 4966 C 487.285 -3.04555 3.31008 0
M  V30 4967 C 488.604 -4.12812 1.5256 0
M  V30 4968 H 485.723 -0.628697 0.384589 0
M  V30 4969 H 488.365 -1.15258 1.51049 0
M  V30 4970 H 486.515 -3.63046 1.3831 0
M  V30 4971 H 488.187 -2.62674 3.7921 0
M  V30 4972 H 486.43 -2.41278 3.6051 0
M  V30 4973 H 487.101 -4.03894 3.76263 0
M  V30 4974 H 489.577 -3.72106 1.86215 0
M  V30 4975 H 488.453 -5.09132 2.05124 0
M  V30 4976 H 488.714 -4.39711 0.458936 0
M  V30 4977 N 487.773 -1.03688 -1.18687 0
M  V30 4978 C 489.02 -0.73803 -1.88572 0
M  V30 4979 C 489.348 0.733973 -1.8012 0
M  V30 4980 O 488.603 1.55098 -1.19344 0
M  V30 4981 C 488.902 -1.14477 -3.3857 0
M  V30 4982 C 488.568 -2.61641 -3.67226 0
M  V30 4983 C 487.23 -3.01846 -3.74757 0
M  V30 4984 C 489.582 -3.56812 -3.79914 0
M  V30 4985 C 486.91 -4.36118 -3.92451 0
M  V30 4986 C 489.262 -4.90799 -3.99123 0
M  V30 4987 C 487.926 -5.3068 -4.04888 0
M  V30 4988 H 487.196 -0.270064 -0.690034 0
M  V30 4989 H 489.843 -1.3012 -1.40503 0
M  V30 4990 H 488.148 -0.500337 -3.88592 0
M  V30 4991 H 489.845 -0.89095 -3.90977 0
M  V30 4992 H 486.435 -2.29498 -3.61979 0
M  V30 4993 H 490.619 -3.26899 -3.73431 0
M  V30 4994 H 485.875 -4.66542 -3.95157 0
M  V30 4995 H 490.049 -5.64451 -4.07882 0
M  V30 4996 H 487.676 -6.34733 -4.18351 0
M  V30 4997 N 489.251 1.34841 -0.815825 0
M  V30 4998 C 490.498 1.98499 -0.400535 0
M  V30 4999 C 490.826 1.64699 1.03463 0
M  V30 5000 O 490.081 0.907006 1.73412 0
M  V30 5001 C 490.38 3.53273 -0.541541 0
M  V30 5002 C 490.046 4.06966 -1.94138 0
M  V30 5003 C 488.708 4.21341 -2.32433 0
M  V30 5004 C 491.06 4.35933 -2.85677 0
M  V30 5005 C 488.388 4.62007 -3.61617 0
M  V30 5006 C 490.74 4.78042 -4.14317 0
M  V30 5007 C 489.404 4.90622 -4.52599 0
M  V30 5008 H 488.674 0.72636 -0.146566 0
M  V30 5009 H 491.321 1.60902 -1.0384 0
M  V30 5010 H 489.626 3.91387 0.179741 0
M  V30 5011 H 491.323 4.00497 -0.20085 0
M  V30 5012 H 487.913 3.96235 -1.63388 0
M  V30 5013 H 492.097 4.24372 -2.57337 0
M  V30 5014 H 487.353 4.69937 -3.91113 0
M  V30 5015 H 491.527 4.99415 -4.85342 0
M  V30 5016 H 489.154 5.2189 -5.52752 0
M  V30 5017 N 490.729 0.570148 1.46925 0
M  V30 5018 C 491.676 -0.170257 2.30171 0
M  V30 5019 C 492.646 -0.896099 1.39855 0
M  V30 5020 O 493.831 -0.889248 1.68811 0
M  V30 5021 C 490.971 -1.18605 3.24079 0
M  V30 5022 C 490.084 -0.464947 4.29491 0
M  V30 5023 C 489.219 -1.46716 5.10537 0
M  V30 5024 C 488.258 -0.731758 6.0771 0
M  V30 5025 N 487.395 -1.68142 6.81669 0
M  V30 5026 H 492.235 0.545713 2.92961 0
M  V30 5027 H 489.772 0.280938 1.44392 0
M  V30 5028 H 491.73 -1.78771 3.76957 0
M  V30 5029 H 490.36 -1.86989 2.63125 0
M  V30 5030 H 489.412 0.251506 3.79568 0
M  V30 5031 H 490.724 0.110548 4.98677 0
M  V30 5032 H 489.878 -2.14199 5.6763 0
M  V30 5033 H 488.617 -2.07658 4.41282 0
M  V30 5034 H 487.622 -0.0430787 5.49783 0
M  V30 5035 H 488.847 -0.127904 6.7898 0
M  V30 5036 H 486.793 -2.27918 6.15134 0
M  V30 5037 H 486.71 -1.15841 7.47072 0
M  V30 5038 H 487.978 -2.347 7.43328 0
M  V30 5039 N 492.207 -1.54576 0.307264 0
M  V30 5040 C 493.117 -2.27435 -0.57536 0
M  V30 5041 C 494.133 -1.31183 -1.14311 0
M  V30 5042 O 495.309 -1.64175 -1.16656 0
M  V30 5043 C 492.374 -3.00566 -1.72803 0
M  V30 5044 C 491.435 -4.12369 -1.19373 0
M  V30 5045 C 490.668 -4.82003 -2.29147 0
M  V30 5046 O 490.891 -4.51038 -3.49171 0
M  V30 5047 O 489.825 -5.69271 -1.95485 0
M  V30 5048 H 493.651 -3.03696 0.0158558 0
M  V30 5049 H 491.236 -1.49219 0.0735064 0
M  V30 5050 H 493.118 -3.46416 -2.39946 0
M  V30 5051 H 491.793 -2.27195 -2.30574 0
M  V30 5052 H 490.7 -3.70905 -0.487851 0
M  V30 5053 H 492.033 -4.87736 -0.661376 0
M  V30 5054 N 493.685 -0.035106 -1.57561 0
M  V30 5055 C 495.101 0.321334 -1.56332 0
M  V30 5056 C 495.301 1.72509 -1.04129 0
M  V30 5057 O 494.357 2.4287 -0.690694 0
M  V30 5058 C 495.67 0.164469 -3.0025 0
M  V30 5059 C 497.218 0.236786 -3.12103 0
M  V30 5060 C 497.693 0.10864 -4.57871 0
M  V30 5061 N 499.184 0.165433 -4.62904 0
M  V30 5062 C 499.919 0.0901506 -5.73329 0
M  V30 5063 N 499.415 -0.0365606 -6.9279 0
M  V30 5064 N 501.208 0.144572 -5.61914 0
M  V30 5065 H 493.359 -0.952976 -1.89821 0
M  V30 5066 H 495.622 -0.368537 -0.873432 0
M  V30 5067 H 495.328 -0.802746 -3.42416 0
M  V30 5068 H 495.202 0.932194 -3.655 0
M  V30 5069 H 497.589 1.19446 -2.69845 0
M  V30 5070 H 497.67 -0.561419 -2.49563 0
M  V30 5071 H 497.314 -0.845644 -5.00811 0
M  V30 5072 H 497.244 0.925786 -5.18398 0
M  V30 5073 H 499.735 0.263269 -3.76982 0
M  V30 5074 H 500.048 -0.0871487 -7.72751 0
M  V30 5075 H 498.393 -0.0714256 -6.94963 0
M  V30 5076 H 501.584 0.242006 -4.67474 0
M  V30 5077 H 501.757 0.0824413 -6.47948 0
M  V30 5078 N 495.163 1.55791 0.238111 0
M  V30 5079 C 496.409 1.79211 0.962035 0
M  V30 5080 C 496.764 0.605463 1.82625 0
M  V30 5081 O 496.057 -0.40104 1.87356 0
M  V30 5082 C 496.251 3.05869 1.84875 0
M  V30 5083 C 496.08 4.36739 1.07186 0
M  V30 5084 C 494.85 4.99346 0.773424 0
M  V30 5085 C 497.048 5.1237 0.445168 0
M  V30 5086 N 495.03 6.13894 -0.0266037 0
M  V30 5087 C 496.401 6.19613 -0.219023 0
M  V30 5088 C 498.456 4.96622 0.356522 0
M  V30 5089 C 497.159 7.1282 -0.963358 0
M  V30 5090 C 499.185 5.90214 -0.374304 0
M  V30 5091 C 498.547 6.96872 -1.0271 0
M  V30 5092 H 494.646 0.707627 0.332849 0
M  V30 5093 H 497.23 1.93284 0.234368 0
M  V30 5094 H 495.401 2.93108 2.54837 0
M  V30 5095 H 497.133 3.17547 2.5089 0
M  V30 5096 H 493.888 4.60948 1.08738 0
M  V30 5097 H 494.312 6.75727 -0.414968 0
M  V30 5098 H 498.954 4.14232 0.846878 0
M  V30 5099 H 496.672 7.94704 -1.46529 0
M  V30 5100 H 500.258 5.80106 -0.443678 0
M  V30 5101 H 499.138 7.68045 -1.58358 0
M  V30 5102 N 496.642 -0.504142 1.49319 0
M  V30 5103 C 497.889 -1.25846 1.58647 0
M  V30 5104 C 498.217 -1.92592 0.27177 0
M  V30 5105 O 497.472 -1.81167 -0.74007 0
M  V30 5106 C 497.771 -2.35021 2.69258 0
M  V30 5107 C 497.437 -1.85755 4.1086 0
M  V30 5108 C 496.099 -1.72038 4.49395 0
M  V30 5109 C 498.451 -1.48844 4.99495 0
M  V30 5110 C 495.779 -1.19783 5.74342 0
M  V30 5111 C 498.131 -0.980422 6.24956 0
M  V30 5112 C 496.795 -0.829622 6.62324 0
M  V30 5113 H 496.065 -0.460505 0.580531 0
M  V30 5114 H 498.712 -0.559716 1.83138 0
M  V30 5115 H 497.017 -3.10672 2.38726 0
M  V30 5116 H 498.714 -2.93083 2.73685 0
M  V30 5117 H 495.304 -1.9739 3.80441 0
M  V30 5118 H 499.488 -1.5829 4.70381 0
M  V30 5119 H 494.744 -1.06817 6.01997 0
M  V30 5120 H 498.918 -0.685608 6.93017 0
M  V30 5121 H 496.545 -0.42253 7.59025 0
M  V30 5122 N 498.12 -1.38341 -0.754957 0
M  V30 5123 C 499.368 -1.34208 -1.51105 0
M  V30 5124 C 499.689 0.0677634 -1.94882 0
M  V30 5125 O 498.959 1.01517 -1.67544 0
M  V30 5126 H 497.539 -0.493819 -0.560493 0
M  V30 5127 H 500.201 -1.73005 -0.897507 0
M  V30 5128 H 499.297 -1.99203 -2.4026 0
M  V30 5129 N 499.598 0.982988 -1.23187 0
M  V30 5130 C 500.845 1.72392 -1.06241 0
M  V30 5131 C 501.173 1.9032 0.40108 0
M  V30 5132 O 500.428 1.45084 1.31336 0
M  V30 5133 C 500.727 3.12736 -1.73006 0
M  V30 5134 C 500.393 3.14695 -3.22921 0
M  V30 5135 C 499.055 3.14937 -3.63824 0
M  V30 5136 C 501.407 3.10211 -4.1883 0
M  V30 5137 C 498.735 3.08408 -4.99101 0
M  V30 5138 C 501.087 3.05224 -5.54095 0
M  V30 5139 C 499.751 3.03787 -5.94365 0
M  V30 5140 H 499.021 0.630829 -0.388762 0
M  V30 5141 H 501.668 1.15053 -1.53085 0
M  V30 5142 H 499.973 3.73446 -1.18514 0
M  V30 5143 H 501.67 3.68828 -1.57374 0
M  V30 5144 H 498.26 3.15262 -2.90358 0
M  V30 5145 H 502.444 3.09166 -3.8824 0
M  V30 5146 H 497.7 3.05646 -5.29519 0
M  V30 5147 H 501.874 3.00712 -6.28128 0
M  V30 5148 H 499.501 2.98483 -6.99151 0
M  V30 5149 N 501.076 1.04316 1.18135 0
M  V30 5150 C 502.353 0.662166 1.84051 0
M  V30 5151 C 502.733 -0.858169 1.9287 0
M  V30 5152 O 502.081 -1.76062 1.45652 0
M  V30 5153 C 502.291 1.3409 3.22212 0
M  V30 5154 C 503.639 1.4733 3.9822 0
M  V30 5155 O 504.663 1.29921 3.31661 0
M  V30 5156 O 503.522 1.75722 5.17479 0
M  V30 5157 H 500.616 0.232005 0.79379 0
M  V30 5158 H 503.162 1.1422 1.25506 0
M  V30 5159 H 501.934 2.37853 3.10711 0
M  V30 5160 H 501.557 0.849649 3.88416 0
M  V30 5161 N 502.554 -1.34406 0.822964 0
M  V30 5162 C 503.831 -1.92733 0.333641 0
M  V30 5163 C 504.211 -1.75107 -1.17901 0
M  V30 5164 O 503.559 -1.12983 -1.98613 0
M  V30 5165 C 503.769 -3.40557 0.763023 0
M  V30 5166 C 505.117 -4.17709 0.761879 0
M  V30 5167 O 506.141 -3.49141 0.705606 0
M  V30 5168 O 505 -5.40082 0.835109 0
M  V30 5169 H 502.094 -0.821964 0.0911249 0
M  V30 5170 H 504.64 -1.4338 0.907757 0
M  V30 5171 H 503.412 -3.47187 1.8049 0
M  V30 5172 H 503.035 -3.97259 0.164605 0
M  V30 5173 N 504.032 -0.577932 -1.46621 0
M  V30 5174 C 505.28 -0.061566 -2.02006 0
M  V30 5175 C 505.601 1.30117 -1.4524 0
M  V30 5176 O 504.871 1.85313 -0.63529 0
M  V30 5177 H 503.451 -0.0197692 -0.746738 0
M  V30 5178 H 506.113 -0.752631 -1.79782 0
M  V30 5179 H 505.209 0.0110238 -3.12098 0
M  V30 5180 N 505.51 1.54411 -0.315457 0
M  V30 5181 C 506.759 1.99599 0.290395 0
M  V30 5182 C 507.072 1.20746 1.53882 0
M  V30 5183 O 508.278 1.56272 2.22017 0
M  V30 5184 C 506.734 3.5539 0.56797 0
M  V30 5185 C 506.342 4.43068 -0.662945 0
M  V30 5186 C 508.086 4.09067 1.13422 0
M  V30 5187 C 505.993 5.90317 -0.357722 0
M  V30 5188 H 504.923 0.745592 0.112286 0
M  V30 5189 H 507.574 1.78477 -0.426418 0
M  V30 5190 H 505.956 3.72468 1.34476 0
M  V30 5191 H 507.13 4.37765 -1.43869 0
M  V30 5192 H 505.445 4.00238 -1.14884 0
M  V30 5193 H 508.042 5.16663 1.37707 0
M  V30 5194 H 508.385 3.60552 2.08106 0
M  V30 5195 H 508.918 3.95589 0.418805 0
M  V30 5196 H 505.657 6.4301 -1.27351 0
M  V30 5197 H 505.177 5.98592 0.380472 0
M  V30 5198 H 506.856 6.4699 0.0354284 0
M  V30 5199 N 506.988 0.0434614 1.5754 0
M  V30 5200 C 508.218 -0.640905 1.96408 0
M  V30 5201 C 508.626 -1.65365 0.919297 0
M  V30 5202 O 507.969 -1.83395 -0.105795 0
M  V30 5203 C 508.031 -1.39141 3.31482 0
M  V30 5204 C 507.695 -0.535375 4.53853 0
M  V30 5205 C 508.692 0.195335 5.19533 0
M  V30 5206 C 506.377 -0.468564 5.0011 0
M  V30 5207 C 508.371 0.981377 6.298 0
M  V30 5208 C 506.058 0.321171 6.10255 0
M  V30 5209 C 507.056 1.04484 6.74961 0
M  V30 5210 O 506.744 1.8216 7.8299 0
M  V30 5211 H 506.476 -0.180584 0.651433 0
M  V30 5212 H 509.03 0.103848 2.05137 0
M  V30 5213 H 507.26 -2.18162 3.19284 0
M  V30 5214 H 508.949 -1.96526 3.55151 0
M  V30 5215 H 509.715 0.15314 4.84758 0
M  V30 5216 H 505.594 -1.02142 4.49542 0
M  V30 5217 H 509.138 1.54674 6.80237 0
M  V30 5218 H 505.035 0.365032 6.44467 0
M  V30 5219 H 505.803 1.74289 7.99728 0
M  V30 5220 N 508.466 -1.55915 -0.229846 0
M  V30 5221 C 509.691 -1.8296 -0.976743 0
M  V30 5222 C 510.116 -0.622735 -1.77493 0
M  V30 5223 O 509.474 0.428431 -1.76165 0
M  V30 5224 C 509.522 -3.07916 -1.8767 0
M  V30 5225 O 508.626 -2.86028 -2.97088 0
M  V30 5226 H 507.967 -0.603453 -0.277021 0
M  V30 5227 H 510.497 -2.0312 -0.245669 0
M  V30 5228 H 510.507 -3.37802 -2.2881 0
M  V30 5229 H 509.182 -3.95389 -1.28996 0
M  V30 5230 H 507.759 -2.67355 -2.59954 0
M  V30 5231 N 509.944 0.496216 -1.49584 0
M  V30 5232 C 510.907 1.57952 -1.66084 0
M  V30 5233 C 511.907 1.51729 -0.53244 0
M  V30 5234 O 513.097 1.54796 -0.79899 0
M  V30 5235 C 510.229 2.97604 -1.66268 0
M  V30 5236 H 511.422 1.44649 -2.6271 0
M  V30 5237 H 508.975 0.7208 -1.38687 0
M  V30 5238 H 509.71 3.16378 -0.712432 0
M  V30 5239 H 509.495 3.03528 -2.4822 0
M  V30 5240 H 510.985 3.76301 -1.81073 0
M  V30 5241 N 511.423 1.38739 0.74761 0
M  V30 5242 C 512.386 1.36241 1.84312 0
M  V30 5243 C 513.386 0.261811 1.58654 0
M  V30 5244 O 514.576 0.519031 1.66288 0
M  V30 5245 C 511.708 1.12253 3.21888 0
M  V30 5246 H 512.901 2.33712 1.87933 0
M  V30 5247 H 510.454 1.2412 0.949946 0
M  V30 5248 H 511.189 0.154133 3.23934 0
M  V30 5249 H 510.974 1.91943 3.41907 0
M  V30 5250 H 512.464 1.13215 4.0196 0
M  V30 5251 N 512.901 -0.976442 1.23707 0
M  V30 5252 C 514.317 -1.24341 1.00058 0
M  V30 5253 C 514.517 -1.99315 -0.295932 0
M  V30 5254 O 513.573 -2.3123 -1.01435 0
M  V30 5255 C 514.886 -2.03909 2.21001 0
M  V30 5256 C 516.434 -2.17034 2.25534 0
M  V30 5257 C 516.909 -2.99994 3.46075 0
M  V30 5258 N 518.4 -3.07578 3.46338 0
M  V30 5259 C 519.135 -3.72104 4.36264 0
M  V30 5260 N 518.631 -4.3842 5.36432 0
M  V30 5261 N 520.424 -3.69029 4.23998 0
M  V30 5262 H 512.575 -0.47428 2.07037 0
M  V30 5263 H 514.838 -0.272167 0.908091 0
M  V30 5264 H 514.544 -1.56198 3.15111 0
M  V30 5265 H 514.418 -3.04654 2.22409 0
M  V30 5266 H 516.805 -2.63951 1.31961 0
M  V30 5267 H 516.886 -1.15664 2.28156 0
M  V30 5268 H 516.53 -2.53772 4.39957 0
M  V30 5269 H 516.46 -4.01541 3.40694 0
M  V30 5270 H 518.951 -2.60397 2.73865 0
M  V30 5271 H 519.264 -4.85447 6.013 0
M  V30 5272 H 517.609 -4.37116 5.40328 0
M  V30 5273 H 520.8 -3.16392 3.44984 0
M  V30 5274 H 520.973 -4.19034 4.94282 0
M  V30 5275 N 514.379 -1.04941 -1.1758 0
M  V30 5276 C 515.309 -0.669172 -2.23706 0
M  V30 5277 C 516.29 0.331835 -1.66832 0
M  V30 5278 O 517.475 0.209988 -1.93061 0
M  V30 5279 C 514.605 -0.0404889 -3.47276 0
M  V30 5280 C 513.559 -0.965983 -4.16957 0
M  V30 5281 C 512.885 -0.201312 -5.34321 0
M  V30 5282 C 514.185 -2.28902 -4.69469 0
M  V30 5283 H 515.879 -1.55639 -2.55767 0
M  V30 5284 H 513.425 -0.749793 -1.22939 0
M  V30 5285 H 515.378 0.237298 -4.20731 0
M  V30 5286 H 514.102 0.881658 -3.14475 0
M  V30 5287 H 512.761 -1.22829 -3.45411 0
M  V30 5288 H 512.409 0.723519 -4.97769 0
M  V30 5289 H 512.109 -0.817968 -5.81879 0
M  V30 5290 H 513.633 0.0692499 -6.10561 0
M  V30 5291 H 515.047 -2.07132 -5.34574 0
M  V30 5292 H 513.444 -2.85942 -5.27596 0
M  V30 5293 H 514.514 -2.92937 -3.86414 0
M  V30 5294 N 515.857 1.33968 -0.830081 0
M  V30 5295 C 516.787 2.31911 -0.271911 0
M  V30 5296 C 517.768 1.58571 0.61556 0
M  V30 5297 O 518.953 1.86514 0.540946 0
M  V30 5298 C 516.083 3.42737 0.561146 0
M  V30 5299 C 515.037 4.27383 -0.229789 0
M  V30 5300 C 514.363 5.29742 0.726463 0
M  V30 5301 C 515.663 5.02 -1.44197 0
M  V30 5302 H 517.357 2.78844 -1.09025 0
M  V30 5303 H 514.903 1.34061 -0.52571 0
M  V30 5304 H 516.856 4.10276 0.961867 0
M  V30 5305 H 515.58 2.94471 1.41261 0
M  V30 5306 H 514.239 3.61456 -0.611964 0
M  V30 5307 H 513.887 4.77736 1.57408 0
M  V30 5308 H 513.587 5.87255 0.20142 0
M  V30 5309 H 515.111 6.00149 1.12489 0
M  V30 5310 H 516.525 5.62355 -1.11488 0
M  V30 5311 H 514.922 5.69122 -1.90317 0
M  V30 5312 H 515.992 4.31281 -2.2164 0
M  V30 5313 N 517.335 0.585699 1.46312 0
M  V30 5314 C 518.245 -0.148236 2.34131 0
M  V30 5315 C 519.261 -0.882972 1.49932 0
M  V30 5316 O 520.437 -0.845484 1.82794 0
M  V30 5317 C 517.502 -1.14714 3.27172 0
M  V30 5318 C 516.563 -0.416746 4.27272 0
M  V30 5319 C 515.796 -1.36806 5.15868 0
M  V30 5320 O 516.019 -2.60475 5.07454 0
M  V30 5321 O 514.953 -0.877018 5.95476 0
M  V30 5322 H 518.779 0.572882 2.98248 0
M  V30 5323 H 516.364 0.346082 1.45336 0
M  V30 5324 H 518.246 -1.72303 3.84564 0
M  V30 5325 H 516.921 -1.84967 2.65648 0
M  V30 5326 H 515.828 0.201061 3.73559 0
M  V30 5327 H 517.161 0.244872 4.9159 0
M  V30 5328 N 518.813 -1.54241 0.323641 0
M  V30 5329 C 520.062 -1.9975 -0.279806 0
M  V30 5330 C 520.375 -1.2156 -1.5324 0
M  V30 5331 O 521.581 -1.57447 -2.21185 0
M  V30 5332 C 520.037 -3.55686 -0.549115 0
M  V30 5333 C 519.645 -4.4271 0.686432 0
M  V30 5334 C 521.389 -4.09663 -1.11251 0
M  V30 5335 C 519.296 -5.90119 0.389022 0
M  V30 5336 H 518.226 -0.746177 -0.10833 0
M  V30 5337 H 520.877 -1.78248 0.435877 0
M  V30 5338 H 519.259 -3.73176 -1.32499 0
M  V30 5339 H 520.433 -4.36996 1.46188 0
M  V30 5340 H 518.748 -3.99623 1.17005 0
M  V30 5341 H 521.345 -5.17386 -1.34965 0
M  V30 5342 H 521.688 -3.61651 -2.06191 0
M  V30 5343 H 522.221 -3.95806 -0.39782 0
M  V30 5344 H 518.96 -6.42326 1.30759 0
M  V30 5345 H 518.48 -5.98785 -0.348722 0
M  V30 5346 H 520.159 -6.47 -0.0011164 0
M  V30 5347 N 520.291 -0.0518155 -1.57515 0
M  V30 5348 C 521.221 0.920283 -2.146 0
M  V30 5349 C 522.202 1.32406 -1.06783 0
M  V30 5350 O 523.387 1.39866 -1.34726 0
M  V30 5351 C 520.517 2.1949 -2.6915 0
M  V30 5352 C 519.471 1.93116 -3.81956 0
M  V30 5353 C 518.797 3.27037 -4.23026 0
M  V30 5354 C 520.097 1.25225 -5.07066 0
M  V30 5355 H 521.791 0.444801 -2.96077 0
M  V30 5356 H 519.337 0.212508 -1.42423 0
M  V30 5357 H 521.29 2.87894 -3.07725 0
M  V30 5358 H 520.014 2.69244 -1.84865 0
M  V30 5359 H 518.673 1.27123 -3.43854 0
M  V30 5360 H 518.321 3.74595 -3.3569 0
M  V30 5361 H 518.021 3.10189 -4.99056 0
M  V30 5362 H 519.545 3.96673 -4.64202 0
M  V30 5363 H 520.959 1.83666 -5.43083 0
M  V30 5364 H 519.356 1.18702 -5.88243 0
M  V30 5365 H 520.426 0.228382 -4.84362 0
M  V30 5366 N 521.769 1.56035 0.221574 0
M  V30 5367 C 522.994 1.83476 0.967026 0
M  V30 5368 C 523.419 0.632139 1.7716 0
M  V30 5369 O 522.777 -0.419082 1.7639 0
M  V30 5370 C 522.825 3.08907 1.86034 0
M  V30 5371 O 521.929 2.876 2.95567 0
M  V30 5372 H 521.27 0.604913 0.273817 0
M  V30 5373 H 523.8 2.03247 0.234893 0
M  V30 5374 H 523.81 3.3901 2.27016 0
M  V30 5375 H 522.485 3.96068 1.26898 0
M  V30 5376 H 521.062 2.6873 2.58532 0
M  V30 5377 N 523.247 -0.488276 1.49845 0
M  V30 5378 C 524.179 -1.60539 1.63584 0
M  V30 5379 C 525.192 -1.5434 0.517972 0
M  V30 5380 O 526.381 -1.60041 0.790516 0
M  V30 5381 C 523.481 -2.99374 1.58835 0
M  V30 5382 C 522.654 -3.30624 2.86368 0
M  V30 5383 C 521.713 -4.4893 2.74496 0
M  V30 5384 O 520.739 -4.50085 3.48443 0
M  V30 5385 N 521.941 -5.49591 1.86894 0
M  V30 5386 H 524.706 -1.49176 2.59936 0
M  V30 5387 H 522.267 -0.67639 1.47094 0
M  V30 5388 H 524.259 -3.76459 1.48529 0
M  V30 5389 H 522.829 -3.04595 0.702892 0
M  V30 5390 H 522.049 -2.42314 3.1093 0
M  V30 5391 H 523.337 -3.48305 3.70892 0
M  V30 5392 H 522.735 -5.51467 1.26097 0
M  V30 5393 H 521.292 -6.25728 1.82503 0
M  V30 5394 N 524.725 -1.39134 -0.740242 0
M  V30 5395 C 526.002 -1.26584 -1.49117 0
M  V30 5396 C 526.382 0.126902 -2.10718 0
M  V30 5397 O 525.73 1.13765 -1.98166 0
M  V30 5398 C 525.94 -2.38619 -2.54681 0
M  V30 5399 C 527.288 -2.77685 -3.21211 0
M  V30 5400 O 528.312 -2.38029 -2.64991 0
M  V30 5401 O 527.171 -3.46115 -4.22926 0
M  V30 5402 H 524.265 -0.495769 -0.661923 0
M  V30 5403 H 526.811 -1.50995 -0.774514 0
M  V30 5404 H 525.583 -3.3175 -2.07504 0
M  V30 5405 H 525.206 -2.15845 -3.33911 0
M  V30 5406 N 526.204 0.969867 -1.24223 0
M  V30 5407 C 527.136 2.0669 -0.99055 0
M  V30 5408 C 528.149 1.62753 0.0392222 0
M  V30 5409 O 529.338 1.77403 -0.197561 0
M  V30 5410 C 526.438 3.35589 -0.472594 0
M  V30 5411 C 525.611 4.08444 -1.56499 0
M  V30 5412 C 524.67 5.15616 -1.05007 0
M  V30 5413 O 523.696 5.41911 -1.7413 0
M  V30 5414 N 524.898 5.80383 0.116641 0
M  V30 5415 H 527.663 2.28855 -1.93508 0
M  V30 5416 H 525.224 1.13733 -1.15223 0
M  V30 5417 H 527.216 4.04542 -0.112919 0
M  V30 5418 H 525.786 3.10311 0.377617 0
M  V30 5419 H 525.006 3.33798 -2.09696 0
M  V30 5420 H 526.294 4.53882 -2.29932 0
M  V30 5421 H 525.692 5.6142 0.694589 0
M  V30 5422 H 524.249 6.50462 0.417483 0
M  V30 5423 N 527.682 1.05563 1.17022 0
M  V30 5424 C 529.098 0.777684 1.39371 0
M  V30 5425 C 529.298 -0.626269 1.91521 0
M  V30 5426 O 528.354 -1.38806 2.10924 0
M  V30 5427 C 529.667 1.83642 2.3811 0
M  V30 5428 C 531.215 1.85907 2.51809 0
M  V30 5429 C 531.69 2.90813 3.53824 0
M  V30 5430 N 533.181 2.898 3.61345 0
M  V30 5431 C 533.916 3.6762 4.40049 0
M  V30 5432 N 533.412 4.55237 5.22237 0
M  V30 5433 N 535.205 3.56044 4.34959 0
M  V30 5434 H 527.356 1.9614 0.815047 0
M  V30 5435 H 529.619 0.849527 0.420722 0
M  V30 5436 H 529.325 2.84425 2.06871 0
M  V30 5437 H 529.199 1.6812 3.37662 0
M  V30 5438 H 531.586 0.857865 2.82356 0
M  V30 5439 H 531.667 2.05506 1.52318 0
M  V30 5440 H 531.311 3.91122 3.24015 0
M  V30 5441 H 531.241 2.68465 4.53028 0
M  V30 5442 H 533.732 2.26274 3.02669 0
M  V30 5443 H 534.045 5.11291 5.79484 0
M  V30 5444 H 532.39 4.59296 5.21605 0
M  V30 5445 H 535.581 2.86986 3.69806 0
M  V30 5446 H 535.754 4.16938 4.96051 0
M  V30 5447 N 529.16 -1.33526 0.837174 0
M  V30 5448 C 530.437 -1.92369 0.354065 0
M  V30 5449 C 530.817 -1.76348 -1.16038 0
M  V30 5450 O 530.165 -1.15083 -1.97403 0
M  V30 5451 C 530.375 -3.39728 0.799101 0
M  V30 5452 C 531.723 -4.16877 0.806139 0
M  V30 5453 O 532.747 -3.48373 0.742597 0
M  V30 5454 O 531.606 -5.39166 0.892345 0
M  V30 5455 H 528.7 -0.820952 0.0998378 0
M  V30 5456 H 531.246 -1.42409 0.922913 0
M  V30 5457 H 530.018 -3.45254 1.84162 0
M  V30 5458 H 529.641 -3.97062 0.206731 0
M  V30 5459 N 530.638 -0.59345 -1.46 0
M  V30 5460 C 531.863 -0.0872365 -2.07216 0
M  V30 5461 C 532.288 1.2131 -1.43755 0
M  V30 5462 O 531.646 1.73528 -0.525152 0
M  V30 5463 C 531.694 0.0538197 -3.6056 0
M  V30 5464 O 530.798 1.10765 -3.97247 0
M  V30 5465 H 530.139 -0.0676598 -0.660544 0
M  V30 5466 H 532.669 -0.819445 -1.87473 0
M  V30 5467 H 532.679 0.256567 -4.07193 0
M  V30 5468 H 531.354 -0.895739 -4.0614 0
M  V30 5469 H 529.931 0.882501 -3.62307 0
M  V30 5470 N 532.116 1.54067 -0.331816 0
M  V30 5471 C 533.026 2.28322 0.539104 0
M  V30 5472 C 534.042 1.32985 1.1221 0
M  V30 5473 O 535.218 1.6601 1.1403 0
M  V30 5474 C 532.283 3.03277 1.68 0
M  V30 5475 C 531.344 4.14216 1.12798 0
M  V30 5476 C 530.577 4.85588 2.2145 0
M  V30 5477 O 530.8 4.56536 3.41952 0
M  V30 5478 O 529.734 5.72309 1.86404 0
M  V30 5479 H 533.56 3.03632 -0.0641692 0
M  V30 5480 H 531.145 1.49083 -0.0972365 0
M  V30 5481 H 533.027 3.50189 2.34405 0
M  V30 5482 H 531.702 2.30834 2.2693 0
M  V30 5483 H 530.609 3.71635 0.428782 0
M  V30 5484 H 531.942 4.88727 0.583698 0
M  V30 5485 N 533.594 0.0601682 1.57485 0
M  V30 5486 C 534.544 -0.920969 2.08572 0
M  V30 5487 C 535.528 -1.26617 0.992827 0
M  V30 5488 O 536.72 -1.24708 1.25606 0
M  V30 5489 C 533.849 -2.19267 2.64153 0
M  V30 5490 C 532.935 -1.87447 3.80427 0
M  V30 5491 N 533.326 -1.26025 4.89848 0
M  V30 5492 C 531.624 -2.17265 3.89502 0
M  V30 5493 C 532.325 -1.12036 5.70809 0
M  V30 5494 N 531.301 -1.62624 5.18705 0
M  V30 5495 H 535.103 -0.441561 2.90564 0
M  V30 5496 H 532.617 -0.144043 1.6176 0
M  V30 5497 H 534.614 -2.90462 2.99061 0
M  V30 5498 H 533.274 -2.67806 1.83603 0
M  V30 5499 H 534.285 -0.931336 5.09457 0
M  V30 5500 H 530.962 -2.68262 3.19909 0
M  V30 5501 H 532.352 -0.642783 6.68818 0
M  V30 5502 N 535.072 -1.5615 -0.213296 0
M  V30 5503 C 536.318 -1.79812 -0.937849 0
M  V30 5504 C 536.651 -0.631201 -1.83656 0
M  V30 5505 O 535.926 0.369165 -1.90964 0
M  V30 5506 C 536.209 -3.13613 -1.76972 0
M  V30 5507 C 536.062 -4.40766 -0.89695 0
M  V30 5508 C 537.381 -3.43931 -2.7459 0
M  V30 5509 H 534.5 -0.654138 -0.339518 0
M  V30 5510 H 537.142 -1.88877 -0.20623 0
M  V30 5511 H 535.292 -3.06015 -2.39347 0
M  V30 5512 H 536.964 -4.60392 -0.289306 0
M  V30 5513 H 535.207 -4.33326 -0.202756 0
M  V30 5514 H 535.878 -5.30843 -1.51358 0
M  V30 5515 H 538.354 -3.5171 -2.22349 0
M  V30 5516 H 537.23 -4.38706 -3.29891 0
M  V30 5517 H 537.491 -2.6651 -3.52739 0
M  V30 5518 N 536.55 0.480323 -1.50102 0
M  V30 5519 C 537.797 1.23307 -1.60629 0
M  V30 5520 C 538.125 1.92135 -0.302375 0
M  V30 5521 O 537.38 1.82321 0.711154 0
M  V30 5522 C 537.679 2.30708 -2.72963 0
M  V30 5523 C 537.345 1.79195 -4.13763 0
M  V30 5524 C 536.007 1.64867 -4.52076 0
M  V30 5525 C 538.359 1.40878 -5.018 0
M  V30 5526 C 535.687 1.10631 -5.76175 0
M  V30 5527 C 538.039 0.880872 -6.26437 0
M  V30 5528 C 536.703 0.724146 -6.6356 0
M  V30 5529 H 535.973 0.451211 -0.587784 0
M  V30 5530 H 538.62 0.53051 -1.84005 0
M  V30 5531 H 536.925 3.06834 -2.43639 0
M  V30 5532 H 538.622 2.88692 -2.78313 0
M  V30 5533 H 535.212 1.91313 -3.83533 0
M  V30 5534 H 539.396 1.50786 -4.7284 0
M  V30 5535 H 534.652 0.972263 -6.0362 0
M  V30 5536 H 538.826 0.575269 -6.9402 0
M  V30 5537 H 536.453 0.301722 -7.59601 0
M  V30 5538 N 538.028 1.39524 0.732853 0
M  V30 5539 C 539.253 1.40329 1.52717 0
M  V30 5540 C 539.678 0.000286574 1.881 0
M  V30 5541 O 539.036 -0.987262 1.52062 0
M  V30 5542 C 539.084 2.28464 2.78992 0
M  V30 5543 O 538.188 1.716 3.75003 0
M  V30 5544 H 537.529 0.47778 0.461109 0
M  V30 5545 H 540.059 1.83546 0.903996 0
M  V30 5546 H 540.069 2.43051 3.27705 0
M  V30 5547 H 538.744 3.30425 2.52572 0
M  V30 5548 H 537.321 1.66267 3.33781 0
M  V30 5549 N 539.506 -0.963266 1.24736 0
M  V30 5550 C 540.469 -2.04013 1.04457 0
M  V30 5551 C 541.469 -1.608 0.000335555 0
M  V30 5552 O 542.659 -1.72515 0.241719 0
M  V30 5553 C 539.791 -3.35858 0.584162 0
M  V30 5554 H 540.984 -2.23436 2.00041 0
M  V30 5555 H 538.537 -1.13914 1.07021 0
M  V30 5556 H 539.272 -3.22128 -0.374673 0
M  V30 5557 H 539.057 -3.68568 1.3379 0
M  V30 5558 H 540.547 -4.1502 0.463451 0
M  V30 5559 N 540.985 -1.06182 -1.16461 0
M  V30 5560 C 542.232 -0.777863 -1.86964 0
M  V30 5561 C 542.56 0.695602 -1.81636 0
M  V30 5562 O 541.815 1.52532 -1.22607 0
M  V30 5563 C 542.114 -1.21633 -3.36066 0
M  V30 5564 C 541.78 -2.69371 -3.61594 0
M  V30 5565 C 540.442 -3.09727 -3.6827 0
M  V30 5566 C 542.794 -3.64791 -3.7226 0
M  V30 5567 C 540.122 -4.44345 -3.83112 0
M  V30 5568 C 542.474 -4.99155 -3.88623 0
M  V30 5569 C 541.138 -5.39149 -3.93541 0
M  V30 5570 H 540.408 -0.28464 -0.68415 0
M  V30 5571 H 543.055 -1.33071 -1.37711 0
M  V30 5572 H 541.36 -0.582651 -3.87443 0
M  V30 5573 H 543.057 -0.973682 -3.88999 0
M  V30 5574 H 539.647 -2.37124 -3.57029 0
M  V30 5575 H 543.831 -3.34746 -3.66413 0
M  V30 5576 H 539.087 -4.74819 -3.85172 0
M  V30 5577 H 543.261 -5.72976 -3.95817 0
M  V30 5578 H 540.888 -6.43464 -4.04794 0
M  V30 5579 N 542.463 1.3308 -0.844243 0
M  V30 5580 C 543.874 1.7992 -0.498566 0
M  V30 5581 C 544.225 1.69808 0.982834 0
M  V30 5582 O 543.35 1.25051 1.7661 0
M  V30 5583 C 543.945 3.26677 -0.898204 0
M  V30 5584 C 542.504 3.71513 -0.604583 0
M  V30 5585 C 541.651 2.54393 -1.10362 0
M  V30 5586 H 544.602 1.20526 -1.03244 0
M  V30 5587 H 544.623 3.79918 -0.21039 0
M  V30 5588 H 544.135 3.34004 -1.97643 0
M  V30 5589 H 542.236 3.69708 0.46335 0
M  V30 5590 H 542.349 4.64755 -1.16358 0
M  V30 5591 H 540.713 2.49246 -0.524273 0
M  V30 5592 H 541.496 2.6448 -2.18873 0
M  V30 5593 N 543.941 0.601185 1.45683 0
M  V30 5594 C 545.166 0.0982245 2.07167 0
M  V30 5595 C 545.591 -1.20546 1.44396 0
M  V30 5596 O 544.949 -1.73247 0.534347 0
M  V30 5597 C 544.997 -0.0346976 3.60583 0
M  V30 5598 O 544.101 -1.08657 3.97828 0
M  V30 5599 H 543.442 0.0711618 0.660176 0
M  V30 5600 H 545.972 0.829376 1.87036 0
M  V30 5601 H 545.982 -0.234969 4.07323 0
M  V30 5602 H 544.657 0.917265 4.05659 0
M  V30 5603 H 543.234 -0.863275 3.6277 0
M  V30 5604 N 545.419 -1.53889 0.339982 0
M  V30 5605 C 546.696 -1.93084 -0.312719 0
M  V30 5606 C 547.076 -1.2712 -1.68534 0
M  V30 5607 O 546.424 -0.420835 -2.24591 0
M  V30 5608 C 546.634 -3.4683 -0.388558 0
M  V30 5609 C 547.982 -4.19732 -0.641088 0
M  V30 5610 O 549.006 -3.53075 -0.470818 0
M  V30 5611 O 547.865 -5.3781 -0.970685 0
M  V30 5612 H 544.959 -0.806784 -0.18174 0
M  V30 5613 H 547.505 -1.65137 0.390898 0
M  V30 5614 H 546.277 -3.87055 0.574821 0
M  V30 5615 H 545.9 -3.80933 -1.1391 0
M  V30 5616 N 546.897 -0.0685191 -1.57451 0
M  V30 5617 C 548.146 0.600898 -1.92541 0
M  V30 5618 C 548.459 1.70967 -0.950239 0
M  V30 5619 O 549.665 2.43844 -1.19384 0
M  V30 5620 C 548.121 1.12019 -3.42023 0
M  V30 5621 C 547.729 0.0426028 -4.4798 0
M  V30 5622 C 549.473 1.76386 -3.86119 0
M  V30 5623 C 547.38 0.575759 -5.88591 0
M  V30 5624 H 546.31 0.228225 -0.71863 0
M  V30 5625 H 548.961 -0.140223 -1.82963 0
M  V30 5626 H 547.343 1.91418 -3.46663 0
M  V30 5627 H 548.517 -0.73182 -4.54952 0
M  V30 5628 H 546.832 -0.504642 -4.13331 0
M  V30 5629 H 549.429 2.17302 -4.88553 0
M  V30 5630 H 549.772 2.62255 -3.23308 0
M  V30 5631 H 550.305 1.03615 -3.84069 0
M  V30 5632 H 547.044 -0.245691 -6.55039 0
M  V30 5633 H 546.564 1.31778 -5.85145 0
M  V30 5634 H 548.243 1.0532 -6.3837 0
M  V30 5635 N 548.375 1.56261 0.205012 0
M  V30 5636 C 549.6 1.84491 0.947512 0
M  V30 5637 C 550.025 0.650894 1.76479 0
M  V30 5638 O 549.383 -0.40035 1.76824 0
M  V30 5639 C 549.431 3.10863 1.82747 0
M  V30 5640 O 548.535 2.90719 2.925 0
M  V30 5641 H 547.876 0.607783 0.267386 0
M  V30 5642 H 550.406 2.03485 0.213323 0
M  V30 5643 H 550.416 3.41399 2.23407 0
M  V30 5644 H 549.091 3.97392 1.2269 0
M  V30 5645 H 547.668 2.71457 2.55667 0
M  V30 5646 N 549.853 -0.472356 1.50355 0
M  V30 5647 C 551.081 -1.24784 1.65035 0
M  V30 5648 C 551.496 -1.85837 0.333176 0
M  V30 5649 O 550.853 -1.69168 -0.68472 0
M  V30 5650 C 550.904 -2.35747 2.74054 0
M  V30 5651 O 550.625 -1.77197 4.00665 0
M  V30 5652 C 552.126 -3.26645 2.99696 0
M  V30 5653 H 549.346 -0.377432 0.554785 0
M  V30 5654 H 551.89 -0.563962 1.9657 0
M  V30 5655 H 550.045 -2.99912 2.45217 0
M  V30 5656 H 550.459 -2.5026 4.60945 0
M  V30 5657 H 551.933 -4.00718 3.79644 0
M  V30 5658 H 552.41 -3.8535 2.10718 0
M  V30 5659 H 553.016 -2.68218 3.3006 0
M  V30 5660 N 551.331 -1.39911 -0.725443 0
M  V30 5661 C 552.742 -1.33599 -1.30415 0
M  V30 5662 C 553.093 -0.00481792 -1.96199 0
M  V30 5663 O 552.218 0.897275 -1.96921 0
M  V30 5664 C 552.813 -2.41965 -2.37146 0
M  V30 5665 C 551.372 -2.39144 -2.90667 0
M  V30 5666 C 550.519 -2.23355 -1.64341 0
M  V30 5667 H 553.47 -1.4986 -0.522267 0
M  V30 5668 H 553.491 -2.09304 -3.17761 0
M  V30 5669 H 553.003 -3.38837 -1.89238 0
M  V30 5670 H 551.104 -1.4594 -3.4283 0
M  V30 5671 H 551.217 -3.34362 -3.43131 0
M  V30 5672 H 549.581 -1.70696 -1.89037 0
M  V30 5673 H 550.364 -3.2221 -1.18471 0
M  V30 5674 N 552.809 0.956637 -1.25245 0
M  V30 5675 C 553.719 2.0868 -1.0719 0
M  V30 5676 C 554.735 1.73997 -0.00959074 0
M  V30 5677 O 555.911 2.00301 -0.210104 0
M  V30 5678 C 552.976 3.39754 -0.690526 0
M  V30 5679 C 552.037 3.88316 -1.83055 0
M  V30 5680 C 551.27 5.13134 -1.46728 0
M  V30 5681 O 551.493 5.6925 -0.362029 0
M  V30 5682 O 550.427 5.56356 -2.29677 0
M  V30 5683 H 554.253 2.26813 -2.01965 0
M  V30 5684 H 551.838 1.07098 -1.04165 0
M  V30 5685 H 553.72 4.18543 -0.489871 0
M  V30 5686 H 552.395 3.22896 0.227981 0
M  V30 5687 H 551.302 3.1054 -2.08604 0
M  V30 5688 H 552.635 4.09669 -2.72822 0
M  V30 5689 N 554.287 1.06798 1.15896 0
M  V30 5690 C 555.536 0.782796 1.8589 0
M  V30 5691 C 555.849 -0.693498 1.82893 0
M  V30 5692 O 557.055 -1.09325 2.48516 0
M  V30 5693 C 555.511 1.3502 3.33613 0
M  V30 5694 C 555.119 2.8571 3.45071 0
M  V30 5695 C 556.863 1.14278 4.08829 0
M  V30 5696 C 554.77 3.35669 4.86909 0
M  V30 5697 H 553.7 0.289149 0.696354 0
M  V30 5698 H 556.351 1.28734 1.30766 0
M  V30 5699 H 554.733 0.773407 3.88374 0
M  V30 5700 H 555.907 3.49385 3.00445 0
M  V30 5701 H 554.222 3.05178 2.83294 0
M  V30 5702 H 556.819 1.49087 5.13495 0
M  V30 5703 H 557.162 0.0814575 4.1622 0
M  V30 5704 H 557.695 1.68563 3.60321 0
M  V30 5705 H 554.434 4.41302 4.84698 0
M  V30 5706 H 553.954 2.76745 5.32139 0
M  V30 5707 H 555.633 3.31296 5.55745 0
M  V30 5708 N 555.766 -1.3263 0.851289 0
M  V30 5709 C 556.714 -2.30882 0.282202 0
M  V30 5710 C 557.708 -1.58697 -0.592589 0
M  V30 5711 O 558.914 -1.73461 -0.480768 0
M  V30 5712 H 555.289 -0.748492 0.0725487 0
M  V30 5713 H 557.26 -2.76374 1.12516 0
M  V30 5714 C 556.009 -3.43828 -0.517449 0
M  V30 5715 H 555.332 -3.99532 0.146392 0
M  V30 5716 H 556.772 -4.1474 -0.88128 0
M  V30 5717 C 555.231 -2.90786 -1.70133 0
M  V30 5718 O 555.761 -2.88 -2.80034 0
M  V30 5719 N 553.967 -2.4723 -1.52728 0
M  V30 5720 H 553.514 -2.49695 -0.633257 0
M  V30 5721 H 553.472 -2.12094 -2.32085 0
M  V30 5722 N 557.244 -0.608902 -1.45362 0
M  V30 5723 C 558.493 -0.10218 -2.01441 0
M  V30 5724 C 558.806 1.27546 -1.48295 0
M  V30 5725 O 560.012 1.87498 -1.96359 0
M  V30 5726 C 558.468 -0.131985 -3.59658 0
M  V30 5727 C 558.076 -1.50956 -4.21801 0
M  V30 5728 C 559.82 0.319427 -4.23296 0
M  V30 5729 C 557.727 -1.49568 -5.72174 0
M  V30 5730 H 556.657 -0.0344314 -0.753213 0
M  V30 5731 H 559.308 -0.764426 -1.6682 0
M  V30 5732 H 557.69 0.596939 -3.91475 0
M  V30 5733 H 558.864 -2.26029 -4.01556 0
M  V30 5734 H 557.179 -1.90318 -3.70362 0
M  V30 5735 H 559.776 0.349013 -5.3356 0
M  V30 5736 H 560.119 1.34237 -3.94064 0
M  V30 5737 H 560.652 -0.356273 -3.96201 0
M  V30 5738 H 557.391 -2.49626 -6.06108 0
M  V30 5739 H 556.911 -0.787542 -5.94607 0
M  V30 5740 H 558.59 -1.21989 -6.35396 0
M  V30 5741 N 558.722 1.53707 -0.348139 0
M  V30 5742 C 559.95 2.05406 0.248224 0
M  V30 5743 C 560.365 1.22282 1.43849 0
M  V30 5744 O 559.722 0.259244 1.80649 0
M  V30 5745 C 559.773 3.55446 0.658793 0
M  V30 5746 O 559.494 4.35417 -0.484149 0
M  V30 5747 C 560.995 4.23335 1.31539 0
M  V30 5748 H 558.215 0.669344 0.0471075 0
M  V30 5749 H 560.759 1.98257 -0.501456 0
M  V30 5750 H 558.914 3.62803 1.35841 0
M  V30 5751 H 559.328 5.24268 -0.155949 0
M  V30 5752 H 560.802 5.29692 1.55338 0
M  V30 5753 H 561.279 3.75967 2.27036 0
M  V30 5754 H 561.885 4.20184 0.657683 0
M  V30 5755 N 560.2 0.0768682 1.57412 0
M  V30 5756 C 561.446 -0.591961 1.93968 0
M  V30 5757 C 561.779 -1.68954 0.9575 0
M  V30 5758 O 561.054 -1.94496 -0.0124675 0
M  V30 5759 C 561.337 -1.16418 3.40762 0
M  V30 5760 C 561.19 -0.0728933 4.49741 0
M  V30 5761 C 562.509 -2.06814 3.88479 0
M  V30 5762 H 559.628 -0.213716 0.705333 0
M  V30 5763 H 562.27 0.14387 1.89455 0
M  V30 5764 H 560.42 -1.79128 3.4474 0
M  V30 5765 H 562.092 0.560446 4.57883 0
M  V30 5766 H 560.335 0.595859 4.29688 0
M  V30 5767 H 561.006 -0.513755 5.49604 0
M  V30 5768 H 563.482 -1.54033 3.8654 0
M  V30 5769 H 562.358 -2.43785 4.91793 0
M  V30 5770 H 562.619 -2.97844 3.26713 0
M  V30 5771 N 561.678 -1.56367 -0.196722 0
M  V30 5772 C 562.906 -1.84639 -0.933608 0
M  V30 5773 C 563.321 -0.659164 -1.76919 0
M  V30 5774 O 562.678 0.372142 -1.78665 0
M  V30 5775 C 562.729 -3.11694 -1.83109 0
M  V30 5776 O 562.45 -4.25838 -1.02924 0
M  V30 5777 C 563.951 -3.53132 -2.67979 0
M  V30 5778 H 561.171 -0.613188 -0.272473 0
M  V30 5779 H 563.715 -2.03475 -0.204465 0
M  V30 5780 H 561.87 -2.94759 -2.51387 0
M  V30 5781 H 562.284 -4.98178 -1.64069 0
M  V30 5782 H 563.758 -4.45005 -3.26611 0
M  V30 5783 H 564.235 -2.76045 -3.41608 0
M  V30 5784 H 564.841 -3.72592 -2.05074 0
M  V30 5785 N 563.156 0.464375 -1.50603 0
M  V30 5786 C 564.066 1.58723 -1.72754 0
M  V30 5787 C 565.082 1.62925 -0.610844 0
M  V30 5788 O 566.258 1.8067 -0.889963 0
M  V30 5789 C 563.323 2.94897 -1.82309 0
M  V30 5790 C 562.384 3.0103 -3.06071 0
M  V30 5791 C 561.617 4.30708 -3.1516 0
M  V30 5792 O 561.84 5.2159 -2.30868 0
M  V30 5793 O 560.774 4.42571 -4.0794 0
M  V30 5794 H 564.6 1.42954 -2.67951 0
M  V30 5795 H 562.185 0.644579 -1.3478 0
M  V30 5796 H 564.067 3.75764 -1.90735 0
M  V30 5797 H 562.742 3.10851 -0.902967 0
M  V30 5798 H 561.649 2.19217 -3.03142 0
M  V30 5799 H 562.982 2.90014 -3.97684 0
M  V30 5800 N 564.634 1.40294 0.718013 0
M  V30 5801 C 565.911 1.2894 1.47084 0
M  V30 5802 C 566.291 -0.0933625 2.10893 0
M  V30 5803 O 565.639 -1.10598 1.99951 0
M  V30 5804 C 565.849 2.4264 2.50852 0
M  V30 5805 C 567.197 2.8276 3.16752 0
M  V30 5806 O 568.221 2.42215 2.61171 0
M  V30 5807 O 567.08 3.528 4.17366 0
M  V30 5808 H 564.174 0.506236 0.653952 0
M  V30 5809 H 566.72 1.52208 0.750394 0
M  V30 5810 H 565.492 3.35009 2.022 0
M  V30 5811 H 565.115 2.21129 3.30435 0
M  V30 5812 N 566.112 -0.949982 1.2575 0
M  V30 5813 C 567.337 -1.73503 1.13628 0
M  V30 5814 C 567.762 -1.85601 -0.30559 0
M  V30 5815 O 567.12 -1.33984 -1.22139 0
M  V30 5816 C 567.168 -3.1243 1.80055 0
M  V30 5817 O 566.272 -3.97916 1.08336 0
M  V30 5818 H 565.613 -0.532665 0.396439 0
M  V30 5819 H 568.143 -1.19043 1.66403 0
M  V30 5820 H 568.153 -3.62866 1.86527 0
M  V30 5821 H 566.828 -3.02941 2.84956 0
M  V30 5822 H 565.405 -3.56375 1.09777 0
M  V30 5823 N 567.59 -1.07411 -1.15328 0
M  V30 5824 C 568.537 -0.694995 -2.20087 0
M  V30 5825 C 569.507 0.313904 -1.63107 0
M  V30 5826 O 570.692 0.200216 -1.89747 0
M  V30 5827 C 567.832 -0.0996218 -3.44956 0
M  V30 5828 C 566.945 -1.16007 -4.16133 0
M  V30 5829 C 566.08 -0.529636 -5.28553 0
M  V30 5830 C 565.119 -1.57283 -5.91548 0
M  V30 5831 N 564.256 -0.964932 -6.95438 0
M  V30 5832 H 569.096 -1.5927 -2.51867 0
M  V30 5833 H 566.633 -0.796115 -1.23695 0
M  V30 5834 H 568.591 0.263197 -4.16369 0
M  V30 5835 H 567.221 0.761435 -3.13691 0
M  V30 5836 H 566.273 -1.64045 -3.4321 0
M  V30 5837 H 567.585 -1.95101 -4.59061 0
M  V30 5838 H 566.739 -0.114487 -6.06592 0
M  V30 5839 H 565.478 0.29307 -4.86819 0
M  V30 5840 H 564.483 -1.99775 -5.12221 0
M  V30 5841 H 565.708 -2.39783 -6.35359 0
M  V30 5842 H 563.654 -0.16314 -6.55797 0
M  V30 5843 H 563.571 -1.69311 -7.36797 0
M  V30 5844 H 564.839 -0.575305 -7.77374 0
M  V30 5845 N 569.068 1.32177 -0.85831 0
M  V30 5846 C 570.315 1.97125 -0.463484 0
M  V30 5847 C 570.643 1.67907 0.981705 0
M  V30 5848 O 569.898 0.961717 1.70439 0
M  V30 5849 C 570.197 3.51372 -0.653658 0
M  V30 5850 C 569.863 4.00584 -2.06987 0
M  V30 5851 C 568.525 4.13733 -2.4572 0
M  V30 5852 C 570.877 4.26624 -2.99402 0
M  V30 5853 C 568.205 4.50268 -3.76132 0
M  V30 5854 C 570.557 4.64618 -4.29316 0
M  V30 5855 C 569.221 4.75975 -4.67979 0
M  V30 5856 H 568.491 0.72133 -0.169601 0
M  V30 5857 H 571.138 1.57517 -1.08907 0
M  V30 5858 H 569.443 3.91761 0.0551328 0
M  V30 5859 H 571.14 3.99655 -0.328163 0
M  V30 5860 H 567.73 3.90837 -1.75911 0
M  V30 5861 H 571.914 4.1597 -2.70708 0
M  V30 5862 H 567.17 4.57256 -4.05865 0
M  V30 5863 H 571.344 4.83722 -5.00985 0
M  V30 5864 H 568.971 5.04041 -5.69076 0
M  V30 5865 N 570.547 0.616602 1.45037 0
M  V30 5866 C 571.51 -0.0871112 2.29034 0
M  V30 5867 C 572.51 -0.786414 1.40258 0
M  V30 5868 O 573.7 -0.633207 1.62284 0
M  V30 5869 C 570.832 -1.13369 3.21497 0
M  V30 5870 H 572.025 0.651497 2.92738 0
M  V30 5871 H 569.578 0.376058 1.51709 0
M  V30 5872 H 570.313 -1.90277 2.62612 0
M  V30 5873 H 570.098 -0.636358 3.86902 0
M  V30 5874 H 571.588 -1.62627 3.84633 0
M  V30 5875 N 572.025 -1.5352 0.356285 0
M  V30 5876 C 573.274 -2.00298 -0.237373 0
M  V30 5877 C 573.587 -1.24784 -1.50627 0
M  V30 5878 O 574.793 -1.62103 -2.17795 0
M  V30 5879 C 573.249 -3.56771 -0.473545 0
M  V30 5880 C 572.857 -4.41154 0.780183 0
M  V30 5881 C 574.601 -4.1193 -1.02537 0
M  V30 5882 C 572.508 -5.89161 0.514108 0
M  V30 5883 H 571.438 -0.748307 -0.092478 0
M  V30 5884 H 574.089 -1.77283 0.473588 0
M  V30 5885 H 572.471 -3.75902 -1.24553 0
M  V30 5886 H 573.645 -4.33797 1.55425 0
M  V30 5887 H 571.96 -3.97052 1.25455 0
M  V30 5888 H 574.557 -5.20133 -1.2396 0
M  V30 5889 H 574.9 -3.65943 -1.98473 0
M  V30 5890 H 575.433 -3.96561 -0.313775 0
M  V30 5891 H 572.172 -6.39408 1.44355 0
M  V30 5892 H 571.692 -5.9939 -0.221632 0
M  V30 5893 H 573.371 -6.46857 0.136122 0
M  V30 5894 N 573.503 -0.0852151 -1.57369 0
M  V30 5895 C 574.752 0.580443 -1.93168 0
M  V30 5896 C 575.065 1.6995 -0.968319 0
M  V30 5897 O 576.271 2.42564 -1.21963 0
M  V30 5898 C 574.727 1.08386 -3.43192 0
M  V30 5899 C 574.335 -0.00491388 -4.48 0
M  V30 5900 C 576.079 1.72281 -3.87968 0
M  V30 5901 C 573.986 0.513299 -5.89168 0
M  V30 5902 H 572.916 0.22059 -0.72101 0
M  V30 5903 H 575.567 -0.159621 -1.82804 0
M  V30 5904 H 573.949 1.8773 -3.48674 0
M  V30 5905 H 575.123 -0.780032 -4.5415 0
M  V30 5906 H 573.438 -0.548453 -4.12772 0
M  V30 5907 H 576.035 2.12108 -4.9083 0
M  V30 5908 H 576.378 2.58811 -3.26071 0
M  V30 5909 H 576.911 0.995359 -3.85146 0
M  V30 5910 H 573.65 -0.315153 -6.54742 0
M  V30 5911 H 573.17 1.25564 -5.8651 0
M  V30 5912 H 574.849 0.985433 -6.39451 0
M  V30 5913 N 574.981 1.5647 0.188427 0
M  V30 5914 C 575.891 1.98285 1.2538 0
M  V30 5915 C 576.907 0.891535 1.49424 0
M  V30 5916 O 578.083 1.19782 1.61908 0
M  V30 5917 C 575.148 2.31965 2.57669 0
M  V30 5918 C 574.209 3.54838 2.41638 0
M  V30 5919 C 573.442 3.86901 3.67618 0
M  V30 5920 O 573.665 3.20163 4.72072 0
M  V30 5921 O 572.599 4.80309 3.62749 0
M  V30 5922 H 576.425 2.89145 0.928912 0
M  V30 5923 H 574.01 1.44112 0.393955 0
M  V30 5924 H 575.892 2.54673 3.35737 0
M  V30 5925 H 574.567 1.44271 2.89771 0
M  V30 5926 H 573.474 3.37369 1.61658 0
M  V30 5927 H 574.807 4.43019 2.14465 0
M  V30 5928 N 576.459 -0.456382 1.50847 0
M  V30 5929 C 577.422 -1.53493 1.70213 0
M  V30 5930 C 578.422 -1.50264 0.572481 0
M  V30 5931 O 579.612 -1.52623 0.839751 0
M  V30 5932 C 576.744 -2.93091 1.741 0
M  V30 5933 H 577.937 -1.37633 2.66453 0
M  V30 5934 H 575.49 -0.683776 1.4055 0
M  V30 5935 H 576.225 -3.14378 0.796063 0
M  V30 5936 H 576.01 -2.9684 2.5618 0
M  V30 5937 H 577.5 -3.71368 1.90987 0
M  V30 5938 N 577.937 -1.40673 -0.710563 0
M  V30 5939 C 578.867 -1.44095 -1.83736 0
M  V30 5940 C 579.848 -0.301286 -1.67411 0
M  V30 5941 O 581.033 -0.510618 -1.87367 0
M  V30 5942 C 578.163 -1.30773 -3.21738 0
M  V30 5943 C 577.117 -2.42395 -3.52745 0
M  V30 5944 C 576.443 -2.14147 -4.89944 0
M  V30 5945 C 577.743 -3.84738 -3.53234 0
M  V30 5946 H 579.437 -2.38396 -1.81129 0
M  V30 5947 H 576.983 -1.14746 -0.870017 0
M  V30 5948 H 578.936 -1.31783 -4.00264 0
M  V30 5949 H 577.66 -0.329507 -3.24934 0
M  V30 5950 H 576.319 -2.40643 -2.76562 0
M  V30 5951 H 575.967 -1.14703 -4.89747 0
M  V30 5952 H 575.667 -2.88934 -5.11655 0
M  V30 5953 H 577.191 -2.16848 -5.70797 0
M  V30 5954 H 578.605 -3.88286 -4.2179 0
M  V30 5955 H 577.002 -4.59085 -3.86473 0
M  V30 5956 H 578.072 -4.13962 -2.52514 0
M  V30 5957 N 579.415 0.9433 -1.26252 0
M  V30 5958 C 580.347 2.04542 -1.03417 0
M  V30 5959 C 581.36 1.62799 0.0046911 0
M  V30 5960 O 582.549 1.76944 -0.235146 0
M  V30 5961 C 579.649 3.34511 -0.543671 0
M  V30 5962 C 578.822 4.05033 -1.65128 0
M  V30 5963 C 577.881 5.13273 -1.1592 0
M  V30 5964 O 576.907 5.38095 -1.85586 0
M  V30 5965 N 578.109 5.805 -0.00649279 0
M  V30 5966 H 580.874 2.24699 -1.98319 0
M  V30 5967 H 578.435 1.11264 -1.1761 0
M  V30 5968 H 580.427 4.04212 -0.198703 0
M  V30 5969 H 578.997 3.11042 0.311711 0
M  V30 5970 H 578.217 3.29275 -2.16729 0
M  V30 5971 H 579.505 4.48903 -2.39508 0
M  V30 5972 H 578.903 5.62767 0.575347 0
M  V30 5973 H 577.46 6.51201 0.279416 0
M  V30 5974 N 580.893 1.08022 1.14757 0
M  V30 5975 C 582.309 0.807072 1.3769 0
M  V30 5976 C 582.509 -0.585504 1.92806 0
M  V30 5977 O 581.565 -1.34301 2.13821 0
M  V30 5978 C 582.878 1.88651 2.34161 0
M  V30 5979 C 584.426 1.91206 2.47809 0
M  V30 5980 C 584.901 2.98253 3.47576 0
M  V30 5981 N 586.392 2.974 3.55117 0
M  V30 5982 C 587.127 3.76872 4.32152 0
M  V30 5983 N 586.623 4.66212 5.12463 0
M  V30 5984 N 588.416 3.6519 4.27309 0
M  V30 5985 H 580.567 1.97824 0.77326 0
M  V30 5986 H 582.83 0.85826 0.402608 0
M  V30 5987 H 582.536 2.88749 2.00791 0
M  V30 5988 H 582.41 1.75244 3.3402 0
M  V30 5989 H 584.797 0.917564 2.80472 0
M  V30 5990 H 584.878 2.08691 1.47925 0
M  V30 5991 H 584.522 3.97907 3.15646 0
M  V30 5992 H 584.452 2.78014 4.47231 0
M  V30 5993 H 586.943 2.32643 2.97801 0
M  V30 5994 H 587.256 5.23468 5.68508 0
M  V30 5995 H 585.601 4.70257 5.11745 0
M  V30 5996 H 588.792 2.94765 3.63636 0
M  V30 5997 H 588.965 4.27366 4.87095 0
M  V30 5998 N 582.371 -1.3172 0.865308 0
M  V30 5999 C 583.648 -1.91574 0.394789 0
M  V30 6000 C 584.028 -1.78769 -1.12271 0
M  V30 6001 O 583.376 -1.19245 -1.94918 0
M  V30 6002 C 583.586 -3.37957 0.870982 0
M  V30 6003 C 584.934 -4.15073 0.894384 0
M  V30 6004 O 585.958 -3.4672 0.816325 0
M  V30 6005 O 584.817 -5.37151 1.00651 0
M  V30 6006 H 581.911 -0.818649 0.117229 0
M  V30 6007 H 584.457 -1.4042 0.952913 0
M  V30 6008 H 583.229 -3.41269 1.91444 0
M  V30 6009 H 582.852 -3.96534 0.290907 0
M  V30 6010 N 583.85 -0.624285 -1.44708 0
M  V30 6011 C 584.812 0.0749638 -2.29077 0
M  V30 6012 C 585.812 0.778965 -1.40673 0
M  V30 6013 O 587.003 0.624591 -1.62618 0
M  V30 6014 C 584.135 1.11663 -3.22094 0
M  V30 6015 H 585.327 -0.667013 -2.92388 0
M  V30 6016 H 582.88 -0.384098 -1.51507 0
M  V30 6017 H 583.615 1.88881 -2.63618 0
M  V30 6018 H 583.401 0.61583 -3.87234 0
M  V30 6019 H 584.891 1.60585 -3.8549 0
M  V30 6020 N 585.328 1.53329 -0.364422 0
M  V30 6021 C 586.26 2.23286 0.517293 0
M  V30 6022 C 587.273 1.24657 1.04711 0
M  V30 6023 O 588.462 1.50887 0.95369 0
M  V30 6024 C 585.562 2.91604 1.72685 0
M  V30 6025 C 584.735 4.1673 1.32873 0
M  V30 6026 C 583.794 4.68269 2.40022 0
M  V30 6027 O 582.82 5.31976 2.02461 0
M  V30 6028 N 584.022 4.45983 3.7159 0
M  V30 6029 H 586.787 2.99588 -0.0819391 0
M  V30 6030 H 584.348 1.60787 -0.189544 0
M  V30 6031 H 586.34 3.22992 2.4384 0
M  V30 6032 H 584.91 2.18763 2.23297 0
M  V30 6033 H 584.13 3.91657 0.447069 0
M  V30 6034 H 585.418 4.98078 1.03902 0
M  V30 6035 H 584.816 3.95077 4.04883 0
M  V30 6036 H 583.373 4.81924 4.38854 0
M  V30 6037 N 586.806 0.0935595 1.57322 0
M  V30 6038 C 588.052 -0.565234 1.95388 0
M  V30 6039 C 588.407 -1.65888 0.974632 0
M  V30 6040 O 587.7 -1.916 0.000376385 0
M  V30 6041 C 587.894 -1.16692 3.37813 0
M  V30 6042 C 587.723 -0.133091 4.49503 0
M  V30 6043 C 586.493 0.289884 5.04468 0
M  V30 6044 C 588.691 0.638141 5.10326 0
M  V30 6045 N 586.673 1.31214 5.99713 0
M  V30 6046 C 588.044 1.51227 6.01274 0
M  V30 6047 C 590.099 0.691827 4.9307 0
M  V30 6048 C 588.802 2.43536 6.76818 0
M  V30 6049 C 590.828 1.60251 5.69274 0
M  V30 6050 C 590.19 2.46427 6.59889 0
M  V30 6051 H 586.289 -0.177212 0.761656 0
M  V30 6052 H 588.873 0.175769 1.93905 0
M  V30 6053 H 587.044 -1.87775 3.39993 0
M  V30 6054 H 588.776 -1.78795 3.63063 0
M  V30 6055 H 585.531 -0.0975541 4.735 0
M  V30 6056 H 585.955 1.82143 6.52038 0
M  V30 6057 H 590.597 0.0397431 4.22781 0
M  V30 6058 H 588.315 3.0977 7.4637 0
M  V30 6059 H 591.901 1.64917 5.57937 0
M  V30 6060 H 590.781 3.15751 7.17824 0
M  V30 6061 N 588.284 -1.56567 -0.180126 0
M  V30 6062 C 589.532 -1.81133 -0.896392 0
M  V30 6063 C 589.853 -0.669114 -1.83161 0
M  V30 6064 O 589.123 0.311616 -1.93406 0
M  V30 6065 H 587.703 -0.668172 -0.333999 0
M  V30 6066 H 590.365 -1.94048 -0.182051 0
M  V30 6067 H 589.461 -2.74854 -1.47857 0
M  V30 6068 N 589.762 0.448376 -1.51087 0
M  V30 6069 C 590.672 1.56882 -1.74428 0
M  V30 6070 C 591.688 1.62268 -0.62809 0
M  V30 6071 O 592.864 1.79716 -0.909075 0
M  V30 6072 C 589.929 2.92947 -1.85426 0
M  V30 6073 C 588.99 2.97766 -3.09247 0
M  V30 6074 C 588.223 4.27341 -3.19711 0
M  V30 6075 O 588.446 5.19112 -2.36387 0
M  V30 6076 O 587.38 4.38219 -4.12611 0
M  V30 6077 H 591.206 1.40104 -2.69452 0
M  V30 6078 H 588.791 0.630247 -1.35456 0
M  V30 6079 H 590.673 3.73719 -1.94709 0
M  V30 6080 H 589.348 3.09876 -0.935887 0
M  V30 6081 H 588.255 2.15989 -3.0545 0
M  V30 6082 H 589.588 2.8578 -4.00738 0
M  V30 6083 N 591.24 1.41047 0.703093 0
M  V30 6084 C 592.488 1.39723 1.4602 0
M  V30 6085 C 592.809 0.00461257 1.94999 0
M  V30 6086 O 592.079 -0.952292 1.71196 0
M  V30 6087 H 590.659 0.514281 0.541779 0
M  V30 6088 H 593.321 1.76217 0.832678 0
M  V30 6089 H 592.417 2.07982 2.32701 0
M  V30 6090 N 592.718 -0.936591 1.26751 0
M  V30 6091 C 593.666 -2.0573 1.08527 0
M  V30 6092 C 594.66 -1.69397 0.0108784 0
M  V30 6093 O 595.866 -1.79215 0.167915 0
M  V30 6094 H 592.241 -0.673691 0.334133 0
M  V30 6095 H 594.212 -2.1825 2.03493 0
M  V30 6096 C 592.961 -3.39738 0.739845 0
M  V30 6097 H 592.284 -3.68174 1.55845 0
M  V30 6098 H 593.724 -4.18955 0.652149 0
M  V30 6099 C 592.183 -3.32292 -0.555288 0
M  V30 6100 O 592.713 -3.68794 -1.59229 0
M  V30 6101 N 590.919 -2.85394 -0.54762 0
M  V30 6102 H 590.466 -2.55886 0.296667 0
M  V30 6103 H 590.424 -2.80795 -1.41427 0
M  V30 6104 N 594.196 -1.08629 -1.14182 0
M  V30 6105 C 595.445 -0.812271 -1.84621 0
M  V30 6106 C 595.758 0.664313 -1.83973 0
M  V30 6107 O 596.964 1.05357 -2.50224 0
M  V30 6108 C 595.42 -1.4031 -3.31423 0
M  V30 6109 C 595.028 -2.91164 -3.40481 0
M  V30 6110 C 596.772 -1.20767 -4.06959 0
M  V30 6111 C 594.679 -3.43373 -4.81507 0
M  V30 6112 H 593.609 -0.30019 -0.691666 0
M  V30 6113 H 596.26 -1.30798 -1.28701 0
M  V30 6114 H 594.642 -0.835096 -3.87094 0
M  V30 6115 H 595.816 -3.5412 -2.94848 0
M  V30 6116 H 594.131 -3.09646 -2.78403 0
M  V30 6117 H 596.728 -1.57237 -5.11058 0
M  V30 6118 H 597.071 -0.147664 -4.16038 0
M  V30 6119 H 597.604 -1.74274 -3.57594 0
M  V30 6120 H 594.343 -4.48958 -4.77616 0
M  V30 6121 H 593.863 -2.85176 -5.27669 0
M  V30 6122 H 595.542 -3.40095 -5.50404 0
M  V30 6123 N 595.674 1.31259 -0.872281 0
M  V30 6124 C 596.902 2.00795 -0.498907 0
M  V30 6125 C 597.317 1.65464 0.909238 0
M  V30 6126 O 596.674 0.885073 1.59602 0
M  V30 6127 C 596.725 3.55625 -0.649092 0
M  V30 6128 O 596.446 3.89692 -2.00179 0
M  V30 6129 C 597.947 4.42434 -0.277034 0
M  V30 6130 H 595.167 0.642299 -0.194145 0
M  V30 6131 H 597.711 1.67438 -1.17408 0
M  V30 6132 H 595.866 3.87394 -0.0214402 0
M  V30 6133 H 596.28 4.84407 -2.01122 0
M  V30 6134 H 597.754 5.50299 -0.433064 0
M  V30 6135 H 598.231 4.32146 0.783989 0
M  V30 6136 H 598.837 4.16086 -0.880483 0
M  V30 6137 N 597.152 0.631951 1.44375 0
M  V30 6138 C 598.38 0.143867 2.06399 0
M  V30 6139 C 598.795 -1.18188 1.47231 0
M  V30 6140 O 598.152 -1.72511 0.595498 0
M  V30 6141 C 598.203 0.0238253 3.61492 0
M  V30 6142 O 597.924 1.29715 4.18456 0
M  V30 6143 C 599.425 -0.492856 4.40552 0
M  V30 6144 H 596.645 0.0800542 0.666207 0
M  V30 6145 H 599.189 0.866586 1.85231 0
M  V30 6146 H 597.344 -0.649338 3.81919 0
M  V30 6147 H 597.758 1.14252 5.11905 0
M  V30 6148 H 599.232 -0.525861 5.49489 0
M  V30 6149 H 599.709 -1.52006 4.12057 0
M  V30 6150 H 600.315 0.147085 4.25046 0
M  V30 6151 N 598.631 -1.53133 0.372548 0
M  V30 6152 C 599.561 -2.28876 -0.462412 0
M  V30 6153 C 600.542 -1.31583 -1.07796 0
M  V30 6154 O 601.727 -1.60461 -1.09389 0
M  V30 6155 C 598.857 -3.08317 -1.59868 0
M  V30 6156 C 597.811 -4.13355 -1.11003 0
M  V30 6157 C 597.137 -4.8092 -2.33708 0
M  V30 6158 C 598.437 -5.21955 -0.18983 0
M  V30 6159 H 600.131 -2.9892 0.169511 0
M  V30 6160 H 597.677 -1.43761 0.0829658 0
M  V30 6161 H 599.63 -3.60055 -2.18949 0
M  V30 6162 H 598.354 -2.35976 -2.25794 0
M  V30 6163 H 597.013 -3.62573 -0.541869 0
M  V30 6164 H 596.661 -4.05144 -2.98106 0
M  V30 6165 H 596.361 -5.51904 -2.01682 0
M  V30 6166 H 597.885 -5.35455 -2.93462 0
M  V30 6167 H 599.299 -5.69153 -0.688319 0
M  V30 6168 H 597.696 -6.00087 0.0398887 0
M  V30 6169 H 598.766 -4.78811 0.766057 0
M  V30 6170 N 600.109 -0.101901 -1.5727 0
M  V30 6171 C 601.386 0.602832 -1.86079 0
M  V30 6172 C 601.766 1.85912 -1 0
M  V30 6173 O 601.114 2.28379 -0.0742488 0
M  V30 6174 C 601.324 0.911694 -3.36881 0
M  V30 6175 C 602.672 1.2722 -4.05093 0
M  V30 6176 O 603.696 1.0025 -3.41802 0
M  V30 6177 O 602.555 1.7776 -5.16782 0
M  V30 6178 H 599.649 0.302366 -0.769743 0
M  V30 6179 H 602.195 -0.135113 -1.69161 0
M  V30 6180 H 600.967 0.0207256 -3.91295 0
M  V30 6181 H 600.59 1.70538 -3.59169 0
M  V30 6182 N 601.587 1.56661 0.17182 0
M  V30 6183 C 602.835 1.81606 0.886774 0
M  V30 6184 C 603.156 0.678818 1.82803 0
M  V30 6185 O 602.426 -0.301354 1.93568 0
M  V30 6186 H 601.006 0.669934 0.330451 0
M  V30 6187 H 603.668 1.94142 0.171757 0
M  V30 6188 H 602.764 2.75634 1.46398 0
M  V30 6189 N 603.065 -0.440357 1.51323 0
M  V30 6190 C 604.311 -1.19181 1.64085 0
M  V30 6191 C 604.644 -1.90936 0.354575 0
M  V30 6192 O 603.919 -1.8347 -0.645675 0
M  V30 6193 C 604.202 -2.2112 2.84215 0
M  V30 6194 C 604.055 -1.53468 4.22809 0
M  V30 6195 C 605.374 -3.22133 2.99864 0
M  V30 6196 H 602.493 -0.431924 0.597169 0
M  V30 6197 H 605.135 -0.481443 1.83799 0
M  V30 6198 H 603.285 -2.81703 2.67537 0
M  V30 6199 H 604.957 -0.962455 4.51148 0
M  V30 6200 H 603.2 -0.837086 4.25647 0
M  V30 6201 H 603.871 -2.27694 5.02852 0
M  V30 6202 H 606.347 -2.71601 3.15233 0
M  V30 6203 H 605.223 -3.90756 3.85488 0
M  V30 6204 H 605.484 -3.88061 2.11804 0
M  V30 6205 N 604.543 -1.41418 -0.695603 0
M  V30 6206 C 605.959 -1.23887 -1.00619 0
M  V30 6207 C 606.159 -0.128206 -2.01092 0
M  V30 6208 O 605.215 0.507408 -2.47349 0
M  V30 6209 C 606.528 -2.58816 -1.53083 0
M  V30 6210 C 608.076 -2.65998 -1.64967 0
M  V30 6211 C 608.551 -4.01244 -2.20833 0
M  V30 6212 N 610.042 -4.0309 -2.28194 0
M  V30 6213 C 610.777 -5.04539 -2.72448 0
M  V30 6214 N 610.273 -6.16378 -3.16306 0
M  V30 6215 N 612.066 -4.91901 -2.72011 0
M  V30 6216 H 604.217 -2.12379 -0.0300061 0
M  V30 6217 H 606.48 -0.944958 -0.0758797 0
M  V30 6218 H 606.186 -3.40842 -0.867147 0
M  V30 6219 H 606.06 -2.81299 -2.51298 0
M  V30 6220 H 608.447 -1.84331 -2.30448 0
M  V30 6221 H 608.528 -2.47325 -0.652982 0
M  V30 6222 H 608.172 -4.83359 -1.55968 0
M  V30 6223 H 608.102 -4.17257 -3.21254 0
M  V30 6224 H 610.593 -3.22341 -1.97242 0
M  V30 6225 H 610.906 -6.89658 -3.487 0
M  V30 6226 H 609.251 -6.19914 -3.14215 0
M  V30 6227 H 612.442 -4.03613 -2.37095 0
M  V30 6228 H 612.615 -5.71102 -3.06181 0
M  V30 6229 N 606.021 0.929856 -1.27246 0
M  V30 6230 C 607.267 1.6798 -1.13625 0
M  V30 6231 C 607.6 1.91586 0.317589 0
M  V30 6232 O 606.875 1.50467 1.23247 0
M  V30 6233 C 607.158 3.04766 -1.91806 0
M  V30 6234 C 607.011 2.88415 -3.45162 0
M  V30 6235 C 608.33 4.05063 -1.72082 0
M  V30 6236 H 605.449 0.609632 -0.414147 0
M  V30 6237 H 608.091 1.0792 -1.56376 0
M  V30 6238 H 606.241 3.56034 -1.55474 0
M  V30 6239 H 607.913 2.44282 -3.91311 0
M  V30 6240 H 606.156 2.23802 -3.71611 0
M  V30 6241 H 606.827 3.85482 -3.95105 0
M  V30 6242 H 609.303 3.62798 -2.03757 0
M  V30 6243 H 608.179 4.98765 -2.29182 0
M  V30 6244 H 608.44 4.37021 -0.668206 0
M  V30 6245 N 607.499 1.09233 1.13605 0
M  V30 6246 C 608.776 0.739633 1.81077 0
M  V30 6247 C 609.156 -0.775595 1.96336 0
M  V30 6248 O 608.504 -1.69726 1.52988 0
M  V30 6249 C 608.714 1.47636 3.16235 0
M  V30 6250 C 610.062 1.64087 3.91613 0
M  V30 6251 O 611.086 1.43871 3.25852 0
M  V30 6252 O 609.945 1.97511 5.0956 0
M  V30 6253 H 607.039 0.265464 0.783236 0
M  V30 6254 H 609.585 1.19441 1.20549 0
M  V30 6255 H 608.357 2.50818 3.00344 0
M  V30 6256 H 607.98 1.01362 3.84462 0
M  V30 6257 N 608.977 -1.30795 0.87923 0
M  V30 6258 C 610.207 -2.00237 0.50881 0
M  V30 6259 C 610.615 -1.66115 -0.905682 0
M  V30 6260 O 609.958 -0.89138 -1.60624 0
M  V30 6261 C 610.02 -3.54508 0.597003 0
M  V30 6262 C 609.684 -4.12131 1.97477 0
M  V30 6263 C 610.681 -4.28552 2.94346 0
M  V30 6264 C 608.366 -4.47644 2.2786 0
M  V30 6265 C 610.36 -4.79689 4.19735 0
M  V30 6266 C 608.047 -4.98481 3.53496 0
M  V30 6267 C 609.045 -5.14456 4.49248 0
M  V30 6268 O 608.733 -5.64199 5.72656 0
M  V30 6269 H 608.465 -0.647026 0.195788 0
M  V30 6270 H 611.019 -1.67785 1.1848 0
M  V30 6271 H 609.249 -3.86461 -0.135945 0
M  V30 6272 H 610.938 -4.05198 0.238684 0
M  V30 6273 H 611.704 -4.01424 2.72183 0
M  V30 6274 H 607.583 -4.34481 1.54102 0
M  V30 6275 H 611.127 -4.92073 4.9448 0
M  V30 6276 H 607.024 -5.25044 3.75498 0
M  V30 6277 H 607.792 -5.82551 5.74957 0
M  V30 6278 N 610.455 -0.639598 -1.44038 0
M  V30 6279 C 611.866 -0.228866 -1.85292 0
M  V30 6280 C 612.217 1.22161 -1.53529 0
M  V30 6281 O 611.342 1.93064 -0.977518 0
M  V30 6282 C 611.937 -0.408592 -3.36327 0
M  V30 6283 C 610.496 -0.0522953 -3.76364 0
M  V30 6284 C 609.643 -0.717959 -2.67844 0
M  V30 6285 H 612.594 -0.844194 -1.34384 0
M  V30 6286 H 612.615 0.349968 -3.78887 0
M  V30 6287 H 612.127 -1.46435 -3.59414 0
M  V30 6288 H 610.228 1.0014 -3.58891 0
M  V30 6289 H 610.341 -0.468261 -4.76806 0
M  V30 6290 H 608.705 -0.152459 -2.54243 0
M  V30 6291 H 609.488 -1.77648 -2.93762 0
M  V30 6292 N 611.933 1.52934 -0.380664 0
M  V30 6293 C 612.88 2.26197 0.458641 0
M  V30 6294 C 613.85 1.27462 1.06502 0
M  V30 6295 O 615.035 1.56274 1.09467 0
M  V30 6296 C 612.175 3.06571 1.58456 0
M  V30 6297 C 611.288 4.20222 1.00189 0
M  V30 6298 C 610.423 4.88007 2.09815 0
M  V30 6299 C 609.462 5.93665 1.49092 0
M  V30 6300 N 608.599 6.55081 2.52613 0
M  V30 6301 H 613.439 2.975 -0.172595 0
M  V30 6302 H 610.976 1.4678 -0.0969426 0
M  V30 6303 H 612.934 3.51455 2.24801 0
M  V30 6304 H 611.564 2.37494 2.18624 0
M  V30 6305 H 610.616 3.79714 0.228292 0
M  V30 6306 H 611.928 4.96102 0.518064 0
M  V30 6307 H 611.082 5.36151 2.83948 0
M  V30 6308 H 609.821 4.11632 2.61555 0
M  V30 6309 H 608.826 5.44868 0.7348 0
M  V30 6310 H 610.051 6.71969 0.981582 0
M  V30 6311 H 607.997 5.8155 3.03538 0
M  V30 6312 H 607.914 7.26548 2.08961 0
M  V30 6313 H 609.182 7.07871 3.26402 0
M  V30 6314 N 613.412 0.11024 1.57214 0
M  V30 6315 C 614.66 -0.548783 1.94506 0
M  V30 6316 C 614.981 -1.67772 0.99386 0
M  V30 6317 O 614.251 -1.9584 0.0485841 0
M  V30 6318 H 612.831 -0.205715 0.718116 0
M  V30 6319 H 615.493 0.177127 1.94093 0
M  V30 6320 H 614.589 -0.949096 2.97319 0
M  V30 6321 N 614.89 -1.56749 -0.16351 0
M  V30 6322 C 616.136 -1.83597 -0.875436 0
M  V30 6323 C 616.491 -0.691907 -1.79528 0
M  V30 6324 O 615.784 0.311193 -1.89056 0
M  V30 6325 C 615.978 -3.14342 -1.70071 0
M  V30 6326 C 615.807 -4.41356 -0.862265 0
M  V30 6327 C 614.577 -5.02467 -0.534299 0
M  V30 6328 C 616.775 -5.1391 -0.200203 0
M  V30 6329 N 614.757 -6.13068 0.31947 0
M  V30 6330 C 616.128 -6.17862 0.514398 0
M  V30 6331 C 618.183 -4.97757 -0.119171 0
M  V30 6332 C 616.886 -7.07412 1.30236 0
M  V30 6333 C 618.912 -5.87756 0.655477 0
M  V30 6334 C 618.274 -6.91178 1.35842 0
M  V30 6335 H 614.373 -0.722702 -0.298708 0
M  V30 6336 H 616.957 -1.94182 -0.141883 0
M  V30 6337 H 615.128 -3.04933 -2.40562 0
M  V30 6338 H 616.86 -3.29156 -2.35453 0
M  V30 6339 H 613.615 -4.65611 -0.866222 0
M  V30 6340 H 614.039 -6.72978 0.736893 0
M  V30 6341 H 618.681 -4.178 -0.648278 0
M  V30 6342 H 616.399 -7.86808 1.84278 0
M  V30 6343 H 619.985 -5.77328 0.719948 0
M  V30 6344 H 618.865 -7.59614 1.94822 0
M  V30 6345 N 616.368 0.432326 -1.51554 0
M  V30 6346 C 617.616 1.17901 -1.64146 0
M  V30 6347 C 617.937 1.91604 -0.362367 0
M  V30 6348 O 617.207 1.85764 0.621968 0
M  V30 6349 H 615.787 0.438206 -0.604966 0
M  V30 6350 H 618.449 0.495172 -1.88505 0
M  V30 6351 H 617.545 1.90584 -2.47152 0
M  V30 6352 N 617.846 1.41785 0.688094 0
M  V30 6353 C 618.776 1.47 1.8142 0
M  V30 6354 C 619.757 0.327881 1.6691 0
M  V30 6355 O 620.942 0.540362 1.86531 0
M  V30 6356 C 618.072 1.35876 3.19617 0
M  V30 6357 C 617.026 2.47976 3.48844 0
M  V30 6358 C 616.352 2.21915 4.86475 0
M  V30 6359 C 617.652 3.90309 3.47068 0
M  V30 6360 H 619.346 2.41247 1.77314 0
M  V30 6361 H 616.892 1.16116 0.851651 0
M  V30 6362 H 618.845 1.38134 3.98117 0
M  V30 6363 H 617.569 0.38116 3.24368 0
M  V30 6364 H 616.228 2.45013 2.72698 0
M  V30 6365 H 615.876 1.2248 4.8786 0
M  V30 6366 H 615.576 2.97037 5.06994 0
M  V30 6367 H 617.1 2.25901 5.67275 0
M  V30 6368 H 618.514 3.94947 4.1556 0
M  V30 6369 H 616.911 4.65175 3.7912 0
M  V30 6370 H 617.981 4.17927 2.45896 0
M  V30 6371 N 619.324 -0.923095 1.27737 0
M  V30 6372 C 620.57 -1.67375 1.14514 0
M  V30 6373 C 620.903 -1.91751 -0.307424 0
M  V30 6374 O 620.178 -1.51119 -1.22447 0
M  V30 6375 C 620.461 -3.03745 1.9342 0
M  V30 6376 C 620.314 -2.86581 3.46686 0
M  V30 6377 C 621.633 -4.04144 1.74228 0
M  V30 6378 H 618.752 -0.607427 0.417374 0
M  V30 6379 H 621.394 -1.07089 1.56946 0
M  V30 6380 H 619.544 -3.55204 1.5736 0
M  V30 6381 H 621.216 -2.42203 3.92601 0
M  V30 6382 H 619.459 -2.21829 3.72793 0
M  V30 6383 H 620.13 -3.83381 3.97143 0
M  V30 6384 H 622.606 -3.61712 2.05678 0
M  V30 6385 H 621.482 -4.97543 2.31824 0
M  V30 6386 H 621.743 -4.36661 0.691373 0
M  V30 6387 N 620.802 -1.09834 -1.13024 0
M  V30 6388 C 622.218 -0.828875 -1.36388 0
M  V30 6389 C 622.418 0.554756 -1.93713 0
M  V30 6390 O 621.474 1.30882 -2.15931 0
M  V30 6391 C 622.787 -1.92352 -2.3113 0
M  V30 6392 C 624.335 -1.95124 -2.44735 0
M  V30 6393 C 624.81 -3.03745 -3.42787 0
M  V30 6394 N 626.301 -3.03012 -3.5034 0
M  V30 6395 C 627.036 -3.83699 -4.26101 0
M  V30 6396 N 626.532 -4.74306 -5.04981 0
M  V30 6397 N 628.325 -3.71942 -4.21445 0
M  V30 6398 H 620.476 -1.99029 -0.74169 0
M  V30 6399 H 622.739 -0.864557 -0.388903 0
M  V30 6400 H 622.445 -2.91906 -1.96172 0
M  V30 6401 H 622.319 -1.80536 -3.3119 0
M  V30 6402 H 624.706 -0.962069 -2.78977 0
M  V30 6403 H 624.787 -2.11018 -1.44586 0
M  V30 6404 H 624.431 -4.02878 -3.09276 0
M  V30 6405 H 624.361 -2.85094 -4.42752 0
M  V30 6406 H 626.852 -2.37352 -2.94062 0
M  V30 6407 H 627.165 -5.32446 -5.60108 0
M  V30 6408 H 625.51 -4.78339 -5.04199 0
M  V30 6409 H 628.701 -3.00513 -3.589 0
M  V30 6410 H 628.874 -4.35062 -4.80235 0
M  V30 6411 N 622.28 1.30327 -0.886154 0
M  V30 6412 C 623.243 2.26376 -0.358687 0
M  V30 6413 C 624.243 1.52845 0.499498 0
M  V30 6414 O 625.433 1.71483 0.306485 0
M  V30 6415 C 622.565 3.37379 0.488726 0
M  V30 6416 H 623.758 2.74547 -1.20681 0
M  V30 6417 H 621.311 1.41536 -0.663113 0
M  V30 6418 H 622.046 2.94526 1.35739 0
M  V30 6419 H 621.831 3.91897 -0.126003 0
M  V30 6420 H 623.321 4.08868 0.84952 0
M  V30 6421 N 623.758 0.647228 1.43697 0
M  V30 6422 C 624.983 0.164083 2.0675 0
M  V30 6423 C 625.408 -1.15892 1.48158 0
M  V30 6424 O 624.766 -1.71459 0.589194 0
M  V30 6425 C 624.814 0.0800368 3.60511 0
M  V30 6426 O 623.918 -0.959453 4.01084 0
M  V30 6427 H 623.259 0.0921288 0.657578 0
M  V30 6428 H 625.789 0.88846 1.84303 0
M  V30 6429 H 625.799 -0.105263 4.07864 0
M  V30 6430 H 624.474 1.04586 4.02535 0
M  V30 6431 H 623.051 -0.747425 3.65333 0
M  V30 6432 N 625.236 -1.5273 0.388769 0
M  V30 6433 C 626.184 -2.27975 -0.461527 0
M  V30 6434 C 627.178 -1.31854 -1.06352 0
M  V30 6435 O 628.384 -1.49394 -1.00406 0
M  V30 6436 H 624.759 -0.733088 -0.16759 0
M  V30 6437 H 626.73 -2.97765 0.194579 0
M  V30 6438 C 625.479 -3.09881 -1.577 0
M  V30 6439 H 624.802 -3.83701 -1.12309 0
M  V30 6440 H 626.242 -3.6567 -2.14619 0
M  V30 6441 C 624.701 -2.22159 -2.53272 0
M  V30 6442 O 625.231 -1.84802 -3.56667 0
M  V30 6443 N 623.437 -1.8633 -2.23001 0
M  V30 6444 H 622.984 -2.16909 -1.38954 0
M  V30 6445 H 622.942 -1.27927 -2.87197 0
M  V30 6446 N 626.714 -0.118576 -1.57153 0
M  V30 6447 C 627.942 0.54726 -1.99531 0
M  V30 6448 C 628.357 1.60251 -0.998246 0
M  V30 6449 O 627.714 1.82498 0.00893106 0
M  V30 6450 C 627.765 1.17378 -3.41913 0
M  V30 6451 O 627.486 0.160703 -4.37805 0
M  V30 6452 C 628.987 1.92297 -3.9942 0
M  V30 6453 H 626.207 0.144919 -0.655164 0
M  V30 6454 H 628.751 -0.20479 -2.03472 0
M  V30 6455 H 626.906 1.87661 -3.38913 0
M  V30 6456 H 627.32 0.61586 -5.20872 0
M  V30 6457 H 628.794 2.31462 -5.01128 0
M  V30 6458 H 629.271 2.79801 -3.38538 0
M  V30 6459 H 629.877 1.26777 -4.05965 0
M  V30 6460 N 628.193 1.56834 0.155195 0
M  V30 6461 C 629.421 1.87049 0.884326 0
M  V30 6462 C 629.836 0.705839 1.7511 0
M  V30 6463 O 629.193 -0.324641 1.79589 0
M  V30 6464 C 629.244 3.1644 1.74781 0
M  V30 6465 O 628.965 4.28417 0.915978 0
M  V30 6466 C 630.466 3.60113 2.58522 0
M  V30 6467 H 627.686 0.620196 0.25612 0
M  V30 6468 H 630.23 2.03946 0.150445 0
M  V30 6469 H 628.385 3.01321 2.43484 0
M  V30 6470 H 628.799 5.02353 1.50803 0
M  V30 6471 H 630.273 4.53508 3.14698 0
M  V30 6472 H 630.75 2.85005 3.34169 0
M  V30 6473 H 631.356 3.77898 1.95124 0
M  V30 6474 N 629.671 -0.424282 1.51781 0
M  V30 6475 C 631.082 -1.00368 1.57427 0
M  V30 6476 C 631.433 -1.91962 0.40558 0
M  V30 6477 O 630.558 -2.111 -0.47601 0
M  V30 6478 C 631.153 -1.82707 2.85313 0
M  V30 6479 C 629.712 -2.35675 2.93487 0
M  V30 6480 C 628.859 -1.1524 2.5222 0
M  V30 6481 H 631.81 -0.205064 1.5737 0
M  V30 6482 H 631.831 -2.68294 2.69812 0
M  V30 6483 H 631.343 -1.16017 3.70353 0
M  V30 6484 H 629.444 -3.05781 2.12906 0
M  V30 6485 H 629.557 -2.67578 3.97415 0
M  V30 6486 H 627.921 -1.50174 2.05718 0
M  V30 6487 H 628.704 -0.5014 3.39619 0
M  V30 6488 N 631.149 -1.42148 -0.680565 0
M  V30 6489 C 632.395 -1.42521 -1.44277 0
M  V30 6490 C 632.728 -0.0393718 -1.9416 0
M  V30 6491 O 632.003 0.935425 -1.70529 0
M  V30 6492 C 632.286 -2.44475 -2.64394 0
M  V30 6493 C 632.139 -3.92226 -2.20179 0
M  V30 6494 C 633.458 -2.43491 -3.66606 0
M  V30 6495 H 630.577 -0.518985 -0.523282 0
M  V30 6496 H 633.219 -1.73524 -0.773914 0
M  V30 6497 H 631.369 -2.18168 -3.21458 0
M  V30 6498 H 633.041 -4.29493 -1.68327 0
M  V30 6499 H 631.284 -4.0637 -1.5181 0
M  V30 6500 H 631.955 -4.59133 -3.06433 0
M  V30 6501 H 634.431 -2.66872 -3.19247 0
M  V30 6502 H 633.307 -3.16816 -4.4824 0
M  V30 6503 H 633.568 -1.45881 -4.17338 0
M  V30 6504 N 632.627 0.916307 -1.28225 0
M  V30 6505 C 633.557 2.0352 -1.14464 0
M  V30 6506 C 634.538 1.70045 -0.0430844 0
M  V30 6507 O 635.723 1.92954 -0.219619 0
M  V30 6508 C 632.853 3.37889 -0.803027 0
M  V30 6509 C 631.807 3.85516 -1.85908 0
M  V30 6510 C 631.133 5.1682 -1.37116 0
M  V30 6511 C 632.433 4.07655 -3.26519 0
M  V30 6512 H 634.127 2.1529 -2.08064 0
M  V30 6513 H 631.673 1.03446 -1.00174 0
M  V30 6514 H 633.626 4.15654 -0.693537 0
M  V30 6515 H 632.35 3.26164 0.168674 0
M  V30 6516 H 631.009 3.09953 -1.95767 0
M  V30 6517 H 630.657 5.01497 -0.38859 0
M  V30 6518 H 630.357 5.49657 -2.07728 0
M  V30 6519 H 631.881 5.97143 -1.27484 0
M  V30 6520 H 633.295 4.75953 -3.19596 0
M  V30 6521 H 631.692 4.51818 -3.94943 0
M  V30 6522 H 632.762 3.12553 -3.70727 0
M  V30 6523 N 634.105 1.10431 1.1244 0
M  V30 6524 C 635.351 0.847972 1.84221 0
M  V30 6525 C 635.684 -0.624903 1.83871 0
M  V30 6526 O 634.959 -1.46074 1.28423 0
M  V30 6527 C 635.242 1.39695 3.319 0
M  V30 6528 C 635.095 2.93668 3.40704 0
M  V30 6529 C 636.414 1.03924 4.27654 0
M  V30 6530 H 633.533 0.309502 0.668863 0
M  V30 6531 H 636.175 1.36745 1.31912 0
M  V30 6532 H 634.325 0.955095 3.76577 0
M  V30 6533 H 635.997 3.46379 3.04662 0
M  V30 6534 H 634.24 3.30272 2.81252 0
M  V30 6535 H 634.911 3.27162 4.446 0
M  V30 6536 H 637.387 1.42049 3.91102 0
M  V30 6537 H 636.263 1.45027 5.29394 0
M  V30 6538 H 636.524 -0.051336 4.4207 0
M  V30 6539 N 635.583 -1.29855 0.893053 0
M  V30 6540 C 636.513 -2.3035 0.382249 0
M  V30 6541 C 637.494 -1.61328 -0.539203 0
M  V30 6542 O 638.679 -1.88882 -0.451342 0
M  V30 6543 C 635.809 -3.45024 -0.396983 0
M  V30 6544 C 634.763 -4.258 0.433437 0
M  V30 6545 C 634.089 -5.32605 -0.472889 0
M  V30 6546 C 635.389 -4.94549 1.67984 0
M  V30 6547 H 637.083 -2.73325 1.22205 0
M  V30 6548 H 634.629 -1.314 0.589073 0
M  V30 6549 H 636.582 -4.14398 -0.765024 0
M  V30 6550 H 635.306 -3.00875 -1.2705 0
M  V30 6551 H 633.965 -3.58125 0.783723 0
M  V30 6552 H 633.613 -4.84702 -1.34435 0
M  V30 6553 H 633.313 -5.87547 0.0789958 0
M  V30 6554 H 634.837 -6.04832 -0.837269 0
M  V30 6555 H 636.251 -5.56395 1.38192 0
M  V30 6556 H 634.648 -5.59393 2.17254 0
M  V30 6557 H 635.718 -4.20215 2.41965 0
M  V30 6558 N 637.061 -0.65484 -1.43351 0
M  V30 6559 C 638.477 -0.32255 -1.56307 0
M  V30 6560 C 638.677 1.17324 -1.63821 0
M  V30 6561 O 637.733 1.95813 -1.59417 0
M  V30 6562 C 639.046 -1.03533 -2.82314 0
M  V30 6563 C 640.594 -1.01574 -2.9606 0
M  V30 6564 C 641.069 -1.70945 -4.24902 0
M  V30 6565 N 642.56 -1.67716 -4.3177 0
M  V30 6566 C 643.295 -2.18265 -5.30234 0
M  V30 6567 N 642.791 -2.7711 -6.34966 0
M  V30 6568 N 644.584 -2.08756 -5.21898 0
M  V30 6569 H 636.735 -1.62549 -1.36717 0
M  V30 6570 H 638.998 -0.683676 -0.656727 0
M  V30 6571 H 638.704 -2.09045 -2.8283 0
M  V30 6572 H 638.578 -0.587913 -3.7259 0
M  V30 6573 H 640.965 0.0309834 -2.95084 0
M  V30 6574 H 641.046 -1.50186 -2.07069 0
M  V30 6575 H 640.69 -2.75574 -4.26639 0
M  V30 6576 H 640.62 -1.19797 -5.12793 0
M  V30 6577 H 643.111 -1.24777 -3.56706 0
M  V30 6578 H 643.424 -3.13353 -7.06421 0
M  V30 6579 H 641.769 -2.81171 -6.35585 0
M  V30 6580 H 644.96 -1.62488 -4.38994 0
M  V30 6581 H 645.133 -2.48459 -5.98475 0
M  V30 6582 N 638.539 1.52521 -0.396863 0
M  V30 6583 C 639.786 2.01672 0.182898 0
M  V30 6584 C 640.114 1.28302 1.46181 0
M  V30 6585 O 639.369 0.374118 1.92091 0
M  V30 6586 C 639.668 3.5403 0.489677 0
M  V30 6587 C 639.334 4.45456 -0.698581 0
M  V30 6588 C 637.996 4.70166 -1.02454 0
M  V30 6589 C 640.348 4.99354 -1.49316 0
M  V30 6590 C 637.676 5.46024 -2.1465 0
M  V30 6591 C 640.028 5.76439 -2.60579 0
M  V30 6592 C 638.692 5.99426 -2.93675 0
M  V30 6593 H 637.962 0.737971 0.066927 0
M  V30 6594 H 640.609 1.83853 -0.535764 0
M  V30 6595 H 638.914 3.69963 1.28976 0
M  V30 6596 H 640.611 3.8956 0.951018 0
M  V30 6597 H 637.201 4.26392 -0.434525 0
M  V30 6598 H 641.385 4.80182 -1.25457 0
M  V30 6599 H 636.641 5.62046 -2.40654 0
M  V30 6600 H 640.815 6.17202 -3.22544 0
M  V30 6601 H 638.442 6.57988 -3.80731 0
M  V30 6602 N 640.017 0.126909 1.57088 0
M  V30 6603 C 640.927 -0.833867 2.1928 0
M  V30 6604 C 641.943 -1.2868 1.17122 0
M  V30 6605 O 643.119 -1.34815 1.49622 0
M  V30 6606 C 640.184 -2.0632 2.78627 0
M  V30 6607 C 639.245 -1.66143 3.95847 0
M  V30 6608 C 638.478 -2.83217 4.52354 0
M  V30 6609 O 638.701 -3.98868 4.0775 0
M  V30 6610 O 637.635 -2.59846 5.42922 0
M  V30 6611 H 641.461 -0.334564 3.01852 0
M  V30 6612 H 639.046 -0.0991091 1.49071 0
M  V30 6613 H 640.928 -2.78304 3.16425 0
M  V30 6614 H 639.603 -2.55242 1.99082 0
M  V30 6615 H 638.51 -0.912435 3.62802 0
M  V30 6616 H 639.843 -1.21957 4.76852 0
M  V30 6617 N 641.495 -1.56914 -0.146875 0
M  V30 6618 C 642.458 -1.97368 -1.16526 0
M  V30 6619 C 643.458 -0.860223 -1.35856 0
M  V30 6620 O 644.648 -1.12684 -1.32846 0
M  V30 6621 C 641.78 -2.28974 -2.52555 0
M  V30 6622 H 642.973 -2.88523 -0.818209 0
M  V30 6623 H 640.526 -1.5135 -0.390221 0
M  V30 6624 H 641.261 -1.40611 -2.92231 0
M  V30 6625 H 641.046 -3.10157 -2.39886 0
M  V30 6626 H 642.536 -2.61109 -3.25902 0
M  V30 6627 N 642.974 0.416227 -1.52004 0
M  V30 6628 C 644.251 1.17637 -1.56272 0
M  V30 6629 C 644.631 2.08352 -0.339493 0
M  V30 6630 O 643.979 2.1833 0.674124 0
M  V30 6631 C 644.189 1.95986 -2.88774 0
M  V30 6632 C 645.537 2.52299 -3.41512 0
M  V30 6633 O 646.561 2.06174 -2.90467 0
M  V30 6634 O 645.42 3.3648 -4.30631 0
M  V30 6635 H 642.514 0.536726 -0.629169 0
M  V30 6636 H 645.06 0.423583 -1.64329 0
M  V30 6637 H 643.832 1.29487 -3.69254 0
M  V30 6638 H 643.455 2.78285 -2.83978 0
M  V30 6639 N 644.452 1.42507 0.673017 0
M  V30 6640 C 645.68 1.46473 1.46128 0
M  V30 6641 C 646.095 0.0765912 1.88645 0
M  V30 6642 O 645.452 -0.909057 1.58248 0
M  V30 6643 C 645.503 2.39339 2.70923 0
M  V30 6644 O 645.224 3.72752 2.3019 0
M  V30 6645 C 646.725 2.52343 3.64469 0
M  V30 6646 H 643.945 0.49812 0.449575 0
M  V30 6647 H 646.489 1.87041 0.826802 0
M  V30 6648 H 644.644 2.02019 3.30556 0
M  V30 6649 H 645.058 4.22503 3.10791 0
M  V30 6650 H 646.532 3.2144 4.48754 0
M  V30 6651 H 647.009 1.56189 4.1049 0
M  V30 6652 H 647.615 2.90392 3.10729 0
M  V30 6653 N 645.93 -0.909495 1.28709 0
M  V30 6654 C 646.84 -2.04558 1.14861 0
M  V30 6655 C 647.856 -1.73842 0.0741621 0
M  V30 6656 O 649.032 -1.99383 0.2843 0
M  V30 6657 C 646.097 -3.36957 0.816148 0
M  V30 6658 C 645.158 -3.81255 1.97341 0
M  V30 6659 C 644.391 -5.07335 1.65671 0
M  V30 6660 O 644.614 -5.67514 0.573053 0
M  V30 6661 O 643.548 -5.47449 2.50167 0
M  V30 6662 H 647.374 -2.19161 2.10243 0
M  V30 6663 H 644.959 -1.03159 1.08068 0
M  V30 6664 H 646.841 -4.16436 0.644873 0
M  V30 6665 H 645.516 -3.2352 -0.107983 0
M  V30 6666 H 644.423 -3.02584 2.19986 0
M  V30 6667 H 645.756 -3.99261 2.87839 0
M  V30 6668 N 647.408 -1.11026 -1.11852 0
M  V30 6669 C 648.318 -0.777252 -2.2135 0
M  V30 6670 C 649.334 0.227821 -1.72502 0
M  V30 6671 O 650.51 0.0650587 -2.01295 0
M  V30 6672 C 647.575 -0.220668 -3.45997 0
M  V30 6673 C 646.636 -1.2838 -4.09655 0
M  V30 6674 C 645.869 -0.753678 -5.28352 0
M  V30 6675 O 646.092 0.417779 -5.68868 0
M  V30 6676 O 645.026 -1.51647 -5.82483 0
M  V30 6677 H 648.852 -1.69141 -2.5224 0
M  V30 6678 H 646.437 -0.885836 -1.20305 0
M  V30 6679 H 648.319 0.0855756 -4.21313 0
M  V30 6680 H 646.994 0.666262 -3.16769 0
M  V30 6681 H 645.901 -1.64299 -3.3609 0
M  V30 6682 H 647.234 -2.14396 -4.43052 0
M  V30 6683 N 648.886 1.2938 -0.899927 0
M  V30 6684 C 649.796 2.31462 -0.382437 0
M  V30 6685 C 650.812 1.65956 0.522929 0
M  V30 6686 O 651.988 1.97131 0.412454 0
M  V30 6687 C 649.053 3.44595 0.381472 0
M  V30 6688 C 648.114 4.25692 -0.555444 0
M  V30 6689 C 647.347 5.33422 0.172102 0
M  V30 6690 O 647.57 5.53053 1.396 0
M  V30 6691 O 646.504 5.99939 -0.485491 0
M  V30 6692 H 650.33 2.77706 -1.22934 0
M  V30 6693 H 647.915 1.33821 -0.664259 0
M  V30 6694 H 649.797 4.13474 0.813442 0
M  V30 6695 H 648.472 3.00458 1.20443 0
M  V30 6696 H 647.379 3.59453 -1.03653 0
M  V30 6697 H 648.712 4.73471 -1.34483 0
M  V30 6698 N 650.364 0.662433 1.43002 0
M  V30 6699 C 651.294 -0.00979809 2.33498 0
M  V30 6700 C 652.275 -0.802329 1.49989 0
M  V30 6701 O 653.46 -0.761964 1.78627 0
M  V30 6702 C 650.59 -0.970446 3.33466 0
M  V30 6703 C 649.544 -0.287383 4.27034 0
M  V30 6704 C 648.87 -1.36012 5.17112 0
M  V30 6705 C 650.17 0.82595 5.15728 0
M  V30 6706 H 651.864 0.745959 2.89958 0
M  V30 6707 H 649.41 0.360172 1.39423 0
M  V30 6708 H 651.363 -1.44971 3.95679 0
M  V30 6709 H 650.087 -1.75748 2.75282 0
M  V30 6710 H 648.746 0.17152 3.66199 0
M  V30 6711 H 648.394 -2.13882 4.55262 0
M  V30 6712 H 648.094 -0.908276 5.80538 0
M  V30 6713 H 649.618 -1.84056 5.82199 0
M  V30 6714 H 651.032 0.42845 5.71697 0
M  V30 6715 H 649.429 1.20282 5.87922 0
M  V30 6716 H 650.499 1.68003 4.54866 0
M  V30 6717 N 651.842 -1.52309 0.404946 0
M  V30 6718 C 652.752 -2.30634 -0.429555 0
M  V30 6719 C 653.768 -1.38187 -1.05737 0
M  V30 6720 O 654.944 -1.71261 -1.05979 0
M  V30 6721 C 652.009 -3.10947 -1.53339 0
M  V30 6722 C 651.07 -4.19126 -0.929065 0
M  V30 6723 C 650.303 -4.95601 -1.9803 0
M  V30 6724 O 650.526 -4.72331 -3.1978 0
M  V30 6725 O 649.46 -5.80551 -1.58886 0
M  V30 6726 H 653.286 -3.0298 0.208963 0
M  V30 6727 H 650.871 -1.4845 0.168255 0
M  V30 6728 H 652.753 -3.60974 -2.1743 0
M  V30 6729 H 651.428 -2.41399 -2.15658 0
M  V30 6730 H 650.335 -3.73257 -0.250982 0
M  V30 6731 H 651.668 -4.90955 -0.349855 0
M  V30 6732 N 653.32 -0.135238 -1.57019 0
M  V30 6733 C 654.736 0.221262 -1.58059 0
M  V30 6734 C 654.936 1.65538 -1.14889 0
M  V30 6735 O 653.992 2.37985 -0.843751 0
M  V30 6736 C 655.305 -0.0268114 -3.00688 0
M  V30 6737 C 656.853 0.0378206 -3.12977 0
M  V30 6738 C 657.328 -0.182769 -4.57635 0
M  V30 6739 N 658.819 -0.129292 -4.6302 0
M  V30 6740 C 659.554 -0.274648 -5.72742 0
M  V30 6741 N 659.05 -0.477075 -6.91155 0
M  V30 6742 N 660.843 -0.213077 -5.61696 0
M  V30 6743 H 652.994 -1.07177 -1.83376 0
M  V30 6744 H 655.257 -0.423338 -0.848227 0
M  V30 6745 H 654.963 -1.01889 -3.36618 0
M  V30 6746 H 654.837 0.697863 -3.70688 0
M  V30 6747 H 657.224 1.02043 -2.76896 0
M  V30 6748 H 657.305 -0.718996 -2.45487 0
M  V30 6749 H 656.949 -1.16243 -4.94419 0
M  V30 6750 H 656.879 0.59423 -5.23237 0
M  V30 6751 H 659.37 0.0229896 -3.77893 0
M  V30 6752 H 659.683 -0.578413 -7.70632 0
M  V30 6753 H 658.028 -0.513252 -6.93102 0
M  V30 6754 H 661.219 -0.0557796 -4.68067 0
M  V30 6755 H 661.392 -0.329796 -6.4716 0
M  V30 6756 N 654.798 1.5699 0.138552 0
M  V30 6757 C 656.047 1.82998 0.848205 0
M  V30 6758 C 656.36 0.717829 1.81952 0
M  V30 6759 O 657.566 0.863756 2.57394 0
M  V30 6760 C 656.022 3.24379 1.55904 0
M  V30 6761 C 655.63 4.43552 0.62971 0
M  V30 6762 C 657.374 3.59654 2.25498 0
M  V30 6763 C 655.281 5.75957 1.34266 0
M  V30 6764 H 654.211 0.682495 0.320495 0
M  V30 6765 H 656.862 1.83222 0.100924 0
M  V30 6766 H 655.244 3.18567 2.35226 0
M  V30 6767 H 656.418 4.6062 -0.128882 0
M  V30 6768 H 654.733 4.16379 0.0417526 0
M  V30 6769 H 657.33 4.55837 2.79493 0
M  V30 6770 H 657.673 2.86124 3.02388 0
M  V30 6771 H 658.206 3.67164 1.53087 0
M  V30 6772 H 654.945 6.52604 0.615441 0
M  V30 6773 H 654.465 5.62811 2.07375 0
M  V30 6774 H 656.144 6.19046 1.88126 0
M  V30 6775 N 656.276 -0.40816 1.52223 0
M  V30 6776 C 657.223 -1.49737 1.75635 0
M  V30 6777 C 658.193 -1.5493 0.598824 0
M  V30 6778 O 659.378 -1.71487 0.83648 0
M  V30 6779 C 656.518 -2.87174 1.91376 0
M  V30 6780 C 655.631 -2.91283 3.19027 0
M  V30 6781 C 654.766 -4.20026 3.25195 0
M  V30 6782 C 653.805 -4.18113 4.47044 0
M  V30 6783 N 652.942 -5.38429 4.50598 0
M  V30 6784 H 657.782 -1.29075 2.68596 0
M  V30 6785 H 655.319 -0.626518 1.33091 0
M  V30 6786 H 657.277 -3.66959 1.98486 0
M  V30 6787 H 655.907 -3.06329 1.01795 0
M  V30 6788 H 654.959 -2.03984 3.21084 0
M  V30 6789 H 656.271 -2.85734 4.08849 0
M  V30 6790 H 655.425 -5.08204 3.31382 0
M  V30 6791 H 654.164 -4.28271 2.33313 0
M  V30 6792 H 653.169 -3.28325 4.41002 0
M  V30 6793 H 654.394 -4.11507 5.40221 0
M  V30 6794 H 652.34 -5.4734 3.616 0
M  V30 6795 H 652.257 -5.34879 5.34266 0
M  V30 6796 H 653.525 -6.28557 4.61016 0
M  V30 6797 N 657.755 -1.42862 -0.66545 0
M  V30 6798 C 658.983 -1.47246 -1.45349 0
M  V30 6799 C 659.398 -0.0865944 -1.88601 0
M  V30 6800 O 658.755 0.900652 -1.58728 0
M  V30 6801 C 658.806 -2.40772 -2.6965 0
M  V30 6802 O 658.527 -3.73968 -2.2821 0
M  V30 6803 C 660.028 -2.54272 -3.63126 0
M  V30 6804 H 657.248 -0.500497 -0.446927 0
M  V30 6805 H 659.792 -1.87477 -0.816871 0
M  V30 6806 H 657.947 -2.0377 -3.29479 0
M  V30 6807 H 658.361 -4.24146 -3.08546 0
M  V30 6808 H 659.835 -3.23815 -4.47043 0
M  V30 6809 H 660.312 -1.58364 -4.09656 0
M  V30 6810 H 660.918 -2.92036 -3.09185 0
M  V30 6811 N 659.233 0.902656 -1.29189 0
M  V30 6812 C 660.479 1.65532 -1.17163 0
M  V30 6813 C 660.812 1.92216 0.276879 0
M  V30 6814 O 660.087 1.53048 1.20027 0
M  V30 6815 C 660.37 3.00629 -1.98228 0
M  V30 6816 C 660.223 2.81029 -3.51202 0
M  V30 6817 C 661.542 4.01321 -1.80635 0
M  V30 6818 H 658.661 0.60071 -0.426985 0
M  V30 6819 H 661.303 1.04578 -1.5863 0
M  V30 6820 H 659.453 3.52656 -1.62991 0
M  V30 6821 H 661.125 2.35927 -3.96404 0
M  V30 6822 H 659.368 2.1587 -3.76275 0
M  V30 6823 H 660.039 3.77014 -4.03192 0
M  V30 6824 H 662.515 3.58394 -2.11406 0
M  V30 6825 H 661.391 4.93792 -2.3971 0
M  V30 6826 H 661.652 4.35505 -0.760754 0
M  V30 6827 N 660.711 1.11618 1.11262 0
M  V30 6828 C 661.958 0.86618 1.8304 0
M  V30 6829 C 662.286 -0.608149 1.84748 0
M  V30 6830 O 661.541 -1.46508 1.29745 0
M  V30 6831 C 661.84 1.37529 3.2988 0
M  V30 6832 C 661.506 2.86317 3.4833 0
M  V30 6833 C 660.168 3.26945 3.53073 0
M  V30 6834 C 662.52 3.82136 3.54431 0
M  V30 6835 C 659.848 4.62117 3.61475 0
M  V30 6836 C 662.2 5.17128 3.64365 0
M  V30 6837 C 660.864 5.57312 3.67369 0
M  V30 6838 H 660.134 0.316958 0.66979 0
M  V30 6839 H 662.781 1.3949 1.31205 0
M  V30 6840 H 661.086 0.766842 3.84222 0
M  V30 6841 H 662.783 1.15817 3.83911 0
M  V30 6842 H 659.373 2.53889 3.45309 0
M  V30 6843 H 663.557 3.51847 3.50025 0
M  V30 6844 H 658.813 4.92655 3.62079 0
M  V30 6845 H 662.987 5.91208 3.68029 0
M  V30 6846 H 660.614 6.62045 3.73632 0
M  V30 6847 N 662.189 -1.289 0.906776 0
M  V30 6848 C 663.605 -1.47733 0.603902 0
M  V30 6849 C 663.805 -1.82568 -0.852702 0
M  V30 6850 O 662.861 -1.92642 -1.63234 0
M  V30 6851 C 664.174 -2.58522 1.53581 0
M  V30 6852 C 665.722 -2.72394 1.54177 0
M  V30 6853 C 666.197 -3.86318 2.46013 0
M  V30 6854 N 667.688 -3.93661 2.441 0
M  V30 6855 C 668.423 -4.81177 3.11859 0
M  V30 6856 N 667.919 -5.73333 3.88923 0
M  V30 6857 N 669.712 -4.74728 3.00981 0
M  V30 6858 H 661.863 -1.04567 1.84877 0
M  V30 6859 H 664.126 -0.520118 0.792579 0
M  V30 6860 H 663.832 -2.39667 2.57396 0
M  V30 6861 H 663.706 -3.55475 1.26165 0
M  V30 6862 H 666.093 -2.90641 0.511034 0
M  V30 6863 H 666.174 -1.75993 1.85634 0
M  V30 6864 H 665.818 -3.68826 3.49185 0
M  V30 6865 H 665.748 -4.82102 2.11862 0
M  V30 6866 H 668.239 -3.27751 1.88115 0
M  V30 6867 H 668.552 -6.36923 4.37663 0
M  V30 6868 H 666.897 -5.73196 3.93029 0
M  V30 6869 H 670.088 -4.01722 2.40286 0
M  V30 6870 H 670.261 -5.42719 3.54062 0
M  V30 6871 N 663.667 -0.670007 -1.42649 0
M  V30 6872 C 664.615 0.0230106 -2.32589 0
M  V30 6873 C 665.609 0.795585 -1.49555 0
M  V30 6874 O 666.815 0.70409 -1.65658 0
M  V30 6875 H 663.19 0.0262342 -0.751542 0
M  V30 6876 H 665.161 -0.753009 -2.88743 0
M  V30 6877 C 663.91 0.963872 -3.34073 0
M  V30 6878 H 663.233 0.378813 -3.98001 0
M  V30 6879 H 664.673 1.41755 -3.99602 0
M  V30 6880 C 663.132 2.06797 -2.65964 0
M  V30 6881 O 663.662 3.15383 -2.48789 0
M  V30 6882 N 661.868 1.83831 -2.25066 0
M  V30 6883 H 661.415 0.955235 -2.39234 0
M  V30 6884 H 661.373 2.57895 -1.79827 0
M  V30 6885 N 665.145 1.52092 -0.413018 0
M  V30 6886 C 666.077 2.24819 0.445994 0
M  V30 6887 C 667.09 1.27925 1.00692 0
M  V30 6888 O 668.279 1.53845 0.905204 0
M  V30 6889 C 665.379 2.96951 1.6332 0
M  V30 6890 C 664.552 4.20746 1.19548 0
M  V30 6891 C 663.611 4.75668 2.25003 0
M  V30 6892 O 662.637 5.38148 1.85434 0
M  V30 6893 N 663.839 4.57579 3.57214 0
M  V30 6894 H 666.604 2.99176 -0.177209 0
M  V30 6895 H 664.165 1.60102 -0.240601 0
M  V30 6896 H 666.157 3.30586 2.33441 0
M  V30 6897 H 664.727 2.25756 2.16225 0
M  V30 6898 H 663.947 3.92881 0.32224 0
M  V30 6899 H 665.235 5.01132 0.880033 0
M  V30 6900 H 664.633 4.07758 3.92109 0
M  V30 6901 H 663.19 4.95642 4.23299 0
M  V30 6902 N 666.623 0.143563 1.56945 0
M  V30 6903 C 667.553 -0.7936 2.196 0
M  V30 6904 C 668.534 -1.25955 1.14321 0
M  V30 6905 O 669.719 -1.31773 1.42651 0
M  V30 6906 C 666.849 -2.03424 2.81489 0
M  V30 6907 C 665.803 -1.70519 3.92565 0
M  V30 6908 C 665.129 -3.01817 4.41373 0
M  V30 6909 C 666.429 -0.95449 5.13504 0
M  V30 6910 H 668.123 -0.271423 2.98167 0
M  V30 6911 H 665.669 -0.12911 1.4342 0
M  V30 6912 H 667.622 -2.69463 3.23987 0
M  V30 6913 H 666.346 -2.58008 2.00248 0
M  V30 6914 H 665.005 -1.06859 3.5068 0
M  V30 6915 H 664.653 -3.54386 3.56959 0
M  V30 6916 H 664.353 -2.80565 5.16292 0
M  V30 6917 H 665.877 -3.68934 4.86539 0
M  V30 6918 H 667.291 -1.5169 5.52868 0
M  V30 6919 H 665.688 -0.842035 5.94163 0
M  V30 6920 H 666.758 0.0544033 4.84869 0
M  V30 6921 N 668.101 -1.57061 -0.130224 0
M  V30 6922 C 669.048 -1.99517 -1.16024 0
M  V30 6923 C 670.018 -0.865452 -1.41771 0
M  V30 6924 O 671.203 -1.12882 -1.53826 0
M  V30 6925 C 668.343 -2.3951 -2.48453 0
M  V30 6926 C 667.456 -3.65848 -2.29737 0
M  V30 6927 C 666.591 -3.9487 -3.55318 0
M  V30 6928 C 665.63 -5.14426 -3.31711 0
M  V30 6929 N 664.767 -5.39375 -4.49466 0
M  V30 6930 H 669.607 -2.87305 -0.791194 0
M  V30 6931 H 667.144 -1.42129 -0.379195 0
M  V30 6932 H 669.102 -2.60731 -3.25692 0
M  V30 6933 H 667.732 -1.54779 -2.83272 0
M  V30 6934 H 666.784 -3.52307 -1.4347 0
M  V30 6935 H 668.096 -4.53241 -2.08263 0
M  V30 6936 H 667.25 -4.16679 -4.4098 0
M  V30 6937 H 665.989 -3.05931 -3.79813 0
M  V30 6938 H 664.994 -4.92473 -2.44439 0
M  V30 6939 H 666.219 -6.04933 -3.08598 0
M  V30 6940 H 664.165 -4.53391 -4.74102 0
M  V30 6941 H 664.082 -6.21069 -4.31055 0
M  V30 6942 H 665.35 -5.65694 -5.36293 0
M  V30 6943 N 669.579 0.400081 -1.52437 0
M  V30 6944 C 670.542 1.4707 -1.75793 0
M  V30 6945 C 671.542 1.48036 -0.627856 0
M  V30 6946 O 672.732 1.49401 -0.895817 0
M  V30 6947 C 669.864 2.86427 -1.84858 0
M  V30 6948 H 671.057 1.27649 -2.71377 0
M  V30 6949 H 668.61 0.631141 -1.42991 0
M  V30 6950 H 669.345 3.11207 -0.912194 0
M  V30 6951 H 669.13 2.87128 -2.6702 0
M  V30 6952 H 670.62 3.64023 -2.04638 0
M  V30 6953 N 671.057 1.43213 0.657864 0
M  V30 6954 C 672.303 1.44798 1.41991 0
M  V30 6955 C 672.636 0.070256 1.94073 0
M  V30 6956 O 671.911 -0.908177 1.71995 0
M  V30 6957 C 672.194 2.4865 2.60471 0
M  V30 6958 C 672.047 3.95679 2.13911 0
M  V30 6959 C 673.366 2.49292 3.62686 0
M  V30 6960 H 670.485 0.527244 0.514959 0
M  V30 6961 H 673.127 1.74733 0.74621 0
M  V30 6962 H 671.277 2.23254 3.17946 0
M  V30 6963 H 672.949 4.32116 1.61472 0
M  V30 6964 H 671.192 4.08733 1.45325 0
M  V30 6965 H 671.863 4.6395 2.99089 0
M  V30 6966 H 674.339 2.71917 3.14961 0
M  V30 6967 H 673.215 3.23907 4.43143 0
M  V30 6968 H 673.476 1.52502 4.14964 0
M  V30 6969 N 672.536 -0.895792 1.29666 0
M  V30 6970 C 673.813 -1.62723 1.08538 0
M  V30 6971 C 674.193 -2.07848 -0.369119 0
M  V30 6972 O 673.541 -1.8372 -1.35864 0
M  V30 6973 C 673.751 -2.80505 2.07648 0
M  V30 6974 C 675.099 -3.51098 2.3878 0
M  V30 6975 O 676.123 -2.90679 2.05874 0
M  V30 6976 O 674.982 -4.60028 2.9502 0
M  V30 6977 H 672.076 -0.714692 0.416106 0
M  V30 6978 H 674.622 -0.943517 1.41053 0
M  V30 6979 H 673.394 -2.44386 3.05599 0
M  V30 6980 H 673.017 -3.5658 1.75887 0
M  V30 6981 N 674.014 -1.12206 -1.10668 0
M  V30 6982 C 675.239 -0.898938 -1.86906 0
M  V30 6983 C 675.664 0.546346 -1.79991 0
M  V30 6984 O 675.022 1.38655 -1.1681 0
M  V30 6985 C 675.07 -1.37529 -3.33344 0
M  V30 6986 O 674.174 -0.55218 -4.08687 0
M  V30 6987 H 673.515 -0.323163 -0.580053 0
M  V30 6988 H 676.045 -1.49355 -1.39837 0
M  V30 6989 H 676.055 -1.3733 -3.84193 0
M  V30 6990 H 674.73 -2.42767 -3.37693 0
M  V30 6991 H 673.307 -0.620947 -3.67694 0
M  V30 6992 N 675.492 1.28418 -0.913599 0
M  V30 6993 C 676.717 1.99643 -0.561899 0
M  V30 6994 C 677.142 1.67819 0.849608 0
M  V30 6995 O 676.5 0.910503 1.56779 0
M  V30 6996 C 676.548 3.52116 -0.777622 0
M  V30 6997 O 675.652 4.12076 0.163457 0
M  V30 6998 H 674.993 0.627229 -0.217898 0
M  V30 6999 H 677.523 1.63575 -1.229 0
M  V30 7000 H 677.533 4.02163 -0.687666 0
M  V30 7001 H 676.208 3.74613 -1.8066 0
M  V30 7002 H 674.785 3.72892 0.0247827 0
M  V30 7003 N 676.97 0.677563 1.42291 0
M  V30 7004 C 677.9 0.014968 2.33495 0
M  V30 7005 C 678.881 -0.786376 1.50831 0
M  V30 7006 O 680.066 -0.742975 1.79426 0
M  V30 7007 C 677.196 -0.935023 3.34477 0
M  V30 7008 C 676.15 -0.242074 4.27315 0
M  V30 7009 C 675.476 -1.30519 5.18526 0
M  V30 7010 C 676.776 0.880604 5.14823 0
M  V30 7011 H 678.47 0.776671 2.89151 0
M  V30 7012 H 676.016 0.37494 1.39033 0
M  V30 7013 H 677.969 -1.40766 3.97194 0
M  V30 7014 H 676.693 -1.72818 2.77131 0
M  V30 7015 H 675.352 0.210351 3.65996 0
M  V30 7016 H 675 -2.09041 4.57505 0
M  V30 7017 H 674.7 -0.846652 5.81468 0
M  V30 7018 H 676.224 -1.7787 5.84119 0
M  V30 7019 H 677.638 0.489062 5.7121 0
M  V30 7020 H 676.035 1.26511 5.86613 0
M  V30 7021 H 677.105 1.72818 4.53059 0
M  V30 7022 N 678.448 -1.51871 0.421078 0
M  V30 7023 C 679.859 -1.86644 -0.0457991 0
M  V30 7024 C 680.21 -1.33919 -1.43388 0
M  V30 7025 O 679.335 -0.683316 -2.05328 0
M  V30 7026 C 679.93 -3.38681 -0.0898844 0
M  V30 7027 C 678.489 -3.73049 -0.501127 0
M  V30 7028 C 677.636 -2.75485 0.316723 0
M  V30 7029 H 680.587 -1.45327 0.637635 0
M  V30 7030 H 680.608 -3.69636 -0.902734 0
M  V30 7031 H 680.12 -3.77025 0.920513 0
M  V30 7032 H 678.221 -3.40288 -1.51773 0
M  V30 7033 H 678.334 -4.78512 -0.237217 0
M  V30 7034 H 676.698 -2.53725 -0.222663 0
M  V30 7035 H 677.481 -3.16671 1.32569 0
M  V30 7036 N 679.926 -0.151884 -1.56866 0
M  V30 7037 C 681.172 0.498742 -1.96572 0
M  V30 7038 C 681.505 1.64194 -1.03702 0
M  V30 7039 O 680.78 1.94334 -0.0803432 0
M  V30 7040 C 681.063 1.00027 -3.45929 0
M  V30 7041 C 680.916 -0.141767 -4.49577 0
M  V30 7042 C 682.235 1.88044 -3.97904 0
M  V30 7043 H 679.354 0.17982 -0.714726 0
M  V30 7044 H 681.996 -0.234097 -1.88552 0
M  V30 7045 H 680.146 1.62476 -3.52894 0
M  V30 7046 H 681.818 -0.778269 -4.54687 0
M  V30 7047 H 680.061 -0.80019 -4.26356 0
M  V30 7048 H 680.732 0.250947 -5.51429 0
M  V30 7049 H 683.208 1.35416 -3.93449 0
M  V30 7050 H 682.084 2.20043 -5.02864 0
M  V30 7051 H 682.345 2.81916 -3.40552 0
M  V30 7052 N 681.404 1.57128 0.121893 0
M  V30 7053 C 682.815 1.73902 0.679348 0
M  V30 7054 C 683.166 0.770135 1.80453 0
M  V30 7055 O 682.291 -0.0576083 2.16323 0
M  V30 7056 C 682.886 3.15328 1.2391 0
M  V30 7057 C 681.445 3.33618 1.74288 0
M  V30 7058 C 680.592 2.6978 0.641414 0
M  V30 7059 H 683.543 1.58359 -0.104 0
M  V30 7060 H 683.564 3.16718 2.10879 0
M  V30 7061 H 683.076 3.85821 0.419957 0
M  V30 7062 H 681.177 2.68162 2.58689 0
M  V30 7063 H 681.29 4.4176 1.85432 0
M  V30 7064 H 679.654 2.30935 1.0743 0
M  V30 7065 H 680.437 3.42895 -0.166707 0
M  V30 7066 N 682.882 -0.391992 1.52647 0
M  V30 7067 C 684.129 -1.13732 1.67545 0
M  V30 7068 C 684.457 -1.90045 0.413881 0
M  V30 7069 O 683.712 -1.86157 -0.603646 0
M  V30 7070 C 684.011 -2.14401 2.85949 0
M  V30 7071 C 683.677 -1.54767 4.23507 0
M  V30 7072 C 682.339 -1.38229 4.60919 0
M  V30 7073 C 684.691 -1.11382 5.0916 0
M  V30 7074 C 682.019 -0.7685 5.81645 0
M  V30 7075 C 684.371 -0.514143 6.30507 0
M  V30 7076 C 683.035 -0.33604 6.66654 0
M  V30 7077 H 682.305 -0.416174 0.613091 0
M  V30 7078 H 684.952 -0.422327 1.86785 0
M  V30 7079 H 683.257 -2.92108 2.61114 0
M  V30 7080 H 684.954 -2.71974 2.94671 0
M  V30 7081 H 681.544 -1.68626 3.94035 0
M  V30 7082 H 685.728 -1.22962 4.80826 0
M  V30 7083 H 680.984 -0.618681 6.08262 0
M  V30 7084 H 685.158 -0.169657 6.96193 0
M  V30 7085 H 682.785 0.14166 7.60068 0
M  V30 7086 O 684.399 -1.52278 -0.537924 0
M  V30 7087 H 685.09 -1.52597 -1.19306 0
M  V30 END ATOM
M  V30 BEGIN BOND
M  V30 END BOND
M  V30 END CTAB
M  END
$$$$
