drugbank_target|P62917 60S ribosomal protein L8 (DB02494; DB07374; DB08437)
 OpenBabel12092120423D

  0  0  0     0  0            999 V3000
M  V30 BEGIN CTAB
M  V30 COUNTS 4047 4085 0 0 0
M  V30 BEGIN ATOM
M  V30 1 H -0.908 1.98254 -0.117106 0
M  V30 2 N 0 1.576 0 0
M  V30 3 C 0.933 2.03868 1.02534 0
M  V30 4 C 1.911 0.928543 1.3348 0
M  V30 5 O 3.095 1.19667 1.45644 0
M  V30 6 C 0.222 2.43627 2.35294 0
M  V30 7 C -0.732 3.65373 2.2001 0
M  V30 8 S 0.101 5.13292 1.52614 0
M  V30 9 C 1.257 5.56322 2.86805 0
M  V30 10 H 1.49 2.90518 0.631377 0
M  V30 11 H -0.977 1.52953 0.210867 0
M  V30 12 H 0.981 2.67203 3.11629 0
M  V30 13 H -0.358 1.57376 2.7183 0
M  V30 14 H -1.165 3.90944 3.18086 0
M  V30 15 H -1.563 3.418 1.51819 0
M  V30 16 H 0.729 5.58782 3.83104 0
M  V30 17 H 1.672 6.56266 2.65933 0
M  V30 18 H 2.08 4.83886 2.90714 0
M  V30 19 N 1.4781 -0.272755 1.55222 0
M  V30 20 C 2.7261 -1.00234 1.75492 0
M  V30 21 C 3.0471 -1.8681 0.5592 0
M  V30 22 O 2.3171 -1.91215 -0.425882 0
M  V30 23 H 0.8971 -0.373076 0.647166 0
M  V30 24 H 3.5591 -0.296926 1.92625 0
M  V30 25 H 2.6551 -1.63913 2.65592 0
M  V30 26 N 2.9562 -1.48159 -0.537278 0
M  V30 27 C 4.3722 -1.34118 -0.865129 0
M  V30 28 C 4.5722 -0.346678 -1.98495 0
M  V30 29 O 3.6282 0.234715 -2.51407 0
M  V30 30 C 4.9412 -2.73963 -1.23954 0
M  V30 31 C 6.4892 -2.82397 -1.34984 0
M  V30 32 C 6.9642 -4.22928 -1.75772 0
M  V30 33 N 8.4552 -4.25566 -1.82887 0
M  V30 34 C 9.1902 -5.31235 -2.15817 0
M  V30 35 N 8.6862 -6.47189 -2.47222 0
M  V30 36 N 10.4792 -5.18624 -2.16761 0
M  V30 37 H 2.6302 -2.1144 0.201715 0
M  V30 38 H 4.8932 -0.947598 0.0275949 0
M  V30 39 H 4.5992 -3.48264 -0.490381 0
M  V30 40 H 4.4732 -3.0702 -2.19132 0
M  V30 41 H 6.8602 -2.08356 -2.08978 0
M  V30 42 H 6.9412 -2.5297 -0.379448 0
M  V30 43 H 6.5852 -4.97482 -1.02341 0
M  V30 44 H 6.5152 -4.49794 -2.73848 0
M  V30 45 H 9.0062 -3.41924 -1.60924 0
M  V30 46 H 9.3192 -7.23564 -2.71433 0
M  V30 47 H 7.6642 -6.50476 -2.44757 0
M  V30 48 H 10.8552 -4.27056 -1.91679 0
M  V30 49 H 11.0282 -6.01078 -2.42093 0
M  V30 50 N 4.4343 0.785586 -1.36625 0
M  V30 51 C 5.6803 1.54591 -1.31261 0
M  V30 52 C 6.0133 1.93906 0.106823 0
M  V30 53 O 5.2883 1.63007 1.06108 0
M  V30 54 C 5.5713 2.82038 -2.23889 0
M  V30 55 C 5.4243 2.49066 -3.74548 0
M  V30 56 C 6.7433 3.83887 -2.15217 0
M  V30 57 H 3.8623 0.560846 -0.478143 0
M  V30 58 H 6.5043 0.902278 -1.67209 0
M  V30 59 H 4.6543 3.36961 -1.93363 0
M  V30 60 H 6.3263 2.00164 -4.15611 0
M  V30 61 H 4.5693 1.81954 -3.93796 0
M  V30 62 H 5.2403 3.40109 -4.34776 0
M  V30 63 H 7.7163 3.38421 -2.42096 0
M  V30 64 H 6.5923 4.70806 -2.82193 0
M  V30 65 H 6.8533 4.27131 -1.14068 0
M  V30 66 N 5.9124 1.20967 1.01018 0
M  V30 67 C 7.1614 1.01796 1.74128 0
M  V30 68 C 7.4744 -0.449691 1.90361 0
M  V30 69 O 8.6804 -0.76068 2.60626 0
M  V30 70 C 7.1364 1.7727 3.13215 0
M  V30 71 C 6.7444 3.28171 3.04972 0
M  V30 72 C 8.4884 1.66489 3.90489 0
M  V30 73 C 6.3954 3.96156 4.39107 0
M  V30 74 H 5.3254 0.377276 0.652824 0
M  V30 75 H 7.9764 1.44651 1.12909 0
M  V30 76 H 6.3584 1.27205 3.75013 0
M  V30 77 H 7.5324 3.85499 2.52443 0
M  V30 78 H 5.8474 3.39437 2.41188 0
M  V30 79 H 8.4444 2.14617 4.89738 0
M  V30 80 H 8.7874 0.6222 4.11624 0
M  V30 81 H 9.3204 2.14003 3.35332 0
M  V30 82 H 6.0594 5.00604 4.23174 0
M  V30 83 H 5.5794 3.43617 4.91617 0
M  V30 84 H 7.2584 4.00774 5.07926 0
M  V30 85 N 7.3905 -1.2043 1.01659 0
M  V30 86 C 8.8065 -1.41852 0.731442 0
M  V30 87 C 9.0065 -1.89358 -0.688898 0
M  V30 88 O 8.0625 -2.06247 -1.45666 0
M  V30 89 C 9.3755 -2.44019 1.75714 0
M  V30 90 C 10.9235 -2.57785 1.77527 0
M  V30 91 C 11.3985 -3.63194 2.79023 0
M  V30 92 N 12.8895 -3.70678 2.77763 0
M  V30 93 C 13.6245 -4.51897 3.52954 0
M  V30 94 N 13.1205 -5.36921 4.37821 0
M  V30 95 N 14.9135 -4.4643 3.41551 0
M  V30 96 H 7.0645 -0.879093 1.93354 0
M  V30 97 H 9.3275 -0.448425 0.835236 0
M  V30 98 H 9.0335 -2.1611 2.77469 0
M  V30 99 H 8.9075 -3.43007 1.56927 0
M  V30 100 H 11.2945 -2.85023 0.764569 0
M  V30 101 H 11.3755 -1.58992 2.00387 0
M  V30 102 H 11.0195 -3.36699 3.80258 0
M  V30 103 H 10.9495 -4.61609 2.53425 0
M  V30 104 H 13.4405 -3.09944 2.16201 0
M  V30 105 H 13.7535 -5.95981 4.91962 0
M  V30 106 H 12.0985 -5.36424 4.41899 0
M  V30 107 H 15.2895 -3.79042 2.74672 0
M  V30 108 H 15.4625 -5.09491 4.00404 0
M  V30 109 N 8.8686 -0.792821 -1.36206 0
M  V30 110 C 10.1166 -0.366062 -1.98757 0
M  V30 111 C 10.4376 1.0668 -1.63231 0
M  V30 112 O 9.7076 1.73587 -0.907978 0
M  V30 113 H 8.2876 -0.132364 -0.735179 0
M  V30 114 H 10.9496 -1.01562 -1.66347 0
M  V30 115 H 10.0456 -0.460638 -3.08682 0
M  V30 116 N 10.3467 1.47872 -0.545128 0
M  V30 117 C 11.2787 2.27869 0.246621 0
M  V30 118 C 12.2917 1.36282 0.890561 0
M  V30 119 O 13.4807 1.61207 0.766449 0
M  V30 120 C 10.5807 3.10159 1.36582 0
M  V30 121 C 9.7537 4.29627 0.820954 0
M  V30 122 C 8.8127 4.93607 1.82314 0
M  V30 123 O 7.8387 5.52366 1.37406 0
M  V30 124 N 9.0407 4.87211 3.15603 0
M  V30 125 H 11.8057 2.96459 -0.439539 0
M  V30 126 H 9.3667 1.57367 -0.380421 0
M  V30 127 H 11.3587 3.49829 2.03474 0
M  V30 128 H 9.9287 2.43891 1.9554 0
M  V30 129 H 9.1487 3.94192 -0.0244032 0
M  V30 130 H 10.4367 5.06928 0.436063 0
M  V30 131 H 9.8347 4.40651 3.54744 0
M  V30 132 H 8.3917 5.30937 3.78087 0
M  V30 133 N 11.8248 0.280983 1.55075 0
M  V30 134 C 13.2408 -0.0729964 1.59433 0
M  V30 135 C 13.4408 -1.5411 1.29817 0
M  V30 136 O 12.4968 -2.29086 1.06187 0
M  V30 137 C 13.8098 0.306921 2.9913 0
M  V30 138 C 15.3578 0.254023 3.11968 0
M  V30 139 C 15.8328 0.608467 4.5394 0
M  V30 140 N 17.3238 0.560241 4.59799 0
M  V30 141 C 18.0588 0.80722 5.6769 0
M  V30 142 N 17.5548 1.11912 6.83701 0
M  V30 143 N 19.3478 0.735623 5.57266 0
M  V30 144 H 11.4988 1.238 1.7259 0
M  V30 145 H 13.7618 0.500547 0.805082 0
M  V30 146 H 13.4678 1.32816 3.25657 0
M  V30 147 H 13.3418 -0.349363 3.75579 0
M  V30 148 H 15.7288 -0.75794 2.852 0
M  V30 149 H 15.8098 0.944649 2.37718 0
M  V30 150 H 15.4538 1.61814 4.81434 0
M  V30 151 H 15.3838 -0.104013 5.26497 0
M  V30 152 H 17.8748 0.329288 3.76463 0
M  V30 153 H 18.1878 1.29409 7.61888 0
M  V30 154 H 16.5328 1.15695 6.85303 0
M  V30 155 H 19.7238 0.491752 4.6551 0
M  V30 156 H 19.8968 0.931482 6.4127 0
M  V30 157 N 13.3029 -1.57598 0.00835791 0
M  V30 158 C 14.2499 -2.08945 -0.980346 0
M  V30 159 C 15.2199 -0.986738 -1.33614 0
M  V30 160 O 16.4049 -1.25968 -1.43306 0
M  V30 161 C 13.5449 -2.60425 -2.26435 0
M  V30 162 C 12.6579 -3.84628 -1.96685 0
M  V30 163 C 11.7929 -4.24579 -3.19228 0
M  V30 164 C 10.8319 -5.41596 -2.85202 0
M  V30 165 N 9.9689 -5.768 -4.00307 0
M  V30 166 H 14.8089 -2.93148 -0.535551 0
M  V30 167 H 12.3459 -1.44912 -0.252776 0
M  V30 168 H 14.3039 -2.88354 -3.01509 0
M  V30 169 H 12.9339 -1.79083 -2.68568 0
M  V30 170 H 11.9859 -3.63556 -1.11942 0
M  V30 171 H 13.2979 -4.69796 -1.67611 0
M  V30 172 H 12.4519 -4.53834 -4.02641 0
M  V30 173 H 11.1909 -3.38137 -3.51447 0
M  V30 174 H 10.1959 -5.12056 -2.00198 0
M  V30 175 H 11.4209 -6.29721 -2.54222 0
M  V30 176 H 9.3669 -4.93316 -4.32407 0
M  V30 177 H 9.2839 -6.5656 -3.74786 0
M  V30 178 H 10.5519 -6.10652 -4.84484 0
M  V30 179 N 14.781 0.264519 -1.55364 0
M  V30 180 C 16.029 0.993021 -1.76021 0
M  V30 181 C 16.35 1.86511 -0.569099 0
M  V30 182 O 15.62 1.91438 0.415735 0
M  V30 183 H 14.2 0.369639 -0.649135 0
M  V30 184 H 16.862 0.286707 -1.9278 0
M  V30 185 H 15.958 1.62502 -2.66457 0
M  V30 186 N 16.2591 1.48442 0.529413 0
M  V30 187 C 17.2221 1.62524 1.61612 0
M  V30 188 C 18.2221 0.498509 1.52877 0
M  V30 189 O 19.4121 0.76431 1.56537 0
M  V30 190 C 16.5441 1.59597 3.01233 0
M  V30 191 H 17.7371 2.59423 1.50465 0
M  V30 192 H 15.2901 1.37047 0.751514 0
M  V30 193 H 16.0251 0.641781 3.17886 0
M  V30 194 H 15.8101 2.41397 3.08982 0
M  V30 195 H 17.3001 1.72646 3.80241 0
M  V30 196 N 17.7372 -0.778329 1.37039 0
M  V30 197 C 18.9852 -1.53361 1.31623 0
M  V30 198 C 19.3062 -1.94739 -0.100831 0
M  V30 199 O 18.5762 -1.65797 -1.04347 0
M  V30 200 H 17.1562 -0.568794 0.484234 0
M  V30 201 H 19.8182 -0.926742 1.71457 0
M  V30 202 H 18.9142 -2.43606 1.95096 0
M  V30 203 N 19.2153 -1.21501 -1.00376 0
M  V30 204 C 20.4403 -1.05977 -1.78279 0
M  V30 205 C 20.8653 0.385994 -1.84097 0
M  V30 206 O 20.2233 1.27849 -1.28547 0
M  V30 207 C 20.2713 -1.66302 -3.19963 0
M  V30 208 O 19.3753 -0.909333 -4.0225 0
M  V30 209 H 18.7163 -0.372906 -0.549397 0
M  V30 210 H 21.2463 -1.6107 -1.26165 0
M  V30 211 H 21.2563 -1.70574 -3.70632 0
M  V30 212 H 19.9313 -2.71515 -3.15043 0
M  V30 213 H 18.5083 -0.941795 -3.60811 0
M  V30 214 N 20.6934 1.19889 -1.02296 0
M  V30 215 C 21.9394 1.89701 -0.717033 0
M  V30 216 C 22.2724 1.7905 0.751989 0
M  V30 217 O 21.5474 1.17891 1.547 0
M  V30 218 C 21.8304 3.40858 -1.16136 0
M  V30 219 C 21.6834 3.60411 -2.69117 0
M  V30 220 C 23.0024 4.33876 -0.737549 0
M  V30 221 H 20.1214 0.688874 -0.261957 0
M  V30 222 H 22.7634 1.41154 -1.27183 0
M  V30 223 H 20.9134 3.82335 -0.689342 0
M  V30 224 H 22.5854 3.28145 -3.2422 0
M  V30 225 H 20.8284 3.03665 -3.0979 0
M  V30 226 H 21.4994 4.66396 -2.95261 0
M  V30 227 H 23.9754 4.00081 -1.14344 0
M  V30 228 H 22.8514 5.38242 -1.0764 0
M  V30 229 H 23.1124 4.40628 0.360436 0
M  V30 230 N 22.1715 0.800033 1.35784 0
M  V30 231 C 23.4185 0.377342 1.98953 0
M  V30 232 C 23.7465 -1.05378 1.6348 0
M  V30 233 O 23.0015 -1.74459 0.886707 0
M  V30 234 C 23.3005 0.500276 3.53881 0
M  V30 235 C 22.9665 1.89375 4.09204 0
M  V30 236 C 21.6285 2.27499 4.24025 0
M  V30 237 C 23.9805 2.8057 4.39238 0
M  V30 238 C 21.3085 3.562 4.66195 0
M  V30 239 C 23.6605 4.0871 4.82844 0
M  V30 240 C 22.3245 4.46843 4.95871 0
M  V30 241 H 21.5945 0.138079 0.728021 0
M  V30 242 H 24.2415 1.01955 1.62103 0
M  V30 243 H 22.5465 -0.225405 3.91151 0
M  V30 244 H 24.2435 0.154097 4.00704 0
M  V30 245 H 20.8335 1.58753 3.98115 0
M  V30 246 H 25.0175 2.52367 4.27346 0
M  V30 247 H 20.2735 3.85602 4.74469 0
M  V30 248 H 24.4475 4.79481 5.05046 0
M  V30 249 H 22.0745 5.46623 5.28306 0
M  V30 250 N 23.6496 -1.47581 0.552962 0
M  V30 251 C 25.0656 -1.5818 0.212424 0
M  V30 252 C 25.2656 -1.55213 -1.28496 0
M  V30 253 O 24.3216 -1.45329 -2.06484 0
M  V30 254 C 25.6346 -2.88865 0.835318 0
M  V30 255 C 27.1826 -3.0244 0.806156 0
M  V30 256 C 27.6576 -4.35819 1.40804 0
M  V30 257 N 29.1486 -4.42444 1.37103 0
M  V30 258 C 29.8836 -5.44202 1.80641 0
M  V30 259 N 29.3796 -6.52795 2.32015 0
M  V30 260 N 31.1726 -5.35222 1.71738 0
M  V30 261 H 23.3236 -1.47753 1.52587 0
M  V30 262 H 25.5866 -0.702941 0.636064 0
M  V30 263 H 25.2926 -2.9676 1.88749 0
M  V30 264 H 25.1666 -3.7579 0.325848 0
M  V30 265 H 27.5536 -2.94144 -0.237317 0
M  V30 266 H 27.6346 -2.17068 1.35334 0
M  V30 267 H 27.2786 -4.44871 2.45056 0
M  V30 268 H 27.2086 -5.19916 0.836338 0
M  V30 269 H 29.6996 -3.6456 0.995202 0
M  V30 270 H 30.0126 -7.26609 2.63171 0
M  V30 271 H 28.3576 -6.53696 2.36023 0
M  V30 272 H 31.5486 -4.49284 1.31382 0
M  V30 273 H 31.7216 -6.14389 2.05987 0
M  V30 274 N 25.1277 -0.289203 -1.54924 0
M  V30 275 C 26.0907 0.579144 -2.21762 0
M  V30 276 C 27.0907 1.07047 -1.1999 0
M  V30 277 O 28.2807 0.968384 -1.44803 0
M  V30 278 C 25.4127 1.80055 -2.8947 0
M  V30 279 H 26.6057 -0.00464908 -2.999 0
M  V30 280 H 24.1587 -0.0399306 -1.56249 0
M  V30 281 H 24.8937 2.42449 -2.15381 0
M  V30 282 H 24.6787 1.45602 -3.64064 0
M  V30 283 H 26.1687 2.41773 -3.40493 0
M  V30 284 N 26.6058 1.57591 -0.0167156 0
M  V30 285 C 27.5558 2.05953 0.978137 0
M  V30 286 C 28.5398 0.957532 1.29306 0
M  V30 287 O 29.7318 1.22119 1.28125 0
M  V30 288 C 26.8608 2.58006 2.26468 0
M  V30 289 C 25.9468 3.75113 1.97867 0
M  V30 290 N 26.3378 4.86187 1.39486 0
M  V30 291 C 24.6358 3.83363 2.27924 0
M  V30 292 C 25.3368 5.67502 1.27735 0
M  V30 293 N 24.3128 5.14023 1.76866 0
M  V30 294 H 28.1148 2.89236 0.521522 0
M  V30 295 H 25.6288 1.61301 0.188596 0
M  V30 296 H 27.6258 2.90937 2.98599 0
M  V30 297 H 26.2858 1.76148 2.72767 0
M  V30 298 H 27.2968 5.06695 1.07147 0
M  V30 299 H 23.9738 3.1239 2.76982 0
M  V30 300 H 25.3638 6.66791 0.826978 0
M  V30 301 N 28.0839 -0.256276 1.55502 0
M  V30 302 C 29.3299 -0.987079 1.77157 0
M  V30 303 C 29.6629 -1.85327 0.580315 0
M  V30 304 O 28.9379 -1.89874 -0.421686 0
M  V30 305 C 29.2209 -1.85553 3.08613 0
M  V30 306 C 29.0739 -1.01816 4.38125 0
M  V30 307 C 30.3929 -2.8397 3.36228 0
M  V30 308 H 27.5119 -0.357428 0.644526 0
M  V30 309 H 30.1539 -0.258239 1.88237 0
M  V30 310 H 28.3039 -2.47695 2.99298 0
M  V30 311 H 29.9759 -0.416159 4.59419 0
M  V30 312 H 28.2189 -0.322178 4.32602 0
M  V30 313 H 28.8899 -1.65939 5.26468 0
M  V30 314 H 31.3659 -2.31964 3.45445 0
M  V30 315 H 30.2419 -3.41864 4.29442 0
M  V30 316 H 30.5029 -3.59955 2.56681 0
M  V30 317 N 29.562 -1.4872 -0.521534 0
M  V30 318 C 30.509 -1.63871 -1.62527 0
M  V30 319 C 31.479 -0.480559 -1.58996 0
M  V30 320 O 32.664 -0.705085 -1.77294 0
M  V30 321 C 29.804 -1.69227 -3.00759 0
M  V30 322 C 28.917 -2.96207 -3.14461 0
M  V30 323 C 28.052 -2.92671 -4.43303 0
M  V30 324 C 27.091 -4.14318 -4.50563 0
M  V30 325 N 26.228 -4.0881 -5.70805 0
M  V30 326 H 31.068 -2.58123 -1.48918 0
M  V30 327 H 28.605 -1.28 -0.724878 0
M  V30 328 H 30.563 -1.70314 -3.80853 0
M  V30 329 H 29.193 -0.784586 -3.1312 0
M  V30 330 H 28.245 -3.04826 -2.27564 0
M  V30 331 H 29.557 -3.86192 -3.15686 0
M  V30 332 H 28.711 -2.92206 -5.31696 0
M  V30 333 H 27.45 -2.00429 -4.44612 0
M  V30 334 H 26.455 -4.15049 -3.60575 0
M  V30 335 H 27.68 -5.07729 -4.50986 0
M  V30 336 H 25.626 -3.19394 -5.72995 0
M  V30 337 H 25.543 -4.92509 -5.7356 0
M  V30 338 H 26.811 -4.12418 -6.61462 0
M  V30 339 N 31.0401 0.771051 -1.3745 0
M  V30 340 C 31.9901 1.87456 -1.29785 0
M  V30 341 C 32.9741 1.59827 -0.185541 0
M  V30 342 O 34.1661 1.71945 -0.419997 0
M  V30 343 C 31.2951 3.24935 -1.1078 0
M  V30 344 C 30.3811 3.58514 -2.26558 0
M  V30 345 N 30.7721 3.6327 -3.5195 0
M  V30 346 C 29.0701 3.88683 -2.18727 0
M  V30 347 C 29.7711 3.93616 -4.283 0
M  V30 348 N 28.7471 4.09551 -3.57448 0
M  V30 349 H 32.5491 1.89386 -2.24745 0
M  V30 350 H 30.0631 0.967531 -1.30432 0
M  V30 351 H 32.0601 4.03881 -1.03374 0
M  V30 352 H 30.7201 3.24268 -0.16738 0
M  V30 353 H 31.7311 3.45458 -3.85848 0
M  V30 354 H 28.4081 3.95834 -1.32746 0
M  V30 355 H 29.7981 4.04066 -5.36824 0
M  V30 356 N 32.5182 1.22032 0.997298 0
M  V30 357 C 33.9342 0.979326 1.26021 0
M  V30 358 C 34.1342 -0.32972 1.98784 0
M  V30 359 O 33.1902 -1.05345 2.29475 0
M  V30 360 C 34.5032 2.17509 2.07631 0
M  V30 361 C 36.0512 2.21817 2.2083 0
M  V30 362 C 36.5262 3.40933 3.05825 0
M  V30 363 N 38.0172 3.41067 3.13412 0
M  V30 364 C 38.7522 4.29885 3.79455 0
M  V30 365 N 38.2482 5.28914 4.47462 0
M  V30 366 N 40.0412 4.17673 3.76173 0
M  V30 367 H 32.1922 2.06202 0.509352 0
M  V30 368 H 34.4552 0.90334 0.287541 0
M  V30 369 H 34.1612 3.12415 1.61524 0
M  V30 370 H 34.0352 2.17206 3.08385 0
M  V30 371 H 36.4222 1.27462 2.66153 0
M  V30 372 H 36.5032 2.2616 1.1952 0
M  V30 373 H 36.1472 4.35586 2.61203 0
M  V30 374 H 36.0772 3.33829 4.07266 0
M  V30 375 H 38.5682 2.69406 2.65007 0
M  V30 376 H 38.8812 5.92973 4.95583 0
M  V30 377 H 37.2262 5.32831 4.46224 0
M  V30 378 H 40.4172 3.39564 3.22202 0
M  V30 379 H 40.5902 4.87098 4.27363 0
M  V30 380 N 33.9963 -1.19345 1.0293 0
M  V30 381 C 34.9433 -2.2258 0.610464 0
M  V30 382 C 35.9133 -1.6179 -0.375946 0
M  V30 383 O 37.0983 -1.88844 -0.272511 0
M  V30 384 C 34.2383 -3.45085 -0.0321473 0
M  V30 385 C 33.3513 -4.20258 1.00035 0
M  V30 386 C 32.4863 -5.3019 0.32746 0
M  V30 387 C 31.5253 -5.97121 1.34584 0
M  V30 388 N 30.6623 -6.98615 0.698726 0
M  V30 389 H 35.5023 -2.57764 1.49538 0
M  V30 390 H 33.0393 -1.26644 0.748311 0
M  V30 391 H 34.9973 -4.15061 -0.421966 0
M  V30 392 H 33.6273 -3.10555 -0.88064 0
M  V30 393 H 32.6793 -3.49223 1.50823 0
M  V30 394 H 33.9913 -4.66175 1.77433 0
M  V30 395 H 33.1453 -6.06587 -0.11718 0
M  V30 396 H 31.8843 -4.85345 -0.478713 0
M  V30 397 H 30.8893 -5.19474 1.80074 0
M  V30 398 H 32.1143 -6.4405 2.15352 0
M  V30 399 H 30.0603 -6.55942 -0.0873471 0
M  V30 400 H 29.9773 -7.42724 1.41058 0
M  V30 401 H 31.2453 -7.79004 0.278102 0
M  V30 402 N 35.4744 -0.807222 -1.35358 0
M  V30 403 C 36.7224 -0.387122 -1.98358 0
M  V30 404 C 37.0434 1.04942 -1.64354 0
M  V30 405 O 36.3134 1.72615 -0.926339 0
M  V30 406 H 34.8934 -0.140154 -0.733734 0
M  V30 407 H 37.5554 -1.0332 -1.6526 0
M  V30 408 H 36.6514 -0.493352 -3.08176 0
M  V30 409 N 36.9525 1.47285 -0.560781 0
M  V30 410 C 37.9155 2.28535 0.174488 0
M  V30 411 C 38.9155 1.37153 0.839388 0
M  V30 412 O 40.1055 1.59748 0.694702 0
M  V30 413 C 37.2375 3.16934 1.25561 0
M  V30 414 H 38.4305 2.95012 -0.539262 0
M  V30 415 H 35.9835 1.53034 -0.317865 0
M  V30 416 H 36.7185 2.55157 2.00164 0
M  V30 417 H 36.5035 3.8419 0.783604 0
M  V30 418 H 37.9935 3.78143 1.77193 0
M  V30 419 N 38.4306 0.297415 1.54768 0
M  V30 420 C 39.3936 -0.567375 2.22066 0
M  V30 421 C 40.3936 -1.06409 1.20556 0
M  V30 422 O 41.5836 -0.960691 1.45315 0
M  V30 423 C 38.7156 -1.78517 2.90421 0
M  V30 424 H 39.9086 0.0205534 2.99893 0
M  V30 425 H 37.4616 0.0482163 1.56226 0
M  V30 426 H 38.1966 -2.41303 2.16664 0
M  V30 427 H 37.9816 -1.43669 3.64831 0
M  V30 428 H 39.4716 -2.39964 3.41771 0
M  V30 429 N 39.9087 -1.5758 0.0250728 0
M  V30 430 C 41.3247 -1.56124 -0.331282 0
M  V30 431 C 41.5247 -1.03029 -1.73169 0
M  V30 432 O 40.5807 -0.675215 -2.43305 0
M  V30 433 C 41.8937 -3.00139 -0.183584 0
M  V30 434 C 43.4417 -3.11946 -0.256654 0
M  V30 435 C 43.9167 -4.57793 -0.137792 0
M  V30 436 N 45.4077 -4.6279 -0.194904 0
M  V30 437 C 46.1427 -5.7326 -0.126655 0
M  V30 438 N 45.6387 -6.928 -0.00755288 0
M  V30 439 N 47.4317 -5.61811 -0.180348 0
M  V30 440 H 39.5827 -1.90424 0.94087 0
M  V30 441 H 41.8457 -0.875761 0.362968 0
M  V30 442 H 41.5517 -3.4292 0.780927 0
M  V30 443 H 41.4257 -3.64899 -0.955448 0
M  V30 444 H 43.8127 -2.69079 -1.21162 0
M  V30 445 H 43.8937 -2.49915 0.545517 0
M  V30 446 H 43.5377 -5.01339 0.813739 0
M  V30 447 H 43.4677 -5.17798 -0.958775 0
M  V30 448 H 45.9587 -3.76807 -0.287267 0
M  V30 449 H 46.2717 -7.72791 0.0379428 0
M  V30 450 H 44.6167 -6.94995 0.0271731 0
M  V30 451 H 47.8077 -4.6731 -0.271767 0
M  V30 452 H 47.9807 -6.47882 -0.123697 0
M  V30 453 N 41.3868 0.248026 -1.55636 0
M  V30 454 C 42.3168 1.31079 -1.93237 0
M  V30 455 C 43.2978 1.50264 -0.797174 0
M  V30 456 O 44.4828 1.62891 -1.05737 0
M  V30 457 C 41.6128 2.66575 -2.22609 0
M  V30 458 C 40.5668 2.62087 -3.3837 0
M  V30 459 C 39.8928 4.01369 -3.53281 0
M  V30 460 C 41.1928 2.19171 -4.7409 0
M  V30 461 H 42.8868 0.998556 -2.82257 0
M  V30 462 H 40.4328 0.47891 -1.35803 0
M  V30 463 H 42.3858 3.41057 -2.47503 0
M  V30 464 H 41.1098 2.99432 -1.30414 0
M  V30 465 H 39.7688 1.90063 -3.13483 0
M  V30 466 H 39.4168 4.31489 -2.58508 0
M  V30 467 H 39.1168 3.99254 -4.31127 0
M  V30 468 H 40.6408 4.77552 -3.80495 0
M  V30 469 H 42.0548 2.83384 -4.98363 0
M  V30 470 H 40.4518 2.2817 -5.5503 0
M  V30 471 H 41.5218 1.14336 -4.71227 0
M  V30 472 N 42.8649 1.48995 0.513639 0
M  V30 473 C 44.2809 1.35478 0.843682 0
M  V30 474 C 44.4809 0.378213 1.97919 0
M  V30 475 O 43.5369 -0.194689 2.51748 0
M  V30 476 C 44.8499 2.75901 1.1958 0
M  V30 477 C 46.3979 2.84509 1.30474 0
M  V30 478 C 46.8729 4.25671 1.69021 0
M  V30 479 N 48.3639 4.28422 1.76094 0
M  V30 480 C 49.0989 5.34601 2.07338 0
M  V30 481 N 48.5949 6.5104 2.36894 0
M  V30 482 N 50.3879 5.22007 2.08483 0
M  V30 483 H 42.5389 2.11092 -0.235328 0
M  V30 484 H 44.8019 0.947039 -0.0426669 0
M  V30 485 H 44.5079 3.49001 0.434913 0
M  V30 486 H 44.3819 3.10467 2.1422 0
M  V30 487 H 46.7689 2.11655 2.05637 0
M  V30 488 H 46.8499 2.53542 0.339155 0
M  V30 489 H 46.4939 4.99048 0.944135 0
M  V30 490 H 46.4239 4.54094 2.66658 0
M  V30 491 H 48.9149 3.44441 1.55464 0
M  V30 492 H 49.2279 7.2779 2.59887 0
M  V30 493 H 47.5729 6.54287 2.34378 0
M  V30 494 H 50.7639 4.30051 1.84861 0
M  V30 495 H 50.9369 6.04854 2.325 0
M  V30 496 N 44.343 -0.763751 1.37857 0
M  V30 497 C 45.306 -1.85889 1.34081 0
M  V30 498 C 46.306 -1.58949 0.243277 0
M  V30 499 O 47.496 -1.66882 0.499589 0
M  V30 500 C 44.628 -3.23176 1.08489 0
M  V30 501 H 45.821 -1.90648 2.31502 0
M  V30 502 H 43.374 -0.964367 1.23003 0
M  V30 503 H 44.109 -3.24091 0.116318 0
M  V30 504 H 43.894 -3.44124 1.8794 0
M  V30 505 H 45.384 -4.03254 1.08517 0
M  V30 506 N 45.8211 -1.22559 -0.990812 0
M  V30 507 C 47.0671 -1.05297 -1.73322 0
M  V30 508 C 47.4001 0.410655 -1.89808 0
M  V30 509 O 46.6751 1.30439 -1.44277 0
M  V30 510 C 46.9581 -1.76713 -3.13759 0
M  V30 511 C 46.8111 -3.30684 -3.04907 0
M  V30 512 C 48.1301 -1.52121 -4.12974 0
M  V30 513 H 45.2491 -0.38392 -0.629106 0
M  V30 514 H 47.8911 -1.50926 -1.15418 0
M  V30 515 H 46.0411 -1.37924 -3.63193 0
M  V30 516 H 47.7131 -3.7893 -2.63077 0
M  V30 517 H 45.9561 -3.60253 -2.41661 0
M  V30 518 H 46.6271 -3.75833 -4.04294 0
M  V30 519 H 49.1031 -1.85819 -3.72304 0
M  V30 520 H 47.9791 -2.04582 -5.0935 0
M  V30 521 H 48.2401 -0.454257 -4.3976 0
M  V30 522 N 47.2992 1.18797 -1.03562 0
M  V30 523 C 48.5762 1.84469 -0.650434 0
M  V30 524 C 48.9562 1.92319 0.870433 0
M  V30 525 O 48.3042 1.44528 1.76986 0
M  V30 526 C 48.5142 3.2306 -1.32036 0
M  V30 527 C 49.8622 3.9915 -1.44792 0
M  V30 528 O 50.8862 3.32481 -1.27806 0
M  V30 529 O 49.7452 5.18587 -1.72423 0
M  V30 530 H 46.8392 0.795251 -0.226946 0
M  V30 531 H 49.3852 1.26231 -1.13419 0
M  V30 532 H 48.1572 3.1222 -2.3587 0
M  V30 533 H 47.7802 3.88949 -0.8249 0
M  V30 534 N 48.7773 0.814389 1.34928 0
M  V30 535 C 50.0243 0.398423 1.98542 0
M  V30 536 C 50.3523 -1.03638 1.64589 0
M  V30 537 O 49.6073 -1.73509 0.90516 0
M  V30 538 C 49.9063 0.537781 3.53331 0
M  V30 539 C 49.5723 1.93704 4.07172 0
M  V30 540 C 48.2343 2.31984 4.21589 0
M  V30 541 C 50.5863 2.85213 4.36237 0
M  V30 542 C 47.9143 3.61125 4.62391 0
M  V30 543 C 50.2663 4.13809 4.78482 0
M  V30 544 C 48.9303 4.52077 4.91104 0
M  V30 545 H 48.2003 0.145793 0.726516 0
M  V30 546 H 50.8473 1.03669 1.61012 0
M  V30 547 H 49.1523 -0.183906 3.91368 0
M  V30 548 H 50.8493 0.196588 4.00518 0
M  V30 549 H 47.4393 1.62966 3.96409 0
M  V30 550 H 51.6233 2.56885 4.24645 0
M  V30 551 H 46.8793 3.90612 4.70353 0
M  V30 552 H 51.0533 4.84811 4.99932 0
M  V30 553 H 48.6803 5.52196 5.22478 0
M  V30 554 N 50.2554 -1.46986 0.568584 0
M  V30 555 C 51.2184 -2.28624 -0.162366 0
M  V30 556 C 52.2184 -1.37596 -0.832103 0
M  V30 557 O 53.4084 -1.60115 -0.68622 0
M  V30 558 C 50.5404 -3.17596 -1.23878 0
M  V30 559 H 51.7334 -2.94722 0.554899 0
M  V30 560 H 49.2864 -1.52863 0.325976 0
M  V30 561 H 50.0214 -2.56214 -1.98808 0
M  V30 562 H 49.8064 -3.846 -0.763219 0
M  V30 563 H 51.2964 -3.79078 -1.75185 0
M  V30 564 N 51.7335 -0.305618 -1.54608 0
M  V30 565 C 52.6435 0.57778 -2.27374 0
M  V30 566 C 53.6595 1.14451 -1.31061 0
M  V30 567 O 54.8355 1.16831 -1.6405 0
M  V30 568 C 51.9005 1.73123 -3.00382 0
M  V30 569 C 50.9615 1.19812 -4.12242 0
M  V30 570 C 50.1945 2.2966 -4.81759 0
M  V30 571 O 50.4175 3.49651 -4.50666 0
M  V30 572 O 49.3515 1.96091 -5.69062 0
M  V30 573 H 53.1775 -0.012624 -3.03697 0
M  V30 574 H 50.7625 -0.0719184 -1.49227 0
M  V30 575 H 52.6445 2.40315 -3.4616 0
M  V30 576 H 51.3195 2.30815 -2.26949 0
M  V30 577 H 50.2265 0.491798 -3.70853 0
M  V30 578 H 51.5595 0.666566 -4.87666 0
M  V30 579 N 53.2116 1.57565 -0.0334293 0
M  V30 580 C 54.6276 1.56297 0.322997 0
M  V30 581 C 54.8276 1.03945 1.7262 0
M  V30 582 O 53.8836 0.688109 2.42943 0
M  V30 583 C 55.1966 3.00232 0.167664 0
M  V30 584 C 56.7446 3.12078 0.240107 0
M  V30 585 C 57.2196 4.57859 0.113513 0
M  V30 586 N 58.7106 4.62887 0.170359 0
M  V30 587 C 59.4456 5.73319 0.0962517 0
M  V30 588 N 58.9416 6.92794 -0.0291881 0
M  V30 589 N 60.7346 5.61898 0.150551 0
M  V30 590 H 52.8856 1.89923 -0.950956 0
M  V30 591 H 55.1486 0.873824 -0.367608 0
M  V30 592 H 54.8546 3.42501 -0.799102 0
M  V30 593 H 54.7286 3.654 0.936083 0
M  V30 594 H 57.1156 2.69718 1.19733 0
M  V30 595 H 57.1966 2.49623 -0.558763 0
M  V30 596 H 56.8406 5.009 -0.840314 0
M  V30 597 H 56.7706 5.18299 0.931302 0
M  V30 598 H 59.2616 3.76954 0.26728 0
M  V30 599 H 59.5746 7.7276 -0.0789252 0
M  V30 600 H 57.9196 6.94971 -0.0640299 0
M  V30 601 H 61.1106 4.67448 0.246981 0
M  V30 602 H 61.2836 6.47938 0.0893365 0
M  V30 603 N 54.6897 -0.239769 1.55765 0
M  V30 604 C 55.6397 -1.30002 1.87306 0
M  V30 605 C 56.6237 -1.43156 0.73452 0
M  V30 606 O 57.8157 -1.46277 0.99659 0
M  V30 607 C 54.9447 -2.65409 2.17745 0
M  V30 608 C 54.0307 -2.56231 3.37945 0
M  V30 609 N 54.4217 -2.16689 4.57033 0
M  V30 610 C 52.7197 -2.87229 3.41197 0
M  V30 611 C 53.4207 -2.18318 5.39177 0
M  V30 612 N 52.3967 -2.58098 4.78421 0
M  V30 613 H 56.1987 -0.984912 2.76906 0
M  V30 614 H 53.7127 -0.448381 1.56087 0
M  V30 615 H 55.7097 -3.41934 2.38509 0
M  V30 616 H 54.3697 -2.97781 1.29448 0
M  V30 617 H 55.3807 -1.88116 4.82528 0
M  V30 618 H 52.0577 -3.24094 2.63191 0
M  V30 619 H 53.4477 -1.90025 6.44469 0
M  V30 620 N 56.1678 -1.49265 -0.50573 0
M  V30 621 C 57.4158 -1.582 -1.25766 0
M  V30 622 C 57.7368 -0.268482 -1.93143 0
M  V30 623 O 57.0068 0.711833 -1.8251 0
M  V30 624 H 55.5868 -0.582873 -0.467191 0
M  V30 625 H 58.2488 -1.85865 -0.586525 0
M  V30 626 H 57.3448 -2.37563 -2.02412 0
M  V30 627 N 57.6459 0.756429 -1.3826 0
M  V30 628 C 58.8759 1.54341 -1.3734 0
M  V30 629 C 59.2839 1.89159 0.0393917 0
M  V30 630 O 58.6269 1.5307 1.01565 0
M  V30 631 C 58.6889 2.87238 -2.16182 0
M  V30 632 C 58.3529 2.74973 -3.65019 0
M  V30 633 C 59.3499 2.44962 -4.58574 0
M  V30 634 C 57.0349 2.92515 -4.08338 0
M  V30 635 C 59.0289 2.32642 -5.93428 0
M  V30 636 C 56.7159 2.79815 -5.43274 0
M  V30 637 C 57.7139 2.49921 -6.35632 0
M  V30 638 O 57.4019 2.37275 -7.68086 0
M  V30 639 H 57.1339 0.484281 -0.471643 0
M  V30 640 H 59.6879 0.944152 -1.82414 0
M  V30 641 H 57.9179 3.49342 -1.65822 0
M  V30 642 H 59.6069 3.48731 -2.07705 0
M  V30 643 H 60.3729 2.31081 -4.26412 0
M  V30 644 H 56.2519 3.14781 -3.368 0
M  V30 645 H 59.7959 2.0923 -6.65484 0
M  V30 646 H 55.6929 2.93269 -5.75034 0
M  V30 647 H 56.4609 2.52509 -7.78577 0
M  V30 648 N 59.124 1.23083 0.984299 0
M  V30 649 C 60.373 1.05466 1.71929 0
M  V30 650 C 60.686 -0.409211 1.91272 0
M  V30 651 O 61.892 -0.705226 2.62181 0
M  V30 652 C 60.348 1.83874 3.09384 0
M  V30 653 C 59.956 3.34566 2.97943 0
M  V30 654 C 61.7 1.74734 3.8687 0
M  V30 655 C 59.607 4.05381 4.30605 0
M  V30 656 H 58.537 0.391039 0.644674 0
M  V30 657 H 61.188 1.47013 1.09815 0
M  V30 658 H 59.57 1.35131 3.72231 0
M  V30 659 H 60.744 3.90767 2.44209 0
M  V30 660 H 59.059 3.44476 2.33934 0
M  V30 661 H 61.656 2.24957 4.85076 0
M  V30 662 H 61.999 0.709372 4.10212 0
M  V30 663 H 62.532 2.21067 3.30717 0
M  V30 664 H 59.271 5.09467 4.1246 0
M  V30 665 H 58.791 3.53967 4.84218 0
M  V30 666 H 60.47 4.11458 4.99311 0
M  V30 667 N 60.6021 -1.18246 1.0419 0
M  V30 668 C 61.5491 -2.2192 0.634037 0
M  V30 669 C 62.5191 -1.62179 -0.358765 0
M  V30 670 O 63.7041 -1.89122 -0.252466 0
M  V30 671 C 60.8441 -3.451 0.00445535 0
M  V30 672 C 59.9571 -4.19174 1.04487 0
M  V30 673 C 59.0921 -5.29813 0.383676 0
M  V30 674 C 58.1311 -5.9566 1.4091 0
M  V30 675 N 57.2681 -6.97834 0.772784 0
M  V30 676 H 62.1081 -2.56164 1.52263 0
M  V30 677 H 59.6451 -1.25843 0.761701 0
M  V30 678 H 61.6031 -4.15485 -0.377919 0
M  V30 679 H 60.2331 -3.11472 -0.847652 0
M  V30 680 H 59.2851 -3.47604 1.54518 0
M  V30 681 H 60.5971 -4.64267 1.82368 0
M  V30 682 H 59.7511 -6.06677 -0.0528366 0
M  V30 683 H 58.4901 -4.85825 -0.427208 0
M  V30 684 H 57.4951 -5.17535 1.85574 0
M  V30 685 H 58.7201 -6.4173 2.22171 0
M  V30 686 H 56.6661 -6.55998 -0.0177708 0
M  V30 687 H 56.5831 -7.41186 1.48928 0
M  V30 688 H 57.8511 -7.78665 0.36071 0
M  V30 689 N 62.0802 -0.821533 -1.34494 0
M  V30 690 C 63.3282 -0.408139 -1.97936 0
M  V30 691 C 63.6492 1.03193 -1.65457 0
M  V30 692 O 62.9192 1.71622 -0.944595 0
M  V30 693 H 61.4992 -0.147928 -0.732206 0
M  V30 694 H 64.1612 -1.05067 -1.64155 0
M  V30 695 H 63.2572 -0.52601 -3.07635 0
M  V30 696 N 63.5583 1.46682 -0.576371 0
M  V30 697 C 64.8073 2.01619 -0.0572825 0
M  V30 698 C 65.1203 1.45417 1.30818 0
M  V30 699 O 66.3263 1.92133 1.91825 0
M  V30 700 C 64.7823 3.59863 -0.0518371 0
M  V30 701 C 64.3903 4.25059 -1.41523 0
M  V30 702 C 66.1343 4.2248 0.413639 0
M  V30 703 C 64.0413 5.75364 -1.36785 0
M  V30 704 H 62.9713 0.753794 -0.0176448 0
M  V30 705 H 65.6223 1.68481 -0.727076 0
M  V30 706 H 64.0043 3.90048 0.683994 0
M  V30 707 H 65.1783 4.06491 -2.17029 0
M  V30 708 H 63.4933 3.7451 -1.8202 0
M  V30 709 H 66.0903 5.3265 0.467779 0
M  V30 710 H 66.4333 3.90976 1.42982 0
M  V30 711 H 66.9663 3.96897 -0.267929 0
M  V30 712 H 63.7053 6.11518 -2.36063 0
M  V30 713 H 63.2253 5.96214 -0.654895 0
M  V30 714 H 64.9043 6.37955 -1.07805 0
M  V30 715 N 65.0364 0.313813 1.54444 0
M  V30 716 C 66.2824 -0.292108 2.00685 0
M  V30 717 C 66.6154 -1.52548 1.20177 0
M  V30 718 O 65.8904 -1.92452 0.281531 0
M  V30 719 C 66.1734 -0.635968 3.5444 0
M  V30 720 C 66.0264 0.607437 4.4568 0
M  V30 721 C 67.3454 -1.45747 4.15266 0
M  V30 722 H 64.4644 -0.104697 0.729526 0
M  V30 723 H 67.1064 0.428457 1.85106 0
M  V30 724 H 65.2564 -1.24986 3.67846 0
M  V30 725 H 66.9284 1.24581 4.44159 0
M  V30 726 H 65.1714 1.23822 4.15753 0
M  V30 727 H 65.8424 0.322515 5.51057 0
M  V30 728 H 68.3184 -0.938645 4.05375 0
M  V30 729 H 67.1944 -1.66683 5.2298 0
M  V30 730 H 67.4554 -2.45063 3.67963 0
M  V30 731 N 66.5145 -1.57545 0.0417849 0
M  V30 732 C 67.4615 -2.10977 -0.935805 0
M  V30 733 C 68.4315 -1.01486 -1.31491 0
M  V30 734 O 69.6165 -1.2898 -1.40602 0
M  V30 735 C 66.7565 -2.65169 -2.2086 0
M  V30 736 C 65.8695 -3.88714 -1.88482 0
M  V30 737 C 65.0045 -4.31254 -3.1015 0
M  V30 738 C 64.0435 -5.47524 -2.7365 0
M  V30 739 N 63.1805 -5.85162 -3.87982 0
M  V30 740 H 68.0205 -2.94218 -0.473249 0
M  V30 741 H 65.5575 -1.45415 -0.221981 0
M  V30 742 H 67.5155 -2.94685 -2.95325 0
M  V30 743 H 66.1455 -1.8474 -2.64709 0
M  V30 744 H 65.1975 -3.65849 -1.04205 0
M  V30 745 H 66.5095 -4.73245 -1.57608 0
M  V30 746 H 65.6635 -4.62273 -3.92923 0
M  V30 747 H 64.4025 -3.45516 -3.44195 0
M  V30 748 H 63.4075 -5.16187 -1.89291 0
M  V30 749 H 64.6325 -6.34971 -2.40807 0
M  V30 750 H 62.5785 -5.02377 -4.21846 0
M  V30 751 H 62.4955 -6.64362 -3.60775 0
M  V30 752 H 63.7635 -6.20791 -4.71422 0
M  V30 753 N 67.9926 0.231505 -1.5589 0
M  V30 754 C 69.2696 0.981096 -1.69215 0
M  V30 755 C 69.6496 2.02799 -0.586164 0
M  V30 756 O 68.9976 2.24823 0.408253 0
M  V30 757 C 69.2076 1.60054 -3.10135 0
M  V30 758 C 70.5556 2.09658 -3.69227 0
M  V30 759 O 71.5796 1.69967 -3.13033 0
M  V30 760 O 70.4386 2.8258 -4.67772 0
M  V30 761 H 67.5326 0.457653 -0.688827 0
M  V30 762 H 70.0786 0.224073 -1.68214 0
M  V30 763 H 68.8506 0.844105 -3.82087 0
M  V30 764 H 68.4736 2.42336 -3.15212 0
M  V30 765 N 69.4707 1.49531 0.497807 0
M  V30 766 C 70.7197 1.58426 1.24837 0
M  V30 767 C 71.0327 0.277643 1.93619 0
M  V30 768 O 72.2387 0.24517 2.70391 0
M  V30 769 C 70.6947 2.79538 2.26686 0
M  V30 770 C 70.3027 4.16971 1.63828 0
M  V30 771 C 72.0467 2.97764 3.0255 0
M  V30 772 C 69.9537 5.29301 2.63807 0
M  V30 773 H 68.8837 0.58989 0.469623 0
M  V30 774 H 71.5347 1.75923 0.521857 0
M  V30 775 H 69.9167 2.55542 3.02514 0
M  V30 776 H 71.0907 4.51116 0.939711 0
M  V30 777 H 69.4057 4.04129 1.00342 0
M  V30 778 H 72.0027 3.78856 3.77323 0
M  V30 779 H 72.3457 2.08448 3.60354 0
M  V30 780 H 72.8787 3.21815 2.33838 0
M  V30 781 H 69.6177 6.20687 2.10779 0
M  V30 782 H 69.1377 4.99606 3.31894 0
M  V30 783 H 70.8167 5.58768 3.2617 0
M  V30 784 N 70.9488 -0.749086 1.3866 0
M  V30 785 C 72.1978 -1.50371 1.3443 0
M  V30 786 C 72.5108 -1.95503 -0.0616397 0
M  V30 787 O 73.7168 -2.70554 -0.226489 0
M  V30 788 C 72.1728 -2.71644 2.36088 0
M  V30 789 C 71.7808 -2.3352 3.82325 0
M  V30 790 C 73.5248 -3.49518 2.40909 0
M  V30 791 C 71.4318 -3.51431 4.75658 0
M  V30 792 H 70.3618 -0.564628 0.499712 0
M  V30 793 H 73.0128 -0.818449 1.64237 0
M  V30 794 H 71.3948 -3.42175 1.9933 0
M  V30 795 H 72.5688 -1.70627 4.28046 0
M  V30 796 H 70.8838 -1.6877 3.80665 0
M  V30 797 H 73.4808 -4.37197 3.07836 0
M  V30 798 H 73.8238 -3.90992 1.42937 0
M  V30 799 H 74.3568 -2.86005 2.76489 0
M  V30 800 H 71.0958 -3.15019 5.74842 0
M  V30 801 H 70.6158 -4.13352 4.34627 0
M  V30 802 H 72.2948 -4.17953 4.93887 0
M  V30 803 N 72.4269 -1.23603 -0.977757 0
M  V30 804 C 73.3769 -0.986664 -2.05545 0
M  V30 805 C 74.3609 0.0683009 -1.60755 0
M  V30 806 O 75.5529 -0.144162 -1.76412 0
M  V30 807 C 72.6819 -0.582623 -3.3832 0
M  V30 808 C 71.7679 -1.67313 -3.89701 0
M  V30 809 N 72.1589 -2.90394 -4.14132 0
M  V30 810 C 70.4569 -1.54832 -4.18262 0
M  V30 811 C 71.1579 -3.61017 -4.56116 0
M  V30 812 N 70.1339 -2.8854 -4.60701 0
M  V30 813 H 73.9359 -1.92139 -2.22396 0
M  V30 814 H 71.4499 -1.1358 -1.16074 0
M  V30 815 H 73.4469 -0.38524 -4.15116 0
M  V30 816 H 72.1069 0.34503 -3.22862 0
M  V30 817 H 73.1179 -3.26673 -4.01877 0
M  V30 818 H 69.7949 -0.687969 -4.11793 0
M  V30 819 H 71.1849 -4.66544 -4.83514 0
M  V30 820 N 73.905 1.17692 -1.04816 0
M  V30 821 C 75.182 1.83768 -0.669963 0
M  V30 822 C 75.562 1.93232 0.849986 0
M  V30 823 O 74.91 1.46397 1.75443 0
M  V30 824 C 75.12 3.21641 -1.35455 0
M  V30 825 C 76.468 3.97592 -1.49017 0
M  V30 826 O 77.492 3.31107 -1.31326 0
M  V30 827 O 76.351 5.16729 -1.77914 0
M  V30 828 H 73.445 0.792799 -0.235368 0
M  V30 829 H 75.991 1.25021 -1.14751 0
M  V30 830 H 74.763 3.097 -2.39168 0
M  V30 831 H 74.386 3.88052 -0.866107 0
M  V30 832 N 75.3831 0.828654 1.34056 0
M  V30 833 C 76.7941 0.477534 1.8049 0
M  V30 834 C 77.1451 -1.00258 1.6865 0
M  V30 835 O 76.2701 -1.78057 1.22982 0
M  V30 836 C 76.8651 0.860018 3.27703 0
M  V30 837 C 75.4241 0.561185 3.72193 0
M  V30 838 C 74.5711 1.07385 2.55663 0
M  V30 839 H 77.5221 1.0183 1.21722 0
M  V30 840 H 77.5431 0.166038 3.80138 0
M  V30 841 H 77.0551 1.93731 3.36288 0
M  V30 842 H 75.1561 -0.506465 3.69142 0
M  V30 843 H 75.2691 1.10926 4.66082 0
M  V30 844 H 73.6331 0.495149 2.49841 0
M  V30 845 H 74.4161 2.15771 2.67016 0
M  V30 846 N 76.8612 -1.46375 0.584142 0
M  V30 847 C 78.1092 -2.01978 0.0701287 0
M  V30 848 C 78.4302 -1.4579 -1.295 0
M  V30 849 O 77.7002 -0.64314 -1.85042 0
M  V30 850 H 76.2802 -0.746648 0.0229345 0
M  V30 851 H 78.9422 -1.79461 0.760245 0
M  V30 852 H 78.0382 -3.121 0.0022064 0
M  V30 853 N 78.3393 -0.321999 -1.54275 0
M  V30 854 C 79.7553 0.0306999 -1.5957 0
M  V30 855 C 79.9553 1.50614 -1.33857 0
M  V30 856 O 79.0113 2.2619 -1.12223 0
M  V30 857 C 80.3243 -0.386122 -2.98211 0
M  V30 858 C 81.8723 -0.336647 -3.11184 0
M  V30 859 C 82.3473 -0.728607 -4.52167 0
M  V30 860 N 83.8383 -0.681952 -4.58152 0
M  V30 861 C 84.5733 -0.957449 -5.6535 0
M  V30 862 N 84.0693 -1.3 -6.80494 0
M  V30 863 N 85.8623 -0.883113 -5.55119 0
M  V30 864 H 78.0133 -1.28332 -1.69247 0
M  V30 865 H 80.2763 -0.521716 -0.791528 0
M  V30 866 H 79.9823 -1.41404 -3.22022 0
M  V30 867 H 79.8563 0.249662 -3.76373 0
M  V30 868 H 82.2433 0.682058 -2.8711 0
M  V30 869 H 82.3243 -1.00734 -2.3513 0
M  V30 870 H 81.9683 -1.74522 -4.76974 0
M  V30 871 H 81.8983 -0.0356152 -5.26588 0
M  V30 872 H 84.3893 -0.428985 -3.75457 0
M  V30 873 H 84.7023 -1.49563 -7.58189 0
M  V30 874 H 83.0473 -1.33824 -6.81994 0
M  V30 875 H 86.2383 -0.615001 -4.64042 0
M  V30 876 H 86.4113 -1.10118 -6.38575 0
M  V30 877 N 79.8174 1.5752 -0.0501392 0
M  V30 878 C 81.0654 1.9227 0.622642 0
M  V30 879 C 81.3864 0.929083 1.71444 0
M  V30 880 O 80.6564 -0.0262186 1.95882 0
M  V30 881 H 79.2364 0.709739 0.232981 0
M  V30 882 H 81.8984 1.94628 -0.102898 0
M  V30 883 H 80.9944 2.93479 1.06191 0
M  V30 884 N 81.2955 -0.223234 1.56011 0
M  V30 885 C 82.2585 -1.26014 1.9145 0
M  V30 886 C 83.2585 -1.3989 0.792937 0
M  V30 887 O 84.4485 -1.38184 1.0607 0
M  V30 888 C 81.5805 -2.63422 2.16383 0
M  V30 889 H 82.7735 -0.95796 2.84189 0
M  V30 890 H 80.3265 -0.463576 1.49267 0
M  V30 891 H 81.0615 -2.98741 1.2619 0
M  V30 892 H 80.8465 -2.54728 2.98088 0
M  V30 893 H 82.3365 -3.38249 2.44903 0
M  V30 894 N 82.7736 -1.49793 -0.48987 0
M  V30 895 C 84.1846 -1.52914 -1.07118 0
M  V30 896 C 84.5356 -0.321738 -1.93544 0
M  V30 897 O 83.6606 0.567338 -2.08831 0
M  V30 898 C 84.2556 -2.771 -1.94938 0
M  V30 899 C 82.8146 -2.82963 -2.48212 0
M  V30 900 C 81.9616 -2.46972 -1.26096 0
M  V30 901 H 84.9126 -1.56329 -0.273289 0
M  V30 902 H 84.9336 -2.57892 -2.79771 0
M  V30 903 H 84.4456 -3.64959 -1.32009 0
M  V30 904 H 82.5466 -1.99411 -3.14748 0
M  V30 905 H 82.6596 -3.85406 -2.84603 0
M  V30 906 H 81.0236 -1.98994 -1.58976 0
M  V30 907 H 81.8066 -3.37118 -0.648581 0
M  V30 908 N 84.2517 0.741722 -1.39055 0
M  V30 909 C 85.1817 1.869 -1.39966 0
M  V30 910 C 86.1627 1.6804 -0.26392 0
M  V30 911 O 87.3477 1.88458 -0.468755 0
M  V30 912 C 84.4777 3.24572 -1.23574 0
M  V30 913 C 83.4317 3.58056 -2.34477 0
M  V30 914 C 82.7577 4.94593 -2.0318 0
M  V30 915 C 84.0577 3.61716 -3.76774 0
M  V30 916 H 85.7517 1.86395 -2.34302 0
M  V30 917 H 83.2977 0.895361 -1.1278 0
M  V30 918 H 85.2507 4.031 -1.22834 0
M  V30 919 H 83.9747 3.25587 -0.257045 0
M  V30 920 H 82.6337 2.81854 -2.34423 0
M  V30 921 H 82.2817 4.92181 -1.03765 0
M  V30 922 H 81.9817 5.17964 -2.77465 0
M  V30 923 H 83.5057 5.75486 -2.04079 0
M  V30 924 H 84.9197 4.30335 -3.78794 0
M  V30 925 H 83.3167 3.96603 -4.50362 0
M  V30 926 H 84.3867 2.61672 -4.08235 0
M  V30 927 N 85.7298 1.2412 0.971189 0
M  V30 928 C 86.6928 1.03156 2.04674 0
M  V30 929 C 87.6928 -0.00990322 1.60797 0
M  V30 930 O 88.8828 0.230729 1.72665 0
M  V30 931 C 86.0148 0.562765 3.36223 0
M  V30 932 H 87.2078 1.98614 2.24705 0
M  V30 933 H 84.7608 1.06293 1.14593 0
M  V30 934 H 85.4958 -0.395176 3.21883 0
M  V30 935 H 85.2808 1.31441 3.69413 0
M  V30 936 H 86.7708 0.437015 4.15307 0
M  V30 937 N 87.2079 -1.17134 1.05439 0
M  V30 938 C 88.1549 -2.21235 0.657539 0
M  V30 939 C 89.1249 -1.62551 -0.341543 0
M  V30 940 O 90.3099 -1.89379 -0.232393 0
M  V30 941 C 87.4499 -3.45076 0.0410575 0
M  V30 942 C 86.5629 -4.18042 1.08927 0
M  V30 943 C 85.6979 -5.29376 0.439848 0
M  V30 944 C 84.7369 -5.94132 1.4722 0
M  V30 945 N 83.8739 -6.96975 0.846756 0
M  V30 946 H 88.7139 -2.54534 1.54972 0
M  V30 947 H 86.2509 -1.25028 0.775006 0
M  V30 948 H 88.2089 -4.15862 -0.33383 0
M  V30 949 H 86.8389 -3.12353 -0.814568 0
M  V30 950 H 85.8909 -3.45945 1.58196 0
M  V30 951 H 87.2029 -4.62306 1.87282 0
M  V30 952 H 86.3569 -6.06699 0.0115125 0
M  V30 953 H 85.0959 -4.86251 -0.375656 0
M  V30 954 H 84.1009 -5.15538 1.91052 0
M  V30 955 H 85.3259 -6.39337 2.28965 0
M  V30 956 H 83.2719 -6.5598 0.0518075 0
M  V30 957 H 83.1889 -7.39565 1.5678 0
M  V30 958 H 84.4569 -7.78239 0.443277 0
M  V30 959 N 88.686 -0.835752 -1.33615 0
M  V30 960 C 89.932 -0.430596 -1.98176 0
M  V30 961 C 90.265 1.00684 -1.66061 0
M  V30 962 O 89.54 1.70339 -0.938877 0
M  V30 963 C 89.823 -0.648065 -3.5422 0
M  V30 964 C 89.676 -2.13255 -3.96033 0
M  V30 965 C 90.995 -0.0922113 -4.40003 0
M  V30 966 H 88.114 -0.157924 -0.719881 0
M  V30 967 H 90.756 -1.05069 -1.58305 0
M  V30 968 H 88.906 -0.120237 -3.88314 0
M  V30 969 H 90.578 -2.725 -3.72211 0
M  V30 970 H 88.821 -2.61823 -3.45878 0
M  V30 971 H 89.492 -2.23547 -5.04708 0
M  V30 972 H 91.968 -0.543343 -4.12537 0
M  V30 973 H 90.844 -0.274083 -5.48215 0
M  V30 974 H 91.105 1.00378 -4.30554 0
M  V30 975 N 90.1641 1.46063 -0.591896 0
M  V30 976 C 91.4101 2.02638 -0.0811191 0
M  V30 977 C 91.7431 1.4613 1.27905 0
M  V30 978 O 91.0181 0.629908 1.84017 0
M  V30 979 C 91.3011 3.60091 -0.0252436 0
M  V30 980 C 91.1541 4.26965 -1.41496 0
M  V30 981 C 92.4731 4.3496 0.670685 0
M  V30 982 H 89.5921 0.73635 -0.0309524 0
M  V30 983 H 92.2341 1.741 -0.760859 0
M  V30 984 H 90.3841 3.84535 0.553624 0
M  V30 985 H 92.0561 4.13756 -2.0397 0
M  V30 986 H 90.2991 3.85971 -1.98011 0
M  V30 987 H 90.9701 5.35781 -1.32825 0
M  V30 988 H 93.4461 4.15716 0.178825 0
M  V30 989 H 92.3221 5.44686 0.678837 0
M  V30 990 H 92.5831 4.06685 1.73379 0
M  V30 991 N 91.6422 0.330177 1.54103 0
M  V30 992 C 92.8892 -0.270405 2.00686 0
M  V30 993 C 93.2172 -1.51621 1.21825 0
M  V30 994 O 92.4722 -1.93536 0.29025 0
M  V30 995 C 92.7712 -0.643134 3.51566 0
M  V30 996 C 92.4372 0.504251 4.48072 0
M  V30 997 C 91.0992 0.819163 4.74176 0
M  V30 998 C 93.4512 1.27465 5.05373 0
M  V30 999 C 90.7792 1.90708 5.5484 0
M  V30 1000 C 93.1312 2.35271 5.87223 0
M  V30 1001 C 91.7952 2.67336 6.11627 0
M  V30 1002 H 91.0652 -0.0989482 0.734364 0
M  V30 1003 H 93.7122 0.455324 1.86008 0
M  V30 1004 H 92.0172 -1.44938 3.64006 0
M  V30 1005 H 93.7142 -1.11949 3.85056 0
M  V30 1006 H 90.3042 0.248733 4.27878 0
M  V30 1007 H 94.4882 1.04462 4.85182 0
M  V30 1008 H 89.7442 2.15991 5.71977 0
M  V30 1009 H 93.9182 2.95405 6.30641 0
M  V30 1010 H 91.5452 3.51763 6.73919 0
M  V30 1011 N 93.1203 -1.57491 0.0584922 0
M  V30 1012 C 94.5363 -1.56792 -0.298091 0
M  V30 1013 C 94.7363 -1.06679 -1.70944 0
M  V30 1014 O 93.7923 -0.726672 -2.41818 0
M  V30 1015 C 95.1053 -3.00461 -0.119879 0
M  V30 1016 C 96.6533 -3.1242 -0.190428 0
M  V30 1017 C 97.1283 -4.57982 -0.0406567 0
M  V30 1018 N 98.6193 -4.63099 -0.0966958 0
M  V30 1019 C 99.3543 -5.734 -0.00502943 0
M  V30 1020 N 98.8503 -6.9266 0.139402 0
M  V30 1021 N 100.643 -5.62067 -0.0611391 0
M  V30 1022 H 92.7943 -1.88386 0.98105 0
M  V30 1023 H 95.0573 -0.867865 0.381463 0
M  V30 1024 H 94.7633 -3.41187 0.85349 0
M  V30 1025 H 94.6373 -3.66843 -0.877833 0
M  V30 1026 H 97.0243 -2.71589 -1.15427 0
M  V30 1027 H 97.1053 -2.48702 0.598405 0
M  V30 1028 H 96.7493 -4.995 0.919897 0
M  V30 1029 H 96.6793 -5.19715 -0.848727 0
M  V30 1030 H 99.1703 -3.77331 -0.207277 0
M  V30 1031 H 99.4833 -7.72536 0.201855 0
M  V30 1032 H 97.8283 -6.94781 0.174586 0
M  V30 1033 H 101.019 -4.67782 -0.172583 0
M  V30 1034 H 101.192 -6.47999 0.0137562 0
M  V30 1035 N 94.5984 0.214957 -1.56127 0
M  V30 1036 C 95.8754 0.963093 -1.70247 0
M  V30 1037 C 96.2554 2.02166 -0.60764 0
M  V30 1038 O 95.6034 2.25244 0.384385 0
M  V30 1039 C 95.8134 1.56756 -3.11815 0
M  V30 1040 C 97.1614 2.0573 -3.7143 0
M  V30 1041 O 98.1854 1.66637 -3.14818 0
M  V30 1042 O 97.0444 2.77603 -4.70743 0
M  V30 1043 H 94.1384 0.450321 -0.693643 0
M  V30 1044 H 96.6844 0.206219 -1.68442 0
M  V30 1045 H 95.4564 0.803533 -3.82961 0
M  V30 1046 H 95.0794 2.3898 -3.17765 0
M  V30 1047 N 96.0765 1.50051 0.48192 0
M  V30 1048 C 97.4875 1.5348 1.06305 0
M  V30 1049 C 97.8385 0.331997 1.93371 0
M  V30 1050 O 96.9635 -0.556256 2.09129 0
M  V30 1051 C 97.5585 2.7813 1.93466 0
M  V30 1052 C 96.1175 2.84275 2.46707 0
M  V30 1053 C 95.2645 2.47637 1.24785 0
M  V30 1054 H 98.2155 1.56472 0.264995 0
M  V30 1055 H 98.2365 2.59372 2.78399 0
M  V30 1056 H 97.7485 3.65654 1.30072 0
M  V30 1057 H 95.8495 2.01077 3.13686 0
M  V30 1058 H 95.9625 3.8691 2.82555 0
M  V30 1059 H 94.3265 1.99835 1.57918 0
M  V30 1060 H 95.1095 3.37457 0.630694 0
M  V30 1061 N 97.5546 -0.734337 1.39446 0
M  V30 1062 C 98.7846 -1.52137 1.39778 0
M  V30 1063 C 99.1926 -1.89198 -0.00929312 0
M  V30 1064 O 98.5356 -1.54666 -0.991168 0
M  V30 1065 C 98.5976 -2.83762 2.20724 0
M  V30 1066 C 98.2616 -2.69131 3.69347 0
M  V30 1067 C 99.2586 -2.37635 4.62413 0
M  V30 1068 C 96.9436 -2.85982 4.1294 0
M  V30 1069 C 98.9376 -2.23172 5.97054 0
M  V30 1070 C 96.6246 -2.71137 5.47657 0
M  V30 1071 C 97.6226 -2.39777 6.39528 0
M  V30 1072 O 97.3106 -2.25026 7.71763 0
M  V30 1073 H 97.0426 -0.476717 0.479288 0
M  V30 1074 H 99.5966 -0.915012 1.83893 0
M  V30 1075 H 97.8266 -3.4666 1.71359 0
M  V30 1076 H 99.5156 -3.45383 2.13226 0
M  V30 1077 H 100.282 -2.24267 4.30034 0
M  V30 1078 H 96.1606 -3.09383 3.41765 0
M  V30 1079 H 99.7046 -1.98617 6.68728 0
M  V30 1080 H 95.6016 -2.84083 5.79626 0
M  V30 1081 H 96.3696 -2.40091 7.82495 0
M  V30 1082 N 99.0327 -1.24633 -0.964593 0
M  V30 1083 C 100.449 -1.01239 -1.2338 0
M  V30 1084 C 100.649 0.2769 -1.99588 0
M  V30 1085 O 99.7047 0.992241 -2.32187 0
M  V30 1086 C 101.018 -2.22937 -2.01791 0
M  V30 1087 C 102.566 -2.27594 -2.14872 0
M  V30 1088 C 103.041 -3.48921 -2.96678 0
M  V30 1089 N 104.532 -3.49257 -3.04259 0
M  V30 1090 C 105.267 -4.39795 -3.67924 0
M  V30 1091 N 104.763 -5.40591 -4.33281 0
M  V30 1092 N 106.556 -4.275 -3.64966 0
M  V30 1093 H 98.7067 -2.0748 -0.454502 0
M  V30 1094 H 100.97 -0.910647 -0.26349 0
M  V30 1095 H 100.676 -3.16587 -1.53184 0
M  V30 1096 H 100.55 -2.25306 -3.02518 0
M  V30 1097 H 102.937 -1.34473 -2.6268 0
M  V30 1098 H 103.018 -2.2925 -1.13482 0
M  V30 1099 H 102.662 -4.42359 -2.49562 0
M  V30 1100 H 102.592 -3.4451 -3.98272 0
M  V30 1101 H 105.083 -2.76337 -2.57771 0
M  V30 1102 H 105.396 -6.05904 -4.79687 0
M  V30 1103 H 103.741 -5.44475 -4.3194 0
M  V30 1104 H 106.932 -3.47987 -3.13086 0
M  V30 1105 H 107.105 -4.98258 -4.14298 0
M  V30 1106 N 100.511 1.16574 -1.06058 0
M  V30 1107 C 101.758 1.87047 -0.775873 0
M  V30 1108 C 102.086 1.81562 0.697534 0
M  V30 1109 O 101.341 1.22445 1.52662 0
M  V30 1110 C 101.64 3.36195 -1.21275 0
M  V30 1111 C 101.306 3.6188 -2.68986 0
M  V30 1112 C 99.9678 3.68599 -3.09335 0
M  V30 1113 C 102.32 3.72648 -3.64394 0
M  V30 1114 C 99.6478 3.83584 -4.43937 0
M  V30 1115 C 102 3.89154 -4.98741 0
M  V30 1116 C 100.664 3.94114 -5.3873 0
M  V30 1117 H 99.9338 0.684452 -0.283912 0
M  V30 1118 H 102.581 1.37853 -1.32925 0
M  V30 1119 H 100.886 3.87505 -0.578528 0
M  V30 1120 H 102.583 3.89103 -0.969542 0
M  V30 1121 H 99.1728 3.57281 -2.36744 0
M  V30 1122 H 103.357 3.66769 -3.34356 0
M  V30 1123 H 98.6128 3.85677 -4.74409 0
M  V30 1124 H 102.787 3.96427 -5.72554 0
M  V30 1125 H 100.414 4.05478 -6.43033 0
M  V30 1126 N 101.989 0.842826 1.3317 0
M  V30 1127 C 102.936 0.276885 2.29133 0
M  V30 1128 C 103.906 -0.609527 1.54512 0
M  V30 1129 O 105.091 -0.546955 1.82792 0
M  V30 1130 C 102.231 -0.538707 3.40869 0
M  V30 1131 C 101.344 0.372169 4.30394 0
M  V30 1132 C 100.479 -0.454908 5.29249 0
M  V30 1133 C 99.5179 0.45411 6.10413 0
M  V30 1134 N 98.6549 -0.335075 7.013 0
M  V30 1135 H 103.495 1.10052 2.76934 0
M  V30 1136 H 101.032 0.554161 1.36262 0
M  V30 1137 H 102.99 -1.02709 4.0436 0
M  V30 1138 H 101.62 -1.32727 2.9425 0
M  V30 1139 H 100.672 0.97888 3.6759 0
M  V30 1140 H 101.984 1.0703 4.87182 0
M  V30 1141 H 101.138 -1.00695 5.98285 0
M  V30 1142 H 99.8769 -1.18646 4.73048 0
M  V30 1143 H 98.8819 1.01813 5.40291 0
M  V30 1144 H 100.107 1.18409 6.68697 0
M  V30 1145 H 98.0529 -1.04994 6.47543 0
M  V30 1146 H 97.9699 0.304262 7.55387 0
M  V30 1147 H 99.2379 -0.869224 7.74638 0
M  V30 1148 N 103.467 -1.45747 0.599634 0
M  V30 1149 C 104.414 -2.30467 -0.123849 0
M  V30 1150 C 105.384 -1.41632 -0.86774 0
M  V30 1151 O 106.569 -1.70568 -0.855056 0
M  V30 1152 C 103.709 -3.26402 -1.12051 0
M  V30 1153 C 102.822 -4.3034 -0.37832 0
M  V30 1154 C 101.957 -5.13389 -1.364 0
M  V30 1155 C 100.996 -6.09061 -0.609171 0
M  V30 1156 N 100.133 -6.84918 -1.54374 0
M  V30 1157 H 104.973 -2.91802 0.604627 0
M  V30 1158 H 102.51 -1.43797 0.309972 0
M  V30 1159 H 104.468 -3.80482 -1.7114 0
M  V30 1160 H 103.098 -2.66839 -1.8165 0
M  V30 1161 H 102.15 -3.78984 0.327929 0
M  V30 1162 H 103.462 -4.98354 0.210997 0
M  V30 1163 H 102.616 -5.7183 -2.02719 0
M  V30 1164 H 101.355 -4.45376 -1.98725 0
M  V30 1165 H 100.36 -5.49758 0.0676979 0
M  V30 1166 H 101.585 -6.79099 0.00891991 0
M  V30 1167 H 99.531 -6.19601 -2.15478 0
M  V30 1168 H 99.448 -7.49254 -1.00766 0
M  V30 1169 H 100.716 -7.47906 -2.19676 0
M  V30 1170 N 104.945 -0.338344 -1.53925 0
M  V30 1171 C 106.361 0.0137736 -1.59594 0
M  V30 1172 C 106.561 1.49186 -1.35447 0
M  V30 1173 O 105.617 2.24987 -1.14616 0
M  V30 1174 C 106.93 -0.41773 -2.97784 0
M  V30 1175 C 108.478 -0.369633 -3.1081 0
M  V30 1176 C 108.953 -0.776524 -4.51369 0
M  V30 1177 N 110.444 -0.730506 -4.57403 0
M  V30 1178 C 111.179 -1.01736 -5.64303 0
M  V30 1179 N 110.675 -1.3721 -6.79077 0
M  V30 1180 N 112.468 -0.941942 -5.54151 0
M  V30 1181 H 104.619 -1.3012 -1.67876 0
M  V30 1182 H 106.882 -0.530082 -0.78595 0
M  V30 1183 H 106.588 -1.44811 -3.20504 0
M  V30 1184 H 106.462 0.209729 -3.76616 0
M  V30 1185 H 108.849 0.651568 -2.87817 0
M  V30 1186 H 108.93 -1.03223 -2.34049 0
M  V30 1187 H 108.574 -1.79571 -4.75096 0
M  V30 1188 H 108.504 -0.0914649 -5.26521 0
M  V30 1189 H 110.995 -0.468783 -3.74981 0
M  V30 1190 H 111.308 -1.57597 -7.5656 0
M  V30 1191 H 109.653 -1.4105 -6.80536 0
M  V30 1192 H 112.844 -0.664184 -4.63364 0
M  V30 1193 H 113.017 -1.16884 -6.37371 0
M  V30 1194 N 106.423 1.57458 -0.0668435 0
M  V30 1195 C 107.651 1.97624 0.612565 0
M  V30 1196 C 108.066 0.94502 1.63447 0
M  V30 1197 O 107.423 -0.0689276 1.8237 0
M  V30 1198 C 107.474 3.37869 1.28555 0
M  V30 1199 O 107.195 4.3704 0.304557 0
M  V30 1200 C 108.696 3.92882 2.05325 0
M  V30 1201 H 105.916 0.650045 0.166381 0
M  V30 1202 H 108.46 2.04035 -0.137782 0
M  V30 1203 H 106.615 3.3256 1.98702 0
M  V30 1204 H 107.029 5.18565 0.786779 0
M  V30 1205 H 108.503 4.93247 2.47812 0
M  V30 1206 H 108.98 3.29156 2.9078 0
M  V30 1207 H 109.586 4.01577 1.40056 0
M  V30 1208 N 107.901 -0.206675 1.56239 0
M  V30 1209 C 108.811 -1.27686 1.96808 0
M  V30 1210 C 109.827 -1.50455 0.874035 0
M  V30 1211 O 111.003 -1.63295 1.17884 0
M  V30 1212 C 108.068 -2.60358 2.28942 0
M  V30 1213 C 107.129 -2.45762 3.51994 0
M  V30 1214 C 106.362 -3.72108 3.82585 0
M  V30 1215 O 106.585 -4.75776 3.14631 0
M  V30 1216 O 105.519 -3.6833 4.76043 0
M  V30 1217 H 109.345 -0.962593 2.88041 0
M  V30 1218 H 106.93 -0.410746 1.43643 0
M  V30 1219 H 108.812 -3.38687 2.50737 0
M  V30 1220 H 107.487 -2.91435 1.4088 0
M  V30 1221 H 106.394 -1.65584 3.35459 0
M  V30 1222 H 107.727 -2.19621 4.40486 0
M  V30 1223 N 109.379 -1.50304 -0.473955 0
M  V30 1224 C 110.309 -1.71886 -1.58042 0
M  V30 1225 C 111.29 -0.567799 -1.60344 0
M  V30 1226 O 112.475 -0.806623 -1.76656 0
M  V30 1227 C 109.605 -1.81036 -2.96384 0
M  V30 1228 C 108.559 -2.962 -3.08949 0
M  V30 1229 C 107.885 -2.9049 -4.48909 0
M  V30 1230 C 109.185 -4.36752 -2.86434 0
M  V30 1231 H 110.879 -2.64527 -1.40234 0
M  V30 1232 H 108.425 -1.27295 -0.673201 0
M  V30 1233 H 110.378 -1.94719 -3.73714 0
M  V30 1234 H 109.102 -0.850147 -3.15341 0
M  V30 1235 H 107.761 -2.82164 -2.3405 0
M  V30 1236 H 107.409 -1.92321 -4.64781 0
M  V30 1237 H 107.109 -3.67802 -4.58253 0
M  V30 1238 H 108.633 -3.06218 -5.28264 0
M  V30 1239 H 110.047 -4.5133 -3.53517 0
M  V30 1240 H 108.444 -5.15493 -3.07225 0
M  V30 1241 H 109.514 -4.49321 -1.82316 0
M  V30 1242 N 110.857 0.726932 -1.39834 0
M  V30 1243 C 112.104 1.48664 -1.37496 0
M  V30 1244 C 112.432 1.94482 0.0264678 0
M  V30 1245 O 111.687 1.67692 1.00886 0
M  V30 1246 C 111.986 2.73495 -2.30077 0
M  V30 1247 C 111.652 2.46502 -3.77555 0
M  V30 1248 C 110.314 2.3885 -4.17737 0
M  V30 1249 C 112.666 2.23604 -4.70798 0
M  V30 1250 C 109.994 2.06352 -5.49214 0
M  V30 1251 C 112.346 1.92622 -6.02561 0
M  V30 1252 C 111.01 1.83444 -6.41798 0
M  V30 1253 H 110.28 0.544001 -0.503135 0
M  V30 1254 H 112.927 0.833657 -1.72402 0
M  V30 1255 H 111.232 3.43575 -1.88317 0
M  V30 1256 H 112.929 3.31549 -2.25558 0
M  V30 1257 H 109.519 2.5334 -3.45712 0
M  V30 1258 H 113.703 2.28479 -4.40581 0
M  V30 1259 H 108.959 1.97776 -5.78528 0
M  V30 1260 H 113.133 1.73914 -6.74334 0
M  V30 1261 H 110.76 1.58029 -7.43593 0
M  V30 1262 N 112.336 1.25143 0.95797 0
M  V30 1263 C 113.585 1.0909 1.69654 0
M  V30 1264 C 113.898 -0.368548 1.92097 0
M  V30 1265 O 115.104 -0.649455 2.63618 0
M  V30 1266 C 113.56 1.90395 3.05414 0
M  V30 1267 C 113.168 3.4081 2.90779 0
M  V30 1268 C 114.912 1.82901 3.83076 0
M  V30 1269 C 112.819 4.14423 4.21909 0
M  V30 1270 H 111.749 0.404625 0.636235 0
M  V30 1271 H 114.4 1.4931 1.06672 0
M  V30 1272 H 112.782 1.42996 3.69281 0
M  V30 1273 H 113.956 3.95859 2.35865 0
M  V30 1274 H 112.271 3.49361 2.26575 0
M  V30 1275 H 114.868 2.35196 4.80195 0
M  V30 1276 H 115.211 0.796224 4.08615 0
M  V30 1277 H 115.744 2.28033 3.25954 0
M  V30 1278 H 112.483 5.18102 4.01561 0
M  V30 1279 H 112.003 3.64159 4.76601 0
M  V30 1280 H 113.682 4.21956 4.90471 0
M  V30 1281 N 113.814 -1.1601 1.06675 0
M  V30 1282 C 114.777 -2.18724 0.685001 0
M  V30 1283 C 115.777 -1.58496 -0.271246 0
M  V30 1284 O 116.967 -1.74119 -0.0531156 0
M  V30 1285 C 114.099 -3.40899 0.00853648 0
M  V30 1286 H 115.292 -2.54011 1.59431 0
M  V30 1287 H 112.845 -1.30352 0.862441 0
M  V30 1288 H 113.58 -3.11173 -0.913337 0
M  V30 1289 H 113.365 -3.8587 0.696204 0
M  V30 1290 H 114.855 -4.16886 -0.24414 0
M  V30 1291 N 115.292 -0.849877 -1.32721 0
M  V30 1292 C 116.255 -0.296122 -2.27279 0
M  V30 1293 C 117.255 0.541458 -1.5141 0
M  V30 1294 O 118.445 0.353658 -1.70572 0
M  V30 1295 C 115.577 0.581579 -3.35902 0
M  V30 1296 H 116.77 -1.13064 -2.77771 0
M  V30 1297 H 114.323 -0.62383 -1.43311 0
M  V30 1298 H 115.058 1.43809 -2.9067 0
M  V30 1299 H 114.843 -0.0178814 -3.92096 0
M  V30 1300 H 116.333 0.961951 -4.0637 0
M  V30 1301 N 116.77 1.45427 -0.607355 0
M  V30 1302 C 117.68 2.34325 0.113463 0
M  V30 1303 C 118.696 1.51226 0.860617 0
M  V30 1304 O 119.872 1.84029 0.818255 0
M  V30 1305 C 116.937 3.28839 1.09844 0
M  V30 1306 C 115.998 4.27844 0.353271 0
M  V30 1307 C 115.231 5.17842 1.29133 0
M  V30 1308 O 115.454 5.11264 2.52913 0
M  V30 1309 O 114.388 5.96713 0.788523 0
M  V30 1310 H 118.214 2.97364 -0.617094 0
M  V30 1311 H 115.799 1.44807 -0.367619 0
M  V30 1312 H 117.681 3.8708 1.66575 0
M  V30 1313 H 116.356 2.68365 1.81003 0
M  V30 1314 H 115.263 3.7322 -0.256494 0
M  V30 1315 H 116.596 4.91173 -0.317822 0
M  V30 1316 N 118.248 0.346503 1.53744 0
M  V30 1317 C 119.496 -0.248612 2.00565 0
M  V30 1318 C 119.817 -1.5083 1.23593 0
M  V30 1319 O 119.087 -1.92858 0.343912 0
M  V30 1320 H 117.667 -0.0948564 0.740953 0
M  V30 1321 H 120.329 0.468341 1.89189 0
M  V30 1322 H 119.425 -0.488994 3.08245 0
M  V30 1323 N 119.726 -1.57421 0.075193 0
M  V30 1324 C 120.975 -1.92794 -0.592731 0
M  V30 1325 C 121.288 -0.957478 -1.70563 0
M  V30 1326 O 122.494 -1.20417 -2.43335 0
M  V30 1327 C 120.95 -3.42495 -1.10569 0
M  V30 1328 C 120.558 -4.47994 -0.0236121 0
M  V30 1329 C 122.302 -3.86864 -1.74748 0
M  V30 1330 C 120.209 -5.88829 -0.550803 0
M  V30 1331 H 119.139 -0.719591 -0.225177 0
M  V30 1332 H 121.79 -1.82902 0.147978 0
M  V30 1333 H 120.172 -3.47471 -1.89947 0
M  V30 1334 H 121.346 -4.54637 0.751099 0
M  V30 1335 H 119.661 -4.13113 0.522159 0
M  V30 1336 H 122.258 -4.8947 -2.15229 0
M  V30 1337 H 122.601 -3.24417 -2.60882 0
M  V30 1338 H 123.134 -3.84504 -1.01986 0
M  V30 1339 H 119.873 -6.54929 0.273457 0
M  V30 1340 H 119.393 -5.85698 -1.29296 0
M  V30 1341 H 121.072 -6.38811 -1.02613 0
M  V30 1342 N 121.204 0.198386 -1.56346 0
M  V30 1343 C 122.154 1.2499 -1.90687 0
M  V30 1344 C 123.138 1.41158 -0.772217 0
M  V30 1345 O 124.33 1.43584 -1.03502 0
M  V30 1346 C 121.459 2.59542 -2.24706 0
M  V30 1347 C 120.545 2.47181 -3.44619 0
M  V30 1348 N 120.936 2.04495 -4.62618 0
M  V30 1349 C 119.234 2.78082 -3.48692 0
M  V30 1350 C 119.935 2.03945 -5.44776 0
M  V30 1351 N 118.911 2.45323 -4.85095 0
M  V30 1352 H 122.713 0.911149 -2.7942 0
M  V30 1353 H 120.227 0.40684 -1.57221 0
M  V30 1354 H 122.224 3.3549 -2.47491 0
M  V30 1355 H 120.884 2.94244 -1.37298 0
M  V30 1356 H 121.895 1.75256 -4.87345 0
M  V30 1357 H 118.572 3.17002 -2.71691 0
M  V30 1358 H 119.962 1.72872 -6.4928 0
M  V30 1359 N 122.682 1.50554 0.465978 0
M  V30 1360 C 123.91 1.65563 1.24083 0
M  V30 1361 C 124.325 0.341051 1.85694 0
M  V30 1362 O 123.682 -0.677543 1.69457 0
M  V30 1363 C 123.733 2.75051 2.34583 0
M  V30 1364 O 123.454 4.01413 1.75497 0
M  V30 1365 C 124.955 3.01078 3.25372 0
M  V30 1366 H 122.175 0.55638 0.375077 0
M  V30 1367 H 124.719 1.96807 0.555624 0
M  V30 1368 H 122.874 2.46486 2.9887 0
M  V30 1369 H 123.288 4.62002 2.48303 0
M  V30 1370 H 124.762 3.81339 3.99105 0
M  V30 1371 H 125.239 2.12349 3.84453 0
M  V30 1372 H 125.845 3.31194 2.66816 0
M  V30 1373 N 124.16 -0.719506 1.40217 0
M  V30 1374 C 125.408 -1.47641 1.3801 0
M  V30 1375 C 125.729 -1.94992 -0.018145 0
M  V30 1376 O 124.999 -1.70073 -0.972207 0
M  V30 1377 H 123.579 -0.547744 0.507923 0
M  V30 1378 H 126.241 -0.853187 1.75233 0
M  V30 1379 H 125.337 -2.35112 2.05253 0
M  V30 1380 N 125.638 -1.25649 -0.95132 0
M  V30 1381 C 126.57 -1.02112 -2.05197 0
M  V30 1382 C 127.583 0.0150571 -1.62793 0
M  V30 1383 O 128.772 -0.223874 -1.77091 0
M  V30 1384 C 125.872 -0.522361 -3.3485 0
M  V30 1385 C 125.045 -1.62546 -4.06076 0
M  V30 1386 C 124.104 -1.12649 -5.14001 0
M  V30 1387 O 123.13 -1.82156 -5.39266 0
M  V30 1388 N 124.332 0.03047 -5.80492 0
M  V30 1389 H 127.097 -1.96885 -2.25957 0
M  V30 1390 H 124.658 -1.16899 -1.1201 0
M  V30 1391 H 126.65 -0.172961 -4.0433 0
M  V30 1392 H 125.22 0.33151 -3.10837 0
M  V30 1393 H 124.44 -2.14628 -3.30649 0
M  V30 1394 H 125.728 -2.36644 -4.50419 0
M  V30 1395 H 125.126 0.611169 -5.62389 0
M  V30 1396 H 123.683 0.320875 -6.5101 0
M  V30 1397 N 127.117 1.15442 -1.07289 0
M  V30 1398 C 128.364 1.86213 -0.795668 0
M  V30 1399 C 128.692 1.82291 0.678238 0
M  V30 1400 O 127.947 1.24057 1.51355 0
M  V30 1401 C 128.246 3.3489 -1.24834 0
M  V30 1402 C 127.912 3.59007 -2.72809 0
M  V30 1403 C 126.574 3.65298 -3.13227 0
M  V30 1404 C 128.926 3.68762 -3.68326 0
M  V30 1405 C 126.254 3.78854 -4.4798 0
M  V30 1406 C 128.606 3.83842 -5.0284 0
M  V30 1407 C 127.27 3.88378 -5.4288 0
M  V30 1408 H 126.54 0.681403 -0.291155 0
M  V30 1409 H 129.187 1.36435 -1.34379 0
M  V30 1410 H 127.492 3.8687 -0.619595 0
M  V30 1411 H 129.189 3.88052 -1.01076 0
M  V30 1412 H 125.779 3.5475 -2.40521 0
M  V30 1413 H 129.963 3.63202 -3.38227 0
M  V30 1414 H 125.219 3.80623 -4.78472 0
M  V30 1415 H 129.393 3.90332 -5.76727 0
M  V30 1416 H 127.02 3.98635 -6.47298 0
M  V30 1417 N 128.595 0.856903 1.32268 0
M  V30 1418 C 129.841 0.462069 1.97466 0
M  V30 1419 C 130.174 -0.980298 1.67642 0
M  V30 1420 O 129.449 -1.68824 0.965858 0
M  V30 1421 C 129.732 0.704336 3.53145 0
M  V30 1422 C 129.585 2.19529 3.9259 0
M  V30 1423 C 130.904 0.1622 4.39801 0
M  V30 1424 H 128.023 0.169357 0.717278 0
M  V30 1425 H 130.665 1.07574 1.56614 0
M  V30 1426 H 128.815 0.181999 3.88073 0
M  V30 1427 H 130.487 2.78387 3.67829 0
M  V30 1428 H 128.73 2.67292 3.41668 0
M  V30 1429 H 129.401 2.31549 5.01088 0
M  V30 1430 H 131.877 0.608905 4.11621 0
M  V30 1431 H 130.753 0.361265 5.4771 0
M  V30 1432 H 131.014 -0.935158 4.32096 0
M  V30 1433 N 130.073 -1.45103 0.615059 0
M  V30 1434 C 131.303 -2.06254 0.119596 0
M  V30 1435 C 131.711 -1.4591 -1.20445 0
M  V30 1436 O 131.054 -0.570384 -1.7462 0
M  V30 1437 C 131.116 -3.59396 -0.0865591 0
M  V30 1438 C 130.78 -4.42116 1.15683 0
M  V30 1439 C 131.777 -4.7662 2.07676 0
M  V30 1440 C 129.462 -4.82749 1.38775 0
M  V30 1441 C 131.456 -5.50622 3.21082 0
M  V30 1442 C 129.143 -5.56504 2.52481 0
M  V30 1443 C 130.141 -5.90358 3.43463 0
M  V30 1444 O 129.829 -6.62615 4.55189 0
M  V30 1445 H 129.561 -0.672423 0.0694512 0
M  V30 1446 H 132.115 -1.87219 0.844885 0
M  V30 1447 H 130.345 -3.76859 -0.866823 0
M  V30 1448 H 132.034 -4.02365 -0.534555 0
M  V30 1449 H 132.8 -4.4578 1.91063 0
M  V30 1450 H 128.679 -4.55829 0.688545 0
M  V30 1451 H 132.223 -5.76965 3.92119 0
M  V30 1452 H 128.12 -5.86759 2.69043 0
M  V30 1453 H 128.888 -6.81071 4.53966 0
M  V30 1454 N 131.551 -0.354651 -1.53558 0
M  V30 1455 C 132.791 0.238651 -2.03002 0
M  V30 1456 C 133.155 1.46878 -1.23656 0
M  V30 1457 O 134.356 2.13699 -1.63053 0
M  V30 1458 C 132.627 0.534175 -3.53386 0
M  V30 1459 S 134.186 1.10271 -4.24719 0
M  V30 1460 H 131.004 0.0702908 -0.707517 0
M  V30 1461 H 133.606 -0.494987 -1.8913 0
M  V30 1462 H 132.31 -0.368765 -4.0874 0
M  V30 1463 H 131.841 1.29718 -3.71398 0
M  V30 1464 H 133.856 2.38772 -4.34974 0
M  V30 1465 N 133.029 1.57378 -0.0835403 0
M  V30 1466 C 134.277 1.93547 0.581718 0
M  V30 1467 C 134.598 0.96524 1.69435 0
M  V30 1468 O 133.868 0.0153369 1.95894 0
M  V30 1469 H 132.448 0.714521 0.217874 0
M  V30 1470 H 135.11 1.94366 -0.144158 0
M  V30 1471 H 134.206 2.95665 0.999423 0
M  V30 1472 N 134.507 -0.190092 1.56449 0
M  V30 1473 C 135.454 -1.23557 1.94942 0
M  V30 1474 C 136.424 -1.44972 0.810696 0
M  V30 1475 O 137.609 -1.58023 1.06927 0
M  V30 1476 C 134.749 -2.57416 2.2985 0
M  V30 1477 C 133.862 -2.43537 3.5681 0
M  V30 1478 C 132.997 -3.70134 3.81017 0
M  V30 1479 C 132.036 -3.51109 5.01387 0
M  V30 1480 N 131.173 -4.6973 5.21822 0
M  V30 1481 H 136.013 -0.900304 2.84075 0
M  V30 1482 H 133.55 -0.43318 1.40577 0
M  V30 1483 H 135.508 -3.35409 2.48106 0
M  V30 1484 H 134.138 -2.88975 1.43852 0
M  V30 1485 H 133.19 -1.56816 3.46573 0
M  V30 1486 H 134.502 -2.25415 4.4496 0
M  V30 1487 H 133.656 -4.56566 3.9954 0
M  V30 1488 H 132.395 -3.91215 2.91207 0
M  V30 1489 H 131.4 -2.63063 4.82782 0
M  V30 1490 H 132.625 -3.31468 5.9271 0
M  V30 1491 H 130.571 -4.91065 4.34961 0
M  V30 1492 H 130.488 -4.54452 6.0416 0
M  V30 1493 H 131.756 -5.57499 5.44808 0
M  V30 1494 N 135.985 -1.50799 -0.457987 0
M  V30 1495 C 136.932 -1.70617 -1.5543 0
M  V30 1496 C 137.902 -0.547562 -1.56815 0
M  V30 1497 O 139.087 -0.779647 -1.74144 0
M  V30 1498 C 136.227 -1.81831 -2.93311 0
M  V30 1499 C 135.34 -3.09278 -3.01615 0
M  V30 1500 C 134.475 -3.11209 -4.30491 0
M  V30 1501 C 133.514 -4.33055 -4.32585 0
M  V30 1502 N 132.651 -4.32652 -5.52952 0
M  V30 1503 H 137.491 -2.64207 -1.37836 0
M  V30 1504 H 135.028 -1.30959 -0.669937 0
M  V30 1505 H 136.986 -1.86314 -3.73287 0
M  V30 1506 H 135.616 -0.916685 -3.0951 0
M  V30 1507 H 134.668 -3.14203 -2.1443 0
M  V30 1508 H 135.98 -3.99233 -2.99022 0
M  V30 1509 H 135.134 -3.14494 -5.18824 0
M  V30 1510 H 133.873 -2.19106 -4.35711 0
M  V30 1511 H 132.878 -4.29969 -3.42647 0
M  V30 1512 H 134.103 -5.264 -4.29046 0
M  V30 1513 H 132.049 -3.43409 -5.58933 0
M  V30 1514 H 131.966 -5.16392 -5.52155 0
M  V30 1515 H 133.234 -4.40101 -6.43375 0
M  V30 1516 N 137.463 0.71206 -1.40597 0
M  V30 1517 C 138.426 1.80785 -1.40888 0
M  V30 1518 C 139.426 1.57937 -0.302103 0
M  V30 1519 O 140.616 1.64913 -0.561182 0
M  V30 1520 C 137.748 3.18927 -1.20409 0
M  V30 1521 H 138.941 1.81924 -2.38419 0
M  V30 1522 H 136.494 0.91805 -1.26497 0
M  V30 1523 H 137.229 3.23436 -0.236522 0
M  V30 1524 H 137.014 3.36911 -2.00582 0
M  V30 1525 H 138.504 3.98949 -1.23408 0
M  V30 1526 N 138.941 1.26152 0.944643 0
M  V30 1527 C 139.873 1.03199 2.04652 0
M  V30 1528 C 140.886 -0.00642356 1.62799 0
M  V30 1529 O 142.075 0.233263 1.76969 0
M  V30 1530 C 139.175 0.540111 3.34568 0
M  V30 1531 C 138.348 1.64697 4.05208 0
M  V30 1532 C 137.407 1.15374 5.13396 0
M  V30 1533 O 136.433 1.85013 5.38293 0
M  V30 1534 N 137.635 0.00031529 5.805 0
M  V30 1535 H 140.4 1.9808 2.2491 0
M  V30 1536 H 137.961 1.17491 1.11389 0
M  V30 1537 H 139.953 0.194401 4.04233 0
M  V30 1538 H 138.523 -0.315021 3.11009 0
M  V30 1539 H 137.743 2.16379 3.29506 0
M  V30 1540 H 139.031 2.3903 4.49157 0
M  V30 1541 H 138.429 -0.581336 5.62705 0
M  V30 1542 H 136.986 -0.286346 6.51171 0
M  V30 1543 N 140.419 -1.14872 1.07899 0
M  V30 1544 C 141.349 -2.2193 0.725887 0
M  V30 1545 C 142.33 -1.67622 -0.28927 0
M  V30 1546 O 143.515 -1.93533 -0.160787 0
M  V30 1547 C 140.645 -3.47061 0.128856 0
M  V30 1548 C 139.599 -4.14363 1.07178 0
M  V30 1549 C 138.925 -5.33636 0.337229 0
M  V30 1550 C 140.225 -4.63492 2.40775 0
M  V30 1551 H 141.919 -2.51724 1.62097 0
M  V30 1552 H 139.465 -1.20991 0.780838 0
M  V30 1553 H 141.418 -4.21199 -0.130147 0
M  V30 1554 H 140.142 -3.16617 -0.80134 0
M  V30 1555 H 138.801 -3.42173 1.3158 0
M  V30 1556 H 138.449 -4.99449 -0.596606 0
M  V30 1557 H 138.149 -5.79609 0.965788 0
M  V30 1558 H 139.673 -6.10539 0.0861567 0
M  V30 1559 H 141.087 -5.2913 2.20669 0
M  V30 1560 H 139.484 -5.20148 2.99276 0
M  V30 1561 H 140.554 -3.78834 3.02676 0
M  V30 1562 N 141.898 -0.863906 -1.31812 0
M  V30 1563 C 142.846 -0.30422 -2.30602 0
M  V30 1564 C 143.84 0.577419 -1.59255 0
M  V30 1565 O 145.046 0.464194 -1.73912 0
M  V30 1566 H 141.421 -0.0796877 -0.747766 0
M  V30 1567 H 143.392 -1.15148 -2.75288 0
M  V30 1568 C 142.141 0.484617 -3.44306 0
M  V30 1569 H 141.464 -0.18451 -3.99374 0
M  V30 1570 H 142.904 0.841664 -4.15562 0
M  V30 1571 C 141.363 1.6735 -2.92396 0
M  V30 1572 O 141.893 2.77273 -2.90659 0
M  V30 1573 N 140.099 1.50362 -2.48676 0
M  V30 1574 H 139.646 0.609402 -2.50288 0
M  V30 1575 H 139.604 2.30051 -2.14299 0
M  V30 1576 N 143.376 1.44774 -0.622745 0
M  V30 1577 C 144.625 2.01334 -0.121397 0
M  V30 1578 C 144.938 1.49505 1.26125 0
M  V30 1579 O 146.144 1.98139 1.85616 0
M  V30 1580 C 144.6 3.59516 -0.166298 0
M  V30 1581 C 144.208 4.20342 -1.54974 0
M  V30 1582 C 145.952 4.23582 0.279021 0
M  V30 1583 C 143.859 5.70721 -1.55021 0
M  V30 1584 H 142.789 0.752851 -0.0416172 0
M  V30 1585 H 145.44 1.66083 -0.780309 0
M  V30 1586 H 143.822 3.92027 0.559557 0
M  V30 1587 H 144.996 3.99381 -2.29851 0
M  V30 1588 H 143.311 3.68529 -1.93843 0
M  V30 1589 H 145.908 5.33868 0.298083 0
M  V30 1590 H 146.251 3.95327 1.30471 0
M  V30 1591 H 146.784 3.95843 -0.394063 0
M  V30 1592 H 143.523 6.03698 -2.55399 0
M  V30 1593 H 143.043 5.93829 -0.844245 0
M  V30 1594 H 144.722 6.34203 -1.28047 0
M  V30 1595 N 144.854 0.36279 1.53368 0
M  V30 1596 C 146.102 -0.227326 2.00817 0
M  V30 1597 C 146.423 -1.49511 1.25186 0
M  V30 1598 O 145.693 -1.92482 0.364348 0
M  V30 1599 H 144.273 -0.0869923 0.741917 0
M  V30 1600 H 146.935 0.488381 1.88682 0
M  V30 1601 H 146.031 -0.456273 3.08747 0
M  V30 1602 N 146.332 -1.57332 0.0918853 0
M  V30 1603 C 147.28 -2.15075 -0.885747 0
M  V30 1604 C 148.274 -1.09277 -1.29441 0
M  V30 1605 O 149.48 -1.27627 -1.26931 0
M  V30 1606 H 145.855 -0.687966 -0.303656 0
M  V30 1607 H 147.826 -2.96047 -0.373995 0
M  V30 1608 C 146.575 -2.74325 -2.13638 0
M  V30 1609 H 145.898 -3.55418 -1.8308 0
M  V30 1610 H 147.338 -3.183 -2.80109 0
M  V30 1611 C 145.797 -1.70062 -2.90827 0
M  V30 1612 O 146.327 -1.13763 -3.85254 0
M  V30 1613 N 144.533 -1.40628 -2.54307 0
M  V30 1614 H 144.08 -1.866 -1.7759 0
M  V30 1615 H 144.038 -0.711043 -3.06254 0
M  V30 1616 N 147.81 0.181792 -1.56548 0
M  V30 1617 C 149.056 0.901431 -1.81665 0
M  V30 1618 C 149.389 1.82347 -0.668075 0
M  V30 1619 O 148.664 1.91669 0.330615 0
M  V30 1620 C 148.947 1.70618 -3.17115 0
M  V30 1621 C 148.8 0.807964 -4.42484 0
M  V30 1622 C 150.119 2.67605 -3.49393 0
M  V30 1623 H 147.238 0.32627 -0.660846 0
M  V30 1624 H 149.88 0.168134 -1.89255 0
M  V30 1625 H 148.03 2.33133 -3.10775 0
M  V30 1626 H 149.702 0.19649 -4.60881 0
M  V30 1627 H 147.945 0.115411 -4.33646 0
M  V30 1628 H 148.616 1.40632 -5.33785 0
M  V30 1629 H 151.092 2.15218 -3.56118 0
M  V30 1630 H 149.968 3.20985 -4.45264 0
M  V30 1631 H 150.229 3.47298 -2.73563 0
M  V30 1632 N 149.288 1.51039 0.449983 0
M  V30 1633 C 150.218 1.74379 1.55288 0
M  V30 1634 C 151.199 0.593236 1.5942 0
M  V30 1635 O 152.384 0.834625 1.7535 0
M  V30 1636 C 149.514 1.85728 2.93466 0
M  V30 1637 C 148.468 3.01078 3.04197 0
M  V30 1638 C 147.794 2.97595 4.44231 0
M  V30 1639 C 149.094 4.41254 2.7945 0
M  V30 1640 H 150.788 2.66725 1.36008 0
M  V30 1641 H 148.334 1.2835 0.652864 0
M  V30 1642 H 150.287 2.0064 3.70569 0
M  V30 1643 H 149.011 0.900207 3.13949 0
M  V30 1644 H 147.67 2.85851 2.29531 0
M  V30 1645 H 147.318 1.99691 4.61663 0
M  V30 1646 H 147.018 3.75046 4.52343 0
M  V30 1647 H 148.542 3.14583 5.23326 0
M  V30 1648 H 149.956 4.56897 3.46292 0
M  V30 1649 H 148.353 5.20315 2.98985 0
M  V30 1650 H 149.423 4.52164 1.75144 0
M  V30 1651 N 150.766 -0.704594 1.40972 0
M  V30 1652 C 152.177 -1.28418 1.3552 0
M  V30 1653 C 152.528 -1.96171 0.0339434 0
M  V30 1654 O 151.653 -1.98231 -0.867944 0
M  V30 1655 C 152.248 -2.33528 2.45459 0
M  V30 1656 C 150.807 -2.87085 2.43433 0
M  V30 1657 C 149.954 -1.61007 2.2577 0
M  V30 1658 H 152.905 -0.499963 1.50619 0
M  V30 1659 H 152.926 -3.14619 2.13998 0
M  V30 1660 H 152.438 -1.84187 3.41609 0
M  V30 1661 H 150.539 -3.40626 1.51013 0
M  V30 1662 H 150.652 -3.3813 3.39419 0
M  V30 1663 H 149.016 -1.86482 1.73483 0
M  V30 1664 H 149.799 -1.13675 3.23933 0
M  V30 1665 N 152.244 -1.26651 -0.937939 0
M  V30 1666 C 153.49 -1.12553 -1.687 0
M  V30 1667 C 153.823 0.329782 -1.91379 0
M  V30 1668 O 153.098 1.24202 -1.4968 0
M  V30 1669 C 153.381 -1.89862 -3.05981 0
M  V30 1670 C 153.234 -3.43318 -2.90607 0
M  V30 1671 C 154.553 -1.69499 -4.0615 0
M  V30 1672 H 151.672 -0.410257 -0.612257 0
M  V30 1673 H 154.314 -1.55685 -1.08913 0
M  V30 1674 H 152.464 -1.53204 -3.57017 0
M  V30 1675 H 154.136 -3.89747 -2.46769 0
M  V30 1676 H 152.379 -3.70179 -2.26164 0
M  V30 1677 H 153.05 -3.92642 -3.8799 0
M  V30 1678 H 155.526 -2.01442 -3.64088 0
M  V30 1679 H 154.402 -2.26002 -5.00214 0
M  V30 1680 H 154.663 -0.640365 -4.37438 0
M  V30 1681 N 153.722 1.14298 -1.08507 0
M  V30 1682 C 154.97 1.84993 -0.813763 0
M  V30 1683 C 155.291 1.83405 0.662393 0
M  V30 1684 O 154.561 1.28319 1.48024 0
M  V30 1685 H 153.141 0.684966 -0.298045 0
M  V30 1686 H 155.803 1.385 -1.37126 0
M  V30 1687 H 154.899 2.89788 -1.15884 0
M  V30 1688 N 155.201 0.870884 1.31352 0
M  V30 1689 C 156.429 0.49677 2.00848 0
M  V30 1690 C 156.844 -0.910998 1.65367 0
M  V30 1691 O 156.201 -1.59696 0.883374 0
M  V30 1692 C 156.252 0.645308 3.55694 0
M  V30 1693 O 155.973 1.99764 3.89905 0
M  V30 1694 C 157.474 0.272326 4.42463 0
M  V30 1695 H 154.694 0.193462 0.642506 0
M  V30 1696 H 157.238 1.1723 1.67563 0
M  V30 1697 H 155.393 0.0173176 3.87396 0
M  V30 1698 H 155.807 2.00607 4.84621 0
M  V30 1699 H 157.281 0.427208 5.50344 0
M  V30 1700 H 157.758 -0.788587 4.32062 0
M  V30 1701 H 158.364 0.876054 4.1618 0
M  V30 1702 N 156.679 -1.44442 0.630414 0
M  V30 1703 C 157.612 -2.27862 -0.124247 0
M  V30 1704 C 158.59 -1.38495 -0.851931 0
M  V30 1705 O 159.774 -1.67935 -0.856166 0
M  V30 1706 C 156.901 -3.17407 -1.18197 0
M  V30 1707 C 155.947 -4.22875 -0.554892 0
M  V30 1708 S 156.78 -5.31485 0.654489 0
M  V30 1709 C 157.936 -6.246 -0.40326 0
M  V30 1710 H 158.169 -2.91519 0.583435 0
M  V30 1711 H 155.702 -1.48618 0.418565 0
M  V30 1712 H 157.66 -3.69549 -1.78728 0
M  V30 1713 H 156.321 -2.52971 -1.86184 0
M  V30 1714 H 155.514 -4.85542 -1.35148 0
M  V30 1715 H 155.116 -3.73992 -0.0242105 0
M  V30 1716 H 157.408 -6.65375 -1.27602 0
M  V30 1717 H 158.351 -7.07851 0.187813 0
M  V30 1718 H 158.759 -5.59775 -0.728837 0
M  V30 1719 N 158.157 -0.370918 -1.53173 0
M  V30 1720 C 159.568 0.107139 -1.86392 0
M  V30 1721 C 159.919 1.47714 -1.29132 0
M  V30 1722 O 159.044 2.07464 -0.615439 0
M  V30 1723 C 159.639 0.201187 -3.38202 0
M  V30 1724 C 158.198 0.623507 -3.712 0
M  V30 1725 C 157.345 -0.225978 -2.76378 0
M  V30 1726 H 160.296 -0.58951 -1.47345 0
M  V30 1727 H 160.317 1.02377 -3.66468 0
M  V30 1728 H 159.829 -0.796058 -3.79848 0
M  V30 1729 H 157.93 1.62879 -3.35114 0
M  V30 1730 H 158.043 0.394414 -4.77474 0
M  V30 1731 H 156.407 0.305962 -2.52856 0
M  V30 1732 H 157.19 -1.22086 -3.20858 0
M  V30 1733 N 159.635 1.57281 -0.100228 0
M  V30 1734 C 160.545 2.17833 0.870965 0
M  V30 1735 C 161.561 1.14921 1.30649 0
M  V30 1736 O 162.737 1.47313 1.37335 0
M  V30 1737 C 159.802 2.75085 2.1102 0
M  V30 1738 C 158.863 3.9297 1.72838 0
M  V30 1739 C 158.096 4.47482 2.90854 0
M  V30 1740 O 158.319 4.00922 4.05731 0
M  V30 1741 O 157.253 5.38433 2.69023 0
M  V30 1742 H 161.079 3.0124 0.38575 0
M  V30 1743 H 158.664 1.48881 0.124397 0
M  V30 1744 H 160.546 3.11656 2.83634 0
M  V30 1745 H 159.221 1.94721 2.58584 0
M  V30 1746 H 158.128 3.61201 0.973883 0
M  V30 1747 H 159.461 4.74713 1.30033 0
M  V30 1748 N 161.113 -0.173488 1.56642 0
M  V30 1749 C 162.361 -0.888706 1.81512 0
M  V30 1750 C 162.682 -1.82875 0.676872 0
M  V30 1751 O 161.952 -1.93536 -0.303414 0
M  V30 1752 H 160.532 -0.331164 0.669582 0
M  V30 1753 H 163.194 -0.173823 1.94123 0
M  V30 1754 H 162.29 -1.46691 2.75478 0
M  V30 1755 N 162.591 -1.51276 -0.441967 0
M  V30 1756 C 163.819 -1.67516 -1.21434 0
M  V30 1757 C 164.234 -0.37055 -1.85128 0
M  V30 1758 O 163.591 0.650498 -1.70513 0
M  V30 1759 C 163.642 -2.78748 -2.30177 0
M  V30 1760 O 163.363 -4.04154 -1.69089 0
M  V30 1761 C 164.864 -3.06217 -3.20541 0
M  V30 1762 H 162.084 -0.562276 -0.366178 0
M  V30 1763 H 164.628 -1.97666 -0.524244 0
M  V30 1764 H 162.783 -2.5121 -2.94911 0
M  V30 1765 H 163.197 -4.65894 -2.40922 0
M  V30 1766 H 164.671 -3.8764 -3.92987 0
M  V30 1767 H 165.148 -2.18439 -3.81026 0
M  V30 1768 H 165.754 -3.35397 -2.61513 0
M  V30 1769 N 164.069 0.697108 -1.41344 0
M  V30 1770 C 165.318 1.45279 -1.39918 0
M  V30 1771 C 165.631 1.95597 -0.0109624 0
M  V30 1772 O 166.837 2.71208 0.125919 0
M  V30 1773 C 165.293 2.62695 -2.46007 0
M  V30 1774 C 164.901 2.19169 -3.90729 0
M  V30 1775 C 166.645 3.40336 -2.53715 0
M  V30 1776 C 164.552 3.33535 -4.88373 0
M  V30 1777 H 163.482 0.545692 -0.520323 0
M  V30 1778 H 166.133 0.756929 -1.67161 0
M  V30 1779 H 164.515 3.34541 -2.11892 0
M  V30 1780 H 165.689 1.54623 -4.34083 0
M  V30 1781 H 164.004 1.54525 -3.86666 0
M  V30 1782 H 166.601 4.2547 -3.2385 0
M  V30 1783 H 166.944 3.85418 -1.5735 0
M  V30 1784 H 167.477 2.75546 -2.86913 0
M  V30 1785 H 164.216 2.93468 -5.86137 0
M  V30 1786 H 163.736 3.96936 -4.49668 0
M  V30 1787 H 165.415 3.99335 -5.09059 0
M  V30 1788 N 165.547 1.27147 0.931209 0
M  V30 1789 C 166.793 1.13446 1.68101 0
M  V30 1790 C 167.126 -0.319628 1.91552 0
M  V30 1791 O 166.401 -1.23407 1.50336 0
M  V30 1792 C 166.684 1.91482 3.0497 0
M  V30 1793 C 166.537 3.44855 2.88782 0
M  V30 1794 C 167.856 1.71651 4.05246 0
M  V30 1795 H 164.975 0.413498 0.610072 0
M  V30 1796 H 167.617 1.56261 1.08086 0
M  V30 1797 H 165.767 1.55095 3.56199 0
M  V30 1798 H 167.439 3.9105 2.44698 0
M  V30 1799 H 165.682 3.71373 2.24198 0
M  V30 1800 H 166.353 3.94694 3.85902 0
M  V30 1801 H 168.829 2.0337 3.63015 0
M  V30 1802 H 167.705 2.28651 4.99009 0
M  V30 1803 H 167.966 0.663555 4.37092 0
M  V30 1804 N 167.025 -1.13721 1.09112 0
M  V30 1805 C 168.265 -1.86576 0.834801 0
M  V30 1806 C 168.629 -1.81435 -0.628122 0
M  V30 1807 O 169.83 -2.49497 -1.00024 0
M  V30 1808 C 168.101 -3.30872 1.35124 0
M  V30 1809 S 169.66 -4.21257 1.22832 0
M  V30 1810 H 166.478 -0.643666 0.302017 0
M  V30 1811 H 169.08 -1.37085 1.39385 0
M  V30 1812 H 167.784 -3.32166 2.41027 0
M  V30 1813 H 167.315 -3.85423 0.788185 0
M  V30 1814 H 169.33 -4.95884 0.177191 0
M  V30 1815 N 168.503 -0.877838 -1.30888 0
M  V30 1816 C 169.743 -0.499301 -1.98208 0
M  V30 1817 C 170.107 0.932649 -1.67826 0
M  V30 1818 O 171.308 1.41694 -2.28421 0
M  V30 1819 C 169.579 -0.758221 -3.49265 0
M  V30 1820 S 171.138 -0.480719 -4.36159 0
M  V30 1821 H 167.956 -0.186062 -0.686223 0
M  V30 1822 H 170.558 -1.13556 -1.59139 0
M  V30 1823 H 169.262 -1.79903 -3.68867 0
M  V30 1824 H 168.793 -0.109247 -3.93248 0
M  V30 1825 H 170.808 0.683698 -4.91467 0
M  V30 1826 N 169.982 1.44106 -0.638065 0
M  V30 1827 C 170.912 2.33448 0.0494287 0
M  V30 1828 C 171.893 1.48606 0.827672 0
M  V30 1829 O 173.078 1.77308 0.792173 0
M  V30 1830 C 170.208 3.31771 1.02691 0
M  V30 1831 C 169.162 4.26485 0.359823 0
M  V30 1832 C 168.488 5.14729 1.44769 0
M  V30 1833 C 169.788 5.17056 -0.738296 0
M  V30 1834 H 171.482 2.91183 -0.696636 0
M  V30 1835 H 169.028 1.40014 -0.336456 0
M  V30 1836 H 170.981 3.93161 1.51666 0
M  V30 1837 H 169.705 2.7226 1.80395 0
M  V30 1838 H 168.364 3.66437 -0.10934 0
M  V30 1839 H 168.012 4.51566 2.21578 0
M  V30 1840 H 167.712 5.78913 1.00668 0
M  V30 1841 H 169.236 5.78991 1.93911 0
M  V30 1842 H 170.65 5.72342 -0.331354 0
M  V30 1843 H 169.047 5.89879 -1.10286 0
M  V30 1844 H 170.117 4.57652 -1.60258 0
M  V30 1845 N 171.46 0.379036 1.52974 0
M  V30 1846 C 172.37 -0.468639 2.29872 0
M  V30 1847 C 173.386 -1.08067 1.36373 0
M  V30 1848 O 174.562 -1.08871 1.69438 0
M  V30 1849 C 171.627 -1.58594 3.083 0
M  V30 1850 C 170.688 -1.00007 4.17489 0
M  V30 1851 C 169.921 -2.06413 4.92168 0
M  V30 1852 O 170.144 -3.27751 4.66835 0
M  V30 1853 O 169.078 -1.68717 5.7777 0
M  V30 1854 H 172.904 0.157508 3.03291 0
M  V30 1855 H 170.489 0.143035 1.48714 0
M  V30 1856 H 172.371 -2.23525 3.57232 0
M  V30 1857 H 171.046 -2.19724 2.37703 0
M  V30 1858 H 169.953 -0.314299 3.72777 0
M  V30 1859 H 171.286 -0.433135 4.90291 0
M  V30 1860 N 172.938 -1.57226 0.108567 0
M  V30 1861 C 173.848 -2.18292 -0.859401 0
M  V30 1862 C 174.864 -1.15612 -1.30038 0
M  V30 1863 O 176.04 -1.48039 -1.36552 0
M  V30 1864 C 173.105 -2.762 -2.09558 0
M  V30 1865 C 172.166 -3.93881 -1.70752 0
M  V30 1866 C 171.399 -4.49018 -2.88477 0
M  V30 1867 O 171.622 -4.03068 -4.036 0
M  V30 1868 O 170.556 -5.39852 -2.66164 0
M  V30 1869 H 174.382 -3.01441 -0.369769 0
M  V30 1870 H 171.967 -1.48945 -0.1165 0
M  V30 1871 H 173.849 -3.13156 -2.81978 0
M  V30 1872 H 172.524 -1.96089 -2.57548 0
M  V30 1873 H 171.431 -3.61713 -0.954714 0
M  V30 1874 H 172.764 -4.75396 -1.27513 0
M  V30 1875 N 174.416 0.165178 -1.56732 0
M  V30 1876 C 175.363 1.2044 -1.96883 0
M  V30 1877 C 176.333 1.43664 -0.833657 0
M  V30 1878 O 177.518 1.56302 -1.09427 0
M  V30 1879 C 174.658 2.53727 -2.33916 0
M  V30 1880 C 173.771 2.3783 -3.6064 0
M  V30 1881 C 172.906 3.64026 -3.86857 0
M  V30 1882 C 171.945 3.43088 -5.06909 0
M  V30 1883 N 171.082 4.61369 -5.29229 0
M  V30 1884 H 175.922 0.854996 -2.85471 0
M  V30 1885 H 173.459 0.41076 -1.41249 0
M  V30 1886 H 175.417 3.31419 -2.53411 0
M  V30 1887 H 174.047 2.8665 -1.48431 0
M  V30 1888 H 173.099 1.51282 -3.49024 0
M  V30 1889 H 174.411 2.18308 -4.4849 0
M  V30 1890 H 173.565 4.50152 -4.06753 0
M  V30 1891 H 172.304 3.86533 -2.97394 0
M  V30 1892 H 171.309 2.55349 -4.86906 0
M  V30 1893 H 172.534 3.21997 -5.97909 0
M  V30 1894 H 170.48 4.84084 -4.42718 0
M  V30 1895 H 170.397 4.44783 -6.11313 0
M  V30 1896 H 171.665 5.48761 -5.53608 0
M  V30 1897 N 175.894 1.51508 0.433938 0
M  V30 1898 C 177.305 1.56784 1.01369 0
M  V30 1899 C 177.656 0.393349 1.92217 0
M  V30 1900 O 176.781 -0.489441 2.10792 0
M  V30 1901 C 177.376 2.84144 1.8452 0
M  V30 1902 C 175.935 2.9198 2.37539 0
M  V30 1903 C 175.082 2.51482 1.16843 0
M  V30 1904 H 178.033 1.57236 0.215081 0
M  V30 1905 H 178.054 2.68098 2.70007 0
M  V30 1906 H 177.566 3.69607 1.18373 0
M  V30 1907 H 175.667 2.10955 3.0713 0
M  V30 1908 H 175.78 3.95704 2.70103 0
M  V30 1909 H 174.144 2.04758 1.51481 0
M  V30 1910 H 174.927 3.39293 0.523015 0
M  V30 1911 N 177.372 -0.689602 1.41712 0
M  V30 1912 C 178.62 -1.4468 1.4111 0
M  V30 1913 C 178.941 -1.94986 0.0232196 0
M  V30 1914 O 178.211 -1.72097 -0.935913 0
M  V30 1915 H 176.791 -0.536847 0.519427 0
M  V30 1916 H 179.453 -0.815825 1.77004 0
M  V30 1917 H 178.549 -2.30706 2.10193 0
M  V30 1918 N 178.85 -1.27639 -0.924453 0
M  V30 1919 C 180.127 -1.04887 -1.651 0
M  V30 1920 C 180.507 0.415327 -2.06974 0
M  V30 1921 O 179.855 1.39923 -1.80648 0
M  V30 1922 C 180.065 -2.01348 -2.85061 0
M  V30 1923 C 181.413 -2.30899 -3.56329 0
M  V30 1924 O 182.437 -1.99348 -2.95193 0
M  V30 1925 O 181.296 -2.84699 -4.66485 0
M  V30 1926 H 178.39 -0.400083 -0.723784 0
M  V30 1927 H 180.936 -1.38916 -0.974703 0
M  V30 1928 H 179.708 -3.0008 -2.51133 0
M  V30 1929 H 179.331 -1.679 -3.6041 0
M  V30 1930 N 180.328 1.1314 -1.09713 0
M  V30 1931 C 181.744 1.36477 -0.827423 0
M  V30 1932 C 181.944 1.93654 0.556817 0
M  V30 1933 O 181 2.15791 1.31112 0
M  V30 1934 C 182.313 2.31334 -1.92106 0
M  V30 1935 C 183.861 2.44943 -1.94864 0
M  V30 1936 C 184.336 3.4311 -3.0338 0
M  V30 1937 N 185.827 3.50662 -3.02639 0
M  V30 1938 C 186.562 4.2651 -3.83246 0
M  V30 1939 N 186.058 5.05485 -4.73768 0
M  V30 1940 N 187.851 4.2184 -3.71493 0
M  V30 1941 H 180.002 0.743807 -1.9895 0
M  V30 1942 H 182.265 0.389823 -0.864143 0
M  V30 1943 H 181.971 1.96483 -2.91698 0
M  V30 1944 H 181.845 3.31381 -1.80184 0
M  V30 1945 H 184.232 2.79079 -0.959099 0
M  V30 1946 H 184.313 1.4481 -2.10864 0
M  V30 1947 H 183.957 3.09704 -4.02549 0
M  V30 1948 H 183.887 4.43055 -2.84622 0
M  V30 1949 H 186.378 2.94315 -2.37039 0
M  V30 1950 H 186.691 5.60675 -5.3185 0
M  V30 1951 H 185.036 5.04708 -4.77802 0
M  V30 1952 H 188.227 3.5922 -3.00131 0
M  V30 1953 H 188.4 4.80697 -4.3455 0
M  V30 1954 N 181.806 0.884767 1.30421 0
M  V30 1955 C 183.054 0.502112 1.95763 0
M  V30 1956 C 183.375 -0.951815 1.70192 0
M  V30 1957 O 182.645 -1.6692 1.0254 0
M  V30 1958 H 181.225 0.182694 0.724315 0
M  V30 1959 H 183.887 1.1278 1.58955 0
M  V30 1960 H 182.983 0.672188 3.04775 0
M  V30 1961 N 183.284 -1.43765 0.645699 0
M  V30 1962 C 184.231 -2.30745 -0.0504648 0
M  V30 1963 C 185.201 -1.4432 -0.822241 0
M  V30 1964 O 186.386 -1.73202 -0.800358 0
M  V30 1965 C 183.526 -3.29802 -1.0161 0
M  V30 1966 C 182.639 -4.31326 -0.241219 0
M  V30 1967 C 181.774 -5.17469 -1.19998 0
M  V30 1968 C 180.813 -6.10691 -0.415094 0
M  V30 1969 N 179.95 -6.89483 -1.32506 0
M  V30 1970 H 184.79 -2.8973 0.697155 0
M  V30 1971 H 182.327 -1.42738 0.355563 0
M  V30 1972 H 184.285 -3.85734 -1.58949 0
M  V30 1973 H 182.915 -2.72483 -1.73069 0
M  V30 1974 H 181.967 -3.77749 0.448334 0
M  V30 1975 H 183.279 -4.9743 0.369437 0
M  V30 1976 H 182.433 -5.7799 -1.84424 0
M  V30 1977 H 181.172 -4.51473 -1.84455 0
M  V30 1978 H 180.177 -5.49265 0.242565 0
M  V30 1979 H 181.402 -6.78727 0.224966 0
M  V30 1980 H 179.348 -6.26142 -1.95657 0
M  V30 1981 H 179.265 -7.52081 -0.768783 0
M  V30 1982 H 180.533 -7.54516 -1.9577 0
M  V30 1983 N 184.763 -0.387143 -1.52771 0
M  V30 1984 C 185.693 0.440551 -2.29306 0
M  V30 1985 C 186.674 1.06535 -1.32606 0
M  V30 1986 O 187.859 1.07853 -1.61497 0
M  V30 1987 C 184.989 1.56919 -3.09829 0
M  V30 1988 C 183.943 1.07054 -4.14395 0
M  V30 1989 C 183.269 2.29109 -4.83129 0
M  V30 1990 C 184.569 0.140015 -5.22112 0
M  V30 1991 H 186.263 -0.198026 -2.98744 0
M  V30 1992 H 183.809 -0.09668 -1.43675 0
M  V30 1993 H 185.762 2.15503 -3.62128 0
M  V30 1994 H 184.486 2.23532 -2.3812 0
M  V30 1995 H 183.145 0.507247 -3.63074 0
M  V30 1996 H 182.793 2.94227 -4.0797 0
M  V30 1997 H 182.493 1.96406 -5.53804 0
M  V30 1998 H 184.017 2.88339 -5.38231 0
M  V30 1999 H 185.431 0.633978 -5.69784 0
M  V30 2000 H 183.828 -0.0971485 -6.00021 0
M  V30 2001 H 184.898 -0.811711 -4.78058 0
M  V30 2002 N 186.241 1.57166 -0.116904 0
M  V30 2003 C 187.204 2.14039 0.819742 0
M  V30 2004 C 188.204 1.07477 1.19605 0
M  V30 2005 O 189.394 1.33263 1.1219 0
M  V30 2006 C 186.526 2.67891 2.10826 0
M  V30 2007 H 187.719 2.98128 0.325511 0
M  V30 2008 H 185.272 1.55739 0.132312 0
M  V30 2009 H 186.007 1.87384 2.64685 0
M  V30 2010 H 185.792 3.45823 1.84793 0
M  V30 2011 H 187.282 3.11809 2.77785 0
M  V30 2012 N 187.719 -0.156864 1.56817 0
M  V30 2013 C 189.135 -0.50916 1.5126 0
M  V30 2014 C 189.335 -1.83897 0.823658 0
M  V30 2015 O 188.391 -2.49469 0.390055 0
M  V30 2016 C 189.704 -0.52857 2.96018 0
M  V30 2017 C 191.252 -0.614771 3.06903 0
M  V30 2018 C 191.727 -0.664938 4.53147 0
M  V30 2019 N 193.218 -0.727433 4.57452 0
M  V30 2020 C 193.953 -0.787067 5.67973 0
M  V30 2021 N 193.449 -0.806649 6.88088 0
M  V30 2022 N 195.242 -0.827195 5.5598 0
M  V30 2023 H 187.393 0.714935 2.00006 0
M  V30 2024 H 189.656 0.259526 0.911784 0
M  V30 2025 H 189.362 0.380154 3.49639 0
M  V30 2026 H 189.236 -1.36998 3.51442 0
M  V30 2027 H 191.623 -1.51392 2.53307 0
M  V30 2028 H 191.704 0.253597 2.5454 0
M  V30 2029 H 191.348 0.230011 5.07379 0
M  V30 2030 H 191.278 -1.54966 5.03282 0
M  V30 2031 H 193.769 -0.719998 3.70978 0
M  V30 2032 H 194.082 -0.853727 7.6807 0
M  V30 2033 H 192.427 -0.774687 6.90669 0
M  V30 2034 H 195.618 -0.808998 4.61056 0
M  V30 2035 H 195.791 -0.870206 6.4213 0
M  V30 2036 N 189.197 -1.51736 -0.425897 0
M  V30 2037 C 190.16 -1.73271 -1.50032 0
M  V30 2038 C 191.16 -0.602639 -1.4908 0
M  V30 2039 O 192.35 -0.87033 -1.509 0
M  V30 2040 C 189.482 -1.79969 -2.89523 0
M  V30 2041 H 190.675 -2.69172 -1.32237 0
M  V30 2042 H 188.228 -1.41899 -0.65532 0
M  V30 2043 H 188.963 -0.859241 -3.1271 0
M  V30 2044 H 188.748 -2.62109 -2.91619 0
M  V30 2045 H 190.238 -1.9843 -3.67444 0
M  V30 2046 N 190.675 0.682077 -1.42076 0
M  V30 2047 C 191.9 1.47558 -1.45744 0
M  V30 2048 C 192.325 1.87977 -0.0680981 0
M  V30 2049 O 191.683 1.55522 0.9318 0
M  V30 2050 C 191.731 2.70575 -2.38373 0
M  V30 2051 O 190.835 3.68573 -1.85007 0
M  V30 2052 H 190.176 0.443585 -0.494093 0
M  V30 2053 H 192.706 0.837238 -1.86686 0
M  V30 2054 H 192.716 3.18729 -2.54707 0
M  V30 2055 H 191.391 2.40495 -3.39315 0
M  V30 2056 H 189.968 3.2757 -1.78192 0
M  V30 2057 N 192.153 1.28127 0.917671 0
M  V30 2058 C 193.401 1.14825 1.66312 0
M  V30 2059 C 193.722 -0.304379 1.9261 0
M  V30 2060 O 192.992 -1.21149 1.53947 0
M  V30 2061 H 191.572 0.421953 0.616413 0
M  V30 2062 H 194.234 1.608 1.10134 0
M  V30 2063 H 193.33 1.68489 2.62712 0
M  V30 2064 N 193.631 -1.12557 1.10312 0
M  V30 2065 C 194.579 -2.20325 0.745629 0
M  V30 2066 C 195.573 -1.67429 -0.25763 0
M  V30 2067 O 196.779 -1.79612 -0.118132 0
M  V30 2068 H 193.154 -0.718118 0.223182 0
M  V30 2069 H 195.125 -2.47733 1.66346 0
M  V30 2070 C 193.874 -3.47168 0.192262 0
M  V30 2071 H 193.197 -3.88215 0.955475 0
M  V30 2072 H 194.637 -4.23995 -0.0198274 0
M  V30 2073 C 193.096 -3.19298 -1.07472 0
M  V30 2074 O 193.626 -3.3891 -2.15645 0
M  V30 2075 N 191.832 -2.73113 -0.992847 0
M  V30 2076 H 191.379 -2.57354 -0.112474 0
M  V30 2077 H 191.337 -2.54842 -1.84127 0
M  V30 2078 N 195.109 -0.891671 -1.2995 0
M  V30 2079 C 196.339 -0.527893 -1.99742 0
M  V30 2080 C 196.747 0.88979 -1.66971 0
M  V30 2081 O 196.09 1.59766 -0.906667 0
M  V30 2082 C 196.152 -0.630804 -3.53922 0
M  V30 2083 C 195.816 -2.01401 -4.10228 0
M  V30 2084 C 196.813 -2.98422 -4.25724 0
M  V30 2085 C 194.498 -2.32121 -4.45449 0
M  V30 2086 C 196.492 -4.24293 -4.75662 0
M  V30 2087 C 194.179 -3.58237 -4.95086 0
M  V30 2088 C 195.177 -4.54137 -5.10146 0
M  V30 2089 O 194.865 -5.78014 -5.58708 0
M  V30 2090 H 194.597 -0.201953 -0.645129 0
M  V30 2091 H 197.151 -1.20076 -1.66646 0
M  V30 2092 H 195.381 0.0990616 -3.86573 0
M  V30 2093 H 197.07 -0.277338 -4.04951 0
M  V30 2094 H 197.836 -2.76001 -3.98809 0
M  V30 2095 H 193.715 -1.5824 -4.32991 0
M  V30 2096 H 197.259 -4.99153 -4.87332 0
M  V30 2097 H 193.156 -3.80491 -5.21437 0
M  V30 2098 H 193.924 -5.8049 -5.77039 0
M  V30 2099 N 196.587 1.43421 -0.653314 0
M  V30 2100 C 197.55 2.29182 0.0287951 0
M  V30 2101 C 198.55 1.42213 0.750465 0
M  V30 2102 O 199.74 1.63843 0.591701 0
M  V30 2103 C 196.872 3.24278 1.05151 0
M  V30 2104 H 198.065 2.90985 -0.725786 0
M  V30 2105 H 195.618 1.50702 -0.414545 0
M  V30 2106 H 196.353 2.6737 1.83532 0
M  V30 2107 H 196.138 3.88396 0.537687 0
M  V30 2108 H 197.628 3.88647 1.52786 0
M  V30 2109 N 198.065 0.39524 1.52563 0
M  V30 2110 C 199.293 -0.184943 2.06072 0
M  V30 2111 C 199.708 -1.40021 1.26647 0
M  V30 2112 O 199.065 -1.79767 0.314672 0
M  V30 2113 C 199.116 -0.549179 3.57304 0
M  V30 2114 O 198.837 0.617813 4.33722 0
M  V30 2115 C 200.338 -1.18459 4.2718 0
M  V30 2116 H 197.558 -0.0265025 0.670476 0
M  V30 2117 H 200.102 0.562184 1.96621 0
M  V30 2118 H 198.257 -1.2462 3.66809 0
M  V30 2119 H 198.671 0.317091 5.23541 0
M  V30 2120 H 200.145 -1.38976 5.34219 0
M  V30 2121 H 200.622 -2.15368 3.82771 0
M  V30 2122 H 201.228 -0.528163 4.22008 0
M  V30 2123 N 199.544 -1.57102 0.125237 0
M  V30 2124 C 200.79 -1.95697 -0.532035 0
M  V30 2125 C 201.123 -1.009 -1.6593 0
M  V30 2126 O 200.398 -0.047347 -1.94442 0
M  V30 2127 C 200.681 -3.44181 -1.05884 0
M  V30 2128 C 200.534 -4.49752 0.0654392 0
M  V30 2129 C 201.853 -3.94655 -1.9477 0
M  V30 2130 H 198.972 -0.711571 -0.191925 0
M  V30 2131 H 201.614 -1.88923 0.20206 0
M  V30 2132 H 199.764 -3.50085 -1.68442 0
M  V30 2133 H 201.436 -4.55943 0.700982 0
M  V30 2134 H 199.679 -4.27653 0.727709 0
M  V30 2135 H 200.35 -5.50924 -0.344505 0
M  V30 2136 H 202.826 -3.91094 -1.42074 0
M  V30 2137 H 201.702 -4.99057 -2.28546 0
M  V30 2138 H 201.963 -3.35718 -2.87656 0
M  V30 2139 N 201.022 0.148545 -1.56898 0
M  V30 2140 C 202.271 0.85984 -1.82454 0
M  V30 2141 C 202.584 1.82406 -0.706229 0
M  V30 2142 O 203.79 2.57938 -0.847349 0
M  V30 2143 C 202.246 1.57967 -3.2338 0
M  V30 2144 C 201.854 0.65794 -4.43142 0
M  V30 2145 C 203.598 2.27784 -3.58211 0
M  V30 2146 C 201.505 1.3793 -5.75091 0
M  V30 2147 H 200.435 0.324834 -0.68044 0
M  V30 2148 H 203.086 0.112588 -1.83154 0
M  V30 2149 H 201.468 2.37249 -3.17063 0
M  V30 2150 H 202.642 -0.0995497 -4.60692 0
M  V30 2151 H 200.957 0.0682643 -4.16344 0
M  V30 2152 H 203.554 2.8239 -4.54048 0
M  V30 2153 H 203.897 3.04204 -2.84193 0
M  V30 2154 H 204.43 1.55421 -3.66182 0
M  V30 2155 H 201.169 0.656982 -6.52199 0
M  V30 2156 H 200.689 2.10954 -5.61479 0
M  V30 2157 H 202.368 1.92063 -6.17835 0
M  V30 2158 N 202.5 1.5196 0.417844 0
M  V30 2159 C 203.725 1.69717 1.1921 0
M  V30 2160 C 204.15 0.402148 1.83751 0
M  V30 2161 O 203.508 -0.639593 1.69643 0
M  V30 2162 C 203.556 2.82794 2.2374 0
M  V30 2163 O 202.66 2.47756 3.29683 0
M  V30 2164 H 202.001 0.565263 0.348387 0
M  V30 2165 H 204.531 1.98621 0.490985 0
M  V30 2166 H 204.541 3.07452 2.68212 0
M  V30 2167 H 203.216 3.76756 1.76146 0
M  V30 2168 H 201.793 2.33739 2.90552 0
M  V30 2169 N 203.978 -0.674533 1.42435 0
M  V30 2170 C 204.928 -1.7807 1.4239 0
M  V30 2171 C 205.912 -1.58169 0.295202 0
M  V30 2172 O 207.104 -1.68643 0.537449 0
M  V30 2173 C 204.233 -3.16532 1.32901 0
M  V30 2174 C 203.319 -3.42055 2.50717 0
M  V30 2175 N 203.71 -3.38162 3.76139 0
M  V30 2176 C 202.008 -3.72692 2.44983 0
M  V30 2177 C 202.709 -3.63177 4.54398 0
M  V30 2178 N 201.685 -3.83954 3.84812 0
M  V30 2179 H 205.487 -1.73454 2.37257 0
M  V30 2180 H 203.001 -0.875381 1.36788 0
M  V30 2181 H 204.998 -3.958 1.30951 0
M  V30 2182 H 203.658 -3.22345 0.390363 0
M  V30 2183 H 204.669 -3.18057 4.0873 0
M  V30 2184 H 201.346 -3.85749 1.59699 0
M  V30 2185 H 202.736 -3.66125 5.63384 0
M  V30 2186 N 205.456 -1.28612 -0.910864 0
M  V30 2187 C 206.404 -1.1265 -2.03501 0
M  V30 2188 C 207.398 -0.0450054 -1.6934 0
M  V30 2189 O 208.604 -0.203988 -1.7884 0
M  V30 2190 H 204.979 -0.347639 -0.666822 0
M  V30 2191 H 206.95 -2.07849 -2.14106 0
M  V30 2192 C 205.699 -0.808143 -3.38178 0
M  V30 2193 H 205.022 -1.63231 -3.6496 0
M  V30 2194 H 206.462 -0.736426 -4.17556 0
M  V30 2195 C 204.921 0.488226 -3.33344 0
M  V30 2196 O 205.451 1.51766 -3.71927 0
M  V30 2197 N 203.657 0.490009 -2.86439 0
M  V30 2198 H 203.204 -0.348161 -2.55236 0
M  V30 2199 H 203.162 1.35741 -2.83587 0
M  V30 2200 N 206.934 1.1197 -1.10907 0
M  V30 2201 C 208.345 1.65114 -0.871446 0
M  V30 2202 C 208.696 1.86885 0.597353 0
M  V30 2203 O 207.821 1.59896 1.45816 0
M  V30 2204 C 208.416 2.99944 -1.5754 0
M  V30 2205 C 206.975 3.50018 -1.38435 0
M  V30 2206 C 206.122 2.24941 -1.62164 0
M  V30 2207 H 209.073 0.956851 -1.2661 0
M  V30 2208 H 209.094 3.66651 -1.01721 0
M  V30 2209 H 208.606 2.84067 -2.64438 0
M  V30 2210 H 206.707 3.71071 -0.337214 0
M  V30 2211 H 206.82 4.29165 -2.12965 0
M  V30 2212 H 205.184 2.3229 -1.04467 0
M  V30 2213 H 205.967 2.11612 -2.70324 0
M  V30 2214 N 208.412 0.89855 1.29475 0
M  V30 2215 C 209.322 0.379974 2.31502 0
M  V30 2216 C 210.338 -0.524695 1.659 0
M  V30 2217 O 211.514 -0.414551 1.97087 0
M  V30 2218 C 208.579 -0.385138 3.44554 0
M  V30 2219 C 207.64 0.550914 4.2575 0
M  V30 2220 C 206.873 -0.177778 5.33404 0
M  V30 2221 O 207.096 -1.40189 5.52904 0
M  V30 2222 O 206.03 0.479106 5.9999 0
M  V30 2223 H 209.856 1.22639 2.77837 0
M  V30 2224 H 207.441 0.662834 1.33891 0
M  V30 2225 H 209.323 -0.817841 4.13388 0
M  V30 2226 H 207.998 -1.20763 3.0033 0
M  V30 2227 H 206.905 1.03271 3.59564 0
M  V30 2228 H 208.238 1.33979 4.73614 0
M  V30 2229 N 209.89 -1.43072 0.660911 0
M  V30 2230 C 211.118 -2.06067 0.185422 0
M  V30 2231 C 211.533 -1.49582 -1.15198 0
M  V30 2232 O 210.89 -0.630134 -1.71276 0
M  V30 2233 C 210.941 -3.61371 0.0966523 0
M  V30 2234 O 210.662 -4.15758 1.38119 0
M  V30 2235 C 212.163 -4.41455 -0.403996 0
M  V30 2236 H 209.383 -0.664459 0.0934604 0
M  V30 2237 H 211.927 -1.83447 0.90373 0
M  V30 2238 H 210.082 -3.8315 -0.572259 0
M  V30 2239 H 210.496 -5.09499 1.24542 0
M  V30 2240 H 211.97 -5.50437 -0.415045 0
M  V30 2241 H 212.447 -4.15036 -1.43674 0
M  V30 2242 H 213.053 -4.24663 0.232691 0
M  V30 2243 N 211.368 -0.403325 -1.52352 0
M  V30 2244 C 212.315 0.425011 -2.26853 0
M  V30 2245 C 213.285 1.04598 -1.29029 0
M  V30 2246 O 214.47 1.07135 -1.57882 0
M  V30 2247 C 211.61 1.53888 -3.08889 0
M  V30 2248 C 210.723 0.939396 -4.21663 0
M  V30 2249 C 209.858 2.02547 -4.91068 0
M  V30 2250 C 208.897 1.40263 -5.95813 0
M  V30 2251 N 208.034 2.4286 -6.58759 0
M  V30 2252 H 212.874 -0.21674 -2.97211 0
M  V30 2253 H 210.411 -0.118722 -1.4662 0
M  V30 2254 H 212.369 2.19558 -3.54753 0
M  V30 2255 H 210.999 2.15074 -2.40714 0
M  V30 2256 H 210.051 0.171898 -3.80011 0
M  V30 2257 H 211.363 0.44436 -4.96817 0
M  V30 2258 H 210.517 2.75958 -5.40308 0
M  V30 2259 H 209.256 2.55415 -4.15469 0
M  V30 2260 H 208.261 0.653833 -5.45898 0
M  V30 2261 H 209.486 0.881719 -6.73352 0
M  V30 2262 H 207.432 2.94871 -5.85992 0
M  V30 2263 H 207.349 1.98152 -7.2957 0
M  V30 2264 H 208.617 3.15858 -7.12639 0
M  V30 2265 N 212.846 1.57033 -0.133567 0
M  V30 2266 C 213.793 2.16074 0.811208 0
M  V30 2267 C 214.763 1.08979 1.2535 0
M  V30 2268 O 215.948 1.36958 1.32843 0
M  V30 2269 C 213.088 2.77595 2.05024 0
M  V30 2270 C 212.201 3.99042 1.65498 0
M  V30 2271 C 211.336 4.48603 2.84479 0
M  V30 2272 C 210.375 5.62547 2.41262 0
M  V30 2273 N 209.512 6.06787 3.53206 0
M  V30 2274 H 214.352 2.96477 0.300906 0
M  V30 2275 H 211.889 1.46462 0.136822 0
M  V30 2276 H 213.847 3.11402 2.77642 0
M  V30 2277 H 212.477 1.99859 2.53488 0
M  V30 2278 H 211.529 3.71302 0.826981 0
M  V30 2279 H 212.841 4.81629 1.29748 0
M  V30 2280 H 211.995 4.84395 3.65303 0
M  V30 2281 H 210.734 3.64995 3.23465 0
M  V30 2282 H 209.739 5.26345 1.58874 0
M  V30 2283 H 210.964 6.47931 2.03377 0
M  V30 2284 H 208.91 5.26117 3.91838 0
M  V30 2285 H 208.827 6.84266 3.21427 0
M  V30 2286 H 210.095 6.4722 4.34427 0
M  V30 2287 N 214.325 -0.140222 1.56975 0
M  V30 2288 C 215.553 -0.866437 1.87884 0
M  V30 2289 C 215.968 -1.74428 0.722517 0
M  V30 2290 O 215.325 -1.79891 -0.30749 0
M  V30 2291 C 215.376 -1.71753 3.18093 0
M  V30 2292 O 215.097 -0.875056 4.29272 0
M  V30 2293 C 216.598 -2.55074 3.62563 0
M  V30 2294 H 213.818 -0.25019 0.622612 0
M  V30 2295 H 216.362 -0.130977 2.0408 0
M  V30 2296 H 214.517 -2.40598 3.03631 0
M  V30 2297 H 214.931 -1.46002 5.03769 0
M  V30 2298 H 216.405 -3.10356 4.5649 0
M  V30 2299 H 216.882 -3.31434 2.88181 0
M  V30 2300 H 217.488 -1.91509 3.79743 0
M  V30 2301 N 215.803 -1.52179 -0.40978 0
M  V30 2302 C 217.219 -1.40968 -0.74835 0
M  V30 2303 C 217.419 -0.513657 -1.94843 0
M  V30 2304 O 216.475 0.0208026 -2.52491 0
M  V30 2305 C 217.788 -2.83483 -1.0029 0
M  V30 2306 C 219.336 -2.92821 -1.10565 0
M  V30 2307 C 219.811 -4.36303 -1.39296 0
M  V30 2308 N 221.302 -4.39535 -1.46162 0
M  V30 2309 C 222.037 -5.47614 -1.70018 0
M  V30 2310 N 221.533 -6.65812 -1.91483 0
M  V30 2311 N 223.326 -5.35129 -1.72027 0
M  V30 2312 H 215.477 -2.0897 0.380186 0
M  V30 2313 H 217.74 -0.94185 0.107805 0
M  V30 2314 H 217.446 -3.51168 -0.193461 0
M  V30 2315 H 217.32 -3.24487 -1.92323 0
M  V30 2316 H 219.707 -2.25318 -1.90568 0
M  V30 2317 H 219.788 -2.55276 -0.16369 0
M  V30 2318 H 219.432 -5.04366 -0.598109 0
M  V30 2319 H 219.362 -4.71385 -2.34743 0
M  V30 2320 H 221.853 -3.54332 -1.31367 0
M  V30 2321 H 222.166 -7.43964 -2.09134 0
M  V30 2322 H 220.511 -6.68879 -1.88749 0
M  V30 2323 H 223.702 -4.41764 -1.54796 0
M  V30 2324 H 223.875 -6.19433 -1.9028 0
M  V30 2325 N 217.281 0.66697 -1.42791 0
M  V30 2326 C 218.527 1.4291 -1.43891 0
M  V30 2327 C 218.86 1.94114 -0.0578972 0
M  V30 2328 O 218.135 1.71414 0.91911 0
M  V30 2329 C 218.418 2.62049 -2.46987 0
M  V30 2330 C 218.271 2.16426 -3.94309 0
M  V30 2331 C 219.59 3.64266 -2.46978 0
M  V30 2332 H 216.709 0.518306 -0.523954 0
M  V30 2333 H 219.351 0.757321 -1.74255 0
M  V30 2334 H 217.501 3.19361 -2.21225 0
M  V30 2335 H 219.173 1.64221 -4.31079 0
M  V30 2336 H 217.416 1.47925 -4.078 0
M  V30 2337 H 218.087 3.02038 -4.62036 0
M  V30 2338 H 220.563 3.16686 -2.69906 0
M  V30 2339 H 219.439 4.45196 -3.21079 0
M  V30 2340 H 219.7 4.15927 -1.49857 0
M  V30 2341 N 218.759 1.29093 0.90403 0
M  V30 2342 C 219.706 1.13853 2.00764 0
M  V30 2343 C 220.676 0.0330084 1.66067 0
M  V30 2344 O 221.861 0.199733 1.89752 0
M  V30 2345 C 219.001 0.816537 3.35301 0
M  V30 2346 C 218.114 2.00206 3.82807 0
M  V30 2347 C 217.249 1.61983 5.059 0
M  V30 2348 C 216.288 2.77143 5.45764 0
M  V30 2349 N 215.425 2.39346 6.60044 0
M  V30 2350 H 220.265 2.08276 2.13132 0
M  V30 2351 H 217.802 1.03648 1.04381 0
M  V30 2352 H 219.76 0.610557 4.12708 0
M  V30 2353 H 218.39 -0.090779 3.22672 0
M  V30 2354 H 217.442 2.31988 3.01473 0
M  V30 2355 H 218.754 2.86512 4.08304 0
M  V30 2356 H 217.908 1.37649 5.90879 0
M  V30 2357 H 216.647 0.728202 4.82233 0
M  V30 2358 H 215.652 3.02165 4.59322 0
M  V30 2359 H 216.877 3.66964 5.71414 0
M  V30 2360 H 214.823 1.52665 6.37989 0
M  V30 2361 H 214.74 3.19185 6.85315 0
M  V30 2362 H 216.008 2.1832 7.48303 0
M  V30 2363 N 220.237 -1.11381 1.11499 0
M  V30 2364 C 221.167 -2.19509 0.796125 0
M  V30 2365 C 222.148 -1.68458 -0.235796 0
M  V30 2366 O 223.333 -1.93947 -0.0991344 0
M  V30 2367 C 220.463 -3.46475 0.239205 0
M  V30 2368 C 219.417 -4.10744 1.20307 0
M  V30 2369 C 218.743 -5.32293 0.50683 0
M  V30 2370 C 220.043 -4.55597 2.55399 0
M  V30 2371 H 221.737 -2.46439 1.70024 0
M  V30 2372 H 219.283 -1.18446 0.818935 0
M  V30 2373 H 221.236 -4.214 0.00392006 0
M  V30 2374 H 219.96 -3.19006 -0.700206 0
M  V30 2375 H 218.619 -3.37813 1.42399 0
M  V30 2376 H 218.267 -5.01095 -0.437408 0
M  V30 2377 H 217.967 -5.76243 1.1497 0
M  V30 2378 H 219.491 -6.09956 0.280351 0
M  V30 2379 H 220.905 -5.21841 2.37391 0
M  V30 2380 H 219.302 -5.10363 3.15673 0
M  V30 2381 H 220.372 -3.69013 3.14575 0
M  V30 2382 N 221.715 -0.905404 -1.28997 0
M  V30 2383 C 223.126 -0.581953 -1.77398 0
M  V30 2384 C 223.477 0.902552 -1.74208 0
M  V30 2385 O 222.602 1.70584 -1.33154 0
M  V30 2386 C 223.197 -1.04961 -3.22131 0
M  V30 2387 C 221.756 -0.777229 -3.68288 0
M  V30 2388 C 220.903 -1.22109 -2.48967 0
M  V30 2389 H 223.854 -1.08754 -1.15578 0
M  V30 2390 H 223.875 -0.387387 -3.78523 0
M  V30 2391 H 223.387 -2.13008 -3.24421 0
M  V30 2392 H 221.488 0.290383 -3.71467 0
M  V30 2393 H 221.601 -1.37911 -4.58822 0
M  V30 2394 H 219.965 -0.639971 -2.46529 0
M  V30 2395 H 220.748 -2.30972 -2.53982 0
M  V30 2396 N 223.193 1.4272 -0.668489 0
M  V30 2397 C 224.418 2.06484 -0.194758 0
M  V30 2398 C 224.843 1.49862 1.13679 0
M  V30 2399 O 224.201 0.614582 1.70565 0
M  V30 2400 C 224.249 3.60353 -0.133546 0
M  V30 2401 O 223.353 4.02464 0.899806 0
M  V30 2402 H 222.694 0.656137 -0.10188 0
M  V30 2403 H 225.224 1.82964 -0.915722 0
M  V30 2404 H 225.234 4.07976 0.0447041 0
M  V30 2405 H 223.909 4.00938 -1.1055 0
M  V30 2406 H 222.486 3.66402 0.693109 0
M  V30 2407 N 224.671 0.411399 1.52136 0
M  V30 2408 C 225.919 -0.163322 2.01439 0
M  V30 2409 C 226.24 -1.45453 1.29879 0
M  V30 2410 O 225.51 -1.91225 0.4254 0
M  V30 2411 H 224.09 -0.0633447 0.744309 0
M  V30 2412 H 226.752 0.548161 1.87033 0
M  V30 2413 H 225.848 -0.357817 3.10042 0
M  V30 2414 N 226.149 -1.5696 0.141893 0
M  V30 2415 C 227.374 -2.00754 -0.520838 0
M  V30 2416 C 227.799 -1.0213 -1.57959 0
M  V30 2417 O 227.157 0.00371324 -1.813 0
M  V30 2418 C 227.205 -3.43318 -1.10294 0
M  V30 2419 O 226.309 -3.47679 -2.21795 0
M  V30 2420 H 225.65 -0.651564 -0.127908 0
M  V30 2421 H 228.18 -2.03221 0.23712 0
M  V30 2422 H 228.19 -3.82012 -1.43287 0
M  V30 2423 H 226.865 -4.14608 -0.327574 0
M  V30 2424 H 225.442 -3.20824 -1.9007 0
M  V30 2425 N 227.627 0.131896 -1.57047 0
M  V30 2426 C 228.574 1.16236 -1.99393 0
M  V30 2427 C 229.544 1.41863 -0.863943 0
M  V30 2428 O 230.729 1.53946 -1.12718 0
M  V30 2429 C 227.869 2.48708 -2.39245 0
M  V30 2430 C 226.982 2.30127 -3.65603 0
M  V30 2431 C 226.117 3.55738 -3.94492 0
M  V30 2432 C 225.156 3.32259 -5.14073 0
M  V30 2433 N 224.293 4.50039 -5.38896 0
M  V30 2434 H 229.133 0.794251 -2.87221 0
M  V30 2435 H 226.67 0.380707 -1.42088 0
M  V30 2436 H 228.628 3.25969 -2.60384 0
M  V30 2437 H 227.258 2.83437 -1.54478 0
M  V30 2438 H 226.31 1.43845 -3.52154 0
M  V30 2439 H 227.622 2.08746 -4.5302 0
M  V30 2440 H 226.776 4.41423 -4.1621 0
M  V30 2441 H 225.515 3.80138 -3.05526 0
M  V30 2442 H 224.52 2.44963 -4.92212 0
M  V30 2443 H 225.745 3.09242 -6.04604 0
M  V30 2444 H 223.691 4.74584 -4.52886 0
M  V30 2445 H 223.608 4.31716 -6.2061 0
M  V30 2446 H 224.876 5.36895 -5.65123 0
M  V30 2447 N 229.106 1.52395 0.401703 0
M  V30 2448 C 230.053 1.76268 1.48991 0
M  V30 2449 C 231.023 0.605386 1.54675 0
M  V30 2450 O 232.208 0.843742 1.7113 0
M  V30 2451 C 229.348 1.92592 2.86361 0
M  V30 2452 C 228.461 3.20259 2.89928 0
M  V30 2453 C 227.596 3.26972 4.18644 0
M  V30 2454 C 226.635 4.48812 4.16214 0
M  V30 2455 N 225.772 4.52877 5.36514 0
M  V30 2456 H 230.612 2.6914 1.27935 0
M  V30 2457 H 228.149 1.33355 0.620871 0
M  V30 2458 H 230.107 2.0004 3.66115 0
M  V30 2459 H 228.737 1.03093 3.05895 0
M  V30 2460 H 227.789 3.21945 2.02621 0
M  V30 2461 H 229.101 4.10056 2.83999 0
M  V30 2462 H 228.255 3.33533 5.06794 0
M  V30 2463 H 226.994 2.35126 4.27278 0
M  V30 2464 H 225.999 4.4239 3.26453 0
M  V30 2465 H 227.224 5.41961 4.09213 0
M  V30 2466 H 225.17 3.63917 5.45802 0
M  V30 2467 H 225.087 5.36529 5.32609 0
M  V30 2468 H 226.355 4.63676 6.26597 0
M  V30 2469 N 230.584 -0.659388 1.43143 0
M  V30 2470 C 231.83 -1.42145 1.44647 0
M  V30 2471 C 232.163 -1.9408 0.0681907 0
M  V30 2472 O 231.438 -1.71899 -0.910007 0
M  V30 2473 C 231.721 -2.60735 2.48373 0
M  V30 2474 C 231.574 -2.14332 3.95451 0
M  V30 2475 C 232.893 -3.62951 2.48906 0
M  V30 2476 H 230.012 -0.51552 0.526696 0
M  V30 2477 H 232.654 -0.748069 1.74654 0
M  V30 2478 H 230.804 -3.18184 2.22916 0
M  V30 2479 H 232.476 -1.61932 4.31944 0
M  V30 2480 H 230.719 -1.4576 4.08578 0
M  V30 2481 H 231.39 -2.99583 4.63631 0
M  V30 2482 H 233.866 -3.1525 2.71582 0
M  V30 2483 H 232.742 -4.43487 3.23435 0
M  V30 2484 H 233.003 -4.15126 1.52061 0
M  V30 2485 N 232.062 -1.29571 -0.897171 0
M  V30 2486 C 233.311 -1.1706 -1.64256 0
M  V30 2487 C 233.624 0.276476 -1.93636 0
M  V30 2488 O 234.83 0.52294 -2.66416 0
M  V30 2489 C 233.286 -2.0475 -2.95982 0
M  V30 2490 C 232.894 -3.54295 -2.74187 0
M  V30 2491 C 234.638 -2.0097 -3.73914 0
M  V30 2492 C 232.545 -4.34081 -4.01656 0
M  V30 2493 H 231.475 -0.43452 -0.616205 0
M  V30 2494 H 234.126 -1.54229 -0.994268 0
M  V30 2495 H 232.508 -1.60452 -3.62038 0
M  V30 2496 H 233.682 -4.06662 -2.1671 0
M  V30 2497 H 231.997 -3.59773 -2.09648 0
M  V30 2498 H 234.594 -2.57838 -4.68427 0
M  V30 2499 H 234.937 -0.990273 -4.0435 0
M  V30 2500 H 235.47 -2.43325 -3.14703 0
M  V30 2501 H 232.209 -5.36671 -3.76384 0
M  V30 2502 H 231.729 -3.86483 -4.58684 0
M  V30 2503 H 233.408 -4.44877 -4.69781 0
M  V30 2504 N 233.54 1.10788 -1.12088 0
M  V30 2505 C 234.765 1.87002 -0.896949 0
M  V30 2506 C 235.19 1.79933 0.548261 0
M  V30 2507 O 234.548 1.16662 1.38779 0
M  V30 2508 C 234.596 3.3349 -1.37174 0
M  V30 2509 O 233.7 4.08745 -0.547831 0
M  V30 2510 H 233.041 0.580397 -0.322545 0
M  V30 2511 H 235.571 1.39996 -1.49206 0
M  V30 2512 H 235.581 3.84339 -1.36922 0
M  V30 2513 H 234.256 3.37951 -2.42408 0
M  V30 2514 H 232.833 3.6776 -0.617034 0
M  V30 2515 N 235.018 0.912232 1.28515 0
M  V30 2516 C 236.243 0.559774 1.99703 0
M  V30 2517 C 236.668 -0.851393 1.67729 0
M  V30 2518 O 236.026 -1.56875 0.908834 0
M  V30 2519 C 236.074 0.773874 3.52198 0
M  V30 2520 O 235.178 -0.167842 4.12058 0
M  V30 2521 H 234.519 0.21723 0.627461 0
M  V30 2522 H 237.049 1.22725 1.63706 0
M  V30 2523 H 237.059 0.683386 4.02236 0
M  V30 2524 H 235.734 1.80261 3.74805 0
M  V30 2525 H 234.311 -0.0287509 3.72889 0
M  V30 2526 N 236.496 -1.42363 0.676048 0
M  V30 2527 C 237.459 -2.29199 0.00766941 0
M  V30 2528 C 238.459 -1.43389 -0.727745 0
M  V30 2529 O 239.649 -1.64764 -0.56556 0
M  V30 2530 C 236.781 -3.2591 -0.999785 0
M  V30 2531 H 237.974 -2.89794 0.771988 0
M  V30 2532 H 235.527 -1.50024 0.438468 0
M  V30 2533 H 236.262 -2.70256 -1.79255 0
M  V30 2534 H 236.047 -3.89202 -0.475829 0
M  V30 2535 H 237.537 -3.91028 -1.46583 0
M  V30 2536 N 237.974 -0.419461 -1.51915 0
M  V30 2537 C 238.922 0.415502 -2.28859 0
M  V30 2538 C 239.916 1.03674 -1.3397 0
M  V30 2539 O 241.122 0.973757 -1.51387 0
M  V30 2540 H 237.497 0.152786 -0.736315 0
M  V30 2541 H 239.468 -0.254531 -2.97312 0
M  V30 2542 C 238.217 1.51425 -3.12995 0
M  V30 2543 H 237.54 1.04556 -3.85886 0
M  V30 2544 H 238.98 2.07208 -3.6992 0
M  V30 2545 C 237.439 2.48745 -2.27217 0
M  V30 2546 O 237.969 3.52871 -1.9195 0
M  V30 2547 N 236.175 2.19202 -1.90785 0
M  V30 2548 H 235.722 1.34556 -2.19664 0
M  V30 2549 H 235.68 2.84561 -1.33687 0
M  V30 2550 N 239.452 1.56882 -0.150215 0
M  V30 2551 C 240.868 1.58263 0.20617 0
M  V30 2552 C 241.068 1.16464 1.64434 0
M  V30 2553 O 240.124 0.866422 2.3717 0
M  V30 2554 C 241.437 3.00649 -0.0555025 0
M  V30 2555 C 242.985 3.12999 0.00795388 0
M  V30 2556 C 243.46 4.5744 -0.226429 0
M  V30 2557 N 244.951 4.62875 -0.173469 0
M  V30 2558 C 245.686 5.72454 -0.329288 0
M  V30 2559 N 245.182 6.90669 -0.543005 0
M  V30 2560 N 246.975 5.61467 -0.266666 0
M  V30 2561 H 239.126 1.82345 -1.08922 0
M  V30 2562 H 241.389 0.844149 -0.431413 0
M  V30 2563 H 241.095 3.3563 -1.05096 0
M  V30 2564 H 240.969 3.71337 0.66246 0
M  V30 2565 H 243.356 2.77857 0.993966 0
M  V30 2566 H 243.437 2.4479 -0.742388 0
M  V30 2567 H 243.081 4.93287 -1.20956 0
M  V30 2568 H 243.011 5.2378 0.544274 0
M  V30 2569 H 245.502 3.77898 -0.0130709 0
M  V30 2570 H 245.815 7.70045 -0.651922 0
M  V30 2571 H 244.16 6.92581 -0.579366 0
M  V30 2572 H 247.351 4.67992 -0.100441 0
M  V30 2573 H 247.524 6.46816 -0.391535 0
M  V30 2574 N 240.93 -0.123565 1.57115 0
M  V30 2575 C 241.893 -1.13583 1.99076 0
M  V30 2576 C 242.893 -1.34564 0.880296 0
M  V30 2577 O 244.083 -1.31158 1.14644 0
M  V30 2578 C 241.215 -2.49128 2.32698 0
M  V30 2579 H 242.408 -0.775287 2.89706 0
M  V30 2580 H 239.961 -0.36771 1.51913 0
M  V30 2581 H 240.696 -2.90111 1.44934 0
M  V30 2582 H 240.481 -2.35255 3.13684 0
M  V30 2583 H 241.971 -3.2199 2.65918 0
M  V30 2584 N 242.408 -1.52605 -0.393616 0
M  V30 2585 C 243.654 -1.67672 -1.14079 0
M  V30 2586 C 243.987 -0.413121 -1.89755 0
M  V30 2587 O 243.262 0.588952 -1.85369 0
M  V30 2588 C 243.545 -2.9088 -2.12276 0
M  V30 2589 C 243.398 -4.27329 -1.40394 0
M  V30 2590 C 244.717 -3.09628 -3.12759 0
M  V30 2591 H 241.836 -0.610168 -0.413356 0
M  V30 2592 H 244.478 -1.85193 -0.424696 0
M  V30 2593 H 242.628 -2.76073 -2.73342 0
M  V30 2594 H 244.3 -4.53894 -0.82327 0
M  V30 2595 H 242.543 -4.2802 -0.705801 0
M  V30 2596 H 243.214 -5.09615 -2.12123 0
M  V30 2597 H 245.69 -3.23436 -2.61779 0
M  V30 2598 H 244.566 -3.97322 -3.78717 0
M  V30 2599 H 244.827 -2.23637 -3.81365 0
M  V30 2600 N 243.887 0.651787 -1.4349 0
M  V30 2601 C 245.133 1.41376 -1.45398 0
M  V30 2602 C 245.466 1.94041 -0.0784823 0
M  V30 2603 O 244.741 1.72379 0.900878 0
M  V30 2604 C 245.024 2.59414 -2.49752 0
M  V30 2605 C 244.877 2.12232 -3.96582 0
M  V30 2606 C 246.196 3.61626 -2.50827 0
M  V30 2607 H 243.315 0.512719 -0.529422 0
M  V30 2608 H 245.957 0.738796 -1.75048 0
M  V30 2609 H 244.107 3.16997 -2.246 0
M  V30 2610 H 245.779 1.59639 -4.32797 0
M  V30 2611 H 244.022 1.43592 -4.09346 0
M  V30 2612 H 244.693 2.9712 -4.65214 0
M  V30 2613 H 247.169 3.13805 -2.7325 0
M  V30 2614 H 246.045 4.41766 -3.25783 0
M  V30 2615 H 246.306 4.14314 -1.5426 0
M  V30 2616 N 245.365 1.30045 0.890287 0
M  V30 2617 C 246.613 1.18327 1.63839 0
M  V30 2618 C 246.934 -0.263455 1.93212 0
M  V30 2619 O 246.204 -1.17856 1.56482 0
M  V30 2620 H 244.784 0.434933 0.607324 0
M  V30 2621 H 247.446 1.631 1.06698 0
M  V30 2622 H 246.542 1.74024 2.59079 0
M  V30 2623 N 246.843 -1.10192 1.12674 0
M  V30 2624 C 248.089 -1.82475 0.884915 0
M  V30 2625 C 248.422 -1.85093 -0.58773 0
M  V30 2626 O 247.697 -1.3134 -1.43457 0
M  V30 2627 C 247.98 -3.29018 1.46353 0
M  V30 2628 C 247.833 -3.34718 3.00473 0
M  V30 2629 C 249.152 -4.25473 1.12519 0
M  V30 2630 H 246.271 -0.662492 0.322915 0
M  V30 2631 H 248.913 -1.2913 1.39375 0
M  V30 2632 H 247.063 -3.74576 1.03077 0
M  V30 2633 H 248.735 -2.97622 3.52447 0
M  V30 2634 H 246.978 -2.74541 3.35872 0
M  V30 2635 H 247.649 -4.37918 3.36053 0
M  V30 2636 H 250.125 -3.88161 1.499 0
M  V30 2637 H 249.001 -5.26365 1.55663 0
M  V30 2638 H 249.262 -4.42084 0.0377407 0
M  V30 2639 N 248.321 -0.919034 -1.28029 0
M  V30 2640 C 249.567 -0.555757 -1.95036 0
M  V30 2641 C 249.9 0.899198 -1.72128 0
M  V30 2642 O 249.175 1.64023 -1.04531 0
M  V30 2643 C 249.458 -0.872024 -3.49382 0
M  V30 2644 C 249.311 -2.3801 -3.81669 0
M  V30 2645 C 250.63 -0.37185 -4.38526 0
M  V30 2646 H 247.749 -0.203386 -0.708381 0
M  V30 2647 H 250.391 -1.14924 -1.51303 0
M  V30 2648 H 248.541 -0.366946 -3.86763 0
M  V30 2649 H 250.213 -2.9562 -3.54128 0
M  V30 2650 H 248.456 -2.83289 -3.28526 0
M  V30 2651 H 249.127 -2.55192 -4.8947 0
M  V30 2652 H 251.603 -0.804602 -4.08247 0
M  V30 2653 H 250.479 -0.622173 -5.45362 0
M  V30 2654 H 250.74 0.727934 -4.36066 0
M  V30 2655 N 249.799 1.42003 -0.683588 0
M  V30 2656 C 250.762 2.29191 -0.0198243 0
M  V30 2657 C 251.762 1.43773 0.72013 0
M  V30 2658 O 252.952 1.65061 0.556815 0
M  V30 2659 C 250.084 3.26435 0.982487 0
M  V30 2660 H 251.277 2.8938 -0.787345 0
M  V30 2661 H 248.83 1.49789 -0.446418 0
M  V30 2662 H 249.565 2.71203 1.77819 0
M  V30 2663 H 249.35 3.89449 0.455182 0
M  V30 2664 H 250.84 3.918 1.44508 0
M  V30 2665 N 251.277 0.427512 1.51691 0
M  V30 2666 C 252.525 -0.141948 2.01601 0
M  V30 2667 C 252.846 -1.44067 1.31414 0
M  V30 2668 O 252.116 -1.90763 0.445658 0
M  V30 2669 H 250.696 -0.0554468 0.744939 0
M  V30 2670 H 253.358 0.567968 1.86441 0
M  V30 2671 H 252.454 -0.324913 3.10404 0
M  V30 2672 N 252.755 -1.56801 0.158532 0
M  V30 2673 C 254.003 -1.96102 -0.488712 0
M  V30 2674 C 254.324 -1.04498 -1.64636 0
M  V30 2675 O 253.594 -0.108783 -1.95598 0
M  V30 2676 H 252.174 -0.724102 -0.183535 0
M  V30 2677 H 254.836 -1.93457 0.236728 0
M  V30 2678 H 253.932 -3.00097 -0.857219 0
M  V30 2679 N 254.233 0.115231 -1.57178 0
M  V30 2680 C 255.481 0.820727 -1.84685 0
M  V30 2681 C 255.802 1.80237 -0.744279 0
M  V30 2682 O 255.072 1.94529 0.231375 0
M  V30 2683 H 253.652 0.306084 -0.681411 0
M  V30 2684 H 256.314 0.101656 -1.94635 0
M  V30 2685 H 255.41 1.36366 -2.80733 0
M  V30 2686 N 255.711 1.52812 0.385517 0
M  V30 2687 C 257.127 1.4214 0.725829 0
M  V30 2688 C 257.327 0.544589 1.94001 0
M  V30 2689 O 256.383 0.0193693 2.52493 0
M  V30 2690 C 257.696 2.85042 0.957668 0
M  V30 2691 C 259.244 2.94543 1.05892 0
M  V30 2692 C 259.719 4.38464 1.32337 0
M  V30 2693 N 261.21 4.41804 1.39151 0
M  V30 2694 C 261.945 5.5025 1.61285 0
M  V30 2695 N 261.441 6.68775 1.80866 0
M  V30 2696 N 263.234 5.37798 1.63492 0
M  V30 2697 H 255.385 2.08338 -0.413383 0
M  V30 2698 H 257.648 0.940016 -0.122775 0
M  V30 2699 H 257.354 3.51431 0.137568 0
M  V30 2700 H 257.228 3.27505 1.87137 0
M  V30 2701 H 259.615 2.28321 1.86959 0
M  V30 2702 H 259.696 2.55504 0.123057 0
M  V30 2703 H 259.34 5.05254 0.517793 0
M  V30 2704 H 259.27 4.75059 2.27214 0
M  V30 2705 H 261.761 3.56377 1.25713 0
M  V30 2706 H 262.074 7.47197 1.97271 0
M  V30 2707 H 260.419 6.71797 1.78083 0
M  V30 2708 H 263.61 4.44171 1.47749 0
M  V30 2709 H 263.783 6.22382 1.80402 0
M  V30 2710 N 257.189 -0.644168 1.43834 0
M  V30 2711 C 258.438 -1.39985 1.45214 0
M  V30 2712 C 258.751 -1.95421 0.0835494 0
M  V30 2713 O 259.957 -2.71488 -0.0251748 0
M  V30 2714 C 258.413 -2.53384 2.55587 0
M  V30 2715 C 258.021 -2.04517 3.98594 0
M  V30 2716 C 259.765 -3.30685 2.66172 0
M  V30 2717 C 257.672 -3.1518 5.00416 0
M  V30 2718 H 256.602 -0.526005 0.540218 0
M  V30 2719 H 259.253 -0.694367 1.69855 0
M  V30 2720 H 257.635 -3.26446 2.24163 0
M  V30 2721 H 258.809 -1.38405 4.39523 0
M  V30 2722 H 257.124 -1.40068 3.92135 0
M  V30 2723 H 259.721 -4.13158 3.39418 0
M  V30 2724 H 260.064 -3.79312 1.71546 0
M  V30 2725 H 260.597 -2.64708 2.96942 0
M  V30 2726 H 257.336 -2.71511 5.96625 0
M  V30 2727 H 256.856 -3.79974 4.64091 0
M  V30 2728 H 258.535 -3.80166 5.23529 0
M  V30 2729 N 258.668 -1.30515 -0.883378 0
M  V30 2730 C 259.945 -1.10086 -1.6168 0
M  V30 2731 C 260.325 0.349269 -2.08191 0
M  V30 2732 O 259.673 1.34105 -1.85008 0
M  V30 2733 C 259.883 -2.10315 -2.78511 0
M  V30 2734 C 261.231 -2.42119 -3.48803 0
M  V30 2735 O 262.255 -2.08638 -2.88702 0
M  V30 2736 O 261.114 -2.99396 -4.57192 0
M  V30 2737 H 258.208 -0.422907 -0.710689 0
M  V30 2738 H 260.754 -1.41947 -0.930015 0
M  V30 2739 H 259.526 -3.07917 -2.41459 0
M  V30 2740 H 259.149 -1.79282 -3.54886 0
M  V30 2741 N 260.146 1.09593 -1.13257 0
M  V30 2742 C 261.093 2.1618 -0.808381 0
M  V30 2743 C 262.063 1.64517 0.228754 0
M  V30 2744 O 263.248 1.9053 0.101381 0
M  V30 2745 C 260.388 3.43973 -0.278675 0
M  V30 2746 C 259.501 4.09545 -1.37466 0
M  V30 2747 C 258.636 5.25088 -0.803479 0
M  V30 2748 C 257.675 5.82579 -1.87799 0
M  V30 2749 N 256.812 6.89486 -1.32488 0
M  V30 2750 H 261.652 2.43254 -1.72138 0
M  V30 2751 H 259.189 1.19392 -0.859294 0
M  V30 2752 H 261.147 4.17174 0.0465583 0
M  V30 2753 H 259.777 3.17223 0.597459 0
M  V30 2754 H 258.829 3.34226 -1.81652 0
M  V30 2755 H 260.141 4.48307 -2.18684 0
M  V30 2756 H 259.295 6.05178 -0.429427 0
M  V30 2757 H 258.034 4.87684 0.0397956 0
M  V30 2758 H 257.039 5.01152 -2.26113 0
M  V30 2759 H 258.264 6.22045 -2.72463 0
M  V30 2760 H 256.21 6.54064 -0.503575 0
M  V30 2761 H 256.127 7.27007 -2.07355 0
M  V30 2762 H 257.395 7.73336 -0.978336 0
M  V30 2763 N 261.624 0.925811 1.2754 0
M  V30 2764 C 263.035 0.610102 1.7645 0
M  V30 2765 C 263.386 -0.874723 1.75622 0
M  V30 2766 O 262.511 -1.68444 1.35851 0
M  V30 2767 C 263.106 1.10073 3.20421 0
M  V30 2768 C 261.665 0.835723 3.67005 0
M  V30 2769 C 260.812 1.26054 2.46993 0
M  V30 2770 H 263.763 1.10579 1.13833 0
M  V30 2771 H 263.784 0.447557 3.77859 0
M  V30 2772 H 263.296 2.18143 3.20991 0
M  V30 2773 H 261.397 -0.231249 3.71882 0
M  V30 2774 H 261.51 1.45193 4.56569 0
M  V30 2775 H 259.874 0.679111 2.45479 0
M  V30 2776 H 260.657 2.34984 2.50275 0
M  V30 2777 N 263.102 -1.41638 0.69111 0
M  V30 2778 C 264.351 -2.00526 0.217318 0
M  V30 2779 C 264.664 -1.55353 -1.18848 0
M  V30 2780 O 265.87 -2.06769 -1.75951 0
M  V30 2781 C 264.326 -3.58313 0.337639 0
M  V30 2782 C 263.934 -4.12469 1.74852 0
M  V30 2783 C 265.678 -4.24431 -0.0766066 0
M  V30 2784 C 263.585 -5.62675 1.82074 0
M  V30 2785 H 262.515 -0.750008 0.0774893 0
M  V30 2786 H 265.166 -1.6217 0.858661 0
M  V30 2787 H 263.548 -3.9425 -0.371879 0
M  V30 2788 H 264.722 -3.8796 2.48644 0
M  V30 2789 H 263.037 -3.58861 2.11205 0
M  V30 2790 H 265.634 -5.34683 -0.0430284 0
M  V30 2791 H 265.977 -4.01101 -1.1146 0
M  V30 2792 H 266.51 -3.93512 0.582476 0
M  V30 2793 H 263.249 -5.90826 2.83911 0
M  V30 2794 H 262.769 -5.89124 1.12661 0
M  V30 2795 H 264.448 -6.27371 1.58159 0
M  V30 2796 N 264.58 -0.43555 -1.51462 0
M  V30 2797 C 265.51 0.367376 -2.30592 0
M  V30 2798 C 266.491 1.02263 -1.35928 0
M  V30 2799 O 267.676 1.02661 -1.64847 0
M  V30 2800 C 264.806 1.46983 -3.14664 0
M  V30 2801 C 263.76 0.938161 -4.17591 0
M  V30 2802 C 263.086 2.13622 -4.90173 0
M  V30 2803 C 264.386 -0.0261621 -5.22293 0
M  V30 2804 H 266.08 -0.292969 -2.97963 0
M  V30 2805 H 263.626 -0.14234 -1.43295 0
M  V30 2806 H 265.579 2.03873 -3.688 0
M  V30 2807 H 264.303 2.15843 -2.4511 0
M  V30 2808 H 262.962 0.391481 -3.64504 0
M  V30 2809 H 262.61 2.81098 -4.17124 0
M  V30 2810 H 262.31 1.78688 -5.59772 0
M  V30 2811 H 263.834 2.7107 -5.47132 0
M  V30 2812 H 265.248 0.452384 -5.71512 0
M  V30 2813 H 263.645 -0.287992 -5.99409 0
M  V30 2814 H 264.715 -0.963391 -4.75233 0
M  V30 2815 N 266.058 1.56714 -0.166846 0
M  V30 2816 C 267.005 2.17746 0.765193 0
M  V30 2817 C 267.975 1.11614 1.23011 0
M  V30 2818 O 269.16 1.39745 1.29908 0
M  V30 2819 C 266.3 2.81882 1.9909 0
M  V30 2820 C 265.413 4.02462 1.56997 0
M  V30 2821 C 264.548 4.54537 2.749 0
M  V30 2822 C 263.587 5.67538 2.29275 0
M  V30 2823 N 262.724 6.14142 3.40255 0
M  V30 2824 H 267.564 2.97048 0.237952 0
M  V30 2825 H 265.101 1.4672 0.105725 0
M  V30 2826 H 267.059 3.17221 2.70974 0
M  V30 2827 H 265.689 2.05191 2.49192 0
M  V30 2828 H 264.741 3.72973 0.748037 0
M  V30 2829 H 266.053 4.84273 1.19503 0
M  V30 2830 H 265.207 4.92035 3.54946 0
M  V30 2831 H 263.946 3.71774 3.1565 0
M  V30 2832 H 262.951 5.29597 1.47674 0
M  V30 2833 H 264.176 6.52099 1.89588 0
M  V30 2834 H 262.122 5.3431 3.8059 0
M  V30 2835 H 262.039 6.9093 3.06841 0
M  V30 2836 H 263.307 6.56289 4.206 0
M  V30 2837 N 267.536 -0.106894 1.57237 0
M  V30 2838 C 268.499 -1.11466 2.0027 0
M  V30 2839 C 269.499 -1.33623 0.894519 0
M  V30 2840 O 270.689 -1.29935 1.16028 0
M  V30 2841 C 267.821 -2.46646 2.35327 0
M  V30 2842 H 269.014 -0.744516 2.90512 0
M  V30 2843 H 266.567 -0.351576 1.52295 0
M  V30 2844 H 267.302 -2.88558 1.48003 0
M  V30 2845 H 267.087 -2.31915 3.16161 0
M  V30 2846 H 268.577 -3.19151 2.69318 0
M  V30 2847 N 269.014 -1.53014 -0.377408 0
M  V30 2848 C 270.262 -1.6829 -1.11906 0
M  V30 2849 C 270.583 -0.431206 -1.90173 0
M  V30 2850 O 269.853 0.554595 -1.87886 0
M  V30 2851 H 268.433 -0.620371 -0.416112 0
M  V30 2852 H 271.095 -1.90167 -0.426893 0
M  V30 2853 H 270.191 -2.53862 -1.8155 0
M  V30 2854 N 270.492 0.636531 -1.44174 0
M  V30 2855 C 271.908 0.954104 -1.27941 0
M  V30 2856 C 272.108 2.0039 -0.211248 0
M  V30 2857 O 271.164 2.49236 0.404695 0
M  V30 2858 C 272.477 1.4225 -2.64925 0
M  V30 2859 C 274.025 1.53827 -2.72592 0
M  V30 2860 C 274.5 2.04053 -4.10032 0
M  V30 2861 N 275.991 2.11331 -4.12182 0
M  V30 2862 C 276.726 2.51352 -5.15374 0
M  V30 2863 N 276.222 2.90549 -6.2893 0
M  V30 2864 N 278.015 2.51438 -5.02728 0
M  V30 2865 H 270.166 -0.0578386 -2.12321 0
M  V30 2866 H 272.429 0.0367406 -0.947288 0
M  V30 2867 H 272.135 0.725466 -3.44136 0
M  V30 2868 H 272.009 2.39451 -2.9145 0
M  V30 2869 H 274.396 2.22628 -1.93702 0
M  V30 2870 H 274.477 0.550154 -2.49814 0
M  V30 2871 H 274.121 1.35848 -4.89395 0
M  V30 2872 H 274.051 3.03726 -4.30184 0
M  V30 2873 H 276.542 1.83745 -3.30222 0
M  V30 2874 H 276.855 3.19884 -7.03487 0
M  V30 2875 H 275.2 2.88313 -6.32377 0
M  V30 2876 H 278.391 2.20203 -4.13072 0
M  V30 2877 H 278.564 2.82304 -5.83274 0
M  V30 2878 N 271.97 1.30982 0.876444 0
M  V30 2879 C 272.933 1.18054 1.96459 0
M  V30 2880 C 273.933 0.109399 1.60427 0
M  V30 2881 O 275.123 0.358173 1.70478 0
M  V30 2882 C 272.255 0.810616 3.31122 0
M  V30 2883 H 273.448 2.14735 2.09354 0
M  V30 2884 H 271.001 1.145 1.06392 0
M  V30 2885 H 271.736 -0.155322 3.23928 0
M  V30 2886 H 271.521 1.58481 3.58645 0
M  V30 2887 H 273.011 0.743876 4.10921 0
M  V30 2888 N 273.449 -1.08991 1.13837 0
M  V30 2889 C 274.679 -1.84743 0.924859 0
M  V30 2890 C 275.087 -1.81629 -0.529874 0
M  V30 2891 O 274.43 -1.21397 -1.37872 0
M  V30 2892 C 274.492 -3.33568 1.34061 0
M  V30 2893 C 274.156 -3.60425 2.80968 0
M  V30 2894 C 275.153 -3.55771 3.79108 0
M  V30 2895 C 272.838 -3.88627 3.18236 0
M  V30 2896 C 274.832 -3.78939 5.12527 0
M  V30 2897 C 272.519 -4.11449 4.51833 0
M  V30 2898 C 273.517 -4.06598 5.48787 0
M  V30 2899 O 273.205 -4.28826 6.79973 0
M  V30 2900 H 272.937 -0.590258 0.329502 0
M  V30 2901 H 275.491 -1.38598 1.51591 0
M  V30 2902 H 273.721 -3.80442 0.692853 0
M  V30 2903 H 275.41 -3.90743 1.09886 0
M  V30 2904 H 276.176 -3.34005 3.51661 0
M  V30 2905 H 272.055 -3.91526 2.43369 0
M  V30 2906 H 275.599 -3.75068 5.88192 0
M  V30 2907 H 271.496 -4.32698 4.79002 0
M  V30 2908 H 272.264 -4.46264 6.86142 0
M  V30 2909 N 274.927 -0.932562 -1.27047 0
M  V30 2910 C 275.877 -0.406392 -2.24349 0
M  V30 2911 C 276.861 0.492066 -1.53191 0
M  V30 2912 O 278.053 0.328717 -1.73921 0
M  V30 2913 C 275.182 0.335214 -3.41659 0
M  V30 2914 C 274.268 -0.58004 -4.20115 0
M  V30 2915 N 274.659 -1.70203 -4.76303 0
M  V30 2916 C 272.957 -0.383974 -4.44344 0
M  V30 2917 C 273.658 -2.27167 -5.35509 0
M  V30 2918 N 272.634 -1.56068 -5.20715 0
M  V30 2919 H 276.436 -1.26299 -2.65378 0
M  V30 2920 H 273.95 -0.787408 -1.42034 0
M  V30 2921 H 275.947 0.729142 -4.10474 0
M  V30 2922 H 274.607 1.18868 -3.0216 0
M  V30 2923 H 275.618 -2.08433 -4.74106 0
M  V30 2924 H 272.295 0.428436 -4.15296 0
M  V30 2925 H 273.685 -3.21654 -5.89905 0
M  V30 2926 N 276.405 1.4127 -0.698611 0
M  V30 2927 C 277.352 2.30773 -0.0352094 0
M  V30 2928 C 278.322 1.47273 0.768111 0
M  V30 2929 O 279.507 1.76053 0.735524 0
M  V30 2930 C 276.647 3.33346 0.893 0
M  V30 2931 C 275.76 4.31924 0.0809695 0
M  V30 2932 C 274.895 5.21566 1.0071 0
M  V30 2933 C 273.934 6.11811 0.188155 0
M  V30 2934 N 273.071 6.93926 1.06825 0
M  V30 2935 H 277.911 2.86943 -0.804207 0
M  V30 2936 H 275.448 1.4132 -0.408294 0
M  V30 2937 H 277.406 3.91368 1.44523 0
M  V30 2938 H 276.036 2.78719 1.62836 0
M  V30 2939 H 275.088 3.75825 -0.588224 0
M  V30 2940 H 276.4 4.95716 -0.553801 0
M  V30 2941 H 275.554 5.84437 1.62845 0
M  V30 2942 H 274.293 4.58008 1.67572 0
M  V30 2943 H 273.298 5.47986 -0.446254 0
M  V30 2944 H 274.523 6.77425 -0.476716 0
M  V30 2945 H 272.469 6.32973 1.72283 0
M  V30 2946 H 272.386 7.54416 0.489123 0
M  V30 2947 H 273.654 7.61262 1.67632 0
M  V30 2948 N 277.883 0.443576 1.51229 0
M  V30 2949 C 279.113 -0.119117 2.06256 0
M  V30 2950 C 279.521 -1.36471 1.31043 0
M  V30 2951 O 278.864 -1.80034 0.365151 0
M  V30 2952 C 278.926 -0.500546 3.55998 0
M  V30 2953 C 278.59 0.639125 4.52509 0
M  V30 2954 C 279.587 1.51311 4.97394 0
M  V30 2955 C 277.272 0.821632 4.95535 0
M  V30 2956 C 279.266 2.55425 5.83984 0
M  V30 2957 C 276.953 1.86603 5.81913 0
M  V30 2958 C 277.951 2.73072 6.26036 0
M  V30 2959 O 277.639 3.75718 7.10698 0
M  V30 2960 H 277.371 -0.00857665 0.675946 0
M  V30 2961 H 279.925 0.623288 1.95715 0
M  V30 2962 H 278.155 -1.29575 3.64345 0
M  V30 2963 H 279.844 -0.995116 3.93513 0
M  V30 2964 H 280.61 1.38367 4.64844 0
M  V30 2965 H 276.489 0.158149 4.60729 0
M  V30 2966 H 280.033 3.22949 6.18344 0
M  V30 2967 H 275.93 1.99564 6.13876 0
M  V30 2968 H 276.698 3.72374 7.2889 0
M  V30 2969 N 279.361 -1.56624 0.175154 0
M  V30 2970 C 280.308 -2.18149 -0.753634 0
M  V30 2971 C 281.278 -1.12265 -1.22417 0
M  V30 2972 O 282.463 -1.40432 -1.29165 0
M  V30 2973 C 279.603 -2.82933 -1.97592 0
M  V30 2974 C 278.716 -4.03289 -1.5486 0
M  V30 2975 C 277.851 -4.55988 -2.72485 0
M  V30 2976 C 276.89 -5.68746 -2.26262 0
M  V30 2977 N 276.027 -6.15938 -3.36994 0
M  V30 2978 H 280.867 -2.9717 -0.222195 0
M  V30 2979 H 278.404 -1.46774 -0.0979422 0
M  V30 2980 H 280.362 -3.18653 -2.69288 0
M  V30 2981 H 278.992 -2.06509 -2.481 0
M  V30 2982 H 278.044 -3.73364 -0.728246 0
M  V30 2983 H 279.356 -4.849 -1.16933 0
M  V30 2984 H 278.51 -4.9391 -3.52332 0
M  V30 2985 H 277.249 -3.73443 -3.13674 0
M  V30 2986 H 276.254 -5.30372 -1.44863 0
M  V30 2987 H 277.479 -6.53095 -1.86127 0
M  V30 2988 H 275.425 -5.36321 -3.77751 0
M  V30 2989 H 275.342 -6.92548 -3.03172 0
M  V30 2990 H 276.61 -6.58511 -4.17114 0
M  V30 2991 N 280.839 0.0985539 -1.57292 0
M  V30 2992 C 281.802 1.10402 -2.00858 0
M  V30 2993 C 282.802 1.33146 -0.901593 0
M  V30 2994 O 283.992 1.29318 -1.16716 0
M  V30 2995 C 281.124 2.45394 -2.36632 0
M  V30 2996 H 282.317 0.729099 -2.90902 0
M  V30 2997 H 279.87 0.343495 -1.52479 0
M  V30 2998 H 280.605 2.87769 -1.49531 0
M  V30 2999 H 280.39 2.30235 -3.17387 0
M  V30 3000 H 281.88 3.17718 -2.71007 0
M  V30 3001 N 282.317 1.53212 0.369288 0
M  V30 3002 C 283.264 1.79388 1.45219 0
M  V30 3003 C 284.234 0.638059 1.53356 0
M  V30 3004 O 285.419 0.879852 1.69302 0
M  V30 3005 C 282.559 1.98623 2.82211 0
M  V30 3006 C 281.672 3.26337 2.8307 0
M  V30 3007 C 280.807 3.35779 4.11614 0
M  V30 3008 C 279.846 4.5754 4.06601 0
M  V30 3009 N 278.983 4.64155 5.26787 0
M  V30 3010 H 283.823 2.71794 1.22198 0
M  V30 3011 H 281.36 1.34642 0.592444 0
M  V30 3012 H 283.318 2.07761 3.61789 0
M  V30 3013 H 281.948 1.09558 3.03639 0
M  V30 3014 H 281 3.26171 1.95747 0
M  V30 3015 H 282.312 4.15988 2.75237 0
M  V30 3016 H 281.466 3.44208 4.99606 0
M  V30 3017 H 280.205 2.44137 4.22195 0
M  V30 3018 H 279.21 4.49215 3.16996 0
M  V30 3019 H 280.435 5.50519 3.97625 0
M  V30 3020 H 278.381 3.75413 5.3796 0
M  V30 3021 H 278.298 5.47706 5.21109 0
M  V30 3022 H 279.566 4.76863 6.16621 0
M  V30 3023 N 283.795 -0.628877 1.44509 0
M  V30 3024 C 285.211 -0.947305 1.28446 0
M  V30 3025 C 285.411 -2.00275 0.221872 0
M  V30 3026 O 284.467 -2.49447 -0.391471 0
M  V30 3027 C 285.78 -1.40843 2.65676 0
M  V30 3028 C 287.328 -1.52379 2.73404 0
M  V30 3029 C 287.803 -2.01875 4.11109 0
M  V30 3030 N 289.294 -2.09142 4.13296 0
M  V30 3031 C 290.029 -2.48615 5.16699 0
M  V30 3032 N 289.525 -2.87209 6.30462 0
M  V30 3033 N 291.318 -2.48768 5.04054 0
M  V30 3034 H 283.469 0.0690977 2.12288 0
M  V30 3035 H 285.732 -0.0317164 0.947469 0
M  V30 3036 H 285.438 -0.707206 3.44516 0
M  V30 3037 H 285.312 -2.37902 2.92716 0
M  V30 3038 H 287.699 -2.21598 1.9488 0
M  V30 3039 H 287.78 -0.536898 2.50102 0
M  V30 3040 H 287.424 -1.3325 4.90109 0
M  V30 3041 H 287.354 -3.0144 4.31789 0
M  V30 3042 H 289.845 -1.81991 3.31191 0
M  V30 3043 H 290.158 -3.16149 7.05174 0
M  V30 3044 H 288.503 -2.84955 6.33897 0
M  V30 3045 H 291.694 -2.18009 4.14234 0
M  V30 3046 H 291.867 -2.79207 5.84763 0
M  V30 3047 N 285.273 -1.31445 -0.869486 0
M  V30 3048 C 286.221 -1.19067 -1.99814 0
M  V30 3049 C 287.215 -0.0988569 -1.69111 0
M  V30 3050 O 288.421 -0.260781 -1.78101 0
M  V30 3051 H 284.796 -0.368677 -0.655425 0
M  V30 3052 H 286.767 -2.14555 -2.07385 0
M  V30 3053 C 285.516 -0.915323 -3.35436 0
M  V30 3054 H 284.839 -1.74759 -3.59582 0
M  V30 3055 H 286.279 -0.868895 -4.15001 0
M  V30 3056 C 284.738 0.381928 -3.34728 0
M  V30 3057 O 285.268 1.39857 -3.76567 0
M  V30 3058 N 283.474 0.398633 -2.87853 0
M  V30 3059 H 283.021 -0.429186 -2.54 0
M  V30 3060 H 282.979 1.26651 -2.87762 0
M  V30 3061 N 286.751 1.08385 -1.14413 0
M  V30 3062 C 287.991 1.8238 -0.922868 0
M  V30 3063 C 288.355 1.84225 0.540842 0
M  V30 3064 O 289.556 2.53985 0.880058 0
M  V30 3065 C 287.827 3.24048 -1.50757 0
M  V30 3066 S 289.386 4.14917 -1.4279 0
M  V30 3067 H 286.204 0.628524 -0.332384 0
M  V30 3068 H 288.806 1.30278 -1.45766 0
M  V30 3069 H 287.51 3.20288 -2.56601 0
M  V30 3070 H 287.041 3.81224 -0.971178 0
M  V30 3071 H 289.056 4.94473 -0.413582 0
M  V30 3072 N 288.23 0.939286 1.26551 0
M  V30 3073 C 289.476 0.596234 1.94465 0
M  V30 3074 C 289.831 -0.855013 1.72358 0
M  V30 3075 O 289.124 -1.6034 1.04889 0
M  V30 3076 C 289.318 0.872106 3.46596 0
M  V30 3077 C 289.147 2.34862 3.83497 0
M  V30 3078 C 287.917 3.00344 4.06352 0
M  V30 3079 C 290.115 3.32697 3.92195 0
M  V30 3080 N 288.097 4.38027 4.30123 0
M  V30 3081 C 289.468 4.55631 4.20476 0
M  V30 3082 C 291.523 3.27747 3.74815 0
M  V30 3083 C 290.226 5.74233 4.33185 0
M  V30 3084 C 292.252 4.45672 3.88755 0
M  V30 3085 C 291.614 5.67388 4.17433 0
M  V30 3086 H 287.713 0.268515 0.734455 0
M  V30 3087 H 290.297 1.2083 1.5267 0
M  V30 3088 H 288.468 0.289102 3.87323 0
M  V30 3089 H 290.2 0.490513 4.01716 0
M  V30 3090 H 286.955 2.50969 4.01636 0
M  V30 3091 H 287.379 5.09288 4.46044 0
M  V30 3092 H 292.021 2.34703 3.51673 0
M  V30 3093 H 289.739 6.67731 4.55149 0
M  V30 3094 H 293.325 4.43372 3.76713 0
M  V30 3095 H 292.205 6.57115 4.27983 0
M  V30 3096 N 289.708 -1.40897 0.706093 0
M  V30 3097 C 291.119 -1.84023 0.315052 0
M  V30 3098 C 291.47 -1.5906 -1.14866 0
M  V30 3099 O 290.595 -1.06651 -1.88293 0
M  V30 3100 C 291.19 -3.34055 0.565038 0
M  V30 3101 C 289.749 -3.7571 0.227806 0
M  V30 3102 C 288.896 -2.64204 0.842122 0
M  V30 3103 H 291.847 -1.303 0.905963 0
M  V30 3104 H 291.868 -3.80107 -0.172843 0
M  V30 3105 H 291.38 -3.52192 1.63042 0
M  V30 3106 H 289.481 -3.63172 -0.832895 0
M  V30 3107 H 289.594 -4.74103 0.690174 0
M  V30 3108 H 287.958 -2.53255 0.270893 0
M  V30 3109 H 288.741 -2.85155 1.91158 0
M  V30 3110 N 291.186 -0.45159 -1.50991 0
M  V30 3111 C 292.602 -0.104647 -1.59257 0
M  V30 3112 C 292.802 1.38728 -1.4614 0
M  V30 3113 O 291.858 2.15866 -1.30989 0
M  V30 3114 C 293.171 -0.637468 -2.93865 0
M  V30 3115 C 294.719 -0.599166 -3.07212 0
M  V30 3116 C 295.194 -1.1092 -4.44366 0
M  V30 3117 N 296.685 -1.06778 -4.50725 0
M  V30 3118 C 297.42 -1.43314 -5.55201 0
M  V30 3119 N 296.916 -1.87204 -6.67028 0
M  V30 3120 N 298.709 -1.3504 -5.45638 0
M  V30 3121 H 290.86 -1.42214 -1.57762 0
M  V30 3122 H 293.123 -0.586921 -0.744465 0
M  V30 3123 H 292.829 -1.68187 -3.08879 0
M  V30 3124 H 292.703 -0.0702139 -3.77135 0
M  V30 3125 H 295.09 0.436277 -2.91857 0
M  V30 3126 H 295.171 -1.20299 -2.25747 0
M  V30 3127 H 294.815 -2.14318 -4.60467 0
M  V30 3128 H 294.745 -0.481773 -5.24392 0
M  V30 3129 H 297.236 -0.745643 -3.70471 0
M  V30 3130 H 297.549 -2.13282 -7.42786 0
M  V30 3131 H 295.894 -1.91142 -6.68199 0
M  V30 3132 H 299.085 -1.00607 -4.57161 0
M  V30 3133 H 299.258 -1.63841 -6.26945 0
M  V30 3134 N 292.664 1.56529 -0.183458 0
M  V30 3135 C 293.91 1.97537 0.459036 0
M  V30 3136 C 294.243 1.06989 1.62071 0
M  V30 3137 O 293.518 0.11948 1.94133 0
M  V30 3138 C 293.801 3.47874 0.930368 0
M  V30 3139 C 293.654 4.492 -0.232317 0
M  V30 3140 C 294.973 4.01612 1.79989 0
M  V30 3141 H 292.092 0.718204 0.165383 0
M  V30 3142 H 294.734 1.88042 -0.272038 0
M  V30 3143 H 292.884 3.56095 1.55333 0
M  V30 3144 H 294.556 4.53027 -0.86972 0
M  V30 3145 H 292.799 4.24657 -0.885928 0
M  V30 3146 H 293.47 5.51823 0.139796 0
M  V30 3147 H 295.946 3.96097 1.27461 0
M  V30 3148 H 294.822 5.07195 2.09867 0
M  V30 3149 H 295.083 3.46163 2.74998 0
M  V30 3150 N 294.142 -0.090211 1.57342 0
M  V30 3151 C 295.558 -0.444547 1.53284 0
M  V30 3152 C 295.758 -1.80238 0.900914 0
M  V30 3153 O 294.814 -2.4759 0.495513 0
M  V30 3154 C 296.127 -0.402543 2.97993 0
M  V30 3155 C 297.675 -0.48405 3.09234 0
M  V30 3156 C 298.15 -0.472144 4.5556 0
M  V30 3157 N 299.641 -0.532757 4.60126 0
M  V30 3158 C 300.376 -0.545462 5.708 0
M  V30 3159 N 299.872 -0.514082 6.9089 0
M  V30 3160 N 301.665 -0.59064 5.58988 0
M  V30 3161 H 293.816 0.799121 1.96794 0
M  V30 3162 H 296.079 0.297965 0.899956 0
M  V30 3163 H 295.785 0.528106 3.47712 0
M  V30 3164 H 295.659 -1.21969 3.56936 0
M  V30 3165 H 298.046 -1.40512 2.595 0
M  V30 3166 H 298.127 0.361328 2.53235 0
M  V30 3167 H 297.771 0.445 5.05947 0
M  V30 3168 H 297.701 -1.3348 5.09402 0
M  V30 3169 H 300.192 -0.562006 3.73698 0
M  V30 3170 H 300.505 -0.527195 7.71 0
M  V30 3171 H 298.85 -0.481054 6.93333 0
M  V30 3172 H 302.041 -0.61272 4.64073 0
M  V30 3173 H 302.214 -0.597073 6.45243 0
M  V30 3174 N 295.62 -1.53406 -0.361157 0
M  V30 3175 C 296.868 -1.69467 -1.10115 0
M  V30 3176 C 297.189 -0.451352 -1.89705 0
M  V30 3177 O 296.459 0.534636 -1.88463 0
M  V30 3178 H 295.039 -0.624749 -0.409508 0
M  V30 3179 H 297.701 -1.90609 -0.406699 0
M  V30 3180 H 296.797 -2.55774 -1.78847 0
M  V30 3181 N 297.098 0.621204 -1.44841 0
M  V30 3182 C 298.344 1.3826 -1.48365 0
M  V30 3183 C 298.677 1.93831 -0.119624 0
M  V30 3184 O 297.952 1.74251 0.864111 0
M  V30 3185 C 298.235 2.54058 -2.55199 0
M  V30 3186 C 298.088 2.03772 -4.00995 0
M  V30 3187 C 299.407 3.56225 -2.58442 0
M  V30 3188 H 296.526 0.501374 -0.540179 0
M  V30 3189 H 299.168 0.7015 -1.76576 0
M  V30 3190 H 297.318 3.12162 -2.31274 0
M  V30 3191 H 298.99 1.50423 -4.36086 0
M  V30 3192 H 297.233 1.34876 -4.12299 0
M  V30 3193 H 297.904 2.87185 -4.71411 0
M  V30 3194 H 300.38 3.07939 -2.79844 0
M  V30 3195 H 299.256 4.34756 -3.3508 0
M  V30 3196 H 299.517 4.10949 -1.63013 0
M  V30 3197 N 298.576 1.31904 0.862503 0
M  V30 3198 C 299.539 1.20131 1.95195 0
M  V30 3199 C 300.539 0.126409 1.60302 0
M  V30 3200 O 301.729 0.376234 1.70089 0
M  V30 3201 C 298.861 0.845691 3.30244 0
M  V30 3202 H 300.054 2.16943 2.07064 0
M  V30 3203 H 297.607 1.15622 1.05172 0
M  V30 3204 H 298.342 -0.120957 3.24074 0
M  V30 3205 H 298.127 1.62276 3.56944 0
M  V30 3206 H 299.617 0.787418 4.10109 0
M  V30 3207 N 300.054 -1.07777 1.14986 0
M  V30 3208 C 300.987 -2.14228 0.786243 0
M  V30 3209 C 301.965 -1.60888 -0.235347 0
M  V30 3210 O 303.149 -1.88099 -0.122909 0
M  V30 3211 C 300.276 -3.38281 0.168433 0
M  V30 3212 C 299.322 -4.10387 1.16123 0
M  V30 3213 S 300.155 -4.62371 2.70135 0
M  V30 3214 C 301.311 -5.89704 2.09762 0
M  V30 3215 H 301.544 -2.44741 1.68787 0
M  V30 3216 H 299.077 -1.19984 0.971756 0
M  V30 3217 H 301.035 -4.10098 -0.181588 0
M  V30 3218 H 299.696 -3.05953 -0.710725 0
M  V30 3219 H 298.889 -4.99431 0.677086 0
M  V30 3220 H 298.491 -3.44513 1.45556 0
M  V30 3221 H 300.783 -6.61648 1.45701 0
M  V30 3222 H 301.726 -6.42824 2.96955 0
M  V30 3223 H 302.134 -5.4302 1.54239 0
M  V30 3224 N 301.532 -0.945985 -1.26051 0
M  V30 3225 C 302.48 -0.450259 -2.282 0
M  V30 3226 C 303.474 0.47497 -1.62605 0
M  V30 3227 O 304.68 0.352653 -1.76512 0
M  V30 3228 H 301.055 -0.127081 -0.741184 0
M  V30 3229 H 303.026 -1.32422 -2.67408 0
M  V30 3230 C 301.775 0.26467 -3.46691 0
M  V30 3231 H 301.098 -0.438123 -3.97392 0
M  V30 3232 H 302.538 0.575678 -4.20074 0
M  V30 3233 C 300.997 1.48416 -3.02447 0
M  V30 3234 O 301.527 2.58227 -3.07704 0
M  V30 3235 N 299.733 1.34243 -2.57735 0
M  V30 3236 H 299.28 0.448994 -2.53657 0
M  V30 3237 H 299.238 2.15957 -2.28495 0
M  V30 3238 N 303.011 1.40521 -0.713556 0
M  V30 3239 C 304.422 1.83853 -0.324807 0
M  V30 3240 C 304.773 1.59667 1.14021 0
M  V30 3241 O 303.898 1.07649 1.87725 0
M  V30 3242 C 304.493 3.33751 -0.582746 0
M  V30 3243 C 303.052 3.75584 -0.247727 0
M  V30 3244 C 302.199 2.63753 -0.856121 0
M  V30 3245 H 305.15 1.29817 -0.91286 0
M  V30 3246 H 305.171 3.80194 0.152682 0
M  V30 3247 H 304.683 3.51322 -1.64908 0
M  V30 3248 H 302.784 3.63608 0.813624 0
M  V30 3249 H 302.897 4.7373 -0.715307 0
M  V30 3250 H 301.261 2.53108 -0.28432 0
M  V30 3251 H 302.044 2.84137 -1.92668 0
M  V30 3252 N 304.489 0.459591 1.5075 0
M  V30 3253 C 305.735 -0.0994966 2.02556 0
M  V30 3254 C 306.068 -1.40399 1.3417 0
M  V30 3255 O 305.343 -1.88892 0.463683 0
M  V30 3256 C 305.626 -0.295242 3.58888 0
M  V30 3257 C 305.479 1.02947 4.37861 0
M  V30 3258 C 306.798 -1.05502 4.27267 0
M  V30 3259 H 303.917 -0.034686 0.736183 0
M  V30 3260 H 306.559 0.602938 1.8018 0
M  V30 3261 H 304.709 -0.893563 3.78084 0
M  V30 3262 H 306.381 1.66348 4.30263 0
M  V30 3263 H 304.624 1.62885 4.02058 0
M  V30 3264 H 305.295 0.846281 5.45474 0
M  V30 3265 H 307.771 -0.547993 4.12476 0
M  V30 3266 H 306.647 -1.16077 5.36486 0
M  V30 3267 H 306.908 -2.08875 3.89645 0
M  V30 3268 N 305.967 -1.56429 0.191757 0
M  V30 3269 C 306.877 -2.22541 -0.742481 0
M  V30 3270 C 307.893 -1.22342 -1.23727 0
M  V30 3271 O 309.069 -1.55069 -1.28513 0
M  V30 3272 C 306.134 -2.8692 -1.94623 0
M  V30 3273 C 305.195 -4.02378 -1.49633 0
M  V30 3274 C 304.428 -4.63678 -2.6427 0
M  V30 3275 O 304.651 -4.23895 -3.81666 0
M  V30 3276 O 303.585 -5.53202 -2.37174 0
M  V30 3277 H 307.411 -3.02977 -0.209462 0
M  V30 3278 H 304.996 -1.49353 -0.0373832 0
M  V30 3279 H 306.878 -3.27663 -2.64982 0
M  V30 3280 H 305.553 -2.09466 -2.46791 0
M  V30 3281 H 304.46 -3.66265 -0.761636 0
M  V30 3282 H 305.793 -4.81487 -1.02134 0
M  V30 3283 N 307.445 0.0818655 -1.57387 0
M  V30 3284 C 308.395 1.10501 -1.99433 0
M  V30 3285 C 309.379 1.35041 -0.874798 0
M  V30 3286 O 310.571 1.35511 -1.13868 0
M  V30 3287 C 307.7 2.42159 -2.43339 0
M  V30 3288 C 306.786 2.20937 -3.62005 0
M  V30 3289 N 307.177 1.69616 -4.76512 0
M  V30 3290 C 305.475 2.51451 -3.68359 0
M  V30 3291 C 306.176 1.62973 -5.58404 0
M  V30 3292 N 305.152 2.08664 -5.01956 0
M  V30 3293 H 308.954 0.701373 -2.85408 0
M  V30 3294 H 306.468 0.289096 -1.59806 0
M  V30 3295 H 308.465 3.16208 -2.71695 0
M  V30 3296 H 307.125 2.83249 -1.58746 0
M  V30 3297 H 308.136 1.38624 -4.99003 0
M  V30 3298 H 304.813 2.95975 -2.94457 0
M  V30 3299 H 306.203 1.24233 -6.60315 0
M  V30 3300 N 308.923 1.53595 0.353017 0
M  V30 3301 C 310.334 1.61937 0.929153 0
M  V30 3302 C 310.685 0.494686 1.89861 0
M  V30 3303 O 309.81 -0.377017 2.1309 0
M  V30 3304 C 310.405 2.93526 1.69199 0
M  V30 3305 C 308.964 3.04161 2.21727 0
M  V30 3306 C 308.111 2.57322 1.03348 0
M  V30 3307 H 311.062 1.58155 0.131431 0
M  V30 3308 H 311.083 2.82034 2.55416 0
M  V30 3309 H 310.595 3.75362 0.986144 0
M  V30 3310 H 308.696 2.26938 2.95516 0
M  V30 3311 H 308.809 4.09465 2.48748 0
M  V30 3312 H 307.173 2.12499 1.40414 0
M  V30 3313 H 307.956 3.41588 0.342428 0
M  V30 3314 N 310.401 -0.613514 1.45168 0
M  V30 3315 C 311.648 -1.37268 1.48875 0
M  V30 3316 C 311.976 -1.94077 0.128161 0
M  V30 3317 O 311.231 -1.75178 -0.872416 0
M  V30 3318 C 311.53 -2.54347 2.51083 0
M  V30 3319 C 311.196 -2.1572 3.95949 0
M  V30 3320 C 309.858 -2.04899 4.35396 0
M  V30 3321 C 312.21 -1.85485 4.87078 0
M  V30 3322 C 309.538 -1.62057 5.63875 0
M  V30 3323 C 311.89 -1.4413 6.15962 0
M  V30 3324 C 310.554 -1.31863 6.54346 0
M  V30 3325 H 309.824 -0.502299 0.544773 0
M  V30 3326 H 312.471 -0.694021 1.78481 0
M  V30 3327 H 310.776 -3.27524 2.15024 0
M  V30 3328 H 312.473 -3.12577 2.51191 0
M  V30 3329 H 309.063 -2.25066 3.64751 0
M  V30 3330 H 313.247 -1.92745 4.57343 0
M  V30 3331 H 308.503 -1.51177 5.92415 0
M  V30 3332 H 312.677 -1.19778 6.86022 0
M  V30 3333 H 310.304 -0.984392 7.538 0
M  V30 3334 N 311.879 -1.3236 -0.855495 0
M  V30 3335 C 313.127 -1.22629 -1.60644 0
M  V30 3336 C 313.448 0.212136 -1.93843 0
M  V30 3337 O 312.718 1.13666 -1.59552 0
M  V30 3338 H 311.298 -0.450882 -0.595579 0
M  V30 3339 H 313.96 -1.65871 -1.02337 0
M  V30 3340 H 313.056 -1.80832 -2.54374 0
M  V30 3341 N 313.357 1.07166 -1.15556 0
M  V30 3342 C 314.605 1.79443 -0.929764 0
M  V30 3343 C 314.926 1.87246 0.544414 0
M  V30 3344 O 314.196 1.37473 1.39564 0
M  V30 3345 H 312.776 0.664625 -0.341003 0
M  V30 3346 H 315.438 1.29499 -1.45657 0
M  V30 3347 H 314.534 2.81832 -1.34079 0
M  V30 3348 N 314.835 0.952656 1.25548 0
M  V30 3349 C 316.083 0.605176 1.92826 0
M  V30 3350 C 316.404 -0.860261 1.74999 0
M  V30 3351 O 315.674 -1.6125 1.11244 0
M  V30 3352 H 314.254 0.220832 0.713612 0
M  V30 3353 H 316.916 1.21047 1.52754 0
M  V30 3354 H 316.012 0.832798 3.00784 0
M  V30 3355 N 316.313 -1.40141 0.720998 0
M  V30 3356 C 317.261 -2.3252 0.0608547 0
M  V30 3357 C 318.255 -1.52326 -0.741152 0
M  V30 3358 O 319.461 -1.68089 -0.643911 0
M  V30 3359 H 315.836 -0.751999 0.000876664 0
M  V30 3360 H 317.807 -2.8584 0.856614 0
M  V30 3361 C 316.556 -3.37331 -0.842809 0
M  V30 3362 H 315.879 -3.99108 -0.235084 0
M  V30 3363 H 317.319 -4.04452 -1.27257 0
M  V30 3364 C 315.778 -2.73246 -1.97074 0
M  V30 3365 O 316.308 -2.59998 -3.06209 0
M  V30 3366 N 314.514 -2.31547 -1.75597 0
M  V30 3367 H 314.061 -2.42522 -0.868368 0
M  V30 3368 H 314.019 -1.89007 -2.51244 0
M  V30 3369 N 317.792 -0.46758 -1.50504 0
M  V30 3370 C 318.742 0.34698 -2.25344 0
M  V30 3371 C 319.726 0.964469 -1.2879 0
M  V30 3372 O 320.918 0.8776 -1.53711 0
M  V30 3373 C 318.047 1.43042 -3.1208 0
M  V30 3374 C 317.133 0.82084 -4.16081 0
M  V30 3375 N 317.524 -0.0567602 -5.05768 0
M  V30 3376 C 315.822 1.08517 -4.32597 0
M  V30 3377 C 316.523 -0.402343 -5.80307 0
M  V30 3378 N 315.499 0.221607 -5.43148 0
M  V30 3379 H 319.301 -0.329129 -2.92051 0
M  V30 3380 H 316.815 -0.281508 -1.59942 0
M  V30 3381 H 318.812 2.02712 -3.64299 0
M  V30 3382 H 317.472 2.10856 -2.46921 0
M  V30 3383 H 318.483 -0.425349 -5.1615 0
M  V30 3384 H 315.16 1.75855 -3.78657 0
M  V30 3385 H 316.55 -1.11834 -6.62528 0
M  V30 3386 N 319.27 1.56325 -0.20005 0
M  V30 3387 C 320.202 2.16555 0.750771 0
M  V30 3388 C 321.215 1.12871 1.1732 0
M  V30 3389 O 322.404 1.39943 1.10807 0
M  V30 3390 C 319.504 2.71684 2.02586 0
M  V30 3391 C 318.677 4.00321 1.76244 0
M  V30 3392 C 317.736 4.40227 2.88248 0
M  V30 3393 O 316.762 5.07552 2.57642 0
M  V30 3394 N 317.964 4.04138 4.16717 0
M  V30 3395 H 320.729 2.98772 0.235685 0
M  V30 3396 H 318.29 1.6189 -0.0182594 0
M  V30 3397 H 320.282 2.95363 2.76664 0
M  V30 3398 H 318.852 1.93893 2.45202 0
M  V30 3399 H 318.072 3.84723 0.85919 0
M  V30 3400 H 319.36 4.84279 1.56048 0
M  V30 3401 H 318.758 3.49993 4.44434 0
M  V30 3402 H 317.315 4.32756 4.87407 0
M  V30 3403 N 320.748 -0.0735177 1.57428 0
M  V30 3404 C 321.698 -1.09442 2.00016 0
M  V30 3405 C 322.682 -1.34575 0.881947 0
M  V30 3406 O 323.874 -1.34905 1.14585 0
M  V30 3407 C 321.003 -2.40865 2.4462 0
M  V30 3408 C 320.089 -2.19014 3.63172 0
M  V30 3409 N 320.48 -1.67087 4.77405 0
M  V30 3410 C 318.778 -2.49494 3.69688 0
M  V30 3411 C 319.479 -1.6001 5.5926 0
M  V30 3412 N 318.455 -2.05999 5.03056 0
M  V30 3413 H 322.257 -0.686227 2.85776 0
M  V30 3414 H 319.771 -0.280617 1.59957 0
M  V30 3415 H 321.768 -3.14763 2.73368 0
M  V30 3416 H 320.428 -2.82403 1.60246 0
M  V30 3417 H 321.439 -1.35975 4.99731 0
M  V30 3418 H 318.116 -2.94409 2.96023 0
M  V30 3419 H 319.506 -1.2073 6.60964 0
M  V30 3420 N 322.226 -1.5378 -0.344866 0
M  V30 3421 C 323.475 -1.7018 -1.08267 0
M  V30 3422 C 323.788 -0.471 -1.89845 0
M  V30 3423 O 324.994 -0.515917 -2.66553 0
M  V30 3424 C 323.45 -3.00923 -1.97417 0
M  V30 3425 C 323.058 -4.31335 -1.21053 0
M  V30 3426 C 324.802 -3.26688 -2.71063 0
M  V30 3427 C 322.709 -5.53153 -2.09225 0
M  V30 3428 H 321.639 -0.634138 -0.407903 0
M  V30 3429 H 324.29 -1.8028 -0.342246 0
M  V30 3430 H 322.672 -2.84676 -2.75274 0
M  V30 3431 H 323.846 -4.58281 -0.481159 0
M  V30 3432 H 322.161 -4.12173 -0.591813 0
M  V30 3433 H 324.758 -4.1489 -3.37299 0
M  V30 3434 H 325.101 -2.43639 -3.37558 0
M  V30 3435 H 325.634 -3.43705 -2.0028 0
M  V30 3436 H 322.373 -6.38741 -1.47274 0
M  V30 3437 H 321.893 -5.30458 -2.79955 0
M  V30 3438 H 323.572 -5.88744 -2.68308 0
M  V30 3439 N 323.704 0.605807 -1.45491 0
M  V30 3440 C 324.952 1.36207 -1.49305 0
M  V30 3441 C 325.273 1.94519 -0.136863 0
M  V30 3442 O 324.543 1.77261 0.833983 0
M  V30 3443 H 323.123 0.50565 -0.549843 0
M  V30 3444 H 325.785 0.711239 -1.81459 0
M  V30 3445 H 324.881 2.18058 -2.23287 0
M  V30 3446 N 325.182 1.32811 0.848464 0
M  V30 3447 C 326.129 1.22265 1.95755 0
M  V30 3448 C 327.099 0.103413 1.65778 0
M  V30 3449 O 328.284 0.280033 1.88734 0
M  V30 3450 C 325.424 0.958014 3.31536 0
M  V30 3451 C 324.537 2.16262 3.73971 0
M  V30 3452 C 323.672 1.83295 4.98575 0
M  V30 3453 C 322.711 3.00041 5.33518 0
M  V30 3454 N 321.848 2.67125 6.49299 0
M  V30 3455 H 326.688 2.17128 2.04107 0
M  V30 3456 H 324.225 1.07982 0.998913 0
M  V30 3457 H 326.183 0.785052 4.09747 0
M  V30 3458 H 324.813 0.046159 3.22767 0
M  V30 3459 H 323.865 2.44565 2.91362 0
M  V30 3460 H 325.177 3.03572 3.95785 0
M  V30 3461 H 324.331 1.62586 5.84509 0
M  V30 3462 H 323.07 0.932078 4.7871 0
M  V30 3463 H 322.075 3.21374 4.46093 0
M  V30 3464 H 323.3 3.90869 5.55336 0
M  V30 3465 H 321.246 1.79586 6.3094 0
M  V30 3466 H 321.163 3.47965 6.71161 0
M  V30 3467 H 322.431 2.49861 7.3837 0
M  V30 3468 N 326.66 -1.06551 1.16123 0
M  V30 3469 C 328.071 -1.60768 0.949232 0
M  V30 3470 C 328.422 -1.89523 -0.507508 0
M  V30 3471 O 327.547 -1.66671 -1.38021 0
M  V30 3472 C 328.142 -2.92086 1.71671 0
M  V30 3473 C 326.701 -3.43015 1.54977 0
M  V30 3474 C 325.848 -2.16947 1.72711 0
M  V30 3475 H 328.799 -0.895354 1.31031 0
M  V30 3476 H 328.82 -3.6138 1.19099 0
M  V30 3477 H 328.332 -2.71127 2.7769 0
M  V30 3478 H 326.433 -3.69039 0.513873 0
M  V30 3479 H 326.546 -4.18516 2.33198 0
M  V30 3480 H 324.91 -2.27041 1.15431 0
M  V30 3481 H 325.693 -1.98473 2.80113 0
M  V30 3482 N 328.138 -0.959301 -1.25041 0
M  V30 3483 C 329.363 -0.633507 -1.97488 0
M  V30 3484 C 329.788 0.788555 -1.70773 0
M  V30 3485 O 329.146 1.53394 -0.966431 0
M  V30 3486 C 329.194 -0.904057 -3.49083 0
M  V30 3487 O 328.298 0.0147939 -4.12397 0
M  V30 3488 H 327.639 -0.240368 -0.618966 0
M  V30 3489 H 330.169 -1.28717 -1.59038 0
M  V30 3490 H 330.179 -0.832203 -3.99423 0
M  V30 3491 H 328.854 -1.94048 -3.67856 0
M  V30 3492 H 327.431 -0.109664 -3.72739 0
M  V30 3493 N 329.616 1.39756 -0.72842 0
M  V30 3494 C 330.844 2.04948 -0.283528 0
M  V30 3495 C 331.259 1.54908 1.0793 0
M  V30 3496 O 330.616 0.711135 1.68075 0
M  V30 3497 C 330.667 3.60498 -0.268957 0
M  V30 3498 O 330.388 4.08695 -1.57798 0
M  V30 3499 C 331.889 4.4288 0.192912 0
M  V30 3500 H 329.109 0.659243 -0.125056 0
M  V30 3501 H 331.653 1.78927 -0.990226 0
M  V30 3502 H 329.808 3.85444 0.388801 0
M  V30 3503 H 330.222 5.02977 -1.48709 0
M  V30 3504 H 331.696 5.51791 0.151952 0
M  V30 3505 H 332.173 4.21418 1.23708 0
M  V30 3506 H 332.779 4.23069 -0.435039 0
M  V30 3507 N 331.094 0.475555 1.50254 0
M  V30 3508 C 332.343 -0.0795996 2.01543 0
M  V30 3509 C 332.656 -1.4038 1.36209 0
M  V30 3510 O 333.862 -2.04415 1.7868 0
M  V30 3511 C 332.318 -0.192363 3.59386 0
M  V30 3512 C 331.926 1.12367 4.33679 0
M  V30 3513 C 333.67 -0.699238 4.18701 0
M  V30 3514 C 331.577 0.974453 5.83317 0
M  V30 3515 H 330.507 -0.0335228 0.753254 0
M  V30 3516 H 333.158 0.611128 1.73025 0
M  V30 3517 H 331.54 -0.946974 3.84511 0
M  V30 3518 H 332.714 1.88958 4.20276 0
M  V30 3519 H 331.029 1.562 3.85993 0
M  V30 3520 H 333.626 -0.827978 5.28251 0
M  V30 3521 H 333.969 -1.69171 3.80377 0
M  V30 3522 H 334.502 -0.00188807 3.978 0
M  V30 3523 H 331.241 1.94042 6.26121 0
M  V30 3524 H 330.761 0.248998 5.99283 0
M  V30 3525 H 332.44 0.642867 6.43798 0
M  V30 3526 N 332.573 -1.56217 0.208337 0
M  V30 3527 C 333.989 -1.58919 -0.14729 0
M  V30 3528 C 334.189 -1.22486 -1.59998 0
M  V30 3529 O 333.245 -0.953849 -2.3379 0
M  V30 3530 C 334.558 -3.00236 0.167048 0
M  V30 3531 C 336.106 -3.12813 0.108219 0
M  V30 3532 C 336.581 -4.56284 0.396049 0
M  V30 3533 N 338.072 -4.61912 0.345142 0
M  V30 3534 C 338.807 -5.70837 0.541523 0
M  V30 3535 N 338.303 -6.88178 0.798968 0
M  V30 3536 N 340.096 -5.60091 0.474867 0
M  V30 3537 H 332.247 -1.78177 1.15614 0
M  V30 3538 H 334.51 -0.827555 0.462446 0
M  V30 3539 H 334.216 -3.31499 1.1748 0
M  V30 3540 H 334.09 -3.7354 -0.524184 0
M  V30 3541 H 336.477 -2.81354 -0.890157 0
M  V30 3542 H 336.558 -2.41866 0.832729 0
M  V30 3543 H 336.202 -4.88458 1.3918 0
M  V30 3544 H 336.132 -5.25439 -0.349502 0
M  V30 3545 H 338.623 -3.77589 0.153316 0
M  V30 3546 H 338.936 -7.67095 0.93727 0
M  V30 3547 H 337.281 -6.89953 0.836013 0
M  V30 3548 H 340.472 -4.67297 0.274064 0
M  V30 3549 H 340.645 -6.44917 0.631326 0
M  V30 3550 N 334.051 0.0651679 -1.57465 0
M  V30 3551 C 335.467 0.420105 -1.53972 0
M  V30 3552 C 335.667 1.78782 -0.929474 0
M  V30 3553 O 334.723 2.46771 -0.534839 0
M  V30 3554 C 336.036 0.355084 -2.98596 0
M  V30 3555 C 337.584 0.434792 -3.09965 0
M  V30 3556 C 338.059 0.399609 -4.56253 0
M  V30 3557 N 339.55 0.459488 -4.60915 0
M  V30 3558 C 340.285 0.454584 -5.71595 0
M  V30 3559 N 339.781 0.404102 -6.9162 0
M  V30 3560 N 341.574 0.501635 -5.59857 0
M  V30 3561 H 333.725 -0.830328 -1.95498 0
M  V30 3562 H 335.988 -0.312244 -0.895102 0
M  V30 3563 H 335.694 -0.583357 -3.46828 0
M  V30 3564 H 335.568 1.16275 -3.58831 0
M  V30 3565 H 337.955 1.36366 -2.61703 0
M  V30 3566 H 338.036 -0.40157 -2.52628 0
M  V30 3567 H 337.68 -0.525436 -5.05175 0
M  V30 3568 H 337.61 1.25359 -5.11461 0
M  V30 3569 H 340.101 0.502482 -3.74544 0
M  V30 3570 H 340.414 0.404468 -7.71741 0
M  V30 3571 H 338.759 0.37069 -6.94011 0
M  V30 3572 H 341.95 0.538812 -4.64989 0
M  V30 3573 H 342.123 0.494345 -6.46112 0
M  V30 3574 N 335.529 1.53961 0.336706 0
M  V30 3575 C 336.806 1.62171 1.09361 0
M  V30 3576 C 337.186 0.447263 2.06307 0
M  V30 3577 O 336.534 -0.559802 2.21537 0
M  V30 3578 C 336.744 2.98565 1.80721 0
M  V30 3579 C 338.092 3.54157 2.34218 0
M  V30 3580 O 339.116 3.00784 1.90807 0
M  V30 3581 O 337.975 4.47528 3.13657 0
M  V30 3582 H 335.069 0.6562 0.503319 0
M  V30 3583 H 337.615 1.66307 0.33765 0
M  V30 3584 H 336.387 3.75482 1.10132 0
M  V30 3585 H 336.01 2.9805 2.63158 0
M  V30 3586 N 337.007 -0.598083 1.45811 0
M  V30 3587 C 337.97 -1.69018 1.54808 0
M  V30 3588 C 338.97 -1.55037 0.426652 0
M  V30 3589 O 340.16 -1.59932 0.690456 0
M  V30 3590 C 337.292 -3.0835 1.45371 0
M  V30 3591 H 338.485 -1.62403 2.52121 0
M  V30 3592 H 336.038 -0.814626 1.33392 0
M  V30 3593 H 336.773 -3.20534 0.492793 0
M  V30 3594 H 336.558 -3.19907 2.26721 0
M  V30 3595 H 338.048 -3.8788 1.54721 0
M  V30 3596 N 338.485 -1.33259 -0.841409 0
M  V30 3597 C 339.896 -1.22066 -1.41269 0
M  V30 3598 C 340.247 0.161479 -1.95534 0
M  V30 3599 O 339.372 1.06094 -1.88608 0
M  V30 3600 C 339.967 -2.20996 -2.568 0
M  V30 3601 C 338.526 -2.13649 -3.09888 0
M  V30 3602 C 337.673 -2.08623 -1.82679 0
M  V30 3603 H 340.624 -1.44895 -0.647395 0
M  V30 3604 H 340.645 -1.81621 -3.34356 0
M  V30 3605 H 340.157 -3.2158 -2.17274 0
M  V30 3606 H 338.258 -1.16359 -3.53965 0
M  V30 3607 H 338.371 -3.04079 -3.70234 0
M  V30 3608 H 336.735 -1.54061 -2.02824 0
M  V30 3609 H 337.518 -3.1101 -1.45353 0
M  V30 3610 N 339.963 1.05934 -1.16686 0
M  V30 3611 C 340.926 2.11669 -0.879144 0
M  V30 3612 C 341.926 1.60294 0.127445 0
M  V30 3613 O 343.116 1.7389 -0.103865 0
M  V30 3614 C 340.248 3.39438 -0.315425 0
M  V30 3615 H 341.441 2.38626 -1.81653 0
M  V30 3616 H 338.994 1.22058 -0.976299 0
M  V30 3617 H 339.729 3.18132 0.629468 0
M  V30 3618 H 339.514 3.78034 -1.04079 0
M  V30 3619 H 341.004 4.17391 -0.132189 0
M  V30 3620 N 341.441 0.965919 1.2453 0
M  V30 3621 C 342.689 0.625593 1.92174 0
M  V30 3622 C 343.01 -0.841652 1.75901 0
M  V30 3623 O 342.28 -1.60061 1.12948 0
M  V30 3624 H 340.86 0.228388 0.71123 0
M  V30 3625 H 343.522 1.2266 1.51461 0
M  V30 3626 H 342.618 0.864653 2.99884 0
M  V30 3627 N 342.919 -1.39368 0.735821 0
M  V30 3628 C 344.335 -1.54204 0.411492 0
M  V30 3629 C 344.535 -1.70268 -1.07755 0
M  V30 3630 O 343.591 -1.70364 -1.86366 0
M  V30 3631 C 344.904 -2.75925 1.19523 0
M  V30 3632 C 346.452 -2.89761 1.18354 0
M  V30 3633 C 346.927 -4.14421 1.94986 0
M  V30 3634 N 348.418 -4.21462 1.92156 0
M  V30 3635 C 349.153 -5.16871 2.48258 0
M  V30 3636 N 348.649 -6.18063 3.13001 0
M  V30 3637 N 350.442 -5.09093 2.38287 0
M  V30 3638 H 342.593 -1.27189 1.70108 0
M  V30 3639 H 344.856 -0.616517 0.720147 0
M  V30 3640 H 344.562 -2.70401 2.24892 0
M  V30 3641 H 344.436 -3.68614 0.800222 0
M  V30 3642 H 346.823 -2.94777 0.137975 0
M  V30 3643 H 346.904 -1.98133 1.61793 0
M  V30 3644 H 346.548 -4.10166 2.99543 0
M  V30 3645 H 346.478 -5.05095 1.48953 0
M  V30 3646 H 348.969 -3.48979 1.44991 0
M  V30 3647 H 349.282 -6.87326 3.53275 0
M  V30 3648 H 347.627 -6.18448 3.17091 0
M  V30 3649 H 350.818 -4.28973 1.8735 0
M  V30 3650 H 350.991 -5.83272 2.82308 0
M  V30 3651 N 344.397 -0.483516 -1.5 0
M  V30 3652 C 345.344 0.304164 -2.28787 0
M  V30 3653 C 346.314 0.976114 -1.34392 0
M  V30 3654 O 347.499 0.986156 -1.63339 0
M  V30 3655 C 344.639 1.37298 -3.16612 0
M  V30 3656 C 343.752 0.714561 -4.26049 0
M  V30 3657 C 342.887 1.76232 -5.01114 0
M  V30 3658 C 341.926 1.08483 -6.0241 0
M  V30 3659 N 341.063 2.076 -6.70706 0
M  V30 3660 H 345.903 -0.373981 -2.95644 0
M  V30 3661 H 343.44 -0.196275 -1.45785 0
M  V30 3662 H 345.398 2.00445 -3.65893 0
M  V30 3663 H 344.028 2.02012 -2.51776 0
M  V30 3664 H 343.08 -0.0297798 -3.80388 0
M  V30 3665 H 344.392 0.180383 -4.98474 0
M  V30 3666 H 343.546 2.46929 -5.54176 0
M  V30 3667 H 342.285 2.33033 -4.28424 0
M  V30 3668 H 341.29 0.363545 -5.48597 0
M  V30 3669 H 342.515 0.523551 -6.77079 0
M  V30 3670 H 340.461 2.63394 -6.00799 0
M  V30 3671 H 340.378 1.59201 -7.39047 0
M  V30 3672 H 341.646 2.77639 -7.2838 0
M  V30 3673 N 345.875 1.56104 -0.216619 0
M  V30 3674 C 347.121 1.98466 0.417033 0
M  V30 3675 C 347.454 1.10403 1.59765 0
M  V30 3676 O 346.729 0.160632 1.93836 0
M  V30 3677 C 347.012 3.49769 0.85637 0
M  V30 3678 C 346.865 4.48606 -0.327546 0
M  V30 3679 C 348.184 4.05339 1.7143 0
M  V30 3680 H 345.303 0.721551 0.150112 0
M  V30 3681 H 347.945 1.87423 -0.311864 0
M  V30 3682 H 346.095 3.5931 1.47745 0
M  V30 3683 H 347.767 4.5108 -0.965618 0
M  V30 3684 H 346.01 4.22682 -0.975805 0
M  V30 3685 H 346.681 5.51995 0.0227149 0
M  V30 3686 H 349.157 3.98712 1.19031 0
M  V30 3687 H 348.033 5.11533 1.99061 0
M  V30 3688 H 348.294 3.51918 2.67593 0
M  V30 3689 N 347.353 -0.0568162 1.57498 0
M  V30 3690 C 348.601 -0.751617 1.87604 0
M  V30 3691 C 348.922 -1.77351 0.81066 0
M  V30 3692 O 348.192 -1.95254 -0.159018 0
M  V30 3693 H 346.772 -0.280583 0.692302 0
M  V30 3694 H 349.434 -0.0293483 1.94878 0
M  V30 3695 H 348.53 -1.25852 2.856 0
M  V30 3696 N 348.832 -1.54138 -0.328536 0
M  V30 3697 C 349.762 -1.86167 -1.40939 0
M  V30 3698 C 350.743 -0.718044 -1.54202 0
M  V30 3699 O 351.928 -0.971328 -1.68163 0
M  V30 3700 C 349.058 -2.08461 -2.77779 0
M  V30 3701 C 348.012 -3.24299 -2.7931 0
M  V30 3702 C 347.338 -3.31955 -4.19178 0
M  V30 3703 C 348.638 -4.62065 -2.43502 0
M  V30 3704 H 350.332 -2.76689 -1.14383 0
M  V30 3705 H 347.878 -1.33132 -0.548806 0
M  V30 3706 H 349.831 -2.29453 -3.53454 0
M  V30 3707 H 348.555 -1.14684 -3.05802 0
M  V30 3708 H 347.214 -3.03187 -2.0609 0
M  V30 3709 H 346.862 -2.35745 -4.44335 0
M  V30 3710 H 346.562 -4.09805 -4.2111 0
M  V30 3711 H 348.086 -3.55175 -4.96672 0
M  V30 3712 H 349.5 -4.8297 -3.08889 0
M  V30 3713 H 347.897 -5.42429 -2.56693 0
M  V30 3714 H 348.967 -4.64652 -1.38659 0
M  V30 3715 N 350.31 0.590341 -1.46126 0
M  V30 3716 C 351.559 1.34499 -1.50309 0
M  V30 3717 C 351.872 1.94977 -0.156021 0
M  V30 3718 O 353.078 2.71395 -0.0756037 0
M  V30 3719 C 351.534 2.43723 -2.64815 0
M  V30 3720 C 351.142 1.89582 -4.0591 0
M  V30 3721 C 352.886 3.20579 -2.78262 0
M  V30 3722 C 350.793 2.9639 -5.11769 0
M  V30 3723 H 349.723 0.505593 -0.559368 0
M  V30 3724 H 352.374 0.630848 -1.72315 0
M  V30 3725 H 350.756 3.17902 -2.36124 0
M  V30 3726 H 351.93 1.21997 -4.44357 0
M  V30 3727 H 350.245 1.25418 -3.97063 0
M  V30 3728 H 352.842 4.00276 -3.54519 0
M  V30 3729 H 353.185 3.72684 -1.85505 0
M  V30 3730 H 353.718 2.53505 -3.06562 0
M  V30 3731 H 350.457 2.49181 -6.06291 0
M  V30 3732 H 349.977 3.62487 -4.77873 0
M  V30 3733 H 351.656 3.60474 -5.37278 0
M  V30 3734 N 351.788 1.33704 0.83433 0
M  V30 3735 C 352.751 1.24244 1.92603 0
M  V30 3736 C 353.751 0.160383 1.59998 0
M  V30 3737 O 354.941 0.412228 1.69252 0
M  V30 3738 C 352.073 0.91555 3.28376 0
M  V30 3739 H 353.266 2.21287 2.02416 0
M  V30 3740 H 350.819 1.17827 1.02696 0
M  V30 3741 H 351.554 -0.0521886 3.24258 0
M  V30 3742 H 351.339 1.69811 3.53422 0
M  V30 3743 H 352.829 0.874231 4.08347 0
M  V30 3744 N 353.266 -1.05314 1.17247 0
M  V30 3745 C 354.229 -2.112 0.890357 0
M  V30 3746 C 355.229 -1.60359 -0.118943 0
M  V30 3747 O 356.419 -1.73833 0.113086 0
M  V30 3748 C 353.551 -3.39266 0.333422 0
M  V30 3749 H 354.744 -2.37659 1.82916 0
M  V30 3750 H 352.297 -1.21538 0.982758 0
M  V30 3751 H 353.032 -3.18462 -0.612587 0
M  V30 3752 H 352.817 -3.77477 1.06082 0
M  V30 3753 H 354.307 -4.17315 0.154322 0
M  V30 3754 N 354.744 -0.972509 -1.24016 0
M  V30 3755 C 356.16 -0.679827 -1.44397 0
M  V30 3756 C 356.36 0.756716 -1.86751 0
M  V30 3757 O 355.416 1.53007 -2.00861 0
M  V30 3758 C 356.729 -1.66803 -2.50195 0
M  V30 3759 C 358.277 -1.68119 -2.64017 0
M  V30 3760 C 358.752 -2.65748 -3.73017 0
M  V30 3761 N 360.243 -2.64219 -3.8045 0
M  V30 3762 C 360.978 -3.36433 -4.64328 0
M  V30 3763 N 360.474 -4.1818 -5.52356 0
M  V30 3764 N 362.267 -3.25235 -4.58453 0
M  V30 3765 H 354.418 -1.90059 -0.948228 0
M  V30 3766 H 356.681 -0.818527 -0.478245 0
M  V30 3767 H 356.387 -2.69498 -2.25973 0
M  V30 3768 H 356.261 -1.4446 -3.48441 0
M  V30 3769 H 358.648 -0.661319 -2.87594 0
M  V30 3770 H 358.729 -1.94525 -1.66113 0
M  V30 3771 H 358.373 -3.67872 -3.50189 0
M  V30 3772 H 358.303 -2.36619 -4.70446 0
M  V30 3773 H 360.794 -2.04887 -3.17537 0
M  V30 3774 H 361.107 -4.70157 -6.13329 0
M  V30 3775 H 359.452 -4.22273 -5.52006 0
M  V30 3776 H 362.643 -2.60829 -3.88698 0
M  V30 3777 H 362.816 -3.81776 -5.23594 0
M  V30 3778 N 356.222 1.38976 -0.743202 0
M  V30 3779 C 357.638 1.53984 -0.419664 0
M  V30 3780 C 357.838 1.70837 1.0685 0
M  V30 3781 O 356.894 1.7135 1.8546 0
M  V30 3782 C 358.207 2.75287 -1.20985 0
M  V30 3783 C 359.755 2.89129 -1.19889 0
M  V30 3784 C 360.23 4.13381 -1.97181 0
M  V30 3785 N 361.721 4.20437 -1.94389 0
M  V30 3786 C 362.456 5.15547 -2.50996 0
M  V30 3787 N 361.952 6.16395 -3.16274 0
M  V30 3788 N 363.745 5.07822 -2.40984 0
M  V30 3789 H 355.896 1.26285 -1.7078 0
M  V30 3790 H 358.159 0.612689 -0.723406 0
M  V30 3791 H 357.865 2.69204 -2.26323 0
M  V30 3792 H 357.739 3.68184 -0.819759 0
M  V30 3793 H 360.126 2.947 -0.153606 0
M  V30 3794 H 360.207 1.97272 -1.62841 0
M  V30 3795 H 359.851 4.08572 -3.01714 0
M  V30 3796 H 359.781 5.04298 -1.51629 0
M  V30 3797 H 362.272 3.48205 -1.46839 0
M  V30 3798 H 362.585 6.85443 -3.56915 0
M  V30 3799 H 360.93 6.16758 -3.20367 0
M  V30 3800 H 364.121 4.27973 -1.89622 0
M  V30 3801 H 364.294 5.81767 -2.85397 0
M  V30 3802 N 357.7 0.491464 1.49741 0
M  V30 3803 C 358.928 -0.0535151 2.06831 0
M  V30 3804 C 359.343 -1.31683 1.35296 0
M  V30 3805 O 358.7 -1.77402 0.42836 0
M  V30 3806 C 358.751 -0.320835 3.60073 0
M  V30 3807 O 358.472 0.892394 4.28915 0
M  V30 3808 C 359.973 -0.910519 4.33848 0
M  V30 3809 H 357.193 0.0161909 0.670805 0
M  V30 3810 H 359.737 0.68609 1.92647 0
M  V30 3811 H 357.892 -1.0104 3.73991 0
M  V30 3812 H 358.306 0.649401 5.20464 0
M  V30 3813 H 359.78 -1.04721 5.41976 0
M  V30 3814 H 360.257 -1.90589 3.95692 0
M  V30 3815 H 360.863 -0.258712 4.24512 0
M  V30 3816 N 359.178 -1.55987 0.224894 0
M  V30 3817 C 360.426 -1.97998 -0.405099 0
M  V30 3818 C 360.747 -1.11387 -1.60056 0
M  V30 3819 O 360.017 -0.191645 -1.9496 0
M  V30 3820 H 358.597 -0.731235 -0.152658 0
M  V30 3821 H 361.259 -1.92279 0.318567 0
M  V30 3822 H 360.355 -3.03463 -0.729167 0
M  V30 3823 N 360.656 0.0484629 -1.57525 0
M  V30 3824 C 362.072 0.40375 -1.54409 0
M  V30 3825 C 362.272 1.77786 -0.948384 0
M  V30 3826 O 361.328 2.46189 -0.560983 0
M  V30 3827 C 362.641 0.323394 -2.98956 0
M  V30 3828 C 364.189 0.401892 -3.10409 0
M  V30 3829 C 364.664 0.351195 -4.56652 0
M  V30 3830 N 366.155 0.410576 -4.61377 0
M  V30 3831 C 366.89 0.393933 -5.72045 0
M  V30 3832 N 366.386 0.330724 -6.9201 0
M  V30 3833 N 368.179 0.442227 -5.60358 0
M  V30 3834 H 360.33 -0.851016 -1.94606 0
M  V30 3835 H 362.593 -0.321721 -0.89174 0
M  V30 3836 H 362.299 -0.62011 -3.4619 0
M  V30 3837 H 362.173 1.12463 -3.60044 0
M  V30 3838 H 364.56 1.33582 -2.63134 0
M  V30 3839 H 364.641 -0.428342 -2.52188 0
M  V30 3840 H 364.285 -0.578987 -5.04589 0
M  V30 3841 H 364.215 1.19928 -5.12762 0
M  V30 3842 H 366.706 0.462729 -3.75056 0
M  V30 3843 H 367.019 0.322592 -7.72126 0
M  V30 3844 H 365.364 0.29706 -6.94365 0
M  V30 3845 H 368.555 0.489464 -4.65534 0
M  V30 3846 H 368.728 0.425788 -6.466 0
M  V30 3847 N 362.134 1.5431 0.320358 0
M  V30 3848 C 363.064 1.86912 1.3995 0
M  V30 3849 C 364.045 0.726211 1.53819 0
M  V30 3850 O 365.23 0.980233 1.67646 0
M  V30 3851 C 362.36 2.09932 2.7667 0
M  V30 3852 C 361.314 3.25776 2.77586 0
M  V30 3853 C 360.64 3.34173 4.17412 0
M  V30 3854 C 361.94 4.6335 2.41048 0
M  V30 3855 H 363.634 2.77292 1.12914 0
M  V30 3856 H 361.18 1.33421 0.541738 0
M  V30 3857 H 363.133 2.31324 3.52232 0
M  V30 3858 H 361.857 1.16304 3.0519 0
M  V30 3859 H 360.516 3.04276 2.04479 0
M  V30 3860 H 360.164 2.38098 4.43078 0
M  V30 3861 H 359.864 4.12033 4.18931 0
M  V30 3862 H 361.388 3.57803 4.94782 0
M  V30 3863 H 362.802 4.84602 3.06324 0
M  V30 3864 H 361.199 5.43782 2.53813 0
M  V30 3865 H 362.269 4.65381 1.36193 0
M  V30 3866 N 363.613 -0.582584 1.46437 0
M  V30 3867 C 365.029 -0.905962 1.31394 0
M  V30 3868 C 365.229 -1.99468 0.285476 0
M  V30 3869 O 364.285 -2.50566 -0.311914 0
M  V30 3870 C 365.598 -1.3232 2.70022 0
M  V30 3871 C 367.146 -1.43604 2.78113 0
M  V30 3872 C 367.621 -1.88694 4.17323 0
M  V30 3873 N 369.112 -1.95887 4.19741 0
M  V30 3874 C 369.847 -2.32051 5.24347 0
M  V30 3875 N 369.343 -2.67006 6.39281 0
M  V30 3876 N 371.136 -2.32606 5.11713 0
M  V30 3877 H 363.287 0.1366 2.1196 0
M  V30 3878 H 365.55 -0.00155736 0.947999 0
M  V30 3879 H 365.256 -0.597242 3.46592 0
M  V30 3880 H 365.13 -2.28469 3.00136 0
M  V30 3881 H 367.517 -2.15286 2.01832 0
M  V30 3882 H 367.598 -0.457059 2.51684 0
M  V30 3883 H 367.242 -1.1759 4.941 0
M  V30 3884 H 367.172 -2.8755 4.4116 0
M  V30 3885 H 369.663 -1.71362 3.36814 0
M  V30 3886 H 369.976 -2.93554 7.14875 0
M  V30 3887 H 368.321 -2.64644 6.42642 0
M  V30 3888 H 371.512 -2.04721 4.2096 0
M  V30 3889 H 371.685 -2.60462 5.93349 0
M  V30 3890 N 365.091 -1.34144 -0.827227 0
M  V30 3891 C 366.339 -1.26009 -1.58007 0
M  V30 3892 C 366.66 0.170971 -1.94249 0
M  V30 3893 O 365.93 1.10256 -1.61927 0
M  V30 3894 H 364.51 -0.463414 -0.585881 0
M  V30 3895 H 367.172 -1.68005 -0.987951 0
M  V30 3896 H 366.268 -1.86187 -2.50481 0
M  V30 3897 N 366.569 1.04691 -1.17803 0
M  V30 3898 C 367.797 1.81446 -0.99423 0
M  V30 3899 C 368.212 1.83174 0.457459 0
M  V30 3900 O 367.569 1.26265 1.31771 0
M  V30 3901 C 367.62 3.27334 -1.5341 0
M  V30 3902 O 367.341 3.25798 -2.92895 0
M  V30 3903 C 368.842 4.20759 -1.39559 0
M  V30 3904 H 366.062 0.571599 -0.351447 0
M  V30 3905 H 368.606 1.31982 -1.56208 0
M  V30 3906 H 366.761 3.74052 -1.00815 0
M  V30 3907 H 367.175 4.17144 -3.17949 0
M  V30 3908 H 368.649 5.21084 -1.82141 0
M  V30 3909 H 369.126 4.37856 -0.343394 0
M  V30 3910 H 369.732 3.79901 -1.91195 0
M  V30 3911 N 368.047 0.979072 1.23499 0
M  V30 3912 C 368.994 0.517904 2.24914 0
M  V30 3913 C 369.964 -0.442525 1.60097 0
M  V30 3914 O 371.149 -0.350365 1.87556 0
M  V30 3915 C 368.289 -0.174813 3.44657 0
M  V30 3916 C 367.402 0.825721 4.24035 0
M  V30 3917 C 366.537 0.107946 5.3109 0
M  V30 3918 C 365.576 1.09778 6.02175 0
M  V30 3919 N 364.713 0.40925 7.00906 0
M  V30 3920 H 369.553 1.38751 2.63727 0
M  V30 3921 H 367.09 0.695303 1.2963 0
M  V30 3922 H 369.048 -0.593233 4.12961 0
M  V30 3923 H 367.678 -1.0083 3.06648 0
M  V30 3924 H 366.73 1.36253 3.55161 0
M  V30 3925 H 368.042 1.58005 4.73113 0
M  V30 3926 H 367.196 -0.367904 6.05583 0
M  V30 3927 H 365.935 -0.678994 4.8295 0
M  V30 3928 H 364.94 1.5844 5.26476 0
M  V30 3929 H 366.165 1.88536 6.52404 0
M  V30 3930 H 364.111 -0.358506 6.5502 0
M  V30 3931 H 364.028 1.10226 7.47921 0
M  V30 3932 H 365.296 -0.0442557 7.79487 0
M  V30 3933 N 369.525 -1.3858 0.750561 0
M  V30 3934 C 370.753 -2.04471 0.316098 0
M  V30 3935 C 371.168 -1.56606 -1.05452 0
M  V30 3936 O 370.525 -0.737784 -1.66922 0
M  V30 3937 C 370.576 -3.60025 0.326275 0
M  V30 3938 O 370.297 -4.06133 1.6428 0
M  V30 3939 C 371.798 -4.43131 -0.122429 0
M  V30 3940 H 369.018 -0.65717 0.135528 0
M  V30 3941 H 371.562 -1.77329 1.01857 0
M  V30 3942 H 369.717 -3.86014 -0.327431 0
M  V30 3943 H 370.131 -5.00547 1.56693 0
M  V30 3944 H 371.605 -5.51963 -0.0641473 0
M  V30 3945 H 372.082 -4.23333 -1.16988 0
M  V30 3946 H 372.688 -4.22323 0.50229 0
M  V30 3947 N 371.003 -0.499398 -1.49478 0
M  V30 3948 C 372.249 0.0457576 -2.02748 0
M  V30 3949 C 372.582 1.36793 -1.37846 0
M  V30 3950 O 371.857 1.87596 -0.513601 0
M  V30 3951 C 372.14 0.199986 -3.59544 0
M  V30 3952 C 371.993 -1.1452 -4.34977 0
M  V30 3953 C 373.312 0.94137 -4.29914 0
M  V30 3954 H 370.431 0.0151552 -0.736844 0
M  V30 3955 H 373.073 -0.650498 -1.78518 0
M  V30 3956 H 371.223 0.793007 -3.8032 0
M  V30 3957 H 372.895 -1.77697 -4.25701 0
M  V30 3958 H 371.138 -1.73488 -3.97598 0
M  V30 3959 H 371.809 -0.990607 -5.43039 0
M  V30 3960 H 374.285 0.43844 -4.13784 0
M  V30 3961 H 373.161 1.01812 -5.39375 0
M  V30 3962 H 373.422 1.98471 -3.95046 0
M  V30 3963 N 372.481 1.55866 -0.233164 0
M  V30 3964 C 373.413 2.18099 0.704668 0
M  V30 3965 C 374.426 1.15334 1.14899 0
M  V30 3966 O 375.615 1.42262 1.07814 0
M  V30 3967 C 372.715 2.7592 1.96777 0
M  V30 3968 C 371.888 4.03969 1.67713 0
M  V30 3969 C 370.947 4.46242 2.78845 0
M  V30 3970 O 369.973 5.12903 2.46818 0
M  V30 3971 N 371.175 4.12886 4.08051 0
M  V30 3972 H 373.94 2.99205 0.172258 0
M  V30 3973 H 371.501 1.61815 -0.0525945 0
M  V30 3974 H 373.493 3.01165 2.70337 0
M  V30 3975 H 372.063 1.99051 2.41034 0
M  V30 3976 H 371.283 3.86459 0.777391 0
M  V30 3977 H 372.571 4.8748 1.4574 0
M  V30 3978 H 371.969 3.59342 4.3691 0
M  V30 3979 H 370.526 4.42997 4.78118 0
M  V30 3980 N 373.959 -0.0401083 1.57549 0
M  V30 3981 C 374.869 -1.06133 2.0922 0
M  V30 3982 C 375.885 -1.40356 1.0284 0
M  V30 3983 O 377.061 -1.49897 1.34509 0
M  V30 3984 C 374.126 -2.34658 2.55218 0
M  V30 3985 C 373.187 -2.07117 3.76033 0
M  V30 3986 C 372.42 -3.29514 4.19829 0
M  V30 3987 O 372.643 -4.39794 3.63232 0
M  V30 3988 O 371.577 -3.15863 5.12362 0
M  V30 3989 H 375.403 -0.652244 2.96613 0
M  V30 3990 H 372.988 -0.256368 1.47184 0
M  V30 3991 H 374.87 -3.10239 2.85184 0
M  V30 3992 H 373.545 -2.74883 1.70941 0
M  V30 3993 H 372.452 -1.29139 3.51104 0
M  V30 3994 H 373.785 -1.71754 4.61261 0
M  V30 3995 N 375.437 -1.54477 -0.31217 0
M  V30 3996 C 376.384 -1.84655 -1.38461 0
M  V30 3997 C 377.354 -0.694536 -1.50882 0
M  V30 3998 O 378.539 -0.942081 -1.6592 0
M  V30 3999 C 375.679 -2.0896 -2.74645 0
M  V30 4000 C 374.792 -3.36618 -2.70763 0
M  V30 4001 C 373.927 -3.50824 -3.98868 0
M  V30 4002 C 372.966 -4.72315 -3.89339 0
M  V30 4003 N 372.103 -4.83387 -5.09197 0
M  V30 4004 H 376.943 -2.76142 -1.12026 0
M  V30 4005 H 374.48 -1.36748 -0.542065 0
M  V30 4006 H 376.438 -2.21045 -3.53829 0
M  V30 4007 H 375.068 -1.20752 -2.99364 0
M  V30 4008 H 374.12 -3.33211 -1.83506 0
M  V30 4009 H 375.432 -4.25917 -2.59608 0
M  V30 4010 H 374.586 -3.62513 -4.86486 0
M  V30 4011 H 373.325 -2.59638 -4.12843 0
M  V30 4012 H 372.33 -4.6067 -3.00105 0
M  V30 4013 H 373.555 -5.64897 -3.76919 0
M  V30 4014 H 371.501 -3.9512 -5.23657 0
M  V30 4015 H 371.418 -5.66669 -5.00422 0
M  V30 4016 H 372.686 -4.9942 -5.98498 0
M  V30 4017 N 376.915 0.57481 -1.46744 0
M  V30 4018 C 377.825 1.711 -1.60505 0
M  V30 4019 C 378.841 1.67008 -0.488307 0
M  V30 4020 O 380.017 1.86774 -0.753495 0
M  V30 4021 C 377.082 3.07608 -1.59932 0
M  V30 4022 C 376.143 3.22904 -2.82898 0
M  V30 4023 C 375.376 4.529 -2.82343 0
M  V30 4024 O 375.599 5.37278 -1.91542 0
M  V30 4025 O 374.533 4.71611 -3.73987 0
M  V30 4026 H 378.359 1.62436 -2.56609 0
M  V30 4027 H 375.944 0.742779 -1.29627 0
M  V30 4028 H 377.826 3.88877 -1.62336 0
M  V30 4029 H 376.501 3.16692 -0.669898 0
M  V30 4030 H 375.408 2.41099 -2.86046 0
M  V30 4031 H 376.741 3.18715 -3.75076 0
M  V30 4032 N 378.394 1.34581 0.820102 0
M  V30 4033 C 379.342 1.26401 1.95258 0
M  V30 4034 C 380.336 0.161553 1.68628 0
M  V30 4035 O 381.542 0.326703 1.7701 0
M  V30 4036 H 377.917 0.392749 0.64129 0
M  V30 4037 H 379.888 2.22105 1.99279 0
M  V30 4038 C 378.637 1.03919 3.31807 0
M  V30 4039 H 377.96 1.87984 3.52848 0
M  V30 4040 H 379.4 1.02232 4.11491 0
M  V30 4041 C 377.859 -0.257433 3.35915 0
M  V30 4042 O 378.389 -1.25784 3.81499 0
M  V30 4043 N 376.595 -0.291524 2.89134 0
M  V30 4044 H 376.142 0.523161 2.52232 0
M  V30 4045 H 376.1 -1.15883 2.92264 0
M  V30 4046 O 379.911 -0.958615 1.29972 0
M  V30 4047 H 380.602 -1.5862 1.11172 0
M  V30 END ATOM
M  V30 BEGIN BOND
M  V30 END BOND
M  V30 END CTAB
M  END
$$$$
