drugbank_target|P04075 Fructose-bisphosphate aldolase A (DB01593; DB02512; DB04326; DB04733; DB08240; DB11638; DB14487; DB14533; DB14548)
 OpenBabel12092119583D

  0  0  0     0  0            999 V3000
M  V30 BEGIN CTAB
M  V30 COUNTS 5564 5618 0 0 0
M  V30 BEGIN ATOM
M  V30 1 H -0.908 1.98254 -0.117106 0
M  V30 2 N 0 1.576 0 0
M  V30 3 C 0.933 2.03868 1.02534 0
M  V30 4 C 1.911 0.928543 1.3348 0
M  V30 5 O 3.095 1.19667 1.45644 0
M  V30 6 C 0.222 2.43627 2.35294 0
M  V30 7 C -0.732 3.65373 2.2001 0
M  V30 8 S 0.101 5.13292 1.52614 0
M  V30 9 C 1.257 5.56322 2.86805 0
M  V30 10 H 1.49 2.90518 0.631377 0
M  V30 11 H -0.977 1.52953 0.210867 0
M  V30 12 H 0.981 2.67203 3.11629 0
M  V30 13 H -0.358 1.57376 2.7183 0
M  V30 14 H -1.165 3.90944 3.18086 0
M  V30 15 H -1.563 3.418 1.51819 0
M  V30 16 H 0.729 5.58782 3.83104 0
M  V30 17 H 1.672 6.56266 2.65933 0
M  V30 18 H 2.08 4.83886 2.90714 0
M  V30 19 N 1.4781 -0.272755 1.55222 0
M  V30 20 C 2.8891 -0.84378 1.66545 0
M  V30 21 C 3.2401 -1.87035 0.592641 0
M  V30 22 O 2.3651 -2.14761 -0.265818 0
M  V30 23 C 2.9601 -1.53723 3.01918 0
M  V30 24 C 1.5191 -2.05628 3.15268 0
M  V30 25 C 0.6661 -0.898424 2.62343 0
M  V30 26 H 3.6171 -0.0490998 1.58624 0
M  V30 27 H 3.6381 -2.40421 2.94921 0
M  V30 28 H 3.1501 -0.78983 3.79978 0
M  V30 29 H 1.2511 -2.83329 2.41983 0
M  V30 30 H 1.3641 -2.27142 4.21833 0
M  V30 31 H -0.2719 -1.29186 2.19506 0
M  V30 32 H 0.5111 -0.164528 3.42906 0
M  V30 33 N 2.9562 -1.48159 -0.537278 0
M  V30 34 C 4.1862 -1.59223 -1.3165 0
M  V30 35 C 4.5942 -0.248849 -1.87556 0
M  V30 36 O 3.9372 0.770949 -1.6674 0
M  V30 37 C 3.9992 -2.57365 -2.51005 0
M  V30 38 C 3.6632 -4.02603 -2.16239 0
M  V30 39 C 4.6602 -4.90503 -1.72344 0
M  V30 40 C 2.3452 -4.48088 -2.26986 0
M  V30 41 C 4.3392 -6.21913 -1.39651 0
M  V30 42 C 2.0262 -5.7952 -1.93906 0
M  V30 43 C 3.0242 -6.66255 -1.50309 0
M  V30 44 O 2.7122 -7.95243 -1.17659 0
M  V30 45 H 2.4442 -0.539831 -0.406889 0
M  V30 46 H 4.9982 -1.94655 -0.655641 0
M  V30 47 H 3.2282 -2.1704 -3.20048 0
M  V30 48 H 4.9172 -2.58342 -3.13072 0
M  V30 49 H 5.6832 -4.56604 -1.63517 0
M  V30 50 H 1.5622 -3.80769 -2.59877 0
M  V30 51 H 5.1062 -6.89569 -1.0555 0
M  V30 52 H 1.0032 -6.12957 -2.02371 0
M  V30 53 H 1.7712 -8.0793 -1.31119 0
M  V30 54 N 4.4343 0.785586 -1.36625 0
M  V30 55 C 5.3663 1.90711 -1.2713 0
M  V30 56 C 6.3793 1.61688 -0.189986 0
M  V30 57 O 7.5683 1.72864 -0.445014 0
M  V30 58 C 4.6683 3.25611 -0.939713 0
M  V30 59 C 3.8413 3.82385 -2.12369 0
M  V30 60 C 2.9003 4.95732 -1.76456 0
M  V30 61 O 1.9263 5.12047 -2.48589 0
M  V30 62 N 3.1283 5.76258 -0.700492 0
M  V30 63 H 5.8933 1.99376 -2.23762 0
M  V30 64 H 3.4543 0.964041 -1.30069 0
M  V30 65 H 5.4463 3.98937 -0.680554 0
M  V30 66 H 4.0163 3.12538 -0.0624074 0
M  V30 67 H 3.2363 3.01001 -2.54543 0
M  V30 68 H 4.5243 4.17047 -2.9146 0
M  V30 69 H 3.9223 5.65609 -0.101624 0
M  V30 70 H 2.4793 6.4987 -0.501165 0
M  V30 71 N 5.9124 1.20967 1.01018 0
M  V30 72 C 7.1424 1.04803 1.78044 0
M  V30 73 C 7.5504 -0.405462 1.84804 0
M  V30 74 O 6.8934 -1.2932 1.30468 0
M  V30 75 C 6.9554 1.56377 3.23707 0
M  V30 76 C 6.6194 3.04767 3.40538 0
M  V30 77 C 7.6164 4.02366 3.29239 0
M  V30 78 C 5.3014 3.43862 3.66147 0
M  V30 79 C 7.2954 5.37049 3.43304 0
M  V30 80 C 4.9824 4.78699 3.79855 0
M  V30 81 C 5.9804 5.75101 3.68439 0
M  V30 82 O 5.6684 7.07493 3.81719 0
M  V30 83 H 5.4004 0.368778 0.56655 0
M  V30 84 H 7.9544 1.60642 1.27997 0
M  V30 85 H 6.1844 0.949297 3.74867 0
M  V30 86 H 7.8734 1.36136 3.8239 0
M  V30 87 H 8.6394 3.73506 3.09384 0
M  V30 88 H 4.5184 2.69364 3.74118 0
M  V30 89 H 8.0624 6.12277 3.34309 0
M  V30 90 H 3.9594 5.07247 3.99213 0
M  V30 91 H 4.7274 7.1483 3.98697 0
M  V30 92 N 7.3905 -1.2043 1.01659 0
M  V30 93 C 8.8015 -1.71517 0.737482 0
M  V30 94 C 9.1525 -1.81547 -0.743973 0
M  V30 95 O 8.2775 -1.47803 -1.58061 0
M  V30 96 C 8.8725 -3.11515 1.33206 0
M  V30 97 C 7.4315 -3.59912 1.10183 0
M  V30 98 C 6.5785 -2.37116 1.43776 0
M  V30 99 H 9.5295 -1.05444 1.18606 0
M  V30 100 H 9.5505 -3.73575 0.722636 0
M  V30 101 H 9.0625 -3.04182 2.41028 0
M  V30 102 H 7.1635 -3.72577 0.0412756 0
M  V30 103 H 7.2765 -4.44731 1.78188 0
M  V30 104 H 5.6405 -2.39857 0.856778 0
M  V30 105 H 6.4235 -2.32424 2.52654 0
M  V30 106 N 8.8686 -0.792821 -1.36206 0
M  V30 107 C 9.8316 -0.199459 -2.2833 0
M  V30 108 C 10.8316 0.605189 -1.48977 0
M  V30 109 O 12.0216 0.425685 -1.68919 0
M  V30 110 C 9.1536 0.723523 -3.33134 0
M  V30 111 H 10.3466 -1.01181 -2.82316 0
M  V30 112 H 7.8996 -0.562485 -1.45828 0
M  V30 113 H 8.6346 1.56008 -2.84309 0
M  V30 114 H 8.4196 0.148436 -3.91819 0
M  V30 115 H 9.9096 1.13344 -4.01924 0
M  V30 116 N 10.3467 1.47872 -0.545128 0
M  V30 117 C 11.2767 2.32661 0.197793 0
M  V30 118 C 12.2577 1.43041 0.920504 0
M  V30 119 O 13.4427 1.71912 0.90333 0
M  V30 120 C 10.5727 3.24569 1.23582 0
M  V30 121 C 9.5267 4.23333 0.630323 0
M  V30 122 C 8.8527 5.0448 1.77211 0
M  V30 123 C 10.1527 5.20704 -0.407974 0
M  V30 124 H 11.8467 2.95024 -0.510045 0
M  V30 125 H 9.3927 1.4187 -0.246731 0
M  V30 126 H 11.3457 3.8272 1.76362 0
M  V30 127 H 10.0697 2.60236 1.97344 0
M  V30 128 H 8.7287 3.6639 0.123922 0
M  V30 129 H 8.3767 4.36561 2.49847 0
M  V30 130 H 8.0767 5.71339 1.37281 0
M  V30 131 H 9.6007 5.65487 2.3034 0
M  V30 132 H 11.0147 5.7329 0.033305 0
M  V30 133 H 9.4117 5.95699 -0.725486 0
M  V30 134 H 10.4817 4.66917 -1.30828 0
M  V30 135 N 11.8248 0.280983 1.55075 0
M  V30 136 C 13.0528 -0.337293 2.04132 0
M  V30 137 C 13.4678 -1.4903 1.15912 0
M  V30 138 O 12.8248 -1.81606 0.180459 0
M  V30 139 C 12.8758 -0.812706 3.52246 0
M  V30 140 O 12.5968 0.294387 4.3711 0
M  V30 141 C 14.0978 -1.4982 4.17216 0
M  V30 142 H 11.3178 -0.0761638 0.666663 0
M  V30 143 H 13.8618 0.414787 2.00249 0
M  V30 144 H 12.0168 -1.51486 3.56554 0
M  V30 145 H 12.4308 -0.0721325 5.2445 0
M  V30 146 H 13.9048 -1.7822 5.22438 0
M  V30 147 H 14.3818 -2.43168 3.65741 0
M  V30 148 H 14.9878 -0.839742 4.16927 0
M  V30 149 N 13.3029 -1.57598 0.00835791 0
M  V30 150 C 14.7139 -1.7892 -0.53333 0
M  V30 151 C 15.0649 -0.916609 -1.73473 0
M  V30 152 O 14.1899 -0.121336 -2.1606 0
M  V30 153 C 14.7849 -3.24488 -0.974313 0
M  V30 154 C 13.3439 -3.46878 -1.46125 0
M  V30 155 C 12.4909 -2.74157 -0.416302 0
M  V30 156 H 15.4419 -1.56958 0.234495 0
M  V30 157 H 15.4629 -3.3306 -1.83988 0
M  V30 158 H 14.9749 -3.87972 -0.099718 0
M  V30 159 H 13.0759 -2.8862 -2.35646 0
M  V30 160 H 13.1889 -4.55572 -1.48295 0
M  V30 161 H 11.5529 -2.39022 -0.87981 0
M  V30 162 H 12.3359 -3.40345 0.44947 0
M  V30 163 N 14.781 0.264519 -1.55364 0
M  V30 164 C 15.691 1.34902 -1.91934 0
M  V30 165 C 16.707 1.53595 -0.817593 0
M  V30 166 O 17.883 1.67558 -1.11742 0
M  V30 167 C 14.948 2.68676 -2.19121 0
M  V30 168 C 14.009 2.58657 -3.4263 0
M  V30 169 C 13.242 3.86051 -3.68511 0
M  V30 170 O 13.465 4.87126 -2.96757 0
M  V30 171 O 12.399 3.85744 -4.62045 0
M  V30 172 H 16.225 1.06883 -2.8427 0
M  V30 173 H 13.81 0.463775 -1.42019 0
M  V30 174 H 15.692 3.47759 -2.37995 0
M  V30 175 H 14.367 2.96463 -1.29966 0
M  V30 176 H 13.274 1.7792 -3.29082 0
M  V30 177 H 14.607 2.35818 -4.32031 0
M  V30 178 N 16.2591 1.48442 0.529413 0
M  V30 179 C 17.1911 1.59095 1.64989 0
M  V30 180 C 18.2041 0.475212 1.5571 0
M  V30 181 O 19.3931 0.746081 1.6216 0
M  V30 182 C 16.4931 1.50518 3.0364 0
M  V30 183 C 15.6661 2.77142 3.38395 0
M  V30 184 C 14.7251 2.62012 4.56329 0
M  V30 185 O 13.7511 3.35898 4.59522 0
M  V30 186 N 14.9531 1.71667 5.54536 0
M  V30 187 H 17.7181 2.55723 1.56287 0
M  V30 188 H 15.2791 1.45173 0.716697 0
M  V30 189 H 17.2711 1.38091 3.80412 0
M  V30 190 H 15.8411 0.618627 3.06418 0
M  V30 191 H 15.0611 3.0413 2.50796 0
M  V30 192 H 16.3491 3.61146 3.58401 0
M  V30 193 H 15.7471 1.10841 5.54735 0
M  V30 194 H 14.3041 1.65178 6.30523 0
M  V30 195 N 17.7372 -0.778329 1.37039 0
M  V30 196 C 18.6842 -1.89139 1.32269 0
M  V30 197 C 19.6542 -1.65017 0.189387 0
M  V30 198 O 20.8392 -1.87024 0.377693 0
M  V30 199 C 17.9792 -3.26112 1.12894 0
M  V30 200 C 17.0922 -3.62233 2.35396 0
M  V30 201 C 16.2272 -4.8838 2.08946 0
M  V30 202 C 15.2662 -5.17212 3.2735 0
M  V30 203 N 14.4032 -6.34546 3.00492 0
M  V30 204 H 19.2432 -1.92552 2.27437 0
M  V30 205 H 16.7802 -0.941473 1.13025 0
M  V30 206 H 18.7382 -4.05116 0.996835 0
M  V30 207 H 17.3682 -3.22091 0.213758 0
M  V30 208 H 16.4202 -2.78265 2.5937 0
M  V30 209 H 17.7322 -3.79481 3.23721 0
M  V30 210 H 16.8862 -5.75274 1.92729 0
M  V30 211 H 15.6252 -4.73222 1.17949 0
M  V30 212 H 14.6302 -4.28796 3.44113 0
M  V30 213 H 15.8552 -5.34283 4.19188 0
M  V30 214 H 13.8012 -6.20759 2.12118 0
M  V30 215 H 13.7182 -6.52179 3.82358 0
M  V30 216 H 14.9862 -7.24394 2.87879 0
M  V30 217 N 19.2153 -1.21501 -1.00376 0
M  V30 218 C 20.1623 -0.975387 -2.09177 0
M  V30 219 C 21.1323 0.0990615 -1.65804 0
M  V30 220 O 22.3173 -0.0483147 -1.90739 0
M  V30 221 C 19.4573 -0.547507 -3.40729 0
M  V30 222 C 18.5703 -1.69153 -3.97506 0
M  V30 223 C 17.7053 -1.2127 -5.17172 0
M  V30 224 C 16.7443 -2.32897 -5.66061 0
M  V30 225 N 15.8813 -1.86138 -6.76976 0
M  V30 226 H 20.7213 -1.9068 -2.29009 0
M  V30 227 H 18.2583 -0.950257 -1.12288 0
M  V30 228 H 20.2163 -0.280667 -4.16255 0
M  V30 229 H 18.8463 0.346904 -3.20931 0
M  V30 230 H 17.8983 -2.07298 -3.18954 0
M  V30 231 H 19.2103 -2.5316 -4.29781 0
M  V30 232 H 18.3643 -0.902591 -5.99948 0
M  V30 233 H 17.1033 -0.342692 -4.86495 0
M  V30 234 H 16.1083 -2.64709 -4.81881 0
M  V30 235 H 17.3333 -3.20396 -5.98768 0
M  V30 236 H 15.2793 -1.01484 -6.48103 0
M  V30 237 H 15.1963 -2.63717 -7.08512 0
M  V30 238 H 16.4643 -1.58165 -7.63285 0
M  V30 239 N 20.6934 1.19889 -1.02296 0
M  V30 240 C 21.6034 2.26571 -0.608508 0
M  V30 241 C 22.6194 1.70299 0.356964 0
M  V30 242 O 23.7954 2.00235 0.216326 0
M  V30 243 C 20.8604 3.46677 0.0402814 0
M  V30 244 C 19.9214 4.18153 -0.97194 0
M  V30 245 C 19.1544 5.32525 -0.354016 0
M  V30 246 O 19.3774 5.64112 0.844604 0
M  V30 247 O 18.3114 5.92242 -1.07391 0
M  V30 248 H 22.1374 2.64251 -1.49684 0
M  V30 249 H 19.7224 1.26629 -0.792809 0
M  V30 250 H 21.6044 4.19475 0.402324 0
M  V30 251 H 20.2794 3.10858 0.902707 0
M  V30 252 H 19.1864 3.47499 -1.38546 0
M  V30 253 H 20.5194 4.57927 -1.80454 0
M  V30 254 N 22.1715 0.800033 1.35784 0
M  V30 255 C 23.1015 0.220184 2.3246 0
M  V30 256 C 24.0825 -0.65073 1.57161 0
M  V30 257 O 25.2675 -0.582359 1.85263 0
M  V30 258 C 22.3975 -0.637353 3.41402 0
M  V30 259 C 21.3515 0.134531 4.27789 0
M  V30 260 C 20.6775 -0.844285 5.27992 0
M  V30 261 C 21.9775 1.32979 5.05088 0
M  V30 262 H 23.6715 1.02787 2.81203 0
M  V30 263 H 21.2175 0.495717 1.35199 0
M  V30 264 H 23.1705 -1.05302 4.08031 0
M  V30 265 H 21.8945 -1.47785 2.91251 0
M  V30 266 H 20.5535 0.531296 3.6273 0
M  V30 267 H 20.2015 -1.68011 4.74111 0
M  V30 268 H 19.9015 -0.332184 5.8666 0
M  V30 269 H 21.4255 -1.2583 5.97494 0
M  V30 270 H 22.8395 0.98934 5.64699 0
M  V30 271 H 21.2365 1.77593 5.7322 0
M  V30 272 H 22.3065 2.11978 4.36111 0
M  V30 273 N 23.6496 -1.47581 0.552962 0
M  V30 274 C 24.8746 -2.07378 0.0300593 0
M  V30 275 C 25.2996 -1.40355 -1.25229 0
M  V30 276 O 24.6576 -0.477099 -1.7491 0
M  V30 277 C 24.7056 -3.60274 -0.153231 0
M  V30 278 O 23.8096 -3.94041 -1.21678 0
M  V30 279 H 23.1506 -0.662158 0.0494182 0
M  V30 280 H 25.6806 -1.89662 0.767434 0
M  V30 281 H 25.6906 -4.0633 -0.368761 0
M  V30 282 H 24.3656 -4.08455 0.783397 0
M  V30 283 H 22.9426 -3.59735 -0.982079 0
M  V30 284 N 25.1277 -0.289203 -1.54924 0
M  V30 285 C 26.4047 0.376032 -1.91951 0
M  V30 286 C 26.7847 1.72622 -1.21511 0
M  V30 287 O 26.1327 2.25853 -0.346767 0
M  V30 288 C 26.3427 0.502378 -3.45365 0
M  V30 289 C 27.6907 0.778741 -4.17398 0
M  V30 290 O 28.7147 0.586647 -3.51336 0
M  V30 291 O 27.5737 1.14698 -5.34328 0
M  V30 292 H 24.6677 0.208167 -0.800372 0
M  V30 293 H 27.2137 -0.336394 -1.66332 0
M  V30 294 H 25.9857 -0.447255 -3.88736 0
M  V30 295 H 25.6087 1.26373 -3.76982 0
M  V30 296 N 26.6058 1.57591 -0.0167156 0
M  V30 297 C 27.8548 1.90461 0.663877 0
M  V30 298 C 28.1678 0.893515 1.73999 0
M  V30 299 O 29.3738 1.11302 2.47637 0
M  V30 300 C 27.8298 3.38155 1.23204 0
M  V30 301 C 27.4378 4.47597 0.189866 0
M  V30 302 C 29.1818 3.80111 1.88986 0
M  V30 303 C 27.0888 5.86379 0.768964 0
M  V30 304 H 26.0188 0.710738 0.251729 0
M  V30 305 H 28.6698 1.83326 -0.0799926 0
M  V30 306 H 27.0518 3.40182 2.02712 0
M  V30 307 H 28.2258 4.57112 -0.581846 0
M  V30 308 H 26.5408 4.14766 -0.368475 0
M  V30 309 H 29.1378 4.81145 2.33247 0
M  V30 310 H 29.4808 3.14511 2.72743 0
M  V30 311 H 30.0138 3.80454 1.16187 0
M  V30 312 H 26.7528 6.55493 -0.0301957 0
M  V30 313 H 26.2728 5.80496 1.50945 0
M  V30 314 H 27.9518 6.34563 1.26251 0
M  V30 315 N 28.0839 -0.256276 1.55502 0
M  V30 316 C 29.0469 -1.30047 1.88734 0
M  V30 317 C 30.0469 -1.4154 0.763086 0
M  V30 318 O 31.2369 -1.40403 1.03115 0
M  V30 319 C 28.3689 -2.67953 2.10747 0
M  V30 320 H 29.5619 -1.01802 2.82093 0
M  V30 321 H 27.1149 -0.495134 1.4825 0
M  V30 322 H 27.8499 -3.01351 1.19825 0
M  V30 323 H 27.6349 -2.60993 2.92617 0
M  V30 324 H 29.1249 -3.43368 2.37673 0
M  V30 325 N 29.562 -1.4872 -0.521534 0
M  V30 326 C 30.512 -1.60269 -1.62166 0
M  V30 327 C 31.496 -0.45935 -1.54204 0
M  V30 328 O 32.688 -0.711241 -1.62081 0
M  V30 329 C 29.817 -1.65344 -3.00859 0
M  V30 330 C 28.903 -2.85187 -3.13894 0
M  V30 331 N 29.294 -4.09509 -2.96877 0
M  V30 332 C 27.592 -2.82695 -3.44963 0
M  V30 333 C 28.293 -4.89959 -3.13552 0
M  V30 334 N 27.269 -4.22934 -3.41508 0
M  V30 335 H 31.071 -2.5413 -1.47632 0
M  V30 336 H 28.585 -1.45209 -0.727194 0
M  V30 337 H 30.582 -1.71713 -3.79895 0
M  V30 338 H 29.242 -0.726058 -3.16478 0
M  V30 339 H 30.253 -4.39814 -2.73467 0
M  V30 340 H 26.93 -1.99249 -3.66887 0
M  V30 341 H 28.32 -5.98654 -3.05061 0
M  V30 342 N 31.0401 0.771051 -1.3745 0
M  V30 343 C 32.4561 1.07171 -1.18265 0
M  V30 344 C 32.6561 2.01491 -0.019287 0
M  V30 345 O 31.7121 2.44244 0.640408 0
M  V30 346 C 33.0251 1.66854 -2.50161 0
M  V30 347 C 34.5731 1.79109 -2.56689 0
M  V30 348 C 35.0481 2.42205 -3.88717 0
M  V30 349 N 36.5391 2.49655 -3.90162 0
M  V30 350 C 37.2741 2.9933 -4.8907 0
M  V30 351 N 36.7701 3.49172 -5.98374 0
M  V30 352 N 38.5631 2.9821 -4.76474 0
M  V30 353 H 30.7141 0.144796 -2.11906 0
M  V30 354 H 32.9771 0.126863 -0.939473 0
M  V30 355 H 32.6831 1.05017 -3.35655 0
M  V30 356 H 32.5571 2.6614 -2.673 0
M  V30 357 H 34.9441 2.40077 -1.71601 0
M  V30 358 H 35.0251 0.785757 -2.43433 0
M  V30 359 H 34.6691 1.81875 -4.74219 0
M  V30 360 H 34.5991 3.43345 -3.99276 0
M  V30 361 H 37.0901 2.14383 -3.11205 0
M  V30 362 H 37.4031 3.8548 -6.69795 0
M  V30 363 H 35.7481 3.47275 -6.02018 0
M  V30 364 H 38.9391 2.58572 -3.90203 0
M  V30 365 H 39.1121 3.36613 -5.53711 0
M  V30 366 N 32.5182 1.22032 0.997298 0
M  V30 367 C 33.7672 1.03637 1.73038 0
M  V30 368 C 34.0802 -0.429475 1.90827 0
M  V30 369 O 35.2862 -0.732995 2.61418 0
M  V30 370 C 33.7422 1.80582 3.11317 0
M  V30 371 C 33.3502 3.31387 3.01474 0
M  V30 372 C 35.0942 1.70621 3.88701 0
M  V30 373 C 33.0012 4.00791 4.3488 0
M  V30 374 H 31.9312 0.384179 0.648785 0
M  V30 375 H 34.5822 1.4584 1.11368 0
M  V30 376 H 32.9642 1.31175 3.73643 0
M  V30 377 H 34.1382 3.88155 2.4834 0
M  V30 378 H 32.4532 3.41976 2.37575 0
M  V30 379 H 35.0502 2.19799 4.87434 0
M  V30 380 H 35.3932 0.665823 4.10941 0
M  V30 381 H 35.9262 2.17547 3.33044 0
M  V30 382 H 32.6652 5.05064 4.1784 0
M  V30 383 H 32.1852 3.48811 4.87945 0
M  V30 384 H 33.8642 4.06139 5.03647 0
M  V30 385 N 33.9963 -1.19345 1.0293 0
M  V30 386 C 35.2423 -1.89318 0.727083 0
M  V30 387 C 35.5753 -1.79446 -0.742483 0
M  V30 388 O 34.8503 -1.1871 -1.54072 0
M  V30 389 C 35.1333 -3.40238 1.17942 0
M  V30 390 C 34.9863 -3.58979 2.71024 0
M  V30 391 C 36.3053 -4.33479 0.760548 0
M  V30 392 H 33.4243 -0.687475 0.265606 0
M  V30 393 H 36.0663 -1.40477 1.2793 0
M  V30 394 H 34.2163 -3.81964 0.709608 0
M  V30 395 H 35.8883 -3.26421 3.25955 0
M  V30 396 H 34.1313 -3.02018 3.11396 0
M  V30 397 H 34.8023 -4.64823 2.9773 0
M  V30 398 H 37.2783 -3.99469 1.16464 0
M  V30 399 H 36.1543 -5.37664 1.10493 0
M  V30 400 H 36.4153 -4.40813 -0.337063 0
M  V30 401 N 35.4744 -0.807222 -1.35358 0
M  V30 402 C 36.4374 -0.223665 -2.28106 0
M  V30 403 C 37.4374 0.589354 -1.4961 0
M  V30 404 O 38.6274 0.407745 -1.69361 0
M  V30 405 C 35.7594 0.688149 -3.33882 0
M  V30 406 H 36.9524 -1.04169 -2.81227 0
M  V30 407 H 34.5054 -0.577921 -1.45223 0
M  V30 408 H 35.2404 1.52984 -2.85948 0
M  V30 409 H 35.0254 0.10687 -3.91954 0
M  V30 410 H 36.5154 1.09075 -4.03104 0
M  V30 411 N 36.9525 1.47285 -0.560781 0
M  V30 412 C 38.3635 1.86258 -0.128343 0
M  V30 413 C 38.7145 1.46699 1.30284 0
M  V30 414 O 37.8395 0.871698 1.98067 0
M  V30 415 C 38.4345 3.38044 -0.22614 0
M  V30 416 C 36.9935 3.76096 0.151283 0
M  V30 417 C 36.1405 2.71335 -0.572084 0
M  V30 418 H 39.0915 1.38752 -0.770297 0
M  V30 419 H 39.1125 3.76441 0.554322 0
M  V30 420 H 38.6245 3.66806 -1.26788 0
M  V30 421 H 36.7255 3.52951 1.19399 0
M  V30 422 H 36.8385 4.78641 -0.209765 0
M  V30 423 H 35.2025 2.54696 -0.0147653 0
M  V30 424 H 35.9855 3.02938 -1.61504 0
M  V30 425 N 38.4306 0.297415 1.54768 0
M  V30 426 C 39.6786 -0.312295 1.99673 0
M  V30 427 C 39.9996 -1.54686 1.18732 0
M  V30 428 O 39.2696 -1.93854 0.282382 0
M  V30 429 H 37.8496 -0.118381 0.73756 0
M  V30 430 H 40.5116 0.407915 1.90583 0
M  V30 431 H 39.6076 -0.586813 3.06534 0
M  V30 432 N 39.9087 -1.5758 0.0250728 0
M  V30 433 C 40.8557 -2.09973 -0.958129 0
M  V30 434 C 41.8257 -1.00085 -1.3256 0
M  V30 435 O 43.0107 -1.27481 -1.41962 0
M  V30 436 C 40.1507 -2.62812 -2.2366 0
M  V30 437 C 39.2637 -3.86693 -1.92594 0
M  V30 438 C 38.3987 -4.27941 -3.14707 0
M  V30 439 C 37.4377 -5.44591 -2.79442 0
M  V30 440 N 36.5747 -5.81014 -3.94167 0
M  V30 441 H 41.4147 -2.937 -0.504428 0
M  V30 442 H 38.9517 -1.45172 -0.237392 0
M  V30 443 H 40.9097 -2.91536 -2.98434 0
M  V30 444 H 39.5397 -1.81922 -2.66654 0
M  V30 445 H 38.5917 -3.64723 -1.0808 0
M  V30 446 H 39.9037 -4.71547 -1.62619 0
M  V30 447 H 39.0577 -4.58079 -3.97804 0
M  V30 448 H 37.7967 -3.41845 -3.4784 0
M  V30 449 H 36.8017 -5.1415 -1.94755 0
M  V30 450 H 38.0267 -6.32382 -2.47528 0
M  V30 451 H 35.9727 -4.97874 -4.2715 0
M  V30 452 H 35.8897 -6.60498 -3.67801 0
M  V30 453 H 37.1577 -6.15756 -4.7798 0
M  V30 454 N 41.3868 0.248026 -1.55636 0
M  V30 455 C 42.6348 0.974295 -1.77065 0
M  V30 456 C 42.9558 1.85897 -0.588849 0
M  V30 457 O 42.2258 1.91868 0.395407 0
M  V30 458 H 40.8058 0.362733 -0.653019 0
M  V30 459 H 43.4678 0.266244 -1.93073 0
M  V30 460 H 42.5638 1.59667 -2.68166 0
M  V30 461 N 42.8649 1.48995 0.513639 0
M  V30 462 C 44.1139 1.57093 1.2651 0
M  V30 463 C 44.4269 0.257091 1.93903 0
M  V30 464 O 45.6329 0.216478 2.70636 0
M  V30 465 C 44.0889 2.77118 2.29638 0
M  V30 466 C 43.6969 4.15209 1.68241 0
M  V30 467 C 45.4409 2.94538 3.05692 0
M  V30 468 C 43.3479 5.26474 2.69406 0
M  V30 469 H 42.2779 0.584876 0.475854 0
M  V30 470 H 44.9289 1.7536 0.540487 0
M  V30 471 H 43.3109 2.52319 3.05207 0
M  V30 472 H 44.4849 4.50094 0.987505 0
M  V30 473 H 42.7999 4.03042 1.04623 0
M  V30 474 H 45.3969 3.74832 3.8132 0
M  V30 475 H 45.7399 2.04614 3.62545 0
M  V30 476 H 46.2729 3.19316 2.37238 0
M  V30 477 H 43.0119 6.18417 2.17351 0
M  V30 478 H 42.5319 4.96058 3.37175 0
M  V30 479 H 44.2109 5.55277 3.32078 0
M  V30 480 N 44.343 -0.763751 1.37857 0
M  V30 481 C 45.273 -1.89103 1.36975 0
M  V30 482 C 46.254 -1.68439 0.237152 0
M  V30 483 O 47.439 -1.8918 0.438713 0
M  V30 484 C 44.569 -3.26496 1.18395 0
M  V30 485 C 43.523 -3.61741 2.28751 0
M  V30 486 C 42.849 -4.97762 1.95286 0
M  V30 487 C 44.149 -3.67665 3.70972 0
M  V30 488 H 45.843 -1.90099 2.31307 0
M  V30 489 H 43.389 -0.91319 1.11341 0
M  V30 490 H 45.342 -4.05003 1.16406 0
M  V30 491 H 44.066 -3.25955 0.205215 0
M  V30 492 H 42.725 -2.85547 2.29909 0
M  V30 493 H 42.373 -4.93769 0.959221 0
M  V30 494 H 42.073 -5.22313 2.69189 0
M  V30 495 H 43.597 -5.7866 1.94898 0
M  V30 496 H 45.011 -4.36307 3.719 0
M  V30 497 H 43.408 -4.03718 4.43995 0
M  V30 498 H 44.478 -2.68134 4.0402 0
M  V30 499 N 45.8211 -1.22559 -0.990812 0
M  V30 500 C 46.7841 -0.998863 -2.0629 0
M  V30 501 C 47.7841 0.0354834 -1.60761 0
M  V30 502 O 48.9741 -0.203231 -1.7301 0
M  V30 503 C 46.1061 -0.509203 -3.37076 0
M  V30 504 H 47.2991 -1.95014 -2.27837 0
M  V30 505 H 44.8521 -1.04456 -1.16269 0
M  V30 506 H 45.5871 0.446335 -3.21214 0
M  V30 507 H 45.3721 -1.25547 -3.71457 0
M  V30 508 H 46.8621 -0.370888 -4.1595 0
M  V30 509 N 47.2992 1.18797 -1.03562 0
M  V30 510 C 48.2622 2.20464 -0.626769 0
M  V30 511 C 49.2622 1.57721 0.313173 0
M  V30 512 O 50.4522 1.73917 0.0992615 0
M  V30 513 C 47.5842 3.40802 0.0818498 0
M  V30 514 H 48.7772 2.58149 -1.5264 0
M  V30 515 H 46.3302 1.32593 -0.827578 0
M  V30 516 H 47.0652 3.08642 0.995518 0
M  V30 517 H 46.8502 3.8758 -0.593652 0
M  V30 518 H 48.3402 4.16092 0.354584 0
M  V30 519 N 48.7773 0.814389 1.34928 0
M  V30 520 C 50.0543 0.321363 1.92942 0
M  V30 521 C 50.4343 -1.19014 1.74353 0
M  V30 522 O 49.7823 -1.99328 1.11716 0
M  V30 523 C 49.9923 0.741323 3.41036 0
M  V30 524 C 51.3403 0.735266 4.18185 0
M  V30 525 O 52.3643 0.68336 3.49584 0
M  V30 526 O 51.2233 0.800703 5.40602 0
M  V30 527 H 48.3173 0.0858893 0.822528 0
M  V30 528 H 50.8633 0.898609 1.43955 0
M  V30 529 H 49.6353 1.78276 3.4833 0
M  V30 530 H 49.2583 0.139307 3.97356 0
M  V30 531 N 50.2554 -1.46986 0.568584 0
M  V30 532 C 51.1654 -2.33942 -0.17555 0
M  V30 533 C 52.1814 -1.48891 -0.90041 0
M  V30 534 O 53.3574 -1.81794 -0.86676 0
M  V30 535 C 50.4224 -3.25811 -1.18524 0
M  V30 536 C 49.4834 -4.26757 -0.466582 0
M  V30 537 C 48.7164 -5.14236 -1.42817 0
M  V30 538 O 48.9394 -5.04379 -2.66379 0
M  V30 539 O 47.8734 -5.94412 -0.946453 0
M  V30 540 H 51.6994 -2.98896 0.538036 0
M  V30 541 H 49.2844 -1.4573 0.329097 0
M  V30 542 H 51.1664 -3.82527 -1.76779 0
M  V30 543 H 49.8414 -2.63471 -1.88055 0
M  V30 544 H 48.7484 -3.73769 0.157451 0
M  V30 545 H 50.0814 -4.91843 0.187485 0
M  V30 546 N 51.7335 -0.305618 -1.54608 0
M  V30 547 C 52.9585 0.307562 -2.05107 0
M  V30 548 C 53.3835 1.46385 -1.18123 0
M  V30 549 O 52.7415 1.8034 -0.186324 0
M  V30 550 C 52.7895 0.73704 -3.52987 0
M  V30 551 O 51.8935 1.84134 -3.6901 0
M  V30 552 H 51.2345 0.0589143 -0.661381 0
M  V30 553 H 53.7645 -0.448807 -1.99617 0
M  V30 554 H 53.7745 1.02459 -3.94925 0
M  V30 555 H 52.4495 -0.108773 -4.15758 0
M  V30 556 H 51.0265 1.55398 -3.38978 0
M  V30 557 N 53.2116 1.57565 -0.0334293 0
M  V30 558 C 54.4396 1.9628 0.654347 0
M  V30 559 C 54.8546 0.910138 1.65414 0
M  V30 560 O 54.2116 -0.107595 1.82183 0
M  V30 561 C 54.2626 3.35067 1.35693 0
M  V30 562 O 53.9836 4.36296 0.397191 0
M  V30 563 C 55.4846 3.88439 2.13613 0
M  V30 564 H 52.7046 0.646369 0.180132 0
M  V30 565 H 55.2486 2.04282 -0.0944721 0
M  V30 566 H 53.4036 3.2827 2.05712 0
M  V30 567 H 53.8176 5.1678 0.896597 0
M  V30 568 H 55.2916 4.8788 2.58219 0
M  V30 569 H 55.7686 3.22914 2.97696 0
M  V30 570 H 56.3746 3.98516 1.48543 0
M  V30 571 N 54.6897 -0.239769 1.55765 0
M  V30 572 C 55.9377 -0.964892 1.77579 0
M  V30 573 C 56.2587 -1.85582 0.598699 0
M  V30 574 O 55.5287 -1.92075 -0.385226 0
M  V30 575 H 54.1087 -0.359265 0.654933 0
M  V30 576 H 56.7707 -0.256001 1.93211 0
M  V30 577 H 55.8667 -1.58243 2.69009 0
M  V30 578 N 56.1678 -1.49265 -0.50573 0
M  V30 579 C 57.3928 -1.62478 -1.28902 0
M  V30 580 C 57.8178 -0.294332 -1.85783 0
M  V30 581 O 57.1758 0.737412 -1.65626 0
M  V30 582 C 57.2238 -2.69268 -2.39848 0
M  V30 583 O 56.3278 -2.28113 -3.43567 0
M  V30 584 H 55.6688 -0.54399 -0.380751 0
M  V30 585 H 58.1988 -1.95421 -0.605952 0
M  V30 586 H 58.2088 -2.91291 -2.85681 0
M  V30 587 H 56.8838 -3.65846 -1.97812 0
M  V30 588 H 55.4608 -2.16401 -3.03685 0
M  V30 589 N 57.6459 0.756429 -1.3826 0
M  V30 590 C 58.8949 1.51082 -1.3363 0
M  V30 591 C 59.2079 1.95467 0.0720068 0
M  V30 592 O 60.4139 2.7043 0.240834 0
M  V30 593 C 58.8699 2.72893 -2.34644 0
M  V30 594 C 58.4779 2.35544 -3.81081 0
M  V30 595 C 60.2219 3.50791 -2.39052 0
M  V30 596 C 58.1289 3.53948 -4.73787 0
M  V30 597 H 57.0589 0.56727 -0.49671 0
M  V30 598 H 59.7099 0.827147 -1.638 0
M  V30 599 H 58.0919 3.43227 -1.97513 0
M  V30 600 H 59.2659 1.72894 -4.27135 0
M  V30 601 H 57.5809 1.70786 -3.79764 0
M  V30 602 H 60.1779 4.38823 -3.05513 0
M  V30 603 H 60.5209 3.91745 -1.40861 0
M  V30 604 H 61.0539 2.87467 -2.74968 0
M  V30 605 H 57.7929 3.18064 -5.73163 0
M  V30 606 H 57.3129 4.15651 -4.32428 0
M  V30 607 H 58.9919 4.20566 -4.91663 0
M  V30 608 N 59.124 1.23083 0.984299 0
M  V30 609 C 60.087 1.00979 2.05757 0
M  V30 610 C 61.087 -0.0269573 1.60777 0
M  V30 611 O 62.277 0.212403 1.729 0
M  V30 612 C 59.409 0.527072 3.36801 0
M  V30 613 H 60.602 1.9622 2.26799 0
M  V30 614 H 58.155 1.05072 1.15714 0
M  V30 615 H 58.89 -0.429294 3.21446 0
M  V30 616 H 58.675 1.27515 3.70786 0
M  V30 617 H 60.165 0.392942 4.15747 0
M  V30 618 N 60.6021 -1.18246 1.0419 0
M  V30 619 C 61.5491 -2.2192 0.634037 0
M  V30 620 C 62.5191 -1.62179 -0.358765 0
M  V30 621 O 63.7041 -1.89122 -0.252466 0
M  V30 622 C 60.8441 -3.451 0.00445535 0
M  V30 623 C 59.9571 -4.19174 1.04487 0
M  V30 624 C 59.0921 -5.29813 0.383676 0
M  V30 625 C 58.1311 -5.9566 1.4091 0
M  V30 626 N 57.2681 -6.97834 0.772784 0
M  V30 627 H 62.1081 -2.56164 1.52263 0
M  V30 628 H 59.6451 -1.25843 0.761701 0
M  V30 629 H 61.6031 -4.15485 -0.377919 0
M  V30 630 H 60.2331 -3.11472 -0.847652 0
M  V30 631 H 59.2851 -3.47604 1.54518 0
M  V30 632 H 60.5971 -4.64267 1.82368 0
M  V30 633 H 59.7511 -6.06677 -0.0528366 0
M  V30 634 H 58.4901 -4.85825 -0.427208 0
M  V30 635 H 57.4951 -5.17535 1.85574 0
M  V30 636 H 58.7201 -6.4173 2.22171 0
M  V30 637 H 56.6661 -6.55998 -0.0177708 0
M  V30 638 H 56.5831 -7.41186 1.48928 0
M  V30 639 H 57.8511 -7.78665 0.36071 0
M  V30 640 N 62.0802 -0.821533 -1.34494 0
M  V30 641 C 63.4962 -0.507117 -1.51329 0
M  V30 642 C 63.6962 0.968964 -1.76673 0
M  V30 643 O 62.7522 1.75348 -1.81685 0
M  V30 644 C 64.0652 -1.36544 -2.67911 0
M  V30 645 C 65.6132 -1.36242 -2.81793 0
M  V30 646 C 66.0882 -2.2052 -4.01416 0
M  V30 647 N 67.5792 -2.18136 -4.08621 0
M  V30 648 C 68.3142 -2.80095 -5.00334 0
M  V30 649 N 67.8102 -3.51039 -5.9728 0
M  V30 650 N 69.6032 -2.69656 -4.93196 0
M  V30 651 H 61.7542 -1.77729 -1.16302 0
M  V30 652 H 64.0172 -0.757291 -0.570276 0
M  V30 653 H 63.7232 -2.41361 -2.55808 0
M  V30 654 H 63.5972 -1.02917 -3.62888 0
M  V30 655 H 65.9842 -0.322041 -2.93338 0
M  V30 656 H 66.0652 -1.73866 -1.87628 0
M  V30 657 H 65.7092 -3.24607 -3.90631 0
M  V30 658 H 65.6392 -1.80247 -4.94791 0
M  V30 659 H 68.1302 -1.6653 -3.39229 0
M  V30 660 H 68.4432 -3.95565 -6.63889 0
M  V30 661 H 66.7882 -3.55145 -5.97409 0
M  V30 662 H 69.9792 -2.13808 -4.16418 0
M  V30 663 H 70.1522 -3.1823 -5.64476 0
M  V30 664 N 63.5583 1.46682 -0.576371 0
M  V30 665 C 64.4883 2.33028 0.148397 0
M  V30 666 C 65.4693 1.44961 0.889956 0
M  V30 667 O 66.6543 1.73789 0.866662 0
M  V30 668 C 63.7843 3.27117 1.1667 0
M  V30 669 C 62.7383 4.24575 0.540386 0
M  V30 670 C 62.0643 5.08126 1.6647 0
M  V30 671 C 63.3643 5.19722 -0.518331 0
M  V30 672 H 65.0583 2.93875 -0.572509 0
M  V30 673 H 62.6043 1.41315 -0.276768 0
M  V30 674 H 64.5573 3.86374 1.68204 0
M  V30 675 H 63.2813 2.64364 1.9178 0
M  V30 676 H 61.9403 3.66571 0.0461769 0
M  V30 677 H 61.5883 4.41762 2.40531 0
M  V30 678 H 61.2883 5.74122 1.25131 0
M  V30 679 H 62.8123 5.70246 2.18293 0
M  V30 680 H 64.2263 5.73232 -0.0883058 0
M  V30 681 H 62.6233 5.94026 -0.851679 0
M  V30 682 H 63.6933 4.64037 -1.40703 0
M  V30 683 N 65.0364 0.313813 1.54444 0
M  V30 684 C 65.9684 -0.590425 2.21465 0
M  V30 685 C 66.9814 -1.08753 1.21147 0
M  V30 686 O 68.1704 -1.00278 1.4767 0
M  V30 687 C 65.2704 -1.82179 2.85769 0
M  V30 688 C 64.4434 -1.46502 4.12136 0
M  V30 689 C 63.5024 -2.55288 4.60124 0
M  V30 690 O 62.5284 -2.19842 5.25032 0
M  V30 691 N 63.7304 -3.86053 4.33525 0
M  V30 692 H 66.4954 -0.0166033 2.99695 0
M  V30 693 H 64.0564 0.136578 1.61323 0
M  V30 694 H 66.0484 -2.54328 3.14801 0
M  V30 695 H 64.6184 -2.30369 2.11303 0
M  V30 696 H 63.8384 -0.575595 3.89975 0
M  V30 697 H 65.1264 -1.20221 4.94393 0
M  V30 698 H 64.5244 -4.17654 3.81552 0
M  V30 699 H 63.0814 -4.54461 4.67235 0
M  V30 700 N 66.5145 -1.57545 0.0417849 0
M  V30 701 C 67.7395 -1.97035 -0.647455 0
M  V30 702 C 68.1645 -0.918775 -1.64135 0
M  V30 703 O 67.5225 0.119006 -1.80909 0
M  V30 704 C 67.5705 -3.35609 -1.31905 0
M  V30 705 O 66.6745 -3.3287 -2.43457 0
M  V30 706 H 66.0155 -0.64211 -0.169086 0
M  V30 707 H 68.5455 -2.04318 0.107399 0
M  V30 708 H 68.5555 -3.72126 -1.67291 0
M  V30 709 H 67.2305 -4.11685 -0.590586 0
M  V30 710 H 65.8075 -3.08087 -2.10088 0
M  V30 711 N 67.9926 0.231505 -1.5589 0
M  V30 712 C 69.2416 0.955346 -1.7764 0
M  V30 713 C 69.5546 1.85893 -0.608546 0
M  V30 714 O 70.7606 2.62067 -0.70943 0
M  V30 715 C 69.2166 1.74886 -3.14552 0
M  V30 716 C 68.8246 0.891915 -4.39032 0
M  V30 717 C 70.5686 2.46452 -3.45633 0
M  V30 718 C 68.4756 1.68221 -5.66971 0
M  V30 719 H 67.4056 0.360446 -0.662265 0
M  V30 720 H 70.0566 0.209516 -1.823 0
M  V30 721 H 68.4386 2.53723 -3.04041 0
M  V30 722 H 69.6126 0.144793 -4.60572 0
M  V30 723 H 67.9276 0.288863 -4.15397 0
M  V30 724 H 70.5246 3.06061 -4.38441 0
M  V30 725 H 70.8676 3.18841 -2.67668 0
M  V30 726 H 71.4006 1.74613 -3.57428 0
M  V30 727 H 68.1396 1.00178 -6.478 0
M  V30 728 H 67.6596 2.4042 -5.49507 0
M  V30 729 H 69.3386 2.24544 -6.06786 0
M  V30 730 N 69.4707 1.49531 0.497807 0
M  V30 731 C 70.7187 1.58865 1.24926 0
M  V30 732 C 71.0397 0.278721 1.92998 0
M  V30 733 O 70.3097 -0.702144 1.82885 0
M  V30 734 H 68.8897 0.585343 0.464094 0
M  V30 735 H 71.5517 1.86174 0.57666 0
M  V30 736 H 70.6477 2.38633 2.01149 0
M  V30 737 N 70.9488 -0.749086 1.3866 0
M  V30 738 C 72.1768 -1.53834 1.38358 0
M  V30 739 C 72.5918 -1.88783 -0.0255219 0
M  V30 740 O 71.9488 -1.53101 -0.993292 0
M  V30 741 C 71.9998 -2.83468 2.2434 0
M  V30 742 O 71.7208 -2.50008 3.5976 0
M  V30 743 C 73.2218 -3.7758 2.32267 0
M  V30 744 H 70.4418 -0.47585 0.473083 0
M  V30 745 H 72.9858 -0.926726 1.82297 0
M  V30 746 H 71.1408 -3.40995 1.83851 0
M  V30 747 H 71.5548 -3.33182 4.05081 0
M  V30 748 H 73.0288 -4.65478 2.96706 0
M  V30 749 H 73.5058 -4.18334 1.33765 0
M  V30 750 H 74.1118 -3.25976 2.73166 0
M  V30 751 N 72.4269 -1.23603 -0.977757 0
M  V30 752 C 73.3369 -1.03632 -2.1047 0
M  V30 753 C 74.3529 0.0199435 -1.73989 0
M  V30 754 O 75.5289 -0.176076 -2.00629 0
M  V30 755 C 72.5939 -0.63276 -3.40877 0
M  V30 756 C 71.6549 -1.76437 -3.91367 0
M  V30 757 C 70.8879 -1.37997 -5.15551 0
M  V30 758 O 71.1109 -0.265357 -5.69782 0
M  V30 759 O 70.0449 -2.20201 -5.60174 0
M  V30 760 H 73.8709 -1.98086 -2.30208 0
M  V30 761 H 71.4559 -1.02332 -1.08851 0
M  V30 762 H 73.3379 -0.418761 -4.19314 0
M  V30 763 H 72.0129 0.282754 -3.22463 0
M  V30 764 H 70.9199 -2.03304 -3.14036 0
M  V30 765 H 72.2529 -2.6583 -4.14241 0
M  V30 766 N 73.905 1.17692 -1.04816 0
M  V30 767 C 74.853 2.23632 -0.63966 0
M  V30 768 C 75.847 1.6601 0.337219 0
M  V30 769 O 77.053 1.78844 0.203693 0
M  V30 770 H 73.428 0.727949 -0.188665 0
M  V30 771 H 75.399 2.55387 -1.54337 0
M  V30 772 C 74.148 3.4769 -0.0264051 0
M  V30 773 H 73.471 3.92331 -0.769164 0
M  V30 774 H 74.911 4.23418 0.222098 0
M  V30 775 C 73.37 3.13807 1.22584 0
M  V30 776 O 73.9 3.28236 2.31569 0
M  V30 777 N 72.106 2.68065 1.12202 0
M  V30 778 H 71.653 2.56525 0.235133 0
M  V30 779 H 71.611 2.45767 1.96076 0
M  V30 780 N 75.3831 0.828654 1.34056 0
M  V30 781 C 76.6111 0.43262 2.02326 0
M  V30 782 C 77.0261 -0.963147 1.62385 0
M  V30 783 O 76.3831 -1.62425 0.832121 0
M  V30 784 C 76.4341 0.53182 3.57567 0
M  V30 785 O 76.1551 1.87258 3.96063 0
M  V30 786 C 77.6561 0.131422 4.43105 0
M  V30 787 H 74.8761 0.172923 0.648335 0
M  V30 788 H 77.4201 1.1184 1.71208 0
M  V30 789 H 75.5751 -0.105938 3.87255 0
M  V30 790 H 75.9891 1.85087 4.90758 0
M  V30 791 H 77.4631 0.251904 5.51425 0
M  V30 792 H 77.9401 -0.925645 4.29335 0
M  V30 793 H 78.5461 0.743207 4.18756 0
M  V30 794 N 76.8612 -1.46375 0.584142 0
M  V30 795 C 77.7712 -2.34115 -0.150728 0
M  V30 796 C 78.7872 -1.49838 -0.884567 0
M  V30 797 O 79.9632 -1.82704 -0.847429 0
M  V30 798 C 77.0282 -3.2705 -1.15062 0
M  V30 799 C 76.0892 -4.27228 -0.421293 0
M  V30 800 C 75.3222 -5.15722 -1.37355 0
M  V30 801 O 75.5452 -5.07176 -2.61014 0
M  V30 802 O 74.4792 -5.95383 -0.883355 0
M  V30 803 H 78.3052 -2.98309 0.569708 0
M  V30 804 H 75.8902 -1.45373 0.344535 0
M  V30 805 H 77.7722 -3.84381 -1.72712 0
M  V30 806 H 76.4472 -2.65451 -1.8525 0
M  V30 807 H 75.3542 -3.7358 0.197085 0
M  V30 808 H 76.6872 -4.91616 0.239641 0
M  V30 809 N 78.3393 -0.321999 -1.54275 0
M  V30 810 C 79.2493 0.553631 -2.27974 0
M  V30 811 C 80.2653 1.13054 -1.32268 0
M  V30 812 O 81.4413 1.15084 -1.6528 0
M  V30 813 C 78.5063 1.69927 -3.02201 0
M  V30 814 C 77.5673 1.15433 -4.1349 0
M  V30 815 C 76.8003 2.24537 -4.84168 0
M  V30 816 O 77.0233 3.44852 -4.5435 0
M  V30 817 O 75.9573 1.90044 -5.7111 0
M  V30 818 H 79.7833 -0.0448345 -3.03667 0
M  V30 819 H 77.3683 -0.0877418 -1.49142 0
M  V30 820 H 79.2503 2.3663 -3.48689 0
M  V30 821 H 77.9253 2.28395 -2.29385 0
M  V30 822 H 76.8323 0.452436 -3.71354 0
M  V30 823 H 78.1653 0.614805 -4.88345 0
M  V30 824 N 79.8174 1.5752 -0.0501392 0
M  V30 825 C 80.7654 2.12651 0.942459 0
M  V30 826 C 81.7594 1.05807 1.32292 0
M  V30 827 O 82.9654 1.24217 1.3027 0
M  V30 828 H 79.3404 0.679673 0.321789 0
M  V30 829 H 81.3114 2.94951 0.452356 0
M  V30 830 C 80.0604 2.68565 2.20836 0
M  V30 831 H 79.3834 3.50439 1.92439 0
M  V30 832 H 80.8234 3.10761 2.8845 0
M  V30 833 C 79.2824 1.62291 2.95234 0
M  V30 834 O 79.8124 1.03508 3.88135 0
M  V30 835 N 78.0184 1.33836 2.57946 0
M  V30 836 H 77.5654 1.81826 1.82475 0
M  V30 837 H 77.5234 0.629595 3.08032 0
M  V30 838 N 81.2955 -0.223234 1.56011 0
M  V30 839 C 82.7115 -0.572856 1.48965 0
M  V30 840 C 82.9115 -1.87225 0.74492 0
M  V30 841 O 81.9675 -2.50899 0.283896 0
M  V30 842 C 83.2805 -0.653646 2.9351 0
M  V30 843 C 84.8285 -0.744386 3.0402 0
M  V30 844 C 85.3035 -0.856535 4.49919 0
M  V30 845 N 86.7945 -0.9208 4.53955 0
M  V30 846 C 87.5295 -1.02726 5.64123 0
M  V30 847 N 87.0255 -1.09777 6.84047 0
M  V30 848 N 88.8185 -1.06226 5.51971 0
M  V30 849 H 80.9695 0.629462 2.02858 0
M  V30 850 H 83.2325 0.220621 0.921971 0
M  V30 851 H 82.9385 0.231518 3.50937 0
M  V30 852 H 82.8125 -1.51781 3.45315 0
M  V30 853 H 85.1995 -1.61999 2.46658 0
M  V30 854 H 85.2805 0.14541 2.55386 0
M  V30 855 H 84.9245 0.0146069 5.07898 0
M  V30 856 H 84.8545 -1.76172 4.96257 0
M  V30 857 H 87.3455 -0.876694 3.6759 0
M  V30 858 H 87.6585 -1.17872 7.63758 0
M  V30 859 H 86.0035 -1.06693 6.86762 0
M  V30 860 H 89.1945 -1.00382 4.5721 0
M  V30 861 H 89.3675 -1.14177 6.37862 0
M  V30 862 N 82.7736 -1.49793 -0.48987 0
M  V30 863 C 84.1896 -1.36803 -0.822022 0
M  V30 864 C 84.3896 -0.409652 -1.97292 0
M  V30 865 O 83.4456 0.154614 -2.52026 0
M  V30 866 C 84.7586 -2.77768 -1.15175 0
M  V30 867 C 86.3066 -2.86549 -1.25931 0
M  V30 868 C 86.7816 -4.28306 -1.62228 0
M  V30 869 N 88.2726 -4.31169 -1.69256 0
M  V30 870 C 89.0076 -5.37832 -1.98807 0
M  V30 871 N 88.5036 -6.54726 -2.26507 0
M  V30 872 N 90.2966 -5.25258 -2.00152 0
M  V30 873 H 82.4476 -2.10691 0.268881 0
M  V30 874 H 84.7106 -0.946241 0.057728 0
M  V30 875 H 84.4166 -3.49648 -0.379335 0
M  V30 876 H 84.2906 -3.13836 -2.09253 0
M  V30 877 H 86.6776 -2.14899 -2.02243 0
M  V30 878 H 86.7586 -2.54049 -0.298776 0
M  V30 879 H 86.4026 -5.00486 -0.864622 0
M  V30 880 H 86.3326 -4.58279 -2.594 0
M  V30 881 H 88.8236 -3.4687 -1.49965 0
M  V30 882 H 89.1366 -7.31833 -2.48276 0
M  V30 883 H 87.4816 -6.57933 -2.23939 0
M  V30 884 H 90.6726 -4.32938 -1.77996 0
M  V30 885 H 90.8456 -6.08476 -2.22848 0
M  V30 886 N 84.2517 0.741722 -1.39055 0
M  V30 887 C 85.4987 1.50114 -1.35912 0
M  V30 888 C 85.8267 1.94443 0.0470937 0
M  V30 889 O 85.0817 1.66612 1.02659 0
M  V30 890 C 85.3807 2.7592 -2.27163 0
M  V30 891 C 85.0467 2.50493 -3.74919 0
M  V30 892 C 83.7087 2.43267 -4.1518 0
M  V30 893 C 86.0607 2.28585 -4.684 0
M  V30 894 C 83.3887 2.12166 -5.46994 0
M  V30 895 C 85.7407 1.99002 -6.00484 0
M  V30 896 C 84.4047 1.90241 -6.39816 0
M  V30 897 H 83.6747 0.549306 -0.497336 0
M  V30 898 H 86.3217 0.851896 -1.71508 0
M  V30 899 H 84.6267 3.45553 -1.84663 0
M  V30 900 H 86.3237 3.33923 -2.22028 0
M  V30 901 H 82.9137 2.56992 -3.43006 0
M  V30 902 H 87.0977 2.33139 -4.38132 0
M  V30 903 H 82.3537 2.03901 -5.76398 0
M  V30 904 H 86.5277 1.81057 -6.72452 0
M  V30 905 H 84.1547 1.65907 -7.41875 0
M  V30 906 N 85.7298 1.2412 0.971189 0
M  V30 907 C 86.9598 1.10415 1.7462 0
M  V30 908 C 87.3678 -0.346462 1.86001 0
M  V30 909 O 86.7108 -1.25104 1.34517 0
M  V30 910 C 86.7728 1.66596 3.18568 0
M  V30 911 C 86.4368 3.15446 3.3067 0
M  V30 912 C 87.4338 4.12636 3.16271 0
M  V30 913 C 85.1188 3.55337 3.55022 0
M  V30 914 C 87.1128 5.47699 3.26044 0
M  V30 915 C 84.7998 4.90542 3.64434 0
M  V30 916 C 85.7978 5.86532 3.49956 0
M  V30 917 O 85.4858 7.19279 3.59017 0
M  V30 918 H 85.2178 0.386616 0.55453 0
M  V30 919 H 87.7718 1.64633 1.22821 0
M  V30 920 H 86.0018 1.06808 3.71657 0
M  V30 921 H 87.6908 1.48232 3.77865 0
M  V30 922 H 88.4568 3.8316 2.97344 0
M  V30 923 H 84.3358 2.8113 3.65359 0
M  V30 924 H 87.8798 6.22603 3.14661 0
M  V30 925 H 83.7768 5.19691 3.82873 0
M  V30 926 H 84.5448 7.27153 3.75754 0
M  V30 927 N 87.2079 -1.17134 1.05439 0
M  V30 928 C 88.6239 -1.39454 0.776201 0
M  V30 929 C 88.8239 -1.91454 -0.628307 0
M  V30 930 O 87.8799 -2.10777 -1.39031 0
M  V30 931 C 89.1929 -2.38305 1.83388 0
M  V30 932 C 90.7409 -2.52006 1.85639 0
M  V30 933 C 91.2159 -3.54133 2.90437 0
M  V30 934 N 92.7069 -3.61653 2.89415 0
M  V30 935 C 93.4419 -4.4044 3.67152 0
M  V30 936 N 92.9379 -5.22721 4.54681 0
M  V30 937 N 94.7309 -4.35337 3.55581 0
M  V30 938 H 86.8819 -0.817134 1.96053 0
M  V30 939 H 89.1449 -0.421626 0.849079 0
M  V30 940 H 88.8509 -2.07173 2.84204 0
M  V30 941 H 88.7249 -3.37841 1.67761 0
M  V30 942 H 91.1119 -2.82447 0.85486 0
M  V30 943 H 91.1929 -1.52537 2.05344 0
M  V30 944 H 90.8369 -3.24431 3.90777 0
M  V30 945 H 90.7669 -4.53313 2.67983 0
M  V30 946 H 93.2579 -3.02909 2.25952 0
M  V30 947 H 93.5709 -5.80027 5.10674 0
M  V30 948 H 91.9159 -5.22093 4.58741 0
M  V30 949 H 95.1069 -3.70112 2.86592 0
M  V30 950 H 95.2799 -4.96494 4.1641 0
M  V30 951 N 88.686 -0.835752 -1.33615 0
M  V30 952 C 89.618 -0.224151 -2.28101 0
M  V30 953 C 90.631 0.593331 -1.51603 0
M  V30 954 O 91.82 0.420911 -1.73466 0
M  V30 955 C 88.92 0.703309 -3.31522 0
M  V30 956 C 88.093 -0.0741528 -4.37337 0
M  V30 957 C 87.152 0.776176 -5.20444 0
M  V30 958 O 86.178 0.216506 -5.68788 0
M  V30 959 N 87.38 2.09401 -5.41416 0
M  V30 960 H 90.145 -1.03598 -2.81225 0
M  V30 961 H 87.706 -0.69392 -1.46275 0
M  V30 962 H 89.698 1.27707 -3.84022 0
M  V30 963 H 88.268 1.41585 -2.78698 0
M  V30 964 H 87.488 -0.82928 -3.85378 0
M  V30 965 H 88.776 -0.608863 -5.05144 0
M  V30 966 H 88.174 2.57229 -5.03835 0
M  V30 967 H 86.731 2.61633 -5.96985 0
M  V30 968 N 90.1641 1.46063 -0.591896 0
M  V30 969 C 91.0941 2.33172 0.123673 0
M  V30 970 C 92.0751 1.45897 0.87453 0
M  V30 971 O 93.2601 1.74698 0.848181 0
M  V30 972 C 90.3901 3.28336 1.13194 0
M  V30 973 C 89.3441 4.25124 0.495324 0
M  V30 974 C 88.6701 5.09863 1.61071 0
M  V30 975 C 89.9701 5.19143 -0.573425 0
M  V30 976 H 91.6641 2.93252 -0.603646 0
M  V30 977 H 89.2101 1.41014 -0.291741 0
M  V30 978 H 91.1631 3.88137 1.64097 0
M  V30 979 H 89.8871 2.66383 1.88965 0
M  V30 980 H 88.5461 3.66599 0.00729452 0
M  V30 981 H 88.1941 4.44288 2.35832 0
M  V30 982 H 87.8941 5.75417 1.19035 0
M  V30 983 H 89.4181 5.72529 2.12233 0
M  V30 984 H 90.8321 5.73106 -0.1491 0
M  V30 985 H 89.2291 5.93089 -0.914636 0
M  V30 986 H 90.2991 4.62519 -1.45617 0
M  V30 987 N 91.6422 0.330177 1.54103 0
M  V30 988 C 92.5722 -0.525353 2.27513 0
M  V30 989 C 93.5532 -1.11383 1.2856 0
M  V30 990 O 94.7382 -1.13773 1.57383 0
M  V30 991 C 91.8682 -1.6831 3.03791 0
M  V30 992 C 90.8222 -1.2236 4.10137 0
M  V30 993 C 90.1482 -2.46882 4.74293 0
M  V30 994 C 91.4482 -0.333697 5.21233 0
M  V30 995 H 93.1422 0.087013 2.99274 0
M  V30 996 H 90.6882 0.0432893 1.43935 0
M  V30 997 H 92.6412 -2.28795 3.5388 0
M  V30 998 H 91.3652 -2.32216 2.29659 0
M  V30 999 H 90.0242 -0.64165 3.60941 0
M  V30 1000 H 89.6722 -3.09165 3.96769 0
M  V30 1001 H 89.3722 -2.16825 5.46133 0
M  V30 1002 H 90.8962 -3.08117 5.27159 0
M  V30 1003 H 92.3102 -0.845013 5.67038 0
M  V30 1004 H 90.7072 -0.125612 5.99969 0
M  V30 1005 H 91.7772 0.633724 4.80741 0
M  V30 1006 N 93.1203 -1.57491 0.0584922 0
M  V30 1007 C 94.0503 -2.14988 -0.911178 0
M  V30 1008 C 95.0313 -1.07343 -1.31952 0
M  V30 1009 O 96.2163 -1.35318 -1.39294 0
M  V30 1010 C 93.3463 -2.70078 -2.18347 0
M  V30 1011 C 92.3003 -3.82771 -1.91495 0
M  V30 1012 C 91.6263 -4.24408 -3.25241 0
M  V30 1013 C 92.9263 -5.07592 -1.23075 0
M  V30 1014 H 94.6203 -2.96263 -0.432246 0
M  V30 1015 H 92.1663 -1.42512 -0.206469 0
M  V30 1016 H 94.1193 -3.08943 -2.86587 0
M  V30 1017 H 92.8433 -1.86005 -2.68458 0
M  V30 1018 H 91.5023 -3.44389 -1.25664 0
M  V30 1019 H 91.1503 -3.37275 -3.73168 0
M  V30 1020 H 90.8503 -5.00366 -3.08071 0
M  V30 1021 H 92.3743 -4.65879 -3.94701 0
M  V30 1022 H 93.7883 -5.43857 -1.81362 0
M  V30 1023 H 92.1853 -5.88741 -1.16207 0
M  V30 1024 H 93.2553 -4.84454 -0.207847 0
M  V30 1025 N 94.5984 0.214957 -1.56127 0
M  V30 1026 C 95.8264 0.955092 -1.83536 0
M  V30 1027 C 96.2414 1.77677 -0.638472 0
M  V30 1028 O 95.5984 1.78219 0.392968 0
M  V30 1029 C 95.6494 1.86734 -3.09536 0
M  V30 1030 O 95.3704 1.07887 -4.24608 0
M  V30 1031 C 96.8714 2.72082 -3.4998 0
M  V30 1032 H 94.0914 0.279611 -0.609966 0
M  V30 1033 H 96.6354 0.228197 -2.03223 0
M  V30 1034 H 94.7904 2.5481 -2.91806 0
M  V30 1035 H 95.2044 1.69872 -4.9623 0
M  V30 1036 H 96.6784 3.31782 -4.41163 0
M  V30 1037 H 97.1554 3.44806 -2.7204 0
M  V30 1038 H 97.7614 2.09409 -3.70173 0
M  V30 1039 N 96.0765 1.50051 0.48192 0
M  V30 1040 C 97.0395 1.67584 1.5636 0
M  V30 1041 C 98.0395 0.546894 1.51214 0
M  V30 1042 O 99.2295 0.813725 1.54026 0
M  V30 1043 C 96.3615 1.691 2.96003 0
M  V30 1044 H 97.5545 2.64078 1.42136 0
M  V30 1045 H 95.1075 1.39369 0.707533 0
M  V30 1046 H 95.8425 0.742589 3.15684 0
M  V30 1047 H 95.6275 2.51105 3.01146 0
M  V30 1048 H 97.1175 1.84656 3.74556 0
M  V30 1049 N 97.5546 -0.734337 1.39446 0
M  V30 1050 C 98.8316 -1.48579 1.27215 0
M  V30 1051 C 99.2116 -2.1077 -0.117968 0
M  V30 1052 O 98.5596 -1.98646 -1.12924 0
M  V30 1053 C 98.7696 -2.53667 2.39696 0
M  V30 1054 C 100.118 -3.20031 2.79044 0
M  V30 1055 O 101.142 -2.6398 2.39151 0
M  V30 1056 O 100.001 -4.21455 3.47905 0
M  V30 1057 H 97.0946 -0.659816 0.49857 0
M  V30 1058 H 99.6406 -0.768106 1.51322 0
M  V30 1059 H 98.4126 -2.06096 3.32626 0
M  V30 1060 H 98.0356 -3.32994 2.17258 0
M  V30 1061 N 99.0327 -1.24633 -0.964593 0
M  V30 1062 C 100.31 -0.995809 -1.68354 0
M  V30 1063 C 100.69 0.480964 -2.05548 0
M  V30 1064 O 100.038 1.45599 -1.76105 0
M  V30 1065 C 100.248 -1.92177 -2.91323 0
M  V30 1066 C 101.596 -2.19446 -3.63495 0
M  V30 1067 O 102.62 -1.89855 -3.01386 0
M  V30 1068 O 101.479 -2.69714 -4.75307 0
M  V30 1069 H 98.5727 -0.376854 -0.736146 0
M  V30 1070 H 101.119 -1.35745 -1.0184 0
M  V30 1071 H 99.8907 -2.91938 -2.60553 0
M  V30 1072 H 99.5137 -1.56349 -3.65569 0
M  V30 1073 N 100.511 1.16574 -1.06058 0
M  V30 1074 C 101.927 1.3904 -0.783585 0
M  V30 1075 C 102.127 1.91784 0.618145 0
M  V30 1076 O 101.183 2.11511 1.37911 0
M  V30 1077 C 102.496 2.37329 -1.84649 0
M  V30 1078 C 104.044 2.51018 -1.86973 0
M  V30 1079 C 104.519 3.52588 -2.92311 0
M  V30 1080 N 106.01 3.60113 -2.91329 0
M  V30 1081 C 106.745 4.38486 -3.69482 0
M  V30 1082 N 106.241 5.20302 -4.57447 0
M  V30 1083 N 108.034 4.33446 -3.57885 0
M  V30 1084 H 100.185 0.806725 -1.96483 0
M  V30 1085 H 102.448 0.417117 -0.851303 0
M  V30 1086 H 102.154 2.05663 -2.85299 0
M  V30 1087 H 102.028 3.36946 -1.6955 0
M  V30 1088 H 104.415 2.81989 -0.869827 0
M  V30 1089 H 104.496 1.51445 -2.0615 0
M  V30 1090 H 104.14 3.22354 -3.92492 0
M  V30 1091 H 104.07 4.51886 -2.70383 0
M  V30 1092 H 106.561 3.01707 -2.27555 0
M  V30 1093 H 106.874 5.77311 -5.13743 0
M  V30 1094 H 105.219 5.19653 -4.61503 0
M  V30 1095 H 108.41 3.68586 -2.88551 0
M  V30 1096 H 108.583 4.94279 -4.19037 0
M  V30 1097 N 101.989 0.842826 1.3317 0
M  V30 1098 C 103.235 0.441099 1.97945 0
M  V30 1099 C 103.568 -0.998024 1.66593 0
M  V30 1100 O 102.843 -1.69839 0.947898 0
M  V30 1101 C 103.126 0.666841 3.53872 0
M  V30 1102 C 102.979 2.15352 3.94897 0
M  V30 1103 C 104.298 0.115544 4.39948 0
M  V30 1104 H 101.417 0.161739 0.719034 0
M  V30 1105 H 104.059 1.05907 1.57746 0
M  V30 1106 H 102.209 0.140828 3.88245 0
M  V30 1107 H 103.881 2.7447 3.70761 0
M  V30 1108 H 102.124 2.63653 3.44484 0
M  V30 1109 H 102.795 2.26221 5.03516 0
M  V30 1110 H 105.271 0.565213 4.12243 0
M  V30 1111 H 104.147 0.303152 5.48062 0
M  V30 1112 H 104.408 -0.980935 4.3108 0
M  V30 1113 N 103.467 -1.45747 0.599634 0
M  V30 1114 C 104.415 -2.322 -0.136426 0
M  V30 1115 C 105.409 -1.45497 -0.867583 0
M  V30 1116 O 106.615 -1.62027 -0.78405 0
M  V30 1117 H 102.99 -0.749368 -0.0628588 0
M  V30 1118 H 104.961 -2.92072 0.611281 0
M  V30 1119 C 103.71 -3.28974 -1.12567 0
M  V30 1120 H 103.033 -3.9568 -0.572484 0
M  V30 1121 H 104.473 -3.92212 -1.61077 0
M  V30 1122 C 102.932 -2.55561 -2.19523 0
M  V30 1123 O 103.462 -2.33111 -3.27143 0
M  V30 1124 N 101.668 -2.15832 -1.94589 0
M  V30 1125 H 101.215 -2.3429 -1.07078 0
M  V30 1126 H 101.173 -1.67034 -2.66359 0
M  V30 1127 N 104.945 -0.338344 -1.53925 0
M  V30 1128 C 106.356 0.146651 -1.86123 0
M  V30 1129 C 106.707 1.5042 -1.2597 0
M  V30 1130 O 105.832 2.08723 -0.571294 0
M  V30 1131 C 106.427 0.272879 -3.37699 0
M  V30 1132 C 104.986 0.702103 -3.69794 0
M  V30 1133 C 104.133 -0.167304 -2.76795 0
M  V30 1134 H 107.084 -0.558123 -1.48562 0
M  V30 1135 H 107.105 1.10128 -3.64214 0
M  V30 1136 H 106.617 -0.715307 -3.81451 0
M  V30 1137 H 104.718 1.6995 -3.31584 0
M  V30 1138 H 104.831 0.495604 -4.7653 0
M  V30 1139 H 103.195 0.359527 -2.5215 0
M  V30 1140 H 103.978 -1.15253 -3.23375 0
M  V30 1141 N 106.423 1.57458 -0.0668435 0
M  V30 1142 C 107.663 1.95175 0.607116 0
M  V30 1143 C 108.027 0.946039 1.67075 0
M  V30 1144 O 109.228 1.2107 2.39991 0
M  V30 1145 C 107.499 3.37582 1.17358 0
M  V30 1146 S 109.058 3.97271 1.86336 0
M  V30 1147 H 105.876 0.682604 0.19893 0
M  V30 1148 H 108.478 1.95002 -0.139519 0
M  V30 1149 H 107.182 4.08566 0.387553 0
M  V30 1150 H 106.713 3.41288 1.95669 0
M  V30 1151 H 108.728 3.83772 3.14537 0
M  V30 1152 N 107.901 -0.206675 1.56239 0
M  V30 1153 C 109.15 -0.926964 1.79138 0
M  V30 1154 C 109.463 -1.84901 0.638043 0
M  V30 1155 O 110.669 -2.60906 0.751033 0
M  V30 1156 C 109.125 -1.6986 3.17294 0
M  V30 1157 C 108.733 -0.821956 4.40395 0
M  V30 1158 C 110.477 -2.40922 3.4951 0
M  V30 1159 C 108.384 -1.59179 5.69575 0
M  V30 1160 H 107.314 -0.349864 0.667915 0
M  V30 1161 H 109.965 -0.180487 1.8261 0
M  V30 1162 H 108.347 -2.48853 3.08039 0
M  V30 1163 H 109.521 -0.0715019 4.60745 0
M  V30 1164 H 107.836 -0.222741 4.15804 0
M  V30 1165 H 110.433 -2.99047 4.43255 0
M  V30 1166 H 110.776 -3.14542 2.72707 0
M  V30 1167 H 111.309 -1.68905 3.60161 0
M  V30 1168 H 108.048 -0.898589 6.49312 0
M  V30 1169 H 107.568 -2.31648 5.53262 0
M  V30 1170 H 109.247 -2.14862 6.10281 0
M  V30 1171 N 109.379 -1.50304 -0.473955 0
M  V30 1172 C 110.627 -1.60832 -1.22382 0
M  V30 1173 C 110.948 -0.30939 -1.9253 0
M  V30 1174 O 110.218 0.67296 -1.83978 0
M  V30 1175 H 108.798 -0.592652 -0.454723 0
M  V30 1176 H 111.46 -1.87068 -0.546968 0
M  V30 1177 H 110.556 -2.41803 -1.97327 0
M  V30 1178 N 110.857 0.726932 -1.39834 0
M  V30 1179 C 112.105 1.4837 -1.37225 0
M  V30 1180 C 112.426 1.94979 0.0284857 0
M  V30 1181 O 111.696 1.69555 0.981213 0
M  V30 1182 H 110.276 0.55043 -0.505011 0
M  V30 1183 H 112.938 0.862468 -1.74778 0
M  V30 1184 H 112.034 2.36198 -2.04003 0
M  V30 1185 N 112.336 1.25143 0.95797 0
M  V30 1186 C 113.582 1.09855 1.70469 0
M  V30 1187 C 113.915 -0.360187 1.90831 0
M  V30 1188 O 113.19 -1.26568 1.47685 0
M  V30 1189 C 113.473 1.8497 3.08963 0
M  V30 1190 C 113.326 3.38652 2.96032 0
M  V30 1191 C 114.645 1.63016 4.08795 0
M  V30 1192 H 111.764 0.400465 0.618706 0
M  V30 1193 H 114.406 1.53933 1.11376 0
M  V30 1194 H 112.556 1.47505 3.59409 0
M  V30 1195 H 114.228 3.85772 2.52938 0
M  V30 1196 H 112.471 3.66534 2.32025 0
M  V30 1197 H 113.142 3.8642 3.94187 0
M  V30 1198 H 115.618 1.95625 3.67247 0
M  V30 1199 H 114.494 2.18015 5.03747 0
M  V30 1200 H 114.755 0.570692 4.38401 0
M  V30 1201 N 113.814 -1.1601 1.06675 0
M  V30 1202 C 115.063 -1.85973 0.780818 0
M  V30 1203 C 115.376 -1.82819 -0.695444 0
M  V30 1204 O 116.582 -2.484 -1.09589 0
M  V30 1205 C 115.038 -3.33757 1.34665 0
M  V30 1206 C 114.646 -3.45374 2.85343 0
M  V30 1207 C 116.39 -4.0895 1.13843 0
M  V30 1208 C 114.297 -4.87266 3.35151 0
M  V30 1209 H 113.227 -0.696661 0.288407 0
M  V30 1210 H 115.878 -1.30903 1.28595 0
M  V30 1211 H 114.26 -3.88456 0.769274 0
M  V30 1212 H 115.434 -3.00816 3.49065 0
M  V30 1213 H 113.749 -2.83619 3.04876 0
M  V30 1214 H 116.346 -5.13654 1.4854 0
M  V30 1215 H 116.689 -4.16229 0.0770282 0
M  V30 1216 H 117.222 -3.605 1.68179 0
M  V30 1217 H 113.961 -4.85168 4.40786 0
M  V30 1218 H 113.481 -5.32433 2.76179 0
M  V30 1219 H 115.16 -5.56097 3.30704 0
M  V30 1220 N 115.292 -0.849877 -1.32721 0
M  V30 1221 C 116.222 -0.306308 -2.31482 0
M  V30 1222 C 117.203 0.591952 -1.59468 0
M  V30 1223 O 118.388 0.513199 -1.87296 0
M  V30 1224 C 115.518 0.510204 -3.43532 0
M  V30 1225 C 114.472 -0.293209 -4.26994 0
M  V30 1226 C 113.798 0.647743 -5.30762 0
M  V30 1227 C 115.098 -1.51634 -4.99804 0
M  V30 1228 H 116.792 -1.13153 -2.77195 0
M  V30 1229 H 114.338 -0.545553 -1.33266 0
M  V30 1230 H 116.291 0.900856 -4.11658 0
M  V30 1231 H 115.015 1.36874 -2.96535 0
M  V30 1232 H 113.674 -0.665555 -3.60508 0
M  V30 1233 H 113.322 1.50299 -4.8002 0
M  V30 1234 H 113.022 0.11422 -5.87489 0
M  V30 1235 H 114.546 1.03567 -6.01753 0
M  V30 1236 H 115.96 -1.19824 -5.60638 0
M  V30 1237 H 114.357 -1.98745 -5.66234 0
M  V30 1238 H 115.427 -2.28018 -4.27943 0
M  V30 1239 N 116.77 1.45427 -0.607355 0
M  V30 1240 C 118.017 2.02241 -0.102455 0
M  V30 1241 C 118.345 1.4758 1.26691 0
M  V30 1242 O 117.6 0.640468 1.84923 0
M  V30 1243 C 117.899 3.57398 -0.0129263 0
M  V30 1244 C 117.565 4.3121 -1.31792 0
M  V30 1245 C 116.227 4.51092 -1.67539 0
M  V30 1246 C 118.579 4.73401 -2.18039 0
M  V30 1247 C 115.907 5.10422 -2.89285 0
M  V30 1248 C 118.259 5.34078 -3.39034 0
M  V30 1249 C 116.923 5.52184 -3.75033 0
M  V30 1250 H 116.193 0.740051 -0.037491 0
M  V30 1251 H 118.84 1.74494 -0.788926 0
M  V30 1252 H 117.145 3.84421 0.756806 0
M  V30 1253 H 118.842 3.99061 0.393881 0
M  V30 1254 H 115.432 4.16047 -1.02968 0
M  V30 1255 H 119.616 4.57774 -1.91721 0
M  V30 1256 H 114.872 5.22629 -3.17283 0
M  V30 1257 H 119.046 5.65724 -4.06115 0
M  V30 1258 H 116.673 5.97925 -4.69457 0
M  V30 1259 N 118.248 0.346503 1.53744 0
M  V30 1260 C 119.198 -0.524953 2.21874 0
M  V30 1261 C 120.182 -1.06376 1.20718 0
M  V30 1262 O 121.374 -0.996972 1.46251 0
M  V30 1263 C 118.503 -1.6739 2.99726 0
M  V30 1264 C 117.589 -1.14888 4.08242 0
M  V30 1265 N 117.98 -0.345329 5.0462 0
M  V30 1266 C 116.278 -1.4255 4.22606 0
M  V30 1267 C 116.979 -0.0600706 5.81669 0
M  V30 1268 N 115.955 -0.65252 5.39669 0
M  V30 1269 H 119.757 0.0960091 2.93743 0
M  V30 1270 H 117.271 0.15352 1.61673 0
M  V30 1271 H 119.268 -2.3102 3.47038 0
M  V30 1272 H 117.928 -2.29811 2.29384 0
M  V30 1273 H 118.939 0.0138439 5.17898 0
M  V30 1274 H 115.616 -2.05389 3.63486 0
M  V30 1275 H 117.006 0.588321 6.69319 0
M  V30 1276 N 119.726 -1.57421 0.075193 0
M  V30 1277 C 120.636 -2.1642 -0.905511 0
M  V30 1278 C 121.652 -1.12828 -1.32461 0
M  V30 1279 O 122.828 -1.45109 -1.39661 0
M  V30 1280 C 119.893 -2.71693 -2.15369 0
M  V30 1281 C 118.954 -3.90171 -1.79068 0
M  V30 1282 C 118.187 -4.42798 -2.97936 0
M  V30 1283 O 118.41 -3.94416 -4.12058 0
M  V30 1284 O 117.344 -5.34085 -2.77555 0
M  V30 1285 H 121.17 -3.00588 -0.433626 0
M  V30 1286 H 118.755 -1.48664 -0.148067 0
M  V30 1287 H 120.637 -3.07104 -2.88557 0
M  V30 1288 H 119.312 -1.90582 -2.61649 0
M  V30 1289 H 118.219 -3.59606 -1.03122 0
M  V30 1290 H 119.552 -4.72584 -1.37569 0
M  V30 1291 N 121.204 0.198386 -1.56346 0
M  V30 1292 C 122.432 0.935572 -1.84539 0
M  V30 1293 C 122.847 1.76989 -0.657281 0
M  V30 1294 O 122.204 1.78626 0.374043 0
M  V30 1295 C 122.255 1.8344 -3.11499 0
M  V30 1296 O 121.976 1.03377 -4.25728 0
M  V30 1297 C 123.477 2.68355 -3.52846 0
M  V30 1298 H 120.697 0.273126 -0.612897 0
M  V30 1299 H 123.241 0.20663 -2.03453 0
M  V30 1300 H 121.396 2.51701 -2.94492 0
M  V30 1301 H 121.81 1.64599 -4.98003 0
M  V30 1302 H 123.284 3.27085 -4.44657 0
M  V30 1303 H 123.761 3.41901 -2.75681 0
M  V30 1304 H 124.367 2.05471 -3.72373 0
M  V30 1305 N 122.682 1.50554 0.465978 0
M  V30 1306 C 123.612 1.72722 1.57128 0
M  V30 1307 C 124.593 0.576294 1.6004 0
M  V30 1308 O 125.778 0.81598 1.76225 0
M  V30 1309 C 122.908 1.82605 2.95419 0
M  V30 1310 C 121.862 2.97835 3.07373 0
M  V30 1311 C 121.188 2.92867 4.47363 0
M  V30 1312 C 122.488 4.38265 2.84114 0
M  V30 1313 H 124.182 2.65267 1.38829 0
M  V30 1314 H 121.728 1.2765 0.666441 0
M  V30 1315 H 123.681 1.96698 3.72677 0
M  V30 1316 H 122.405 0.866858 3.14886 0
M  V30 1317 H 121.064 2.83401 2.3255 0
M  V30 1318 H 120.712 1.94783 4.63755 0
M  V30 1319 H 120.412 3.70227 4.56296 0
M  V30 1320 H 121.936 3.09015 5.26633 0
M  V30 1321 H 123.35 4.53198 3.51118 0
M  V30 1322 H 121.747 5.17115 3.04487 0
M  V30 1323 H 122.817 4.50281 1.7993 0
M  V30 1324 N 124.16 -0.719506 1.40217 0
M  V30 1325 C 125.39 -1.50646 1.41384 0
M  V30 1326 C 125.798 -1.89197 0.0107743 0
M  V30 1327 O 125.141 -1.55709 -0.974708 0
M  V30 1328 C 125.203 -2.81405 2.23722 0
M  V30 1329 C 124.867 -2.65199 3.72181 0
M  V30 1330 C 125.864 -2.32717 4.64907 0
M  V30 1331 C 123.549 -2.81586 4.1595 0
M  V30 1332 C 125.543 -2.16827 5.99387 0
M  V30 1333 C 123.23 -2.65313 5.50502 0
M  V30 1334 C 124.228 -2.32981 6.42035 0
M  V30 1335 O 123.916 -2.16827 7.74107 0
M  V30 1336 H 123.648 -0.471606 0.484318 0
M  V30 1337 H 126.202 -0.895456 1.84853 0
M  V30 1338 H 124.432 -3.44823 1.75026 0
M  V30 1339 H 126.121 -3.43102 2.16878 0
M  V30 1340 H 126.887 -2.19694 4.32388 0
M  V30 1341 H 122.766 -3.0574 3.45027 0
M  V30 1342 H 126.31 -1.91513 6.70797 0
M  V30 1343 H 122.207 -2.7792 5.82607 0
M  V30 1344 H 122.975 -2.31778 7.84998 0
M  V30 1345 N 125.638 -1.25649 -0.95132 0
M  V30 1346 C 126.57 -1.02112 -2.05197 0
M  V30 1347 C 127.583 0.0150571 -1.62793 0
M  V30 1348 O 128.772 -0.223874 -1.77091 0
M  V30 1349 C 125.872 -0.522361 -3.3485 0
M  V30 1350 C 125.045 -1.62546 -4.06076 0
M  V30 1351 C 124.104 -1.12649 -5.14001 0
M  V30 1352 O 123.13 -1.82156 -5.39266 0
M  V30 1353 N 124.332 0.03047 -5.80492 0
M  V30 1354 H 127.097 -1.96885 -2.25957 0
M  V30 1355 H 124.658 -1.16899 -1.1201 0
M  V30 1356 H 126.65 -0.172961 -4.0433 0
M  V30 1357 H 125.22 0.33151 -3.10837 0
M  V30 1358 H 124.44 -2.14628 -3.30649 0
M  V30 1359 H 125.728 -2.36644 -4.50419 0
M  V30 1360 H 125.126 0.611169 -5.62389 0
M  V30 1361 H 123.683 0.320875 -6.5101 0
M  V30 1362 N 127.117 1.15442 -1.07289 0
M  V30 1363 C 128.064 2.20161 -0.692653 0
M  V30 1364 C 129.034 1.63073 0.31564 0
M  V30 1365 O 130.219 1.89725 0.202235 0
M  V30 1366 C 127.359 3.44967 -0.0959509 0
M  V30 1367 C 126.472 4.16256 -1.15564 0
M  V30 1368 C 125.607 5.28609 -0.524011 0
M  V30 1369 C 124.646 5.91715 -1.56653 0
M  V30 1370 N 123.783 6.9554 -0.957531 0
M  V30 1371 H 128.623 2.52037 -1.59002 0
M  V30 1372 H 126.16 1.2378 -0.794798 0
M  V30 1373 H 128.118 4.16341 0.267628 0
M  V30 1374 H 126.748 3.1361 0.764772 0
M  V30 1375 H 125.8 3.43385 -1.6368 0
M  V30 1376 H 127.112 4.59268 -1.94613 0
M  V30 1377 H 126.266 6.06604 -0.108032 0
M  V30 1378 H 125.005 4.86787 0.29825 0
M  V30 1379 H 124.01 5.12433 -1.9923 0
M  V30 1380 H 125.235 6.35614 -2.39107 0
M  V30 1381 H 123.181 6.55814 -0.156162 0
M  V30 1382 H 123.098 7.36977 -1.68526 0
M  V30 1383 H 124.366 7.77435 -0.567032 0
M  V30 1384 N 128.595 0.856903 1.32268 0
M  V30 1385 C 129.558 0.308171 2.27119 0
M  V30 1386 C 130.558 -0.533421 1.51695 0
M  V30 1387 O 131.748 -0.344607 1.70757 0
M  V30 1388 C 128.88 -0.563757 3.36206 0
M  V30 1389 H 130.073 1.14535 2.77167 0
M  V30 1390 H 127.626 0.631421 1.42978 0
M  V30 1391 H 128.361 -1.42266 2.91429 0
M  V30 1392 H 128.146 0.0386749 3.92081 0
M  V30 1393 H 129.636 -0.940386 4.06874 0
M  V30 1394 N 130.073 -1.45103 0.615059 0
M  V30 1395 C 131.35 -1.95549 0.0448276 0
M  V30 1396 C 131.73 -1.55737 -1.4251 0
M  V30 1397 O 131.078 -0.823556 -2.13143 0
M  V30 1398 C 131.288 -3.48098 0.250785 0
M  V30 1399 C 132.636 -4.24384 0.135509 0
M  V30 1400 O 133.66 -3.55738 0.181299 0
M  V30 1401 O 132.519 -5.46493 0.0268878 0
M  V30 1402 H 129.613 -0.8264 -0.0314845 0
M  V30 1403 H 132.159 -1.55232 0.685642 0
M  V30 1404 H 130.931 -3.7007 1.27139 0
M  V30 1405 H 130.554 -3.95323 -0.424937 0
M  V30 1406 N 131.551 -0.354651 -1.53558 0
M  V30 1407 C 132.828 0.294281 -1.93374 0
M  V30 1408 C 133.208 1.67313 -1.28723 0
M  V30 1409 O 132.556 2.24179 -0.442247 0
M  V30 1410 C 132.766 0.355445 -3.47185 0
M  V30 1411 C 134.114 0.601007 -4.20325 0
M  V30 1412 O 135.138 0.437106 -3.53508 0
M  V30 1413 O 133.997 0.919322 -5.38712 0
M  V30 1414 H 131.091 0.174033 -0.808481 0
M  V30 1415 H 133.637 -0.406638 -1.64756 0
M  V30 1416 H 132.409 -0.611729 -3.86489 0
M  V30 1417 H 132.032 1.1027 -3.82003 0
M  V30 1418 N 133.029 1.57378 -0.0835403 0
M  V30 1419 C 134.277 1.93547 0.581718 0
M  V30 1420 C 134.598 0.96524 1.69435 0
M  V30 1421 O 133.868 0.0153369 1.95894 0
M  V30 1422 H 132.448 0.714521 0.217874 0
M  V30 1423 H 135.11 1.94366 -0.144158 0
M  V30 1424 H 134.206 2.95665 0.999423 0
M  V30 1425 N 134.507 -0.190092 1.56449 0
M  V30 1426 C 135.923 -0.54113 1.50146 0
M  V30 1427 C 136.123 -1.85603 0.784465 0
M  V30 1428 O 135.179 -2.5024 0.337051 0
M  V30 1429 C 136.492 -0.591241 2.9483 0
M  V30 1430 C 138.04 -0.679732 3.0553 0
M  V30 1431 C 138.515 -0.760908 4.51635 0
M  V30 1432 N 140.006 -0.824302 4.55806 0
M  V30 1433 C 140.741 -0.907365 5.66175 0
M  V30 1434 N 140.237 -0.952422 6.86222 0
M  V30 1435 N 142.03 -0.94494 5.541 0
M  V30 1436 H 134.181 0.67235 2.01478 0
M  V30 1437 H 136.444 0.240127 0.917084 0
M  V30 1438 H 136.15 0.305905 3.50367 0
M  V30 1439 H 136.024 -1.44422 3.48457 0
M  V30 1440 H 138.411 -1.56731 2.50039 0
M  V30 1441 H 138.492 0.199549 2.5502 0
M  V30 1442 H 138.136 0.122336 5.07753 0
M  V30 1443 H 138.066 -1.65606 4.99882 0
M  V30 1444 H 140.557 -0.798526 3.69367 0
M  V30 1445 H 140.87 -1.01645 7.66086 0
M  V30 1446 H 139.215 -0.921014 6.8887 0
M  V30 1447 H 142.406 -0.906612 4.59236 0
M  V30 1448 H 142.579 -1.00622 6.4014 0
M  V30 1449 N 135.985 -1.50799 -0.457987 0
M  V30 1450 C 137.396 -1.55152 -1.0385 0
M  V30 1451 C 137.747 -0.362719 -1.92818 0
M  V30 1452 O 136.872 0.522915 -2.09987 0
M  V30 1453 C 137.467 -2.81173 -1.89017 0
M  V30 1454 C 136.026 -2.88164 -2.42154 0
M  V30 1455 C 135.173 -2.49591 -1.20829 0
M  V30 1456 H 138.124 -1.56874 -0.240068 0
M  V30 1457 H 138.145 -2.63769 -2.74238 0
M  V30 1458 H 137.657 -3.67677 -1.24238 0
M  V30 1459 H 135.758 -2.06042 -3.10447 0
M  V30 1460 H 135.871 -3.91356 -2.76364 0
M  V30 1461 H 134.235 -2.02322 -1.54719 0
M  V30 1462 H 135.018 -3.38418 -0.576927 0
M  V30 1463 N 137.463 0.71206 -1.40597 0
M  V30 1464 C 138.71 1.47197 -1.39065 0
M  V30 1465 C 139.038 1.94499 0.00583891 0
M  V30 1466 O 138.293 1.68752 0.99102 0
M  V30 1467 C 138.592 2.71039 -2.32965 0
M  V30 1468 C 138.258 2.42484 -3.80148 0
M  V30 1469 C 136.92 2.34406 -4.20247 0
M  V30 1470 C 139.272 2.18598 -4.73143 0
M  V30 1471 C 136.6 2.00516 -5.51371 0
M  V30 1472 C 138.952 1.8622 -6.0457 0
M  V30 1473 C 137.616 1.76626 -6.43708 0
M  V30 1474 H 136.886 0.538634 -0.508876 0
M  V30 1475 H 139.533 0.815325 -1.73276 0
M  V30 1476 H 137.838 3.41558 -1.91951 0
M  V30 1477 H 139.535 3.29138 -2.29061 0
M  V30 1478 H 136.125 2.49659 -3.4838 0
M  V30 1479 H 140.309 2.23793 -4.42979 0
M  V30 1480 H 135.565 1.91628 -5.80593 0
M  V30 1481 H 139.739 1.66752 -6.76141 0
M  V30 1482 H 137.366 1.50133 -7.45228 0
M  V30 1483 N 138.941 1.26152 0.944643 0
M  V30 1484 C 140.352 1.10454 1.50522 0
M  V30 1485 C 140.703 -0.31635 1.93633 0
M  V30 1486 O 139.828 -1.20746 1.79581 0
M  V30 1487 C 140.423 1.99891 2.73549 0
M  V30 1488 C 138.982 1.88348 3.25886 0
M  V30 1489 C 138.129 1.93447 1.9868 0
M  V30 1490 H 141.08 1.39292 0.760489 0
M  V30 1491 H 141.101 1.54477 3.47732 0
M  V30 1492 H 140.613 3.03297 2.42141 0
M  V30 1493 H 138.714 0.878636 3.62092 0
M  V30 1494 H 138.827 2.73696 3.93227 0
M  V30 1495 H 137.191 1.37456 2.14425 0
M  V30 1496 H 137.974 2.98476 1.69607 0
M  V30 1497 N 140.419 -1.14872 1.07899 0
M  V30 1498 C 141.351 -2.19425 0.662231 0
M  V30 1499 C 142.364 -1.60231 -0.288079 0
M  V30 1500 O 143.553 -1.78336 -0.076534 0
M  V30 1501 C 140.653 -3.38867 -0.0470695 0
M  V30 1502 C 139.826 -4.27597 0.920831 0
M  V30 1503 C 138.885 -5.25616 0.247805 0
M  V30 1504 O 137.911 -5.62189 0.890599 0
M  V30 1505 N 139.113 -5.71746 -1.00435 0
M  V30 1506 H 141.878 -2.55797 1.56166 0
M  V30 1507 H 139.439 -1.30042 0.964404 0
M  V30 1508 H 141.431 -4.01497 -0.50813 0
M  V30 1509 H 140.001 -3.00864 -0.848523 0
M  V30 1510 H 139.221 -3.61982 1.56087 0
M  V30 1511 H 140.509 -4.83748 1.57688 0
M  V30 1512 H 139.907 -5.44153 -1.54642 0
M  V30 1513 H 138.464 -6.36389 -1.40899 0
M  V30 1514 N 141.898 -0.863906 -1.31812 0
M  V30 1515 C 143.144 -0.472535 -1.97218 0
M  V30 1516 C 143.477 0.971394 -1.68159 0
M  V30 1517 O 142.752 1.68309 -0.974798 0
M  V30 1518 C 143.035 -0.723054 -3.52766 0
M  V30 1519 C 142.888 -2.21608 -3.91421 0
M  V30 1520 C 144.207 -0.185522 -4.39709 0
M  V30 1521 H 141.326 -0.173158 -0.71637 0
M  V30 1522 H 143.968 -1.08403 -1.56041 0
M  V30 1523 H 142.118 -0.202577 -3.87971 0
M  V30 1524 H 143.79 -2.80334 -3.66347 0
M  V30 1525 H 142.033 -2.691 -3.40246 0
M  V30 1526 H 142.704 -2.34203 -4.99853 0
M  V30 1527 H 145.18 -0.630726 -4.11292 0
M  V30 1528 H 144.056 -0.390306 -5.47511 0
M  V30 1529 H 144.317 0.912229 -4.32586 0
M  V30 1530 N 143.376 1.44774 -0.622745 0
M  V30 1531 C 144.625 2.01334 -0.121397 0
M  V30 1532 C 144.938 1.49505 1.26125 0
M  V30 1533 O 146.144 1.98139 1.85616 0
M  V30 1534 C 144.6 3.59516 -0.166298 0
M  V30 1535 C 144.208 4.20342 -1.54974 0
M  V30 1536 C 145.952 4.23582 0.279021 0
M  V30 1537 C 143.859 5.70721 -1.55021 0
M  V30 1538 H 142.789 0.752851 -0.0416172 0
M  V30 1539 H 145.44 1.66083 -0.780309 0
M  V30 1540 H 143.822 3.92027 0.559557 0
M  V30 1541 H 144.996 3.99381 -2.29851 0
M  V30 1542 H 143.311 3.68529 -1.93843 0
M  V30 1543 H 145.908 5.33868 0.298083 0
M  V30 1544 H 146.251 3.95327 1.30471 0
M  V30 1545 H 146.784 3.95843 -0.394063 0
M  V30 1546 H 143.523 6.03698 -2.55399 0
M  V30 1547 H 143.043 5.93829 -0.844245 0
M  V30 1548 H 144.722 6.34203 -1.28047 0
M  V30 1549 N 144.854 0.36279 1.53368 0
M  V30 1550 C 145.801 -0.485008 2.25646 0
M  V30 1551 C 146.771 -1.07982 1.2621 0
M  V30 1552 O 147.956 -1.11284 1.54986 0
M  V30 1553 C 145.096 -1.62023 3.04701 0
M  V30 1554 C 144.209 -1.05086 4.19024 0
M  V30 1555 C 143.344 -2.15496 4.85525 0
M  V30 1556 C 142.383 -1.5601 5.91884 0
M  V30 1557 N 141.52 -2.60241 6.52088 0
M  V30 1558 H 146.36 0.137864 2.97681 0
M  V30 1559 H 143.897 0.0798061 1.46883 0
M  V30 1560 H 145.855 -2.28887 3.48807 0
M  V30 1561 H 144.485 -2.2138 2.34927 0
M  V30 1562 H 143.537 -0.27259 3.79422 0
M  V30 1563 H 144.849 -0.575926 4.95464 0
M  V30 1564 H 144.003 -2.90186 5.32801 0
M  V30 1565 H 142.742 -2.66341 4.08551 0
M  V30 1566 H 141.747 -0.798338 5.43973 0
M  V30 1567 H 142.972 -1.05994 6.70777 0
M  V30 1568 H 140.918 -3.10304 5.77968 0
M  V30 1569 H 140.835 -2.17426 7.24059 0
M  V30 1570 H 142.103 -3.34641 7.04014 0
M  V30 1571 N 146.332 -1.57332 0.0918853 0
M  V30 1572 C 147.557 -1.98995 -0.584442 0
M  V30 1573 C 147.982 -0.970528 -1.61128 0
M  V30 1574 O 147.34 0.0613904 -1.81196 0
M  V30 1575 C 147.388 -3.39636 -1.21161 0
M  V30 1576 O 146.492 -3.40447 -2.32744 0
M  V30 1577 H 145.833 -0.647165 -0.148572 0
M  V30 1578 H 148.363 -2.03873 0.172347 0
M  V30 1579 H 148.373 -3.7726 -1.55367 0
M  V30 1580 H 147.048 -4.13356 -0.459313 0
M  V30 1581 H 145.625 -3.14614 -2.0018 0
M  V30 1582 N 147.81 0.181792 -1.56548 0
M  V30 1583 C 148.757 1.22521 -1.95595 0
M  V30 1584 C 149.727 1.4454 -0.818373 0
M  V30 1585 O 150.912 1.57454 -1.07763 0
M  V30 1586 C 148.052 2.56193 -2.31212 0
M  V30 1587 C 147.165 2.41641 -3.58097 0
M  V30 1588 C 146.3 3.68108 -3.82975 0
M  V30 1589 C 145.339 3.48445 -5.03242 0
M  V30 1590 N 144.476 4.66956 -5.24306 0
M  V30 1591 H 149.316 0.885226 -2.84548 0
M  V30 1592 H 146.853 0.425718 -1.40805 0
M  V30 1593 H 148.811 3.34088 -2.49882 0
M  V30 1594 H 147.441 2.88208 -1.45382 0
M  V30 1595 H 146.493 1.54976 -3.474 0
M  V30 1596 H 147.805 2.23052 -4.46149 0
M  V30 1597 H 146.959 4.54441 -4.01956 0
M  V30 1598 H 145.698 3.89666 -2.93278 0
M  V30 1599 H 144.703 2.60499 -4.8417 0
M  V30 1600 H 145.928 3.2832 -5.9446 0
M  V30 1601 H 143.874 4.88752 -4.37559 0
M  V30 1602 H 143.791 4.51242 -6.06561 0
M  V30 1603 H 145.059 5.54602 -5.47756 0
M  V30 1604 N 149.288 1.51039 0.449983 0
M  V30 1605 C 150.536 1.62759 1.19808 0
M  V30 1606 C 150.857 0.339981 1.92013 0
M  V30 1607 O 150.127 -0.643606 1.85026 0
M  V30 1608 H 148.707 0.599811 0.445237 0
M  V30 1609 H 151.369 1.87914 0.517138 0
M  V30 1610 H 150.465 2.44911 1.93455 0
M  V30 1611 N 150.766 -0.704594 1.40972 0
M  V30 1612 C 152.014 -1.46169 1.39568 0
M  V30 1613 C 152.335 -1.95 0.00253745 0
M  V30 1614 O 151.605 -1.71095 -0.954114 0
M  V30 1615 H 150.185 -0.542326 0.513704 0
M  V30 1616 H 152.847 -0.834553 1.76128 0
M  V30 1617 H 151.943 -2.32922 2.07735 0
M  V30 1618 N 152.244 -1.26651 -0.937939 0
M  V30 1619 C 153.49 -1.12553 -1.687 0
M  V30 1620 C 153.823 0.329782 -1.91379 0
M  V30 1621 O 153.098 1.24202 -1.4968 0
M  V30 1622 C 153.381 -1.89862 -3.05981 0
M  V30 1623 C 153.234 -3.43318 -2.90607 0
M  V30 1624 C 154.553 -1.69499 -4.0615 0
M  V30 1625 H 151.672 -0.410257 -0.612257 0
M  V30 1626 H 154.314 -1.55685 -1.08913 0
M  V30 1627 H 152.464 -1.53204 -3.57017 0
M  V30 1628 H 154.136 -3.89747 -2.46769 0
M  V30 1629 H 152.379 -3.70179 -2.26164 0
M  V30 1630 H 153.05 -3.92642 -3.8799 0
M  V30 1631 H 155.526 -2.01442 -3.64088 0
M  V30 1632 H 154.402 -2.26002 -5.00214 0
M  V30 1633 H 154.663 -0.640365 -4.37438 0
M  V30 1634 N 153.722 1.14298 -1.08507 0
M  V30 1635 C 154.968 1.85633 -0.816581 0
M  V30 1636 C 155.301 1.82784 0.656021 0
M  V30 1637 O 154.576 1.25926 1.48233 0
M  V30 1638 C 154.859 3.34223 -1.34041 0
M  V30 1639 C 154.712 3.45639 -2.87843 0
M  V30 1640 C 156.031 4.29356 -0.9665 0
M  V30 1641 H 153.15 0.67402 -0.298104 0
M  V30 1642 H 155.792 1.34214 -1.34487 0
M  V30 1643 H 153.942 3.78144 -0.89104 0
M  V30 1644 H 155.614 3.10498 -3.41158 0
M  V30 1645 H 153.857 2.86817 -3.25451 0
M  V30 1646 H 154.528 4.50089 -3.19569 0
M  V30 1647 H 157.004 3.93457 -1.35391 0
M  V30 1648 H 155.88 5.3178 -1.3602 0
M  V30 1649 H 156.141 4.41919 0.126362 0
M  V30 1650 N 155.201 0.870884 1.31352 0
M  V30 1651 C 156.449 0.48132 1.96285 0
M  V30 1652 C 156.77 -0.969813 1.69173 0
M  V30 1653 O 156.04 -1.67998 1.00764 0
M  V30 1654 H 154.62 0.175002 0.726212 0
M  V30 1655 H 157.282 1.11087 1.60143 0
M  V30 1656 H 156.378 0.639825 3.05471 0
M  V30 1657 N 156.679 -1.44442 0.630414 0
M  V30 1658 C 157.928 -2.01267 0.132073 0
M  V30 1659 C 158.241 -1.50172 -1.25331 0
M  V30 1660 O 159.447 -1.9912 -1.84562 0
M  V30 1661 C 157.903 -3.59422 0.185362 0
M  V30 1662 C 157.511 -4.19514 1.57201 0
M  V30 1663 C 159.255 -4.23724 -0.256553 0
M  V30 1664 C 157.162 -5.69891 1.58045 0
M  V30 1665 H 156.092 -0.752619 0.0456092 0
M  V30 1666 H 158.743 -1.65666 0.789106 0
M  V30 1667 H 157.125 -3.92318 -0.538759 0
M  V30 1668 H 158.299 -3.98156 2.31966 0
M  V30 1669 H 156.614 -3.67496 1.95795 0
M  V30 1670 H 159.211 -5.34019 -0.269767 0
M  V30 1671 H 159.554 -3.96013 -1.28372 0
M  V30 1672 H 160.087 -3.95629 0.41505 0
M  V30 1673 H 156.826 -6.02336 2.58597 0
M  V30 1674 H 156.346 -5.93373 0.875725 0
M  V30 1675 H 158.025 -6.33515 1.31408 0
M  V30 1676 N 158.157 -0.370918 -1.53173 0
M  V30 1677 C 159.104 0.473035 -2.259 0
M  V30 1678 C 160.074 1.07311 -1.26781 0
M  V30 1679 O 161.259 1.1046 -1.55574 0
M  V30 1680 C 158.399 1.60405 -3.05556 0
M  V30 1681 C 157.512 1.02863 -4.19575 0
M  V30 1682 C 156.647 2.12918 -4.86661 0
M  V30 1683 C 155.686 1.52869 -5.92704 0
M  V30 1684 N 154.823 2.56779 -6.53459 0
M  V30 1685 H 159.663 -0.153649 -2.97604 0
M  V30 1686 H 157.2 -0.0875946 -1.46839 0
M  V30 1687 H 159.158 2.27034 -3.50016 0
M  V30 1688 H 157.788 2.20131 -2.36097 0
M  V30 1689 H 156.84 0.252465 -3.79561 0
M  V30 1690 H 158.152 0.549642 -4.95762 0
M  V30 1691 H 157.306 2.87356 -5.34333 0
M  V30 1692 H 156.045 2.6417 -4.09958 0
M  V30 1693 H 155.05 0.769479 -5.44389 0
M  V30 1694 H 156.275 1.02435 -6.7133 0
M  V30 1695 H 154.221 3.07235 -5.79606 0
M  V30 1696 H 154.138 2.13583 -7.25202 0
M  V30 1697 H 155.406 3.30903 -7.05779 0
M  V30 1698 N 159.635 1.57281 -0.100228 0
M  V30 1699 C 160.881 1.94826 0.563101 0
M  V30 1700 C 161.214 0.982475 1.67514 0
M  V30 1701 O 160.489 0.0164069 1.94493 0
M  V30 1702 C 160.772 3.42453 1.11346 0
M  V30 1703 C 160.625 4.498 0.00612081 0
M  V30 1704 C 161.944 3.91506 2.01024 0
M  V30 1705 H 159.063 0.708428 0.203221 0
M  V30 1706 H 161.705 1.8922 -0.171979 0
M  V30 1707 H 159.855 3.47361 1.7399 0
M  V30 1708 H 161.527 4.57 -0.628357 0
M  V30 1709 H 159.77 4.28756 -0.659581 0
M  V30 1710 H 160.441 5.50306 0.432109 0
M  V30 1711 H 162.917 3.88784 1.48278 0
M  V30 1712 H 161.793 4.95358 2.36457 0
M  V30 1713 H 162.054 3.31099 2.92961 0
M  V30 1714 N 161.113 -0.173488 1.56642 0
M  V30 1715 C 162.39 -0.917617 1.7274 0
M  V30 1716 C 162.77 -2.00484 0.661027 0
M  V30 1717 O 162.118 -2.26184 -0.32453 0
M  V30 1718 C 162.328 -1.48433 3.15862 0
M  V30 1719 C 163.676 -1.95809 3.76754 0
M  V30 1720 O 164.7 -1.58231 3.19126 0
M  V30 1721 O 163.559 -2.65024 4.77938 0
M  V30 1722 H 160.653 -0.431772 0.705338 0
M  V30 1723 H 163.199 -0.161487 1.6893 0
M  V30 1724 H 161.971 -0.701715 3.84957 0
M  V30 1725 H 161.594 -2.30471 3.23989 0
M  V30 1726 N 162.591 -1.51276 -0.441967 0
M  V30 1727 C 163.538 -1.72256 -1.53612 0
M  V30 1728 C 164.508 -0.564164 -1.56225 0
M  V30 1729 O 165.693 -0.798074 -1.73307 0
M  V30 1730 C 162.833 -1.84932 -2.91366 0
M  V30 1731 C 161.946 -3.12459 -2.98317 0
M  V30 1732 C 161.081 -3.15758 -4.27166 0
M  V30 1733 C 160.12 -4.37619 -4.27967 0
M  V30 1734 N 159.257 -4.38493 -5.48333 0
M  V30 1735 H 164.097 -2.65654 -1.35026 0
M  V30 1736 H 161.634 -1.31662 -0.656009 0
M  V30 1737 H 163.592 -1.90263 -3.7129 0
M  V30 1738 H 162.222 -0.949461 -3.08521 0
M  V30 1739 H 161.274 -3.1646 -2.11086 0
M  V30 1740 H 162.586 -4.02382 -2.94771 0
M  V30 1741 H 161.74 -3.19979 -5.15459 0
M  V30 1742 H 160.479 -2.23715 -4.33362 0
M  V30 1743 H 159.484 -4.33579 -3.38067 0
M  V30 1744 H 160.709 -5.30921 -4.23438 0
M  V30 1745 H 158.655 -3.49318 -5.55259 0
M  V30 1746 H 158.572 -5.22219 -5.46647 0
M  V30 1747 H 159.84 -4.469 -6.38671 0
M  V30 1748 N 164.069 0.697108 -1.41344 0
M  V30 1749 C 165.317 1.45426 -1.40341 0
M  V30 1750 C 165.638 1.94996 -0.0128787 0
M  V30 1751 O 164.908 1.71599 0.945027 0
M  V30 1752 H 163.488 0.539594 -0.516573 0
M  V30 1753 H 166.15 0.825201 -1.76569 0
M  V30 1754 H 165.246 2.31817 -2.08967 0
M  V30 1755 N 165.547 1.27147 0.931209 0
M  V30 1756 C 166.793 1.13446 1.68101 0
M  V30 1757 C 167.126 -0.319628 1.91552 0
M  V30 1758 O 166.401 -1.23407 1.50336 0
M  V30 1759 C 166.684 1.91482 3.0497 0
M  V30 1760 C 166.537 3.44855 2.88782 0
M  V30 1761 C 167.856 1.71651 4.05246 0
M  V30 1762 H 164.975 0.413498 0.610072 0
M  V30 1763 H 167.617 1.56261 1.08086 0
M  V30 1764 H 165.767 1.55095 3.56199 0
M  V30 1765 H 167.439 3.9105 2.44698 0
M  V30 1766 H 165.682 3.71373 2.24198 0
M  V30 1767 H 166.353 3.94694 3.85902 0
M  V30 1768 H 168.829 2.0337 3.63015 0
M  V30 1769 H 167.705 2.28651 4.99009 0
M  V30 1770 H 167.966 0.663555 4.37092 0
M  V30 1771 N 167.025 -1.13721 1.09112 0
M  V30 1772 C 168.271 -1.85198 0.826414 0
M  V30 1773 C 168.604 -1.83129 -0.646319 0
M  V30 1774 O 167.879 -1.2671 -1.47563 0
M  V30 1775 C 168.162 -3.33507 1.35812 0
M  V30 1776 C 168.015 -3.44108 2.89672 0
M  V30 1777 C 169.334 -4.28838 0.989256 0
M  V30 1778 H 166.453 -0.67243 0.301675 0
M  V30 1779 H 169.095 -1.33499 1.35197 0
M  V30 1780 H 167.245 -3.77666 0.911082 0
M  V30 1781 H 168.917 -3.08684 3.428 0
M  V30 1782 H 167.16 -2.85087 3.26967 0
M  V30 1783 H 167.831 -4.48388 3.21951 0
M  V30 1784 H 170.307 -3.92734 1.37475 0
M  V30 1785 H 169.183 -5.31051 1.38838 0
M  V30 1786 H 169.444 -4.4198 -0.102924 0
M  V30 1787 N 168.503 -0.877838 -1.30888 0
M  V30 1788 C 169.914 -0.544193 -1.78593 0
M  V30 1789 C 170.265 0.939301 -1.72254 0
M  V30 1790 O 169.39 1.7337 -1.29505 0
M  V30 1791 C 169.985 -0.98105 -3.24285 0
M  V30 1792 C 168.544 -0.698935 -3.69854 0
M  V30 1793 C 167.691 -1.168 -2.51502 0
M  V30 1794 H 170.642 -1.06278 -1.17859 0
M  V30 1795 H 170.663 -0.307009 -3.79259 0
M  V30 1796 H 170.175 -2.06079 -3.28866 0
M  V30 1797 H 168.276 0.369112 -3.70767 0
M  V30 1798 H 168.389 -1.28148 -4.61644 0
M  V30 1799 H 166.753 -0.587535 -2.47831 0
M  V30 1800 H 167.536 -2.25533 -2.58824 0
M  V30 1801 N 169.982 1.44106 -0.638065 0
M  V30 1802 C 170.912 2.33448 0.0494287 0
M  V30 1803 C 171.893 1.48606 0.827672 0
M  V30 1804 O 173.078 1.77308 0.792173 0
M  V30 1805 C 170.208 3.31771 1.02691 0
M  V30 1806 C 169.162 4.26485 0.359823 0
M  V30 1807 C 168.488 5.14729 1.44769 0
M  V30 1808 C 169.788 5.17056 -0.738296 0
M  V30 1809 H 171.482 2.91183 -0.696636 0
M  V30 1810 H 169.028 1.40014 -0.336456 0
M  V30 1811 H 170.981 3.93161 1.51666 0
M  V30 1812 H 169.705 2.7226 1.80395 0
M  V30 1813 H 168.364 3.66437 -0.10934 0
M  V30 1814 H 168.012 4.51566 2.21578 0
M  V30 1815 H 167.712 5.78913 1.00668 0
M  V30 1816 H 169.236 5.78991 1.93911 0
M  V30 1817 H 170.65 5.72342 -0.331354 0
M  V30 1818 H 169.047 5.89879 -1.10286 0
M  V30 1819 H 170.117 4.57652 -1.60258 0
M  V30 1820 N 171.46 0.379036 1.52974 0
M  V30 1821 C 172.423 -0.448865 2.24762 0
M  V30 1822 C 173.423 -0.998689 1.26027 0
M  V30 1823 O 174.613 -0.882313 1.50203 0
M  V30 1824 C 171.745 -1.62872 2.99476 0
M  V30 1825 H 172.938 0.179491 2.99362 0
M  V30 1826 H 170.491 0.13096 1.5575 0
M  V30 1827 H 171.226 -2.29479 2.29151 0
M  V30 1828 H 171.011 -1.24128 3.71934 0
M  V30 1829 H 172.501 -2.2151 3.5401 0
M  V30 1830 N 172.938 -1.57226 0.108567 0
M  V30 1831 C 174.186 -1.94448 -0.550853 0
M  V30 1832 C 174.507 -0.992074 -1.67878 0
M  V30 1833 O 173.777 -0.0465 -1.95845 0
M  V30 1834 H 172.357 -0.717897 -0.206479 0
M  V30 1835 H 175.019 -1.94112 0.175062 0
M  V30 1836 H 174.115 -2.97218 -0.952259 0
M  V30 1837 N 174.416 0.165178 -1.56732 0
M  V30 1838 C 175.644 0.896218 -1.86482 0
M  V30 1839 C 176.059 1.75555 -0.694675 0
M  V30 1840 O 175.416 1.79379 0.33607 0
M  V30 1841 C 175.467 1.76792 -3.1532 0
M  V30 1842 O 175.188 0.943239 -4.27825 0
M  V30 1843 C 176.689 2.6081 -3.58459 0
M  V30 1844 H 173.909 0.260064 -0.618553 0
M  V30 1845 H 176.453 0.163428 -2.03846 0
M  V30 1846 H 174.608 2.45398 -2.99764 0
M  V30 1847 H 175.022 1.53998 -5.01383 0
M  V30 1848 H 176.496 3.17579 -4.51495 0
M  V30 1849 H 176.973 3.35977 -2.82872 0
M  V30 1850 H 177.579 1.97526 -3.76648 0
M  V30 1851 N 175.894 1.51508 0.433938 0
M  V30 1852 C 176.842 1.73646 1.54757 0
M  V30 1853 C 177.836 0.602854 1.5831 0
M  V30 1854 O 179.042 0.784318 1.62014 0
M  V30 1855 H 175.417 0.548718 0.51421 0
M  V30 1856 H 177.388 2.66991 1.33261 0
M  V30 1857 C 176.137 1.88172 2.92381 0
M  V30 1858 H 175.46 2.74808 2.90381 0
M  V30 1859 H 176.9 2.07672 3.6966 0
M  V30 1860 C 175.359 0.64239 3.30719 0
M  V30 1861 O 175.889 -0.201362 4.01195 0
M  V30 1862 N 174.095 0.485489 2.86516 0
M  V30 1863 H 173.642 1.17318 2.29334 0
M  V30 1864 H 173.6 -0.342482 3.12529 0
M  V30 1865 N 177.372 -0.689602 1.41712 0
M  V30 1866 C 178.62 -1.4468 1.4111 0
M  V30 1867 C 178.941 -1.94986 0.0232196 0
M  V30 1868 O 178.211 -1.72097 -0.935913 0
M  V30 1869 H 176.791 -0.536847 0.519427 0
M  V30 1870 H 179.453 -0.815825 1.77004 0
M  V30 1871 H 178.549 -2.30706 2.10193 0
M  V30 1872 N 178.85 -1.27639 -0.924453 0
M  V30 1873 C 179.76 -1.12466 -2.05885 0
M  V30 1874 C 180.776 -0.053869 -1.73917 0
M  V30 1875 O 181.952 -0.261012 -1.99702 0
M  V30 1876 C 179.017 -0.776768 -3.37886 0
M  V30 1877 C 178.078 -1.92878 -3.83532 0
M  V30 1878 C 177.311 -1.59739 -5.09234 0
M  V30 1879 O 177.534 -0.506782 -5.68144 0
M  V30 1880 O 176.468 -2.43761 -5.50331 0
M  V30 1881 H 180.294 -2.07671 -2.21599 0
M  V30 1882 H 177.879 -1.06857 -1.04413 0
M  V30 1883 H 179.761 -0.596229 -4.17161 0
M  V30 1884 H 178.436 0.145732 -3.23372 0
M  V30 1885 H 177.343 -2.1644 -3.0513 0
M  V30 1886 H 178.676 -2.8316 -4.02593 0
M  V30 1887 N 180.328 1.1314 -1.09713 0
M  V30 1888 C 181.556 1.88321 -0.856898 0
M  V30 1889 C 181.971 1.79276 0.592073 0
M  V30 1890 O 181.328 1.16142 1.40774 0
M  V30 1891 C 181.379 3.37812 -1.28706 0
M  V30 1892 O 181.1 3.46627 -2.67921 0
M  V30 1893 C 182.601 4.29952 -1.07964 0
M  V30 1894 H 179.821 0.596094 -0.308079 0
M  V30 1895 H 182.365 1.43205 -1.45988 0
M  V30 1896 H 180.52 3.805 -0.727912 0
M  V30 1897 H 180.934 4.39579 -2.8613 0
M  V30 1898 H 182.408 5.33159 -1.42986 0
M  V30 1899 H 182.885 4.39196 -0.0176577 0
M  V30 1900 H 183.491 3.93036 -1.62489 0
M  V30 1901 N 181.806 0.884767 1.30421 0
M  V30 1902 C 183.034 0.518044 2.0031 0
M  V30 1903 C 183.449 -0.893408 1.66324 0
M  V30 1904 O 182.806 -1.5875 0.900262 0
M  V30 1905 C 182.857 0.682997 3.54989 0
M  V30 1906 O 182.578 2.03888 3.87764 0
M  V30 1907 C 184.079 0.31924 4.42149 0
M  V30 1908 H 181.299 0.200265 0.640418 0
M  V30 1909 H 183.843 1.19001 1.6631 0
M  V30 1910 H 181.998 0.0584052 3.87356 0
M  V30 1911 H 182.412 2.05735 4.82466 0
M  V30 1912 H 183.886 0.485555 5.4986 0
M  V30 1913 H 184.363 -0.742717 4.32875 0
M  V30 1914 H 184.969 0.920147 4.15227 0
M  V30 1915 N 183.284 -1.43765 0.645699 0
M  V30 1916 C 184.512 -2.06253 0.163556 0
M  V30 1917 C 184.927 -1.48352 -1.16778 0
M  V30 1918 O 184.284 -0.611932 -1.71935 0
M  V30 1919 C 184.335 -3.61453 0.0583186 0
M  V30 1920 O 184.056 -4.172 1.33702 0
M  V30 1921 C 185.557 -4.41002 -0.450795 0
M  V30 1922 H 182.777 -0.665413 0.0864077 0
M  V30 1923 H 185.321 -1.84396 0.884222 0
M  V30 1924 H 183.476 -3.82522 -0.612865 0
M  V30 1925 H 183.89 -5.10791 1.19131 0
M  V30 1926 H 185.364 -5.49966 -0.473403 0
M  V30 1927 H 185.841 -4.13488 -1.48068 0
M  V30 1928 H 186.447 -4.24886 0.187637 0
M  V30 1929 N 184.763 -0.387143 -1.52771 0
M  V30 1930 C 185.695 0.484089 -2.2403 0
M  V30 1931 C 186.708 1.02849 -1.26198 0
M  V30 1932 O 187.897 0.931186 -1.52286 0
M  V30 1933 C 184.997 1.68337 -2.94136 0
M  V30 1934 C 184.17 1.26672 -4.18656 0
M  V30 1935 C 183.229 2.33045 -4.7178 0
M  V30 1936 O 182.255 1.94541 -5.34923 0
M  V30 1937 N 183.457 3.64929 -4.5145 0
M  V30 1938 H 186.222 -0.126404 -2.99433 0
M  V30 1939 H 183.783 -0.213392 -1.60488 0
M  V30 1940 H 185.775 2.39019 -3.26577 0
M  V30 1941 H 184.345 2.20025 -2.22053 0
M  V30 1942 H 183.565 0.388878 -3.92277 0
M  V30 1943 H 184.853 0.964964 -4.99566 0
M  V30 1944 H 184.251 3.98974 -4.01044 0
M  V30 1945 H 182.808 4.31651 -4.88386 0
M  V30 1946 N 186.241 1.57166 -0.116904 0
M  V30 1947 C 187.489 1.94737 0.540533 0
M  V30 1948 C 187.81 1.00096 1.67349 0
M  V30 1949 O 187.08 0.0568854 1.95817 0
M  V30 1950 H 185.66 0.718981 0.202669 0
M  V30 1951 H 188.322 1.94017 -0.185353 0
M  V30 1952 H 187.418 2.97719 0.936483 0
M  V30 1953 N 187.719 -0.156864 1.56817 0
M  V30 1954 C 188.649 -1.19589 2.00551 0
M  V30 1955 C 189.63 -1.4536 0.883426 0
M  V30 1956 O 190.815 -1.56449 1.15054 0
M  V30 1957 C 187.945 -2.53143 2.37773 0
M  V30 1958 C 186.899 -2.41913 3.53075 0
M  V30 1959 C 186.225 -3.80088 3.76081 0
M  V30 1960 C 187.525 -1.91157 4.86062 0
M  V30 1961 H 189.219 -0.832293 2.87599 0
M  V30 1962 H 186.765 -0.398918 1.38364 0
M  V30 1963 H 188.718 -3.26047 2.66967 0
M  V30 1964 H 187.442 -2.91319 1.4765 0
M  V30 1965 H 186.101 -1.71462 3.24031 0
M  V30 1966 H 185.749 -4.15683 2.83225 0
M  V30 1967 H 185.449 -3.73439 4.53671 0
M  V30 1968 H 186.973 -4.54556 4.0769 0
M  V30 1969 H 188.387 -2.53846 5.14038 0
M  V30 1970 H 186.784 -1.95422 5.67389 0
M  V30 1971 H 187.854 -0.866673 4.77092 0
M  V30 1972 N 189.197 -1.51736 -0.425897 0
M  V30 1973 C 190.474 -1.55519 -1.1863 0
M  V30 1974 C 190.854 -0.326219 -2.08564 0
M  V30 1975 O 190.202 0.688012 -2.17896 0
M  V30 1976 C 190.412 -2.87521 -1.9782 0
M  V30 1977 C 191.76 -3.39899 -2.54468 0
M  V30 1978 O 192.784 -2.89148 -2.08019 0
M  V30 1979 O 191.643 -4.2848 -3.39215 0
M  V30 1980 H 188.737 -0.625739 -0.540721 0
M  V30 1981 H 191.283 -1.64055 -0.434038 0
M  V30 1982 H 190.055 -3.68422 -1.31836 0
M  V30 1983 H 189.678 -2.822 -2.80088 0
M  V30 1984 N 190.675 0.682077 -1.42076 0
M  V30 1985 C 191.923 1.4393 -1.41876 0
M  V30 1986 C 192.244 1.94971 -0.0335599 0
M  V30 1987 O 191.514 1.72591 0.926773 0
M  V30 1988 H 190.094 0.534085 -0.522267 0
M  V30 1989 H 192.756 0.806427 -1.77434 0
M  V30 1990 H 191.852 2.29588 -2.11414 0
M  V30 1991 N 192.153 1.28127 0.917671 0
M  V30 1992 C 193.083 1.14248 2.03641 0
M  V30 1993 C 194.064 0.0412748 1.7005 0
M  V30 1994 O 195.249 0.217566 1.92977 0
M  V30 1995 C 192.379 0.799431 3.37974 0
M  V30 1996 C 191.333 1.85497 3.85713 0
M  V30 1997 C 190.659 1.36565 5.16966 0
M  V30 1998 C 191.959 3.26085 4.08002 0
M  V30 1999 H 193.653 2.07835 2.15511 0
M  V30 2000 H 191.199 1.00064 1.03553 0
M  V30 2001 H 193.152 0.689114 4.15727 0
M  V30 2002 H 191.876 -0.172145 3.26146 0
M  V30 2003 H 190.535 1.95437 3.10161 0
M  V30 2004 H 190.183 0.383253 5.01538 0
M  V30 2005 H 189.883 2.07143 5.49878 0
M  V30 2006 H 191.407 1.26848 5.97279 0
M  V30 2007 H 192.821 3.19089 4.76293 0
M  V30 2008 H 191.218 3.94462 4.52238 0
M  V30 2009 H 192.288 3.70394 3.12948 0
M  V30 2010 N 193.631 -1.12557 1.10312 0
M  V30 2011 C 194.856 -1.88405 0.867085 0
M  V30 2012 C 195.281 -1.79038 -0.576817 0
M  V30 2013 O 194.639 -1.14439 -1.40618 0
M  V30 2014 C 194.687 -3.3563 1.31851 0
M  V30 2015 O 193.791 -4.09565 0.482734 0
M  V30 2016 H 193.132 -0.585455 0.313271 0
M  V30 2017 H 195.662 -1.42352 1.4696 0
M  V30 2018 H 195.672 -3.86469 1.3079 0
M  V30 2019 H 194.347 -3.41765 2.37001 0
M  V30 2020 H 192.924 -3.68695 0.558448 0
M  V30 2021 N 195.109 -0.891671 -1.2995 0
M  V30 2022 C 196.019 -0.367691 -2.31701 0
M  V30 2023 C 197.035 0.533486 -1.6562 0
M  V30 2024 O 198.211 0.424997 -1.96865 0
M  V30 2025 C 195.276 0.403406 -3.44345 0
M  V30 2026 C 194.337 -0.528328 -4.26037 0
M  V30 2027 C 193.57 0.206063 -5.33302 0
M  V30 2028 O 193.793 1.43119 -5.52153 0
M  V30 2029 O 192.727 -0.447281 -6.00236 0
M  V30 2030 H 196.553 -1.21163 -2.78484 0
M  V30 2031 H 194.138 -0.655725 -1.34241 0
M  V30 2032 H 196.02 0.839753 -4.12948 0
M  V30 2033 H 194.695 1.22354 -2.99685 0
M  V30 2034 H 193.602 -1.01362 -3.60106 0
M  V30 2035 H 194.935 -1.31465 -4.74318 0
M  V30 2036 N 196.587 1.43421 -0.653314 0
M  V30 2037 C 198.003 1.56341 -0.320886 0
M  V30 2038 C 198.203 1.63696 1.17499 0
M  V30 2039 O 197.259 1.59208 1.95982 0
M  V30 2040 C 198.572 2.82424 -1.03233 0
M  V30 2041 C 200.12 2.96168 -1.01259 0
M  V30 2042 C 200.595 4.25084 -1.70492 0
M  V30 2043 N 202.086 4.31948 -1.67257 0
M  V30 2044 C 202.821 5.30466 -2.17701 0
M  V30 2045 N 202.317 6.35261 -2.76434 0
M  V30 2046 N 204.11 5.2212 -2.082 0
M  V30 2047 H 196.261 1.3689 -1.62403 0
M  V30 2048 H 198.524 0.657455 -0.682977 0
M  V30 2049 H 198.23 2.83053 -2.08744 0
M  V30 2050 H 198.104 3.72653 -0.583948 0
M  V30 2051 H 200.491 2.9508 0.0341235 0
M  V30 2052 H 200.572 2.07229 -1.49966 0
M  V30 2053 H 200.216 4.26932 -2.7512 0
M  V30 2054 H 200.146 5.1292 -1.19251 0
M  V30 2055 H 202.637 3.56838 -1.24398 0
M  V30 2056 H 202.95 7.06754 -3.12601 0
M  V30 2057 H 201.295 6.35884 -2.80495 0
M  V30 2058 H 204.486 4.39166 -1.62021 0
M  V30 2059 H 204.659 5.98739 -2.47822 0
M  V30 2060 N 198.065 0.39524 1.52563 0
M  V30 2061 C 199.305 -0.184744 2.03563 0
M  V30 2062 C 199.669 -1.43548 1.27507 0
M  V30 2063 O 200.87 -2.093 1.68662 0
M  V30 2064 C 199.141 -0.440294 3.54678 0
M  V30 2065 S 200.7 -0.989712 4.27493 0
M  V30 2066 H 197.518 -0.0515075 0.709132 0
M  V30 2067 H 200.12 0.544957 1.87751 0
M  V30 2068 H 198.824 0.477005 4.07618 0
M  V30 2069 H 198.355 -1.19825 3.74707 0
M  V30 2070 H 200.37 -2.27155 4.41152 0
M  V30 2071 N 199.544 -1.57102 0.125237 0
M  V30 2072 C 200.507 -2.14471 -0.80838 0
M  V30 2073 C 201.507 -1.0811 -1.19033 0
M  V30 2074 O 202.697 -1.33856 -1.11482 0
M  V30 2075 C 199.829 -2.69005 -2.09402 0
M  V30 2076 H 201.022 -2.98297 -0.309696 0
M  V30 2077 H 198.575 -1.55807 -0.124051 0
M  V30 2078 H 199.31 -1.88785 -2.63687 0
M  V30 2079 H 199.095 -3.46799 -1.82957 0
M  V30 2080 H 200.585 -3.13278 -2.76128 0
M  V30 2081 N 201.022 0.148545 -1.56898 0
M  V30 2082 C 201.954 1.20852 -1.9475 0
M  V30 2083 C 202.967 1.39265 -0.843152 0
M  V30 2084 O 204.156 1.38864 -1.12156 0
M  V30 2085 C 201.256 2.57362 -2.20495 0
M  V30 2086 C 200.429 2.59947 -3.51776 0
M  V30 2087 C 199.488 3.77984 -3.6608 0
M  V30 2088 O 198.514 3.62929 -4.38487 0
M  V30 2089 N 199.716 4.95375 -3.02629 0
M  V30 2090 H 202.481 0.886804 -2.86279 0
M  V30 2091 H 200.042 0.338121 -1.5833 0
M  V30 2092 H 202.034 3.34833 -2.27307 0
M  V30 2093 H 200.604 2.81832 -1.35238 0
M  V30 2094 H 199.824 1.68403 -3.56419 0
M  V30 2095 H 201.112 2.58704 -4.38121 0
M  V30 2096 H 200.51 5.10509 -2.43715 0
M  V30 2097 H 199.067 5.70627 -3.15004 0
M  V30 2098 N 202.5 1.5196 0.417844 0
M  V30 2099 C 203.73 1.69181 1.18581 0
M  V30 2100 C 204.138 0.397104 1.84986 0
M  V30 2101 O 203.481 -0.636011 1.72339 0
M  V30 2102 C 203.543 2.76497 2.29759 0
M  V30 2103 C 203.207 4.18514 1.83563 0
M  V30 2104 C 204.204 5.02648 1.32821 0
M  V30 2105 C 201.889 4.64708 1.90661 0
M  V30 2106 C 203.883 6.31044 0.897894 0
M  V30 2107 C 201.57 5.93096 1.47241 0
M  V30 2108 C 202.568 6.76093 0.968891 0
M  V30 2109 O 202.256 8.02078 0.540924 0
M  V30 2110 H 201.988 0.570457 0.362705 0
M  V30 2111 H 204.542 1.99249 0.498885 0
M  V30 2112 H 202.772 2.41786 3.01789 0
M  V30 2113 H 204.461 2.82403 2.91553 0
M  V30 2114 H 205.227 4.68154 1.26716 0
M  V30 2115 H 201.106 4.00216 2.28797 0
M  V30 2116 H 204.65 6.95776 0.504192 0
M  V30 2117 H 200.547 6.271 1.53022 0
M  V30 2118 H 201.315 8.15794 0.66502 0
M  V30 2119 N 203.978 -0.674533 1.42435 0
M  V30 2120 C 204.925 -1.78807 1.45934 0
M  V30 2121 C 205.895 -1.63157 0.311271 0
M  V30 2122 O 207.08 -1.83707 0.515383 0
M  V30 2123 C 204.22 -3.16839 1.36773 0
M  V30 2124 C 203.333 -3.43774 2.61617 0
M  V30 2125 C 202.468 -4.71536 2.44597 0
M  V30 2126 C 201.507 -4.91505 3.64814 0
M  V30 2127 N 200.644 -6.10508 3.46734 0
M  V30 2128 H 205.484 -1.75151 2.41093 0
M  V30 2129 H 203.021 -0.85504 1.19697 0
M  V30 2130 H 204.979 -3.96606 1.29459 0
M  V30 2131 H 203.609 -3.19619 0.452089 0
M  V30 2132 H 202.661 -2.58259 2.79297 0
M  V30 2133 H 203.973 -3.54423 3.50978 0
M  V30 2134 H 203.127 -5.59393 2.3487 0
M  V30 2135 H 201.866 -4.6317 1.52726 0
M  V30 2136 H 200.871 -4.0209 3.74972 0
M  V30 2137 H 202.096 -5.01716 4.57665 0
M  V30 2138 H 200.042 -6.03315 2.5758 0
M  V30 2139 H 199.959 -6.2202 4.29682 0
M  V30 2140 H 201.227 -7.01044 3.40819 0
M  V30 2141 N 205.456 -1.28612 -0.910864 0
M  V30 2142 C 206.403 -1.12786 -2.01365 0
M  V30 2143 C 207.373 -0.024201 -1.66082 0
M  V30 2144 O 208.558 -0.189667 -1.89855 0
M  V30 2145 C 205.698 -0.798743 -3.35729 0
M  V30 2146 C 204.811 -1.98173 -3.83864 0
M  V30 2147 C 203.946 -1.59298 -5.06752 0
M  V30 2148 C 202.985 -2.74245 -5.47226 0
M  V30 2149 N 202.122 -2.35842 -6.61304 0
M  V30 2150 H 206.962 -2.07142 -2.14234 0
M  V30 2151 H 204.499 -1.03093 -1.0493 0
M  V30 2152 H 206.457 -0.588662 -4.13026 0
M  V30 2153 H 205.087 0.10789 -3.2262 0
M  V30 2154 H 204.139 -2.30386 -3.02699 0
M  V30 2155 H 205.451 -2.84343 -4.09818 0
M  V30 2156 H 204.605 -1.34513 -5.916 0
M  V30 2157 H 203.344 -0.702618 -4.82612 0
M  V30 2158 H 202.349 -2.99725 -4.60918 0
M  V30 2159 H 203.574 -3.63928 -5.73353 0
M  V30 2160 H 201.52 -1.49279 -6.38789 0
M  V30 2161 H 201.437 -3.15546 -6.86998 0
M  V30 2162 H 202.705 -2.14348 -7.4945 0
M  V30 2163 N 206.934 1.1197 -1.10907 0
M  V30 2164 C 208.211 1.79959 -0.766432 0
M  V30 2165 C 208.591 1.97466 0.746363 0
M  V30 2166 O 207.939 1.55491 1.67436 0
M  V30 2167 C 208.149 3.14009 -1.52314 0
M  V30 2168 C 209.497 3.89134 -1.69883 0
M  V30 2169 O 210.521 3.2368 -1.48692 0
M  V30 2170 O 209.38 5.06572 -2.05054 0
M  V30 2171 H 206.474 0.779208 -0.277062 0
M  V30 2172 H 209.02 1.18762 -1.21217 0
M  V30 2173 H 207.792 2.96587 -2.55249 0
M  V30 2174 H 207.415 3.82915 -1.07059 0
M  V30 2175 N 208.412 0.89855 1.29475 0
M  V30 2176 C 209.66 0.522847 1.9522 0
M  V30 2177 C 209.981 -0.93371 1.71192 0
M  V30 2178 O 209.251 -1.65823 1.04305 0
M  V30 2179 H 207.831 0.190366 0.722336 0
M  V30 2180 H 210.493 1.14459 1.5775 0
M  V30 2181 H 209.589 0.704476 3.04045 0
M  V30 2182 N 209.89 -1.43072 0.660911 0
M  V30 2183 C 210.853 -2.29194 -0.0166406 0
M  V30 2184 C 211.853 -1.42609 -0.742912 0
M  V30 2185 O 213.043 -1.64155 -0.583004 0
M  V30 2186 C 210.175 -3.24831 -1.0343 0
M  V30 2187 H 211.368 -2.90596 0.741208 0
M  V30 2188 H 208.921 -1.5048 0.422532 0
M  V30 2189 H 209.656 -2.68339 -1.82111 0
M  V30 2190 H 209.441 -3.88676 -0.517082 0
M  V30 2191 H 210.931 -3.89451 -1.50723 0
M  V30 2192 N 211.368 -0.403325 -1.52352 0
M  V30 2193 C 212.645 0.232611 -1.94212 0
M  V30 2194 C 213.025 1.63133 -1.33981 0
M  V30 2195 O 212.373 2.22659 -0.513344 0
M  V30 2196 C 212.583 0.244811 -3.4814 0
M  V30 2197 C 213.931 0.46698 -4.22024 0
M  V30 2198 O 214.955 0.324419 -3.5472 0
M  V30 2199 O 213.814 0.74747 -5.41364 0
M  V30 2200 H 210.908 0.148223 -0.813609 0
M  V30 2201 H 213.454 -0.458848 -1.63379 0
M  V30 2202 H 212.226 -0.734378 -3.84347 0
M  V30 2203 H 211.849 0.980611 -3.85318 0
M  V30 2204 N 212.846 1.57033 -0.133567 0
M  V30 2205 C 214.093 1.95686 0.520877 0
M  V30 2206 C 214.421 1.0177 1.6575 0
M  V30 2207 O 213.676 0.0443195 1.9565 0
M  V30 2208 C 213.975 3.40674 1.08057 0
M  V30 2209 C 213.641 4.50855 0.0637899 0
M  V30 2210 C 212.303 4.80716 -0.215757 0
M  V30 2211 C 214.655 5.17398 -0.62835 0
M  V30 2212 C 211.983 5.74433 -1.19348 0
M  V30 2213 C 214.335 6.12167 -1.5948 0
M  V30 2214 C 212.999 6.40414 -1.88218 0
M  V30 2215 H 212.269 0.716067 0.190602 0
M  V30 2216 H 214.916 1.9026 -0.217556 0
M  V30 2217 H 213.221 3.42865 1.89606 0
M  V30 2218 H 214.918 3.67902 1.59529 0
M  V30 2219 H 211.508 4.27605 0.291855 0
M  V30 2220 H 215.692 4.94472 -0.425562 0
M  V30 2221 H 210.948 5.94616 -1.42272 0
M  V30 2222 H 215.122 6.6281 -2.13671 0
M  V30 2223 H 212.749 7.12838 -2.64133 0
M  V30 2224 N 214.325 -0.140222 1.56975 0
M  V30 2225 C 215.288 -1.15689 1.97861 0
M  V30 2226 C 216.288 -1.3549 0.865974 0
M  V30 2227 O 217.478 -1.32367 1.13246 0
M  V30 2228 C 214.61 -2.51582 2.30042 0
M  V30 2229 H 215.803 -0.805971 2.88867 0
M  V30 2230 H 213.356 -0.383801 1.51515 0
M  V30 2231 H 214.091 -2.91632 1.41849 0
M  V30 2232 H 213.876 -2.38569 3.11171 0
M  V30 2233 H 215.366 -3.24792 2.62488 0
M  V30 2234 N 215.803 -1.52179 -0.40978 0
M  V30 2235 C 216.75 -1.75475 -1.49924 0
M  V30 2236 C 217.72 -0.597175 -1.54994 0
M  V30 2237 O 218.905 -0.834655 -1.71575 0
M  V30 2238 C 216.045 -1.9107 -2.87378 0
M  V30 2239 C 215.158 -3.18717 -2.91622 0
M  V30 2240 C 214.293 -3.24747 -4.20372 0
M  V30 2241 C 213.332 -4.46598 -4.18588 0
M  V30 2242 N 212.469 -4.50025 -5.38908 0
M  V30 2243 H 217.309 -2.68458 -1.29361 0
M  V30 2244 H 214.846 -1.33024 -0.627934 0
M  V30 2245 H 216.804 -1.98096 -3.6717 0
M  V30 2246 H 215.434 -1.01469 -3.06437 0
M  V30 2247 H 214.486 -3.20866 -2.04326 0
M  V30 2248 H 215.798 -4.08544 -2.86169 0
M  V30 2249 H 214.952 -3.30841 -5.08556 0
M  V30 2250 H 213.691 -2.32857 -4.28519 0
M  V30 2251 H 212.696 -4.40652 -3.28794 0
M  V30 2252 H 213.921 -5.39783 -4.12081 0
M  V30 2253 H 211.867 -3.61017 -5.47725 0
M  V30 2254 H 211.784 -5.33697 -5.35447 0
M  V30 2255 H 213.052 -4.60347 -6.29048 0
M  V30 2256 N 217.281 0.66697 -1.42791 0
M  V30 2257 C 218.527 1.42754 -1.44889 0
M  V30 2258 C 218.882 1.92283 -0.0669755 0
M  V30 2259 O 218.175 1.68494 0.912154 0
M  V30 2260 C 218.369 2.6349 -2.4147 0
M  V30 2261 C 218.198 2.25776 -3.88915 0
M  V30 2262 C 216.968 2.1476 -4.57391 0
M  V30 2263 C 219.166 1.86927 -4.79127 0
M  V30 2264 N 217.148 1.70232 -5.89826 0
M  V30 2265 C 218.519 1.53378 -6.00729 0
M  V30 2266 C 220.574 1.73989 -4.66511 0
M  V30 2267 C 219.277 1.08187 -7.11117 0
M  V30 2268 C 221.303 1.30203 -5.76889 0
M  V30 2269 C 220.665 0.975818 -6.97608 0
M  V30 2270 H 216.764 0.518559 -0.585338 0
M  V30 2271 H 219.348 0.768906 -1.78874 0
M  V30 2272 H 217.519 3.27033 -2.09533 0
M  V30 2273 H 219.251 3.30123 -2.34096 0
M  V30 2274 H 216.006 2.3408 -4.11708 0
M  V30 2275 H 216.43 1.50369 -6.6009 0
M  V30 2276 H 221.072 1.97853 -3.7365 0
M  V30 2277 H 218.79 0.830701 -8.03819 0
M  V30 2278 H 222.376 1.20701 -5.69142 0
M  V30 2279 H 221.256 0.642157 -7.81566 0
M  V30 2280 N 218.759 1.29093 0.90403 0
M  V30 2281 C 220.175 1.07011 1.1841 0
M  V30 2282 C 220.375 -0.181358 2.00682 0
M  V30 2283 O 219.431 -0.880331 2.36657 0
M  V30 2284 C 220.744 2.32311 1.90924 0
M  V30 2285 C 222.292 2.37587 2.03768 0
M  V30 2286 C 222.767 3.62679 2.79693 0
M  V30 2287 N 224.258 3.63376 2.87249 0
M  V30 2288 C 224.993 4.56848 3.46522 0
M  V30 2289 N 224.489 5.60648 4.06996 0
M  V30 2290 N 226.282 4.44426 3.44154 0
M  V30 2291 H 218.433 2.09412 0.354993 0
M  V30 2292 H 220.696 0.922181 0.219742 0
M  V30 2293 H 220.402 3.23536 1.37905 0
M  V30 2294 H 220.276 2.39483 2.91424 0
M  V30 2295 H 222.663 1.46853 2.55965 0
M  V30 2296 H 222.744 2.34403 1.02415 0
M  V30 2297 H 222.388 4.53762 2.28173 0
M  V30 2298 H 222.318 3.63119 3.81381 0
M  V30 2299 H 224.809 2.88321 2.44293 0
M  V30 2300 H 225.122 6.28101 4.50232 0
M  V30 2301 H 223.467 5.64463 4.05471 0
M  V30 2302 H 226.658 3.62529 2.96126 0
M  V30 2303 H 226.831 5.17457 3.90054 0
M  V30 2304 N 220.237 -1.11381 1.11499 0
M  V30 2305 C 221.477 -1.84763 0.874188 0
M  V30 2306 C 221.841 -1.82726 -0.589496 0
M  V30 2307 O 223.042 -2.51562 -0.947089 0
M  V30 2308 C 221.313 -3.27931 1.42112 0
M  V30 2309 S 222.872 -4.18557 1.31739 0
M  V30 2310 H 219.69 -0.637115 0.315603 0
M  V30 2311 H 222.292 -1.34097 1.42261 0
M  V30 2312 H 220.996 -3.26978 2.48019 0
M  V30 2313 H 220.527 -3.83665 0.869761 0
M  V30 2314 H 222.542 -4.95396 0.282335 0
M  V30 2315 N 221.715 -0.905404 -1.28997 0
M  V30 2316 C 222.961 -0.535039 -1.95615 0
M  V30 2317 C 223.294 0.917404 -1.71165 0
M  V30 2318 O 222.569 1.65123 -1.02785 0
M  V30 2319 C 222.852 -0.834918 -3.50287 0
M  V30 2320 C 222.705 -2.33948 -3.84172 0
M  V30 2321 C 224.024 -0.325318 -4.38896 0
M  V30 2322 H 221.143 -0.195861 -0.710498 0
M  V30 2323 H 223.785 -1.13313 -1.52513 0
M  V30 2324 H 221.935 -0.325904 -3.87131 0
M  V30 2325 H 223.607 -2.91847 -3.57243 0
M  V30 2326 H 221.85 -2.79789 -3.31513 0
M  V30 2327 H 222.521 -2.49987 -4.92149 0
M  V30 2328 H 224.997 -0.761256 -4.09077 0
M  V30 2329 H 223.873 -0.564295 -5.45992 0
M  V30 2330 H 224.134 0.774144 -4.35269 0
M  V30 2331 N 223.193 1.4272 -0.668489 0
M  V30 2332 C 224.123 2.335 -0.000100175 0
M  V30 2333 C 225.104 1.50328 0.795964 0
M  V30 2334 O 226.289 1.78949 0.754385 0
M  V30 2335 C 223.419 3.33874 0.956302 0
M  V30 2336 C 222.373 4.27152 0.269278 0
M  V30 2337 C 221.699 5.17684 1.33818 0
M  V30 2338 C 222.999 5.15373 -0.847805 0
M  V30 2339 H 224.693 2.89639 -0.758244 0
M  V30 2340 H 222.239 1.39269 -0.366079 0
M  V30 2341 H 224.192 3.9629 1.43292 0
M  V30 2342 H 222.916 2.76025 1.74579 0
M  V30 2343 H 221.575 3.66123 -0.187042 0
M  V30 2344 H 221.223 4.56165 2.1195 0
M  V30 2345 H 220.923 5.80918 0.883659 0
M  V30 2346 H 222.447 5.82974 1.81586 0
M  V30 2347 H 223.861 5.7151 -0.452681 0
M  V30 2348 H 222.258 5.87407 -1.22773 0
M  V30 2349 H 223.328 4.5415 -1.69929 0
M  V30 2350 N 224.671 0.411399 1.52136 0
M  V30 2351 C 225.618 -0.412975 2.27075 0
M  V30 2352 C 226.588 -1.03912 1.29582 0
M  V30 2353 O 227.773 -1.06296 1.58448 0
M  V30 2354 C 224.913 -1.52247 3.09701 0
M  V30 2355 C 224.026 -0.917021 4.22155 0
M  V30 2356 C 223.161 -1.9994 4.92135 0
M  V30 2357 C 222.2 -1.37101 5.96548 0
M  V30 2358 N 221.337 -2.39364 6.60038 0
M  V30 2359 H 226.177 0.232499 2.97092 0
M  V30 2360 H 223.714 0.126496 1.46555 0
M  V30 2361 H 225.672 -2.17674 3.55913 0
M  V30 2362 H 224.302 -2.13794 2.41851 0
M  V30 2363 H 223.354 -0.151742 3.80097 0
M  V30 2364 H 224.666 -0.418006 4.97045 0
M  V30 2365 H 223.82 -2.73088 5.41763 0
M  V30 2366 H 222.559 -2.53208 4.16818 0
M  V30 2367 H 221.564 -0.624873 5.46237 0
M  V30 2368 H 222.789 -0.845998 6.7381 0
M  V30 2369 H 220.735 -2.91759 5.87548 0
M  V30 2370 H 220.652 -1.9428 7.3061 0
M  V30 2371 H 221.92 -3.12074 7.14304 0
M  V30 2372 N 226.149 -1.5696 0.141893 0
M  V30 2373 C 227.398 -1.95135 -0.510427 0
M  V30 2374 C 227.711 -1.02896 -1.66348 0
M  V30 2375 O 228.917 -1.30629 -2.38009 0
M  V30 2376 C 227.373 -3.46876 -0.959427 0
M  V30 2377 C 226.981 -4.47691 0.166419 0
M  V30 2378 C 228.725 -3.93927 -1.58183 0
M  V30 2379 C 226.632 -5.90636 -0.300565 0
M  V30 2380 H 225.562 -0.728494 -0.194454 0
M  V30 2381 H 228.213 -1.8211 0.22542 0
M  V30 2382 H 226.595 -3.55215 -1.75038 0
M  V30 2383 H 227.769 -4.51043 0.94325 0
M  V30 2384 H 226.084 -4.10527 0.696905 0
M  V30 2385 H 228.681 -4.98158 -1.94275 0
M  V30 2386 H 229.024 -3.3519 -2.46888 0
M  V30 2387 H 229.557 -3.88484 -0.855863 0
M  V30 2388 H 226.296 -6.5318 0.550989 0
M  V30 2389 H 225.816 -5.90655 -1.04338 0
M  V30 2390 H 227.495 -6.42588 -0.754265 0
M  V30 2391 N 227.627 0.131896 -1.57047 0
M  V30 2392 C 228.875 0.840269 -1.83804 0
M  V30 2393 C 229.196 1.81017 -0.72512 0
M  V30 2394 O 228.466 1.94272 0.251995 0
M  V30 2395 H 227.046 0.313294 -0.678127 0
M  V30 2396 H 229.708 0.122294 -1.94516 0
M  V30 2397 H 228.804 1.39335 -2.79271 0
M  V30 2398 N 229.106 1.52395 0.401703 0
M  V30 2399 C 230.016 1.7917 1.51444 0
M  V30 2400 C 231.032 0.677691 1.6026 0
M  V30 2401 O 232.208 0.963909 1.76835 0
M  V30 2402 C 229.273 1.94347 2.87107 0
M  V30 2403 C 228.334 3.18257 2.88116 0
M  V30 2404 C 227.567 3.32701 4.17308 0
M  V30 2405 O 227.79 2.52238 5.11598 0
M  V30 2406 O 226.724 4.25891 4.25324 0
M  V30 2407 H 230.55 2.73633 1.31752 0
M  V30 2408 H 228.135 1.3733 0.588296 0
M  V30 2409 H 230.017 2.06109 3.67555 0
M  V30 2410 H 228.692 1.03073 3.06851 0
M  V30 2411 H 227.599 3.11947 2.06494 0
M  V30 2412 H 228.932 4.09336 2.73322 0
M  V30 2413 N 230.584 -0.659388 1.43143 0
M  V30 2414 C 231.534 -1.7655 1.44271 0
M  V30 2415 C 232.518 -1.57847 0.311961 0
M  V30 2416 O 233.71 -1.68064 0.555306 0
M  V30 2417 C 230.839 -3.15104 1.36251 0
M  V30 2418 C 229.925 -3.39377 2.54331 0
M  V30 2419 N 230.316 -3.34153 3.79704 0
M  V30 2420 C 228.614 -3.70072 2.48922 0
M  V30 2421 C 229.315 -3.58337 4.58225 0
M  V30 2422 N 228.291 -3.79851 3.88863 0
M  V30 2423 H 232.093 -1.70928 2.39083 0
M  V30 2424 H 229.607 -0.860823 1.37708 0
M  V30 2425 H 231.604 -3.94389 1.35141 0
M  V30 2426 H 230.264 -3.21913 0.424531 0
M  V30 2427 H 231.275 -3.13704 4.1208 0
M  V30 2428 H 227.952 -3.84034 1.63781 0
M  V30 2429 H 229.342 -3.60129 5.67236 0
M  V30 2430 N 232.062 -1.29571 -0.897171 0
M  V30 2431 C 233.29 -1.20583 -1.68129 0
M  V30 2432 C 233.705 0.233181 -1.87354 0
M  V30 2433 O 233.062 1.15579 -1.41236 0
M  V30 2434 C 233.113 -1.91772 -3.06441 0
M  V30 2435 O 232.834 -3.30053 -2.88091 0
M  V30 2436 C 234.335 -1.89291 -4.00854 0
M  V30 2437 H 231.555 -0.417826 -0.525036 0
M  V30 2438 H 234.099 -1.70987 -1.12177 0
M  V30 2439 H 232.254 -1.45196 -3.59161 0
M  V30 2440 H 232.668 -3.65942 -3.75748 0
M  V30 2441 H 234.142 -2.43662 -4.95311 0
M  V30 2442 H 234.619 -0.869014 -4.30517 0
M  V30 2443 H 235.225 -2.35622 -3.54066 0
M  V30 2444 N 233.54 1.10788 -1.12088 0
M  V30 2445 C 234.951 1.64181 -0.88891 0
M  V30 2446 C 235.302 1.87508 0.577498 0
M  V30 2447 O 234.427 1.61434 1.44112 0
M  V30 2448 C 235.022 2.98257 -1.60712 0
M  V30 2449 C 233.581 3.4853 -1.42139 0
M  V30 2450 C 232.728 2.23208 -1.6454 0
M  V30 2451 H 235.679 0.943368 -1.27618 0
M  V30 2452 H 235.7 3.65552 -1.05604 0
M  V30 2453 H 235.212 2.81246 -2.67436 0
M  V30 2454 H 233.313 3.70692 -0.376552 0
M  V30 2455 H 233.426 4.26882 -2.17505 0
M  V30 2456 H 231.79 2.31169 -1.06925 0
M  V30 2457 H 232.573 2.08733 -2.72554 0
M  V30 2458 N 235.018 0.912232 1.28515 0
M  V30 2459 C 236.243 0.559774 1.99703 0
M  V30 2460 C 236.668 -0.851393 1.67729 0
M  V30 2461 O 236.026 -1.56875 0.908834 0
M  V30 2462 C 236.074 0.773874 3.52198 0
M  V30 2463 O 235.178 -0.167842 4.12058 0
M  V30 2464 H 234.519 0.21723 0.627461 0
M  V30 2465 H 237.049 1.22725 1.63706 0
M  V30 2466 H 237.059 0.683386 4.02236 0
M  V30 2467 H 235.734 1.80261 3.74805 0
M  V30 2468 H 234.311 -0.0287509 3.72889 0
M  V30 2469 N 236.496 -1.42363 0.676048 0
M  V30 2470 C 237.459 -2.29199 0.00766941 0
M  V30 2471 C 238.459 -1.43389 -0.727745 0
M  V30 2472 O 239.649 -1.64764 -0.56556 0
M  V30 2473 C 236.781 -3.2591 -0.999785 0
M  V30 2474 H 237.974 -2.89794 0.771988 0
M  V30 2475 H 235.527 -1.50024 0.438468 0
M  V30 2476 H 236.262 -2.70256 -1.79255 0
M  V30 2477 H 236.047 -3.89202 -0.475829 0
M  V30 2478 H 237.537 -3.91028 -1.46583 0
M  V30 2479 N 237.974 -0.419461 -1.51915 0
M  V30 2480 C 238.904 0.391813 -2.30189 0
M  V30 2481 C 239.885 1.03699 -1.34836 0
M  V30 2482 O 241.07 1.04403 -1.63748 0
M  V30 2483 C 238.2 1.50312 -3.13087 0
M  V30 2484 C 237.154 0.9824 -4.16573 0
M  V30 2485 C 236.48 2.18809 -4.8788 0
M  V30 2486 C 237.78 0.0292356 -5.22292 0
M  V30 2487 H 239.474 -0.26135 -2.98257 0
M  V30 2488 H 237.02 -0.127134 -1.43438 0
M  V30 2489 H 238.973 2.07773 -3.66617 0
M  V30 2490 H 237.697 2.18431 -2.42807 0
M  V30 2491 H 236.356 0.430119 -3.64068 0
M  V30 2492 H 236.004 2.85507 -4.14119 0
M  V30 2493 H 235.704 1.84615 -5.57845 0
M  V30 2494 H 237.228 2.76858 -5.44226 0
M  V30 2495 H 238.642 0.512976 -5.71 0
M  V30 2496 H 237.039 -0.2244 -5.9968 0
M  V30 2497 H 238.109 -0.912931 -4.76228 0
M  V30 2498 N 239.452 1.56882 -0.150215 0
M  V30 2499 C 240.415 2.1573 0.774157 0
M  V30 2500 C 241.415 1.0999 1.17298 0
M  V30 2501 O 242.605 1.35613 1.09338 0
M  V30 2502 C 239.737 2.72302 2.05096 0
M  V30 2503 H 240.93 2.98752 0.262201 0
M  V30 2504 H 238.483 1.55985 0.099248 0
M  V30 2505 H 239.218 1.92956 2.6065 0
M  V30 2506 H 239.003 3.49665 1.77416 0
M  V30 2507 H 240.493 3.17632 2.71109 0
M  V30 2508 N 240.93 -0.123565 1.57115 0
M  V30 2509 C 242.179 -0.830704 1.83799 0
M  V30 2510 C 242.492 -1.81259 0.735158 0
M  V30 2511 O 243.698 -2.56558 0.888278 0
M  V30 2512 C 242.154 -1.52802 3.25852 0
M  V30 2513 C 241.762 -0.587356 4.44133 0
M  V30 2514 C 243.506 -2.22056 3.61789 0
M  V30 2515 C 241.413 -1.28764 5.77212 0
M  V30 2516 H 240.343 -0.313967 0.685522 0
M  V30 2517 H 242.994 -0.0834359 1.8331 0
M  V30 2518 H 241.376 -2.32175 3.20797 0
M  V30 2519 H 242.55 0.172829 4.60476 0
M  V30 2520 H 240.865 -0.00201892 4.164 0
M  V30 2521 H 243.462 -2.75131 4.58483 0
M  V30 2522 H 243.805 -2.99644 2.88997 0
M  V30 2523 H 244.338 -1.49576 3.68608 0
M  V30 2524 H 241.077 -0.55314 6.53162 0
M  V30 2525 H 240.597 -2.01995 5.64764 0
M  V30 2526 H 242.276 -1.8221 6.20813 0
M  V30 2527 N 242.408 -1.52605 -0.393616 0
M  V30 2528 C 243.341 -1.71798 -1.50202 0
M  V30 2529 C 244.319 -0.565743 -1.52441 0
M  V30 2530 O 245.503 -0.794987 -1.70916 0
M  V30 2531 C 242.63 -1.7714 -2.88685 0
M  V30 2532 C 241.676 -2.98845 -3.04292 0
M  V30 2533 S 242.509 -4.58909 -2.75976 0
M  V30 2534 C 243.665 -4.6706 -4.1666 0
M  V30 2535 H 243.898 -2.65542 -1.33696 0
M  V30 2536 H 241.431 -1.42839 -0.586195 0
M  V30 2537 H 243.389 -1.80903 -3.68489 0
M  V30 2538 H 242.05 -0.844969 -3.02521 0
M  V30 2539 H 241.243 -2.99111 -4.05646 0
M  V30 2540 H 240.845 -2.9305 -2.32374 0
M  V30 2541 H 243.137 -4.45391 -5.10523 0
M  V30 2542 H 244.08 -5.6905 -4.21412 0
M  V30 2543 H 244.488 -3.95944 -4.02354 0
M  V30 2544 N 243.887 0.651787 -1.4349 0
M  V30 2545 C 244.797 1.79368 -1.5121 0
M  V30 2546 C 245.813 1.69361 -0.399093 0
M  V30 2547 O 246.989 1.90505 -0.653431 0
M  V30 2548 C 244.054 3.15653 -1.43401 0
M  V30 2549 C 243.115 3.37446 -2.65384 0
M  V30 2550 C 242.348 4.67229 -2.57939 0
M  V30 2551 O 242.571 5.46676 -1.62792 0
M  V30 2552 O 241.505 4.90773 -3.48462 0
M  V30 2553 H 245.331 1.7581 -2.47638 0
M  V30 2554 H 242.916 0.810447 -1.25507 0
M  V30 2555 H 244.798 3.96935 -1.41494 0
M  V30 2556 H 243.473 3.19798 -0.501085 0
M  V30 2557 H 242.38 2.55923 -2.72863 0
M  V30 2558 H 243.713 3.38148 -3.57654 0
M  V30 2559 N 245.365 1.30045 0.890287 0
M  V30 2560 C 246.313 1.15873 2.01683 0
M  V30 2561 C 247.307 0.0719403 1.69247 0
M  V30 2562 O 248.513 0.232414 1.78493 0
M  V30 2563 H 244.888 0.358203 0.661207 0
M  V30 2564 H 246.859 2.11229 2.10772 0
M  V30 2565 C 245.608 0.861842 3.36849 0
M  V30 2566 H 244.931 1.69016 3.62317 0
M  V30 2567 H 246.371 0.802762 4.16331 0
M  V30 2568 C 244.83 -0.435132 3.34078 0
M  V30 2569 O 245.36 -1.4583 3.74295 0
M  V30 2570 N 243.566 -0.444377 2.87182 0
M  V30 2571 H 243.113 0.388723 2.5465 0
M  V30 2572 H 243.071 -1.31213 2.85711 0
M  V30 2573 N 246.843 -1.10192 1.12674 0
M  V30 2574 C 247.806 -2.14786 0.799979 0
M  V30 2575 C 248.806 -1.59711 -0.18685 0
M  V30 2576 O 249.996 -1.74156 0.0392558 0
M  V30 2577 C 247.128 -3.40374 0.189228 0
M  V30 2578 H 248.321 -2.45203 1.72671 0
M  V30 2579 H 245.874 -1.25597 0.930326 0
M  V30 2580 H 246.609 -3.15577 -0.747107 0
M  V30 2581 H 246.394 -3.81637 0.899766 0
M  V30 2582 H 247.884 -4.17594 -0.0228143 0
M  V30 2583 N 248.321 -0.919034 -1.28029 0
M  V30 2584 C 249.269 -0.401753 -2.29104 0
M  V30 2585 C 250.263 0.509354 -1.61561 0
M  V30 2586 O 251.469 0.390014 -1.75724 0
M  V30 2587 H 247.844 -0.111331 -0.743713 0
M  V30 2588 H 249.815 -1.2672 -2.70156 0
M  V30 2589 C 248.564 0.338148 -3.46052 0
M  V30 2590 H 247.887 -0.353732 -3.98232 0
M  V30 2591 H 249.327 0.664653 -4.18758 0
M  V30 2592 C 247.786 1.54798 -2.99231 0
M  V30 2593 O 248.316 2.64696 -3.02157 0
M  V30 2594 N 246.522 1.3968 -2.54829 0
M  V30 2595 H 246.069 0.502698 -2.52647 0
M  V30 2596 H 246.027 2.20755 -2.23863 0
M  V30 2597 N 249.799 1.42003 -0.683588 0
M  V30 2598 C 251.045 2.01712 -0.209825 0
M  V30 2599 C 251.378 1.53968 1.18353 0
M  V30 2600 O 250.653 0.745661 1.79639 0
M  V30 2601 C 250.936 3.59202 -0.254197 0
M  V30 2602 C 250.789 4.17102 -1.68363 0
M  V30 2603 C 252.108 4.38344 0.392709 0
M  V30 2604 H 249.227 0.732891 -0.0777189 0
M  V30 2605 H 251.869 1.68909 -0.87004 0
M  V30 2606 H 250.019 3.87278 0.307954 0
M  V30 2607 H 251.691 3.99946 -2.29871 0
M  V30 2608 H 249.934 3.72597 -2.22157 0
M  V30 2609 H 250.605 5.26249 -1.6663 0
M  V30 2610 H 253.081 4.16011 -0.0859162 0
M  V30 2611 H 251.957 5.47901 0.331063 0
M  V30 2612 H 252.218 4.16887 1.47164 0
M  V30 2613 N 251.277 0.427512 1.51691 0
M  V30 2614 C 252.207 -0.3796 2.30394 0
M  V30 2615 C 253.188 -1.02982 1.35384 0
M  V30 2616 O 254.373 -1.03534 1.643 0
M  V30 2617 C 251.503 -1.48649 3.1388 0
M  V30 2618 C 250.457 -0.960294 4.17088 0
M  V30 2619 C 249.783 -2.16219 4.89033 0
M  V30 2620 C 251.083 -0.00153679 5.223 0
M  V30 2621 H 252.777 0.277164 2.98114 0
M  V30 2622 H 250.323 0.134739 1.43368 0
M  V30 2623 H 252.276 -2.05826 3.67714 0
M  V30 2624 H 251 -2.1714 2.43962 0
M  V30 2625 H 249.659 -0.410806 3.64291 0
M  V30 2626 H 249.307 -2.83307 4.15628 0
M  V30 2627 H 249.007 -1.81654 5.58816 0
M  V30 2628 H 250.531 -2.73968 5.45687 0
M  V30 2629 H 251.945 -0.482687 5.71264 0
M  V30 2630 H 250.342 0.256199 5.99553 0
M  V30 2631 H 251.412 0.938174 4.75738 0
M  V30 2632 N 252.755 -1.56801 0.158532 0
M  V30 2633 C 253.718 -2.16138 -0.762705 0
M  V30 2634 C 254.718 -1.1061 -1.16713 0
M  V30 2635 O 255.908 -1.36191 -1.08617 0
M  V30 2636 C 253.04 -2.73386 -2.03649 0
M  V30 2637 H 254.233 -2.98886 -0.246354 0
M  V30 2638 H 251.786 -1.56035 -0.0909744 0
M  V30 2639 H 252.521 -1.94335 -2.59623 0
M  V30 2640 H 252.306 -3.50601 -1.75559 0
M  V30 2641 H 253.796 -3.19065 -2.6942 0
M  V30 2642 N 254.233 0.115231 -1.57178 0
M  V30 2643 C 255.649 0.468877 -1.52557 0
M  V30 2644 C 255.849 1.81649 -0.872125 0
M  V30 2645 O 254.905 2.48347 -0.45606 0
M  V30 2646 C 256.218 0.4499 -2.97315 0
M  V30 2647 C 257.766 0.533185 -3.08425 0
M  V30 2648 C 258.241 0.54456 -4.54751 0
M  V30 2649 N 259.732 0.605892 -4.5922 0
M  V30 2650 C 260.467 0.636203 -5.6986 0
M  V30 2651 N 259.963 0.623931 -6.89985 0
M  V30 2652 N 261.756 0.679496 -5.57978 0
M  V30 2653 H 253.907 -0.767712 -1.9804 0
M  V30 2654 H 256.17 -0.283609 -0.904583 0
M  V30 2655 H 255.876 -0.472721 -3.48509 0
M  V30 2656 H 255.75 1.27632 -3.5495 0
M  V30 2657 H 258.137 1.44623 -2.57232 0
M  V30 2658 H 258.218 -0.320995 -2.53778 0
M  V30 2659 H 257.862 -0.364452 -5.06591 0
M  V30 2660 H 257.792 1.41568 -5.07214 0
M  V30 2661 H 260.283 0.621386 -3.72756 0
M  V30 2662 H 260.596 0.649787 -7.70063 0
M  V30 2663 H 258.941 0.591296 -6.9248 0
M  V30 2664 H 262.132 0.686472 -4.63039 0
M  V30 2665 H 262.305 0.69965 -6.44212 0
M  V30 2666 N 255.711 1.52812 0.385517 0
M  V30 2667 C 256.941 1.71658 1.14966 0
M  V30 2668 C 257.349 0.436253 1.84102 0
M  V30 2669 O 256.692 -0.599313 1.73649 0
M  V30 2670 C 256.754 2.81309 2.23843 0
M  V30 2671 C 256.418 4.22313 1.74644 0
M  V30 2672 C 257.415 5.05352 1.22129 0
M  V30 2673 C 255.1 4.68648 1.80761 0
M  V30 2674 C 257.094 6.32807 0.763838 0
M  V30 2675 C 254.781 5.96086 1.34627 0
M  V30 2676 C 255.779 6.77996 0.825264 0
M  V30 2677 O 255.467 8.03045 0.370669 0
M  V30 2678 H 255.199 0.578022 0.350523 0
M  V30 2679 H 257.753 2.00263 0.456509 0
M  V30 2680 H 255.983 2.48133 2.96592 0
M  V30 2681 H 257.672 2.88524 2.85497 0
M  V30 2682 H 258.438 4.70736 1.16758 0
M  V30 2683 H 254.317 4.04979 2.20256 0
M  V30 2684 H 257.861 6.96689 0.356494 0
M  V30 2685 H 253.758 6.30205 1.39686 0
M  V30 2686 H 254.526 8.17021 0.491829 0
M  V30 2687 N 257.189 -0.644168 1.43834 0
M  V30 2688 C 258.152 -1.73857 1.49353 0
M  V30 2689 C 259.152 -1.56315 0.377112 0
M  V30 2690 O 260.342 -1.62048 0.639226 0
M  V30 2691 C 257.474 -3.12819 1.35488 0
M  V30 2692 H 258.667 -1.70342 2.46827 0
M  V30 2693 H 256.22 -0.856652 1.30733 0
M  V30 2694 H 256.955 -3.2194 0.390569 0
M  V30 2695 H 256.74 -3.26958 2.16428 0
M  V30 2696 H 258.23 -3.92606 1.42302 0
M  V30 2697 N 258.668 -1.30515 -0.883378 0
M  V30 2698 C 259.893 -1.22487 -1.67367 0
M  V30 2699 C 260.318 0.208767 -1.86938 0
M  V30 2700 O 259.676 1.15015 -1.40148 0
M  V30 2701 C 259.724 -1.96041 -3.02655 0
M  V30 2702 O 258.828 -1.28859 -3.91751 0
M  V30 2703 H 258.169 -0.423573 -0.511353 0
M  V30 2704 H 260.699 -1.72362 -1.10239 0
M  V30 2705 H 260.709 -2.05124 -3.52687 0
M  V30 2706 H 259.384 -3.00307 -2.8773 0
M  V30 2707 H 257.961 -1.28141 -3.50192 0
M  V30 2708 N 260.146 1.09593 -1.13257 0
M  V30 2709 C 261.395 1.81105 -0.887917 0
M  V30 2710 C 261.708 1.86563 0.587672 0
M  V30 2711 O 262.914 2.54367 0.949204 0
M  V30 2712 C 261.37 3.25338 -1.53895 0
M  V30 2713 C 260.978 3.28151 -3.04994 0
M  V30 2714 C 262.722 4.01617 -1.37492 0
M  V30 2715 C 260.629 4.66897 -3.6299 0
M  V30 2716 H 259.559 0.678661 -0.328534 0
M  V30 2717 H 262.21 1.23183 -1.36008 0
M  V30 2718 H 260.592 3.8331 -0.994446 0
M  V30 2719 H 261.766 2.79953 -3.66009 0
M  V30 2720 H 260.081 2.65361 -3.20893 0
M  V30 2721 H 262.678 5.04119 -1.78235 0
M  V30 2722 H 263.021 4.15072 -0.31957 0
M  V30 2723 H 263.554 3.50082 -1.88912 0
M  V30 2724 H 260.293 4.58643 -4.68323 0
M  V30 2725 H 259.813 5.15426 -3.06752 0
M  V30 2726 H 261.492 5.3587 -3.62563 0
M  V30 2727 N 261.624 0.925811 1.2754 0
M  V30 2728 C 262.864 0.572521 1.96218 0
M  V30 2729 C 263.228 -0.869719 1.71172 0
M  V30 2730 O 264.429 -1.33119 2.33523 0
M  V30 2731 C 262.7 0.887325 3.4621 0
M  V30 2732 S 264.259 0.642266 4.34074 0
M  V30 2733 H 261.077 0.211403 0.678845 0
M  V30 2734 H 263.679 1.19384 1.54815 0
M  V30 2735 H 262.383 1.93469 3.61936 0
M  V30 2736 H 261.914 0.255123 3.92572 0
M  V30 2737 H 263.929 -0.500822 4.93666 0
M  V30 2738 N 263.102 -1.41638 0.69111 0
M  V30 2739 C 264.034 -2.29194 -0.0161523 0
M  V30 2740 C 265.047 -1.44549 -0.748955 0
M  V30 2741 O 266.236 -1.681 -0.6004 0
M  V30 2742 C 263.336 -3.22325 -1.0469 0
M  V30 2743 C 262.509 -4.35706 -0.384621 0
M  V30 2744 C 261.568 -5.09443 -1.31737 0
M  V30 2745 O 260.594 -5.63386 -0.811451 0
M  V30 2746 N 261.796 -5.16487 -2.64993 0
M  V30 2747 H 264.561 -2.90534 0.735523 0
M  V30 2748 H 262.122 -1.52742 0.53679 0
M  V30 2749 H 264.114 -3.68522 -1.67252 0
M  V30 2750 H 262.684 -2.62323 -1.70015 0
M  V30 2751 H 261.904 -3.91948 0.420804 0
M  V30 2752 H 263.192 -5.08743 0.0760765 0
M  V30 2753 H 262.59 -4.741 -3.08619 0
M  V30 2754 H 261.147 -5.66276 -3.22761 0
M  V30 2755 N 264.58 -0.43555 -1.51462 0
M  V30 2756 C 265.512 0.41257 -2.25456 0
M  V30 2757 C 266.525 0.987822 -1.29406 0
M  V30 2758 O 267.714 0.882266 -1.55172 0
M  V30 2759 C 264.814 1.58894 -2.99342 0
M  V30 2760 C 263.987 1.13288 -4.22474 0
M  V30 2761 C 263.046 2.17917 -4.78956 0
M  V30 2762 O 262.072 1.77425 -5.40841 0
M  V30 2763 N 263.274 3.50382 -4.62832 0
M  V30 2764 H 266.039 -0.221603 -2.9888 0
M  V30 2765 H 263.6 -0.264342 -1.59727 0
M  V30 2766 H 265.592 2.28508 -3.34015 0
M  V30 2767 H 264.162 2.12849 -2.28941 0
M  V30 2768 H 263.382 0.263881 -3.93316 0
M  V30 2769 H 264.67 0.805542 -5.02383 0
M  V30 2770 H 264.068 3.86013 -4.13534 0
M  V30 2771 H 262.625 4.15895 -5.01871 0
M  V30 2772 N 266.058 1.56714 -0.166846 0
M  V30 2773 C 267.006 2.19056 0.782123 0
M  V30 2774 C 268 1.15328 1.24079 0
M  V30 2775 O 269.206 1.33537 1.20697 0
M  V30 2776 H 265.581 0.70167 0.270486 0
M  V30 2777 H 267.552 2.97494 0.232322 0
M  V30 2778 C 266.301 2.84206 2.00306 0
M  V30 2779 H 265.624 3.63748 1.65914 0
M  V30 2780 H 267.064 3.31302 2.64604 0
M  V30 2781 C 265.523 1.83744 2.82382 0
M  V30 2782 O 266.053 1.32014 3.79388 0
M  V30 2783 N 264.259 1.52601 2.47308 0
M  V30 2784 H 263.806 1.9486 1.68485 0
M  V30 2785 H 263.764 0.856351 3.02513 0
M  V30 2786 N 267.536 -0.106894 1.57237 0
M  V30 2787 C 268.784 -0.810921 1.85117 0
M  V30 2788 C 269.105 -1.7984 0.753827 0
M  V30 2789 O 268.375 -1.94649 -0.221056 0
M  V30 2790 H 266.955 -0.302466 0.683025 0
M  V30 2791 H 269.617 -0.0913324 1.94686 0
M  V30 2792 H 268.713 -1.34875 2.81452 0
M  V30 2793 N 269.014 -1.53014 -0.377408 0
M  V30 2794 C 270.263 -1.67845 -1.11853 0
M  V30 2795 C 270.576 -0.430625 -1.90801 0
M  V30 2796 O 271.782 -0.459261 -2.67587 0
M  V30 2797 C 270.238 -2.96668 -2.03756 0
M  V30 2798 C 269.846 -4.28671 -1.30175 0
M  V30 2799 C 271.59 -3.20865 -2.77932 0
M  V30 2800 C 269.497 -5.48591 -2.20911 0
M  V30 2801 H 268.427 -0.625343 -0.421263 0
M  V30 2802 H 271.078 -1.79514 -0.380409 0
M  V30 2803 H 269.46 -2.78773 -2.8125 0
M  V30 2804 H 270.634 -4.57157 -0.578259 0
M  V30 2805 H 268.949 -4.10825 -0.679108 0
M  V30 2806 H 271.546 -4.07642 -3.46024 0
M  V30 2807 H 271.889 -2.36424 -3.4265 0
M  V30 2808 H 272.422 -3.39379 -2.07525 0
M  V30 2809 H 269.161 -6.35474 -1.6079 0
M  V30 2810 H 268.681 -5.244 -2.91144 0
M  V30 2811 H 270.36 -5.8292 -2.80736 0
M  V30 2812 N 270.492 0.636531 -1.44174 0
M  V30 2813 C 271.738 1.39826 -1.4689 0
M  V30 2814 C 272.071 1.93947 -0.0990585 0
M  V30 2815 O 271.346 1.73325 0.882544 0
M  V30 2816 C 271.629 2.56751 -2.5249 0
M  V30 2817 C 271.482 2.08014 -3.98811 0
M  V30 2818 C 272.801 3.58946 -2.54649 0
M  V30 2819 H 269.92 0.507075 -0.53483 0
M  V30 2820 H 272.562 0.720188 -1.75822 0
M  V30 2821 H 270.712 3.14597 -2.2795 0
M  V30 2822 H 272.384 1.5504 -4.34466 0
M  V30 2823 H 270.627 1.39242 -4.10846 0
M  V30 2824 H 271.298 2.92169 -4.68339 0
M  V30 2825 H 273.774 3.1089 -2.76563 0
M  V30 2826 H 272.65 4.38286 -3.3045 0
M  V30 2827 H 272.911 4.12655 -1.58646 0
M  V30 2828 N 271.97 1.30982 0.876444 0
M  V30 2829 C 273.381 1.18277 1.44456 0
M  V30 2830 C 273.732 -0.213265 1.95037 0
M  V30 2831 O 272.857 -1.11057 1.85729 0
M  V30 2832 C 273.452 2.1411 2.62569 0
M  V30 2833 C 272.011 2.05358 3.15444 0
M  V30 2834 C 271.158 2.03706 1.88146 0
M  V30 2835 H 274.109 1.43127 0.685584 0
M  V30 2836 H 274.13 1.72692 3.39054 0
M  V30 2837 H 273.642 3.15706 2.25724 0
M  V30 2838 H 271.743 1.06934 3.56926 0
M  V30 2839 H 271.856 2.94156 3.78166 0
M  V30 2840 H 270.22 1.48629 2.06837 0
M  V30 2841 H 271.003 3.07047 1.53547 0
M  V30 2842 N 273.449 -1.08991 1.13837 0
M  V30 2843 C 274.698 -1.80631 0.897509 0
M  V30 2844 C 275.011 -1.86872 -0.57777 0
M  V30 2845 O 276.217 -2.54866 -0.935701 0
M  V30 2846 C 274.673 -3.24517 1.55618 0
M  V30 2847 C 274.281 -3.26529 3.0673 0
M  V30 2848 C 276.025 -4.00882 1.3962 0
M  V30 2849 C 273.932 -4.64965 3.65461 0
M  V30 2850 H 272.862 -0.67691 0.332129 0
M  V30 2851 H 275.513 -1.2246 1.3666 0
M  V30 2852 H 273.895 -3.82778 1.01476 0
M  V30 2853 H 275.069 -2.78008 3.67489 0
M  V30 2854 H 273.384 -2.63656 3.22296 0
M  V30 2855 H 275.981 -5.03167 1.80906 0
M  V30 2856 H 276.324 -4.14896 0.341578 0
M  V30 2857 H 276.857 -3.49075 1.90766 0
M  V30 2858 H 273.596 -4.56153 4.70749 0
M  V30 2859 H 273.116 -5.13792 3.09481 0
M  V30 2860 H 274.795 -5.3394 3.654 0
M  V30 2861 N 274.927 -0.932562 -1.27047 0
M  V30 2862 C 276.173 -0.576412 -1.94436 0
M  V30 2863 C 276.506 0.880891 -1.73072 0
M  V30 2864 O 275.781 1.62905 -1.06264 0
M  V30 2865 C 276.064 -0.909031 -3.48437 0
M  V30 2866 C 275.917 -2.42044 -3.79123 0
M  V30 2867 C 277.236 -0.418341 -4.38107 0
M  V30 2868 H 274.355 -0.210888 -0.706184 0
M  V30 2869 H 276.997 -1.16522 -1.50075 0
M  V30 2870 H 275.147 -0.407947 -3.86352 0
M  V30 2871 H 276.819 -2.99359 -3.50973 0
M  V30 2872 H 275.062 -2.86758 -3.25503 0
M  V30 2873 H 275.733 -2.6037 -4.86736 0
M  V30 2874 H 278.209 -0.847856 -4.0737 0
M  V30 2875 H 277.085 -0.679981 -5.44672 0
M  V30 2876 H 277.346 0.681642 -4.36814 0
M  V30 2877 N 276.405 1.4127 -0.698611 0
M  V30 2878 C 277.315 2.34573 -0.0357891 0
M  V30 2879 C 278.331 1.56393 0.762701 0
M  V30 2880 O 279.507 1.8886 0.699564 0
M  V30 2881 C 276.572 3.35159 0.887089 0
M  V30 2882 C 275.633 4.29225 0.0804634 0
M  V30 2883 C 274.866 5.25006 0.959387 0
M  V30 2884 O 275.089 5.26314 2.19886 0
M  V30 2885 O 274.023 6.00519 0.407439 0
M  V30 2886 H 277.849 2.92838 -0.804957 0
M  V30 2887 H 275.434 1.42175 -0.458966 0
M  V30 2888 H 277.316 3.9689 1.41621 0
M  V30 2889 H 275.991 2.79333 1.6357 0
M  V30 2890 H 274.898 3.70833 -0.493328 0
M  V30 2891 H 276.231 4.88157 -0.629547 0
M  V30 2892 N 277.883 0.443576 1.51229 0
M  V30 2893 C 279.294 -0.0180867 1.86691 0
M  V30 2894 C 279.645 -1.41384 1.36033 0
M  V30 2895 O 278.77 -2.04291 0.713722 0
M  V30 2896 C 279.365 -0.039597 3.38777 0
M  V30 2897 C 277.924 -0.445692 3.73752 0
M  V30 2898 C 277.071 0.357584 2.74985 0
M  V30 2899 H 280.022 0.659138 1.44364 0
M  V30 2900 H 280.043 -0.847761 3.70936 0
M  V30 2901 H 279.555 0.976382 3.75617 0
M  V30 2902 H 277.656 -1.46704 3.42503 0
M  V30 2903 H 277.769 -0.166155 4.78812 0
M  V30 2904 H 276.133 -0.184973 2.54027 0
M  V30 2905 H 276.916 1.37256 3.14668 0
M  V30 2906 N 279.361 -1.56624 0.175154 0
M  V30 2907 C 280.271 -2.21741 -0.766042 0
M  V30 2908 C 281.287 -1.21023 -1.25018 0
M  V30 2909 O 282.463 -1.53697 -1.3015 0
M  V30 2910 C 279.528 -2.84839 -1.97655 0
M  V30 2911 C 278.589 -4.00769 -1.53892 0
M  V30 2912 C 277.822 -4.60849 -2.69173 0
M  V30 2913 O 278.045 -4.19823 -3.86141 0
M  V30 2914 O 276.979 -5.50655 -2.43028 0
M  V30 2915 H 280.805 -3.02738 -0.241585 0
M  V30 2916 H 278.39 -1.49305 -0.053222 0
M  V30 2917 H 280.272 -3.24834 -2.68442 0
M  V30 2918 H 278.947 -2.06836 -2.48999 0
M  V30 2919 H 277.854 -3.65436 -0.80044 0
M  V30 2920 H 279.187 -4.80376 -1.07236 0
M  V30 2921 N 280.839 0.0985539 -1.57292 0
M  V30 2922 C 282.088 0.801358 -1.85098 0
M  V30 2923 C 282.401 1.80066 -0.763902 0
M  V30 2924 O 283.607 2.55112 -0.928981 0
M  V30 2925 C 282.063 1.47599 -3.28242 0
M  V30 2926 C 281.671 0.516624 -4.45011 0
M  V30 2927 C 283.415 2.16272 -3.65276 0
M  V30 2928 C 281.322 1.19564 -5.79188 0
M  V30 2929 H 280.252 0.303022 -0.69043 0
M  V30 2930 H 282.903 0.0542623 -1.8342 0
M  V30 2931 H 281.285 2.27042 -3.2445 0
M  V30 2932 H 282.459 -0.246065 -4.60143 0
M  V30 2933 H 280.774 -0.064227 -4.1635 0
M  V30 2934 H 283.371 2.67802 -4.62803 0
M  V30 2935 H 283.714 2.95009 -2.93727 0
M  V30 2936 H 284.247 1.43693 -3.70941 0
M  V30 2937 H 280.986 0.449157 -6.53959 0
M  V30 2938 H 280.506 1.92984 -5.67906 0
M  V30 2939 H 282.185 1.7231 -6.23633 0
M  V30 2940 N 282.317 1.53212 0.369288 0
M  V30 2941 C 283.247 1.82365 1.45826 0
M  V30 2942 C 284.228 0.676907 1.56051 0
M  V30 2943 O 285.413 0.926401 1.70679 0
M  V30 2944 C 282.543 2.01023 2.83208 0
M  V30 2945 C 281.497 3.1678 2.8781 0
M  V30 2946 C 280.823 3.20724 4.27832 0
M  V30 2947 C 282.123 4.55447 2.55667 0
M  V30 2948 H 283.817 2.73559 1.21678 0
M  V30 2949 H 281.363 1.3163 0.583911 0
M  V30 2950 H 283.316 2.20001 3.59413 0
M  V30 2951 H 282.04 1.06536 3.08736 0
M  V30 2952 H 280.699 2.97616 2.14056 0
M  V30 2953 H 280.347 2.23882 4.50429 0
M  V30 2954 H 280.047 3.98496 4.31827 0
M  V30 2955 H 281.571 3.41881 5.05915 0
M  V30 2956 H 282.985 4.74611 3.21586 0
M  V30 2957 H 281.382 5.35432 2.70984 0
M  V30 2958 H 282.452 4.60812 1.5093 0
M  V30 2959 N 283.795 -0.628877 1.44509 0
M  V30 2960 C 285.206 -1.21054 1.42137 0
M  V30 2961 C 285.557 -1.95715 0.137881 0
M  V30 2962 O 284.682 -2.02554 -0.761645 0
M  V30 2963 C 285.277 -2.20189 2.57493 0
M  V30 2964 C 283.836 -2.73777 2.58308 0
M  V30 2965 C 282.983 -1.48813 2.33987 0
M  V30 2966 H 285.934 -0.41942 1.53057 0
M  V30 2967 H 285.955 -3.02833 2.30375 0
M  V30 2968 H 285.467 -1.6582 3.50892 0
M  V30 2969 H 283.568 -3.32142 1.68856 0
M  V30 2970 H 283.681 -3.19662 3.56865 0
M  V30 2971 H 282.045 -1.77024 1.83124 0
M  V30 2972 H 282.828 -0.963442 3.29504 0
M  V30 2973 N 285.273 -1.31445 -0.869486 0
M  V30 2974 C 286.55 -1.11795 -1.60503 0
M  V30 2975 C 286.93 0.327168 -2.08549 0
M  V30 2976 O 286.278 1.32135 -1.8642 0
M  V30 2977 C 286.488 -2.13258 -2.76265 0
M  V30 2978 C 287.836 -2.45805 -3.46215 0
M  V30 2979 O 288.86 -2.11688 -2.86473 0
M  V30 2980 O 287.719 -3.04228 -4.5399 0
M  V30 2981 H 284.813 -0.430421 -0.706163 0
M  V30 2982 H 287.359 -1.42925 -0.914907 0
M  V30 2983 H 286.131 -3.10461 -2.3818 0
M  V30 2984 H 285.754 -1.83035 -3.52964 0
M  V30 2985 N 286.751 1.08385 -1.14413 0
M  V30 2986 C 287.999 1.80419 -0.910679 0
M  V30 2987 C 288.32 1.86658 0.564243 0
M  V30 2988 O 287.59 1.35985 1.41014 0
M  V30 2989 H 286.17 0.668204 -0.333934 0
M  V30 2990 H 288.832 1.31037 -1.44275 0
M  V30 2991 H 287.928 2.83238 -1.31082 0
M  V30 2992 N 288.23 0.939286 1.26551 0
M  V30 2993 C 289.507 0.5038 1.89001 0
M  V30 2994 C 289.887 -1.01854 1.84903 0
M  V30 2995 O 289.235 -1.87773 1.30206 0
M  V30 2996 C 289.445 1.063 3.32417 0
M  V30 2997 C 290.793 1.13051 4.09273 0
M  V30 2998 O 291.817 1.01345 3.41479 0
M  V30 2999 O 290.676 1.31233 5.30509 0
M  V30 3000 H 287.77 0.163897 0.810597 0
M  V30 3001 H 290.316 1.03173 1.34735 0
M  V30 3002 H 289.088 2.10665 3.29752 0
M  V30 3003 H 288.711 0.517408 3.94219 0
M  V30 3004 N 289.708 -1.40897 0.706093 0
M  V30 3005 C 290.658 -2.27987 0.0240746 0
M  V30 3006 C 291.642 -1.42759 -0.742204 0
M  V30 3007 O 292.834 -1.65936 -0.615966 0
M  V30 3008 C 289.963 -3.31186 -0.903907 0
M  V30 3009 C 289.049 -4.2389 -0.133318 0
M  V30 3010 N 289.44 -4.98113 0.878444 0
M  V30 3011 C 287.738 -4.44485 -0.367269 0
M  V30 3012 C 288.439 -5.6604 1.34064 0
M  V30 3013 N 287.415 -5.39522 0.664565 0
M  V30 3014 H 291.217 -2.82812 0.799658 0
M  V30 3015 H 288.731 -1.53235 0.537845 0
M  V30 3016 H 290.728 -3.92413 -1.40775 0
M  V30 3017 H 289.388 -2.77922 -1.67897 0
M  V30 3018 H 290.399 -5.02364 1.25901 0
M  V30 3019 H 287.076 -4.02213 -1.1194 0
M  V30 3020 H 288.466 -6.35524 2.1808 0
M  V30 3021 N 291.186 -0.45159 -1.50991 0
M  V30 3022 C 292.463 0.170707 -1.94854 0
M  V30 3023 C 292.843 1.58788 -1.39103 0
M  V30 3024 O 292.191 2.20913 -0.583921 0
M  V30 3025 C 292.401 0.133929 -3.48743 0
M  V30 3026 C 293.749 0.33248 -4.23296 0
M  V30 3027 O 294.773 0.211403 -3.55572 0
M  V30 3028 O 293.632 0.57486 -5.43468 0
M  V30 3029 H 290.726 0.122264 -0.817912 0
M  V30 3030 H 293.272 -0.510594 -1.61836 0
M  V30 3031 H 292.044 -0.856283 -3.81816 0
M  V30 3032 H 291.667 0.857529 -3.88242 0
M  V30 3033 N 292.664 1.56529 -0.183458 0
M  V30 3034 C 293.594 2.21549 0.737456 0
M  V30 3035 C 294.575 1.17489 1.23005 0
M  V30 3036 O 295.76 1.45959 1.281 0
M  V30 3037 C 292.89 2.86575 1.96194 0
M  V30 3038 C 291.844 3.96778 1.60473 0
M  V30 3039 C 291.17 4.48911 2.90487 0
M  V30 3040 C 292.47 5.15767 0.823497 0
M  V30 3041 H 294.164 2.98761 0.195453 0
M  V30 3042 H 291.71 1.43702 0.0925686 0
M  V30 3043 H 293.663 3.30739 2.61131 0
M  V30 3044 H 292.387 2.06749 2.52828 0
M  V30 3045 H 291.046 3.53286 0.978997 0
M  V30 3046 H 290.694 3.65862 3.45186 0
M  V30 3047 H 290.394 5.23265 2.67335 0
M  V30 3048 H 291.918 4.95771 3.56432 0
M  V30 3049 H 293.332 5.56549 1.37571 0
M  V30 3050 H 291.729 5.96114 0.690551 0
M  V30 3051 H 292.799 4.84574 -0.177782 0
M  V30 3052 N 294.142 -0.090211 1.57342 0
M  V30 3053 C 295.089 -1.10909 2.02405 0
M  V30 3054 C 296.059 -1.39523 0.901252 0
M  V30 3055 O 297.244 -1.50903 1.1676 0
M  V30 3056 C 294.384 -2.42277 2.45755 0
M  V30 3057 C 293.497 -2.20352 3.71576 0
M  V30 3058 C 292.632 -3.45154 4.03785 0
M  V30 3059 C 291.671 -3.18512 5.22701 0
M  V30 3060 N 290.808 -4.35593 5.50639 0
M  V30 3061 H 295.648 -0.71782 2.89225 0
M  V30 3062 H 293.185 -0.342901 1.43048 0
M  V30 3063 H 295.143 -3.18951 2.68935 0
M  V30 3064 H 293.773 -2.79242 1.61938 0
M  V30 3065 H 292.825 -1.34458 3.55844 0
M  V30 3066 H 294.137 -1.96661 4.58395 0
M  V30 3067 H 293.291 -4.30233 4.27767 0
M  V30 3068 H 292.03 -3.71904 3.15498 0
M  V30 3069 H 291.035 -2.31827 4.98534 0
M  V30 3070 H 292.26 -2.93103 6.12591 0
M  V30 3071 H 290.206 -4.6241 4.6531 0
M  V30 3072 H 290.123 -4.1511 6.31838 0
M  V30 3073 H 291.391 -5.21723 5.7916 0
M  V30 3074 N 295.62 -1.53406 -0.361157 0
M  V30 3075 C 297.036 -1.43277 -0.703124 0
M  V30 3076 C 297.236 -0.575384 -1.9311 0
M  V30 3077 O 296.292 -0.0595362 -2.5243 0
M  V30 3078 C 297.605 -2.8653 -0.9122 0
M  V30 3079 C 299.153 -2.96191 -1.01193 0
M  V30 3080 C 299.628 -4.40514 -1.25345 0
M  V30 3081 N 301.119 -4.43962 -1.32105 0
M  V30 3082 C 301.854 -5.52746 -1.5251 0
M  V30 3083 N 301.35 -6.71567 -1.70203 0
M  V30 3084 N 303.143 -5.40331 -1.54916 0
M  V30 3085 H 295.294 -2.07654 0.446475 0
M  V30 3086 H 297.557 -0.937944 0.137715 0
M  V30 3087 H 297.263 -3.51605 -0.0816414 0
M  V30 3088 H 297.137 -3.30441 -1.81903 0
M  V30 3089 H 299.524 -2.31266 -1.83303 0
M  V30 3090 H 299.605 -2.55667 -0.0823929 0
M  V30 3091 H 299.249 -5.06014 -0.437346 0
M  V30 3092 H 299.179 -4.78614 -2.19627 0
M  V30 3093 H 301.67 -3.58332 -1.20028 0
M  V30 3094 H 301.983 -7.50241 -1.85359 0
M  V30 3095 H 300.328 -6.74545 -1.67373 0
M  V30 3096 H 303.519 -4.46465 -1.40663 0
M  V30 3097 H 303.692 -6.25173 -1.70477 0
M  V30 3098 N 297.098 0.621204 -1.44841 0
M  V30 3099 C 298.338 1.39201 -1.49674 0
M  V30 3100 C 298.702 1.91561 -0.129764 0
M  V30 3101 O 299.903 2.68748 -0.0527814 0
M  V30 3102 C 298.174 2.519 -2.53537 0
M  V30 3103 S 299.733 3.39916 -2.77494 0
M  V30 3104 H 296.551 0.474758 -0.529269 0
M  V30 3105 H 299.153 0.718171 -1.81831 0
M  V30 3106 H 297.857 2.11761 -3.51547 0
M  V30 3107 H 297.388 3.241 -2.22986 0
M  V30 3108 H 299.403 4.49646 -2.0984 0
M  V30 3109 N 298.576 1.31904 0.862503 0
M  V30 3110 C 299.508 1.16005 1.97675 0
M  V30 3111 C 300.521 0.0971234 1.6251 0
M  V30 3112 O 301.71 0.345337 1.75128 0
M  V30 3113 C 298.81 0.751791 3.30456 0
M  V30 3114 C 297.983 1.90133 3.93914 0
M  V30 3115 C 297.042 1.4779 5.05019 0
M  V30 3116 O 296.068 2.18872 5.25437 0
M  V30 3117 N 297.27 0.369491 5.79323 0
M  V30 3118 H 300.035 2.11982 2.11857 0
M  V30 3119 H 297.596 1.24337 1.03691 0
M  V30 3120 H 299.588 0.451084 4.02178 0
M  V30 3121 H 298.158 -0.116593 3.12382 0
M  V30 3122 H 297.378 2.36896 3.15078 0
M  V30 3123 H 298.666 2.67111 4.33047 0
M  V30 3124 H 298.064 -0.222299 5.65263 0
M  V30 3125 H 296.621 0.128354 6.51674 0
M  V30 3126 N 300.054 -1.07777 1.14986 0
M  V30 3127 C 301.284 -1.83752 0.944402 0
M  V30 3128 C 301.692 -1.8218 -0.51058 0
M  V30 3129 O 301.035 -1.22852 -1.36576 0
M  V30 3130 C 301.097 -3.32128 1.37592 0
M  V30 3131 C 300.761 -3.57425 2.84775 0
M  V30 3132 C 301.758 -3.5173 3.8286 0
M  V30 3133 C 299.443 -3.8523 3.2234 0
M  V30 3134 C 301.437 -3.73482 5.16517 0
M  V30 3135 C 299.124 -4.06634 4.56171 0
M  V30 3136 C 300.122 -4.00754 5.53069 0
M  V30 3137 O 299.81 -4.2159 6.84483 0
M  V30 3138 H 299.542 -0.58673 0.335744 0
M  V30 3139 H 302.096 -1.36982 1.53052 0
M  V30 3140 H 300.326 -3.79686 0.733165 0
M  V30 3141 H 302.015 -3.89555 1.14024 0
M  V30 3142 H 302.781 -3.30256 3.55184 0
M  V30 3143 H 298.66 -3.88923 2.47508 0
M  V30 3144 H 302.204 -3.68808 5.92137 0
M  V30 3145 H 298.101 -4.27593 4.83564 0
M  V30 3146 H 298.869 -4.38961 6.90837 0
M  V30 3147 N 301.532 -0.945985 -1.26051 0
M  V30 3148 C 302.778 -0.597002 -1.93814 0
M  V30 3149 C 303.111 0.862484 -1.73997 0
M  V30 3150 O 302.386 1.61769 -1.07986 0
M  V30 3151 C 302.669 -0.945937 -3.47454 0
M  V30 3152 C 302.522 -2.46052 -3.76535 0
M  V30 3153 C 303.841 -0.464785 -4.37639 0
M  V30 3154 H 300.96 -0.218366 -0.703907 0
M  V30 3155 H 303.602 -1.18107 -1.48831 0
M  V30 3156 H 301.752 -0.448902 -3.85898 0
M  V30 3157 H 303.424 -3.03065 -3.47778 0
M  V30 3158 H 301.667 -2.90194 -3.22444 0
M  V30 3159 H 302.338 -2.65517 -4.83947 0
M  V30 3160 H 304.814 -0.891016 -4.06448 0
M  V30 3161 H 303.69 -0.737712 -5.4392 0
M  V30 3162 H 303.951 0.635274 -4.37512 0
M  V30 3163 N 303.011 1.40521 -0.713556 0
M  V30 3164 C 304.239 2.05237 -0.261775 0
M  V30 3165 C 304.654 1.53755 1.09567 0
M  V30 3166 O 304.011 0.693268 1.6882 0
M  V30 3167 C 304.062 3.60763 -0.230706 0
M  V30 3168 O 303.783 4.10345 -1.53455 0
M  V30 3169 C 305.284 4.42651 0.239874 0
M  V30 3170 H 302.504 0.660533 -0.118057 0
M  V30 3171 H 305.048 1.79967 -0.971192 0
M  V30 3172 H 303.203 3.8501 0.429661 0
M  V30 3173 H 303.617 5.04526 -1.43366 0
M  V30 3174 H 305.091 5.51599 0.210468 0
M  V30 3175 H 305.568 4.20082 1.28171 0
M  V30 3176 H 306.174 4.23507 -0.390142 0
M  V30 3177 N 304.489 0.459591 1.5075 0
M  V30 3178 C 305.399 -0.34613 2.32033 0
M  V30 3179 C 306.415 -1.00686 1.41909 0
M  V30 3180 O 307.591 -0.997361 1.7497 0
M  V30 3181 C 304.656 -1.42029 3.16273 0
M  V30 3182 C 303.717 -0.777362 4.22203 0
M  V30 3183 C 302.95 -1.80034 5.02418 0
M  V30 3184 O 303.173 -3.02544 4.83553 0
M  V30 3185 O 302.107 -1.37853 5.85901 0
M  V30 3186 H 305.933 0.318054 3.0203 0
M  V30 3187 H 303.518 0.221663 1.47746 0
M  V30 3188 H 305.4 -2.04275 3.68578 0
M  V30 3189 H 304.075 -2.06815 2.49016 0
M  V30 3190 H 302.982 -0.116256 3.73919 0
M  V30 3191 H 304.315 -0.172634 4.91897 0
M  V30 3192 N 305.967 -1.56429 0.191757 0
M  V30 3193 C 306.914 -2.18936 -0.730454 0
M  V30 3194 C 307.884 -1.13557 -1.21219 0
M  V30 3195 O 309.069 -1.41794 -1.27668 0
M  V30 3196 C 306.209 -2.85013 -1.9458 0
M  V30 3197 C 305.322 -4.04909 -1.50574 0
M  V30 3198 C 304.457 -4.58853 -2.67634 0
M  V30 3199 C 303.496 -5.71114 -2.20217 0
M  V30 3200 N 302.633 -6.19478 -3.30442 0
M  V30 3201 H 307.473 -2.97389 -0.190664 0
M  V30 3202 H 305.01 -1.46869 -0.0823694 0
M  V30 3203 H 306.968 -3.21492 -2.65893 0
M  V30 3204 H 305.598 -2.09129 -2.45896 0
M  V30 3205 H 304.65 -3.74115 -0.688605 0
M  V30 3206 H 305.962 -4.86113 -1.11784 0
M  V30 3207 H 305.116 -4.97619 -3.47074 0
M  V30 3208 H 303.855 -3.76749 -3.09696 0
M  V30 3209 H 302.86 -5.31879 -1.3923 0
M  V30 3210 H 304.085 -6.55033 -1.79189 0
M  V30 3211 H 302.031 -5.40297 -3.72041 0
M  V30 3212 H 301.948 -6.95725 -2.9581 0
M  V30 3213 H 303.216 -6.62898 -4.10106 0
M  V30 3214 N 307.445 0.0818655 -1.57387 0
M  V30 3215 C 308.691 0.784074 -1.8703 0
M  V30 3216 C 309.024 1.77729 -0.782689 0
M  V30 3217 O 308.299 1.93384 0.208051 0
M  V30 3218 C 308.582 1.50105 -3.27323 0
M  V30 3219 C 308.435 0.524925 -4.46727 0
M  V30 3220 C 309.754 2.44843 -3.65705 0
M  V30 3221 H 306.873 0.283582 -0.680257 0
M  V30 3222 H 309.515 0.0474352 -1.89941 0
M  V30 3223 H 307.665 2.12897 -3.24972 0
M  V30 3224 H 309.337 -0.0970111 -4.61198 0
M  V30 3225 H 307.58 -0.160606 -4.33503 0
M  V30 3226 H 308.251 1.064 -5.41648 0
M  V30 3227 H 310.727 1.92135 -3.69085 0
M  V30 3228 H 309.603 2.92018 -4.64776 0
M  V30 3229 H 309.864 3.29197 -2.95096 0
M  V30 3230 N 308.923 1.53595 0.353017 0
M  V30 3231 C 309.853 1.83902 1.43883 0
M  V30 3232 C 310.834 0.693421 1.55324 0
M  V30 3233 O 312.019 0.944452 1.69687 0
M  V30 3234 C 309.149 2.04016 2.8106 0
M  V30 3235 C 308.103 3.19814 2.84434 0
M  V30 3236 C 307.429 3.25244 4.24406 0
M  V30 3237 C 308.729 4.58133 2.50822 0
M  V30 3238 H 310.423 2.74835 1.1877 0
M  V30 3239 H 307.969 1.32242 0.569917 0
M  V30 3240 H 309.922 2.238 3.57059 0
M  V30 3241 H 308.646 1.09804 3.07588 0
M  V30 3242 H 307.305 2.9987 2.10887 0
M  V30 3243 H 306.953 2.28646 4.48029 0
M  V30 3244 H 306.653 4.03054 4.27576 0
M  V30 3245 H 308.177 3.47228 5.0226 0
M  V30 3246 H 309.591 4.77995 3.16534 0
M  V30 3247 H 307.988 5.38276 2.6529 0
M  V30 3248 H 309.058 4.62387 1.46034 0
M  V30 3249 N 310.401 -0.613514 1.45168 0
M  V30 3250 C 311.364 -1.7065 1.53007 0
M  V30 3251 C 312.364 -1.5548 0.410184 0
M  V30 3252 O 313.554 -1.60656 0.673455 0
M  V30 3253 C 310.686 -3.09875 1.42093 0
M  V30 3254 H 311.879 -1.65068 2.50385 0
M  V30 3255 H 309.432 -0.828728 1.32521 0
M  V30 3256 H 310.167 -3.21039 0.458769 0
M  V30 3257 H 309.952 -3.22293 2.23315 0
M  V30 3258 H 311.442 -3.895 1.50598 0
M  V30 3259 N 311.879 -1.3236 -0.855495 0
M  V30 3260 C 312.842 -1.21164 -1.94556 0
M  V30 3261 C 313.842 -0.134908 -1.60233 0
M  V30 3262 O 315.032 -0.385249 -1.69887 0
M  V30 3263 C 312.164 -0.863192 -3.29791 0
M  V30 3264 H 313.357 -2.18038 -2.05911 0
M  V30 3265 H 310.91 -1.16179 -1.04557 0
M  V30 3266 H 311.645 0.103769 -3.24134 0
M  V30 3267 H 311.43 -1.64166 -3.56078 0
M  V30 3268 H 312.92 -0.809156 -4.09686 0
M  V30 3269 N 313.357 1.07166 -1.15556 0
M  V30 3270 C 314.603 1.80065 -0.932984 0
M  V30 3271 C 314.936 1.86586 0.53845 0
M  V30 3272 O 314.211 1.35098 1.39924 0
M  V30 3273 C 314.494 3.25022 -1.55025 0
M  V30 3274 C 314.347 3.26634 -3.09242 0
M  V30 3275 C 315.666 4.22341 -1.2376 0
M  V30 3276 H 312.785 0.653697 -0.340366 0
M  V30 3277 H 315.427 1.25389 -1.4275 0
M  V30 3278 H 313.577 3.71712 -1.12972 0
M  V30 3279 H 315.249 2.88173 -3.60214 0
M  V30 3280 H 313.492 2.65539 -3.43033 0
M  V30 3281 H 314.163 4.28854 -3.47546 0
M  V30 3282 H 316.639 3.8405 -1.60139 0
M  V30 3283 H 315.515 5.22053 -1.69564 0
M  V30 3284 H 315.776 4.41828 -0.154938 0
M  V30 3285 N 314.835 0.952656 1.25548 0
M  V30 3286 C 316.065 0.622592 1.96996 0
M  V30 3287 C 316.473 -0.809112 1.71026 0
M  V30 3288 O 315.816 -1.55258 0.981861 0
M  V30 3289 C 315.878 0.798946 3.5051 0
M  V30 3290 C 315.542 2.20744 4.00151 0
M  V30 3291 C 316.539 3.18394 4.11001 0
M  V30 3292 C 314.224 2.5311 4.33867 0
M  V30 3293 C 316.218 4.46504 4.54877 0
M  V30 3294 C 313.905 3.8145 4.7743 0
M  V30 3295 C 314.903 4.77959 4.87897 0
M  V30 3296 O 314.591 6.04012 5.30494 0
M  V30 3297 H 314.323 0.232503 0.634758 0
M  V30 3298 H 316.877 1.2789 1.60728 0
M  V30 3299 H 315.107 0.0854903 3.86605 0
M  V30 3300 H 316.796 0.47023 4.03167 0
M  V30 3301 H 317.562 2.94715 3.85186 0
M  V30 3302 H 313.441 1.78719 4.24948 0
M  V30 3303 H 316.985 5.21835 4.62962 0
M  V30 3304 H 312.882 4.04936 5.0269 0
M  V30 3305 H 313.65 6.0736 5.48685 0
M  V30 3306 N 316.313 -1.40141 0.720998 0
M  V30 3307 C 317.26 -2.30688 0.071919 0
M  V30 3308 C 318.23 -1.48476 -0.744584 0
M  V30 3309 O 319.415 -1.77201 -0.707423 0
M  V30 3310 C 316.555 -3.34724 -0.839855 0
M  V30 3311 C 315.668 -4.31998 -0.0122438 0
M  V30 3312 C 314.803 -5.23102 -0.923995 0
M  V30 3313 C 313.842 -6.12033 -0.0907969 0
M  V30 3314 N 312.979 -6.95537 -0.957718 0
M  V30 3315 H 317.819 -2.85628 0.849755 0
M  V30 3316 H 315.356 -1.40653 0.430726 0
M  V30 3317 H 317.314 -3.93618 -1.38279 0
M  V30 3318 H 315.944 -2.81274 -1.58381 0
M  V30 3319 H 314.996 -3.74841 0.64794 0
M  V30 3320 H 316.308 -4.94772 0.632595 0
M  V30 3321 H 315.462 -5.86953 -1.53527 0
M  V30 3322 H 314.201 -4.60615 -1.60264 0
M  V30 3323 H 313.206 -5.47207 0.533377 0
M  V30 3324 H 314.431 -6.76581 0.584428 0
M  V30 3325 H 312.377 -6.35633 -1.62192 0
M  V30 3326 H 312.294 -7.55099 -0.36904 0
M  V30 3327 H 313.562 -7.63832 -1.555 0
M  V30 3328 N 317.792 -0.46758 -1.50504 0
M  V30 3329 C 318.755 0.317059 -2.26996 0
M  V30 3330 C 319.755 0.923513 -1.31635 0
M  V30 3331 O 320.945 0.793239 -1.55091 0
M  V30 3332 C 318.077 1.45134 -3.08462 0
M  V30 3333 H 319.27 -0.353723 -2.97807 0
M  V30 3334 H 316.823 -0.221545 -1.54722 0
M  V30 3335 H 317.558 2.15728 -2.4214 0
M  V30 3336 H 317.343 1.02232 -3.78538 0
M  V30 3337 H 318.833 2.00493 -3.66323 0
M  V30 3338 N 319.27 1.56325 -0.20005 0
M  V30 3339 C 320.2 2.22318 0.713916 0
M  V30 3340 C 321.181 1.18788 1.21752 0
M  V30 3341 O 322.366 1.47309 1.26545 0
M  V30 3342 C 319.496 2.88639 1.93144 0
M  V30 3343 C 318.45 3.98457 1.56255 0
M  V30 3344 C 317.776 4.51967 2.85709 0
M  V30 3345 C 319.076 5.16612 0.768747 0
M  V30 3346 H 320.77 2.98952 0.163755 0
M  V30 3347 H 318.316 1.43792 0.0773219 0
M  V30 3348 H 320.269 3.33491 2.57608 0
M  V30 3349 H 318.993 2.09419 2.50621 0
M  V30 3350 H 317.652 3.54305 0.941471 0
M  V30 3351 H 317.3 3.69503 3.41287 0
M  V30 3352 H 317 5.26071 2.6177 0
M  V30 3353 H 318.524 4.99523 3.51154 0
M  V30 3354 H 319.938 5.57977 1.3166 0
M  V30 3355 H 318.335 5.96812 0.627286 0
M  V30 3356 H 319.405 4.84358 -0.229168 0
M  V30 3357 N 320.748 -0.0735177 1.57428 0
M  V30 3358 C 321.973 -0.789787 1.91774 0
M  V30 3359 C 322.398 -1.70413 0.796306 0
M  V30 3360 O 321.756 -1.79555 -0.250961 0
M  V30 3361 C 321.804 -1.5609 3.25067 0
M  V30 3362 O 320.908 -2.67144 3.14178 0
M  V30 3363 H 320.249 -0.215582 0.628029 0
M  V30 3364 H 322.779 -0.0422781 2.04556 0
M  V30 3365 H 322.789 -1.94052 3.58898 0
M  V30 3366 H 321.464 -0.890015 4.06265 0
M  V30 3367 H 320.041 -2.32052 2.91901 0
M  V30 3368 N 322.226 -1.5378 -0.344866 0
M  V30 3369 C 323.503 -1.61589 -1.10219 0
M  V30 3370 C 323.883 -0.436316 -2.06542 0
M  V30 3371 O 323.231 0.571543 -2.21237 0
M  V30 3372 C 323.441 -2.97602 -1.82301 0
M  V30 3373 C 324.789 -3.5291 -2.36093 0
M  V30 3374 O 325.813 -2.99768 -1.924 0
M  V30 3375 O 324.672 -4.45859 -3.16026 0
M  V30 3376 H 321.766 -0.653522 -0.506792 0
M  V30 3377 H 324.312 -1.66126 -0.346465 0
M  V30 3378 H 323.084 -3.74893 -1.12121 0
M  V30 3379 H 322.707 -2.9665 -2.64735 0
M  V30 3380 N 323.704 0.605807 -1.45491 0
M  V30 3381 C 324.654 1.71074 -1.50724 0
M  V30 3382 C 325.638 1.5658 -0.37033 0
M  V30 3383 O 326.83 1.65887 -0.617299 0
M  V30 3384 C 323.959 3.0983 -1.47852 0
M  V30 3385 C 323.045 3.29704 -2.66751 0
M  V30 3386 N 323.436 3.19831 -3.91844 0
M  V30 3387 C 321.734 3.60579 -2.62486 0
M  V30 3388 C 322.435 3.41083 -4.71208 0
M  V30 3389 N 321.411 3.65157 -4.02693 0
M  V30 3390 H 325.213 1.61937 -2.45263 0
M  V30 3391 H 322.727 0.80912 -1.40808 0
M  V30 3392 H 324.724 3.89101 -1.49686 0
M  V30 3393 H 323.384 3.20115 -0.543714 0
M  V30 3394 H 324.395 2.98194 -4.23439 0
M  V30 3395 H 321.072 3.7769 -1.77922 0
M  V30 3396 H 322.462 3.38828 -5.80211 0
M  V30 3397 N 325.182 1.32811 0.848464 0
M  V30 3398 C 326.132 1.18842 1.94578 0
M  V30 3399 C 327.116 0.0937517 1.60627 0
M  V30 3400 O 328.308 0.320887 1.74067 0
M  V30 3401 C 325.437 0.91999 3.30743 0
M  V30 3402 C 324.523 2.05665 3.70894 0
M  V30 3403 N 324.914 3.30579 3.8282 0
M  V30 3404 C 323.212 1.9612 4.00566 0
M  V30 3405 C 323.913 4.05067 4.17487 0
M  V30 3406 N 322.889 3.33419 4.2934 0
M  V30 3407 H 326.691 2.13536 2.0194 0
M  V30 3408 H 324.205 1.2468 1.0406 0
M  V30 3409 H 326.202 0.800859 4.09136 0
M  V30 3410 H 324.862 -0.0185076 3.24695 0
M  V30 3411 H 325.873 3.65441 3.66978 0
M  V30 3412 H 322.55 1.09871 4.02784 0
M  V30 3413 H 323.94 5.12815 4.34131 0
M  V30 3414 N 326.66 -1.06551 1.16123 0
M  V30 3415 C 327.909 -1.78687 0.935622 0
M  V30 3416 C 328.222 -1.88056 -0.538001 0
M  V30 3417 O 329.428 -2.56794 -0.88143 0
M  V30 3418 C 327.884 -3.21143 1.62466 0
M  V30 3419 C 327.492 -3.19949 3.13587 0
M  V30 3420 C 329.236 -3.9783 1.48092 0
M  V30 3421 C 327.143 -4.57108 3.75241 0
M  V30 3422 H 326.073 -0.669712 0.346412 0
M  V30 3423 H 328.724 -1.19534 1.39226 0
M  V30 3424 H 327.106 -3.80539 1.09572 0
M  V30 3425 H 328.28 -2.70151 3.73303 0
M  V30 3426 H 326.595 -2.5676 3.27816 0
M  V30 3427 H 329.192 -4.99217 1.91538 0
M  V30 3428 H 329.535 -4.14078 0.429507 0
M  V30 3429 H 330.068 -3.4495 1.98127 0
M  V30 3430 H 326.807 -4.46065 4.80319 0
M  V30 3431 H 326.327 -5.07111 3.20309 0
M  V30 3432 H 328.006 -5.26069 3.76644 0
M  V30 3433 N 328.138 -0.959301 -1.25041 0
M  V30 3434 C 329.368 -0.63303 -1.96663 0
M  V30 3435 C 329.776 0.800031 -1.71453 0
M  V30 3436 O 329.119 1.54736 -0.99008 0
M  V30 3437 C 329.181 -0.817523 -3.50081 0
M  V30 3438 C 328.845 -2.22863 -3.98975 0
M  V30 3439 C 329.842 -3.20569 -4.09306 0
M  V30 3440 C 327.527 -2.55407 -4.32519 0
M  V30 3441 C 329.521 -4.4891 -4.52503 0
M  V30 3442 C 327.208 -3.83976 -4.754 0
M  V30 3443 C 328.206 -4.8054 -4.85356 0
M  V30 3444 O 327.894 -6.06817 -5.27284 0
M  V30 3445 H 327.626 -0.235866 -0.633516 0
M  V30 3446 H 330.18 -1.2874 -1.60047 0
M  V30 3447 H 328.41 -0.105992 -3.86555 0
M  V30 3448 H 330.099 -0.491604 -4.02912 0
M  V30 3449 H 330.865 -2.96753 -3.83618 0
M  V30 3450 H 326.744 -1.8097 -4.23994 0
M  V30 3451 H 330.288 -5.24283 -4.60188 0
M  V30 3452 H 326.185 -4.07596 -5.00535 0
M  V30 3453 H 326.953 -6.10262 -5.45457 0
M  V30 3454 N 329.616 1.39756 -0.72842 0
M  V30 3455 C 330.546 2.33289 -0.0991354 0
M  V30 3456 C 331.527 1.53568 0.731489 0
M  V30 3457 O 332.712 1.81987 0.677807 0
M  V30 3458 C 329.842 3.3763 0.813834 0
M  V30 3459 C 328.796 4.2791 0.0878663 0
M  V30 3460 C 328.122 5.22894 1.11741 0
M  V30 3461 C 329.422 5.11314 -1.06563 0
M  V30 3462 H 331.116 2.86163 -0.880408 0
M  V30 3463 H 328.662 1.37591 -0.424819 0
M  V30 3464 H 330.615 4.0201 1.26355 0
M  V30 3465 H 329.339 2.83181 1.62715 0
M  V30 3466 H 327.998 3.65 -0.342159 0
M  V30 3467 H 327.646 4.64744 1.92412 0
M  V30 3468 H 327.346 5.84143 0.636477 0
M  V30 3469 H 328.87 5.90151 1.56697 0
M  V30 3470 H 330.284 5.69076 -0.694671 0
M  V30 3471 H 328.681 5.81671 -1.47577 0
M  V30 3472 H 329.751 4.46534 -1.89038 0
M  V30 3473 N 331.094 0.475555 1.50254 0
M  V30 3474 C 332.004 -0.321501 2.32387 0
M  V30 3475 C 333.02 -0.991755 1.42969 0
M  V30 3476 O 334.196 -0.978747 1.76018 0
M  V30 3477 C 331.261 -1.38667 3.17762 0
M  V30 3478 C 330.322 -0.732538 4.23004 0
M  V30 3479 C 329.555 -1.74695 5.04299 0
M  V30 3480 O 329.778 -2.97399 4.86734 0
M  V30 3481 O 328.712 -1.31631 5.8733 0
M  V30 3482 H 332.538 0.350071 3.01676 0
M  V30 3483 H 330.123 0.237321 1.47503 0
M  V30 3484 H 332.005 -2.00354 3.70724 0
M  V30 3485 H 330.68 -2.04163 2.51196 0
M  V30 3486 H 329.587 -0.0765902 3.74022 0
M  V30 3487 H 330.92 -0.120452 4.92053 0
M  V30 3488 N 332.573 -1.56217 0.208337 0
M  V30 3489 C 333.821 -1.97558 -0.426076 0
M  V30 3490 C 334.142 -1.09683 -1.61229 0
M  V30 3491 O 333.412 -0.170956 -1.95153 0
M  V30 3492 H 331.992 -0.729575 -0.160405 0
M  V30 3493 H 334.654 -1.92606 0.298155 0
M  V30 3494 H 333.75 -3.02672 -0.761312 0
M  V30 3495 N 334.051 0.0651679 -1.57465 0
M  V30 3496 C 335.279 0.775808 -1.91804 0
M  V30 3497 C 335.694 1.70782 -0.804916 0
M  V30 3498 O 335.051 1.81153 0.221311 0
M  V30 3499 C 335.102 1.56381 -3.25925 0
M  V30 3500 O 334.823 0.669248 -4.32958 0
M  V30 3501 C 336.324 2.37485 -3.7432 0
M  V30 3502 H 333.544 0.2202 -0.63384 0
M  V30 3503 H 336.088 0.0334587 -2.04473 0
M  V30 3504 H 334.243 2.25837 -3.14764 0
M  V30 3505 H 334.657 1.21801 -5.10162 0
M  V30 3506 H 336.131 2.88223 -4.70778 0
M  V30 3507 H 336.608 3.17307 -3.03666 0
M  V30 3508 H 337.214 1.73173 -3.88447 0
M  V30 3509 N 335.529 1.53961 0.336706 0
M  V30 3510 C 336.459 1.85417 1.41925 0
M  V30 3511 C 337.44 0.709856 1.5458 0
M  V30 3512 O 338.625 0.962396 1.68676 0
M  V30 3513 C 335.755 2.06985 2.78881 0
M  V30 3514 C 334.709 3.22813 2.81026 0
M  V30 3515 C 334.035 3.29727 4.20932 0
M  V30 3516 C 335.335 4.60767 2.45949 0
M  V30 3517 H 337.029 2.76079 1.15848 0
M  V30 3518 H 334.575 1.32839 0.555859 0
M  V30 3519 H 336.528 2.27575 3.54665 0
M  V30 3520 H 335.252 1.13061 3.06406 0
M  V30 3521 H 333.911 3.0209 2.07695 0
M  V30 3522 H 333.559 2.33385 4.45579 0
M  V30 3523 H 333.259 4.07566 4.23277 0
M  V30 3524 H 334.783 3.52536 4.98549 0
M  V30 3525 H 336.197 4.81325 3.11446 0
M  V30 3526 H 334.594 5.4106 2.59566 0
M  V30 3527 H 335.664 4.6391 1.41122 0
M  V30 3528 N 337.007 -0.598083 1.45811 0
M  V30 3529 C 337.937 -1.71873 1.58057 0
M  V30 3530 C 338.918 -1.64533 0.431615 0
M  V30 3531 O 340.103 -1.82787 0.65595 0
M  V30 3532 C 337.233 -3.10495 1.55597 0
M  V30 3533 C 336.187 -3.32654 2.69305 0
M  V30 3534 C 335.513 -4.71646 2.51902 0
M  V30 3535 C 336.813 -3.21981 4.11248 0
M  V30 3536 H 338.507 -1.61881 2.51863 0
M  V30 3537 H 336.053 -0.777372 1.21214 0
M  V30 3538 H 338.006 -3.88699 1.6276 0
M  V30 3539 H 336.73 -3.2135 0.583255 0
M  V30 3540 H 335.389 -2.56843 2.61586 0
M  V30 3541 H 335.037 -4.79246 1.52748 0
M  V30 3542 H 334.737 -4.87426 3.2816 0
M  V30 3543 H 336.261 -5.52038 2.60933 0
M  V30 3544 H 337.675 -3.90049 4.20161 0
M  V30 3545 H 336.072 -3.49289 4.87972 0
M  V30 3546 H 337.142 -2.1928 4.32486 0
M  V30 3547 N 338.485 -1.33259 -0.841409 0
M  V30 3548 C 339.432 -1.23302 -1.95103 0
M  V30 3549 C 340.402 -0.112204 -1.65721 0
M  V30 3550 O 341.587 -0.290038 -1.88583 0
M  V30 3551 C 338.727 -0.975583 -3.31023 0
M  V30 3552 C 337.84 -2.18243 -3.72819 0
M  V30 3553 C 336.975 -1.85936 -4.97595 0
M  V30 3554 C 336.014 -3.02866 -5.3192 0
M  V30 3555 N 335.151 -2.70565 -6.47873 0
M  V30 3556 H 339.991 -2.18207 -2.02952 0
M  V30 3557 H 337.528 -1.0851 -0.993173 0
M  V30 3558 H 339.486 -0.80677 -4.09325 0
M  V30 3559 H 338.116 -0.0632755 -3.22738 0
M  V30 3560 H 337.168 -2.46107 -2.90061 0
M  V30 3561 H 338.48 -3.05666 -3.94169 0
M  V30 3562 H 337.634 -1.65684 -5.83638 0
M  V30 3563 H 336.373 -0.957452 -4.78209 0
M  V30 3564 H 335.378 -3.23736 -4.44382 0
M  V30 3565 H 336.603 -3.93809 -5.53255 0
M  V30 3566 H 334.549 -1.8293 -6.29978 0
M  V30 3567 H 334.466 -3.51519 -6.69306 0
M  V30 3568 H 335.734 -2.53774 -7.37034 0
M  V30 3569 N 339.963 1.05934 -1.16686 0
M  V30 3570 C 341.374 1.60263 -0.957745 0
M  V30 3571 C 341.725 1.89789 0.49745 0
M  V30 3572 O 340.85 1.67401 1.37135 0
M  V30 3573 C 341.445 2.91172 -1.73218 0
M  V30 3574 C 340.004 3.42188 -1.56794 0
M  V30 3575 C 339.151 2.16028 -1.73859 0
M  V30 3576 H 342.102 0.888392 -1.31504 0
M  V30 3577 H 342.123 3.60744 -1.21014 0
M  V30 3578 H 341.635 2.6965 -2.79124 0
M  V30 3579 H 339.736 3.68762 -0.533437 0
M  V30 3580 H 339.849 4.17273 -2.35414 0
M  V30 3581 H 338.213 2.26426 -1.16633 0
M  V30 3582 H 338.996 1.96985 -2.81161 0
M  V30 3583 N 341.441 0.965919 1.2453 0
M  V30 3584 C 342.389 0.486506 2.27455 0
M  V30 3585 C 343.383 -0.449041 1.6334 0
M  V30 3586 O 344.589 -0.324527 1.7705 0
M  V30 3587 H 340.964 0.138857 0.739069 0
M  V30 3588 H 342.935 1.3666 2.65267 0
M  V30 3589 C 341.684 -0.209481 3.47068 0
M  V30 3590 H 341.007 0.50129 3.96645 0
M  V30 3591 H 342.447 -0.508775 4.20936 0
M  V30 3592 C 340.906 -1.43586 3.0477 0
M  V30 3593 O 341.436 -2.53299 3.11773 0
M  V30 3594 N 339.642 -1.30126 2.59838 0
M  V30 3595 H 339.189 -0.408583 2.54339 0
M  V30 3596 H 339.147 -2.12294 2.31902 0
M  V30 3597 N 342.919 -1.39368 0.735821 0
M  V30 3598 C 343.852 -2.28155 0.0451175 0
M  V30 3599 C 344.83 -1.44433 -0.746852 0
M  V30 3600 O 346.014 -1.73823 -0.729237 0
M  V30 3601 C 343.141 -3.253 -0.943266 0
M  V30 3602 C 342.187 -4.25826 -0.239685 0
M  V30 3603 S 343.02 -5.25166 1.04693 0
M  V30 3604 C 344.176 -6.2587 0.0611639 0
M  V30 3605 H 344.409 -2.86388 0.79807 0
M  V30 3606 H 341.942 -1.45104 0.527653 0
M  V30 3607 H 343.9 -3.81789 -1.50824 0
M  V30 3608 H 342.561 -2.66085 -1.66906 0
M  V30 3609 H 341.754 -4.94229 -0.987596 0
M  V30 3610 H 341.356 -3.73141 0.253274 0
M  V30 3611 H 343.648 -6.73007 -0.778941 0
M  V30 3612 H 344.591 -7.04508 0.712362 0
M  V30 3613 H 344.999 -5.63639 -0.311602 0
M  V30 3614 N 344.397 -0.483516 -1.5 0
M  V30 3615 C 345.643 0.0672592 -2.02688 0
M  V30 3616 C 345.976 1.38247 -1.36387 0
M  V30 3617 O 345.251 1.88131 -0.493675 0
M  V30 3618 C 345.534 0.238109 -3.59312 0
M  V30 3619 C 345.387 -1.099 -4.36168 0
M  V30 3620 C 346.706 0.986916 -4.28892 0
M  V30 3621 H 343.825 0.0229696 -0.736642 0
M  V30 3622 H 346.467 -0.631527 -1.79197 0
M  V30 3623 H 344.617 0.8333 -3.79458 0
M  V30 3624 H 346.289 -1.73172 -4.27562 0
M  V30 3625 H 344.532 -1.69261 -3.99416 0
M  V30 3626 H 345.203 -0.932954 -5.44059 0
M  V30 3627 H 347.679 0.482302 -4.13295 0
M  V30 3628 H 346.555 1.07527 -5.38265 0
M  V30 3629 H 346.816 2.0265 -3.92919 0
M  V30 3630 N 345.875 1.56104 -0.216619 0
M  V30 3631 C 347.103 2.02563 0.421413 0
M  V30 3632 C 347.518 1.0965 1.53695 0
M  V30 3633 O 346.875 0.10521 1.82196 0
M  V30 3634 C 346.926 3.48584 0.957665 0
M  V30 3635 O 346.647 4.37953 -0.113389 0
M  V30 3636 C 348.148 4.10664 1.66943 0
M  V30 3637 H 345.368 0.662944 0.103665 0
M  V30 3638 H 347.912 2.01793 -0.331629 0
M  V30 3639 H 346.067 3.49985 1.661 0
M  V30 3640 H 346.481 5.23704 0.288932 0
M  V30 3641 H 347.955 5.14622 1.99671 0
M  V30 3642 H 348.432 3.55373 2.58083 0
M  V30 3643 H 349.038 4.13098 1.01142 0
M  V30 3644 N 347.353 -0.0568162 1.57498 0
M  V30 3645 C 348.764 -0.606858 1.76562 0
M  V30 3646 C 349.115 -1.77114 0.844094 0
M  V30 3647 O 348.24 -2.16376 0.0318911 0
M  V30 3648 C 348.835 -1.10766 3.20182 0
M  V30 3649 C 347.394 -1.60344 3.40539 0
M  V30 3650 C 346.541 -0.529311 2.72201 0
M  V30 3651 H 349.492 0.169393 1.57793 0
M  V30 3652 H 349.513 -1.97602 3.25167 0
M  V30 3653 H 349.025 -0.26006 3.87228 0
M  V30 3654 H 347.126 -2.47379 2.78629 0
M  V30 3655 H 347.239 -1.67006 4.4905 0
M  V30 3656 H 345.603 -0.977893 2.35179 0
M  V30 3657 H 346.386 0.308352 3.41912 0
M  V30 3658 N 348.832 -1.54138 -0.328536 0
M  V30 3659 C 350.08 -1.71765 -1.06496 0
M  V30 3660 C 350.401 -0.49149 -1.88704 0
M  V30 3661 O 349.671 0.494539 -1.89555 0
M  V30 3662 H 348.251 -0.633295 -0.396164 0
M  V30 3663 H 350.913 -1.91429 -0.366176 0
M  V30 3664 H 350.009 -2.5951 -1.73381 0
M  V30 3665 N 350.31 0.590341 -1.46126 0
M  V30 3666 C 351.26 1.69466 -1.5253 0
M  V30 3667 C 352.244 1.56179 -0.386917 0
M  V30 3668 O 353.436 1.65223 -0.634858 0
M  V30 3669 C 350.565 3.08245 -1.5113 0
M  V30 3670 C 349.651 3.26856 -2.70233 0
M  V30 3671 N 350.042 3.15657 -3.95214 0
M  V30 3672 C 348.34 3.57775 -2.66296 0
M  V30 3673 C 349.041 3.36066 -4.74799 0
M  V30 3674 N 348.017 3.60865 -4.06543 0
M  V30 3675 H 351.819 1.59326 -2.46966 0
M  V30 3676 H 349.333 0.79414 -1.41659 0
M  V30 3677 H 351.33 3.87492 -1.53804 0
M  V30 3678 H 349.99 3.19521 -0.577636 0
M  V30 3679 H 351.001 2.93686 -4.26578 0
M  V30 3680 H 347.678 3.75782 -1.81918 0
M  V30 3681 H 349.068 3.32655 -5.83772 0
M  V30 3682 N 351.788 1.33704 0.83433 0
M  V30 3683 C 352.751 1.24244 1.92603 0
M  V30 3684 C 353.751 0.160383 1.59998 0
M  V30 3685 O 354.941 0.412228 1.69252 0
M  V30 3686 C 352.073 0.91555 3.28376 0
M  V30 3687 H 353.266 2.21287 2.02416 0
M  V30 3688 H 350.819 1.17827 1.02696 0
M  V30 3689 H 351.554 -0.0521886 3.24258 0
M  V30 3690 H 351.339 1.69811 3.53422 0
M  V30 3691 H 352.829 0.874231 4.08347 0
M  V30 3692 N 353.266 -1.05314 1.17247 0
M  V30 3693 C 354.506 -1.79869 0.970898 0
M  V30 3694 C 354.87 -1.85594 -0.491808 0
M  V30 3695 O 356.071 -2.56229 -0.812409 0
M  V30 3696 C 354.342 -3.19937 1.59295 0
M  V30 3697 S 355.901 -4.10986 1.53741 0
M  V30 3698 H 352.719 -0.61949 0.348931 0
M  V30 3699 H 355.321 -1.26368 1.49169 0
M  V30 3700 H 354.025 -3.13372 2.65003 0
M  V30 3701 H 353.556 -3.78515 1.07191 0
M  V30 3702 H 355.571 -4.93203 0.544537 0
M  V30 3703 N 354.744 -0.972509 -1.24016 0
M  V30 3704 C 355.972 -0.654803 -1.96265 0
M  V30 3705 C 356.387 0.776708 -1.72083 0
M  V30 3706 O 355.744 1.52171 -1.00748 0
M  V30 3707 C 355.795 -0.92592 -3.49441 0
M  V30 3708 O 355.516 -2.30116 -3.72798 0
M  V30 3709 C 357.017 -0.623068 -4.38899 0
M  V30 3710 H 354.237 -0.243907 -0.6251 0
M  V30 3711 H 356.781 -1.30175 -1.57717 0
M  V30 3712 H 354.936 -0.325108 -3.86033 0
M  V30 3713 H 355.35 -2.38483 -4.67147 0
M  V30 3714 H 356.824 -0.863189 -5.45209 0
M  V30 3715 H 357.301 0.442754 -4.36963 0
M  V30 3716 H 357.907 -1.204 -4.07902 0
M  V30 3717 N 356.222 1.38976 -0.743202 0
M  V30 3718 C 357.154 2.29096 -0.0689228 0
M  V30 3719 C 358.167 1.47229 0.694791 0
M  V30 3720 O 359.356 1.70212 0.537597 0
M  V30 3721 C 356.456 3.25988 0.926548 0
M  V30 3722 C 355.629 4.36833 0.222647 0
M  V30 3723 C 354.688 5.13981 1.12739 0
M  V30 3724 O 353.714 5.6601 0.601795 0
M  V30 3725 N 354.916 5.25966 2.45641 0
M  V30 3726 H 357.681 2.87604 -0.842846 0
M  V30 3727 H 355.242 1.50645 -0.593109 0
M  V30 3728 H 357.234 3.74476 1.5346 0
M  V30 3729 H 355.804 2.68453 1.60162 0
M  V30 3730 H 355.024 3.90116 -0.565983 0
M  V30 3731 H 356.312 5.0811 -0.264841 0
M  V30 3732 H 355.71 4.85228 2.9081 0
M  V30 3733 H 354.267 5.77865 3.01522 0
M  V30 3734 N 357.7 0.491464 1.49741 0
M  V30 3735 C 358.647 -0.292027 2.28945 0
M  V30 3736 C 359.617 -0.968973 1.34908 0
M  V30 3737 O 360.802 -0.97748 1.6386 0
M  V30 3738 C 357.942 -1.35617 3.17336 0
M  V30 3739 C 357.055 -0.691957 4.26422 0
M  V30 3740 C 356.19 -1.73572 5.02042 0
M  V30 3741 C 355.229 -1.05286 6.02977 0
M  V30 3742 N 354.366 -2.0404 6.71798 0
M  V30 3743 H 359.206 0.389654 2.95442 0
M  V30 3744 H 356.743 0.204003 1.45679 0
M  V30 3745 H 358.701 -1.98502 3.66951 0
M  V30 3746 H 357.331 -2.00674 2.52844 0
M  V30 3747 H 356.383 0.0499523 3.80367 0
M  V30 3748 H 357.695 -0.153946 4.98562 0
M  V30 3749 H 356.849 -2.43987 5.55478 0
M  V30 3750 H 355.588 -2.30757 4.29654 0
M  V30 3751 H 354.593 -0.334446 5.48782 0
M  V30 3752 H 355.818 -0.487636 6.77347 0
M  V30 3753 H 353.764 -2.60205 6.02187 0
M  V30 3754 H 353.681 -1.55279 7.39881 0
M  V30 3755 H 354.949 -2.73772 7.29842 0
M  V30 3756 N 359.178 -1.55987 0.224894 0
M  V30 3757 C 360.425 -1.9839 -0.4059 0
M  V30 3758 C 360.753 -1.11261 -1.59535 0
M  V30 3759 O 360.008 -0.158314 -1.95059 0
M  V30 3760 C 360.307 -3.46394 -0.880106 0
M  V30 3761 C 359.973 -4.5046 0.19918 0
M  V30 3762 C 358.635 -4.7864 0.495661 0
M  V30 3763 C 360.987 -5.12855 0.928939 0
M  V30 3764 C 358.315 -5.66497 1.52636 0
M  V30 3765 C 360.667 -6.01828 1.949 0
M  V30 3766 C 359.331 -6.28351 2.25236 0
M  V30 3767 H 358.601 -0.725961 -0.148529 0
M  V30 3768 H 361.248 -1.88668 0.328113 0
M  V30 3769 H 359.553 -3.53337 -1.69294 0
M  V30 3770 H 361.25 -3.76577 -1.37808 0
M  V30 3771 H 357.84 -4.28579 -0.0420526 0
M  V30 3772 H 362.024 -4.9115 0.713129 0
M  V30 3773 H 357.28 -5.8531 1.76698 0
M  V30 3774 H 361.454 -6.49225 2.51951 0
M  V30 3775 H 359.081 -6.96226 3.05244 0
M  V30 3776 N 360.656 0.0484629 -1.57525 0
M  V30 3777 C 361.881 0.759177 -1.93006 0
M  V30 3778 C 362.306 1.69125 -0.823317 0
M  V30 3779 O 361.664 1.79931 0.222364 0
M  V30 3780 C 361.712 1.50899 -3.27509 0
M  V30 3781 O 360.816 2.62112 -3.18388 0
M  V30 3782 H 360.157 0.205564 -0.631379 0
M  V30 3783 H 362.687 0.00972959 -2.04598 0
M  V30 3784 H 362.697 1.88317 -3.6194 0
M  V30 3785 H 361.372 0.825269 -4.0763 0
M  V30 3786 H 359.949 2.27379 -2.95556 0
M  V30 3787 N 362.134 1.5431 0.320358 0
M  V30 3788 C 363.084 1.803 1.39556 0
M  V30 3789 C 364.068 0.659166 1.46778 0
M  V30 3790 O 365.26 0.91926 1.51257 0
M  V30 3791 C 362.389 2.03665 2.76361 0
M  V30 3792 C 361.475 3.24178 2.73439 0
M  V30 3793 N 361.866 4.4516 2.40137 0
M  V30 3794 C 360.164 3.25816 3.04565 0
M  V30 3795 C 360.865 5.27109 2.4603 0
M  V30 3796 N 359.841 4.64368 2.82601 0
M  V30 3797 H 363.643 2.71416 1.12742 0
M  V30 3798 H 361.157 1.53548 0.528856 0
M  V30 3799 H 363.154 2.20425 3.53862 0
M  V30 3800 H 361.814 1.13805 3.04103 0
M  V30 3801 H 362.825 4.72104 2.12927 0
M  V30 3802 H 359.502 2.46001 3.37328 0
M  V30 3803 H 360.892 6.33728 2.23246 0
M  V30 3804 N 363.613 -0.582584 1.46437 0
M  V30 3805 C 364.523 -1.71949 1.59595 0
M  V30 3806 C 365.539 -1.67264 0.479443 0
M  V30 3807 O 366.715 -1.87171 0.743579 0
M  V30 3808 C 363.78 -3.08452 1.58298 0
M  V30 3809 C 362.841 -3.244 2.81182 0
M  V30 3810 C 362.074 -4.54391 2.79937 0
M  V30 3811 O 362.297 -5.38287 1.8869 0
M  V30 3812 O 361.231 -4.73588 3.71481 0
M  V30 3813 H 365.057 -1.63795 2.55744 0
M  V30 3814 H 362.642 -0.749643 1.29231 0
M  V30 3815 H 364.524 -3.89732 1.60271 0
M  V30 3816 H 363.199 -3.17043 0.653094 0
M  V30 3817 H 362.106 -2.42613 2.84763 0
M  V30 3818 H 363.439 -3.20699 3.7338 0
M  V30 3819 N 365.091 -1.34144 -0.827227 0
M  V30 3820 C 366.001 -1.27428 -1.96975 0
M  V30 3821 C 367.017 -0.182728 -1.73038 0
M  V30 3822 O 368.193 -0.408426 -1.97215 0
M  V30 3823 C 365.258 -1.02526 -3.31194 0
M  V30 3824 C 364.319 -2.20796 -3.68168 0
M  V30 3825 C 363.552 -1.97073 -4.95982 0
M  V30 3826 O 363.775 -0.926822 -5.6282 0
M  V30 3827 O 362.709 -2.83912 -5.30733 0
M  V30 3828 H 366.535 -2.23537 -2.05584 0
M  V30 3829 H 364.12 -1.14307 -0.961989 0
M  V30 3830 H 366.002 -0.904026 -4.11589 0
M  V30 3831 H 364.677 -0.0945389 -3.23562 0
M  V30 3832 H 363.584 -2.38477 -2.88235 0
M  V30 3833 H 364.917 -3.12243 -3.8048 0
M  V30 3834 N 366.569 1.04691 -1.17803 0
M  V30 3835 C 367.818 1.77176 -0.963931 0
M  V30 3836 C 368.131 1.88888 0.508015 0
M  V30 3837 O 369.337 2.58164 0.840465 0
M  V30 3838 C 367.793 3.18518 -1.67555 0
M  V30 3839 C 367.401 3.14919 -3.18637 0
M  V30 3840 C 369.145 3.95424 -1.54402 0
M  V30 3841 C 367.052 4.51081 -3.82466 0
M  V30 3842 H 365.982 0.664116 -0.357023 0
M  V30 3843 H 368.633 1.17303 -1.4111 0
M  V30 3844 H 367.015 3.78748 -1.15613 0
M  V30 3845 H 368.189 2.64178 -3.77554 0
M  V30 3846 H 366.504 2.51512 -3.31859 0
M  V30 3847 H 369.101 4.96106 -1.99456 0
M  V30 3848 H 369.444 4.13343 -0.495329 0
M  V30 3849 H 369.977 3.41754 -2.0359 0
M  V30 3850 H 366.716 4.38368 -4.87354 0
M  V30 3851 H 366.236 5.01951 -3.28337 0
M  V30 3852 H 367.915 5.2001 -3.84965 0
M  V30 3853 N 368.047 0.979072 1.23499 0
M  V30 3854 C 369.01 0.523244 2.23147 0
M  V30 3855 C 370.01 -0.386406 1.56088 0
M  V30 3856 O 371.2 -0.180283 1.73265 0
M  V30 3857 C 368.332 -0.240739 3.40049 0
M  V30 3858 H 369.525 1.40432 2.64989 0
M  V30 3859 H 367.078 0.764824 1.36309 0
M  V30 3860 H 367.813 -1.13841 3.03662 0
M  V30 3861 H 367.598 0.412207 3.89927 0
M  V30 3862 H 369.088 -0.548297 4.13985 0
M  V30 3863 N 369.525 -1.3858 0.750561 0
M  V30 3864 C 370.458 -2.28095 0.0693139 0
M  V30 3865 C 371.436 -1.45217 -0.731491 0
M  V30 3866 O 372.62 -1.74587 -0.71076 0
M  V30 3867 C 369.747 -3.26282 -0.90871 0
M  V30 3868 C 368.793 -4.26056 -0.194507 0
M  V30 3869 S 369.626 -5.24026 1.10257 0
M  V30 3870 C 370.782 -6.2577 0.127542 0
M  V30 3871 H 371.015 -2.85526 0.8284 0
M  V30 3872 H 368.548 -1.44536 0.543014 0
M  V30 3873 H 370.506 -3.83367 -1.46766 0
M  V30 3874 H 369.167 -2.6784 -1.64075 0
M  V30 3875 H 368.36 -4.95249 -0.93512 0
M  V30 3876 H 367.962 -3.72852 0.292837 0
M  V30 3877 H 370.254 -6.73796 -0.707516 0
M  V30 3878 H 371.197 -7.03712 0.787044 0
M  V30 3879 H 371.605 -5.63938 -0.251803 0
M  V30 3880 N 371.003 -0.499398 -1.49478 0
M  V30 3881 C 371.966 0.268838 -2.27618 0
M  V30 3882 C 372.966 0.895383 -1.33565 0
M  V30 3883 O 374.156 0.760164 -1.56739 0
M  V30 3884 C 371.288 1.38559 -3.11471 0
M  V30 3885 H 372.481 -0.416812 -2.96989 0
M  V30 3886 H 370.034 -0.254313 -1.54217 0
M  V30 3887 H 370.769 2.10544 -2.46661 0
M  V30 3888 H 370.554 0.941797 -3.80621 0
M  V30 3889 H 372.044 1.92678 -3.70493 0
M  V30 3890 N 372.481 1.55866 -0.233164 0
M  V30 3891 C 373.709 2.02998 0.399905 0
M  V30 3892 C 374.124 1.11274 1.52524 0
M  V30 3893 O 373.481 0.124528 1.82075 0
M  V30 3894 C 373.532 3.4958 0.920639 0
M  V30 3895 O 373.253 4.37808 -0.159834 0
M  V30 3896 C 374.754 4.12411 1.62578 0
M  V30 3897 H 371.974 0.664006 0.0966281 0
M  V30 3898 H 374.518 2.0143 -0.353013 0
M  V30 3899 H 372.673 3.51727 1.62379 0
M  V30 3900 H 373.087 5.23981 0.23337 0
M  V30 3901 H 374.561 5.16711 1.94201 0
M  V30 3902 H 375.038 3.5809 2.54299 0
M  V30 3903 H 375.644 4.14148 0.967553 0
M  V30 3904 N 373.959 -0.0401083 1.57549 0
M  V30 3905 C 375.205 -0.734211 1.89043 0
M  V30 3906 C 375.538 -1.75591 0.829535 0
M  V30 3907 O 374.813 -1.93868 -0.156706 0
M  V30 3908 C 375.096 -1.41374 3.31188 0
M  V30 3909 C 374.949 -0.406299 4.47961 0
M  V30 3910 C 376.268 -2.35061 3.72068 0
M  V30 3911 H 373.387 -0.265447 0.687537 0
M  V30 3912 H 376.029 0.00294087 1.9 0
M  V30 3913 H 374.179 -2.04206 3.30503 0
M  V30 3914 H 375.851 0.219255 4.60779 0
M  V30 3915 H 374.094 0.275485 4.32924 0
M  V30 3916 H 374.765 -0.920022 5.44279 0
M  V30 3917 H 377.241 -1.82282 3.74049 0
M  V30 3918 H 376.117 -2.79593 4.72355 0
M  V30 3919 H 376.378 -3.21258 3.0372 0
M  V30 3920 N 375.437 -1.54477 -0.31217 0
M  V30 3921 C 376.665 -1.77205 -1.068 0
M  V30 3922 C 377.08 -0.526114 -1.81321 0
M  V30 3923 O 376.437 0.503647 -1.75413 0
M  V30 3924 C 376.488 -2.97253 -2.05725 0
M  V30 3925 O 376.209 -4.1703 -1.34228 0
M  V30 3926 C 377.71 -3.32281 -2.93435 0
M  V30 3927 H 374.93 -0.591287 -0.317208 0
M  V30 3928 H 377.474 -2.01398 -0.354834 0
M  V30 3929 H 375.629 -2.753 -2.72559 0
M  V30 3930 H 376.043 -4.84636 -2.00571 0
M  V30 3931 H 377.517 -4.19551 -3.58721 0
M  V30 3932 H 377.994 -2.49945 -3.61143 0
M  V30 3933 H 378.6 -3.56353 -2.32147 0
M  V30 3934 N 376.915 0.57481 -1.46744 0
M  V30 3935 C 377.878 1.66533 -1.57478 0
M  V30 3936 C 378.878 1.54338 -0.451263 0
M  V30 3937 O 380.068 1.58814 -0.715813 0
M  V30 3938 C 377.2 3.05999 -1.50259 0
M  V30 3939 H 378.393 1.58372 -2.54673 0
M  V30 3940 H 375.946 0.793301 -1.34672 0
M  V30 3941 H 376.681 3.19709 -0.543725 0
M  V30 3942 H 376.466 3.16259 -2.31781 0
M  V30 3943 H 377.956 3.8537 -1.60872 0
M  V30 3944 N 378.394 1.34581 0.820102 0
M  V30 3945 C 379.324 1.29038 1.94606 0
M  V30 3946 C 380.305 0.1673 1.69275 0
M  V30 3947 O 381.49 0.360112 1.90832 0
M  V30 3948 C 378.62 1.04793 3.31113 0
M  V30 3949 C 377.574 2.13597 3.70891 0
M  V30 3950 C 376.9 1.74537 5.05412 0
M  V30 3951 C 378.2 3.55451 3.8269 0
M  V30 3952 H 379.894 2.23248 1.99501 0
M  V30 3953 H 377.44 1.0747 0.958449 0
M  V30 3954 H 379.393 0.995592 4.0947 0
M  V30 3955 H 378.117 0.0702565 3.26524 0
M  V30 3956 H 376.776 2.17905 2.9481 0
M  V30 3957 H 376.424 0.754226 4.97313 0
M  V30 3958 H 376.124 2.47361 5.32997 0
M  V30 3959 H 377.648 1.70803 5.86224 0
M  V30 3960 H 379.062 3.5354 4.51312 0
M  V30 3961 H 377.459 4.26922 4.21732 0
M  V30 3962 H 378.529 3.92587 2.84611 0
M  V30 3963 N 379.872 -1.04064 1.18357 0
M  V30 3964 C 381.288 -1.2947 0.933258 0
M  V30 3965 C 381.488 -1.97466 -0.401169 0
M  V30 3966 O 380.544 -2.25528 -1.13549 0
M  V30 3967 C 381.857 -2.15337 2.09882 0
M  V30 3968 C 383.405 -2.28683 2.13712 0
M  V30 3969 C 383.88 -3.17917 3.29686 0
M  V30 3970 N 385.371 -3.25504 3.29547 0
M  V30 3971 C 386.106 -3.94706 4.15926 0
M  V30 3972 N 385.602 -4.66239 5.12439 0
M  V30 3973 N 387.395 -3.90986 4.0384 0
M  V30 3974 H 379.546 -0.583359 2.04232 0
M  V30 3975 H 381.809 -0.319921 0.892387 0
M  V30 3976 H 381.515 -1.72682 3.06389 0
M  V30 3977 H 381.389 -3.16015 2.05947 0
M  V30 3978 H 383.776 -2.70575 1.17784 0
M  V30 3979 H 383.857 -1.27596 2.21705 0
M  V30 3980 H 383.501 -2.76736 4.25887 0
M  V30 3981 H 383.431 -4.19036 3.1893 0
M  V30 3982 H 385.922 -2.74547 2.59677 0
M  V30 3983 H 386.235 -5.16638 5.74722 0
M  V30 3984 H 384.58 -4.65143 5.16398 0
M  V30 3985 H 387.771 -3.34234 3.27727 0
M  V30 3986 H 387.944 -4.44646 4.71375 0
M  V30 3987 N 381.35 -0.985608 -1.22978 0
M  V30 3988 C 382.766 -0.695104 -1.43668 0
M  V30 3989 C 382.966 0.736866 -1.87543 0
M  V30 3990 O 382.022 1.50868 -2.02473 0
M  V30 3991 C 383.335 -1.69447 -2.48412 0
M  V30 3992 C 384.883 -1.70909 -2.62219 0
M  V30 3993 C 385.358 -2.6969 -3.70178 0
M  V30 3994 N 386.849 -2.6824 -3.77626 0
M  V30 3995 C 387.584 -3.41339 -4.60733 0
M  V30 3996 N 387.08 -4.24015 -5.4789 0
M  V30 3997 N 388.873 -3.30079 -4.54977 0
M  V30 3998 H 381.024 -1.91054 -0.928016 0
M  V30 3999 H 383.287 -0.823553 -0.469536 0
M  V30 4000 H 382.993 -2.7188 -2.23102 0
M  V30 4001 H 382.867 -1.48147 -3.46889 0
M  V30 4002 H 385.254 -0.691785 -2.86877 0
M  V30 4003 H 385.335 -1.96276 -1.6404 0
M  V30 4004 H 384.979 -3.71566 -3.46268 0
M  V30 4005 H 384.909 -2.41595 -4.67909 0
M  V30 4006 H 387.4 -2.08243 -3.15346 0
M  V30 4007 H 387.713 -4.76636 -6.08308 0
M  V30 4008 H 386.058 -4.28104 -5.47496 0
M  V30 4009 H 389.249 -2.64937 -3.85909 0
M  V30 4010 H 389.422 -3.87308 -5.19516 0
M  V30 4011 N 382.828 1.3818 -0.7579 0
M  V30 4012 C 384.056 2.04301 -0.326937 0
M  V30 4013 C 384.471 1.57163 1.0462 0
M  V30 4014 O 383.828 0.746626 1.66529 0
M  V30 4015 C 383.879 3.59846 -0.345363 0
M  V30 4016 O 383.6 4.05256 -1.66432 0
M  V30 4017 C 385.101 4.4319 0.098927 0
M  V30 4018 H 382.321 0.656443 -0.139012 0
M  V30 4019 H 384.865 1.76786 -1.02796 0
M  V30 4020 H 383.02 3.86182 0.306955 0
M  V30 4021 H 383.434 4.99709 -1.59345 0
M  V30 4022 H 384.908 5.51989 0.0348745 0
M  V30 4023 H 385.385 4.23947 1.14741 0
M  V30 4024 H 385.991 4.22051 -0.52468 0
M  V30 4025 N 384.306 0.507319 1.49211 0
M  V30 4026 C 385.552 -0.0350047 2.0277 0
M  V30 4027 C 385.885 -1.3606 1.38569 0
M  V30 4028 O 385.16 -1.87321 0.523542 0
M  V30 4029 C 385.443 -0.180916 3.59645 0
M  V30 4030 C 385.296 1.16825 4.34364 0
M  V30 4031 C 386.615 -0.918558 4.30407 0
M  V30 4032 H 383.734 -0.0112473 0.736914 0
M  V30 4033 H 386.376 0.659956 1.7817 0
M  V30 4034 H 384.526 -0.772826 3.80736 0
M  V30 4035 H 386.198 1.79952 4.24753 0
M  V30 4036 H 384.441 1.75594 3.96673 0
M  V30 4037 H 385.112 1.01939 5.42506 0
M  V30 4038 H 387.588 -0.41649 4.1401 0
M  V30 4039 H 386.464 -0.989505 5.39907 0
M  V30 4040 H 386.725 -1.96373 3.96093 0
M  V30 4041 N 385.784 -1.5574 0.241426 0
M  V30 4042 C 387.195 -1.84842 -0.262755 0
M  V30 4043 C 387.546 -1.16317 -1.58003 0
M  V30 4044 O 386.671 -0.439653 -2.11887 0
M  V30 4045 C 387.266 -3.35332 -0.483523 0
M  V30 4046 C 385.825 -3.6468 -0.931977 0
M  V30 4047 C 384.972 -2.77299 -0.0061151 0
M  V30 4048 H 387.923 -1.51761 0.464129 0
M  V30 4049 H 387.944 -3.56615 -1.32688 0
M  V30 4050 H 387.456 -3.85178 0.47537 0
M  V30 4051 H 385.557 -3.20307 -1.90353 0
M  V30 4052 H 385.67 -4.72498 -0.792628 0
M  V30 4053 H 384.034 -2.49408 -0.516503 0
M  V30 4054 H 384.817 -3.2995 0.948052 0
M  V30 4055 N 387.262 0.0317525 -1.57568 0
M  V30 4056 C 388.673 0.578692 -1.77505 0
M  V30 4057 C 389.024 1.75749 -0.872164 0
M  V30 4058 O 388.149 2.16298 -0.0663106 0
M  V30 4059 C 388.744 1.05658 -3.21904 0
M  V30 4060 C 387.303 1.54906 -3.43047 0
M  V30 4061 C 386.45 0.485939 -2.73009 0
M  V30 4062 H 389.401 -0.194475 -1.57504 0
M  V30 4063 H 389.422 1.92404 -3.28269 0
M  V30 4064 H 388.934 0.198422 -3.87592 0
M  V30 4065 H 387.035 2.42915 -2.82529 0
M  V30 4066 H 387.148 1.59841 -4.5165 0
M  V30 4067 H 385.512 0.940354 -2.36705 0
M  V30 4068 H 386.295 -0.362709 -3.41379 0
M  V30 4069 N 388.74 1.54641 0.303973 0
M  V30 4070 C 389.703 1.84646 1.35789 0
M  V30 4071 C 390.703 0.7192 1.4382 0
M  V30 4072 O 391.893 0.987491 1.43507 0
M  V30 4073 C 389.025 2.02407 2.74307 0
M  V30 4074 H 390.218 2.78829 1.10429 0
M  V30 4075 H 387.771 1.46658 0.540487 0
M  V30 4076 H 388.506 1.10502 3.04893 0
M  V30 4077 H 388.291 2.84453 2.69868 0
M  V30 4078 H 389.781 2.27002 3.50514 0
M  V30 4079 N 390.218 -0.567019 1.47046 0
M  V30 4080 C 391.464 -1.32658 1.53394 0
M  V30 4081 C 391.797 -1.93254 0.19148 0
M  V30 4082 O 391.072 -1.77338 -0.798844 0
M  V30 4083 C 391.355 -2.44412 2.64452 0
M  V30 4084 C 391.208 -1.88749 4.08282 0
M  V30 4085 C 392.527 -3.46387 2.71485 0
M  V30 4086 H 389.646 -0.48098 0.558415 0
M  V30 4087 H 392.288 -0.635481 1.79058 0
M  V30 4088 H 390.438 -3.03363 2.427 0
M  V30 4089 H 392.11 -1.34134 4.41368 0
M  V30 4090 H 390.353 -1.19481 4.17021 0
M  V30 4091 H 391.024 -2.69491 4.81745 0
M  V30 4092 H 393.5 -2.9734 2.91081 0
M  V30 4093 H 392.376 -4.2202 3.50985 0
M  V30 4094 H 392.637 -4.04616 1.78153 0
M  V30 4095 N 391.696 -1.35014 -0.812953 0
M  V30 4096 C 392.924 -1.31031 -1.6012 0
M  V30 4097 C 393.339 0.113558 -1.88458 0
M  V30 4098 O 392.696 1.06363 -1.48301 0
M  V30 4099 C 392.747 -2.10872 -2.93624 0
M  V30 4100 O 392.468 -3.47706 -2.66518 0
M  V30 4101 C 393.969 -2.14401 -3.88004 0
M  V30 4102 H 391.189 -0.45037 -0.497401 0
M  V30 4103 H 393.733 -1.77775 -1.01076 0
M  V30 4104 H 391.888 -1.67744 -3.492 0
M  V30 4105 H 392.302 -3.89097 -3.51715 0
M  V30 4106 H 393.776 -2.74669 -4.78812 0
M  V30 4107 H 394.253 -1.14105 -4.24119 0
M  V30 4108 H 394.859 -2.57662 -3.38364 0
M  V30 4109 N 393.175 1.03435 -1.18907 0
M  V30 4110 C 394.423 1.76394 -0.986382 0
M  V30 4111 C 394.744 1.88883 0.484567 0
M  V30 4112 O 394.014 1.41843 1.3512 0
M  V30 4113 H 392.594 0.65344 -0.361975 0
M  V30 4114 H 395.256 1.248 -1.49703 0
M  V30 4115 H 394.352 2.77424 -1.42978 0
M  V30 4116 N 394.653 0.992116 1.22453 0
M  V30 4117 C 395.902 0.662992 1.90492 0
M  V30 4118 C 396.215 -0.808407 1.78113 0
M  V30 4119 O 397.421 -1.24908 2.41061 0
M  V30 4120 C 395.877 1.1353 3.41524 0
M  V30 4121 C 395.485 2.63187 3.62542 0
M  V30 4122 C 397.229 0.880465 4.15269 0
M  V30 4123 C 395.136 3.04024 5.0727 0
M  V30 4124 H 394.066 0.244278 0.713333 0
M  V30 4125 H 396.717 1.20157 1.38688 0
M  V30 4126 H 395.099 0.52485 3.92506 0
M  V30 4127 H 396.273 3.2957 3.22056 0
M  V30 4128 H 394.588 2.86543 3.02129 0
M  V30 4129 H 397.185 1.16128 5.21937 0
M  V30 4130 H 397.528 -0.183408 4.15896 0
M  V30 4131 H 398.061 1.45307 3.70312 0
M  V30 4132 H 394.8 4.09584 5.11782 0
M  V30 4133 H 394.32 2.42343 5.48662 0
M  V30 4134 H 395.999 2.95282 5.75689 0
M  V30 4135 N 396.131 -1.37776 0.765217 0
M  V30 4136 C 397.359 -2.04124 0.337767 0
M  V30 4137 C 397.774 -1.57715 -1.03785 0
M  V30 4138 O 397.131 -0.755447 -1.6613 0
M  V30 4139 C 397.182 -3.59658 0.364442 0
M  V30 4140 O 396.903 -4.04367 1.68579 0
M  V30 4141 C 398.404 -4.43236 -0.0754221 0
M  V30 4142 H 395.624 -0.655696 0.142491 0
M  V30 4143 H 398.168 -1.76238 1.03732 0
M  V30 4144 H 396.323 -3.86339 -0.286471 0
M  V30 4145 H 396.737 -4.98857 1.61993 0
M  V30 4146 H 398.211 -5.52 -0.00560067 0
M  V30 4147 H 398.688 -4.2455 -1.12491 0
M  V30 4148 H 399.294 -4.21767 0.547055 0
M  V30 4149 N 397.609 -0.515225 -1.4894 0
M  V30 4150 C 398.856 0.024215 -2.02486 0
M  V30 4151 C 399.184 1.35671 -1.39368 0
M  V30 4152 O 398.439 1.88566 -0.523574 0
M  V30 4153 C 398.738 0.210595 -3.56779 0
M  V30 4154 C 398.404 -1.04569 -4.38607 0
M  V30 4155 C 397.066 -1.39002 -4.60686 0
M  V30 4156 C 399.418 -1.88008 -4.86109 0
M  V30 4157 C 396.746 -2.568 -5.27514 0
M  V30 4158 C 399.098 -3.04972 -5.54234 0
M  V30 4159 C 397.762 -3.39768 -5.74555 0
M  V30 4160 H 397.032 0.00886088 -0.740947 0
M  V30 4161 H 399.679 -0.678263 -1.79086 0
M  V30 4162 H 397.984 0.99572 -3.78936 0
M  V30 4163 H 399.681 0.642659 -3.95817 0
M  V30 4164 H 396.271 -0.767497 -4.21672 0
M  V30 4165 H 400.455 -1.62719 -4.68867 0
M  V30 4166 H 395.711 -2.8398 -5.41447 0
M  V30 4167 H 399.885 -3.69943 -5.90013 0
M  V30 4168 H 397.512 -4.31148 -6.26112 0
M  V30 4169 N 399.087 1.5561 -0.249682 0
M  V30 4170 C 400.017 2.24477 0.642826 0
M  V30 4171 C 400.998 1.22601 1.17911 0
M  V30 4172 O 402.183 1.5126 1.21795 0
M  V30 4173 C 399.313 2.94638 1.83863 0
M  V30 4174 C 398.267 4.03227 1.435 0
M  V30 4175 C 397.593 4.60828 2.71186 0
M  V30 4176 C 398.893 5.18796 0.604002 0
M  V30 4177 H 400.587 2.99321 0.0685625 0
M  V30 4178 H 398.133 1.43965 0.0315363 0
M  V30 4179 H 400.086 3.41517 2.46868 0
M  V30 4180 H 398.81 2.17287 2.43832 0
M  V30 4181 H 397.469 3.57121 0.828275 0
M  V30 4182 H 397.117 3.80174 3.29358 0
M  V30 4183 H 396.817 5.34132 2.44901 0
M  V30 4184 H 398.341 5.10442 3.35084 0
M  V30 4185 H 399.755 5.61883 1.13842 0
M  V30 4186 H 398.152 5.98506 0.437097 0
M  V30 4187 H 399.222 4.83384 -0.383147 0
M  V30 4188 N 400.565 -0.0233959 1.57583 0
M  V30 4189 C 401.79 -0.728376 1.94189 0
M  V30 4190 C 402.215 -1.67793 0.850119 0
M  V30 4191 O 401.573 -1.80262 -0.19371 0
M  V30 4192 C 401.621 -1.45669 3.29868 0
M  V30 4193 O 400.725 -2.57013 3.22518 0
M  V30 4194 H 400.066 -0.195493 0.63457 0
M  V30 4195 H 402.596 0.0228214 2.04587 0
M  V30 4196 H 402.606 -1.82535 3.6489 0
M  V30 4197 H 401.281 -0.760314 4.08891 0
M  V30 4198 H 399.858 -2.22648 2.99136 0
M  V30 4199 N 402.043 -1.548 -0.295768 0
M  V30 4200 C 403.291 -1.73985 -1.02828 0
M  V30 4201 C 403.612 -0.531406 -1.87619 0
M  V30 4202 O 402.882 0.454221 -1.90561 0
M  V30 4203 H 401.462 -0.641556 -0.382642 0
M  V30 4204 H 404.124 -1.92163 -0.325489 0
M  V30 4205 H 403.22 -2.63129 -1.67838 0
M  V30 4206 N 403.521 0.559213 -1.47345 0
M  V30 4207 C 404.769 1.31388 -1.53563 0
M  V30 4208 C 405.09 1.93985 -0.198678 0
M  V30 4209 O 404.36 1.79825 0.777167 0
M  V30 4210 H 402.94 0.487901 -0.565652 0
M  V30 4211 H 405.602 0.65315 -1.8363 0
M  V30 4212 H 404.698 2.10844 -2.30111 0
M  V30 4213 N 404.999 1.35443 0.805782 0
M  V30 4214 C 405.931 1.24285 1.92577 0
M  V30 4215 C 406.944 0.165962 1.61952 0
M  V30 4216 O 408.133 0.419303 1.73505 0
M  V30 4217 C 405.233 0.891272 3.2697 0
M  V30 4218 C 404.406 2.06669 3.85495 0
M  V30 4219 C 403.465 1.69077 4.98297 0
M  V30 4220 O 402.491 2.4096 5.15681 0
M  V30 4221 N 403.693 0.614869 5.77234 0
M  V30 4222 H 406.458 2.20777 2.02676 0
M  V30 4223 H 404.019 1.28623 0.983243 0
M  V30 4224 H 406.011 0.621256 3.99903 0
M  V30 4225 H 404.581 0.016004 3.12596 0
M  V30 4226 H 403.801 2.50046 3.04747 0
M  V30 4227 H 405.089 2.85237 4.21328 0
M  V30 4228 H 404.487 0.017648 5.65697 0
M  V30 4229 H 403.044 0.404636 6.50543 0
M  V30 4230 N 406.477 -1.02803 1.19454 0
M  V30 4231 C 407.702 -1.80378 1.02364 0
M  V30 4232 C 408.127 -1.83282 -0.423007 0
M  V30 4233 O 407.485 -1.25945 -1.30413 0
M  V30 4234 C 407.533 -3.23248 1.59821 0
M  V30 4235 O 406.637 -4.04 0.828105 0
M  V30 4236 H 405.978 -0.556799 0.361761 0
M  V30 4237 H 408.508 -1.29385 1.58495 0
M  V30 4238 H 408.518 -3.73994 1.63073 0
M  V30 4239 H 407.193 -3.2045 2.65113 0
M  V30 4240 H 405.77 -3.62635 0.86891 0
M  V30 4241 N 407.956 -0.998596 -1.21925 0
M  V30 4242 C 408.866 -0.562736 -2.27751 0
M  V30 4243 C 409.882 0.391203 -1.69545 0
M  V30 4244 O 411.058 0.256625 -1.99758 0
M  V30 4245 C 408.123 0.11012 -3.46525 0
M  V30 4246 C 407.184 -0.887495 -4.20026 0
M  V30 4247 C 406.417 -0.246654 -5.3313 0
M  V30 4248 O 406.64 0.958088 -5.62296 0
M  V30 4249 O 405.574 -0.954374 -5.94286 0
M  V30 4250 H 409.4 -1.44329 -2.67213 0
M  V30 4251 H 406.985 -0.767135 -1.28201 0
M  V30 4252 H 408.867 0.486756 -4.18579 0
M  V30 4253 H 407.542 0.965154 -3.08976 0
M  V30 4254 H 406.449 -1.31517 -3.5022 0
M  V30 4255 H 407.782 -1.71191 -4.6147 0
M  V30 4256 N 409.434 1.37368 -0.772513 0
M  V30 4257 C 410.344 2.34053 -0.160081 0
M  V30 4258 C 411.36 1.60216 0.678728 0
M  V30 4259 O 412.536 1.92303 0.59847 0
M  V30 4260 C 409.601 3.3939 0.708182 0
M  V30 4261 C 408.662 4.29048 -0.147172 0
M  V30 4262 C 407.895 5.29354 0.679744 0
M  V30 4263 O 408.118 5.3723 1.91678 0
M  V30 4264 O 407.052 6.01835 0.0885444 0
M  V30 4265 H 410.878 2.88159 -0.959053 0
M  V30 4266 H 408.463 1.39543 -0.533685 0
M  V30 4267 H 410.345 4.03839 1.20384 0
M  V30 4268 H 409.02 2.8761 1.48533 0
M  V30 4269 H 407.927 3.67697 -0.689205 0
M  V30 4270 H 409.26 4.84134 -0.887423 0
M  V30 4271 N 410.912 0.523116 1.48665 0
M  V30 4272 C 411.822 -0.247406 2.33292 0
M  V30 4273 C 412.838 -0.945769 1.46052 0
M  V30 4274 O 414.014 -0.922253 1.79043 0
M  V30 4275 C 411.079 -1.28487 3.22012 0
M  V30 4276 C 410.14 -0.597592 4.2512 0
M  V30 4277 C 409.373 -1.58563 5.09601 0
M  V30 4278 O 409.596 -2.81763 4.95949 0
M  V30 4279 O 408.53 -1.12879 5.91221 0
M  V30 4280 H 412.356 0.445869 3.00409 0
M  V30 4281 H 409.941 0.284128 1.46673 0
M  V30 4282 H 411.823 -1.88459 3.7691 0
M  V30 4283 H 410.498 -1.96068 2.57564 0
M  V30 4284 H 409.405 0.0424407 3.74076 0
M  V30 4285 H 410.738 0.0361517 4.92187 0
M  V30 4286 N 412.39 -1.55475 0.257931 0
M  V30 4287 C 413.353 -2.20551 -0.623706 0
M  V30 4288 C 414.353 -1.17809 -1.09443 0
M  V30 4289 O 415.543 -1.42823 -0.997362 0
M  V30 4290 C 412.675 -2.85784 -1.8585 0
M  V30 4291 H 413.868 -2.99848 -0.0557743 0
M  V30 4292 H 411.421 -1.56298 0.0084422 0
M  V30 4293 H 412.156 -2.10453 -2.46739 0
M  V30 4294 H 411.941 -3.61057 -1.52907 0
M  V30 4295 H 413.431 -3.35553 -2.48584 0
M  V30 4296 N 413.868 0.0150385 -1.57593 0
M  V30 4297 C 415.093 0.718067 -1.94573 0
M  V30 4298 C 415.518 1.6734 -0.859005 0
M  V30 4299 O 414.876 1.80362 0.184147 0
M  V30 4300 C 414.924 1.43918 -3.30636 0
M  V30 4301 O 414.028 2.55299 -3.23876 0
M  V30 4302 H 413.369 0.192125 -0.635597 0
M  V30 4303 H 415.899 -0.0336708 -2.04572 0
M  V30 4304 H 415.909 1.80598 -3.65853 0
M  V30 4305 H 414.584 0.738619 -4.09289 0
M  V30 4306 H 413.161 2.21058 -3.00312 0
M  V30 4307 N 415.346 1.54954 0.287554 0
M  V30 4308 C 416.595 1.74081 1.01877 0
M  V30 4309 C 416.908 0.541135 1.87966 0
M  V30 4310 O 418.114 0.614491 2.64455 0
M  V30 4311 C 416.57 3.08042 1.86113 0
M  V30 4312 C 416.178 4.35531 1.04961 0
M  V30 4313 C 417.922 3.36523 2.58752 0
M  V30 4314 C 415.829 5.60538 1.88551 0
M  V30 4315 H 414.759 0.64884 0.384087 0
M  V30 4316 H 417.41 1.81426 0.275101 0
M  V30 4317 H 415.792 2.94696 2.64519 0
M  V30 4318 H 416.966 4.59751 0.31074 0
M  V30 4319 H 415.281 4.14085 0.43843 0
M  V30 4320 H 417.878 4.27122 3.21668 0
M  V30 4321 H 418.221 2.56 3.28283 0
M  V30 4322 H 418.754 3.50901 1.87386 0
M  V30 4323 H 415.493 6.43767 1.23466 0
M  V30 4324 H 415.013 5.40483 2.60074 0
M  V30 4325 H 416.692 5.98297 2.46273 0
M  V30 4326 N 416.824 -0.551391 1.4764 0
M  V30 4327 C 417.772 -1.67896 1.60978 0
M  V30 4328 C 418.766 -1.62549 0.476877 0
M  V30 4329 O 419.972 -1.67664 0.654878 0
M  V30 4330 H 416.347 -0.555649 0.506713 0
M  V30 4331 H 418.318 -1.53784 2.55721 0
M  V30 4332 C 417.067 -3.06234 1.64669 0
M  V30 4333 H 416.39 -3.11033 2.51194 0
M  V30 4334 H 417.83 -3.84804 1.7805 0
M  V30 4335 C 416.289 -3.34737 0.381115 0
M  V30 4336 O 416.819 -3.98381 -0.515297 0
M  V30 4337 N 415.025 -2.8944 0.259354 0
M  V30 4338 H 414.572 -2.37827 0.98976 0
M  V30 4339 H 414.53 -3.08882 -0.586464 0
M  V30 4340 N 418.302 -1.35869 -0.798587 0
M  V30 4341 C 419.232 -1.32118 -1.92528 0
M  V30 4342 C 420.213 -0.194209 -1.68988 0
M  V30 4343 O 421.398 -0.390426 -1.90235 0
M  V30 4344 C 418.528 -1.10047 -3.29404 0
M  V30 4345 C 417.482 -2.19471 -3.67446 0
M  V30 4346 C 416.808 -1.82555 -5.02571 0
M  V30 4347 C 418.108 -3.61495 -3.76987 0
M  V30 4348 H 419.802 -2.26394 -1.95924 0
M  V30 4349 H 417.348 -1.08981 -0.94123 0
M  V30 4350 H 419.301 -1.06061 -4.07835 0
M  V30 4351 H 418.025 -0.122195 -3.26371 0
M  V30 4352 H 416.684 -2.22568 -2.91306 0
M  V30 4353 H 416.332 -0.833249 -4.9605 0
M  V30 4354 H 416.032 -2.5581 -5.28995 0
M  V30 4355 H 417.556 -1.80108 -5.83432 0
M  V30 4356 H 418.97 -3.60676 -4.4563 0
M  V30 4357 H 417.367 -4.33577 -4.14887 0
M  V30 4358 H 418.437 -3.97065 -2.78329 0
M  V30 4359 N 419.78 1.02168 -1.19998 0
M  V30 4360 C 420.728 2.12717 -0.940967 0
M  V30 4361 C 421.722 1.69069 0.105841 0
M  V30 4362 O 422.928 1.79946 -0.0440583 0
M  V30 4363 H 419.303 0.695108 -0.28693 0
M  V30 4364 H 421.274 2.3175 -1.87975 0
M  V30 4365 C 420.023 3.44027 -0.504049 0
M  V30 4366 H 419.346 3.78036 -1.30112 0
M  V30 4367 H 420.786 4.22452 -0.361991 0
M  V30 4368 C 419.245 3.27678 0.782878 0
M  V30 4369 O 419.775 3.56949 1.84256 0
M  V30 4370 N 417.981 2.80943 0.742921 0
M  V30 4371 H 417.528 2.57322 -0.119687 0
M  V30 4372 H 417.486 2.70385 1.60435 0
M  V30 4373 N 421.258 1.00505 1.21394 0
M  V30 4374 C 422.221 0.570459 2.21987 0
M  V30 4375 C 423.221 -0.353211 1.56873 0
M  V30 4376 O 424.411 -0.14349 1.73608 0
M  V30 4377 C 421.543 -0.168555 3.40483 0
M  V30 4378 H 422.736 1.46021 2.6195 0
M  V30 4379 H 420.289 0.793565 1.34656 0
M  V30 4380 H 421.024 -1.07374 3.06009 0
M  V30 4381 H 420.809 0.494823 3.88965 0
M  V30 4382 H 422.299 -0.460362 4.15055 0
M  V30 4383 N 422.737 -1.36956 0.779787 0
M  V30 4384 C 423.986 -1.98738 0.344405 0
M  V30 4385 C 424.299 -1.62596 -1.08728 0
M  V30 4386 O 425.505 -2.1754 -1.62445 0
M  V30 4387 C 423.961 -3.5544 0.564829 0
M  V30 4388 C 423.569 -4.00514 2.0073 0
M  V30 4389 C 425.313 -4.24059 0.193471 0
M  V30 4390 C 423.22 -5.49957 2.17489 0
M  V30 4391 H 422.15 -0.743561 0.12503 0
M  V30 4392 H 424.801 -1.56381 0.960057 0
M  V30 4393 H 423.183 -3.95817 -0.120397 0
M  V30 4394 H 424.357 -3.71362 2.72814 0
M  V30 4395 H 422.672 -3.44703 2.336 0
M  V30 4396 H 425.269 -5.33874 0.297097 0
M  V30 4397 H 425.612 -4.07378 -0.857263 0
M  V30 4398 H 426.145 -3.89012 0.831556 0
M  V30 4399 H 422.884 -5.71574 3.2091 0
M  V30 4400 H 422.404 -5.80767 1.49899 0
M  V30 4401 H 424.083 -6.16043 1.97738 0
M  V30 4402 N 424.215 -0.530993 -1.48385 0
M  V30 4403 C 425.163 0.244595 -2.3131 0
M  V30 4404 C 426.157 0.93451 -1.41291 0
M  V30 4405 O 427.363 0.85878 -1.58193 0
M  V30 4406 H 423.738 0.0977472 -0.74562 0
M  V30 4407 H 425.709 -0.474369 -2.94605 0
M  V30 4408 C 424.458 1.2779 -3.23365 0
M  V30 4409 H 423.781 0.756439 -3.92579 0
M  V30 4410 H 425.221 1.79198 -3.84271 0
M  V30 4411 C 423.68 2.31205 -2.45042 0
M  V30 4412 O 424.21 3.37661 -2.17596 0
M  V30 4413 N 422.416 2.04446 -2.0652 0
M  V30 4414 H 421.963 1.17891 -2.2904 0
M  V30 4415 H 421.921 2.73861 -1.54427 0
M  V30 4416 N 425.693 1.55336 -0.266172 0
M  V30 4417 C 426.64 2.22172 0.625165 0
M  V30 4418 C 427.61 1.19211 1.15663 0
M  V30 4419 O 428.795 1.47723 1.20758 0
M  V30 4420 C 425.935 2.93972 1.8076 0
M  V30 4421 C 425.048 4.11632 1.31084 0
M  V30 4422 C 424.183 4.71099 2.45436 0
M  V30 4423 C 423.222 5.8097 1.92718 0
M  V30 4424 N 422.359 6.34538 3.00509 0
M  V30 4425 H 427.199 2.9796 0.0485582 0
M  V30 4426 H 424.736 1.47095 0.0122024 0
M  V30 4427 H 426.694 3.33811 2.50251 0
M  V30 4428 H 425.324 2.20623 2.35638 0
M  V30 4429 H 424.376 3.76975 0.509326 0
M  V30 4430 H 425.688 4.90893 0.884633 0
M  V30 4431 H 424.842 5.13612 3.22936 0
M  V30 4432 H 423.581 3.91096 2.91368 0
M  V30 4433 H 422.586 5.37916 1.13695 0
M  V30 4434 H 423.811 6.62836 1.47733 0
M  V30 4435 H 421.757 5.57433 3.45839 0
M  V30 4436 H 421.674 7.09046 2.62279 0
M  V30 4437 H 422.942 6.81709 3.78011 0
M  V30 4438 N 427.171 -0.0066808 1.57599 0
M  V30 4439 C 428.411 -0.697501 1.92131 0
M  V30 4440 C 428.775 -1.71306 0.867071 0
M  V30 4441 O 429.976 -2.45377 1.09743 0
M  V30 4442 C 428.247 -1.32978 3.3174 0
M  V30 4443 S 429.806 -2.04665 3.88146 0
M  V30 4444 H 426.624 -0.230555 0.672581 0
M  V30 4445 H 429.226 0.0484026 1.9544 0
M  V30 4446 H 427.93 -0.57772 4.06313 0
M  V30 4447 H 427.461 -2.11376 3.31789 0
M  V30 4448 H 429.476 -3.32097 3.68682 0
M  V30 4449 N 428.649 -1.55105 -0.279332 0
M  V30 4450 C 430.06 -1.66186 -0.850832 0
M  V30 4451 C 430.411 -0.584707 -1.87285 0
M  V30 4452 O 429.536 0.274919 -2.14647 0
M  V30 4453 C 430.131 -3.01264 -1.55001 0
M  V30 4454 C 428.69 -3.14394 -2.06963 0
M  V30 4455 C 427.837 -2.61959 -0.909536 0
M  V30 4456 H 430.788 -1.58602 -0.0558235 0
M  V30 4457 H 430.809 -2.93899 -2.41669 0
M  V30 4458 H 430.321 -3.7964 -0.805931 0
M  V30 4459 H 428.422 -2.4078 -2.84352 0
M  V30 4460 H 428.535 -4.20867 -2.28928 0
M  V30 4461 H 426.899 -2.18957 -1.30116 0
M  V30 4462 H 427.682 -3.42833 -0.179062 0
M  V30 4463 N 430.127 0.543554 -1.4793 0
M  V30 4464 C 431.057 1.65888 -1.64327 0
M  V30 4465 C 432.038 1.62818 -0.492383 0
M  V30 4466 O 433.223 1.80226 -0.723338 0
M  V30 4467 C 430.353 3.04506 -1.67013 0
M  V30 4468 C 429.307 3.2243 -2.81466 0
M  V30 4469 C 428.633 4.61972 -2.69233 0
M  V30 4470 C 429.933 3.06496 -4.22915 0
M  V30 4471 H 431.627 1.52421 -2.57698 0
M  V30 4472 H 429.173 0.731849 -1.24016 0
M  V30 4473 H 431.126 3.82391 -1.77074 0
M  V30 4474 H 429.85 3.18964 -0.70212 0
M  V30 4475 H 428.509 2.46957 -2.70938 0
M  V30 4476 H 428.157 4.73247 -1.7043 0
M  V30 4477 H 427.857 4.74911 -3.46025 0
M  V30 4478 H 429.381 5.41974 -2.81242 0
M  V30 4479 H 430.795 3.74186 -4.34348 0
M  V30 4480 H 429.192 3.30938 -5.006 0
M  V30 4481 H 430.262 2.03077 -4.40327 0
M  V30 4482 N 431.605 1.3629 0.791371 0
M  V30 4483 C 432.535 1.33137 1.91825 0
M  V30 4484 C 433.516 0.203168 1.68882 0
M  V30 4485 O 434.701 0.400509 1.90025 0
M  V30 4486 C 431.831 1.11793 3.28816 0
M  V30 4487 C 430.785 2.21417 3.66277 0
M  V30 4488 C 430.111 1.85218 5.01596 0
M  V30 4489 C 431.411 3.63489 3.75064 0
M  V30 4490 H 433.105 2.2743 1.9472 0
M  V30 4491 H 430.651 1.09479 0.935437 0
M  V30 4492 H 432.604 1.08222 4.07266 0
M  V30 4493 H 431.328 0.139501 3.26302 0
M  V30 4494 H 429.987 2.2411 2.90121 0
M  V30 4495 H 429.635 0.859544 4.95602 0
M  V30 4496 H 429.335 2.58611 5.27631 0
M  V30 4497 H 430.859 1.832 5.82469 0
M  V30 4498 H 432.273 3.63034 4.43711 0
M  V30 4499 H 430.67 4.35771 4.12582 0
M  V30 4500 H 431.74 3.98536 2.76219 0
M  V30 4501 N 433.083 -1.0153 1.20538 0
M  V30 4502 C 434.03 -2.10098 0.955383 0
M  V30 4503 C 435 -1.65702 -0.114878 0
M  V30 4504 O 436.185 -1.90776 0.0301118 0
M  V30 4505 C 433.325 -3.41236 0.514969 0
M  V30 4506 C 432.438 -3.99102 1.65353 0
M  V30 4507 C 431.573 -5.18306 1.16329 0
M  V30 4508 C 430.612 -5.68258 2.27485 0
M  V30 4509 N 429.749 -6.78722 1.7967 0
M  V30 4510 H 434.589 -2.30818 1.88486 0
M  V30 4511 H 432.126 -1.13189 0.939499 0
M  V30 4512 H 434.084 -4.16504 0.240935 0
M  V30 4513 H 432.714 -3.20585 -0.377512 0
M  V30 4514 H 431.766 -3.20918 2.04245 0
M  V30 4515 H 433.078 -4.32177 2.49047 0
M  V30 4516 H 432.232 -6.00782 0.845302 0
M  V30 4517 H 430.971 -4.86799 0.296254 0
M  V30 4518 H 429.976 -4.84385 2.60099 0
M  V30 4519 H 431.201 -6.01798 3.14667 0
M  V30 4520 H 429.147 -6.49042 0.95295 0
M  V30 4521 H 429.064 -7.10996 2.56944 0
M  V30 4522 H 430.332 -7.64759 1.50875 0
M  V30 4523 N 434.561 -1.01147 -1.20859 0
M  V30 4524 C 435.972 -0.730205 -1.71828 0
M  V30 4525 C 436.323 0.751662 -1.8123 0
M  V30 4526 O 435.448 1.58686 -1.47132 0
M  V30 4527 C 436.043 -1.31885 -3.12077 0
M  V30 4528 C 434.602 -1.08656 -3.60376 0
M  V30 4529 C 433.749 -1.42769 -2.37723 0
M  V30 4530 H 436.7 -1.18158 -1.05945 0
M  V30 4531 H 436.721 -0.706793 -3.73878 0
M  V30 4532 H 436.233 -2.39737 -3.05201 0
M  V30 4533 H 434.334 -0.0254814 -3.72591 0
M  V30 4534 H 434.447 -1.76301 -4.45483 0
M  V30 4535 H 432.811 -0.846603 -2.40218 0
M  V30 4536 H 433.594 -2.51666 -2.33493 0
M  V30 4537 N 436.039 1.36541 -0.78704 0
M  V30 4538 C 437.285 2.00044 -0.367938 0
M  V30 4539 C 437.64 1.61345 1.04812 0
M  V30 4540 O 436.933 0.856936 1.71368 0
M  V30 4541 C 437.127 3.54343 -0.466485 0
M  V30 4542 C 436.956 4.08029 -1.89058 0
M  V30 4543 C 435.726 4.38284 -2.51466 0
M  V30 4544 C 437.924 4.27954 -2.85236 0
M  V30 4545 N 435.906 4.77778 -3.85488 0
M  V30 4546 C 437.277 4.70227 -4.04088 0
M  V30 4547 C 439.332 4.10119 -2.82324 0
M  V30 4548 C 438.035 4.96532 -5.20432 0
M  V30 4549 C 440.061 4.37569 -3.97854 0
M  V30 4550 C 439.423 4.80095 -5.15449 0
M  V30 4551 H 435.522 0.760525 -0.182004 0
M  V30 4552 H 438.106 1.65589 -1.02413 0
M  V30 4553 H 436.277 3.88072 0.159606 0
M  V30 4554 H 438.009 4.04693 -0.0238577 0
M  V30 4555 H 434.764 4.27905 -2.02965 0
M  V30 4556 H 435.188 5.01813 -4.54437 0
M  V30 4557 H 439.83 3.76399 -1.92571 0
M  V30 4558 H 437.548 5.29134 -6.10773 0
M  V30 4559 H 441.134 4.25341 -3.96958 0
M  V30 4560 H 440.014 5.00925 -6.0336 0
M  V30 4561 N 437.518 0.538854 1.48102 0
M  V30 4562 C 438.481 -0.208395 2.28251 0
M  V30 4563 C 439.481 -0.859656 1.35892 0
M  V30 4564 O 440.671 -0.71834 1.58699 0
M  V30 4565 C 437.803 -1.30252 3.15035 0
M  V30 4566 H 438.996 0.495407 2.9578 0
M  V30 4567 H 436.549 0.295112 1.53489 0
M  V30 4568 H 437.284 -2.0393 2.52157 0
M  V30 4569 H 437.069 -0.840551 3.82985 0
M  V30 4570 H 438.559 -1.82787 3.75471 0
M  V30 4571 N 438.996 -1.55193 0.274407 0
M  V30 4572 C 439.926 -2.25471 -0.607032 0
M  V30 4573 C 440.907 -1.24461 -1.15946 0
M  V30 4574 O 442.092 -1.53179 -1.19373 0
M  V30 4575 C 439.222 -2.97526 -1.79153 0
M  V30 4576 C 438.176 -4.05459 -1.37067 0
M  V30 4577 C 437.502 -4.65084 -2.6382 0
M  V30 4578 C 438.802 -5.19691 -0.521389 0
M  V30 4579 H 440.496 -2.99393 -0.0209343 0
M  V30 4580 H 438.042 -1.43997 -0.00862866 0
M  V30 4581 H 439.995 -3.45402 -2.41404 0
M  V30 4582 H 438.719 -2.21138 -2.40344 0
M  V30 4583 H 437.378 -3.58393 -0.771355 0
M  V30 4584 H 437.026 -3.85365 -3.23268 0
M  V30 4585 H 436.726 -5.37961 -2.36372 0
M  V30 4586 H 438.25 -5.15708 -3.26921 0
M  V30 4587 H 439.664 -5.63623 -1.04889 0
M  V30 4588 H 438.061 -5.99126 -0.341825 0
M  V30 4589 H 439.131 -4.82713 0.46 0
M  V30 4590 N 440.474 -0.00167713 -1.576 0
M  V30 4591 C 441.702 0.693759 -1.94922 0
M  V30 4592 C 442.117 1.67215 -0.876626 0
M  V30 4593 O 441.474 1.81929 0.144279 0
M  V30 4594 C 441.525 1.42416 -3.32265 0
M  V30 4595 O 441.246 0.485014 -4.35407 0
M  V30 4596 C 442.747 2.21395 -3.84056 0
M  V30 4597 H 439.967 0.193118 -0.642609 0
M  V30 4598 H 442.511 -0.0532952 -2.04431 0
M  V30 4599 H 440.666 2.12284 -3.24059 0
M  V30 4600 H 441.08 1.00053 -5.14868 0
M  V30 4601 H 442.554 2.67996 -4.82578 0
M  V30 4602 H 443.031 3.04142 -3.16851 0
M  V30 4603 H 443.637 1.56542 -3.95443 0
M  V30 4604 N 441.952 1.55251 0.271103 0
M  V30 4605 C 443.199 1.75946 1.00245 0
M  V30 4606 C 443.527 0.561611 1.86215 0
M  V30 4607 O 442.782 -0.455832 1.90317 0
M  V30 4608 C 443.081 3.01879 1.91321 0
M  V30 4609 C 442.747 4.34337 1.21086 0
M  V30 4610 C 441.409 4.70338 1.01666 0
M  V30 4611 C 443.761 5.16325 0.71119 0
M  V30 4612 C 441.089 5.8588 0.310099 0
M  V30 4613 C 443.441 6.32597 0.0182157 0
M  V30 4614 C 442.105 6.67236 -0.18768 0
M  V30 4615 H 441.375 0.643833 0.366824 0
M  V30 4616 H 444.022 1.89521 0.27458 0
M  V30 4617 H 442.327 2.83212 2.70736 0
M  V30 4618 H 444.024 3.15088 2.48033 0
M  V30 4619 H 440.614 4.06043 1.37213 0
M  V30 4620 H 444.798 4.88987 0.848844 0
M  V30 4621 H 440.054 6.1124 0.139873 0
M  V30 4622 H 444.228 6.9538 -0.376711 0
M  V30 4623 H 441.855 7.56618 -0.73715 0
M  V30 4624 N 443.43 -0.535701 1.48216 0
M  V30 4625 C 444.655 -1.32149 1.59848 0
M  V30 4626 C 445.08 -1.86338 0.256842 0
M  V30 4627 O 444.438 -1.64107 -0.770632 0
M  V30 4628 C 444.486 -2.45224 2.64381 0
M  V30 4629 O 443.59 -3.48093 2.21144 0
M  V30 4630 H 442.931 -0.391634 0.536208 0
M  V30 4631 H 445.461 -0.645202 1.94161 0
M  V30 4632 H 445.471 -2.91491 2.85476 0
M  V30 4633 H 444.146 -2.05143 3.61786 0
M  V30 4634 H 442.723 -3.07984 2.10239 0
M  V30 4635 N 444.908 -1.36708 -0.784132 0
M  V30 4636 C 446.138 -1.34203 -1.57077 0
M  V30 4637 C 446.546 0.0774945 -1.89041 0
M  V30 4638 O 445.889 1.04628 -1.50992 0
M  V30 4639 C 445.951 -2.10351 -2.91535 0
M  V30 4640 C 445.615 -3.59405 -2.82272 0
M  V30 4641 C 446.612 -4.53545 -2.54151 0
M  V30 4642 C 444.297 -4.02362 -3.00683 0
M  V30 4643 C 446.291 -5.8862 -2.44551 0
M  V30 4644 C 443.978 -5.37526 -2.90704 0
M  V30 4645 C 444.976 -6.30468 -2.62677 0
M  V30 4646 O 444.664 -7.63149 -2.52702 0
M  V30 4647 H 444.396 -0.461791 -0.493685 0
M  V30 4648 H 446.95 -1.80475 -0.980712 0
M  V30 4649 H 445.18 -1.5875 -3.52612 0
M  V30 4650 H 446.869 -2.00636 -3.52845 0
M  V30 4651 H 447.635 -4.21669 -2.39625 0
M  V30 4652 H 443.514 -3.30389 -3.21503 0
M  V30 4653 H 447.058 -6.61133 -2.22596 0
M  V30 4654 H 442.955 -5.69008 -3.04795 0
M  V30 4655 H 443.723 -7.73331 -2.68144 0
M  V30 4656 N 446.386 1.0089 -1.21074 0
M  V30 4657 C 447.634 1.74262 -1.02358 0
M  V30 4658 C 447.955 1.89869 0.444393 0
M  V30 4659 O 447.225 1.44677 1.32081 0
M  V30 4660 H 445.805 0.645615 -0.375754 0
M  V30 4661 H 448.467 1.21596 -1.52317 0
M  V30 4662 H 447.563 2.74328 -1.4883 0
M  V30 4663 N 447.864 1.01787 1.20321 0
M  V30 4664 C 449.28 0.732951 1.41774 0
M  V30 4665 C 449.48 -0.686883 1.89431 0
M  V30 4666 O 448.536 -1.45446 2.06402 0
M  V30 4667 C 449.849 1.75973 2.43832 0
M  V30 4668 C 451.397 1.77802 2.57596 0
M  V30 4669 C 451.872 2.7941 3.62897 0
M  V30 4670 N 453.363 2.78157 3.70382 0
M  V30 4671 C 454.098 3.53434 4.51521 0
M  V30 4672 N 453.594 4.38392 5.36455 0
M  V30 4673 N 455.387 3.42026 4.46066 0
M  V30 4674 H 447.538 1.93447 0.877035 0
M  V30 4675 H 449.801 0.835712 0.447536 0
M  V30 4676 H 449.507 2.77699 2.15815 0
M  V30 4677 H 449.381 1.57292 3.4284 0
M  V30 4678 H 451.768 0.767602 2.84942 0
M  V30 4679 H 451.849 2.00557 1.58779 0
M  V30 4680 H 451.493 3.80616 3.36295 0
M  V30 4681 H 451.423 2.53916 4.61339 0
M  V30 4682 H 453.914 2.16531 3.09714 0
M  V30 4683 H 454.227 4.92596 5.95457 0
M  V30 4684 H 452.572 4.4247 5.35953 0
M  V30 4685 H 455.763 2.75075 3.78749 0
M  V30 4686 H 455.936 4.00946 5.09064 0
M  V30 4687 N 449.342 -1.36122 0.79427 0
M  V30 4688 C 450.305 -2.28309 0.201889 0
M  V30 4689 C 451.305 -1.49041 -0.603603 0
M  V30 4690 O 452.495 -1.68964 -0.423888 0
M  V30 4691 C 449.627 -3.3321 -0.719978 0
M  V30 4692 H 450.82 -2.82208 1.01481 0
M  V30 4693 H 448.373 -1.45768 0.564037 0
M  V30 4694 H 449.108 -2.84475 -1.55706 0
M  V30 4695 H 448.893 -3.91835 -0.144266 0
M  V30 4696 H 450.383 -4.02044 -1.12916 0
M  V30 4697 N 450.82 -0.546701 -1.47814 0
M  V30 4698 C 451.75 0.195317 -2.32682 0
M  V30 4699 C 452.731 0.918981 -1.43139 0
M  V30 4700 O 453.916 0.901501 -1.72008 0
M  V30 4701 C 451.046 1.23237 -3.247 0
M  V30 4702 C 450 0.625818 -4.234 0
M  V30 4703 C 449.326 1.76674 -5.04669 0
M  V30 4704 C 450.626 -0.413515 -5.2066 0
M  V30 4705 H 452.32 -0.513184 -2.94969 0
M  V30 4706 H 449.866 -0.248241 -1.41844 0
M  V30 4707 H 451.819 1.75955 -3.82907 0
M  V30 4708 H 450.543 1.97067 -2.60446 0
M  V30 4709 H 449.202 0.120023 -3.66403 0
M  V30 4710 H 448.85 2.49383 -4.36826 0
M  V30 4711 H 448.55 1.36673 -5.71484 0
M  V30 4712 H 450.074 2.29738 -5.65732 0
M  V30 4713 H 451.488 0.0272042 -5.73294 0
M  V30 4714 H 449.885 -0.731825 -5.95621 0
M  V30 4715 H 450.955 -1.31325 -4.66778 0
M  V30 4716 N 452.299 1.55045 -0.282633 0
M  V30 4717 C 453.231 2.2023 0.634924 0
M  V30 4718 C 454.244 1.18931 1.11172 0
M  V30 4719 O 455.433 1.4562 1.03233 0
M  V30 4720 C 452.533 2.82041 1.87899 0
M  V30 4721 C 451.706 4.091 1.54776 0
M  V30 4722 C 450.765 4.54887 2.64507 0
M  V30 4723 O 449.791 5.20496 2.30375 0
M  V30 4724 N 450.993 4.25659 3.94709 0
M  V30 4725 H 453.758 2.99601 0.0769811 0
M  V30 4726 H 451.319 1.61565 -0.104048 0
M  V30 4727 H 453.311 3.09613 2.60619 0
M  V30 4728 H 451.881 2.06618 2.3458 0
M  V30 4729 H 451.101 3.88736 0.654049 0
M  V30 4730 H 452.389 4.9187 1.30158 0
M  V30 4731 H 451.787 3.7306 4.25256 0
M  V30 4732 H 450.344 4.57984 4.63782 0
M  V30 4733 N 453.777 0.010035 1.57597 0
M  V30 4734 C 454.74 -0.963029 2.07986 0
M  V30 4735 C 455.74 -1.26619 0.991173 0
M  V30 4736 O 456.93 -1.2097 1.25347 0
M  V30 4737 C 454.062 -2.2851 2.52974 0
M  V30 4738 H 455.255 -0.526971 2.95234 0
M  V30 4739 H 452.808 -0.237639 1.54483 0
M  V30 4740 H 453.543 -2.76784 1.69 0
M  V30 4741 H 453.328 -2.07824 3.32493 0
M  V30 4742 H 454.818 -2.98294 2.9225 0
M  V30 4743 N 455.255 -1.55392 -0.262866 0
M  V30 4744 C 456.48 -1.80847 -1.01533 0
M  V30 4745 C 456.905 -0.584946 -1.78774 0
M  V30 4746 O 456.263 0.465701 -1.75217 0
M  V30 4747 C 456.311 -3.03866 -1.94159 0
M  V30 4748 O 455.415 -2.79662 -3.03089 0
M  V30 4749 H 454.756 -0.597441 -0.289759 0
M  V30 4750 H 457.286 -2.02553 -0.288698 0
M  V30 4751 H 457.296 -3.32872 -2.35924 0
M  V30 4752 H 455.971 -3.92564 -1.37354 0
M  V30 4753 H 454.548 -2.61781 -2.65566 0
M  V30 4754 N 456.733 0.527833 -1.48498 0
M  V30 4755 C 457.696 1.61439 -1.62696 0
M  V30 4756 C 458.696 1.52824 -0.500136 0
M  V30 4757 O 459.886 1.56456 -0.765976 0
M  V30 4758 C 457.018 3.01063 -1.59918 0
M  V30 4759 H 458.211 1.50189 -2.59583 0
M  V30 4760 H 455.764 0.750055 -1.37127 0
M  V30 4761 H 456.499 3.17818 -0.645163 0
M  V30 4762 H 456.284 3.08725 -2.41726 0
M  V30 4763 H 457.774 3.80057 -1.73051 0
M  V30 4764 N 458.211 1.37122 0.776871 0
M  V30 4765 C 459.141 1.35164 1.90402 0
M  V30 4766 C 460.122 0.221069 1.68657 0
M  V30 4767 O 461.307 0.420642 1.8959 0
M  V30 4768 C 458.437 1.15274 3.27611 0
M  V30 4769 C 457.391 2.25289 3.63908 0
M  V30 4770 C 456.717 1.90527 4.99603 0
M  V30 4771 C 458.017 3.67446 3.71188 0
M  V30 4772 H 459.711 2.29482 1.92297 0
M  V30 4773 H 457.257 1.10465 0.923773 0
M  V30 4774 H 459.21 1.12536 4.06096 0
M  V30 4775 H 457.934 0.174102 3.26136 0
M  V30 4776 H 456.593 2.27174 2.87728 0
M  V30 4777 H 456.241 0.91206 4.94662 0
M  V30 4778 H 455.941 2.64193 5.24858 0
M  V30 4779 H 457.465 1.89367 5.80493 0
M  V30 4780 H 458.879 3.67719 4.39836 0
M  V30 4781 H 457.276 4.40123 4.07936 0
M  V30 4782 H 458.346 4.01443 2.71977 0
M  V30 4783 N 459.689 -1.00246 1.21608 0
M  V30 4784 C 460.636 -2.09073 0.977613 0
M  V30 4785 C 461.606 -1.65815 -0.097297 0
M  V30 4786 O 462.791 -1.90734 0.0503445 0
M  V30 4787 C 459.931 -3.40671 0.551133 0
M  V30 4788 C 459.044 -3.97326 1.69576 0
M  V30 4789 C 458.179 -5.17043 1.2182 0
M  V30 4790 C 457.218 -5.65813 2.335 0
M  V30 4791 N 456.355 -6.76778 1.86859 0
M  V30 4792 H 461.195 -2.28806 1.90924 0
M  V30 4793 H 458.732 -1.12186 0.951452 0
M  V30 4794 H 460.69 -4.16225 0.285097 0
M  V30 4795 H 459.32 -3.20967 -0.343489 0
M  V30 4796 H 458.372 -3.18734 2.07637 0
M  V30 4797 H 459.684 -4.29511 2.53617 0
M  V30 4798 H 458.838 -5.99852 0.908975 0
M  V30 4799 H 457.577 -4.86458 0.347869 0
M  V30 4800 H 456.582 -4.81599 2.65222 0
M  V30 4801 H 457.807 -5.98427 3.21033 0
M  V30 4802 H 455.753 -6.47994 1.02174 0
M  V30 4803 H 455.67 -7.08231 2.64471 0
M  V30 4804 H 456.938 -7.63116 1.58978 0
M  V30 4805 N 461.167 -1.02423 -1.1978 0
M  V30 4806 C 462.13 -0.605703 -2.21052 0
M  V30 4807 C 463.13 0.328209 -1.57415 0
M  V30 4808 O 464.32 0.115853 -1.73814 0
M  V30 4809 C 461.452 0.114366 -3.40708 0
M  V30 4810 H 462.645 -1.5017 -2.59594 0
M  V30 4811 H 460.198 -0.814888 -1.33376 0
M  V30 4812 H 460.933 1.02492 -3.07678 0
M  V30 4813 H 460.718 -0.556641 -3.88129 0
M  V30 4814 H 462.208 0.394272 -4.15735 0
M  V30 4815 N 462.645 1.35699 -0.801477 0
M  V30 4816 C 463.891 1.99643 -0.389135 0
M  V30 4817 C 464.246 1.62447 1.03095 0
M  V30 4818 O 463.539 0.875064 1.7045 0
M  V30 4819 C 463.733 3.53828 -0.504041 0
M  V30 4820 C 463.562 4.06 -1.93375 0
M  V30 4821 C 462.332 4.35592 -2.561 0
M  V30 4822 C 464.53 4.24905 -2.89759 0
M  V30 4823 N 462.512 4.73663 -3.90534 0
M  V30 4824 C 463.883 4.65914 -4.09052 0
M  V30 4825 C 465.938 4.07101 -2.86658 0
M  V30 4826 C 464.641 4.90984 -5.25669 0
M  V30 4827 C 466.667 4.33324 -4.02472 0
M  V30 4828 C 466.029 4.74601 -5.20512 0
M  V30 4829 H 462.128 0.758552 -0.19006 0
M  V30 4830 H 464.712 1.64493 -1.04164 0
M  V30 4831 H 462.883 3.88219 0.118437 0
M  V30 4832 H 464.615 4.04645 -0.0667794 0
M  V30 4833 H 461.37 4.25728 -2.07492 0
M  V30 4834 H 461.794 4.96965 -4.59734 0
M  V30 4835 H 466.436 3.74335 -1.96552 0
M  V30 4836 H 464.154 5.22626 -6.1635 0
M  V30 4837 H 467.74 4.21107 -4.01447 0
M  V30 4838 H 466.62 4.94497 -6.08639 0
M  V30 4839 N 464.123 0.554532 1.47522 0
M  V30 4840 C 465.371 0.0294208 2.02079 0
M  V30 4841 C 465.692 -1.32411 1.43151 0
M  V30 4842 O 464.962 -1.863 0.605728 0
M  V30 4843 H 463.542 0.00788672 0.746958 0
M  V30 4844 H 466.204 0.723934 1.80956 0
M  V30 4845 H 465.3 -0.0606745 3.12041 0
M  V30 4846 N 465.601 -1.54893 0.290851 0
M  V30 4847 C 466.849 -1.99538 -0.320756 0
M  V30 4848 C 467.17 -1.18075 -1.55188 0
M  V30 4849 O 466.44 -0.274162 -1.93972 0
M  V30 4850 H 465.02 -0.737052 -0.121507 0
M  V30 4851 H 467.682 -1.90755 0.399832 0
M  V30 4852 H 466.778 -3.06282 -0.599802 0
M  V30 4853 N 467.08 -0.0183926 -1.57589 0
M  V30 4854 C 468.027 0.967022 -2.09565 0
M  V30 4855 C 468.997 1.32983 -0.995225 0
M  V30 4856 O 470.182 1.42501 -1.26878 0
M  V30 4857 C 467.322 2.24772 -2.61861 0
M  V30 4858 C 466.435 1.94232 -3.85873 0
M  V30 4859 C 465.57 3.16518 -4.26603 0
M  V30 4860 C 464.609 2.81748 -5.43401 0
M  V30 4861 N 463.746 3.96626 -5.79338 0
M  V30 4862 H 468.586 0.516874 -2.93483 0
M  V30 4863 H 466.123 0.243544 -1.4507 0
M  V30 4864 H 468.081 2.99667 -2.90268 0
M  V30 4865 H 466.711 2.67423 -1.8079 0
M  V30 4866 H 465.763 1.09625 -3.64262 0
M  V30 4867 H 467.075 1.64616 -4.70853 0
M  V30 4868 H 466.229 3.99743 -4.56389 0
M  V30 4869 H 464.968 3.49286 -3.40368 0
M  V30 4870 H 463.973 1.96933 -5.1332 0
M  V30 4871 H 465.198 2.50207 -6.31327 0
M  V30 4872 H 463.144 4.29257 -4.96059 0
M  V30 4873 H 463.061 3.70598 -6.58933 0
M  V30 4874 H 464.329 4.80586 -6.13724 0
M  V30 4875 N 468.558 1.5553 0.254621 0
M  V30 4876 C 469.505 1.89666 1.31512 0
M  V30 4877 C 470.475 0.750057 1.482 0
M  V30 4878 O 471.66 1.00301 1.62309 0
M  V30 4879 C 468.8 2.19009 2.667 0
M  V30 4880 C 467.913 3.46435 2.58083 0
M  V30 4881 C 467.048 3.65386 3.85573 0
M  V30 4882 C 466.087 4.8644 3.71541 0
M  V30 4883 N 465.224 5.01952 4.90906 0
M  V30 4884 H 470.064 2.80109 1.017 0
M  V30 4885 H 467.601 1.38666 0.490938 0
M  V30 4886 H 469.559 2.34025 3.45381 0
M  V30 4887 H 468.189 1.31779 2.94676 0
M  V30 4888 H 467.241 3.39792 1.71013 0
M  V30 4889 H 468.553 4.35258 2.43622 0
M  V30 4890 H 467.707 3.80319 4.72697 0
M  V30 4891 H 466.446 2.74781 4.02922 0
M  V30 4892 H 465.451 4.71491 2.82801 0
M  V30 4893 H 466.676 5.78497 3.55694 0
M  V30 4894 H 464.622 4.14283 5.08631 0
M  V30 4895 H 464.539 5.84851 4.79046 0
M  V30 4896 H 465.807 5.21289 5.7955 0
M  V30 4897 N 470.036 -0.519951 1.48776 0
M  V30 4898 C 470.946 -1.65025 1.66745 0
M  V30 4899 C 471.962 -1.6508 0.549954 0
M  V30 4900 O 473.138 -1.83848 0.822295 0
M  V30 4901 C 470.203 -3.0146 1.71238 0
M  V30 4902 C 469.264 -3.12182 2.94688 0
M  V30 4903 C 468.497 -4.42109 2.98958 0
M  V30 4904 O 468.72 -5.29799 2.1135 0
M  V30 4905 O 467.654 -4.57406 3.91233 0
M  V30 4906 H 471.48 -1.52801 2.62461 0
M  V30 4907 H 469.065 -0.694157 1.32294 0
M  V30 4908 H 470.947 -3.82584 1.76657 0
M  V30 4909 H 469.622 -3.13988 0.786975 0
M  V30 4910 H 468.529 -2.30316 2.94797 0
M  V30 4911 H 469.862 -3.04574 3.86646 0
M  V30 4912 N 471.514 -1.37532 -0.769588 0
M  V30 4913 C 472.462 -1.33561 -1.90432 0
M  V30 4914 C 473.456 -0.224027 -1.67912 0
M  V30 4915 O 474.662 -0.392174 -1.75676 0
M  V30 4916 H 471.037 -0.416279 -0.626271 0
M  V30 4917 H 473.008 -2.29348 -1.90899 0
M  V30 4918 C 471.757 -1.16162 -3.27722 0
M  V30 4919 H 471.08 -2.00951 -3.45628 0
M  V30 4920 H 472.52 -1.17434 -4.07413 0
M  V30 4921 C 470.979 0.132583 -3.36639 0
M  V30 4922 O 471.509 1.11539 -3.85904 0
M  V30 4923 N 469.715 0.184013 -2.90017 0
M  V30 4924 H 469.262 -0.616415 -2.50116 0
M  V30 4925 H 469.22 1.04956 -2.96364 0
M  V30 4926 N 472.992 0.995999 -1.22138 0
M  V30 4927 C 473.922 2.10387 -1.01289 0
M  V30 4928 C 474.903 1.69975 0.0651454 0
M  V30 4929 O 476.088 1.9396 -0.0964628 0
M  V30 4930 C 473.218 3.42312 -0.586517 0
M  V30 4931 C 472.172 3.96558 -1.61014 0
M  V30 4932 C 471.498 5.24494 -1.0397 0
M  V30 4933 C 472.798 4.27595 -2.99933 0
M  V30 4934 H 474.492 2.28086 -1.93951 0
M  V30 4935 H 472.038 1.09607 -0.933928 0
M  V30 4936 H 473.991 4.19223 -0.427793 0
M  V30 4937 H 472.715 3.24431 0.375761 0
M  V30 4938 H 471.374 3.21776 -1.75658 0
M  V30 4939 H 471.022 5.02953 -0.0688703 0
M  V30 4940 H 470.722 5.61755 -1.72352 0
M  V30 4941 H 472.246 6.04042 -0.892494 0
M  V30 4942 H 473.66 4.95315 -2.8868 0
M  V30 4943 H 472.057 4.76021 -3.6541 0
M  V30 4944 H 473.127 3.35498 -3.50099 0
M  V30 4945 N 474.47 1.03057 1.19235 0
M  V30 4946 C 475.417 0.612832 2.22515 0
M  V30 4947 C 476.387 -0.374224 1.61829 0
M  V30 4948 O 477.572 -0.270501 1.88873 0
M  V30 4949 C 474.712 -0.028475 3.45088 0
M  V30 4950 C 473.825 1.00483 4.20151 0
M  V30 4951 C 472.96 0.333102 5.30155 0
M  V30 4952 C 471.999 1.3522 5.96977 0
M  V30 4953 N 471.136 0.70616 6.9854 0
M  V30 4954 H 475.976 1.49812 2.57605 0
M  V30 4955 H 473.513 0.749658 1.26564 0
M  V30 4956 H 475.471 -0.417548 4.15105 0
M  V30 4957 H 474.101 -0.877334 3.10649 0
M  V30 4958 H 473.153 1.51194 3.49062 0
M  V30 4959 H 474.465 1.77929 4.65986 0
M  V30 4960 H 473.619 -0.110725 6.06599 0
M  V30 4961 H 472.358 -0.473547 4.85396 0
M  V30 4962 H 471.363 1.80627 5.19282 0
M  V30 4963 H 472.588 2.16037 6.4382 0
M  V30 4964 H 470.534 -0.0803667 6.55951 0
M  V30 4965 H 470.451 1.41848 7.42573 0
M  V30 4966 H 471.719 0.286391 7.78974 0
M  V30 4967 N 475.948 -1.35272 0.808662 0
M  V30 4968 C 476.911 -2.28082 0.226093 0
M  V30 4969 C 477.911 -1.49673 -0.587762 0
M  V30 4970 O 479.101 -1.69404 -0.405943 0
M  V30 4971 C 476.233 -3.33955 -0.684596 0
M  V30 4972 H 477.426 -2.81116 1.04469 0
M  V30 4973 H 474.979 -1.45162 0.579466 0
M  V30 4974 H 475.714 -2.86111 -1.5268 0
M  V30 4975 H 475.499 -3.91965 -0.102699 0
M  V30 4976 H 476.989 -4.03219 -1.08646 0
M  V30 4977 N 477.426 -0.562348 -1.47226 0
M  V30 4978 C 478.389 0.172056 -2.28553 0
M  V30 4979 C 479.389 0.837928 -1.37242 0
M  V30 4980 O 480.579 0.693001 -1.59822 0
M  V30 4981 C 477.711 1.25223 -3.17068 0
M  V30 4982 H 478.904 -0.542401 -2.94954 0
M  V30 4983 H 476.457 -0.319493 -1.53 0
M  V30 4984 H 477.192 1.99892 -2.55369 0
M  V30 4985 H 476.977 0.779515 -3.84273 0
M  V30 4986 H 478.467 1.76791 -3.78332 0
M  V30 4987 N 478.904 1.54736 -0.299062 0
M  V30 4988 C 479.836 2.20891 0.61153 0
M  V30 4989 C 480.849 1.20104 1.09904 0
M  V30 4990 O 482.038 1.46707 1.01683 0
M  V30 4991 C 479.138 2.84018 1.84897 0
M  V30 4992 C 478.311 4.10719 1.50428 0
M  V30 4993 C 477.37 4.57667 2.59667 0
M  V30 4994 O 476.396 5.2291 2.24842 0
M  V30 4995 N 477.598 4.29821 3.90172 0
M  V30 4996 H 480.363 2.99666 0.0452001 0
M  V30 4997 H 477.924 1.61446 -0.121178 0
M  V30 4998 H 479.916 3.1236 2.5732 0
M  V30 4999 H 478.486 2.09095 2.32375 0
M  V30 5000 H 477.706 3.89408 0.612781 0
M  V30 5001 H 478.994 4.93223 1.24934 0
M  V30 5002 H 478.392 3.77549 4.21276 0
M  V30 5003 H 476.949 4.62877 4.58899 0
M  V30 5004 N 480.382 0.0267497 1.57577 0
M  V30 5005 C 481.292 -0.971633 2.13533 0
M  V30 5006 C 482.308 -1.35868 1.08701 0
M  V30 5007 O 483.484 -1.44058 1.40746 0
M  V30 5008 C 480.549 -2.23622 2.64941 0
M  V30 5009 C 479.61 -1.90982 3.8448 0
M  V30 5010 C 478.843 -3.11411 4.33427 0
M  V30 5011 O 479.066 -4.23992 3.81558 0
M  V30 5012 O 478 -2.93848 5.25297 0
M  V30 5013 H 481.826 -0.525853 2.99113 0
M  V30 5014 H 479.411 -0.193712 1.48139 0
M  V30 5015 H 481.293 -2.97864 2.98086 0
M  V30 5016 H 479.968 -2.67386 1.82446 0
M  V30 5017 H 478.875 -1.14132 3.56265 0
M  V30 5018 H 480.208 -1.52036 4.6813 0
M  V30 5019 N 481.861 -1.55662 -0.24637 0
M  V30 5020 C 482.771 -1.93495 -1.32653 0
M  V30 5021 C 483.787 -0.835462 -1.5263 0
M  V30 5022 O 484.963 -1.1369 -1.66242 0
M  V30 5023 C 482.028 -2.22242 -2.66101 0
M  V30 5024 C 481.089 -3.45625 -2.54641 0
M  V30 5025 C 480.322 -3.72991 -3.81724 0
M  V30 5026 O 480.545 -3.02421 -4.8363 0
M  V30 5027 O 479.479 -4.66515 -3.80325 0
M  V30 5028 H 483.305 -2.85498 -1.03559 0
M  V30 5029 H 480.89 -1.42551 -0.44717 0
M  V30 5030 H 482.772 -2.42037 -3.44958 0
M  V30 5031 H 481.447 -1.33417 -2.94926 0
M  V30 5032 H 480.354 -3.31136 -1.74067 0
M  V30 5033 H 481.687 -4.34754 -2.3076 0
M  V30 5034 N 483.339 0.512053 -1.4905 0
M  V30 5035 C 484.569 1.28928 -1.61434 0
M  V30 5036 C 484.977 1.87107 -0.280647 0
M  V30 5037 O 484.32 1.68024 0.742537 0
M  V30 5038 C 484.382 2.466 -2.61588 0
M  V30 5039 C 484.046 2.09375 -4.06216 0
M  V30 5040 C 485.043 1.63994 -4.93358 0
M  V30 5041 C 482.728 2.19348 -4.51876 0
M  V30 5042 C 484.722 1.29076 -6.24194 0
M  V30 5043 C 482.409 1.84041 -5.82728 0
M  V30 5044 C 483.407 1.38978 -6.68711 0
M  V30 5045 O 483.095 1.04144 -7.97126 0
M  V30 5046 H 482.827 0.397668 -0.546659 0
M  V30 5047 H 485.381 0.622507 -1.9574 0
M  V30 5048 H 483.611 3.16318 -2.22441 0
M  V30 5049 H 485.3 3.08642 -2.63619 0
M  V30 5050 H 486.066 1.55744 -4.59313 0
M  V30 5051 H 481.945 2.53376 -3.85125 0
M  V30 5052 H 485.489 0.938303 -6.91261 0
M  V30 5053 H 481.386 1.91938 -6.16304 0
M  V30 5054 H 482.154 1.17387 -8.10039 0
M  V30 5055 N 484.817 1.37938 0.762283 0
M  V30 5056 C 486.063 1.33866 1.52341 0
M  V30 5057 C 486.396 -0.0738961 1.94059 0
M  V30 5058 O 485.671 -1.03326 1.64785 0
M  V30 5059 C 485.954 2.28644 2.78197 0
M  V30 5060 C 485.807 3.78722 2.42672 0
M  V30 5061 C 487.126 2.21702 3.80179 0
M  V30 5062 H 484.245 0.487593 0.55265 0
M  V30 5063 H 486.887 1.68717 0.873767 0
M  V30 5064 H 485.037 1.99055 3.33631 0
M  V30 5065 H 486.709 4.18948 1.93081 0
M  V30 5066 H 484.952 3.96827 1.75244 0
M  V30 5067 H 485.623 4.40486 3.3268 0
M  V30 5068 H 488.099 2.47805 3.34263 0
M  V30 5069 H 486.975 2.90143 4.65949 0
M  V30 5070 H 487.236 1.21301 4.25133 0
M  V30 5071 N 486.295 -0.989507 1.22664 0
M  V30 5072 C 487.242 -2.08024 0.999733 0
M  V30 5073 C 488.212 -1.65909 -0.0797047 0
M  V30 5074 O 489.397 -1.90669 0.0705715 0
M  V30 5075 C 486.537 -3.40067 0.587234 0
M  V30 5076 C 485.65 -3.95505 1.73781 0
M  V30 5077 C 484.785 -5.15722 1.27297 0
M  V30 5078 C 483.824 -5.63305 2.39488 0
M  V30 5079 N 482.961 -6.74758 1.94026 0
M  V30 5080 H 487.801 -2.26768 1.9334 0
M  V30 5081 H 485.338 -1.11171 0.963297 0
M  V30 5082 H 487.296 -4.15899 0.329227 0
M  V30 5083 H 485.926 -3.21314 -0.309426 0
M  V30 5084 H 484.978 -3.16513 2.11006 0
M  V30 5085 H 486.29 -4.26797 2.58158 0
M  V30 5086 H 485.444 -5.98854 0.972546 0
M  V30 5087 H 484.183 -4.86061 0.399445 0
M  V30 5088 H 483.188 -4.78759 2.70315 0
M  V30 5089 H 484.413 -5.94988 3.27362 0
M  V30 5090 H 482.359 -6.46874 1.09041 0
M  V30 5091 H 482.276 -7.05386 2.71968 0
M  V30 5092 H 483.544 -7.61387 1.67062 0
M  V30 5093 N 487.773 -1.03688 -1.18687 0
M  V30 5094 C 489.189 -0.755413 -1.4059 0
M  V30 5095 C 489.389 0.656659 -1.905 0
M  V30 5096 O 488.445 1.42144 -2.08689 0
M  V30 5097 C 489.758 -1.7983 -2.41001 0
M  V30 5098 C 491.306 -1.81877 -2.54735 0
M  V30 5099 C 491.781 -2.85148 -3.58406 0
M  V30 5100 N 493.272 -2.84015 -3.6591 0
M  V30 5101 C 494.007 -3.60573 -4.45841 0
M  V30 5102 N 493.503 -4.46871 -5.29413 0
M  V30 5103 N 495.296 -3.49079 -4.40568 0
M  V30 5104 H 487.447 -1.94818 -0.846148 0
M  V30 5105 H 489.71 -0.842727 -0.434184 0
M  V30 5106 H 489.416 -2.81097 -2.1137 0
M  V30 5107 H 489.29 -1.62727 -3.40294 0
M  V30 5108 H 491.677 -0.812836 -2.83685 0
M  V30 5109 H 491.758 -2.03057 -1.55568 0
M  V30 5110 H 491.402 -3.85918 -3.30197 0
M  V30 5111 H 491.332 -2.61224 -4.57241 0
M  V30 5112 H 493.823 -2.21431 -3.0623 0
M  V30 5113 H 494.136 -5.02007 -5.87545 0
M  V30 5114 H 492.481 -4.5094 -5.28846 0
M  V30 5115 H 495.672 -2.81066 -3.74325 0
M  V30 5116 H 495.845 -4.08994 -5.02621 0
M  V30 5117 N 489.251 1.34841 -0.815825 0
M  V30 5118 C 490.214 2.27959 -0.238185 0
M  V30 5119 C 491.214 1.49983 0.579816 0
M  V30 5120 O 492.404 1.69617 0.396953 0
M  V30 5121 C 489.536 3.34314 0.666876 0
M  V30 5122 H 490.729 2.80558 -1.05958 0
M  V30 5123 H 488.282 1.44852 -0.587156 0
M  V30 5124 H 489.017 2.86916 1.5116 0
M  V30 5125 H 488.802 3.92014 0.0819106 0
M  V30 5126 H 490.292 4.0379 1.06506 0
M  V30 5127 N 490.729 0.570148 1.46925 0
M  V30 5128 C 491.659 -0.158274 2.32963 0
M  V30 5129 C 492.64 -0.896093 1.44583 0
M  V30 5130 O 493.825 -0.874022 1.7342 0
M  V30 5131 C 490.955 -1.18055 3.26619 0
M  V30 5132 C 489.909 -0.558379 4.24342 0
M  V30 5133 C 489.235 -1.68623 5.07415 0
M  V30 5134 C 490.535 0.496295 5.19937 0
M  V30 5135 H 492.229 0.560046 2.94115 0
M  V30 5136 H 489.775 0.270775 1.41431 0
M  V30 5137 H 491.728 -1.69841 3.85658 0
M  V30 5138 H 490.452 -1.92899 2.63548 0
M  V30 5139 H 489.111 -0.0617157 3.66548 0
M  V30 5140 H 488.759 -2.42402 4.40738 0
M  V30 5141 H 488.459 -1.27564 5.73586 0
M  V30 5142 H 489.983 -2.20709 5.69315 0
M  V30 5143 H 491.397 0.0640052 5.73264 0
M  V30 5144 H 489.794 0.82649 5.94381 0
M  V30 5145 H 490.864 1.38735 4.6463 0
M  V30 5146 N 492.207 -1.54576 0.307264 0
M  V30 5147 C 493.17 -2.22423 -0.553224 0
M  V30 5148 C 494.17 -1.21231 -1.05639 0
M  V30 5149 O 495.36 -1.45923 -0.951419 0
M  V30 5150 C 492.492 -2.91552 -1.76664 0
M  V30 5151 H 493.685 -2.99874 0.0396484 0
M  V30 5152 H 491.238 -1.56192 0.0581629 0
M  V30 5153 H 491.973 -2.18196 -2.39918 0
M  V30 5154 H 491.758 -3.65738 -1.41343 0
M  V30 5155 H 493.248 -3.43292 -2.37783 0
M  V30 5156 N 493.685 -0.035106 -1.57561 0
M  V30 5157 C 494.633 0.962707 -2.11742 0
M  V30 5158 C 495.627 1.33296 -1.0454 0
M  V30 5159 O 496.833 1.31449 -1.22968 0
M  V30 5160 H 493.208 0.32826 -0.676572 0
M  V30 5161 H 495.179 0.48048 -2.94506 0
M  V30 5162 C 493.928 2.23388 -2.66445 0
M  V30 5163 H 493.251 1.95774 -3.48587 0
M  V30 5164 H 494.691 2.91402 -3.07995 0
M  V30 5165 C 493.15 2.96769 -1.59467 0
M  V30 5166 O 493.68 3.89105 -0.998 0
M  V30 5167 N 491.886 2.59212 -1.31369 0
M  V30 5168 H 491.433 1.84202 -1.80076 0
M  V30 5169 H 491.391 3.08618 -0.600173 0
M  V30 5170 N 495.163 1.55791 0.238111 0
M  V30 5171 C 496.388 1.8244 0.986432 0
M  V30 5172 C 496.813 0.613314 1.7782 0
M  V30 5173 O 496.171 -0.437767 1.75935 0
M  V30 5174 C 496.219 3.06917 1.893 0
M  V30 5175 O 495.323 2.84449 2.98601 0
M  V30 5176 H 494.664 0.601975 0.280218 0
M  V30 5177 H 497.194 2.02987 0.256437 0
M  V30 5178 H 497.204 3.36583 2.30598 0
M  V30 5179 H 495.879 3.947 1.31091 0
M  V30 5180 H 494.456 2.65972 2.61368 0
M  V30 5181 N 496.642 -0.504142 1.49319 0
M  V30 5182 C 497.572 -1.61473 1.68667 0
M  V30 5183 C 498.553 -1.61455 0.535378 0
M  V30 5184 O 499.738 -1.78245 0.770868 0
M  V30 5185 C 496.868 -2.99971 1.75028 0
M  V30 5186 C 495.822 -3.14854 2.89916 0
M  V30 5187 C 495.148 -4.54671 2.81387 0
M  V30 5188 C 496.448 -2.95176 4.30893 0
M  V30 5189 H 498.142 -1.45535 2.61648 0
M  V30 5190 H 495.688 -0.698711 1.25913 0
M  V30 5191 H 497.641 -3.77562 1.8715 0
M  V30 5192 H 496.365 -3.1699 0.786441 0
M  V30 5193 H 495.024 -2.39687 2.77391 0
M  V30 5194 H 494.672 -4.68562 1.82917 0
M  V30 5195 H 494.372 -4.6557 3.58494 0
M  V30 5196 H 495.896 -5.34327 2.95512 0
M  V30 5197 H 497.31 -3.62538 4.44116 0
M  V30 5198 H 495.707 -3.17549 5.09198 0
M  V30 5199 H 496.777 -1.91332 4.45556 0
M  V30 5200 N 498.12 -1.38341 -0.754957 0
M  V30 5201 C 499.083 -1.35262 -1.85032 0
M  V30 5202 C 500.083 -0.253393 -1.58791 0
M  V30 5203 O 501.273 -0.510205 -1.66561 0
M  V30 5204 C 498.405 -1.10544 -3.22479 0
M  V30 5205 H 499.598 -2.32712 -1.8917 0
M  V30 5206 H 497.151 -1.23614 -0.956515 0
M  V30 5207 H 497.886 -0.136952 -3.24011 0
M  V30 5208 H 497.671 -1.90127 -3.4292 0
M  V30 5209 H 499.161 -1.11082 -4.02555 0
M  V30 5210 N 499.598 0.982988 -1.23187 0
M  V30 5211 C 500.838 1.73903 -1.07412 0
M  V30 5212 C 501.202 1.88146 0.382764 0
M  V30 5213 O 502.403 2.6053 0.661638 0
M  V30 5214 C 500.674 3.10105 -1.77678 0
M  V30 5215 S 502.233 4.01323 -1.77441 0
M  V30 5216 H 499.051 0.598093 -0.384456 0
M  V30 5217 H 501.653 1.17456 -1.56283 0
M  V30 5218 H 500.357 2.97388 -2.82822 0
M  V30 5219 H 499.888 3.71622 -1.29077 0
M  V30 5220 H 501.903 4.89189 -0.831162 0
M  V30 5221 N 501.076 1.04316 1.18135 0
M  V30 5222 C 502.008 0.594444 2.21357 0
M  V30 5223 C 503.021 -0.337215 1.59269 0
M  V30 5224 O 504.21 -0.131337 1.78016 0
M  V30 5225 C 501.31 -0.151251 3.38562 0
M  V30 5226 C 500.483 0.788907 4.30227 0
M  V30 5227 C 499.542 0.0860572 5.2613 0
M  V30 5228 O 498.568 0.717302 5.64662 0
M  V30 5229 N 499.77 -1.17969 5.68387 0
M  V30 5230 H 502.535 1.48227 2.60478 0
M  V30 5231 H 500.096 0.92396 1.32946 0
M  V30 5232 H 502.088 -0.631352 3.99745 0
M  V30 5233 H 500.658 -0.940639 2.98112 0
M  V30 5234 H 499.878 1.44882 3.6661 0
M  V30 5235 H 501.166 1.42738 4.88368 0
M  V30 5236 H 500.564 -1.71302 5.3914 0
M  V30 5237 H 499.121 -1.60402 6.31755 0
M  V30 5238 N 502.554 -1.34406 0.822964 0
M  V30 5239 C 503.802 -1.97892 0.410245 0
M  V30 5240 C 504.123 -1.65567 -1.03017 0
M  V30 5241 O 503.393 -0.94642 -1.71522 0
M  V30 5242 H 501.973 -0.732049 0.148707 0
M  V30 5243 H 504.635 -1.64043 1.05242 0
M  V30 5244 H 503.731 -3.07579 0.529284 0
M  V30 5245 N 504.032 -0.577932 -1.46621 0
M  V30 5246 C 504.979 0.158048 -2.30258 0
M  V30 5247 C 505.949 0.888669 -1.40328 0
M  V30 5248 O 507.134 0.880283 -1.6928 0
M  V30 5249 C 504.274 1.16884 -3.24703 0
M  V30 5250 C 503.387 0.442163 -4.29731 0
M  V30 5251 C 502.522 1.44007 -5.11308 0
M  V30 5252 C 501.561 0.69952 -6.0809 0
M  V30 5253 N 500.698 1.64525 -6.82551 0
M  V30 5254 H 505.538 -0.561242 -2.92667 0
M  V30 5255 H 503.075 -0.288591 -1.44241 0
M  V30 5256 H 505.033 1.7677 -3.779 0
M  V30 5257 H 503.663 1.85591 -2.64113 0
M  V30 5258 H 502.715 -0.271632 -3.79429 0
M  V30 5259 H 504.027 -0.136992 -4.98612 0
M  V30 5260 H 503.181 2.11186 -5.68758 0
M  V30 5261 H 501.92 2.05315 -4.42377 0
M  V30 5262 H 500.925 0.0139217 -5.49798 0
M  V30 5263 H 502.15 0.091894 -6.79038 0
M  V30 5264 H 500.096 2.24653 -6.16334 0
M  V30 5265 H 500.013 1.11878 -7.47676 0
M  V30 5266 H 501.281 2.30754 -7.44562 0
M  V30 5267 N 505.51 1.54411 -0.315457 0
M  V30 5268 C 506.74 2.04536 0.291315 0
M  V30 5269 C 507.148 1.19162 1.4696 0
M  V30 5270 O 506.491 0.213199 1.82459 0
M  V30 5271 C 506.553 3.5056 0.796725 0
M  V30 5272 C 506.217 4.5627 -0.258178 0
M  V30 5273 C 507.214 5.08312 -1.09153 0
M  V30 5274 C 504.899 5.00672 -0.404036 0
M  V30 5275 C 506.893 6.03312 -2.05655 0
M  V30 5276 C 504.58 5.95488 -1.37248 0
M  V30 5277 C 505.578 6.46693 -2.19721 0
M  V30 5278 O 505.266 7.39648 -3.14921 0
M  V30 5279 H 504.998 0.672856 0.0651165 0
M  V30 5280 H 507.552 2.00244 -0.457308 0
M  V30 5281 H 505.782 3.52223 1.59612 0
M  V30 5282 H 507.471 3.83804 1.32096 0
M  V30 5283 H 508.237 4.74793 -0.98979 0
M  V30 5284 H 504.116 4.60436 0.22799 0
M  V30 5285 H 507.66 6.43203 -2.70067 0
M  V30 5286 H 503.557 6.28424 -1.47489 0
M  V30 5287 H 504.325 7.57496 -3.10067 0
M  V30 5288 N 506.988 0.0434614 1.5754 0
M  V30 5289 C 508.216 -0.641835 1.96693 0
M  V30 5290 C 508.631 -1.64832 0.920652 0
M  V30 5291 O 507.988 -1.82247 -0.095993 0
M  V30 5292 C 508.039 -1.33557 3.35924 0
M  V30 5293 O 507.76 -0.369403 4.3654 0
M  V30 5294 C 509.261 -2.11135 3.89791 0
M  V30 5295 H 506.481 -0.176013 0.647503 0
M  V30 5296 H 509.025 0.107478 2.04217 0
M  V30 5297 H 507.18 -2.03617 3.29574 0
M  V30 5298 H 507.594 -0.863674 5.1734 0
M  V30 5299 H 509.068 -2.55107 4.89514 0
M  V30 5300 H 509.545 -2.95634 3.24803 0
M  V30 5301 H 510.151 -1.46002 3.99454 0
M  V30 5302 N 508.466 -1.55915 -0.229846 0
M  V30 5303 C 509.877 -1.68809 -0.797531 0
M  V30 5304 C 510.228 -0.643995 -1.8533 0
M  V30 5305 O 509.353 0.206492 -2.15413 0
M  V30 5306 C 509.948 -3.06043 -1.45338 0
M  V30 5307 C 508.507 -3.20819 -1.96856 0
M  V30 5308 C 507.654 -2.6472 -0.825736 0
M  V30 5309 H 510.605 -1.58699 -0.00533733 0
M  V30 5310 H 510.626 -3.01438 -2.32196 0
M  V30 5311 H 510.138 -3.82012 -0.684743 0
M  V30 5312 H 508.239 -2.49704 -2.76548 0
M  V30 5313 H 508.352 -4.27937 -2.15423 0
M  V30 5314 H 506.716 -2.22985 -1.23084 0
M  V30 5315 H 507.499 -3.43229 -0.0699019 0
M  V30 5316 N 509.944 0.496216 -1.49584 0
M  V30 5317 C 511.169 1.27865 -1.63295 0
M  V30 5318 C 511.594 1.85592 -0.306156 0
M  V30 5319 O 510.952 1.66092 0.726851 0
M  V30 5320 C 511 2.38128 -2.7079 0
M  V30 5321 O 510.104 3.42108 -2.30296 0
M  V30 5322 H 509.445 0.377279 -0.546403 0
M  V30 5323 H 511.975 0.593497 -1.95803 0
M  V30 5324 H 511.985 2.8382 -2.93104 0
M  V30 5325 H 510.66 1.95479 -3.67098 0
M  V30 5326 H 509.237 3.02301 -2.18331 0
M  V30 5327 N 511.423 1.38739 0.74761 0
M  V30 5328 C 512.671 1.35007 1.50391 0
M  V30 5329 C 512.992 -0.0574274 1.94915 0
M  V30 5330 O 512.262 -1.00628 1.6808 0
M  V30 5331 H 510.842 0.496784 0.557866 0
M  V30 5332 H 513.504 1.73479 0.888319 0
M  V30 5333 H 512.6 2.00474 2.392 0
M  V30 5334 N 512.901 -0.976442 1.23707 0
M  V30 5335 C 513.833 -2.07212 0.979574 0
M  V30 5336 C 514.846 -1.6273 -0.0478528 0
M  V30 5337 O 516.035 -1.77506 0.18815 0
M  V30 5338 C 513.135 -3.35835 0.45479 0
M  V30 5339 C 512.308 -4.09268 1.54331 0
M  V30 5340 C 511.367 -5.16166 1.02271 0
M  V30 5341 O 510.393 -5.42827 1.71254 0
M  V30 5342 N 511.595 -5.80313 -0.147419 0
M  V30 5343 H 514.36 -2.29878 1.92292 0
M  V30 5344 H 511.921 -1.14343 1.14618 0
M  V30 5345 H 513.913 -4.04597 0.0914631 0
M  V30 5346 H 512.483 -3.10106 -0.394068 0
M  V30 5347 H 511.703 -3.34906 2.07923 0
M  V30 5348 H 512.991 -4.55095 2.27522 0
M  V30 5349 H 512.389 -5.61043 -0.724353 0
M  V30 5350 H 510.946 -6.50231 -0.451972 0
M  V30 5351 N 514.379 -1.04941 -1.1758 0
M  V30 5352 C 515.342 -0.652456 -2.19717 0
M  V30 5353 C 516.342 0.294745 -1.58076 0
M  V30 5354 O 517.532 0.0789579 -1.74021 0
M  V30 5355 C 514.664 0.0420712 -3.40874 0
M  V30 5356 H 515.857 -1.55642 -2.5635 0
M  V30 5357 H 513.41 -0.842995 -1.31618 0
M  V30 5358 H 514.145 0.95943 -3.09783 0
M  V30 5359 H 513.93 -0.638844 -3.86861 0
M  V30 5360 H 515.42 0.306 -4.16477 0
M  V30 5361 N 515.857 1.33968 -0.830081 0
M  V30 5362 C 517.105 1.97672 -0.420734 0
M  V30 5363 C 517.426 1.66111 1.02138 0
M  V30 5364 O 516.696 0.955503 1.71017 0
M  V30 5365 H 515.276 0.73125 -0.152587 0
M  V30 5366 H 517.938 1.63483 -1.0611 0
M  V30 5367 H 517.034 3.07294 -0.545588 0
M  V30 5368 N 517.335 0.585699 1.46312 0
M  V30 5369 C 518.298 -0.135673 2.28798 0
M  V30 5370 C 519.298 -0.815988 1.38558 0
M  V30 5371 O 520.488 -0.667487 1.60904 0
M  V30 5372 C 517.62 -1.20163 3.1902 0
M  V30 5373 H 518.813 0.589257 2.94054 0
M  V30 5374 H 516.366 0.343794 1.52472 0
M  V30 5375 H 517.101 -1.95804 2.58517 0
M  V30 5376 H 516.886 -0.718282 3.85465 0
M  V30 5377 H 518.376 -1.70749 3.81096 0
M  V30 5378 N 518.813 -1.54241 0.323641 0
M  V30 5379 C 519.776 -2.22997 -0.529602 0
M  V30 5380 C 520.776 -1.22345 -1.04347 0
M  V30 5381 O 521.966 -1.46924 -0.935889 0
M  V30 5382 C 519.098 -2.93409 -1.73562 0
M  V30 5383 H 520.291 -2.99815 0.0714518 0
M  V30 5384 H 517.844 -1.56121 0.0747258 0
M  V30 5385 H 518.579 -2.20729 -2.37591 0
M  V30 5386 H 518.364 -3.67217 -1.37456 0
M  V30 5387 H 519.854 -3.45794 -2.34128 0
M  V30 5388 N 520.291 -0.0518155 -1.57515 0
M  V30 5389 C 521.254 0.907547 -2.10467 0
M  V30 5390 C 522.254 1.23947 -1.02439 0
M  V30 5391 O 523.444 1.17604 -1.2851 0
M  V30 5392 C 520.576 2.21723 -2.58944 0
M  V30 5393 H 521.769 0.44851 -2.96527 0
M  V30 5394 H 519.322 0.196598 -1.55059 0
M  V30 5395 H 520.057 2.72206 -1.76279 0
M  V30 5396 H 519.842 1.98935 -3.37886 0
M  V30 5397 H 521.332 2.90441 -3.00056 0
M  V30 5398 N 521.769 1.56035 0.221574 0
M  V30 5399 C 522.994 1.83476 0.967026 0
M  V30 5400 C 523.419 0.632139 1.7716 0
M  V30 5401 O 522.777 -0.419082 1.7639 0
M  V30 5402 C 522.825 3.08907 1.86034 0
M  V30 5403 O 521.929 2.876 2.95567 0
M  V30 5404 H 521.27 0.604913 0.273817 0
M  V30 5405 H 523.8 2.03247 0.234893 0
M  V30 5406 H 523.81 3.3901 2.27016 0
M  V30 5407 H 522.485 3.96068 1.26898 0
M  V30 5408 H 521.062 2.6873 2.58532 0
M  V30 5409 N 523.247 -0.488276 1.49845 0
M  V30 5410 C 524.157 -1.61451 1.70207 0
M  V30 5411 C 525.173 -1.63877 0.584846 0
M  V30 5412 O 526.349 -1.82063 0.861107 0
M  V30 5413 C 523.414 -2.9776 1.77594 0
M  V30 5414 C 522.475 -3.05861 3.01243 0
M  V30 5415 C 521.708 -4.35668 3.08268 0
M  V30 5416 O 521.931 -5.25197 2.22541 0
M  V30 5417 O 520.865 -4.49005 4.00847 0
M  V30 5418 H 524.691 -1.47199 2.65643 0
M  V30 5419 H 522.276 -0.665939 1.33737 0
M  V30 5420 H 524.158 -3.7875 1.84732 0
M  V30 5421 H 522.833 -3.12248 0.8534 0
M  V30 5422 H 521.74 -2.24012 2.99616 0
M  V30 5423 H 523.073 -2.96304 3.9302 0
M  V30 5424 N 524.725 -1.39134 -0.740242 0
M  V30 5425 C 525.95 -1.39518 -1.53459 0
M  V30 5426 C 526.375 0.00968883 -1.88098 0
M  V30 5427 O 525.733 0.995312 -1.51536 0
M  V30 5428 C 525.781 -2.26981 -2.802 0
M  V30 5429 O 524.885 -1.69609 -3.75908 0
M  V30 5430 H 524.226 -0.475328 -0.463637 0
M  V30 5431 H 526.756 -1.83064 -0.913717 0
M  V30 5432 H 526.766 -2.41309 -3.28989 0
M  V30 5433 H 525.441 -3.29081 -2.5432 0
M  V30 5434 H 524.018 -1.64495 -3.34658 0
M  V30 5435 N 526.204 0.969867 -1.24223 0
M  V30 5436 C 527.134 2.08191 -1.05729 0
M  V30 5437 C 528.115 1.70075 0.0290765 0
M  V30 5438 O 529.3 1.93712 -0.137583 0
M  V30 5439 C 526.43 3.40991 -0.658995 0
M  V30 5440 C 525.384 3.93054 -1.69389 0
M  V30 5441 C 524.71 5.22171 -1.15072 0
M  V30 5442 C 526.01 4.21137 -3.08935 0
M  V30 5443 H 527.704 2.23921 -1.98746 0
M  V30 5444 H 525.25 1.07602 -0.956967 0
M  V30 5445 H 527.203 4.18221 -0.51662 0
M  V30 5446 H 525.927 3.25155 0.30686 0
M  V30 5447 H 524.586 3.17977 -1.82444 0
M  V30 5448 H 524.234 5.02694 -0.175539 0
M  V30 5449 H 523.934 5.57973 -1.84229 0
M  V30 5450 H 525.458 6.02013 -1.02042 0
M  V30 5451 H 526.872 4.8908 -2.99121 0
M  V30 5452 H 525.269 4.68163 -3.75425 0
M  V30 5453 H 526.339 3.27996 -3.57137 0
M  V30 5454 N 527.682 1.05563 1.17022 0
M  V30 5455 C 528.929 0.767937 1.87374 0
M  V30 5456 C 529.257 -0.705224 1.81265 0
M  V30 5457 O 528.512 -1.5318 1.21796 0
M  V30 5458 C 528.811 1.19849 3.36706 0
M  V30 5459 C 528.477 2.6745 3.63017 0
M  V30 5460 C 527.139 3.0777 3.69907 0
M  V30 5461 C 529.491 3.62811 3.74189 0
M  V30 5462 C 526.819 4.42307 3.85463 0
M  V30 5463 C 529.171 4.97087 3.91264 0
M  V30 5464 C 527.835 5.37055 3.96394 0
M  V30 5465 H 527.105 0.281008 0.68565 0
M  V30 5466 H 529.752 1.32339 1.38415 0
M  V30 5467 H 528.057 0.562096 3.87747 0
M  V30 5468 H 529.754 0.953038 3.8951 0
M  V30 5469 H 526.344 2.35228 3.58282 0
M  V30 5470 H 530.528 3.32798 3.68183 0
M  V30 5471 H 525.784 4.72769 3.87684 0
M  V30 5472 H 529.958 5.70869 3.9885 0
M  V30 5473 H 527.585 6.41308 4.082 0
M  V30 5474 N 529.16 -1.33526 0.837174 0
M  V30 5475 C 530.406 -1.9813 0.432704 0
M  V30 5476 C 530.739 -1.66168 -1.00508 0
M  V30 5477 O 530.014 -0.94069 -1.70239 0
M  V30 5478 C 530.297 -3.54151 0.651834 0
M  V30 5479 C 530.15 -3.95806 2.13676 0
M  V30 5480 C 531.469 -4.39993 0.0968937 0
M  V30 5481 H 528.588 -0.719713 0.15869 0
M  V30 5482 H 531.23 -1.58193 1.05237 0
M  V30 5483 H 529.38 -3.88301 0.124369 0
M  V30 5484 H 531.052 -3.71921 2.72896 0
M  V30 5485 H 529.295 -3.45599 2.62191 0
M  V30 5486 H 529.966 -5.0447 2.24084 0
M  V30 5487 H 532.442 -4.12479 0.547733 0
M  V30 5488 H 531.318 -5.48186 0.279917 0
M  V30 5489 H 531.579 -4.3066 -0.9992 0
M  V30 5490 N 530.638 -0.59345 -1.46 0
M  V30 5491 C 531.863 -0.0872365 -2.07216 0
M  V30 5492 C 532.288 1.2131 -1.43755 0
M  V30 5493 O 531.646 1.73528 -0.525152 0
M  V30 5494 C 531.694 0.0538197 -3.6056 0
M  V30 5495 O 530.798 1.10765 -3.97247 0
M  V30 5496 H 530.139 -0.0676598 -0.660544 0
M  V30 5497 H 532.669 -0.819445 -1.87473 0
M  V30 5498 H 532.679 0.256567 -4.07193 0
M  V30 5499 H 531.354 -0.895739 -4.0614 0
M  V30 5500 H 529.931 0.882501 -3.62307 0
M  V30 5501 N 532.116 1.54067 -0.331816 0
M  V30 5502 C 533.064 2.26105 0.54582 0
M  V30 5503 C 534.058 1.27816 1.11173 0
M  V30 5504 O 535.264 1.45565 1.05882 0
M  V30 5505 H 531.639 0.726363 0.194683 0
M  V30 5506 H 533.61 2.98282 -0.083931 0
M  V30 5507 C 532.359 3.03814 1.69092 0
M  V30 5508 H 531.682 3.79269 1.26473 0
M  V30 5509 H 533.122 3.57453 2.28043 0
M  V30 5510 C 531.581 2.12606 2.61343 0
M  V30 5511 O 532.111 1.71437 3.6328 0
M  V30 5512 N 530.317 1.77925 2.29763 0
M  V30 5513 H 529.864 2.11602 1.46909 0
M  V30 5514 H 529.822 1.1718 2.91747 0
M  V30 5515 N 533.594 0.0601682 1.57485 0
M  V30 5516 C 534.544 -0.920969 2.08572 0
M  V30 5517 C 535.528 -1.26617 0.992827 0
M  V30 5518 O 536.72 -1.24708 1.25606 0
M  V30 5519 C 533.849 -2.19267 2.64153 0
M  V30 5520 C 532.935 -1.87447 3.80427 0
M  V30 5521 N 533.326 -1.26025 4.89848 0
M  V30 5522 C 531.624 -2.17265 3.89502 0
M  V30 5523 C 532.325 -1.12036 5.70809 0
M  V30 5524 N 531.301 -1.62624 5.18705 0
M  V30 5525 H 535.103 -0.441561 2.90564 0
M  V30 5526 H 532.617 -0.144043 1.6176 0
M  V30 5527 H 534.614 -2.90462 2.99061 0
M  V30 5528 H 533.274 -2.67806 1.83603 0
M  V30 5529 H 534.285 -0.931336 5.09457 0
M  V30 5530 H 530.962 -2.68262 3.19909 0
M  V30 5531 H 532.352 -0.642783 6.68818 0
M  V30 5532 N 535.072 -1.5615 -0.213296 0
M  V30 5533 C 536.035 -1.92249 -1.24792 0
M  V30 5534 C 537.035 -0.801828 -1.39382 0
M  V30 5535 O 538.225 -1.06948 -1.37506 0
M  V30 5536 C 535.357 -2.18056 -2.62039 0
M  V30 5537 H 536.55 -2.84793 -0.939845 0
M  V30 5538 H 534.103 -1.49559 -0.454062 0
M  V30 5539 H 534.838 -1.2809 -2.97932 0
M  V30 5540 H 534.623 -2.99703 -2.52825 0
M  V30 5541 H 536.113 -2.47051 -3.36683 0
M  V30 5542 N 536.55 0.480323 -1.50102 0
M  V30 5543 C 537.78 1.25475 -1.64133 0
M  V30 5544 C 538.188 1.8647 -0.320272 0
M  V30 5545 O 537.531 1.69561 0.70673 0
M  V30 5546 C 537.593 2.40996 -2.6676 0
M  V30 5547 C 537.257 2.00711 -4.10565 0
M  V30 5548 C 538.254 1.53492 -4.96725 0
M  V30 5549 C 535.939 2.09714 -4.56427 0
M  V30 5550 C 537.933 1.15806 -6.26792 0
M  V30 5551 C 535.62 1.7164 -5.86501 0
M  V30 5552 C 536.618 1.24763 -6.71508 0
M  V30 5553 O 536.306 0.872122 -7.99155 0
M  V30 5554 H 536.038 0.385983 -0.554971 0
M  V30 5555 H 538.592 0.580848 -1.97016 0
M  V30 5556 H 536.822 3.11528 -2.291 0
M  V30 5557 H 538.511 3.02981 -2.70106 0
M  V30 5558 H 539.277 1.45966 -4.62514 0
M  V30 5559 H 535.156 2.4515 -3.90413 0
M  V30 5560 H 538.7 0.791465 -6.93096 0
M  V30 5561 H 534.597 1.78822 -6.20236 0
M  V30 5562 H 535.365 1.00178 -8.12346 0
M  V30 5563 O 538.067 1.48883 0.625791 0
M  V30 5564 H 538.758 1.45381 1.28 0
M  V30 END ATOM
M  V30 BEGIN BOND
M  V30 END BOND
M  V30 END CTAB
M  END
$$$$
