drugbank_target|P43116 Prostaglandin E2 receptor EP2 subtype (DB00770; DB00917; DB00929; DB08964; DB09211)
 OpenBabel12092119303D

  0  0  0     0  0            999 V3000
M  V30 BEGIN CTAB
M  V30 COUNTS 5634 5692 0 0 0
M  V30 BEGIN ATOM
M  V30 1 H -0.908 1.98254 -0.117106 0
M  V30 2 N 0 1.576 0 0
M  V30 3 C 0.933 2.03868 1.02534 0
M  V30 4 C 1.911 0.928543 1.3348 0
M  V30 5 O 3.095 1.19667 1.45644 0
M  V30 6 C 0.222 2.43627 2.35294 0
M  V30 7 C -0.732 3.65373 2.2001 0
M  V30 8 S 0.101 5.13292 1.52614 0
M  V30 9 C 1.257 5.56322 2.86805 0
M  V30 10 H 1.49 2.90518 0.631377 0
M  V30 11 H -0.977 1.52953 0.210867 0
M  V30 12 H 0.981 2.67203 3.11629 0
M  V30 13 H -0.358 1.57376 2.7183 0
M  V30 14 H -1.165 3.90944 3.18086 0
M  V30 15 H -1.563 3.418 1.51819 0
M  V30 16 H 0.729 5.58782 3.83104 0
M  V30 17 H 1.672 6.56266 2.65933 0
M  V30 18 H 2.08 4.83886 2.90714 0
M  V30 19 N 1.4781 -0.272755 1.55222 0
M  V30 20 C 2.7261 -1.00234 1.75492 0
M  V30 21 C 3.0471 -1.8681 0.5592 0
M  V30 22 O 2.3171 -1.91215 -0.425882 0
M  V30 23 H 0.8971 -0.373076 0.647166 0
M  V30 24 H 3.5591 -0.296926 1.92625 0
M  V30 25 H 2.6551 -1.63913 2.65592 0
M  V30 26 N 2.9562 -1.48159 -0.537278 0
M  V30 27 C 3.9042 -1.62573 -1.66352 0
M  V30 28 C 4.8982 -0.492366 -1.62087 0
M  V30 29 O 6.1042 -0.670847 -1.67032 0
M  V30 30 H 2.4792 -0.511992 -0.550789 0
M  V30 31 H 4.4502 -2.57176 -1.51337 0
M  V30 32 C 3.1992 -1.67583 -3.04649 0
M  V30 33 H 2.5222 -2.54151 -3.08622 0
M  V30 34 H 3.9622 -1.81713 -3.83088 0
M  V30 35 C 2.4212 -0.413039 -3.34358 0
M  V30 36 O 2.9512 0.477259 -3.98855 0
M  V30 37 N 1.1572 -0.286961 -2.8918 0
M  V30 38 H 0.7042 -1.01241 -2.36871 0
M  V30 39 H 0.6622 0.556963 -3.09427 0
M  V30 40 N 4.4343 0.785586 -1.36625 0
M  V30 41 C 5.3973 1.87999 -1.31107 0
M  V30 42 C 6.3973 1.59316 -0.217959 0
M  V30 43 O 7.5873 1.67656 -0.472977 0
M  V30 44 C 4.7193 3.24861 -1.03334 0
M  V30 45 H 5.9123 1.94307 -2.2844 0
M  V30 46 H 3.4653 0.983813 -1.21453 0
M  V30 47 H 4.2003 3.24235 -0.0647432 0
M  V30 48 H 3.9853 3.4707 -1.82441 0
M  V30 49 H 5.4753 4.04929 -1.02088 0
M  V30 50 N 5.9124 1.20967 1.01018 0
M  V30 51 C 7.1374 1.0503 1.78839 0
M  V30 52 C 7.5624 -0.395752 1.8389 0
M  V30 53 O 6.9204 -1.28529 1.27867 0
M  V30 54 C 6.9684 1.64602 3.2084 0
M  V30 55 O 6.0724 0.887988 4.02726 0
M  V30 56 H 5.4134 0.369987 0.551367 0
M  V30 57 H 7.9434 1.60399 1.27018 0
M  V30 58 H 7.9534 1.68607 3.71532 0
M  V30 59 H 6.6284 2.69841 3.16479 0
M  V30 60 H 5.2054 0.922648 3.61305 0
M  V30 61 N 7.3905 -1.2043 1.01659 0
M  V30 62 C 8.3385 -2.25249 0.580143 0
M  V30 63 C 9.3325 -1.65057 -0.381115 0
M  V30 64 O 10.5385 -1.78241 -0.251039 0
M  V30 65 H 6.9135 -0.732695 0.169299 0
M  V30 66 H 8.8845 -2.59389 1.47512 0
M  V30 67 C 7.6335 -3.47638 -0.065788 0
M  V30 68 H 6.9565 -3.94233 0.664874 0
M  V30 69 H 8.3965 -4.2268 -0.334282 0
M  V30 70 C 6.8555 -3.10447 -1.3086 0
M  V30 71 O 7.3855 -3.21981 -2.4019 0
M  V30 72 N 5.5915 -2.64996 -1.1927 0
M  V30 73 H 5.1385 -2.55811 -0.303064 0
M  V30 74 H 5.0965 -2.40482 -2.02523 0
M  V30 75 N 8.8686 -0.792821 -1.36206 0
M  V30 76 C 10.1456 -0.290627 -1.93429 0
M  V30 77 C 10.5256 1.21773 -1.72437 0
M  V30 78 O 9.8736 2.0108 -1.08531 0
M  V30 79 C 10.0836 -0.686973 -3.42172 0
M  V30 80 C 11.4316 -0.668643 -4.19302 0
M  V30 81 O 12.4556 -0.627658 -3.50626 0
M  V30 82 O 11.3146 -0.714597 -5.41808 0
M  V30 83 H 8.4086 -0.0727927 -0.82379 0
M  V30 84 H 10.9546 -0.875593 -1.45367 0
M  V30 85 H 9.7266 -1.72711 -3.51122 0
M  V30 86 H 9.3496 -0.0760733 -3.97527 0
M  V30 87 N 10.3467 1.47872 -0.545128 0
M  V30 88 C 11.5717 2.07391 -0.0190611 0
M  V30 89 C 11.9967 1.39688 1.25971 0
M  V30 90 O 11.3547 0.467816 1.7516 0
M  V30 91 C 11.4027 3.60188 0.172335 0
M  V30 92 O 10.5067 3.9339 1.23766 0
M  V30 93 H 9.8477 0.662411 -0.0459059 0
M  V30 94 H 12.3777 1.90066 -0.757365 0
M  V30 95 H 12.3877 4.06129 0.390305 0
M  V30 96 H 11.0627 4.08865 -0.761725 0
M  V30 97 H 9.6397 3.5921 1.00114 0
M  V30 98 N 11.8248 0.280983 1.55075 0
M  V30 99 C 12.7568 -0.637268 2.20163 0
M  V30 100 C 13.7698 -1.11298 1.18813 0
M  V30 101 O 14.9588 -1.03388 1.4551 0
M  V30 102 C 12.0588 -1.88199 2.81841 0
M  V30 103 C 11.2318 -1.55211 4.08936 0
M  V30 104 C 10.2908 -2.64991 4.54606 0
M  V30 105 O 9.3168 -2.30929 5.2025 0
M  V30 106 N 10.5188 -3.95161 4.25238 0
M  V30 107 H 13.2838 -0.0801694 2.99593 0
M  V30 108 H 10.8448 0.102329 1.61576 0
M  V30 109 H 12.8368 -2.60948 3.09335 0
M  V30 110 H 11.4068 -2.34799 2.06369 0
M  V30 111 H 10.6268 -0.658185 3.88666 0
M  V30 112 H 11.9148 -1.30681 4.91732 0
M  V30 113 H 11.3128 -4.25653 3.72607 0
M  V30 114 H 9.8698 -4.6427 4.5749 0
M  V30 115 N 13.3029 -1.57598 0.00835791 0
M  V30 116 C 14.5279 -1.95617 -0.689103 0
M  V30 117 C 14.9529 -0.883753 -1.66046 0
M  V30 118 O 14.3109 0.157352 -1.80616 0
M  V30 119 C 14.3589 -3.32736 -1.38994 0
M  V30 120 O 13.4629 -3.27631 -2.50463 0
M  V30 121 H 12.8039 -0.638379 -0.182668 0
M  V30 122 H 15.3339 -2.045 0.064036 0
M  V30 123 H 15.3439 -3.68494 -1.75147 0
M  V30 124 H 14.0189 -4.1034 -0.677778 0
M  V30 125 H 12.5959 -3.03561 -2.16576 0
M  V30 126 N 14.781 0.264519 -1.55364 0
M  V30 127 C 15.691 1.34902 -1.91934 0
M  V30 128 C 16.707 1.53595 -0.817593 0
M  V30 129 O 17.883 1.67558 -1.11742 0
M  V30 130 C 14.948 2.68676 -2.19121 0
M  V30 131 C 14.009 2.58657 -3.4263 0
M  V30 132 C 13.242 3.86051 -3.68511 0
M  V30 133 O 13.465 4.87126 -2.96757 0
M  V30 134 O 12.399 3.85744 -4.62045 0
M  V30 135 H 16.225 1.06883 -2.8427 0
M  V30 136 H 13.81 0.463775 -1.42019 0
M  V30 137 H 15.692 3.47759 -2.37995 0
M  V30 138 H 14.367 2.96463 -1.29966 0
M  V30 139 H 13.274 1.7792 -3.29082 0
M  V30 140 H 14.607 2.35818 -4.32031 0
M  V30 141 N 16.2591 1.48442 0.529413 0
M  V30 142 C 17.5361 1.46978 1.29062 0
M  V30 143 C 17.9161 0.181769 2.10316 0
M  V30 144 O 17.2641 -0.836481 2.12639 0
M  V30 145 C 17.4741 2.7321 2.17157 0
M  V30 146 C 18.8221 3.21562 2.77278 0
M  V30 147 O 19.8461 2.74131 2.27444 0
M  V30 148 O 18.7051 4.04094 3.67927 0
M  V30 149 H 15.7991 0.587003 0.582543 0
M  V30 150 H 18.3451 1.60676 0.546021 0
M  V30 151 H 17.1171 3.58465 1.56903 0
M  V30 152 H 16.7401 2.62235 2.98862 0
M  V30 153 N 17.7372 -0.778329 1.37039 0
M  V30 154 C 18.9772 -1.54973 1.33276 0
M  V30 155 C 19.3412 -1.91816 -0.0839376 0
M  V30 156 O 20.5422 -2.6767 -0.246228 0
M  V30 157 C 18.8132 -2.78517 2.23971 0
M  V30 158 S 20.3722 -3.6865 2.37997 0
M  V30 159 H 17.1902 -0.530639 0.473226 0
M  V30 160 H 19.7922 -0.915806 1.72723 0
M  V30 161 H 18.4962 -2.4952 3.25835 0
M  V30 162 H 18.0272 -3.46875 1.85584 0
M  V30 163 H 20.0422 -4.70182 1.58567 0
M  V30 164 N 19.2153 -1.21501 -1.00376 0
M  V30 165 C 20.1253 -0.991447 -2.12621 0
M  V30 166 C 21.1413 0.0568446 -1.73907 0
M  V30 167 O 22.3173 -0.13348 -2.00957 0
M  V30 168 C 19.3823 -0.560312 -3.42142 0
M  V30 169 C 18.4433 -1.68096 -3.95022 0
M  V30 170 C 17.6763 -1.2703 -5.18362 0
M  V30 171 O 17.8993 -0.144438 -5.70217 0
M  V30 172 O 16.8333 -2.08269 -5.64719 0
M  V30 173 H 20.6593 -1.93158 -2.34358 0
M  V30 174 H 18.2443 -0.999999 -1.10997 0
M  V30 175 H 20.1263 -0.329724 -4.20108 0
M  V30 176 H 18.8013 0.351089 -3.2179 0
M  V30 177 H 17.7083 -1.96597 -3.18278 0
M  V30 178 H 19.0413 -2.56983 -4.19786 0
M  V30 179 N 20.6934 1.19889 -1.02296 0
M  V30 180 C 21.9214 1.9339 -0.735399 0
M  V30 181 C 22.3364 1.75148 0.704887 0
M  V30 182 O 21.6934 1.06954 1.47875 0
M  V30 183 C 21.7444 3.45313 -1.06962 0
M  V30 184 O 21.4654 3.62964 -2.45334 0
M  V30 185 C 22.9664 4.35948 -0.804021 0
M  V30 186 H 20.1864 0.61448 -0.269546 0
M  V30 187 H 22.7304 1.522 -1.36585 0
M  V30 188 H 20.8854 3.84359 -0.484455 0
M  V30 189 H 21.2994 4.56886 -2.57595 0
M  V30 190 H 22.7734 5.41174 -1.0879 0
M  V30 191 H 23.2504 4.3842 0.261691 0
M  V30 192 H 23.8564 4.02574 -1.37164 0
M  V30 193 N 22.1715 0.800033 1.35784 0
M  V30 194 C 23.5875 0.482977 1.52117 0
M  V30 195 C 23.7875 -0.996948 1.75109 0
M  V30 196 O 22.8435 -1.78216 1.78872 0
M  V30 197 C 24.1565 1.32264 2.70049 0
M  V30 198 C 25.7045 1.31742 2.83924 0
M  V30 199 C 26.1795 2.14106 4.04874 0
M  V30 200 N 27.6705 2.11607 4.12039 0
M  V30 201 C 28.4055 2.72099 5.04727 0
M  V30 202 N 27.9015 3.41492 6.02789 0
M  V30 203 N 29.6945 2.61776 4.97423 0
M  V30 204 H 21.8455 1.75856 1.19115 0
M  V30 205 H 24.1085 0.748122 0.582252 0
M  V30 206 H 23.8145 2.37261 2.59616 0
M  V30 207 H 23.6885 0.971303 3.6448 0
M  V30 208 H 26.0755 0.275333 2.93813 0
M  V30 209 H 26.1565 1.70859 1.9037 0
M  V30 210 H 25.8005 3.18351 3.95746 0
M  V30 211 H 25.7305 1.72353 4.97596 0
M  V30 212 H 28.2215 1.61112 3.41835 0
M  V30 213 H 28.5345 3.84953 6.70098 0
M  V30 214 H 26.8795 3.45596 6.02983 0
M  V30 215 H 30.0705 2.07157 4.19766 0
M  V30 216 H 30.2435 3.0921 5.69468 0
M  V30 217 N 23.6496 -1.47581 0.552962 0
M  V30 218 C 24.5816 -2.27997 -0.234533 0
M  V30 219 C 25.5946 -1.36753 -0.883321 0
M  V30 220 O 26.7836 -1.61612 -0.757889 0
M  V30 221 C 23.8836 -3.10879 -1.34935 0
M  V30 222 C 23.0566 -4.30056 -0.798158 0
M  V30 223 C 22.1156 -4.94567 -1.79694 0
M  V30 224 O 21.1416 -5.53087 -1.34474 0
M  V30 225 N 22.3436 -4.88878 -3.13015 0
M  V30 226 H 25.1086 -2.96222 0.455255 0
M  V30 227 H 22.6696 -1.57163 0.388761 0
M  V30 228 H 24.6616 -3.50903 -2.01616 0
M  V30 229 H 23.2316 -2.44924 -1.94244 0
M  V30 230 H 22.4516 -3.94174 0.0453079 0
M  V30 231 H 23.7396 -5.07152 -0.409173 0
M  V30 232 H 23.1376 -4.42526 -3.52402 0
M  V30 233 H 21.6946 -5.32934 -3.75266 0
M  V30 234 N 25.1277 -0.289203 -1.54924 0
M  V30 235 C 26.3737 0.316922 -2.00916 0
M  V30 236 C 26.7287 1.52424 -1.17408 0
M  V30 237 O 26.0217 1.90097 -0.239536 0
M  V30 238 C 26.2157 0.736119 -3.49737 0
M  V30 239 C 26.0447 -0.429036 -4.47649 0
M  V30 240 C 24.8147 -0.917311 -4.96904 0
M  V30 241 C 27.0127 -1.27016 -4.98369 0
M  V30 242 N 24.9947 -2.05046 -5.78644 0
M  V30 243 C 26.3657 -2.25097 -5.77695 0
M  V30 244 C 28.4207 -1.30188 -4.80578 0
M  V30 245 C 27.1237 -3.26114 -6.41126 0
M  V30 246 C 29.1497 -2.30057 -5.44819 0
M  V30 247 C 28.5117 -3.2687 -6.23968 0
M  V30 248 H 24.6107 0.0807535 -0.777819 0
M  V30 249 H 27.1947 -0.416434 -1.90194 0
M  V30 250 H 25.3657 1.43867 -3.60773 0
M  V30 251 H 27.0977 1.32078 -3.82541 0
M  V30 252 H 23.8527 -0.494248 -4.71014 0
M  V30 253 H 24.2767 -2.62108 -6.24202 0
M  V30 254 H 28.9187 -0.567163 -4.18979 0
M  V30 255 H 26.6367 -4.00512 -7.01866 0
M  V30 256 H 30.2227 -2.33271 -5.32988 0
M  V30 257 H 29.1027 -4.02883 -6.72796 0
M  V30 258 N 26.6058 1.57591 -0.0167156 0
M  V30 259 C 27.5358 2.12496 0.967858 0
M  V30 260 C 28.5168 1.03807 1.34752 0
M  V30 261 O 29.7018 1.31577 1.42833 0
M  V30 262 C 26.8318 2.64194 2.25431 0
M  V30 263 C 25.7858 3.77559 2.01576 0
M  V30 264 C 25.1118 4.15636 3.36379 0
M  V30 265 C 26.4118 5.04151 1.36489 0
M  V30 266 H 28.1058 2.95013 0.510643 0
M  V30 267 H 25.6518 1.41915 0.244181 0
M  V30 268 H 27.6048 3.01236 2.94678 0
M  V30 269 H 26.3288 1.78821 2.73296 0
M  V30 270 H 24.9878 3.40937 1.34751 0
M  V30 271 H 24.6358 3.27263 3.81979 0
M  V30 272 H 24.3358 4.92022 3.21229 0
M  V30 273 H 25.8598 4.5525 4.06915 0
M  V30 274 H 27.2738 5.38857 1.95718 0
M  V30 275 H 25.6708 5.85453 1.31776 0
M  V30 276 H 26.7408 4.83733 0.336219 0
M  V30 277 N 28.0839 -0.256276 1.55502 0
M  V30 278 C 29.4949 -0.826068 1.67431 0
M  V30 279 C 29.8459 -1.86396 0.612446 0
M  V30 280 O 28.9709 -2.15031 -0.243025 0
M  V30 281 C 29.5659 -1.50512 3.03532 0
M  V30 282 C 28.1249 -2.02273 3.17431 0
M  V30 283 C 27.2719 -0.870548 2.63281 0
M  V30 284 H 30.2229 -0.0322728 1.58667 0
M  V30 285 H 30.2439 -2.37279 2.97454 0
M  V30 286 H 29.7559 -0.749484 3.80794 0
M  V30 287 H 27.8569 -2.80746 2.44974 0
M  V30 288 H 27.9699 -2.22655 4.24219 0
M  V30 289 H 26.3339 -1.26851 2.20864 0
M  V30 290 H 27.1169 -0.128149 3.43061 0
M  V30 291 N 29.562 -1.4872 -0.521534 0
M  V30 292 C 30.973 -1.50607 -1.10337 0
M  V30 293 C 31.324 -0.280612 -1.94183 0
M  V30 294 O 30.449 0.611507 -2.0758 0
M  V30 295 C 31.044 -2.72903 -2.00772 0
M  V30 296 C 29.603 -2.77634 -2.54158 0
M  V30 297 C 28.75 -2.44241 -1.31307 0
M  V30 298 H 31.701 -1.55714 -0.306388 0
M  V30 299 H 31.722 -2.519 -2.85178 0
M  V30 300 H 31.234 -3.62077 -1.39721 0
M  V30 301 H 29.335 -1.92689 -3.18907 0
M  V30 302 H 29.448 -3.79283 -2.92714 0
M  V30 303 H 27.812 -1.95577 -1.63161 0
M  V30 304 H 28.595 -3.35666 -0.719943 0
M  V30 305 N 31.0401 0.771051 -1.3745 0
M  V30 306 C 32.2881 1.52661 -1.32435 0
M  V30 307 C 32.6091 1.9479 0.0905024 0
M  V30 308 O 31.8791 1.66348 1.03466 0
M  V30 309 H 30.4591 0.566218 -0.487244 0
M  V30 310 H 33.1211 0.917636 -1.71946 0
M  V30 311 H 32.2171 2.42568 -1.96385 0
M  V30 312 N 32.5182 1.22032 0.997298 0
M  V30 313 C 33.4282 1.00271 2.12092 0
M  V30 314 C 34.4442 -0.047621 1.73935 0
M  V30 315 O 35.6202 0.144136 2.00884 0
M  V30 316 C 32.6852 0.578449 3.4184 0
M  V30 317 C 31.7462 1.70189 3.94125 0
M  V30 318 C 30.9792 1.29778 5.17681 0
M  V30 319 O 31.2022 0.174676 5.70132 0
M  V30 320 O 30.1362 2.11261 5.63607 0
M  V30 321 H 33.9622 1.94398 2.3333 0
M  V30 322 H 31.5472 1.00587 1.10465 0
M  V30 323 H 33.4292 0.351998 4.19927 0
M  V30 324 H 32.1042 -0.334019 3.21972 0
M  V30 325 H 31.0112 1.98282 3.1723 0
M  V30 326 H 32.3442 2.59206 4.18417 0
M  V30 327 N 33.9963 -1.19345 1.0293 0
M  V30 328 C 35.2213 -1.93538 0.745511 0
M  V30 329 C 35.6463 -1.75007 -0.689511 0
M  V30 330 O 35.0043 -1.05265 -1.47611 0
M  V30 331 C 35.0523 -3.43336 1.10239 0
M  V30 332 O 34.1563 -4.11806 0.221289 0
M  V30 333 H 33.4973 -0.604193 0.275404 0
M  V30 334 H 36.0273 -1.5141 1.37609 0
M  V30 335 H 36.0373 -3.94004 1.05947 0
M  V30 336 H 34.7123 -3.56146 2.14786 0
M  V30 337 H 33.2893 -3.715 0.322842 0
M  V30 338 N 35.4744 -0.807222 -1.35358 0
M  V30 339 C 36.8854 -0.44876 -1.81226 0
M  V30 340 C 37.2364 1.02929 -1.67033 0
M  V30 341 O 36.3614 1.79991 -1.20133 0
M  V30 342 C 36.9564 -0.807774 -3.2903 0
M  V30 343 C 35.5154 -0.501901 -3.73039 0
M  V30 344 C 34.6624 -1.03304 -2.57339 0
M  V30 345 H 37.6134 -0.998808 -1.23327 0
M  V30 346 H 37.6344 -0.10554 -3.80354 0
M  V30 347 H 37.1464 -1.88357 -3.39328 0
M  V30 348 H 35.2474 0.565128 -3.68289 0
M  V30 349 H 35.3604 -1.03497 -4.67787 0
M  V30 350 H 33.7244 -0.455339 -2.50597 0
M  V30 351 H 34.5074 -2.11496 -2.70415 0
M  V30 352 N 36.9525 1.47285 -0.560781 0
M  V30 353 C 37.9155 2.28535 0.174488 0
M  V30 354 C 38.9155 1.37153 0.839388 0
M  V30 355 O 40.1055 1.59748 0.694702 0
M  V30 356 C 37.2375 3.16934 1.25561 0
M  V30 357 H 38.4305 2.95012 -0.539262 0
M  V30 358 H 35.9835 1.53034 -0.317865 0
M  V30 359 H 36.7185 2.55157 2.00164 0
M  V30 360 H 36.5035 3.8419 0.783604 0
M  V30 361 H 37.9935 3.78143 1.77193 0
M  V30 362 N 38.4306 0.297415 1.54768 0
M  V30 363 C 39.6796 -0.313669 1.99246 0
M  V30 364 C 39.9926 -1.55281 1.18942 0
M  V30 365 O 41.1986 -2.23825 1.5367 0
M  V30 366 C 39.6546 -0.609407 3.54703 0
M  V30 367 C 39.2626 0.611192 4.43811 0
M  V30 368 C 41.0066 -1.18188 4.07715 0
M  V30 369 C 38.9136 0.288805 5.90694 0
M  V30 370 H 37.8436 -0.120979 0.744231 0
M  V30 371 H 40.4946 0.40556 1.78962 0
M  V30 372 H 38.8766 -1.38813 3.70873 0
M  V30 373 H 40.0506 1.3875 4.39414 0
M  V30 374 H 38.3656 1.10205 4.01552 0
M  V30 375 H 40.9626 -1.43727 5.15021 0
M  V30 376 H 41.3056 -2.12299 3.58099 0
M  V30 377 H 41.8386 -0.464944 3.95074 0
M  V30 378 H 38.5776 1.19838 6.44453 0
M  V30 379 H 38.0976 -0.450305 5.98107 0
M  V30 380 H 39.7766 -0.110933 6.46905 0
M  V30 381 N 39.9087 -1.5758 0.0250728 0
M  V30 382 C 41.1337 -1.96337 -0.668317 0
M  V30 383 C 41.5587 -0.901314 -1.651 0
M  V30 384 O 40.9167 0.138187 -1.80773 0
M  V30 385 C 40.9647 -3.34191 -1.35457 0
M  V30 386 O 40.0687 -3.30269 -2.46974 0
M  V30 387 H 39.4097 -0.640281 -0.175887 0
M  V30 388 H 41.9397 -2.0442 0.0857224 0
M  V30 389 H 41.9497 -3.70331 -1.71228 0
M  V30 390 H 40.6247 -4.11036 -0.634218 0
M  V30 391 H 39.2017 -3.05841 -2.13344 0
M  V30 392 N 41.3868 0.248026 -1.55636 0
M  V30 393 C 42.6118 0.998028 -1.81808 0
M  V30 394 C 43.0368 1.78207 -0.601979 0
M  V30 395 O 42.3948 1.75653 0.448961 0
M  V30 396 C 42.4428 1.9125 -3.05705 0
M  V30 397 O 41.5468 3.00406 -2.82542 0
M  V30 398 H 40.8878 0.284045 -0.600179 0
M  V30 399 H 43.4178 0.269357 -2.02819 0
M  V30 400 H 43.4278 2.32737 -3.35108 0
M  V30 401 H 42.1028 1.33602 -3.93857 0
M  V30 402 H 40.6798 2.63056 -2.64303 0
M  V30 403 N 42.8649 1.48995 0.513639 0
M  V30 404 C 44.1109 1.58076 1.27042 0
M  V30 405 C 44.4439 0.261026 1.92438 0
M  V30 406 O 43.7189 -0.734393 1.80103 0
M  V30 407 C 44.0019 2.73091 2.34719 0
M  V30 408 C 43.8549 4.14821 1.73907 0
M  V30 409 C 45.1739 2.83796 3.36375 0
M  V30 410 H 42.2929 0.575391 0.460536 0
M  V30 411 H 44.9349 1.81232 0.570516 0
M  V30 412 H 43.0849 2.53479 2.94416 0
M  V30 413 H 44.7569 4.45917 1.18135 0
M  V30 414 H 42.9999 4.21058 1.0437 0
M  V30 415 H 43.6709 4.91147 2.51949 0
M  V30 416 H 46.1469 3.01611 2.86653 0
M  V30 417 H 45.0229 3.65971 4.09093 0
M  V30 418 H 45.2839 1.92624 3.9793 0
M  V30 419 N 44.343 -0.763751 1.37857 0
M  V30 420 C 45.276 -1.88486 1.28639 0
M  V30 421 C 46.254 -1.61757 0.165363 0
M  V30 422 O 47.438 -1.85391 0.340948 0
M  V30 423 C 44.565 -3.23884 0.990811 0
M  V30 424 C 43.611 -3.69514 2.12983 0
M  V30 425 S 44.444 -3.82244 3.75033 0
M  V30 426 C 45.6 -5.20477 3.47641 0
M  V30 427 H 45.833 -1.96017 2.23527 0
M  V30 428 H 43.366 -0.925684 1.23574 0
M  V30 429 H 45.324 -4.02081 0.827101 0
M  V30 430 H 43.985 -3.14044 0.0592832 0
M  V30 431 H 43.178 -4.67696 1.87821 0
M  V30 432 H 42.78 -2.98441 2.25408 0
M  V30 433 H 45.072 -6.05905 3.03125 0
M  V30 434 H 46.015 -5.50655 4.4518 0
M  V30 435 H 46.423 -4.88793 2.82385 0
M  V30 436 N 45.8211 -1.22559 -0.990812 0
M  V30 437 C 47.0681 -1.05141 -1.73065 0
M  V30 438 C 47.3961 0.413191 -1.9006 0
M  V30 439 O 46.6511 1.32257 -1.44245 0
M  V30 440 C 46.9501 -1.71011 -3.13831 0
M  V30 441 C 46.6161 -3.20911 -3.16745 0
M  V30 442 C 45.2781 -3.61812 -3.17247 0
M  V30 443 C 47.6301 -4.16846 -3.12872 0
M  V30 444 C 44.9581 -4.97127 -3.1158 0
M  V30 445 C 47.3101 -5.5214 -3.08746 0
M  V30 446 C 45.9741 -5.92419 -3.07565 0
M  V30 447 H 45.2441 -0.384738 -0.633291 0
M  V30 448 H 47.8911 -1.5235 -1.16025 0
M  V30 449 H 46.1961 -1.16133 -3.74193 0
M  V30 450 H 47.8931 -1.55023 -3.69823 0
M  V30 451 H 44.4831 -2.88344 -3.17105 0
M  V30 452 H 48.6671 -3.86263 -3.11632 0
M  V30 453 H 43.9231 -5.27562 -3.09012 0
M  V30 454 H 48.0971 -6.26201 -3.04705 0
M  V30 455 H 45.7241 -6.97236 -3.02929 0
M  V30 456 N 47.2992 1.18797 -1.03562 0
M  V30 457 C 48.5242 1.9314 -0.755764 0
M  V30 458 C 48.9492 1.7537 0.68022 0
M  V30 459 O 48.3072 1.06046 1.47051 0
M  V30 460 C 48.3552 3.42747 -1.12058 0
M  V30 461 O 47.4592 4.11683 -0.243124 0
M  V30 462 H 46.8002 0.602724 -0.278604 0
M  V30 463 H 49.3302 1.50678 -1.3841 0
M  V30 464 H 49.3402 3.93437 -1.08035 0
M  V30 465 H 48.0152 3.55002 -2.16672 0
M  V30 466 H 46.5922 3.71323 -0.342539 0
M  V30 467 N 48.7773 0.814389 1.34928 0
M  V30 468 C 49.7403 0.235759 2.27984 0
M  V30 469 C 50.7403 -0.581412 1.49921 0
M  V30 470 O 51.9303 -0.398758 1.69575 0
M  V30 471 C 49.0623 -0.670433 3.34242 0
M  V30 472 H 50.2553 1.05659 2.80671 0
M  V30 473 H 47.8083 0.585614 1.44915 0
M  V30 474 H 48.5433 -1.51466 2.86755 0
M  V30 475 H 48.3283 -0.0860822 3.92005 0
M  V30 476 H 49.8183 -1.06935 4.03676 0
M  V30 477 N 50.2554 -1.46986 0.568584 0
M  V30 478 C 51.5034 -2.02041 0.0487022 0
M  V30 479 C 51.8244 -1.44408 -1.31039 0
M  V30 480 O 51.0944 -0.623477 -1.85714 0
M  V30 481 H 49.6744 -0.746849 0.015014 0
M  V30 482 H 52.3364 -1.80257 0.741168 0
M  V30 483 H 51.4324 -3.12085 -0.0308961 0
M  V30 484 N 51.7335 -0.305618 -1.54608 0
M  V30 485 C 52.9795 0.302746 -2.00528 0
M  V30 486 C 53.3125 1.53184 -1.19367 0
M  V30 487 O 52.5875 1.92598 -0.271321 0
M  V30 488 C 52.8705 0.654756 -3.54097 0
M  V30 489 C 52.7235 -0.583793 -4.45995 0
M  V30 490 C 54.0425 1.47947 -4.14487 0
M  V30 491 H 51.1615 0.108564 -0.72896 0
M  V30 492 H 53.8035 -0.418634 -1.85331 0
M  V30 493 H 51.9535 1.26935 -3.67178 0
M  V30 494 H 53.6255 -1.22224 -4.44814 0
M  V30 495 H 51.8685 -1.21615 -4.16404 0
M  V30 496 H 52.5395 -0.293287 -5.5122 0
M  V30 497 H 55.0155 0.96013 -4.04871 0
M  V30 498 H 53.8915 1.69454 -5.22088 0
M  V30 499 H 54.1525 2.47011 -3.66658 0
M  V30 500 N 53.2116 1.57565 -0.0334293 0
M  V30 501 C 54.1416 2.13511 0.945265 0
M  V30 502 C 55.1226 1.05231 1.33643 0
M  V30 503 O 56.3076 1.33084 1.41429 0
M  V30 504 C 53.4376 2.6657 2.22616 0
M  V30 505 C 52.3916 3.79676 1.97561 0
M  V30 506 C 51.7176 4.1918 3.31952 0
M  V30 507 C 53.0176 5.0557 1.31135 0
M  V30 508 H 54.7116 2.95538 0.479325 0
M  V30 509 H 52.2576 1.42166 0.229115 0
M  V30 510 H 54.2106 3.04344 2.91466 0
M  V30 511 H 52.9346 1.8171 2.71384 0
M  V30 512 H 51.5936 3.42347 1.31127 0
M  V30 513 H 51.2416 3.31296 3.78487 0
M  V30 514 H 50.9416 4.95402 3.15992 0
M  V30 515 H 52.4656 4.59541 4.02063 0
M  V30 516 H 53.8796 5.40903 1.89992 0
M  V30 517 H 52.2766 5.86818 1.25559 0
M  V30 518 H 53.3466 4.84062 0.284894 0
M  V30 519 N 54.6897 -0.239769 1.55765 0
M  V30 520 C 55.9377 -0.964892 1.77579 0
M  V30 521 C 56.2587 -1.85582 0.598699 0
M  V30 522 O 55.5287 -1.92075 -0.385226 0
M  V30 523 H 54.1087 -0.359265 0.654933 0
M  V30 524 H 56.7707 -0.256001 1.93211 0
M  V30 525 H 55.8667 -1.58243 2.69009 0
M  V30 526 N 56.1678 -1.49265 -0.50573 0
M  V30 527 C 57.1158 -1.66065 -1.62866 0
M  V30 528 C 58.1098 -0.526636 -1.61006 0
M  V30 529 O 59.3158 -0.706126 -1.65571 0
M  V30 530 H 55.6908 -0.52356 -0.539805 0
M  V30 531 H 57.6618 -2.60329 -1.45848 0
M  V30 532 C 56.4108 -1.74008 -3.01026 0
M  V30 533 H 55.7338 -2.6064 -3.03161 0
M  V30 534 H 57.1738 -1.89798 -3.79147 0
M  V30 535 C 55.6328 -0.483868 -3.33407 0
M  V30 536 O 56.1628 0.392548 -3.99777 0
M  V30 537 N 54.3688 -0.348236 -2.88506 0
M  V30 538 H 53.9158 -1.06242 -2.34671 0
M  V30 539 H 53.8738 0.491204 -3.10539 0
M  V30 540 N 57.6459 0.756429 -1.3826 0
M  V30 541 C 58.5759 1.88374 -1.37976 0
M  V30 542 C 59.5569 1.68311 -0.246082 0
M  V30 543 O 60.7419 1.88944 -0.44874 0
M  V30 544 C 57.8719 3.25864 -1.20125 0
M  V30 545 C 56.8259 3.60523 -2.30666 0
M  V30 546 C 56.1519 4.9672 -1.97923 0
M  V30 547 C 57.4519 3.65692 -3.72916 0
M  V30 548 H 59.1459 1.88869 -2.32312 0
M  V30 549 H 56.6919 0.907272 -1.11824 0
M  V30 550 H 58.6449 4.0438 -1.18552 0
M  V30 551 H 57.3689 3.25841 -0.222498 0
M  V30 552 H 56.0279 2.84324 -2.3142 0
M  V30 553 H 55.6759 4.93253 -0.985393 0
M  V30 554 H 55.3759 5.20878 -2.71955 0
M  V30 555 H 56.8999 5.77618 -1.97964 0
M  V30 556 H 58.3139 4.34328 -3.74208 0
M  V30 557 H 56.7109 4.01358 -4.4613 0
M  V30 558 H 57.7809 2.65987 -4.05436 0
M  V30 559 N 59.124 1.23083 0.984299 0
M  V30 560 C 60.373 1.05466 1.71929 0
M  V30 561 C 60.686 -0.409211 1.91272 0
M  V30 562 O 61.892 -0.705226 2.62181 0
M  V30 563 C 60.348 1.83874 3.09384 0
M  V30 564 C 59.956 3.34566 2.97943 0
M  V30 565 C 61.7 1.74734 3.8687 0
M  V30 566 C 59.607 4.05381 4.30605 0
M  V30 567 H 58.537 0.391039 0.644674 0
M  V30 568 H 61.188 1.47013 1.09815 0
M  V30 569 H 59.57 1.35131 3.72231 0
M  V30 570 H 60.744 3.90767 2.44209 0
M  V30 571 H 59.059 3.44476 2.33934 0
M  V30 572 H 61.656 2.24957 4.85076 0
M  V30 573 H 61.999 0.709372 4.10212 0
M  V30 574 H 62.532 2.21067 3.30717 0
M  V30 575 H 59.271 5.09467 4.1246 0
M  V30 576 H 58.791 3.53967 4.84218 0
M  V30 577 H 60.47 4.11458 4.99311 0
M  V30 578 N 60.6021 -1.18246 1.0419 0
M  V30 579 C 61.5651 -2.20128 0.638452 0
M  V30 580 C 62.5651 -1.57885 -0.304805 0
M  V30 581 O 63.7551 -1.73967 -0.0900369 0
M  V30 582 C 60.8871 -3.4084 -0.0637751 0
M  V30 583 H 62.0801 -2.57336 1.54007 0
M  V30 584 H 59.6331 -1.32152 0.834598 0
M  V30 585 H 60.3681 -3.09166 -0.979136 0
M  V30 586 H 60.1531 -3.8726 0.614198 0
M  V30 587 H 61.6431 -4.16274 -0.332512 0
M  V30 588 N 62.0802 -0.821533 -1.34494 0
M  V30 589 C 63.0102 -0.257138 -2.3208 0
M  V30 590 C 63.9912 0.625645 -1.58176 0
M  V30 591 O 65.1762 0.552811 -1.86166 0
M  V30 592 C 62.3062 0.582958 -3.42372 0
M  V30 593 C 61.2602 -0.202571 -4.2752 0
M  V30 594 C 60.5862 0.760179 -5.29269 0
M  V30 595 C 61.8862 -1.40998 -5.02908 0
M  V30 596 H 63.5802 -1.07247 -2.79532 0
M  V30 597 H 61.1262 -0.517163 -1.34393 0
M  V30 598 H 63.0792 0.987972 -4.09655 0
M  V30 599 H 61.8032 1.43133 -2.93565 0
M  V30 600 H 60.4622 -0.588936 -3.61838 0
M  V30 601 H 60.1102 1.60447 -4.76724 0
M  V30 602 H 59.8102 0.238809 -5.87115 0
M  V30 603 H 61.3342 1.16308 -5.9942 0
M  V30 604 H 62.7482 -1.07905 -5.63054 0
M  V30 605 H 61.1452 -1.86689 -5.70322 0
M  V30 606 H 62.2152 -2.1889 -4.32684 0
M  V30 607 N 63.5583 1.46682 -0.576371 0
M  V30 608 C 64.5213 2.28707 0.150239 0
M  V30 609 C 65.5213 1.38035 0.824794 0
M  V30 610 O 66.7113 1.60476 0.677719 0
M  V30 611 C 63.8433 3.18248 1.22192 0
M  V30 612 H 65.0363 2.94423 -0.570521 0
M  V30 613 H 62.5893 1.52688 -0.334078 0
M  V30 614 H 63.3243 2.57265 1.97447 0
M  V30 615 H 63.1093 3.85 0.742812 0
M  V30 616 H 64.5993 3.80001 1.73172 0
M  V30 617 N 65.0364 0.313813 1.54444 0
M  V30 618 C 65.9664 -0.549454 2.26943 0
M  V30 619 C 66.9474 -1.12741 1.27372 0
M  V30 620 O 68.1324 -1.15436 1.56167 0
M  V30 621 C 65.2624 -1.71523 3.01989 0
M  V30 622 C 64.2164 -1.26703 4.08816 0
M  V30 623 C 63.5424 -2.51898 4.71647 0
M  V30 624 C 64.8424 -0.388962 5.2085 0
M  V30 625 H 66.5364 0.0552661 2.99349 0
M  V30 626 H 64.0824 0.0280207 1.43973 0
M  V30 627 H 66.0354 -2.32535 3.51433 0
M  V30 628 H 64.7594 -2.34639 2.27183 0
M  V30 629 H 63.4184 -0.679896 3.6024 0
M  V30 630 H 63.0664 -3.13356 3.93468 0
M  V30 631 H 62.7664 -2.22605 5.43802 0
M  V30 632 H 64.2904 -3.1369 5.23861 0
M  V30 633 H 65.7044 -0.905107 5.6611 0
M  V30 634 H 64.1014 -0.18924 5.99802 0
M  V30 635 H 65.1714 0.582699 4.81386 0
M  V30 636 N 66.5145 -1.57545 0.0417849 0
M  V30 637 C 67.4445 -2.14009 -0.933929 0
M  V30 638 C 68.4255 -1.05938 -1.33083 0
M  V30 639 O 69.6105 -1.33833 -1.40721 0
M  V30 640 C 66.7405 -2.67747 -2.21199 0
M  V30 641 C 65.6945 -3.80718 -1.95544 0
M  V30 642 C 65.0205 -4.20935 -3.29724 0
M  V30 643 C 66.3205 -5.06258 -1.28452 0
M  V30 644 H 68.0145 -2.95788 -0.463645 0
M  V30 645 H 65.5605 -1.42285 -0.221573 0
M  V30 646 H 67.5135 -3.05886 -2.89848 0
M  V30 647 H 66.2375 -1.83147 -2.70416 0
M  V30 648 H 64.8965 -3.43037 -1.2931 0
M  V30 649 H 64.5445 -3.33298 -3.76724 0
M  V30 650 H 64.2445 -4.9707 -3.13361 0
M  V30 651 H 65.7685 -4.61666 -3.9962 0
M  V30 652 H 67.1825 -5.41903 -1.8712 0
M  V30 653 H 65.5795 -5.87475 -1.22445 0
M  V30 654 H 66.6495 -4.84207 -0.259219 0
M  V30 655 N 67.9926 0.231505 -1.5589 0
M  V30 656 C 68.9556 1.27028 -1.90779 0
M  V30 657 C 69.9556 1.40308 -0.785507 0
M  V30 658 O 71.1456 1.38744 -1.05336 0
M  V30 659 C 68.2776 2.64566 -2.14983 0
M  V30 660 H 69.4706 0.973017 -2.83677 0
M  V30 661 H 67.0236 0.471486 -1.49019 0
M  V30 662 H 67.7586 2.99406 -1.24604 0
M  V30 663 H 67.5436 2.56305 -2.96732 0
M  V30 664 H 69.0336 3.39543 -2.43105 0
M  V30 665 N 69.4707 1.49531 0.497807 0
M  V30 666 C 70.8867 1.36365 0.829266 0
M  V30 667 C 71.0867 0.399184 1.97506 0
M  V30 668 O 70.1427 -0.167977 2.51941 0
M  V30 669 C 71.4557 2.77153 1.16647 0
M  V30 670 C 73.0037 2.85877 1.27449 0
M  V30 671 C 73.4787 4.2744 1.64497 0
M  V30 672 N 74.9697 4.30265 1.7154 0
M  V30 673 C 75.7047 5.3677 2.01656 0
M  V30 674 N 75.2007 6.53516 2.29976 0
M  V30 675 N 76.9937 5.24189 2.02934 0
M  V30 676 H 69.1447 2.10831 -0.257703 0
M  V30 677 H 71.4077 0.946534 -0.0527091 0
M  V30 678 H 71.1137 3.49442 0.397872 0
M  V30 679 H 70.9877 3.12722 2.10915 0
M  V30 680 H 73.3747 2.13824 2.0338 0
M  V30 681 H 73.4557 2.53887 0.312244 0
M  V30 682 H 73.0997 5.00021 0.891151 0
M  V30 683 H 73.0297 4.56896 2.61827 0
M  V30 684 H 75.5207 3.4607 1.51802 0
M  V30 685 H 75.8337 7.30506 2.52153 0
M  V30 686 H 74.1787 6.56737 2.27425 0
M  V30 687 H 77.3697 4.31988 1.80289 0
M  V30 688 H 77.5427 6.07286 2.26071 0
M  V30 689 N 70.9488 -0.749086 1.3866 0
M  V30 690 C 72.3648 -1.05276 1.19955 0
M  V30 691 C 72.5648 -2.01435 0.05134 0
M  V30 692 O 71.6208 -2.45232 -0.60147 0
M  V30 693 C 72.9338 -1.62853 2.52783 0
M  V30 694 C 74.4818 -1.75002 2.59506 0
M  V30 695 C 74.9568 -2.35991 3.92521 0
M  V30 696 N 76.4478 -2.43416 3.94085 0
M  V30 697 C 77.1828 -2.91511 4.9377 0
M  V30 698 N 76.6788 -3.39608 6.03853 0
M  V30 699 N 78.4718 -2.90592 4.81157 0
M  V30 700 H 70.6228 -0.111066 2.12109 0
M  V30 701 H 72.8858 -0.111901 0.941373 0
M  V30 702 H 72.5918 -0.99664 3.37283 0
M  V30 703 H 72.4658 -2.61854 2.715 0
M  V30 704 H 74.8528 -2.37317 1.75398 0
M  V30 705 H 74.9338 -0.74693 2.44652 0
M  V30 706 H 74.5778 -1.74308 4.77053 0
M  V30 707 H 74.5078 -3.3695 4.04688 0
M  V30 708 H 76.9988 -2.09405 3.14576 0
M  V30 709 H 77.3118 -3.74775 6.75843 0
M  V30 710 H 75.6568 -3.37653 6.07466 0
M  V30 711 H 78.8478 -2.52332 3.94267 0
M  V30 712 H 79.0208 -3.27762 5.58996 0
M  V30 713 N 72.4269 -1.23603 -0.977757 0
M  V30 714 C 73.6729 -1.08136 -1.72274 0
M  V30 715 C 74.0279 0.377453 -1.88661 0
M  V30 716 O 73.3209 1.27552 -1.42972 0
M  V30 717 C 73.5149 -1.7433 -3.11999 0
M  V30 718 C 73.3439 -3.26498 -3.0924 0
M  V30 719 C 72.1139 -3.9567 -3.14282 0
M  V30 720 C 74.3119 -4.2323 -2.92201 0
M  V30 721 N 72.2939 -5.34799 -3.01436 0
M  V30 722 C 73.6649 -5.49289 -2.87544 0
M  V30 723 C 75.7199 -4.13931 -2.76705 0
M  V30 724 C 74.4229 -6.67116 -2.68978 0
M  V30 725 C 76.4489 -5.31424 -2.59504 0
M  V30 726 C 75.8109 -6.5641 -2.55548 0
M  V30 727 H 71.9099 -0.450247 -0.639376 0
M  V30 728 H 74.4939 -1.5637 -1.16002 0
M  V30 729 H 72.6649 -1.28624 -3.66484 0
M  V30 730 H 74.3969 -1.51815 -3.75146 0
M  V30 731 H 71.1519 -3.46767 -3.22567 0
M  V30 732 H 71.5759 -6.07748 -2.98281 0
M  V30 733 H 76.2179 -3.1807 -2.78552 0
M  V30 734 H 73.9359 -7.63109 -2.65876 0
M  V30 735 H 77.5219 -5.26072 -2.48474 0
M  V30 736 H 76.4019 -7.45795 -2.42405 0
M  V30 737 N 73.905 1.17692 -1.04816 0
M  V30 738 C 75.321 1.39863 -0.768794 0
M  V30 739 C 75.521 1.91118 0.638451 0
M  V30 740 O 74.577 2.10036 1.40146 0
M  V30 741 C 75.89 2.39274 -1.82122 0
M  V30 742 C 77.438 2.52987 -1.843 0
M  V30 743 C 77.913 3.55669 -2.88555 0
M  V30 744 N 79.404 3.63183 -2.87493 0
M  V30 745 C 80.139 4.42381 -3.64811 0
M  V30 746 N 79.635 5.25125 -4.51903 0
M  V30 747 N 81.428 4.37217 -3.53267 0
M  V30 748 H 73.579 0.82752 -1.95617 0
M  V30 749 H 75.842 0.426123 -0.846831 0
M  V30 750 H 75.548 2.08678 -2.83102 0
M  V30 751 H 75.422 3.38725 -1.65967 0
M  V30 752 H 77.809 2.82896 -0.839869 0
M  V30 753 H 77.89 1.53623 -2.04532 0
M  V30 754 H 77.534 3.26499 -3.89051 0
M  V30 755 H 77.464 4.54728 -2.65575 0
M  V30 756 H 79.955 3.04103 -2.24343 0
M  V30 757 H 80.268 5.82728 -5.07591 0
M  V30 758 H 78.613 5.24519 -4.55966 0
M  V30 759 H 81.804 3.71626 -2.84625 0
M  V30 760 H 81.977 4.98696 -4.13771 0
M  V30 761 N 75.3831 0.828654 1.34056 0
M  V30 762 C 76.6311 0.41863 1.97717 0
M  V30 763 C 76.9521 -1.02314 1.66002 0
M  V30 764 O 76.2221 -1.71119 0.953683 0
M  V30 765 H 74.8021 0.151809 0.731412 0
M  V30 766 H 77.4641 1.05936 1.63596 0
M  V30 767 H 76.5601 0.542318 3.07352 0
M  V30 768 N 76.8612 -1.46375 0.584142 0
M  V30 769 C 78.1382 -1.956 0.0033388 0
M  V30 770 C 78.5182 -1.52679 -1.45782 0
M  V30 771 O 77.8662 -0.77816 -2.14842 0
M  V30 772 C 78.0762 -3.48551 0.176891 0
M  V30 773 C 79.4242 -4.24576 0.0454609 0
M  V30 774 O 80.4482 -3.56043 0.105801 0
M  V30 775 O 79.3072 -5.46427 -0.0890376 0
M  V30 776 H 76.4012 -0.825547 -0.0490066 0
M  V30 777 H 78.9472 -1.56652 0.65256 0
M  V30 778 H 77.7192 -3.72683 1.1926 0
M  V30 779 H 77.3422 -3.94332 -0.508695 0
M  V30 780 N 78.3393 -0.321999 -1.54275 0
M  V30 781 C 79.5853 0.281461 -2.00837 0
M  V30 782 C 79.9183 1.51909 -1.20985 0
M  V30 783 O 79.1933 1.923 -0.291733 0
M  V30 784 C 79.4763 0.617162 -3.54772 0
M  V30 785 C 79.3293 -0.631064 -4.45351 0
M  V30 786 C 80.6483 1.43542 -4.16033 0
M  V30 787 H 77.7673 0.100826 -0.730071 0
M  V30 788 H 80.4093 -0.438268 -1.84876 0
M  V30 789 H 78.5593 1.23034 -3.68504 0
M  V30 790 H 80.2313 -1.26934 -4.43492 0
M  V30 791 H 78.4743 -1.26025 -4.15091 0
M  V30 792 H 79.1453 -0.351735 -5.50878 0
M  V30 793 H 81.6213 0.917134 -4.05867 0
M  V30 794 H 80.4973 1.63907 -5.23856 0
M  V30 795 H 80.7583 2.43108 -3.69257 0
M  V30 796 N 79.8174 1.5752 -0.0501392 0
M  V30 797 C 81.0654 1.9227 0.622642 0
M  V30 798 C 81.3864 0.929083 1.71444 0
M  V30 799 O 80.6564 -0.0262186 1.95882 0
M  V30 800 H 79.2364 0.709739 0.232981 0
M  V30 801 H 81.8984 1.94628 -0.102898 0
M  V30 802 H 80.9944 2.93479 1.06191 0
M  V30 803 N 81.2955 -0.223234 1.56011 0
M  V30 804 C 82.5355 -0.954962 1.8072 0
M  V30 805 C 82.8995 -1.81598 0.623384 0
M  V30 806 O 84.1005 -2.58132 0.749745 0
M  V30 807 C 82.3715 -1.77313 3.10314 0
M  V30 808 S 83.9305 -2.56073 3.56332 0
M  V30 809 H 80.7485 -0.320812 0.634508 0
M  V30 810 H 83.3505 -0.220686 1.9425 0
M  V30 811 H 82.0545 -1.13071 3.94516 0
M  V30 812 H 81.5855 -2.54974 2.99586 0
M  V30 813 H 83.6005 -3.79619 3.19536 0
M  V30 814 N 82.7736 -1.49793 -0.48987 0
M  V30 815 C 83.9986 -1.63836 -1.27172 0
M  V30 816 C 84.4236 -0.31402 -1.8546 0
M  V30 817 O 83.7816 0.719803 -1.66399 0
M  V30 818 C 83.8296 -2.71797 -2.36978 0
M  V30 819 O 82.9336 -2.31744 -3.41128 0
M  V30 820 H 82.2746 -0.547997 -0.37496 0
M  V30 821 H 84.8046 -1.96053 -0.585191 0
M  V30 822 H 84.8146 -2.94305 -2.82575 0
M  V30 823 H 83.4896 -3.67923 -1.93921 0
M  V30 824 H 82.0666 -2.1961 -3.01373 0
M  V30 825 N 84.2517 0.741722 -1.39055 0
M  V30 826 C 85.2147 1.83733 -1.37021 0
M  V30 827 C 86.2147 1.58542 -0.268534 0
M  V30 828 O 87.4047 1.66067 -0.526076 0
M  V30 829 C 84.5367 3.2141 -1.13617 0
M  V30 830 H 85.7297 1.86941 -2.34506 0
M  V30 831 H 83.2827 0.944676 -1.24521 0
M  V30 832 H 84.0177 3.23865 -0.167863 0
M  V30 833 H 83.8027 3.4109 -1.93391 0
M  V30 834 H 85.2927 4.01477 -1.14918 0
M  V30 835 N 85.7298 1.2412 0.971189 0
M  V30 836 C 86.9778 1.07668 1.71032 0
M  V30 837 C 87.2988 -0.385797 1.91146 0
M  V30 838 O 86.5688 -1.27569 1.4867 0
M  V30 839 H 85.1488 0.395429 0.633755 0
M  V30 840 H 87.8108 1.55984 1.16855 0
M  V30 841 H 86.9068 1.57195 2.69622 0
M  V30 842 N 87.2079 -1.17134 1.05439 0
M  V30 843 C 88.6239 -1.39454 0.776201 0
M  V30 844 C 88.8239 -1.91454 -0.628307 0
M  V30 845 O 87.8799 -2.10777 -1.39031 0
M  V30 846 C 89.1929 -2.38305 1.83388 0
M  V30 847 C 90.7409 -2.52006 1.85639 0
M  V30 848 C 91.2159 -3.54133 2.90437 0
M  V30 849 N 92.7069 -3.61653 2.89415 0
M  V30 850 C 93.4419 -4.4044 3.67152 0
M  V30 851 N 92.9379 -5.22721 4.54681 0
M  V30 852 N 94.7309 -4.35337 3.55581 0
M  V30 853 H 86.8819 -0.817134 1.96053 0
M  V30 854 H 89.1449 -0.421626 0.849079 0
M  V30 855 H 88.8509 -2.07173 2.84204 0
M  V30 856 H 88.7249 -3.37841 1.67761 0
M  V30 857 H 91.1119 -2.82447 0.85486 0
M  V30 858 H 91.1929 -1.52537 2.05344 0
M  V30 859 H 90.8369 -3.24431 3.90777 0
M  V30 860 H 90.7669 -4.53313 2.67983 0
M  V30 861 H 93.2579 -3.02909 2.25952 0
M  V30 862 H 93.5709 -5.80027 5.10674 0
M  V30 863 H 91.9159 -5.22093 4.58741 0
M  V30 864 H 95.1069 -3.70112 2.86592 0
M  V30 865 H 95.2799 -4.96494 4.1641 0
M  V30 866 N 88.686 -0.835752 -1.33615 0
M  V30 867 C 90.102 -0.523139 -1.50783 0
M  V30 868 C 90.302 0.950171 -1.77691 0
M  V30 869 O 89.358 1.73411 -1.83534 0
M  V30 870 C 90.671 -1.39378 -2.66448 0
M  V30 871 C 92.219 -1.39223 -2.80332 0
M  V30 872 C 92.694 -2.24765 -3.99055 0
M  V30 873 N 94.185 -2.22458 -4.06284 0
M  V30 874 C 94.92 -2.85386 -4.97336 0
M  V30 875 N 94.416 -3.57354 -5.93523 0
M  V30 876 N 96.209 -2.74872 -4.90308 0
M  V30 877 H 88.36 -1.78952 -1.14411 0
M  V30 878 H 90.623 -0.763297 -0.562212 0
M  V30 879 H 90.329 -2.44061 -2.53234 0
M  V30 880 H 90.203 -1.0676 -3.61776 0
M  V30 881 H 92.59 -0.353136 -2.92979 0
M  V30 882 H 92.671 -1.75846 -1.85773 0
M  V30 883 H 92.315 -3.28732 -3.87167 0
M  V30 884 H 92.245 -1.85485 -4.92852 0
M  V30 885 H 94.736 -1.70119 -3.37443 0
M  V30 886 H 95.049 -4.02584 -6.59656 0
M  V30 887 H 93.394 -3.61461 -5.93608 0
M  V30 888 H 96.585 -2.18213 -4.14126 0
M  V30 889 H 96.758 -3.24199 -5.61069 0
M  V30 890 N 90.1641 1.46063 -0.591896 0
M  V30 891 C 91.3891 2.07226 -0.0850314 0
M  V30 892 C 91.8141 1.43625 1.21463 0
M  V30 893 O 91.1721 0.523305 1.73583 0
M  V30 894 C 91.2201 3.60554 0.0576567 0
M  V30 895 O 90.3241 3.97128 1.11188 0
M  V30 896 H 89.6651 0.660615 -0.0669568 0
M  V30 897 H 92.1951 1.8756 -0.81745 0
M  V30 898 H 92.2051 4.07165 0.2609 0
M  V30 899 H 90.8801 4.06235 -0.891416 0
M  V30 900 H 89.4571 3.62213 0.886356 0
M  V30 901 N 91.6422 0.330177 1.54103 0
M  V30 902 C 92.8672 -0.274893 2.0557 0
M  V30 903 C 93.2922 -1.44487 1.20437 0
M  V30 904 O 92.6502 -1.80021 0.214991 0
M  V30 905 C 92.6982 -0.68079 3.54115 0
M  V30 906 O 91.8022 -1.7824 3.71893 0
M  V30 907 H 91.1432 -0.0483849 0.662235 0
M  V30 908 H 93.6732 0.480508 1.98878 0
M  V30 909 H 93.6832 -0.961635 3.96505 0
M  V30 910 H 92.3582 0.174903 4.15532 0
M  V30 911 H 90.9352 -1.49985 3.41407 0
M  V30 912 N 93.1203 -1.57491 0.0584922 0
M  V30 913 C 94.0503 -2.14988 -0.911178 0
M  V30 914 C 95.0313 -1.07343 -1.31952 0
M  V30 915 O 96.2163 -1.35318 -1.39294 0
M  V30 916 C 93.3463 -2.70078 -2.18347 0
M  V30 917 C 92.3003 -3.82771 -1.91495 0
M  V30 918 C 91.6263 -4.24408 -3.25241 0
M  V30 919 C 92.9263 -5.07592 -1.23075 0
M  V30 920 H 94.6203 -2.96263 -0.432246 0
M  V30 921 H 92.1663 -1.42512 -0.206469 0
M  V30 922 H 94.1193 -3.08943 -2.86587 0
M  V30 923 H 92.8433 -1.86005 -2.68458 0
M  V30 924 H 91.5023 -3.44389 -1.25664 0
M  V30 925 H 91.1503 -3.37275 -3.73168 0
M  V30 926 H 90.8503 -5.00366 -3.08071 0
M  V30 927 H 92.3743 -4.65879 -3.94701 0
M  V30 928 H 93.7883 -5.43857 -1.81362 0
M  V30 929 H 92.1853 -5.88741 -1.16207 0
M  V30 930 H 93.2553 -4.84454 -0.207847 0
M  V30 931 N 94.5984 0.214957 -1.56127 0
M  V30 932 C 95.8234 0.95924 -1.83884 0
M  V30 933 C 96.2484 1.7689 -0.639644 0
M  V30 934 O 95.6064 1.76566 0.411601 0
M  V30 935 C 95.6544 1.84723 -3.09693 0
M  V30 936 O 94.7584 2.94346 -2.8885 0
M  V30 937 H 94.0994 0.27125 -0.606069 0
M  V30 938 H 96.6294 0.226276 -2.03345 0
M  V30 939 H 96.6394 2.25576 -3.39969 0
M  V30 940 H 95.3144 1.25218 -3.96602 0
M  V30 941 H 93.8914 2.57391 -2.69823 0
M  V30 942 N 96.0765 1.50051 0.48192 0
M  V30 943 C 97.0065 1.71046 1.58951 0
M  V30 944 C 97.9875 0.559288 1.60642 0
M  V30 945 O 99.1725 0.797243 1.77081 0
M  V30 946 C 96.3025 1.79462 2.97339 0
M  V30 947 C 95.2565 2.94558 3.10515 0
M  V30 948 C 94.5825 2.88105 4.50444 0
M  V30 949 C 95.8825 4.35227 2.88747 0
M  V30 950 H 97.5765 2.6378 1.41635 0
M  V30 951 H 95.1225 1.26936 0.679942 0
M  V30 952 H 97.0755 1.92734 3.74742 0
M  V30 953 H 95.7995 0.833412 3.15788 0
M  V30 954 H 94.4585 2.80918 2.35543 0
M  V30 955 H 94.1065 1.89853 4.65795 0
M  V30 956 H 93.8065 3.65366 4.60197 0
M  V30 957 H 95.3305 3.03412 5.29881 0
M  V30 958 H 96.7445 4.49449 3.55905 0
M  V30 959 H 95.1415 5.13856 3.09955 0
M  V30 960 H 96.2115 4.48347 1.84696 0
M  V30 961 N 97.5546 -0.734337 1.39446 0
M  V30 962 C 98.8016 -1.49391 1.36706 0
M  V30 963 C 99.1296 -1.94465 -0.0367813 0
M  V30 964 O 98.3846 -1.67154 -1.01774 0
M  V30 965 C 98.6836 -2.74711 2.28623 0
M  V30 966 C 98.3496 -2.48501 3.76242 0
M  V30 967 C 97.0116 -2.41062 4.16464 0
M  V30 968 C 99.3636 -2.26098 4.69606 0
M  V30 969 C 96.6916 -2.09262 5.48112 0
M  V30 970 C 99.0436 -1.95814 6.01531 0
M  V30 971 C 97.7076 -1.86845 6.40816 0
M  V30 972 H 96.9776 -0.546661 0.500243 0
M  V30 973 H 99.6246 -0.842788 1.71957 0
M  V30 974 H 97.9296 -3.44569 1.86492 0
M  V30 975 H 99.6266 -3.32741 2.23796 0
M  V30 976 H 96.2166 -2.55169 3.44364 0
M  V30 977 H 100.401 -2.30812 4.39363 0
M  V30 978 H 95.6566 -2.00841 5.77471 0
M  V30 979 H 99.8306 -1.77488 6.73403 0
M  V30 980 H 97.4576 -1.6197 7.42745 0
M  V30 981 N 99.0327 -1.24633 -0.964593 0
M  V30 982 C 99.9827 -1.00841 -2.04487 0
M  V30 983 C 100.967 0.0512468 -1.60818 0
M  V30 984 O 102.159 -0.162865 -1.76249 0
M  V30 985 C 99.2877 -0.618474 -3.37683 0
M  V30 986 C 98.3737 -1.71437 -3.87905 0
M  V30 987 N 98.7647 -2.9477 -4.11029 0
M  V30 988 C 97.0627 -1.5926 -4.16596 0
M  V30 989 C 97.7637 -3.65834 -4.52261 0
M  V30 990 N 96.7397 -2.9341 -4.57615 0
M  V30 991 H 100.542 -1.94487 -2.20345 0
M  V30 992 H 98.0557 -1.14805 -1.14863 0
M  V30 993 H 100.053 -0.429247 -4.14684 0
M  V30 994 H 98.7127 0.310766 -3.23209 0
M  V30 995 H 99.7237 -3.30917 -3.9839 0
M  V30 996 H 96.4007 -0.731606 -4.1104 0
M  V30 997 H 97.7907 -4.71646 -4.78539 0
M  V30 998 N 100.511 1.16574 -1.06058 0
M  V30 999 C 101.757 1.87324 -0.777022 0
M  V30 1000 C 102.09 1.81351 0.694645 0
M  V30 1001 O 101.365 1.22753 1.50871 0
M  V30 1002 C 101.648 3.36991 -1.26922 0
M  V30 1003 C 101.501 3.51667 -2.80447 0
M  V30 1004 C 102.82 4.3131 -0.87521 0
M  V30 1005 H 99.9388 0.680191 -0.28374 0
M  V30 1006 H 102.581 1.37036 -1.3161 0
M  V30 1007 H 100.731 3.79949 -0.81063 0
M  V30 1008 H 102.403 3.17664 -3.34495 0
M  V30 1009 H 100.646 2.93656 -3.19294 0
M  V30 1010 H 101.317 4.56766 -3.0995 0
M  V30 1011 H 103.793 3.9624 -1.27014 0
M  V30 1012 H 102.669 5.34545 -1.2471 0
M  V30 1013 H 102.93 4.41552 0.220071 0
M  V30 1014 N 101.989 0.842826 1.3317 0
M  V30 1015 C 102.919 0.294028 2.31641 0
M  V30 1016 C 103.9 -0.600401 1.59151 0
M  V30 1017 O 105.085 -0.523124 1.87022 0
M  V30 1018 C 102.215 -0.528416 3.43257 0
M  V30 1019 C 101.169 0.27056 4.27144 0
M  V30 1020 C 100.495 -0.675881 5.30411 0
M  V30 1021 C 101.795 1.48981 5.00602 0
M  V30 1022 H 103.489 1.11681 2.77791 0
M  V30 1023 H 101.035 0.538478 1.33553 0
M  V30 1024 H 102.988 -0.922674 4.11175 0
M  V30 1025 H 101.712 -1.38445 2.95805 0
M  V30 1026 H 100.371 0.646427 3.60856 0
M  V30 1027 H 100.019 -1.52842 4.79216 0
M  V30 1028 H 99.7189 -0.145374 5.8742 0
M  V30 1029 H 101.243 -1.06757 6.01195 0
M  V30 1030 H 102.657 1.16849 5.61266 0
M  V30 1031 H 101.054 1.95739 5.6728 0
M  V30 1032 H 102.124 2.25746 4.29147 0
M  V30 1033 N 103.467 -1.45747 0.599634 0
M  V30 1034 C 104.713 -2.02592 0.0918643 0
M  V30 1035 C 105.046 -1.46806 -1.27128 0
M  V30 1036 O 104.321 -0.639658 -1.83681 0
M  V30 1037 C 104.604 -3.60073 0.0443398 0
M  V30 1038 C 104.457 -4.26208 1.43759 0
M  V30 1039 C 105.776 -4.35309 -0.647608 0
M  V30 1040 H 102.895 -0.736175 0.034857 0
M  V30 1041 H 105.537 -1.73694 0.770081 0
M  V30 1042 H 103.687 -3.84823 -0.533224 0
M  V30 1043 H 105.359 -4.12668 2.06162 0
M  V30 1044 H 103.602 -3.84916 2.00056 0
M  V30 1045 H 104.273 -5.35069 1.35665 0
M  V30 1046 H 106.749 -4.15805 -0.156776 0
M  V30 1047 H 105.625 -5.45038 -0.649942 0
M  V30 1048 H 105.886 -4.07598 -1.71219 0
M  V30 1049 N 104.945 -0.338344 -1.53925 0
M  V30 1050 C 106.173 0.261298 -2.05243 0
M  V30 1051 C 106.588 1.44625 -1.21363 0
M  V30 1052 O 105.945 1.80811 -0.247736 0
M  V30 1053 C 105.996 0.681412 -3.5502 0
M  V30 1054 O 105.717 -0.456414 -4.35716 0
M  V30 1055 C 107.218 1.34232 -4.22489 0
M  V30 1056 H 104.438 0.0513685 -0.669031 0
M  V30 1057 H 106.982 -0.488822 -1.98572 0
M  V30 1058 H 105.137 1.38148 -3.61931 0
M  V30 1059 H 105.551 -0.122564 -5.24357 0
M  V30 1060 H 107.025 1.58708 -5.28693 0
M  V30 1061 H 107.502 2.29426 -3.74514 0
M  V30 1062 H 108.108 0.684424 -4.19757 0
M  V30 1063 N 106.423 1.57458 -0.0668435 0
M  V30 1064 C 107.333 2.15937 0.916975 0
M  V30 1065 C 108.349 1.12123 1.33058 0
M  V30 1066 O 109.525 1.44366 1.40429 0
M  V30 1067 C 106.59 2.70547 2.16807 0
M  V30 1068 C 105.651 3.89215 1.81135 0
M  V30 1069 C 104.884 4.41211 3.0028 0
M  V30 1070 O 105.107 3.92225 4.14144 0
M  V30 1071 O 104.041 5.32605 2.80384 0
M  V30 1072 H 107.867 3.00354 0.449561 0
M  V30 1073 H 105.452 1.48584 0.155949 0
M  V30 1074 H 107.334 3.0557 2.90181 0
M  V30 1075 H 106.009 1.89192 2.62656 0
M  V30 1076 H 104.916 3.59054 1.05028 0
M  V30 1077 H 106.249 4.71848 1.40073 0
M  V30 1078 N 107.901 -0.206675 1.56239 0
M  V30 1079 C 108.831 -1.25909 1.96645 0
M  V30 1080 C 109.812 -1.48097 0.836734 0
M  V30 1081 O 110.997 -1.6003 1.10019 0
M  V30 1082 C 108.127 -2.6058 2.29599 0
M  V30 1083 C 107.081 -2.53024 3.452 0
M  V30 1084 C 106.407 -3.91861 3.63798 0
M  V30 1085 C 107.707 -2.06524 4.79734 0
M  V30 1086 H 109.401 -0.923369 2.84806 0
M  V30 1087 H 106.947 -0.442735 1.37025 0
M  V30 1088 H 108.9 -3.34375 2.56459 0
M  V30 1089 H 107.624 -2.95869 1.38307 0
M  V30 1090 H 106.283 -1.81684 3.18412 0
M  V30 1091 H 105.931 -4.24483 2.69857 0
M  V30 1092 H 105.631 -3.87683 4.4156 0
M  V30 1093 H 107.155 -4.67296 3.93022 0
M  V30 1094 H 108.569 -2.70072 5.05702 0
M  V30 1095 H 106.966 -2.13374 5.60885 0
M  V30 1096 H 108.036 -1.01802 4.74093 0
M  V30 1097 N 109.379 -1.50304 -0.473955 0
M  V30 1098 C 110.625 -1.61389 -1.22806 0
M  V30 1099 C 110.958 -0.311955 -1.91678 0
M  V30 1100 O 110.233 0.686384 -1.81986 0
M  V30 1101 C 110.516 -2.79219 -2.27396 0
M  V30 1102 C 110.369 -4.19286 -1.62848 0
M  V30 1103 C 111.688 -2.92614 -3.28732 0
M  V30 1104 H 108.807 -0.587399 -0.445119 0
M  V30 1105 H 111.449 -1.82681 -0.522265 0
M  V30 1106 H 109.599 -2.61195 -2.87592 0
M  V30 1107 H 111.271 -4.48892 -1.06271 0
M  V30 1108 H 109.514 -4.23677 -0.931693 0
M  V30 1109 H 110.185 -4.97655 -2.38838 0
M  V30 1110 H 112.661 -3.09105 -2.78556 0
M  V30 1111 H 111.537 -3.76688 -3.99246 0
M  V30 1112 H 111.798 -2.03107 -3.92683 0
M  V30 1113 N 110.857 0.726932 -1.39834 0
M  V30 1114 C 112.104 1.48664 -1.37496 0
M  V30 1115 C 112.432 1.94482 0.0264678 0
M  V30 1116 O 111.687 1.67692 1.00886 0
M  V30 1117 C 111.986 2.73495 -2.30077 0
M  V30 1118 C 111.652 2.46502 -3.77555 0
M  V30 1119 C 110.314 2.3885 -4.17737 0
M  V30 1120 C 112.666 2.23604 -4.70798 0
M  V30 1121 C 109.994 2.06352 -5.49214 0
M  V30 1122 C 112.346 1.92622 -6.02561 0
M  V30 1123 C 111.01 1.83444 -6.41798 0
M  V30 1124 H 110.28 0.544001 -0.503135 0
M  V30 1125 H 112.927 0.833657 -1.72402 0
M  V30 1126 H 111.232 3.43575 -1.88317 0
M  V30 1127 H 112.929 3.31549 -2.25558 0
M  V30 1128 H 109.519 2.5334 -3.45712 0
M  V30 1129 H 113.703 2.28479 -4.40581 0
M  V30 1130 H 108.959 1.97776 -5.78528 0
M  V30 1131 H 113.133 1.73914 -6.74334 0
M  V30 1132 H 110.76 1.58029 -7.43593 0
M  V30 1133 N 112.336 1.25143 0.95797 0
M  V30 1134 C 113.564 1.12424 1.73691 0
M  V30 1135 C 113.979 -0.322304 1.86029 0
M  V30 1136 O 113.336 -1.22186 1.35561 0
M  V30 1137 C 113.387 1.76933 3.15241 0
M  V30 1138 O 113.108 3.15932 3.03511 0
M  V30 1139 C 114.609 1.6995 4.09429 0
M  V30 1140 H 111.829 0.3923 0.544373 0
M  V30 1141 H 114.373 1.6544 1.20207 0
M  V30 1142 H 112.528 1.27895 3.6568 0
M  V30 1143 H 112.942 3.47598 3.9278 0
M  V30 1144 H 114.416 2.19753 5.06372 0
M  V30 1145 H 114.893 0.662619 4.34173 0
M  V30 1146 H 115.499 2.18461 3.64904 0
M  V30 1147 N 113.814 -1.1601 1.06675 0
M  V30 1148 C 115.091 -1.82679 0.699114 0
M  V30 1149 C 115.471 -1.94559 -0.819137 0
M  V30 1150 O 114.819 -1.49169 -1.73092 0
M  V30 1151 C 115.029 -3.19445 1.40555 0
M  V30 1152 C 116.377 -3.95171 1.55323 0
M  V30 1153 O 117.401 -3.28976 1.36577 0
M  V30 1154 O 116.26 -5.13833 1.86112 0
M  V30 1155 H 113.354 -0.788954 0.247951 0
M  V30 1156 H 115.9 -1.23179 1.16726 0
M  V30 1157 H 114.672 -3.05856 2.44065 0
M  V30 1158 H 114.295 -3.86625 0.927733 0
M  V30 1159 N 115.292 -0.849877 -1.32721 0
M  V30 1160 C 116.222 -0.306308 -2.31482 0
M  V30 1161 C 117.203 0.591952 -1.59468 0
M  V30 1162 O 118.388 0.513199 -1.87296 0
M  V30 1163 C 115.518 0.510204 -3.43532 0
M  V30 1164 C 114.472 -0.293209 -4.26994 0
M  V30 1165 C 113.798 0.647743 -5.30762 0
M  V30 1166 C 115.098 -1.51634 -4.99804 0
M  V30 1167 H 116.792 -1.13153 -2.77195 0
M  V30 1168 H 114.338 -0.545553 -1.33266 0
M  V30 1169 H 116.291 0.900856 -4.11658 0
M  V30 1170 H 115.015 1.36874 -2.96535 0
M  V30 1171 H 113.674 -0.665555 -3.60508 0
M  V30 1172 H 113.322 1.50299 -4.8002 0
M  V30 1173 H 113.022 0.11422 -5.87489 0
M  V30 1174 H 114.546 1.03567 -6.01753 0
M  V30 1175 H 115.96 -1.19824 -5.60638 0
M  V30 1176 H 114.357 -1.98745 -5.66234 0
M  V30 1177 H 115.427 -2.28018 -4.27943 0
M  V30 1178 N 116.77 1.45427 -0.607355 0
M  V30 1179 C 117.7 2.3329 0.0989352 0
M  V30 1180 C 118.681 1.46816 0.859007 0
M  V30 1181 O 119.866 1.75588 0.829604 0
M  V30 1182 C 116.996 3.29518 1.09705 0
M  V30 1183 C 115.95 4.25626 0.450206 0
M  V30 1184 C 115.276 5.11542 1.55655 0
M  V30 1185 C 116.576 5.18505 -0.628455 0
M  V30 1186 H 118.27 2.92595 -0.634716 0
M  V30 1187 H 115.816 1.40696 -0.306681 0
M  V30 1188 H 117.769 3.89855 1.59971 0
M  V30 1189 H 116.493 2.68372 1.86129 0
M  V30 1190 H 115.152 3.66586 -0.0315886 0
M  V30 1191 H 114.8 4.46765 2.31107 0
M  V30 1192 H 114.5 5.76647 1.12925 0
M  V30 1193 H 116.024 5.74748 2.06148 0
M  V30 1194 H 117.438 5.72916 -0.209877 0
M  V30 1195 H 115.835 5.92085 -0.977489 0
M  V30 1196 H 116.905 4.60948 -1.50514 0
M  V30 1197 N 118.248 0.346503 1.53744 0
M  V30 1198 C 119.496 -0.248612 2.00565 0
M  V30 1199 C 119.817 -1.5083 1.23593 0
M  V30 1200 O 119.087 -1.92858 0.343912 0
M  V30 1201 H 117.667 -0.0948564 0.740953 0
M  V30 1202 H 120.329 0.468341 1.89189 0
M  V30 1203 H 119.425 -0.488994 3.08245 0
M  V30 1204 N 119.726 -1.57421 0.075193 0
M  V30 1205 C 120.954 -1.97946 -0.602076 0
M  V30 1206 C 121.369 -0.953674 -1.62943 0
M  V30 1207 O 120.726 0.0592551 -1.82404 0
M  V30 1208 C 120.777 -3.38546 -1.26762 0
M  V30 1209 O 120.498 -4.37195 -0.281376 0
M  V30 1210 C 121.999 -3.93966 -2.03239 0
M  V30 1211 H 119.219 -0.650918 -0.162931 0
M  V30 1212 H 121.763 -2.03959 0.148601 0
M  V30 1213 H 119.918 -3.33609 -1.96936 0
M  V30 1214 H 120.332 -5.18975 -0.759267 0
M  V30 1215 H 121.806 -4.94555 -2.45193 0
M  V30 1216 H 122.283 -3.30693 -2.8903 0
M  V30 1217 H 122.889 -4.02315 -1.37924 0
M  V30 1218 N 121.204 0.198386 -1.56346 0
M  V30 1219 C 122.444 0.92609 -1.82217 0
M  V30 1220 C 122.808 1.80584 -0.652195 0
M  V30 1221 O 124.009 2.56907 -0.790716 0
M  V30 1222 C 122.28 1.72354 -3.13096 0
M  V30 1223 S 123.839 2.50371 -3.6036 0
M  V30 1224 H 120.657 0.310677 -0.639532 0
M  V30 1225 H 123.259 0.189755 -1.94577 0
M  V30 1226 H 121.963 1.0678 -3.96265 0
M  V30 1227 H 121.494 2.50175 -3.03605 0
M  V30 1228 H 123.509 3.74488 -3.25535 0
M  V30 1229 N 122.682 1.50554 0.465978 0
M  V30 1230 C 123.612 1.72722 1.57128 0
M  V30 1231 C 124.593 0.576294 1.6004 0
M  V30 1232 O 125.778 0.81598 1.76225 0
M  V30 1233 C 122.908 1.82605 2.95419 0
M  V30 1234 C 121.862 2.97835 3.07373 0
M  V30 1235 C 121.188 2.92867 4.47363 0
M  V30 1236 C 122.488 4.38265 2.84114 0
M  V30 1237 H 124.182 2.65267 1.38829 0
M  V30 1238 H 121.728 1.2765 0.666441 0
M  V30 1239 H 123.681 1.96698 3.72677 0
M  V30 1240 H 122.405 0.866858 3.14886 0
M  V30 1241 H 121.064 2.83401 2.3255 0
M  V30 1242 H 120.712 1.94783 4.63755 0
M  V30 1243 H 120.412 3.70227 4.56296 0
M  V30 1244 H 121.936 3.09015 5.26633 0
M  V30 1245 H 123.35 4.53198 3.51118 0
M  V30 1246 H 121.747 5.17115 3.04487 0
M  V30 1247 H 122.817 4.50281 1.7993 0
M  V30 1248 N 124.16 -0.719506 1.40217 0
M  V30 1249 C 125.409 -1.47486 1.37589 0
M  V30 1250 C 125.722 -1.9559 -0.0201568 0
M  V30 1251 O 126.928 -2.70973 -0.169049 0
M  V30 1252 C 125.384 -2.66575 2.41796 0
M  V30 1253 C 124.992 -2.25358 3.87192 0
M  V30 1254 C 126.736 -3.4433 2.48269 0
M  V30 1255 C 124.643 -3.41262 4.83005 0
M  V30 1256 H 123.573 -0.553901 0.511576 0
M  V30 1257 H 126.224 -0.783427 1.65936 0
M  V30 1258 H 124.606 -3.3787 2.06543 0
M  V30 1259 H 125.78 -1.61509 4.31569 0
M  V30 1260 H 124.095 -1.60657 3.84159 0
M  V30 1261 H 126.692 -4.30569 3.17041 0
M  V30 1262 H 127.035 -3.87872 1.51198 0
M  V30 1263 H 127.568 -2.80076 2.82493 0
M  V30 1264 H 124.307 -3.02755 5.81394 0
M  V30 1265 H 123.827 -4.0404 4.43297 0
M  V30 1266 H 125.506 -4.07383 5.02641 0
M  V30 1267 N 125.638 -1.25649 -0.95132 0
M  V30 1268 C 126.863 -1.13443 -1.73624 0
M  V30 1269 C 127.288 0.307565 -1.85568 0
M  V30 1270 O 126.646 1.22282 -1.33854 0
M  V30 1271 C 126.694 -1.79723 -3.12621 0
M  V30 1272 O 125.798 -1.07912 -3.98031 0
M  V30 1273 H 125.139 -0.395872 -0.533086 0
M  V30 1274 H 127.669 -1.66276 -1.1922 0
M  V30 1275 H 127.679 -1.86141 -3.63064 0
M  V30 1276 H 126.354 -2.84633 -3.03244 0
M  V30 1277 H 124.931 -1.09398 -3.56492 0
M  V30 1278 N 127.117 1.15442 -1.07289 0
M  V30 1279 C 128.528 1.67803 -0.818475 0
M  V30 1280 C 128.879 1.8489 0.656507 0
M  V30 1281 O 128.004 1.55176 1.50829 0
M  V30 1282 C 128.599 3.04805 -1.47917 0
M  V30 1283 C 127.158 3.54245 -1.27229 0
M  V30 1284 C 126.305 2.29986 -1.54925 0
M  V30 1285 H 129.256 0.996646 -1.23502 0
M  V30 1286 H 129.277 3.69702 -0.90005 0
M  V30 1287 H 128.789 2.92336 -2.55267 0
M  V30 1288 H 126.89 3.71956 -0.21899 0
M  V30 1289 H 127.003 4.35723 -1.99203 0
M  V30 1290 H 125.367 2.35496 -0.970242 0
M  V30 1291 H 126.15 2.20105 -2.63455 0
M  V30 1292 N 128.595 0.856903 1.32268 0
M  V30 1293 C 129.841 0.462069 1.97466 0
M  V30 1294 C 130.174 -0.980298 1.67642 0
M  V30 1295 O 129.449 -1.68824 0.965858 0
M  V30 1296 C 129.732 0.704336 3.53145 0
M  V30 1297 C 129.585 2.19529 3.9259 0
M  V30 1298 C 130.904 0.1622 4.39801 0
M  V30 1299 H 128.023 0.169357 0.717278 0
M  V30 1300 H 130.665 1.07574 1.56614 0
M  V30 1301 H 128.815 0.181999 3.88073 0
M  V30 1302 H 130.487 2.78387 3.67829 0
M  V30 1303 H 128.73 2.67292 3.41668 0
M  V30 1304 H 129.401 2.31549 5.01088 0
M  V30 1305 H 131.877 0.608905 4.11621 0
M  V30 1306 H 130.753 0.361265 5.4771 0
M  V30 1307 H 131.014 -0.935158 4.32096 0
M  V30 1308 N 130.073 -1.45103 0.615059 0
M  V30 1309 C 131.319 -2.02483 0.113347 0
M  V30 1310 C 131.652 -1.48146 -1.25564 0
M  V30 1311 O 130.927 -0.659104 -1.82992 0
M  V30 1312 C 131.21 -3.60005 0.0825278 0
M  V30 1313 C 131.063 -4.2466 1.48271 0
M  V30 1314 C 132.382 -4.35972 -0.601401 0
M  V30 1315 H 129.501 -0.735764 0.0426632 0
M  V30 1316 H 132.143 -1.72868 0.788461 0
M  V30 1317 H 130.293 -3.85367 -0.492378 0
M  V30 1318 H 131.965 -4.10458 2.10527 0
M  V30 1319 H 130.208 -3.82772 2.04127 0
M  V30 1320 H 130.879 -5.336 1.41332 0
M  V30 1321 H 133.355 -4.15947 -0.112666 0
M  V30 1322 H 132.231 -5.45697 -0.592097 0
M  V30 1323 H 132.492 -4.09391 -1.66887 0
M  V30 1324 N 131.551 -0.354651 -1.53558 0
M  V30 1325 C 132.481 0.489091 -2.2832 0
M  V30 1326 C 133.462 1.09324 -1.30316 0
M  V30 1327 O 134.647 1.11255 -1.59173 0
M  V30 1328 C 131.777 1.63456 -3.0643 0
M  V30 1329 C 130.731 1.1582 -4.12031 0
M  V30 1330 C 130.057 2.39305 -4.7816 0
M  V30 1331 C 131.357 0.250731 -5.21698 0
M  V30 1332 H 133.051 -0.134614 -2.99097 0
M  V30 1333 H 130.597 -0.0661826 -1.43848 0
M  V30 1334 H 132.55 2.23136 -3.57475 0
M  V30 1335 H 131.274 2.28533 -2.33325 0
M  V30 1336 H 129.933 0.584146 -3.61916 0
M  V30 1337 H 129.581 3.02814 -4.01637 0
M  V30 1338 H 129.281 2.08109 -5.49513 0
M  V30 1339 H 130.805 2.99691 -5.31994 0
M  V30 1340 H 132.219 0.754695 -5.68311 0
M  V30 1341 H 130.616 0.0301468 -6.00092 0
M  V30 1342 H 131.686 -0.710125 -4.79672 0
M  V30 1343 N 133.029 1.57378 -0.0835403 0
M  V30 1344 C 133.992 2.12252 0.864959 0
M  V30 1345 C 134.992 1.04916 1.21858 0
M  V30 1346 O 136.182 1.30853 1.14991 0
M  V30 1347 C 133.314 2.63358 2.16461 0
M  V30 1348 H 134.507 2.97371 0.388676 0
M  V30 1349 H 132.06 1.55423 0.165317 0
M  V30 1350 H 132.795 1.81727 2.686 0
M  V30 1351 H 132.58 3.41826 1.92087 0
M  V30 1352 H 134.07 3.05847 2.84337 0
M  V30 1353 N 134.507 -0.190092 1.56449 0
M  V30 1354 C 135.732 -0.929864 1.85387 0
M  V30 1355 C 136.157 -1.7585 0.667704 0
M  V30 1356 O 135.515 -1.77198 -0.383459 0
M  V30 1357 C 135.563 -1.79773 3.12593 0
M  V30 1358 O 134.667 -2.89713 2.93496 0
M  V30 1359 H 134.008 -0.261574 0.610307 0
M  V30 1360 H 136.538 -0.193896 2.03679 0
M  V30 1361 H 136.548 -2.20139 3.43515 0
M  V30 1362 H 135.223 -1.18892 3.98544 0
M  V30 1363 H 133.8 -2.53065 2.73884 0
M  V30 1364 N 135.985 -1.50799 -0.457987 0
M  V30 1365 C 137.215 -1.65977 -1.23025 0
M  V30 1366 C 137.623 -0.347918 -1.85974 0
M  V30 1367 O 136.966 0.68148 -1.70592 0
M  V30 1368 C 137.028 -2.70309 -2.3701 0
M  V30 1369 C 136.692 -4.135 -1.94594 0
M  V30 1370 C 137.689 -4.98949 -1.46101 0
M  V30 1371 C 135.374 -4.5949 -2.02915 0
M  V30 1372 C 137.368 -6.28442 -1.06489 0
M  V30 1373 C 135.055 -5.88984 -1.62914 0
M  V30 1374 C 136.053 -6.73286 -1.1478 0
M  V30 1375 O 135.741 -8.00362 -0.75339 0
M  V30 1376 H 135.473 -0.56064 -0.377702 0
M  V30 1377 H 138.027 -1.97857 -0.551537 0
M  V30 1378 H 136.257 -2.337 -3.08093 0
M  V30 1379 H 137.946 -2.74574 -2.98938 0
M  V30 1380 H 138.712 -4.6463 -1.39084 0
M  V30 1381 H 134.591 -3.94009 -2.39328 0
M  V30 1382 H 138.135 -6.94194 -0.688488 0
M  V30 1383 H 134.032 -6.22822 -1.69595 0
M  V30 1384 H 134.8 -8.13744 -0.88108 0
M  V30 1385 N 137.463 0.71206 -1.40597 0
M  V30 1386 C 138.426 1.80785 -1.40888 0
M  V30 1387 C 139.426 1.57937 -0.302103 0
M  V30 1388 O 140.616 1.64913 -0.561182 0
M  V30 1389 C 137.748 3.18927 -1.20409 0
M  V30 1390 H 138.941 1.81924 -2.38419 0
M  V30 1391 H 136.494 0.91805 -1.26497 0
M  V30 1392 H 137.229 3.23436 -0.236522 0
M  V30 1393 H 137.014 3.36911 -2.00582 0
M  V30 1394 H 138.504 3.98949 -1.23408 0
M  V30 1395 N 138.941 1.26152 0.944643 0
M  V30 1396 C 140.357 1.03189 1.21754 0
M  V30 1397 C 140.557 -0.245112 2.00004 0
M  V30 1398 O 139.613 -0.955176 2.33736 0
M  V30 1399 C 140.926 2.26119 1.98219 0
M  V30 1400 C 142.474 2.30984 2.11224 0
M  V30 1401 C 142.949 3.53597 2.91089 0
M  V30 1402 N 144.44 3.54053 2.98664 0
M  V30 1403 C 145.175 4.45593 3.60881 0
M  V30 1404 N 144.671 5.47416 4.24626 0
M  V30 1405 N 146.464 4.33252 3.58119 0
M  V30 1406 H 138.615 2.08177 0.421437 0
M  V30 1407 H 140.878 0.914723 0.248969 0
M  V30 1408 H 140.584 3.18984 1.48128 0
M  V30 1409 H 140.458 2.3009 2.98895 0
M  V30 1410 H 142.845 1.38635 2.60508 0
M  V30 1411 H 142.926 2.31026 1.09821 0
M  V30 1412 H 142.57 4.46273 2.42493 0
M  V30 1413 H 142.5 3.50802 3.92741 0
M  V30 1414 H 144.991 2.80403 2.53343 0
M  V30 1415 H 145.304 6.13459 4.69987 0
M  V30 1416 H 143.649 5.51278 4.23223 0
M  V30 1417 H 146.84 3.52924 3.0751 0
M  V30 1418 H 147.013 5.04786 4.06319 0
M  V30 1419 N 140.419 -1.14872 1.07899 0
M  V30 1420 C 141.367 -2.21857 0.698727 0
M  V30 1421 C 142.361 -1.66845 -0.293086 0
M  V30 1422 O 143.567 -1.79321 -0.156204 0
M  V30 1423 H 139.942 -0.722691 0.207899 0
M  V30 1424 H 141.913 -2.51205 1.61054 0
M  V30 1425 C 140.662 -3.47498 0.11858 0
M  V30 1426 H 139.985 -3.90154 0.872914 0
M  V30 1427 H 141.425 -4.23858 -0.109759 0
M  V30 1428 C 139.884 -3.16947 -1.1422 0
M  V30 1429 O 140.414 -3.3426 -2.22785 0
M  V30 1430 N 138.62 -2.70946 -1.05055 0
M  V30 1431 H 138.167 -2.57058 -0.167038 0
M  V30 1432 H 138.125 -2.50879 -1.89491 0
M  V30 1433 N 141.898 -0.863906 -1.31812 0
M  V30 1434 C 142.83 -0.272485 -2.27575 0
M  V30 1435 C 143.843 0.56104 -1.52827 0
M  V30 1436 O 145.032 0.384021 -1.7432 0
M  V30 1437 C 142.132 0.63283 -3.32939 0
M  V30 1438 C 141.305 -0.166902 -4.37081 0
M  V30 1439 C 140.364 0.665608 -5.21973 0
M  V30 1440 O 139.39 0.0958091 -5.69119 0
M  V30 1441 N 140.592 1.9787 -5.45736 0
M  V30 1442 H 143.357 -1.0954 -2.78964 0
M  V30 1443 H 140.918 -0.724791 -1.4477 0
M  V30 1444 H 142.91 1.19532 -3.86645 0
M  V30 1445 H 141.48 1.35642 -2.81638 0
M  V30 1446 H 140.7 -0.910838 -3.83533 0
M  V30 1447 H 141.988 -0.715874 -5.03739 0
M  V30 1448 H 141.386 2.46484 -5.09178 0
M  V30 1449 H 139.943 2.48911 -6.024 0
M  V30 1450 N 143.376 1.44774 -0.622745 0
M  V30 1451 C 144.604 2.06487 -0.130722 0
M  V30 1452 C 145.019 1.46476 1.19123 0
M  V30 1453 O 144.376 0.584502 1.72887 0
M  V30 1454 C 144.427 3.615 -0.000807207 0
M  V30 1455 O 144.148 4.19274 -1.27048 0
M  V30 1456 C 145.649 4.40229 0.520898 0
M  V30 1457 H 142.869 0.666704 -0.0758106 0
M  V30 1458 H 145.413 1.85779 -0.854774 0
M  V30 1459 H 143.568 3.81498 0.673643 0
M  V30 1460 H 143.982 5.12622 -1.1099 0
M  V30 1461 H 145.456 5.49144 0.560838 0
M  V30 1462 H 145.933 4.1108 1.54627 0
M  V30 1463 H 146.539 4.25131 -0.120018 0
M  V30 1464 N 144.854 0.36279 1.53368 0
M  V30 1465 C 145.784 -0.476976 2.28576 0
M  V30 1466 C 146.765 -1.08631 1.30894 0
M  V30 1467 O 147.95 -1.10409 1.59761 0
M  V30 1468 C 145.08 -1.61828 3.07293 0
M  V30 1469 C 144.034 -1.13633 4.1264 0
M  V30 1470 C 143.36 -2.36766 4.79423 0
M  V30 1471 C 144.66 -0.223061 5.21823 0
M  V30 1472 H 146.354 0.150474 2.99022 0
M  V30 1473 H 143.9 0.0738103 1.43811 0
M  V30 1474 H 145.853 -2.21237 3.58653 0
M  V30 1475 H 144.577 -2.27292 2.34533 0
M  V30 1476 H 143.236 -0.564945 3.62221 0
M  V30 1477 H 142.884 -3.0068 4.03238 0
M  V30 1478 H 142.584 -2.05192 5.50609 0
M  V30 1479 H 144.108 -2.96865 5.33576 0
M  V30 1480 H 145.522 -0.724545 5.68703 0
M  V30 1481 H 143.919 0.001678 6.001 0
M  V30 1482 H 144.989 0.735553 4.79289 0
M  V30 1483 N 146.332 -1.57332 0.0918853 0
M  V30 1484 C 147.578 -1.94524 -0.573425 0
M  V30 1485 C 147.911 -0.973578 -1.68033 0
M  V30 1486 O 147.186 -0.00609226 -1.94499 0
M  V30 1487 C 147.469 -3.41858 -1.13161 0
M  V30 1488 C 147.322 -4.4979 -0.0299747 0
M  V30 1489 C 148.641 -3.90435 -2.03098 0
M  V30 1490 H 145.76 -0.70734 -0.206975 0
M  V30 1491 H 148.402 -1.89309 0.161942 0
M  V30 1492 H 146.552 -3.46433 -1.7583 0
M  V30 1493 H 148.224 -4.57327 0.604112 0
M  V30 1494 H 146.467 -4.291 0.636833 0
M  V30 1495 H 147.138 -5.50069 -0.461287 0
M  V30 1496 H 149.614 -3.87992 -1.50338 0
M  V30 1497 H 148.49 -4.94097 -2.39081 0
M  V30 1498 H 148.751 -3.29541 -2.94712 0
M  V30 1499 N 147.81 0.181792 -1.56548 0
M  V30 1500 C 148.773 1.20894 -1.94724 0
M  V30 1501 C 149.773 1.37738 -0.829747 0
M  V30 1502 O 150.963 1.35323 -1.09697 0
M  V30 1503 C 148.095 2.57593 -2.23291 0
M  V30 1504 H 149.288 0.882275 -2.86629 0
M  V30 1505 H 146.841 0.423838 -1.50444 0
M  V30 1506 H 147.576 2.95291 -1.34067 0
M  V30 1507 H 147.361 2.46735 -3.04736 0
M  V30 1508 H 148.851 3.31637 -2.53785 0
M  V30 1509 N 149.288 1.51039 0.449983 0
M  V30 1510 C 150.218 1.74379 1.55288 0
M  V30 1511 C 151.199 0.593236 1.5942 0
M  V30 1512 O 152.384 0.834625 1.7535 0
M  V30 1513 C 149.514 1.85728 2.93466 0
M  V30 1514 C 148.468 3.01078 3.04197 0
M  V30 1515 C 147.794 2.97595 4.44231 0
M  V30 1516 C 149.094 4.41254 2.7945 0
M  V30 1517 H 150.788 2.66725 1.36008 0
M  V30 1518 H 148.334 1.2835 0.652864 0
M  V30 1519 H 150.287 2.0064 3.70569 0
M  V30 1520 H 149.011 0.900207 3.13949 0
M  V30 1521 H 147.67 2.85851 2.29531 0
M  V30 1522 H 147.318 1.99691 4.61663 0
M  V30 1523 H 147.018 3.75046 4.52343 0
M  V30 1524 H 148.542 3.14583 5.23326 0
M  V30 1525 H 149.956 4.56897 3.46292 0
M  V30 1526 H 148.353 5.20315 2.98985 0
M  V30 1527 H 149.423 4.52164 1.75144 0
M  V30 1528 N 150.766 -0.704594 1.40972 0
M  V30 1529 C 151.729 -1.80035 1.41845 0
M  V30 1530 C 152.729 -1.57774 0.310474 0
M  V30 1531 O 153.919 -1.64613 0.56992 0
M  V30 1532 C 151.051 -3.18284 1.22098 0
M  V30 1533 H 152.244 -1.80658 2.3938 0
M  V30 1534 H 149.797 -0.911329 1.26982 0
M  V30 1535 H 150.532 -3.23306 0.253672 0
M  V30 1536 H 150.317 -3.35843 2.02366 0
M  V30 1537 H 151.807 -3.98289 1.25522 0
M  V30 1538 N 152.244 -1.26651 -0.937939 0
M  V30 1539 C 153.655 -1.1125 -1.49934 0
M  V30 1540 C 154.006 0.306077 -1.93798 0
M  V30 1541 O 153.131 1.19792 -1.80219 0
M  V30 1542 C 153.726 -2.01339 -2.72485 0
M  V30 1543 C 152.285 -1.90074 -3.24883 0
M  V30 1544 C 151.432 -1.94498 -1.97651 0
M  V30 1545 H 154.383 -1.39693 -0.753091 0
M  V30 1546 H 154.404 -1.56319 -3.46907 0
M  V30 1547 H 153.916 -3.04577 -2.40529 0
M  V30 1548 H 152.017 -0.897827 -3.61621 0
M  V30 1549 H 152.13 -2.75778 -3.9177 0
M  V30 1550 H 150.494 -1.38591 -2.13693 0
M  V30 1551 H 151.277 -2.99372 -1.68022 0
M  V30 1552 N 153.722 1.14298 -1.08507 0
M  V30 1553 C 154.632 2.23027 -0.727753 0
M  V30 1554 C 155.648 1.71952 0.26619 0
M  V30 1555 O 156.824 2.011 0.109882 0
M  V30 1556 C 153.889 3.46403 -0.143541 0
M  V30 1557 C 152.95 4.12413 -1.19223 0
M  V30 1558 C 152.183 5.29899 -0.635798 0
M  V30 1559 O 152.406 5.67796 0.544393 0
M  V30 1560 O 151.34 5.85717 -1.38634 0
M  V30 1561 H 155.166 2.55945 -1.63481 0
M  V30 1562 H 152.751 1.22248 -0.858817 0
M  V30 1563 H 154.633 4.21018 0.179404 0
M  V30 1564 H 153.308 3.15206 0.736659 0
M  V30 1565 H 152.215 3.39667 -1.56772 0
M  V30 1566 H 153.548 4.47718 -2.04474 0
M  V30 1567 N 155.201 0.870884 1.31352 0
M  V30 1568 C 156.426 0.495957 2.01383 0
M  V30 1569 C 156.851 -0.904324 1.64935 0
M  V30 1570 O 156.209 -1.59687 0.858466 0
M  V30 1571 C 156.257 0.661433 3.54482 0
M  V30 1572 O 155.361 -0.298851 4.11316 0
M  V30 1573 H 154.702 0.197158 0.634054 0
M  V30 1574 H 157.232 1.17455 1.67527 0
M  V30 1575 H 157.242 0.555072 4.04207 0
M  V30 1576 H 155.917 1.68246 3.8035 0
M  V30 1577 H 154.494 -0.147368 3.72609 0
M  V30 1578 N 156.679 -1.44442 0.630414 0
M  V30 1579 C 158.095 -1.56832 0.295973 0
M  V30 1580 C 158.295 -1.61806 -1.20088 0
M  V30 1581 O 157.351 -1.5607 -1.9849 0
M  V30 1582 C 158.664 -2.84031 0.987264 0
M  V30 1583 C 160.212 -2.97742 0.96534 0
M  V30 1584 C 160.687 -4.27743 1.63708 0
M  V30 1585 N 162.178 -4.34555 1.60364 0
M  V30 1586 C 162.913 -5.33862 2.09234 0
M  V30 1587 N 162.409 -6.39578 2.66292 0
M  V30 1588 N 164.202 -5.25366 1.99867 0
M  V30 1589 H 156.353 -1.39457 1.60205 0
M  V30 1590 H 158.616 -0.668237 0.672431 0
M  V30 1591 H 158.322 -2.86338 2.04215 0
M  V30 1592 H 158.196 -3.73534 0.524588 0
M  V30 1593 H 160.583 -2.94989 -0.0810639 0
M  V30 1594 H 160.664 -2.09589 1.4665 0
M  V30 1595 H 160.308 -4.31255 2.68293 0
M  V30 1596 H 160.238 -5.14752 1.11076 0
M  V30 1597 H 162.729 -3.58772 1.18705 0
M  V30 1598 H 163.042 -7.11637 3.01317 0
M  V30 1599 H 161.387 -6.40265 2.70343 0
M  V30 1600 H 164.578 -4.41688 1.55013 0
M  V30 1601 H 164.751 -6.02606 2.38265 0
M  V30 1602 N 158.157 -0.370918 -1.53173 0
M  V30 1603 C 159.12 0.460778 -2.24521 0
M  V30 1604 C 160.12 1.00536 -1.25496 0
M  V30 1605 O 161.31 0.890266 -1.49733 0
M  V30 1606 C 158.442 1.64457 -2.98608 0
M  V30 1607 H 159.635 -0.163613 -2.99453 0
M  V30 1608 H 157.188 -0.122699 -1.55818 0
M  V30 1609 H 157.923 2.30691 -2.2793 0
M  V30 1610 H 157.708 1.26099 -3.7127 0
M  V30 1611 H 159.198 2.23384 -3.5283 0
M  V30 1612 N 159.635 1.57281 -0.100228 0
M  V30 1613 C 160.875 1.96419 0.56558 0
M  V30 1614 C 161.239 0.981265 1.65031 0
M  V30 1615 O 162.44 1.26133 2.37369 0
M  V30 1616 C 160.711 3.39996 1.10171 0
M  V30 1617 S 162.27 4.01134 1.77867 0
M  V30 1618 H 159.088 0.68667 0.184406 0
M  V30 1619 H 161.69 1.94662 -0.180851 0
M  V30 1620 H 160.394 4.09296 0.300803 0
M  V30 1621 H 159.925 3.45361 1.88385 0
M  V30 1622 H 161.94 3.90358 3.06326 0
M  V30 1623 N 161.113 -0.173488 1.56642 0
M  V30 1624 C 162.341 -0.906095 1.86004 0
M  V30 1625 C 162.756 -1.75921 0.685355 0
M  V30 1626 O 162.113 -1.79198 -0.345578 0
M  V30 1627 C 162.164 -1.78462 3.14378 0
M  V30 1628 O 161.885 -0.965914 4.27319 0
M  V30 1629 C 163.386 -2.62707 3.57071 0
M  V30 1630 H 160.606 -0.263341 0.617165 0
M  V30 1631 H 163.15 -0.174236 2.03756 0
M  V30 1632 H 161.305 -2.46984 2.98459 0
M  V30 1633 H 161.719 -1.56655 5.00559 0
M  V30 1634 H 163.193 -3.19969 4.49804 0
M  V30 1635 H 163.67 -3.37472 2.81086 0
M  V30 1636 H 164.276 -1.99521 3.75595 0
M  V30 1637 N 162.591 -1.51276 -0.441967 0
M  V30 1638 C 163.821 -1.67273 -1.21257 0
M  V30 1639 C 164.229 -0.367624 -1.85594 0
M  V30 1640 O 163.572 0.663349 -1.71305 0
M  V30 1641 C 163.634 -2.72807 -2.34129 0
M  V30 1642 C 163.298 -4.1554 -1.90198 0
M  V30 1643 C 164.295 -5.00471 -1.40801 0
M  V30 1644 C 161.98 -4.61616 -1.9803 0
M  V30 1645 C 163.974 -6.29536 -0.998174 0
M  V30 1646 C 161.661 -5.90679 -1.56658 0
M  V30 1647 C 162.659 -6.74466 -1.07633 0
M  V30 1648 O 162.347 -8.01116 -0.668459 0
M  V30 1649 H 162.079 -0.564614 -0.371734 0
M  V30 1650 H 164.633 -1.9843 -0.530521 0
M  V30 1651 H 162.863 -2.36954 -3.05597 0
M  V30 1652 H 164.552 -2.77729 -2.96009 0
M  V30 1653 H 165.318 -4.66079 -1.34148 0
M  V30 1654 H 161.197 -3.96526 -2.35135 0
M  V30 1655 H 164.741 -6.94885 -0.61482 0
M  V30 1656 H 160.638 -6.24586 -1.62979 0
M  V30 1657 H 161.406 -8.14633 -0.794722 0
M  V30 1658 N 164.069 0.697108 -1.41344 0
M  V30 1659 C 165.316 1.45714 -1.40619 0
M  V30 1660 C 165.644 1.94494 -0.0147907 0
M  V30 1661 O 164.899 1.69794 0.973066 0
M  V30 1662 C 165.198 2.68553 -2.35826 0
M  V30 1663 C 164.864 2.38438 -3.82698 0
M  V30 1664 C 163.526 2.29936 -4.22709 0
M  V30 1665 C 165.878 2.13567 -4.75435 0
M  V30 1666 C 163.206 1.94656 -5.53467 0
M  V30 1667 C 165.558 1.79797 -6.06511 0
M  V30 1668 C 164.222 1.69789 -6.45545 0
M  V30 1669 H 163.492 0.533206 -0.51456 0
M  V30 1670 H 166.139 0.796901 -1.74131 0
M  V30 1671 H 164.444 3.39503 -1.95563 0
M  V30 1672 H 166.141 3.2669 -2.32539 0
M  V30 1673 H 162.731 2.4595 -3.51008 0
M  V30 1674 H 166.915 2.19082 -4.45328 0
M  V30 1675 H 162.171 1.8546 -5.82593 0
M  V30 1676 H 166.345 1.59572 -6.77872 0
M  V30 1677 H 163.972 1.4222 -7.46778 0
M  V30 1678 N 165.547 1.27147 0.931209 0
M  V30 1679 C 166.51 1.09615 2.01289 0
M  V30 1680 C 167.51 0.0412581 1.60747 0
M  V30 1681 O 168.7 0.285545 1.71844 0
M  V30 1682 C 165.832 0.669447 3.34262 0
M  V30 1683 H 167.025 2.05662 2.18273 0
M  V30 1684 H 164.578 1.09885 1.11153 0
M  V30 1685 H 165.313 -0.292572 3.22978 0
M  V30 1686 H 165.098 1.43127 3.65044 0
M  V30 1687 H 166.588 0.568921 4.13706 0
M  V30 1688 N 167.025 -1.13721 1.09112 0
M  V30 1689 C 168.272 -1.84924 0.825192 0
M  V30 1690 C 168.6 -1.83347 -0.649151 0
M  V30 1691 O 167.855 -1.26449 -1.49362 0
M  V30 1692 C 168.154 -3.32861 1.30146 0
M  V30 1693 C 167.82 -3.54621 2.78486 0
M  V30 1694 C 166.482 -3.60268 3.18999 0
M  V30 1695 C 168.834 -3.62855 3.74146 0
M  V30 1696 C 166.162 -3.71679 4.53951 0
M  V30 1697 C 168.514 -3.75793 5.08883 0
M  V30 1698 C 167.178 -3.79692 5.4899 0
M  V30 1699 H 166.448 -0.676684 0.301959 0
M  V30 1700 H 169.095 -1.3428 1.36533 0
M  V30 1701 H 167.4 -3.85835 0.681064 0
M  V30 1702 H 169.097 -3.86395 1.07236 0
M  V30 1703 H 165.687 -3.50879 2.46134 0
M  V30 1704 H 169.871 -3.57775 3.43963 0
M  V30 1705 H 165.127 -3.72963 4.84467 0
M  V30 1706 H 169.301 -3.81107 5.82864 0
M  V30 1707 H 166.928 -3.88287 6.53558 0
M  V30 1708 N 168.503 -0.877838 -1.30888 0
M  V30 1709 C 169.466 -0.344265 -2.266 0
M  V30 1710 C 170.466 0.50922 -1.52524 0
M  V30 1711 O 171.656 0.317398 -1.71284 0
M  V30 1712 C 168.788 0.510198 -3.37061 0
M  V30 1713 H 169.981 -1.1893 -2.7531 0
M  V30 1714 H 167.534 -0.654088 -1.41956 0
M  V30 1715 H 168.269 1.37612 -2.93655 0
M  V30 1716 H 168.054 -0.101047 -3.9197 0
M  V30 1717 H 169.544 0.875537 -4.08319 0
M  V30 1718 N 169.982 1.44106 -0.638065 0
M  V30 1719 C 170.915 2.27924 0.112161 0
M  V30 1720 C 171.893 1.38945 0.844574 0
M  V30 1721 O 173.077 1.68386 0.847248 0
M  V30 1722 C 170.204 3.18029 1.16512 0
M  V30 1723 C 169.25 4.23163 0.532458 0
M  V30 1724 S 170.083 5.31131 -0.682666 0
M  V30 1725 C 171.239 6.24805 0.37013 0
M  V30 1726 H 171.472 2.91205 -0.598887 0
M  V30 1727 H 169.005 1.48394 -0.426441 0
M  V30 1728 H 170.963 3.70492 1.76766 0
M  V30 1729 H 169.624 2.53955 1.8484 0
M  V30 1730 H 168.817 4.86252 1.32571 0
M  V30 1731 H 168.419 3.74 0.00437644 0
M  V30 1732 H 170.711 6.66042 1.24071 0
M  V30 1733 H 171.654 7.07741 -0.225349 0
M  V30 1734 H 172.062 5.60154 0.699141 0
M  V30 1735 N 171.46 0.379036 1.52974 0
M  V30 1736 C 172.688 -0.20679 2.05864 0
M  V30 1737 C 173.103 -1.41356 1.25155 0
M  V30 1738 O 172.46 -1.8009 0.295588 0
M  V30 1739 C 172.511 -0.587045 3.56702 0
M  V30 1740 O 172.232 0.571776 4.34353 0
M  V30 1741 C 173.733 -1.22983 4.25899 0
M  V30 1742 H 170.953 -0.0336123 0.670158 0
M  V30 1743 H 173.497 0.541298 1.97206 0
M  V30 1744 H 171.652 -1.28504 3.65466 0
M  V30 1745 H 172.066 0.261544 5.23847 0
M  V30 1746 H 173.54 -1.44635 5.32715 0
M  V30 1747 H 174.017 -2.19416 3.80465 0
M  V30 1748 H 174.623 -0.572892 4.21424 0
M  V30 1749 N 172.938 -1.57226 0.108567 0
M  V30 1750 C 174.185 -1.94833 -0.551943 0
M  V30 1751 C 174.513 -0.991204 -1.67348 0
M  V30 1752 O 173.768 -0.0131878 -1.95696 0
M  V30 1753 C 174.067 -3.38911 -1.13463 0
M  V30 1754 C 173.733 -4.50696 -0.135509 0
M  V30 1755 C 172.395 -4.80998 0.139252 0
M  V30 1756 C 174.747 -5.18333 0.545957 0
M  V30 1757 C 172.075 -5.76259 1.10194 0
M  V30 1758 C 174.427 -6.14627 1.49721 0
M  V30 1759 C 173.091 -6.43327 1.78006 0
M  V30 1760 H 172.361 -0.712944 -0.20197 0
M  V30 1761 H 175.008 -1.90582 0.18726 0
M  V30 1762 H 173.313 -3.39805 -1.95037 0
M  V30 1763 H 175.01 -3.65317 -1.65362 0
M  V30 1764 H 171.6 -4.27087 -0.359846 0
M  V30 1765 H 175.784 -4.95087 0.346842 0
M  V30 1766 H 171.04 -5.96804 1.32795 0
M  V30 1767 H 175.214 -6.66126 2.03099 0
M  V30 1768 H 172.841 -7.1695 2.52759 0
M  V30 1769 N 174.416 0.165178 -1.56732 0
M  V30 1770 C 175.663 0.880807 -1.8234 0
M  V30 1771 C 175.991 1.81977 -0.686621 0
M  V30 1772 O 175.246 1.92971 0.325697 0
M  V30 1773 C 175.545 1.70405 -3.1416 0
M  V30 1774 C 175.211 0.913475 -4.4155 0
M  V30 1775 C 173.873 0.695303 -4.7615 0
M  V30 1776 C 176.225 0.359349 -5.1996 0
M  V30 1777 C 173.553 -0.0879947 -5.86634 0
M  V30 1778 C 175.905 -0.410893 -6.31264 0
M  V30 1779 C 174.569 -0.639808 -6.64427 0
M  V30 1780 H 173.839 0.32231 -0.667231 0
M  V30 1781 H 176.486 0.145402 -1.90947 0
M  V30 1782 H 174.791 2.50903 -3.00923 0
M  V30 1783 H 176.488 2.26091 -3.31186 0
M  V30 1784 H 173.078 1.09357 -4.14414 0
M  V30 1785 H 177.262 0.515228 -4.93618 0
M  V30 1786 H 172.518 -0.27503 -6.10781 0
M  V30 1787 H 176.692 -0.847494 -6.91224 0
M  V30 1788 H 174.319 -1.24864 -7.49875 0
M  V30 1789 N 175.894 1.51508 0.433938 0
M  V30 1790 C 177.119 1.68443 1.21003 0
M  V30 1791 C 177.544 0.382636 1.84167 0
M  V30 1792 O 176.902 -0.65755 1.68956 0
M  V30 1793 C 176.95 2.80405 2.26727 0
M  V30 1794 O 176.054 2.44245 3.32292 0
M  V30 1795 H 175.395 0.561536 0.354363 0
M  V30 1796 H 177.925 1.9809 0.512024 0
M  V30 1797 H 177.935 3.0459 2.71457 0
M  V30 1798 H 176.61 3.74867 1.80132 0
M  V30 1799 H 175.187 2.30644 2.93015 0
M  V30 1800 N 177.372 -0.689602 1.41712 0
M  V30 1801 C 178.302 -1.81577 1.46806 0
M  V30 1802 C 179.283 -1.66945 0.326105 0
M  V30 1803 O 180.468 -1.86588 0.538377 0
M  V30 1804 C 177.598 -3.19762 1.35535 0
M  V30 1805 C 176.552 -3.49107 2.47605 0
M  V30 1806 C 175.878 -4.86711 2.21397 0
M  V30 1807 C 177.178 -3.47483 3.89939 0
M  V30 1808 H 178.872 -1.7757 2.41058 0
M  V30 1809 H 176.418 -0.852887 1.16025 0
M  V30 1810 H 178.371 -3.98263 1.3771 0
M  V30 1811 H 177.095 -3.24409 0.377708 0
M  V30 1812 H 175.754 -2.72959 2.44722 0
M  V30 1813 H 175.402 -4.8799 1.21961 0
M  V30 1814 H 175.102 -5.0731 2.96497 0
M  V30 1815 H 176.626 -5.67515 2.25297 0
M  V30 1816 H 178.04 -4.1598 3.94505 0
M  V30 1817 H 176.437 -3.79615 4.64771 0
M  V30 1818 H 177.507 -2.46341 4.17665 0
M  V30 1819 N 178.85 -1.27639 -0.924453 0
M  V30 1820 C 179.813 -1.10681 -2.00705 0
M  V30 1821 C 180.813 -0.0497823 -1.60723 0
M  V30 1822 O 182.003 -0.294654 -1.7169 0
M  V30 1823 C 179.135 -0.687164 -3.33902 0
M  V30 1824 H 180.328 -2.06817 -2.17179 0
M  V30 1825 H 177.881 -1.10473 -1.10569 0
M  V30 1826 H 178.616 0.275439 -3.23128 0
M  V30 1827 H 178.401 -1.45061 -3.6428 0
M  V30 1828 H 179.891 -0.590853 -4.13399 0
M  V30 1829 N 180.328 1.1314 -1.09713 0
M  V30 1830 C 181.556 1.88321 -0.856898 0
M  V30 1831 C 181.971 1.79276 0.592073 0
M  V30 1832 O 181.328 1.16142 1.40774 0
M  V30 1833 C 181.379 3.37812 -1.28706 0
M  V30 1834 O 181.1 3.46627 -2.67921 0
M  V30 1835 C 182.601 4.29952 -1.07964 0
M  V30 1836 H 179.821 0.596094 -0.308079 0
M  V30 1837 H 182.365 1.43205 -1.45988 0
M  V30 1838 H 180.52 3.805 -0.727912 0
M  V30 1839 H 180.934 4.39579 -2.8613 0
M  V30 1840 H 182.408 5.33159 -1.42986 0
M  V30 1841 H 182.885 4.39196 -0.0176577 0
M  V30 1842 H 183.491 3.93036 -1.62489 0
M  V30 1843 N 181.806 0.884767 1.30421 0
M  V30 1844 C 182.739 0.295999 2.26272 0
M  V30 1845 C 183.717 -0.58332 1.51777 0
M  V30 1846 O 184.901 -0.53346 1.80794 0
M  V30 1847 C 182.028 -0.57944 3.33707 0
M  V30 1848 C 181.074 0.230525 4.25877 0
M  V30 1849 S 181.907 1.61867 5.1045 0
M  V30 1850 C 183.063 0.749756 6.21393 0
M  V30 1851 H 183.296 1.10848 2.75862 0
M  V30 1852 H 180.829 0.684178 1.38414 0
M  V30 1853 H 182.787 -1.07879 3.96071 0
M  V30 1854 H 181.448 -1.36601 2.82841 0
M  V30 1855 H 180.641 -0.437542 5.02097 0
M  V30 1856 H 180.243 0.662493 3.68086 0
M  V30 1857 H 182.535 -0.0333547 6.77492 0
M  V30 1858 H 183.478 1.48356 6.92384 0
M  V30 1859 H 183.886 0.310751 5.63644 0
M  V30 1860 N 183.284 -1.43765 0.645699 0
M  V30 1861 C 184.214 -2.33471 -0.0370477 0
M  V30 1862 C 185.195 -1.49042 -0.819779 0
M  V30 1863 O 186.38 -1.77726 -0.782758 0
M  V30 1864 C 183.51 -3.32311 -1.0093 0
M  V30 1865 C 182.464 -4.2667 -0.337201 0
M  V30 1866 C 181.79 -5.1549 -1.42037 0
M  V30 1867 C 183.09 -5.16657 0.765706 0
M  V30 1868 H 184.784 -2.90809 0.712069 0
M  V30 1869 H 182.33 -1.39834 0.343876 0
M  V30 1870 H 184.283 -3.9396 -1.49578 0
M  V30 1871 H 183.007 -2.73213 -1.78948 0
M  V30 1872 H 181.666 -3.66374 0.128771 0
M  V30 1873 H 181.314 -4.52735 -2.1918 0
M  V30 1874 H 181.014 -5.79438 -0.975966 0
M  V30 1875 H 182.538 -5.80012 -1.90838 0
M  V30 1876 H 183.952 -5.72158 0.361702 0
M  V30 1877 H 182.349 -5.89286 1.13413 0
M  V30 1878 H 183.419 -4.56796 1.62683 0
M  V30 1879 N 184.763 -0.387143 -1.52771 0
M  V30 1880 C 185.696 0.493123 -2.22808 0
M  V30 1881 C 186.674 1.0658 -1.22798 0
M  V30 1882 O 187.858 1.11785 -1.51777 0
M  V30 1883 C 184.985 1.68238 -2.93962 0
M  V30 1884 C 184.031 1.23515 -4.08223 0
M  V30 1885 S 184.864 0.21848 -5.35054 0
M  V30 1886 C 186.02 1.41357 -6.09729 0
M  V30 1887 H 186.253 -0.101625 -2.97126 0
M  V30 1888 H 183.786 -0.171323 -1.53447 0
M  V30 1889 H 185.744 2.36443 -3.35567 0
M  V30 1890 H 184.405 2.24842 -2.19328 0
M  V30 1891 H 183.598 2.12304 -4.57103 0
M  V30 1892 H 183.2 0.632044 -3.68621 0
M  V30 1893 H 185.492 2.34101 -6.3577 0
M  V30 1894 H 186.435 0.965736 -7.01484 0
M  V30 1895 H 186.843 1.6294 -5.40473 0
M  V30 1896 N 186.241 1.57166 -0.116904 0
M  V30 1897 C 187.171 2.18222 0.830759 0
M  V30 1898 C 188.152 1.12167 1.27877 0
M  V30 1899 O 189.337 1.40394 1.34176 0
M  V30 1900 C 186.467 2.77996 2.08172 0
M  V30 1901 C 185.421 3.89614 1.77157 0
M  V30 1902 C 184.747 4.36187 3.09265 0
M  V30 1903 C 186.047 5.1181 1.04151 0
M  V30 1904 H 187.741 2.97664 0.321992 0
M  V30 1905 H 185.287 1.4318 0.153434 0
M  V30 1906 H 187.24 3.19366 2.74924 0
M  V30 1907 H 185.964 1.9584 2.6137 0
M  V30 1908 H 184.623 3.48816 1.12796 0
M  V30 1909 H 184.271 3.50893 3.60393 0
M  V30 1910 H 183.971 5.11455 2.89288 0
M  V30 1911 H 185.495 4.80207 3.77139 0
M  V30 1912 H 186.909 5.50214 1.61052 0
M  V30 1913 H 185.306 5.92648 0.942762 0
M  V30 1914 H 186.376 4.84892 0.0279022 0
M  V30 1915 N 187.719 -0.156864 1.56817 0
M  V30 1916 C 188.966 -0.871125 1.82805 0
M  V30 1917 C 189.294 -1.81611 0.696262 0
M  V30 1918 O 188.549 -1.93141 -0.315459 0
M  V30 1919 C 188.848 -1.68737 3.1506 0
M  V30 1920 C 188.514 -0.890045 4.42028 0
M  V30 1921 C 187.176 -0.670042 4.76512 0
M  V30 1922 C 189.528 -0.331769 5.20143 0
M  V30 1923 C 186.856 0.119104 5.86579 0
M  V30 1924 C 189.208 0.444365 6.31037 0
M  V30 1925 C 187.872 0.675035 6.64078 0
M  V30 1926 H 187.142 -0.318767 0.668931 0
M  V30 1927 H 189.789 -0.135274 1.91022 0
M  V30 1928 H 188.094 -2.49304 3.0225 0
M  V30 1929 H 189.791 -2.24331 3.3238 0
M  V30 1930 H 186.381 -1.07157 4.14988 0
M  V30 1931 H 190.565 -0.489043 4.93885 0
M  V30 1932 H 185.821 0.307417 6.10627 0
M  V30 1933 H 189.995 0.884139 6.90765 0
M  V30 1934 H 187.622 1.28839 7.49203 0
M  V30 1935 N 189.197 -1.51736 -0.425897 0
M  V30 1936 C 190.16 -1.73271 -1.50032 0
M  V30 1937 C 191.16 -0.602639 -1.4908 0
M  V30 1938 O 192.35 -0.87033 -1.509 0
M  V30 1939 C 189.482 -1.79969 -2.89523 0
M  V30 1940 H 190.675 -2.69172 -1.32237 0
M  V30 1941 H 188.228 -1.41899 -0.65532 0
M  V30 1942 H 188.963 -0.859241 -3.1271 0
M  V30 1943 H 188.748 -2.62109 -2.91619 0
M  V30 1944 H 190.238 -1.9843 -3.67444 0
M  V30 1945 N 190.675 0.682077 -1.42076 0
M  V30 1946 C 191.608 1.80666 -1.3941 0
M  V30 1947 C 192.586 1.60518 -0.25939 0
M  V30 1948 O 193.77 1.83088 -0.448456 0
M  V30 1949 C 190.897 3.17556 -1.17796 0
M  V30 1950 C 189.943 3.56468 -2.34164 0
M  V30 1951 S 190.776 3.59729 -3.96681 0
M  V30 1952 C 191.932 4.99323 -3.77395 0
M  V30 1953 H 192.165 1.82652 -2.34575 0
M  V30 1954 H 189.698 0.852062 -1.2876 0
M  V30 1955 H 191.656 3.96575 -1.06012 0
M  V30 1956 H 190.317 3.13164 -0.242279 0
M  V30 1957 H 189.51 4.5595 -2.1477 0
M  V30 1958 H 189.112 2.84792 -2.42425 0
M  V30 1959 H 191.404 5.87202 -3.37935 0
M  V30 1960 H 192.347 5.23763 -4.76527 0
M  V30 1961 H 192.755 4.71498 -3.10403 0
M  V30 1962 N 192.153 1.28127 0.917671 0
M  V30 1963 C 193.116 1.11744 2.00115 0
M  V30 1964 C 194.116 0.0583052 1.60694 0
M  V30 1965 O 195.306 0.303755 1.71531 0
M  V30 1966 C 192.438 0.704862 3.33533 0
M  V30 1967 H 193.631 2.07966 2.16079 0
M  V30 1968 H 191.184 1.11058 1.09981 0
M  V30 1969 H 191.919 -0.258299 3.2327 0
M  V30 1970 H 191.704 1.4699 3.63505 0
M  V30 1971 H 193.194 0.612768 4.1308 0
M  V30 1972 N 193.631 -1.12557 1.10312 0
M  V30 1973 C 194.561 -2.20341 0.772798 0
M  V30 1974 C 195.542 -1.68198 -0.25365 0
M  V30 1975 O 196.727 -1.93831 -0.119699 0
M  V30 1976 C 193.857 -3.46709 0.202443 0
M  V30 1977 C 192.811 -4.11996 1.15943 0
M  V30 1978 C 192.137 -5.328 0.450345 0
M  V30 1979 C 193.437 -4.5828 2.50552 0
M  V30 1980 H 195.131 -2.48229 1.674 0
M  V30 1981 H 192.677 -1.19308 0.806326 0
M  V30 1982 H 194.63 -4.2138 -0.0407752 0
M  V30 1983 H 193.354 -3.18245 -0.734001 0
M  V30 1984 H 192.013 -3.39305 1.38808 0
M  V30 1985 H 191.661 -5.00602 -0.490531 0
M  V30 1986 H 191.361 -5.7743 1.08851 0
M  V30 1987 H 192.885 -6.10219 0.215642 0
M  V30 1988 H 194.299 -5.2433 2.31843 0
M  V30 1989 H 192.696 -5.13683 3.10242 0
M  V30 1990 H 193.766 -3.72329 3.10643 0
M  V30 1991 N 195.109 -0.891671 -1.2995 0
M  V30 1992 C 196.019 -0.367691 -2.31701 0
M  V30 1993 C 197.035 0.533486 -1.6562 0
M  V30 1994 O 198.211 0.424997 -1.96865 0
M  V30 1995 C 195.276 0.403406 -3.44345 0
M  V30 1996 C 194.337 -0.528328 -4.26037 0
M  V30 1997 C 193.57 0.206063 -5.33302 0
M  V30 1998 O 193.793 1.43119 -5.52153 0
M  V30 1999 O 192.727 -0.447281 -6.00236 0
M  V30 2000 H 196.553 -1.21163 -2.78484 0
M  V30 2001 H 194.138 -0.655725 -1.34241 0
M  V30 2002 H 196.02 0.839753 -4.12948 0
M  V30 2003 H 194.695 1.22354 -2.99685 0
M  V30 2004 H 193.602 -1.01362 -3.60106 0
M  V30 2005 H 194.935 -1.31465 -4.74318 0
M  V30 2006 N 196.587 1.43421 -0.653314 0
M  V30 2007 C 198.003 1.56341 -0.320886 0
M  V30 2008 C 198.203 1.63696 1.17499 0
M  V30 2009 O 197.259 1.59208 1.95982 0
M  V30 2010 C 198.572 2.82424 -1.03233 0
M  V30 2011 C 200.12 2.96168 -1.01259 0
M  V30 2012 C 200.595 4.25084 -1.70492 0
M  V30 2013 N 202.086 4.31948 -1.67257 0
M  V30 2014 C 202.821 5.30466 -2.17701 0
M  V30 2015 N 202.317 6.35261 -2.76434 0
M  V30 2016 N 204.11 5.2212 -2.082 0
M  V30 2017 H 196.261 1.3689 -1.62403 0
M  V30 2018 H 198.524 0.657455 -0.682977 0
M  V30 2019 H 198.23 2.83053 -2.08744 0
M  V30 2020 H 198.104 3.72653 -0.583948 0
M  V30 2021 H 200.491 2.9508 0.0341235 0
M  V30 2022 H 200.572 2.07229 -1.49966 0
M  V30 2023 H 200.216 4.26932 -2.7512 0
M  V30 2024 H 200.146 5.1292 -1.19251 0
M  V30 2025 H 202.637 3.56838 -1.24398 0
M  V30 2026 H 202.95 7.06754 -3.12601 0
M  V30 2027 H 201.295 6.35884 -2.80495 0
M  V30 2028 H 204.486 4.39166 -1.62021 0
M  V30 2029 H 204.659 5.98739 -2.47822 0
M  V30 2030 N 198.065 0.39524 1.52563 0
M  V30 2031 C 199.295 -0.184675 2.05773 0
M  V30 2032 C 199.703 -1.40571 1.26635 0
M  V30 2033 O 199.046 -1.81105 0.30769 0
M  V30 2034 C 199.108 -0.613551 3.54226 0
M  V30 2035 C 198.772 0.49484 4.54313 0
M  V30 2036 C 199.769 1.3541 5.01956 0
M  V30 2037 C 197.454 0.663565 4.97898 0
M  V30 2038 C 199.448 2.36716 5.91814 0
M  V30 2039 C 197.135 1.67996 5.87555 0
M  V30 2040 C 198.133 2.53017 6.34406 0
M  V30 2041 O 197.821 3.52917 7.22291 0
M  V30 2042 H 197.553 -0.030077 0.675331 0
M  V30 2043 H 200.107 0.560708 1.97599 0
M  V30 2044 H 198.337 -1.411 3.60038 0
M  V30 2045 H 200.026 -1.11981 3.90148 0
M  V30 2046 H 200.792 1.23509 4.6901 0
M  V30 2047 H 196.671 0.0114913 4.60999 0
M  V30 2048 H 200.215 3.03113 6.28306 0
M  V30 2049 H 196.112 1.79933 6.19915 0
M  V30 2050 H 196.88 3.48996 7.40367 0
M  V30 2051 N 199.544 -1.57102 0.125237 0
M  V30 2052 C 200.474 -2.18659 -0.819174 0
M  V30 2053 C 201.455 -1.12843 -1.27281 0
M  V30 2054 O 202.64 -1.41104 -1.33429 0
M  V30 2055 C 199.77 -2.79096 -2.06695 0
M  V30 2056 C 198.724 -3.90548 -1.75088 0
M  V30 2057 C 198.05 -4.37821 -3.06948 0
M  V30 2058 C 199.35 -5.12356 -1.01435 0
M  V30 2059 H 201.044 -2.9783 -0.306202 0
M  V30 2060 H 198.59 -1.4326 -0.145839 0
M  V30 2061 H 200.543 -3.2082 -2.73226 0
M  V30 2062 H 199.267 -1.97223 -2.60328 0
M  V30 2063 H 197.926 -3.49409 -1.10944 0
M  V30 2064 H 197.574 -3.52799 -3.58527 0
M  V30 2065 H 197.274 -5.12982 -2.86571 0
M  V30 2066 H 198.798 -4.822 -3.74587 0
M  V30 2067 H 200.212 -5.5106 -1.58132 0
M  V30 2068 H 198.609 -5.9314 -0.911319 0
M  V30 2069 H 199.679 -4.849 -0.00218681 0
M  V30 2070 N 201.022 0.148545 -1.56898 0
M  V30 2071 C 202.247 0.880385 -1.87787 0
M  V30 2072 C 202.672 1.74018 -0.714093 0
M  V30 2073 O 202.03 1.78153 0.336343 0
M  V30 2074 C 202.078 1.71422 -3.17249 0
M  V30 2075 O 201.182 2.8183 -3.01074 0
M  V30 2076 H 200.523 0.245301 -0.617028 0
M  V30 2077 H 203.053 0.139826 -2.04122 0
M  V30 2078 H 203.063 2.10954 -3.49231 0
M  V30 2079 H 201.738 1.08284 -4.01556 0
M  V30 2080 H 200.315 2.45715 -2.80497 0
M  V30 2081 N 202.5 1.5196 0.417844 0
M  V30 2082 C 203.749 1.6482 1.16264 0
M  V30 2083 C 204.062 0.379886 1.91876 0
M  V30 2084 O 205.268 0.388154 2.68711 0
M  V30 2085 C 203.724 2.91161 2.1155 0
M  V30 2086 C 203.332 4.25068 1.41495 0
M  V30 2087 C 205.076 3.13383 2.86341 0
M  V30 2088 C 202.983 5.42541 2.35379 0
M  V30 2089 H 201.913 0.613954 0.437694 0
M  V30 2090 H 204.564 1.78442 0.427871 0
M  V30 2091 H 202.946 2.71218 2.88543 0
M  V30 2092 H 204.12 4.55463 0.699263 0
M  V30 2093 H 202.435 4.0888 0.787792 0
M  V30 2094 H 205.032 3.98324 3.5671 0
M  V30 2095 H 205.375 2.27256 3.48798 0
M  V30 2096 H 205.908 3.33757 2.1645 0
M  V30 2097 H 202.647 6.30987 1.77582 0
M  V30 2098 H 202.167 5.16497 3.04945 0
M  V30 2099 H 203.846 5.75272 2.96093 0
M  V30 2100 N 203.978 -0.674533 1.42435 0
M  V30 2101 C 205.226 -1.43175 1.42637 0
M  V30 2102 C 205.547 -1.94951 0.0438992 0
M  V30 2103 O 204.817 -1.7308 -0.917607 0
M  V30 2104 H 203.397 -0.531307 0.525092 0
M  V30 2105 H 206.059 -0.797006 1.77859 0
M  V30 2106 H 205.155 -2.28463 2.12629 0
M  V30 2107 N 205.456 -1.28612 -0.910864 0
M  V30 2108 C 206.406 -1.09423 -2.00026 0
M  V30 2109 C 207.39 -0.0170079 -1.60891 0
M  V30 2110 O 208.582 -0.237472 -1.754 0
M  V30 2111 C 205.711 -0.76114 -3.34756 0
M  V30 2112 C 204.797 -1.87735 -3.80285 0
M  V30 2113 N 205.188 -3.11938 -3.98156 0
M  V30 2114 C 203.486 -1.76786 -4.09467 0
M  V30 2115 C 204.187 -3.84687 -4.36338 0
M  V30 2116 N 203.163 -3.12555 -4.44759 0
M  V30 2117 H 206.965 -2.03658 -2.11898 0
M  V30 2118 H 204.479 -1.19573 -1.09891 0
M  V30 2119 H 206.476 -0.604743 -4.12491 0
M  V30 2120 H 205.136 0.173403 -3.24237 0
M  V30 2121 H 206.147 -3.47516 -3.83996 0
M  V30 2122 H 202.824 -0.905284 -4.07567 0
M  V30 2123 H 204.214 -4.91518 -4.58104 0
M  V30 2124 N 206.934 1.1197 -1.10907 0
M  V30 2125 C 208.345 1.65114 -0.871446 0
M  V30 2126 C 208.696 1.86885 0.597353 0
M  V30 2127 O 207.821 1.59896 1.45816 0
M  V30 2128 C 208.416 2.99944 -1.5754 0
M  V30 2129 C 206.975 3.50018 -1.38435 0
M  V30 2130 C 206.122 2.24941 -1.62164 0
M  V30 2131 H 209.073 0.956851 -1.2661 0
M  V30 2132 H 209.094 3.66651 -1.01721 0
M  V30 2133 H 208.606 2.84067 -2.64438 0
M  V30 2134 H 206.707 3.71071 -0.337214 0
M  V30 2135 H 206.82 4.29165 -2.12965 0
M  V30 2136 H 205.184 2.3229 -1.04467 0
M  V30 2137 H 205.967 2.11612 -2.70324 0
M  V30 2138 N 208.412 0.89855 1.29475 0
M  V30 2139 C 209.642 0.538479 1.99459 0
M  V30 2140 C 210.05 -0.880922 1.67441 0
M  V30 2141 O 209.393 -1.59283 0.915127 0
M  V30 2142 C 209.455 0.649564 3.53583 0
M  V30 2143 C 209.119 2.03573 4.09154 0
M  V30 2144 C 210.116 3.00675 4.24135 0
M  V30 2145 C 207.801 2.3448 4.44212 0
M  V30 2146 C 209.795 4.26809 4.73405 0
M  V30 2147 C 207.482 3.60857 4.93179 0
M  V30 2148 C 208.48 4.56836 5.0773 0
M  V30 2149 O 208.168 5.80969 5.55635 0
M  V30 2150 H 207.9 0.205372 0.644048 0
M  V30 2151 H 210.454 1.20958 1.66007 0
M  V30 2152 H 208.684 -0.0785592 3.8662 0
M  V30 2153 H 210.373 0.29881 4.04799 0
M  V30 2154 H 211.139 2.78112 3.97339 0
M  V30 2155 H 207.018 1.60534 4.32145 0
M  V30 2156 H 210.562 5.0173 4.84678 0
M  V30 2157 H 206.459 3.83251 5.19412 0
M  V30 2158 H 207.227 5.83542 5.73952 0
M  V30 2159 N 209.89 -1.43072 0.660911 0
M  V30 2160 C 211.137 -2.01721 0.177445 0
M  V30 2161 C 211.465 -1.5218 -1.21126 0
M  V30 2162 O 210.72 -0.708659 -1.82419 0
M  V30 2163 C 211.019 -3.57103 0.145563 0
M  V30 2164 C 210.685 -4.26021 1.47705 0
M  V30 2165 C 209.347 -4.44563 1.84165 0
M  V30 2166 C 211.699 -4.64983 2.35458 0
M  V30 2167 C 209.027 -4.99334 3.0803 0
M  V30 2168 C 211.379 -5.21127 3.58622 0
M  V30 2169 C 210.043 -5.37884 3.95268 0
M  V30 2170 H 209.313 -0.73815 0.0649317 0
M  V30 2171 H 211.96 -1.71446 0.853144 0
M  V30 2172 H 210.265 -3.86965 -0.61361 0
M  V30 2173 H 211.962 -4.00248 -0.2455 0
M  V30 2174 H 208.552 -4.11939 1.18339 0
M  V30 2175 H 212.736 -4.50343 2.08579 0
M  V30 2176 H 207.992 -5.10493 3.36462 0
M  V30 2177 H 212.166 -5.50262 4.26831 0
M  V30 2178 H 209.793 -5.80089 4.91325 0
M  V30 2179 N 211.368 -0.403325 -1.52352 0
M  V30 2180 C 212.598 0.17376 -2.05868 0
M  V30 2181 C 213.006 1.39898 -1.27378 0
M  V30 2182 O 212.349 1.80939 -0.31729 0
M  V30 2183 C 212.411 0.594756 -3.54546 0
M  V30 2184 C 212.075 -0.518926 -4.54044 0
M  V30 2185 C 213.072 -1.3807 -5.01231 0
M  V30 2186 C 210.757 -0.689961 -4.97539 0
M  V30 2187 C 212.751 -2.39852 -5.90551 0
M  V30 2188 C 210.438 -1.71109 -5.86656 0
M  V30 2189 C 211.436 -2.56378 -6.33056 0
M  V30 2190 O 211.124 -3.56743 -7.20409 0
M  V30 2191 H 210.856 0.0264951 -0.675481 0
M  V30 2192 H 213.41 -0.571179 -1.97299 0
M  V30 2193 H 211.64 1.39189 -3.60782 0
M  V30 2194 H 213.329 1.0991 -3.90736 0
M  V30 2195 H 214.095 -1.25994 -4.68349 0
M  V30 2196 H 209.974 -0.035939 -4.60986 0
M  V30 2197 H 213.518 -3.06441 -6.26689 0
M  V30 2198 H 209.415 -1.83218 -6.18952 0
M  V30 2199 H 210.183 -3.52918 -7.38506 0
M  V30 2200 N 212.846 1.57033 -0.133567 0
M  V30 2201 C 213.778 2.13176 0.841944 0
M  V30 2202 C 214.791 1.07794 1.22001 0
M  V30 2203 O 215.98 1.35117 1.16643 0
M  V30 2204 C 213.08 2.62847 2.13926 0
M  V30 2205 C 212.253 3.92486 1.93064 0
M  V30 2206 C 211.312 4.27605 3.0666 0
M  V30 2207 O 210.338 4.96168 2.78937 0
M  V30 2208 N 211.54 3.861 4.33483 0
M  V30 2209 H 214.305 2.97503 0.362192 0
M  V30 2210 H 211.866 1.61821 0.05042 0
M  V30 2211 H 213.858 2.83363 2.88942 0
M  V30 2212 H 212.428 1.83319 2.53205 0
M  V30 2213 H 211.648 3.80732 1.02159 0
M  V30 2214 H 212.936 4.77225 1.76447 0
M  V30 2215 H 212.334 3.30828 4.58878 0
M  V30 2216 H 210.891 4.11694 5.05323 0
M  V30 2217 N 214.325 -0.140222 1.56975 0
M  V30 2218 C 215.741 -0.493088 1.51792 0
M  V30 2219 C 215.941 -1.83013 0.843116 0
M  V30 2220 O 214.997 -2.49041 0.416493 0
M  V30 2221 C 216.31 -0.497144 2.96562 0
M  V30 2222 C 217.858 -0.582186 3.07538 0
M  V30 2223 C 218.333 -0.616838 4.53827 0
M  V30 2224 N 219.824 -0.678873 4.58198 0
M  V30 2225 C 220.559 -0.726782 5.68775 0
M  V30 2226 N 220.055 -0.733623 6.88905 0
M  V30 2227 N 221.848 -0.768179 5.56826 0
M  V30 2228 H 213.999 0.736108 1.99237 0
M  V30 2229 H 216.262 0.269182 0.90898 0
M  V30 2230 H 215.968 0.417217 3.49217 0
M  V30 2231 H 215.842 -1.33263 3.52875 0
M  V30 2232 H 218.229 -1.48697 2.54899 0
M  V30 2233 H 218.31 0.280581 2.54257 0
M  V30 2234 H 217.954 0.283812 5.07106 0
M  V30 2235 H 217.884 -1.49619 5.04898 0
M  V30 2236 H 220.375 -0.68061 3.7172 0
M  V30 2237 H 220.688 -0.772215 7.68932 0
M  V30 2238 H 219.033 -0.701389 6.91452 0
M  V30 2239 H 222.224 -0.760051 4.61888 0
M  V30 2240 H 222.397 -0.80205 6.43017 0
M  V30 2241 N 215.803 -1.52179 -0.40978 0
M  V30 2242 C 217.219 -1.40968 -0.74835 0
M  V30 2243 C 217.419 -0.513657 -1.94843 0
M  V30 2244 O 216.475 0.0208026 -2.52491 0
M  V30 2245 C 217.788 -2.83483 -1.0029 0
M  V30 2246 C 219.336 -2.92821 -1.10565 0
M  V30 2247 C 219.811 -4.36303 -1.39296 0
M  V30 2248 N 221.302 -4.39535 -1.46162 0
M  V30 2249 C 222.037 -5.47614 -1.70018 0
M  V30 2250 N 221.533 -6.65812 -1.91483 0
M  V30 2251 N 223.326 -5.35129 -1.72027 0
M  V30 2252 H 215.477 -2.0897 0.380186 0
M  V30 2253 H 217.74 -0.94185 0.107805 0
M  V30 2254 H 217.446 -3.51168 -0.193461 0
M  V30 2255 H 217.32 -3.24487 -1.92323 0
M  V30 2256 H 219.707 -2.25318 -1.90568 0
M  V30 2257 H 219.788 -2.55276 -0.16369 0
M  V30 2258 H 219.432 -5.04366 -0.598109 0
M  V30 2259 H 219.362 -4.71385 -2.34743 0
M  V30 2260 H 221.853 -3.54332 -1.31367 0
M  V30 2261 H 222.166 -7.43964 -2.09134 0
M  V30 2262 H 220.511 -6.68879 -1.88749 0
M  V30 2263 H 223.702 -4.41764 -1.54796 0
M  V30 2264 H 223.875 -6.19433 -1.9028 0
M  V30 2265 N 217.281 0.66697 -1.42791 0
M  V30 2266 C 218.527 1.4291 -1.43891 0
M  V30 2267 C 218.86 1.94114 -0.0578972 0
M  V30 2268 O 218.135 1.71414 0.91911 0
M  V30 2269 C 218.418 2.62049 -2.46987 0
M  V30 2270 C 218.271 2.16426 -3.94309 0
M  V30 2271 C 219.59 3.64266 -2.46978 0
M  V30 2272 H 216.709 0.518306 -0.523954 0
M  V30 2273 H 219.351 0.757321 -1.74255 0
M  V30 2274 H 217.501 3.19361 -2.21225 0
M  V30 2275 H 219.173 1.64221 -4.31079 0
M  V30 2276 H 217.416 1.47925 -4.078 0
M  V30 2277 H 218.087 3.02038 -4.62036 0
M  V30 2278 H 220.563 3.16686 -2.69906 0
M  V30 2279 H 219.439 4.45196 -3.21079 0
M  V30 2280 H 219.7 4.15927 -1.49857 0
M  V30 2281 N 218.759 1.29093 0.90403 0
M  V30 2282 C 219.984 1.19809 1.69294 0
M  V30 2283 C 220.409 -0.238481 1.86582 0
M  V30 2284 O 219.767 -1.1723 1.383 0
M  V30 2285 C 219.815 1.91202 3.05736 0
M  V30 2286 O 218.919 1.22611 3.93752 0
M  V30 2287 H 218.26 0.415385 0.518027 0
M  V30 2288 H 220.79 1.70586 1.12967 0
M  V30 2289 H 220.8 1.99487 3.55906 0
M  V30 2290 H 219.475 2.95692 2.92471 0
M  V30 2291 H 218.052 1.22554 3.52186 0
M  V30 2292 N 220.237 -1.11381 1.11499 0
M  V30 2293 C 221.653 -1.35143 0.849031 0
M  V30 2294 C 221.853 -1.94515 -0.525938 0
M  V30 2295 O 220.909 -2.1785 -1.27662 0
M  V30 2296 C 222.222 -2.28249 1.95762 0
M  V30 2297 C 223.77 -2.41812 1.98736 0
M  V30 2298 C 224.245 -3.3824 3.088 0
M  V30 2299 N 225.736 -3.45803 3.08179 0
M  V30 2300 C 226.471 -4.20358 3.89982 0
M  V30 2301 N 225.967 -4.97884 4.8175 0
M  V30 2302 N 227.76 -4.15877 3.78157 0
M  V30 2303 H 219.911 -0.712062 2.00109 0
M  V30 2304 H 222.174 -0.376025 0.870235 0
M  V30 2305 H 221.88 -1.91817 2.94787 0
M  V30 2306 H 221.754 -3.28473 1.85433 0
M  V30 2307 H 224.141 -2.77518 1.00338 0
M  V30 2308 H 224.222 -1.41437 2.13141 0
M  V30 2309 H 223.866 -3.03261 4.07425 0
M  V30 2310 H 223.796 -4.38471 2.91635 0
M  V30 2311 H 226.287 -2.90506 2.41691 0
M  V30 2312 H 226.6 -5.52142 5.40702 0
M  V30 2313 H 224.945 -4.97043 4.85771 0
M  V30 2314 H 228.136 -3.544 3.05808 0
M  V30 2315 H 228.309 -4.73723 4.42143 0
M  V30 2316 N 221.715 -0.905404 -1.28997 0
M  V30 2317 C 222.94 -0.549175 -1.99997 0
M  V30 2318 C 223.365 0.860276 -1.67275 0
M  V30 2319 O 222.723 1.57355 -0.900502 0
M  V30 2320 C 222.771 -0.755185 -3.52604 0
M  V30 2321 O 221.875 0.189692 -4.11964 0
M  V30 2322 H 221.216 -0.213899 -0.628604 0
M  V30 2323 H 223.746 -1.21856 -1.64354 0
M  V30 2324 H 223.756 -0.662045 -4.02593 0
M  V30 2325 H 222.431 -1.78271 -3.75755 0
M  V30 2326 H 221.008 0.0485257 -3.72868 0
M  V30 2327 N 223.193 1.4272 -0.668489 0
M  V30 2328 C 224.441 2.01226 -0.187769 0
M  V30 2329 C 224.762 1.53092 1.2078 0
M  V30 2330 O 224.032 0.74993 1.80977 0
M  V30 2331 H 222.612 0.744041 -0.0664272 0
M  V30 2332 H 225.274 1.74723 -0.863583 0
M  V30 2333 H 224.37 3.11556 -0.184166 0
M  V30 2334 N 224.671 0.411399 1.52136 0
M  V30 2335 C 225.919 -0.163322 2.01439 0
M  V30 2336 C 226.24 -1.45453 1.29879 0
M  V30 2337 O 225.51 -1.91225 0.4254 0
M  V30 2338 H 224.09 -0.0633447 0.744309 0
M  V30 2339 H 226.752 0.548161 1.87033 0
M  V30 2340 H 225.848 -0.357817 3.10042 0
M  V30 2341 N 226.149 -1.5696 0.141893 0
M  V30 2342 C 227.079 -2.19516 -0.795936 0
M  V30 2343 C 228.06 -1.14187 -1.26077 0
M  V30 2344 O 229.245 -1.42511 -1.31925 0
M  V30 2345 C 226.375 -2.81272 -2.03723 0
M  V30 2346 C 225.329 -3.92384 -1.70936 0
M  V30 2347 C 224.655 -4.41052 -3.02287 0
M  V30 2348 C 225.955 -5.13403 -0.959954 0
M  V30 2349 H 227.649 -2.98138 -0.274596 0
M  V30 2350 H 225.195 -1.43406 -0.130636 0
M  V30 2351 H 227.148 -3.237 -2.69808 0
M  V30 2352 H 225.872 -1.99973 -2.58221 0
M  V30 2353 H 224.531 -3.50566 -1.07232 0
M  V30 2354 H 224.179 -3.56582 -3.54765 0
M  V30 2355 H 223.879 -5.15993 -2.81114 0
M  V30 2356 H 225.403 -4.86146 -3.69451 0
M  V30 2357 H 226.817 -5.52706 -1.52279 0
M  V30 2358 H 225.214 -5.94073 -0.848357 0
M  V30 2359 H 226.284 -4.84875 0.0492434 0
M  V30 2360 N 227.627 0.131896 -1.57047 0
M  V30 2361 C 228.59 1.14638 -1.98471 0
M  V30 2362 C 229.59 1.35029 -0.873148 0
M  V30 2363 O 230.78 1.31764 -1.13946 0
M  V30 2364 C 227.912 2.50358 -2.31373 0
M  V30 2365 H 229.105 0.79064 -2.8929 0
M  V30 2366 H 226.658 0.375761 -1.51716 0
M  V30 2367 H 227.393 2.90876 -1.43393 0
M  V30 2368 H 227.178 2.36915 -3.12432 0
M  V30 2369 H 228.668 3.23395 -2.64207 0
M  V30 2370 N 229.106 1.52395 0.401703 0
M  V30 2371 C 230.352 1.67065 1.14966 0
M  V30 2372 C 230.685 0.403052 1.89971 0
M  V30 2373 O 229.96 -0.598774 1.85054 0
M  V30 2374 C 230.243 2.8975 2.13815 0
M  V30 2375 C 230.096 4.26578 1.42658 0
M  V30 2376 C 231.415 3.07965 3.14397 0
M  V30 2377 H 228.534 0.607968 0.416587 0
M  V30 2378 H 231.176 1.84965 0.434511 0
M  V30 2379 H 229.326 2.74619 2.74803 0
M  V30 2380 H 230.998 4.53451 0.847329 0
M  V30 2381 H 229.241 4.27639 0.72849 0
M  V30 2382 H 229.912 5.08483 2.14823 0
M  V30 2383 H 232.388 3.22043 2.63491 0
M  V30 2384 H 231.264 3.95308 3.80819 0
M  V30 2385 H 231.525 2.21611 3.82545 0
M  V30 2386 N 230.584 -0.659388 1.43143 0
M  V30 2387 C 231.514 -1.78422 1.50625 0
M  V30 2388 C 232.495 -1.66216 0.361443 0
M  V30 2389 O 233.68 -1.85404 0.577834 0
M  V30 2390 C 230.81 -3.16815 1.42287 0
M  V30 2391 C 229.764 -3.43777 2.54954 0
M  V30 2392 C 229.09 -4.81905 2.31671 0
M  V30 2393 C 230.39 -3.39134 3.97222 0
M  V30 2394 H 232.084 -1.72417 2.44771 0
M  V30 2395 H 229.63 -0.828084 1.17808 0
M  V30 2396 H 231.583 -3.95253 1.46127 0
M  V30 2397 H 230.307 -3.23534 0.446435 0
M  V30 2398 H 228.966 -2.67707 2.50457 0
M  V30 2399 H 228.614 -4.85294 1.32284 0
M  V30 2400 H 228.314 -5.00906 3.07192 0
M  V30 2401 H 229.838 -5.62609 2.37284 0
M  V30 2402 H 231.252 -4.07518 4.03239 0
M  V30 2403 H 229.649 -3.69671 4.72719 0
M  V30 2404 H 230.719 -2.37426 4.22797 0
M  V30 2405 N 232.062 -1.29571 -0.897171 0
M  V30 2406 C 233.473 -1.15964 -1.46319 0
M  V30 2407 C 233.824 0.244267 -1.94674 0
M  V30 2408 O 232.949 1.13998 -1.83939 0
M  V30 2409 C 233.544 -2.09906 -2.65942 0
M  V30 2410 C 232.103 -2.00314 -3.18671 0
M  V30 2411 C 231.25 -2.00687 -1.91363 0
M  V30 2412 H 234.201 -1.42019 -0.708268 0
M  V30 2413 H 234.222 -1.67276 -3.41759 0
M  V30 2414 H 233.734 -3.12075 -2.30718 0
M  V30 2415 H 231.835 -1.01242 -3.58582 0
M  V30 2416 H 231.948 -2.88102 -3.82798 0
M  V30 2417 H 230.312 -1.45319 -2.09175 0
M  V30 2418 H 231.095 -3.04566 -1.58413 0
M  V30 2419 N 233.54 1.10788 -1.12088 0
M  V30 2420 C 234.786 1.82942 -0.875226 0
M  V30 2421 C 235.119 1.84779 0.597538 0
M  V30 2422 O 234.394 1.30578 1.44152 0
M  V30 2423 C 234.677 3.29789 -1.44606 0
M  V30 2424 C 234.53 3.36307 -2.98693 0
M  V30 2425 C 235.849 4.26064 -1.10261 0
M  V30 2426 H 232.968 0.664195 -0.319397 0
M  V30 2427 H 235.61 1.29867 -1.38689 0
M  V30 2428 H 233.76 3.75118 -1.01089 0
M  V30 2429 H 235.432 2.99487 -3.50864 0
M  V30 2430 H 233.675 2.76318 -3.34411 0
M  V30 2431 H 234.346 4.39694 -3.33726 0
M  V30 2432 H 236.822 3.88951 -1.4784 0
M  V30 2433 H 235.698 5.27183 -1.52869 0
M  V30 2434 H 235.959 4.42098 -0.0142953 0
M  V30 2435 N 235.018 0.912232 1.28515 0
M  V30 2436 C 236.267 0.540504 1.94323 0
M  V30 2437 C 236.58 -0.920044 1.72611 0
M  V30 2438 O 237.786 -1.39986 2.32629 0
M  V30 2439 C 236.242 0.915803 3.48053 0
M  V30 2440 C 235.85 2.39598 3.78546 0
M  V30 2441 C 237.594 0.614588 4.20027 0
M  V30 2442 C 235.501 2.71148 5.25578 0
M  V30 2443 H 234.431 0.198418 0.727424 0
M  V30 2444 H 237.082 1.11094 1.46049 0
M  V30 2445 H 235.464 0.274168 3.9505 0
M  V30 2446 H 236.638 3.08422 3.42364 0
M  V30 2447 H 234.953 2.66749 3.1974 0
M  V30 2448 H 237.55 0.827002 5.28266 0
M  V30 2449 H 237.893 -0.447531 4.13887 0
M  V30 2450 H 238.426 1.21462 3.78803 0
M  V30 2451 H 235.165 3.76207 5.36794 0
M  V30 2452 H 234.685 2.0696 5.62963 0
M  V30 2453 H 236.364 2.58072 5.93302 0
M  V30 2454 N 236.496 -1.42363 0.676048 0
M  V30 2455 C 237.726 -2.05561 0.206967 0
M  V30 2456 C 238.134 -1.50887 -1.14148 0
M  V30 2457 O 237.477 -0.643933 -1.72044 0
M  V30 2458 C 237.539 -3.5944 0.0659508 0
M  V30 2459 C 237.203 -4.36812 1.34331 0
M  V30 2460 C 238.2 -4.67383 2.27704 0
M  V30 2461 C 235.885 -4.76429 1.59125 0
M  V30 2462 C 237.879 -5.36509 3.44147 0
M  V30 2463 C 235.566 -5.45294 2.75857 0
M  V30 2464 C 236.564 -5.75259 3.68193 0
M  V30 2465 O 236.252 -6.42712 4.82883 0
M  V30 2466 H 235.984 -0.668872 0.0979084 0
M  V30 2467 H 238.538 -1.83467 0.923531 0
M  V30 2468 H 236.768 -3.80197 -0.706204 0
M  V30 2469 H 238.457 -4.0427 -0.363418 0
M  V30 2470 H 239.223 -4.37275 2.09799 0
M  V30 2471 H 235.102 -4.52498 0.881258 0
M  V30 2472 H 238.646 -5.59814 4.16238 0
M  V30 2473 H 234.543 -5.7482 2.93688 0
M  V30 2474 H 235.311 -6.61204 4.82444 0
M  V30 2475 N 237.974 -0.419461 -1.51915 0
M  V30 2476 C 238.937 0.389116 -2.25873 0
M  V30 2477 C 239.937 0.964924 -1.28631 0
M  V30 2478 O 241.127 0.842179 -1.52489 0
M  V30 2479 C 238.259 1.54874 -3.03689 0
M  V30 2480 H 239.452 -0.258799 -2.98781 0
M  V30 2481 H 237.005 -0.172209 -1.55348 0
M  V30 2482 H 237.74 2.23323 -2.35154 0
M  V30 2483 H 237.525 1.14223 -3.75094 0
M  V30 2484 H 239.015 2.12046 -3.59759 0
M  V30 2485 N 239.452 1.56882 -0.150215 0
M  V30 2486 C 240.698 1.96518 0.500834 0
M  V30 2487 C 241.031 1.03527 1.64304 0
M  V30 2488 O 240.306 0.0782751 1.94342 0
M  V30 2489 C 240.589 3.45822 1.00395 0
M  V30 2490 C 240.442 4.49591 -0.136983 0
M  V30 2491 C 241.761 3.97704 1.88467 0
M  V30 2492 H 238.88 0.714535 0.18058 0
M  V30 2493 H 241.522 1.88577 -0.232091 0
M  V30 2494 H 239.672 3.5272 1.62851 0
M  V30 2495 H 241.344 4.5477 -0.77343 0
M  V30 2496 H 239.587 4.26441 -0.795652 0
M  V30 2497 H 240.258 5.51402 0.256815 0
M  V30 2498 H 242.734 3.93304 1.35834 0
M  V30 2499 H 241.61 5.0263 2.20578 0
M  V30 2500 H 241.871 3.40252 2.82279 0
M  V30 2501 N 240.93 -0.123565 1.57115 0
M  V30 2502 C 242.155 -0.850398 1.89164 0
M  V30 2503 C 242.58 -1.7286 0.741688 0
M  V30 2504 O 241.938 -1.78665 -0.307958 0
M  V30 2505 C 241.986 -1.66353 3.19936 0
M  V30 2506 O 241.09 -2.77004 3.0552 0
M  V30 2507 H 240.431 -0.235454 0.620852 0
M  V30 2508 H 242.961 -0.107335 2.04318 0
M  V30 2509 H 242.971 -2.05372 3.52543 0
M  V30 2510 H 241.646 -1.01881 4.03228 0
M  V30 2511 H 240.223 -2.41221 2.84371 0
M  V30 2512 N 242.408 -1.52605 -0.393616 0
M  V30 2513 C 243.338 -1.80022 -1.48709 0
M  V30 2514 C 244.319 -0.651995 -1.57108 0
M  V30 2515 O 245.504 -0.89913 -1.72132 0
M  V30 2516 C 242.634 -1.96492 -2.86371 0
M  V30 2517 C 241.588 -3.12161 -2.92813 0
M  V30 2518 C 240.914 -3.13877 -4.3288 0
M  V30 2519 C 242.214 -4.51322 -2.6288 0
M  V30 2520 H 243.908 -2.71589 -1.26015 0
M  V30 2521 H 241.454 -1.30684 -0.604778 0
M  V30 2522 H 243.407 -2.14255 -3.62867 0
M  V30 2523 H 242.131 -1.01611 -3.10391 0
M  V30 2524 H 240.79 -2.94173 -2.18764 0
M  V30 2525 H 240.438 -2.16687 -4.53933 0
M  V30 2526 H 240.138 -3.91576 -4.38112 0
M  V30 2527 H 241.662 -3.33789 -5.1129 0
M  V30 2528 H 243.076 -4.69435 -3.29096 0
M  V30 2529 H 241.473 -5.31053 -2.79468 0
M  V30 2530 H 242.543 -4.58353 -1.58242 0
M  V30 2531 N 243.887 0.651787 -1.4349 0
M  V30 2532 C 244.817 1.77621 -1.51569 0
M  V30 2533 C 245.798 1.66022 -0.370253 0
M  V30 2534 O 246.983 1.85095 -0.587658 0
M  V30 2535 C 244.113 3.16056 -1.43966 0
M  V30 2536 C 243.067 3.4242 -2.56774 0
M  V30 2537 C 242.393 4.8067 -2.34223 0
M  V30 2538 C 243.693 3.37023 -3.99015 0
M  V30 2539 H 245.387 1.71117 -2.45681 0
M  V30 2540 H 242.933 0.821825 -1.18246 0
M  V30 2541 H 244.886 3.94472 -1.48221 0
M  V30 2542 H 243.61 3.23293 -0.463586 0
M  V30 2543 H 242.269 2.66375 -2.51873 0
M  V30 2544 H 241.917 4.84585 -1.34856 0
M  V30 2545 H 241.617 4.9927 -3.09844 0
M  V30 2546 H 243.141 5.61342 -2.40265 0
M  V30 2547 H 244.555 4.05374 -4.05395 0
M  V30 2548 H 242.952 3.67159 -4.74673 0
M  V30 2549 H 244.022 2.3518 -4.2405 0
M  V30 2550 N 245.365 1.30045 0.890287 0
M  V30 2551 C 246.612 1.18561 1.64163 0
M  V30 2552 C 246.94 -0.260852 1.92743 0
M  V30 2553 O 246.195 -1.20376 1.54299 0
M  V30 2554 C 246.494 1.95409 2.99249 0
M  V30 2555 C 246.16 3.45066 2.90242 0
M  V30 2556 C 244.822 3.85878 2.87492 0
M  V30 2557 C 247.174 4.4039 2.78758 0
M  V30 2558 C 244.502 5.20314 2.7109 0
M  V30 2559 C 246.854 5.74928 2.63894 0
M  V30 2560 C 245.518 6.14986 2.59516 0
M  V30 2561 H 244.788 0.433846 0.600715 0
M  V30 2562 H 247.435 1.61088 1.03552 0
M  V30 2563 H 245.74 1.45501 3.63781 0
M  V30 2564 H 247.437 1.8392 3.56334 0
M  V30 2565 H 244.027 3.12631 2.93189 0
M  V30 2566 H 248.211 4.09806 2.79952 0
M  V30 2567 H 243.467 5.50449 2.66112 0
M  V30 2568 H 247.641 6.48434 2.53981 0
M  V30 2569 H 245.268 7.19104 2.46565 0
M  V30 2570 N 246.843 -1.10192 1.12674 0
M  V30 2571 C 248.083 -1.83825 0.893736 0
M  V30 2572 C 248.447 -1.83341 -0.570082 0
M  V30 2573 O 249.648 -2.52553 -0.920354 0
M  V30 2574 C 247.919 -3.26405 1.45582 0
M  V30 2575 S 249.478 -4.17136 1.36171 0
M  V30 2576 H 246.296 -0.633732 0.322342 0
M  V30 2577 H 248.898 -1.32581 1.43675 0
M  V30 2578 H 247.602 -3.24329 2.51473 0
M  V30 2579 H 247.133 -3.82721 0.910405 0
M  V30 2580 H 249.148 -4.95069 0.334863 0
M  V30 2581 N 248.321 -0.919034 -1.28029 0
M  V30 2582 C 249.546 -0.570357 -1.99403 0
M  V30 2583 C 249.971 0.842486 -1.68178 0
M  V30 2584 O 249.329 1.56391 -0.917141 0
M  V30 2585 C 249.377 -0.792541 -3.51783 0
M  V30 2586 O 248.481 0.145988 -4.12142 0
M  V30 2587 H 247.822 -0.220555 -0.6263 0
M  V30 2588 H 250.352 -1.23592 -1.63053 0
M  V30 2589 H 250.362 -0.704708 -4.01868 0
M  V30 2590 H 249.037 -1.82247 -3.73844 0
M  V30 2591 H 247.614 0.00897528 -3.72899 0
M  V30 2592 N 249.799 1.42003 -0.683588 0
M  V30 2593 C 250.729 2.33487 -0.024866 0
M  V30 2594 C 251.71 1.51163 0.779975 0
M  V30 2595 O 252.895 1.79739 0.735362 0
M  V30 2596 C 250.025 3.3487 0.920836 0
M  V30 2597 C 248.979 4.27414 0.223958 0
M  V30 2598 C 248.305 5.19074 1.2832 0
M  V30 2599 C 249.605 5.14445 -0.90242 0
M  V30 2600 H 251.299 2.88819 -0.788921 0
M  V30 2601 H 248.845 1.38873 -0.38083 0
M  V30 2602 H 250.798 3.97787 1.39081 0
M  V30 2603 H 249.522 2.77861 1.71642 0
M  V30 2604 H 248.181 3.65904 -0.225864 0
M  V30 2605 H 247.829 4.58387 2.071 0
M  V30 2606 H 247.529 5.81822 0.821995 0
M  V30 2607 H 249.053 5.84867 1.75392 0
M  V30 2608 H 250.467 5.70998 -0.513272 0
M  V30 2609 H 248.864 5.86072 -1.28997 0
M  V30 2610 H 249.934 4.52322 -1.74737 0
M  V30 2611 N 251.277 0.427512 1.51691 0
M  V30 2612 C 252.688 -0.0378867 1.86662 0
M  V30 2613 C 253.039 -1.42819 1.34525 0
M  V30 2614 O 252.164 -2.05037 0.692014 0
M  V30 2615 C 252.759 -0.0755266 3.38716 0
M  V30 2616 C 251.318 -0.485309 3.73258 0
M  V30 2617 C 250.465 0.328399 2.75349 0
M  V30 2618 H 253.416 0.64379 1.45055 0
M  V30 2619 H 253.437 -0.887056 3.70016 0
M  V30 2620 H 252.949 0.936487 3.76632 0
M  V30 2621 H 251.05 -1.50329 3.40928 0
M  V30 2622 H 251.163 -0.21693 4.78609 0
M  V30 2623 H 249.527 -0.211905 2.53817 0
M  V30 2624 H 250.31 1.3391 3.16106 0
M  V30 2625 N 252.755 -1.56801 0.158532 0
M  V30 2626 C 253.685 -2.20347 -0.772609 0
M  V30 2627 C 254.666 -1.15518 -1.24859 0
M  V30 2628 O 255.851 -1.43902 -1.30406 0
M  V30 2629 C 252.981 -2.83417 -2.00729 0
M  V30 2630 C 251.935 -3.94174 -1.66765 0
M  V30 2631 C 251.261 -4.44233 -2.97592 0
M  V30 2632 C 252.561 -5.14392 -0.905447 0
M  V30 2633 H 254.255 -2.98413 -0.242959 0
M  V30 2634 H 251.801 -1.43537 -0.115419 0
M  V30 2635 H 253.754 -3.26543 -2.6636 0
M  V30 2636 H 252.478 -2.02701 -2.56086 0
M  V30 2637 H 251.137 -3.51684 -1.03508 0
M  V30 2638 H 250.785 -3.60325 -3.50963 0
M  V30 2639 H 250.485 -5.18945 -2.75626 0
M  V30 2640 H 252.009 -4.90037 -3.64274 0
M  V30 2641 H 253.423 -5.5429 -1.46408 0
M  V30 2642 H 251.82 -5.9494 -0.7853 0
M  V30 2643 H 252.89 -4.84795 0.100668 0
M  V30 2644 N 254.233 0.115231 -1.57178 0
M  V30 2645 C 255.163 1.1423 -2.03651 0
M  V30 2646 C 256.144 1.42967 -0.921655 0
M  V30 2647 O 257.329 1.53343 -1.19162 0
M  V30 2648 C 254.459 2.4675 -2.44401 0
M  V30 2649 C 253.413 2.32467 -3.59365 0
M  V30 2650 C 252.739 3.69984 -3.86026 0
M  V30 2651 C 254.039 1.78203 -4.90959 0
M  V30 2652 H 255.733 0.755749 -2.89705 0
M  V30 2653 H 253.279 0.362093 -1.39373 0
M  V30 2654 H 255.232 3.18854 -2.75517 0
M  V30 2655 H 253.956 2.87302 -1.55322 0
M  V30 2656 H 252.615 1.62811 -3.28463 0
M  V30 2657 H 252.263 4.08028 -2.94147 0
M  V30 2658 H 251.963 3.61279 -4.63412 0
M  V30 2659 H 253.487 4.43587 -4.19599 0
M  V30 2660 H 254.901 2.40128 -5.20587 0
M  V30 2661 H 253.298 1.8031 -5.72371 0
M  V30 2662 H 254.368 0.739876 -4.79222 0
M  V30 2663 N 255.711 1.52812 0.385517 0
M  V30 2664 C 256.988 1.5861 1.14465 0
M  V30 2665 C 257.368 0.381402 2.07626 0
M  V30 2666 O 256.716 -0.629999 2.19643 0
M  V30 2667 C 256.926 2.92664 1.90128 0
M  V30 2668 C 258.274 3.46526 2.45367 0
M  V30 2669 O 259.298 2.94562 2.0028 0
M  V30 2670 O 258.157 4.37323 3.27736 0
M  V30 2671 H 255.251 0.639855 0.523941 0
M  V30 2672 H 257.797 1.65149 0.390389 0
M  V30 2673 H 256.569 3.71788 1.22022 0
M  V30 2674 H 256.192 2.89527 2.72507 0
M  V30 2675 N 257.189 -0.644168 1.43834 0
M  V30 2676 C 258.419 -1.42939 1.49171 0
M  V30 2677 C 258.827 -1.88874 0.111048 0
M  V30 2678 O 258.17 -1.60656 -0.8908 0
M  V30 2679 C 258.232 -2.69151 2.38324 0
M  V30 2680 C 257.896 -2.45097 3.85715 0
M  V30 2681 C 258.893 -2.07747 4.76589 0
M  V30 2682 C 256.578 -2.59141 4.30292 0
M  V30 2683 C 258.572 -1.8475 6.10038 0
M  V30 2684 C 256.259 -2.35759 5.63792 0
M  V30 2685 C 257.257 -1.9862 6.53482 0
M  V30 2686 O 256.945 -1.75489 7.84512 0
M  V30 2687 H 256.677 -0.445271 0.508635 0
M  V30 2688 H 259.231 -0.79621 1.8934 0
M  V30 2689 H 257.461 -3.3506 1.93058 0
M  V30 2690 H 259.15 -3.31123 2.3476 0
M  V30 2691 H 259.916 -1.96465 4.43426 0
M  V30 2692 H 255.795 -2.87022 3.60749 0
M  V30 2693 H 259.339 -1.55686 6.80006 0
M  V30 2694 H 255.236 -2.46646 5.9652 0
M  V30 2695 H 256.004 -1.89841 7.9618 0
M  V30 2696 N 258.668 -1.30515 -0.883378 0
M  V30 2697 C 259.916 -1.19194 -1.63209 0
M  V30 2698 C 260.237 0.253205 -1.93349 0
M  V30 2699 O 259.507 1.17025 -1.57105 0
M  V30 2700 H 258.087 -0.438148 -0.605009 0
M  V30 2701 H 260.749 -1.63663 -1.05832 0
M  V30 2702 H 259.845 -1.75396 -2.58153 0
M  V30 2703 N 260.146 1.09593 -1.13257 0
M  V30 2704 C 261.078 2.16015 -0.766167 0
M  V30 2705 C 262.091 1.61423 0.211303 0
M  V30 2706 O 263.28 1.78498 -0.00863946 0
M  V30 2707 C 260.38 3.38706 -0.114662 0
M  V30 2708 C 259.553 4.22717 -1.12379 0
M  V30 2709 C 258.612 5.23835 -0.498301 0
M  V30 2710 O 257.638 5.573 -1.15781 0
M  V30 2711 N 258.84 5.75886 0.730417 0
M  V30 2712 H 261.605 2.48055 -1.68193 0
M  V30 2713 H 259.166 1.25292 -1.02535 0
M  V30 2714 H 261.158 4.03464 0.315991 0
M  V30 2715 H 259.728 3.04569 0.704011 0
M  V30 2716 H 258.948 3.54122 -1.73179 0
M  V30 2717 H 260.236 4.75673 -1.80589 0
M  V30 2718 H 259.634 5.50911 1.28504 0
M  V30 2719 H 258.191 6.42387 1.10376 0
M  V30 2720 N 261.624 0.925811 1.2754 0
M  V30 2721 C 262.854 0.580666 1.98272 0
M  V30 2722 C 263.262 -0.845207 1.69272 0
M  V30 2723 O 262.605 -1.57306 0.948707 0
M  V30 2724 C 262.667 0.724418 3.52126 0
M  V30 2725 C 262.331 2.12206 4.04744 0
M  V30 2726 C 263.328 3.09604 4.17662 0
M  V30 2727 C 261.013 2.4385 4.39138 0
M  V30 2728 C 263.007 4.36755 4.64246 0
M  V30 2729 C 260.694 3.71237 4.85414 0
M  V30 2730 C 261.692 4.67503 4.97926 0
M  V30 2731 O 261.38 5.92624 5.43187 0
M  V30 2732 H 261.112 0.218987 0.639547 0
M  V30 2733 H 263.666 1.24452 1.63404 0
M  V30 2734 H 261.896 0.0034663 3.867 0
M  V30 2735 H 263.585 0.384607 4.04074 0
M  V30 2736 H 264.351 2.86478 3.91351 0
M  V30 2737 H 260.23 1.69665 4.28643 0
M  V30 2738 H 263.774 5.11898 4.73927 0
M  V30 2739 H 259.671 3.94182 5.11166 0
M  V30 2740 H 260.439 5.95585 5.61445 0
M  V30 2741 N 263.102 -1.41638 0.69111 0
M  V30 2742 C 264.348 -2.01598 0.220519 0
M  V30 2743 C 264.681 -1.54594 -1.17535 0
M  V30 2744 O 263.956 -0.755177 -1.79241 0
M  V30 2745 C 264.239 -3.59062 0.273243 0
M  V30 2746 C 264.092 -4.16203 1.70573 0
M  V30 2747 C 265.411 -4.38546 -0.369457 0
M  V30 2748 H 262.53 -0.732468 0.0816045 0
M  V30 2749 H 265.172 -1.68445 0.878986 0
M  V30 2750 H 263.322 -3.87435 -0.287411 0
M  V30 2751 H 264.994 -3.98722 2.31989 0
M  V30 2752 H 263.237 -3.71414 2.2413 0
M  V30 2753 H 263.908 -5.25358 1.69419 0
M  V30 2754 H 266.384 -4.1596 0.107977 0
M  V30 2755 H 265.26 -5.48069 -0.302002 0
M  V30 2756 H 265.521 -4.17662 -1.44951 0
M  V30 2757 N 264.58 -0.43555 -1.51462 0
M  V30 2758 C 265.512 0.41257 -2.25456 0
M  V30 2759 C 266.525 0.987822 -1.29406 0
M  V30 2760 O 267.714 0.882266 -1.55172 0
M  V30 2761 C 264.814 1.58894 -2.99342 0
M  V30 2762 C 263.987 1.13288 -4.22474 0
M  V30 2763 C 263.046 2.17917 -4.78956 0
M  V30 2764 O 262.072 1.77425 -5.40841 0
M  V30 2765 N 263.274 3.50382 -4.62832 0
M  V30 2766 H 266.039 -0.221603 -2.9888 0
M  V30 2767 H 263.6 -0.264342 -1.59727 0
M  V30 2768 H 265.592 2.28508 -3.34015 0
M  V30 2769 H 264.162 2.12849 -2.28941 0
M  V30 2770 H 263.382 0.263881 -3.93316 0
M  V30 2771 H 264.67 0.805542 -5.02383 0
M  V30 2772 H 264.068 3.86013 -4.13534 0
M  V30 2773 H 262.625 4.15895 -5.01871 0
M  V30 2774 N 266.058 1.56714 -0.166846 0
M  V30 2775 C 267.288 2.00828 0.48494 0
M  V30 2776 C 267.696 1.04612 1.57648 0
M  V30 2777 O 267.039 0.0383201 1.8366 0
M  V30 2778 C 267.101 3.4137 1.12723 0
M  V30 2779 C 266.765 4.56654 0.177886 0
M  V30 2780 C 267.762 5.16402 -0.60207 0
M  V30 2781 C 265.447 5.02244 0.0750139 0
M  V30 2782 C 267.441 6.20167 -1.47215 0
M  V30 2783 C 265.128 6.05859 -0.798649 0
M  V30 2784 C 266.126 6.64691 -1.57082 0
M  V30 2785 O 265.814 7.66297 -2.42989 0
M  V30 2786 H 265.546 0.663587 0.128953 0
M  V30 2787 H 268.1 2.03692 -0.264365 0
M  V30 2788 H 266.33 3.35406 1.92457 0
M  V30 2789 H 268.019 3.69466 1.68076 0
M  V30 2790 H 268.785 4.82065 -0.53274 0
M  V30 2791 H 264.664 4.56167 0.665812 0
M  V30 2792 H 268.208 6.66016 -2.07531 0
M  V30 2793 H 264.105 6.39621 -0.869199 0
M  V30 2794 H 264.873 7.83601 -2.36455 0
M  V30 2795 N 267.536 -0.106894 1.57237 0
M  V30 2796 C 268.776 -0.818277 1.87306 0
M  V30 2797 C 269.14 -1.76474 0.756371 0
M  V30 2798 O 270.341 -2.5186 0.939155 0
M  V30 2799 C 268.612 -1.53806 3.22612 0
M  V30 2800 S 270.171 -2.28935 3.74345 0
M  V30 2801 H 266.989 -0.272862 0.656557 0
M  V30 2802 H 269.591 -0.075988 1.95352 0
M  V30 2803 H 268.295 -0.834951 4.01817 0
M  V30 2804 H 267.826 -2.32049 3.17674 0
M  V30 2805 H 269.841 -3.54871 3.46815 0
M  V30 2806 N 269.014 -1.53014 -0.377408 0
M  V30 2807 C 270.425 -1.60438 -0.954798 0
M  V30 2808 C 270.776 -0.464418 -1.90624 0
M  V30 2809 O 269.901 0.41087 -2.12464 0
M  V30 2810 C 270.496 -2.90797 -1.73847 0
M  V30 2811 C 269.055 -3.00595 -2.26538 0
M  V30 2812 C 268.202 -2.55645 -1.07429 0
M  V30 2813 H 271.153 -1.57926 -0.156575 0
M  V30 2814 H 271.174 -2.77935 -2.5987 0
M  V30 2815 H 270.686 -3.73746 -1.04574 0
M  V30 2816 H 268.787 -2.22208 -2.99089 0
M  V30 2817 H 268.9 -4.05456 -2.5523 0
M  V30 2818 H 267.264 -2.10239 -1.43777 0
M  V30 2819 H 268.047 -3.41 -0.396728 0
M  V30 2820 N 270.492 0.636531 -1.44174 0
M  V30 2821 C 271.74 1.39343 -1.46383 0
M  V30 2822 C 272.061 1.94766 -0.0955715 0
M  V30 2823 O 271.331 1.75452 0.871395 0
M  V30 2824 H 269.911 0.517199 -0.538994 0
M  V30 2825 H 272.573 0.74957 -1.7991 0
M  V30 2826 H 271.669 2.22746 -2.18611 0
M  V30 2827 N 271.97 1.30982 0.876444 0
M  V30 2828 C 273.198 1.23242 1.6619 0
M  V30 2829 C 273.613 -0.203345 1.87702 0
M  V30 2830 O 272.97 -1.13317 1.43057 0
M  V30 2831 C 273.021 1.96623 3.03351 0
M  V30 2832 O 272.742 3.34594 2.82804 0
M  V30 2833 C 274.243 1.95644 3.97792 0
M  V30 2834 H 271.463 0.426126 0.518322 0
M  V30 2835 H 274.007 1.7275 1.09442 0
M  V30 2836 H 272.162 1.50892 3.56806 0
M  V30 2837 H 272.576 3.71873 3.69879 0
M  V30 2838 H 274.05 2.51511 4.91372 0
M  V30 2839 H 274.527 0.937395 4.2908 0
M  V30 2840 H 275.133 2.41225 3.50272 0
M  V30 2841 N 273.449 -1.08991 1.13837 0
M  V30 2842 C 274.695 -1.81699 0.91417 0
M  V30 2843 C 275.05 -1.84264 -0.553594 0
M  V30 2844 O 274.343 -1.30313 -1.4046 0
M  V30 2845 C 274.537 -3.27042 1.44147 0
M  V30 2846 C 274.366 -3.38637 2.95897 0
M  V30 2847 C 273.136 -3.50177 3.64286 0
M  V30 2848 C 275.334 -3.30791 3.93804 0
M  V30 2849 N 273.316 -3.50501 5.04006 0
M  V30 2850 C 274.687 -3.38037 5.19741 0
M  V30 2851 C 276.742 -3.14488 3.86007 0
M  V30 2852 C 275.445 -3.30659 6.38793 0
M  V30 2853 C 277.471 -3.08438 5.04599 0
M  V30 2854 C 276.833 -3.1628 6.29402 0
M  V30 2855 H 272.932 -0.678967 0.387979 0
M  V30 2856 H 275.516 -1.30224 1.4474 0
M  V30 2857 H 273.687 -3.76976 0.935091 0
M  V30 2858 H 275.419 -3.87785 1.1578 0
M  V30 2859 H 272.174 -3.53815 3.1482 0
M  V30 2860 H 272.598 -3.54236 5.76928 0
M  V30 2861 H 277.24 -3.07291 2.90399 0
M  V30 2862 H 274.958 -3.36618 7.34652 0
M  V30 2863 H 278.544 -2.96952 5.0031 0
M  V30 2864 H 277.424 -3.1162 7.19627 0
M  V30 2865 N 274.927 -0.932562 -1.27047 0
M  V30 2866 C 276.167 -0.582919 -1.95912 0
M  V30 2867 C 276.531 0.860629 -1.71631 0
M  V30 2868 O 277.732 1.31878 -2.34225 0
M  V30 2869 C 276.003 -0.905673 -3.45734 0
M  V30 2870 S 277.562 -0.665277 -4.33727 0
M  V30 2871 H 274.38 -0.215 -0.677714 0
M  V30 2872 H 276.982 -1.20204 -1.54179 0
M  V30 2873 H 275.686 -1.95386 -3.60905 0
M  V30 2874 H 275.217 -0.275939 -3.92431 0
M  V30 2875 H 277.232 0.474635 -4.93925 0
M  V30 2876 N 276.405 1.4127 -0.698611 0
M  V30 2877 C 277.652 2.0118 -0.230865 0
M  V30 2878 C 277.98 1.55338 1.17049 0
M  V30 2879 O 277.235 0.756775 1.80475 0
M  V30 2880 C 277.534 3.56592 -0.240192 0
M  V30 2881 C 277.2 4.21955 -1.58948 0
M  V30 2882 C 275.862 4.39524 -1.95887 0
M  V30 2883 C 278.214 4.58576 -2.47704 0
M  V30 2884 C 275.542 4.90992 -3.2116 0
M  V30 2885 C 277.894 5.11435 -3.72313 0
M  V30 2886 C 276.558 5.27215 -4.0939 0
M  V30 2887 H 275.828 0.736169 -0.0844796 0
M  V30 2888 H 278.475 1.69124 -0.8983 0
M  V30 2889 H 276.78 3.88456 0.510797 0
M  V30 2890 H 278.477 4.00758 0.139296 0
M  V30 2891 H 275.067 4.08657 -1.29219 0
M  V30 2892 H 279.251 4.44654 -2.20445 0
M  V30 2893 H 274.507 5.01393 -3.49878 0
M  V30 2894 H 278.681 5.38752 -4.4127 0
M  V30 2895 H 276.308 5.66859 -5.06533 0
M  V30 2896 N 277.883 0.443576 1.51229 0
M  V30 2897 C 279.132 -0.122332 2.01329 0
M  V30 2898 C 279.445 -1.43237 1.33201 0
M  V30 2899 O 280.651 -2.0816 1.74304 0
M  V30 2900 C 279.107 -0.268551 3.58897 0
M  V30 2901 C 278.715 1.03142 4.35965 0
M  V30 2902 C 280.459 -0.787894 4.17124 0
M  V30 2903 C 278.366 0.850504 5.85252 0
M  V30 2904 H 277.296 -0.0494929 0.752374 0
M  V30 2905 H 279.947 0.574289 1.74282 0
M  V30 2906 H 278.329 -1.02832 3.82415 0
M  V30 2907 H 279.503 1.80001 4.24189 0
M  V30 2908 H 277.818 1.47977 3.89219 0
M  V30 2909 H 280.415 -0.939841 5.26375 0
M  V30 2910 H 280.758 -1.77201 3.76703 0
M  V30 2911 H 281.291 -0.0862669 3.97706 0
M  V30 2912 H 278.03 1.80718 6.30096 0
M  V30 2913 H 277.55 0.121825 5.99676 0
M  V30 2914 H 279.229 0.506163 6.45017 0
M  V30 2915 N 279.361 -1.56624 0.175154 0
M  V30 2916 C 280.777 -1.58571 -0.180966 0
M  V30 2917 C 280.977 -1.19065 -1.6256 0
M  V30 2918 O 280.033 -0.904044 -2.35761 0
M  V30 2919 C 281.346 -3.00522 0.103326 0
M  V30 2920 C 282.894 -3.12972 0.0418426 0
M  V30 2921 C 283.369 -4.57022 0.299175 0
M  V30 2922 N 284.86 -4.62541 0.247086 0
M  V30 2923 C 285.595 -5.71857 0.420318 0
M  V30 2924 N 285.091 -6.89717 0.652816 0
M  V30 2925 N 286.884 -5.60972 0.355957 0
M  V30 2926 H 279.035 -1.80589 1.11809 0
M  V30 2927 H 281.298 -0.837178 0.444788 0
M  V30 2928 H 281.004 -3.33916 1.10422 0
M  V30 2929 H 280.878 -3.72344 -0.603299 0
M  V30 2930 H 283.265 -2.79403 -0.949636 0
M  V30 2931 H 283.346 -2.43578 0.781238 0
M  V30 2932 H 282.99 -4.913 1.28788 0
M  V30 2933 H 282.92 -5.24579 -0.460876 0
M  V30 2934 H 285.411 -3.77829 0.0731895 0
M  V30 2935 H 285.724 -7.68911 0.774347 0
M  V30 2936 H 284.069 -6.91572 0.689476 0
M  V30 2937 H 287.26 -4.67773 0.174882 0
M  V30 2938 H 287.433 -6.46111 0.494388 0
M  V30 2939 N 280.839 0.0985539 -1.57292 0
M  V30 2940 C 281.789 1.1261 -1.9825 0
M  V30 2941 C 282.773 1.35961 -0.860426 0
M  V30 2942 O 283.965 1.36711 -1.12424 0
M  V30 2943 C 281.094 2.44727 -2.40757 0
M  V30 2944 C 280.18 2.24764 -3.59642 0
M  V30 2945 N 280.571 1.74661 -4.74687 0
M  V30 2946 C 278.869 2.55344 -3.65672 0
M  V30 2947 C 279.57 1.68887 -5.56644 0
M  V30 2948 N 278.546 2.13976 -4.99715 0
M  V30 2949 H 282.348 0.731604 -2.84648 0
M  V30 2950 H 279.862 0.306029 -1.59491 0
M  V30 2951 H 281.859 3.19072 -2.68326 0
M  V30 2952 H 280.519 2.84917 -1.55733 0
M  V30 2953 H 281.53 1.43908 -4.97505 0
M  V30 2954 H 278.207 2.99081 -2.91302 0
M  V30 2955 H 279.597 1.3123 -6.5896 0
M  V30 2956 N 282.317 1.53212 0.369288 0
M  V30 2957 C 283.565 1.68881 1.11012 0
M  V30 2958 C 283.886 0.441285 1.89941 0
M  V30 2959 O 283.156 -0.544623 1.88177 0
M  V30 2960 H 281.736 0.622569 0.412816 0
M  V30 2961 H 284.398 1.90391 0.416802 0
M  V30 2962 H 283.494 2.54822 1.80201 0
M  V30 2963 N 283.795 -0.628877 1.44509 0
M  V30 2964 C 285.211 -0.947305 1.28446 0
M  V30 2965 C 285.411 -2.00275 0.221872 0
M  V30 2966 O 284.467 -2.49447 -0.391471 0
M  V30 2967 C 285.78 -1.40843 2.65676 0
M  V30 2968 C 287.328 -1.52379 2.73404 0
M  V30 2969 C 287.803 -2.01875 4.11109 0
M  V30 2970 N 289.294 -2.09142 4.13296 0
M  V30 2971 C 290.029 -2.48615 5.16699 0
M  V30 2972 N 289.525 -2.87209 6.30462 0
M  V30 2973 N 291.318 -2.48768 5.04054 0
M  V30 2974 H 283.469 0.0690977 2.12288 0
M  V30 2975 H 285.732 -0.0317164 0.947469 0
M  V30 2976 H 285.438 -0.707206 3.44516 0
M  V30 2977 H 285.312 -2.37902 2.92716 0
M  V30 2978 H 287.699 -2.21598 1.9488 0
M  V30 2979 H 287.78 -0.536898 2.50102 0
M  V30 2980 H 287.424 -1.3325 4.90109 0
M  V30 2981 H 287.354 -3.0144 4.31789 0
M  V30 2982 H 289.845 -1.81991 3.31191 0
M  V30 2983 H 290.158 -3.16149 7.05174 0
M  V30 2984 H 288.503 -2.84955 6.33897 0
M  V30 2985 H 291.694 -2.18009 4.14234 0
M  V30 2986 H 291.867 -2.79207 5.84763 0
M  V30 2987 N 285.273 -1.31445 -0.869486 0
M  V30 2988 C 286.501 -1.24122 -1.65534 0
M  V30 2989 C 286.916 0.193387 -1.87807 0
M  V30 2990 O 286.273 1.12557 -1.43656 0
M  V30 2991 C 286.324 -1.98229 -3.02304 0
M  V30 2992 O 286.045 -3.3609 -2.81026 0
M  V30 2993 C 287.546 -1.97751 -3.96749 0
M  V30 2994 H 284.766 -0.428868 -0.516055 0
M  V30 2995 H 287.31 -1.73328 -1.08525 0
M  V30 2996 H 285.465 -1.52782 -3.56001 0
M  V30 2997 H 285.879 -3.7383 -3.67902 0
M  V30 2998 H 287.353 -2.54114 -4.90031 0
M  V30 2999 H 287.83 -0.960137 -4.28577 0
M  V30 3000 H 288.436 -2.43079 -3.48988 0
M  V30 3001 N 286.751 1.08385 -1.14413 0
M  V30 3002 C 287.714 2.13486 -0.834048 0
M  V30 3003 C 288.714 1.59988 0.161418 0
M  V30 3004 O 289.904 1.74071 -0.0669575 0
M  V30 3005 C 287.036 3.4003 -0.243354 0
M  V30 3006 H 288.229 2.42425 -1.7655 0
M  V30 3007 H 285.782 1.24101 -0.950189 0
M  V30 3008 H 286.517 3.16726 0.696807 0
M  V30 3009 H 286.302 3.80157 -0.960367 0
M  V30 3010 H 287.792 4.17577 -0.0436242 0
M  V30 3011 N 288.23 0.939286 1.26551 0
M  V30 3012 C 289.46 0.601663 1.97645 0
M  V30 3013 C 289.868 -0.827206 1.70159 0
M  V30 3014 O 289.211 -1.56291 0.965338 0
M  V30 3015 C 289.273 0.761725 3.51337 0
M  V30 3016 C 288.937 2.16487 4.0247 0
M  V30 3017 C 289.934 3.14016 4.14355 0
M  V30 3018 C 287.619 2.48494 4.36527 0
M  V30 3019 C 289.613 4.41654 4.59587 0
M  V30 3020 C 287.3 3.76364 4.81449 0
M  V30 3021 C 288.298 4.72758 4.92939 0
M  V30 3022 O 287.986 5.98352 5.36871 0
M  V30 3023 H 287.718 0.225758 0.637189 0
M  V30 3024 H 290.272 1.26178 1.62075 0
M  V30 3025 H 288.502 0.0444808 3.86674 0
M  V30 3026 H 290.191 0.427442 4.03643 0
M  V30 3027 H 290.957 2.90613 3.8829 0
M  V30 3028 H 286.836 1.74202 4.26819 0
M  V30 3029 H 290.38 5.16896 4.68471 0
M  V30 3030 H 286.277 3.99582 5.06956 0
M  V30 3031 H 287.045 6.01507 5.55096 0
M  V30 3032 N 289.708 -1.40897 0.706093 0
M  V30 3033 C 290.638 -2.33418 0.0620085 0
M  V30 3034 C 291.619 -1.52385 -0.755827 0
M  V30 3035 O 292.804 -1.80886 -0.706674 0
M  V30 3036 C 289.934 -3.36293 -0.867445 0
M  V30 3037 C 288.888 -4.27716 -0.155932 0
M  V30 3038 C 288.214 -5.2105 -1.20046 0
M  V30 3039 C 289.514 -5.12944 0.984149 0
M  V30 3040 H 291.208 -2.87527 0.83477 0
M  V30 3041 H 288.754 -1.38249 0.402875 0
M  V30 3042 H 290.707 -3.99949 -1.32735 0
M  V30 3043 H 289.431 -2.80556 -1.67199 0
M  V30 3044 H 288.09 -3.65498 0.284047 0
M  V30 3045 H 287.738 -4.61624 -1.99781 0
M  V30 3046 H 287.438 -5.83056 -0.729328 0
M  V30 3047 H 288.962 -5.87584 -1.66066 0
M  V30 3048 H 290.376 -5.70109 0.604048 0
M  V30 3049 H 288.773 -5.83945 1.38304 0
M  V30 3050 H 289.843 -4.49485 1.81911 0
M  V30 3051 N 291.186 -0.45159 -1.50991 0
M  V30 3052 C 292.118 0.388634 -2.25881 0
M  V30 3053 C 293.131 0.974041 -1.30446 0
M  V30 3054 O 294.32 0.865758 -1.56099 0
M  V30 3055 C 291.42 1.5571 -3.01011 0
M  V30 3056 C 290.593 1.08801 -4.23652 0
M  V30 3057 C 289.652 2.12825 -4.8124 0
M  V30 3058 O 288.678 1.71678 -5.42693 0
M  V30 3059 N 289.88 3.45453 -4.66522 0
M  V30 3060 H 292.645 -0.25329 -2.98628 0
M  V30 3061 H 290.206 -0.281268 -1.59438 0
M  V30 3062 H 292.198 2.24952 -3.3642 0
M  V30 3063 H 290.768 2.10409 -2.31186 0
M  V30 3064 H 289.988 0.22215 -3.93574 0
M  V30 3065 H 291.276 0.752213 -5.03209 0
M  V30 3066 H 290.674 3.81605 -4.17605 0
M  V30 3067 H 289.231 4.10549 -5.06254 0
M  V30 3068 N 292.664 1.56529 -0.183458 0
M  V30 3069 C 293.594 2.21549 0.737456 0
M  V30 3070 C 294.575 1.17489 1.23005 0
M  V30 3071 O 295.76 1.45959 1.281 0
M  V30 3072 C 292.89 2.86575 1.96194 0
M  V30 3073 C 291.844 3.96778 1.60473 0
M  V30 3074 C 291.17 4.48911 2.90487 0
M  V30 3075 C 292.47 5.15767 0.823497 0
M  V30 3076 H 294.164 2.98761 0.195453 0
M  V30 3077 H 291.71 1.43702 0.0925686 0
M  V30 3078 H 293.663 3.30739 2.61131 0
M  V30 3079 H 292.387 2.06749 2.52828 0
M  V30 3080 H 291.046 3.53286 0.978997 0
M  V30 3081 H 290.694 3.65862 3.45186 0
M  V30 3082 H 290.394 5.23265 2.67335 0
M  V30 3083 H 291.918 4.95771 3.56432 0
M  V30 3084 H 293.332 5.56549 1.37571 0
M  V30 3085 H 291.729 5.96114 0.690551 0
M  V30 3086 H 292.799 4.84574 -0.177782 0
M  V30 3087 N 294.142 -0.090211 1.57342 0
M  V30 3088 C 295.372 -0.805055 1.90269 0
M  V30 3089 C 295.78 -1.72561 0.775842 0
M  V30 3090 O 295.123 -1.81839 -0.260843 0
M  V30 3091 C 295.185 -1.66734 3.18497 0
M  V30 3092 C 294.849 -0.918092 4.47683 0
M  V30 3093 C 295.846 -0.245674 5.19319 0
M  V30 3094 C 293.531 -0.890724 4.94339 0
M  V30 3095 C 295.525 0.444088 6.35851 0
M  V30 3096 C 293.212 -0.197179 6.10782 0
M  V30 3097 C 294.21 0.469044 6.81388 0
M  V30 3098 O 293.898 1.15146 7.95611 0
M  V30 3099 H 293.63 -0.235143 0.633785 0
M  V30 3100 H 296.184 -0.0703805 2.05279 0
M  V30 3101 H 294.414 -2.44437 2.99646 0
M  V30 3102 H 296.103 -2.25919 3.37217 0
M  V30 3103 H 296.869 -0.258246 4.84312 0
M  V30 3104 H 292.748 -1.39873 4.39268 0
M  V30 3105 H 296.292 0.964667 6.90898 0
M  V30 3106 H 292.189 -0.18247 6.45242 0
M  V30 3107 H 292.957 1.05885 8.11622 0
M  V30 3108 N 295.62 -1.53406 -0.361157 0
M  V30 3109 C 296.583 -1.79479 -1.42548 0
M  V30 3110 C 297.583 -0.665327 -1.4639 0
M  V30 3111 O 298.773 -0.933549 -1.47073 0
M  V30 3112 C 295.905 -1.92087 -2.8163 0
M  V30 3113 H 297.098 -2.74538 -1.20701 0
M  V30 3114 H 294.651 -1.4455 -0.594546 0
M  V30 3115 H 295.386 -0.991099 -3.08784 0
M  V30 3116 H 295.171 -2.74241 -2.80239 0
M  V30 3117 H 296.661 -2.13836 -3.58697 0
M  V30 3118 N 297.098 0.621204 -1.44841 0
M  V30 3119 C 298.326 1.40752 -1.51646 0
M  V30 3120 C 298.741 1.88246 -0.144549 0
M  V30 3121 O 298.098 1.61422 0.851416 0
M  V30 3122 C 298.149 2.62119 -2.4895 0
M  V30 3123 O 297.87 2.16602 -3.80808 0
M  V30 3124 C 299.371 3.55135 -2.65319 0
M  V30 3125 H 296.591 0.431325 -0.514004 0
M  V30 3126 H 299.135 0.758835 -1.899 0
M  V30 3127 H 297.29 3.23058 -2.13805 0
M  V30 3128 H 297.704 2.95358 -4.33433 0
M  V30 3129 H 299.178 4.36874 -3.37409 0
M  V30 3130 H 299.655 4.04592 -1.70886 0
M  V30 3131 H 300.261 3.00058 -3.01405 0
M  V30 3132 N 298.576 1.31904 0.862503 0
M  V30 3133 C 299.506 1.22782 1.98612 0
M  V30 3134 C 300.487 0.113362 1.69722 0
M  V30 3135 O 301.672 0.299218 1.91881 0
M  V30 3136 C 298.802 0.942058 3.34279 0
M  V30 3137 C 297.756 2.0169 3.77499 0
M  V30 3138 C 297.082 1.58369 5.10709 0
M  V30 3139 C 298.382 3.43096 3.93805 0
M  V30 3140 H 300.076 2.16788 2.06502 0
M  V30 3141 H 297.622 1.04366 0.992154 0
M  V30 3142 H 299.575 0.864818 4.1243 0
M  V30 3143 H 298.299 -0.0336603 3.26583 0
M  V30 3144 H 296.958 2.08416 3.01593 0
M  V30 3145 H 296.606 0.595628 4.99461 0
M  V30 3146 H 296.306 2.30279 5.40597 0
M  V30 3147 H 297.83 1.52067 5.91361 0
M  V30 3148 H 299.244 3.39003 4.62331 0
M  V30 3149 H 297.641 4.13288 4.35101 0
M  V30 3150 H 298.711 3.83334 2.96957 0
M  V30 3151 N 300.054 -1.07777 1.14986 0
M  V30 3152 C 300.984 -2.16865 0.865557 0
M  V30 3153 C 301.965 -1.69123 -0.182083 0
M  V30 3154 O 303.15 -1.94164 -0.0373815 0
M  V30 3155 C 300.28 -3.45539 0.349313 0
M  V30 3156 C 299.234 -4.06708 1.33313 0
M  V30 3157 C 298.56 -5.30411 0.675918 0
M  V30 3158 C 299.86 -4.47241 2.69764 0
M  V30 3159 H 301.554 -2.40905 1.77778 0
M  V30 3160 H 299.1 -1.15781 0.856203 0
M  V30 3161 H 301.053 -4.21174 0.137983 0
M  V30 3162 H 299.777 -3.21072 -0.598362 0
M  V30 3163 H 298.436 -3.33112 1.53075 0
M  V30 3164 H 298.084 -5.02232 -0.277767 0
M  V30 3165 H 297.784 -5.72293 1.33244 0
M  V30 3166 H 299.308 -6.08755 0.474262 0
M  V30 3167 H 300.722 -5.14025 2.53873 0
M  V30 3168 H 299.119 -5.00062 3.3175 0
M  V30 3169 H 300.189 -3.58818 3.26156 0
M  V30 3170 N 301.532 -0.945985 -1.26051 0
M  V30 3171 C 302.462 -0.477172 -2.28572 0
M  V30 3172 C 303.443 0.472032 -1.63419 0
M  V30 3173 O 304.628 0.372853 -1.90587 0
M  V30 3174 C 301.758 0.253975 -3.4637 0
M  V30 3175 C 300.712 -0.609135 -4.23643 0
M  V30 3176 C 300.038 0.252252 -5.34105 0
M  V30 3177 C 301.338 -1.8829 -4.8718 0
M  V30 3178 H 303.032 -1.33402 -2.68038 0
M  V30 3179 H 300.578 -0.642904 -1.28852 0
M  V30 3180 H 302.531 0.593016 -4.17207 0
M  V30 3181 H 301.255 1.145 -3.05871 0
M  V30 3182 H 299.914 -0.931138 -3.54578 0
M  V30 3183 H 299.562 1.14278 -4.89846 0
M  V30 3184 H 299.262 -0.32188 -5.86718 0
M  V30 3185 H 300.786 0.586454 -6.07777 0
M  V30 3186 H 302.2 -1.61081 -5.50205 0
M  V30 3187 H 300.597 -2.40199 -5.49931 0
M  V30 3188 H 301.667 -2.59134 -4.09851 0
M  V30 3189 N 303.011 1.40521 -0.713556 0
M  V30 3190 C 303.941 2.33381 -0.0743864 0
M  V30 3191 C 304.922 1.52784 0.747735 0
M  V30 3192 O 306.107 1.81258 0.697071 0
M  V30 3193 C 303.237 3.36748 0.849598 0
M  V30 3194 C 302.191 4.27793 0.133247 0
M  V30 3195 C 301.517 5.21679 1.17281 0
M  V30 3196 C 302.817 5.12415 -1.01134 0
M  V30 3197 H 304.511 2.87081 -0.850007 0
M  V30 3198 H 302.057 1.38034 -0.410201 0
M  V30 3199 H 304.01 4.00648 1.30612 0
M  V30 3200 H 302.734 2.81439 1.65709 0
M  V30 3201 H 301.393 3.65342 -0.303426 0
M  V30 3202 H 301.041 4.62677 1.9733 0
M  V30 3203 H 300.741 5.83435 0.698397 0
M  V30 3204 H 302.265 5.88456 1.62947 0
M  V30 3205 H 303.679 5.69781 -0.634274 0
M  V30 3206 H 302.076 5.83203 -1.41399 0
M  V30 3207 H 303.146 4.48514 -1.84292 0
M  V30 3208 N 304.489 0.459591 1.5075 0
M  V30 3209 C 305.419 -0.330644 2.31147 0
M  V30 3210 C 306.4 -1.00087 1.37538 0
M  V30 3211 O 307.585 -1.00025 1.66459 0
M  V30 3212 C 304.715 -1.41958 3.16962 0
M  V30 3213 C 303.669 -0.871608 4.19031 0
M  V30 3214 C 302.995 -2.05797 4.9351 0
M  V30 3215 C 304.295 0.109251 5.22186 0
M  V30 3216 H 305.989 0.340336 2.97459 0
M  V30 3217 H 303.535 0.165119 1.4305 0
M  V30 3218 H 305.488 -1.9798 3.71997 0
M  V30 3219 H 304.212 -2.11917 2.48513 0
M  V30 3220 H 302.871 -0.333442 3.6508 0
M  V30 3221 H 302.519 -2.74427 4.21544 0
M  V30 3222 H 302.219 -1.6976 5.62544 0
M  V30 3223 H 303.743 -2.62331 5.51375 0
M  V30 3224 H 305.157 -0.361405 5.7216 0
M  V30 3225 H 303.554 0.383316 5.98875 0
M  V30 3226 H 304.624 1.03887 4.73641 0
M  V30 3227 N 305.967 -1.56429 0.191757 0
M  V30 3228 C 307.216 -1.9666 -0.448088 0
M  V30 3229 C 307.529 -1.08136 -1.62991 0
M  V30 3230 O 308.735 -1.38135 -2.33733 0
M  V30 3231 C 307.191 -3.49753 -0.848585 0
M  V30 3232 C 306.799 -4.46935 0.308764 0
M  V30 3233 C 308.543 -3.9876 -1.4557 0
M  V30 3234 C 306.45 -5.91293 -0.112506 0
M  V30 3235 H 305.38 -0.734312 -0.171179 0
M  V30 3236 H 308.031 -1.81301 0.283242 0
M  V30 3237 H 306.413 -3.60604 -1.63649 0
M  V30 3238 H 307.587 -4.47813 1.08627 0
M  V30 3239 H 305.902 -4.08102 0.827158 0
M  V30 3240 H 308.499 -5.04086 -1.78328 0
M  V30 3241 H 308.842 -3.42875 -2.36099 0
M  V30 3242 H 309.375 -3.9101 -0.731836 0
M  V30 3243 H 306.114 -6.51097 0.758514 0
M  V30 3244 H 305.634 -5.93676 -0.854941 0
M  V30 3245 H 307.313 -6.44663 -0.549448 0
M  V30 3246 N 307.445 0.0818655 -1.57387 0
M  V30 3247 C 308.691 0.784074 -1.8703 0
M  V30 3248 C 309.024 1.77729 -0.782689 0
M  V30 3249 O 308.299 1.93384 0.208051 0
M  V30 3250 C 308.582 1.50105 -3.27323 0
M  V30 3251 C 308.435 0.524925 -4.46727 0
M  V30 3252 C 309.754 2.44843 -3.65705 0
M  V30 3253 H 306.873 0.283582 -0.680257 0
M  V30 3254 H 309.515 0.0474352 -1.89941 0
M  V30 3255 H 307.665 2.12897 -3.24972 0
M  V30 3256 H 309.337 -0.0970111 -4.61198 0
M  V30 3257 H 307.58 -0.160606 -4.33503 0
M  V30 3258 H 308.251 1.064 -5.41648 0
M  V30 3259 H 310.727 1.92135 -3.69085 0
M  V30 3260 H 309.603 2.92018 -4.64776 0
M  V30 3261 H 309.864 3.29197 -2.95096 0
M  V30 3262 N 308.923 1.53595 0.353017 0
M  V30 3263 C 310.148 1.7462 1.11904 0
M  V30 3264 C 310.573 0.479721 1.8188 0
M  V30 3265 O 309.931 -0.567066 1.72204 0
M  V30 3266 C 309.979 2.92029 2.11545 0
M  V30 3267 O 309.083 2.61516 3.18878 0
M  V30 3268 H 308.424 0.579531 0.324099 0
M  V30 3269 H 310.954 2.00525 0.406301 0
M  V30 3270 H 310.964 3.18551 2.5493 0
M  V30 3271 H 309.639 3.83888 1.60008 0
M  V30 3272 H 308.216 2.45852 2.80377 0
M  V30 3273 N 310.401 -0.613514 1.45168 0
M  V30 3274 C 311.647 -1.37471 1.49096 0
M  V30 3275 C 311.98 -1.93765 0.129901 0
M  V30 3276 O 311.255 -1.74707 -0.854858 0
M  V30 3277 C 311.538 -2.52701 2.56542 0
M  V30 3278 C 311.391 -2.01643 4.0207 0
M  V30 3279 C 312.71 -3.54849 2.60327 0
M  V30 3280 H 309.829 -0.498502 0.54283 0
M  V30 3281 H 312.471 -0.692125 1.76945 0
M  V30 3282 H 310.621 -3.10931 2.32926 0
M  V30 3283 H 312.293 -1.48108 4.36877 0
M  V30 3284 H 310.536 -1.32688 4.13009 0
M  V30 3285 H 311.207 -2.84681 4.72928 0
M  V30 3286 H 313.683 -3.0645 2.81474 0
M  V30 3287 H 312.559 -4.32973 3.37381 0
M  V30 3288 H 312.82 -4.10079 1.6519 0
M  V30 3289 N 311.879 -1.3236 -0.855495 0
M  V30 3290 C 312.809 -1.23833 -1.97958 0
M  V30 3291 C 313.79 -0.122361 -1.69659 0
M  V30 3292 O 314.975 -0.30939 -1.9172 0
M  V30 3293 C 312.105 -0.959772 -3.33775 0
M  V30 3294 C 311.059 -2.03689 -3.76424 0
M  V30 3295 C 310.385 -1.61075 -5.09862 0
M  V30 3296 C 311.685 -3.4518 -3.9198 0
M  V30 3297 H 313.379 -2.1788 -2.0535 0
M  V30 3298 H 310.925 -1.04891 -0.986605 0
M  V30 3299 H 312.878 -0.886678 -4.11966 0
M  V30 3300 H 311.602 0.0163404 -3.26596 0
M  V30 3301 H 310.261 -2.10012 -3.00484 0
M  V30 3302 H 309.909 -0.622107 -4.99138 0
M  V30 3303 H 309.609 -2.33143 -5.39368 0
M  V30 3304 H 311.133 -1.55201 -5.90546 0
M  V30 3305 H 312.547 -3.4145 -4.60526 0
M  V30 3306 H 310.944 -4.1559 -4.32903 0
M  V30 3307 H 312.014 -3.84903 -2.94919 0
M  V30 3308 N 313.357 1.07166 -1.15556 0
M  V30 3309 C 314.32 2.12589 -0.856644 0
M  V30 3310 C 315.32 1.6015 0.14444 0
M  V30 3311 O 316.51 1.7399 -0.0854163 0
M  V30 3312 C 313.642 3.39753 -0.279405 0
M  V30 3313 H 314.835 2.40539 -1.79112 0
M  V30 3314 H 312.388 1.23086 -0.963298 0
M  V30 3315 H 313.123 3.17447 0.663174 0
M  V30 3316 H 312.908 3.79117 -1.00063 0
M  V30 3317 H 314.398 4.17507 -0.0879113 0
M  V30 3318 N 314.835 0.952656 1.25548 0
M  V30 3319 C 316.075 0.614013 1.9496 0
M  V30 3320 C 316.439 -0.833215 1.72978 0
M  V30 3321 O 317.64 -1.28135 2.36294 0
M  V30 3322 C 315.911 0.960562 3.4425 0
M  V30 3323 S 317.47 0.734195 4.32614 0
M  V30 3324 H 314.288 0.225754 0.674208 0
M  V30 3325 H 316.89 1.22641 1.52248 0
M  V30 3326 H 315.594 2.01103 3.57751 0
M  V30 3327 H 315.125 0.338336 3.91942 0
M  V30 3328 H 317.14 -0.395995 4.94617 0
M  V30 3329 N 316.313 -1.40141 0.720998 0
M  V30 3330 C 317.261 -2.3252 0.0608547 0
M  V30 3331 C 318.255 -1.52326 -0.741152 0
M  V30 3332 O 319.461 -1.68089 -0.643911 0
M  V30 3333 H 315.836 -0.751999 0.000876664 0
M  V30 3334 H 317.807 -2.8584 0.856614 0
M  V30 3335 C 316.556 -3.37331 -0.842809 0
M  V30 3336 H 315.879 -3.99108 -0.235084 0
M  V30 3337 H 317.319 -4.04452 -1.27257 0
M  V30 3338 C 315.778 -2.73246 -1.97074 0
M  V30 3339 O 316.308 -2.59998 -3.06209 0
M  V30 3340 N 314.514 -2.31547 -1.75597 0
M  V30 3341 H 314.061 -2.42522 -0.868368 0
M  V30 3342 H 314.019 -1.89007 -2.51244 0
M  V30 3343 N 317.792 -0.46758 -1.50504 0
M  V30 3344 C 319.039 0.0886219 -2.02306 0
M  V30 3345 C 319.367 1.40037 -1.34981 0
M  V30 3346 O 318.622 1.90136 -0.463318 0
M  V30 3347 C 318.921 0.323995 -3.55928 0
M  V30 3348 C 318.587 -0.905618 -4.41712 0
M  V30 3349 C 317.249 -1.24275 -4.64875 0
M  V30 3350 C 319.601 -1.72448 -4.91845 0
M  V30 3351 C 316.929 -2.39888 -5.35417 0
M  V30 3352 C 319.281 -2.87185 -5.63656 0
M  V30 3353 C 317.945 -3.21317 -5.85074 0
M  V30 3354 H 317.215 0.0324291 -0.74029 0
M  V30 3355 H 319.862 -0.620945 -1.81153 0
M  V30 3356 H 318.167 1.11577 -3.75577 0
M  V30 3357 H 319.864 0.76826 -3.93572 0
M  V30 3358 H 316.454 -0.632956 -4.239 0
M  V30 3359 H 320.638 -1.4772 -4.73806 0
M  V30 3360 H 315.894 -2.66611 -5.50208 0
M  V30 3361 H 320.068 -3.50985 -6.01484 0
M  V30 3362 H 317.695 -4.1101 -6.39511 0
M  V30 3363 N 319.27 1.56325 -0.20005 0
M  V30 3364 C 320.495 2.02548 0.44597 0
M  V30 3365 C 320.92 1.07922 1.5406 0
M  V30 3366 O 320.278 0.0635775 1.81188 0
M  V30 3367 C 320.326 3.47175 0.974761 0
M  V30 3368 O 319.43 3.55671 2.08739 0
M  V30 3369 H 318.771 0.655862 0.103638 0
M  V30 3370 H 321.301 2.02201 -0.312381 0
M  V30 3371 H 321.311 3.87067 1.2901 0
M  V30 3372 H 319.986 4.15538 0.17347 0
M  V30 3373 H 318.563 3.27657 1.78032 0
M  V30 3374 N 320.748 -0.0735177 1.57428 0
M  V30 3375 C 321.994 -0.774145 1.87443 0
M  V30 3376 C 322.327 -1.77311 0.792103 0
M  V30 3377 O 321.602 -1.93492 -0.197793 0
M  V30 3378 C 321.885 -1.48367 3.28115 0
M  V30 3379 C 321.738 -0.501227 4.46999 0
M  V30 3380 C 323.057 -2.429 3.66998 0
M  V30 3381 H 320.176 -0.279971 0.681752 0
M  V30 3382 H 322.818 -0.0373616 1.89963 0
M  V30 3383 H 320.968 -2.11171 3.26097 0
M  V30 3384 H 322.64 0.121468 4.6114 0
M  V30 3385 H 320.883 0.183593 4.33411 0
M  V30 3386 H 321.554 -1.03526 5.42205 0
M  V30 3387 H 324.03 -1.90175 3.70098 0
M  V30 3388 H 322.906 -2.89549 4.66318 0
M  V30 3389 H 323.167 -3.27628 2.96837 0
M  V30 3390 N 322.226 -1.5378 -0.344866 0
M  V30 3391 C 323.475 -1.7018 -1.08267 0
M  V30 3392 C 323.788 -0.471 -1.89845 0
M  V30 3393 O 324.994 -0.515917 -2.66553 0
M  V30 3394 C 323.45 -3.00923 -1.97417 0
M  V30 3395 C 323.058 -4.31335 -1.21053 0
M  V30 3396 C 324.802 -3.26688 -2.71063 0
M  V30 3397 C 322.709 -5.53153 -2.09225 0
M  V30 3398 H 321.639 -0.634138 -0.407903 0
M  V30 3399 H 324.29 -1.8028 -0.342246 0
M  V30 3400 H 322.672 -2.84676 -2.75274 0
M  V30 3401 H 323.846 -4.58281 -0.481159 0
M  V30 3402 H 322.161 -4.12173 -0.591813 0
M  V30 3403 H 324.758 -4.1489 -3.37299 0
M  V30 3404 H 325.101 -2.43639 -3.37558 0
M  V30 3405 H 325.634 -3.43705 -2.0028 0
M  V30 3406 H 322.373 -6.38741 -1.47274 0
M  V30 3407 H 321.893 -5.30458 -2.79955 0
M  V30 3408 H 323.572 -5.88744 -2.68308 0
M  V30 3409 N 323.704 0.605807 -1.45491 0
M  V30 3410 C 324.634 1.72709 -1.57143 0
M  V30 3411 C 325.615 1.6476 -0.422884 0
M  V30 3412 O 326.8 1.83132 -0.646247 0
M  V30 3413 C 323.93 3.11316 -1.53948 0
M  V30 3414 C 322.884 3.34077 -2.67537 0
M  V30 3415 C 322.21 4.72975 -2.49397 0
M  V30 3416 C 323.51 3.24158 -4.09535 0
M  V30 3417 H 325.204 1.63214 -2.51001 0
M  V30 3418 H 322.75 0.78379 -1.208 0
M  V30 3419 H 324.703 3.89557 -1.60696 0
M  V30 3420 H 323.427 3.21655 -0.566205 0
M  V30 3421 H 322.086 2.58227 -2.6022 0
M  V30 3422 H 321.734 4.8005 -1.50205 0
M  V30 3423 H 321.434 4.8916 -3.25571 0
M  V30 3424 H 322.958 5.53414 -2.58002 0
M  V30 3425 H 324.372 3.92271 -4.18086 0
M  V30 3426 H 322.769 3.51872 -4.86113 0
M  V30 3427 H 323.839 2.2157 -4.31317 0
M  V30 3428 N 325.182 1.32811 0.848464 0
M  V30 3429 C 326.13 1.22231 1.97895 0
M  V30 3430 C 327.124 0.125749 1.68933 0
M  V30 3431 O 328.33 0.289083 1.77663 0
M  V30 3432 H 324.705 0.379058 0.649476 0
M  V30 3433 H 326.676 2.17828 2.03945 0
M  V30 3434 C 325.425 0.968572 3.33937 0
M  V30 3435 H 324.748 1.80458 3.56756 0
M  V30 3436 H 326.188 0.934808 4.13567 0
M  V30 3437 C 324.647 -0.328628 3.35293 0
M  V30 3438 O 325.177 -1.33848 3.78745 0
M  V30 3439 N 323.383 -0.352788 2.88451 0
M  V30 3440 H 322.93 0.469541 2.53285 0
M  V30 3441 H 322.888 -1.22057 2.89741 0
M  V30 3442 N 326.66 -1.06551 1.16123 0
M  V30 3443 C 327.59 -2.15935 0.88851 0
M  V30 3444 C 328.571 -1.69306 -0.164135 0
M  V30 3445 O 329.756 -1.94193 -0.0167857 0
M  V30 3446 C 326.886 -3.45149 0.385942 0
M  V30 3447 C 325.84 -4.05271 1.3762 0
M  V30 3448 C 325.166 -5.29664 0.732137 0
M  V30 3449 C 326.466 -4.44355 2.74493 0
M  V30 3450 H 328.16 -2.39006 1.80323 0
M  V30 3451 H 325.706 -1.14866 0.868435 0
M  V30 3452 H 327.659 -4.21004 0.182647 0
M  V30 3453 H 326.383 -3.21689 -0.564274 0
M  V30 3454 H 325.042 -3.3147 1.56599 0
M  V30 3455 H 324.69 -5.02499 -0.224483 0
M  V30 3456 H 324.39 -5.70848 1.39307 0
M  V30 3457 H 325.914 -6.08218 0.538802 0
M  V30 3458 H 327.328 -5.11303 2.59311 0
M  V30 3459 H 325.725 -4.96515 3.37035 0
M  V30 3460 H 326.795 -3.55339 3.29943 0
M  V30 3461 N 328.138 -0.959301 -1.25041 0
M  V30 3462 C 329.387 -0.612254 -1.92183 0
M  V30 3463 C 329.7 0.855347 -1.75907 0
M  V30 3464 O 330.906 1.31256 -2.37664 0
M  V30 3465 C 329.362 -1.04435 -3.44414 0
M  V30 3466 C 328.97 -2.53482 -3.69393 0
M  V30 3467 C 330.714 -0.770055 -4.17457 0
M  V30 3468 C 328.621 -2.90468 -5.15153 0
M  V30 3469 H 327.551 -0.225279 -0.719559 0
M  V30 3470 H 330.202 -1.16438 -1.41825 0
M  V30 3471 H 328.584 -0.4206 -3.9376 0
M  V30 3472 H 329.758 -3.20916 -3.30681 0
M  V30 3473 H 328.073 -2.78432 -3.0962 0
M  V30 3474 H 330.67 -1.02249 -5.24832 0
M  V30 3475 H 331.013 0.293611 -4.15263 0
M  V30 3476 H 331.546 -1.35437 -3.74034 0
M  V30 3477 H 328.285 -3.95871 -5.22462 0
M  V30 3478 H 327.805 -2.27711 -5.54894 0
M  V30 3479 H 329.484 -2.79914 -5.83315 0
M  V30 3480 N 329.616 1.39756 -0.72842 0
M  V30 3481 C 331.032 1.5442 -0.403308 0
M  V30 3482 C 331.232 1.69694 1.08656 0
M  V30 3483 O 330.288 1.69373 1.87267 0
M  V30 3484 C 331.601 2.76555 -1.18058 0
M  V30 3485 C 333.149 2.90384 -1.16815 0
M  V30 3486 C 333.624 4.15449 -1.92785 0
M  V30 3487 N 335.115 4.22475 -1.89918 0
M  V30 3488 C 335.85 5.1818 -2.45514 0
M  V30 3489 N 335.346 6.19714 -3.09719 0
M  V30 3490 N 337.139 5.1035 -2.35584 0
M  V30 3491 H 329.29 1.28089 -1.69431 0
M  V30 3492 H 331.553 0.620327 -0.716867 0
M  V30 3493 H 331.259 2.7159 -2.23455 0
M  V30 3494 H 331.133 3.69033 -0.780662 0
M  V30 3495 H 333.52 2.94846 -0.12234 0
M  V30 3496 H 333.601 1.98988 -1.6074 0
M  V30 3497 H 333.245 4.11749 -2.97364 0
M  V30 3498 H 333.175 5.05877 -1.46272 0
M  V30 3499 H 335.666 3.49743 -1.43138 0
M  V30 3500 H 335.979 6.8919 -3.49625 0
M  V30 3501 H 334.324 6.20121 -3.13807 0
M  V30 3502 H 337.515 4.2996 -1.85072 0
M  V30 3503 H 337.688 5.84761 -2.79211 0
M  V30 3504 N 331.094 0.475555 1.50254 0
M  V30 3505 C 332.027 -0.362381 2.25304 0
M  V30 3506 C 333.005 -0.992393 1.28803 0
M  V30 3507 O 334.189 -1.02746 1.58036 0
M  V30 3508 C 331.316 -1.50813 3.03271 0
M  V30 3509 C 330.362 -0.995044 4.1473 0
M  V30 3510 S 331.195 0.0938436 5.35418 0
M  V30 3511 C 332.351 -1.05567 6.16933 0
M  V30 3512 H 332.584 0.274686 2.96028 0
M  V30 3513 H 330.117 0.260495 1.52187 0
M  V30 3514 H 332.075 -2.16476 3.48781 0
M  V30 3515 H 330.736 -2.11672 2.32064 0
M  V30 3516 H 329.929 -1.85293 4.68703 0
M  V30 3517 H 329.531 -0.416052 3.71679 0
M  V30 3518 H 331.823 -1.96636 6.48337 0
M  V30 3519 H 332.766 -0.555109 7.05921 0
M  V30 3520 H 333.174 -1.31151 5.49053 0
M  V30 3521 N 332.573 -1.56217 0.208337 0
M  V30 3522 C 333.523 -2.16324 -0.720281 0
M  V30 3523 C 334.507 -1.10775 -1.16695 0
M  V30 3524 O 335.699 -1.36801 -1.12314 0
M  V30 3525 C 332.828 -2.83644 -1.93393 0
M  V30 3526 C 331.914 -3.96401 -1.50755 0
M  V30 3527 N 332.305 -4.99546 -0.792937 0
M  V30 3528 C 330.603 -4.08246 -1.79585 0
M  V30 3529 C 331.304 -5.78828 -0.577364 0
M  V30 3530 N 330.28 -5.31723 -1.1301 0
M  V30 3531 H 334.082 -2.93432 -0.165725 0
M  V30 3532 H 331.596 -1.62397 0.00906463 0
M  V30 3533 H 333.593 -3.25107 -2.60981 0
M  V30 3534 H 332.253 -2.08027 -2.49308 0
M  V30 3535 H 333.264 -5.15967 -0.447004 0
M  V30 3536 H 329.941 -3.4377 -2.36915 0
M  V30 3537 H 331.331 -6.71899 -0.00952956 0
M  V30 3538 N 334.051 0.0651679 -1.57465 0
M  V30 3539 C 335.467 0.420105 -1.53972 0
M  V30 3540 C 335.667 1.78782 -0.929474 0
M  V30 3541 O 334.723 2.46771 -0.534839 0
M  V30 3542 C 336.036 0.355084 -2.98596 0
M  V30 3543 C 337.584 0.434792 -3.09965 0
M  V30 3544 C 338.059 0.399609 -4.56253 0
M  V30 3545 N 339.55 0.459488 -4.60915 0
M  V30 3546 C 340.285 0.454584 -5.71595 0
M  V30 3547 N 339.781 0.404102 -6.9162 0
M  V30 3548 N 341.574 0.501635 -5.59857 0
M  V30 3549 H 333.725 -0.830328 -1.95498 0
M  V30 3550 H 335.988 -0.312244 -0.895102 0
M  V30 3551 H 335.694 -0.583357 -3.46828 0
M  V30 3552 H 335.568 1.16275 -3.58831 0
M  V30 3553 H 337.955 1.36366 -2.61703 0
M  V30 3554 H 338.036 -0.40157 -2.52628 0
M  V30 3555 H 337.68 -0.525436 -5.05175 0
M  V30 3556 H 337.61 1.25359 -5.11461 0
M  V30 3557 H 340.101 0.502482 -3.74544 0
M  V30 3558 H 340.414 0.404468 -7.71741 0
M  V30 3559 H 338.759 0.37069 -6.94011 0
M  V30 3560 H 341.95 0.538812 -4.64989 0
M  V30 3561 H 342.123 0.494345 -6.46112 0
M  V30 3562 N 335.529 1.53961 0.336706 0
M  V30 3563 C 336.945 1.44378 0.680241 0
M  V30 3564 C 337.145 0.606034 1.9217 0
M  V30 3565 O 336.201 0.099688 2.52303 0
M  V30 3566 C 337.514 2.87945 0.8665 0
M  V30 3567 C 339.062 2.97763 0.964682 0
M  V30 3568 C 339.537 4.42453 1.18321 0
M  V30 3569 N 341.028 4.46008 1.25025 0
M  V30 3570 C 341.763 5.55102 1.43697 0
M  V30 3571 N 341.259 6.7419 1.59498 0
M  V30 3572 N 343.052 5.42727 1.463 0
M  V30 3573 H 335.203 2.06918 -0.479455 0
M  V30 3574 H 337.466 0.935634 -0.152619 0
M  V30 3575 H 337.172 3.51691 0.0256937 0
M  V30 3576 H 337.046 3.33293 1.76623 0
M  V30 3577 H 339.433 2.34153 1.796 0
M  V30 3578 H 339.514 2.55766 0.041708 0
M  V30 3579 H 339.158 5.06645 0.356788 0
M  V30 3580 H 339.088 4.82048 2.11985 0
M  V30 3581 H 341.579 3.60196 1.14312 0
M  V30 3582 H 341.892 7.53095 1.734 0
M  V30 3583 H 340.237 6.77123 1.56621 0
M  V30 3584 H 343.428 4.48647 1.33543 0
M  V30 3585 H 343.601 6.27806 1.6051 0
M  V30 3586 N 337.007 -0.598083 1.45811 0
M  V30 3587 C 338.232 -1.3881 1.54099 0
M  V30 3588 C 338.657 -1.8726 0.177578 0
M  V30 3589 O 338.015 -1.6069 -0.839541 0
M  V30 3590 C 338.063 -2.56217 2.53743 0
M  V30 3591 O 337.167 -3.5716 2.06182 0
M  V30 3592 H 336.508 -0.414024 0.519115 0
M  V30 3593 H 339.038 -0.726971 1.91249 0
M  V30 3594 H 339.048 -3.03337 2.72856 0
M  V30 3595 H 337.723 -2.20303 3.5276 0
M  V30 3596 H 336.3 -3.16624 1.96987 0
M  V30 3597 N 338.485 -1.33259 -0.841409 0
M  V30 3598 C 339.901 -1.12538 -1.13169 0
M  V30 3599 C 340.101 0.0854037 -2.01319 0
M  V30 3600 O 339.157 0.766417 -2.40587 0
M  V30 3601 C 340.47 -2.41156 -1.79623 0
M  V30 3602 C 342.018 -2.47038 -1.922 0
M  V30 3603 C 342.493 -3.7561 -2.6207 0
M  V30 3604 N 343.984 -3.76667 -2.69585 0
M  V30 3605 C 344.719 -4.72861 -3.2433 0
M  V30 3606 N 344.215 -5.79428 -3.79783 0
M  V30 3607 N 346.008 -4.6034 -3.22558 0
M  V30 3608 H 338.159 -2.10868 -0.254676 0
M  V30 3609 H 340.422 -0.931615 -0.175493 0
M  V30 3610 H 340.128 -3.29747 -1.22311 0
M  V30 3611 H 340.002 -2.53114 -2.79666 0
M  V30 3612 H 342.389 -1.58898 -2.48667 0
M  V30 3613 H 342.47 -2.39022 -0.911148 0
M  V30 3614 H 342.114 -4.64131 -2.06263 0
M  V30 3615 H 342.044 -3.80902 -3.63622 0
M  V30 3616 H 344.535 -2.99648 -2.30259 0
M  V30 3617 H 344.848 -6.48867 -4.19752 0
M  V30 3618 H 343.193 -5.83166 -3.78078 0
M  V30 3619 H 346.384 -3.76244 -2.78492 0
M  V30 3620 H 346.557 -5.35478 -3.64921 0
M  V30 3621 N 339.963 1.05934 -1.16686 0
M  V30 3622 C 341.379 1.30938 -0.912542 0
M  V30 3623 C 341.579 1.96803 0.432533 0
M  V30 3624 O 340.635 2.23693 1.17123 0
M  V30 3625 C 341.948 2.18649 -2.06429 0
M  V30 3626 C 343.496 2.32055 -2.10047 0
M  V30 3627 C 343.971 3.23122 -3.24586 0
M  V30 3628 N 345.462 3.30706 -3.24327 0
M  V30 3629 C 346.197 4.01273 -4.09594 0
M  V30 3630 N 345.693 4.74332 -5.04956 0
M  V30 3631 N 347.486 3.97361 -3.97569 0
M  V30 3632 H 339.637 0.615777 -2.03278 0
M  V30 3633 H 341.9 0.334077 -0.887185 0
M  V30 3634 H 341.606 1.77534 -3.03603 0
M  V30 3635 H 341.48 3.19252 -2.00894 0
M  V30 3636 H 343.867 2.72415 -1.13464 0
M  V30 3637 H 343.948 1.31107 -2.19647 0
M  V30 3638 H 343.592 2.83477 -4.2143 0
M  V30 3639 H 343.522 4.24057 -3.12223 0
M  V30 3640 H 346.013 2.78644 -2.55276 0
M  V30 3641 H 346.326 5.25716 -5.6643 0
M  V30 3642 H 344.671 4.733 -5.08933 0
M  V30 3643 H 347.862 3.39405 -3.22369 0
M  V30 3644 H 348.035 4.52089 -4.64241 0
M  V30 3645 N 341.441 0.965919 1.2453 0
M  V30 3646 C 342.666 0.643971 1.97149 0
M  V30 3647 C 343.091 -0.779487 1.71189 0
M  V30 3648 O 342.449 -1.5288 0.974553 0
M  V30 3649 C 342.497 0.922557 3.48599 0
M  V30 3650 O 341.601 0.00707672 4.12399 0
M  V30 3651 H 340.942 0.243647 0.617683 0
M  V30 3652 H 343.472 1.29558 1.58353 0
M  V30 3653 H 343.482 0.853373 3.98976 0
M  V30 3654 H 342.157 1.95996 3.66822 0
M  V30 3655 H 340.734 0.12943 3.72675 0
M  V30 3656 N 342.919 -1.39368 0.735821 0
M  V30 3657 C 344.335 -1.54204 0.411492 0
M  V30 3658 C 344.535 -1.70268 -1.07755 0
M  V30 3659 O 343.591 -1.70364 -1.86366 0
M  V30 3660 C 344.904 -2.75925 1.19523 0
M  V30 3661 C 346.452 -2.89761 1.18354 0
M  V30 3662 C 346.927 -4.14421 1.94986 0
M  V30 3663 N 348.418 -4.21462 1.92156 0
M  V30 3664 C 349.153 -5.16871 2.48258 0
M  V30 3665 N 348.649 -6.18063 3.13001 0
M  V30 3666 N 350.442 -5.09093 2.38287 0
M  V30 3667 H 342.593 -1.27189 1.70108 0
M  V30 3668 H 344.856 -0.616517 0.720147 0
M  V30 3669 H 344.562 -2.70401 2.24892 0
M  V30 3670 H 344.436 -3.68614 0.800222 0
M  V30 3671 H 346.823 -2.94777 0.137975 0
M  V30 3672 H 346.904 -1.98133 1.61793 0
M  V30 3673 H 346.548 -4.10166 2.99543 0
M  V30 3674 H 346.478 -5.05095 1.48953 0
M  V30 3675 H 348.969 -3.48979 1.44991 0
M  V30 3676 H 349.282 -6.87326 3.53275 0
M  V30 3677 H 347.627 -6.18448 3.17091 0
M  V30 3678 H 350.818 -4.28973 1.8735 0
M  V30 3679 H 350.991 -5.83272 2.82308 0
M  V30 3680 N 344.397 -0.483516 -1.5 0
M  V30 3681 C 345.637 0.0657469 -2.04294 0
M  V30 3682 C 346.001 1.35869 -1.35659 0
M  V30 3683 O 347.202 1.99111 -1.80578 0
M  V30 3684 C 345.473 0.232758 -3.56641 0
M  V30 3685 S 347.032 0.738788 -4.32536 0
M  V30 3686 H 343.85 0.0100755 -0.710929 0
M  V30 3687 H 346.452 -0.653494 -1.84254 0
M  V30 3688 H 345.156 -0.713847 -4.04144 0
M  V30 3689 H 344.687 0.977751 -3.81056 0
M  V30 3690 H 346.702 2.01048 -4.53645 0
M  V30 3691 N 345.875 1.56104 -0.216619 0
M  V30 3692 C 347.123 1.97781 0.415593 0
M  V30 3693 C 347.444 1.10536 1.60645 0
M  V30 3694 O 346.714 0.181303 1.95059 0
M  V30 3695 H 345.294 0.730415 0.156534 0
M  V30 3696 H 347.956 1.92445 -0.308366 0
M  V30 3697 H 347.052 3.03072 0.74525 0
M  V30 3698 N 347.353 -0.0568162 1.57498 0
M  V30 3699 C 348.764 -0.606858 1.76562 0
M  V30 3700 C 349.115 -1.77114 0.844094 0
M  V30 3701 O 348.24 -2.16376 0.0318911 0
M  V30 3702 C 348.835 -1.10766 3.20182 0
M  V30 3703 C 347.394 -1.60344 3.40539 0
M  V30 3704 C 346.541 -0.529311 2.72201 0
M  V30 3705 H 349.492 0.169393 1.57793 0
M  V30 3706 H 349.513 -1.97602 3.25167 0
M  V30 3707 H 349.025 -0.26006 3.87228 0
M  V30 3708 H 347.126 -2.47379 2.78629 0
M  V30 3709 H 347.239 -1.67006 4.4905 0
M  V30 3710 H 345.603 -0.977893 2.35179 0
M  V30 3711 H 346.386 0.308352 3.41912 0
M  V30 3712 N 348.832 -1.54138 -0.328536 0
M  V30 3713 C 350.057 -1.76378 -1.09112 0
M  V30 3714 C 350.482 -0.508596 -1.81094 0
M  V30 3715 O 349.84 0.539598 -1.73084 0
M  V30 3716 C 349.888 -2.95358 -2.06872 0
M  V30 3717 O 348.992 -2.66556 -3.14677 0
M  V30 3718 H 348.333 -0.584614 -0.314838 0
M  V30 3719 H 350.863 -2.01146 -0.374348 0
M  V30 3720 H 350.873 -3.22566 -2.4983 0
M  V30 3721 H 349.548 -3.86385 -1.5388 0
M  V30 3722 H 348.125 -2.50282 -2.7643 0
M  V30 3723 N 350.31 0.590341 -1.46126 0
M  V30 3724 C 351.24 1.71032 -1.58966 0
M  V30 3725 C 352.221 1.64302 -0.440335 0
M  V30 3726 O 353.406 1.82436 -0.665634 0
M  V30 3727 C 350.536 3.09665 -1.57241 0
M  V30 3728 C 349.49 3.31221 -2.71066 0
M  V30 3729 C 348.816 4.70303 -2.54399 0
M  V30 3730 C 350.116 3.19796 -4.1295 0
M  V30 3731 H 351.81 1.60543 -2.52718 0
M  V30 3732 H 349.356 0.770933 -1.21625 0
M  V30 3733 H 351.309 3.87831 -1.64819 0
M  V30 3734 H 350.033 3.21036 -0.600289 0
M  V30 3735 H 348.692 2.55452 -2.62944 0
M  V30 3736 H 348.34 4.78429 -1.55288 0
M  V30 3737 H 348.04 4.85679 -3.30741 0
M  V30 3738 H 349.564 5.50647 -2.63857 0
M  V30 3739 H 350.978 3.87815 -4.22223 0
M  V30 3740 H 349.375 3.46696 -4.89818 0
M  V30 3741 H 350.445 2.16983 -4.33643 0
M  V30 3742 N 351.788 1.33704 0.83433 0
M  V30 3743 C 353.036 1.25169 1.58673 0
M  V30 3744 C 353.357 -0.18127 1.94156 0
M  V30 3745 O 352.627 -1.11113 1.6134 0
M  V30 3746 H 351.207 0.4603 0.58833 0
M  V30 3747 H 353.869 1.67478 0.996847 0
M  V30 3748 H 352.965 1.84856 2.51465 0
M  V30 3749 N 353.266 -1.05314 1.17247 0
M  V30 3750 C 354.491 -1.82509 0.985148 0
M  V30 3751 C 354.916 -1.82343 -0.461788 0
M  V30 3752 O 354.274 -1.23151 -1.33055 0
M  V30 3753 C 354.322 -3.26566 1.52929 0
M  V30 3754 O 353.426 -4.05666 0.742225 0
M  V30 3755 H 352.767 -0.564347 0.349869 0
M  V30 3756 H 355.297 -1.32718 1.55715 0
M  V30 3757 H 355.307 -3.77369 1.55103 0
M  V30 3758 H 353.982 -3.26001 2.58256 0
M  V30 3759 H 352.559 -3.64397 0.791794 0
M  V30 3760 N 354.744 -0.972509 -1.24016 0
M  V30 3761 C 355.992 -0.635776 -1.91839 0
M  V30 3762 C 356.313 0.832312 -1.76345 0
M  V30 3763 O 355.583 1.5946 -1.13795 0
M  V30 3764 H 354.163 -0.232157 -0.710009 0
M  V30 3765 H 356.825 -1.23462 -1.50809 0
M  V30 3766 H 355.921 -0.880545 -2.99421 0
M  V30 3767 N 356.222 1.38976 -0.743202 0
M  V30 3768 C 357.638 1.53984 -0.419664 0
M  V30 3769 C 357.838 1.70837 1.0685 0
M  V30 3770 O 356.894 1.7135 1.8546 0
M  V30 3771 C 358.207 2.75287 -1.20985 0
M  V30 3772 C 359.755 2.89129 -1.19889 0
M  V30 3773 C 360.23 4.13381 -1.97181 0
M  V30 3774 N 361.721 4.20437 -1.94389 0
M  V30 3775 C 362.456 5.15547 -2.50996 0
M  V30 3776 N 361.952 6.16395 -3.16274 0
M  V30 3777 N 363.745 5.07822 -2.40984 0
M  V30 3778 H 355.896 1.26285 -1.7078 0
M  V30 3779 H 358.159 0.612689 -0.723406 0
M  V30 3780 H 357.865 2.69204 -2.26323 0
M  V30 3781 H 357.739 3.68184 -0.819759 0
M  V30 3782 H 360.126 2.947 -0.153606 0
M  V30 3783 H 360.207 1.97272 -1.62841 0
M  V30 3784 H 359.851 4.08572 -3.01714 0
M  V30 3785 H 359.781 5.04298 -1.51629 0
M  V30 3786 H 362.272 3.48205 -1.46839 0
M  V30 3787 H 362.585 6.85443 -3.56915 0
M  V30 3788 H 360.93 6.16758 -3.20367 0
M  V30 3789 H 364.121 4.27973 -1.89622 0
M  V30 3790 H 364.294 5.81767 -2.85397 0
M  V30 3791 N 357.7 0.491464 1.49741 0
M  V30 3792 C 358.948 -0.0563141 2.02022 0
M  V30 3793 C 359.269 -1.38363 1.37407 0
M  V30 3794 O 358.539 -1.88702 0.526166 0
M  V30 3795 H 357.119 -0.0238014 0.746621 0
M  V30 3796 H 359.781 0.646533 1.83864 0
M  V30 3797 H 358.877 -0.192967 3.11503 0
M  V30 3798 N 359.178 -1.55987 0.224894 0
M  V30 3799 C 360.426 -1.97998 -0.405099 0
M  V30 3800 C 360.747 -1.11387 -1.60056 0
M  V30 3801 O 360.017 -0.191645 -1.9496 0
M  V30 3802 H 358.597 -0.731235 -0.152658 0
M  V30 3803 H 361.259 -1.92279 0.318567 0
M  V30 3804 H 360.355 -3.03463 -0.729167 0
M  V30 3805 N 360.656 0.0484629 -1.57525 0
M  V30 3806 C 362.067 0.597486 -1.76881 0
M  V30 3807 C 362.418 1.76664 -0.853475 0
M  V30 3808 O 361.543 2.16357 -0.0433656 0
M  V30 3809 C 362.138 1.09066 -3.20765 0
M  V30 3810 C 360.697 1.58535 -3.41385 0
M  V30 3811 C 359.844 0.514868 -2.72478 0
M  V30 3812 H 362.795 -0.177758 -1.57701 0
M  V30 3813 H 362.816 1.95875 -3.2621 0
M  V30 3814 H 362.328 0.239521 -3.8736 0
M  V30 3815 H 360.429 2.45898 -2.79937 0
M  V30 3816 H 360.542 1.64622 -4.49929 0
M  V30 3817 H 358.906 0.965407 -2.35695 0
M  V30 3818 H 359.689 -0.32648 -3.41744 0
M  V30 3819 N 362.134 1.5431 0.320358 0
M  V30 3820 C 363.382 1.72327 1.05583 0
M  V30 3821 C 363.703 0.50149 1.88441 0
M  V30 3822 O 362.973 -0.48448 1.89815 0
M  V30 3823 H 361.553 0.635387 0.3928 0
M  V30 3824 H 364.215 1.91621 0.356019 0
M  V30 3825 H 363.311 2.60426 1.72003 0
M  V30 3826 N 363.613 -0.582584 1.46437 0
M  V30 3827 C 364.576 -1.67366 1.56592 0
M  V30 3828 C 365.576 -1.54575 0.443072 0
M  V30 3829 O 366.766 -1.59191 0.707381 0
M  V30 3830 C 363.898 -3.06791 1.48634 0
M  V30 3831 H 365.091 -1.5972 2.5383 0
M  V30 3832 H 362.644 -0.800432 1.34249 0
M  V30 3833 H 363.379 -3.19993 0.526763 0
M  V30 3834 H 363.164 -3.17484 2.30101 0
M  V30 3835 H 364.654 -3.86218 1.58826 0
M  V30 3836 N 365.091 -1.34144 -0.827227 0
M  V30 3837 C 366.507 -1.13732 -1.11969 0
M  V30 3838 C 366.707 0.0640463 -2.01398 0
M  V30 3839 O 365.763 0.740856 -2.41387 0
M  V30 3840 C 367.076 -2.43047 -1.77055 0
M  V30 3841 C 368.624 -2.49063 -1.89569 0
M  V30 3842 C 369.099 -3.78369 -2.58072 0
M  V30 3843 N 370.59 -3.79505 -2.65575 0
M  V30 3844 C 371.325 -4.76274 -3.19297 0
M  V30 3845 N 370.821 -5.83424 -3.73616 0
M  V30 3846 N 372.614 -4.63735 -3.17658 0
M  V30 3847 H 364.765 -2.11126 -0.232296 0
M  V30 3848 H 367.028 -0.933424 -0.165602 0
M  V30 3849 H 366.734 -3.31025 -1.18807 0
M  V30 3850 H 366.608 -2.56066 -2.76966 0
M  V30 3851 H 368.995 -1.61527 -2.46968 0
M  V30 3852 H 369.076 -2.39975 -0.885745 0
M  V30 3853 H 368.72 -4.66293 -2.01329 0
M  V30 3854 H 368.65 -3.84737 -3.59562 0
M  V30 3855 H 371.141 -3.02074 -2.27068 0
M  V30 3856 H 371.454 -6.53282 -4.12846 0
M  V30 3857 H 369.799 -5.87143 -3.71871 0
M  V30 3858 H 372.99 -3.79177 -2.74486 0
M  V30 3859 H 373.163 -5.39318 -3.59221 0
M  V30 3860 N 366.569 1.04691 -1.17803 0
M  V30 3861 C 367.985 1.29963 -0.926379 0
M  V30 3862 C 368.185 1.97251 0.411635 0
M  V30 3863 O 367.241 2.24922 1.14744 0
M  V30 3864 C 368.554 2.16447 -2.08737 0
M  V30 3865 C 370.102 2.29814 -2.12496 0
M  V30 3866 C 370.577 3.19661 -3.27995 0
M  V30 3867 N 372.068 3.27247 -3.27816 0
M  V30 3868 C 372.803 3.96906 -4.13827 0
M  V30 3869 N 372.299 4.6895 -5.09959 0
M  V30 3870 N 374.092 3.93122 -4.01761 0
M  V30 3871 H 366.243 0.594182 -2.0392 0
M  V30 3872 H 368.506 0.324649 -0.890678 0
M  V30 3873 H 368.212 1.74304 -3.05469 0
M  V30 3874 H 368.086 3.17103 -2.04268 0
M  V30 3875 H 370.473 2.71196 -1.16347 0
M  V30 3876 H 370.554 1.2877 -2.21025 0
M  V30 3877 H 370.198 2.78991 -4.24413 0
M  V30 3878 H 370.128 4.20722 -3.16703 0
M  V30 3879 H 372.619 2.75921 -2.58217 0
M  V30 3880 H 372.932 5.19679 -5.71974 0
M  V30 3881 H 371.277 4.67875 -5.13924 0
M  V30 3882 H 374.468 3.35967 -3.2595 0
M  V30 3883 H 374.641 4.47139 -4.6901 0
M  V30 3884 N 368.047 0.979072 1.23499 0
M  V30 3885 C 369.463 0.687475 1.44034 0
M  V30 3886 C 369.663 -0.746801 1.8715 0
M  V30 3887 O 368.719 -1.51939 2.0167 0
M  V30 3888 C 370.032 1.68127 2.49307 0
M  V30 3889 C 371.58 1.69516 2.63122 0
M  V30 3890 C 372.055 2.67723 3.71603 0
M  V30 3891 N 373.546 2.66233 3.79044 0
M  V30 3892 C 374.281 3.38891 4.62537 0
M  V30 3893 N 373.777 4.21103 5.50131 0
M  V30 3894 N 375.57 3.27661 4.56721 0
M  V30 3895 H 367.721 1.90559 0.938135 0
M  V30 3896 H 369.984 0.821051 0.473897 0
M  V30 3897 H 369.69 2.70693 2.2454 0
M  V30 3898 H 369.564 1.46306 3.4767 0
M  V30 3899 H 371.951 0.676561 2.8724 0
M  V30 3900 H 372.032 1.95404 1.65079 0
M  V30 3901 H 371.676 3.69724 3.48233 0
M  V30 3902 H 371.606 2.39111 4.69184 0
M  V30 3903 H 374.097 2.06568 3.16446 0
M  V30 3904 H 374.41 4.73403 6.10827 0
M  V30 3905 H 372.755 4.25195 5.49759 0
M  V30 3906 H 375.946 2.62887 3.87309 0
M  V30 3907 H 376.119 3.84547 5.21562 0
M  V30 3908 N 369.525 -1.3858 0.750561 0
M  V30 3909 C 370.773 -1.99789 0.30477 0
M  V30 3910 C 371.094 -1.59874 -1.11649 0
M  V30 3911 O 370.364 -0.85417 -1.76297 0
M  V30 3912 H 368.944 -0.738902 0.109694 0
M  V30 3913 H 371.606 -1.69391 0.963983 0
M  V30 3914 H 370.702 -3.09952 0.365499 0
M  V30 3915 N 371.003 -0.499398 -1.49478 0
M  V30 3916 C 371.913 0.284489 -2.32869 0
M  V30 3917 C 372.929 0.968885 -1.44529 0
M  V30 3918 O 374.105 0.95062 -1.77553 0
M  V30 3919 C 371.17 1.33594 -3.19928 0
M  V30 3920 C 370.231 0.665149 -4.24116 0
M  V30 3921 C 369.464 1.6665 -5.07014 0
M  V30 3922 O 369.687 2.89618 -4.91404 0
M  V30 3923 O 368.621 1.22271 -5.8935 0
M  V30 3924 H 372.447 -0.39802 -3.01081 0
M  V30 3925 H 370.032 -0.260758 -1.47107 0
M  V30 3926 H 371.914 1.94431 -3.73864 0
M  V30 3927 H 370.589 2.0014 -2.54412 0
M  V30 3928 H 369.496 0.0170769 -3.74096 0
M  V30 3929 H 370.829 0.0421555 -4.92182 0
M  V30 3930 N 372.481 1.55866 -0.233164 0
M  V30 3931 C 373.897 1.59133 0.121988 0
M  V30 3932 C 374.097 1.25016 1.58029 0
M  V30 3933 O 373.153 0.990922 2.32243 0
M  V30 3934 C 374.466 2.99932 -0.214792 0
M  V30 3935 C 376.014 3.12601 -0.157971 0
M  V30 3936 C 376.489 4.55597 -0.46859 0
M  V30 3937 N 377.98 4.61305 -0.418585 0
M  V30 3938 C 378.715 5.69903 -0.63227 0
M  V30 3939 N 378.211 6.86819 -0.90835 0
M  V30 3940 N 380.004 5.59264 -0.563913 0
M  V30 3941 H 372.155 1.76315 -1.18434 0
M  V30 3942 H 374.418 0.820093 -0.475553 0
M  V30 3943 H 374.124 3.29588 -1.22739 0
M  V30 3944 H 373.998 3.74327 0.464691 0
M  V30 3945 H 376.385 2.82735 0.845283 0
M  V30 3946 H 376.466 2.40511 -0.871102 0
M  V30 3947 H 376.11 4.86182 -1.46934 0
M  V30 3948 H 376.04 5.25928 0.265865 0
M  V30 3949 H 378.531 3.77297 -0.213368 0
M  V30 3950 H 378.844 7.65507 -1.05919 0
M  V30 3951 H 377.189 6.88536 -0.945673 0
M  V30 3952 H 380.38 4.66802 -0.348372 0
M  V30 3953 H 380.553 6.43831 -0.733847 0
M  V30 3954 N 373.959 -0.0401083 1.57549 0
M  V30 3955 C 375.205 -0.734211 1.89043 0
M  V30 3956 C 375.538 -1.75591 0.829535 0
M  V30 3957 O 374.813 -1.93868 -0.156706 0
M  V30 3958 C 375.096 -1.41374 3.31188 0
M  V30 3959 C 374.949 -0.406299 4.47961 0
M  V30 3960 C 376.268 -2.35061 3.72068 0
M  V30 3961 H 373.387 -0.265447 0.687537 0
M  V30 3962 H 376.029 0.00294087 1.9 0
M  V30 3963 H 374.179 -2.04206 3.30503 0
M  V30 3964 H 375.851 0.219255 4.60779 0
M  V30 3965 H 374.094 0.275485 4.32924 0
M  V30 3966 H 374.765 -0.920022 5.44279 0
M  V30 3967 H 377.241 -1.82282 3.74049 0
M  V30 3968 H 376.117 -2.79593 4.72355 0
M  V30 3969 H 376.378 -3.21258 3.0372 0
M  V30 3970 N 375.437 -1.54477 -0.31217 0
M  V30 3971 C 376.662 -1.77526 -1.07235 0
M  V30 3972 C 377.087 -0.527775 -1.80544 0
M  V30 3973 O 376.445 0.52121 -1.73646 0
M  V30 3974 C 376.493 -2.97535 -2.03728 0
M  V30 3975 O 375.597 -2.69878 -3.11833 0
M  V30 3976 H 374.938 -0.58792 -0.30862 0
M  V30 3977 H 377.468 -2.01532 -0.352993 0
M  V30 3978 H 377.478 -3.25198 -2.46395 0
M  V30 3979 H 376.153 -3.87996 -1.49774 0
M  V30 3980 H 374.73 -2.53199 -2.7376 0
M  V30 3981 N 376.915 0.57481 -1.46744 0
M  V30 3982 C 377.848 1.69827 -1.52427 0
M  V30 3983 C 378.826 1.58151 -0.377744 0
M  V30 3984 O 380.01 1.79257 -0.58303 0
M  V30 3985 C 377.137 3.07943 -1.41027 0
M  V30 3986 C 376.183 3.38116 -2.59961 0
M  V30 3987 S 377.016 3.29313 -4.22272 0
M  V30 3988 C 378.172 4.69953 -4.13394 0
M  V30 3989 H 378.405 1.64748 -2.47478 0
M  V30 3990 H 375.938 0.754203 -1.34726 0
M  V30 3991 H 377.896 3.87619 -1.35137 0
M  V30 3992 H 376.557 3.10504 -0.473909 0
M  V30 3993 H 375.75 4.38762 -2.47999 0
M  V30 3994 H 375.352 2.66024 -2.62882 0
M  V30 3995 H 377.644 5.60517 -3.80562 0
M  V30 3996 H 378.587 4.86972 -5.14066 0
M  V30 3997 H 378.995 4.47174 -3.44522 0
M  V30 3998 N 378.394 1.34581 0.820102 0
M  V30 3999 C 379.357 1.2628 1.91275 0
M  V30 4000 C 380.357 0.177344 1.59819 0
M  V30 4001 O 381.547 0.430156 1.68806 0
M  V30 4002 C 378.679 0.950327 3.27386 0
M  V30 4003 H 379.872 2.23421 2.00057 0
M  V30 4004 H 377.425 1.1891 1.0144 0
M  V30 4005 H 378.16 -0.0177938 3.24295 0
M  V30 4006 H 377.945 1.73549 3.51601 0
M  V30 4007 H 379.435 0.917492 4.07396 0
M  V30 4008 N 379.872 -1.04064 1.18357 0
M  V30 4009 C 380.782 -2.15569 0.925596 0
M  V30 4010 C 381.798 -1.7365 -0.110295 0
M  V30 4011 O 382.974 -2.01273 0.0716218 0
M  V30 4012 C 380.039 -3.43704 0.454836 0
M  V30 4013 C 379.1 -4.00004 1.55869 0
M  V30 4014 C 378.333 -5.22023 1.1103 0
M  V30 4015 O 378.556 -5.70392 -0.0309756 0
M  V30 4016 O 377.49 -5.70856 1.90805 0
M  V30 4017 H 381.316 -2.40187 1.8586 0
M  V30 4018 H 378.901 -1.1402 0.965394 0
M  V30 4019 H 380.783 -4.20923 0.200382 0
M  V30 4020 H 379.458 -3.20559 -0.449876 0
M  V30 4021 H 378.365 -3.24172 1.86716 0
M  V30 4022 H 379.698 -4.2749 2.43953 0
M  V30 4023 N 381.35 -0.985608 -1.22978 0
M  V30 4024 C 382.26 -0.538548 -2.28335 0
M  V30 4025 C 383.276 0.409163 -1.69121 0
M  V30 4026 O 384.452 0.277797 -1.99475 0
M  V30 4027 C 381.517 0.146867 -3.46389 0
M  V30 4028 C 380.578 -0.842896 -4.20944 0
M  V30 4029 C 379.811 -0.190095 -5.33361 0
M  V30 4030 O 380.034 1.01767 -5.61248 0
M  V30 4031 O 378.968 -0.891289 -5.95264 0
M  V30 4032 H 382.794 -1.41487 -2.68729 0
M  V30 4033 H 380.379 -0.753495 -1.29007 0
M  V30 4034 H 382.261 0.531125 -4.1804 0
M  V30 4035 H 380.936 0.997871 -3.07935 0
M  V30 4036 H 379.843 -1.27795 -3.51595 0
M  V30 4037 H 381.176 -1.66287 -4.6326 0
M  V30 4038 N 382.828 1.3818 -0.7579 0
M  V30 4039 C 384.056 2.04301 -0.326937 0
M  V30 4040 C 384.471 1.57163 1.0462 0
M  V30 4041 O 383.828 0.746626 1.66529 0
M  V30 4042 C 383.879 3.59846 -0.345363 0
M  V30 4043 O 383.6 4.05256 -1.66432 0
M  V30 4044 C 385.101 4.4319 0.098927 0
M  V30 4045 H 382.321 0.656443 -0.139012 0
M  V30 4046 H 384.865 1.76786 -1.02796 0
M  V30 4047 H 383.02 3.86182 0.306955 0
M  V30 4048 H 383.434 4.99709 -1.59345 0
M  V30 4049 H 384.908 5.51989 0.0348745 0
M  V30 4050 H 385.385 4.23947 1.14741 0
M  V30 4051 H 385.991 4.22051 -0.52468 0
M  V30 4052 N 384.306 0.507319 1.49211 0
M  V30 4053 C 385.583 -0.0982702 1.95353 0
M  V30 4054 C 385.963 -1.53516 1.449 0
M  V30 4055 O 385.311 -2.18594 0.66551 0
M  V30 4056 C 385.521 -0.00440283 3.49 0
M  V30 4057 C 386.869 -0.175147 4.24239 0
M  V30 4058 O 387.893 -0.0792891 3.56112 0
M  V30 4059 O 386.752 -0.37276 5.45227 0
M  V30 4060 H 383.846 -0.0918236 0.821887 0
M  V30 4061 H 386.392 0.570307 1.5983 0
M  V30 4062 H 385.164 0.997402 3.78375 0
M  V30 4063 H 384.787 -0.712845 3.91158 0
M  V30 4064 N 385.784 -1.5574 0.241426 0
M  V30 4065 C 386.734 -2.17803 -0.674233 0
M  V30 4066 C 387.718 -1.13225 -1.14319 0
M  V30 4067 O 388.91 -1.39153 -1.09387 0
M  V30 4068 C 386.039 -2.87682 -1.87333 0
M  V30 4069 C 385.125 -3.99509 -1.42313 0
M  V30 4070 N 385.516 -5.01115 -0.686798 0
M  V30 4071 C 383.814 -4.11964 -1.70885 0
M  V30 4072 C 384.515 -5.79922 -0.454456 0
M  V30 4073 N 383.491 -5.34001 -1.01705 0
M  V30 4074 H 387.293 -2.93718 -0.103447 0
M  V30 4075 H 384.807 -1.62342 0.0435095 0
M  V30 4076 H 386.804 -3.3057 -2.54026 0
M  V30 4077 H 385.464 -2.13269 -2.4484 0
M  V30 4078 H 386.475 -5.16799 -0.337459 0
M  V30 4079 H 383.152 -3.48718 -2.2957 0
M  V30 4080 H 384.542 -6.71768 0.132992 0
M  V30 4081 N 387.262 0.0317525 -1.57568 0
M  V30 4082 C 388.192 1.03274 -2.0942 0
M  V30 4083 C 389.173 1.3788 -0.996143 0
M  V30 4084 O 390.358 1.46811 -1.27122 0
M  V30 4085 C 387.488 2.33448 -2.57137 0
M  V30 4086 C 386.442 2.13091 -3.71182 0
M  V30 4087 C 385.768 3.49001 -4.05095 0
M  V30 4088 C 387.068 1.51928 -4.99715 0
M  V30 4089 H 388.762 0.60112 -2.93303 0
M  V30 4090 H 386.308 0.287705 -1.41097 0
M  V30 4091 H 388.261 3.03802 -2.92032 0
M  V30 4092 H 386.985 2.78665 -1.70333 0
M  V30 4093 H 385.644 1.45171 -3.36632 0
M  V30 4094 H 385.292 3.91862 -3.15362 0
M  V30 4095 H 384.992 3.36207 -4.81911 0
M  V30 4096 H 386.516 4.20721 -4.42522 0
M  V30 4097 H 387.93 2.12196 -5.32584 0
M  V30 4098 H 386.327 1.49716 -5.81124 0
M  V30 4099 H 387.397 0.484811 -4.8247 0
M  V30 4100 N 388.74 1.54641 0.303973 0
M  V30 4101 C 389.989 1.7299 1.03717 0
M  V30 4102 C 390.302 0.521168 1.88529 0
M  V30 4103 O 391.508 0.586408 2.65092 0
M  V30 4104 C 389.964 3.06051 1.89369 0
M  V30 4105 C 389.572 4.34393 1.09574 0
M  V30 4106 C 391.316 3.3376 2.62306 0
M  V30 4107 C 389.223 5.58506 1.94486 0
M  V30 4108 H 388.153 0.64473 0.390947 0
M  V30 4109 H 390.804 1.81124 0.294328 0
M  V30 4110 H 389.186 2.91874 2.67629 0
M  V30 4111 H 390.36 4.59396 0.359485 0
M  V30 4112 H 388.675 4.13597 0.482324 0
M  V30 4113 H 391.272 4.23687 3.26181 0
M  V30 4114 H 391.615 2.52503 3.3098 0
M  V30 4115 H 392.148 3.48894 1.91097 0
M  V30 4116 H 388.887 6.42422 1.30287 0
M  V30 4117 H 388.407 5.37694 2.65792 0
M  V30 4118 H 390.086 5.95651 2.52605 0
M  V30 4119 N 390.218 -0.567019 1.47046 0
M  V30 4120 C 391.148 -1.68482 1.61667 0
M  V30 4121 C 392.129 -1.6358 0.466418 0
M  V30 4122 O 393.314 -1.81354 0.694574 0
M  V30 4123 C 390.444 -3.07124 1.62148 0
M  V30 4124 C 389.398 -3.26867 2.76301 0
M  V30 4125 C 388.724 -4.66196 2.61849 0
M  V30 4126 C 390.024 -3.13186 4.17986 0
M  V30 4127 H 391.718 -1.56502 2.5524 0
M  V30 4128 H 389.264 -0.751486 1.22836 0
M  V30 4129 H 391.217 -3.8516 1.70968 0
M  V30 4130 H 389.941 -3.2004 0.651287 0
M  V30 4131 H 388.6 -2.51237 2.66975 0
M  V30 4132 H 388.248 -4.75898 1.62879 0
M  V30 4133 H 387.948 -4.80356 3.38425 0
M  V30 4134 H 389.472 -5.46379 2.72584 0
M  V30 4135 H 390.886 -3.81049 4.2834 0
M  V30 4136 H 389.283 -3.3886 4.95272 0
M  V30 4137 H 390.353 -2.10057 4.3704 0
M  V30 4138 N 391.696 -1.35014 -0.812953 0
M  V30 4139 C 392.626 -1.30069 -1.93919 0
M  V30 4140 C 393.607 -0.176275 -1.69184 0
M  V30 4141 O 394.792 -0.370227 -1.90638 0
M  V30 4142 C 391.922 -1.06547 -3.30552 0
M  V30 4143 C 390.876 -2.15561 -3.69753 0
M  V30 4144 C 390.202 -1.77214 -5.04479 0
M  V30 4145 C 391.502 -3.57476 -3.808 0
M  V30 4146 H 393.196 -2.24303 -1.98314 0
M  V30 4147 H 390.742 -1.07977 -0.952736 0
M  V30 4148 H 392.695 -1.01729 -4.08937 0
M  V30 4149 H 391.419 -0.0875719 -3.26483 0
M  V30 4150 H 390.078 -2.19466 -2.9365 0
M  V30 4151 H 389.726 -0.780589 -4.96906 0
M  V30 4152 H 389.426 -2.50184 -5.31678 0
M  V30 4153 H 390.95 -1.7391 -5.8531 0
M  V30 4154 H 392.364 -3.55929 -4.4943 0
M  V30 4155 H 390.761 -4.29152 -4.19462 0
M  V30 4156 H 391.831 -3.94091 -2.82525 0
M  V30 4157 N 393.175 1.03435 -1.18907 0
M  V30 4158 C 394.138 2.09756 -0.923844 0
M  V30 4159 C 395.138 1.60528 0.093416 0
M  V30 4160 O 396.328 1.73631 -0.140727 0
M  V30 4161 C 393.46 3.38692 -0.387354 0
M  V30 4162 H 394.653 2.34719 -1.86674 0
M  V30 4163 H 392.206 1.19959 -1.00197 0
M  V30 4164 H 392.941 3.19396 0.561845 0
M  V30 4165 H 392.726 3.75742 -1.12074 0
M  V30 4166 H 394.216 4.17016 -0.220694 0
M  V30 4167 N 394.653 0.992116 1.22453 0
M  V30 4168 C 395.902 0.662992 1.90492 0
M  V30 4169 C 396.215 -0.808407 1.78113 0
M  V30 4170 O 397.421 -1.24908 2.41061 0
M  V30 4171 C 395.877 1.1353 3.41524 0
M  V30 4172 C 395.485 2.63187 3.62542 0
M  V30 4173 C 397.229 0.880465 4.15269 0
M  V30 4174 C 395.136 3.04024 5.0727 0
M  V30 4175 H 394.066 0.244278 0.713333 0
M  V30 4176 H 396.717 1.20157 1.38688 0
M  V30 4177 H 395.099 0.52485 3.92506 0
M  V30 4178 H 396.273 3.2957 3.22056 0
M  V30 4179 H 394.588 2.86543 3.02129 0
M  V30 4180 H 397.185 1.16128 5.21937 0
M  V30 4181 H 397.528 -0.183408 4.15896 0
M  V30 4182 H 398.061 1.45307 3.70312 0
M  V30 4183 H 394.8 4.09584 5.11782 0
M  V30 4184 H 394.32 2.42343 5.48662 0
M  V30 4185 H 395.999 2.95282 5.75689 0
M  V30 4186 N 396.131 -1.37776 0.765217 0
M  V30 4187 C 397.064 -2.28008 0.0935025 0
M  V30 4188 C 398.042 -1.45985 -0.716047 0
M  V30 4189 O 399.226 -1.75331 -0.692203 0
M  V30 4190 C 396.353 -3.27228 -0.874052 0
M  V30 4191 C 395.399 -4.26239 -0.149307 0
M  V30 4192 S 396.232 -5.22827 1.15809 0
M  V30 4193 C 397.388 -6.256 0.193906 0
M  V30 4194 H 397.621 -2.84631 0.858637 0
M  V30 4195 H 395.154 -1.43952 0.558313 0
M  V30 4196 H 397.112 -3.84902 -1.42691 0
M  V30 4197 H 395.773 -2.69565 -1.61225 0
M  V30 4198 H 394.966 -4.96213 -0.88254 0
M  V30 4199 H 394.568 -3.7252 0.332366 0
M  V30 4200 H 396.86 -6.74508 -0.636011 0
M  V30 4201 H 397.803 -7.02838 0.861638 0
M  V30 4202 H 398.211 -5.64173 -0.191975 0
M  V30 4203 N 397.609 -0.515225 -1.4894 0
M  V30 4204 C 398.837 0.0206034 -2.0689 0
M  V30 4205 C 399.252 1.29514 -1.37374 0
M  V30 4206 O 398.609 1.76698 -0.456529 0
M  V30 4207 C 398.66 0.26351 -3.60538 0
M  V30 4208 O 398.381 -0.960517 -4.27441 0
M  V30 4209 C 399.882 0.841383 -4.35242 0
M  V30 4210 H 397.102 -0.0268608 -0.670462 0
M  V30 4211 H 399.646 -0.716651 -1.91532 0
M  V30 4212 H 397.801 0.950777 -3.75552 0
M  V30 4213 H 398.215 -0.73212 -5.19365 0
M  V30 4214 H 399.689 0.96085 -5.43573 0
M  V30 4215 H 400.166 1.8427 -3.98674 0
M  V30 4216 H 400.772 0.191143 -4.2487 0
M  V30 4217 N 399.087 1.5561 -0.249682 0
M  V30 4218 C 400.336 1.98187 0.37479 0
M  V30 4219 C 400.649 1.14111 1.58865 0
M  V30 4220 O 401.855 1.46714 2.28445 0
M  V30 4221 C 400.311 3.52661 0.718192 0
M  V30 4222 C 399.919 4.45481 -0.474428 0
M  V30 4223 C 401.663 4.03888 1.3067 0
M  V30 4224 C 399.57 5.91303 -0.107026 0
M  V30 4225 H 398.5 0.740159 0.143808 0
M  V30 4226 H 401.151 1.80125 -0.350336 0
M  V30 4227 H 399.533 3.66429 1.50152 0
M  V30 4228 H 400.707 4.43473 -1.25172 0
M  V30 4229 H 399.022 4.04751 -0.978052 0
M  V30 4230 H 401.619 5.10358 1.59496 0
M  V30 4231 H 401.962 3.51401 2.23211 0
M  V30 4232 H 402.495 3.93457 0.586211 0
M  V30 4233 H 399.234 6.47833 -0.999642 0
M  V30 4234 H 398.754 5.9644 0.634013 0
M  V30 4235 H 400.433 6.46258 0.309807 0
M  V30 4236 N 400.565 -0.0233959 1.57583 0
M  V30 4237 C 401.793 -0.724682 1.93794 0
M  V30 4238 C 402.208 -1.68588 0.849912 0
M  V30 4239 O 401.565 -1.81676 -0.173204 0
M  V30 4240 C 401.616 -1.47684 3.29957 0
M  V30 4241 O 401.337 -0.554222 4.3458 0
M  V30 4242 C 402.838 -2.27477 3.80485 0
M  V30 4243 H 400.058 -0.203317 0.639455 0
M  V30 4244 H 402.602 0.0207653 2.04489 0
M  V30 4245 H 400.757 -2.17412 3.20641 0
M  V30 4246 H 401.171 -1.08232 5.13212 0
M  V30 4247 H 402.645 -2.7564 4.78254 0
M  V30 4248 H 403.122 -3.09144 3.11972 0
M  V30 4249 H 403.728 -1.62813 3.92902 0
M  V30 4250 N 402.043 -1.548 -0.295768 0
M  V30 4251 C 403.29 -1.74329 -1.03032 0
M  V30 4252 C 403.618 -0.531915 -1.87085 0
M  V30 4253 O 402.873 0.486052 -1.89568 0
M  V30 4254 C 403.172 -2.98797 -1.961 0
M  V30 4255 C 402.838 -4.32356 -1.2798 0
M  V30 4256 C 401.5 -4.68661 -1.09135 0
M  V30 4257 C 403.852 -5.15128 -0.793243 0
M  V30 4258 C 401.18 -5.85312 -0.403269 0
M  V30 4259 C 403.532 -6.32488 -0.118854 0
M  V30 4260 C 402.196 -6.6745 0.0815043 0
M  V30 4261 H 401.466 -0.637916 -0.37702 0
M  V30 4262 H 404.113 -1.8906 -0.304696 0
M  V30 4263 H 402.418 -2.78869 -2.75207 0
M  V30 4264 H 404.115 -3.11102 -2.53015 0
M  V30 4265 H 400.705 -4.03808 -1.43655 0
M  V30 4266 H 404.889 -4.87575 -0.92653 0
M  V30 4267 H 400.145 -6.1094 -0.237098 0
M  V30 4268 H 404.319 -6.95892 0.266035 0
M  V30 4269 H 401.946 -7.57695 0.616685 0
M  V30 4270 N 403.521 0.559213 -1.47345 0
M  V30 4271 C 404.484 1.64854 -1.59235 0
M  V30 4272 C 405.484 1.53851 -0.467607 0
M  V30 4273 O 406.674 1.58045 -0.732617 0
M  V30 4274 C 403.806 3.04388 -1.53496 0
M  V30 4275 H 404.999 1.55662 -2.56339 0
M  V30 4276 H 402.552 0.778973 -1.35505 0
M  V30 4277 H 403.287 3.19115 -0.577604 0
M  V30 4278 H 403.072 3.13783 -2.35123 0
M  V30 4279 H 404.562 3.83642 -1.6495 0
M  V30 4280 N 404.999 1.35443 0.805782 0
M  V30 4281 C 406.245 1.28952 1.56522 0
M  V30 4282 C 406.578 -0.135597 1.93726 0
M  V30 4283 O 405.853 -1.08516 1.61414 0
M  V30 4284 C 406.136 2.19678 2.85331 0
M  V30 4285 C 405.989 3.7081 2.54598 0
M  V30 4286 C 407.308 2.09495 3.8704 0
M  V30 4287 H 404.427 0.469764 0.567883 0
M  V30 4288 H 407.069 1.65851 0.927001 0
M  V30 4289 H 405.219 1.8834 3.39795 0
M  V30 4290 H 406.891 4.12593 2.06312 0
M  V30 4291 H 405.134 3.91051 1.8778 0
M  V30 4292 H 405.805 4.29679 3.46525 0
M  V30 4293 H 408.281 2.37045 3.41978 0
M  V30 4294 H 407.157 2.75173 4.74943 0
M  V30 4295 H 407.418 1.07714 4.28777 0
M  V30 4296 N 406.477 -1.02803 1.19454 0
M  V30 4297 C 407.717 -1.77769 1.00883 0
M  V30 4298 C 408.081 -1.86596 -0.45233 0
M  V30 4299 O 409.282 -2.57895 -0.757877 0
M  V30 4300 C 407.553 -3.16486 1.66046 0
M  V30 4301 S 409.112 -4.07632 1.62424 0
M  V30 4302 H 405.93 -0.611949 0.361993 0
M  V30 4303 H 408.532 -1.23175 1.51816 0
M  V30 4304 H 407.236 -3.0768 2.7159 0
M  V30 4305 H 406.767 -3.76156 1.15196 0
M  V30 4306 H 408.782 -4.91937 0.64903 0
M  V30 4307 N 407.956 -0.998596 -1.21925 0
M  V30 4308 C 409.181 -0.696015 -1.95372 0
M  V30 4309 C 409.606 0.733826 -1.73195 0
M  V30 4310 O 408.964 1.50242 -1.01474 0
M  V30 4311 C 409.012 -1.01466 -3.4603 0
M  V30 4312 O 408.116 -0.116415 -4.12236 0
M  V30 4313 H 407.457 -0.259938 -0.611006 0
M  V30 4314 H 409.987 -1.33711 -1.54863 0
M  V30 4315 H 409.997 -0.958855 -3.96573 0
M  V30 4316 H 408.672 -2.05653 -3.61497 0
M  V30 4317 H 407.249 -0.228193 -3.72201 0
M  V30 4318 N 409.434 1.37368 -0.772513 0
M  V30 4319 C 410.364 2.32856 -0.173304 0
M  V30 4320 C 411.345 1.55818 0.682262 0
M  V30 4321 O 412.53 1.84052 0.619566 0
M  V30 4322 C 409.66 3.40048 0.706007 0
M  V30 4323 C 408.614 4.27973 -0.0483144 0
M  V30 4324 C 407.94 5.26184 0.950491 0
M  V30 4325 C 409.24 5.07665 -1.22776 0
M  V30 4326 H 410.934 2.83217 -0.971002 0
M  V30 4327 H 408.48 1.3617 -0.468377 0
M  V30 4328 H 410.433 4.05827 1.13501 0
M  V30 4329 H 409.157 2.88214 1.53623 0
M  V30 4330 H 407.816 3.63726 -0.458107 0
M  V30 4331 H 407.464 4.7063 1.77529 0
M  V30 4332 H 407.164 5.85872 0.450314 0
M  V30 4333 H 408.688 5.94838 1.37842 0
M  V30 4334 H 410.102 5.66578 -0.875366 0
M  V30 4335 H 408.499 5.76681 -1.66007 0
M  V30 4336 H 409.569 4.40294 -2.03149 0
M  V30 4337 N 410.912 0.523116 1.48665 0
M  V30 4338 C 412.323 0.0808997 1.86525 0
M  V30 4339 C 412.674 -1.33975 1.43336 0
M  V30 4340 O 411.799 -2.00221 0.821009 0
M  V30 4341 C 412.394 0.140037 3.3851 0
M  V30 4342 C 410.953 -0.246948 3.75589 0
M  V30 4343 C 410.1 0.502845 2.72703 0
M  V30 4344 H 413.051 0.734736 1.40667 0
M  V30 4345 H 413.072 -0.649945 3.74908 0
M  V30 4346 H 412.584 1.17412 3.69914 0
M  V30 4347 H 410.685 -1.28343 3.49798 0
M  V30 4348 H 410.798 0.0878859 4.79019 0
M  V30 4349 H 409.162 -0.0500581 2.54651 0
M  V30 4350 H 409.945 1.53743 3.0695 0
M  V30 4351 N 412.39 -1.55475 0.257931 0
M  V30 4352 C 413.637 -1.99207 -0.363728 0
M  V30 4353 C 413.965 -1.1462 -1.57139 0
M  V30 4354 O 413.22 -0.199653 -1.94679 0
M  V30 4355 C 413.519 -3.48183 -0.806433 0
M  V30 4356 C 413.185 -4.49936 0.294684 0
M  V30 4357 C 411.847 -4.77481 0.597076 0
M  V30 4358 C 414.199 -5.10769 1.03751 0
M  V30 4359 C 411.527 -5.63132 1.64618 0
M  V30 4360 C 413.879 -5.97558 2.07622 0
M  V30 4361 C 412.543 -6.23432 2.38514 0
M  V30 4362 H 411.813 -0.728949 -0.133097 0
M  V30 4363 H 414.46 -1.8793 0.368059 0
M  V30 4364 H 412.765 -3.56848 -1.61761 0
M  V30 4365 H 414.462 -3.79415 -1.29789 0
M  V30 4366 H 411.052 -4.28572 0.0488649 0
M  V30 4367 H 415.236 -4.89527 0.817149 0
M  V30 4368 H 410.492 -5.8143 1.89074 0
M  V30 4369 H 414.666 -6.43735 2.65666 0
M  V30 4370 H 412.293 -6.89594 3.19943 0
M  V30 4371 N 413.868 0.0150385 -1.57593 0
M  V30 4372 C 415.096 0.714395 -1.94175 0
M  V30 4373 C 415.511 1.68135 -0.858841 0
M  V30 4374 O 414.868 1.81766 0.163567 0
M  V30 4375 C 414.919 1.45933 -3.30735 0
M  V30 4376 O 414.64 0.531167 -4.34868 0
M  V30 4377 C 416.141 2.25456 -3.81686 0
M  V30 4378 H 413.361 0.199923 -0.640525 0
M  V30 4379 H 415.905 -0.0316096 -2.04476 0
M  V30 4380 H 414.06 2.15709 -3.21789 0
M  V30 4381 H 414.474 1.05509 -5.13778 0
M  V30 4382 H 415.948 2.731 -4.79709 0
M  V30 4383 H 416.425 3.07485 -3.13607 0
M  V30 4384 H 417.031 1.60727 -3.9376 0
M  V30 4385 N 415.346 1.54954 0.287554 0
M  V30 4386 C 416.595 1.74081 1.01877 0
M  V30 4387 C 416.908 0.541135 1.87966 0
M  V30 4388 O 418.114 0.614491 2.64455 0
M  V30 4389 C 416.57 3.08042 1.86113 0
M  V30 4390 C 416.178 4.35531 1.04961 0
M  V30 4391 C 417.922 3.36523 2.58752 0
M  V30 4392 C 415.829 5.60538 1.88551 0
M  V30 4393 H 414.759 0.64884 0.384087 0
M  V30 4394 H 417.41 1.81426 0.275101 0
M  V30 4395 H 415.792 2.94696 2.64519 0
M  V30 4396 H 416.966 4.59751 0.31074 0
M  V30 4397 H 415.281 4.14085 0.43843 0
M  V30 4398 H 417.878 4.27122 3.21668 0
M  V30 4399 H 418.221 2.56 3.28283 0
M  V30 4400 H 418.754 3.50901 1.87386 0
M  V30 4401 H 415.493 6.43767 1.23466 0
M  V30 4402 H 415.013 5.40483 2.60074 0
M  V30 4403 H 416.692 5.98297 2.46273 0
M  V30 4404 N 416.824 -0.551391 1.4764 0
M  V30 4405 C 418.071 -1.3083 1.54563 0
M  V30 4406 C 418.399 -1.93359 0.210361 0
M  V30 4407 O 417.654 -1.78721 -0.797332 0
M  V30 4408 C 417.953 -2.43469 2.61644 0
M  V30 4409 C 417.619 -1.98732 4.04742 0
M  V30 4410 C 416.281 -1.86248 4.43695 0
M  V30 4411 C 418.633 -1.64659 4.94507 0
M  V30 4412 C 415.961 -1.37995 5.70241 0
M  V30 4413 C 418.313 -1.17875 6.21521 0
M  V30 4414 C 416.977 -1.03992 6.5935 0
M  V30 4415 H 416.247 -0.478741 0.565587 0
M  V30 4416 H 418.894 -0.617697 1.81264 0
M  V30 4417 H 417.199 -3.18109 2.28722 0
M  V30 4418 H 418.896 -3.01642 2.64222 0
M  V30 4419 H 415.486 -2.09393 3.73968 0
M  V30 4420 H 419.67 -1.73174 4.65107 0
M  V30 4421 H 414.926 -1.25915 5.98294 0
M  V30 4422 H 419.1 -0.905739 6.90485 0
M  V30 4423 H 416.727 -0.663794 7.57296 0
M  V30 4424 N 418.302 -1.35869 -0.798587 0
M  V30 4425 C 419.265 -1.29307 -1.89242 0
M  V30 4426 C 420.265 -0.202747 -1.59517 0
M  V30 4427 O 421.455 -0.456957 -1.681 0
M  V30 4428 C 418.587 -1.00229 -3.25833 0
M  V30 4429 H 419.78 -2.26576 -1.96478 0
M  V30 4430 H 417.333 -1.20509 -0.995358 0
M  V30 4431 H 418.068 -0.033801 -3.24282 0
M  V30 4432 H 417.853 -1.79121 -3.48795 0
M  V30 4433 H 419.343 -0.98219 -4.05885 0
M  V30 4434 N 419.78 1.02168 -1.19998 0
M  V30 4435 C 421.01 1.79036 -1.031 0
M  V30 4436 C 421.418 1.84409 0.423078 0
M  V30 4437 O 420.761 1.29228 1.30559 0
M  V30 4438 C 420.823 3.25185 -1.53281 0
M  V30 4439 C 420.487 3.43431 -3.01503 0
M  V30 4440 C 421.484 3.33063 -3.99206 0
M  V30 4441 C 419.169 3.69412 -3.40353 0
M  V30 4442 C 421.163 3.48413 -5.33748 0
M  V30 4443 C 418.85 3.84406 -4.75053 0
M  V30 4444 C 419.848 3.7391 -5.71559 0
M  V30 4445 O 419.536 3.88452 -7.03818 0
M  V30 4446 H 419.268 0.570043 -0.363355 0
M  V30 4447 H 421.822 1.29524 -1.59414 0
M  V30 4448 H 420.052 3.75756 -0.913483 0
M  V30 4449 H 421.741 3.83671 -1.32481 0
M  V30 4450 H 422.507 3.12934 -3.70537 0
M  V30 4451 H 418.386 3.76671 -2.65782 0
M  V30 4452 H 421.93 3.40137 -6.09059 0
M  V30 4453 H 417.827 4.04035 -5.03415 0
M  V30 4454 H 418.595 4.055 -7.10993 0
M  V30 4455 N 421.258 1.00505 1.21394 0
M  V30 4456 C 422.191 0.51032 2.22421 0
M  V30 4457 C 423.169 -0.436 1.56645 0
M  V30 4458 O 424.353 -0.358709 1.85055 0
M  V30 4459 C 421.48 -0.258733 3.3771 0
M  V30 4460 C 420.526 0.635395 4.2174 0
M  V30 4461 S 421.359 2.09783 4.92698 0
M  V30 4462 C 422.515 1.33862 6.11418 0
M  V30 4463 H 422.748 1.36637 2.64041 0
M  V30 4464 H 420.281 0.812991 1.31262 0
M  V30 4465 H 422.239 -0.696372 4.0455 0
M  V30 4466 H 420.9 -1.0902 2.94573 0
M  V30 4467 H 420.093 0.0430189 5.03982 0
M  V30 4468 H 419.695 1.01031 3.60095 0
M  V30 4469 H 421.987 0.612541 6.74725 0
M  V30 4470 H 422.93 2.13675 6.75092 0
M  V30 4471 H 423.338 0.846568 5.58116 0
M  V30 4472 N 422.737 -1.36956 0.779787 0
M  V30 4473 C 423.685 -2.32053 0.15942 0
M  V30 4474 C 424.679 -1.55333 -0.675878 0
M  V30 4475 O 425.885 -1.70668 -0.57204 0
M  V30 4476 H 422.26 -0.751286 0.0327707 0
M  V30 4477 H 424.231 -2.8195 0.977078 0
M  V30 4478 C 422.98 -3.40602 -0.698977 0
M  V30 4479 H 422.303 -3.99746 -0.0655966 0
M  V30 4480 H 423.743 -4.09486 -1.09989 0
M  V30 4481 C 422.202 -2.81359 -1.85307 0
M  V30 4482 O 422.732 -2.72751 -2.94906 0
M  V30 4483 N 420.938 -2.38786 -1.65619 0
M  V30 4484 H 420.485 -2.45987 -0.764725 0
M  V30 4485 H 420.443 -1.99493 -2.43002 0
M  V30 4486 N 424.215 -0.530993 -1.48385 0
M  V30 4487 C 425.125 0.23503 -2.3342 0
M  V30 4488 C 426.141 0.93801 -1.46552 0
M  V30 4489 O 427.317 0.912745 -1.7953 0
M  V30 4490 C 424.382 1.26778 -3.22689 0
M  V30 4491 C 423.443 0.575038 -4.25431 0
M  V30 4492 C 422.676 1.55858 -5.10435 0
M  V30 4493 O 422.899 2.79129 -4.97437 0
M  V30 4494 O 421.833 1.09742 -5.91811 0
M  V30 4495 H 425.659 -0.461794 -3.00169 0
M  V30 4496 H 423.244 -0.291903 -1.46521 0
M  V30 4497 H 425.126 1.86457 -3.77904 0
M  V30 4498 H 423.801 1.94699 -2.586 0
M  V30 4499 H 422.708 -0.0622782 -3.74048 0
M  V30 4500 H 424.041 -0.062253 -4.92161 0
M  V30 4501 N 425.693 1.55336 -0.266172 0
M  V30 4502 C 426.921 2.03801 0.356756 0
M  V30 4503 C 427.336 1.14485 1.50129 0
M  V30 4504 O 426.693 0.163121 1.8177 0
M  V30 4505 C 426.744 3.51455 0.846281 0
M  V30 4506 O 426.465 4.37371 -0.252663 0
M  V30 4507 C 427.966 4.15767 1.53794 0
M  V30 4508 H 425.186 0.665906 0.0825218 0
M  V30 4509 H 427.73 2.00636 -0.39566 0
M  V30 4510 H 425.885 3.55092 1.54881 0
M  V30 4511 H 426.299 5.24358 0.122173 0
M  V30 4512 H 427.773 5.20714 1.83198 0
M  V30 4513 H 428.25 3.63404 2.46646 0
M  V30 4514 H 428.856 4.16107 0.879488 0
M  V30 4515 N 427.171 -0.0066808 1.57599 0
M  V30 4516 C 428.396 -0.707738 1.94951 0
M  V30 4517 C 428.821 -1.66882 0.867868 0
M  V30 4518 O 428.179 -1.80457 -0.17458 0
M  V30 4519 C 428.227 -1.42162 3.31394 0
M  V30 4520 O 427.331 -2.53578 3.25226 0
M  V30 4521 H 426.672 -0.188752 0.636607 0
M  V30 4522 H 429.202 0.0445193 2.04552 0
M  V30 4523 H 429.212 -1.78655 3.66806 0
M  V30 4524 H 427.887 -0.716903 4.09675 0
M  V30 4525 H 426.464 -2.19463 3.01481 0
M  V30 4526 N 428.649 -1.55105 -0.279332 0
M  V30 4527 C 429.874 -1.7976 -1.03446 0
M  V30 4528 C 430.299 -0.565952 -1.79384 0
M  V30 4529 O 429.657 0.484259 -1.74713 0
M  V30 4530 C 429.705 -3.0179 -1.97371 0
M  V30 4531 O 428.809 -2.76432 -3.06038 0
M  V30 4532 H 428.15 -0.594334 -0.29608 0
M  V30 4533 H 430.68 -2.02235 -0.310165 0
M  V30 4534 H 430.69 -3.30351 -2.39441 0
M  V30 4535 H 429.365 -3.91085 -1.4151 0
M  V30 4536 H 427.942 -2.58949 -2.68328 0
M  V30 4537 N 430.127 0.543554 -1.4793 0
M  V30 4538 C 431.543 0.870806 -1.3375 0
M  V30 4539 C 431.743 1.9864 -0.338261 0
M  V30 4540 O 430.799 2.51305 0.245371 0
M  V30 4541 C 432.112 1.25114 -2.73435 0
M  V30 4542 C 433.66 1.3618 -2.81823 0
M  V30 4543 C 434.135 1.77563 -4.22179 0
M  V30 4544 N 435.626 1.8469 -4.24787 0
M  V30 4545 C 436.361 2.18067 -5.30315 0
M  V30 4546 N 435.857 2.49963 -6.46135 0
M  V30 4547 N 437.65 2.18958 -5.17701 0
M  V30 4548 H 429.801 -0.19275 -2.11524 0
M  V30 4549 H 432.064 -0.0235777 -0.947707 0
M  V30 4550 H 431.77 0.50514 -3.48053 0
M  V30 4551 H 431.644 2.20431 -3.06088 0
M  V30 4552 H 434.031 2.09859 -2.07468 0
M  V30 4553 H 434.112 0.390169 -2.52807 0
M  V30 4554 H 433.756 1.04449 -4.97044 0
M  V30 4555 H 433.686 2.75753 -4.48629 0
M  V30 4556 H 436.177 1.62372 -3.41239 0
M  V30 4557 H 436.49 2.74497 -7.22406 0
M  V30 4558 H 434.835 2.47513 -6.49432 0
M  V30 4559 H 438.026 1.93488 -4.2624 0
M  V30 4560 H 438.199 2.44639 -6.00047 0
M  V30 4561 N 431.605 1.3629 0.791371 0
M  V30 4562 C 432.552 1.30458 1.90393 0
M  V30 4563 C 433.522 0.173632 1.6519 0
M  V30 4564 O 434.707 0.35983 1.87376 0
M  V30 4565 C 431.847 1.09777 3.27174 0
M  V30 4566 C 430.96 2.31929 3.64462 0
M  V30 4567 C 430.095 2.04276 4.90352 0
M  V30 4568 C 429.134 3.224 5.20312 0
M  V30 4569 N 428.271 2.94424 6.37385 0
M  V30 4570 H 433.111 2.25589 1.94714 0
M  V30 4571 H 430.648 1.12122 0.952216 0
M  V30 4572 H 432.606 0.958133 4.06049 0
M  V30 4573 H 431.236 0.183014 3.22281 0
M  V30 4574 H 430.288 2.56703 2.80727 0
M  V30 4575 H 431.6 3.20085 3.82553 0
M  V30 4576 H 430.754 1.87231 5.77087 0
M  V30 4577 H 429.493 1.13428 4.74326 0
M  V30 4578 H 428.498 3.40005 4.32061 0
M  V30 4579 H 429.723 4.14071 5.38258 0
M  V30 4580 H 427.669 2.06185 6.22755 0
M  V30 4581 H 427.586 3.76118 6.55798 0
M  V30 4582 H 428.854 2.80953 7.27108 0
M  V30 4583 N 433.083 -1.0153 1.20538 0
M  V30 4584 C 433.993 -2.13557 0.971113 0
M  V30 4585 C 435.009 -1.73845 -0.0734366 0
M  V30 4586 O 436.185 -2.01075 0.114299 0
M  V30 4587 C 433.25 -3.42661 0.527639 0
M  V30 4588 C 432.311 -3.96608 1.64319 0
M  V30 4589 C 431.544 -5.1955 1.22078 0
M  V30 4590 O 431.767 -5.70329 0.0900198 0
M  V30 4591 O 430.701 -5.66681 2.02871 0
M  V30 4592 H 434.527 -2.3619 1.90913 0
M  V30 4593 H 432.112 -1.11946 0.989362 0
M  V30 4594 H 433.994 -4.20404 0.289621 0
M  V30 4595 H 432.669 -3.21441 -0.381779 0
M  V30 4596 H 431.576 -3.20139 1.93551 0
M  V30 4597 H 432.909 -4.22219 2.52966 0
M  V30 4598 N 434.561 -1.01147 -1.20859 0
M  V30 4599 C 435.508 -0.577354 -2.23462 0
M  V30 4600 C 436.478 0.399922 -1.61214 0
M  V30 4601 O 437.663 0.300515 -1.88419 0
M  V30 4602 C 434.803 0.083372 -3.44999 0
M  V30 4603 C 433.916 -0.937856 -4.21697 0
M  V30 4604 C 433.051 -0.248717 -5.30617 0
M  V30 4605 C 432.09 -1.25705 -5.99053 0
M  V30 4606 N 431.227 -0.594939 -6.99575 0
M  V30 4607 H 436.067 -1.45695 -2.59956 0
M  V30 4608 H 433.604 -0.729428 -1.27741 0
M  V30 4609 H 435.562 0.483535 -4.14388 0
M  V30 4610 H 434.192 0.926645 -3.09214 0
M  V30 4611 H 433.244 -1.45622 -3.51423 0
M  V30 4612 H 434.556 -1.70493 -4.68757 0
M  V30 4613 H 433.71 0.207215 -6.06346 0
M  V30 4614 H 432.449 0.55071 -4.84581 0
M  V30 4615 H 431.454 -1.72343 -5.2209 0
M  V30 4616 H 432.679 -2.05767 -6.47176 0
M  V30 4617 H 430.625 0.184713 -6.5574 0
M  V30 4618 H 430.542 -1.30017 -7.44736 0
M  V30 4619 H 431.81 -0.162427 -7.79331 0
M  V30 4620 N 436.039 1.36541 -0.78704 0
M  V30 4621 C 437.285 2.00044 -0.367938 0
M  V30 4622 C 437.64 1.61345 1.04812 0
M  V30 4623 O 436.933 0.856936 1.71368 0
M  V30 4624 C 437.127 3.54343 -0.466485 0
M  V30 4625 C 436.956 4.08029 -1.89058 0
M  V30 4626 C 435.726 4.38284 -2.51466 0
M  V30 4627 C 437.924 4.27954 -2.85236 0
M  V30 4628 N 435.906 4.77778 -3.85488 0
M  V30 4629 C 437.277 4.70227 -4.04088 0
M  V30 4630 C 439.332 4.10119 -2.82324 0
M  V30 4631 C 438.035 4.96532 -5.20432 0
M  V30 4632 C 440.061 4.37569 -3.97854 0
M  V30 4633 C 439.423 4.80095 -5.15449 0
M  V30 4634 H 435.522 0.760525 -0.182004 0
M  V30 4635 H 438.106 1.65589 -1.02413 0
M  V30 4636 H 436.277 3.88072 0.159606 0
M  V30 4637 H 438.009 4.04693 -0.0238577 0
M  V30 4638 H 434.764 4.27905 -2.02965 0
M  V30 4639 H 435.188 5.01813 -4.54437 0
M  V30 4640 H 439.83 3.76399 -1.92571 0
M  V30 4641 H 437.548 5.29134 -6.10773 0
M  V30 4642 H 441.134 4.25341 -3.96958 0
M  V30 4643 H 440.014 5.00925 -6.0336 0
M  V30 4644 N 437.518 0.538854 1.48102 0
M  V30 4645 C 438.795 -0.0568108 1.95517 0
M  V30 4646 C 439.175 -1.50408 1.48124 0
M  V30 4647 O 438.523 -2.17133 0.711727 0
M  V30 4648 C 438.733 0.0696262 3.48931 0
M  V30 4649 C 440.081 -0.0851202 4.24515 0
M  V30 4650 O 441.105 -0.0037347 3.562 0
M  V30 4651 O 439.964 -0.257025 5.45895 0
M  V30 4652 H 437.058 -0.0743695 0.823649 0
M  V30 4653 H 439.604 0.604081 1.58584 0
M  V30 4654 H 438.376 1.07744 3.76174 0
M  V30 4655 H 437.999 -0.629714 3.92582 0
M  V30 4656 N 438.996 -1.55193 0.274407 0
M  V30 4657 C 439.926 -2.25471 -0.607032 0
M  V30 4658 C 440.907 -1.24461 -1.15946 0
M  V30 4659 O 442.092 -1.53179 -1.19373 0
M  V30 4660 C 439.222 -2.97526 -1.79153 0
M  V30 4661 C 438.176 -4.05459 -1.37067 0
M  V30 4662 C 437.502 -4.65084 -2.6382 0
M  V30 4663 C 438.802 -5.19691 -0.521389 0
M  V30 4664 H 440.496 -2.99393 -0.0209343 0
M  V30 4665 H 438.042 -1.43997 -0.00862866 0
M  V30 4666 H 439.995 -3.45402 -2.41404 0
M  V30 4667 H 438.719 -2.21138 -2.40344 0
M  V30 4668 H 437.378 -3.58393 -0.771355 0
M  V30 4669 H 437.026 -3.85365 -3.23268 0
M  V30 4670 H 436.726 -5.37961 -2.36372 0
M  V30 4671 H 438.25 -5.15708 -3.26921 0
M  V30 4672 H 439.664 -5.63623 -1.04889 0
M  V30 4673 H 438.061 -5.99126 -0.341825 0
M  V30 4674 H 439.131 -4.82713 0.46 0
M  V30 4675 N 440.474 -0.00167713 -1.576 0
M  V30 4676 C 441.406 1.0174 -2.05382 0
M  V30 4677 C 442.419 1.30595 -0.972052 0
M  V30 4678 O 443.608 1.27542 -1.24882 0
M  V30 4679 C 440.708 2.35174 -2.44022 0
M  V30 4680 C 439.881 2.25234 -3.74951 0
M  V30 4681 C 438.94 3.4137 -4.00441 0
M  V30 4682 O 437.966 3.19483 -4.71083 0
M  V30 4683 N 439.168 4.64275 -3.48467 0
M  V30 4684 H 441.933 0.609902 -2.93428 0
M  V30 4685 H 439.494 0.185672 -1.60832 0
M  V30 4686 H 441.486 3.11643 -2.58187 0
M  V30 4687 H 440.056 2.67659 -1.61485 0
M  V30 4688 H 439.276 1.33664 -3.70847 0
M  V30 4689 H 440.564 2.15767 -4.60784 0
M  V30 4690 H 439.962 4.84955 -2.91264 0
M  V30 4691 H 438.519 5.38005 -3.67959 0
M  V30 4692 N 441.952 1.55251 0.271103 0
M  V30 4693 C 442.915 1.87484 1.31842 0
M  V30 4694 C 443.915 0.749545 1.42262 0
M  V30 4695 O 445.105 1.01771 1.4138 0
M  V30 4696 C 442.237 2.0818 2.69951 0
M  V30 4697 H 443.43 2.81108 1.0449 0
M  V30 4698 H 440.983 1.47771 0.509258 0
M  V30 4699 H 441.718 1.16944 3.02481 0
M  V30 4700 H 441.503 2.90114 2.63774 0
M  V30 4701 H 442.993 2.34385 3.4562 0
M  V30 4702 N 443.43 -0.535701 1.48216 0
M  V30 4703 C 444.36 -1.65014 1.65204 0
M  V30 4704 C 445.341 -1.62554 0.501011 0
M  V30 4705 O 446.526 -1.7984 0.732886 0
M  V30 4706 C 443.656 -3.03616 1.68626 0
M  V30 4707 C 442.61 -3.20932 2.83172 0
M  V30 4708 C 441.936 -4.60537 2.71679 0
M  V30 4709 C 443.236 -3.04249 4.24535 0
M  V30 4710 H 444.93 -1.51053 2.58502 0
M  V30 4711 H 442.476 -0.725262 1.24402 0
M  V30 4712 H 444.429 -3.81446 1.79099 0
M  V30 4713 H 443.153 -3.18587 0.719026 0
M  V30 4714 H 441.812 -2.45517 2.72244 0
M  V30 4715 H 441.46 -4.72336 1.72937 0
M  V30 4716 H 441.16 -4.73069 3.48538 0
M  V30 4717 H 442.684 -5.40475 2.84112 0
M  V30 4718 H 444.098 -3.71877 4.36326 0
M  V30 4719 H 442.495 -3.28278 5.02348 0
M  V30 4720 H 443.565 -2.00739 4.41397 0
M  V30 4721 N 444.908 -1.36708 -0.784132 0
M  V30 4722 C 446.324 -1.17237 -1.08294 0
M  V30 4723 C 446.524 -5.93947e-05 -2.015 0
M  V30 4724 O 445.58 0.663686 -2.43622 0
M  V30 4725 C 446.893 -2.48557 -1.69233 0
M  V30 4726 C 448.441 -2.54968 -1.8155 0
M  V30 4727 C 448.916 -3.86388 -2.45904 0
M  V30 4728 N 450.407 -3.87762 -2.53367 0
M  V30 4729 C 451.142 -4.86191 -3.03983 0
M  V30 4730 N 450.638 -5.95015 -3.54866 0
M  V30 4731 N 452.431 -4.73606 -3.02743 0
M  V30 4732 H 444.582 -2.11758 -0.16501 0
M  V30 4733 H 446.845 -0.93822 -0.135822 0
M  V30 4734 H 446.551 -3.34638 -1.08215 0
M  V30 4735 H 446.425 -2.64748 -2.68679 0
M  V30 4736 H 448.812 -1.69302 -2.41704 0
M  V30 4737 H 448.893 -2.42672 -0.80895 0
M  V30 4738 H 448.537 -4.72462 -1.86392 0
M  V30 4739 H 448.467 -3.95982 -3.4714 0
M  V30 4740 H 450.958 -3.09145 -2.17343 0
M  V30 4741 H 451.271 -6.66086 -3.91854 0
M  V30 4742 H 449.616 -5.98676 -3.53003 0
M  V30 4743 H 452.807 -3.87717 -2.62284 0
M  V30 4744 H 452.98 -5.50473 -3.41881 0
M  V30 4745 N 446.386 1.0089 -1.21074 0
M  V30 4746 C 447.633 1.74607 -1.0256 0
M  V30 4747 C 447.961 1.89426 0.44136 0
M  V30 4748 O 447.216 1.42266 1.34384 0
M  V30 4749 C 447.515 3.16335 -1.66334 0
M  V30 4750 C 447.181 3.21474 -3.16173 0
M  V30 4751 C 445.843 3.22583 -3.57062 0
M  V30 4752 C 448.195 3.19025 -4.12156 0
M  V30 4753 C 445.523 3.18925 -4.92446 0
M  V30 4754 C 447.875 3.16909 -5.47496 0
M  V30 4755 C 446.539 3.16326 -5.87787 0
M  V30 4756 H 445.809 0.638933 -0.375294 0
M  V30 4757 H 448.456 1.18274 -1.50611 0
M  V30 4758 H 446.761 3.75876 -1.10566 0
M  V30 4759 H 448.458 3.72083 -1.49516 0
M  V30 4760 H 445.048 3.2135 -2.83605 0
M  V30 4761 H 449.232 3.17332 -3.81595 0
M  V30 4762 H 444.488 3.16809 -5.22917 0
M  V30 4763 H 448.662 3.13968 -6.21609 0
M  V30 4764 H 446.289 3.13246 -6.92662 0
M  V30 4765 N 447.864 1.01787 1.20321 0
M  V30 4766 C 448.794 0.609625 2.25401 0
M  V30 4767 C 449.775 -0.375951 1.65893 0
M  V30 4768 O 450.96 -0.261101 1.92437 0
M  V30 4769 C 448.09 -0.0515995 3.47262 0
M  V30 4770 C 447.044 0.855095 4.19371 0
M  V30 4771 C 446.37 0.0595757 5.34667 0
M  V30 4772 C 447.67 2.16374 4.75373 0
M  V30 4773 H 449.364 1.48803 2.59804 0
M  V30 4774 H 446.91 0.716934 1.24884 0
M  V30 4775 H 448.863 -0.348764 4.19954 0
M  V30 4776 H 447.587 -0.964726 3.12027 0
M  V30 4777 H 446.246 1.13628 3.48546 0
M  V30 4778 H 445.894 -0.85524 4.95676 0
M  V30 4779 H 445.594 0.663406 5.83843 0
M  V30 4780 H 447.118 -0.231105 6.10162 0
M  V30 4781 H 448.532 1.92885 5.39878 0
M  V30 4782 H 446.929 2.71853 5.34991 0
M  V30 4783 H 447.999 2.82589 3.94045 0
M  V30 4784 N 449.342 -1.36122 0.79427 0
M  V30 4785 C 450.567 -2.03891 0.379871 0
M  V30 4786 C 450.992 -1.59488 -0.997251 0
M  V30 4787 O 450.35 -0.765652 -1.64339 0
M  V30 4788 C 450.398 -3.57687 0.457442 0
M  V30 4789 O 449.502 -4.08931 -0.5338 0
M  V30 4790 H 448.843 -0.6443 0.160541 0
M  V30 4791 H 451.373 -1.73976 1.07673 0
M  V30 4792 H 451.383 -4.06721 0.322792 0
M  V30 4793 H 450.058 -3.89357 1.46199 0
M  V30 4794 H 448.635 -3.71154 -0.360409 0
M  V30 4795 N 450.82 -0.546701 -1.47814 0
M  V30 4796 C 452.069 -0.0166497 -2.01693 0
M  V30 4797 C 452.382 1.33721 -1.42752 0
M  V30 4798 O 453.588 1.95658 -1.8823 0
M  V30 4799 C 452.044 0.0206769 -3.59894 0
M  V30 4800 C 451.652 -1.3293 -4.27824 0
M  V30 4801 C 453.396 0.498674 -4.21561 0
M  V30 4802 C 451.303 -1.25165 -5.78003 0
M  V30 4803 H 450.233 -0.0024541 -0.753996 0
M  V30 4804 H 452.884 -0.692984 -1.69912 0
M  V30 4805 H 451.266 0.76244 -3.88591 0
M  V30 4806 H 452.44 -2.08795 -4.10781 0
M  V30 4807 H 450.755 -1.74438 -3.78101 0
M  V30 4808 H 453.352 0.575 -5.31599 0
M  V30 4809 H 453.695 1.5083 -3.88016 0
M  V30 4810 H 454.228 -0.18791 -3.97356 0
M  V30 4811 H 450.967 -2.23695 -6.1615 0
M  V30 4812 H 450.487 -0.53464 -5.97412 0
M  V30 4813 H 452.166 -0.949299 -6.39998 0
M  V30 4814 N 452.299 1.55045 -0.282633 0
M  V30 4815 C 453.247 2.24254 0.617478 0
M  V30 4816 C 454.241 1.24215 1.15183 0
M  V30 4817 O 455.447 1.42123 1.10459 0
M  V30 4818 H 451.822 0.719801 0.217693 0
M  V30 4819 H 453.793 2.98398 0.0110076 0
M  V30 4820 C 452.542 2.98281 1.78672 0
M  V30 4821 H 451.865 3.75053 1.38475 0
M  V30 4822 H 453.305 3.50017 2.393 0
M  V30 4823 C 451.764 2.04184 2.67975 0
M  V30 4824 O 452.294 1.59792 3.6855 0
M  V30 4825 N 450.5 1.70526 2.35307 0
M  V30 4826 H 450.047 2.06821 1.53567 0
M  V30 4827 H 450.005 1.07839 2.95327 0
M  V30 4828 N 453.777 0.010035 1.57597 0
M  V30 4829 C 455.002 -0.687021 1.95691 0
M  V30 4830 C 455.427 -1.65952 0.885519 0
M  V30 4831 O 454.785 -1.80633 -0.15543 0
M  V30 4832 C 454.833 -1.3864 3.32884 0
M  V30 4833 O 453.937 -2.50115 3.27897 0
M  V30 4834 H 453.278 -0.181989 0.638573 0
M  V30 4835 H 455.808 0.0662122 2.04493 0
M  V30 4836 H 455.818 -1.74754 3.6868 0
M  V30 4837 H 454.493 -0.673411 4.10412 0
M  V30 4838 H 453.07 -2.16253 3.03791 0
M  V30 4839 N 455.255 -1.55392 -0.262866 0
M  V30 4840 C 456.504 -1.75679 -0.990943 0
M  V30 4841 C 456.817 -0.57097 -1.87081 0
M  V30 4842 O 458.023 -0.656486 -2.63444 0
M  V30 4843 C 456.479 -3.10964 -1.81188 0
M  V30 4844 C 456.087 -4.37146 -0.980188 0
M  V30 4845 C 457.831 -3.40597 -2.53365 0
M  V30 4846 C 455.738 -5.63466 -1.7961 0
M  V30 4847 H 454.668 -0.654868 -0.373716 0
M  V30 4848 H 457.319 -1.81841 -0.246203 0
M  V30 4849 H 455.701 -2.98867 -2.59797 0
M  V30 4850 H 456.875 -4.60187 -0.237558 0
M  V30 4851 H 455.19 -4.14731 -0.372497 0
M  V30 4852 H 457.787 -4.32186 -3.14833 0
M  V30 4853 H 458.13 -2.6119 -3.24169 0
M  V30 4854 H 458.663 -3.53838 -1.81779 0
M  V30 4855 H 455.402 -6.4565 -1.13209 0
M  V30 4856 H 454.922 -5.44552 -2.51443 0
M  V30 4857 H 456.601 -6.02139 -2.36723 0
M  V30 4858 N 456.733 0.527833 -1.48498 0
M  V30 4859 C 457.982 1.28003 -1.55878 0
M  V30 4860 C 458.295 1.9414 -0.238577 0
M  V30 4861 O 459.501 2.7083 -0.190643 0
M  V30 4862 C 457.957 2.32272 -2.74914 0
M  V30 4863 C 457.565 1.72196 -4.13585 0
M  V30 4864 C 459.309 3.08488 -2.91608 0
M  V30 4865 C 457.216 2.74417 -5.23879 0
M  V30 4866 H 456.146 0.481413 -0.580308 0
M  V30 4867 H 458.797 0.557195 -1.74836 0
M  V30 4868 H 457.179 3.07601 -2.49395 0
M  V30 4869 H 458.353 1.03041 -4.49132 0
M  V30 4870 H 456.668 1.08464 -4.02025 0
M  V30 4871 H 459.265 3.84879 -3.71177 0
M  V30 4872 H 459.608 3.64481 -2.01145 0
M  V30 4873 H 460.141 2.40274 -3.17038 0
M  V30 4874 H 456.88 2.23242 -6.16314 0
M  V30 4875 H 456.4 3.41893 -4.92818 0
M  V30 4876 H 458.079 3.37362 -5.52083 0
M  V30 4877 N 458.211 1.37122 0.776871 0
M  V30 4878 C 459.488 1.22586 1.52421 0
M  V30 4879 C 459.868 -0.182726 2.10308 0
M  V30 4880 O 459.216 -1.18979 1.9508 0
M  V30 4881 C 459.426 2.31782 2.60918 0
M  V30 4882 C 460.774 2.69071 3.2846 0
M  V30 4883 O 461.798 2.3092 2.71209 0
M  V30 4884 O 460.657 3.3478 4.31954 0
M  V30 4885 H 457.751 0.478045 0.674835 0
M  V30 4886 H 460.297 1.48888 0.814275 0
M  V30 4887 H 459.069 3.26131 2.16227 0
M  V30 4888 H 458.692 2.06916 3.39517 0
M  V30 4889 N 459.689 -1.00246 1.21608 0
M  V30 4890 C 461.1 -1.55511 1.03312 0
M  V30 4891 C 461.451 -1.91946 -0.406332 0
M  V30 4892 O 460.576 -1.73753 -1.28992 0
M  V30 4893 C 461.171 -2.82576 1.86913 0
M  V30 4894 C 459.73 -3.34318 1.72941 0
M  V30 4895 C 458.877 -2.07487 1.83968 0
M  V30 4896 H 461.828 -0.824638 1.35593 0
M  V30 4897 H 461.849 -3.54559 1.38087 0
M  V30 4898 H 461.361 -2.56026 2.91672 0
M  V30 4899 H 459.462 -3.65797 0.70877 0
M  V30 4900 H 459.575 -4.05566 2.55055 0
M  V30 4901 H 457.939 -2.20603 1.27304 0
M  V30 4902 H 458.722 -1.83346 2.9024 0
M  V30 4903 N 461.167 -1.02423 -1.1978 0
M  V30 4904 C 462.413 -0.72878 -1.89896 0
M  V30 4905 C 462.768 0.734248 -1.77839 0
M  V30 4906 O 462.061 1.52733 -1.15685 0
M  V30 4907 C 462.255 -1.1088 -3.39765 0
M  V30 4908 C 462.084 -2.60722 -3.66407 0
M  V30 4909 C 460.854 -3.27623 -3.84696 0
M  V30 4910 C 463.052 -3.58924 -3.68345 0
M  V30 4911 N 461.034 -4.66617 -3.98926 0
M  V30 4912 C 462.405 -4.83514 -3.8809 0
M  V30 4913 C 464.46 -3.52788 -3.51347 0
M  V30 4914 C 463.163 -6.0271 -3.92598 0
M  V30 4915 C 465.189 -4.71394 -3.5713 0
M  V30 4916 C 464.551 -5.94796 -3.77356 0
M  V30 4917 H 460.65 -0.318473 -0.714212 0
M  V30 4918 H 463.234 -1.3106 -1.43984 0
M  V30 4919 H 461.405 -0.555233 -3.84411 0
M  V30 4920 H 463.137 -0.766082 -3.97383 0
M  V30 4921 H 459.892 -2.7804 -3.83393 0
M  V30 4922 H 460.316 -5.38805 -4.099 0
M  V30 4923 H 464.958 -2.58372 -3.3467 0
M  V30 4924 H 462.676 -6.97499 -4.08069 0
M  V30 4925 H 466.262 -4.6827 -3.45275 0
M  V30 4926 H 465.142 -6.85037 -3.81699 0
M  V30 4927 N 462.645 1.35699 -0.801477 0
M  V30 4928 C 463.891 1.99208 -0.380022 0
M  V30 4929 C 464.224 1.63445 1.04878 0
M  V30 4930 O 463.499 0.895223 1.72673 0
M  V30 4931 C 463.782 3.55755 -0.557708 0
M  V30 4932 C 463.635 4.01332 -2.03107 0
M  V30 4933 C 464.954 4.40096 0.0197968 0
M  V30 4934 H 462.073 0.723667 -0.139552 0
M  V30 4935 H 464.715 1.60928 -1.01006 0
M  V30 4936 H 462.865 3.88494 -0.0213741 0
M  V30 4937 H 464.537 3.79026 -2.62939 0
M  V30 4938 H 462.78 3.52429 -2.52936 0
M  V30 4939 H 463.451 5.10234 -2.1063 0
M  V30 4940 H 465.927 4.13786 -0.438179 0
M  V30 4941 H 464.803 5.48735 -0.134477 0
M  V30 4942 H 465.064 4.2786 1.11303 0
M  V30 4943 N 464.123 0.554532 1.47522 0
M  V30 4944 C 465.37 0.029479 2.02479 0
M  V30 4945 C 465.698 -1.31929 1.42916 0
M  V30 4946 O 464.953 -1.87112 0.573385 0
M  V30 4947 C 465.252 -0.115927 3.57212 0
M  V30 4948 C 464.918 1.16161 4.3568 0
M  V30 4949 C 463.58 1.51168 4.56839 0
M  V30 4950 C 465.932 2.0083 4.80954 0
M  V30 4951 C 463.26 2.70696 5.2052 0
M  V30 4952 C 465.612 3.19559 5.45953 0
M  V30 4953 C 464.276 3.54882 5.65345 0
M  V30 4954 H 463.546 0.0107871 0.740921 0
M  V30 4955 H 466.193 0.725506 1.77225 0
M  V30 4956 H 464.498 -0.894902 3.81443 0
M  V30 4957 H 466.195 -0.53749 3.97381 0
M  V30 4958 H 462.785 0.879026 4.19489 0
M  V30 4959 H 466.969 1.75093 4.64388 0
M  V30 4960 H 462.225 2.98236 5.33728 0
M  V30 4961 H 466.399 3.85456 5.79997 0
M  V30 4962 H 464.026 4.47596 6.1446 0
M  V30 4963 N 465.601 -1.54893 0.290851 0
M  V30 4964 C 466.564 -2.21824 -0.576784 0
M  V30 4965 C 467.564 -1.20104 -1.06919 0
M  V30 4966 O 468.754 -1.44906 -0.966843 0
M  V30 4967 C 465.886 -2.89662 -1.79747 0
M  V30 4968 H 467.079 -2.99899 0.00784051 0
M  V30 4969 H 464.632 -1.56245 0.0415934 0
M  V30 4970 H 465.367 -2.15639 -2.42219 0
M  V30 4971 H 465.152 -3.64219 -1.45214 0
M  V30 4972 H 466.642 -3.4075 -2.4141 0
M  V30 4973 N 467.08 -0.0183926 -1.57589 0
M  V30 4974 C 468.329 0.66185 -1.90532 0
M  V30 4975 C 468.642 1.73904 -0.895366 0
M  V30 4976 O 469.848 2.47518 -1.11566 0
M  V30 4977 C 468.304 1.22844 -3.38286 0
M  V30 4978 C 467.912 0.185103 -4.47617 0
M  V30 4979 C 469.656 1.88581 -3.80312 0
M  V30 4980 C 467.563 0.762723 -5.86461 0
M  V30 4981 H 466.493 0.250972 -0.711006 0
M  V30 4982 H 469.144 -0.0819435 -1.83317 0
M  V30 4983 H 467.526 2.0235 -3.40398 0
M  V30 4984 H 468.7 -0.58671 -4.5705 0
M  V30 4985 H 467.015 -0.372889 -4.14727 0
M  V30 4986 H 469.612 2.32735 -4.81392 0
M  V30 4987 H 469.955 2.72408 -3.14801 0
M  V30 4988 H 470.488 1.15782 -3.80578 0
M  V30 4989 H 467.227 -0.0371713 -6.55489 0
M  V30 4990 H 466.747 1.50327 -5.80656 0
M  V30 4991 H 468.426 1.25576 -6.34697 0
M  V30 4992 N 468.558 1.5553 0.254621 0
M  V30 4993 C 469.488 1.9268 1.31897 0
M  V30 4994 C 470.469 0.790797 1.506 0
M  V30 4995 O 471.654 1.05045 1.63337 0
M  V30 4996 C 468.784 2.21477 2.67517 0
M  V30 4997 C 467.738 3.37256 2.63519 0
M  V30 4998 C 467.064 3.51576 4.02862 0
M  V30 4999 C 468.364 4.73157 2.21179 0
M  V30 5000 H 470.058 2.81832 1.01051 0
M  V30 5001 H 467.604 1.35599 0.484662 0
M  V30 5002 H 469.557 2.46055 3.42104 0
M  V30 5003 H 468.281 1.29144 2.99982 0
M  V30 5004 H 466.94 3.12675 1.9139 0
M  V30 5005 H 466.588 2.56676 4.32581 0
M  V30 5006 H 466.288 4.2943 4.01078 0
M  V30 5007 H 467.812 3.78467 4.79161 0
M  V30 5008 H 469.226 4.97158 2.85494 0
M  V30 5009 H 467.623 5.54058 2.30521 0
M  V30 5010 H 468.693 4.70739 1.16332 0
M  V30 5011 N 470.036 -0.519951 1.48776 0
M  V30 5012 C 471.452 -0.849418 1.35119 0
M  V30 5013 C 471.652 -1.98077 0.36982 0
M  V30 5014 O 470.708 -2.51664 -0.205359 0
M  V30 5015 C 472.021 -1.20748 2.75391 0
M  V30 5016 C 473.569 -1.31679 2.83954 0
M  V30 5017 C 474.044 -1.70824 4.24951 0
M  V30 5018 N 475.535 -1.77908 4.27672 0
M  V30 5019 C 476.27 -2.09603 5.33717 0
M  V30 5020 N 475.766 -2.39652 6.5003 0
M  V30 5021 N 477.559 -2.10694 5.21119 0
M  V30 5022 H 469.71 0.226377 2.1119 0
M  V30 5023 H 471.973 0.0386519 0.947212 0
M  V30 5024 H 471.679 -0.449703 3.48813 0
M  V30 5025 H 471.553 -2.15534 3.09556 0
M  V30 5026 H 473.94 -2.06532 2.10781 0
M  V30 5027 H 474.021 -0.3499 2.53396 0
M  V30 5028 H 473.665 -0.965282 4.98643 0
M  V30 5029 H 473.595 -2.6858 4.52959 0
M  V30 5030 H 476.086 -1.56923 3.43779 0
M  V30 5031 H 476.399 -2.6297 7.26682 0
M  V30 5032 H 474.744 -2.37149 6.53288 0
M  V30 5033 H 477.935 -1.86682 4.29264 0
M  V30 5034 H 478.108 -2.35062 6.03863 0
M  V30 5035 N 471.514 -1.37532 -0.769588 0
M  V30 5036 C 472.925 -1.29382 -1.346 0
M  V30 5037 C 473.276 0.0576039 -1.96115 0
M  V30 5038 O 472.401 0.95947 -1.93967 0
M  V30 5039 C 472.996 -2.34298 -2.44724 0
M  V30 5040 C 471.555 -2.29776 -2.98128 0
M  V30 5041 C 470.702 -2.18013 -1.71364 0
M  V30 5042 H 473.653 -1.48123 -0.56968 0
M  V30 5043 H 473.674 -1.99089 -3.24259 0
M  V30 5044 H 473.186 -3.32645 -1.99922 0
M  V30 5045 H 471.287 -1.34959 -3.47299 0
M  V30 5046 H 471.4 -3.23276 -3.53595 0
M  V30 5047 H 469.764 -1.64595 -1.94372 0
M  V30 5048 H 470.547 -3.18278 -1.28662 0
M  V30 5049 N 472.992 0.995999 -1.22138 0
M  V30 5050 C 474.403 1.54961 -1.04135 0
M  V30 5051 C 474.754 1.92159 0.396147 0
M  V30 5052 O 473.879 1.74435 1.28069 0
M  V30 5053 C 474.474 2.81581 -1.88408 0
M  V30 5054 C 473.033 3.33396 -1.74712 0
M  V30 5055 C 472.18 2.06509 -1.85066 0
M  V30 5056 H 475.131 0.817436 -1.36028 0
M  V30 5057 H 475.152 3.53822 -1.39966 0
M  V30 5058 H 474.664 2.54476 -2.93025 0
M  V30 5059 H 472.765 3.65416 -0.728159 0
M  V30 5060 H 472.878 4.04208 -2.57202 0
M  V30 5061 H 471.242 2.19925 -1.28472 0
M  V30 5062 H 472.025 1.81804 -2.91208 0
M  V30 5063 N 474.47 1.03057 1.19235 0
M  V30 5064 C 475.716 0.729098 1.89241 0
M  V30 5065 C 476.049 -0.740573 1.79525 0
M  V30 5066 O 475.324 -1.53946 1.18874 0
M  V30 5067 C 475.607 1.18304 3.40112 0
M  V30 5068 C 475.46 2.71406 3.5869 0
M  V30 5069 C 476.779 0.765161 4.33397 0
M  V30 5070 H 473.898 0.266338 0.687192 0
M  V30 5071 H 476.54 1.28079 1.40341 0
M  V30 5072 H 474.69 0.713672 3.81889 0
M  V30 5073 H 476.362 3.26303 3.26074 0
M  V30 5074 H 474.605 3.11717 3.01687 0
M  V30 5075 H 475.276 2.98225 4.64506 0
M  V30 5076 H 477.752 1.16889 3.99345 0
M  V30 5077 H 476.628 1.11065 5.37546 0
M  V30 5078 H 476.889 -0.332372 4.40849 0
M  V30 5079 N 475.948 -1.35272 0.808662 0
M  V30 5080 C 476.878 -2.32315 0.234981 0
M  V30 5081 C 477.859 -1.57572 -0.64071 0
M  V30 5082 O 479.044 -1.8563 -0.570551 0
M  V30 5083 C 476.174 -3.41801 -0.615601 0
M  V30 5084 C 475.128 -4.27694 0.161767 0
M  V30 5085 C 474.454 -5.28519 -0.810649 0
M  V30 5086 C 475.754 -5.04231 1.36193 0
M  V30 5087 H 477.448 -2.80543 1.04575 0
M  V30 5088 H 474.994 -1.3488 0.504315 0
M  V30 5089 H 476.947 -4.08693 -1.02702 0
M  V30 5090 H 475.671 -2.92186 -1.45928 0
M  V30 5091 H 474.33 -3.62384 0.554382 0
M  V30 5092 H 473.978 -4.75171 -1.64988 0
M  V30 5093 H 473.678 -5.8686 -0.294822 0
M  V30 5094 H 475.202 -5.98283 -1.22023 0
M  V30 5095 H 476.616 -5.64058 1.02528 0
M  V30 5096 H 475.013 -5.72077 1.81239 0
M  V30 5097 H 476.083 -4.34753 2.14751 0
M  V30 5098 N 477.426 -0.562348 -1.47226 0
M  V30 5099 C 478.842 -0.222492 -1.58042 0
M  V30 5100 C 479.042 1.27505 -1.56028 0
M  V30 5101 O 478.098 2.05555 -1.46641 0
M  V30 5102 C 479.411 -0.853694 -2.88327 0
M  V30 5103 C 480.959 -0.825397 -3.01921 0
M  V30 5104 C 481.434 -1.43576 -4.34914 0
M  V30 5105 N 482.925 -1.39918 -4.41562 0
M  V30 5106 C 483.66 -1.84103 -5.43041 0
M  V30 5107 N 483.156 -2.36167 -6.51304 0
M  V30 5108 N 484.949 -1.75142 -5.34118 0
M  V30 5109 H 477.1 -1.53525 -1.46778 0
M  V30 5110 H 479.363 -0.640527 -0.698877 0
M  V30 5111 H 479.069 -1.90635 -2.95552 0
M  V30 5112 H 478.943 -0.34977 -3.75575 0
M  V30 5113 H 481.33 0.218583 -2.94289 0
M  V30 5114 H 481.411 -1.36713 -2.16202 0
M  V30 5115 H 481.055 -2.47884 -4.43301 0
M  V30 5116 H 480.985 -0.869427 -5.19373 0
M  V30 5117 H 483.476 -1.0184 -3.63919 0
M  V30 5118 H 483.789 -2.67793 -7.24919 0
M  V30 5119 H 482.134 -2.40181 -6.52179 0
M  V30 5120 H 485.325 -1.34241 -4.48439 0
M  V30 5121 H 485.498 -2.09895 -6.13065 0
M  V30 5122 N 478.904 1.54736 -0.299062 0
M  V30 5123 C 479.834 2.26409 0.571085 0
M  V30 5124 C 480.815 1.2629 1.13951 0
M  V30 5125 O 482 1.55059 1.16921 0
M  V30 5126 C 479.13 3.00338 1.74396 0
M  V30 5127 C 478.084 4.07588 1.30599 0
M  V30 5128 C 477.41 4.69222 2.56387 0
M  V30 5129 C 478.71 5.20455 0.438645 0
M  V30 5130 H 480.404 2.99388 -0.0266991 0
M  V30 5131 H 477.95 1.43993 -0.0142812 0
M  V30 5132 H 479.903 3.49198 2.35878 0
M  V30 5133 H 478.627 2.24934 2.36796 0
M  V30 5134 H 477.286 3.59575 0.71424 0
M  V30 5135 H 476.934 3.9046 3.17097 0
M  V30 5136 H 476.634 5.41653 2.27784 0
M  V30 5137 H 478.158 5.20844 3.18675 0
M  V30 5138 H 479.572 5.65221 0.959085 0
M  V30 5139 H 477.969 5.99594 0.246466 0
M  V30 5140 H 479.039 4.8192 -0.536738 0
M  V30 5141 N 480.382 0.0267497 1.57577 0
M  V30 5142 C 481.315 -0.99059 2.05579 0
M  V30 5143 C 482.293 -1.31884 0.951065 0
M  V30 5144 O 483.477 -1.43592 1.22121 0
M  V30 5145 C 480.604 -2.31125 2.47586 0
M  V30 5146 C 479.65 -2.13777 3.69055 0
M  V30 5147 S 480.483 -1.4388 5.15809 0
M  V30 5148 C 481.639 -2.77321 5.6111 0
M  V30 5149 H 481.872 -0.581976 2.91548 0
M  V30 5150 H 479.405 -0.184876 1.53289 0
M  V30 5151 H 481.363 -3.07049 2.72454 0
M  V30 5152 H 480.024 -2.6912 1.61967 0
M  V30 5153 H 479.217 -3.11405 3.96287 0
M  V30 5154 H 478.819 -1.45996 3.44327 0
M  V30 5155 H 481.111 -3.73565 5.65204 0
M  V30 5156 H 482.054 -2.54756 6.60685 0
M  V30 5157 H 482.462 -2.82459 4.88751 0
M  V30 5158 N 481.861 -1.55662 -0.24637 0
M  V30 5159 C 483.277 -1.48098 -0.594907 0
M  V30 5160 C 483.477 -0.717044 -1.8831 0
M  V30 5161 O 482.533 -0.246618 -2.51293 0
M  V30 5162 C 483.846 -2.92507 -0.697146 0
M  V30 5163 C 485.394 -3.02881 -0.789436 0
M  V30 5164 C 485.869 -4.48598 -0.923232 0
M  V30 5165 N 487.36 -4.52538 -0.988088 0
M  V30 5166 C 488.095 -5.62536 -1.11089 0
M  V30 5167 N 487.591 -6.82342 -1.19919 0
M  V30 5168 N 489.384 -5.50334 -1.14408 0
M  V30 5169 H 481.535 -2.0377 0.599278 0
M  V30 5170 H 483.798 -0.925145 0.20691 0
M  V30 5171 H 483.504 -3.51242 0.179396 0
M  V30 5172 H 483.378 -3.43024 -1.5689 0
M  V30 5173 H 485.765 -2.44226 -1.65643 0
M  V30 5174 H 485.846 -2.55574 0.107482 0
M  V30 5175 H 485.49 -5.07864 -0.0607927 0
M  V30 5176 H 485.42 -4.93587 -1.8352 0
M  V30 5177 H 487.911 -3.66248 -0.931167 0
M  V30 5178 H 488.224 -7.61924 -1.29197 0
M  V30 5179 H 486.569 -6.85102 -1.16876 0
M  V30 5180 H 489.76 -4.5567 -1.07158 0
M  V30 5181 H 489.933 -6.36096 -1.23634 0
M  V30 5182 N 483.339 0.512053 -1.4905 0
M  V30 5183 C 484.564 1.2959 -1.6193 0
M  V30 5184 C 484.989 1.85906 -0.286454 0
M  V30 5185 O 484.347 1.65312 0.744426 0
M  V30 5186 C 484.395 2.40987 -2.68249 0
M  V30 5187 O 483.499 3.44531 -2.26654 0
M  V30 5188 H 482.84 0.383053 -0.542371 0
M  V30 5189 H 485.37 0.614231 -1.95162 0
M  V30 5190 H 485.38 2.86913 -2.90078 0
M  V30 5191 H 484.055 1.99361 -3.65004 0
M  V30 5192 H 482.632 3.046 -2.15112 0
M  V30 5193 N 484.817 1.37938 0.762283 0
M  V30 5194 C 486.063 1.33866 1.52341 0
M  V30 5195 C 486.396 -0.0738961 1.94059 0
M  V30 5196 O 485.671 -1.03326 1.64785 0
M  V30 5197 C 485.954 2.28644 2.78197 0
M  V30 5198 C 485.807 3.78722 2.42672 0
M  V30 5199 C 487.126 2.21702 3.80179 0
M  V30 5200 H 484.245 0.487593 0.55265 0
M  V30 5201 H 486.887 1.68717 0.873767 0
M  V30 5202 H 485.037 1.99055 3.33631 0
M  V30 5203 H 486.709 4.18948 1.93081 0
M  V30 5204 H 484.952 3.96827 1.75244 0
M  V30 5205 H 485.623 4.40486 3.3268 0
M  V30 5206 H 488.099 2.47805 3.34263 0
M  V30 5207 H 486.975 2.90143 4.65949 0
M  V30 5208 H 487.236 1.21301 4.25133 0
M  V30 5209 N 486.295 -0.989507 1.22664 0
M  V30 5210 C 487.225 -2.09847 1.02404 0
M  V30 5211 C 488.206 -1.70007 -0.0561303 0
M  V30 5212 O 489.391 -1.93906 0.106748 0
M  V30 5213 C 486.521 -3.41996 0.604663 0
M  V30 5214 C 485.475 -3.95699 1.63115 0
M  V30 5215 C 484.801 -5.23936 1.0675 0
M  V30 5216 C 486.101 -4.25999 3.02196 0
M  V30 5217 H 487.795 -2.27054 1.95158 0
M  V30 5218 H 485.341 -1.09111 0.939727 0
M  V30 5219 H 487.294 -4.1899 0.45002 0
M  V30 5220 H 486.018 -3.24626 -0.35855 0
M  V30 5221 H 484.677 -3.2084 1.77362 0
M  V30 5222 H 484.325 -5.02909 0.0955422 0
M  V30 5223 H 484.025 -5.60833 1.75328 0
M  V30 5224 H 485.549 -6.0356 0.924516 0
M  V30 5225 H 486.963 -4.93777 2.91303 0
M  V30 5226 H 485.36 -4.74076 3.67929 0
M  V30 5227 H 486.43 -3.33636 3.51873 0
M  V30 5228 N 487.773 -1.03688 -1.18687 0
M  V30 5229 C 489.013 -0.746858 -1.90267 0
M  V30 5230 C 489.377 0.712075 -1.78307 0
M  V30 5231 O 490.578 1.11553 -2.44559 0
M  V30 5232 C 488.849 -1.19543 -3.36815 0
M  V30 5233 S 490.408 -1.03047 -4.26529 0
M  V30 5234 H 487.226 -0.271663 -0.657054 0
M  V30 5235 H 489.828 -1.32838 -1.43437 0
M  V30 5236 H 488.532 -2.2527 -3.43047 0
M  V30 5237 H 488.063 -0.607533 -3.88681 0
M  V30 5238 H 490.078 0.0543232 -4.9617 0
M  V30 5239 N 489.251 1.34841 -0.815825 0
M  V30 5240 C 490.491 2.00321 -0.406297 0
M  V30 5241 C 490.855 1.63293 1.00992 0
M  V30 5242 O 492.056 2.21563 1.52195 0
M  V30 5243 C 490.327 3.52421 -0.594469 0
M  V30 5244 S 491.886 4.37926 -0.276735 0
M  V30 5245 H 488.704 0.694155 -0.153848 0
M  V30 5246 H 491.306 1.64263 -1.06009 0
M  V30 5247 H 490.01 3.76858 -1.625 0
M  V30 5248 H 489.541 3.9333 0.0743157 0
M  V30 5249 H 491.556 4.87743 0.912215 0
M  V30 5250 N 490.729 0.570148 1.46925 0
M  V30 5251 C 492.145 0.23087 1.57921 0
M  V30 5252 C 492.345 -1.26676 1.56702 0
M  V30 5253 O 491.401 -2.04774 1.47729 0
M  V30 5254 C 492.714 0.868973 2.8787 0
M  V30 5255 C 494.262 0.841397 3.01479 0
M  V30 5256 C 494.737 1.45881 4.34146 0
M  V30 5257 N 496.228 1.42258 4.40814 0
M  V30 5258 C 496.963 1.8698 5.42057 0
M  V30 5259 N 496.459 2.39618 6.50042 0
M  V30 5260 N 498.252 1.77972 5.33181 0
M  V30 5261 H 490.403 1.54301 1.45962 0
M  V30 5262 H 492.666 0.644224 0.69547 0
M  V30 5263 H 492.372 1.922 2.94537 0
M  V30 5264 H 492.246 0.369682 3.75384 0
M  V30 5265 H 494.633 -0.202973 2.94401 0
M  V30 5266 H 494.714 1.37858 2.15474 0
M  V30 5267 H 494.358 2.50231 4.4198 0
M  V30 5268 H 494.288 0.896958 5.18905 0
M  V30 5269 H 496.779 1.03768 3.63374 0
M  V30 5270 H 497.092 2.71633 7.23488 0
M  V30 5271 H 495.437 2.43636 6.50897 0
M  V30 5272 H 498.628 1.36617 4.4772 0
M  V30 5273 H 498.801 2.13143 6.11943 0
M  V30 5274 N 492.207 -1.54576 0.307264 0
M  V30 5275 C 493.456 -1.99442 -0.300976 0
M  V30 5276 C 493.769 -1.19928 -1.5452 0
M  V30 5277 O 494.975 -1.55092 -2.22842 0
M  V30 5278 C 493.431 -3.55084 -0.586809 0
M  V30 5279 C 493.039 -4.43413 0.639438 0
M  V30 5280 C 494.783 -4.0846 -1.1559 0
M  V30 5281 C 492.69 -5.90499 0.326411 0
M  V30 5282 H 491.62 -0.744986 -0.116238 0
M  V30 5283 H 494.271 -1.787 0.416947 0
M  V30 5284 H 492.653 -3.71749 -1.36449 0
M  V30 5285 H 493.827 -4.38522 1.41545 0
M  V30 5286 H 492.142 -4.00842 1.1276 0
M  V30 5287 H 494.739 -5.15926 -1.40445 0
M  V30 5288 H 495.082 -3.59443 -2.10015 0
M  V30 5289 H 495.615 -3.95362 -0.439778 0
M  V30 5290 H 492.354 -6.43676 1.23939 0
M  V30 5291 H 491.874 -5.98382 -0.412212 0
M  V30 5292 H 493.553 -6.46962 -0.0697393 0
M  V30 5293 N 493.685 -0.035106 -1.57561 0
M  V30 5294 C 494.91 0.655802 -1.96759 0
M  V30 5295 C 495.335 1.64523 -0.911809 0
M  V30 5296 O 494.693 1.80857 0.126673 0
M  V30 5297 C 494.741 1.33326 -3.35047 0
M  V30 5298 O 493.845 2.44866 -3.31835 0
M  V30 5299 H 493.186 0.171807 -0.641388 0
M  V30 5300 H 495.716 -0.0987369 -2.04362 0
M  V30 5301 H 495.726 1.68867 -3.71413 0
M  V30 5302 H 494.401 0.608033 -4.11431 0
M  V30 5303 H 492.978 2.11392 -3.07193 0
M  V30 5304 N 495.163 1.55791 0.238111 0
M  V30 5305 C 496.093 1.94068 1.29846 0
M  V30 5306 C 497.074 0.806726 1.49753 0
M  V30 5307 O 498.259 1.06772 1.62214 0
M  V30 5308 C 495.389 2.24302 2.65153 0
M  V30 5309 C 494.343 3.40032 2.59927 0
M  V30 5310 C 493.669 3.55829 3.99111 0
M  V30 5311 C 494.969 4.75476 2.16148 0
M  V30 5312 H 496.663 2.82887 0.980563 0
M  V30 5313 H 494.209 1.36105 0.470253 0
M  V30 5314 H 496.162 2.4967 3.39475 0
M  V30 5315 H 494.886 1.32318 2.98596 0
M  V30 5316 H 493.545 3.14687 1.88063 0
M  V30 5317 H 493.193 2.6125 4.29834 0
M  V30 5318 H 492.893 4.3366 3.96501 0
M  V30 5319 H 494.417 3.83528 4.7512 0
M  V30 5320 H 495.831 5.00158 2.80205 0
M  V30 5321 H 494.228 5.56472 2.24631 0
M  V30 5322 H 495.298 4.71946 1.11333 0
M  V30 5323 N 496.642 -0.504142 1.49319 0
M  V30 5324 C 498.058 -0.835039 1.36012 0
M  V30 5325 C 498.258 -1.97674 0.390808 0
M  V30 5326 O 497.314 -2.51867 -0.178655 0
M  V30 5327 C 498.627 -1.17821 2.76656 0
M  V30 5328 C 500.175 -1.2866 2.85334 0
M  V30 5329 C 500.65 -1.66307 4.26739 0
M  V30 5330 N 502.141 -1.73362 4.29534 0
M  V30 5331 C 502.876 -2.0393 5.35911 0
M  V30 5332 N 502.372 -2.32744 6.52535 0
M  V30 5333 N 504.165 -2.05155 5.23324 0
M  V30 5334 H 496.316 0.248764 2.10938 0
M  V30 5335 H 498.579 0.0486962 0.946748 0
M  V30 5336 H 498.285 -0.412682 3.4927 0
M  V30 5337 H 498.159 -2.12239 3.11825 0
M  V30 5338 H 500.546 -2.04285 2.1296 0
M  V30 5339 H 500.627 -0.323004 2.53752 0
M  V30 5340 H 500.271 -0.91234 4.99639 0
M  V30 5341 H 500.201 -2.63761 4.55782 0
M  V30 5342 H 502.692 -1.53268 3.45424 0
M  V30 5343 H 503.005 -2.55248 7.2943 0
M  V30 5344 H 501.35 -2.30207 6.55767 0
M  V30 5345 H 504.541 -1.82119 4.3122 0
M  V30 5346 H 504.714 -2.28644 6.06322 0
M  V30 5347 N 498.12 -1.38341 -0.754957 0
M  V30 5348 C 499.348 -1.37704 -1.54419 0
M  V30 5349 C 499.763 0.0335243 -1.8877 0
M  V30 5350 O 499.12 0.999773 -1.52679 0
M  V30 5351 C 499.171 -2.23136 -2.84416 0
M  V30 5352 O 498.892 -3.58697 -2.51531 0
M  V30 5353 C 500.393 -2.30664 -3.78562 0
M  V30 5354 H 497.613 -0.471061 -0.477852 0
M  V30 5355 H 500.157 -1.81902 -0.934446 0
M  V30 5356 H 498.312 -1.82403 -3.41772 0
M  V30 5357 H 498.726 -4.03665 -3.34896 0
M  V30 5358 H 500.2 -2.9473 -4.66732 0
M  V30 5359 H 500.677 -1.3199 -4.18898 0
M  V30 5360 H 501.283 -2.71781 -3.27131 0
M  V30 5361 N 499.598 0.982988 -1.23187 0
M  V30 5362 C 500.53 2.07729 -0.968572 0
M  V30 5363 C 501.543 1.62702 0.0564821 0
M  V30 5364 O 502.732 1.77603 -0.178733 0
M  V30 5365 C 499.832 3.36071 -0.436974 0
M  V30 5366 C 499.005 4.10081 -1.52159 0
M  V30 5367 C 498.064 5.16701 -0.99532 0
M  V30 5368 O 497.09 5.43727 -1.68373 0
M  V30 5369 N 498.292 5.80226 0.178192 0
M  V30 5370 H 501.057 2.30894 -1.9107 0
M  V30 5371 H 498.618 1.14949 -1.1401 0
M  V30 5372 H 500.61 4.04639 -0.0700051 0
M  V30 5373 H 499.18 3.09893 0.410509 0
M  V30 5374 H 498.4 3.36004 -2.06144 0
M  V30 5375 H 499.688 4.56295 -2.25105 0
M  V30 5376 H 499.086 5.60651 0.754096 0
M  V30 5377 H 497.643 6.49982 0.486449 0
M  V30 5378 N 501.076 1.04316 1.18135 0
M  V30 5379 C 502.353 0.662166 1.84051 0
M  V30 5380 C 502.733 -0.858169 1.9287 0
M  V30 5381 O 502.081 -1.76062 1.45652 0
M  V30 5382 C 502.291 1.3409 3.22212 0
M  V30 5383 C 503.639 1.4733 3.9822 0
M  V30 5384 O 504.663 1.29921 3.31661 0
M  V30 5385 O 503.522 1.75722 5.17479 0
M  V30 5386 H 500.616 0.232005 0.79379 0
M  V30 5387 H 503.162 1.1422 1.25506 0
M  V30 5388 H 501.934 2.37853 3.10711 0
M  V30 5389 H 501.557 0.849649 3.88416 0
M  V30 5390 N 502.554 -1.34406 0.822964 0
M  V30 5391 C 503.517 -2.2783 0.250271 0
M  V30 5392 C 504.517 -1.50288 -0.571854 0
M  V30 5393 O 505.707 -1.69825 -0.387952 0
M  V30 5394 C 502.839 -3.34663 -0.649137 0
M  V30 5395 H 504.032 -2.79992 1.07444 0
M  V30 5396 H 501.585 -1.44539 0.594829 0
M  V30 5397 H 502.32 -2.87714 -1.49637 0
M  V30 5398 H 502.105 -3.92052 -0.0611199 0
M  V30 5399 H 503.595 -4.04349 -1.04363 0
M  V30 5400 N 504.032 -0.577932 -1.46621 0
M  V30 5401 C 505.26 -0.0671642 -2.06791 0
M  V30 5402 C 505.675 1.23571 -1.42743 0
M  V30 5403 O 505.032 1.74602 -0.531062 0
M  V30 5404 C 505.083 0.110357 -3.61332 0
M  V30 5405 O 504.804 -1.14095 -4.22982 0
M  V30 5406 C 506.305 0.656025 -4.38419 0
M  V30 5407 H 503.525 -0.0552732 -0.66872 0
M  V30 5408 H 506.069 -0.797242 -1.8832 0
M  V30 5409 H 504.224 0.790637 -3.79246 0
M  V30 5410 H 504.638 -0.951742 -5.15793 0
M  V30 5411 H 506.112 0.729438 -5.47159 0
M  V30 5412 H 506.589 1.67195 -4.06131 0
M  V30 5413 H 507.195 0.0107692 -4.25299 0
M  V30 5414 N 505.51 1.54411 -0.315457 0
M  V30 5415 C 506.442 2.21527 0.588067 0
M  V30 5416 C 507.455 1.21263 1.08624 0
M  V30 5417 O 508.644 1.47777 1.00121 0
M  V30 5418 C 505.744 2.85963 1.81875 0
M  V30 5419 C 504.917 4.12291 1.46063 0
M  V30 5420 C 503.976 4.60396 2.54799 0
M  V30 5421 O 503.002 5.25265 2.19283 0
M  V30 5422 N 504.204 4.33935 3.85591 0
M  V30 5423 H 506.969 2.99697 0.013414 0
M  V30 5424 H 504.53 1.61308 -0.138295 0
M  V30 5425 H 506.522 3.15071 2.53993 0
M  V30 5426 H 505.092 2.11548 2.30144 0
M  V30 5427 H 504.312 3.90036 0.571445 0
M  V30 5428 H 505.6 4.9452 1.19695 0
M  V30 5429 H 504.998 3.81996 4.17248 0
M  V30 5430 H 503.555 4.67718 4.53964 0
M  V30 5431 N 506.988 0.0434614 1.5754 0
M  V30 5432 C 508.216 -0.641835 1.96693 0
M  V30 5433 C 508.631 -1.64832 0.920652 0
M  V30 5434 O 507.988 -1.82247 -0.095993 0
M  V30 5435 C 508.039 -1.33557 3.35924 0
M  V30 5436 O 507.76 -0.369403 4.3654 0
M  V30 5437 C 509.261 -2.11135 3.89791 0
M  V30 5438 H 506.481 -0.176013 0.647503 0
M  V30 5439 H 509.025 0.107478 2.04217 0
M  V30 5440 H 507.18 -2.03617 3.29574 0
M  V30 5441 H 507.594 -0.863674 5.1734 0
M  V30 5442 H 509.068 -2.55107 4.89514 0
M  V30 5443 H 509.545 -2.95634 3.24803 0
M  V30 5444 H 510.151 -1.46002 3.99454 0
M  V30 5445 N 508.466 -1.55915 -0.229846 0
M  V30 5446 C 509.691 -1.8296 -0.976743 0
M  V30 5447 C 510.116 -0.622735 -1.77493 0
M  V30 5448 O 509.474 0.428431 -1.76165 0
M  V30 5449 C 509.522 -3.07916 -1.8767 0
M  V30 5450 O 508.626 -2.86028 -2.97088 0
M  V30 5451 H 507.967 -0.603453 -0.277021 0
M  V30 5452 H 510.497 -2.0312 -0.245669 0
M  V30 5453 H 510.507 -3.37802 -2.2881 0
M  V30 5454 H 509.182 -3.95389 -1.28996 0
M  V30 5455 H 507.759 -2.67355 -2.59954 0
M  V30 5456 N 509.944 0.496216 -1.49584 0
M  V30 5457 C 511.184 1.26015 -1.60933 0
M  V30 5458 C 511.548 1.89772 -0.291646 0
M  V30 5459 O 512.749 2.67334 -0.280357 0
M  V30 5460 C 511.02 2.29506 -2.73974 0
M  V30 5461 S 512.579 3.15175 -3.05303 0
M  V30 5462 H 509.397 0.428194 -0.567601 0
M  V30 5463 H 511.999 0.561484 -1.87263 0
M  V30 5464 H 510.703 1.81205 -3.68229 0
M  V30 5465 H 510.234 3.04036 -2.49651 0
M  V30 5466 H 512.249 4.30244 -2.47193 0
M  V30 5467 N 511.423 1.38739 0.74761 0
M  V30 5468 C 512.648 1.38702 1.54197 0
M  V30 5469 C 513.073 -0.019664 1.8809 0
M  V30 5470 O 512.431 -1.00333 1.51006 0
M  V30 5471 C 512.479 2.25492 2.814 0
M  V30 5472 O 511.583 1.67613 3.76802 0
M  V30 5473 H 510.924 0.472863 0.466151 0
M  V30 5474 H 513.454 1.82577 0.923413 0
M  V30 5475 H 513.464 2.39561 3.30264 0
M  V30 5476 H 512.139 3.27727 2.56062 0
M  V30 5477 H 510.716 1.62718 3.35526 0
M  V30 5478 N 512.901 -0.976442 1.23707 0
M  V30 5479 C 514.129 -1.75341 1.09833 0
M  V30 5480 C 514.544 -1.8553 -0.349885 0
M  V30 5481 O 513.901 -1.33732 -1.24185 0
M  V30 5482 C 513.952 -3.17833 1.72233 0
M  V30 5483 O 513.673 -3.08167 3.11391 0
M  V30 5484 C 515.174 -4.11906 1.63853 0
M  V30 5485 H 512.394 -0.550137 0.384175 0
M  V30 5486 H 514.938 -1.2265 1.63638 0
M  V30 5487 H 513.093 -3.67538 1.22452 0
M  V30 5488 H 513.507 -3.97897 3.41729 0
M  V30 5489 H 514.981 -5.09579 2.12211 0
M  V30 5490 H 515.458 -4.35109 0.598092 0
M  V30 5491 H 516.064 -3.68107 2.13019 0
M  V30 5492 N 514.379 -1.04941 -1.1758 0
M  V30 5493 C 515.311 -0.606174 -2.21039 0
M  V30 5494 C 516.324 0.328763 -1.59446 0
M  V30 5495 O 517.513 0.121895 -1.78083 0
M  V30 5496 C 514.613 0.133294 -3.38638 0
M  V30 5497 C 513.786 -0.811711 -4.29802 0
M  V30 5498 C 512.845 -0.113958 -5.26077 0
M  V30 5499 O 511.871 -0.747237 -5.64274 0
M  V30 5500 N 513.073 1.14953 -5.69004 0
M  V30 5501 H 515.838 -1.49606 -2.59689 0
M  V30 5502 H 513.399 -0.930997 -1.32454 0
M  V30 5503 H 515.391 0.610144 -4.00074 0
M  V30 5504 H 513.961 0.924816 -2.98607 0
M  V30 5505 H 513.181 -1.46824 -3.65837 0
M  V30 5506 H 514.469 -1.45326 -4.87604 0
M  V30 5507 H 513.867 1.68441 -5.40041 0
M  V30 5508 H 512.424 1.57049 -6.32597 0
M  V30 5509 N 515.857 1.33968 -0.830081 0
M  V30 5510 C 517.082 2.02813 -0.433796 0
M  V30 5511 C 517.507 1.62076 0.954614 0
M  V30 5512 O 516.865 0.808955 1.62252 0
M  V30 5513 C 516.913 3.56348 -0.552115 0
M  V30 5514 O 516.017 4.10202 0.425191 0
M  V30 5515 H 515.358 0.639817 -0.177567 0
M  V30 5516 H 517.888 1.7106 -1.12248 0
M  V30 5517 H 517.898 4.05722 -0.430513 0
M  V30 5518 H 516.573 3.85344 -1.56471 0
M  V30 5519 H 515.15 3.71979 0.261878 0
M  V30 5520 N 517.335 0.585699 1.46312 0
M  V30 5521 C 518.612 0.00542031 1.95599 0
M  V30 5522 C 518.992 -1.45619 1.52834 0
M  V30 5523 O 518.34 -2.14759 0.780446 0
M  V30 5524 C 518.55 0.180601 3.48532 0
M  V30 5525 C 519.898 0.049979 4.24571 0
M  V30 5526 O 520.922 0.109589 3.56031 0
M  V30 5527 O 519.781 -0.0832226 5.46437 0
M  V30 5528 H 516.875 -0.0481281 0.825598 0
M  V30 5529 H 519.421 0.654227 1.56582 0
M  V30 5530 H 518.193 1.19657 3.72556 0
M  V30 5531 H 517.816 -0.504498 3.94386 0
M  V30 5532 N 518.813 -1.54241 0.323641 0
M  V30 5533 C 519.776 -2.22997 -0.529602 0
M  V30 5534 C 520.776 -1.22345 -1.04347 0
M  V30 5535 O 521.966 -1.46924 -0.935889 0
M  V30 5536 C 519.098 -2.93409 -1.73562 0
M  V30 5537 H 520.291 -2.99815 0.0714518 0
M  V30 5538 H 517.844 -1.56121 0.0747258 0
M  V30 5539 H 518.579 -2.20729 -2.37591 0
M  V30 5540 H 518.364 -3.67217 -1.37456 0
M  V30 5541 H 519.854 -3.45794 -2.34128 0
M  V30 5542 N 520.291 -0.0518155 -1.57515 0
M  V30 5543 C 521.516 0.634896 -1.97443 0
M  V30 5544 C 521.941 1.63546 -0.929207 0
M  V30 5545 O 521.299 1.80981 0.107484 0
M  V30 5546 C 521.347 1.29765 -3.36442 0
M  V30 5547 O 520.451 2.41333 -3.34413 0
M  V30 5548 H 519.792 0.164994 -0.643174 0
M  V30 5549 H 522.322 -0.120407 -2.04245 0
M  V30 5550 H 522.332 1.64918 -3.73184 0
M  V30 5551 H 521.007 0.564361 -4.12053 0
M  V30 5552 H 519.584 2.08122 -3.09418 0
M  V30 5553 N 521.769 1.56035 0.221574 0
M  V30 5554 C 522.716 1.92413 1.27459 0
M  V30 5555 C 523.686 0.781323 1.46576 0
M  V30 5556 O 524.871 1.03721 1.60145 0
M  V30 5557 C 522.011 2.24617 2.61995 0
M  V30 5558 C 521.124 3.51831 2.50677 0
M  V30 5559 C 520.259 3.73482 3.77736 0
M  V30 5560 C 519.298 4.94211 3.6114 0
M  V30 5561 N 518.435 5.12252 4.80148 0
M  V30 5562 H 523.275 2.82203 0.957355 0
M  V30 5563 H 520.812 1.39676 0.461415 0
M  V30 5564 H 522.77 2.41298 3.40339 0
M  V30 5565 H 521.4 1.38 2.91815 0
M  V30 5566 H 520.452 3.43343 1.63767 0
M  V30 5567 H 521.764 4.40328 2.34334 0
M  V30 5568 H 520.918 3.9026 4.64523 0
M  V30 5569 H 519.657 2.83266 3.97003 0
M  V30 5570 H 518.662 4.77384 2.72736 0
M  V30 5571 H 519.887 5.85912 3.43343 0
M  V30 5572 H 517.833 4.24978 4.99729 0
M  V30 5573 H 517.75 5.94881 4.66532 0
M  V30 5574 H 519.018 5.33465 5.68362 0
M  V30 5575 N 523.247 -0.488276 1.49845 0
M  V30 5576 C 524.179 -1.60539 1.63584 0
M  V30 5577 C 525.192 -1.5434 0.517972 0
M  V30 5578 O 526.381 -1.60041 0.790516 0
M  V30 5579 C 523.481 -2.99374 1.58835 0
M  V30 5580 C 522.654 -3.30624 2.86368 0
M  V30 5581 C 521.713 -4.4893 2.74496 0
M  V30 5582 O 520.739 -4.50085 3.48443 0
M  V30 5583 N 521.941 -5.49591 1.86894 0
M  V30 5584 H 524.706 -1.49176 2.59936 0
M  V30 5585 H 522.267 -0.67639 1.47094 0
M  V30 5586 H 524.259 -3.76459 1.48529 0
M  V30 5587 H 522.829 -3.04595 0.702892 0
M  V30 5588 H 522.049 -2.42314 3.1093 0
M  V30 5589 H 523.337 -3.48305 3.70892 0
M  V30 5590 H 522.735 -5.51467 1.26097 0
M  V30 5591 H 521.292 -6.25728 1.82503 0
M  V30 5592 N 524.725 -1.39134 -0.740242 0
M  V30 5593 C 525.688 -1.37217 -1.83587 0
M  V30 5594 C 526.688 -0.270221 -1.58513 0
M  V30 5595 O 527.878 -0.527843 -1.6601 0
M  V30 5596 C 525.01 -1.13959 -3.21288 0
M  V30 5597 H 526.203 -2.34705 -1.86691 0
M  V30 5598 H 523.756 -1.24622 -0.94335 0
M  V30 5599 H 524.491 -0.17131 -3.23847 0
M  V30 5600 H 524.276 -1.93754 -3.40884 0
M  V30 5601 H 525.766 -1.15346 -4.01354 0
M  V30 5602 N 526.204 0.969867 -1.24223 0
M  V30 5603 C 527.481 1.68774 -0.988664 0
M  V30 5604 C 527.861 2.05342 0.489673 0
M  V30 5605 O 527.209 1.75486 1.46345 0
M  V30 5606 C 527.419 2.92135 -1.90941 0
M  V30 5607 C 528.767 3.64422 -2.17903 0
M  V30 5608 O 529.791 3.02188 -1.88576 0
M  V30 5609 O 528.65 4.76446 -2.67697 0
M  V30 5610 H 525.744 0.737736 -0.37373 0
M  V30 5611 H 528.29 1.02415 -1.35312 0
M  V30 5612 H 527.062 2.61788 -2.90831 0
M  V30 5613 H 526.685 3.66228 -1.54798 0
M  V30 5614 N 527.682 1.05563 1.17022 0
M  V30 5615 C 528.612 0.681026 2.23348 0
M  V30 5616 C 529.593 -0.322983 1.67005 0
M  V30 5617 O 530.778 -0.199746 1.9317 0
M  V30 5618 C 527.908 0.0589053 3.4725 0
M  V30 5619 C 526.862 0.988082 4.16438 0
M  V30 5620 C 526.188 0.229646 5.34207 0
M  V30 5621 C 527.488 2.31388 4.68249 0
M  V30 5622 H 529.182 1.56993 2.54938 0
M  V30 5623 H 526.728 0.756302 1.2254 0
M  V30 5624 H 528.681 -0.214982 4.20851 0
M  V30 5625 H 527.405 -0.864968 3.14938 0
M  V30 5626 H 526.064 1.24659 3.44754 0
M  V30 5627 H 525.712 -0.697111 4.98146 0
M  V30 5628 H 525.412 0.848815 5.81437 0
M  V30 5629 H 526.936 -0.0368694 6.10589 0
M  V30 5630 H 528.35 2.09964 5.33468 0
M  V30 5631 H 526.747 2.88736 5.26072 0
M  V30 5632 H 527.817 2.94982 3.84855 0
M  V30 5633 O 529.199 -1.28981 0.971914 0
M  V30 5634 H 529.89 -1.83759 0.612547 0
M  V30 END ATOM
M  V30 BEGIN BOND
M  V30 END BOND
M  V30 END CTAB
M  END
$$$$
