drugbank_target|O60656 UDP-glucuronosyltransferase 1-9 (DB04552; DB04824)
 OpenBabel12092120343D

  0  0  0     0  0            999 V3000
M  V30 BEGIN CTAB
M  V30 COUNTS 8443 8554 0 0 0
M  V30 BEGIN ATOM
M  V30 1 H -0.908 1.98254 -0.117106 0
M  V30 2 N 0 1.576 0 0
M  V30 3 C 0.933 2.03868 1.02534 0
M  V30 4 C 1.911 0.928543 1.3348 0
M  V30 5 O 3.095 1.19667 1.45644 0
M  V30 6 C 0.222 2.43627 2.35294 0
M  V30 7 C -0.732 3.65373 2.2001 0
M  V30 8 S 0.101 5.13292 1.52614 0
M  V30 9 C 1.257 5.56322 2.86805 0
M  V30 10 H 1.49 2.90518 0.631377 0
M  V30 11 H -0.977 1.52953 0.210867 0
M  V30 12 H 0.981 2.67203 3.11629 0
M  V30 13 H -0.358 1.57376 2.7183 0
M  V30 14 H -1.165 3.90944 3.18086 0
M  V30 15 H -1.563 3.418 1.51819 0
M  V30 16 H 0.729 5.58782 3.83104 0
M  V30 17 H 1.672 6.56266 2.65933 0
M  V30 18 H 2.08 4.83886 2.90714 0
M  V30 19 N 1.4781 -0.272755 1.55222 0
M  V30 20 C 2.4411 -1.32041 1.87344 0
M  V30 21 C 3.4411 -1.42342 0.74803 0
M  V30 22 O 4.6311 -1.41488 1.0162 0
M  V30 23 C 1.7631 -2.70173 2.07893 0
M  V30 24 H 2.9561 -1.04789 2.80997 0
M  V30 25 H 0.5091 -0.51083 1.47717 0
M  V30 26 H 1.2441 -3.02605 1.16622 0
M  V30 27 H 1.0291 -2.64082 2.89833 0
M  V30 28 H 2.5191 -3.45869 2.34017 0
M  V30 29 N 2.9562 -1.48159 -0.537278 0
M  V30 30 C 4.1962 -1.57397 -1.30405 0
M  V30 31 C 4.5602 -0.239202 -1.90504 0
M  V30 32 O 5.7612 -0.206528 -2.68005 0
M  V30 33 C 4.0322 -2.6754 -2.36974 0
M  V30 34 S 5.5912 -2.96496 -3.23475 0
M  V30 35 H 2.4092 -0.555577 -0.443684 0
M  V30 36 H 5.0112 -1.85644 -0.612912 0
M  V30 37 H 3.7152 -3.63092 -1.91291 0
M  V30 38 H 3.2462 -2.41172 -3.10805 0
M  V30 39 H 5.2612 -2.35234 -4.36897 0
M  V30 40 N 4.4343 0.785586 -1.36625 0
M  V30 41 C 5.6623 1.57448 -1.3423 0
M  V30 42 C 6.0773 1.88649 0.0755653 0
M  V30 43 O 5.4343 1.50414 1.03354 0
M  V30 44 C 5.4853 2.89316 -2.16745 0
M  V30 45 O 5.2063 2.59459 -3.53005 0
M  V30 46 C 6.7073 3.83606 -2.22174 0
M  V30 47 H 3.9273 0.488226 -0.4603 0
M  V30 48 H 6.4713 0.974733 -1.79775 0
M  V30 49 H 4.6263 3.4575 -1.74745 0
M  V30 50 H 5.0403 3.43804 -3.96105 0
M  V30 51 H 6.5143 4.73181 -2.8426 0
M  V30 52 H 6.9913 4.21734 -1.22627 0
M  V30 53 H 7.5973 3.33104 -2.64427 0
M  V30 54 N 5.9124 1.20967 1.01018 0
M  V30 55 C 7.1604 1.02172 1.74371 0
M  V30 56 C 7.4814 -0.446414 1.89821 0
M  V30 57 O 6.7514 -1.32234 1.44537 0
M  V30 58 H 5.3314 0.375066 0.646014 0
M  V30 59 H 7.9934 1.52187 1.21758 0
M  V30 60 H 7.0894 1.48538 2.74487 0
M  V30 61 N 7.3905 -1.2043 1.01659 0
M  V30 62 C 8.6365 -1.90356 0.716674 0
M  V30 63 C 8.9915 -1.77367 -0.745557 0
M  V30 64 O 8.2845 -1.1471 -1.53467 0
M  V30 65 C 8.4785 -3.40464 1.08714 0
M  V30 66 C 8.3075 -3.6806 2.58384 0
M  V30 67 C 7.0775 -3.86775 3.25167 0
M  V30 68 C 9.2755 -3.70623 3.56572 0
M  V30 69 N 7.2575 -4.01889 4.64067 0
M  V30 70 C 8.6285 -3.91161 4.81034 0
M  V30 71 C 10.6835 -3.53586 3.50544 0
M  V30 72 C 9.3865 -3.96428 6.00198 0
M  V30 73 C 11.4125 -3.60125 4.6911 0
M  V30 74 C 10.7745 -3.81135 5.92381 0
M  V30 75 H 6.8735 -0.716226 0.313918 0
M  V30 76 H 9.4575 -1.44815 1.30141 0
M  V30 77 H 7.6285 -3.84757 0.530745 0
M  V30 78 H 9.3605 -3.97863 0.740763 0
M  V30 79 H 6.1155 -3.85156 2.75594 0
M  V30 80 H 6.5395 -4.13323 5.36184 0
M  V30 81 H 11.1815 -3.36308 2.56235 0
M  V30 82 H 8.8995 -4.12502 6.94887 0
M  V30 83 H 12.4855 -3.4825 4.66062 0
M  V30 84 H 11.3655 -3.86054 6.82592 0
M  V30 85 N 8.8686 -0.792821 -1.36206 0
M  V30 86 C 10.0966 -0.378825 -2.03402 0
M  V30 87 C 10.5116 1.00586 -1.59774 0
M  V30 88 O 9.8686 1.64574 -0.788764 0
M  V30 89 C 9.9196 -0.43683 -3.58851 0
M  V30 90 O 9.6406 -1.76691 -4.00889 0
M  V30 91 C 11.1416 -0.0138943 -4.43298 0
M  V30 92 H 8.3616 -0.155673 -0.652692 0
M  V30 93 H 10.9056 -1.07261 -1.74113 0
M  V30 94 H 9.0606 0.208575 -3.86838 0
M  V30 95 H 9.4746 -1.72011 -4.95492 0
M  V30 96 H 10.9486 -0.105615 -5.51899 0
M  V30 97 H 11.4256 1.03915 -4.2673 0
M  V30 98 H 12.0316 -0.63192 -4.20579 0
M  V30 99 N 10.3467 1.47872 -0.545128 0
M  V30 100 C 11.5717 2.07391 -0.0190611 0
M  V30 101 C 11.9967 1.39688 1.25971 0
M  V30 102 O 11.3547 0.467816 1.7516 0
M  V30 103 C 11.4027 3.60188 0.172335 0
M  V30 104 O 10.5067 3.9339 1.23766 0
M  V30 105 H 9.8477 0.662411 -0.0459059 0
M  V30 106 H 12.3777 1.90066 -0.757365 0
M  V30 107 H 12.3877 4.06129 0.390305 0
M  V30 108 H 11.0627 4.08865 -0.761725 0
M  V30 109 H 9.6397 3.5921 1.00114 0
M  V30 110 N 11.8248 0.280983 1.55075 0
M  V30 111 C 13.2358 -0.215629 1.85451 0
M  V30 112 C 13.5868 -1.54991 1.203 0
M  V30 113 O 12.7118 -2.10699 0.493435 0
M  V30 114 C 13.3068 -0.398026 3.36454 0
M  V30 115 C 11.8658 -0.838866 3.66933 0
M  V30 116 C 11.0128 0.064458 2.77225 0
M  V30 117 H 13.9638 0.502601 1.50531 0
M  V30 118 H 13.9848 -1.23569 3.59876 0
M  V30 119 H 13.4968 0.573241 3.83843 0
M  V30 120 H 11.5978 -1.8214 3.25048 0
M  V30 121 H 11.7108 -0.672123 4.74362 0
M  V30 122 H 10.0748 -0.452863 2.50642 0
M  V30 123 H 10.8578 1.03172 3.2743 0
M  V30 124 N 13.3029 -1.57598 0.00835791 0
M  V30 125 C 14.2329 -2.1198 -0.979113 0
M  V30 126 C 15.2139 -1.03091 -1.35301 0
M  V30 127 O 16.3989 -1.30818 -1.43528 0
M  V30 128 C 13.5289 -2.62995 -2.26828 0
M  V30 129 C 12.4829 -3.76485 -2.03576 0
M  V30 130 C 11.8089 -4.13846 -3.38579 0
M  V30 131 C 13.1089 -5.0342 -1.39161 0
M  V30 132 H 14.8029 -2.94738 -0.526281 0
M  V30 133 H 12.3489 -1.41783 -0.251704 0
M  V30 134 H 14.3019 -2.99669 -2.96271 0
M  V30 135 H 13.0259 -1.7737 -2.7424 0
M  V30 136 H 11.6849 -3.40217 -1.36557 0
M  V30 137 H 11.3329 -3.25232 -3.83709 0
M  V30 138 H 11.0329 -4.90312 -3.23834 0
M  V30 139 H 12.5569 -4.53086 -4.09323 0
M  V30 140 H 13.9709 -5.37812 -1.98573 0
M  V30 141 H 12.3679 -5.84746 -1.34878 0
M  V30 142 H 13.4379 -4.83548 -0.361868 0
M  V30 143 N 14.781 0.264519 -1.55364 0
M  V30 144 C 16.192 0.834936 -1.6699 0
M  V30 145 C 16.543 1.86718 -0.602552 0
M  V30 146 O 15.668 2.14899 0.254425 0
M  V30 147 C 16.263 1.5212 -3.02729 0
M  V30 148 C 14.822 2.03954 -3.16354 0
M  V30 149 C 13.969 0.884498 -2.62815 0
M  V30 150 H 16.92 0.0406869 -1.58648 0
M  V30 151 H 16.941 2.38853 -2.96191 0
M  V30 152 H 16.453 0.769668 -3.80392 0
M  V30 153 H 14.554 2.82041 -2.43482 0
M  V30 154 H 14.667 2.24902 -4.23032 0
M  V30 155 H 13.031 1.2802 -2.20188 0
M  V30 156 H 13.814 0.14634 -3.42988 0
M  V30 157 N 16.2591 1.48442 0.529413 0
M  V30 158 C 17.1891 1.65902 1.64313 0
M  V30 159 C 18.1701 0.507897 1.6234 0
M  V30 160 O 19.3551 0.740503 1.79528 0
M  V30 161 C 16.4851 1.69911 3.02898 0
M  V30 162 C 15.4391 2.8453 3.19729 0
M  V30 163 C 14.7651 2.73629 4.59381 0
M  V30 164 C 16.0651 4.25821 3.02447 0
M  V30 165 H 17.7591 2.5914 1.49955 0
M  V30 166 H 15.3051 1.24709 0.719982 0
M  V30 167 H 17.2581 1.80715 3.80684 0
M  V30 168 H 15.9821 0.732524 3.18279 0
M  V30 169 H 14.6411 2.73283 2.44361 0
M  V30 170 H 14.2891 1.74938 4.71599 0
M  V30 171 H 13.9891 3.50541 4.71588 0
M  V30 172 H 15.5131 2.86401 5.39265 0
M  V30 173 H 16.9271 4.37898 3.70024 0
M  V30 174 H 15.3241 5.03735 3.26146 0
M  V30 175 H 16.3941 4.42244 1.98867 0
M  V30 176 N 17.7372 -0.778329 1.37039 0
M  V30 177 C 18.9772 -1.54973 1.33276 0
M  V30 178 C 19.3412 -1.91816 -0.0839376 0
M  V30 179 O 20.5422 -2.6767 -0.246228 0
M  V30 180 C 18.8132 -2.78517 2.23971 0
M  V30 181 S 20.3722 -3.6865 2.37997 0
M  V30 182 H 17.1902 -0.530639 0.473226 0
M  V30 183 H 19.7922 -0.915806 1.72723 0
M  V30 184 H 18.4962 -2.4952 3.25835 0
M  V30 185 H 18.0272 -3.46875 1.85584 0
M  V30 186 H 20.0422 -4.70182 1.58567 0
M  V30 187 N 19.2153 -1.21501 -1.00376 0
M  V30 188 C 20.4613 -1.03452 -1.74429 0
M  V30 189 C 20.7943 0.430764 -1.89362 0
M  V30 190 O 20.0693 1.31962 -1.42886 0
M  V30 191 C 20.3523 -1.73375 -3.15615 0
M  V30 192 C 20.2053 -3.27431 -3.08397 0
M  V30 193 C 21.5243 -1.47732 -4.14564 0
M  V30 194 H 18.6433 -0.377226 -0.633143 0
M  V30 195 H 21.2853 -1.49693 -1.17013 0
M  V30 196 H 19.4353 -1.34064 -3.64636 0
M  V30 197 H 21.1073 -3.76119 -2.67081 0
M  V30 198 H 19.3503 -3.5767 -2.45468 0
M  V30 199 H 20.0213 -3.71524 -4.08258 0
M  V30 200 H 22.4973 -1.8186 -3.74254 0
M  V30 201 H 21.3733 -1.99169 -5.11491 0
M  V30 202 H 21.6343 -0.407589 -4.40217 0
M  V30 203 N 20.6934 1.19889 -1.02296 0
M  V30 204 C 21.9334 1.91125 -0.724602 0
M  V30 205 C 22.2974 1.77464 0.732835 0
M  V30 206 O 23.4984 2.43241 1.144 0
M  V30 207 C 21.7694 3.38187 -1.15604 0
M  V30 208 S 23.3284 4.27702 -0.980621 0
M  V30 209 H 20.1464 0.66018 -0.263976 0
M  V30 210 H 22.7484 1.44978 -1.31155 0
M  V30 211 H 21.4524 3.45653 -2.21251 0
M  V30 212 H 20.9834 3.89363 -0.562131 0
M  V30 213 H 22.9984 4.96073 0.112225 0
M  V30 214 N 22.1715 0.800033 1.35784 0
M  V30 215 C 23.1015 0.220184 2.3246 0
M  V30 216 C 24.0825 -0.65073 1.57161 0
M  V30 217 O 25.2675 -0.582359 1.85263 0
M  V30 218 C 22.3975 -0.637353 3.41402 0
M  V30 219 C 21.3515 0.134531 4.27789 0
M  V30 220 C 20.6775 -0.844285 5.27992 0
M  V30 221 C 21.9775 1.32979 5.05088 0
M  V30 222 H 23.6715 1.02787 2.81203 0
M  V30 223 H 21.2175 0.495717 1.35199 0
M  V30 224 H 23.1705 -1.05302 4.08031 0
M  V30 225 H 21.8945 -1.47785 2.91251 0
M  V30 226 H 20.5535 0.531296 3.6273 0
M  V30 227 H 20.2015 -1.68011 4.74111 0
M  V30 228 H 19.9015 -0.332184 5.8666 0
M  V30 229 H 21.4255 -1.2583 5.97494 0
M  V30 230 H 22.8395 0.98934 5.64699 0
M  V30 231 H 21.2365 1.77593 5.7322 0
M  V30 232 H 22.3065 2.11978 4.36111 0
M  V30 233 N 23.6496 -1.47581 0.552962 0
M  V30 234 C 24.5796 -2.32762 -0.185451 0
M  V30 235 C 25.5606 -1.43527 -0.912905 0
M  V30 236 O 26.7456 -1.72388 -0.894201 0
M  V30 237 C 23.8756 -3.25219 -1.21859 0
M  V30 238 C 22.8296 -4.23661 -0.607864 0
M  V30 239 C 22.1556 -5.05413 -1.74533 0
M  V30 240 C 23.4556 -5.20481 0.435582 0
M  V30 241 H 25.1496 -2.94749 0.525684 0
M  V30 242 H 22.6956 -1.41738 0.254251 0
M  V30 243 H 24.6486 -3.8365 -1.7433 0
M  V30 244 H 23.3726 -2.61279 -1.95961 0
M  V30 245 H 22.0316 -3.66451 -0.104489 0
M  V30 246 H 21.6796 -4.3788 -2.47529 0
M  V30 247 H 21.3796 -5.72059 -1.34249 0
M  V30 248 H 22.9036 -5.66701 -2.27338 0
M  V30 249 H 24.3176 -5.733 -0.00290157 0
M  V30 250 H 22.7146 -5.95305 0.757067 0
M  V30 251 H 23.7846 -4.66217 1.33303 0
M  V30 252 N 25.1277 -0.289203 -1.54924 0
M  V30 253 C 26.0577 0.58549 -2.2604 0
M  V30 254 C 27.0387 1.14753 -1.25562 0
M  V30 255 O 28.2237 1.17906 -1.54311 0
M  V30 256 C 25.3537 1.76305 -2.99222 0
M  V30 257 C 24.3077 1.33191 -4.06748 0
M  V30 258 C 23.6337 2.5937 -4.6758 0
M  V30 259 C 24.9337 0.471775 -5.20165 0
M  V30 260 H 26.6277 -0.00763532 -2.99399 0
M  V30 261 H 24.1737 -0.00511229 -1.43999 0
M  V30 262 H 26.1267 2.38097 -3.47689 0
M  V30 263 H 24.8507 2.38223 -2.23422 0
M  V30 264 H 23.5097 0.737121 -3.59113 0
M  V30 265 H 23.1577 3.19576 -3.88433 0
M  V30 266 H 22.8577 2.31228 -5.40192 0
M  V30 267 H 24.3817 3.21985 -5.18804 0
M  V30 268 H 25.7957 0.995056 -5.64599 0
M  V30 269 H 24.1927 0.284639 -5.99425 0
M  V30 270 H 25.2627 -0.506041 -4.82252 0
M  V30 271 N 26.6058 1.57591 -0.0167156 0
M  V30 272 C 27.8338 1.95575 0.675128 0
M  V30 273 C 28.2488 0.892542 1.6637 0
M  V30 274 O 27.6058 -0.126912 1.82058 0
M  V30 275 C 27.6568 3.33608 1.39239 0
M  V30 276 O 27.3778 4.3585 0.443444 0
M  V30 277 C 28.8788 3.86151 2.17721 0
M  V30 278 H 26.0988 0.644423 0.186978 0
M  V30 279 H 28.6428 2.0437 -0.0728 0
M  V30 280 H 26.7978 3.2607 2.09182 0
M  V30 281 H 27.2118 5.158 0.951358 0
M  V30 282 H 28.6858 4.85114 2.63379 0
M  V30 283 H 29.1628 3.19738 3.01105 0
M  V30 284 H 29.7688 3.96918 1.52761 0
M  V30 285 N 28.0839 -0.256276 1.55502 0
M  V30 286 C 29.3239 -0.993081 1.78654 0
M  V30 287 C 29.6879 -1.8288 0.584724 0
M  V30 288 O 30.8889 -2.59665 0.694822 0
M  V30 289 C 29.1599 -1.83856 3.06483 0
M  V30 290 S 30.7189 -2.63573 3.5082 0
M  V30 291 H 27.5369 -0.334199 0.62756 0
M  V30 292 H 30.1389 -0.26184 1.93739 0
M  V30 293 H 28.8429 -1.21414 3.92029 0
M  V30 294 H 28.3739 -2.61271 2.94111 0
M  V30 295 H 30.3889 -3.86312 3.11412 0
M  V30 296 N 29.562 -1.4872 -0.521534 0
M  V30 297 C 30.81 -1.56857 -1.27437 0
M  V30 298 C 31.131 -0.247982 -1.93417 0
M  V30 299 O 30.401 0.731151 -1.81744 0
M  V30 300 H 28.981 -0.577885 -0.473347 0
M  V30 301 H 31.643 -1.85233 -0.606205 0
M  V30 302 H 30.739 -2.35402 -2.0492 0
M  V30 303 N 31.0401 0.771051 -1.3745 0
M  V30 304 C 32.2871 1.52963 -1.32697 0
M  V30 305 C 32.6151 1.94299 0.0883274 0
M  V30 306 O 31.8701 1.64397 1.0617 0
M  V30 307 C 32.1691 2.80676 -2.2126 0
M  V30 308 C 31.8351 2.58389 -3.69521 0
M  V30 309 C 30.4971 2.52019 -4.09927 0
M  V30 310 C 32.8491 2.38469 -4.63446 0
M  V30 311 C 30.1771 2.23721 -5.42371 0
M  V30 312 C 32.5291 2.11694 -5.96128 0
M  V30 313 C 31.1931 2.03769 -6.35637 0
M  V30 314 H 30.4631 0.559732 -0.485573 0
M  V30 315 H 33.1101 0.888083 -1.69662 0
M  V30 316 H 31.4151 3.49392 -1.77291 0
M  V30 317 H 33.1121 3.38557 -2.14895 0
M  V30 318 H 29.7021 2.6421 -3.37478 0
M  V30 319 H 33.8861 2.4238 -4.33089 0
M  V30 320 H 29.1421 2.16081 -5.71943 0
M  V30 321 H 33.3161 1.9528 -6.6846 0
M  V30 322 H 30.9431 1.81606 -7.38189 0
M  V30 323 N 32.5182 1.22032 0.997298 0
M  V30 324 C 33.4812 0.987909 2.06816 0
M  V30 325 C 34.4812 -0.0440084 1.6074 0
M  V30 326 O 35.6712 0.194053 1.73116 0
M  V30 327 C 32.8032 0.49132 3.37341 0
M  V30 328 H 33.9962 1.93803 2.28868 0
M  V30 329 H 31.5492 1.03838 1.16822 0
M  V30 330 H 32.2842 -0.463364 3.20973 0
M  V30 331 H 32.0692 1.23575 3.72118 0
M  V30 332 H 33.5592 0.348824 4.16141 0
M  V30 333 N 33.9963 -1.19345 1.0293 0
M  V30 334 C 34.9063 -2.26245 0.620515 0
M  V30 335 C 35.9223 -1.70486 -0.347928 0
M  V30 336 O 37.0983 -2.00347 -0.205704 0
M  V30 337 C 34.1633 -3.46693 -0.0218957 0
M  V30 338 C 33.2243 -4.17632 0.994102 0
M  V30 339 C 32.4573 -5.32329 0.382253 0
M  V30 340 O 32.6803 -5.64552 -0.814676 0
M  V30 341 O 31.6143 -5.91664 1.10531 0
M  V30 342 H 35.4403 -2.63453 1.51083 0
M  V30 343 H 33.0253 -1.26207 0.799513 0
M  V30 344 H 34.9073 -4.19683 -0.380072 0
M  V30 345 H 33.5823 -3.11333 -0.886209 0
M  V30 346 H 32.4893 -3.4676 1.40387 0
M  V30 347 H 33.8223 -4.56964 1.8288 0
M  V30 348 N 35.4744 -0.807222 -1.35358 0
M  V30 349 C 36.4374 -0.223665 -2.28106 0
M  V30 350 C 37.4374 0.589354 -1.4961 0
M  V30 351 O 38.6274 0.407745 -1.69361 0
M  V30 352 C 35.7594 0.688149 -3.33882 0
M  V30 353 H 36.9524 -1.04169 -2.81227 0
M  V30 354 H 34.5054 -0.577921 -1.45223 0
M  V30 355 H 35.2404 1.52984 -2.85948 0
M  V30 356 H 35.0254 0.10687 -3.91954 0
M  V30 357 H 36.5154 1.09075 -4.03104 0
M  V30 358 N 36.9525 1.47285 -0.560781 0
M  V30 359 C 38.2005 2.02064 -0.0379868 0
M  V30 360 C 38.5215 1.43711 1.31803 0
M  V30 361 O 37.7915 0.61362 1.86042 0
M  V30 362 H 36.3715 0.746918 -0.0110531 0
M  V30 363 H 39.0335 1.80648 -0.731598 0
M  V30 364 H 38.1295 3.12064 0.0474463 0
M  V30 365 N 38.4306 0.297415 1.54768 0
M  V30 366 C 39.3776 -0.580276 2.23386 0
M  V30 367 C 40.3476 -1.13238 1.21517 0
M  V30 368 O 41.5326 -1.17757 1.50126 0
M  V30 369 C 38.6726 -1.74801 2.97555 0
M  V30 370 C 37.7856 -1.22764 4.1419 0
M  V30 371 C 36.9206 -2.35895 4.75949 0
M  V30 372 C 35.9596 -1.80974 5.84735 0
M  V30 373 N 35.0966 -2.87664 6.40464 0
M  V30 374 H 39.9366 0.0114833 2.97998 0
M  V30 375 H 37.4736 0.0174361 1.4709 0
M  V30 376 H 39.4316 -2.43475 3.38786 0
M  V30 377 H 38.0616 -2.31145 2.25326 0
M  V30 378 H 37.1136 -0.433271 3.77924 0
M  V30 379 H 38.4256 -0.785551 4.92575 0
M  V30 380 H 37.5796 -3.12523 5.20014 0
M  V30 381 H 36.3186 -2.83429 3.96887 0
M  V30 382 H 35.3236 -1.02834 5.40097 0
M  V30 383 H 36.5486 -1.34348 6.65678 0
M  V30 384 H 34.4946 -3.34538 5.64287 0
M  V30 385 H 34.4116 -2.4794 7.14186 0
M  V30 386 H 35.6796 -3.642 6.89187 0
M  V30 387 N 39.9087 -1.5758 0.0250728 0
M  V30 388 C 40.8387 -2.13007 -0.956575 0
M  V30 389 C 41.8197 -1.0452 -1.342 0
M  V30 390 O 43.0047 -1.32332 -1.42133 0
M  V30 391 C 40.1347 -2.65386 -2.24026 0
M  V30 392 C 39.0887 -3.78623 -1.99571 0
M  V30 393 C 38.4147 -4.17414 -3.3417 0
M  V30 394 C 39.7147 -5.04867 -1.33814 0
M  V30 395 H 41.4087 -2.9528 -0.494991 0
M  V30 396 H 38.9547 -1.42042 -0.236651 0
M  V30 397 H 40.9077 -3.02794 -2.93076 0
M  V30 398 H 39.6317 -1.80268 -2.72343 0
M  V30 399 H 38.2907 -3.41646 -1.32941 0
M  V30 400 H 37.9387 -3.29284 -3.80238 0
M  V30 401 H 37.6387 -4.93719 -3.18615 0
M  V30 402 H 39.1627 -4.57402 -4.04495 0
M  V30 403 H 40.5767 -5.39888 -1.92857 0
M  V30 404 H 38.9737 -5.86144 -1.28669 0
M  V30 405 H 40.0437 -4.83904 -0.310561 0
M  V30 406 N 41.3868 0.248026 -1.55636 0
M  V30 407 C 42.3168 1.31079 -1.93237 0
M  V30 408 C 43.2978 1.50264 -0.797174 0
M  V30 409 O 44.4828 1.62891 -1.05737 0
M  V30 410 C 41.6128 2.66575 -2.22609 0
M  V30 411 C 40.5668 2.62087 -3.3837 0
M  V30 412 C 39.8928 4.01369 -3.53281 0
M  V30 413 C 41.1928 2.19171 -4.7409 0
M  V30 414 H 42.8868 0.998556 -2.82257 0
M  V30 415 H 40.4328 0.47891 -1.35803 0
M  V30 416 H 42.3858 3.41057 -2.47503 0
M  V30 417 H 41.1098 2.99432 -1.30414 0
M  V30 418 H 39.7688 1.90063 -3.13483 0
M  V30 419 H 39.4168 4.31489 -2.58508 0
M  V30 420 H 39.1168 3.99254 -4.31127 0
M  V30 421 H 40.6408 4.77552 -3.80495 0
M  V30 422 H 42.0548 2.83384 -4.98363 0
M  V30 423 H 40.4518 2.2817 -5.5503 0
M  V30 424 H 41.5218 1.14336 -4.71227 0
M  V30 425 N 42.8649 1.48995 0.513639 0
M  V30 426 C 44.1109 1.58076 1.27042 0
M  V30 427 C 44.4439 0.261026 1.92438 0
M  V30 428 O 43.7189 -0.734393 1.80103 0
M  V30 429 C 44.0019 2.73091 2.34719 0
M  V30 430 C 43.8549 4.14821 1.73907 0
M  V30 431 C 45.1739 2.83796 3.36375 0
M  V30 432 H 42.2929 0.575391 0.460536 0
M  V30 433 H 44.9349 1.81232 0.570516 0
M  V30 434 H 43.0849 2.53479 2.94416 0
M  V30 435 H 44.7569 4.45917 1.18135 0
M  V30 436 H 42.9999 4.21058 1.0437 0
M  V30 437 H 43.6709 4.91147 2.51949 0
M  V30 438 H 46.1469 3.01611 2.86653 0
M  V30 439 H 45.0229 3.65971 4.09093 0
M  V30 440 H 45.2839 1.92624 3.9793 0
M  V30 441 N 44.343 -0.763751 1.37857 0
M  V30 442 C 45.589 -1.52483 1.33704 0
M  V30 443 C 45.922 -1.94051 -0.0759612 0
M  V30 444 O 45.197 -1.64675 -1.03501 0
M  V30 445 C 45.48 -2.78441 2.28348 0
M  V30 446 C 45.333 -2.43075 3.78463 0
M  V30 447 C 46.652 -3.80415 2.21298 0
M  V30 448 H 43.771 -0.553169 0.487005 0
M  V30 449 H 46.413 -0.875562 1.68624 0
M  V30 450 H 44.563 -3.33842 1.987 0
M  V30 451 H 46.235 -1.93527 4.18742 0
M  V30 452 H 44.478 -1.75666 3.96641 0
M  V30 453 H 45.149 -3.33149 4.40132 0
M  V30 454 H 47.625 -3.34527 2.47449 0
M  V30 455 H 46.501 -4.66257 2.89647 0
M  V30 456 H 46.762 -4.25262 1.20849 0
M  V30 457 N 45.8211 -1.22559 -0.990812 0
M  V30 458 C 47.2321 -1.04791 -1.54518 0
M  V30 459 C 47.5831 0.387998 -1.92325 0
M  V30 460 O 46.7081 1.27328 -1.74976 0
M  V30 461 C 47.3031 -1.896 -2.80779 0
M  V30 462 C 45.8621 -1.76124 -3.32652 0
M  V30 463 C 45.0091 -1.8594 -2.05722 0
M  V30 464 H 47.9601 -1.36374 -0.811662 0
M  V30 465 H 47.9811 -1.41464 -3.53225 0
M  V30 466 H 47.4931 -2.94101 -2.53231 0
M  V30 467 H 45.5941 -0.743643 -3.65104 0
M  V30 468 H 45.7071 -2.58913 -4.03114 0
M  V30 469 H 44.0711 -1.29403 -2.19379 0
M  V30 470 H 44.8541 -2.91976 -1.80568 0
M  V30 471 N 47.2992 1.18797 -1.03562 0
M  V30 472 C 48.2322 2.2105 -0.56676 0
M  V30 473 C 49.2102 1.57704 0.395993 0
M  V30 474 O 50.3942 1.85908 0.311498 0
M  V30 475 C 47.5212 3.38259 0.172704 0
M  V30 476 C 46.5672 4.19987 -0.74252 0
M  V30 477 S 47.4002 4.87199 -2.22254 0
M  V30 478 C 48.5562 6.07813 -1.49379 0
M  V30 479 H 48.7892 2.60478 -1.43312 0
M  V30 480 H 46.3222 1.29151 -0.846133 0
M  V30 481 H 48.2802 4.06191 0.593191 0
M  V30 482 H 46.9412 2.97252 1.01488 0
M  V30 483 H 46.1342 5.03709 -0.171265 0
M  V30 484 H 45.7362 3.57408 -1.10163 0
M  V30 485 H 48.0282 6.72948 -0.784056 0
M  V30 486 H 48.9712 6.69435 -2.30786 0
M  V30 487 H 49.3792 5.55781 -0.988331 0
M  V30 488 N 48.7773 0.814389 1.34928 0
M  V30 489 C 50.0543 0.321363 1.92942 0
M  V30 490 C 50.4343 -1.19014 1.74353 0
M  V30 491 O 49.7823 -1.99328 1.11716 0
M  V30 492 C 49.9923 0.741323 3.41036 0
M  V30 493 C 51.3403 0.735266 4.18185 0
M  V30 494 O 52.3643 0.68336 3.49584 0
M  V30 495 O 51.2233 0.800703 5.40602 0
M  V30 496 H 48.3173 0.0858893 0.822528 0
M  V30 497 H 50.8633 0.898609 1.43955 0
M  V30 498 H 49.6353 1.78276 3.4833 0
M  V30 499 H 49.2583 0.139307 3.97356 0
M  V30 500 N 50.2554 -1.46986 0.568584 0
M  V30 501 C 51.5034 -2.02041 0.0487022 0
M  V30 502 C 51.8244 -1.44408 -1.31039 0
M  V30 503 O 51.0944 -0.623477 -1.85714 0
M  V30 504 H 49.6744 -0.746849 0.015014 0
M  V30 505 H 52.3364 -1.80257 0.741168 0
M  V30 506 H 51.4324 -3.12085 -0.0308961 0
M  V30 507 N 51.7335 -0.305618 -1.54608 0
M  V30 508 C 52.9585 0.307562 -2.05107 0
M  V30 509 C 53.3835 1.46385 -1.18123 0
M  V30 510 O 52.7415 1.8034 -0.186324 0
M  V30 511 C 52.7895 0.73704 -3.52987 0
M  V30 512 O 51.8935 1.84134 -3.6901 0
M  V30 513 H 51.2345 0.0589143 -0.661381 0
M  V30 514 H 53.7645 -0.448807 -1.99617 0
M  V30 515 H 53.7745 1.02459 -3.94925 0
M  V30 516 H 52.4495 -0.108773 -4.15758 0
M  V30 517 H 51.0265 1.55398 -3.38978 0
M  V30 518 N 53.2116 1.57565 -0.0334293 0
M  V30 519 C 54.1616 2.06978 0.956237 0
M  V30 520 C 55.1456 0.971193 1.28283 0
M  V30 521 O 56.3376 1.23471 1.26822 0
M  V30 522 C 53.4666 2.60393 2.23719 0
M  V30 523 C 52.5526 3.7719 1.93877 0
M  V30 524 N 52.9436 4.87639 1.34321 0
M  V30 525 C 51.2416 3.85758 2.23845 0
M  V30 526 C 51.9426 5.68825 1.21709 0
M  V30 527 N 50.9186 5.1587 1.71404 0
M  V30 528 H 54.7206 2.89773 0.490815 0
M  V30 529 H 52.2346 1.61492 0.171478 0
M  V30 530 H 54.2316 2.94088 2.95496 0
M  V30 531 H 52.8916 1.79031 2.70884 0
M  V30 532 H 53.9026 5.07803 1.01767 0
M  V30 533 H 50.5796 3.1531 2.73653 0
M  V30 534 H 51.9696 6.67631 0.75621 0
M  V30 535 N 54.6897 -0.239769 1.55765 0
M  V30 536 C 55.9357 -0.963942 1.79108 0
M  V30 537 C 56.2907 -1.82689 0.60352 0
M  V30 538 O 55.5837 -1.87313 -0.403033 0
M  V30 539 C 55.7777 -1.852 3.05672 0
M  V30 540 C 55.6067 -1.07651 4.36625 0
M  V30 541 C 54.3767 -0.778738 4.99263 0
M  V30 542 C 56.5747 -0.45062 5.12322 0
M  V30 543 N 54.5567 0.0200708 6.13897 0
M  V30 544 C 55.9277 0.212429 6.19636 0
M  V30 545 C 57.9827 -0.361806 4.96584 0
M  V30 546 C 56.6857 0.955772 7.12922 0
M  V30 547 C 58.7117 0.368023 5.90254 0
M  V30 548 C 58.0737 1.01968 6.96981 0
M  V30 549 H 54.1727 -0.333601 0.707272 0
M  V30 550 H 56.7567 -0.236425 1.93259 0
M  V30 551 H 54.9277 -2.55149 2.92837 0
M  V30 552 H 56.6597 -2.51228 3.1728 0
M  V30 553 H 53.4147 -1.09229 4.60832 0
M  V30 554 H 53.8387 0.407777 6.75771 0
M  V30 555 H 58.4807 -0.851286 4.14141 0
M  V30 556 H 56.1987 1.45683 7.9486 0
M  V30 557 H 59.7847 0.437504 5.80153 0
M  V30 558 H 58.6647 1.5754 7.68213 0
M  V30 559 N 56.1678 -1.49265 -0.50573 0
M  V30 560 C 57.4148 -1.58513 -1.26015 0
M  V30 561 C 57.7428 -0.26972 -1.92621 0
M  V30 562 O 56.9978 0.741997 -1.81088 0
M  V30 563 C 57.2968 -2.69008 -2.35308 0
M  V30 564 C 56.9628 -4.10662 -1.86192 0
M  V30 565 C 55.6248 -4.49212 -1.72516 0
M  V30 566 C 57.9768 -4.99336 -1.49375 0
M  V30 567 C 55.3048 -5.74214 -1.20394 0
M  V30 568 C 57.6568 -6.24852 -0.987072 0
M  V30 569 C 56.3208 -6.62236 -0.836669 0
M  V30 570 H 55.5908 -0.580041 -0.461122 0
M  V30 571 H 58.2378 -1.83078 -0.561665 0
M  V30 572 H 56.5428 -2.38396 -3.10926 0
M  V30 573 H 58.2398 -2.73373 -2.93374 0
M  V30 574 H 54.8298 -3.8023 -1.97795 0
M  V30 575 H 59.0138 -4.70212 -1.5879 0
M  V30 576 H 54.2698 -6.01883 -1.07458 0
M  V30 577 H 58.4438 -6.92944 -0.692983 0
M  V30 578 H 56.0708 -7.58979 -0.430607 0
M  V30 579 N 57.6459 0.756429 -1.3826 0
M  V30 580 C 58.8739 1.54565 -1.3754 0
M  V30 581 C 59.2889 1.88767 0.0355331 0
M  V30 582 O 58.6459 1.52572 1.0014 0
M  V30 583 C 58.6969 2.84654 -2.22833 0
M  V30 584 O 58.4179 2.51912 -3.5843 0
M  V30 585 C 59.9189 3.78807 -2.30261 0
M  V30 586 H 57.1389 0.478353 -0.470553 0
M  V30 587 H 59.6829 0.936381 -1.81803 0
M  V30 588 H 57.8379 3.41965 -1.8204 0
M  V30 589 H 58.2519 3.35325 -4.03308 0
M  V30 590 H 59.7259 4.67045 -2.94233 0
M  V30 591 H 60.2029 4.19038 -1.31545 0
M  V30 592 H 60.8089 3.2742 -2.71433 0
M  V30 593 N 59.124 1.23083 0.984299 0
M  V30 594 C 60.057 0.951786 2.07404 0
M  V30 595 C 61.035 -0.10848 1.62238 0
M  V30 596 O 62.219 0.0249467 1.88483 0
M  V30 597 C 59.346 0.433142 3.35919 0
M  V30 598 C 58.392 1.47941 4.0002 0
M  V30 599 S 59.225 3.05556 4.39768 0
M  V30 600 C 60.381 2.55351 5.71442 0
M  V30 601 H 60.614 1.87456 2.30754 0
M  V30 602 H 58.147 1.06284 1.11996 0
M  V30 603 H 60.105 0.140506 4.10259 0
M  V30 604 H 58.766 -0.468656 3.10584 0
M  V30 605 H 57.959 1.06658 4.92585 0
M  V30 606 H 57.561 1.7212 3.3204 0
M  V30 607 H 59.853 1.97128 6.48187 0
M  V30 608 H 60.796 3.46441 6.17563 0
M  V30 609 H 61.204 1.96339 5.29255 0
M  V30 610 N 60.6021 -1.18246 1.0419 0
M  V30 611 C 62.0181 -1.40269 0.761366 0
M  V30 612 C 62.2181 -1.90777 -0.648578 0
M  V30 613 O 61.2741 -2.0929 -1.41258 0
M  V30 614 C 62.5871 -2.40237 1.8085 0
M  V30 615 C 64.1351 -2.53961 1.82955 0
M  V30 616 C 64.6101 -3.57194 2.86664 0
M  V30 617 N 66.1011 -3.64702 2.85563 0
M  V30 618 C 66.8361 -4.44309 3.6246 0
M  V30 619 N 66.3321 -5.27514 4.49111 0
M  V30 620 N 68.1251 -4.39084 3.50944 0
M  V30 621 H 60.2761 -0.837882 1.95175 0
M  V30 622 H 62.5391 -0.430608 0.84456 0
M  V30 623 H 62.2451 -2.10176 2.81991 0
M  V30 624 H 62.1191 -3.39601 1.64168 0
M  V30 625 H 64.5061 -2.83338 0.824855 0
M  V30 626 H 64.5871 -1.54706 2.03715 0
M  V30 627 H 64.2311 -3.28558 3.87314 0
M  V30 628 H 64.1611 -4.5613 2.6316 0
M  V30 629 H 66.6521 -3.05289 2.22727 0
M  V30 630 H 66.9651 -5.85411 5.04493 0
M  V30 631 H 65.3101 -5.2693 4.53178 0
M  V30 632 H 68.5011 -3.7313 2.82651 0
M  V30 633 H 68.6741 -5.00883 4.11121 0
M  V30 634 N 62.0802 -0.821533 -1.34494 0
M  V30 635 C 63.3052 -0.420873 -2.03085 0
M  V30 636 C 63.7302 0.964915 -1.61465 0
M  V30 637 O 63.0882 1.62763 -0.798607 0
M  V30 638 C 63.1362 -0.529414 -3.56693 0
M  V30 639 O 62.2402 0.451302 -4.09923 0
M  V30 640 H 61.5812 -0.173489 -0.640935 0
M  V30 641 H 64.1112 -1.11157 -1.71771 0
M  V30 642 H 64.1212 -0.404671 -4.05988 0
M  V30 643 H 62.7962 -1.54014 -3.86332 0
M  V30 644 H 61.3732 0.285558 -3.71805 0
M  V30 645 N 63.5583 1.46682 -0.576371 0
M  V30 646 C 64.8043 2.02712 -0.0596221 0
M  V30 647 C 65.1373 1.44765 1.29448 0
M  V30 648 O 64.4123 0.610355 1.84675 0
M  V30 649 C 64.6953 3.60098 0.0129503 0
M  V30 650 C 64.5483 4.28441 -1.3696 0
M  V30 651 C 65.8673 4.34224 0.71678 0
M  V30 652 H 62.9863 0.736637 -0.0231407 0
M  V30 653 H 65.6283 1.74898 -0.742351 0
M  V30 654 H 63.7783 3.83926 0.594378 0
M  V30 655 H 65.4503 4.15896 -1.9957 0
M  V30 656 H 63.6933 3.8805 -1.93907 0
M  V30 657 H 64.3643 5.3716 -1.27135 0
M  V30 658 H 66.8403 4.15503 0.222908 0
M  V30 659 H 65.7163 5.43936 0.73657 0
M  V30 660 H 65.9773 4.04823 1.77682 0
M  V30 661 N 65.0364 0.313813 1.54444 0
M  V30 662 C 66.2824 -0.292108 2.00685 0
M  V30 663 C 66.6154 -1.52548 1.20177 0
M  V30 664 O 65.8904 -1.92452 0.281531 0
M  V30 665 C 66.1734 -0.635968 3.5444 0
M  V30 666 C 66.0264 0.607437 4.4568 0
M  V30 667 C 67.3454 -1.45747 4.15266 0
M  V30 668 H 64.4644 -0.104697 0.729526 0
M  V30 669 H 67.1064 0.428457 1.85106 0
M  V30 670 H 65.2564 -1.24986 3.67846 0
M  V30 671 H 66.9284 1.24581 4.44159 0
M  V30 672 H 65.1714 1.23822 4.15753 0
M  V30 673 H 65.8424 0.322515 5.51057 0
M  V30 674 H 68.3184 -0.938645 4.05375 0
M  V30 675 H 67.1944 -1.66683 5.2298 0
M  V30 676 H 67.4554 -2.45063 3.67963 0
M  V30 677 N 66.5145 -1.57545 0.0417849 0
M  V30 678 C 67.4245 -2.14451 -0.951213 0
M  V30 679 C 68.4405 -1.09992 -1.34825 0
M  V30 680 O 69.6165 -1.42114 -1.42708 0
M  V30 681 C 66.6815 -2.67063 -2.21084 0
M  V30 682 C 65.7425 -3.86284 -1.87304 0
M  V30 683 C 64.9755 -4.36378 -3.07261 0
M  V30 684 O 65.1985 -3.85587 -4.20332 0
M  V30 685 O 64.1325 -5.28077 -2.88822 0
M  V30 686 H 67.9585 -2.99601 -0.497287 0
M  V30 687 H 65.5435 -1.48317 -0.179567 0
M  V30 688 H 67.4255 -3.00914 -2.95006 0
M  V30 689 H 66.1005 -1.84989 -2.65633 0
M  V30 690 H 65.0075 -3.57338 -1.10727 0
M  V30 691 H 66.3405 -4.6956 -1.47562 0
M  V30 692 N 67.9926 0.231505 -1.5589 0
M  V30 693 C 68.9396 1.28682 -1.91598 0
M  V30 694 C 69.9096 1.47071 -0.771974 0
M  V30 695 O 71.0946 1.60802 -1.027 0
M  V30 696 C 68.2346 2.6342 -2.22944 0
M  V30 697 C 67.3476 2.52912 -3.50228 0
M  V30 698 C 66.4826 3.80106 -3.7107 0
M  V30 699 C 65.5216 3.64279 -4.91902 0
M  V30 700 N 64.6586 4.834 -5.09184 0
M  V30 701 H 69.4986 0.975305 -2.81588 0
M  V30 702 H 67.0356 0.470299 -1.39379 0
M  V30 703 H 68.9936 3.41869 -2.39126 0
M  V30 704 H 67.6236 2.92687 -1.36139 0
M  V30 705 H 66.6756 1.6595 -3.42294 0
M  V30 706 H 67.9876 2.37133 -4.38827 0
M  V30 707 H 67.1416 4.66999 -3.87295 0
M  V30 708 H 65.8806 3.98799 -2.80733 0
M  V30 709 H 64.8856 2.7577 -4.75637 0
M  V30 710 H 66.1106 3.47067 -5.83714 0
M  V30 711 H 64.0566 5.02425 -4.21788 0
M  V30 712 H 63.9736 4.70311 -5.91898 0
M  V30 713 H 65.2416 5.71747 -5.29835 0
M  V30 714 N 69.4707 1.49531 0.497807 0
M  V30 715 C 70.4007 1.6935 1.60757 0
M  V30 716 C 71.3817 0.542218 1.61227 0
M  V30 717 O 72.5667 0.778417 1.77917 0
M  V30 718 C 69.6967 1.76298 2.99226 0
M  V30 719 C 68.6507 2.91248 3.13622 0
M  V30 720 C 67.9767 2.83312 4.53474 0
M  V30 721 C 69.2767 4.3214 2.93346 0
M  V30 722 H 70.9707 2.62263 1.44425 0
M  V30 723 H 68.5167 1.26208 0.693367 0
M  V30 724 H 70.4697 1.88749 3.76765 0
M  V30 725 H 69.1937 0.799871 3.16654 0
M  V30 726 H 67.8527 2.78404 2.38509 0
M  V30 727 H 67.5007 1.84902 4.67782 0
M  V30 728 H 67.2007 3.60465 4.64046 0
M  V30 729 H 68.7247 2.97775 5.33069 0
M  V30 730 H 70.1387 4.45649 3.60652 0
M  V30 731 H 68.5357 5.1054 3.15387 0
M  V30 732 H 69.6057 4.46363 1.89441 0
M  V30 733 N 70.9488 -0.749086 1.3866 0
M  V30 734 C 72.1978 -1.50371 1.3443 0
M  V30 735 C 72.5108 -1.95503 -0.0616397 0
M  V30 736 O 73.7168 -2.70554 -0.226489 0
M  V30 737 C 72.1728 -2.71644 2.36088 0
M  V30 738 C 71.7808 -2.3352 3.82325 0
M  V30 739 C 73.5248 -3.49518 2.40909 0
M  V30 740 C 71.4318 -3.51431 4.75658 0
M  V30 741 H 70.3618 -0.564628 0.499712 0
M  V30 742 H 73.0128 -0.818449 1.64237 0
M  V30 743 H 71.3948 -3.42175 1.9933 0
M  V30 744 H 72.5688 -1.70627 4.28046 0
M  V30 745 H 70.8838 -1.6877 3.80665 0
M  V30 746 H 73.4808 -4.37197 3.07836 0
M  V30 747 H 73.8238 -3.90992 1.42937 0
M  V30 748 H 74.3568 -2.86005 2.76489 0
M  V30 749 H 71.0958 -3.15019 5.74842 0
M  V30 750 H 70.6158 -4.13352 4.34627 0
M  V30 751 H 72.2948 -4.17953 4.93887 0
M  V30 752 N 72.4269 -1.23603 -0.977757 0
M  V30 753 C 73.3569 -1.04401 -2.0886 0
M  V30 754 C 74.3379 0.0399052 -1.70053 0
M  V30 755 O 75.5229 -0.125246 -1.93796 0
M  V30 756 C 72.6529 -0.637269 -3.41403 0
M  V30 757 C 71.6069 -1.66883 -3.94124 0
M  V30 758 C 70.9329 -1.11745 -5.22893 0
M  V30 759 C 72.2329 -3.06247 -4.23096 0
M  V30 760 H 73.9269 -1.97316 -2.25182 0
M  V30 761 H 71.4729 -0.950096 -1.08209 0
M  V30 762 H 73.4259 -0.48998 -4.18542 0
M  V30 763 H 72.1499 0.327557 -3.24953 0
M  V30 764 H 70.8089 -1.80416 -3.19133 0
M  V30 765 H 70.4569 -0.143527 -5.02795 0
M  V30 766 H 70.1569 -1.80672 -5.59134 0
M  V30 767 H 71.6809 -0.982067 -6.02651 0
M  V30 768 H 73.0949 -2.96001 -4.90975 0
M  V30 769 H 71.4919 -3.72436 -4.70544 0
M  V30 770 H 72.5619 -3.55041 -3.30263 0
M  V30 771 N 73.905 1.17692 -1.04816 0
M  V30 772 C 75.321 1.39863 -0.768794 0
M  V30 773 C 75.521 1.91118 0.638451 0
M  V30 774 O 74.577 2.10036 1.40146 0
M  V30 775 C 75.89 2.39274 -1.82122 0
M  V30 776 C 77.438 2.52987 -1.843 0
M  V30 777 C 77.913 3.55669 -2.88555 0
M  V30 778 N 79.404 3.63183 -2.87493 0
M  V30 779 C 80.139 4.42381 -3.64811 0
M  V30 780 N 79.635 5.25125 -4.51903 0
M  V30 781 N 81.428 4.37217 -3.53267 0
M  V30 782 H 73.579 0.82752 -1.95617 0
M  V30 783 H 75.842 0.426123 -0.846831 0
M  V30 784 H 75.548 2.08678 -2.83102 0
M  V30 785 H 75.422 3.38725 -1.65967 0
M  V30 786 H 77.809 2.82896 -0.839869 0
M  V30 787 H 77.89 1.53623 -2.04532 0
M  V30 788 H 77.534 3.26499 -3.89051 0
M  V30 789 H 77.464 4.54728 -2.65575 0
M  V30 790 H 79.955 3.04103 -2.24343 0
M  V30 791 H 80.268 5.82728 -5.07591 0
M  V30 792 H 78.613 5.24519 -4.55966 0
M  V30 793 H 81.804 3.71626 -2.84625 0
M  V30 794 H 81.977 4.98696 -4.13771 0
M  V30 795 N 75.3831 0.828654 1.34056 0
M  V30 796 C 76.6311 0.41863 1.97717 0
M  V30 797 C 76.9521 -1.02314 1.66002 0
M  V30 798 O 76.2221 -1.71119 0.953683 0
M  V30 799 H 74.8021 0.151809 0.731412 0
M  V30 800 H 77.4641 1.05936 1.63596 0
M  V30 801 H 76.5601 0.542318 3.07352 0
M  V30 802 N 76.8612 -1.46375 0.584142 0
M  V30 803 C 77.8112 -2.27371 -0.169232 0
M  V30 804 C 78.7952 -1.35955 -0.860523 0
M  V30 805 O 79.9872 -1.60119 -0.754382 0
M  V30 806 C 77.1162 -3.22334 -1.18134 0
M  V30 807 C 76.2022 -4.21235 -0.492088 0
M  V30 808 N 76.5932 -5.03766 0.453129 0
M  V30 809 C 74.8912 -4.39773 -0.742652 0
M  V30 810 C 75.5922 -5.75366 0.85609 0
M  V30 811 N 74.5682 -5.43214 0.204926 0
M  V30 812 H 78.3702 -2.88572 0.557097 0
M  V30 813 H 75.8842 -1.57242 0.406042 0
M  V30 814 H 77.8812 -3.79071 -1.73525 0
M  V30 815 H 76.5412 -2.62693 -1.90847 0
M  V30 816 H 77.5522 -5.11227 0.828723 0
M  V30 817 H 74.2292 -3.91279 -1.45625 0
M  V30 818 H 75.6192 -6.5172 1.63434 0
M  V30 819 N 78.3393 -0.321999 -1.54275 0
M  V30 820 C 79.2493 0.553631 -2.27974 0
M  V30 821 C 80.2653 1.13054 -1.32268 0
M  V30 822 O 81.4413 1.15084 -1.6528 0
M  V30 823 C 78.5063 1.69927 -3.02201 0
M  V30 824 C 77.5673 1.15433 -4.1349 0
M  V30 825 C 76.8003 2.24537 -4.84168 0
M  V30 826 O 77.0233 3.44852 -4.5435 0
M  V30 827 O 75.9573 1.90044 -5.7111 0
M  V30 828 H 79.7833 -0.0448345 -3.03667 0
M  V30 829 H 77.3683 -0.0877418 -1.49142 0
M  V30 830 H 79.2503 2.3663 -3.48689 0
M  V30 831 H 77.9253 2.28395 -2.29385 0
M  V30 832 H 76.8323 0.452436 -3.71354 0
M  V30 833 H 78.1653 0.614805 -4.88345 0
M  V30 834 N 79.8174 1.5752 -0.0501392 0
M  V30 835 C 81.0634 1.92936 0.624798 0
M  V30 836 C 81.3964 0.928685 1.70555 0
M  V30 837 O 80.6714 -0.0454779 1.94447 0
M  V30 838 C 80.9544 3.38737 1.22185 0
M  V30 839 C 80.8074 4.49552 0.149218 0
M  V30 840 C 82.1264 3.84913 2.13378 0
M  V30 841 H 79.2454 0.701604 0.225657 0
M  V30 842 H 81.8874 1.89671 -0.111693 0
M  V30 843 H 80.0374 3.4165 1.84953 0
M  V30 844 H 81.7094 4.58768 -0.482648 0
M  V30 845 H 79.9524 4.30638 -0.522841 0
M  V30 846 H 80.6234 5.48653 0.606966 0
M  V30 847 H 83.0994 3.8387 1.60572 0
M  V30 848 H 81.9754 4.87584 2.52097 0
M  V30 849 H 82.2364 3.21611 3.03346 0
M  V30 850 N 81.2955 -0.223234 1.56011 0
M  V30 851 C 82.5415 -0.949279 1.79211 0
M  V30 852 C 82.8745 -1.84054 0.619494 0
M  V30 853 O 82.1495 -1.90726 -0.381317 0
M  V30 854 C 82.4325 -1.78965 3.12479 0
M  V30 855 C 82.2855 -0.924997 4.40186 0
M  V30 856 C 83.6045 -2.76774 3.42175 0
M  V30 857 H 80.7235 -0.343676 0.651963 0
M  V30 858 H 83.3655 -0.218253 1.88742 0
M  V30 859 H 81.5155 -2.41291 3.04485 0
M  V30 860 H 83.1875 -0.318615 4.60198 0
M  V30 861 H 81.4305 -0.230344 4.33188 0
M  V30 862 H 82.1015 -1.54735 5.29869 0
M  V30 863 H 84.5775 -2.24584 3.50287 0
M  V30 864 H 83.4535 -3.32678 4.36597 0
M  V30 865 H 83.7145 -3.54429 2.64258 0
M  V30 866 N 82.7736 -1.49793 -0.48987 0
M  V30 867 C 84.0196 -1.60078 -1.24511 0
M  V30 868 C 84.3526 -0.291608 -1.91998 0
M  V30 869 O 83.6276 0.705647 -1.81248 0
M  V30 870 C 83.9106 -2.76791 -2.30345 0
M  V30 871 C 83.7636 -4.17535 -1.67286 0
M  V30 872 C 85.0826 -2.89111 -3.31817 0
M  V30 873 H 82.2016 -0.582645 -0.451324 0
M  V30 874 H 84.8436 -1.82117 -0.541612 0
M  V30 875 H 82.9936 -2.5813 -2.90346 0
M  V30 876 H 84.6656 -4.4774 -1.11026 0
M  V30 877 H 82.9086 -4.22665 -0.976577 0
M  V30 878 H 83.5796 -4.95094 -2.44103 0
M  V30 879 H 86.0556 -3.06133 -2.81819 0
M  V30 880 H 84.9316 -3.72433 -4.03219 0
M  V30 881 H 85.1926 -1.9893 -3.94815 0
M  V30 882 N 84.2517 0.741722 -1.39055 0
M  V30 883 C 85.4977 1.50336 -1.36113 0
M  V30 884 C 85.8307 1.94148 0.0450796 0
M  V30 885 O 85.1057 1.66301 1.00868 0
M  V30 886 C 85.3887 2.74773 -2.32749 0
M  V30 887 C 85.2417 2.37023 -3.82283 0
M  V30 888 C 86.5607 3.76846 -2.27322 0
M  V30 889 H 83.6797 0.545351 -0.495743 0
M  V30 890 H 86.3217 0.848624 -1.69995 0
M  V30 891 H 84.4717 3.30639 -2.03986 0
M  V30 892 H 86.1437 1.8684 -4.21768 0
M  V30 893 H 84.3867 1.69334 -3.99385 0
M  V30 894 H 85.0577 3.26104 -4.45376 0
M  V30 895 H 87.5337 3.30548 -2.5274 0
M  V30 896 H 86.4097 4.6159 -2.97028 0
M  V30 897 H 86.6707 4.23286 -1.27599 0
M  V30 898 N 85.7298 1.2412 0.971189 0
M  V30 899 C 86.6628 0.97373 2.06382 0
M  V30 900 C 87.6408 -0.0912662 1.62344 0
M  V30 901 O 88.8248 0.0449365 1.88446 0
M  V30 902 C 85.9518 0.468746 3.35441 0
M  V30 903 C 84.9978 1.52176 3.98428 0
M  V30 904 S 85.8308 3.10203 4.36503 0
M  V30 905 C 86.9868 2.61398 5.68702 0
M  V30 906 H 87.2198 1.89893 2.28753 0
M  V30 907 H 84.7528 1.07466 1.10862 0
M  V30 908 H 86.7108 0.184012 4.10087 0
M  V30 909 H 85.3718 -0.435688 3.11064 0
M  V30 910 H 84.5648 1.11876 4.91426 0
M  V30 911 H 84.1668 1.75632 3.30196 0
M  V30 912 H 86.4588 2.03992 6.4606 0
M  V30 913 H 87.4018 3.52972 6.13854 0
M  V30 914 H 87.8098 2.01941 5.27143 0
M  V30 915 N 87.2079 -1.17134 1.05439 0
M  V30 916 C 88.6189 -1.69084 0.791676 0
M  V30 917 C 88.9699 -1.83822 -0.685839 0
M  V30 918 O 88.0949 -1.52757 -1.53278 0
M  V30 919 C 88.6899 -3.07119 1.4305 0
M  V30 920 C 87.2489 -3.56225 1.21577 0
M  V30 921 C 86.3959 -2.32421 1.51247 0
M  V30 922 H 89.3469 -1.01617 1.219 0
M  V30 923 H 89.3679 -3.71087 0.84112 0
M  V30 924 H 88.8799 -2.9636 2.50584 0
M  V30 925 H 86.9809 -3.72257 0.159787 0
M  V30 926 H 87.0939 -4.38837 1.92246 0
M  V30 927 H 85.4579 -2.3701 0.932653 0
M  V30 928 H 86.2409 -2.24268 2.5992 0
M  V30 929 N 88.686 -0.835752 -1.33615 0
M  V30 930 C 89.596 -0.269088 -2.33052 0
M  V30 931 C 90.612 0.603251 -1.63208 0
M  V30 932 O 91.788 0.508112 -1.94885 0
M  V30 933 C 88.853 0.549091 -3.42324 0
M  V30 934 C 87.914 -0.347156 -4.27894 0
M  V30 935 C 87.147 0.43207 -5.31948 0
M  V30 936 O 87.37 1.66409 -5.45586 0
M  V30 937 O 86.304 -0.192298 -6.01593 0
M  V30 938 H 90.13 -1.09243 -2.83372 0
M  V30 939 H 87.715 -0.598198 -1.36901 0
M  V30 940 H 89.597 1.01414 -4.09015 0
M  V30 941 H 88.272 1.34955 -2.94226 0
M  V30 942 H 87.179 -0.859979 -3.64081 0
M  V30 943 H 88.512 -1.1123 -4.79467 0
M  V30 944 N 90.1641 1.46063 -0.591896 0
M  V30 945 C 91.4101 2.02638 -0.0811191 0
M  V30 946 C 91.7431 1.4613 1.27905 0
M  V30 947 O 91.0181 0.629908 1.84017 0
M  V30 948 C 91.3011 3.60091 -0.0252436 0
M  V30 949 C 91.1541 4.26965 -1.41496 0
M  V30 950 C 92.4731 4.3496 0.670685 0
M  V30 951 H 89.5921 0.73635 -0.0309524 0
M  V30 952 H 92.2341 1.741 -0.760859 0
M  V30 953 H 90.3841 3.84535 0.553624 0
M  V30 954 H 92.0561 4.13756 -2.0397 0
M  V30 955 H 90.2991 3.85971 -1.98011 0
M  V30 956 H 90.9701 5.35781 -1.32825 0
M  V30 957 H 93.4461 4.15716 0.178825 0
M  V30 958 H 92.3221 5.44686 0.678837 0
M  V30 959 H 92.5831 4.06685 1.73379 0
M  V30 960 N 91.6422 0.330177 1.54103 0
M  V30 961 C 92.8672 -0.274893 2.0557 0
M  V30 962 C 93.2922 -1.44487 1.20437 0
M  V30 963 O 92.6502 -1.80021 0.214991 0
M  V30 964 C 92.6982 -0.68079 3.54115 0
M  V30 965 O 91.8022 -1.7824 3.71893 0
M  V30 966 H 91.1432 -0.0483849 0.662235 0
M  V30 967 H 93.6732 0.480508 1.98878 0
M  V30 968 H 93.6832 -0.961635 3.96505 0
M  V30 969 H 92.3582 0.174903 4.15532 0
M  V30 970 H 90.9352 -1.49985 3.41407 0
M  V30 971 N 93.1203 -1.57491 0.0584922 0
M  V30 972 C 94.3663 -1.94081 -0.608617 0
M  V30 973 C 94.7213 -0.937438 -1.68017 0
M  V30 974 O 94.0143 0.0423034 -1.91553 0
M  V30 975 C 94.2083 -3.3513 -1.24188 0
M  V30 976 C 94.0373 -4.49095 -0.233187 0
M  V30 977 C 92.8073 -5.04988 0.177439 0
M  V30 978 C 95.0053 -5.1162 0.524306 0
M  V30 979 N 92.9873 -6.02487 1.17823 0
M  V30 980 C 94.3583 -6.04493 1.37796 0
M  V30 981 C 96.4133 -4.94489 0.581822 0
M  V30 982 C 95.1163 -6.82075 2.28399 0
M  V30 983 C 97.1423 -5.72703 1.47531 0
M  V30 984 C 96.5043 -6.65214 2.31667 0
M  V30 985 H 92.6033 -0.75752 -0.194134 0
M  V30 986 H 95.1873 -1.94248 0.132533 0
M  V30 987 H 93.3583 -3.35726 -1.95302 0
M  V30 988 H 95.0903 -3.5899 -1.86838 0
M  V30 989 H 91.8453 -4.73165 -0.203004 0
M  V30 990 H 92.2693 -6.55933 1.67573 0
M  V30 991 H 96.9113 -4.22765 -0.054443 0
M  V30 992 H 94.6293 -7.53085 2.93067 0
M  V30 993 H 98.2153 -5.61472 1.52448 0
M  V30 994 H 97.0953 -7.24679 2.99683 0
M  V30 995 N 94.5984 0.214957 -1.56127 0
M  V30 996 C 95.5304 1.29004 -1.89448 0
M  V30 997 C 96.5434 1.42716 -0.783326 0
M  V30 998 O 97.7324 1.43496 -1.06166 0
M  V30 999 C 94.8324 2.66482 -2.09381 0
M  V30 1000 C 94.0054 2.74633 -3.40434 0
M  V30 1001 C 93.0644 3.9317 -3.49719 0
M  V30 1002 O 92.0904 3.812 -4.227 0
M  V30 1003 N 93.2924 5.07765 -2.81346 0
M  V30 1004 H 96.0574 1.00743 -2.82261 0
M  V30 1005 H 93.6184 0.40497 -1.56753 0
M  V30 1006 H 95.6104 3.44173 -2.12901 0
M  V30 1007 H 94.1804 2.87314 -1.23163 0
M  V30 1008 H 93.4004 1.83368 -3.48955 0
M  V30 1009 H 94.6884 2.77054 -4.26754 0
M  V30 1010 H 94.0864 5.20386 -2.21843 0
M  V30 1011 H 92.6434 5.83474 -2.90519 0
M  V30 1012 N 96.0765 1.50051 0.48192 0
M  V30 1013 C 97.0065 1.71046 1.58951 0
M  V30 1014 C 97.9875 0.559288 1.60642 0
M  V30 1015 O 99.1725 0.797243 1.77081 0
M  V30 1016 C 96.3025 1.79462 2.97339 0
M  V30 1017 C 95.2565 2.94558 3.10515 0
M  V30 1018 C 94.5825 2.88105 4.50444 0
M  V30 1019 C 95.8825 4.35227 2.88747 0
M  V30 1020 H 97.5765 2.6378 1.41635 0
M  V30 1021 H 95.1225 1.26936 0.679942 0
M  V30 1022 H 97.0755 1.92734 3.74742 0
M  V30 1023 H 95.7995 0.833412 3.15788 0
M  V30 1024 H 94.4585 2.80918 2.35543 0
M  V30 1025 H 94.1065 1.89853 4.65795 0
M  V30 1026 H 93.8065 3.65366 4.60197 0
M  V30 1027 H 95.3305 3.03412 5.29881 0
M  V30 1028 H 96.7445 4.49449 3.55905 0
M  V30 1029 H 95.1415 5.13856 3.09955 0
M  V30 1030 H 96.2115 4.48347 1.84696 0
M  V30 1031 N 97.5546 -0.734337 1.39446 0
M  V30 1032 C 98.8026 -1.49096 1.36436 0
M  V30 1033 C 99.1236 -1.94961 -0.0388255 0
M  V30 1034 O 98.3936 -1.69033 -0.990191 0
M  V30 1035 H 96.9736 -0.5531 0.502085 0
M  V30 1036 H 99.6356 -0.871725 1.74319 0
M  V30 1037 H 98.7316 -2.37276 2.02747 0
M  V30 1038 N 99.0327 -1.24633 -0.964593 0
M  V30 1039 C 100.449 -1.01239 -1.2338 0
M  V30 1040 C 100.649 0.2769 -1.99588 0
M  V30 1041 O 99.7047 0.992241 -2.32187 0
M  V30 1042 C 101.018 -2.22937 -2.01791 0
M  V30 1043 C 102.566 -2.27594 -2.14872 0
M  V30 1044 C 103.041 -3.48921 -2.96678 0
M  V30 1045 N 104.532 -3.49257 -3.04259 0
M  V30 1046 C 105.267 -4.39795 -3.67924 0
M  V30 1047 N 104.763 -5.40591 -4.33281 0
M  V30 1048 N 106.556 -4.275 -3.64966 0
M  V30 1049 H 98.7067 -2.0748 -0.454502 0
M  V30 1050 H 100.97 -0.910647 -0.26349 0
M  V30 1051 H 100.676 -3.16587 -1.53184 0
M  V30 1052 H 100.55 -2.25306 -3.02518 0
M  V30 1053 H 102.937 -1.34473 -2.6268 0
M  V30 1054 H 103.018 -2.2925 -1.13482 0
M  V30 1055 H 102.662 -4.42359 -2.49562 0
M  V30 1056 H 102.592 -3.4451 -3.98272 0
M  V30 1057 H 105.083 -2.76337 -2.57771 0
M  V30 1058 H 105.396 -6.05904 -4.79687 0
M  V30 1059 H 103.741 -5.44475 -4.3194 0
M  V30 1060 H 106.932 -3.47987 -3.13086 0
M  V30 1061 H 107.105 -4.98258 -4.14298 0
M  V30 1062 N 100.511 1.16574 -1.06058 0
M  V30 1063 C 101.736 1.91493 -0.796562 0
M  V30 1064 C 102.161 1.76773 0.642868 0
M  V30 1065 O 101.519 1.09142 1.44768 0
M  V30 1066 C 101.567 3.40293 -1.19303 0
M  V30 1067 O 100.671 4.11074 -0.330394 0
M  V30 1068 H 100.012 0.596678 -0.291326 0
M  V30 1069 H 102.542 1.47708 -1.41575 0
M  V30 1070 H 102.552 3.91057 -1.16356 0
M  V30 1071 H 101.227 3.50326 -2.24153 0
M  V30 1072 H 99.8038 3.70513 -0.421225 0
M  V30 1073 N 101.989 0.842826 1.3317 0
M  V30 1074 C 102.919 0.294028 2.31641 0
M  V30 1075 C 103.9 -0.600401 1.59151 0
M  V30 1076 O 105.085 -0.523124 1.87022 0
M  V30 1077 C 102.215 -0.528416 3.43257 0
M  V30 1078 C 101.169 0.27056 4.27144 0
M  V30 1079 C 100.495 -0.675881 5.30411 0
M  V30 1080 C 101.795 1.48981 5.00602 0
M  V30 1081 H 103.489 1.11681 2.77791 0
M  V30 1082 H 101.035 0.538478 1.33553 0
M  V30 1083 H 102.988 -0.922674 4.11175 0
M  V30 1084 H 101.712 -1.38445 2.95805 0
M  V30 1085 H 100.371 0.646427 3.60856 0
M  V30 1086 H 100.019 -1.52842 4.79216 0
M  V30 1087 H 99.7189 -0.145374 5.8742 0
M  V30 1088 H 101.243 -1.06757 6.01195 0
M  V30 1089 H 102.657 1.16849 5.61266 0
M  V30 1090 H 101.054 1.95739 5.6728 0
M  V30 1091 H 102.124 2.25746 4.29147 0
M  V30 1092 N 103.467 -1.45747 0.599634 0
M  V30 1093 C 104.415 -2.322 -0.136426 0
M  V30 1094 C 105.409 -1.45497 -0.867583 0
M  V30 1095 O 106.615 -1.62027 -0.78405 0
M  V30 1096 H 102.99 -0.749368 -0.0628588 0
M  V30 1097 H 104.961 -2.92072 0.611281 0
M  V30 1098 C 103.71 -3.28974 -1.12567 0
M  V30 1099 H 103.033 -3.9568 -0.572484 0
M  V30 1100 H 104.473 -3.92212 -1.61077 0
M  V30 1101 C 102.932 -2.55561 -2.19523 0
M  V30 1102 O 103.462 -2.33111 -3.27143 0
M  V30 1103 N 101.668 -2.15832 -1.94589 0
M  V30 1104 H 101.215 -2.3429 -1.07078 0
M  V30 1105 H 101.173 -1.67034 -2.66359 0
M  V30 1106 N 104.945 -0.338344 -1.53925 0
M  V30 1107 C 106.185 0.260168 -2.02737 0
M  V30 1108 C 106.549 1.48181 -1.22092 0
M  V30 1109 O 107.75 2.15416 -1.60777 0
M  V30 1110 C 106.021 0.571627 -3.52799 0
M  V30 1111 S 107.58 1.14769 -4.23525 0
M  V30 1112 H 104.398 0.077791 -0.706732 0
M  V30 1113 H 107 -0.474899 -1.89644 0
M  V30 1114 H 105.704 -0.325392 -4.09108 0
M  V30 1115 H 105.235 1.3365 -3.70002 0
M  V30 1116 H 107.25 2.43372 -4.32417 0
M  V30 1117 N 106.423 1.57458 -0.0668435 0
M  V30 1118 C 107.651 1.97624 0.612565 0
M  V30 1119 C 108.066 0.94502 1.63447 0
M  V30 1120 O 107.423 -0.0689276 1.8237 0
M  V30 1121 C 107.474 3.37869 1.28555 0
M  V30 1122 O 107.195 4.3704 0.304557 0
M  V30 1123 C 108.696 3.92882 2.05325 0
M  V30 1124 H 105.916 0.650045 0.166381 0
M  V30 1125 H 108.46 2.04035 -0.137782 0
M  V30 1126 H 106.615 3.3256 1.98702 0
M  V30 1127 H 107.029 5.18565 0.786779 0
M  V30 1128 H 108.503 4.93247 2.47812 0
M  V30 1129 H 108.98 3.29156 2.9078 0
M  V30 1130 H 109.586 4.01577 1.40056 0
M  V30 1131 N 107.901 -0.206675 1.56239 0
M  V30 1132 C 109.147 -0.930218 1.80208 0
M  V30 1133 C 109.48 -1.83387 0.638981 0
M  V30 1134 O 108.755 -1.91119 -0.361066 0
M  V30 1135 C 109.038 -1.75641 3.1436 0
M  V30 1136 C 108.891 -0.878257 4.41142 0
M  V30 1137 C 110.21 -2.73129 3.45092 0
M  V30 1138 H 107.329 -0.336742 0.655571 0
M  V30 1139 H 109.971 -0.198222 1.88963 0
M  V30 1140 H 108.121 -2.38048 3.07027 0
M  V30 1141 H 109.793 -0.269787 4.6051 0
M  V30 1142 H 108.036 -0.184385 4.33408 0
M  V30 1143 H 108.707 -1.49106 5.3148 0
M  V30 1144 H 111.183 -2.20856 3.52649 0
M  V30 1145 H 110.059 -3.28028 4.40101 0
M  V30 1146 H 110.32 -3.51606 2.68003 0
M  V30 1147 N 109.379 -1.50304 -0.473955 0
M  V30 1148 C 110.326 -1.68959 -1.57231 0
M  V30 1149 C 111.296 -0.530899 -1.57387 0
M  V30 1150 O 112.481 -0.761133 -1.74961 0
M  V30 1151 C 109.621 -1.7871 -2.95223 0
M  V30 1152 C 108.734 -3.06061 -3.04878 0
M  V30 1153 C 107.869 -3.06626 -4.33767 0
M  V30 1154 C 106.908 -4.28443 -4.37154 0
M  V30 1155 N 106.045 -4.26763 -5.5751 0
M  V30 1156 H 110.885 -2.6273 -1.40631 0
M  V30 1157 H 108.422 -1.30241 -0.683789 0
M  V30 1158 H 110.38 -1.82344 -3.75242 0
M  V30 1159 H 109.01 -0.883806 -3.10465 0
M  V30 1160 H 108.062 -3.11911 -2.17751 0
M  V30 1161 H 109.374 -3.96039 -3.0324 0
M  V30 1162 H 108.528 -3.08973 -5.22131 0
M  V30 1163 H 107.267 -2.14473 -4.3801 0
M  V30 1164 H 106.272 -4.2631 -3.47188 0
M  V30 1165 H 107.497 -5.2182 -4.34605 0
M  V30 1166 H 105.443 -3.37462 -5.62544 0
M  V30 1167 H 105.36 -5.10507 -5.57601 0
M  V30 1168 H 106.628 -4.33253 -6.48006 0
M  V30 1169 N 110.857 0.726932 -1.39834 0
M  V30 1170 C 112.085 1.51613 -1.40787 0
M  V30 1171 C 112.5 1.88799 -0.00451505 0
M  V30 1172 O 111.857 1.54662 0.968809 0
M  V30 1173 C 111.908 2.79863 -2.28821 0
M  V30 1174 O 111.629 2.44253 -3.63692 0
M  V30 1175 C 113.13 3.73837 -2.38245 0
M  V30 1176 H 110.35 0.468264 -0.480593 0
M  V30 1177 H 112.894 0.897607 -1.83748 0
M  V30 1178 H 111.049 3.38027 -1.89252 0
M  V30 1179 H 111.463 3.26695 -4.1033 0
M  V30 1180 H 112.937 4.60699 -3.04073 0
M  V30 1181 H 113.414 4.16153 -1.40403 0
M  V30 1182 H 114.02 3.21589 -2.78317 0
M  V30 1183 N 112.336 1.25143 0.95797 0
M  V30 1184 C 113.566 1.12261 1.73439 0
M  V30 1185 C 113.974 -0.326715 1.86358 0
M  V30 1186 O 113.317 -1.2367 1.35836 0
M  V30 1187 C 113.379 1.69966 3.16784 0
M  V30 1188 C 113.043 3.18936 3.27305 0
M  V30 1189 C 114.04 4.15968 3.11877 0
M  V30 1190 C 111.725 3.59083 3.51234 0
M  V30 1191 C 113.719 5.51126 3.20217 0
M  V30 1192 C 111.406 4.9438 3.5921 0
M  V30 1193 C 112.404 5.90211 3.43716 0
M  V30 1194 O 112.092 7.23046 3.51368 0
M  V30 1195 H 111.824 0.392476 0.550399 0
M  V30 1196 H 114.378 1.65927 1.21068 0
M  V30 1197 H 112.608 1.10744 3.70503 0
M  V30 1198 H 114.297 1.52232 3.76272 0
M  V30 1199 H 115.063 3.86292 2.93264 0
M  V30 1200 H 110.942 2.84989 3.62356 0
M  V30 1201 H 114.486 6.25905 3.0804 0
M  V30 1202 H 110.383 5.23723 3.77339 0
M  V30 1203 H 111.151 7.31097 3.6802 0
M  V30 1204 N 113.814 -1.1601 1.06675 0
M  V30 1205 C 115.039 -1.91068 0.806706 0
M  V30 1206 C 115.464 -1.77112 -0.633485 0
M  V30 1207 O 114.822 -1.09908 -1.44187 0
M  V30 1208 C 114.87 -3.39655 1.21106 0
M  V30 1209 O 113.974 -4.10893 0.352189 0
M  V30 1210 H 113.315 -0.595125 0.294486 0
M  V30 1211 H 115.845 -1.46955 1.42356 0
M  V30 1212 H 115.855 -3.90434 1.18428 0
M  V30 1213 H 114.53 -3.49132 2.26008 0
M  V30 1214 H 113.107 -3.70285 0.440868 0
M  V30 1215 N 115.292 -0.849877 -1.32721 0
M  V30 1216 C 116.52 -0.464754 -2.01613 0
M  V30 1217 C 116.935 0.937191 -1.63897 0
M  V30 1218 O 116.292 1.61081 -0.857856 0
M  V30 1219 C 116.343 -0.588638 -3.56675 0
M  V30 1220 O 116.064 -1.93535 -3.93034 0
M  V30 1221 C 117.565 -0.2019 -4.4284 0
M  V30 1222 H 114.785 -0.183215 -0.645502 0
M  V30 1223 H 117.329 -1.1455 -1.69407 0
M  V30 1224 H 115.484 0.0443159 -3.87375 0
M  V30 1225 H 115.898 -1.92871 -4.87751 0
M  V30 1226 H 117.372 -0.339599 -5.50954 0
M  V30 1227 H 117.849 0.857224 -4.30753 0
M  V30 1228 H 118.455 -0.809733 -4.17521 0
M  V30 1229 N 116.77 1.45427 -0.607355 0
M  V30 1230 C 117.995 2.07124 -0.107006 0
M  V30 1231 C 118.42 1.44906 1.19933 0
M  V30 1232 O 117.778 0.541687 1.73019 0
M  V30 1233 C 117.826 3.60595 0.0194119 0
M  V30 1234 O 116.93 3.98285 1.0697 0
M  V30 1235 H 116.271 0.659868 -0.0739597 0
M  V30 1236 H 118.801 1.86683 -0.837297 0
M  V30 1237 H 118.811 4.07419 0.2177 0
M  V30 1238 H 117.486 4.05266 -0.934453 0
M  V30 1239 H 116.063 3.63133 0.847889 0
M  V30 1240 N 118.248 0.346503 1.53744 0
M  V30 1241 C 119.478 -0.250047 2.05081 0
M  V30 1242 C 119.886 -1.44529 1.22098 0
M  V30 1243 O 119.229 -1.81992 0.249917 0
M  V30 1244 C 119.291 -0.725934 3.52094 0
M  V30 1245 C 118.955 0.350053 4.55657 0
M  V30 1246 C 119.952 1.19372 5.0601 0
M  V30 1247 C 117.637 0.504827 4.99757 0
M  V30 1248 C 119.631 2.17768 5.99046 0
M  V30 1249 C 117.318 1.49218 5.92602 0
M  V30 1250 C 118.316 2.32706 6.42135 0
M  V30 1251 O 118.004 3.2976 7.33153 0
M  V30 1252 H 117.736 -0.0515469 0.674032 0
M  V30 1253 H 120.29 0.497559 1.99282 0
M  V30 1254 H 118.52 -1.52483 3.55367 0
M  V30 1255 H 120.209 -1.24336 3.86388 0
M  V30 1256 H 120.975 1.08525 4.72702 0
M  V30 1257 H 116.854 -0.135178 4.60802 0
M  V30 1258 H 120.398 2.82971 6.37631 0
M  V30 1259 H 116.295 1.6012 6.25325 0
M  V30 1260 H 117.063 3.25265 7.51096 0
M  V30 1261 N 119.726 -1.57421 0.075193 0
M  V30 1262 C 120.954 -1.97946 -0.602076 0
M  V30 1263 C 121.369 -0.953674 -1.62943 0
M  V30 1264 O 120.726 0.0592551 -1.82404 0
M  V30 1265 C 120.777 -3.38546 -1.26762 0
M  V30 1266 O 120.498 -4.37195 -0.281376 0
M  V30 1267 C 121.999 -3.93966 -2.03239 0
M  V30 1268 H 119.219 -0.650918 -0.162931 0
M  V30 1269 H 121.763 -2.03959 0.148601 0
M  V30 1270 H 119.918 -3.33609 -1.96936 0
M  V30 1271 H 120.332 -5.18975 -0.759267 0
M  V30 1272 H 121.806 -4.94555 -2.45193 0
M  V30 1273 H 122.283 -3.30693 -2.8903 0
M  V30 1274 H 122.889 -4.02315 -1.37924 0
M  V30 1275 N 121.204 0.198386 -1.56346 0
M  V30 1276 C 122.134 1.24865 -1.9731 0
M  V30 1277 C 123.115 1.47651 -0.844576 0
M  V30 1278 O 124.3 1.59444 -1.10866 0
M  V30 1279 C 121.43 2.59358 -2.30977 0
M  V30 1280 C 120.384 2.5119 -3.46537 0
M  V30 1281 C 119.71 3.89926 -3.65871 0
M  V30 1282 C 121.01 2.03977 -4.80823 0
M  V30 1283 H 122.704 0.908252 -2.85291 0
M  V30 1284 H 120.25 0.435462 -1.37258 0
M  V30 1285 H 122.203 3.33011 -2.58228 0
M  V30 1286 H 120.927 2.95132 -1.39874 0
M  V30 1287 H 119.586 1.79993 -3.19371 0
M  V30 1288 H 119.234 4.23046 -2.72105 0
M  V30 1289 H 118.934 3.85336 -4.4361 0
M  V30 1290 H 120.458 4.65205 -3.95495 0
M  V30 1291 H 121.872 2.67386 -5.07127 0
M  V30 1292 H 120.269 2.10397 -5.62008 0
M  V30 1293 H 121.339 0.992861 -4.74626 0
M  V30 1294 N 122.682 1.50554 0.465978 0
M  V30 1295 C 123.592 1.72585 1.58907 0
M  V30 1296 C 124.608 0.60911 1.6299 0
M  V30 1297 O 125.784 0.88804 1.80765 0
M  V30 1298 C 122.849 1.81995 2.95091 0
M  V30 1299 C 121.91 3.05751 3.01355 0
M  V30 1300 C 121.143 3.14702 4.31043 0
M  V30 1301 O 121.366 2.30313 5.21835 0
M  V30 1302 O 120.3 4.07468 4.43005 0
M  V30 1303 H 124.126 2.67799 1.43239 0
M  V30 1304 H 121.711 1.34711 0.646013 0
M  V30 1305 H 123.593 1.90335 3.75966 0
M  V30 1306 H 122.268 0.899659 3.10947 0
M  V30 1307 H 121.175 3.02908 2.19539 0
M  V30 1308 H 122.508 3.97375 2.90437 0
M  V30 1309 N 124.16 -0.719506 1.40217 0
M  V30 1310 C 125.437 -1.47221 1.28784 0
M  V30 1311 C 125.817 -2.10883 -0.0956067 0
M  V30 1312 O 125.165 -1.99833 -1.10811 0
M  V30 1313 C 125.375 -2.5111 2.42373 0
M  V30 1314 C 126.723 -3.17053 2.82423 0
M  V30 1315 O 127.747 -2.61429 2.41937 0
M  V30 1316 O 126.606 -4.17742 3.52355 0
M  V30 1317 H 123.7 -0.654491 0.50554 0
M  V30 1318 H 126.246 -0.752014 1.52128 0
M  V30 1319 H 125.018 -2.02556 3.34793 0
M  V30 1320 H 124.641 -3.3067 2.20778 0
M  V30 1321 N 125.638 -1.25649 -0.95132 0
M  V30 1322 C 126.568 -1.08808 -2.06599 0
M  V30 1323 C 127.549 0.00382547 -1.701 0
M  V30 1324 O 128.734 -0.166325 -1.93486 0
M  V30 1325 C 125.864 -0.709542 -3.39975 0
M  V30 1326 C 124.818 -1.75206 -3.90496 0
M  V30 1327 C 124.144 -1.22811 -5.20405 0
M  V30 1328 C 125.444 -3.15153 -4.16504 0
M  V30 1329 H 127.138 -2.02048 -2.20946 0
M  V30 1330 H 124.684 -0.972835 -1.06169 0
M  V30 1331 H 126.637 -0.578649 -4.17408 0
M  V30 1332 H 125.361 0.258556 -3.25575 0
M  V30 1333 H 124.02 -1.87145 -3.15234 0
M  V30 1334 H 123.668 -0.250145 -5.02378 0
M  V30 1335 H 123.368 -1.92492 -5.55176 0
M  V30 1336 H 124.892 -1.10968 -6.00432 0
M  V30 1337 H 126.306 -3.06349 -4.84586 0
M  V30 1338 H 124.703 -3.82333 -4.62538 0
M  V30 1339 H 125.773 -3.61966 -3.22658 0
M  V30 1340 N 127.117 1.15442 -1.07289 0
M  V30 1341 C 128.394 1.82306 -0.708792 0
M  V30 1342 C 128.774 1.94991 0.808807 0
M  V30 1343 O 128.122 1.50085 1.72298 0
M  V30 1344 C 128.332 3.18695 -1.42247 0
M  V30 1345 C 129.68 3.94341 -1.57417 0
M  V30 1346 O 130.704 3.28247 -1.38319 0
M  V30 1347 O 129.563 5.12839 -1.88834 0
M  V30 1348 H 126.657 0.787628 -0.252132 0
M  V30 1349 H 129.203 1.22559 -1.17377 0
M  V30 1350 H 127.975 3.04557 -2.45684 0
M  V30 1351 H 127.598 3.86128 -0.948223 0
M  V30 1352 N 128.595 0.856903 1.32268 0
M  V30 1353 C 130.011 0.547061 1.49931 0
M  V30 1354 C 130.211 -0.921781 1.7918 0
M  V30 1355 O 129.267 -1.70469 1.8627 0
M  V30 1356 C 130.58 1.43599 2.64196 0
M  V30 1357 C 132.128 1.43665 2.78081 0
M  V30 1358 C 132.603 2.31085 3.95428 0
M  V30 1359 N 134.094 2.28893 4.02694 0
M  V30 1360 C 134.829 2.93262 4.92732 0
M  V30 1361 N 134.325 3.66751 5.87763 0
M  V30 1362 N 136.118 2.82638 4.85873 0
M  V30 1363 H 128.269 1.8075 1.11549 0
M  V30 1364 H 130.532 0.772144 0.549997 0
M  V30 1365 H 130.238 2.48058 2.49319 0
M  V30 1366 H 130.112 1.12502 3.60032 0
M  V30 1367 H 132.499 0.399701 2.92381 0
M  V30 1368 H 132.58 1.7878 1.82952 0
M  V30 1369 H 132.224 3.34849 3.81888 0
M  V30 1370 H 132.154 1.93302 4.89839 0
M  V30 1371 H 134.645 1.75466 3.34694 0
M  V30 1372 H 134.958 4.13027 6.53168 0
M  V30 1373 H 133.303 3.70859 5.87783 0
M  V30 1374 H 136.494 2.24774 4.10602 0
M  V30 1375 H 136.667 3.33084 5.55841 0
M  V30 1376 N 130.073 -1.45103 0.615059 0
M  V30 1377 C 130.983 -2.34382 -0.101034 0
M  V30 1378 C 131.999 -1.51681 -0.852585 0
M  V30 1379 O 133.175 -1.8446 -0.808484 0
M  V30 1380 C 130.24 -3.29417 -1.08099 0
M  V30 1381 C 129.301 -4.28025 -0.330577 0
M  V30 1382 C 128.534 -5.1852 -1.26385 0
M  V30 1383 O 128.757 -5.12598 -2.50198 0
M  V30 1384 O 127.691 -5.97122 -0.756866 0
M  V30 1385 H 131.517 -2.97033 0.632855 0
M  V30 1386 H 129.102 -1.4461 0.375293 0
M  V30 1387 H 130.984 -3.87958 -1.6452 0
M  V30 1388 H 129.659 -2.69321 -1.79577 0
M  V30 1389 H 128.566 -3.73078 0.276283 0
M  V30 1390 H 129.899 -4.90997 0.343866 0
M  V30 1391 N 131.551 -0.354651 -1.53558 0
M  V30 1392 C 132.798 0.238443 -2.01091 0
M  V30 1393 C 133.126 1.49663 -1.24222 0
M  V30 1394 O 132.381 1.93049 -0.321003 0
M  V30 1395 C 132.68 0.587121 -3.52545 0
M  V30 1396 C 132.346 -0.575472 -4.47213 0
M  V30 1397 C 131.008 -0.894497 -4.72813 0
M  V30 1398 C 133.36 -1.35489 -5.03281 0
M  V30 1399 C 130.688 -1.99511 -5.51736 0
M  V30 1400 C 133.04 -2.44583 -5.83405 0
M  V30 1401 C 131.704 -2.77033 -6.07296 0
M  V30 1402 H 130.974 0.0872526 -0.735845 0
M  V30 1403 H 133.621 -0.484859 -1.8526 0
M  V30 1404 H 131.926 1.39129 -3.66265 0
M  V30 1405 H 133.623 1.05809 -3.86789 0
M  V30 1406 H 130.213 -0.316774 -4.27428 0
M  V30 1407 H 134.397 -1.12167 -4.83459 0
M  V30 1408 H 129.653 -2.25063 -5.68469 0
M  V30 1409 H 133.827 -3.05401 -6.25862 0
M  V30 1410 H 131.454 -3.6244 -6.68237 0
M  V30 1411 N 133.029 1.57378 -0.0835403 0
M  V30 1412 C 133.976 2.13384 0.879539 0
M  V30 1413 C 134.946 1.04936 1.28754 0
M  V30 1414 O 136.131 1.32662 1.37133 0
M  V30 1415 C 133.271 2.70932 2.13752 0
M  V30 1416 C 132.384 3.93575 1.7811 0
M  V30 1417 C 131.519 4.39326 2.98607 0
M  V30 1418 C 130.558 5.54587 2.59037 0
M  V30 1419 N 129.695 5.95243 3.72331 0
M  V30 1420 H 134.535 2.9537 0.395076 0
M  V30 1421 H 132.072 1.45953 0.183349 0
M  V30 1422 H 134.03 3.02411 2.87408 0
M  V30 1423 H 132.66 1.91693 2.59718 0
M  V30 1424 H 131.712 3.68483 0.94469 0
M  V30 1425 H 133.024 4.77258 1.45005 0
M  V30 1426 H 132.178 4.72528 3.80529 0
M  V30 1427 H 130.917 3.5452 3.34913 0
M  V30 1428 H 129.922 5.21024 1.75539 0
M  V30 1429 H 131.147 6.41133 2.23887 0
M  V30 1430 H 129.093 5.13385 4.08378 0
M  V30 1431 H 129.01 6.73694 3.43034 0
M  V30 1432 H 130.278 6.33072 4.54797 0
M  V30 1433 N 134.507 -0.190092 1.56449 0
M  V30 1434 C 135.47 -1.21925 1.9408 0
M  V30 1435 C 136.47 -1.38176 0.822431 0
M  V30 1436 O 137.66 -1.35903 1.08977 0
M  V30 1437 C 134.792 -2.58773 2.21922 0
M  V30 1438 H 135.985 -0.897464 2.86157 0
M  V30 1439 H 133.538 -0.43181 1.50217 0
M  V30 1440 H 134.273 -2.95998 1.32499 0
M  V30 1441 H 134.058 -2.48348 3.03424 0
M  V30 1442 H 135.548 -3.32978 2.52022 0
M  V30 1443 N 135.985 -1.50799 -0.457987 0
M  V30 1444 C 137.232 -1.62442 -1.20908 0
M  V30 1445 C 137.56 -0.330865 -1.91665 0
M  V30 1446 O 136.815 0.68401 -1.83357 0
M  V30 1447 C 137.114 -2.76358 -2.2663 0
M  V30 1448 C 136.78 -4.16378 -1.73033 0
M  V30 1449 C 135.442 -4.54473 -1.58138 0
M  V30 1450 C 137.794 -5.03836 -1.33413 0
M  V30 1451 C 135.122 -5.77754 -1.02065 0
M  V30 1452 C 137.474 -6.27676 -0.78778 0
M  V30 1453 C 136.138 -6.64562 -0.625561 0
M  V30 1454 H 135.408 -0.594417 -0.442435 0
M  V30 1455 H 138.055 -1.84772 -0.503136 0
M  V30 1456 H 136.36 -2.48167 -3.03184 0
M  V30 1457 H 138.057 -2.82568 -2.84528 0
M  V30 1458 H 134.647 -3.86331 -1.85598 0
M  V30 1459 H 138.831 -4.75026 -1.4375 0
M  V30 1460 H 134.087 -6.04997 -0.882547 0
M  V30 1461 H 138.261 -6.94797 -0.472177 0
M  V30 1462 H 135.888 -7.59965 -0.188926 0
M  V30 1463 N 137.463 0.71206 -1.40597 0
M  V30 1464 C 138.426 1.80785 -1.40888 0
M  V30 1465 C 139.426 1.57937 -0.302103 0
M  V30 1466 O 140.616 1.64913 -0.561182 0
M  V30 1467 C 137.748 3.18927 -1.20409 0
M  V30 1468 H 138.941 1.81924 -2.38419 0
M  V30 1469 H 136.494 0.91805 -1.26497 0
M  V30 1470 H 137.229 3.23436 -0.236522 0
M  V30 1471 H 137.014 3.36911 -2.00582 0
M  V30 1472 H 138.504 3.98949 -1.23408 0
M  V30 1473 N 138.941 1.26152 0.944643 0
M  V30 1474 C 139.891 1.04081 2.02857 0
M  V30 1475 C 140.875 -0.0256555 1.6088 0
M  V30 1476 O 142.067 0.190884 1.75968 0
M  V30 1477 C 139.196 0.672118 3.36656 0
M  V30 1478 C 138.282 1.77586 3.85128 0
M  V30 1479 N 138.673 3.01272 4.06287 0
M  V30 1480 C 136.971 1.65867 4.1401 0
M  V30 1481 C 137.672 3.72983 4.46384 0
M  V30 1482 N 136.648 3.00653 4.52889 0
M  V30 1483 H 140.45 1.97968 2.17223 0
M  V30 1484 H 137.964 1.16618 1.13022 0
M  V30 1485 H 139.961 0.495166 4.13949 0
M  V30 1486 H 138.621 -0.259307 3.23663 0
M  V30 1487 H 139.632 3.37213 3.93075 0
M  V30 1488 H 136.309 0.796907 4.09824 0
M  V30 1489 H 137.699 4.792 4.70975 0
M  V30 1490 N 140.419 -1.14872 1.07899 0
M  V30 1491 C 141.382 -2.17986 0.708161 0
M  V30 1492 C 142.382 -1.58775 -0.25442 0
M  V30 1493 O 143.572 -1.74166 -0.034645 0
M  V30 1494 C 140.704 -3.40871 0.0446929 0
M  V30 1495 H 141.897 -2.52306 1.62116 0
M  V30 1496 H 139.45 -1.2943 0.876218 0
M  V30 1497 H 140.185 -3.12124 -0.880281 0
M  V30 1498 H 139.97 -3.8511 0.737091 0
M  V30 1499 H 141.46 -4.17121 -0.19991 0
M  V30 1500 N 141.898 -0.863906 -1.31812 0
M  V30 1501 C 142.83 -0.272485 -2.27575 0
M  V30 1502 C 143.843 0.56104 -1.52827 0
M  V30 1503 O 145.032 0.384021 -1.7432 0
M  V30 1504 C 142.132 0.63283 -3.32939 0
M  V30 1505 C 141.305 -0.166902 -4.37081 0
M  V30 1506 C 140.364 0.665608 -5.21973 0
M  V30 1507 O 139.39 0.0958091 -5.69119 0
M  V30 1508 N 140.592 1.9787 -5.45736 0
M  V30 1509 H 143.357 -1.0954 -2.78964 0
M  V30 1510 H 140.918 -0.724791 -1.4477 0
M  V30 1511 H 142.91 1.19532 -3.86645 0
M  V30 1512 H 141.48 1.35642 -2.81638 0
M  V30 1513 H 140.7 -0.910838 -3.83533 0
M  V30 1514 H 141.988 -0.715874 -5.03739 0
M  V30 1515 H 141.386 2.46484 -5.09178 0
M  V30 1516 H 139.943 2.48911 -6.024 0
M  V30 1517 N 143.376 1.44774 -0.622745 0
M  V30 1518 C 144.622 2.02968 -0.13257 0
M  V30 1519 C 144.977 1.48047 1.22881 0
M  V30 1520 O 144.27 0.651625 1.80179 0
M  V30 1521 C 144.464 3.57364 -0.0508323 0
M  V30 1522 C 144.293 4.27262 -1.40275 0
M  V30 1523 C 143.063 4.64577 -1.98737 0
M  V30 1524 C 145.261 4.58248 -2.3348 0
M  V30 1525 N 143.243 5.19404 -3.27251 0
M  V30 1526 C 144.614 5.14069 -3.46603 0
M  V30 1527 C 146.669 4.40195 -2.32664 0
M  V30 1528 C 145.372 5.53738 -4.59093 0
M  V30 1529 C 147.398 4.80907 -3.44213 0
M  V30 1530 C 146.76 5.36834 -4.56058 0
M  V30 1531 H 142.859 0.776541 -0.0922354 0
M  V30 1532 H 145.443 1.76385 -0.82441 0
M  V30 1533 H 143.614 3.83576 0.610265 0
M  V30 1534 H 145.346 4.02219 0.447397 0
M  V30 1535 H 142.101 4.48622 -1.51774 0
M  V30 1536 H 142.525 5.51301 -3.92933 0
M  V30 1537 H 147.167 3.96257 -1.47446 0
M  V30 1538 H 144.885 5.96635 -5.45025 0
M  V30 1539 H 148.471 4.68659 -3.44747 0
M  V30 1540 H 147.351 5.67755 -5.40947 0
M  V30 1541 N 144.854 0.36279 1.53368 0
M  V30 1542 C 145.801 -0.485008 2.25646 0
M  V30 1543 C 146.771 -1.07982 1.2621 0
M  V30 1544 O 147.956 -1.11284 1.54986 0
M  V30 1545 C 145.096 -1.62023 3.04701 0
M  V30 1546 C 144.209 -1.05086 4.19024 0
M  V30 1547 C 143.344 -2.15496 4.85525 0
M  V30 1548 C 142.383 -1.5601 5.91884 0
M  V30 1549 N 141.52 -2.60241 6.52088 0
M  V30 1550 H 146.36 0.137864 2.97681 0
M  V30 1551 H 143.897 0.0798061 1.46883 0
M  V30 1552 H 145.855 -2.28887 3.48807 0
M  V30 1553 H 144.485 -2.2138 2.34927 0
M  V30 1554 H 143.537 -0.27259 3.79422 0
M  V30 1555 H 144.849 -0.575926 4.95464 0
M  V30 1556 H 144.003 -2.90186 5.32801 0
M  V30 1557 H 142.742 -2.66341 4.08551 0
M  V30 1558 H 141.747 -0.798338 5.43973 0
M  V30 1559 H 142.972 -1.05994 6.70777 0
M  V30 1560 H 140.918 -3.10304 5.77968 0
M  V30 1561 H 140.835 -2.17426 7.24059 0
M  V30 1562 H 142.103 -3.34641 7.04014 0
M  V30 1563 N 146.332 -1.57332 0.0918853 0
M  V30 1564 C 147.295 -2.12708 -0.85369 0
M  V30 1565 C 148.295 -1.05561 -1.213 0
M  V30 1566 O 149.485 -1.31461 -1.14296 0
M  V30 1567 C 146.617 -2.64503 -2.15061 0
M  V30 1568 H 147.81 -2.97573 -0.3729 0
M  V30 1569 H 145.363 -1.55509 -0.157072 0
M  V30 1570 H 146.098 -1.83149 -2.67632 0
M  V30 1571 H 145.883 -3.4284 -1.90272 0
M  V30 1572 H 147.373 -3.07351 -2.82711 0
M  V30 1573 N 147.81 0.181792 -1.56548 0
M  V30 1574 C 148.742 1.24956 -1.92142 0
M  V30 1575 C 149.755 1.41022 -0.813422 0
M  V30 1576 O 150.944 1.41212 -1.09186 0
M  V30 1577 C 148.044 2.61981 -2.14987 0
M  V30 1578 C 147.217 2.6735 -3.46183 0
M  V30 1579 C 146.276 3.85664 -3.5798 0
M  V30 1580 O 145.302 3.72148 -4.30691 0
M  V30 1581 N 146.504 5.01683 -2.92053 0
M  V30 1582 H 149.269 0.947329 -2.84334 0
M  V30 1583 H 146.83 0.371629 -1.57577 0
M  V30 1584 H 148.822 3.3958 -2.20154 0
M  V30 1585 H 147.392 2.84637 -1.2923 0
M  V30 1586 H 146.612 1.75925 -3.52766 0
M  V30 1587 H 147.9 2.67939 -4.32534 0
M  V30 1588 H 147.298 5.15564 -2.32832 0
M  V30 1589 H 145.855 5.77181 -3.0283 0
M  V30 1590 N 149.288 1.51039 0.449983 0
M  V30 1591 C 150.534 1.63322 1.20223 0
M  V30 1592 C 150.867 0.34241 1.91158 0
M  V30 1593 O 150.142 -0.657344 1.83055 0
M  V30 1594 C 150.425 2.82801 2.22925 0
M  V30 1595 C 150.278 4.21823 1.56157 0
M  V30 1596 C 151.597 2.97807 3.24035 0
M  V30 1597 H 148.716 0.594407 0.435718 0
M  V30 1598 H 151.358 1.83489 0.493136 0
M  V30 1599 H 149.508 2.65738 2.834 0
M  V30 1600 H 151.18 4.50526 0.991162 0
M  V30 1601 H 149.423 4.25105 0.864172 0
M  V30 1602 H 150.094 5.01391 2.30891 0
M  V30 1603 H 152.57 3.13497 2.73603 0
M  V30 1604 H 151.446 3.82992 3.93202 0
M  V30 1605 H 151.707 2.09328 3.89402 0
M  V30 1606 N 150.766 -0.704594 1.40972 0
M  V30 1607 C 152.182 -1.01406 1.23244 0
M  V30 1608 C 152.382 -2.01169 0.115399 0
M  V30 1609 O 151.438 -2.47021 -0.523147 0
M  V30 1610 C 152.751 -1.54728 2.57836 0
M  V30 1611 C 154.299 -1.66658 2.64942 0
M  V30 1612 C 154.774 -2.23383 3.9983 0
M  V30 1613 N 156.265 -2.30756 4.01629 0
M  V30 1614 C 157 -2.75655 5.02794 0
M  V30 1615 N 156.496 -3.20225 6.14352 0
M  V30 1616 N 158.289 -2.75138 4.90159 0
M  V30 1617 H 150.44 -0.0435285 2.12355 0
M  V30 1618 H 152.703 -0.0818951 0.944456 0
M  V30 1619 H 152.409 -0.888832 3.40283 0
M  V30 1620 H 152.283 -2.53084 2.79693 0
M  V30 1621 H 154.67 -2.31617 1.8286 0
M  V30 1622 H 154.751 -0.668717 2.46904 0
M  V30 1623 H 154.395 -1.59043 4.82357 0
M  V30 1624 H 154.325 -3.23904 4.15203 0
M  V30 1625 H 156.816 -1.99291 3.21079 0
M  V30 1626 H 157.129 -3.53084 6.87424 0
M  V30 1627 H 155.474 -3.18156 6.17901 0
M  V30 1628 H 158.665 -2.39661 4.02095 0
M  V30 1629 H 158.838 -3.09812 5.6914 0
M  V30 1630 N 152.244 -1.26651 -0.937939 0
M  V30 1631 C 153.469 -1.15279 -1.72411 0
M  V30 1632 C 153.894 0.287866 -1.85884 0
M  V30 1633 O 153.252 1.20855 -1.35143 0
M  V30 1634 C 153.3 -1.83028 -3.10698 0
M  V30 1635 O 152.404 -1.12128 -3.96864 0
M  V30 1636 H 151.745 -0.401504 -0.528858 0
M  V30 1637 H 154.275 -1.67531 -1.1745 0
M  V30 1638 H 154.285 -1.89981 -3.6107 0
M  V30 1639 H 152.96 -2.87833 -3.00208 0
M  V30 1640 H 151.537 -1.13173 -3.55312 0
M  V30 1641 N 153.722 1.14298 -1.08507 0
M  V30 1642 C 154.971 1.84708 -0.810305 0
M  V30 1643 C 155.284 1.83903 0.666271 0
M  V30 1644 O 156.49 2.50112 1.05624 0
M  V30 1645 C 154.946 3.31572 -1.39957 0
M  V30 1646 C 154.554 3.40791 -2.90801 0
M  V30 1647 C 156.298 4.07087 -1.20334 0
M  V30 1648 C 154.205 4.81872 -3.4286 0
M  V30 1649 H 153.135 0.691985 -0.299454 0
M  V30 1650 H 155.786 1.28841 -1.30661 0
M  V30 1651 H 154.168 3.87183 -0.830976 0
M  V30 1652 H 155.342 2.95225 -3.53806 0
M  V30 1653 H 153.657 2.78732 -3.0935 0
M  V30 1654 H 156.254 5.11225 -1.56693 0
M  V30 1655 H 156.597 4.16054 -0.143237 0
M  V30 1656 H 157.13 3.57779 -1.73893 0
M  V30 1657 H 153.869 4.78094 -4.48449 0
M  V30 1658 H 153.389 5.27972 -2.84615 0
M  V30 1659 H 155.068 5.50765 -3.39509 0
M  V30 1660 N 155.201 0.870884 1.31352 0
M  V30 1661 C 156.431 0.496049 2.00557 0
M  V30 1662 C 156.839 -0.916241 1.65534 0
M  V30 1663 O 156.182 -1.61188 0.881134 0
M  V30 1664 C 156.244 0.574418 3.54881 0
M  V30 1665 C 155.908 1.94849 4.1338 0
M  V30 1666 C 156.905 2.91611 4.30417 0
M  V30 1667 C 154.59 2.25005 4.49086 0
M  V30 1668 C 156.584 4.16672 4.82352 0
M  V30 1669 C 154.271 3.50315 5.00722 0
M  V30 1670 C 155.269 4.45964 5.17306 0
M  V30 1671 O 154.957 5.69052 5.67833 0
M  V30 1672 H 154.689 0.191664 0.64826 0
M  V30 1673 H 157.243 1.17409 1.68536 0
M  V30 1674 H 155.473 -0.160549 3.86367 0
M  V30 1675 H 157.162 0.212879 4.05341 0
M  V30 1676 H 157.928 2.69622 4.03149 0
M  V30 1677 H 153.807 1.51332 4.35453 0
M  V30 1678 H 157.351 4.91336 4.95211 0
M  V30 1679 H 153.248 3.72147 5.27424 0
M  V30 1680 H 154.016 5.71236 5.86201 0
M  V30 1681 N 156.679 -1.44442 0.630414 0
M  V30 1682 C 157.904 -2.06927 0.139944 0
M  V30 1683 C 158.329 -1.46795 -1.17613 0
M  V30 1684 O 157.687 -0.569144 -1.72135 0
M  V30 1685 C 157.735 -3.6058 0.0379581 0
M  V30 1686 O 156.839 -3.99937 -1.0062 0
M  V30 1687 H 156.18 -0.658608 0.0844483 0
M  V30 1688 H 158.71 -1.85327 0.866891 0
M  V30 1689 H 158.72 -4.07714 -0.152856 0
M  V30 1690 H 157.395 -4.03728 0.998809 0
M  V30 1691 H 155.972 -3.64436 -0.79001 0
M  V30 1692 N 158.157 -0.370918 -1.53173 0
M  V30 1693 C 159.087 0.464847 -2.28826 0
M  V30 1694 C 160.068 1.07936 -1.31468 0
M  V30 1695 O 161.253 1.0956 -1.60344 0
M  V30 1696 C 158.383 1.60196 -3.08147 0
M  V30 1697 C 157.337 1.11443 -4.13237 0
M  V30 1698 C 156.663 2.3422 -4.80672 0
M  V30 1699 C 157.963 0.195384 -5.21934 0
M  V30 1700 H 159.657 -0.166329 -2.98938 0
M  V30 1701 H 157.203 -0.0814359 -1.4377 0
M  V30 1702 H 159.156 2.19332 -3.59822 0
M  V30 1703 H 157.88 2.26045 -2.35735 0
M  V30 1704 H 156.539 0.545727 -3.62515 0
M  V30 1705 H 156.187 2.98537 -4.04827 0
M  V30 1706 H 155.887 2.02269 -5.51689 0
M  V30 1707 H 157.411 2.94032 -5.35143 0
M  V30 1708 H 158.825 0.694375 -5.69079 0
M  V30 1709 H 157.222 -0.0335027 -6.00091 0
M  V30 1710 H 158.292 -0.760961 -4.78892 0
M  V30 1711 N 159.635 1.57281 -0.100228 0
M  V30 1712 C 160.565 2.17328 0.853857 0
M  V30 1713 C 161.546 1.10804 1.2906 0
M  V30 1714 O 162.731 1.38963 1.35657 0
M  V30 1715 C 159.861 2.75772 2.11109 0
M  V30 1716 C 158.815 3.87713 1.81279 0
M  V30 1717 C 158.141 4.32882 3.13874 0
M  V30 1718 C 159.441 5.10677 1.09574 0
M  V30 1719 H 161.135 2.97305 0.353545 0
M  V30 1720 H 158.681 1.43009 0.168612 0
M  V30 1721 H 160.634 3.16433 2.78296 0
M  V30 1722 H 159.358 1.93057 2.63432 0
M  V30 1723 H 158.017 3.476 1.16489 0
M  V30 1724 H 157.665 3.47051 3.64095 0
M  V30 1725 H 157.365 5.08358 2.94696 0
M  V30 1726 H 158.889 4.7618 3.82211 0
M  V30 1727 H 160.303 5.48474 1.66879 0
M  V30 1728 H 158.7 5.91615 1.00557 0
M  V30 1729 H 159.77 4.84835 0.0793299 0
M  V30 1730 N 161.113 -0.173488 1.56642 0
M  V30 1731 C 162.046 -1.24353 1.91342 0
M  V30 1732 C 163.024 -1.4289 0.775965 0
M  V30 1733 O 164.208 -1.57932 1.02907 0
M  V30 1734 C 161.335 -2.60683 2.16245 0
M  V30 1735 C 160.381 -2.58894 3.38934 0
M  V30 1736 S 161.214 -2.0819 4.93373 0
M  V30 1737 C 162.37 -3.46302 5.21369 0
M  V30 1738 H 162.603 -0.947345 2.81803 0
M  V30 1739 H 160.136 -0.377958 1.49703 0
M  V30 1740 H 162.094 -3.39149 2.31275 0
M  V30 1741 H 160.755 -2.87502 1.26496 0
M  V30 1742 H 159.948 -3.59188 3.53553 0
M  V30 1743 H 159.55 -1.88522 3.2301 0
M  V30 1744 H 161.842 -4.42287 5.13214 0
M  V30 1745 H 162.785 -3.3656 6.23003 0
M  V30 1746 H 163.193 -3.42214 4.48943 0
M  V30 1747 N 162.591 -1.51276 -0.441967 0
M  V30 1748 C 163.839 -1.63392 -1.18943 0
M  V30 1749 C 164.16 -0.350159 -1.9183 0
M  V30 1750 O 163.43 0.633784 -1.85364 0
M  V30 1751 H 162.01 -0.602164 -0.442049 0
M  V30 1752 H 164.672 -1.88186 -0.507165 0
M  V30 1753 H 163.768 -2.45934 -1.92154 0
M  V30 1754 N 164.069 0.697108 -1.41344 0
M  V30 1755 C 165.294 1.49096 -1.44171 0
M  V30 1756 C 165.719 1.88038 -0.0481568 0
M  V30 1757 O 165.077 1.54525 0.948243 0
M  V30 1758 C 165.125 2.73088 -2.3549 0
M  V30 1759 O 164.229 3.70514 -1.81088 0
M  V30 1760 H 163.57 0.448801 -0.489361 0
M  V30 1761 H 166.1 0.856992 -1.85787 0
M  V30 1762 H 166.11 3.21413 -2.51312 0
M  V30 1763 H 164.785 2.44081 -3.36745 0
M  V30 1764 H 163.362 3.29441 -1.74708 0
M  V30 1765 N 165.547 1.27147 0.931209 0
M  V30 1766 C 166.777 1.15914 1.71019 0
M  V30 1767 C 167.185 -0.287112 1.87009 0
M  V30 1768 O 166.528 -1.20761 1.38429 0
M  V30 1769 C 166.59 1.76647 3.13107 0
M  V30 1770 C 166.254 3.25807 3.20467 0
M  V30 1771 C 167.251 4.22489 3.02983 0
M  V30 1772 C 164.936 3.66452 3.43538 0
M  V30 1773 C 166.93 5.57794 3.08454 0
M  V30 1774 C 164.617 5.01888 3.48643 0
M  V30 1775 C 165.615 5.97369 3.31119 0
M  V30 1776 O 165.303 7.30337 3.35952 0
M  V30 1777 H 165.035 0.404062 0.54195 0
M  V30 1778 H 167.589 1.68457 1.17521 0
M  V30 1779 H 165.819 1.18578 3.68071 0
M  V30 1780 H 167.508 1.60179 3.72958 0
M  V30 1781 H 168.274 3.92425 2.85004 0
M  V30 1782 H 164.153 2.92611 3.5623 0
M  V30 1783 H 167.697 6.32298 2.94694 0
M  V30 1784 H 163.594 5.31609 3.66145 0
M  V30 1785 H 164.362 7.38739 3.5243 0
M  V30 1786 N 167.025 -1.13721 1.09112 0
M  V30 1787 C 167.973 -2.21103 0.722219 0
M  V30 1788 C 168.967 -1.67147 -0.275374 0
M  V30 1789 O 170.173 -1.79477 -0.137176 0
M  V30 1790 H 166.548 -0.720445 0.215553 0
M  V30 1791 H 168.519 -2.49483 1.63709 0
M  V30 1792 C 167.268 -3.47352 0.15543 0
M  V30 1793 H 166.591 -3.89206 0.914246 0
M  V30 1794 H 168.031 -4.2395 -0.0647967 0
M  V30 1795 C 166.49 -3.1814 -1.10852 0
M  V30 1796 O 167.02 -3.36604 -2.19227 0
M  V30 1797 N 165.226 -2.72045 -1.02176 0
M  V30 1798 H 164.773 -2.57221 -0.139764 0
M  V30 1799 H 164.731 -2.52875 -1.8682 0
M  V30 1800 N 168.503 -0.877838 -1.30888 0
M  V30 1801 C 169.78 -0.413052 -1.91189 0
M  V30 1802 C 170.16 1.1056 -1.79832 0
M  V30 1803 O 169.508 1.93771 -1.21099 0
M  V30 1804 C 169.718 -0.903191 -3.3711 0
M  V30 1805 C 171.066 -0.93395 -4.14201 0
M  V30 1806 O 172.09 -0.849373 -3.45925 0
M  V30 1807 O 170.949 -1.05772 -5.36167 0
M  V30 1808 H 168.043 -0.125035 -0.817493 0
M  V30 1809 H 170.589 -0.966269 -1.39504 0
M  V30 1810 H 169.361 -1.94692 -3.39427 0
M  V30 1811 H 168.984 -0.328732 -3.96239 0
M  V30 1812 N 169.982 1.44106 -0.638065 0
M  V30 1813 C 171.231 2.01194 -0.142744 0
M  V30 1814 C 171.544 1.50835 1.24532 0
M  V30 1815 O 172.75 2.00096 1.83504 0
M  V30 1816 C 171.206 3.59319 -0.20442 0
M  V30 1817 C 170.814 4.18674 -1.59423 0
M  V30 1818 C 172.558 4.23854 0.234079 0
M  V30 1819 C 170.465 5.69045 -1.61065 0
M  V30 1820 H 169.395 0.752367 -0.0495998 0
M  V30 1821 H 172.046 1.65246 -0.797881 0
M  V30 1822 H 170.428 3.92598 0.517946 0
M  V30 1823 H 171.602 3.96921 -2.34074 0
M  V30 1824 H 169.917 3.66453 -1.97741 0
M  V30 1825 H 172.514 5.34155 0.241443 0
M  V30 1826 H 172.857 3.96688 1.2627 0
M  V30 1827 H 173.39 3.95403 -0.436025 0
M  V30 1828 H 170.129 6.00956 -2.61787 0
M  V30 1829 H 169.649 5.929 -0.90718 0
M  V30 1830 H 171.328 6.32809 -1.34766 0
M  V30 1831 N 171.46 0.379036 1.52974 0
M  V30 1832 C 172.707 -0.206421 2.01445 0
M  V30 1833 C 173.035 -1.47668 1.26587 0
M  V30 1834 O 172.29 -1.92514 0.351675 0
M  V30 1835 C 172.589 -0.53096 3.53434 0
M  V30 1836 C 172.255 0.646546 4.46241 0
M  V30 1837 C 170.917 0.969604 4.7133 0
M  V30 1838 C 173.269 1.43479 5.01062 0
M  V30 1839 C 170.597 2.08263 5.48492 0
M  V30 1840 C 172.949 2.53834 5.7944 0
M  V30 1841 C 171.613 2.86659 6.02812 0
M  V30 1842 H 170.883 -0.0755349 0.73714 0
M  V30 1843 H 173.53 0.514271 1.84465 0
M  V30 1844 H 171.835 -1.33285 3.68432 0
M  V30 1845 H 173.532 -0.996417 3.88423 0
M  V30 1846 H 170.122 0.384734 4.2687 0
M  V30 1847 H 174.306 1.19844 4.81613 0
M  V30 1848 H 169.562 2.34078 5.64816 0
M  V30 1849 H 173.736 3.15319 6.20924 0
M  V30 1850 H 171.363 3.73026 6.62387 0
M  V30 1851 N 172.938 -1.57226 0.108567 0
M  V30 1852 C 174.215 -1.86333 -0.594939 0
M  V30 1853 C 174.595 -1.00788 -1.85486 0
M  V30 1854 O 173.943 -0.0839293 -2.28346 0
M  V30 1855 C 174.153 -3.37265 -0.897405 0
M  V30 1856 C 175.501 -4.05629 -1.25501 0
M  V30 1857 O 176.525 -3.42224 -0.987998 0
M  V30 1858 O 175.384 -5.17531 -1.75567 0
M  V30 1859 H 172.478 -0.771018 -0.2991 0
M  V30 1860 H 175.024 -1.69102 0.142283 0
M  V30 1861 H 173.796 -3.913 -0.00413806 0
M  V30 1862 H 173.419 -3.59889 -1.69014 0
M  V30 1863 N 174.416 0.165178 -1.56732 0
M  V30 1864 C 175.346 1.20651 -1.99914 0
M  V30 1865 C 176.327 1.45827 -0.875705 0
M  V30 1866 O 177.512 1.57057 -1.14223 0
M  V30 1867 C 174.642 2.54401 -2.36427 0
M  V30 1868 C 173.596 2.43782 -3.51787 0
M  V30 1869 C 172.922 3.82078 -3.7406 0
M  V30 1870 C 174.222 1.93732 -4.85041 0
M  V30 1871 H 175.916 0.847534 -2.87154 0
M  V30 1872 H 173.462 0.40625 -1.38151 0
M  V30 1873 H 175.415 3.27458 -2.65234 0
M  V30 1874 H 174.139 2.92098 -1.46103 0
M  V30 1875 H 172.798 1.73178 -3.23117 0
M  V30 1876 H 172.446 4.17179 -2.81017 0
M  V30 1877 H 172.146 3.7584 -4.51684 0
M  V30 1878 H 173.67 4.56712 -4.05274 0
M  V30 1879 H 175.084 2.56569 -5.12684 0
M  V30 1880 H 173.481 1.98428 -5.66345 0
M  V30 1881 H 174.551 0.891962 -4.76626 0
M  V30 1882 N 175.894 1.51508 0.433938 0
M  V30 1883 C 177.141 1.64345 1.18309 0
M  V30 1884 C 177.469 0.361315 1.91115 0
M  V30 1885 O 176.724 -0.654753 1.84422 0
M  V30 1886 C 177.023 2.79928 2.22205 0
M  V30 1887 C 176.689 4.19078 1.66387 0
M  V30 1888 C 175.351 4.56932 1.50887 0
M  V30 1889 C 177.703 5.05894 1.25381 0
M  V30 1890 C 175.031 5.79305 0.928608 0
M  V30 1891 C 177.383 6.2885 0.687823 0
M  V30 1892 C 176.047 6.65473 0.519755 0
M  V30 1893 H 175.317 0.601381 0.432923 0
M  V30 1894 H 177.964 1.85549 0.473676 0
M  V30 1895 H 176.269 2.52959 2.99197 0
M  V30 1896 H 177.966 2.87059 2.79997 0
M  V30 1897 H 174.556 3.89234 1.79428 0
M  V30 1898 H 178.74 4.77253 1.36175 0
M  V30 1899 H 173.996 6.06324 0.786186 0
M  V30 1900 H 178.17 6.95461 0.361581 0
M  V30 1901 H 175.797 7.6017 0.0679979 0
M  V30 1902 N 177.372 -0.689602 1.41712 0
M  V30 1903 C 178.619 -1.44966 1.4139 0
M  V30 1904 C 178.947 -1.94484 0.025105 0
M  V30 1905 O 178.202 -1.70307 -0.964048 0
M  V30 1906 C 178.501 -2.67298 2.37247 0
M  V30 1907 C 178.167 -2.36405 3.83958 0
M  V30 1908 C 176.829 -2.27691 4.23923 0
M  V30 1909 C 179.181 -2.11043 4.76561 0
M  V30 1910 C 176.509 -1.91719 5.54492 0
M  V30 1911 C 178.861 -1.76578 6.07456 0
M  V30 1912 C 177.525 -1.66363 6.46436 0
M  V30 1913 H 176.795 -0.53047 0.517381 0
M  V30 1914 H 179.442 -0.787655 1.74552 0
M  V30 1915 H 177.747 -3.38461 1.9736 0
M  V30 1916 H 179.444 -3.25452 2.34269 0
M  V30 1917 H 176.034 -2.44085 3.52308 0
M  V30 1918 H 180.218 -2.16717 4.46483 0
M  V30 1919 H 175.474 -1.82367 5.83568 0
M  V30 1920 H 179.648 -1.55974 6.78708 0
M  V30 1921 H 177.275 -1.38258 7.47522 0
M  V30 1922 N 178.85 -1.27639 -0.924453 0
M  V30 1923 C 180.075 -1.17101 -1.71179 0
M  V30 1924 C 180.5 0.268134 -1.86179 0
M  V30 1925 O 179.858 1.19415 -1.36418 0
M  V30 1926 C 179.906 -1.86313 -3.08739 0
M  V30 1927 O 179.01 -1.16331 -3.95652 0
M  V30 1928 H 178.351 -0.407091 -0.524569 0
M  V30 1929 H 180.881 -1.68767 -1.15666 0
M  V30 1930 H 180.891 -1.938 -3.59034 0
M  V30 1931 H 179.566 -2.91001 -2.97138 0
M  V30 1932 H 178.143 -1.16935 -3.54091 0
M  V30 1933 N 180.328 1.1314 -1.09713 0
M  V30 1934 C 181.276 2.20717 -0.733934 0
M  V30 1935 C 182.27 1.6729 0.266506 0
M  V30 1936 O 183.476 1.79547 0.127656 0
M  V30 1937 H 179.851 0.719292 -0.21937 0
M  V30 1938 H 181.822 2.48611 -1.6503 0
M  V30 1939 C 180.571 3.47265 -0.173849 0
M  V30 1940 H 179.894 3.88716 -0.934873 0
M  V30 1941 H 181.334 4.23979 0.0423126 0
M  V30 1942 C 179.793 3.18724 1.09164 0
M  V30 1943 O 180.323 3.37762 2.17439 0
M  V30 1944 N 178.529 2.72583 1.00732 0
M  V30 1945 H 178.076 2.57291 0.126121 0
M  V30 1946 H 178.034 2.53862 1.85476 0
M  V30 1947 N 181.806 0.884767 1.30421 0
M  V30 1948 C 183.046 0.509806 1.9794 0
M  V30 1949 C 183.41 -0.923736 1.68319 0
M  V30 1950 O 184.611 -1.40481 2.29169 0
M  V30 1951 C 182.882 0.776732 3.48858 0
M  V30 1952 S 184.441 0.503843 4.35898 0
M  V30 1953 H 181.259 0.189699 0.685227 0
M  V30 1954 H 183.861 1.14399 1.58535 0
M  V30 1955 H 182.565 1.81857 3.67908 0
M  V30 1956 H 182.096 0.1301 3.93185 0
M  V30 1957 H 184.111 -0.657625 4.91823 0
M  V30 1958 N 183.284 -1.43765 0.645699 0
M  V30 1959 C 184.7 -1.56509 0.312591 0
M  V30 1960 C 184.9 -1.6307 -1.18365 0
M  V30 1961 O 183.956 -1.58167 -1.96824 0
M  V30 1962 C 185.269 -2.82968 1.01733 0
M  V30 1963 C 186.817 -2.96701 0.996865 0
M  V30 1964 C 187.292 -4.25982 1.68236 0
M  V30 1965 N 188.783 -4.32829 1.64964 0
M  V30 1966 C 189.518 -5.31613 2.14885 0
M  V30 1967 N 189.014 -6.36718 2.73061 0
M  V30 1968 N 190.807 -5.23217 2.05428 0
M  V30 1969 H 182.958 -1.3775 1.61675 0
M  V30 1970 H 185.221 -0.661067 0.679481 0
M  V30 1971 H 184.927 -2.84156 2.0724 0
M  V30 1972 H 184.801 -3.72957 0.564177 0
M  V30 1973 H 187.188 -2.95058 -0.0497719 0
M  V30 1974 H 187.269 -2.08022 1.48865 0
M  V30 1975 H 186.913 -4.28386 2.72852 0
M  V30 1976 H 186.843 -5.13545 1.16529 0
M  V30 1977 H 189.334 -3.57493 1.22503 0
M  V30 1978 H 189.647 -7.08401 3.08848 0
M  V30 1979 H 187.992 -6.37362 2.77118 0
M  V30 1980 H 191.183 -4.40019 1.59689 0
M  V30 1981 H 191.356 -6.00045 2.44643 0
M  V30 1982 N 184.763 -0.387143 -1.52771 0
M  V30 1983 C 185.988 0.198407 -2.06449 0
M  V30 1984 C 186.413 1.39918 -1.25716 0
M  V30 1985 O 185.771 1.79099 -0.281657 0
M  V30 1986 C 185.819 0.548893 -3.56398 0
M  V30 1987 O 184.923 1.64315 -3.78252 0
M  V30 1988 H 184.264 0.0237731 -0.663574 0
M  V30 1989 H 186.794 -0.553989 -1.96957 0
M  V30 1990 H 186.804 0.813812 -3.99801 0
M  V30 1991 H 185.479 -0.329005 -4.14597 0
M  V30 1992 H 184.056 1.37211 -3.46738 0
M  V30 1993 N 186.241 1.57166 -0.116904 0
M  V30 1994 C 187.171 2.18222 0.830759 0
M  V30 1995 C 188.152 1.12167 1.27877 0
M  V30 1996 O 189.337 1.40394 1.34176 0
M  V30 1997 C 186.467 2.77996 2.08172 0
M  V30 1998 C 185.421 3.89614 1.77157 0
M  V30 1999 C 184.747 4.36187 3.09265 0
M  V30 2000 C 186.047 5.1181 1.04151 0
M  V30 2001 H 187.741 2.97664 0.321992 0
M  V30 2002 H 185.287 1.4318 0.153434 0
M  V30 2003 H 187.24 3.19366 2.74924 0
M  V30 2004 H 185.964 1.9584 2.6137 0
M  V30 2005 H 184.623 3.48816 1.12796 0
M  V30 2006 H 184.271 3.50893 3.60393 0
M  V30 2007 H 183.971 5.11455 2.89288 0
M  V30 2008 H 185.495 4.80207 3.77139 0
M  V30 2009 H 186.909 5.50214 1.61052 0
M  V30 2010 H 185.306 5.92648 0.942762 0
M  V30 2011 H 186.376 4.84892 0.0279022 0
M  V30 2012 N 187.719 -0.156864 1.56817 0
M  V30 2013 C 188.966 -0.871125 1.82805 0
M  V30 2014 C 189.294 -1.81611 0.696262 0
M  V30 2015 O 188.549 -1.93141 -0.315459 0
M  V30 2016 C 188.848 -1.68737 3.1506 0
M  V30 2017 C 188.514 -0.890045 4.42028 0
M  V30 2018 C 187.176 -0.670042 4.76512 0
M  V30 2019 C 189.528 -0.331769 5.20143 0
M  V30 2020 C 186.856 0.119104 5.86579 0
M  V30 2021 C 189.208 0.444365 6.31037 0
M  V30 2022 C 187.872 0.675035 6.64078 0
M  V30 2023 H 187.142 -0.318767 0.668931 0
M  V30 2024 H 189.789 -0.135274 1.91022 0
M  V30 2025 H 188.094 -2.49304 3.0225 0
M  V30 2026 H 189.791 -2.24331 3.3238 0
M  V30 2027 H 186.381 -1.07157 4.14988 0
M  V30 2028 H 190.565 -0.489043 4.93885 0
M  V30 2029 H 185.821 0.307417 6.10627 0
M  V30 2030 H 189.995 0.884139 6.90765 0
M  V30 2031 H 187.622 1.28839 7.49203 0
M  V30 2032 N 189.197 -1.51736 -0.425897 0
M  V30 2033 C 190.144 -1.73875 -1.51776 0
M  V30 2034 C 191.114 -0.580702 -1.55618 0
M  V30 2035 O 192.299 -0.81641 -1.72451 0
M  V30 2036 C 189.439 -1.88012 -2.89388 0
M  V30 2037 C 188.552 -3.15606 -2.94986 0
M  V30 2038 C 187.687 -3.20271 -4.23793 0
M  V30 2039 C 186.726 -4.42134 -4.23302 0
M  V30 2040 N 185.863 -4.44284 -5.43651 0
M  V30 2041 H 190.703 -2.67071 -1.32201 0
M  V30 2042 H 188.24 -1.32351 -0.642008 0
M  V30 2043 H 190.198 -1.9419 -3.69251 0
M  V30 2044 H 188.828 -0.98213 -3.07496 0
M  V30 2045 H 187.88 -3.18681 -2.07717 0
M  V30 2046 H 189.192 -4.05486 -2.90486 0
M  V30 2047 H 188.346 -3.25428 -5.12036 0
M  V30 2048 H 187.085 -2.28299 -4.30965 0
M  V30 2049 H 186.09 -4.3714 -3.3345 0
M  V30 2050 H 187.315 -5.35382 -4.17783 0
M  V30 2051 H 185.261 -3.55188 -5.51523 0
M  V30 2052 H 185.178 -5.27988 -5.41078 0
M  V30 2053 H 186.446 -4.53649 -6.33895 0
M  V30 2054 N 190.675 0.682077 -1.42076 0
M  V30 2055 C 191.952 1.43755 -1.32642 0
M  V30 2056 C 192.332 2.11063 0.0396611 0
M  V30 2057 O 191.68 2.02701 1.05474 0
M  V30 2058 C 191.89 2.44596 -2.48946 0
M  V30 2059 C 193.238 3.09454 -2.9073 0
M  V30 2060 O 194.262 2.54922 -2.48783 0
M  V30 2061 O 193.121 4.08253 -3.63307 0
M  V30 2062 H 190.215 0.640857 -0.522715 0
M  V30 2063 H 192.761 0.711415 -1.54068 0
M  V30 2064 H 191.533 1.93609 -3.40046 0
M  V30 2065 H 191.156 3.24701 -2.29467 0
M  V30 2066 N 192.153 1.28127 0.917671 0
M  V30 2067 C 193.1 1.11717 2.0196 0
M  V30 2068 C 194.07 0.0153929 1.66093 0
M  V30 2069 O 195.255 0.179596 1.89953 0
M  V30 2070 C 192.395 0.780927 3.36148 0
M  V30 2071 C 191.508 1.96135 3.84909 0
M  V30 2072 C 190.643 1.56609 5.0759 0
M  V30 2073 C 189.682 2.71339 5.48673 0
M  V30 2074 N 188.819 2.32332 6.62545 0
M  V30 2075 H 193.659 2.06003 2.15329 0
M  V30 2076 H 191.196 1.02535 1.05475 0
M  V30 2077 H 193.154 0.56675 4.13333 0
M  V30 2078 H 191.784 -0.124998 3.22558 0
M  V30 2079 H 190.836 2.28777 3.03916 0
M  V30 2080 H 192.148 2.82165 4.1132 0
M  V30 2081 H 191.302 1.31374 5.92305 0
M  V30 2082 H 190.041 0.677014 4.82978 0
M  V30 2083 H 189.046 2.97276 4.62501 0
M  V30 2084 H 190.271 3.60882 5.75274 0
M  V30 2085 H 188.217 1.45889 6.39572 0
M  V30 2086 H 188.134 3.11899 6.88662 0
M  V30 2087 H 189.402 2.10371 7.50576 0
M  V30 2088 N 193.631 -1.12557 1.10312 0
M  V30 2089 C 194.578 -2.18247 0.750781 0
M  V30 2090 C 195.548 -1.63853 -0.272293 0
M  V30 2091 O 196.733 -1.90195 -0.151862 0
M  V30 2092 C 193.873 -3.44591 0.187379 0
M  V30 2093 C 192.986 -4.13046 1.2656 0
M  V30 2094 C 192.121 -5.27034 0.663978 0
M  V30 2095 C 191.16 -5.87353 1.72287 0
M  V30 2096 N 190.297 -6.92757 1.1416 0
M  V30 2097 H 195.137 -2.47732 1.65628 0
M  V30 2098 H 192.674 -1.21629 0.827337 0
M  V30 2099 H 194.632 -4.16904 -0.157148 0
M  V30 2100 H 193.262 -3.15527 -0.681355 0
M  V30 2101 H 192.314 -3.38924 1.72727 0
M  V30 2102 H 193.626 -4.53947 2.06721 0
M  V30 2103 H 192.78 -6.06104 0.268824 0
M  V30 2104 H 191.519 -4.87407 -0.169082 0
M  V30 2105 H 190.524 -5.06971 2.12746 0
M  V30 2106 H 191.749 -6.29051 2.55875 0
M  V30 2107 H 189.695 -6.5517 0.329984 0
M  V30 2108 H 189.612 -7.3225 1.88007 0
M  V30 2109 H 190.88 -7.75658 0.772956 0
M  V30 2110 N 195.109 -0.891671 -1.2995 0
M  V30 2111 C 196.039 -0.379797 -2.30391 0
M  V30 2112 C 197.02 0.540919 -1.6127 0
M  V30 2113 O 198.205 0.453352 -1.88834 0
M  V30 2114 C 195.335 0.400654 -3.44981 0
M  V30 2115 C 194.289 -0.428905 -4.25846 0
M  V30 2116 C 193.615 0.478557 -5.32554 0
M  V30 2117 C 194.915 -1.67458 -4.94727 0
M  V30 2118 H 196.609 -1.21914 -2.73454 0
M  V30 2119 H 194.155 -0.587675 -1.31462 0
M  V30 2120 H 196.108 0.769434 -4.14316 0
M  V30 2121 H 194.832 1.27371 -3.0074 0
M  V30 2122 H 193.491 -0.779911 -3.58208 0
M  V30 2123 H 193.139 1.34951 -4.84559 0
M  V30 2124 H 192.839 -0.0727433 -5.87555 0
M  V30 2125 H 194.363 0.843705 -6.04743 0
M  V30 2126 H 195.777 -1.376 -5.56542 0
M  V30 2127 H 194.174 -2.16659 -5.59624 0
M  V30 2128 H 195.244 -2.41518 -4.20473 0
M  V30 2129 N 196.587 1.43421 -0.653314 0
M  V30 2130 C 197.833 2.02111 -0.166992 0
M  V30 2131 C 198.166 1.51423 1.21592 0
M  V30 2132 O 197.441 0.707389 1.8118 0
M  V30 2133 C 197.724 3.5966 -0.177948 0
M  V30 2134 C 197.577 4.20579 -1.59478 0
M  V30 2135 C 198.896 4.37413 0.4856 0
M  V30 2136 H 196.015 0.734374 -0.0621557 0
M  V30 2137 H 198.657 1.70717 -0.834016 0
M  V30 2138 H 196.807 3.86537 0.390032 0
M  V30 2139 H 198.479 4.04732 -2.21336 0
M  V30 2140 H 196.722 3.77226 -2.14204 0
M  V30 2141 H 197.393 5.29665 -1.5543 0
M  V30 2142 H 199.869 4.161 0.00234528 0
M  V30 2143 H 198.745 5.47075 0.447207 0
M  V30 2144 H 199.006 4.13672 1.55974 0
M  V30 2145 N 198.065 0.39524 1.52563 0
M  V30 2146 C 198.975 -0.444232 2.30356 0
M  V30 2147 C 199.991 -1.06615 1.37511 0
M  V30 2148 O 201.167 -1.07067 1.70583 0
M  V30 2149 C 198.232 -1.55315 3.09964 0
M  V30 2150 C 197.293 -0.955734 4.18526 0
M  V30 2151 C 196.526 -2.01181 4.9433 0
M  V30 2152 O 196.749 -3.22781 4.70285 0
M  V30 2153 O 195.683 -1.62579 5.79527 0
M  V30 2154 H 199.509 0.189667 3.03107 0
M  V30 2155 H 197.094 0.1588 1.48554 0
M  V30 2156 H 198.976 -2.19724 3.59582 0
M  V30 2157 H 197.651 -2.17191 2.4002 0
M  V30 2158 H 196.558 -0.274743 3.7309 0
M  V30 2159 H 197.891 -0.381109 4.90722 0
M  V30 2160 N 199.544 -1.57102 0.125237 0
M  V30 2161 C 200.774 -1.99472 -0.538015 0
M  V30 2162 C 201.182 -1.00395 -1.60366 0
M  V30 2163 O 200.525 0.0103875 -1.83697 0
M  V30 2164 C 200.587 -3.38262 -1.21734 0
M  V30 2165 C 200.251 -4.56021 -0.298897 0
M  V30 2166 C 201.248 -5.17817 0.464943 0
M  V30 2167 C 198.933 -5.01869 -0.208149 0
M  V30 2168 C 200.927 -6.23852 1.3072 0
M  V30 2169 C 198.614 -6.07763 0.637736 0
M  V30 2170 C 199.612 -6.68622 1.39403 0
M  V30 2171 O 199.3 -7.7247 2.22586 0
M  V30 2172 H 199.032 -0.659934 -0.146501 0
M  V30 2173 H 201.586 -2.04321 0.210267 0
M  V30 2174 H 199.816 -3.30185 -2.01282 0
M  V30 2175 H 201.505 -3.6488 -1.77813 0
M  V30 2176 H 202.271 -4.83308 0.404741 0
M  V30 2177 H 198.15 -4.54241 -0.786522 0
M  V30 2178 H 201.694 -6.71284 1.898 0
M  V30 2179 H 197.591 -6.41701 0.699309 0
M  V30 2180 H 198.359 -7.89595 2.15596 0
M  V30 2181 N 201.022 0.148545 -1.56898 0
M  V30 2182 C 201.952 1.18524 -2.01182 0
M  V30 2183 C 202.933 1.4489 -0.891123 0
M  V30 2184 O 204.118 1.55836 -1.15882 0
M  V30 2185 C 201.248 2.51879 -2.39112 0
M  V30 2186 C 200.202 2.40038 -3.54353 0
M  V30 2187 C 199.528 3.78089 -3.78091 0
M  V30 2188 C 200.828 1.88577 -4.87069 0
M  V30 2189 H 202.522 0.817029 -2.88036 0
M  V30 2190 H 200.068 0.391575 -1.38574 0
M  V30 2191 H 202.021 3.24627 -2.68692 0
M  V30 2192 H 200.745 2.90532 -1.49193 0
M  V30 2193 H 199.404 1.69742 -3.24936 0
M  V30 2194 H 199.052 4.14175 -2.85426 0
M  V30 2195 H 198.752 3.71028 -4.55645 0
M  V30 2196 H 200.276 4.52387 -4.10095 0
M  V30 2197 H 201.69 2.51117 -5.15377 0
M  V30 2198 H 200.087 1.9241 -5.68417 0
M  V30 2199 H 201.157 0.84136 -4.77545 0
M  V30 2200 N 202.5 1.5196 0.417844 0
M  V30 2201 C 203.447 1.74678 1.50852 0
M  V30 2202 C 204.417 0.588947 1.55308 0
M  V30 2203 O 205.602 0.825544 1.72016 0
M  V30 2204 C 202.742 1.89544 2.88387 0
M  V30 2205 C 201.855 3.17166 2.93309 0
M  V30 2206 C 200.99 3.22513 4.22088 0
M  V30 2207 C 200.029 4.44372 4.20951 0
M  V30 2208 N 199.166 4.47161 5.41287 0
M  V30 2209 H 204.006 2.67768 1.30783 0
M  V30 2210 H 201.543 1.32689 0.63498 0
M  V30 2211 H 203.501 1.96146 3.68216 0
M  V30 2212 H 202.131 0.998424 3.06971 0
M  V30 2213 H 201.183 3.19778 2.06024 0
M  V30 2214 H 202.495 4.07021 2.88332 0
M  V30 2215 H 201.649 3.28139 5.10303 0
M  V30 2216 H 200.388 2.30581 4.29748 0
M  V30 2217 H 199.393 4.38902 3.31127 0
M  V30 2218 H 200.618 5.3759 4.14938 0
M  V30 2219 H 198.564 3.58108 5.49632 0
M  V30 2220 H 198.481 5.3085 5.3827 0
M  V30 2221 H 199.749 4.57005 6.3148 0
M  V30 2222 N 203.978 -0.674533 1.42435 0
M  V30 2223 C 204.888 -1.81751 1.48337 0
M  V30 2224 C 205.904 -1.69975 0.372099 0
M  V30 2225 O 207.08 -1.91521 0.62304 0
M  V30 2226 C 204.145 -3.17895 1.38361 0
M  V30 2227 C 203.206 -3.41625 2.59982 0
M  V30 2228 C 202.439 -4.71274 2.50473 0
M  V30 2229 O 202.662 -5.49197 1.54075 0
M  V30 2230 O 201.596 -4.96254 3.4061 0
M  V30 2231 H 205.422 -1.79728 2.44809 0
M  V30 2232 H 203.007 -0.830312 1.24202 0
M  V30 2233 H 204.889 -3.99136 1.35161 0
M  V30 2234 H 203.564 -3.20555 0.450144 0
M  V30 2235 H 202.471 -2.60231 2.68757 0
M  V30 2236 H 203.804 -3.43796 3.52229 0
M  V30 2237 N 205.456 -1.28612 -0.910864 0
M  V30 2238 C 206.681 -1.1891 -1.69927 0
M  V30 2239 C 207.106 0.248372 -1.86453 0
M  V30 2240 O 206.464 1.17961 -1.37676 0
M  V30 2241 C 206.512 -1.89578 -3.06745 0
M  V30 2242 O 205.616 -1.20521 -3.94396 0
M  V30 2243 H 204.957 -0.412632 -0.520222 0
M  V30 2244 H 207.487 -1.69985 -1.1387 0
M  V30 2245 H 207.497 -1.97597 -3.56958 0
M  V30 2246 H 206.172 -2.94136 -2.94035 0
M  V30 2247 H 204.749 -1.20684 -3.52831 0
M  V30 2248 N 206.934 1.1197 -1.10907 0
M  V30 2249 C 208.159 1.87942 -0.877064 0
M  V30 2250 C 208.584 1.79341 0.567314 0
M  V30 2251 O 207.942 1.15184 1.40009 0
M  V30 2252 C 207.99 3.34926 -1.33629 0
M  V30 2253 O 207.094 4.09303 -0.504447 0
M  V30 2254 H 206.435 0.583785 -0.316371 0
M  V30 2255 H 208.965 1.4157 -1.47712 0
M  V30 2256 H 208.975 3.8577 -1.32837 0
M  V30 2257 H 207.65 3.40504 -2.3881 0
M  V30 2258 H 206.227 3.68393 -0.577993 0
M  V30 2259 N 208.412 0.89855 1.29475 0
M  V30 2260 C 209.659 0.523882 1.95606 0
M  V30 2261 C 209.987 -0.929608 1.70847 0
M  V30 2262 O 209.242 -1.67401 1.01367 0
M  V30 2263 C 209.541 0.761398 3.49195 0
M  V30 2264 C 209.207 2.19207 3.94029 0
M  V30 2265 C 207.869 2.58326 4.05982 0
M  V30 2266 C 210.221 3.12379 4.17216 0
M  V30 2267 C 207.549 3.898 4.38489 0
M  V30 2268 C 209.901 4.43401 4.51197 0
M  V30 2269 C 208.565 4.82394 4.61359 0
M  V30 2270 H 207.835 0.191702 0.715773 0
M  V30 2271 H 210.482 1.13699 1.54094 0
M  V30 2272 H 208.787 0.0653622 3.91745 0
M  V30 2273 H 210.484 0.450904 3.98457 0
M  V30 2274 H 207.074 1.87846 3.85242 0
M  V30 2275 H 211.258 2.83371 4.07449 0
M  V30 2276 H 206.514 4.19734 4.44559 0
M  V30 2277 H 210.688 5.15623 4.68087 0
M  V30 2278 H 208.315 5.84306 4.86303 0
M  V30 2279 N 209.89 -1.43072 0.660911 0
M  V30 2280 C 211.167 -1.95307 0.107017 0
M  V30 2281 C 211.547 -1.60192 -1.37484 0
M  V30 2282 O 210.895 -0.890949 -2.10415 0
M  V30 2283 C 211.105 -3.47124 0.361402 0
M  V30 2284 C 212.453 -4.23738 0.270455 0
M  V30 2285 O 213.477 -3.54981 0.294382 0
M  V30 2286 O 212.336 -5.46131 0.200737 0
M  V30 2287 H 209.43 -0.826984 -0.00517729 0
M  V30 2288 H 211.976 -1.52972 0.734681 0
M  V30 2289 H 210.748 -3.65837 1.38848 0
M  V30 2290 H 210.371 -3.96475 -0.298953 0
M  V30 2291 N 211.368 -0.403325 -1.52352 0
M  V30 2292 C 212.331 0.413051 -2.25447 0
M  V30 2293 C 213.331 0.978513 -1.276 0
M  V30 2294 O 214.521 0.858305 -1.51587 0
M  V30 2295 C 211.653 1.58087 -3.02029 0
M  V30 2296 H 212.846 -0.227094 -2.99039 0
M  V30 2297 H 210.399 -0.155722 -1.55522 0
M  V30 2298 H 211.134 2.25804 -2.32772 0
M  V30 2299 H 210.919 1.18195 -3.73861 0
M  V30 2300 H 212.409 2.1585 -3.57489 0
M  V30 2301 N 212.846 1.57033 -0.133567 0
M  V30 2302 C 214.092 1.95976 0.521649 0
M  V30 2303 C 214.425 1.01779 1.65393 0
M  V30 2304 O 213.7 0.0576581 1.94415 0
M  V30 2305 C 213.983 3.44738 1.04057 0
M  V30 2306 C 213.836 4.49711 -0.0892897 0
M  V30 2307 C 215.155 3.95682 1.92675 0
M  V30 2308 H 212.274 0.712579 0.188149 0
M  V30 2309 H 214.916 1.88813 -0.212076 0
M  V30 2310 H 213.066 3.50973 1.66583 0
M  V30 2311 H 214.738 4.55565 -0.725152 0
M  V30 2312 H 212.981 4.27261 -0.750378 0
M  V30 2313 H 213.652 5.51099 0.315284 0
M  V30 2314 H 216.128 3.91841 1.39998 0
M  V30 2315 H 215.004 5.00262 2.25897 0
M  V30 2316 H 215.265 3.37239 2.85872 0
M  V30 2317 N 214.325 -0.140222 1.56975 0
M  V30 2318 C 215.572 -0.851687 1.83719 0
M  V30 2319 C 215.9 -1.80862 0.715485 0
M  V30 2320 O 215.155 -1.93464 -0.294956 0
M  V30 2321 C 215.454 -1.65386 3.16832 0
M  V30 2322 C 215.12 -0.843112 4.42947 0
M  V30 2323 C 213.782 -0.619464 4.77196 0
M  V30 2324 C 216.134 -0.276582 5.20466 0
M  V30 2325 C 213.462 0.181312 5.8642 0
M  V30 2326 C 215.814 0.51127 6.30531 0
M  V30 2327 C 214.478 0.745432 6.63325 0
M  V30 2328 H 213.748 -0.311654 0.672274 0
M  V30 2329 H 216.395 -0.115006 1.91154 0
M  V30 2330 H 214.7 -2.46084 3.04877 0
M  V30 2331 H 216.397 -2.20793 3.34741 0
M  V30 2332 H 212.987 -1.0275 4.16101 0
M  V30 2333 H 217.171 -0.436632 4.94376 0
M  V30 2334 H 212.427 0.372165 6.10266 0
M  V30 2335 H 216.601 0.957354 6.89788 0
M  V30 2336 H 214.228 1.36778 7.47794 0
M  V30 2337 N 215.803 -1.52179 -0.40978 0
M  V30 2338 C 216.733 -1.78435 -1.5061 0
M  V30 2339 C 217.714 -0.635295 -1.57791 0
M  V30 2340 O 218.899 -0.880823 -1.73076 0
M  V30 2341 C 216.029 -1.93444 -2.88439 0
M  V30 2342 C 214.983 -3.09038 -2.96108 0
M  V30 2343 C 214.309 -3.09268 -4.36185 0
M  V30 2344 C 215.609 -4.48508 -2.67652 0
M  V30 2345 H 217.303 -2.70237 -1.28889 0
M  V30 2346 H 214.849 -1.30036 -0.618605 0
M  V30 2347 H 216.802 -2.10394 -3.65119 0
M  V30 2348 H 215.526 -0.983129 -3.11452 0
M  V30 2349 H 214.185 -2.91837 -2.21872 0
M  V30 2350 H 213.833 -2.11861 -4.56206 0
M  V30 2351 H 213.533 -3.86907 -4.42241 0
M  V30 2352 H 215.057 -3.28348 -5.14801 0
M  V30 2353 H 216.471 -4.65918 -3.34056 0
M  V30 2354 H 214.868 -5.28059 -2.85085 0
M  V30 2355 H 215.938 -4.56649 -1.63095 0
M  V30 2356 N 217.281 0.66697 -1.42791 0
M  V30 2357 C 218.558 1.4234 -1.34159 0
M  V30 2358 C 218.938 2.11093 0.0172729 0
M  V30 2359 O 218.286 2.03808 1.03318 0
M  V30 2360 C 218.496 2.41942 -2.51526 0
M  V30 2361 C 219.844 3.06353 -2.93995 0
M  V30 2362 O 220.868 2.52269 -2.51473 0
M  V30 2363 O 219.727 4.04376 -3.67617 0
M  V30 2364 H 216.821 0.635277 -0.529483 0
M  V30 2365 H 219.367 0.695034 -1.54814 0
M  V30 2366 H 218.139 1.89991 -3.42081 0
M  V30 2367 H 217.762 3.22249 -2.32898 0
M  V30 2368 N 218.759 1.29093 0.90403 0
M  V30 2369 C 220.17 1.15186 1.46932 0
M  V30 2370 C 220.521 -0.254587 1.94541 0
M  V30 2371 O 219.646 -1.14972 1.83332 0
M  V30 2372 C 220.241 2.08492 2.67051 0
M  V30 2373 C 218.8 1.98621 3.19729 0
M  V30 2374 C 217.947 1.9967 1.92425 0
M  V30 2375 H 220.898 1.41641 0.715789 0
M  V30 2376 H 220.919 1.65461 3.42641 0
M  V30 2377 H 220.431 3.10847 2.3237 0
M  V30 2378 H 218.532 0.993389 3.59114 0
M  V30 2379 H 218.645 2.86068 3.8432 0
M  V30 2380 H 217.009 1.44208 2.09943 0
M  V30 2381 H 217.792 3.03721 1.60026 0
M  V30 2382 N 220.237 -1.11381 1.11499 0
M  V30 2383 C 221.484 -1.83132 0.864231 0
M  V30 2384 C 221.812 -1.84683 -0.610114 0
M  V30 2385 O 221.067 -1.29589 -1.46646 0
M  V30 2386 C 221.366 -3.30026 1.37177 0
M  V30 2387 C 221.032 -3.48634 2.85946 0
M  V30 2388 C 219.694 -3.53421 3.26569 0
M  V30 2389 C 222.046 -3.54837 3.81759 0
M  V30 2390 C 219.374 -3.61967 4.61733 0
M  V30 2391 C 221.726 -3.64915 5.1674 0
M  V30 2392 C 220.39 -3.67962 5.5692 0
M  V30 2393 H 219.66 -0.670127 0.316245 0
M  V30 2394 H 222.307 -1.31354 1.3935 0
M  V30 2395 H 220.612 -3.84304 0.762753 0
M  V30 2396 H 222.309 -3.84034 1.15408 0
M  V30 2397 H 218.899 -3.45579 2.53521 0
M  V30 2398 H 223.083 -3.50399 3.51474 0
M  V30 2399 H 218.339 -3.62603 4.92269 0
M  V30 2400 H 222.513 -3.68658 5.90816 0
M  V30 2401 H 220.14 -3.74336 6.61647 0
M  V30 2402 N 221.715 -0.905404 -1.28997 0
M  V30 2403 C 222.992 -0.453513 -1.9027 0
M  V30 2404 C 223.372 1.06721 -1.82137 0
M  V30 2405 O 222.72 1.91159 -1.25182 0
M  V30 2406 C 222.93 -0.974494 -3.35119 0
M  V30 2407 C 224.278 -1.0216 -4.12127 0
M  V30 2408 O 225.302 -0.922557 -3.44046 0
M  V30 2409 O 224.161 -1.17121 -5.33802 0
M  V30 2410 H 221.255 -0.142347 -0.814657 0
M  V30 2411 H 223.801 -0.995642 -1.37423 0
M  V30 2412 H 222.573 -2.01848 -3.35221 0
M  V30 2413 H 222.196 -0.412706 -3.95452 0
M  V30 2414 N 223.193 1.4272 -0.668489 0
M  V30 2415 C 224.141 2.32586 0.0254857 0
M  V30 2416 C 225.135 1.49471 0.797176 0
M  V30 2417 O 226.341 1.65583 0.705853 0
M  V30 2418 H 222.716 0.751514 0.0270339 0
M  V30 2419 H 224.687 2.88823 -0.749936 0
M  V30 2420 C 223.436 3.3397 0.967427 0
M  V30 2421 H 222.759 3.97961 0.383048 0
M  V30 2422 H 224.199 3.9945 1.42181 0
M  V30 2423 C 222.658 2.65744 2.0708 0
M  V30 2424 O 223.188 2.48454 3.15648 0
M  V30 2425 N 221.394 2.2487 1.8407 0
M  V30 2426 H 220.941 2.39132 0.95778 0
M  V30 2427 H 220.899 1.79552 2.58086 0
M  V30 2428 N 224.671 0.411399 1.52136 0
M  V30 2429 C 225.911 -0.163143 2.03748 0
M  V30 2430 C 226.275 -1.42187 1.29022 0
M  V30 2431 O 227.476 -2.075 1.70872 0
M  V30 2432 C 225.747 -0.402651 3.55125 0
M  V30 2433 S 227.306 -0.944315 4.28519 0
M  V30 2434 H 224.124 -0.0439833 0.709638 0
M  V30 2435 H 226.726 0.56484 1.87163 0
M  V30 2436 H 225.43 0.520212 4.0709 0
M  V30 2437 H 224.961 -1.15844 3.75957 0
M  V30 2438 H 226.976 -2.22463 4.43536 0
M  V30 2439 N 226.149 -1.5696 0.141893 0
M  V30 2440 C 227.397 -1.95573 -0.509484 0
M  V30 2441 C 227.718 -1.02746 -1.65736 0
M  V30 2442 O 226.988 -0.0880311 -1.95702 0
M  V30 2443 H 225.568 -0.722115 -0.191205 0
M  V30 2444 H 228.23 -1.93697 0.216196 0
M  V30 2445 H 227.326 -2.99171 -0.889 0
M  V30 2446 N 227.627 0.131896 -1.57047 0
M  V30 2447 C 228.557 1.16384 -2.02428 0
M  V30 2448 C 229.538 1.43936 -0.90644 0
M  V30 2449 O 230.723 1.54599 -1.17528 0
M  V30 2450 C 227.853 2.49328 -2.4177 0
M  V30 2451 C 226.807 2.36266 -3.56879 0
M  V30 2452 C 226.133 3.74057 -3.8208 0
M  V30 2453 C 227.433 1.834 -4.89042 0
M  V30 2454 H 229.127 0.786433 -2.88887 0
M  V30 2455 H 226.673 0.376855 -1.38981 0
M  V30 2456 H 228.626 3.21759 -2.7212 0
M  V30 2457 H 227.35 2.88934 -1.52266 0
M  V30 2458 H 226.009 1.66286 -3.26718 0
M  V30 2459 H 225.657 4.11125 -2.89803 0
M  V30 2460 H 225.357 3.66174 -4.59554 0
M  V30 2461 H 226.881 4.48012 -4.1487 0
M  V30 2462 H 228.295 2.45636 -5.18011 0
M  V30 2463 H 226.692 1.8637 -5.70426 0
M  V30 2464 H 227.762 0.790662 -4.7841 0
M  V30 2465 N 229.106 1.52395 0.401703 0
M  V30 2466 C 230.355 1.66044 1.14509 0
M  V30 2467 C 230.668 0.400216 1.91462 0
M  V30 2468 O 231.874 0.416632 2.68284 0
M  V30 2469 C 230.33 2.93388 2.0845 0
M  V30 2470 C 229.938 4.26545 1.36978 0
M  V30 2471 C 231.682 3.16402 2.83001 0
M  V30 2472 C 229.589 5.45007 2.29611 0
M  V30 2473 H 228.519 0.618562 0.431158 0
M  V30 2474 H 231.17 1.78886 0.40892 0
M  V30 2475 H 229.552 2.74263 2.8565 0
M  V30 2476 H 230.726 4.56179 0.650916 0
M  V30 2477 H 229.041 4.09692 0.74438 0
M  V30 2478 H 231.638 4.02085 3.52465 0
M  V30 2479 H 231.981 2.30943 3.46368 0
M  V30 2480 H 232.514 3.36034 2.12898 0
M  V30 2481 H 229.253 6.32835 1.70879 0
M  V30 2482 H 228.773 5.19702 2.9945 0
M  V30 2483 H 230.452 5.7838 2.89974 0
M  V30 2484 N 230.584 -0.659388 1.43143 0
M  V30 2485 C 231.83 -1.42145 1.44647 0
M  V30 2486 C 232.163 -1.9408 0.0681907 0
M  V30 2487 O 231.438 -1.71899 -0.910007 0
M  V30 2488 C 231.721 -2.60735 2.48373 0
M  V30 2489 C 231.574 -2.14332 3.95451 0
M  V30 2490 C 232.893 -3.62951 2.48906 0
M  V30 2491 H 230.012 -0.51552 0.526696 0
M  V30 2492 H 232.654 -0.748069 1.74654 0
M  V30 2493 H 230.804 -3.18184 2.22916 0
M  V30 2494 H 232.476 -1.61932 4.31944 0
M  V30 2495 H 230.719 -1.4576 4.08578 0
M  V30 2496 H 231.39 -2.99583 4.63631 0
M  V30 2497 H 233.866 -3.1525 2.71582 0
M  V30 2498 H 232.742 -4.43487 3.23435 0
M  V30 2499 H 233.003 -4.15126 1.52061 0
M  V30 2500 N 232.062 -1.29571 -0.897171 0
M  V30 2501 C 233.025 -1.14913 -1.98312 0
M  V30 2502 C 234.025 -0.0838629 -1.60581 0
M  V30 2503 O 235.215 -0.331006 -1.71026 0
M  V30 2504 C 232.347 -0.757835 -3.3237 0
M  V30 2505 H 233.54 -2.11377 -2.12743 0
M  V30 2506 H 231.093 -1.12793 -1.08201 0
M  V30 2507 H 231.828 0.206837 -3.2364 0
M  V30 2508 H 231.613 -1.52755 -3.61121 0
M  V30 2509 H 233.103 -0.678408 -4.12053 0
M  V30 2510 N 233.54 1.10788 -1.12088 0
M  V30 2511 C 234.487 2.17025 -0.785407 0
M  V30 2512 C 235.457 1.64265 0.246191 0
M  V30 2513 O 236.642 1.90412 0.121584 0
M  V30 2514 C 233.782 3.44249 -0.242177 0
M  V30 2515 C 232.895 4.1098 -1.33115 0
M  V30 2516 C 232.03 5.25911 -0.747741 0
M  V30 2517 C 231.069 5.84538 -1.81609 0
M  V30 2518 N 230.206 6.90853 -1.25167 0
M  V30 2519 H 235.046 2.45066 -1.69548 0
M  V30 2520 H 232.583 1.20297 -0.846582 0
M  V30 2521 H 234.541 4.17101 0.0908026 0
M  V30 2522 H 233.171 3.16571 0.631072 0
M  V30 2523 H 232.223 3.36133 -1.78097 0
M  V30 2524 H 233.535 4.50601 -2.13917 0
M  V30 2525 H 232.689 6.056 -0.365216 0
M  V30 2526 H 231.428 4.87614 0.0915188 0
M  V30 2527 H 230.433 5.03522 -2.20785 0
M  V30 2528 H 231.658 6.249 -2.6585 0
M  V30 2529 H 229.604 6.54562 -0.434174 0
M  V30 2530 H 229.521 7.29166 -1.99633 0
M  V30 2531 H 230.789 7.7433 -0.896259 0
M  V30 2532 N 235.018 0.912232 1.28515 0
M  V30 2533 C 236.248 0.559604 1.98877 0
M  V30 2534 C 236.656 -0.863113 1.68366 0
M  V30 2535 O 235.999 -1.58304 0.931969 0
M  V30 2536 C 236.061 0.68703 3.52874 0
M  V30 2537 C 235.725 2.07901 4.06972 0
M  V30 2538 C 236.722 3.05157 4.20922 0
M  V30 2539 C 234.407 2.39178 4.417 0
M  V30 2540 C 236.401 4.31806 4.68852 0
M  V30 2541 C 234.088 3.66068 4.89324 0
M  V30 2542 C 235.086 4.62195 5.02856 0
M  V30 2543 O 234.774 5.86829 5.49442 0
M  V30 2544 H 234.506 0.212191 0.641834 0
M  V30 2545 H 237.06 1.22712 1.64715 0
M  V30 2546 H 235.29 -0.0375486 3.86682 0
M  V30 2547 H 236.979 0.341727 4.04459 0
M  V30 2548 H 237.745 2.82311 3.94367 0
M  V30 2549 H 233.624 1.65109 4.30418 0
M  V30 2550 H 237.168 5.06842 4.79329 0
M  V30 2551 H 233.065 3.88739 5.15318 0
M  V30 2552 H 233.833 5.89597 5.6773 0
M  V30 2553 N 236.496 -1.42363 0.676048 0
M  V30 2554 C 237.743 -2.01522 0.19883 0
M  V30 2555 C 238.071 -1.53456 -1.19505 0
M  V30 2556 O 237.326 -0.727967 -1.81657 0
M  V30 2557 C 237.625 -3.56929 0.183431 0
M  V30 2558 C 237.291 -4.24431 1.52215 0
M  V30 2559 C 235.953 -4.42585 1.8887 0
M  V30 2560 C 238.305 -4.62459 2.40377 0
M  V30 2561 C 235.633 -4.96039 3.13309 0
M  V30 2562 C 237.985 -5.17294 3.64129 0
M  V30 2563 C 236.649 -5.33661 4.00951 0
M  V30 2564 H 235.919 -0.737419 0.0727571 0
M  V30 2565 H 238.566 -1.70531 0.871281 0
M  V30 2566 H 236.871 -3.87594 -0.572532 0
M  V30 2567 H 238.568 -4.00486 -0.203035 0
M  V30 2568 H 235.158 -4.10661 1.22701 0
M  V30 2569 H 239.342 -4.48105 2.13343 0
M  V30 2570 H 234.598 -5.06896 3.41857 0
M  V30 2571 H 238.772 -5.45704 4.32644 0
M  V30 2572 H 236.399 -5.74845 4.9745 0
M  V30 2573 N 237.974 -0.419461 -1.51915 0
M  V30 2574 C 239.199 0.154572 -2.06823 0
M  V30 2575 C 239.624 1.3722 -1.28656 0
M  V30 2576 O 238.982 1.78461 -0.319583 0
M  V30 2577 C 239.03 0.473172 -3.57482 0
M  V30 2578 O 238.134 1.56255 -3.81652 0
M  V30 2579 H 237.475 0.0096924 -0.663929 0
M  V30 2580 H 240.005 -0.595642 -1.95738 0
M  V30 2581 H 240.015 0.728825 -4.01438 0
M  V30 2582 H 238.69 -0.416873 -4.13805 0
M  V30 2583 H 237.267 1.29825 -3.49571 0
M  V30 2584 N 239.452 1.56882 -0.150215 0
M  V30 2585 C 240.382 2.19935 0.784284 0
M  V30 2586 C 241.363 1.14854 1.25469 0
M  V30 2587 O 242.548 1.43209 1.31168 0
M  V30 2588 C 239.678 2.82349 2.02229 0
M  V30 2589 C 238.632 3.93285 1.68853 0
M  V30 2590 C 237.958 4.42649 2.99944 0
M  V30 2591 C 239.258 5.13904 0.932714 0
M  V30 2592 H 240.952 2.9828 0.258781 0
M  V30 2593 H 238.498 1.43473 0.123029 0
M  V30 2594 H 240.451 3.25126 2.68088 0
M  V30 2595 H 239.175 2.0134 2.57157 0
M  V30 2596 H 237.834 3.5113 1.05371 0
M  V30 2597 H 237.482 3.58458 3.52869 0
M  V30 2598 H 237.182 5.17476 2.78374 0
M  V30 2599 H 238.706 4.88099 3.66868 0
M  V30 2600 H 240.12 5.53506 1.49345 0
M  V30 2601 H 238.517 5.94515 0.81684 0
M  V30 2602 H 239.587 4.84842 -0.0749568 0
M  V30 2603 N 240.93 -0.123565 1.57115 0
M  V30 2604 C 242.341 -0.681198 1.73829 0
M  V30 2605 C 242.692 -1.80535 0.768214 0
M  V30 2606 O 241.817 -2.16317 -0.0599103 0
M  V30 2607 C 242.412 -1.24246 3.15196 0
M  V30 2608 C 240.971 -1.74643 3.33432 0
M  V30 2609 C 240.118 -0.644284 2.69711 0
M  V30 2610 H 243.069 0.102315 1.5837 0
M  V30 2611 H 243.09 -2.11216 3.16493 0
M  V30 2612 H 242.602 -0.424062 3.85776 0
M  V30 2613 H 240.703 -2.58974 2.67886 0
M  V30 2614 H 240.816 -1.85902 4.41562 0
M  V30 2615 H 239.18 -1.07676 2.3082 0
M  V30 2616 H 239.963 0.163058 3.42913 0
M  V30 2617 N 242.408 -1.52605 -0.393616 0
M  V30 2618 C 243.633 -1.71592 -1.16495 0
M  V30 2619 C 244.058 -0.43133 -1.83088 0
M  V30 2620 O 243.416 0.612523 -1.7064 0
M  V30 2621 C 243.464 -2.86318 -2.19213 0
M  V30 2622 O 242.568 -2.52969 -3.257 0
M  V30 2623 H 241.909 -0.570734 -0.33935 0
M  V30 2624 H 244.439 -1.99377 -0.459324 0
M  V30 2625 H 244.449 -3.1168 -2.63286 0
M  V30 2626 H 243.124 -3.79511 -1.7013 0
M  V30 2627 H 241.701 -2.38332 -2.86797 0
M  V30 2628 N 243.887 0.651787 -1.4349 0
M  V30 2629 C 245.133 1.41376 -1.45398 0
M  V30 2630 C 245.466 1.94041 -0.0784823 0
M  V30 2631 O 244.741 1.72379 0.900878 0
M  V30 2632 C 245.024 2.59414 -2.49752 0
M  V30 2633 C 244.877 2.12232 -3.96582 0
M  V30 2634 C 246.196 3.61626 -2.50827 0
M  V30 2635 H 243.315 0.512719 -0.529422 0
M  V30 2636 H 245.957 0.738796 -1.75048 0
M  V30 2637 H 244.107 3.16997 -2.246 0
M  V30 2638 H 245.779 1.59639 -4.32797 0
M  V30 2639 H 244.022 1.43592 -4.09346 0
M  V30 2640 H 244.693 2.9712 -4.65214 0
M  V30 2641 H 247.169 3.13805 -2.7325 0
M  V30 2642 H 246.045 4.41766 -3.25783 0
M  V30 2643 H 246.306 4.14314 -1.5426 0
M  V30 2644 N 245.365 1.30045 0.890287 0
M  V30 2645 C 246.611 1.18737 1.64406 0
M  V30 2646 C 246.944 -0.258525 1.92472 0
M  V30 2647 O 246.219 -1.18562 1.54186 0
M  V30 2648 C 246.502 2.01087 2.98724 0
M  V30 2649 C 246.355 3.53867 2.77665 0
M  V30 2650 C 247.674 1.84457 3.9958 0
M  V30 2651 H 244.793 0.432698 0.596608 0
M  V30 2652 H 247.435 1.5962 1.0306 0
M  V30 2653 H 245.585 1.66349 3.51084 0
M  V30 2654 H 247.257 3.98637 2.32133 0
M  V30 2655 H 245.5 3.78318 2.12269 0
M  V30 2656 H 246.171 4.06772 3.7315 0
M  V30 2657 H 248.647 2.14817 3.56361 0
M  V30 2658 H 247.523 2.44411 4.91482 0
M  V30 2659 H 247.784 0.802276 4.3476 0
M  V30 2660 N 246.843 -1.10192 1.12674 0
M  V30 2661 C 248.09 -1.82205 0.883606 0
M  V30 2662 C 248.418 -1.8532 -0.590492 0
M  V30 2663 O 247.673 -1.31137 -1.45264 0
M  V30 2664 C 247.972 -3.28552 1.4067 0
M  V30 2665 C 247.638 -3.45582 2.89627 0
M  V30 2666 C 246.3 -3.49937 3.30299 0
M  V30 2667 C 248.652 -3.50768 3.85501 0
M  V30 2668 C 245.98 -3.57049 4.65546 0
M  V30 2669 C 248.332 -3.59414 5.20581 0
M  V30 2670 C 246.996 -3.62034 5.60792 0
M  V30 2671 H 246.266 -0.666735 0.323334 0
M  V30 2672 H 248.913 -1.29868 1.40736 0
M  V30 2673 H 247.218 -3.83473 0.80347 0
M  V30 2674 H 248.915 -3.82788 1.19475 0
M  V30 2675 H 245.505 -3.42871 2.57172 0
M  V30 2676 H 249.689 -3.46651 3.55171 0
M  V30 2677 H 244.945 -3.57361 4.96088 0
M  V30 2678 H 249.119 -3.62371 5.94693 0
M  V30 2679 H 246.746 -3.67298 6.6558 0
M  V30 2680 N 248.321 -0.919034 -1.28029 0
M  V30 2681 C 249.284 -0.416182 -2.2539 0
M  V30 2682 C 250.284 0.460438 -1.54067 0
M  V30 2683 O 251.474 0.262744 -1.72207 0
M  V30 2684 C 248.606 0.402707 -3.38513 0
M  V30 2685 H 249.799 -1.27629 -2.71387 0
M  V30 2686 H 247.352 -0.698919 -1.39803 0
M  V30 2687 H 248.087 1.282 -2.97885 0
M  V30 2688 H 247.872 -0.225698 -3.9145 0
M  V30 2689 H 249.362 0.745191 -4.10897 0
M  V30 2690 N 249.799 1.42003 -0.683588 0
M  V30 2691 C 251.215 1.55625 -0.353976 0
M  V30 2692 C 251.415 1.66151 1.14 0
M  V30 2693 O 250.471 1.63329 1.92561 0
M  V30 2694 C 251.784 2.80171 -1.092 0
M  V30 2695 C 253.332 2.93954 -1.07518 0
M  V30 2696 C 253.807 4.21372 -1.79471 0
M  V30 2697 N 255.298 4.28303 -1.76381 0
M  V30 2698 C 256.033 5.25729 -2.28904 0
M  V30 2699 N 255.529 6.29254 -2.89846 0
M  V30 2700 N 257.322 5.17586 -2.19228 0
M  V30 2701 H 249.473 1.33415 -1.6527 0
M  V30 2702 H 251.736 0.64282 -0.696769 0
M  V30 2703 H 251.442 2.78561 -2.14701 0
M  V30 2704 H 251.316 3.7133 -0.662862 0
M  V30 2705 H 253.703 2.95086 -0.028475 0
M  V30 2706 H 253.784 2.04002 -1.54328 0
M  V30 2707 H 253.428 4.21001 -2.84114 0
M  V30 2708 H 253.358 5.10275 -1.30104 0
M  V30 2709 H 255.849 3.54119 -1.31939 0
M  V30 2710 H 256.162 6.99964 -3.27522 0
M  V30 2711 H 254.507 6.29791 -2.93919 0
M  V30 2712 H 257.698 4.35631 -1.71299 0
M  V30 2713 H 257.871 5.93348 -2.60466 0
M  V30 2714 N 251.277 0.427512 1.51691 0
M  V30 2715 C 252.525 -0.141948 2.01601 0
M  V30 2716 C 252.846 -1.44067 1.31414 0
M  V30 2717 O 252.116 -1.90763 0.445658 0
M  V30 2718 H 250.696 -0.0554468 0.744939 0
M  V30 2719 H 253.358 0.567968 1.86441 0
M  V30 2720 H 252.454 -0.324913 3.10404 0
M  V30 2721 N 252.755 -1.56801 0.158532 0
M  V30 2722 C 254.004 -1.95665 -0.489702 0
M  V30 2723 C 254.317 -1.04654 -1.65248 0
M  V30 2724 O 255.523 -1.33146 -2.3661 0
M  V30 2725 C 253.979 -3.47874 -0.922582 0
M  V30 2726 C 253.587 -4.47489 0.213893 0
M  V30 2727 C 255.331 -3.95583 -1.53996 0
M  V30 2728 C 253.238 -5.90921 -0.237903 0
M  V30 2729 H 252.168 -0.730516 -0.186716 0
M  V30 2730 H 254.819 -1.81861 0.244722 0
M  V30 2731 H 253.201 -3.57051 -1.71261 0
M  V30 2732 H 254.375 -4.50017 0.991036 0
M  V30 2733 H 252.69 -4.09764 0.740407 0
M  V30 2734 H 255.287 -5.0019 -1.8898 0
M  V30 2735 H 255.63 -3.37789 -2.43319 0
M  V30 2736 H 256.163 -3.8937 -0.814611 0
M  V30 2737 H 252.902 -6.52559 0.620236 0
M  V30 2738 H 252.422 -5.91729 -0.980676 0
M  V30 2739 H 254.101 -6.43352 -0.686067 0
M  V30 2740 N 254.233 0.115231 -1.57178 0
M  V30 2741 C 255.163 1.1423 -2.03651 0
M  V30 2742 C 256.144 1.42967 -0.921655 0
M  V30 2743 O 257.329 1.53343 -1.19162 0
M  V30 2744 C 254.459 2.4675 -2.44401 0
M  V30 2745 C 253.413 2.32467 -3.59365 0
M  V30 2746 C 252.739 3.69984 -3.86026 0
M  V30 2747 C 254.039 1.78203 -4.90959 0
M  V30 2748 H 255.733 0.755749 -2.89705 0
M  V30 2749 H 253.279 0.362093 -1.39373 0
M  V30 2750 H 255.232 3.18854 -2.75517 0
M  V30 2751 H 253.956 2.87302 -1.55322 0
M  V30 2752 H 252.615 1.62811 -3.28463 0
M  V30 2753 H 252.263 4.08028 -2.94147 0
M  V30 2754 H 251.963 3.61279 -4.63412 0
M  V30 2755 H 253.487 4.43587 -4.19599 0
M  V30 2756 H 254.901 2.40128 -5.20587 0
M  V30 2757 H 253.298 1.8031 -5.72371 0
M  V30 2758 H 254.368 0.739876 -4.79222 0
M  V30 2759 N 255.711 1.52812 0.385517 0
M  V30 2760 C 256.951 1.69716 1.13911 0
M  V30 2761 C 257.315 0.42962 1.87132 0
M  V30 2762 O 258.516 0.475071 2.64569 0
M  V30 2763 C 256.787 2.90021 2.0886 0
M  V30 2764 S 258.346 3.27531 2.92009 0
M  V30 2765 H 255.164 0.59739 0.385547 0
M  V30 2766 H 257.766 1.90868 0.423061 0
M  V30 2767 H 256.47 3.80493 1.53797 0
M  V30 2768 H 256.001 2.71213 2.84969 0
M  V30 2769 H 258.016 2.77989 4.11019 0
M  V30 2770 N 257.189 -0.644168 1.43834 0
M  V30 2771 C 258.139 -1.7501 1.46135 0
M  V30 2772 C 259.123 -1.57507 0.328685 0
M  V30 2773 O 260.315 -1.67465 0.5731 0
M  V30 2774 C 257.444 -3.13641 1.39585 0
M  V30 2775 C 256.53 -3.3666 2.57916 0
M  V30 2776 N 256.921 -3.30107 3.83227 0
M  V30 2777 C 255.219 -3.67411 2.52834 0
M  V30 2778 C 255.92 -3.53456 4.61999 0
M  V30 2779 N 254.896 -3.75705 3.9287 0
M  V30 2780 H 258.698 -1.68382 2.40883 0
M  V30 2781 H 256.212 -0.846169 1.38614 0
M  V30 2782 H 258.209 -3.92933 1.39317 0
M  V30 2783 H 256.869 -3.21444 0.45865 0
M  V30 2784 H 257.88 -3.09316 4.15384 0
M  V30 2785 H 254.557 -3.82275 1.67845 0
M  V30 2786 H 255.947 -3.54093 5.71024 0
M  V30 2787 N 258.668 -1.30515 -0.883378 0
M  V30 2788 C 259.898 -1.22182 -1.66599 0
M  V30 2789 C 260.306 0.217507 -1.87946 0
M  V30 2790 O 259.649 1.1554 -1.42815 0
M  V30 2791 C 259.711 -1.88146 -3.06335 0
M  V30 2792 C 259.375 -3.37476 -3.08154 0
M  V30 2793 C 260.372 -4.33443 -2.87094 0
M  V30 2794 C 258.057 -3.7895 -3.29701 0
M  V30 2795 C 260.051 -5.68858 -2.8754 0
M  V30 2796 C 257.738 -5.14482 -3.29776 0
M  V30 2797 C 258.736 -6.09246 -3.0872 0
M  V30 2798 O 258.424 -7.42302 -3.08615 0
M  V30 2799 H 258.156 -0.423898 -0.52658 0
M  V30 2800 H 260.71 -1.72703 -1.11188 0
M  V30 2801 H 258.94 -1.32157 -3.63416 0
M  V30 2802 H 260.629 -1.7391 -3.66756 0
M  V30 2803 H 261.395 -4.02733 -2.70243 0
M  V30 2804 H 257.274 -3.05631 -3.45124 0
M  V30 2805 H 260.818 -6.428 -2.71024 0
M  V30 2806 H 256.715 -5.44832 -3.46163 0
M  V30 2807 H 257.483 -7.5131 -3.24769 0
M  V30 2808 N 260.146 1.09593 -1.13257 0
M  V30 2809 C 261.076 2.18214 -0.830946 0
M  V30 2810 C 262.057 1.68812 0.208966 0
M  V30 2811 O 263.242 1.9408 0.0682666 0
M  V30 2812 C 260.372 3.46051 -0.294296 0
M  V30 2813 C 259.326 4.08778 -1.26826 0
M  V30 2814 C 258.652 5.31419 -0.591449 0
M  V30 2815 C 259.952 4.51476 -2.62615 0
M  V30 2816 H 261.646 2.43703 -1.73923 0
M  V30 2817 H 259.192 1.17128 -0.837675 0
M  V30 2818 H 261.145 4.2134 -0.0709606 0
M  V30 2819 H 259.869 3.20079 0.649366 0
M  V30 2820 H 258.528 3.35505 -1.47756 0
M  V30 2821 H 258.176 5.01727 0.357633 0
M  V30 2822 H 257.876 5.74341 -1.24123 0
M  V30 2823 H 259.4 6.09433 -0.377355 0
M  V30 2824 H 260.814 5.17999 -2.45663 0
M  V30 2825 H 259.211 5.05277 -3.23752 0
M  V30 2826 H 260.281 3.63962 -3.20406 0
M  V30 2827 N 261.624 0.925811 1.2754 0
M  V30 2828 C 262.534 0.428993 2.30644 0
M  V30 2829 C 263.55 -0.489387 1.66976 0
M  V30 2830 O 264.726 -0.372653 1.97922 0
M  V30 2831 C 261.791 -0.311967 3.45294 0
M  V30 2832 C 260.852 0.641098 4.24486 0
M  V30 2833 C 260.085 -0.0645955 5.33661 0
M  V30 2834 O 260.308 -1.28429 5.55754 0
M  V30 2835 O 259.242 0.606265 5.98839 0
M  V30 2836 H 263.068 1.28504 2.75173 0
M  V30 2837 H 260.653 0.691086 1.32455 0
M  V30 2838 H 262.535 -0.729972 4.15029 0
M  V30 2839 H 261.21 -1.14365 3.02824 0
M  V30 2840 H 260.117 1.10874 3.57292 0
M  V30 2841 H 261.45 1.43995 4.70666 0
M  V30 2842 N 263.102 -1.41638 0.69111 0
M  V30 2843 C 264.012 -2.34588 0.0233487 0
M  V30 2844 C 265.028 -1.55987 -0.770984 0
M  V30 2845 O 266.204 -1.88486 -0.709569 0
M  V30 2846 C 263.269 -3.34684 -0.904851 0
M  V30 2847 C 262.33 -4.29176 -0.103225 0
M  V30 2848 C 261.563 -5.2449 -0.987216 0
M  V30 2849 O 261.786 -5.2514 -2.22674 0
M  V30 2850 O 260.72 -6.00295 -0.439281 0
M  V30 2851 H 264.546 -2.93261 0.789416 0
M  V30 2852 H 262.131 -1.42417 0.45142 0
M  V30 2853 H 264.013 -3.96133 -1.43724 0
M  V30 2854 H 262.688 -2.78461 -1.65049 0
M  V30 2855 H 261.595 -3.71089 0.473655 0
M  V30 2856 H 262.928 -4.88484 0.60365 0
M  V30 2857 N 264.58 -0.43555 -1.51462 0
M  V30 2858 C 265.828 0.131254 -2.01673 0
M  V30 2859 C 266.149 1.43368 -1.32177 0
M  V30 2860 O 265.419 1.90524 -0.455769 0
M  V30 2861 H 263.999 0.0514954 -0.745223 0
M  V30 2862 H 266.661 -0.577847 -1.86137 0
M  V30 2863 H 265.757 0.308446 -3.10572 0
M  V30 2864 N 266.058 1.56714 -0.166846 0
M  V30 2865 C 267.021 2.16539 0.751232 0
M  V30 2866 C 268.021 1.11228 1.16125 0
M  V30 2867 O 269.211 1.36765 1.07894 0
M  V30 2868 C 266.343 2.74462 2.02196 0
M  V30 2869 H 267.536 2.99013 0.230499 0
M  V30 2870 H 265.089 1.56081 0.0826982 0
M  V30 2871 H 265.824 1.95709 2.58589 0
M  V30 2872 H 265.609 3.51527 1.73698 0
M  V30 2873 H 267.099 3.20489 2.67725 0
M  V30 2874 N 267.536 -0.106894 1.57237 0
M  V30 2875 C 268.468 -1.15646 1.97885 0
M  V30 2876 C 269.481 -1.36981 0.879779 0
M  V30 2877 O 270.67 -1.35841 1.15799 0
M  V30 2878 C 267.77 -2.51425 2.27241 0
M  V30 2879 C 266.943 -2.50529 3.58545 0
M  V30 2880 C 266.002 -3.68145 3.75973 0
M  V30 2881 O 265.028 -3.51176 4.47956 0
M  V30 2882 N 266.23 -4.87177 3.15656 0
M  V30 2883 H 268.995 -0.81059 2.8853 0
M  V30 2884 H 266.556 -0.296024 1.59171 0
M  V30 2885 H 268.548 -3.28689 2.36105 0
M  V30 2886 H 267.118 -2.78147 1.42663 0
M  V30 2887 H 266.338 -1.58894 3.60758 0
M  V30 2888 H 267.626 -2.46997 4.44826 0
M  V30 2889 H 267.024 -5.03868 2.57165 0
M  V30 2890 H 265.581 -5.62075 3.30023 0
M  V30 2891 N 269.014 -1.53014 -0.377408 0
M  V30 2892 C 270.254 -1.70318 -1.1301 0
M  V30 2893 C 270.618 -0.439538 -1.86901 0
M  V30 2894 O 271.819 -0.489095 -2.64313 0
M  V30 2895 C 270.09 -2.91125 -2.07319 0
M  V30 2896 S 271.649 -3.29075 -2.90268 0
M  V30 2897 H 268.467 -0.599426 -0.382374 0
M  V30 2898 H 271.069 -1.91089 -0.412933 0
M  V30 2899 H 269.773 -3.81303 -1.51777 0
M  V30 2900 H 269.304 -2.7272 -2.83526 0
M  V30 2901 H 271.319 -2.80165 -4.09539 0
M  V30 2902 N 270.492 0.636531 -1.44174 0
M  V30 2903 C 271.903 1.21806 -1.41493 0
M  V30 2904 C 272.254 1.95785 -0.1275 0
M  V30 2905 O 271.379 2.02147 0.772376 0
M  V30 2906 C 271.974 2.21551 -2.56321 0
M  V30 2907 C 270.533 2.75143 -2.56853 0
M  V30 2908 C 269.68 1.50052 -2.33195 0
M  V30 2909 H 272.631 0.427531 -1.52833 0
M  V30 2910 H 272.652 3.0405 -2.28765 0
M  V30 2911 H 272.164 1.67679 -3.50008 0
M  V30 2912 H 270.265 3.33033 -1.67093 0
M  V30 2913 H 270.378 3.2155 -3.55165 0
M  V30 2914 H 268.742 1.77993 -1.82183 0
M  V30 2915 H 269.525 0.980903 -3.28988 0
M  V30 2916 N 271.97 1.30982 0.876444 0
M  V30 2917 C 272.933 1.18054 1.96459 0
M  V30 2918 C 273.933 0.109399 1.60427 0
M  V30 2919 O 275.123 0.358173 1.70478 0
M  V30 2920 C 272.255 0.810616 3.31122 0
M  V30 2921 H 273.448 2.14735 2.09354 0
M  V30 2922 H 271.001 1.145 1.06392 0
M  V30 2923 H 271.736 -0.155322 3.23928 0
M  V30 2924 H 271.521 1.58481 3.58645 0
M  V30 2925 H 273.011 0.743876 4.10921 0
M  V30 2926 N 273.449 -1.08991 1.13837 0
M  V30 2927 C 274.86 -1.62746 0.914917 0
M  V30 2928 C 275.211 -1.88403 -0.547594 0
M  V30 2929 O 274.336 -1.63706 -1.41525 0
M  V30 2930 C 274.931 -2.95662 1.65437 0
M  V30 2931 C 273.49 -3.46225 1.47666 0
M  V30 2932 C 272.637 -2.20562 1.6807 0
M  V30 2933 H 275.588 -0.922946 1.29102 0
M  V30 2934 H 275.609 -3.63825 1.11407 0
M  V30 2935 H 275.121 -2.76956 2.71877 0
M  V30 2936 H 273.222 -3.70046 0.435478 0
M  V30 2937 H 273.335 -4.23368 2.24268 0
M  V30 2938 H 271.699 -2.29439 1.10589 0
M  V30 2939 H 272.482 -2.0437 2.7584 0
M  V30 2940 N 274.927 -0.932562 -1.27047 0
M  V30 2941 C 275.857 -0.452902 -2.29066 0
M  V30 2942 C 276.838 0.489338 -1.62909 0
M  V30 2943 O 278.023 0.393046 -1.90181 0
M  V30 2944 C 275.153 0.290698 -3.46081 0
M  V30 2945 C 274.107 -0.564168 -4.24265 0
M  V30 2946 C 273.433 0.308886 -5.33807 0
M  V30 2947 C 274.733 -1.83112 -4.89149 0
M  V30 2948 H 276.427 -1.30552 -2.69437 0
M  V30 2949 H 273.973 -0.629201 -1.29526 0
M  V30 2950 H 275.926 0.637233 -4.16554 0
M  V30 2951 H 274.65 1.17738 -3.0464 0
M  V30 2952 H 273.309 -0.893477 -3.55545 0
M  V30 2953 H 272.957 1.19467 -4.88607 0
M  V30 2954 H 272.657 -0.259633 -5.87026 0
M  V30 2955 H 274.181 0.650884 -6.07121 0
M  V30 2956 H 275.595 -1.55236 -5.51883 0
M  V30 2957 H 273.992 -2.34353 -5.52448 0
M  V30 2958 H 275.062 -2.54772 -4.12576 0
M  V30 2959 N 276.405 1.4127 -0.698611 0
M  V30 2960 C 277.63 2.06024 -0.238512 0
M  V30 2961 C 278.055 1.5224 1.10475 0
M  V30 2962 O 277.413 0.650623 1.69223 0
M  V30 2963 C 277.461 3.59988 -0.209952 0
M  V30 2964 O 276.565 4.04282 0.814235 0
M  V30 2965 H 275.906 0.653829 -0.115775 0
M  V30 2966 H 278.436 1.8098 -0.954326 0
M  V30 2967 H 278.446 4.07979 -0.0418436 0
M  V30 2968 H 277.121 3.98503 -1.1903 0
M  V30 2969 H 275.698 3.6779 0.615234 0
M  V30 2970 N 277.883 0.443576 1.51229 0
M  V30 2971 C 279.113 -0.119117 2.06256 0
M  V30 2972 C 279.521 -1.36471 1.31043 0
M  V30 2973 O 278.864 -1.80034 0.365151 0
M  V30 2974 C 278.926 -0.500546 3.55998 0
M  V30 2975 C 278.59 0.639125 4.52509 0
M  V30 2976 C 279.587 1.51311 4.97394 0
M  V30 2977 C 277.272 0.821632 4.95535 0
M  V30 2978 C 279.266 2.55425 5.83984 0
M  V30 2979 C 276.953 1.86603 5.81913 0
M  V30 2980 C 277.951 2.73072 6.26036 0
M  V30 2981 O 277.639 3.75718 7.10698 0
M  V30 2982 H 277.371 -0.00857665 0.675946 0
M  V30 2983 H 279.925 0.623288 1.95715 0
M  V30 2984 H 278.155 -1.29575 3.64345 0
M  V30 2985 H 279.844 -0.995116 3.93513 0
M  V30 2986 H 280.61 1.38367 4.64844 0
M  V30 2987 H 276.489 0.158149 4.60729 0
M  V30 2988 H 280.033 3.22949 6.18344 0
M  V30 2989 H 275.93 1.99564 6.13876 0
M  V30 2990 H 276.698 3.72374 7.2889 0
M  V30 2991 N 279.361 -1.56624 0.175154 0
M  V30 2992 C 280.607 -1.9729 -0.469506 0
M  V30 2993 C 280.94 -1.06128 -1.62636 0
M  V30 2994 O 280.215 -0.109183 -1.94193 0
M  V30 2995 C 280.498 -3.47375 -0.948804 0
M  V30 2996 C 280.351 -4.49317 0.208491 0
M  V30 2997 C 281.67 -4.00652 -1.82116 0
M  V30 2998 H 278.789 -0.717317 -0.16919 0
M  V30 2999 H 281.431 -1.88184 0.262062 0
M  V30 3000 H 279.581 -3.55267 -1.57219 0
M  V30 3001 H 281.253 -4.53482 0.845682 0
M  V30 3002 H 279.496 -4.25121 0.863395 0
M  V30 3003 H 280.167 -5.51741 -0.169059 0
M  V30 3004 H 282.643 -3.95416 -1.2956 0
M  V30 3005 H 281.519 -5.06075 -2.12554 0
M  V30 3006 H 281.78 -3.44699 -2.7683 0
M  V30 3007 N 280.839 0.0985539 -1.57292 0
M  V30 3008 C 282.25 0.653457 -1.74891 0
M  V30 3009 C 282.601 1.7929 -0.796838 0
M  V30 3010 O 281.726 2.16385 0.0254886 0
M  V30 3011 C 282.321 1.19216 -3.17133 0
M  V30 3012 C 280.88 1.69316 -3.36168 0
M  V30 3013 C 280.027 0.601294 -2.70702 0
M  V30 3014 H 282.978 -0.127497 -1.58187 0
M  V30 3015 H 282.999 2.06154 -3.19814 0
M  V30 3016 H 282.511 0.362635 -3.86402 0
M  V30 3017 H 280.612 2.5468 -2.71972 0
M  V30 3018 H 280.725 1.78853 -4.44464 0
M  V30 3019 H 279.089 1.0399 -2.32504 0
M  V30 3020 H 279.872 -0.217592 -3.4261 0
M  V30 3021 N 282.317 1.53212 0.369288 0
M  V30 3022 C 283.733 1.42902 0.710712 0
M  V30 3023 C 283.933 0.565135 1.93413 0
M  V30 3024 O 282.989 0.0461484 2.52458 0
M  V30 3025 C 284.302 2.86042 0.927382 0
M  V30 3026 C 285.85 2.9565 1.02762 0
M  V30 3027 C 286.325 4.39843 1.27679 0
M  V30 3028 N 287.816 4.43256 1.34457 0
M  V30 3029 C 288.551 5.51929 1.55439 0
M  V30 3030 N 288.047 6.70655 1.73762 0
M  V30 3031 N 289.84 5.39502 1.57779 0
M  V30 3032 H 281.991 2.07888 -0.435457 0
M  V30 3033 H 284.254 0.938661 -0.132739 0
M  V30 3034 H 283.96 3.51557 0.100287 0
M  V30 3035 H 283.834 3.29472 1.83653 0
M  V30 3036 H 286.221 2.30291 1.84527 0
M  V30 3037 H 286.302 2.5562 0.0959504 0
M  V30 3038 H 285.946 5.05774 0.464175 0
M  V30 3039 H 285.876 4.77443 2.22162 0
M  V30 3040 H 288.367 3.5769 1.21926 0
M  V30 3041 H 288.68 7.49248 1.89335 0
M  V30 3042 H 287.025 6.73648 1.70948 0
M  V30 3043 H 290.216 4.45713 1.43029 0
M  V30 3044 H 290.389 6.2426 1.7379 0
M  V30 3045 N 283.795 -0.628877 1.44509 0
M  V30 3046 C 285.044 -1.38437 1.4669 0
M  V30 3047 C 285.357 -1.95322 0.104272 0
M  V30 3048 O 286.563 -2.715 0.00362163 0
M  V30 3049 C 285.019 -2.50659 2.5826 0
M  V30 3050 C 284.627 -2.00277 4.0074 0
M  V30 3051 C 286.371 -3.27844 2.69664 0
M  V30 3052 C 284.278 -3.09854 5.0373 0
M  V30 3053 H 283.208 -0.520245 0.545766 0
M  V30 3054 H 285.859 -0.676313 1.70582 0
M  V30 3055 H 284.241 -3.2405 2.27612 0
M  V30 3056 H 285.415 -1.33736 4.40966 0
M  V30 3057 H 283.73 -1.35901 3.93599 0
M  V30 3058 H 286.327 -4.09534 3.43781 0
M  V30 3059 H 286.67 -3.77471 1.75559 0
M  V30 3060 H 287.203 -2.61543 2.99733 0
M  V30 3061 H 283.942 -2.65168 5.99472 0
M  V30 3062 H 283.462 -3.7503 4.68095 0
M  V30 3063 H 285.141 -3.74592 5.27532 0
M  V30 3064 N 285.273 -1.31445 -0.869486 0
M  V30 3065 C 286.203 -1.21727 -1.99261 0
M  V30 3066 C 287.184 -0.104359 -1.6978 0
M  V30 3067 O 288.369 -0.289038 -1.92037 0
M  V30 3068 C 285.499 -0.924317 -3.34774 0
M  V30 3069 C 284.453 -1.99685 -3.78563 0
M  V30 3070 C 283.779 -1.55658 -5.11541 0
M  V30 3071 C 285.079 -3.41003 -3.95619 0
M  V30 3072 H 286.773 -2.1569 -2.07649 0
M  V30 3073 H 284.319 -1.03839 -0.997675 0
M  V30 3074 H 286.272 -0.842934 -4.12883 0
M  V30 3075 H 284.996 0.0509793 -3.2656 0
M  V30 3076 H 283.655 -2.06813 -3.02694 0
M  V30 3077 H 283.303 -0.569132 -4.9977 0
M  V30 3078 H 283.003 -2.27409 -5.41811 0
M  V30 3079 H 284.527 -1.48928 -5.92159 0
M  V30 3080 H 285.941 -3.36547 -4.64122 0
M  V30 3081 H 284.338 -4.10975 -4.37286 0
M  V30 3082 H 285.408 -3.81754 -2.98985 0
M  V30 3083 N 286.751 1.08385 -1.14413 0
M  V30 3084 C 287.681 2.17321 -0.854044 0
M  V30 3085 C 288.662 1.69024 0.191049 0
M  V30 3086 O 289.847 1.94141 0.0476779 0
M  V30 3087 C 286.977 3.45719 -0.330983 0
M  V30 3088 C 285.931 4.07409 -1.31155 0
M  V30 3089 C 285.257 5.30762 -0.64778 0
M  V30 3090 C 286.557 4.48665 -2.67388 0
M  V30 3091 H 288.251 2.41845 -1.76498 0
M  V30 3092 H 285.797 1.16233 -0.850051 0
M  V30 3093 H 287.75 4.21241 -0.115645 0
M  V30 3094 H 286.474 3.2075 0.615381 0
M  V30 3095 H 285.133 3.33919 -1.51306 0
M  V30 3096 H 284.781 5.02078 0.304398 0
M  V30 3097 H 284.481 5.72992 -1.30207 0
M  V30 3098 H 286.005 6.08998 -0.441972 0
M  V30 3099 H 287.419 5.15364 -2.51143 0
M  V30 3100 H 285.816 5.01814 -3.29093 0
M  V30 3101 H 286.886 3.60543 -3.24248 0
M  V30 3102 N 288.23 0.939286 1.26551 0
M  V30 3103 C 289.478 0.58469 1.93457 0
M  V30 3104 C 289.799 -0.878774 1.74076 0
M  V30 3105 O 289.069 -1.62421 1.09528 0
M  V30 3106 H 287.649 0.21325 0.715914 0
M  V30 3107 H 290.311 1.1942 1.54029 0
M  V30 3108 H 289.407 0.800849 3.0165 0
M  V30 3109 N 289.708 -1.40897 0.706093 0
M  V30 3110 C 290.955 -2.01054 0.241531 0
M  V30 3111 C 291.283 -1.55956 -1.16223 0
M  V30 3112 O 290.538 -0.766336 -1.80072 0
M  V30 3113 C 290.837 -3.5646 0.259099 0
M  V30 3114 C 290.503 -4.21106 1.61184 0
M  V30 3115 C 289.165 -4.38479 1.98216 0
M  V30 3116 C 291.517 -4.57256 2.50132 0
M  V30 3117 C 288.845 -4.89282 3.2376 0
M  V30 3118 C 291.197 -5.09454 3.7502 0
M  V30 3119 C 289.861 -5.25037 4.12181 0
M  V30 3120 H 289.131 -0.73571 0.0883825 0
M  V30 3121 H 291.778 -1.68645 0.907257 0
M  V30 3122 H 290.083 -3.88721 -0.490189 0
M  V30 3123 H 291.78 -4.00826 -0.11804 0
M  V30 3124 H 288.37 -4.07966 1.31384 0
M  V30 3125 H 292.554 -4.43479 2.228 0
M  V30 3126 H 287.81 -4.99531 3.52532 0
M  V30 3127 H 291.984 -5.36404 4.44121 0
M  V30 3128 H 289.611 -5.64164 5.09532 0
M  V30 3129 N 291.186 -0.45159 -1.50991 0
M  V30 3130 C 292.411 0.110667 -2.07105 0
M  V30 3131 C 292.836 1.3446 -1.31538 0
M  V30 3132 O 292.194 1.77743 -0.357365 0
M  V30 3133 C 292.242 0.397238 -3.58405 0
M  V30 3134 O 291.346 1.48124 -3.84881 0
M  V30 3135 H 290.687 -0.00439271 -0.663985 0
M  V30 3136 H 293.217 -0.637026 -1.9443 0
M  V30 3137 H 293.227 0.64351 -4.02893 0
M  V30 3138 H 291.902 -0.504553 -4.12828 0
M  V30 3139 H 290.479 1.22381 -3.52246 0
M  V30 3140 N 292.664 1.56529 -0.183458 0
M  V30 3141 C 293.941 1.88959 0.50536 0
M  V30 3142 C 294.321 1.09523 1.80466 0
M  V30 3143 O 293.669 0.19278 2.27685 0
M  V30 3144 C 293.879 3.41162 0.73547 0
M  V30 3145 C 295.227 4.11155 1.06005 0
M  V30 3146 O 296.251 3.46548 0.823594 0
M  V30 3147 O 295.11 5.25318 1.50675 0
M  V30 3148 H 292.204 0.78441 0.261973 0
M  V30 3149 H 294.75 1.68231 -0.222802 0
M  V30 3150 H 293.522 3.90874 -0.182561 0
M  V30 3151 H 293.145 3.67543 1.51651 0
M  V30 3152 N 294.142 -0.090211 1.57342 0
M  V30 3153 C 295.105 -1.09335 2.01441 0
M  V30 3154 C 296.105 -1.32666 0.908641 0
M  V30 3155 O 297.295 -1.28697 1.174 0
M  V30 3156 C 294.427 -2.44136 2.3793 0
M  V30 3157 H 295.62 -0.713662 2.91285 0
M  V30 3158 H 293.173 -0.335404 1.52659 0
M  V30 3159 H 293.908 -2.86972 1.51055 0
M  V30 3160 H 293.693 -2.28548 3.18603 0
M  V30 3161 H 295.183 -3.16277 2.72688 0
M  V30 3162 N 295.62 -1.53406 -0.361157 0
M  V30 3163 C 296.553 -1.74946 -1.46524 0
M  V30 3164 C 297.531 -0.59795 -1.51206 0
M  V30 3165 O 298.715 -0.831062 -1.69191 0
M  V30 3166 C 295.842 -1.83224 -2.84863 0
M  V30 3167 C 294.888 -3.05233 -2.97885 0
M  V30 3168 S 295.721 -4.6466 -2.66179 0
M  V30 3169 C 296.877 -4.75793 -4.06659 0
M  V30 3170 H 297.11 -2.68319 -1.28033 0
M  V30 3171 H 294.643 -1.44051 -0.555764 0
M  V30 3172 H 296.601 -1.88679 -3.64569 0
M  V30 3173 H 295.262 -0.908948 -3.00661 0
M  V30 3174 H 294.455 -3.07648 -3.9921 0
M  V30 3175 H 294.057 -2.97913 -2.26106 0
M  V30 3176 H 296.349 -4.5612 -5.0096 0
M  V30 3177 H 297.292 -5.7786 -4.09247 0
M  V30 3178 H 297.7 -4.04389 -3.93865 0
M  V30 3179 N 297.098 0.621204 -1.44841 0
M  V30 3180 C 298.326 1.40752 -1.51646 0
M  V30 3181 C 298.741 1.88246 -0.144549 0
M  V30 3182 O 298.098 1.61422 0.851416 0
M  V30 3183 C 298.149 2.62119 -2.4895 0
M  V30 3184 O 297.87 2.16602 -3.80808 0
M  V30 3185 C 299.371 3.55135 -2.65319 0
M  V30 3186 H 296.591 0.431325 -0.514004 0
M  V30 3187 H 299.135 0.758835 -1.899 0
M  V30 3188 H 297.29 3.23058 -2.13805 0
M  V30 3189 H 297.704 2.95358 -4.33433 0
M  V30 3190 H 299.178 4.36874 -3.37409 0
M  V30 3191 H 299.655 4.04592 -1.70886 0
M  V30 3192 H 300.261 3.00058 -3.01405 0
M  V30 3193 N 298.576 1.31904 0.862503 0
M  V30 3194 C 299.823 1.22017 1.61611 0
M  V30 3195 C 300.151 -0.21991 1.93253 0
M  V30 3196 O 299.406 -1.17076 1.56817 0
M  V30 3197 C 299.705 2.01713 2.95037 0
M  V30 3198 C 299.371 3.51145 2.82857 0
M  V30 3199 C 298.033 3.91889 2.79243 0
M  V30 3200 C 300.385 4.46204 2.69353 0
M  V30 3201 C 297.713 5.25947 2.59993 0
M  V30 3202 C 300.065 5.80397 2.5164 0
M  V30 3203 C 298.729 6.20352 2.46413 0
M  V30 3204 H 297.999 0.44649 0.591378 0
M  V30 3205 H 300.646 1.63248 1.00111 0
M  V30 3206 H 298.951 1.53185 3.60613 0
M  V30 3207 H 300.648 1.91437 3.52353 0
M  V30 3208 H 297.238 3.1878 2.86491 0
M  V30 3209 H 301.422 4.15652 2.71196 0
M  V30 3210 H 296.678 5.5597 2.54376 0
M  V30 3211 H 300.852 6.53676 2.40169 0
M  V30 3212 H 298.479 7.24172 2.31256 0
M  V30 3213 N 300.054 -1.07777 1.14986 0
M  V30 3214 C 301.001 -2.14867 0.842672 0
M  V30 3215 C 301.971 -1.6486 -0.202552 0
M  V30 3216 O 303.156 -1.90668 -0.0710568 0
M  V30 3217 C 300.296 -3.43486 0.333363 0
M  V30 3218 C 299.409 -4.07306 1.43965 0
M  V30 3219 C 298.544 -5.23744 0.886914 0
M  V30 3220 C 297.583 -5.79517 1.97043 0
M  V30 3221 N 296.72 -6.87291 1.4344 0
M  V30 3222 H 301.56 -2.40485 1.75986 0
M  V30 3223 H 299.097 -1.1801 0.878179 0
M  V30 3224 H 301.055 -4.17195 0.0198163 0
M  V30 3225 H 299.685 -3.18133 -0.546916 0
M  V30 3226 H 298.737 -3.31293 1.86946 0
M  V30 3227 H 300.049 -4.44771 2.25788 0
M  V30 3228 H 299.203 -6.04419 0.525651 0
M  V30 3229 H 297.942 -4.87685 0.0377957 0
M  V30 3230 H 296.947 -4.97491 2.34057 0
M  V30 3231 H 298.172 -6.17632 2.82325 0
M  V30 3232 H 296.118 -6.5318 0.607567 0
M  V30 3233 H 296.035 -7.23617 2.18895 0
M  V30 3234 H 297.303 -7.71682 1.10124 0
M  V30 3235 N 301.532 -0.945985 -1.26051 0
M  V30 3236 C 302.442 -0.465633 -2.29933 0
M  V30 3237 C 303.458 0.462761 -1.67733 0
M  V30 3238 O 304.634 0.341118 -1.9849 0
M  V30 3239 C 301.699 0.256994 -3.45746 0
M  V30 3240 C 300.76 -0.708549 -4.23412 0
M  V30 3241 C 299.993 -0.0203135 -5.33696 0
M  V30 3242 O 300.216 1.19571 -5.57726 0
M  V30 3243 O 299.15 -0.701459 -5.97799 0
M  V30 3244 H 302.976 -1.32866 -2.73094 0
M  V30 3245 H 300.561 -0.712071 -1.31339 0
M  V30 3246 H 302.443 0.663852 -4.16138 0
M  V30 3247 H 301.118 1.09533 -3.04605 0
M  V30 3248 H 300.025 -1.16545 -3.55483 0
M  V30 3249 H 301.358 -1.51465 -4.68315 0
M  V30 3250 N 303.011 1.40521 -0.713556 0
M  V30 3251 C 304.427 1.54839 -0.386907 0
M  V30 3252 C 304.627 1.68532 1.1045 0
M  V30 3253 O 303.683 1.67377 1.89053 0
M  V30 3254 C 304.996 2.77792 -1.15118 0
M  V30 3255 C 306.544 2.91607 -1.13729 0
M  V30 3256 C 307.019 4.1747 -1.88368 0
M  V30 3257 N 308.51 4.24466 -1.85427 0
M  V30 3258 C 309.245 5.20755 -2.40004 0
M  V30 3259 N 308.741 6.22965 -3.03129 0
M  V30 3260 N 310.534 5.1282 -2.30158 0
M  V30 3261 H 302.685 1.29879 -1.68063 0
M  V30 3262 H 304.948 0.627896 -0.710247 0
M  V30 3263 H 304.654 2.73944 -2.20561 0
M  V30 3264 H 304.528 3.6984 -0.741477 0
M  V30 3265 H 306.915 2.94959 -0.0910608 0
M  V30 3266 H 306.996 2.00682 -1.5862 0
M  V30 3267 H 306.64 4.1488 -2.9298 0
M  V30 3268 H 306.57 5.074 -1.40898 0
M  V30 3269 H 309.061 3.51241 -1.3942 0
M  V30 3270 H 309.374 6.92859 -3.42295 0
M  V30 3271 H 307.719 6.23415 -3.07212 0
M  V30 3272 H 310.91 4.31899 -1.80501 0
M  V30 3273 H 311.083 5.87689 -2.72993 0
M  V30 3274 N 304.489 0.459591 1.5075 0
M  V30 3275 C 305.735 -0.0994966 2.02556 0
M  V30 3276 C 306.068 -1.40399 1.3417 0
M  V30 3277 O 305.343 -1.88892 0.463683 0
M  V30 3278 C 305.626 -0.295242 3.58888 0
M  V30 3279 C 305.479 1.02947 4.37861 0
M  V30 3280 C 306.798 -1.05502 4.27267 0
M  V30 3281 H 303.917 -0.034686 0.736183 0
M  V30 3282 H 306.559 0.602938 1.8018 0
M  V30 3283 H 304.709 -0.893563 3.78084 0
M  V30 3284 H 306.381 1.66348 4.30263 0
M  V30 3285 H 304.624 1.62885 4.02058 0
M  V30 3286 H 305.295 0.846281 5.45474 0
M  V30 3287 H 307.771 -0.547993 4.12476 0
M  V30 3288 H 306.647 -1.16077 5.36486 0
M  V30 3289 H 306.908 -2.08875 3.89645 0
M  V30 3290 N 305.967 -1.56429 0.191757 0
M  V30 3291 C 307.383 -1.58754 -0.164137 0
M  V30 3292 C 307.583 -1.20782 -1.61288 0
M  V30 3293 O 306.639 -0.928999 -2.34789 0
M  V30 3294 C 307.952 -3.00396 0.135195 0
M  V30 3295 C 309.5 -3.1291 0.0750351 0
M  V30 3296 C 309.975 -4.56679 0.347632 0
M  V30 3297 N 311.466 -4.62252 0.296131 0
M  V30 3298 C 312.201 -5.71379 0.480948 0
M  V30 3299 N 311.697 -6.88986 0.725933 0
M  V30 3300 N 313.49 -5.60563 0.415435 0
M  V30 3301 H 305.641 -1.79393 1.13718 0
M  V30 3302 H 307.904 -0.832414 0.453643 0
M  V30 3303 H 307.61 -3.32726 1.13958 0
M  V30 3304 H 307.484 -3.72963 -0.563773 0
M  V30 3305 H 309.871 -2.80394 -0.919948 0
M  V30 3306 H 309.952 -2.42736 0.807029 0
M  V30 3307 H 309.596 -4.89907 1.33992 0
M  V30 3308 H 309.526 -5.25039 -0.405212 0
M  V30 3309 H 312.017 -3.7773 0.113259 0
M  V30 3310 H 312.33 -7.68046 0.855857 0
M  V30 3311 H 310.675 -6.90801 0.762788 0
M  V30 3312 H 313.866 -4.67561 0.224486 0
M  V30 3313 H 314.039 -6.45551 0.562889 0
M  V30 3314 N 307.445 0.0818655 -1.57387 0
M  V30 3315 C 308.393 1.11712 -2.04018 0
M  V30 3316 C 309.387 1.40683 -0.94364 0
M  V30 3317 O 310.593 1.40209 -1.12878 0
M  V30 3318 H 306.968 0.377542 -0.650358 0
M  V30 3319 H 308.939 0.697614 -2.90131 0
M  V30 3320 C 307.688 2.42537 -2.49141 0
M  V30 3321 H 307.011 2.21092 -3.33104 0
M  V30 3322 H 308.451 3.13446 -2.85531 0
M  V30 3323 C 306.91 3.0778 -1.37014 0
M  V30 3324 O 307.44 3.95436 -0.706621 0
M  V30 3325 N 305.646 2.68242 -1.11779 0
M  V30 3326 H 305.193 1.97052 -1.65917 0
M  V30 3327 H 305.151 3.1222 -0.369594 0
M  V30 3328 N 308.923 1.53595 0.353017 0
M  V30 3329 C 309.873 1.77299 1.43349 0
M  V30 3330 C 310.857 0.627884 1.48143 0
M  V30 3331 O 312.049 0.88697 1.53173 0
M  V30 3332 C 309.178 1.97757 2.80619 0
M  V30 3333 C 308.264 3.18305 2.80254 0
M  V30 3334 N 308.655 4.39967 2.49526 0
M  V30 3335 C 306.953 3.19283 3.11407 0
M  V30 3336 C 307.654 5.21772 2.57156 0
M  V30 3337 N 306.63 4.58269 2.92388 0
M  V30 3338 H 310.432 2.68963 1.18474 0
M  V30 3339 H 307.946 1.52391 0.561306 0
M  V30 3340 H 309.943 2.1287 3.58458 0
M  V30 3341 H 308.603 1.07329 3.06448 0
M  V30 3342 H 309.614 4.67482 2.22893 0
M  V30 3343 H 306.291 2.3879 3.4247 0
M  V30 3344 H 307.681 6.2885 2.36638 0
M  V30 3345 N 310.401 -0.613514 1.45168 0
M  V30 3346 C 311.65 -1.36874 1.4815 0
M  V30 3347 C 311.963 -1.952 0.124982 0
M  V30 3348 O 313.169 -2.71481 0.0324176 0
M  V30 3349 C 311.625 -2.47905 2.60904 0
M  V30 3350 C 311.233 -1.96016 4.02842 0
M  V30 3351 C 312.977 -3.24965 2.73126 0
M  V30 3352 C 310.884 -3.04494 5.06988 0
M  V30 3353 H 309.814 -0.514428 0.551253 0
M  V30 3354 H 312.465 -0.658182 1.7129 0
M  V30 3355 H 310.847 -3.21618 2.31037 0
M  V30 3356 H 312.021 -1.29051 4.4236 0
M  V30 3357 H 310.336 -1.31719 3.95018 0
M  V30 3358 H 312.933 -4.05865 3.48106 0
M  V30 3359 H 313.276 -3.75588 1.79553 0
M  V30 3360 H 313.809 -2.5835 3.0249 0
M  V30 3361 H 310.548 -2.58795 6.0225 0
M  V30 3362 H 310.068 -3.70044 4.72046 0
M  V30 3363 H 311.747 -3.68976 5.31475 0
M  V30 3364 N 311.879 -1.3236 -0.855495 0
M  V30 3365 C 312.812 -1.15559 -1.96777 0
M  V30 3366 C 313.79 -0.0552681 -1.62506 0
M  V30 3367 O 314.974 -0.214419 -1.87277 0
M  V30 3368 C 312.101 -0.768851 -3.29858 0
M  V30 3369 C 311.147 -1.87429 -3.83109 0
M  V30 3370 S 311.98 -3.48243 -4.06801 0
M  V30 3371 C 313.136 -3.11539 -5.42858 0
M  V30 3372 H 313.369 -2.09717 -2.10727 0
M  V30 3373 H 310.902 -1.17011 -1.00737 0
M  V30 3374 H 312.86 -0.55248 -4.06765 0
M  V30 3375 H 311.521 0.153857 -3.13723 0
M  V30 3376 H 310.714 -1.55667 -4.79358 0
M  V30 3377 H 310.316 -2.04647 -3.13042 0
M  V30 3378 H 312.608 -2.61331 -6.2507 0
M  V30 3379 H 313.551 -4.06806 -5.79582 0
M  V30 3380 H 313.959 -2.48582 -5.06821 0
M  V30 3381 N 313.357 1.07166 -1.15556 0
M  V30 3382 C 314.307 2.12649 -0.82247 0
M  V30 3383 C 315.291 1.59725 0.194129 0
M  V30 3384 O 316.483 1.76999 -0.00540402 0
M  V30 3385 C 313.612 3.41847 -0.315572 0
M  V30 3386 C 312.698 4.0162 -1.36244 0
M  V30 3387 N 313.089 4.35625 -2.5703 0
M  V30 3388 C 311.387 4.29114 -1.21562 0
M  V30 3389 C 312.088 4.83017 -3.24144 0
M  V30 3390 N 311.064 4.81906 -2.51531 0
M  V30 3391 H 314.866 2.36776 -1.74111 0
M  V30 3392 H 312.38 1.24622 -1.0413 0
M  V30 3393 H 314.377 4.16859 -0.0585855 0
M  V30 3394 H 313.037 3.19163 0.597105 0
M  V30 3395 H 314.048 4.26253 -2.94158 0
M  V30 3396 H 310.725 4.15919 -0.362988 0
M  V30 3397 H 312.115 5.18605 -4.27198 0
M  V30 3398 N 314.835 0.952656 1.25548 0
M  V30 3399 C 315.765 0.489287 2.28316 0
M  V30 3400 C 316.746 -0.463359 1.63667 0
M  V30 3401 O 317.931 -0.36274 1.90782 0
M  V30 3402 C 315.061 -0.235603 3.465 0
M  V30 3403 C 314.015 0.631593 4.23314 0
M  V30 3404 C 313.341 -0.223923 5.34231 0
M  V30 3405 C 314.641 1.90871 4.86174 0
M  V30 3406 H 316.335 1.34822 2.67326 0
M  V30 3407 H 313.881 0.649728 1.28509 0
M  V30 3408 H 315.834 -0.570882 4.17515 0
M  V30 3409 H 314.558 -1.12877 3.06474 0
M  V30 3410 H 313.217 0.949929 3.54079 0
M  V30 3411 H 312.865 -1.11678 4.90446 0
M  V30 3412 H 312.565 0.35299 5.86539 0
M  V30 3413 H 314.089 -0.554214 6.0808 0
M  V30 3414 H 315.503 1.63997 5.49343 0
M  V30 3415 H 313.9 2.43112 5.4865 0
M  V30 3416 H 314.97 2.61304 4.08471 0
M  V30 3417 N 316.313 -1.40141 0.720998 0
M  V30 3418 C 317.223 -2.34486 0.0731031 0
M  V30 3419 C 318.239 -1.57587 -0.737723 0
M  V30 3420 O 319.415 -1.89949 -0.669429 0
M  V30 3421 C 316.48 -3.36528 -0.833656 0
M  V30 3422 C 315.541 -4.29298 -0.0121673 0
M  V30 3423 C 314.774 -5.26466 -0.875742 0
M  V30 3424 O 314.997 -5.29745 -2.11485 0
M  V30 3425 O 313.931 -6.01092 -0.31185 0
M  V30 3426 H 317.757 -2.9152 0.851444 0
M  V30 3427 H 315.342 -1.41427 0.481527 0
M  V30 3428 H 317.224 -3.99093 -1.35289 0
M  V30 3429 H 315.899 -2.81899 -1.59105 0
M  V30 3430 H 314.806 -3.70001 0.552262 0
M  V30 3431 H 316.139 -4.87094 0.707129 0
M  V30 3432 N 317.792 -0.46758 -1.50504 0
M  V30 3433 C 318.702 0.33382 -2.32213 0
M  V30 3434 C 319.718 0.999323 -1.42441 0
M  V30 3435 O 320.894 0.988068 -1.75497 0
M  V30 3436 C 317.959 1.4035 -3.17022 0
M  V30 3437 C 317.02 0.754961 -4.2261 0
M  V30 3438 C 316.253 1.77367 -5.03365 0
M  V30 3439 O 316.476 2.99976 -4.8515 0
M  V30 3440 O 315.41 1.34744 -5.86624 0
M  V30 3441 H 319.236 -0.334067 -3.01857 0
M  V30 3442 H 316.821 -0.229496 -1.47627 0
M  V30 3443 H 318.703 2.02318 -3.69656 0
M  V30 3444 H 317.378 2.05492 -2.5011 0
M  V30 3445 H 316.285 0.0964244 -3.73976 0
M  V30 3446 H 317.618 0.146545 -4.91982 0
M  V30 3447 N 319.27 1.56325 -0.20005 0
M  V30 3448 C 320.22 2.15939 0.731743 0
M  V30 3449 C 321.204 1.10154 1.17281 0
M  V30 3450 O 322.396 1.36203 1.13038 0
M  V30 3451 C 319.525 2.82614 1.94895 0
M  V30 3452 C 318.611 3.95596 1.52855 0
M  V30 3453 N 319.002 4.99118 0.819418 0
M  V30 3454 C 317.3 4.07288 1.81748 0
M  V30 3455 C 318.001 5.78513 0.608053 0
M  V30 3456 N 316.977 5.31117 1.15828 0
M  V30 3457 H 320.779 2.9334 0.181285 0
M  V30 3458 H 318.293 1.624 -0.000452172 0
M  V30 3459 H 320.29 3.23718 2.62702 0
M  V30 3460 H 318.95 2.06702 2.50408 0
M  V30 3461 H 319.961 5.15723 0.47436 0
M  V30 3462 H 316.638 3.42509 2.38734 0
M  V30 3463 H 318.028 6.71885 0.0451619 0
M  V30 3464 N 320.748 -0.0735177 1.57428 0
M  V30 3465 C 321.678 -1.0879 2.06608 0
M  V30 3466 C 322.659 -1.40473 0.959237 0
M  V30 3467 O 323.844 -1.5013 1.23185 0
M  V30 3468 C 320.974 -2.40183 2.50857 0
M  V30 3469 C 319.928 -2.22858 3.65402 0
M  V30 3470 C 319.254 -3.59619 3.957 0
M  V30 3471 C 320.554 -1.65123 4.95511 0
M  V30 3472 H 322.248 -0.678673 2.91607 0
M  V30 3473 H 319.794 -0.325013 1.40284 0
M  V30 3474 H 321.747 -3.11437 2.83874 0
M  V30 3475 H 320.471 -2.83083 1.62885 0
M  V30 3476 H 319.13 -1.54045 3.32664 0
M  V30 3477 H 318.778 -4.00086 3.04861 0
M  V30 3478 H 318.478 -3.48866 4.72828 0
M  V30 3479 H 320.002 -4.32306 4.31212 0
M  V30 3480 H 321.416 -2.26241 5.26771 0
M  V30 3481 H 319.813 -1.65071 5.7695 0
M  V30 3482 H 320.883 -0.612559 4.81015 0
M  V30 3483 N 322.226 -1.5378 -0.344866 0
M  V30 3484 C 323.156 -1.84662 -1.42906 0
M  V30 3485 C 324.137 -0.701648 -1.54955 0
M  V30 3486 O 325.322 -0.953438 -1.69184 0
M  V30 3487 C 322.452 -2.05503 -2.79974 0
M  V30 3488 C 321.406 -3.21318 -2.82734 0
M  V30 3489 C 320.732 -3.2749 -4.22675 0
M  V30 3490 C 322.032 -4.59456 -2.48389 0
M  V30 3491 H 323.726 -2.75461 -1.17311 0
M  V30 3492 H 321.272 -1.32542 -0.562896 0
M  V30 3493 H 323.225 -2.25691 -3.55867 0
M  V30 3494 H 321.949 -1.11434 -3.07002 0
M  V30 3495 H 320.608 -3.00984 -2.09294 0
M  V30 3496 H 320.256 -2.31019 -4.4681 0
M  V30 3497 H 319.956 -4.05316 -4.25433 0
M  V30 3498 H 321.48 -3.49887 -5.00412 0
M  V30 3499 H 322.894 -4.79667 -3.13995 0
M  V30 3500 H 321.291 -5.39675 -2.62432 0
M  V30 3501 H 322.361 -4.63155 -1.4358 0
M  V30 3502 N 323.704 0.605807 -1.45491 0
M  V30 3503 C 324.944 1.37606 -1.51142 0
M  V30 3504 C 325.308 1.91413 -0.150075 0
M  V30 3505 O 326.509 2.68677 -0.0812828 0
M  V30 3506 C 324.78 2.49197 -2.56195 0
M  V30 3507 S 326.339 3.36953 -2.81083 0
M  V30 3508 H 323.157 0.469118 -0.534275 0
M  V30 3509 H 325.759 0.698845 -1.82583 0
M  V30 3510 H 324.463 2.0802 -3.53773 0
M  V30 3511 H 323.994 3.21717 -2.26411 0
M  V30 3512 H 326.009 4.47395 -2.14598 0
M  V30 3513 N 325.182 1.32811 0.848464 0
M  V30 3514 C 326.132 1.18842 1.94578 0
M  V30 3515 C 327.116 0.0937517 1.60627 0
M  V30 3516 O 328.308 0.320887 1.74067 0
M  V30 3517 C 325.437 0.91999 3.30743 0
M  V30 3518 C 324.523 2.05665 3.70894 0
M  V30 3519 N 324.914 3.30579 3.8282 0
M  V30 3520 C 323.212 1.9612 4.00566 0
M  V30 3521 C 323.913 4.05067 4.17487 0
M  V30 3522 N 322.889 3.33419 4.2934 0
M  V30 3523 H 326.691 2.13536 2.0194 0
M  V30 3524 H 324.205 1.2468 1.0406 0
M  V30 3525 H 326.202 0.800859 4.09136 0
M  V30 3526 H 324.862 -0.0185076 3.24695 0
M  V30 3527 H 325.873 3.65441 3.66978 0
M  V30 3528 H 322.55 1.09871 4.02784 0
M  V30 3529 H 323.94 5.12815 4.34131 0
M  V30 3530 N 326.66 -1.06551 1.16123 0
M  V30 3531 C 328.076 -1.3142 0.905585 0
M  V30 3532 C 328.276 -1.96571 -0.442964 0
M  V30 3533 O 327.332 -2.23068 -1.18308 0
M  V30 3534 C 328.645 -2.19741 2.05267 0
M  V30 3535 C 330.193 -2.33165 2.08813 0
M  V30 3536 C 330.668 -3.24838 3.22868 0
M  V30 3537 N 332.159 -3.32421 3.22568 0
M  V30 3538 C 332.894 -4.0344 4.0746 0
M  V30 3539 N 332.39 -4.77003 5.02434 0
M  V30 3540 N 334.183 -3.99464 3.95456 0
M  V30 3541 H 326.334 -0.626548 2.02949 0
M  V30 3542 H 328.597 -0.338777 0.8854 0
M  V30 3543 H 328.303 -1.79142 3.02657 0
M  V30 3544 H 328.177 -3.20313 1.99198 0
M  V30 3545 H 330.564 -2.73013 1.12018 0
M  V30 3546 H 330.645 -1.3227 2.18948 0
M  V30 3547 H 330.289 -2.85708 4.19921 0
M  V30 3548 H 330.219 -4.25707 3.0997 0
M  V30 3549 H 332.71 -2.79994 2.53795 0
M  V30 3550 H 333.023 -5.28712 5.63634 0
M  V30 3551 H 331.368 -4.75992 5.06415 0
M  V30 3552 H 334.559 -3.4111 3.20564 0
M  V30 3553 H 334.732 -4.54544 4.61837 0
M  V30 3554 N 328.138 -0.959301 -1.25041 0
M  V30 3555 C 329.385 -0.616611 -1.92884 0
M  V30 3556 C 329.713 0.847036 -1.75087 0
M  V30 3557 O 328.968 1.62374 -1.09239 0
M  V30 3558 C 329.267 -0.927136 -3.45165 0
M  V30 3559 C 328.933 -2.37757 -3.83122 0
M  V30 3560 C 327.595 -2.77402 -3.93194 0
M  V30 3561 C 329.947 -3.31929 -4.01836 0
M  V30 3562 C 327.275 -4.10277 -4.19392 0
M  V30 3563 C 329.627 -4.64423 -4.29528 0
M  V30 3564 C 328.291 -5.03857 -4.37818 0
M  V30 3565 H 327.561 -0.225634 -0.705812 0
M  V30 3566 H 330.208 -1.20921 -1.48493 0
M  V30 3567 H 328.513 -0.252195 -3.90987 0
M  V30 3568 H 330.21 -0.6405 -3.95852 0
M  V30 3569 H 326.8 -2.06013 -3.75841 0
M  V30 3570 H 330.984 -3.02488 -3.93465 0
M  V30 3571 H 326.24 -4.40467 -4.24027 0
M  V30 3572 H 330.414 -5.37369 -4.42953 0
M  V30 3573 H 328.041 -6.06843 -4.57871 0
M  V30 3574 N 329.616 1.39756 -0.72842 0
M  V30 3575 C 330.863 2.00645 -0.273487 0
M  V30 3576 C 331.191 1.57786 1.13727 0
M  V30 3577 O 330.446 0.794886 1.7883 0
M  V30 3578 C 330.745 3.56002 -0.315776 0
M  V30 3579 C 330.411 4.18489 -1.67863 0
M  V30 3580 C 329.073 4.3527 -2.05166 0
M  V30 3581 C 331.425 4.53219 -2.57375 0
M  V30 3582 C 328.753 4.84069 -3.31503 0
M  V30 3583 C 331.105 5.03423 -3.83077 0
M  V30 3584 C 329.769 5.18413 -4.20481 0
M  V30 3585 H 329.039 0.734211 -0.100076 0
M  V30 3586 H 331.686 1.6718 -0.933972 0
M  V30 3587 H 329.991 3.89452 0.428285 0
M  V30 3588 H 331.688 4.00963 0.0542575 0
M  V30 3589 H 328.278 4.05824 -1.37858 0
M  V30 3590 H 332.462 4.39878 -2.29827 0
M  V30 3591 H 327.718 4.93859 -3.60435 0
M  V30 3592 H 331.892 5.2927 -4.52599 0
M  V30 3593 H 329.519 5.55987 -5.18443 0
M  V30 3594 N 331.094 0.475555 1.50254 0
M  V30 3595 C 332.041 -0.316293 2.28622 0
M  V30 3596 C 333.011 -0.983227 1.33873 0
M  V30 3597 O 334.196 -0.994805 1.62814 0
M  V30 3598 C 331.336 -1.38975 3.1588 0
M  V30 3599 C 330.449 -0.737146 4.25664 0
M  V30 3600 C 329.584 -1.78887 5.00173 0
M  V30 3601 C 328.623 -1.11676 6.01826 0
M  V30 3602 N 327.76 -2.11154 6.69596 0
M  V30 3603 H 332.6 0.358297 2.95838 0
M  V30 3604 H 330.137 0.188541 1.45887 0
M  V30 3605 H 332.095 -2.02383 3.64825 0
M  V30 3606 H 330.725 -2.03344 2.50701 0
M  V30 3607 H 329.777 0.0096065 3.80399 0
M  V30 3608 H 331.089 -0.206816 4.98371 0
M  V30 3609 H 330.243 -2.49865 5.52859 0
M  V30 3610 H 328.982 -2.35302 4.27182 0
M  V30 3611 H 327.987 -0.392633 5.48396 0
M  V30 3612 H 329.212 -0.55945 6.76792 0
M  V30 3613 H 327.158 -2.66577 5.99394 0
M  V30 3614 H 327.075 -1.63118 7.38193 0
M  V30 3615 H 328.343 -2.81497 7.26897 0
M  V30 3616 N 332.573 -1.56217 0.208337 0
M  V30 3617 C 333.521 -2.21053 -0.723769 0
M  V30 3618 C 334.515 -1.18578 -1.20978 0
M  V30 3619 O 335.721 -1.36691 -1.17114 0
M  V30 3620 H 332.096 -0.708595 -0.251788 0
M  V30 3621 H 334.067 -2.98006 -0.153365 0
M  V30 3622 C 332.816 -2.89417 -1.927 0
M  V30 3623 H 332.139 -3.68019 -1.56212 0
M  V30 3624 H 333.579 -3.38201 -2.55727 0
M  V30 3625 C 332.038 -1.91166 -2.77411 0
M  V30 3626 O 332.568 -1.42026 -3.75754 0
M  V30 3627 N 330.774 -1.59105 -2.43175 0
M  V30 3628 H 330.321 -1.99259 -1.63259 0
M  V30 3629 H 330.279 -0.936255 -3.00136 0
M  V30 3630 N 334.051 0.0651679 -1.57465 0
M  V30 3631 C 335.014 1.06117 -2.03155 0
M  V30 3632 C 336.014 1.31204 -0.929632 0
M  V30 3633 O 337.204 1.26813 -1.19432 0
M  V30 3634 C 334.336 2.4032 -2.41783 0
M  V30 3635 H 335.529 0.667231 -2.92383 0
M  V30 3636 H 333.082 0.311075 -1.53173 0
M  V30 3637 H 333.817 2.84532 -1.55601 0
M  V30 3638 H 333.602 2.23451 -3.22199 0
M  V30 3639 H 335.092 3.11898 -2.77685 0
M  V30 3640 N 335.529 1.53961 0.336706 0
M  V30 3641 C 336.459 1.85417 1.41925 0
M  V30 3642 C 337.44 0.709856 1.5458 0
M  V30 3643 O 338.625 0.962396 1.68676 0
M  V30 3644 C 335.755 2.06985 2.78881 0
M  V30 3645 C 334.709 3.22813 2.81026 0
M  V30 3646 C 334.035 3.29727 4.20932 0
M  V30 3647 C 335.335 4.60767 2.45949 0
M  V30 3648 H 337.029 2.76079 1.15848 0
M  V30 3649 H 334.575 1.32839 0.555859 0
M  V30 3650 H 336.528 2.27575 3.54665 0
M  V30 3651 H 335.252 1.13061 3.06406 0
M  V30 3652 H 333.911 3.0209 2.07695 0
M  V30 3653 H 333.559 2.33385 4.45579 0
M  V30 3654 H 333.259 4.07566 4.23277 0
M  V30 3655 H 334.783 3.52536 4.98549 0
M  V30 3656 H 336.197 4.81325 3.11446 0
M  V30 3657 H 334.594 5.4106 2.59566 0
M  V30 3658 H 335.664 4.6391 1.41122 0
M  V30 3659 N 337.007 -0.598083 1.45811 0
M  V30 3660 C 337.917 -1.73632 1.57763 0
M  V30 3661 C 338.933 -1.67763 0.461676 0
M  V30 3662 O 340.109 -1.87949 0.723685 0
M  V30 3663 C 337.174 -3.10114 1.55018 0
M  V30 3664 C 336.235 -3.27364 2.77726 0
M  V30 3665 C 335.468 -4.57334 2.75102 0
M  V30 3666 O 335.691 -5.40258 1.8297 0
M  V30 3667 O 334.625 -4.77502 3.66437 0
M  V30 3668 H 338.451 -1.66498 2.53992 0
M  V30 3669 H 336.036 -0.763308 1.28429 0
M  V30 3670 H 337.918 -3.9141 1.56129 0
M  V30 3671 H 336.593 -3.17718 0.619431 0
M  V30 3672 H 335.5 -2.45619 2.82174 0
M  V30 3673 H 336.833 -3.24641 3.69958 0
M  V30 3674 N 338.485 -1.33259 -0.841409 0
M  V30 3675 C 339.734 -1.23921 -1.59143 0
M  V30 3676 C 340.047 0.1941 -1.94635 0
M  V30 3677 O 341.253 0.409474 -2.68394 0
M  V30 3678 C 339.709 -2.17119 -2.87032 0
M  V30 3679 C 339.317 -3.65606 -2.58914 0
M  V30 3680 C 341.061 -2.16648 -3.65053 0
M  V30 3681 C 338.968 -4.50726 -3.82884 0
M  V30 3682 H 337.898 -0.460264 -0.597221 0
M  V30 3683 H 340.549 -1.58307 -0.927959 0
M  V30 3684 H 338.931 -1.75663 -3.54906 0
M  V30 3685 H 340.105 -4.15487 -1.99267 0
M  V30 3686 H 338.42 -3.68341 -1.942 0
M  V30 3687 H 341.017 -2.77474 -4.57069 0
M  V30 3688 H 341.36 -1.16088 -3.99787 0
M  V30 3689 H 341.893 -2.56453 -3.041 0
M  V30 3690 H 338.632 -5.52151 -3.53283 0
M  V30 3691 H 338.152 -4.0559 -4.41879 0
M  V30 3692 H 339.831 -4.64401 -4.50489 0
M  V30 3693 N 339.963 1.05934 -1.16686 0
M  V30 3694 C 340.926 2.11669 -0.879144 0
M  V30 3695 C 341.926 1.60294 0.127445 0
M  V30 3696 O 343.116 1.7389 -0.103865 0
M  V30 3697 C 340.248 3.39438 -0.315425 0
M  V30 3698 H 341.441 2.38626 -1.81653 0
M  V30 3699 H 338.994 1.22058 -0.976299 0
M  V30 3700 H 339.729 3.18132 0.629468 0
M  V30 3701 H 339.514 3.78034 -1.04079 0
M  V30 3702 H 341.004 4.17391 -0.132189 0
M  V30 3703 N 341.441 0.965919 1.2453 0
M  V30 3704 C 342.666 0.643971 1.97149 0
M  V30 3705 C 343.091 -0.779487 1.71189 0
M  V30 3706 O 342.449 -1.5288 0.974553 0
M  V30 3707 C 342.497 0.922557 3.48599 0
M  V30 3708 O 341.601 0.00707672 4.12399 0
M  V30 3709 H 340.942 0.243647 0.617683 0
M  V30 3710 H 343.472 1.29558 1.58353 0
M  V30 3711 H 343.482 0.853373 3.98976 0
M  V30 3712 H 342.157 1.95996 3.66822 0
M  V30 3713 H 340.734 0.12943 3.72675 0
M  V30 3714 N 342.919 -1.39368 0.735821 0
M  V30 3715 C 343.829 -2.34395 0.0979693 0
M  V30 3716 C 344.845 -1.58361 -0.720968 0
M  V30 3717 O 346.021 -1.90648 -0.649245 0
M  V30 3718 C 343.086 -3.37393 -0.797916 0
M  V30 3719 C 342.147 -4.29287 0.0333662 0
M  V30 3720 C 341.38 -5.27365 -0.819854 0
M  V30 3721 O 341.603 -5.31959 -2.05855 0
M  V30 3722 O 340.537 -6.01389 -0.248079 0
M  V30 3723 H 344.363 -2.90601 0.882315 0
M  V30 3724 H 341.948 -1.40909 0.4965 0
M  V30 3725 H 343.83 -4.00505 -1.31048 0
M  V30 3726 H 342.505 -2.83571 -1.56106 0
M  V30 3727 H 341.412 -3.69395 0.591475 0
M  V30 3728 H 342.745 -4.86317 0.758752 0
M  V30 3729 N 344.397 -0.483516 -1.5 0
M  V30 3730 C 345.646 0.0689102 -2.01582 0
M  V30 3731 C 345.959 1.39655 -1.36952 0
M  V30 3732 O 347.165 2.03465 -1.79762 0
M  V30 3733 C 345.621 0.173302 -3.59483 0
M  V30 3734 C 345.229 -1.14665 -4.33077 0
M  V30 3735 C 346.973 0.677024 -4.19066 0
M  V30 3736 C 344.88 -1.00537 -5.82792 0
M  V30 3737 H 343.81 0.0295277 -0.753422 0
M  V30 3738 H 346.461 -0.620295 -1.72698 0
M  V30 3739 H 344.843 0.926569 -3.85007 0
M  V30 3740 H 346.017 -1.91184 -4.19268 0
M  V30 3741 H 344.332 -1.58244 -3.85159 0
M  V30 3742 H 346.929 0.799952 -5.28682 0
M  V30 3743 H 347.272 1.67151 -3.81269 0
M  V30 3744 H 347.805 -0.0192083 -3.97795 0
M  V30 3745 H 344.544 -1.9736 -6.25083 0
M  V30 3746 H 344.064 -0.280776 -5.99142 0
M  V30 3747 H 345.743 -0.677 -6.43448 0
M  V30 3748 N 345.875 1.56104 -0.216619 0
M  V30 3749 C 346.805 2.23063 0.690296 0
M  V30 3750 C 347.786 1.20072 1.20485 0
M  V30 3751 O 348.971 1.48643 1.24976 0
M  V30 3752 C 346.101 2.90672 1.90072 0
M  V30 3753 C 345.055 4.00092 1.5202 0
M  V30 3754 C 344.381 4.54972 2.80899 0
M  V30 3755 C 345.681 5.17398 0.71391 0
M  V30 3756 H 347.375 2.99109 0.132038 0
M  V30 3757 H 344.921 1.43866 0.0620664 0
M  V30 3758 H 346.874 3.36204 2.54057 0
M  V30 3759 H 345.598 2.12066 2.48386 0
M  V30 3760 H 344.257 3.55283 0.903839 0
M  V30 3761 H 343.905 3.73102 3.37348 0
M  V30 3762 H 343.605 5.28817 2.56176 0
M  V30 3763 H 345.129 5.0322 3.45836 0
M  V30 3764 H 346.543 5.59342 1.25735 0
M  V30 3765 H 344.94 5.97444 0.563951 0
M  V30 3766 H 346.01 4.84088 -0.280527 0
M  V30 3767 N 347.353 -0.0568162 1.57498 0
M  V30 3768 C 348.285 -1.09292 2.01464 0
M  V30 3769 C 349.298 -1.34112 0.922913 0
M  V30 3770 O 350.487 -1.32089 1.20062 0
M  V30 3771 C 347.587 -2.44068 2.35125 0
M  V30 3772 C 346.76 -2.38995 3.66333 0
M  V30 3773 C 345.819 -3.55997 3.87495 0
M  V30 3774 O 344.845 -3.36746 4.58901 0
M  V30 3775 N 346.047 -4.76888 3.30996 0
M  V30 3776 H 348.812 -0.718386 2.90963 0
M  V30 3777 H 346.373 -0.245235 1.60032 0
M  V30 3778 H 348.365 -3.21011 2.46443 0
M  V30 3779 H 346.935 -2.73468 1.5144 0
M  V30 3780 H 346.155 -1.47336 3.65631 0
M  V30 3781 H 347.443 -2.3272 4.52458 0
M  V30 3782 H 346.841 -4.95431 2.73065 0
M  V30 3783 H 345.398 -5.51291 3.47738 0
M  V30 3784 N 348.832 -1.54138 -0.328536 0
M  V30 3785 C 350.06 -1.76062 -1.08673 0
M  V30 3786 C 350.475 -0.506852 -1.81869 0
M  V30 3787 O 349.832 0.522223 -1.74869 0
M  V30 3788 C 349.883 -2.95054 -2.08866 0
M  V30 3789 O 349.604 -4.15583 -1.38644 0
M  V30 3790 C 351.105 -3.2915 -2.96943 0
M  V30 3791 H 348.325 -0.587889 -0.323461 0
M  V30 3792 H 350.869 -2.0101 -0.376175 0
M  V30 3793 H 349.024 -2.72394 -2.75464 0
M  V30 3794 H 349.438 -4.82481 -2.05699 0
M  V30 3795 H 350.912 -4.15723 -3.63151 0
M  V30 3796 H 351.389 -2.461 -3.63774 0
M  V30 3797 H 351.995 -3.53871 -2.35914 0
M  V30 3798 N 350.31 0.590341 -1.46126 0
M  V30 3799 C 351.721 1.17243 -1.45296 0
M  V30 3800 C 352.072 1.95281 -0.189723 0
M  V30 3801 O 351.197 2.04502 0.707674 0
M  V30 3802 C 351.792 2.13284 -2.6324 0
M  V30 3803 C 350.351 2.66832 -2.65476 0
M  V30 3804 C 349.498 1.42557 -2.3785 0
M  V30 3805 H 352.449 0.378692 -1.54116 0
M  V30 3806 H 352.47 2.96619 -2.38323 0
M  V30 3807 H 351.982 1.56459 -3.55165 0
M  V30 3808 H 350.083 3.27548 -1.77603 0
M  V30 3809 H 350.196 3.10088 -3.65215 0
M  V30 3810 H 348.56 1.72107 -1.87753 0
M  V30 3811 H 349.343 0.875741 -3.31942 0
M  V30 3812 N 351.788 1.33704 0.83433 0
M  V30 3813 C 353.034 1.25603 1.59222 0
M  V30 3814 C 353.367 -0.176659 1.93395 0
M  V30 3815 O 352.642 -1.11915 1.59076 0
M  V30 3816 C 352.925 2.13576 2.89926 0
M  V30 3817 C 352.778 3.65326 2.62406 0
M  V30 3818 C 354.097 2.01238 3.91397 0
M  V30 3819 H 351.216 0.457613 0.577719 0
M  V30 3820 H 353.858 1.63848 0.961972 0
M  V30 3821 H 352.008 1.8109 3.43713 0
M  V30 3822 H 353.68 4.08124 2.15017 0
M  V30 3823 H 351.923 3.8698 1.96033 0
M  V30 3824 H 352.594 4.22232 3.55562 0
M  V30 3825 H 355.07 2.29738 3.46929 0
M  V30 3826 H 353.946 2.65036 4.80673 0
M  V30 3827 H 354.207 0.985951 4.30966 0
M  V30 3828 N 353.266 -1.05314 1.17247 0
M  V30 3829 C 354.494 -1.81971 0.984593 0
M  V30 3830 C 354.909 -1.82929 -0.467166 0
M  V30 3831 O 354.266 -1.25564 -1.32438 0
M  V30 3832 C 354.317 -3.28143 1.51672 0
M  V30 3833 O 354.038 -3.27347 2.91163 0
M  V30 3834 C 355.539 -4.21493 1.37326 0
M  V30 3835 H 352.759 -0.573455 0.348411 0
M  V30 3836 H 355.303 -1.32808 1.55506 0
M  V30 3837 H 353.458 -3.74582 0.988302 0
M  V30 3838 H 353.872 -4.18824 3.15732 0
M  V30 3839 H 355.346 -5.22043 1.79375 0
M  V30 3840 H 355.823 -4.38031 0.320169 0
M  V30 3841 H 356.429 -3.80909 1.89178 0
M  V30 3842 N 354.744 -0.972509 -1.24016 0
M  V30 3843 C 355.654 -0.5143 -2.28893 0
M  V30 3844 C 356.67 0.427078 -1.68677 0
M  V30 3845 O 357.846 0.298939 -1.99169 0
M  V30 3846 C 354.911 0.183598 -3.46214 0
M  V30 3847 C 353.972 -0.798202 -4.21814 0
M  V30 3848 C 353.205 -0.133514 -5.33533 0
M  V30 3849 O 353.428 1.07714 -5.60137 0
M  V30 3850 O 352.362 -0.828103 -5.96176 0
M  V30 3851 H 356.188 -1.38629 -2.70214 0
M  V30 3852 H 353.773 -0.739769 -1.29799 0
M  V30 3853 H 355.655 0.575433 -4.17453 0
M  V30 3854 H 354.33 1.03048 -3.0686 0
M  V30 3855 H 353.237 -1.24059 -3.52931 0
M  V30 3856 H 354.57 -1.61364 -4.64997 0
M  V30 3857 N 356.222 1.38976 -0.743202 0
M  V30 3858 C 357.452 2.04339 -0.304807 0
M  V30 3859 C 357.86 1.56162 1.06819 0
M  V30 3860 O 357.203 0.725284 1.68776 0
M  V30 3861 C 357.265 3.58716 -0.237369 0
M  V30 3862 C 356.929 4.29905 -1.55018 0
M  V30 3863 C 357.926 4.55987 -2.49744 0
M  V30 3864 C 355.611 4.68294 -1.81675 0
M  V30 3865 C 357.605 5.19478 -3.69353 0
M  V30 3866 C 355.292 5.31512 -3.0156 0
M  V30 3867 C 356.29 5.57037 -3.9522 0
M  V30 3868 O 355.978 6.18941 -5.12998 0
M  V30 3869 H 355.71 0.663439 -0.12971 0
M  V30 3870 H 358.264 1.78852 -1.01001 0
M  V30 3871 H 356.494 3.83133 0.524003 0
M  V30 3872 H 358.183 4.05543 0.170121 0
M  V30 3873 H 358.949 4.26767 -2.30423 0
M  V30 3874 H 354.828 4.47779 -1.09615 0
M  V30 3875 H 358.372 5.39318 -4.42473 0
M  V30 3876 H 354.269 5.60153 -3.20778 0
M  V30 3877 H 355.037 6.37433 -5.13441 0
M  V30 3878 N 357.7 0.491464 1.49741 0
M  V30 3879 C 358.977 -0.118984 1.95238 0
M  V30 3880 C 359.357 -1.55044 1.43264 0
M  V30 3881 O 358.705 -2.19287 0.642287 0
M  V30 3882 C 358.915 -0.0414187 3.48975 0
M  V30 3883 C 360.263 -0.220133 4.24029 0
M  V30 3884 O 361.287 -0.117055 3.56008 0
M  V30 3885 O 360.146 -0.430567 5.44801 0
M  V30 3886 H 357.24 -0.100536 0.820866 0
M  V30 3887 H 359.786 0.553322 1.60426 0
M  V30 3888 H 358.558 0.957214 3.79412 0
M  V30 3889 H 358.181 -0.754292 3.9038 0
M  V30 3890 N 359.178 -1.55987 0.224894 0
M  V30 3891 C 360.108 -2.23426 -0.678457 0
M  V30 3892 C 361.089 -1.20709 -1.19847 0
M  V30 3893 O 362.274 -1.49304 -1.24186 0
M  V30 3894 C 359.404 -2.91676 -1.88527 0
M  V30 3895 C 358.358 -4.00893 -1.49896 0
M  V30 3896 C 357.684 -4.56455 -2.78483 0
M  V30 3897 C 358.984 -5.17769 -0.686461 0
M  V30 3898 H 360.678 -2.99175 -0.116173 0
M  V30 3899 H 358.224 -1.43897 -0.054436 0
M  V30 3900 H 360.177 -3.37547 -2.5227 0
M  V30 3901 H 358.901 -2.1338 -2.47258 0
M  V30 3902 H 357.56 -3.55758 -0.884985 0
M  V30 3903 H 357.208 -3.74886 -3.35365 0
M  V30 3904 H 356.908 -5.30169 -2.53368 0
M  V30 3905 H 358.432 -5.05047 -3.43162 0
M  V30 3906 H 359.846 -5.60001 -1.22767 0
M  V30 3907 H 358.243 -5.97735 -0.532259 0
M  V30 3908 H 359.313 -4.83932 0.306196 0
M  V30 3909 N 360.656 0.0484629 -1.57525 0
M  V30 3910 C 361.886 0.754326 -1.92337 0
M  V30 3911 C 362.294 1.70443 -0.82132 0
M  V30 3912 O 361.637 1.82466 0.21254 0
M  V30 3913 C 361.699 1.58231 -3.22805 0
M  V30 3914 C 361.363 0.799074 -4.4996 0
M  V30 3915 C 362.36 0.1079 -5.19788 0
M  V30 3916 C 360.045 0.759345 -4.96527 0
M  V30 3917 C 362.039 -0.612516 -6.3445 0
M  V30 3918 C 359.726 0.0351713 -6.1109 0
M  V30 3919 C 360.724 -0.649537 -6.79904 0
M  V30 3920 O 360.412 -1.36199 -7.92278 0
M  V30 3921 H 360.144 0.218257 -0.639797 0
M  V30 3922 H 362.698 0.0159295 -2.05394 0
M  V30 3923 H 360.928 2.36406 -3.06021 0
M  V30 3924 H 362.617 2.16898 -3.43089 0
M  V30 3925 H 363.383 0.129748 -4.84826 0
M  V30 3926 H 359.262 1.28177 -4.42822 0
M  V30 3927 H 362.806 -1.14751 -6.88097 0
M  V30 3928 H 358.703 0.0113314 -6.45499 0
M  V30 3929 H 359.471 -1.27366 -8.0853 0
M  V30 3930 N 362.134 1.5431 0.320358 0
M  V30 3931 C 363.359 1.76954 1.08175 0
M  V30 3932 C 363.784 0.518193 1.80821 0
M  V30 3933 O 363.142 -0.530411 1.73368 0
M  V30 3934 C 363.19 2.96451 2.05303 0
M  V30 3935 O 362.294 2.68221 3.13259 0
M  V30 3936 H 361.635 0.586275 0.311733 0
M  V30 3937 H 364.165 2.01342 0.363676 0
M  V30 3938 H 364.175 3.23887 2.48116 0
M  V30 3939 H 362.85 3.87196 1.51829 0
M  V30 3940 H 361.427 2.51744 2.75099 0
M  V30 3941 N 363.613 -0.582584 1.46437 0
M  V30 3942 C 364.563 -1.68654 1.53426 0
M  V30 3943 C 365.547 -1.55971 0.395194 0
M  V30 3944 O 366.739 -1.64884 0.643612 0
M  V30 3945 C 363.868 -3.07439 1.52762 0
M  V30 3946 C 362.954 -3.25418 2.71963 0
M  V30 3947 N 363.345 -3.13556 3.96883 0
M  V30 3948 C 361.643 -3.56357 2.68189 0
M  V30 3949 C 362.344 -3.33543 4.76575 0
M  V30 3950 N 361.32 -3.58704 4.08451 0
M  V30 3951 H 365.122 -1.58014 2.47808 0
M  V30 3952 H 362.636 -0.786617 1.42078 0
M  V30 3953 H 364.633 -3.86671 1.55857 0
M  V30 3954 H 363.293 -3.1921 0.594573 0
M  V30 3955 H 364.304 -2.9142 4.28129 0
M  V30 3956 H 360.981 -3.74812 1.83908 0
M  V30 3957 H 362.371 -3.29555 5.85528 0
M  V30 3958 N 365.091 -1.34144 -0.827227 0
M  V30 3959 C 366.319 -1.29325 -1.61501 0
M  V30 3960 C 366.734 0.13354 -1.88327 0
M  V30 3961 O 366.091 1.0793 -1.47164 0
M  V30 3962 C 366.142 -2.07746 -2.95844 0
M  V30 3963 O 365.863 -3.4486 -2.70191 0
M  V30 3964 C 367.364 -2.10273 -3.90256 0
M  V30 3965 H 364.584 -0.445069 -0.50215 0
M  V30 3966 H 367.128 -1.76693 -1.02955 0
M  V30 3967 H 365.283 -1.6403 -3.5096 0
M  V30 3968 H 365.697 -3.85345 -3.55822 0
M  V30 3969 H 367.171 -2.69575 -4.81698 0
M  V30 3970 H 367.648 -1.096 -4.25305 0
M  V30 3971 H 368.254 -2.54059 -3.41078 0
M  V30 3972 N 366.569 1.04691 -1.17803 0
M  V30 3973 C 367.794 1.81984 -0.994813 0
M  V30 3974 C 368.219 1.82586 0.452112 0
M  V30 3975 O 367.577 1.23854 1.324 0
M  V30 3976 C 367.625 3.2575 -1.54659 0
M  V30 3977 O 366.729 4.05267 -0.763728 0
M  V30 3978 H 366.07 0.562483 -0.352857 0
M  V30 3979 H 368.6 1.3189 -1.56417 0
M  V30 3980 H 368.61 3.76541 -1.57102 0
M  V30 3981 H 367.285 3.24627 -2.59981 0
M  V30 3982 H 365.862 3.63972 -0.811108 0
M  V30 3983 N 368.047 0.979072 1.23499 0
M  V30 3984 C 369.296 0.642751 1.91185 0
M  V30 3985 C 369.609 -0.827253 1.77245 0
M  V30 3986 O 370.815 -1.27458 2.39722 0
M  V30 3987 C 369.271 1.09901 3.42709 0
M  V30 3988 C 368.879 2.59327 3.65313 0
M  V30 3989 C 370.623 0.836371 4.16179 0
M  V30 3990 C 368.53 2.98627 5.10467 0
M  V30 3991 H 367.46 0.236698 0.715884 0
M  V30 3992 H 370.111 1.1868 1.39955 0
M  V30 3993 H 368.493 0.48319 3.93041 0
M  V30 3994 H 369.667 3.26136 3.25533 0
M  V30 3995 H 367.982 2.83323 3.05151 0
M  V30 3996 H 370.579 1.10586 5.23139 0
M  V30 3997 H 370.922 -0.227509 4.15678 0
M  V30 3998 H 371.455 1.41371 3.71832 0
M  V30 3999 H 368.194 4.04133 5.16098 0
M  V30 4000 H 367.714 2.3651 5.51201 0
M  V30 4001 H 369.393 2.89159 5.78788 0
M  V30 4002 N 369.525 -1.3858 0.750561 0
M  V30 4003 C 370.771 -2.0095 0.31477 0
M  V30 4004 C 371.126 -1.58509 -1.09053 0
M  V30 4005 O 370.419 -0.8112 -1.7358 0
M  V30 4006 C 370.613 -3.55455 0.372373 0
M  V30 4007 C 370.442 -4.12898 1.78173 0
M  V30 4008 C 369.212 -4.44797 2.39757 0
M  V30 4009 C 371.41 -4.35366 2.7379 0
M  V30 4010 N 369.392 -4.87831 3.72685 0
M  V30 4011 C 370.763 -4.80775 3.91478 0
M  V30 4012 C 372.818 -4.1746 2.71351 0
M  V30 4013 C 371.521 -5.10155 5.07084 0
M  V30 4014 C 373.547 -4.47963 3.86113 0
M  V30 4015 C 372.909 -4.93593 5.02539 0
M  V30 4016 H 369.008 -0.765083 0.161776 0
M  V30 4017 H 371.592 -1.68246 0.979867 0
M  V30 4018 H 369.763 -3.87512 -0.26244 0
M  V30 4019 H 371.495 -4.04614 -0.0834479 0
M  V30 4020 H 368.25 -4.33135 1.91548 0
M  V30 4021 H 368.674 -5.13685 4.40972 0
M  V30 4022 H 373.316 -3.81372 1.82524 0
M  V30 4023 H 371.034 -5.45141 5.96529 0
M  V30 4024 H 374.62 -4.35717 3.85542 0
M  V30 4025 H 373.5 -5.16746 5.89867 0
M  V30 4026 N 371.003 -0.499398 -1.49478 0
M  V30 4027 C 371.933 0.269244 -2.31943 0
M  V30 4028 C 372.914 0.964054 -1.40143 0
M  V30 4029 O 374.099 0.955767 -1.69052 0
M  V30 4030 C 371.229 1.33504 -3.20615 0
M  V30 4031 C 370.183 0.760202 -4.21195 0
M  V30 4032 C 369.509 1.9264 -4.98792 0
M  V30 4033 C 370.809 -0.247661 -5.21712 0
M  V30 4034 H 372.503 -0.419082 -2.96452 0
M  V30 4035 H 370.049 -0.202988 -1.42562 0
M  V30 4036 H 372.002 1.88048 -3.77115 0
M  V30 4037 H 370.726 2.05253 -2.54045 0
M  V30 4038 H 369.385 0.23653 -3.65836 0
M  V30 4039 H 369.033 2.63154 -4.28671 0
M  V30 4040 H 368.733 1.54785 -5.66847 0
M  V30 4041 H 370.257 2.4762 -5.58137 0
M  V30 4042 H 371.671 0.209579 -5.72917 0
M  V30 4043 H 370.068 -0.541962 -5.97648 0
M  V30 4044 H 371.138 -1.16409 -4.7072 0
M  V30 4045 N 372.481 1.55866 -0.233164 0
M  V30 4046 C 373.411 2.23783 0.666599 0
M  V30 4047 C 374.392 1.21343 1.19205 0
M  V30 4048 O 375.577 1.4996 1.23392 0
M  V30 4049 C 372.707 2.92671 1.86978 0
M  V30 4050 C 371.661 4.01682 1.47768 0
M  V30 4051 C 370.987 4.57926 2.76058 0
M  V30 4052 C 372.287 5.18126 0.658993 0
M  V30 4053 H 373.981 2.99232 0.100306 0
M  V30 4054 H 371.527 1.43924 0.046804 0
M  V30 4055 H 373.48 3.3888 2.50476 0
M  V30 4056 H 372.204 2.14688 2.46123 0
M  V30 4057 H 370.863 3.56222 0.866106 0
M  V30 4058 H 370.511 3.76659 3.33372 0
M  V30 4059 H 370.211 5.31505 2.50552 0
M  V30 4060 H 371.735 5.06859 3.40479 0
M  V30 4061 H 373.149 5.60644 1.19795 0
M  V30 4062 H 371.546 5.98009 0.500552 0
M  V30 4063 H 372.616 4.83763 -0.331856 0
M  V30 4064 N 373.959 -0.0401083 1.57549 0
M  V30 4065 C 375.375 -0.395556 1.54621 0
M  V30 4066 C 375.575 -1.77281 0.957799 0
M  V30 4067 O 374.631 -2.45888 0.574031 0
M  V30 4068 C 375.944 -0.307535 2.99123 0
M  V30 4069 C 377.492 -0.385425 3.10618 0
M  V30 4070 C 377.967 -0.326973 4.56831 0
M  V30 4071 N 379.458 -0.386102 4.61588 0
M  V30 4072 C 380.193 -0.363591 5.72246 0
M  V30 4073 N 379.689 -0.29402 6.92176 0
M  V30 4074 N 381.482 -0.412503 5.60584 0
M  V30 4075 H 373.633 0.861325 1.94152 0
M  V30 4076 H 375.896 0.326445 0.890021 0
M  V30 4077 H 375.602 0.638461 3.45856 0
M  V30 4078 H 375.476 -1.10552 3.60636 0
M  V30 4079 H 377.863 -1.32185 2.63839 0
M  V30 4080 H 377.944 0.44171 2.51957 0
M  V30 4081 H 377.588 0.605738 5.04275 0
M  V30 4082 H 377.518 -1.17207 5.13391 0
M  V30 4083 H 380.009 -0.442832 3.75296 0
M  V30 4084 H 380.322 -0.28164 7.72287 0
M  V30 4085 H 378.667 -0.260232 6.94513 0
M  V30 4086 H 381.858 -0.464769 4.65787 0
M  V30 4087 H 382.031 -0.391492 6.46816 0
M  V30 4088 N 375.437 -1.54477 -0.31217 0
M  V30 4089 C 376.665 -1.77205 -1.068 0
M  V30 4090 C 377.08 -0.526114 -1.81321 0
M  V30 4091 O 376.437 0.503647 -1.75413 0
M  V30 4092 C 376.488 -2.97253 -2.05725 0
M  V30 4093 O 376.209 -4.1703 -1.34228 0
M  V30 4094 C 377.71 -3.32281 -2.93435 0
M  V30 4095 H 374.93 -0.591287 -0.317208 0
M  V30 4096 H 377.474 -2.01398 -0.354834 0
M  V30 4097 H 375.629 -2.753 -2.72559 0
M  V30 4098 H 376.043 -4.84636 -2.00571 0
M  V30 4099 H 377.517 -4.19551 -3.58721 0
M  V30 4100 H 377.994 -2.49945 -3.61143 0
M  V30 4101 H 378.6 -3.56353 -2.32147 0
M  V30 4102 N 376.915 0.57481 -1.46744 0
M  V30 4103 C 378.192 1.3352 -1.4294 0
M  V30 4104 C 378.572 2.10775 -0.117009 0
M  V30 4105 O 377.92 2.09966 0.901474 0
M  V30 4106 C 378.13 2.25456 -2.66403 0
M  V30 4107 C 379.478 2.87035 -3.12883 0
M  V30 4108 O 380.502 2.35766 -2.67007 0
M  V30 4109 O 379.361 3.80179 -3.92589 0
M  V30 4110 H 376.455 0.600318 -0.568812 0
M  V30 4111 H 379.001 0.595171 -1.58921 0
M  V30 4112 H 377.773 1.67851 -3.53471 0
M  V30 4113 H 377.396 3.06785 -2.52921 0
M  V30 4114 N 378.394 1.34581 0.820102 0
M  V30 4115 C 379.641 1.27096 1.57648 0
M  V30 4116 C 379.969 -0.158317 1.93855 0
M  V30 4117 O 379.224 -1.12028 1.60463 0
M  V30 4118 C 379.523 2.10997 2.8847 0
M  V30 4119 C 379.189 3.59966 2.71543 0
M  V30 4120 C 377.851 4.00575 2.66634 0
M  V30 4121 C 380.203 4.54548 2.55021 0
M  V30 4122 C 377.531 5.33953 2.43128 0
M  V30 4123 C 379.883 5.88109 2.33047 0
M  V30 4124 C 378.547 6.27878 2.26552 0
M  V30 4125 H 377.817 0.465078 0.576874 0
M  V30 4126 H 380.464 1.6635 0.948671 0
M  V30 4127 H 378.769 1.6458 3.55557 0
M  V30 4128 H 380.466 2.0255 3.46084 0
M  V30 4129 H 377.056 3.27733 2.76205 0
M  V30 4130 H 381.24 4.24069 2.57835 0
M  V30 4131 H 376.496 5.63781 2.3656 0
M  V30 4132 H 380.67 6.60985 2.19251 0
M  V30 4133 H 378.297 7.31162 2.081 0
M  V30 4134 N 379.872 -1.04064 1.18357 0
M  V30 4135 C 381.118 -1.77528 0.980397 0
M  V30 4136 C 381.451 -1.87948 -0.48879 0
M  V30 4137 O 380.726 -1.3876 -1.36293 0
M  V30 4138 C 381.009 -3.20797 1.63588 0
M  V30 4139 C 380.862 -3.1832 3.17793 0
M  V30 4140 C 382.181 -4.18911 1.34914 0
M  V30 4141 H 379.3 -0.644443 0.357578 0
M  V30 4142 H 381.942 -1.2156 1.46024 0
M  V30 4143 H 380.092 -3.68586 1.22788 0
M  V30 4144 H 381.764 -2.78521 3.67728 0
M  V30 4145 H 380.007 -2.56351 3.49952 0
M  V30 4146 H 380.678 -4.19489 3.58794 0
M  V30 4147 H 383.154 -3.7967 1.70265 0
M  V30 4148 H 382.03 -5.17374 1.83346 0
M  V30 4149 H 382.291 -4.41262 0.272027 0
M  V30 4150 N 381.35 -0.985608 -1.22978 0
M  V30 4151 C 382.28 -0.549649 -2.26939 0
M  V30 4152 C 383.261 0.419803 -1.64838 0
M  V30 4153 O 384.446 0.31203 -1.91677 0
M  V30 4154 C 381.576 0.143652 -3.47003 0
M  V30 4155 C 380.53 -0.743606 -4.21491 0
M  V30 4156 C 379.856 0.0822027 -5.34637 0
M  V30 4157 C 381.156 -2.03694 -4.80943 0
M  V30 4158 H 382.85 -1.41862 -2.63658 0
M  V30 4159 H 380.396 -0.683571 -1.26741 0
M  V30 4160 H 382.349 0.459985 -4.18882 0
M  V30 4161 H 381.073 1.04711 -3.09359 0
M  V30 4162 H 379.732 -1.04347 -3.51436 0
M  V30 4163 H 379.38 0.986359 -4.93234 0
M  V30 4164 H 379.08 -0.508377 -5.85397 0
M  V30 4165 H 380.604 0.392797 -6.09335 0
M  V30 4166 H 382.018 -1.78504 -5.44802 0
M  V30 4167 H 380.415 -2.57573 -5.42011 0
M  V30 4168 H 381.485 -2.72042 -4.01399 0
M  V30 4169 N 382.828 1.3818 -0.7579 0
M  V30 4170 C 384.105 1.94106 -0.241306 0
M  V30 4171 C 384.485 1.69282 1.26122 0
M  V30 4172 O 383.833 1.03378 2.03777 0
M  V30 4173 C 384.043 3.43809 -0.59967 0
M  V30 4174 C 385.391 4.20868 -0.561717 0
M  V30 4175 O 386.415 3.5211 -0.538222 0
M  V30 4176 O 385.274 5.43451 -0.576478 0
M  V30 4177 H 382.368 0.825376 -0.0518042 0
M  V30 4178 H 384.914 1.47548 -0.838315 0
M  V30 4179 H 383.686 3.55403 -1.6372 0
M  V30 4180 H 383.309 3.97592 0.0251197 0
M  V30 4181 N 384.306 0.507319 1.49211 0
M  V30 4182 C 385.536 -0.0315292 2.06576 0
M  V30 4183 C 385.944 -1.30791 1.36713 0
M  V30 4184 O 385.287 -1.78324 0.441181 0
M  V30 4185 C 385.349 -0.349104 3.57801 0
M  V30 4186 C 385.013 0.830475 4.49391 0
M  V30 4187 C 386.01 1.72271 4.90529 0
M  V30 4188 C 383.695 1.03107 4.91604 0
M  V30 4189 C 385.689 2.79964 5.72625 0
M  V30 4190 C 383.376 2.11116 5.73475 0
M  V30 4191 C 384.374 2.99379 6.1389 0
M  V30 4192 O 384.062 4.05523 6.94123 0
M  V30 4193 H 383.794 0.0201002 0.675701 0
M  V30 4194 H 386.348 0.705737 1.92895 0
M  V30 4195 H 384.578 -1.14005 3.69513 0
M  V30 4196 H 386.267 -0.827319 3.97379 0
M  V30 4197 H 387.033 1.57958 4.58557 0
M  V30 4198 H 382.912 0.353417 4.59643 0
M  V30 4199 H 386.456 3.48884 6.04091 0
M  V30 4200 H 382.353 2.25421 6.0486 0
M  V30 4201 H 383.121 4.02953 7.1244 0
M  V30 4202 N 385.784 -1.5574 0.241426 0
M  V30 4203 C 387.195 -1.84842 -0.262755 0
M  V30 4204 C 387.546 -1.16317 -1.58003 0
M  V30 4205 O 386.671 -0.439653 -2.11887 0
M  V30 4206 C 387.266 -3.35332 -0.483523 0
M  V30 4207 C 385.825 -3.6468 -0.931977 0
M  V30 4208 C 384.972 -2.77299 -0.0061151 0
M  V30 4209 H 387.923 -1.51761 0.464129 0
M  V30 4210 H 387.944 -3.56615 -1.32688 0
M  V30 4211 H 387.456 -3.85178 0.47537 0
M  V30 4212 H 385.557 -3.20307 -1.90353 0
M  V30 4213 H 385.67 -4.72498 -0.792628 0
M  V30 4214 H 384.034 -2.49408 -0.516503 0
M  V30 4215 H 384.817 -3.2995 0.948052 0
M  V30 4216 N 387.262 0.0317525 -1.57568 0
M  V30 4217 C 388.209 1.0332 -2.06382 0
M  V30 4218 C 389.179 1.36082 -0.952414 0
M  V30 4219 O 390.364 1.46466 -1.2228 0
M  V30 4220 C 387.504 2.32989 -2.54578 0
M  V30 4221 C 386.617 2.0641 -3.79498 0
M  V30 4222 C 385.752 3.2993 -4.16317 0
M  V30 4223 C 384.791 2.98893 -5.34162 0
M  V30 4224 N 383.928 4.14857 -5.66426 0
M  V30 4225 H 388.768 0.609982 -2.9169 0
M  V30 4226 H 386.305 0.289573 -1.44222 0
M  V30 4227 H 388.263 3.0875 -2.80587 0
M  V30 4228 H 386.893 2.73039 -1.7219 0
M  V30 4229 H 385.945 1.21158 -3.6059 0
M  V30 4230 H 387.257 1.79513 -4.65378 0
M  V30 4231 H 386.411 4.1406 -4.4344 0
M  V30 4232 H 385.15 3.59938 -3.29083 0
M  V30 4233 H 384.155 2.13164 -5.06795 0
M  V30 4234 H 385.38 2.70165 -6.23047 0
M  V30 4235 H 383.326 4.44821 -4.82151 0
M  V30 4236 H 383.243 3.91374 -6.4681 0
M  V30 4237 H 384.511 4.99868 -5.98124 0
M  V30 4238 N 388.74 1.54641 0.303973 0
M  V30 4239 C 390.151 1.64811 0.877163 0
M  V30 4240 C 390.502 0.554838 1.88191 0
M  V30 4241 O 389.627 -0.309033 2.14182 0
M  V30 4242 C 390.222 2.9876 1.59775 0
M  V30 4243 C 388.781 3.11061 2.11938 0
M  V30 4244 C 387.928 2.60479 0.951097 0
M  V30 4245 H 390.879 1.58493 0.0810486 0
M  V30 4246 H 390.9 2.90017 2.46314 0
M  V30 4247 H 390.412 3.7831 0.866226 0
M  V30 4248 H 388.513 2.36225 2.88146 0
M  V30 4249 H 388.626 4.17171 2.35595 0
M  V30 4250 H 386.99 2.16859 1.33583 0
M  V30 4251 H 387.773 3.42504 0.233581 0
M  V30 4252 N 390.218 -0.567019 1.47046 0
M  V30 4253 C 391.464 -1.32658 1.53394 0
M  V30 4254 C 391.797 -1.93254 0.19148 0
M  V30 4255 O 391.072 -1.77338 -0.798844 0
M  V30 4256 C 391.355 -2.44412 2.64452 0
M  V30 4257 C 391.208 -1.88749 4.08282 0
M  V30 4258 C 392.527 -3.46387 2.71485 0
M  V30 4259 H 389.646 -0.48098 0.558415 0
M  V30 4260 H 392.288 -0.635481 1.79058 0
M  V30 4261 H 390.438 -3.03363 2.427 0
M  V30 4262 H 392.11 -1.34134 4.41368 0
M  V30 4263 H 390.353 -1.19481 4.17021 0
M  V30 4264 H 391.024 -2.69491 4.81745 0
M  V30 4265 H 393.5 -2.9734 2.91081 0
M  V30 4266 H 392.376 -4.2202 3.50985 0
M  V30 4267 H 392.637 -4.04616 1.78153 0
M  V30 4268 N 391.696 -1.35014 -0.812953 0
M  V30 4269 C 392.629 -1.21761 -1.93001 0
M  V30 4270 C 393.607 -0.10694 -1.62248 0
M  V30 4271 O 394.791 -0.273891 -1.865 0
M  V30 4272 C 391.918 -0.873404 -3.27245 0
M  V30 4273 C 390.964 -1.99523 -3.76952 0
M  V30 4274 S 391.797 -3.61009 -3.95516 0
M  V30 4275 C 392.953 -3.28651 -5.32672 0
M  V30 4276 H 393.186 -2.16315 -2.03948 0
M  V30 4277 H 390.719 -1.20156 -0.969631 0
M  V30 4278 H 392.677 -0.68161 -4.04802 0
M  V30 4279 H 391.338 0.053971 -3.14054 0
M  V30 4280 H 390.531 -1.70838 -4.74163 0
M  V30 4281 H 390.133 -2.14503 -3.06373 0
M  V30 4282 H 392.425 -2.81085 -6.1644 0
M  V30 4283 H 393.368 -4.25039 -5.66346 0
M  V30 4284 H 393.776 -2.6458 -4.98656 0
M  V30 4285 N 393.175 1.03435 -1.18907 0
M  V30 4286 C 394.586 1.58195 -0.991523 0
M  V30 4287 C 394.937 1.90801 0.457081 0
M  V30 4288 O 394.062 1.70272 1.33553 0
M  V30 4289 C 394.657 2.87432 -1.79355 0
M  V30 4290 C 393.216 3.38785 -1.64017 0
M  V30 4291 C 392.363 2.12292 -1.78402 0
M  V30 4292 H 395.314 0.860299 -1.33359 0
M  V30 4293 H 395.335 3.58096 -1.28638 0
M  V30 4294 H 394.847 2.63669 -2.84781 0
M  V30 4295 H 392.948 3.67547 -0.611536 0
M  V30 4296 H 393.061 4.12186 -2.44212 0
M  V30 4297 H 391.425 2.23901 -1.2141 0
M  V30 4298 H 392.208 1.90977 -2.85277 0
M  V30 4299 N 394.653 0.992116 1.22453 0
M  V30 4300 C 395.601 0.534644 2.26372 0
M  V30 4301 C 396.595 -0.414293 1.64256 0
M  V30 4302 O 397.801 -0.286899 1.77699 0
M  V30 4303 H 394.176 0.154502 0.735957 0
M  V30 4304 H 396.147 1.42256 2.62309 0
M  V30 4305 C 394.896 -0.135815 3.47435 0
M  V30 4306 H 394.219 0.585311 3.95492 0
M  V30 4307 H 395.659 -0.419374 4.21921 0
M  V30 4308 C 394.118 -1.37089 3.07747 0
M  V30 4309 O 394.648 -2.46629 3.17076 0
M  V30 4310 N 392.854 -1.24585 2.62539 0
M  V30 4311 H 392.401 -0.354542 2.55149 0
M  V30 4312 H 392.359 -2.07327 2.36353 0
M  V30 4313 N 396.131 -1.37776 0.765217 0
M  V30 4314 C 397.064 -2.28008 0.0935025 0
M  V30 4315 C 398.042 -1.45985 -0.716047 0
M  V30 4316 O 399.226 -1.75331 -0.692203 0
M  V30 4317 C 396.353 -3.27228 -0.874052 0
M  V30 4318 C 395.399 -4.26239 -0.149307 0
M  V30 4319 S 396.232 -5.22827 1.15809 0
M  V30 4320 C 397.388 -6.256 0.193906 0
M  V30 4321 H 397.621 -2.84631 0.858637 0
M  V30 4322 H 395.154 -1.43952 0.558313 0
M  V30 4323 H 397.112 -3.84902 -1.42691 0
M  V30 4324 H 395.773 -2.69565 -1.61225 0
M  V30 4325 H 394.966 -4.96213 -0.88254 0
M  V30 4326 H 394.568 -3.7252 0.332366 0
M  V30 4327 H 396.86 -6.74508 -0.636011 0
M  V30 4328 H 397.803 -7.02838 0.861638 0
M  V30 4329 H 398.211 -5.64173 -0.191975 0
M  V30 4330 N 397.609 -0.515225 -1.4894 0
M  V30 4331 C 398.858 0.0261361 -2.01683 0
M  V30 4332 C 399.171 1.36719 -1.39883 0
M  V30 4333 O 400.377 1.99606 -1.84037 0
M  V30 4334 C 398.833 0.0970111 -3.59769 0
M  V30 4335 C 398.441 -1.23825 -4.30548 0
M  V30 4336 C 400.185 0.587981 -4.20408 0
M  V30 4337 C 398.092 -1.12877 -5.80528 0
M  V30 4338 H 397.022 0.0135398 -0.753878 0
M  V30 4339 H 399.673 -0.656787 -1.71343 0
M  V30 4340 H 398.055 0.844694 -3.86886 0
M  V30 4341 H 399.229 -2.00034 -4.15118 0
M  V30 4342 H 397.544 -1.66379 -3.81716 0
M  V30 4343 H 400.141 0.68763 -5.3026 0
M  V30 4344 H 400.484 1.59026 -3.84729 0
M  V30 4345 H 401.017 -0.103582 -3.97665 0
M  V30 4346 H 397.756 -2.10575 -6.20756 0
M  V30 4347 H 397.276 -0.407799 -5.98412 0
M  V30 4348 H 398.955 -0.813332 -6.41868 0
M  V30 4349 N 399.087 1.5561 -0.249682 0
M  V30 4350 C 400.334 1.99011 0.374287 0
M  V30 4351 C 400.662 1.13785 1.57744 0
M  V30 4352 O 399.917 0.189326 1.94782 0
M  V30 4353 C 400.216 3.4775 0.824887 0
M  V30 4354 C 399.882 4.50086 -0.270819 0
M  V30 4355 C 398.544 4.77791 -0.571746 0
M  V30 4356 C 400.896 5.11312 -1.01041 0
M  V30 4357 C 398.224 5.63997 -1.61629 0
M  V30 4358 C 400.576 5.98651 -2.0445 0
M  V30 4359 C 399.24 6.24688 -2.35204 0
M  V30 4360 H 398.51 0.728233 0.136961 0
M  V30 4361 H 401.157 1.88122 -0.358087 0
M  V30 4362 H 399.462 3.55985 1.63651 0
M  V30 4363 H 401.159 3.78721 1.31799 0
M  V30 4364 H 397.749 4.28592 -0.026136 0
M  V30 4365 H 401.933 4.89953 -0.791177 0
M  V30 4366 H 397.189 5.82425 -1.85988 0
M  V30 4367 H 401.363 6.45135 -2.62248 0
M  V30 4368 H 398.99 6.91281 -3.16282 0
M  V30 4369 N 400.565 -0.0233959 1.57583 0
M  V30 4370 C 401.814 -0.712133 1.8871 0
M  V30 4371 C 402.127 -1.76217 0.848944 0
M  V30 4372 O 403.333 -2.50389 1.04964 0
M  V30 4373 C 401.789 -1.3177 3.3491 0
M  V30 4374 C 401.397 -0.303715 4.46969 0
M  V30 4375 C 403.141 -1.98598 3.75179 0
M  V30 4376 C 401.048 -0.917945 5.84233 0
M  V30 4377 H 399.978 -0.269735 0.704101 0
M  V30 4378 H 402.629 0.0333114 1.8347 0
M  V30 4379 H 401.011 -2.11304 3.34913 0
M  V30 4380 H 402.185 0.465325 4.58445 0
M  V30 4381 H 400.5 0.2628 4.1557 0
M  V30 4382 H 403.097 -2.45416 4.75053 0
M  V30 4383 H 403.44 -2.80659 3.07468 0
M  V30 4384 H 403.973 -1.25831 3.77374 0
M  V30 4385 H 400.712 -0.136633 6.55358 0
M  V30 4386 H 400.232 -1.65669 5.76467 0
M  V30 4387 H 401.911 -1.4236 6.31144 0
M  V30 4388 N 402.043 -1.548 -0.295768 0
M  V30 4389 C 403.291 -1.73985 -1.02828 0
M  V30 4390 C 403.612 -0.531406 -1.87619 0
M  V30 4391 O 402.882 0.454221 -1.90561 0
M  V30 4392 H 401.462 -0.641556 -0.382642 0
M  V30 4393 H 404.124 -1.92163 -0.325489 0
M  V30 4394 H 403.22 -2.63129 -1.67838 0
M  V30 4395 N 403.521 0.559213 -1.47345 0
M  V30 4396 C 404.769 1.31388 -1.53563 0
M  V30 4397 C 405.09 1.93985 -0.198678 0
M  V30 4398 O 404.36 1.79825 0.777167 0
M  V30 4399 H 402.94 0.487901 -0.565652 0
M  V30 4400 H 405.602 0.65315 -1.8363 0
M  V30 4401 H 404.698 2.10844 -2.30111 0
M  V30 4402 N 404.999 1.35443 0.805782 0
M  V30 4403 C 406.248 1.28097 1.55801 0
M  V30 4404 C 406.561 -0.142428 1.95081 0
M  V30 4405 O 407.767 -0.33817 2.69386 0
M  V30 4406 C 406.223 2.24653 2.81174 0
M  V30 4407 C 405.831 3.72342 2.49129 0
M  V30 4408 C 407.575 2.2625 3.59181 0
M  V30 4409 C 405.482 4.60719 3.70799 0
M  V30 4410 H 404.412 0.475937 0.584808 0
M  V30 4411 H 407.063 1.60712 0.885661 0
M  V30 4412 H 405.445 1.85011 3.50124 0
M  V30 4413 H 406.619 4.20624 1.88181 0
M  V30 4414 H 404.934 3.73361 1.84366 0
M  V30 4415 H 407.531 2.89495 4.49552 0
M  V30 4416 H 407.874 1.26647 3.96568 0
M  V30 4417 H 408.407 2.64426 2.97193 0
M  V30 4418 H 405.146 5.61324 3.3852 0
M  V30 4419 H 404.666 4.17163 4.3097 0
M  V30 4420 H 406.345 4.76182 4.38018 0
M  V30 4421 N 406.477 -1.02803 1.19454 0
M  V30 4422 C 407.425 -2.13213 0.929673 0
M  V30 4423 C 408.419 -1.69011 -0.114806 0
M  V30 4424 O 409.625 -1.79967 0.0345147 0
M  V30 4425 H 406 -0.69662 0.28324 0
M  V30 4426 H 407.971 -2.32744 1.86743 0
M  V30 4427 C 406.72 -3.4429 0.485797 0
M  V30 4428 H 406.043 -3.7872 1.28105 0
M  V30 4429 H 407.483 -4.22638 0.339582 0
M  V30 4430 C 405.942 -3.27258 -0.800244 0
M  V30 4431 O 406.472 -3.55967 -1.86146 0
M  V30 4432 N 404.678 -2.80545 -0.75781 0
M  V30 4433 H 404.225 -2.57382 0.106039 0
M  V30 4434 H 404.183 -2.6953 -1.61867 0
M  V30 4435 N 407.956 -0.998596 -1.21925 0
M  V30 4436 C 409.196 -0.685948 -1.92546 0
M  V30 4437 C 409.56 0.768441 -1.75952 0
M  V30 4438 O 410.761 1.19277 -2.40887 0
M  V30 4439 C 409.032 -1.08767 -3.40448 0
M  V30 4440 S 410.591 -0.894251 -4.29591 0
M  V30 4441 H 407.409 -0.250622 -0.665364 0
M  V30 4442 H 410.011 -1.28207 -1.47591 0
M  V30 4443 H 408.715 -2.14242 -3.50041 0
M  V30 4444 H 408.246 -0.48357 -3.90417 0
M  V30 4445 H 410.261 0.212149 -4.95746 0
M  V30 4446 N 409.434 1.37368 -0.772513 0
M  V30 4447 C 410.384 2.27613 -0.132823 0
M  V30 4448 C 411.368 1.46138 0.673247 0
M  V30 4449 O 412.56 1.68686 0.536095 0
M  V30 4450 C 409.689 3.35122 0.744864 0
M  V30 4451 C 408.775 4.24044 -0.0690771 0
M  V30 4452 N 409.166 4.93355 -1.1151 0
M  V30 4453 C 407.464 4.45731 0.154782 0
M  V30 4454 C 408.165 5.59 -1.60917 0
M  V30 4455 N 407.141 5.35737 -0.921222 0
M  V30 4456 H 410.943 2.78675 -0.933681 0
M  V30 4457 H 408.457 1.50494 -0.610342 0
M  V30 4458 H 410.454 3.98683 1.21892 0
M  V30 4459 H 409.114 2.85616 1.54446 0
M  V30 4460 H 410.125 4.95785 -1.49726 0
M  V30 4461 H 406.802 4.07096 0.926224 0
M  V30 4462 H 408.192 6.24395 -2.48153 0
M  V30 4463 N 410.912 0.523116 1.48665 0
M  V30 4464 C 411.844 -0.280421 2.27478 0
M  V30 4465 C 412.857 -0.910694 1.34945 0
M  V30 4466 O 414.046 -0.790295 1.60052 0
M  V30 4467 C 411.146 -1.41171 3.08097 0
M  V30 4468 C 410.319 -0.884642 4.28361 0
M  V30 4469 C 409.378 -1.89622 4.90846 0
M  V30 4470 O 408.404 -1.4559 5.50265 0
M  V30 4471 N 409.606 -3.22801 4.82472 0
M  V30 4472 H 412.371 0.395481 2.97079 0
M  V30 4473 H 409.932 0.357018 1.57915 0
M  V30 4474 H 411.924 -2.08645 3.4677 0
M  V30 4475 H 410.494 -1.99139 2.40961 0
M  V30 4476 H 409.714 -0.0341177 3.94185 0
M  V30 4477 H 411.002 -0.511268 5.06225 0
M  V30 4478 H 410.4 -3.61246 4.35336 0
M  V30 4479 H 408.957 -3.85927 5.25265 0
M  V30 4480 N 412.39 -1.55475 0.257931 0
M  V30 4481 C 413.638 -1.98813 -0.363009 0
M  V30 4482 C 413.959 -1.14757 -1.57657 0
M  V30 4483 O 413.229 -0.232956 -1.9451 0
M  V30 4484 H 411.809 -0.734308 -0.137113 0
M  V30 4485 H 414.471 -1.9156 0.359281 0
M  V30 4486 H 413.567 -3.04941 -0.664634 0
M  V30 4487 N 413.868 0.0150385 -1.57593 0
M  V30 4488 C 414.815 1.01126 -2.07466 0
M  V30 4489 C 415.785 1.35064 -0.966794 0
M  V30 4490 O 416.97 1.4516 -1.23827 0
M  V30 4491 C 414.11 2.30276 -2.57035 0
M  V30 4492 C 413.223 2.02373 -3.81666 0
M  V30 4493 C 412.358 3.25496 -4.19793 0
M  V30 4494 C 411.397 2.93211 -5.37303 0
M  V30 4495 N 410.534 4.08826 -5.70794 0
M  V30 4496 H 415.374 0.57901 -2.92321 0
M  V30 4497 H 412.911 0.27426 -1.44521 0
M  V30 4498 H 414.869 3.05757 -2.83846 0
M  V30 4499 H 413.499 2.71197 -1.75077 0
M  V30 4500 H 412.551 1.17327 -3.61854 0
M  V30 4501 H 413.863 1.74567 -4.67256 0
M  V30 4502 H 413.017 4.09333 -4.47807 0
M  V30 4503 H 411.756 3.56428 -3.32882 0
M  V30 4504 H 410.761 2.07777 -5.09027 0
M  V30 4505 H 411.986 2.63542 -6.25877 0
M  V30 4506 H 409.932 4.39682 -4.86842 0
M  V30 4507 H 409.849 3.84491 -6.50924 0
M  V30 4508 H 411.117 4.93496 -6.03392 0
M  V30 4509 N 415.346 1.54954 0.287554 0
M  V30 4510 C 416.757 1.65732 0.859634 0
M  V30 4511 C 417.108 0.574767 1.87592 0
M  V30 4512 O 416.233 -0.286299 2.14498 0
M  V30 4513 C 416.828 3.00438 1.56597 0
M  V30 4514 C 415.387 3.13292 2.08627 0
M  V30 4515 C 414.534 2.61473 0.923416 0
M  V30 4516 H 417.485 1.5857 0.0642338 0
M  V30 4517 H 417.506 2.92613 2.43224 0
M  V30 4518 H 417.018 3.79207 0.826053 0
M  V30 4519 H 415.119 2.39268 2.85625 0
M  V30 4520 H 415.232 4.19647 2.31157 0
M  V30 4521 H 413.596 2.18264 1.31275 0
M  V30 4522 H 414.379 3.42733 0.197241 0
M  V30 4523 N 416.824 -0.551391 1.4764 0
M  V30 4524 C 417.754 -1.66757 1.63445 0
M  V30 4525 C 418.735 -1.63077 0.483742 0
M  V30 4526 O 419.92 -1.80607 0.71377 0
M  V30 4527 C 417.05 -3.05387 1.65396 0
M  V30 4528 C 416.004 -3.23918 2.79752 0
M  V30 4529 C 415.33 -4.63393 2.66779 0
M  V30 4530 C 416.63 -3.08735 4.21284 0
M  V30 4531 H 418.324 -1.53786 2.56886 0
M  V30 4532 H 415.87 -0.738415 1.23626 0
M  V30 4533 H 417.823 -3.83325 1.75043 0
M  V30 4534 H 416.547 -3.19332 0.685195 0
M  V30 4535 H 415.206 -2.48391 2.69625 0
M  V30 4536 H 414.854 -4.74144 1.67918 0
M  V30 4537 H 414.554 -4.7674 3.43501 0
M  V30 4538 H 416.078 -5.43458 2.78364 0
M  V30 4539 H 417.492 -3.76484 4.32357 0
M  V30 4540 H 415.889 -3.33588 4.98838 0
M  V30 4541 H 416.959 -2.0541 4.39243 0
M  V30 4542 N 418.302 -1.35869 -0.798587 0
M  V30 4543 C 419.713 -1.26498 -1.37314 0
M  V30 4544 C 420.064 0.0991899 -1.95949 0
M  V30 4545 O 419.189 1.0004 -1.91888 0
M  V30 4546 C 419.784 -2.29054 -2.49639 0
M  V30 4547 C 418.343 -2.234 -3.02935 0
M  V30 4548 C 417.49 -2.14329 -1.75949 0
M  V30 4549 H 420.441 -1.46881 -0.600971 0
M  V30 4550 H 420.462 -1.92166 -3.28409 0
M  V30 4551 H 419.974 -3.2833 -2.06933 0
M  V30 4552 H 418.075 -1.27562 -3.50084 0
M  V30 4553 H 418.188 -3.15703 -3.60372 0
M  V30 4554 H 416.552 -1.60435 -1.9782 0
M  V30 4555 H 417.335 -3.15477 -1.35384 0
M  V30 4556 N 419.78 1.02168 -1.19998 0
M  V30 4557 C 420.713 2.10232 -0.887558 0
M  V30 4558 C 421.691 1.61827 0.158317 0
M  V30 4559 O 422.875 1.88471 0.0330249 0
M  V30 4560 C 420.002 3.37092 -0.32964 0
M  V30 4561 C 419.048 4.0438 -1.3557 0
M  V30 4562 S 419.881 4.48956 -2.91888 0
M  V30 4563 C 421.037 5.79024 -2.37658 0
M  V30 4564 H 421.27 2.36409 -1.80272 0
M  V30 4565 H 418.803 1.15211 -1.0279 0
M  V30 4566 H 420.761 4.10498 -0.0142824 0
M  V30 4567 H 419.422 3.08996 0.563941 0
M  V30 4568 H 418.615 4.95632 -0.9146 0
M  V30 4569 H 418.217 3.37176 -1.61828 0
M  V30 4570 H 420.509 6.53942 -1.77103 0
M  V30 4571 H 421.452 6.27924 -3.27287 0
M  V30 4572 H 421.86 5.35043 -1.79971 0
M  V30 4573 N 421.258 1.00505 1.21394 0
M  V30 4574 C 422.168 0.574806 2.27449 0
M  V30 4575 C 423.184 -0.382206 1.6975 0
M  V30 4576 O 424.36 -0.246027 1.99892 0
M  V30 4577 C 421.425 -0.0917414 3.46579 0
M  V30 4578 C 420.486 0.909758 4.1955 0
M  V30 4579 C 419.719 0.274924 5.32991 0
M  V30 4580 O 419.942 -0.928254 5.62796 0
M  V30 4581 O 418.876 0.985877 5.93771 0
M  V30 4582 H 422.702 1.45744 2.66444 0
M  V30 4583 H 420.287 0.773923 1.27792 0
M  V30 4584 H 422.169 -0.464551 4.18832 0
M  V30 4585 H 420.844 -0.948755 3.09484 0
M  V30 4586 H 419.751 1.33372 3.49518 0
M  V30 4587 H 421.084 1.73636 4.60555 0
M  V30 4588 N 422.737 -1.36956 0.779787 0
M  V30 4589 C 423.984 -1.99491 0.347766 0
M  V30 4590 C 424.312 -1.61898 -1.07793 0
M  V30 4591 O 423.567 -0.86071 -1.75756 0
M  V30 4592 C 423.866 -3.54585 0.447686 0
M  V30 4593 C 423.532 -4.1197 1.83279 0
M  V30 4594 C 422.194 -4.27356 2.2118 0
M  V30 4595 C 424.546 -4.43354 2.74019 0
M  V30 4596 C 421.874 -4.71432 3.4924 0
M  V30 4597 C 424.226 -4.88858 4.01497 0
M  V30 4598 C 422.89 -5.0245 4.39432 0
M  V30 4599 H 422.16 -0.729991 0.127257 0
M  V30 4600 H 424.807 -1.63599 0.995376 0
M  V30 4601 H 423.112 -3.90773 -0.283447 0
M  V30 4602 H 424.809 -4.00888 0.0945948 0
M  V30 4603 H 421.399 -4.00428 1.52825 0
M  V30 4604 H 425.583 -4.31045 2.45995 0
M  V30 4605 H 420.839 -4.80141 3.78516 0
M  V30 4606 H 425.013 -5.12108 4.71931 0
M  V30 4607 H 422.64 -5.36362 5.38721 0
M  V30 4608 N 424.215 -0.530993 -1.48385 0
M  V30 4609 C 425.125 0.23503 -2.3342 0
M  V30 4610 C 426.141 0.93801 -1.46552 0
M  V30 4611 O 427.317 0.912745 -1.7953 0
M  V30 4612 C 424.382 1.26778 -3.22689 0
M  V30 4613 C 423.443 0.575038 -4.25431 0
M  V30 4614 C 422.676 1.55858 -5.10435 0
M  V30 4615 O 422.899 2.79129 -4.97437 0
M  V30 4616 O 421.833 1.09742 -5.91811 0
M  V30 4617 H 425.659 -0.461794 -3.00169 0
M  V30 4618 H 423.244 -0.291903 -1.46521 0
M  V30 4619 H 425.126 1.86457 -3.77904 0
M  V30 4620 H 423.801 1.94699 -2.586 0
M  V30 4621 H 422.708 -0.0622782 -3.74048 0
M  V30 4622 H 424.041 -0.062253 -4.92161 0
M  V30 4623 N 425.693 1.55336 -0.266172 0
M  V30 4624 C 426.656 2.20878 0.612001 0
M  V30 4625 C 427.656 1.18388 1.08816 0
M  V30 4626 O 428.846 1.4335 0.989774 0
M  V30 4627 C 425.978 2.86765 1.84332 0
M  V30 4628 H 427.171 2.99873 0.0398718 0
M  V30 4629 H 424.724 1.56291 -0.0167309 0
M  V30 4630 H 425.459 2.11759 2.45619 0
M  V30 4631 H 425.244 3.61862 1.5099 0
M  V30 4632 H 426.734 3.36867 2.46801 0
M  V30 4633 N 427.171 -0.0066808 1.57599 0
M  V30 4634 C 428.401 -0.703066 1.94269 0
M  V30 4635 C 428.809 -1.68206 0.866222 0
M  V30 4636 O 428.152 -1.82966 -0.164087 0
M  V30 4637 C 428.214 -1.49616 3.26887 0
M  V30 4638 C 427.878 -0.679494 4.5192 0
M  V30 4639 C 428.875 0.0299508 5.19891 0
M  V30 4640 C 426.56 -0.627433 4.98366 0
M  V30 4641 C 428.554 0.780514 6.32603 0
M  V30 4642 C 426.241 0.126861 6.10968 0
M  V30 4643 C 427.239 0.829574 6.77943 0
M  V30 4644 O 426.927 1.57157 7.88389 0
M  V30 4645 H 426.659 -0.201217 0.645359 0
M  V30 4646 H 429.213 0.0385326 2.05364 0
M  V30 4647 H 427.443 -2.28209 3.12182 0
M  V30 4648 H 429.132 -2.07726 3.48719 0
M  V30 4649 H 429.898 -0.00115963 4.85 0
M  V30 4650 H 425.777 -1.16392 4.46065 0
M  V30 4651 H 429.321 1.32954 6.84813 0
M  V30 4652 H 425.218 0.159815 6.45302 0
M  V30 4653 H 425.986 1.48758 8.04868 0
M  V30 4654 N 428.649 -1.55105 -0.279332 0
M  V30 4655 C 429.898 -1.74618 -1.00952 0
M  V30 4656 C 430.211 -0.551096 -1.87676 0
M  V30 4657 O 431.417 -0.628507 -2.64125 0
M  V30 4658 C 429.873 -3.09025 -1.84476 0
M  V30 4659 C 429.481 -4.36081 -1.0265 0
M  V30 4660 C 431.225 -3.37891 -2.56963 0
M  V30 4661 C 429.132 -5.6153 -1.85576 0
M  V30 4662 H 428.062 -0.650868 -0.38064 0
M  V30 4663 H 430.713 -1.81569 -0.265475 0
M  V30 4664 H 429.095 -2.96095 -2.62952 0
M  V30 4665 H 430.269 -4.59909 -0.286354 0
M  V30 4666 H 428.584 -4.14312 -0.416464 0
M  V30 4667 H 431.181 -4.28822 -3.19399 0
M  V30 4668 H 431.524 -2.57737 -3.26921 0
M  V30 4669 H 432.057 -3.5189 -1.85522 0
M  V30 4670 H 428.796 -6.44413 -1.2005 0
M  V30 4671 H 428.316 -5.41854 -2.57204 0
M  V30 4672 H 429.995 -5.99594 -2.43096 0
M  V30 4673 N 430.127 0.543554 -1.4793 0
M  V30 4674 C 431.075 1.67039 -1.61866 0
M  V30 4675 C 432.069 1.62294 -0.48549 0
M  V30 4676 O 433.275 1.67315 -0.66376 0
M  V30 4677 H 429.65 0.552954 -0.509652 0
M  V30 4678 H 431.621 1.52426 -2.56533 0
M  V30 4679 C 430.37 3.05357 -1.6629 0
M  V30 4680 H 429.693 3.09696 -2.5284 0
M  V30 4681 H 431.133 3.83855 -1.80088 0
M  V30 4682 C 429.592 3.34531 -0.398861 0
M  V30 4683 O 430.122 3.98649 0.494162 0
M  V30 4684 N 428.328 2.89299 -0.2747 0
M  V30 4685 H 427.875 2.37298 -1.00236 0
M  V30 4686 H 427.833 3.09188 0.570075 0
M  V30 4687 N 431.605 1.3629 0.791371 0
M  V30 4688 C 432.568 1.30309 1.88553 0
M  V30 4689 C 433.568 0.211204 1.59407 0
M  V30 4690 O 434.758 0.465865 1.67855 0
M  V30 4691 C 431.89 1.01956 3.25297 0
M  V30 4692 H 433.083 2.27614 1.95273 0
M  V30 4693 H 430.636 1.21035 0.988953 0
M  V30 4694 H 431.371 0.050998 3.2426 0
M  V30 4695 H 431.156 1.80968 3.4784 0
M  V30 4696 H 432.646 1.0037 4.05359 0
M  V30 4697 N 433.083 -1.0153 1.20538 0
M  V30 4698 C 434.308 -1.79283 1.04271 0
M  V30 4699 C 434.733 -1.8372 -0.403544 0
M  V30 4700 O 434.091 -1.27321 -1.2907 0
M  V30 4701 C 434.139 -3.21535 1.63241 0
M  V30 4702 O 433.243 -4.03099 0.870908 0
M  V30 4703 H 432.584 -0.55293 0.367647 0
M  V30 4704 H 435.114 -1.27696 1.59859 0
M  V30 4705 H 435.124 -3.72243 1.6703 0
M  V30 4706 H 433.799 -3.1762 2.68497 0
M  V30 4707 H 432.376 -3.61693 0.907323 0
M  V30 4708 N 434.561 -1.01147 -1.20859 0
M  V30 4709 C 435.809 -0.696486 -1.89719 0
M  V30 4710 C 436.13 0.775788 -1.78904 0
M  V30 4711 O 435.4 1.55759 -1.18811 0
M  V30 4712 H 433.98 -0.254628 -0.702263 0
M  V30 4713 H 436.642 -1.28197 -1.46804 0
M  V30 4714 H 435.738 -0.975357 -2.96468 0
M  V30 4715 N 436.039 1.36541 -0.78704 0
M  V30 4716 C 436.949 2.3387 -0.184896 0
M  V30 4717 C 437.965 1.60927 0.661697 0
M  V30 4718 O 439.141 1.92927 0.57804 0
M  V30 4719 C 436.206 3.40122 0.672145 0
M  V30 4720 C 435.267 4.28867 -0.19267 0
M  V30 4721 C 434.5 5.30045 0.623561 0
M  V30 4722 O 434.723 5.39232 1.8597 0
M  V30 4723 O 433.657 6.01895 0.0247068 0
M  V30 4724 H 437.483 2.87126 -0.989562 0
M  V30 4725 H 435.068 1.38969 -0.548455 0
M  V30 4726 H 436.95 4.05093 1.16094 0
M  V30 4727 H 435.625 2.89169 1.45474 0
M  V30 4728 H 434.532 3.66945 -0.728166 0
M  V30 4729 H 435.865 4.83165 -0.938722 0
M  V30 4730 N 437.518 0.538854 1.48102 0
M  V30 4731 C 438.468 -0.23907 2.26743 0
M  V30 4732 C 439.452 -0.901923 1.33245 0
M  V30 4733 O 440.644 -0.803263 1.57723 0
M  V30 4734 C 437.773 -1.2799 3.18549 0
M  V30 4735 C 436.859 -0.621388 4.19523 0
M  V30 4736 N 437.25 0.298004 5.04921 0
M  V30 4737 C 435.548 -0.877533 4.37282 0
M  V30 4738 C 436.249 0.678757 5.77726 0
M  V30 4739 N 435.225 0.0377881 5.43587 0
M  V30 4740 H 439.027 0.468096 2.90148 0
M  V30 4741 H 436.541 0.357497 1.58416 0
M  V30 4742 H 438.538 -1.851 3.73555 0
M  V30 4743 H 437.198 -1.98835 2.567 0
M  V30 4744 H 438.209 0.671126 5.13533 0
M  V30 4745 H 434.886 -1.57588 3.86616 0
M  V30 4746 H 436.276 1.43316 6.56437 0
M  V30 4747 N 438.996 -1.55193 0.274407 0
M  V30 4748 C 440.244 -1.99187 -0.341902 0
M  V30 4749 C 440.565 -1.16422 -1.56431 0
M  V30 4750 O 439.835 -0.253573 -1.94252 0
M  V30 4751 H 438.415 -0.735721 -0.129317 0
M  V30 4752 H 441.077 -1.91168 0.379578 0
M  V30 4753 H 440.173 -3.05629 -0.632253 0
M  V30 4754 N 440.474 -0.00167713 -1.576 0
M  V30 4755 C 441.723 0.682021 -1.89819 0
M  V30 4756 C 442.036 1.74844 -0.876871 0
M  V30 4757 O 443.242 2.48688 -1.08934 0
M  V30 4758 C 441.698 1.26425 -3.36964 0
M  V30 4759 C 441.306 0.232568 -4.47396 0
M  V30 4760 C 443.05 1.92604 -3.78291 0
M  V30 4761 C 440.957 0.824882 -5.85619 0
M  V30 4762 H 439.887 0.258499 -0.708304 0
M  V30 4763 H 442.538 -0.0624957 -1.83394 0
M  V30 4764 H 440.92 2.05949 -3.38232 0
M  V30 4765 H 442.094 -0.5382 -4.57646 0
M  V30 4766 H 440.409 -0.32888 -4.15099 0
M  V30 4767 H 443.006 2.37827 -4.78897 0
M  V30 4768 H 443.349 2.75732 -3.11894 0
M  V30 4769 H 443.882 1.19812 -3.79328 0
M  V30 4770 H 440.621 0.0323542 -6.55492 0
M  V30 4771 H 440.141 1.56477 -5.79029 0
M  V30 4772 H 441.82 1.32301 -6.33329 0
M  V30 4773 N 441.952 1.55251 0.271103 0
M  V30 4774 C 443.198 1.76207 1.00394 0
M  V30 4775 C 443.531 0.562604 1.85872 0
M  V30 4776 O 442.806 -0.439785 1.89463 0
M  V30 4777 C 443.089 3.06828 1.8849 0
M  V30 4778 C 442.942 4.37134 1.05992 0
M  V30 4779 C 444.261 3.33503 2.87165 0
M  V30 4780 H 441.38 0.641086 0.363562 0
M  V30 4781 H 444.022 1.87982 0.276189 0
M  V30 4782 H 442.172 2.96921 2.5054 0
M  V30 4783 H 443.844 4.59001 0.459978 0
M  V30 4784 H 442.087 4.32275 0.363443 0
M  V30 4785 H 442.758 5.2486 1.70955 0
M  V30 4786 H 445.234 3.43215 2.3525 0
M  V30 4787 H 444.11 4.2616 3.45946 0
M  V30 4788 H 444.371 2.53235 3.62387 0
M  V30 4789 N 443.43 -0.535701 1.48216 0
M  V30 4790 C 444.676 -1.29375 1.56173 0
M  V30 4791 C 445.009 -1.92804 0.232429 0
M  V30 4792 O 444.284 -1.78992 -0.761048 0
M  V30 4793 C 444.567 -2.38747 2.69577 0
M  V30 4794 C 444.42 -1.80046 4.12193 0
M  V30 4795 C 445.739 -3.40551 2.78771 0
M  V30 4796 H 442.858 -0.469027 0.568491 0
M  V30 4797 H 445.5 -0.597358 1.80365 0
M  V30 4798 H 443.65 -2.98147 2.4908 0
M  V30 4799 H 445.322 -1.24742 4.44114 0
M  V30 4800 H 443.565 -1.10609 4.19462 0
M  V30 4801 H 444.236 -2.59212 4.87353 0
M  V30 4802 H 446.712 -2.91099 2.97322 0
M  V30 4803 H 445.588 -4.1448 3.59857 0
M  V30 4804 H 445.849 -4.00746 1.86696 0
M  V30 4805 N 444.908 -1.36708 -0.784132 0
M  V30 4806 C 446.155 -1.31231 -1.54222 0
M  V30 4807 C 446.483 0.106864 -1.94206 0
M  V30 4808 O 445.738 1.07734 -1.63376 0
M  V30 4809 C 446.037 -2.18571 -2.82774 0
M  V30 4810 C 445.703 -3.67039 -2.61903 0
M  V30 4811 C 444.365 -4.07503 -2.55919 0
M  V30 4812 C 446.717 -4.61149 -2.4288 0
M  V30 4813 C 444.045 -5.40211 -2.28886 0
M  V30 4814 C 446.397 -5.94081 -2.17373 0
M  V30 4815 C 445.061 -6.33664 -2.09825 0
M  V30 4816 H 444.331 -0.48021 -0.56434 0
M  V30 4817 H 446.978 -1.68807 -0.904233 0
M  V30 4818 H 445.283 -1.73949 -3.51068 0
M  V30 4819 H 446.98 -2.11655 -3.40592 0
M  V30 4820 H 443.57 -3.34941 -2.67418 0
M  V30 4821 H 447.754 -4.30756 -2.46501 0
M  V30 4822 H 443.01 -5.69855 -2.21529 0
M  V30 4823 H 447.184 -6.66566 -2.01649 0
M  V30 4824 H 444.811 -7.36423 -1.88641 0
M  V30 4825 N 446.386 1.0089 -1.21074 0
M  V30 4826 C 447.611 1.78727 -1.05221 0
M  V30 4827 C 448.036 1.83932 0.393795 0
M  V30 4828 O 447.394 1.28004 1.28393 0
M  V30 4829 C 447.442 3.20665 -1.64944 0
M  V30 4830 O 446.546 4.02632 -0.892273 0
M  V30 4831 H 445.887 0.550973 -0.370574 0
M  V30 4832 H 448.417 1.26847 -1.60534 0
M  V30 4833 H 448.427 3.71352 -1.69002 0
M  V30 4834 H 447.102 3.16191 -2.70177 0
M  V30 4835 H 445.679 3.61207 -0.926492 0
M  V30 4836 N 447.864 1.01787 1.20321 0
M  V30 4837 C 448.794 0.609625 2.25401 0
M  V30 4838 C 449.775 -0.375951 1.65893 0
M  V30 4839 O 450.96 -0.261101 1.92437 0
M  V30 4840 C 448.09 -0.0515995 3.47262 0
M  V30 4841 C 447.044 0.855095 4.19371 0
M  V30 4842 C 446.37 0.0595757 5.34667 0
M  V30 4843 C 447.67 2.16374 4.75373 0
M  V30 4844 H 449.364 1.48803 2.59804 0
M  V30 4845 H 446.91 0.716934 1.24884 0
M  V30 4846 H 448.863 -0.348764 4.19954 0
M  V30 4847 H 447.587 -0.964726 3.12027 0
M  V30 4848 H 446.246 1.13628 3.48546 0
M  V30 4849 H 445.894 -0.85524 4.95676 0
M  V30 4850 H 445.594 0.663406 5.83843 0
M  V30 4851 H 447.118 -0.231105 6.10162 0
M  V30 4852 H 448.532 1.92885 5.39878 0
M  V30 4853 H 446.929 2.71853 5.34991 0
M  V30 4854 H 447.999 2.82589 3.94045 0
M  V30 4855 N 449.342 -1.36122 0.79427 0
M  V30 4856 C 450.59 -1.98718 0.368177 0
M  V30 4857 C 450.911 -1.63345 -1.06506 0
M  V30 4858 O 450.181 -0.909825 -1.73491 0
M  V30 4859 H 448.761 -0.735038 0.133146 0
M  V30 4860 H 451.423 -1.66239 1.01739 0
M  V30 4861 H 450.519 -3.08633 0.463923 0
M  V30 4862 N 450.82 -0.546701 -1.47814 0
M  V30 4863 C 452.045 -0.021268 -2.07389 0
M  V30 4864 C 452.47 1.25822 -1.39822 0
M  V30 4865 O 451.828 1.75111 -0.46968 0
M  V30 4866 C 451.876 0.168502 -3.60206 0
M  V30 4867 O 450.98 1.23347 -3.93522 0
M  V30 4868 H 450.321 -0.0466108 -0.662362 0
M  V30 4869 H 452.851 -0.759387 -1.89985 0
M  V30 4870 H 452.861 0.385982 -4.0617 0
M  V30 4871 H 451.536 -0.766075 -4.08784 0
M  V30 4872 H 450.113 0.997319 -3.59316 0
M  V30 4873 N 452.299 1.55045 -0.282633 0
M  V30 4874 C 453.232 2.18951 0.64311 0
M  V30 4875 C 454.21 1.15287 1.14664 0
M  V30 4876 O 455.394 1.43846 1.21822 0
M  V30 4877 C 452.521 2.81874 1.87789 0
M  V30 4878 C 451.567 3.98906 1.50919 0
M  V30 4879 S 452.4 5.3234 0.580884 0
M  V30 4880 C 453.556 5.98737 1.82387 0
M  V30 4881 H 453.789 2.97131 0.100138 0
M  V30 4882 H 451.322 1.54255 -0.0668514 0
M  V30 4883 H 453.28 3.18757 2.58658 0
M  V30 4884 H 451.941 2.03573 2.392 0
M  V30 4885 H 451.134 4.4165 2.42819 0
M  V30 4886 H 450.736 3.63485 0.88061 0
M  V30 4887 H 453.028 6.18427 2.76684 0
M  V30 4888 H 453.971 6.93318 1.4393 0
M  V30 4889 H 454.379 5.28177 1.99223 0
M  V30 4890 N 453.777 0.010035 1.57597 0
M  V30 4891 C 455.023 -0.673697 1.91283 0
M  V30 4892 C 455.356 -1.72863 0.884979 0
M  V30 4893 O 454.631 -1.94268 -0.0949487 0
M  V30 4894 C 454.914 -1.30766 3.35518 0
M  V30 4895 C 454.767 -0.263578 4.49027 0
M  V30 4896 C 456.086 -2.23105 3.79358 0
M  V30 4897 H 453.205 -0.243439 0.695634 0
M  V30 4898 H 455.847 0.0633864 1.89894 0
M  V30 4899 H 453.997 -1.93588 3.36832 0
M  V30 4900 H 455.669 0.365738 4.59848 0
M  V30 4901 H 453.912 0.413077 4.31829 0
M  V30 4902 H 454.583 -0.746398 5.4693 0
M  V30 4903 H 457.059 -1.70289 3.79659 0
M  V30 4904 H 455.935 -2.64424 4.81011 0
M  V30 4905 H 456.196 -3.11433 3.13787 0
M  V30 4906 N 455.255 -1.55392 -0.262866 0
M  V30 4907 C 456.48 -1.80847 -1.01533 0
M  V30 4908 C 456.905 -0.584946 -1.78774 0
M  V30 4909 O 456.263 0.465701 -1.75217 0
M  V30 4910 C 456.311 -3.03866 -1.94159 0
M  V30 4911 O 455.415 -2.79662 -3.03089 0
M  V30 4912 H 454.756 -0.597441 -0.289759 0
M  V30 4913 H 457.286 -2.02553 -0.288698 0
M  V30 4914 H 457.296 -3.32872 -2.35924 0
M  V30 4915 H 455.971 -3.92564 -1.37354 0
M  V30 4916 H 454.548 -2.61781 -2.65566 0
M  V30 4917 N 456.733 0.527833 -1.48498 0
M  V30 4918 C 457.643 1.65907 -1.65867 0
M  V30 4919 C 458.659 1.6537 -0.541192 0
M  V30 4920 O 459.835 1.84282 -0.812534 0
M  V30 4921 C 456.9 3.02364 -1.69637 0
M  V30 4922 C 455.961 3.1374 -2.93028 0
M  V30 4923 C 455.194 4.43688 -2.96609 0
M  V30 4924 O 455.417 5.30913 -2.08538 0
M  V30 4925 O 454.351 4.59475 -3.88802 0
M  V30 4926 H 458.177 1.5419 -2.61647 0
M  V30 4927 H 455.762 0.701163 -1.31924 0
M  V30 4928 H 457.644 3.83515 -1.74625 0
M  V30 4929 H 456.319 3.14401 -0.770312 0
M  V30 4930 H 455.226 2.31877 -2.93571 0
M  V30 4931 H 456.559 3.06621 -3.85026 0
M  V30 4932 N 458.211 1.37122 0.776871 0
M  V30 4933 C 459.46 1.31373 1.53049 0
M  V30 4934 C 459.773 -0.101016 1.95339 0
M  V30 4935 O 460.979 -0.280953 2.70042 0
M  V30 4936 C 459.435 2.30567 2.76346 0
M  V30 4937 C 459.043 3.77543 2.41175 0
M  V30 4938 C 460.787 2.33818 3.54301 0
M  V30 4939 C 458.694 4.68481 3.60943 0
M  V30 4940 H 457.624 0.488234 0.574581 0
M  V30 4941 H 460.275 1.62554 0.851372 0
M  V30 4942 H 458.657 1.92396 3.46121 0
M  V30 4943 H 459.831 4.24521 1.79216 0
M  V30 4944 H 458.146 3.77187 1.76405 0
M  V30 4945 H 460.743 2.98965 4.4331 0
M  V30 4946 H 461.086 1.3503 3.93793 0
M  V30 4947 H 461.619 2.7067 2.91518 0
M  V30 4948 H 458.358 5.68378 3.26537 0
M  V30 4949 H 457.878 4.2621 4.22025 0
M  V30 4950 H 459.557 4.85366 4.27819 0
M  V30 4951 N 459.689 -1.00246 1.21608 0
M  V30 4952 C 461.1 -1.55511 1.03312 0
M  V30 4953 C 461.451 -1.91946 -0.406332 0
M  V30 4954 O 460.576 -1.73753 -1.28992 0
M  V30 4955 C 461.171 -2.82576 1.86913 0
M  V30 4956 C 459.73 -3.34318 1.72941 0
M  V30 4957 C 458.877 -2.07487 1.83968 0
M  V30 4958 H 461.828 -0.824638 1.35593 0
M  V30 4959 H 461.849 -3.54559 1.38087 0
M  V30 4960 H 461.361 -2.56026 2.91672 0
M  V30 4961 H 459.462 -3.65797 0.70877 0
M  V30 4962 H 459.575 -4.05566 2.55055 0
M  V30 4963 H 457.939 -2.20603 1.27304 0
M  V30 4964 H 458.722 -1.83346 2.9024 0
M  V30 4965 N 461.167 -1.02423 -1.1978 0
M  V30 4966 C 462.077 -0.610919 -2.26506 0
M  V30 4967 C 463.093 0.355152 -1.70337 0
M  V30 4968 O 464.269 0.214195 -2.00258 0
M  V30 4969 C 461.334 0.0365921 -3.46681 0
M  V30 4970 C 460.395 -0.976389 -4.18049 0
M  V30 4971 C 459.628 -0.359683 -5.32487 0
M  V30 4972 O 459.851 0.838601 -5.64202 0
M  V30 4973 O 458.785 -1.08022 -5.92127 0
M  V30 4974 H 462.611 -1.49965 -2.64091 0
M  V30 4975 H 460.196 -0.794156 -1.26545 0
M  V30 4976 H 462.078 0.39786 -4.19518 0
M  V30 4977 H 460.753 0.899398 -3.10954 0
M  V30 4978 H 459.66 -1.38916 -3.47352 0
M  V30 4979 H 460.993 -1.80941 -4.57735 0
M  V30 4980 N 462.645 1.35699 -0.801477 0
M  V30 4981 C 463.592 2.29876 -0.206294 0
M  V30 4982 C 464.562 1.52565 0.656752 0
M  V30 4983 O 465.747 1.81024 0.602906 0
M  V30 4984 C 462.887 3.39052 0.643272 0
M  V30 4985 C 462 4.31335 -0.239644 0
M  V30 4986 C 461.135 5.27599 0.61744 0
M  V30 4987 C 460.174 6.11521 -0.26619 0
M  V30 4988 N 459.311 6.99938 0.550571 0
M  V30 4989 H 464.151 2.80187 -1.01484 0
M  V30 4990 H 461.688 1.37902 -0.511997 0
M  V30 4991 H 463.646 4.0101 1.15094 0
M  V30 4992 H 462.276 2.9003 1.41713 0
M  V30 4993 H 461.328 3.70426 -0.865381 0
M  V30 4994 H 462.64 4.90243 -0.919985 0
M  V30 4995 H 461.794 5.94906 1.19045 0
M  V30 4996 H 460.533 4.69176 1.33137 0
M  V30 4997 H 459.538 5.43166 -0.851507 0
M  V30 4998 H 460.763 6.72022 -0.9779 0
M  V30 4999 H 458.709 6.44008 1.24856 0
M  V30 5000 H 458.626 7.55966 -0.071832 0
M  V30 5001 H 459.894 7.71599 1.10702 0
M  V30 5002 N 464.123 0.554532 1.47522 0
M  V30 5003 C 465.07 -0.19466 2.29978 0
M  V30 5004 C 466.04 -0.910882 1.38896 0
M  V30 5005 O 467.225 -0.907102 1.67858 0
M  V30 5006 C 464.365 -1.22035 3.22802 0
M  V30 5007 C 463.478 -0.510474 4.28973 0
M  V30 5008 C 462.613 -1.52123 5.08952 0
M  V30 5009 C 461.652 -0.796173 6.069 0
M  V30 5010 N 460.789 -1.75363 6.79847 0
M  V30 5011 H 465.629 0.51461 2.93523 0
M  V30 5012 H 463.166 0.265607 1.44682 0
M  V30 5013 H 465.124 -1.8276 3.7504 0
M  V30 5014 H 463.754 -1.89769 2.61127 0
M  V30 5015 H 462.806 0.211234 3.79813 0
M  V30 5016 H 464.118 0.0576503 4.98767 0
M  V30 5017 H 463.272 -2.20207 5.65326 0
M  V30 5018 H 462.011 -2.12327 4.39054 0
M  V30 5019 H 461.016 -0.101388 5.49707 0
M  V30 5020 H 462.241 -0.199911 6.78806 0
M  V30 5021 H 460.187 -2.3443 6.12682 0
M  V30 5022 H 460.104 -1.23759 7.45801 0
M  V30 5023 H 461.372 -2.4257 7.40797 0
M  V30 5024 N 465.601 -1.54893 0.290851 0
M  V30 5025 C 466.564 -2.21824 -0.576784 0
M  V30 5026 C 467.564 -1.20104 -1.06919 0
M  V30 5027 O 468.754 -1.44906 -0.966843 0
M  V30 5028 C 465.886 -2.89662 -1.79747 0
M  V30 5029 H 467.079 -2.99899 0.00784051 0
M  V30 5030 H 464.632 -1.56245 0.0415934 0
M  V30 5031 H 465.367 -2.15639 -2.42219 0
M  V30 5032 H 465.152 -3.64219 -1.45214 0
M  V30 5033 H 466.642 -3.4075 -2.4141 0
M  V30 5034 N 467.08 -0.0183926 -1.57589 0
M  V30 5035 C 468.013 1.00148 -2.0505 0
M  V30 5036 C 468.991 1.32387 -0.944058 0
M  V30 5037 O 470.175 1.44237 -1.21358 0
M  V30 5038 C 467.302 2.32435 -2.46357 0
M  V30 5039 C 466.348 2.15731 -3.67916 0
M  V30 5040 S 467.181 1.46613 -5.15039 0
M  V30 5041 C 468.337 2.80293 -5.59631 0
M  V30 5042 H 468.57 0.597429 -2.91235 0
M  V30 5043 H 466.103 0.193002 -1.53189 0
M  V30 5044 H 468.061 3.0849 -2.70822 0
M  V30 5045 H 466.722 2.69975 -1.60537 0
M  V30 5046 H 465.915 3.13502 -3.9463 0
M  V30 5047 H 465.517 1.4782 -3.43548 0
M  V30 5048 H 467.809 3.76557 -5.63215 0
M  V30 5049 H 468.752 2.58256 -6.59325 0
M  V30 5050 H 469.16 2.85047 -4.87246 0
M  V30 5051 N 468.558 1.5553 0.254621 0
M  V30 5052 C 469.521 1.88872 1.29846 0
M  V30 5053 C 470.521 0.764591 1.41459 0
M  V30 5054 O 471.711 1.03265 1.40293 0
M  V30 5055 C 468.843 2.11032 2.67728 0
M  V30 5056 H 470.036 2.82201 1.01502 0
M  V30 5057 H 467.589 1.48303 0.493556 0
M  V30 5058 H 468.324 1.20146 3.01223 0
M  V30 5059 H 468.109 2.92895 2.60682 0
M  V30 5060 H 469.599 2.38038 3.43115 0
M  V30 5061 N 470.036 -0.519951 1.48776 0
M  V30 5062 C 471.285 -1.27175 1.56555 0
M  V30 5063 C 471.598 -1.9401 0.248869 0
M  V30 5064 O 472.804 -2.70725 0.205004 0
M  V30 5065 C 471.26 -2.30811 2.76142 0
M  V30 5066 C 470.868 -1.7 4.14493 0
M  V30 5067 C 472.612 -3.06937 2.9324 0
M  V30 5068 C 470.519 -2.71635 5.25327 0
M  V30 5069 H 469.449 -0.478329 0.582853 0
M  V30 5070 H 472.1 -0.547916 1.75129 0
M  V30 5071 H 470.482 -3.06274 2.51023 0
M  V30 5072 H 471.656 -1.00658 4.49672 0
M  V30 5073 H 469.971 -1.06331 4.02595 0
M  V30 5074 H 472.568 -3.82905 3.73213 0
M  V30 5075 H 472.911 -3.63409 2.03075 0
M  V30 5076 H 473.444 -2.38589 3.18308 0
M  V30 5077 H 470.183 -2.1997 6.1749 0
M  V30 5078 H 469.703 -3.39275 4.94624 0
M  V30 5079 H 471.382 -3.34429 5.53865 0
M  V30 5080 N 471.514 -1.37532 -0.769588 0
M  V30 5081 C 472.477 -1.33292 -1.86456 0
M  V30 5082 C 473.477 -0.236537 -1.59051 0
M  V30 5083 O 474.667 -0.492511 -1.67093 0
M  V30 5084 C 471.799 -1.07118 -3.23633 0
M  V30 5085 H 472.992 -2.30692 -1.91628 0
M  V30 5086 H 470.545 -1.22593 -0.969572 0
M  V30 5087 H 471.28 -0.102578 -3.24138 0
M  V30 5088 H 471.065 -1.86479 -3.44917 0
M  V30 5089 H 472.555 -1.06806 -4.03711 0
M  V30 5090 N 472.992 0.995999 -1.22138 0
M  V30 5091 C 474.269 1.70834 -0.952642 0
M  V30 5092 C 474.649 2.04257 0.533119 0
M  V30 5093 O 473.997 1.72343 1.50034 0
M  V30 5094 C 474.207 2.96119 -1.84701 0
M  V30 5095 C 475.555 3.68962 -2.10124 0
M  V30 5096 O 476.579 3.0612 -1.82124 0
M  V30 5097 O 475.438 4.82017 -2.57531 0
M  V30 5098 H 472.532 0.745498 -0.357997 0
M  V30 5099 H 475.078 1.05262 -1.33109 0
M  V30 5100 H 473.85 2.67898 -2.85213 0
M  V30 5101 H 473.473 3.6943 -1.46995 0
M  V30 5102 N 474.47 1.03057 1.19235 0
M  V30 5103 C 475.433 0.617418 2.20727 0
M  V30 5104 C 476.433 -0.319856 1.57587 0
M  V30 5105 O 477.623 -0.106633 1.73873 0
M  V30 5106 C 474.755 -0.096296 3.40764 0
M  V30 5107 H 475.948 1.51544 2.58794 0
M  V30 5108 H 473.501 0.821949 1.32942 0
M  V30 5109 H 474.236 -1.00859 3.08217 0
M  V30 5110 H 474.021 0.577217 3.87828 0
M  V30 5111 H 475.511 -0.372219 4.15938 0
M  V30 5112 N 475.948 -1.35272 0.808662 0
M  V30 5113 C 476.878 -2.32315 0.234981 0
M  V30 5114 C 477.859 -1.57572 -0.64071 0
M  V30 5115 O 479.044 -1.8563 -0.570551 0
M  V30 5116 C 476.174 -3.41801 -0.615601 0
M  V30 5117 C 475.128 -4.27694 0.161767 0
M  V30 5118 C 474.454 -5.28519 -0.810649 0
M  V30 5119 C 475.754 -5.04231 1.36193 0
M  V30 5120 H 477.448 -2.80543 1.04575 0
M  V30 5121 H 474.994 -1.3488 0.504315 0
M  V30 5122 H 476.947 -4.08693 -1.02702 0
M  V30 5123 H 475.671 -2.92186 -1.45928 0
M  V30 5124 H 474.33 -3.62384 0.554382 0
M  V30 5125 H 473.978 -4.75171 -1.64988 0
M  V30 5126 H 473.678 -5.8686 -0.294822 0
M  V30 5127 H 475.202 -5.98283 -1.22023 0
M  V30 5128 H 476.616 -5.64058 1.02528 0
M  V30 5129 H 475.013 -5.72077 1.81239 0
M  V30 5130 H 476.083 -4.34753 2.14751 0
M  V30 5131 N 477.426 -0.562348 -1.47226 0
M  V30 5132 C 478.674 -0.0401371 -2.0206 0
M  V30 5133 C 478.995 1.3165 -1.43852 0
M  V30 5134 O 478.265 1.85976 -0.615599 0
M  V30 5135 H 476.845 -0.0118479 -0.746906 0
M  V30 5136 H 479.507 -0.73352 -1.8057 0
M  V30 5137 H 478.603 0.0441254 -3.12069 0
M  V30 5138 N 478.904 1.54736 -0.299062 0
M  V30 5139 C 479.851 2.23448 0.577899 0
M  V30 5140 C 480.821 1.21637 1.13109 0
M  V30 5141 O 482.006 1.50252 1.17597 0
M  V30 5142 C 479.146 2.9774 1.74484 0
M  V30 5143 C 478.259 4.1432 1.22323 0
M  V30 5144 C 477.394 4.76199 2.35388 0
M  V30 5145 C 476.433 5.84927 1.80351 0
M  V30 5146 N 475.57 6.4077 2.86982 0
M  V30 5147 H 480.41 2.97996 -0.0146545 0
M  V30 5148 H 477.947 1.47088 -0.0190013 0
M  V30 5149 H 479.905 3.39045 2.43114 0
M  V30 5150 H 478.535 2.25572 2.30905 0
M  V30 5151 H 477.587 3.7797 0.429249 0
M  V30 5152 H 478.899 4.92659 0.780309 0
M  V30 5153 H 478.053 5.20346 3.11969 0
M  V30 5154 H 476.792 3.97188 2.83006 0
M  V30 5155 H 475.797 5.40207 1.02259 0
M  V30 5156 H 477.022 6.65821 1.3364 0
M  V30 5157 H 474.968 5.64643 3.33938 0
M  V30 5158 H 474.885 7.1445 2.4718 0
M  V30 5159 H 476.153 6.89574 3.63466 0
M  V30 5160 N 480.382 0.0267497 1.57577 0
M  V30 5161 C 481.631 -0.651736 1.9088 0
M  V30 5162 C 481.944 -1.73427 0.904576 0
M  V30 5163 O 483.15 -2.46923 1.12877 0
M  V30 5164 C 481.606 -1.21048 3.38933 0
M  V30 5165 C 481.214 -0.161362 4.47709 0
M  V30 5166 C 482.958 -1.86562 3.81307 0
M  V30 5167 C 480.865 -0.731611 5.86857 0
M  V30 5168 H 479.795 -0.247198 0.712326 0
M  V30 5169 H 482.446 0.0916641 1.83271 0
M  V30 5170 H 480.828 -2.00542 3.41466 0
M  V30 5171 H 482.002 0.61094 4.56732 0
M  V30 5172 H 480.317 0.394877 4.14523 0
M  V30 5173 H 482.914 -2.30178 4.8262 0
M  V30 5174 H 483.257 -2.70735 3.16241 0
M  V30 5175 H 483.79 -1.13762 3.81186 0
M  V30 5176 H 480.529 0.0719329 6.55461 0
M  V30 5177 H 480.049 -1.47245 5.81445 0
M  V30 5178 H 481.728 -1.22208 6.35354 0
M  V30 5179 N 481.861 -1.55662 -0.24637 0
M  V30 5180 C 483.272 -1.67953 -0.81539 0
M  V30 5181 C 483.623 -0.624302 -1.86002 0
M  V30 5182 O 482.748 0.229328 -2.15181 0
M  V30 5183 C 483.343 -3.04484 -1.48576 0
M  V30 5184 C 481.902 -3.18713 -2.00248 0
M  V30 5185 C 481.049 -2.6383 -0.853766 0
M  V30 5186 H 484 -1.58685 -0.0221692 0
M  V30 5187 H 484.021 -2.98959 -2.3538 0
M  V30 5188 H 483.533 -3.81264 -0.725222 0
M  V30 5189 H 481.634 -2.46757 -2.79181 0
M  V30 5190 H 481.747 -4.25628 -2.1995 0
M  V30 5191 H 480.111 -2.21667 -1.25442 0
M  V30 5192 H 480.894 -3.43135 -0.106302 0
M  V30 5193 N 483.339 0.512053 -1.4905 0
M  V30 5194 C 484.271 1.63121 -1.6101 0
M  V30 5195 C 485.284 1.55145 -0.493352 0
M  V30 5196 O 486.473 1.61278 -0.764955 0
M  V30 5197 C 483.573 3.01863 -1.54052 0
M  V30 5198 C 482.746 3.35138 -2.81072 0
M  V30 5199 C 481.805 4.5324 -2.67319 0
M  V30 5200 O 480.831 4.55571 -3.41238 0
M  V30 5201 N 482.033 5.52495 -1.78127 0
M  V30 5202 H 484.798 1.53292 -2.5753 0
M  V30 5203 H 482.359 0.699706 -1.45999 0
M  V30 5204 H 484.351 3.78774 -1.42521 0
M  V30 5205 H 482.921 3.05675 -0.654345 0
M  V30 5206 H 482.141 2.4723 -3.07036 0
M  V30 5207 H 483.429 3.54162 -3.65304 0
M  V30 5208 H 482.827 5.53403 -1.17308 0
M  V30 5209 H 481.384 6.28553 -1.72525 0
M  V30 5210 N 484.817 1.37938 0.762283 0
M  V30 5211 C 486.045 1.36883 1.55147 0
M  V30 5212 C 486.46 -0.0435348 1.8875 0
M  V30 5213 O 485.817 -1.00786 1.52146 0
M  V30 5214 C 485.868 2.21624 2.85596 0
M  V30 5215 O 485.589 3.57358 2.5343 0
M  V30 5216 C 487.09 2.28653 3.7978 0
M  V30 5217 H 484.31 0.468521 0.480343 0
M  V30 5218 H 486.854 1.81404 0.944079 0
M  V30 5219 H 485.009 1.80588 3.42734 0
M  V30 5220 H 485.423 4.01883 3.37032 0
M  V30 5221 H 486.897 2.9225 4.68288 0
M  V30 5222 H 487.374 1.29767 4.19592 0
M  V30 5223 H 487.98 2.70043 3.28568 0
M  V30 5224 N 486.295 -0.989507 1.22664 0
M  V30 5225 C 487.541 -1.7321 1.05481 0
M  V30 5226 C 487.874 -1.89852 -0.408635 0
M  V30 5227 O 487.149 -1.44416 -1.30285 0
M  V30 5228 C 487.432 -3.1357 1.77047 0
M  V30 5229 C 487.285 -3.04555 3.31008 0
M  V30 5230 C 488.604 -4.12812 1.5256 0
M  V30 5231 H 485.723 -0.628697 0.384589 0
M  V30 5232 H 488.365 -1.15258 1.51049 0
M  V30 5233 H 486.515 -3.63046 1.3831 0
M  V30 5234 H 488.187 -2.62674 3.7921 0
M  V30 5235 H 486.43 -2.41278 3.6051 0
M  V30 5236 H 487.101 -4.03894 3.76263 0
M  V30 5237 H 489.577 -3.72106 1.86215 0
M  V30 5238 H 488.453 -5.09132 2.05124 0
M  V30 5239 H 488.714 -4.39711 0.458936 0
M  V30 5240 N 487.773 -1.03688 -1.18687 0
M  V30 5241 C 488.703 -0.645407 -2.24403 0
M  V30 5242 C 489.684 0.349511 -1.66471 0
M  V30 5243 O 490.869 0.230453 -1.92828 0
M  V30 5244 C 487.999 -0.00365337 -3.473 0
M  V30 5245 C 486.953 -0.921705 -4.17958 0
M  V30 5246 C 486.279 -0.144629 -5.34504 0
M  V30 5247 C 487.579 -2.23909 -4.71871 0
M  V30 5248 H 489.273 -1.52917 -2.57404 0
M  V30 5249 H 486.819 -0.736711 -1.23728 0
M  V30 5250 H 488.772 0.281908 -4.20456 0
M  V30 5251 H 487.496 0.914963 -3.13522 0
M  V30 5252 H 486.155 -1.19159 -3.46694 0
M  V30 5253 H 485.803 0.776274 -4.96974 0
M  V30 5254 H 485.503 -0.756206 -5.82714 0
M  V30 5255 H 487.027 0.134004 -6.10453 0
M  V30 5256 H 488.441 -2.0145 -5.36741 0
M  V30 5257 H 486.838 -2.8033 -5.30599 0
M  V30 5258 H 487.908 -2.88822 -3.895 0
M  V30 5259 N 489.251 1.34841 -0.815825 0
M  V30 5260 C 490.497 1.99219 -0.410288 0
M  V30 5261 C 490.852 1.63532 1.01366 0
M  V30 5262 O 490.145 0.893093 1.69512 0
M  V30 5263 C 490.339 3.53273 -0.541541 0
M  V30 5264 C 490.168 4.03927 -1.9767 0
M  V30 5265 C 488.938 4.32852 -2.60706 0
M  V30 5266 C 491.136 4.21808 -2.9425 0
M  V30 5267 N 489.118 4.69494 -3.95536 0
M  V30 5268 C 490.489 4.6155 -4.13971 0
M  V30 5269 C 492.544 4.04038 -2.9096 0
M  V30 5270 C 491.247 4.85381 -5.30847 0
M  V30 5271 C 493.273 4.29031 -4.07046 0
M  V30 5272 C 492.635 4.69054 -5.25517 0
M  V30 5273 H 488.734 0.756494 -0.198094 0
M  V30 5274 H 491.318 1.63379 -1.05902 0
M  V30 5275 H 489.489 3.88323 0.0772544 0
M  V30 5276 H 491.221 4.04551 -0.109694 0
M  V30 5277 H 487.976 4.23503 -2.11995 0
M  V30 5278 H 488.4 4.92061 -4.64979 0
M  V30 5279 H 493.042 3.7223 -2.00512 0
M  V30 5280 H 490.76 5.16059 -6.21859 0
M  V30 5281 H 494.346 4.16826 -4.05891 0
M  V30 5282 H 493.226 4.88014 -6.1385 0
M  V30 5283 N 490.729 0.570148 1.46925 0
M  V30 5284 C 492.145 0.23087 1.57921 0
M  V30 5285 C 492.345 -1.26676 1.56702 0
M  V30 5286 O 491.401 -2.04774 1.47729 0
M  V30 5287 C 492.714 0.868973 2.8787 0
M  V30 5288 C 494.262 0.841397 3.01479 0
M  V30 5289 C 494.737 1.45881 4.34146 0
M  V30 5290 N 496.228 1.42258 4.40814 0
M  V30 5291 C 496.963 1.8698 5.42057 0
M  V30 5292 N 496.459 2.39618 6.50042 0
M  V30 5293 N 498.252 1.77972 5.33181 0
M  V30 5294 H 490.403 1.54301 1.45962 0
M  V30 5295 H 492.666 0.644224 0.69547 0
M  V30 5296 H 492.372 1.922 2.94537 0
M  V30 5297 H 492.246 0.369682 3.75384 0
M  V30 5298 H 494.633 -0.202973 2.94401 0
M  V30 5299 H 494.714 1.37858 2.15474 0
M  V30 5300 H 494.358 2.50231 4.4198 0
M  V30 5301 H 494.288 0.896958 5.18905 0
M  V30 5302 H 496.779 1.03768 3.63374 0
M  V30 5303 H 497.092 2.71633 7.23488 0
M  V30 5304 H 495.437 2.43636 6.50897 0
M  V30 5305 H 498.628 1.36617 4.4772 0
M  V30 5306 H 498.801 2.13143 6.11943 0
M  V30 5307 N 492.207 -1.54576 0.307264 0
M  V30 5308 C 493.437 -2.04378 -0.302158 0
M  V30 5309 C 493.845 -1.18381 -1.47589 0
M  V30 5310 O 493.188 -0.20352 -1.82569 0
M  V30 5311 C 493.25 -3.50133 -0.815305 0
M  V30 5312 C 492.914 -4.56401 0.233977 0
M  V30 5313 C 493.911 -5.08884 1.06456 0
M  V30 5314 C 491.596 -5.0088 0.377478 0
M  V30 5315 C 493.59 -6.04394 2.02452 0
M  V30 5316 C 491.277 -5.96208 1.34088 0
M  V30 5317 C 492.275 -6.47849 2.16288 0
M  V30 5318 O 491.963 -7.41308 3.10994 0
M  V30 5319 H 491.695 -0.672502 -0.0686839 0
M  V30 5320 H 494.249 -2.00484 0.446682 0
M  V30 5321 H 492.479 -3.51371 -1.61478 0
M  V30 5322 H 494.168 -3.83098 -1.34129 0
M  V30 5323 H 494.934 -4.75311 0.964596 0
M  V30 5324 H 490.813 -4.60309 -0.252405 0
M  V30 5325 H 494.357 -6.44626 2.66652 0
M  V30 5326 H 490.254 -6.29198 1.44154 0
M  V30 5327 H 491.022 -7.5913 3.06045 0
M  V30 5328 N 493.685 -0.035106 -1.57561 0
M  V30 5329 C 494.913 0.652258 -1.9635 0
M  V30 5330 C 495.328 1.65317 -0.911897 0
M  V30 5331 O 494.685 1.82194 0.105657 0
M  V30 5332 C 494.736 1.35337 -3.35211 0
M  V30 5333 O 494.457 0.392548 -4.36338 0
M  V30 5334 C 495.958 2.13199 -3.88666 0
M  V30 5335 H 493.178 0.179444 -0.646561 0
M  V30 5336 H 495.722 -0.0966459 -2.04271 0
M  V30 5337 H 493.877 2.05362 -3.28489 0
M  V30 5338 H 494.291 0.891097 -5.16875 0
M  V30 5339 H 495.765 2.577 -4.88154 0
M  V30 5340 H 496.242 2.97353 -3.23231 0
M  V30 5341 H 496.848 1.48118 -3.98674 0
M  V30 5342 N 495.163 1.55791 0.238111 0
M  V30 5343 C 496.411 1.77681 0.963001 0
M  V30 5344 C 496.732 0.600674 1.85518 0
M  V30 5345 O 496.002 -0.383182 1.92116 0
M  V30 5346 H 494.582 0.655315 0.358568 0
M  V30 5347 H 497.244 1.93239 0.253945 0
M  V30 5348 H 496.34 2.69177 1.57956 0
M  V30 5349 N 496.642 -0.504142 1.49319 0
M  V30 5350 C 497.87 -1.28256 1.62351 0
M  V30 5351 C 498.285 -1.86502 0.293682 0
M  V30 5352 O 497.642 -1.67678 -0.720449 0
M  V30 5353 C 497.693 -2.41507 2.68992 0
M  V30 5354 O 497.414 -1.85656 3.96817 0
M  V30 5355 C 498.915 -3.32929 2.927 0
M  V30 5356 H 496.135 -0.389115 0.546654 0
M  V30 5357 H 498.679 -0.605531 1.95329 0
M  V30 5358 H 496.834 -3.05046 2.38801 0
M  V30 5359 H 497.248 -2.59981 4.55533 0
M  V30 5360 H 498.722 -4.0868 3.71058 0
M  V30 5361 H 499.199 -3.89733 2.02496 0
M  V30 5362 H 499.805 -2.75158 3.24296 0
M  V30 5363 N 498.12 -1.38341 -0.754957 0
M  V30 5364 C 499.536 -1.19508 -1.05783 0
M  V30 5365 C 499.736 -0.0428005 -2.01455 0
M  V30 5366 O 498.792 0.611861 -2.44975 0
M  V30 5367 C 500.105 -2.52091 -1.63923 0
M  V30 5368 C 501.653 -2.58762 -1.76101 0
M  V30 5369 C 502.128 -3.91517 -2.37652 0
M  V30 5370 N 503.619 -3.93049 -2.45085 0
M  V30 5371 C 504.354 -4.9253 -2.93602 0
M  V30 5372 N 503.85 -6.02408 -3.42165 0
M  V30 5373 N 505.643 -4.79921 -2.92629 0
M  V30 5374 H 497.794 -2.1206 -0.120056 0
M  V30 5375 H 500.057 -0.94089 -0.11589 0
M  V30 5376 H 499.763 -3.36858 -1.01093 0
M  V30 5377 H 499.637 -2.70388 -2.63003 0
M  V30 5378 H 502.024 -1.74391 -2.38058 0
M  V30 5379 H 502.105 -2.44333 -0.757294 0
M  V30 5380 H 501.749 -4.76309 -1.76329 0
M  V30 5381 H 501.679 -4.03256 -3.38662 0
M  V30 5382 H 504.17 -3.13685 -2.10736 0
M  V30 5383 H 504.483 -6.74248 -3.77637 0
M  V30 5384 H 502.828 -6.0603 -3.40225 0
M  V30 5385 H 506.019 -3.93194 -2.54001 0
M  V30 5386 H 506.192 -5.57601 -3.30128 0
M  V30 5387 N 499.598 0.982988 -1.23187 0
M  V30 5388 C 501.009 1.53847 -1.05773 0
M  V30 5389 C 501.36 1.92568 0.375744 0
M  V30 5390 O 500.485 1.75783 1.26211 0
M  V30 5391 C 501.08 2.79567 -1.91384 0
M  V30 5392 C 499.639 3.31524 -1.78238 0
M  V30 5393 C 498.786 2.04534 -1.87246 0
M  V30 5394 H 501.737 0.802962 -1.36888 0
M  V30 5395 H 501.758 3.52317 -1.43711 0
M  V30 5396 H 501.27 2.51353 -2.95708 0
M  V30 5397 H 499.371 3.64623 -0.766875 0
M  V30 5398 H 499.484 4.01457 -2.61475 0
M  V30 5399 H 497.848 2.1855 -1.30797 0
M  V30 5400 H 498.631 1.78706 -2.9312 0
M  V30 5401 N 501.076 1.04316 1.18135 0
M  V30 5402 C 502.301 0.768047 1.92655 0
M  V30 5403 C 502.726 -0.66904 1.758 0
M  V30 5404 O 502.084 -1.46372 1.06981 0
M  V30 5405 C 502.132 1.14239 3.42026 0
M  V30 5406 O 501.236 0.269333 4.1152 0
M  V30 5407 H 500.577 0.282436 0.600937 0
M  V30 5408 H 503.107 1.39367 1.49793 0
M  V30 5409 H 503.117 1.10538 3.92741 0
M  V30 5410 H 501.792 2.18928 3.53615 0
M  V30 5411 H 500.369 0.366175 3.71098 0
M  V30 5412 N 502.554 -1.34406 0.822964 0
M  V30 5413 C 503.502 -2.31428 0.233165 0
M  V30 5414 C 504.496 -1.57404 -0.626118 0
M  V30 5415 O 505.702 -1.72402 -0.517453 0
M  V30 5416 H 502.077 -0.749863 0.0566557 0
M  V30 5417 H 504.048 -2.78699 1.06628 0
M  V30 5418 C 502.797 -3.42653 -0.590264 0
M  V30 5419 H 502.12 -3.99753 0.0616129 0
M  V30 5420 H 503.56 -4.12778 -0.969054 0
M  V30 5421 C 502.019 -2.87112 -1.76262 0
M  V30 5422 O 502.549 -2.81995 -2.8608 0
M  V30 5423 N 500.755 -2.43934 -1.57938 0
M  V30 5424 H 500.302 -2.48296 -0.686078 0
M  V30 5425 H 500.26 -2.07123 -2.36532 0
M  V30 5426 N 504.032 -0.577932 -1.46621 0
M  V30 5427 C 504.962 0.145917 -2.33044 0
M  V30 5428 C 505.943 0.888412 -1.45056 0
M  V30 5429 O 507.128 0.864812 -1.73881 0
M  V30 5430 C 504.258 1.16322 -3.27241 0
M  V30 5431 C 503.212 0.535868 -4.24632 0
M  V30 5432 C 502.538 1.65929 -5.08303 0
M  V30 5433 C 503.838 -0.523861 -5.19666 0
M  V30 5434 H 505.532 -0.575636 -2.93814 0
M  V30 5435 H 503.078 -0.278272 -1.41286 0
M  V30 5436 H 505.031 1.67793 -3.86553 0
M  V30 5437 H 503.755 1.91498 -2.64567 0
M  V30 5438 H 502.414 0.0422759 -3.66576 0
M  V30 5439 H 502.062 2.40061 -4.42018 0
M  V30 5440 H 501.762 1.2452 -5.74255 0
M  V30 5441 H 503.286 2.17686 -5.70478 0
M  V30 5442 H 504.7 -0.0944059 -5.73222 0
M  V30 5443 H 503.097 -0.858 -5.93935 0
M  V30 5444 H 504.167 -1.41197 -4.63887 0
M  V30 5445 N 505.51 1.54411 -0.315457 0
M  V30 5446 C 506.473 2.22713 0.54142 0
M  V30 5447 C 507.473 1.2179 1.04995 0
M  V30 5448 O 508.663 1.46426 0.943667 0
M  V30 5449 C 505.795 2.92485 1.75116 0
M  V30 5450 H 506.988 2.99849 -0.0555508 0
M  V30 5451 H 504.541 1.56159 -0.0664453 0
M  V30 5452 H 505.276 2.19466 2.38758 0
M  V30 5453 H 505.061 3.66483 1.39401 0
M  V30 5454 H 506.551 3.44548 2.35959 0
M  V30 5455 N 506.988 0.0434614 1.5754 0
M  V30 5456 C 507.936 -0.951465 2.1225 0
M  V30 5457 C 508.93 -1.3274 1.05245 0
M  V30 5458 O 510.136 -1.30795 1.23663 0
M  V30 5459 H 506.511 -0.324667 0.678303 0
M  V30 5460 H 508.482 -0.464855 2.94757 0
M  V30 5461 C 507.231 -2.21972 2.67626 0
M  V30 5462 H 506.554 -1.93923 3.4962 0
M  V30 5463 H 507.994 -2.89765 3.09536 0
M  V30 5464 C 506.453 -2.95919 1.61038 0
M  V30 5465 O 506.983 -3.8857 1.01862 0
M  V30 5466 N 505.189 -2.58511 1.32741 0
M  V30 5467 H 504.736 -1.83244 1.81051 0
M  V30 5468 H 504.694 -3.08296 0.616531 0
M  V30 5469 N 508.466 -1.55915 -0.229846 0
M  V30 5470 C 509.414 -1.9258 -1.30444 0
M  V30 5471 C 510.408 -0.806839 -1.48951 0
M  V30 5472 O 511.614 -0.991606 -1.50224 0
M  V30 5473 H 507.989 -0.611878 -0.437161 0
M  V30 5474 H 509.96 -2.82264 -0.96797 0
M  V30 5475 C 508.709 -2.25171 -2.6494 0
M  V30 5476 H 508.032 -3.10782 -2.51504 0
M  V30 5477 H 509.472 -2.54716 -3.38963 0
M  V30 5478 C 507.931 -1.07394 -3.19324 0
M  V30 5479 O 508.461 -0.330759 -4.00336 0
M  V30 5480 N 506.667 -0.859984 -2.77584 0
M  V30 5481 H 506.214 -1.46605 -2.11813 0
M  V30 5482 H 506.172 -0.0736671 -3.14314 0
M  V30 5483 N 509.944 0.496216 -1.49584 0
M  V30 5484 C 511.172 1.27394 -1.63029 0
M  V30 5485 C 511.587 1.86344 -0.303569 0
M  V30 5486 O 510.944 1.68057 0.711547 0
M  V30 5487 C 510.995 2.40077 -2.70269 0
M  V30 5488 O 510.716 1.83549 -3.97796 0
M  V30 5489 C 512.217 3.31372 -2.94462 0
M  V30 5490 H 509.437 0.386211 -0.54871 0
M  V30 5491 H 511.981 0.595163 -1.95648 0
M  V30 5492 H 510.136 3.03775 -2.40415 0
M  V30 5493 H 510.55 2.57561 -4.56905 0
M  V30 5494 H 512.024 4.06707 -3.73221 0
M  V30 5495 H 512.501 3.88654 -2.0456 0
M  V30 5496 H 513.107 2.73435 -3.25751 0
M  V30 5497 N 511.423 1.38739 0.74761 0
M  V30 5498 C 512.672 1.3459 1.50228 0
M  V30 5499 C 512.985 -0.0595592 1.95509 0
M  V30 5500 O 514.191 -0.22361 2.70578 0
M  V30 5501 C 512.647 2.36377 2.71393 0
M  V30 5502 C 512.255 3.82573 2.33113 0
M  V30 5503 C 513.999 2.41281 3.49262 0
M  V30 5504 C 511.906 4.76032 3.50924 0
M  V30 5505 H 510.836 0.500312 0.564096 0
M  V30 5506 H 513.487 1.64324 0.8167 0
M  V30 5507 H 511.869 1.99694 3.41962 0
M  V30 5508 H 513.043 4.28227 1.70171 0
M  V30 5509 H 511.358 3.80844 1.68365 0
M  V30 5510 H 513.955 3.08301 4.36869 0
M  V30 5511 H 514.298 1.43353 3.9084 0
M  V30 5512 H 514.831 2.76793 2.85711 0
M  V30 5513 H 511.57 5.75177 3.14408 0
M  V30 5514 H 511.09 4.35066 4.12889 0
M  V30 5515 H 512.769 4.94331 4.17427 0
M  V30 5516 N 512.901 -0.976442 1.23707 0
M  V30 5517 C 513.831 -2.08749 1.04624 0
M  V30 5518 C 514.812 -1.70057 -0.0380956 0
M  V30 5519 O 515.997 -1.93782 0.127308 0
M  V30 5520 C 513.127 -3.41335 0.640902 0
M  V30 5521 C 512.081 -3.93947 1.67302 0
M  V30 5522 C 511.407 -5.22774 1.12301 0
M  V30 5523 C 512.707 -4.22769 3.06697 0
M  V30 5524 H 514.401 -2.24972 1.97555 0
M  V30 5525 H 511.947 -1.08108 0.951247 0
M  V30 5526 H 513.9 -4.18489 0.494434 0
M  V30 5527 H 512.624 -3.24988 -0.324099 0
M  V30 5528 H 511.283 -3.18941 1.80755 0
M  V30 5529 H 510.931 -5.0278 0.148877 0
M  V30 5530 H 510.631 -5.58942 1.81267 0
M  V30 5531 H 512.155 -6.02546 0.988479 0
M  V30 5532 H 513.569 -4.90659 2.96524 0
M  V30 5533 H 511.966 -4.70147 3.72937 0
M  V30 5534 H 513.036 -3.29885 3.55392 0
M  V30 5535 N 514.379 -1.04941 -1.1758 0
M  V30 5536 C 515.625 -0.759112 -1.88057 0
M  V30 5537 C 515.958 0.711918 -1.8068 0
M  V30 5538 O 515.233 1.52035 -1.21308 0
M  V30 5539 C 515.516 -1.237 -3.38187 0
M  V30 5540 C 515.369 -2.77078 -3.54327 0
M  V30 5541 C 516.688 -0.834014 -4.32125 0
M  V30 5542 H 513.807 -0.277237 -0.682868 0
M  V30 5543 H 516.449 -1.30296 -1.38286 0
M  V30 5544 H 514.599 -0.774337 -3.80705 0
M  V30 5545 H 516.271 -3.31449 -3.20842 0
M  V30 5546 H 514.514 -3.16477 -2.96689 0
M  V30 5547 H 515.185 -3.05577 -4.59703 0
M  V30 5548 H 517.661 -1.23228 -3.97434 0
M  V30 5549 H 516.537 -1.19603 -5.35711 0
M  V30 5550 H 516.798 0.262195 -4.41322 0
M  V30 5551 N 515.857 1.33968 -0.830081 0
M  V30 5552 C 516.804 2.29387 -0.255008 0
M  V30 5553 C 517.774 1.53923 0.624243 0
M  V30 5554 O 518.959 1.82262 0.564372 0
M  V30 5555 C 516.099 3.4034 0.571209 0
M  V30 5556 C 515.212 4.30729 -0.331083 0
M  V30 5557 C 514.347 5.2879 0.505389 0
M  V30 5558 C 513.386 6.10819 -0.395843 0
M  V30 5559 N 512.523 7.00948 0.401979 0
M  V30 5560 H 517.363 2.77972 -1.07404 0
M  V30 5561 H 514.9 1.36785 -0.541133 0
M  V30 5562 H 516.858 4.03361 1.06562 0
M  V30 5563 H 515.488 2.9297 1.35529 0
M  V30 5564 H 514.54 3.68507 -0.943759 0
M  V30 5565 H 515.852 4.88181 -1.02377 0
M  V30 5566 H 515.006 5.97297 1.06399 0
M  V30 5567 H 513.745 4.71894 1.23155 0
M  V30 5568 H 512.75 5.41238 -0.966529 0
M  V30 5569 H 513.975 6.69797 -1.12023 0
M  V30 5570 H 511.921 6.46512 1.11168 0
M  V30 5571 H 511.838 7.55643 -0.232167 0
M  V30 5572 H 513.106 7.73774 0.943102 0
M  V30 5573 N 517.335 0.585699 1.46312 0
M  V30 5574 C 518.581 0.0808731 2.03239 0
M  V30 5575 C 518.936 -1.26609 1.44872 0
M  V30 5576 O 518.229 -1.81779 0.60556 0
M  V30 5577 C 518.423 -0.0401312 3.57377 0
M  V30 5578 C 518.252 1.29356 4.30694 0
M  V30 5579 C 517.022 1.86849 4.69484 0
M  V30 5580 C 519.22 2.21742 4.64042 0
M  V30 5581 N 517.202 3.13926 5.27564 0
M  V30 5582 C 518.573 3.33408 5.22723 0
M  V30 5583 C 520.628 2.21386 4.45974 0
M  V30 5584 C 519.331 4.44852 5.65242 0
M  V30 5585 C 521.357 3.31862 4.89511 0
M  V30 5586 C 520.719 4.42248 5.48266 0
M  V30 5587 H 516.818 0.072443 0.778637 0
M  V30 5588 H 519.402 0.779254 1.78426 0
M  V30 5589 H 517.573 -0.707686 3.81898 0
M  V30 5590 H 519.305 -0.549615 4.00951 0
M  V30 5591 H 516.06 1.40307 4.52339 0
M  V30 5592 H 516.484 3.78775 5.61122 0
M  V30 5593 H 521.126 1.37314 3.99881 0
M  V30 5594 H 518.844 5.29665 6.10312 0
M  V30 5595 H 522.43 3.32708 4.7728 0
M  V30 5596 H 521.31 5.26323 5.81338 0
M  V30 5597 N 518.813 -1.54241 0.323641 0
M  V30 5598 C 519.743 -2.27289 -0.534993 0
M  V30 5599 C 520.724 -1.28087 -1.11927 0
M  V30 5600 O 521.909 -1.56899 -1.14439 0
M  V30 5601 C 519.039 -3.03075 -1.69596 0
M  V30 5602 C 517.993 -4.09614 -1.24098 0
M  V30 5603 C 517.319 -4.73242 -2.4889 0
M  V30 5604 C 518.619 -5.21087 -0.355789 0
M  V30 5605 H 520.313 -2.99308 0.0743257 0
M  V30 5606 H 517.859 -1.43952 0.0371874 0
M  V30 5607 H 519.812 -3.52907 -2.30293 0
M  V30 5608 H 518.536 -2.28673 -2.33187 0
M  V30 5609 H 517.195 -3.60666 -0.656945 0
M  V30 5610 H 516.843 -3.95455 -3.10845 0
M  V30 5611 H 516.543 -5.45209 -2.19138 0
M  V30 5612 H 518.067 -5.25848 -3.10348 0
M  V30 5613 H 519.481 -5.66675 -0.869042 0
M  V30 5614 H 517.878 -5.9991 -0.151045 0
M  V30 5615 H 518.948 -4.81005 0.613339 0
M  V30 5616 N 520.291 -0.0518155 -1.57515 0
M  V30 5617 C 521.702 0.483787 -1.80323 0
M  V30 5618 C 522.053 1.70879 -0.964099 0
M  V30 5619 O 521.178 2.15643 -0.180872 0
M  V30 5620 C 521.773 0.884459 -3.27052 0
M  V30 5621 C 520.332 1.36504 -3.50776 0
M  V30 5622 C 519.479 0.340539 -2.75201 0
M  V30 5623 H 522.43 -0.277691 -1.56252 0
M  V30 5624 H 522.451 1.74733 -3.38007 0
M  V30 5625 H 521.963 -0.00731093 -3.88099 0
M  V30 5626 H 520.064 2.27598 -2.95009 0
M  V30 5627 H 520.177 1.35675 -4.59488 0
M  V30 5628 H 518.541 0.81356 -2.41357 0
M  V30 5629 H 519.324 -0.543156 -3.38976 0
M  V30 5630 N 521.769 1.56035 0.221574 0
M  V30 5631 C 522.701 1.889 1.29805 0
M  V30 5632 C 523.714 0.777269 1.43047 0
M  V30 5633 O 524.903 1.05557 1.43945 0
M  V30 5634 C 522.003 2.0825 2.67367 0
M  V30 5635 C 521.176 3.39267 2.76073 0
M  V30 5636 C 520.235 3.48049 3.94649 0
M  V30 5637 O 519.261 4.2108 3.82988 0
M  V30 5638 N 520.463 2.79191 5.08953 0
M  V30 5639 H 523.228 2.81831 1.01938 0
M  V30 5640 H 520.789 1.5658 0.411612 0
M  V30 5641 H 522.781 2.11441 3.45072 0
M  V30 5642 H 521.351 1.21944 2.87834 0
M  V30 5643 H 520.571 3.48175 1.84846 0
M  V30 5644 H 521.859 4.25575 2.7886 0
M  V30 5645 H 521.257 2.19635 5.21322 0
M  V30 5646 H 519.814 2.88043 5.84701 0
M  V30 5647 N 523.247 -0.488276 1.49845 0
M  V30 5648 C 524.195 -1.60917 1.67954 0
M  V30 5649 C 525.189 -1.6038 0.54539 0
M  V30 5650 O 526.395 -1.64736 0.7254 0
M  V30 5651 H 522.77 -0.533658 0.529824 0
M  V30 5652 H 524.741 -1.428 2.62013 0
M  V30 5653 C 523.49 -2.98975 1.77509 0
M  V30 5654 H 522.813 -3.00099 2.6416 0
M  V30 5655 H 524.253 -3.76906 1.9421 0
M  V30 5656 C 522.712 -3.3282 0.522745 0
M  V30 5657 O 523.242 -4.00208 -0.345866 0
M  V30 5658 N 521.448 -2.8808 0.381882 0
M  V30 5659 H 520.995 -2.33415 1.08974 0
M  V30 5660 H 520.953 -3.11091 -0.454929 0
M  V30 5661 N 524.725 -1.39134 -0.740242 0
M  V30 5662 C 526.002 -1.26584 -1.49117 0
M  V30 5663 C 526.382 0.126902 -2.10718 0
M  V30 5664 O 525.73 1.13765 -1.98166 0
M  V30 5665 C 525.94 -2.38619 -2.54681 0
M  V30 5666 C 527.288 -2.77685 -3.21211 0
M  V30 5667 O 528.312 -2.38029 -2.64991 0
M  V30 5668 O 527.171 -3.46115 -4.22926 0
M  V30 5669 H 524.265 -0.495769 -0.661923 0
M  V30 5670 H 526.811 -1.50995 -0.774514 0
M  V30 5671 H 525.583 -3.3175 -2.07504 0
M  V30 5672 H 525.206 -2.15845 -3.33911 0
M  V30 5673 N 526.204 0.969867 -1.24223 0
M  V30 5674 C 527.134 2.08191 -1.05729 0
M  V30 5675 C 528.115 1.70075 0.0290765 0
M  V30 5676 O 529.3 1.93712 -0.137583 0
M  V30 5677 C 526.43 3.40991 -0.658995 0
M  V30 5678 C 525.384 3.93054 -1.69389 0
M  V30 5679 C 524.71 5.22171 -1.15072 0
M  V30 5680 C 526.01 4.21137 -3.08935 0
M  V30 5681 H 527.704 2.23921 -1.98746 0
M  V30 5682 H 525.25 1.07602 -0.956967 0
M  V30 5683 H 527.203 4.18221 -0.51662 0
M  V30 5684 H 525.927 3.25155 0.30686 0
M  V30 5685 H 524.586 3.17977 -1.82444 0
M  V30 5686 H 524.234 5.02694 -0.175539 0
M  V30 5687 H 523.934 5.57973 -1.84229 0
M  V30 5688 H 525.458 6.02013 -1.02042 0
M  V30 5689 H 526.872 4.8908 -2.99121 0
M  V30 5690 H 525.269 4.68163 -3.75425 0
M  V30 5691 H 526.339 3.27996 -3.57137 0
M  V30 5692 N 527.682 1.05563 1.17022 0
M  V30 5693 C 528.612 0.681026 2.23348 0
M  V30 5694 C 529.593 -0.322983 1.67005 0
M  V30 5695 O 530.778 -0.199746 1.9317 0
M  V30 5696 C 527.908 0.0589053 3.4725 0
M  V30 5697 C 526.862 0.988082 4.16438 0
M  V30 5698 C 526.188 0.229646 5.34207 0
M  V30 5699 C 527.488 2.31388 4.68249 0
M  V30 5700 H 529.182 1.56993 2.54938 0
M  V30 5701 H 526.728 0.756302 1.2254 0
M  V30 5702 H 528.681 -0.214982 4.20851 0
M  V30 5703 H 527.405 -0.864968 3.14938 0
M  V30 5704 H 526.064 1.24659 3.44754 0
M  V30 5705 H 525.712 -0.697111 4.98146 0
M  V30 5706 H 525.412 0.848815 5.81437 0
M  V30 5707 H 526.936 -0.0368694 6.10589 0
M  V30 5708 H 528.35 2.09964 5.33468 0
M  V30 5709 H 526.747 2.88736 5.26072 0
M  V30 5710 H 527.817 2.94982 3.84855 0
M  V30 5711 N 529.16 -1.33526 0.837174 0
M  V30 5712 C 530.408 -1.97446 0.431211 0
M  V30 5713 C 530.729 -1.6665 -1.01255 0
M  V30 5714 O 529.999 -0.964559 -1.70508 0
M  V30 5715 H 528.579 -0.73043 0.156463 0
M  V30 5716 H 531.241 -1.62918 1.06976 0
M  V30 5717 H 530.337 -3.07001 0.561877 0
M  V30 5718 N 530.638 -0.59345 -1.46 0
M  V30 5719 C 531.588 0.154751 -2.27474 0
M  V30 5720 C 532.572 0.851849 -1.365 0
M  V30 5721 O 533.764 0.744171 -1.60596 0
M  V30 5722 C 530.893 1.16079 -3.2308 0
M  V30 5723 C 529.979 0.465256 -4.2154 0
M  V30 5724 N 530.37 -0.485197 -5.03467 0
M  V30 5725 C 528.668 0.714634 -4.40237 0
M  V30 5726 C 529.369 -0.892709 -5.74809 0
M  V30 5727 N 528.345 -0.239511 -5.43072 0
M  V30 5728 H 532.147 -0.57546 -2.88211 0
M  V30 5729 H 529.661 -0.416046 -1.5698 0
M  V30 5730 H 531.658 1.71108 -3.80168 0
M  V30 5731 H 530.318 1.89171 -2.63903 0
M  V30 5732 H 531.329 -0.861258 -5.10689 0
M  V30 5733 H 528.006 1.43131 -3.92199 0
M  V30 5734 H 529.396 -1.67581 -6.50666 0
M  V30 5735 N 532.116 1.54067 -0.331816 0
M  V30 5736 C 533.527 1.86059 0.15454 0
M  V30 5737 C 533.878 1.25331 1.50952 0
M  V30 5738 O 533.003 0.562441 2.08963 0
M  V30 5739 C 533.598 3.37581 0.287192 0
M  V30 5740 C 532.157 3.69493 0.717773 0
M  V30 5741 C 531.304 2.76863 -0.155569 0
M  V30 5742 H 534.255 1.48797 -0.55182 0
M  V30 5743 H 534.276 3.63744 1.11671 0
M  V30 5744 H 533.788 3.81751 -0.699131 0
M  V30 5745 H 531.889 3.3086 1.71354 0
M  V30 5746 H 532.002 4.76315 0.5158 0
M  V30 5747 H 530.366 2.51995 0.370213 0
M  V30 5748 H 531.149 3.23861 -1.13881 0
M  V30 5749 N 533.594 0.0601682 1.57485 0
M  V30 5750 C 534.527 -0.94676 2.07634 0
M  V30 5751 C 535.505 -1.29837 0.978826 0
M  V30 5752 O 536.689 -1.40969 1.2514 0
M  V30 5753 C 533.816 -2.25822 2.52433 0
M  V30 5754 C 532.862 -2.05901 3.73507 0
M  V30 5755 S 533.695 -1.32907 5.18745 0
M  V30 5756 C 534.851 -2.65356 5.66866 0
M  V30 5757 H 535.084 -0.520003 2.92717 0
M  V30 5758 H 532.617 -0.152319 1.53647 0
M  V30 5759 H 534.575 -3.01201 2.78905 0
M  V30 5760 H 533.236 -2.65624 1.67639 0
M  V30 5761 H 532.429 -3.02929 4.02803 0
M  V30 5762 H 532.031 -1.38659 3.47347 0
M  V30 5763 H 534.323 -3.61492 5.73001 0
M  V30 5764 H 535.266 -2.40685 6.6594 0
M  V30 5765 H 535.674 -2.72028 4.94632 0
M  V30 5766 N 535.072 -1.5615 -0.213296 0
M  V30 5767 C 536.3 -1.83638 -0.953139 0
M  V30 5768 C 536.715 -0.640362 -1.77609 0
M  V30 5769 O 536.072 0.391071 -1.78261 0
M  V30 5770 C 536.123 -3.09735 -1.86405 0
M  V30 5771 O 535.844 -4.24723 -1.07435 0
M  V30 5772 C 537.345 -3.5027 -2.71709 0
M  V30 5773 H 534.565 -0.610263 -0.278962 0
M  V30 5774 H 537.109 -2.03247 -0.226035 0
M  V30 5775 H 535.264 -2.92077 -2.545 0
M  V30 5776 H 535.678 -4.9641 -1.69343 0
M  V30 5777 H 537.152 -4.41515 -3.31313 0
M  V30 5778 H 537.629 -2.72406 -3.44516 0
M  V30 5779 H 538.235 -3.70396 -2.09015 0
M  V30 5780 N 536.55 0.480323 -1.50102 0
M  V30 5781 C 537.966 0.813295 -1.37323 0
M  V30 5782 C 538.166 1.97027 -0.422206 0
M  V30 5783 O 537.222 2.5212 0.138563 0
M  V30 5784 C 538.535 1.13404 -2.78496 0
M  V30 5785 C 540.083 1.24104 -2.87345 0
M  V30 5786 C 540.558 1.59497 -4.29331 0
M  V30 5787 N 542.049 1.66507 -4.32238 0
M  V30 5788 C 542.784 1.95378 -5.39087 0
M  V30 5789 N 542.28 2.22333 -6.56155 0
M  V30 5790 N 544.073 1.96803 -5.26522 0
M  V30 5791 H 536.224 -0.282291 -2.10516 0
M  V30 5792 H 538.487 -0.063752 -0.945854 0
M  V30 5793 H 538.193 0.357064 -3.49883 0
M  V30 5794 H 538.067 2.07251 -3.15162 0
M  V30 5795 H 540.454 2.00871 -2.16183 0
M  V30 5796 H 540.535 0.282593 -2.54234 0
M  V30 5797 H 540.179 0.832736 -5.01027 0
M  V30 5798 H 540.109 2.56477 -4.59921 0
M  V30 5799 H 542.6 1.47753 -3.47818 0
M  V30 5800 H 542.913 2.43611 -7.33399 0
M  V30 5801 H 541.258 2.19745 -6.59346 0
M  V30 5802 H 544.449 1.75235 -4.34062 0
M  V30 5803 H 544.622 2.18969 -6.09883 0
M  V30 5804 N 538.028 1.39524 0.732853 0
M  V30 5805 C 538.991 1.38189 1.82857 0
M  V30 5806 C 539.991 0.278624 1.58368 0
M  V30 5807 O 541.181 0.536639 1.65728 0
M  V30 5808 C 538.313 1.15661 3.2068 0
M  V30 5809 H 539.506 2.35692 1.85444 0
M  V30 5810 H 537.059 1.2512 0.936728 0
M  V30 5811 H 537.794 0.188482 3.23752 0
M  V30 5812 H 537.579 1.95559 3.39852 0
M  V30 5813 H 539.069 1.17472 4.00737 0
M  V30 5814 N 539.506 -0.963266 1.24736 0
M  V30 5815 C 540.753 -1.7068 1.0897 0
M  V30 5816 C 541.081 -1.90934 -0.370751 0
M  V30 5817 O 540.336 -1.47155 -1.29011 0
M  V30 5818 C 540.635 -3.09944 1.7796 0
M  V30 5819 C 540.301 -3.09518 3.27887 0
M  V30 5820 C 538.963 -3.09109 3.68789 0
M  V30 5821 C 541.315 -3.03509 4.23712 0
M  V30 5822 C 538.643 -3.00429 5.03944 0
M  V30 5823 C 540.995 -2.96371 5.5888 0
M  V30 5824 C 539.659 -2.94293 5.99123 0
M  V30 5825 H 538.929 -0.624564 0.398749 0
M  V30 5826 H 541.576 -1.12603 1.54896 0
M  V30 5827 H 539.881 -3.71513 1.2444 0
M  V30 5828 H 541.578 -3.66278 1.63222 0
M  V30 5829 H 538.168 -3.10603 2.95337 0
M  V30 5830 H 542.352 -3.0295 3.93109 0
M  V30 5831 H 537.608 -2.97183 5.34314 0
M  V30 5832 H 541.782 -2.90681 6.32833 0
M  V30 5833 H 539.409 -2.87322 7.03811 0
M  V30 5834 N 540.985 -1.06182 -1.16461 0
M  V30 5835 C 542.234 -0.772927 -1.86303 0
M  V30 5836 C 542.547 0.703187 -1.82523 0
M  V30 5837 O 543.753 1.10641 -2.47933 0
M  V30 5838 C 542.209 -1.33249 -3.34324 0
M  V30 5839 C 541.817 -2.83876 -3.46581 0
M  V30 5840 C 543.561 -1.12108 -4.09429 0
M  V30 5841 C 541.468 -3.33082 -4.88682 0
M  V30 5842 H 540.398 -0.285452 -0.697878 0
M  V30 5843 H 543.049 -1.28039 -1.31447 0
M  V30 5844 H 541.431 -0.7528 -3.88779 0
M  V30 5845 H 542.605 -3.47786 -3.02293 0
M  V30 5846 H 540.92 -3.03671 -2.84909 0
M  V30 5847 H 543.517 -1.46361 -5.14279 0
M  V30 5848 H 543.86 -0.0593832 -4.16258 0
M  V30 5849 H 544.393 -1.6665 -3.6121 0
M  V30 5850 H 541.132 -4.38726 -4.87032 0
M  V30 5851 H 540.652 -2.73919 -5.33599 0
M  V30 5852 H 542.331 -3.28344 -5.57494 0
M  V30 5853 N 542.463 1.3308 -0.844243 0
M  V30 5854 C 543.691 2.01808 -0.456203 0
M  V30 5855 C 544.106 1.63498 0.944131 0
M  V30 5856 O 543.463 0.85102 1.61443 0
M  V30 5857 C 543.514 3.56922 -0.573513 0
M  V30 5858 O 543.235 3.93851 -1.91868 0
M  V30 5859 C 544.736 4.42922 -0.183125 0
M  V30 5860 H 541.956 0.646273 -0.180477 0
M  V30 5861 H 544.5 1.69891 -1.1383 0
M  V30 5862 H 542.655 3.87352 0.0607367 0
M  V30 5863 H 543.069 4.88564 -1.90802 0
M  V30 5864 H 544.543 5.51093 -0.316241 0
M  V30 5865 H 545.02 4.30386 0.875477 0
M  V30 5866 H 545.626 4.1786 -0.792027 0
M  V30 5867 N 543.941 0.601185 1.45683 0
M  V30 5868 C 544.891 -0.142686 2.27553 0
M  V30 5869 C 545.875 -0.844598 1.3695 0
M  V30 5870 O 547.067 -0.735644 1.60988 0
M  V30 5871 C 544.196 -1.14364 3.23691 0
M  V30 5872 C 543.282 -0.442894 4.21781 0
M  V30 5873 N 543.673 0.51189 5.03203 0
M  V30 5874 C 541.971 -0.691277 4.4061 0
M  V30 5875 C 542.672 0.92318 5.74328 0
M  V30 5876 N 541.648 0.268308 5.42937 0
M  V30 5877 H 545.45 0.590736 2.87902 0
M  V30 5878 H 542.964 0.424365 1.56757 0
M  V30 5879 H 544.961 -1.6909 3.8107 0
M  V30 5880 H 543.621 -1.87768 2.64902 0
M  V30 5881 H 544.632 0.888329 5.10225 0
M  V30 5882 H 541.309 -1.41049 3.92952 0
M  V30 5883 H 542.699 1.71029 6.49768 0
M  V30 5884 N 545.419 -1.53889 0.339982 0
M  V30 5885 C 546.382 -2.23547 -0.50592 0
M  V30 5886 C 547.382 -1.23445 -1.03044 0
M  V30 5887 O 548.572 -1.47909 -0.920253 0
M  V30 5888 C 545.704 -2.95234 -1.7044 0
M  V30 5889 H 546.897 -2.99722 0.103247 0
M  V30 5890 H 544.45 -1.56033 0.0912804 0
M  V30 5891 H 545.185 -2.23236 -2.35236 0
M  V30 5892 H 544.97 -3.68654 -1.33553 0
M  V30 5893 H 546.46 -3.48258 -2.30447 0
M  V30 5894 N 546.897 -0.0685191 -1.57451 0
M  V30 5895 C 548.145 0.60016 -1.92983 0
M  V30 5896 C 548.466 1.70348 -0.949028 0
M  V30 5897 O 547.736 1.959 0.00335647 0
M  V30 5898 H 546.316 0.224682 -0.712409 0
M  V30 5899 H 548.978 -0.125605 -1.94495 0
M  V30 5900 H 548.074 1.02759 -2.94698 0
M  V30 5901 N 548.375 1.56261 0.205012 0
M  V30 5902 C 549.6 1.84491 0.947512 0
M  V30 5903 C 550.025 0.650894 1.76479 0
M  V30 5904 O 549.383 -0.40035 1.76824 0
M  V30 5905 C 549.431 3.10863 1.82747 0
M  V30 5906 O 548.535 2.90719 2.925 0
M  V30 5907 H 547.876 0.607783 0.267386 0
M  V30 5908 H 550.406 2.03485 0.213323 0
M  V30 5909 H 550.416 3.41399 2.23407 0
M  V30 5910 H 549.091 3.97392 1.2269 0
M  V30 5911 H 547.668 2.71457 2.55667 0
M  V30 5912 N 549.853 -0.472356 1.50355 0
M  V30 5913 C 550.803 -1.56809 1.65514 0
M  V30 5914 C 551.787 -1.5261 0.509801 0
M  V30 5915 O 552.979 -1.59655 0.764145 0
M  V30 5916 C 550.108 -2.9526 1.75146 0
M  V30 5917 C 549.194 -3.04348 2.95353 0
M  V30 5918 N 549.585 -2.83253 4.19048 0
M  V30 5919 C 547.883 -3.35482 2.93884 0
M  V30 5920 C 548.584 -2.97273 5.00003 0
M  V30 5921 N 547.56 -3.27418 4.33934 0
M  V30 5922 H 551.362 -1.39197 2.58846 0
M  V30 5923 H 548.876 -0.67906 1.47521 0
M  V30 5924 H 550.873 -3.74044 1.8411 0
M  V30 5925 H 549.533 -3.1392 0.829717 0
M  V30 5926 H 550.544 -2.5886 4.48567 0
M  V30 5927 H 547.221 -3.60138 2.11204 0
M  V30 5928 H 548.611 -2.85214 6.08361 0
M  V30 5929 N 551.331 -1.39911 -0.725443 0
M  V30 5930 C 552.579 -1.37382 -1.48224 0
M  V30 5931 C 552.9 0.0264107 -1.94982 0
M  V30 5932 O 552.17 0.979408 -1.6966 0
M  V30 5933 H 550.75 -0.505596 -0.549892 0
M  V30 5934 H 553.412 -1.7487 -0.860608 0
M  V30 5935 H 552.508 -2.04254 -2.3598 0
M  V30 5936 N 552.809 0.956637 -1.25245 0
M  V30 5937 C 554.055 1.70352 -1.10036 0
M  V30 5938 C 554.388 1.90869 0.358156 0
M  V30 5939 O 553.663 1.47819 1.26411 0
M  V30 5940 C 553.946 3.08766 -1.85298 0
M  V30 5941 C 553.799 2.95672 -3.38966 0
M  V30 5942 C 555.118 4.08622 -1.63451 0
M  V30 5943 H 552.237 0.618279 -0.401123 0
M  V30 5944 H 554.879 1.11212 -1.54051 0
M  V30 5945 H 553.029 3.59252 -1.47887 0
M  V30 5946 H 554.701 2.52527 -3.86041 0
M  V30 5947 H 552.944 2.31634 -3.6678 0
M  V30 5948 H 553.615 3.93776 -3.86839 0
M  V30 5949 H 556.091 3.67038 -1.96015 0
M  V30 5950 H 554.967 5.03514 -2.18551 0
M  V30 5951 H 555.228 4.3834 -0.575357 0
M  V30 5952 N 554.287 1.06798 1.15896 0
M  V30 5953 C 555.517 0.807522 1.90165 0
M  V30 5954 C 555.925 -0.642417 1.7796 0
M  V30 5955 O 555.268 -1.45193 1.12537 0
M  V30 5956 C 555.33 1.12939 3.41299 0
M  V30 5957 C 554.994 2.57879 3.7729 0
M  V30 5958 C 555.991 3.56118 3.78782 0
M  V30 5959 C 553.676 2.93311 4.07767 0
M  V30 5960 C 555.67 4.87827 4.10248 0
M  V30 5961 C 553.357 4.25219 4.38899 0
M  V30 5962 C 554.355 5.22287 4.4012 0
M  V30 5963 O 554.043 6.51826 4.70508 0
M  V30 5964 H 553.775 0.291946 0.609708 0
M  V30 5965 H 556.329 1.42627 1.47806 0
M  V30 5966 H 554.559 0.45359 3.84031 0
M  V30 5967 H 556.248 0.852363 3.9685 0
M  V30 5968 H 557.014 3.30086 3.55342 0
M  V30 5969 H 552.893 2.18409 4.05979 0
M  V30 5970 H 556.437 5.63586 4.11116 0
M  V30 5971 H 552.334 4.51006 4.61805 0
M  V30 5972 H 553.102 6.56893 4.88298 0
M  V30 5973 N 555.766 -1.3263 0.851289 0
M  V30 5974 C 556.676 -2.32722 0.296268 0
M  V30 5975 C 557.692 -1.63901 -0.584162 0
M  V30 5976 O 558.868 -1.95465 -0.485334 0
M  V30 5977 C 555.933 -3.42942 -0.509103 0
M  V30 5978 C 554.994 -4.2746 0.397069 0
M  V30 5979 C 554.227 -5.32416 -0.36996 0
M  V30 5980 O 554.45 -5.47491 -1.6003 0
M  V30 5981 O 553.384 -6.01327 0.262493 0
M  V30 5982 H 557.21 -2.82078 1.12543 0
M  V30 5983 H 554.795 -1.36194 0.614135 0
M  V30 5984 H 556.677 -4.1017 -0.96634 0
M  V30 5985 H 555.352 -2.95781 -1.31512 0
M  V30 5986 H 554.259 -3.63053 0.902411 0
M  V30 5987 H 555.592 -4.78136 1.16818 0
M  V30 5988 N 557.244 -0.608902 -1.45362 0
M  V30 5989 C 558.469 -0.10921 -2.07112 0
M  V30 5990 C 558.894 1.19779 -1.45033 0
M  V30 5991 O 558.252 1.72961 -0.543527 0
M  V30 5992 C 558.3 0.0155745 -3.60597 0
M  V30 5993 O 557.404 1.06546 -3.98399 0
M  V30 5994 H 556.745 -0.0746619 -0.659789 0
M  V30 5995 H 559.275 -0.839283 -1.86594 0
M  V30 5996 H 559.285 0.213364 -4.07442 0
M  V30 5997 H 557.96 -0.938765 -4.05167 0
M  V30 5998 H 556.537 0.844024 -3.63223 0
M  V30 5999 N 558.722 1.53707 -0.348139 0
M  V30 6000 C 559.971 2.0017 0.247992 0
M  V30 6001 C 560.284 1.23983 1.51286 0
M  V30 6002 O 561.49 1.60946 2.18652 0
M  V30 6003 C 559.946 3.56515 0.492459 0
M  V30 6004 C 559.554 4.41562 -0.756777 0
M  V30 6005 C 561.298 4.11381 1.0472 0
M  V30 6006 C 559.205 5.89426 -0.482856 0
M  V30 6007 H 558.135 0.747806 0.0964452 0
M  V30 6008 H 560.786 1.77532 -0.464179 0
M  V30 6009 H 559.168 3.75236 1.26545 0
M  V30 6010 H 560.342 4.34615 -1.53122 0
M  V30 6011 H 558.657 3.97711 -1.23348 0
M  V30 6012 H 561.254 5.19468 1.26717 0
M  V30 6013 H 561.597 3.64885 2.00411 0
M  V30 6014 H 562.13 3.96389 0.334801 0
M  V30 6015 H 558.869 6.40164 -1.40962 0
M  V30 6016 H 558.389 5.99264 0.253416 0
M  V30 6017 H 560.068 6.4692 -0.101816 0
M  V30 6018 N 560.2 0.0768682 1.57412 0
M  V30 6019 C 561.44 -0.594676 1.95558 0
M  V30 6020 C 561.804 -1.66469 0.956658 0
M  V30 6021 O 563.005 -2.39215 1.22595 0
M  V30 6022 C 561.276 -1.15206 3.38323 0
M  V30 6023 S 562.835 -1.83803 3.9845 0
M  V30 6024 H 559.653 -0.194579 0.683857 0
M  V30 6025 H 562.255 0.151933 1.94909 0
M  V30 6026 H 560.959 -0.36153 4.08805 0
M  V30 6027 H 560.49 -1.93491 3.42527 0
M  V30 6028 H 562.505 -3.12087 3.85767 0
M  V30 6029 N 561.678 -1.56367 -0.196722 0
M  V30 6030 C 562.626 -1.95304 -1.2633 0
M  V30 6031 C 563.62 -0.838252 -1.47206 0
M  V30 6032 O 564.826 -1.02325 -1.48087 0
M  V30 6033 H 561.201 -0.621013 -0.424083 0
M  V30 6034 H 563.172 -2.84254 -0.907879 0
M  V30 6035 C 561.921 -2.3074 -2.60104 0
M  V30 6036 H 561.244 -3.16047 -2.44856 0
M  V30 6037 H 562.684 -2.61849 -3.33484 0
M  V30 6038 C 561.143 -1.14143 -3.16975 0
M  V30 6039 O 561.673 -0.415602 -3.99544 0
M  V30 6040 N 559.879 -0.91867 -2.75697 0
M  V30 6041 H 559.426 -1.51065 -2.08656 0
M  V30 6042 H 559.384 -0.140321 -3.14087 0
M  V30 6043 N 563.156 0.464375 -1.50603 0
M  V30 6044 C 564.404 1.21356 -1.61608 0
M  V30 6045 C 564.725 1.92329 -0.321643 0
M  V30 6046 O 563.995 1.84403 0.661232 0
M  V30 6047 H 562.575 0.45094 -0.595535 0
M  V30 6048 H 565.237 0.535046 -1.87412 0
M  V30 6049 H 564.333 1.95783 -2.43054 0
M  V30 6050 N 564.634 1.40294 0.718013 0
M  V30 6051 C 565.88 1.38645 1.48005 0
M  V30 6052 C 566.213 -0.0121202 1.94196 0
M  V30 6053 O 565.488 -0.980309 1.67989 0
M  V30 6054 C 565.771 2.37379 2.70782 0
M  V30 6055 C 565.624 3.8625 2.30501 0
M  V30 6056 C 566.943 2.33685 3.72933 0
M  V30 6057 H 564.062 0.504928 0.536858 0
M  V30 6058 H 566.704 1.71411 0.819649 0
M  V30 6059 H 564.854 2.09568 3.27129 0
M  V30 6060 H 566.526 4.24879 1.79655 0
M  V30 6061 H 564.769 4.02202 1.6253 0
M  V30 6062 H 565.44 4.50847 3.18498 0
M  V30 6063 H 567.916 2.58314 3.2621 0
M  V30 6064 H 566.792 3.0482 4.56482 0
M  V30 6065 H 567.053 1.34765 4.21059 0
M  V30 6066 N 566.112 -0.949982 1.2575 0
M  V30 6067 C 567.523 -1.50989 1.09815 0
M  V30 6068 C 567.874 -1.93497 -0.324556 0
M  V30 6069 O 566.999 -1.79068 -1.21506 0
M  V30 6070 C 567.594 -2.74394 1.98729 0
M  V30 6071 C 566.153 -3.26682 1.86965 0
M  V30 6072 C 565.3 -1.99498 1.92603 0
M  V30 6073 H 568.251 -0.766387 1.38968 0
M  V30 6074 H 568.272 -3.48383 1.53001 0
M  V30 6075 H 567.784 -2.43425 3.02268 0
M  V30 6076 H 565.885 -3.62461 0.863279 0
M  V30 6077 H 565.998 -3.94383 2.72027 0
M  V30 6078 H 564.362 -2.15005 1.36546 0
M  V30 6079 H 565.145 -1.70871 2.97755 0
M  V30 6080 N 567.59 -1.07411 -1.15328 0
M  V30 6081 C 568.523 -0.63913 -2.19067 0
M  V30 6082 C 569.501 0.343929 -1.58921 0
M  V30 6083 O 570.685 0.250207 -1.86832 0
M  V30 6084 C 567.812 0.0613977 -3.38644 0
M  V30 6085 C 566.858 -0.880201 -4.17318 0
M  V30 6086 S 567.691 -2.38152 -4.79629 0
M  V30 6087 C 568.847 -1.69281 -6.02573 0
M  V30 6088 H 569.08 -1.51799 -2.55626 0
M  V30 6089 H 566.613 -0.888138 -1.26299 0
M  V30 6090 H 568.571 0.459323 -4.07922 0
M  V30 6091 H 567.232 0.916605 -3.00428 0
M  V30 6092 H 566.425 -0.336781 -5.02874 0
M  V30 6093 H 566.027 -1.21854 -3.53592 0
M  V30 6094 H 568.319 -1.00488 -6.70006 0
M  V30 6095 H 569.262 -2.52671 -6.61485 0
M  V30 6096 H 569.67 -1.17053 -5.52231 0
M  V30 6097 N 569.068 1.32177 -0.85831 0
M  V30 6098 C 570.314 1.97417 -0.46417 0
M  V30 6099 C 570.647 1.67746 0.978514 0
M  V30 6100 O 569.922 0.967654 1.68721 0
M  V30 6101 C 570.205 3.53069 -0.708094 0
M  V30 6102 C 570.058 3.92357 -2.19946 0
M  V30 6103 C 571.377 4.39783 -0.166881 0
M  V30 6104 H 568.496 0.717097 -0.17012 0
M  V30 6105 H 571.138 1.56499 -1.07741 0
M  V30 6106 H 569.288 3.88054 -0.186128 0
M  V30 6107 H 570.96 3.67533 -2.78779 0
M  V30 6108 H 569.203 3.41384 -2.67656 0
M  V30 6109 H 569.874 5.00841 -2.32082 0
M  V30 6110 H 572.35 4.11556 -0.613285 0
M  V30 6111 H 571.226 5.47671 -0.367093 0
M  V30 6112 H 571.487 4.32196 0.930559 0
M  V30 6113 N 570.547 0.616602 1.45037 0
M  V30 6114 C 571.48 -0.145984 2.27733 0
M  V30 6115 C 572.458 -0.865108 1.37676 0
M  V30 6116 O 573.642 -0.872152 1.6711 0
M  V30 6117 C 570.769 -1.2122 3.16265 0
M  V30 6118 C 569.815 -0.595218 4.22326 0
M  V30 6119 S 570.648 0.603744 5.32086 0
M  V30 6120 C 571.804 -0.462842 6.24186 0
M  V30 6121 H 572.037 0.555591 2.92062 0
M  V30 6122 H 569.57 0.404364 1.49011 0
M  V30 6123 H 571.528 -1.82247 3.67827 0
M  V30 6124 H 570.189 -1.88589 2.51183 0
M  V30 6125 H 569.382 -1.39775 4.8423 0
M  V30 6126 H 568.984 -0.0598965 3.73952 0
M  V30 6127 H 571.276 -1.33945 6.64127 0
M  V30 6128 H 572.219 0.120259 7.07998 0
M  V30 6129 H 572.627 -0.782219 5.59054 0
M  V30 6130 N 572.025 -1.5352 0.356285 0
M  V30 6131 C 572.958 -2.2177 -0.537913 0
M  V30 6132 C 573.936 -1.20626 -1.09033 0
M  V30 6133 O 575.12 -1.49494 -1.1482 0
M  V30 6134 C 572.247 -2.90513 -1.74126 0
M  V30 6135 C 571.293 -4.05652 -1.31715 0
M  V30 6136 S 572.126 -5.34505 -0.326236 0
M  V30 6137 C 573.282 -6.06757 -1.53612 0
M  V30 6138 H 573.515 -2.97271 0.0417411 0
M  V30 6139 H 571.048 -1.53761 0.140372 0
M  V30 6140 H 573.006 -3.30735 -2.43155 0
M  V30 6141 H 571.667 -2.14754 -2.29215 0
M  V30 6142 H 570.86 -4.52733 -2.21471 0
M  V30 6143 H 570.462 -3.67272 -0.706183 0
M  V30 6144 H 572.754 -6.30924 -2.46863 0
M  V30 6145 H 573.697 -6.99395 -1.10687 0
M  V30 6146 H 574.105 -5.3708 -1.73796 0
M  V30 6147 N 573.503 -0.0852151 -1.57369 0
M  V30 6148 C 574.914 0.445428 -1.81309 0
M  V30 6149 C 575.265 1.68795 -1.00013 0
M  V30 6150 O 574.39 2.15211 -0.226573 0
M  V30 6151 C 574.985 0.814887 -3.28854 0
M  V30 6152 C 573.544 1.29032 -3.53592 0
M  V30 6153 C 572.691 0.282089 -2.75861 0
M  V30 6154 H 575.642 -0.310771 -1.55627 0
M  V30 6155 H 575.663 1.67524 -3.41637 0
M  V30 6156 H 575.175 -0.0896309 -3.87996 0
M  V30 6157 H 573.276 2.21289 -2.9977 0
M  V30 6158 H 573.389 1.25898 -4.62262 0
M  V30 6159 H 571.753 0.762182 -2.43029 0
M  V30 6160 H 572.536 -0.614936 -3.37748 0
M  V30 6161 N 574.981 1.5647 0.188427 0
M  V30 6162 C 575.911 1.98101 1.23606 0
M  V30 6163 C 576.892 0.853961 1.47111 0
M  V30 6164 O 578.077 1.11879 1.58735 0
M  V30 6165 C 575.207 2.32624 2.57882 0
M  V30 6166 C 574.161 3.48129 2.48978 0
M  V30 6167 C 573.487 3.68347 3.87588 0
M  V30 6168 C 574.787 4.82112 2.00911 0
M  V30 6169 H 576.481 2.85864 0.890068 0
M  V30 6170 H 574.027 1.37532 0.426714 0
M  V30 6171 H 575.98 2.60343 3.3136 0
M  V30 6172 H 574.704 1.41751 2.94235 0
M  V30 6173 H 573.363 3.20511 1.77956 0
M  V30 6174 H 573.011 2.74793 4.21305 0
M  V30 6175 H 572.711 4.46055 3.82503 0
M  V30 6176 H 574.235 3.98449 4.62678 0
M  V30 6177 H 575.649 5.08819 2.64151 0
M  V30 6178 H 574.046 5.63337 2.06814 0
M  V30 6179 H 575.116 4.75249 0.96262 0
M  V30 6180 N 576.459 -0.456382 1.50847 0
M  V30 6181 C 577.706 -1.20736 1.62571 0
M  V30 6182 C 578.034 -1.9163 0.332904 0
M  V30 6183 O 577.289 -1.8343 -0.682058 0
M  V30 6184 C 577.588 -2.26336 2.76599 0
M  V30 6185 C 577.254 -1.7259 4.16562 0
M  V30 6186 C 575.916 -1.57654 4.54641 0
M  V30 6187 C 578.268 -1.32877 5.03977 0
M  V30 6188 C 575.596 -1.0145 5.77862 0
M  V30 6189 C 577.948 -0.7811 6.27759 0
M  V30 6190 C 576.612 -0.618488 6.64628 0
M  V30 6191 H 575.882 -0.441803 0.594888 0
M  V30 6192 H 578.529 -0.501169 1.84826 0
M  V30 6193 H 576.834 -3.0292 2.48489 0
M  V30 6194 H 578.531 -2.84227 2.82871 0
M  V30 6195 H 575.121 -1.85187 3.86528 0
M  V30 6196 H 579.305 -1.43245 4.75179 0
M  V30 6197 H 574.561 -0.876109 6.0509 0
M  V30 6198 H 578.735 -0.464783 6.94847 0
M  V30 6199 H 576.362 -0.180838 7.59985 0
M  V30 6200 N 577.937 -1.40673 -0.710563 0
M  V30 6201 C 579.185 -1.38947 -1.46759 0
M  V30 6202 C 579.506 0.00572879 -1.94999 0
M  V30 6203 O 578.776 0.961358 -1.70689 0
M  V30 6204 H 577.356 -0.5114 -0.544499 0
M  V30 6205 H 580.018 -1.75773 -0.842012 0
M  V30 6206 H 579.114 -2.06745 -2.33801 0
M  V30 6207 N 579.415 0.9433 -1.26252 0
M  V30 6208 C 580.692 1.66639 -1.02424 0
M  V30 6209 C 581.072 2.06335 0.446006 0
M  V30 6210 O 580.42 1.78551 1.42589 0
M  V30 6211 C 580.63 2.88019 -1.97094 0
M  V30 6212 C 581.978 3.59718 -2.25584 0
M  V30 6213 O 583.002 2.9812 -1.94943 0
M  V30 6214 O 581.861 4.7066 -2.77743 0
M  V30 6215 H 578.955 0.729643 -0.389294 0
M  V30 6216 H 581.501 0.995218 -1.37454 0
M  V30 6217 H 580.273 2.5556 -2.96319 0
M  V30 6218 H 579.896 3.62863 -1.62532 0
M  V30 6219 N 580.893 1.08022 1.14757 0
M  V30 6220 C 581.825 0.664566 2.19354 0
M  V30 6221 C 582.838 -0.286374 1.60261 0
M  V30 6222 O 584.027 -0.0746362 1.78344 0
M  V30 6223 C 581.127 -0.0434634 3.38872 0
M  V30 6224 C 580.3 0.925381 4.27499 0
M  V30 6225 C 579.359 0.253398 5.2559 0
M  V30 6226 O 578.385 0.896581 5.62094 0
M  V30 6227 N 579.587 -0.998263 5.71852 0
M  V30 6228 H 582.352 1.56438 2.55631 0
M  V30 6229 H 579.913 0.965788 1.29939 0
M  V30 6230 H 581.905 -0.503857 4.01551 0
M  V30 6231 H 580.475 -0.845321 3.00954 0
M  V30 6232 H 579.695 1.56472 3.61815 0
M  V30 6233 H 580.983 1.58203 4.8358 0
M  V30 6234 H 580.381 -1.54063 5.44317 0
M  V30 6235 H 578.938 -1.40222 6.36538 0
M  V30 6236 N 582.371 -1.3172 0.865308 0
M  V30 6237 C 583.304 -2.26687 0.262376 0
M  V30 6238 C 584.282 -1.50894 -0.605787 0
M  V30 6239 O 585.466 -1.79982 -0.56024 0
M  V30 6240 C 582.593 -3.3281 -0.628915 0
M  V30 6241 C 581.639 -4.26172 0.167278 0
M  V30 6242 S 582.472 -5.12797 1.54272 0
M  V30 6243 C 583.628 -6.22438 0.657427 0
M  V30 6244 H 583.861 -2.77478 1.0674 0
M  V30 6245 H 581.394 -1.39414 0.663555 0
M  V30 6246 H 583.352 -3.94426 -1.13747 0
M  V30 6247 H 582.013 -2.80782 -1.40785 0
M  V30 6248 H 581.206 -5.01392 -0.51203 0
M  V30 6249 H 580.808 -3.69029 0.607777 0
M  V30 6250 H 583.1 -6.77368 -0.133925 0
M  V30 6251 H 584.043 -6.9451 1.38061 0
M  V30 6252 H 584.451 -5.64043 0.227044 0
M  V30 6253 N 583.85 -0.624285 -1.44708 0
M  V30 6254 C 585.127 -0.0572781 -1.95516 0
M  V30 6255 C 585.507 1.41516 -1.56641 0
M  V30 6256 O 584.855 2.12614 -0.837111 0
M  V30 6257 C 585.065 -0.272944 -3.47931 0
M  V30 6258 C 586.413 -0.162529 -4.24289 0
M  V30 6259 O 587.437 -0.203946 -3.55616 0
M  V30 6260 O 586.296 -0.0616847 -5.46465 0
M  V30 6261 H 583.389 0.0262219 -0.826584 0
M  V30 6262 H 585.936 -0.695512 -1.54793 0
M  V30 6263 H 584.707 -1.29492 -3.69253 0
M  V30 6264 H 584.331 0.399756 -3.95585 0
M  V30 6265 N 585.328 1.53329 -0.364422 0
M  V30 6266 C 586.276 2.27212 0.497737 0
M  V30 6267 C 587.27 1.30146 1.08437 0
M  V30 6268 O 588.476 1.47778 1.0277 0
M  V30 6269 H 584.851 0.730329 0.179232 0
M  V30 6270 H 586.822 2.98037 -0.147182 0
M  V30 6271 C 585.571 3.07333 1.6261 0
M  V30 6272 H 584.894 3.81866 1.184 0
M  V30 6273 H 586.334 3.62209 2.20409 0
M  V30 6274 C 584.793 2.18102 2.56775 0
M  V30 6275 O 585.323 1.79104 3.59562 0
M  V30 6276 N 583.529 1.82759 2.25937 0
M  V30 6277 H 583.076 2.14671 1.42387 0
M  V30 6278 H 583.034 1.23342 2.89196 0
M  V30 6279 N 586.806 0.0935595 1.57322 0
M  V30 6280 C 587.769 -0.851426 2.12799 0
M  V30 6281 C 588.769 -1.21187 1.0569 0
M  V30 6282 O 589.959 -1.14156 1.31583 0
M  V30 6283 C 587.091 -2.14779 2.64731 0
M  V30 6284 H 588.284 -0.369733 2.97612 0
M  V30 6285 H 585.837 -0.155417 1.55525 0
M  V30 6286 H 586.572 -2.67437 1.83434 0
M  V30 6287 H 586.357 -1.89907 3.43042 0
M  V30 6288 H 587.847 -2.82383 3.07651 0
M  V30 6289 N 588.284 -1.56567 -0.180126 0
M  V30 6290 C 589.231 -1.95725 -1.22313 0
M  V30 6291 C 590.201 -0.819911 -1.44453 0
M  V30 6292 O 591.386 -1.07931 -1.57339 0
M  V30 6293 C 588.526 -2.31484 -2.55947 0
M  V30 6294 C 587.639 -3.58354 -2.4126 0
M  V30 6295 C 586.774 -3.83366 -3.67701 0
M  V30 6296 C 585.813 -5.03612 -3.47909 0
M  V30 6297 N 584.95 -5.24802 -4.66398 0
M  V30 6298 H 589.79 -2.84642 -0.882198 0
M  V30 6299 H 587.327 -1.4085 -0.42422 0
M  V30 6300 H 589.285 -2.50237 -3.33822 0
M  V30 6301 H 587.915 -1.45689 -2.88053 0
M  V30 6302 H 586.967 -3.47565 -1.54606 0
M  V30 6303 H 588.279 -4.46386 -2.22577 0
M  V30 6304 H 587.433 -4.02439 -4.54013 0
M  V30 6305 H 586.172 -2.93692 -3.89353 0
M  V30 6306 H 585.177 -4.84447 -2.59983 0
M  V30 6307 H 586.402 -5.94809 -3.27688 0
M  V30 6308 H 584.348 -4.38079 -4.88286 0
M  V30 6309 H 584.265 -6.07041 -4.50596 0
M  V30 6310 H 585.533 -5.48346 -5.54019 0
M  V30 6311 N 589.762 0.448376 -1.51087 0
M  V30 6312 C 591.178 0.783984 -1.39017 0
M  V30 6313 C 591.378 1.96087 -0.463904 0
M  V30 6314 O 590.434 2.52357 0.0850534 0
M  V30 6315 C 591.747 1.07471 -2.80839 0
M  V30 6316 C 593.295 1.17981 -2.89913 0
M  V30 6317 C 593.77 1.50354 -4.32617 0
M  V30 6318 N 595.261 1.57301 -4.35673 0
M  V30 6319 C 595.996 1.839 -5.4311 0
M  V30 6320 N 595.492 2.08365 -6.60724 0
M  V30 6321 N 597.285 1.8559 -5.30578 0
M  V30 6322 H 589.436 -0.326881 -2.0987 0
M  V30 6323 H 591.699 -0.0838006 -0.944289 0
M  V30 6324 H 591.405 0.282768 -3.50561 0
M  V30 6325 H 591.279 2.00519 -3.19487 0
M  V30 6326 H 593.666 1.9624 -2.20395 0
M  V30 6327 H 593.747 0.228603 -2.54776 0
M  V30 6328 H 593.391 0.726273 -5.0268 0
M  V30 6329 H 593.321 2.46663 -4.65258 0
M  V30 6330 H 595.812 1.40342 -3.50874 0
M  V30 6331 H 596.125 2.27999 -7.38401 0
M  V30 6332 H 594.47 2.0571 -6.63859 0
M  V30 6333 H 597.661 1.65989 -4.37682 0
M  V30 6334 H 597.834 2.05983 -6.1439 0
M  V30 6335 N 591.24 1.41047 0.703093 0
M  V30 6336 C 592.173 1.36713 1.82715 0
M  V30 6337 C 593.151 0.235533 1.60885 0
M  V30 6338 O 594.335 0.421227 1.83733 0
M  V30 6339 C 591.462 1.13069 3.1927 0
M  V30 6340 C 590.508 2.28846 3.59905 0
M  V30 6341 S 591.341 3.91297 3.65578 0
M  V30 6342 C 592.497 3.69941 5.04871 0
M  V30 6343 H 592.73 2.31838 1.86114 0
M  V30 6344 H 590.263 1.27481 0.871083 0
M  V30 6345 H 592.221 1.00113 3.98105 0
M  V30 6346 H 590.882 0.195763 3.13489 0
M  V30 6347 H 590.075 2.07977 4.59088 0
M  V30 6348 H 589.677 2.3817 2.88359 0
M  V30 6349 H 591.969 3.29181 5.92154 0
M  V30 6350 H 592.912 4.68699 5.30779 0
M  V30 6351 H 593.32 3.03369 4.76054 0
M  V30 6352 N 592.718 -0.936591 1.26751 0
M  V30 6353 C 593.628 -2.06949 1.10496 0
M  V30 6354 C 594.644 -1.7396 0.037271 0
M  V30 6355 O 595.82 -1.99941 0.241944 0
M  V30 6356 C 592.885 -3.38612 0.744491 0
M  V30 6357 C 591.946 -3.85355 1.89209 0
M  V30 6358 C 591.179 -5.10735 1.54873 0
M  V30 6359 O 591.402 -5.68602 0.452546 0
M  V30 6360 O 590.336 -5.52632 2.38499 0
M  V30 6361 H 594.162 -2.23571 2.05547 0
M  V30 6362 H 591.747 -1.05428 1.05855 0
M  V30 6363 H 593.629 -4.17711 0.556396 0
M  V30 6364 H 592.304 -3.23218 -0.176582 0
M  V30 6365 H 591.211 -3.07182 2.13518 0
M  V30 6366 H 592.544 -4.05277 2.79305 0
M  V30 6367 N 594.196 -1.08629 -1.14182 0
M  V30 6368 C 595.424 -0.838889 -1.8913 0
M  V30 6369 C 595.839 0.609153 -1.78703 0
M  V30 6370 O 595.196 1.41876 -1.14794 0
M  V30 6371 C 595.247 -1.25477 -3.39025 0
M  V30 6372 O 594.968 -2.64601 -3.49167 0
M  V30 6373 C 596.469 -1.03856 -4.30963 0
M  V30 6374 H 593.689 -0.302377 -0.599007 0
M  V30 6375 H 596.233 -1.44615 -1.44592 0
M  V30 6376 H 594.388 -0.691571 -3.81177 0
M  V30 6377 H 594.802 -2.81922 -4.42289 0
M  V30 6378 H 596.276 -1.37892 -5.345 0
M  V30 6379 H 596.753 0.0242522 -4.39193 0
M  V30 6380 H 597.359 -1.58731 -3.94569 0
M  V30 6381 N 595.674 1.31259 -0.872281 0
M  V30 6382 C 596.621 2.28459 -0.327857 0
M  V30 6383 C 597.591 1.55831 0.574957 0
M  V30 6384 O 598.776 1.83965 0.506101 0
M  V30 6385 C 595.916 3.41985 0.462644 0
M  V30 6386 C 595.029 4.29458 -0.467949 0
M  V30 6387 C 594.164 5.30131 0.336903 0
M  V30 6388 C 593.203 6.0925 -0.58997 0
M  V30 6389 N 592.34 7.01872 0.178775 0
M  V30 6390 H 597.18 2.74414 -1.16193 0
M  V30 6391 H 594.717 1.34994 -0.584376 0
M  V30 6392 H 596.675 4.06547 0.936759 0
M  V30 6393 H 595.305 2.97134 1.2614 0
M  V30 6394 H 594.357 3.65318 -1.06052 0
M  V30 6395 H 595.669 4.84677 -1.17856 0
M  V30 6396 H 594.823 6.0038 0.873427 0
M  V30 6397 H 593.562 4.75573 1.08079 0
M  V30 6398 H 592.567 5.37889 -1.13823 0
M  V30 6399 H 593.792 6.65894 -1.33275 0
M  V30 6400 H 591.738 6.49721 0.905435 0
M  V30 6401 H 591.655 7.54522 -0.472452 0
M  V30 6402 H 592.923 7.76382 0.696454 0
M  V30 6403 N 597.152 0.631951 1.44375 0
M  V30 6404 C 598.4 0.136497 2.01639 0
M  V30 6405 C 598.721 -1.24637 1.49969 0
M  V30 6406 O 597.991 -1.82827 0.70363 0
M  V30 6407 H 596.571 0.0474703 0.74549 0
M  V30 6408 H 599.233 0.818837 1.76865 0
M  V30 6409 H 598.329 0.104817 3.11924 0
M  V30 6410 N 598.631 -1.53133 0.372548 0
M  V30 6411 C 599.594 -2.24569 -0.458389 0
M  V30 6412 C 600.594 -1.25603 -1.00402 0
M  V30 6413 O 601.784 -1.49827 -0.888672 0
M  V30 6414 C 598.916 -2.98783 -1.6414 0
M  V30 6415 H 600.109 -2.99436 0.166799 0
M  V30 6416 H 597.662 -1.55805 0.124357 0
M  V30 6417 H 598.397 -2.28176 -2.30448 0
M  V30 6418 H 598.182 -3.71404 -1.25704 0
M  V30 6419 H 599.672 -3.53068 -2.23008 0
M  V30 6420 N 600.109 -0.101901 -1.5727 0
M  V30 6421 C 601.357 0.559091 -1.94213 0
M  V30 6422 C 601.678 1.68297 -0.984948 0
M  V30 6423 O 600.948 1.95863 -0.0381975 0
M  V30 6424 H 599.528 0.20952 -0.717015 0
M  V30 6425 H 602.19 -0.166831 -1.94185 0
M  V30 6426 H 601.286 0.96485 -2.96811 0
M  V30 6427 N 601.587 1.56661 0.17182 0
M  V30 6428 C 602.833 1.82235 0.889845 0
M  V30 6429 C 603.166 0.679673 1.81918 0
M  V30 6430 O 602.441 -0.318404 1.91876 0
M  V30 6431 C 602.724 3.18195 1.68595 0
M  V30 6432 C 602.577 4.42989 0.779773 0
M  V30 6433 C 603.896 3.5109 2.65375 0
M  V30 6434 H 601.015 0.66291 0.322056 0
M  V30 6435 H 603.657 1.89358 0.15608 0
M  V30 6436 H 601.807 3.12253 2.3115 0
M  V30 6437 H 603.479 4.60997 0.16714 0
M  V30 6438 H 601.722 4.33711 0.0877964 0
M  V30 6439 H 602.393 5.3467 1.3723 0
M  V30 6440 H 604.869 3.57482 2.12946 0
M  V30 6441 H 603.745 4.47298 3.18144 0
M  V30 6442 H 604.006 2.75768 3.45549 0
M  V30 6443 N 603.065 -0.440357 1.51323 0
M  V30 6444 C 604.293 -1.21255 1.67645 0
M  V30 6445 C 604.708 -1.85088 0.37252 0
M  V30 6446 O 604.065 -1.70582 -0.648683 0
M  V30 6447 C 604.116 -2.29881 2.78993 0
M  V30 6448 O 603.837 -1.68659 4.04334 0
M  V30 6449 C 605.338 -3.20214 3.06558 0
M  V30 6450 H 602.558 -0.36558 0.562666 0
M  V30 6451 H 605.102 -0.52214 1.97722 0
M  V30 6452 H 603.257 -2.94643 2.51524 0
M  V30 6453 H 603.671 -2.40426 4.6615 0
M  V30 6454 H 605.145 -3.92575 3.88058 0
M  V30 6455 H 605.622 -3.80794 2.18844 0
M  V30 6456 H 606.228 -2.61156 3.35675 0
M  V30 6457 N 604.543 -1.41418 -0.695603 0
M  V30 6458 C 605.473 -1.46035 -1.82197 0
M  V30 6459 C 606.454 -0.319025 -1.67082 0
M  V30 6460 O 607.639 -0.530462 -1.86815 0
M  V30 6461 C 604.769 -1.34179 -3.20333 0
M  V30 6462 C 603.723 -2.46123 -3.50154 0
M  V30 6463 C 603.049 -2.19332 -4.87645 0
M  V30 6464 C 604.349 -3.88463 -3.49133 0
M  V30 6465 H 606.043 -2.40303 -1.78591 0
M  V30 6466 H 603.589 -1.15663 -0.857797 0
M  V30 6467 H 605.542 -1.36021 -3.98844 0
M  V30 6468 H 604.266 -0.363952 -3.24566 0
M  V30 6469 H 602.925 -2.43563 -2.73994 0
M  V30 6470 H 602.573 -1.19891 -4.88503 0
M  V30 6471 H 602.273 -2.94344 -5.08562 0
M  V30 6472 H 603.797 -2.22889 -5.68465 0
M  V30 6473 H 605.211 -3.92738 -4.17648 0
M  V30 6474 H 603.608 -4.63158 -3.81582 0
M  V30 6475 H 604.678 -4.16617 -2.48109 0
M  V30 6476 N 606.021 0.929856 -1.27246 0
M  V30 6477 C 606.969 2.05151 -1.09616 0
M  V30 6478 C 607.963 1.69388 -0.0198617 0
M  V30 6479 O 609.169 1.79124 -0.177417 0
M  V30 6480 H 605.544 0.671909 -0.337701 0
M  V30 6481 H 607.515 2.17168 -2.04648 0
M  V30 6482 C 606.264 3.3934 -0.757851 0
M  V30 6483 H 605.587 3.67343 -1.57795 0
M  V30 6484 H 607.027 4.18603 -0.674358 0
M  V30 6485 C 605.486 3.32582 0.537658 0
M  V30 6486 O 606.016 3.69633 1.57271 0
M  V30 6487 N 604.222 2.8568 0.532478 0
M  V30 6488 H 603.769 2.55725 -0.310233 0
M  V30 6489 H 603.727 2.81541 1.39936 0
M  V30 6490 N 607.499 1.09233 1.13605 0
M  V30 6491 C 608.745 0.828385 1.8511 0
M  V30 6492 C 609.078 -0.64437 1.83198 0
M  V30 6493 O 608.353 -1.47428 1.26867 0
M  V30 6494 C 608.636 1.36167 3.33363 0
M  V30 6495 C 608.489 2.90038 3.438 0
M  V30 6496 C 609.808 0.993819 4.28732 0
M  V30 6497 H 606.927 0.30239 0.672108 0
M  V30 6498 H 609.569 1.35339 1.33355 0
M  V30 6499 H 607.719 0.9151 3.77569 0
M  V30 6500 H 609.391 3.43128 3.08319 0
M  V30 6501 H 607.634 3.27271 2.84739 0
M  V30 6502 H 608.305 3.22428 4.48045 0
M  V30 6503 H 610.781 1.37893 3.92587 0
M  V30 6504 H 609.657 1.39403 5.30903 0
M  V30 6505 H 609.918 -0.0982206 4.41991 0
M  V30 6506 N 608.977 -1.30795 0.87923 0
M  V30 6507 C 609.907 -2.30742 0.357796 0
M  V30 6508 C 610.888 -1.60747 -0.556283 0
M  V30 6509 O 612.073 -1.88393 -0.47135 0
M  V30 6510 C 609.203 -3.44583 -0.433555 0
M  V30 6511 C 608.157 -4.26235 0.388251 0
M  V30 6512 C 607.483 -5.32073 -0.529352 0
M  V30 6513 C 608.783 -4.96303 1.62729 0
M  V30 6514 H 610.477 -2.74605 1.19299 0
M  V30 6515 H 608.023 -1.32017 0.575104 0
M  V30 6516 H 609.976 -4.13563 -0.808934 0
M  V30 6517 H 608.7 -2.99511 -1.30234 0
M  V30 6518 H 607.359 -3.58936 0.745695 0
M  V30 6519 H 607.007 -4.83249 -1.39569 0
M  V30 6520 H 606.707 -5.87598 0.0166741 0
M  V30 6521 H 608.231 -6.0391 -0.901373 0
M  V30 6522 H 609.645 -5.5783 1.32283 0
M  V30 6523 H 608.042 -5.61666 2.11309 0
M  V30 6524 H 609.112 -4.22758 2.37494 0
M  V30 6525 N 610.455 -0.639598 -1.44038 0
M  V30 6526 C 611.365 0.0612377 -2.3452 0
M  V30 6527 C 612.381 0.826717 -1.53106 0
M  V30 6528 O 613.557 0.777059 -1.85806 0
M  V30 6529 C 610.622 1.02492 -3.31204 0
M  V30 6530 C 609.683 0.25788 -4.28525 0
M  V30 6531 C 608.916 1.17566 -5.2059 0
M  V30 6532 O 609.139 2.41461 -5.16771 0
M  V30 6533 O 608.073 0.655407 -5.98321 0
M  V30 6534 H 611.899 -0.68318 -2.95916 0
M  V30 6535 H 609.484 -0.399784 -1.43952 0
M  V30 6536 H 611.366 1.57911 -3.90694 0
M  V30 6537 H 610.041 1.7498 -2.7233 0
M  V30 6538 H 608.948 -0.339566 -3.72556 0
M  V30 6539 H 610.281 -0.427154 -4.90343 0
M  V30 6540 N 611.933 1.52934 -0.380664 0
M  V30 6541 C 612.866 2.22597 0.502564 0
M  V30 6542 C 613.844 1.22345 1.071 0
M  V30 6543 O 615.028 1.51302 1.12428 0
M  V30 6544 C 612.155 2.93246 1.69482 0
M  V30 6545 C 611.201 4.07696 1.25244 0
M  V30 6546 S 612.034 5.34957 0.241159 0
M  V30 6547 C 613.19 6.09124 1.4394 0
M  V30 6548 H 613.423 2.97167 -0.089029 0
M  V30 6549 H 610.956 1.53518 -0.164817 0
M  V30 6550 H 612.914 3.34562 2.37863 0
M  V30 6551 H 611.575 2.18373 2.2577 0
M  V30 6552 H 610.768 4.56199 2.1424 0
M  V30 6553 H 610.37 3.68349 0.647664 0
M  V30 6554 H 612.662 6.34771 2.36794 0
M  V30 6555 H 613.605 7.01068 0.995464 0
M  V30 6556 H 614.013 5.39777 1.65229 0
M  V30 6557 N 613.412 0.11024 1.57214 0
M  V30 6558 C 614.64 -0.557834 1.99238 0
M  V30 6559 C 615.055 -1.60778 0.989734 0
M  V30 6560 O 614.412 -1.82491 -0.0186092 0
M  V30 6561 C 614.463 -1.19189 3.41286 0
M  V30 6562 O 614.184 -0.183919 4.37714 0
M  V30 6563 C 615.685 -1.94413 3.98395 0
M  V30 6564 H 612.905 -0.148392 0.654386 0
M  V30 6565 H 615.449 0.193996 2.03578 0
M  V30 6566 H 613.604 -1.89456 3.37913 0
M  V30 6567 H 614.018 -0.643475 5.20538 0
M  V30 6568 H 615.492 -2.34116 4.99894 0
M  V30 6569 H 615.969 -2.81592 3.3705 0
M  V30 6570 H 616.575 -1.28928 4.05287 0
M  V30 6571 N 614.89 -1.56749 -0.16351 0
M  V30 6572 C 616.115 -1.86938 -0.898264 0
M  V30 6573 C 616.54 -0.697456 -1.74692 0
M  V30 6574 O 615.898 0.353327 -1.77824 0
M  V30 6575 C 615.946 -3.15599 -1.74441 0
M  V30 6576 O 615.05 -2.98371 -2.8469 0
M  V30 6577 H 614.391 -0.614659 -0.251178 0
M  V30 6578 H 616.921 -2.03979 -0.159298 0
M  V30 6579 H 616.931 -3.47202 -2.14277 0
M  V30 6580 H 615.606 -4.00505 -1.1211 0
M  V30 6581 H 614.183 -2.7814 -2.4838 0
M  V30 6582 N 616.368 0.432326 -1.51554 0
M  V30 6583 C 617.278 1.55023 -1.76082 0
M  V30 6584 C 618.294 1.61593 -0.645265 0
M  V30 6585 O 619.47 1.78742 -0.928086 0
M  V30 6586 C 616.535 2.90964 -1.88523 0
M  V30 6587 C 615.596 2.9447 -3.12388 0
M  V30 6588 C 614.829 4.23926 -3.24225 0
M  V30 6589 O 615.052 5.16576 -2.4188 0
M  V30 6590 O 613.986 4.33818 -4.17235 0
M  V30 6591 H 617.812 1.37238 -2.70923 0
M  V30 6592 H 615.397 0.615845 -1.36117 0
M  V30 6593 H 617.279 3.71633 -1.98662 0
M  V30 6594 H 615.954 3.08865 -0.9687 0
M  V30 6595 H 614.861 2.12737 -3.07723 0
M  V30 6596 H 616.194 2.81514 -4.03746 0
M  V30 6597 N 617.846 1.41785 0.688094 0
M  V30 6598 C 619.123 1.32031 1.44316 0
M  V30 6599 C 619.503 -0.0486079 2.11044 0
M  V30 6600 O 618.851 -1.06332 2.02252 0
M  V30 6601 C 619.061 2.47906 2.45649 0
M  V30 6602 C 620.409 2.89415 3.10683 0
M  V30 6603 O 621.433 2.477 2.55975 0
M  V30 6604 O 620.292 3.61573 4.09789 0
M  V30 6605 H 617.386 0.519994 0.643067 0
M  V30 6606 H 619.932 1.53765 0.71794 0
M  V30 6607 H 618.704 3.39222 1.95048 0
M  V30 6608 H 618.327 2.28089 3.25671 0
M  V30 6609 N 619.324 -0.923095 1.27737 0
M  V30 6610 C 620.254 -2.04124 1.13383 0
M  V30 6611 C 621.235 -1.70066 0.0340658 0
M  V30 6612 O 622.42 -1.93068 0.209383 0
M  V30 6613 C 619.55 -3.3831 0.785097 0
M  V30 6614 C 618.504 -3.86496 1.8386 0
M  V30 6615 C 617.83 -5.1754 1.34373 0
M  V30 6616 C 619.13 -4.09381 3.24353 0
M  V30 6617 H 620.824 -2.1639 2.06919 0
M  V30 6618 H 618.37 -1.03976 0.996243 0
M  V30 6619 H 620.323 -4.16016 0.671485 0
M  V30 6620 H 619.047 -3.2607 -0.185969 0
M  V30 6621 H 617.706 -3.10987 1.9412 0
M  V30 6622 H 617.354 -5.01696 0.361989 0
M  V30 6623 H 617.054 -5.50751 2.04811 0
M  V30 6624 H 618.578 -5.97811 1.24315 0
M  V30 6625 H 619.992 -4.77641 3.17067 0
M  V30 6626 H 618.389 -4.53906 3.92542 0
M  V30 6627 H 619.459 -3.14515 3.69064 0
M  V30 6628 N 620.802 -1.09834 -1.13024 0
M  V30 6629 C 621.712 -0.753731 -2.22162 0
M  V30 6630 C 622.728 0.246105 -1.72251 0
M  V30 6631 O 623.904 0.0864051 -2.01215 0
M  V30 6632 C 620.969 -0.183958 -3.46212 0
M  V30 6633 C 620.03 -1.24028 -4.10993 0
M  V30 6634 C 619.263 -0.697597 -5.29121 0
M  V30 6635 O 619.486 0.478092 -5.68393 0
M  V30 6636 O 618.42 -1.4546 -5.84059 0
M  V30 6637 H 622.246 -1.66456 -2.5402 0
M  V30 6638 H 619.831 -0.873026 -1.21238 0
M  V30 6639 H 621.713 0.130257 -4.21199 0
M  V30 6640 H 620.388 0.699823 -3.16045 0
M  V30 6641 H 619.295 -1.60725 -3.37814 0
M  V30 6642 H 620.628 -2.09685 -4.45301 0
M  V30 6643 N 622.28 1.30327 -0.886154 0
M  V30 6644 C 623.228 2.30052 -0.343317 0
M  V30 6645 C 624.222 1.60212 0.550305 0
M  V30 6646 O 625.428 1.74674 0.434609 0
M  V30 6647 H 621.803 0.746306 -0.0923681 0
M  V30 6648 H 623.774 2.73294 -1.19804 0
M  V30 6649 C 622.523 3.45079 0.426107 0
M  V30 6650 H 621.846 3.99003 -0.25227 0
M  V30 6651 H 623.286 4.16931 0.771009 0
M  V30 6652 C 621.745 2.95195 1.62363 0
M  V30 6653 O 622.275 2.95323 2.723 0
M  V30 6654 N 620.481 2.51192 1.4612 0
M  V30 6655 H 620.028 2.51286 0.566832 0
M  V30 6656 H 619.986 2.18173 2.2638 0
M  V30 6657 N 623.758 0.647228 1.43697 0
M  V30 6658 C 624.721 -0.0385101 2.29168 0
M  V30 6659 C 625.721 -0.756487 1.41894 0
M  V30 6660 O 626.911 -0.598641 1.63591 0
M  V30 6661 C 624.043 -1.06524 3.23829 0
M  V30 6662 H 625.236 0.713445 2.9129 0
M  V30 6663 H 622.789 0.408153 1.50877 0
M  V30 6664 H 623.524 -1.84664 2.66589 0
M  V30 6665 H 623.309 -0.554147 3.88164 0
M  V30 6666 H 624.799 -1.54432 3.87996 0
M  V30 6667 N 625.236 -1.5273 0.388769 0
M  V30 6668 C 626.166 -2.29353 -0.438111 0
M  V30 6669 C 627.147 -1.32719 -1.06394 0
M  V30 6670 O 628.332 -1.61612 -1.07681 0
M  V30 6671 C 625.462 -3.09995 -1.56589 0
M  V30 6672 C 624.416 -4.14509 -1.06613 0
M  V30 6673 C 623.742 -4.83372 -2.28594 0
M  V30 6674 C 625.042 -5.22127 -0.134459 0
M  V30 6675 H 626.736 -2.98723 0.201206 0
M  V30 6676 H 624.282 -1.43665 0.0982089 0
M  V30 6677 H 626.235 -3.62357 -2.15118 0
M  V30 6678 H 624.959 -2.38357 -2.23279 0
M  V30 6679 H 623.618 -3.63128 -0.503383 0
M  V30 6680 H 623.266 -4.08283 -2.93792 0
M  V30 6681 H 622.966 -5.54012 -1.95817 0
M  V30 6682 H 624.49 -5.38538 -2.87766 0
M  V30 6683 H 625.904 -5.69851 -0.627914 0
M  V30 6684 H 624.301 -6.00011 0.103534 0
M  V30 6685 H 625.371 -4.77971 0.816798 0
M  V30 6686 N 626.714 -0.118576 -1.57153 0
M  V30 6687 C 627.661 0.831789 -2.1529 0
M  V30 6688 C 628.631 1.26385 -1.07778 0
M  V30 6689 O 629.816 1.34144 -1.35684 0
M  V30 6690 C 626.956 2.07664 -2.75626 0
M  V30 6691 C 626.069 1.69298 -3.97444 0
M  V30 6692 C 625.204 2.88747 -4.45868 0
M  V30 6693 C 624.243 2.46619 -5.60219 0
M  V30 6694 N 623.38 3.5898 -6.03389 0
M  V30 6695 H 628.22 0.329183 -2.96176 0
M  V30 6696 H 625.757 0.150792 -1.46325 0
M  V30 6697 H 627.715 2.80601 -3.08738 0
M  V30 6698 H 626.345 2.55384 -1.97431 0
M  V30 6699 H 625.397 0.862374 -3.70496 0
M  V30 6700 H 626.709 1.34338 -4.80369 0
M  V30 6701 H 625.863 3.69909 -4.80887 0
M  V30 6702 H 624.602 3.26933 -3.61892 0
M  V30 6703 H 623.607 1.63889 -5.24805 0
M  V30 6704 H 624.832 2.0955 -6.45961 0
M  V30 6705 H 622.778 3.9684 -5.22354 0
M  V30 6706 H 622.695 3.27942 -6.81168 0
M  V30 6707 H 623.963 4.40583 -6.43045 0
M  V30 6708 N 628.193 1.56834 0.155195 0
M  V30 6709 C 629.156 1.96748 1.17571 0
M  V30 6710 C 630.156 0.853006 1.3631 0
M  V30 6711 O 631.346 1.11978 1.33441 0
M  V30 6712 C 628.478 2.27631 2.53765 0
M  V30 6713 H 629.671 2.88085 0.833498 0
M  V30 6714 H 627.224 1.51141 0.398242 0
M  V30 6715 H 627.959 1.39059 2.92973 0
M  V30 6716 H 627.744 3.0888 2.41527 0
M  V30 6717 H 629.234 2.59377 3.27282 0
M  V30 6718 N 629.671 -0.424282 1.51781 0
M  V30 6719 C 630.917 -1.17434 1.6534 0
M  V30 6720 C 631.25 -1.90549 0.374806 0
M  V30 6721 O 630.525 -1.84145 -0.626179 0
M  V30 6722 C 630.808 -2.18093 2.86544 0
M  V30 6723 C 630.661 -1.48975 4.24413 0
M  V30 6724 C 631.98 -3.18934 3.03264 0
M  V30 6725 H 629.099 -0.425566 0.601716 0
M  V30 6726 H 631.741 -0.461921 1.84299 0
M  V30 6727 H 629.891 -2.78849 2.7051 0
M  V30 6728 H 631.563 -0.914551 4.52143 0
M  V30 6729 H 629.806 -0.791893 4.26511 0
M  V30 6730 H 630.477 -2.22347 5.05238 0
M  V30 6731 H 632.953 -2.68243 3.18096 0
M  V30 6732 H 631.829 -3.86645 3.89611 0
M  V30 6733 H 632.09 -3.85793 2.15908 0
M  V30 6734 N 631.149 -1.42148 -0.680565 0
M  V30 6735 C 632.398 -1.41604 -1.43636 0
M  V30 6736 C 632.711 -0.0337887 -1.95571 0
M  V30 6737 O 633.917 0.0942588 -2.71336 0
M  V30 6738 C 632.373 -2.49056 -2.59806 0
M  V30 6739 C 631.981 -3.9326 -2.14594 0
M  V30 6740 C 633.725 -2.5767 -3.37352 0
M  V30 6741 C 631.632 -4.92232 -3.27813 0
M  V30 6742 H 630.562 -0.526656 -0.539583 0
M  V30 6743 H 633.213 -1.68033 -0.737369 0
M  V30 6744 H 631.595 -2.15782 -3.32045 0
M  V30 6745 H 632.769 -4.35858 -1.49546 0
M  V30 6746 H 631.084 -3.88443 -1.50002 0
M  V30 6747 H 633.681 -3.28794 -4.21662 0
M  V30 6748 H 634.024 -1.61837 -3.83555 0
M  V30 6749 H 634.557 -2.90109 -2.72179 0
M  V30 6750 H 631.296 -5.89522 -2.86607 0
M  V30 6751 H 630.816 -4.5427 -3.91661 0
M  V30 6752 H 632.495 -5.13684 -3.93367 0
M  V30 6753 N 632.627 0.916307 -1.28225 0
M  V30 6754 C 633.575 2.03977 -1.11786 0
M  V30 6755 C 634.569 1.69358 -0.0378265 0
M  V30 6756 O 635.775 1.78925 -0.196405 0
M  V30 6757 H 632.15 0.66829 -0.344809 0
M  V30 6758 H 634.121 2.14985 -2.06939 0
M  V30 6759 C 632.87 3.38518 -0.7938 0
M  V30 6760 H 632.193 3.65649 -1.61682 0
M  V30 6761 H 633.633 4.17864 -0.718719 0
M  V30 6762 C 632.092 3.33134 0.502353 0
M  V30 6763 O 632.622 3.71281 1.53341 0
M  V30 6764 N 630.828 2.86229 0.502147 0
M  V30 6765 H 630.375 2.55382 -0.337338 0
M  V30 6766 H 630.333 2.83009 1.36942 0
M  V30 6767 N 634.105 1.10431 1.1244 0
M  V30 6768 C 635.382 0.758797 1.80282 0
M  V30 6769 C 635.762 -0.754727 1.97147 0
M  V30 6770 O 635.11 -1.68094 1.54779 0
M  V30 6771 C 635.32 1.50982 3.14651 0
M  V30 6772 C 636.668 1.68232 3.8985 0
M  V30 6773 O 637.692 1.47319 3.24308 0
M  V30 6774 O 636.551 2.02905 5.07437 0
M  V30 6775 H 633.645 0.273756 0.780376 0
M  V30 6776 H 636.191 1.20713 1.19275 0
M  V30 6777 H 634.963 2.53989 2.97666 0
M  V30 6778 H 634.586 1.05435 3.83366 0
M  V30 6779 N 635.583 -1.29855 0.893053 0
M  V30 6780 C 636.53 -2.27909 0.364161 0
M  V30 6781 C 637.5 -1.56726 -0.550093 0
M  V30 6782 O 638.685 -1.84747 -0.47677 0
M  V30 6783 C 635.825 -3.42678 -0.408178 0
M  V30 6784 C 634.938 -4.28659 0.536212 0
M  V30 6785 C 634.073 -5.30599 -0.252521 0
M  V30 6786 C 633.112 -6.08234 0.686822 0
M  V30 6787 N 632.249 -7.02068 -0.0670902 0
M  V30 6788 H 637.089 -2.72531 1.20544 0
M  V30 6789 H 634.626 -1.34047 0.605779 0
M  V30 6790 H 636.584 -4.07986 -0.871962 0
M  V30 6791 H 635.214 -2.99103 -1.21397 0
M  V30 6792 H 634.266 -3.63584 1.1185 0
M  V30 6793 H 635.578 -4.8274 1.25552 0
M  V30 6794 H 634.732 -6.01694 -0.777801 0
M  V30 6795 H 633.471 -4.77233 -1.005 0
M  V30 6796 H 632.476 -5.3601 1.22366 0
M  V30 6797 H 633.701 -6.63689 1.43852 0
M  V30 6798 H 631.647 -6.5108 -0.801955 0
M  V30 6799 H 631.564 -7.53675 0.59243 0
M  V30 6800 H 632.832 -7.77392 -0.572851 0
M  V30 6801 N 637.061 -0.65484 -1.43351 0
M  V30 6802 C 638.286 -0.175046 -2.0666 0
M  V30 6803 C 638.711 1.15104 -1.4877 0
M  V30 6804 O 638.069 1.71144 -0.598279 0
M  V30 6805 C 638.117 -0.0991544 -3.60464 0
M  V30 6806 O 637.221 0.938169 -4.01587 0
M  V30 6807 H 636.562 -0.0956148 -0.65708 0
M  V30 6808 H 639.092 -0.898222 -1.83829 0
M  V30 6809 H 639.102 0.083632 -4.07914 0
M  V30 6810 H 637.777 -1.06719 -4.01975 0
M  V30 6811 H 636.354 0.72804 -3.65724 0
M  V30 6812 N 638.539 1.52521 -0.396863 0
M  V30 6813 C 639.769 2.05792 0.182485 0
M  V30 6814 C 640.177 1.26784 1.40436 0
M  V30 6815 O 639.52 0.309617 1.81072 0
M  V30 6816 C 639.582 3.54291 0.609781 0
M  V30 6817 C 639.246 4.5426 -0.499674 0
M  V30 6818 C 640.243 5.01812 -1.35944 0
M  V30 6819 C 637.928 4.97827 -0.668864 0
M  V30 6820 C 639.922 5.91562 -2.37346 0
M  V30 6821 C 637.609 5.87376 -1.68621 0
M  V30 6822 C 638.607 6.34137 -2.53692 0
M  V30 6823 O 638.295 7.21915 -3.53686 0
M  V30 6824 H 638.027 0.675362 0.0293583 0
M  V30 6825 H 640.581 1.97539 -0.56281 0
M  V30 6826 H 638.811 3.60188 1.40717 0
M  V30 6827 H 640.5 3.90267 1.11565 0
M  V30 6828 H 641.266 4.68879 -1.24008 0
M  V30 6829 H 637.145 4.60997 -0.0163971 0
M  V30 6830 H 640.689 6.27983 -3.03782 0
M  V30 6831 H 636.586 6.19723 -1.80593 0
M  V30 6832 H 637.354 7.39996 -3.49784 0
M  V30 6833 N 640.017 0.126909 1.57088 0
M  V30 6834 C 640.964 -0.82036 2.15728 0
M  V30 6835 C 641.934 -1.25811 1.08447 0
M  V30 6836 O 643.119 -1.33422 1.36393 0
M  V30 6837 C 640.259 -2.06199 2.76724 0
M  V30 6838 C 639.372 -1.67188 3.98337 0
M  V30 6839 C 638.507 -2.86378 4.47393 0
M  V30 6840 C 637.546 -2.43644 5.61519 0
M  V30 6841 N 636.683 -3.55775 6.05284 0
M  V30 6842 H 641.523 -0.313472 2.96347 0
M  V30 6843 H 639.06 -0.14303 1.46403 0
M  V30 6844 H 641.018 -2.78959 3.10222 0
M  V30 6845 H 639.648 -2.54333 1.98782 0
M  V30 6846 H 638.7 -0.842714 3.70948 0
M  V30 6847 H 640.012 -1.31789 4.81075 0
M  V30 6848 H 639.166 -3.67353 4.82842 0
M  V30 6849 H 637.905 -3.25009 3.63621 0
M  V30 6850 H 636.91 -1.61104 5.25667 0
M  V30 6851 H 638.135 -2.06122 6.47063 0
M  V30 6852 H 636.081 -3.94065 5.24451 0
M  V30 6853 H 635.998 -3.24325 6.82898 0
M  V30 6854 H 637.266 -4.37166 6.45373 0
M  V30 6855 N 641.495 -1.56914 -0.146875 0
M  V30 6856 C 642.405 -2.0154 -1.20079 0
M  V30 6857 C 643.421 -0.930838 -1.47008 0
M  V30 6858 O 644.597 -1.24032 -1.58676 0
M  V30 6859 C 641.662 -2.38715 -2.51428 0
M  V30 6860 C 640.723 -3.6112 -2.32145 0
M  V30 6861 C 639.956 -3.96512 -3.57231 0
M  V30 6862 O 640.179 -3.32566 -4.63418 0
M  V30 6863 O 639.113 -4.89758 -3.49887 0
M  V30 6864 H 642.939 -2.91506 -0.851924 0
M  V30 6865 H 640.524 -1.45106 -0.355607 0
M  V30 6866 H 642.406 -2.63485 -3.28867 0
M  V30 6867 H 641.081 -1.51903 -2.85845 0
M  V30 6868 H 639.988 -3.41536 -1.52656 0
M  V30 6869 H 641.321 -4.48549 -2.02644 0
M  V30 6870 N 642.974 0.416227 -1.52004 0
M  V30 6871 C 643.922 1.5272 -1.7544 0
M  V30 6872 C 644.916 1.57596 -0.621289 0
M  V30 6873 O 646.122 1.61087 -0.803172 0
M  V30 6874 H 642.497 0.507772 -0.554682 0
M  V30 6875 H 644.468 1.30136 -2.68528 0
M  V30 6876 C 643.217 2.90165 -1.91571 0
M  V30 6877 H 642.54 2.87154 -2.78178 0
M  V30 6878 H 643.98 3.67211 -2.11972 0
M  V30 6879 C 642.439 3.29947 -0.680942 0
M  V30 6880 O 642.969 4.01403 0.154527 0
M  V30 6881 N 641.175 2.8593 -0.518894 0
M  V30 6882 H 640.722 2.2795 -1.19986 0
M  V30 6883 H 640.68 3.12907 0.305985 0
M  V30 6884 N 644.452 1.42507 0.673017 0
M  V30 6885 C 645.701 1.42364 1.42883 0
M  V30 6886 C 646.014 0.0441598 1.9555 0
M  V30 6887 O 647.22 -0.0798679 2.71382 0
M  V30 6888 C 645.676 2.5043 2.58482 0
M  V30 6889 C 645.284 3.94392 2.12506 0
M  V30 6890 C 647.028 2.59455 3.35981 0
M  V30 6891 C 644.935 4.93964 3.25198 0
M  V30 6892 H 643.865 0.52951 0.536782 0
M  V30 6893 H 646.516 1.68422 0.728448 0
M  V30 6894 H 644.898 2.1754 3.30896 0
M  V30 6895 H 646.072 4.36645 1.47233 0
M  V30 6896 H 644.387 3.89233 1.4794 0
M  V30 6897 H 646.984 3.31025 4.19912 0
M  V30 6898 H 647.327 1.63869 3.82691 0
M  V30 6899 H 647.86 2.91549 2.70637 0
M  V30 6900 H 644.599 5.91034 2.83477 0
M  V30 6901 H 644.119 4.56341 3.89247 0
M  V30 6902 H 645.798 5.15763 3.90637 0
M  V30 6903 N 645.93 -0.909495 1.28709 0
M  V30 6904 C 646.863 -2.01388 1.07323 0
M  V30 6905 C 647.841 -1.62596 -0.0119757 0
M  V30 6906 O 649.025 -1.88003 0.136796 0
M  V30 6907 C 646.152 -3.32755 0.631797 0
M  V30 6908 C 645.198 -3.90532 1.71428 0
M  V30 6909 S 646.031 -4.20853 3.31124 0
M  V30 6910 C 647.187 -5.55276 2.88825 0
M  V30 6911 H 647.42 -2.19219 2.00824 0
M  V30 6912 H 644.953 -1.05489 1.12745 0
M  V30 6913 H 646.911 -4.08702 0.38381 0
M  V30 6914 H 645.572 -3.12818 -0.283451 0
M  V30 6915 H 644.765 -4.85385 1.35712 0
M  V30 6916 H 644.367 -3.21237 1.91528 0
M  V30 6917 H 646.659 -6.35341 2.3526 0
M  V30 6918 H 647.602 -5.95907 3.82492 0
M  V30 6919 H 648.01 -5.16666 2.27412 0
M  V30 6920 N 647.408 -1.11026 -1.11852 0
M  V30 6921 C 648.824 -0.843294 -1.35502 0
M  V30 6922 C 649.024 0.534179 -1.9429 0
M  V30 6923 O 648.08 1.28585 -2.17307 0
M  V30 6924 C 649.393 -1.94793 -2.29077 0
M  V30 6925 C 650.941 -1.97709 -2.42652 0
M  V30 6926 C 651.416 -3.07364 -3.39546 0
M  V30 6927 N 652.907 -3.0671 -3.47107 0
M  V30 6928 C 653.642 -3.88197 -4.22008 0
M  V30 6929 N 653.138 -4.79635 -4.99922 0
M  V30 6930 N 654.931 -3.76391 -4.17476 0
M  V30 6931 H 647.082 -1.99805 -0.720538 0
M  V30 6932 H 649.345 -0.868633 -0.379711 0
M  V30 6933 H 649.051 -2.93971 -1.93065 0
M  V30 6934 H 648.925 -1.84039 -3.29256 0
M  V30 6935 H 651.312 -0.991604 -2.77941 0
M  V30 6936 H 651.393 -2.1254 -1.4234 0
M  V30 6937 H 651.037 -4.06136 -3.04985 0
M  V30 6938 H 650.967 -2.89774 -4.39703 0
M  V30 6939 H 653.458 -2.40457 -2.91528 0
M  V30 6940 H 653.771 -5.38357 -5.54429 0
M  V30 6941 H 652.116 -4.8366 -4.99097 0
M  V30 6942 H 655.307 -3.04303 -3.55693 0
M  V30 6943 H 655.48 -4.40131 -4.75593 0
M  V30 6944 N 648.886 1.2938 -0.899927 0
M  V30 6945 C 649.816 2.30144 -0.39446 0
M  V30 6946 C 650.797 1.61611 0.530639 0
M  V30 6947 O 651.982 1.89119 0.441319 0
M  V30 6948 C 649.112 3.45229 0.37868 0
M  V30 6949 C 648.066 4.25564 -0.456012 0
M  V30 6950 C 647.392 5.32848 0.444637 0
M  V30 6951 C 648.692 4.93651 -1.70605 0
M  V30 6952 H 650.386 2.72673 -1.23653 0
M  V30 6953 H 647.932 1.31086 -0.596034 0
M  V30 6954 H 649.885 4.14797 0.743037 0
M  V30 6955 H 648.609 3.01545 1.25453 0
M  V30 6956 H 647.268 3.57704 -0.802704 0
M  V30 6957 H 646.916 4.85408 1.31863 0
M  V30 6958 H 646.616 5.87497 -0.110154 0
M  V30 6959 H 648.14 6.05268 0.805182 0
M  V30 6960 H 649.554 5.55655 -1.41141 0
M  V30 6961 H 647.951 5.58233 -2.20217 0
M  V30 6962 H 649.021 4.18926 -2.4419 0
M  V30 6963 N 650.364 0.662433 1.43002 0
M  V30 6964 C 651.589 0.186003 2.06564 0
M  V30 6965 C 652.014 -1.14314 1.49379 0
M  V30 6966 O 651.372 -1.70824 0.607346 0
M  V30 6967 C 651.42 0.118269 3.60406 0
M  V30 6968 O 650.524 -0.916859 4.02079 0
M  V30 6969 H 649.865 0.0990981 0.656563 0
M  V30 6970 H 652.395 0.907958 1.8335 0
M  V30 6971 H 652.405 -0.0619981 4.07953 0
M  V30 6972 H 651.08 1.08849 4.01403 0
M  V30 6973 H 649.657 -0.708635 3.66105 0
M  V30 6974 N 651.842 -1.52309 0.404946 0
M  V30 6975 C 653.067 -2.06666 -0.1743 0
M  V30 6976 C 653.492 -1.27341 -1.38441 0
M  V30 6977 O 652.85 -0.302539 -1.78758 0
M  V30 6978 C 652.898 -3.57014 -0.507262 0
M  V30 6979 O 652.002 -3.80144 -1.59889 0
M  V30 6980 H 651.343 -0.663807 -0.0160273 0
M  V30 6981 H 653.873 -1.96297 0.576937 0
M  V30 6982 H 653.883 -4.00724 -0.767098 0
M  V30 6983 H 652.558 -4.14184 0.377368 0
M  V30 6984 H 651.135 -3.48316 -1.33155 0
M  V30 6985 N 653.32 -0.135238 -1.57019 0
M  V30 6986 C 654.25 0.805235 -2.19176 0
M  V30 6987 C 655.231 1.2656 -1.13651 0
M  V30 6988 O 656.416 1.32528 -1.4195 0
M  V30 6989 C 653.546 2.04914 -2.80406 0
M  V30 6990 C 652.5 1.72598 -3.91655 0
M  V30 6991 C 651.826 3.04154 -4.39766 0
M  V30 6992 C 653.126 0.981709 -5.12991 0
M  V30 6993 H 654.82 0.287232 -2.98019 0
M  V30 6994 H 652.366 0.136714 -1.4335 0
M  V30 6995 H 654.319 2.71178 -3.22553 0
M  V30 6996 H 653.043 2.59067 -1.98877 0
M  V30 6997 H 651.702 1.08717 -3.50109 0
M  V30 6998 H 651.35 3.56274 -3.55075 0
M  V30 6999 H 651.05 2.83299 -5.14796 0
M  V30 7000 H 652.574 3.71509 -4.84576 0
M  V30 7001 H 653.988 1.5462 -5.52056 0
M  V30 7002 H 652.385 0.873533 -5.93708 0
M  V30 7003 H 653.455 -0.0286887 -4.84892 0
M  V30 7004 N 654.798 1.5699 0.138552 0
M  V30 7005 C 655.748 1.9532 1.17619 0
M  V30 7006 C 656.732 0.825545 1.38107 0
M  V30 7007 O 657.924 1.08908 1.39528 0
M  V30 7008 C 655.053 2.34451 2.50774 0
M  V30 7009 C 654.139 3.53805 2.33844 0
M  V30 7010 N 654.53 4.70088 1.86685 0
M  V30 7011 C 652.828 3.59055 2.64567 0
M  V30 7012 C 653.529 5.52165 1.82998 0
M  V30 7013 N 652.505 4.94108 2.26624 0
M  V30 7014 H 656.307 2.82694 0.803809 0
M  V30 7015 H 653.821 1.5866 0.346519 0
M  V30 7016 H 655.818 2.60119 3.25797 0
M  V30 7017 H 654.478 1.48431 2.88788 0
M  V30 7018 H 655.489 4.93681 1.56523 0
M  V30 7019 H 652.166 2.83596 3.06398 0
M  V30 7020 H 653.556 6.55407 1.47957 0
M  V30 7021 N 656.276 -0.40816 1.52223 0
M  V30 7022 C 657.223 -1.49737 1.75635 0
M  V30 7023 C 658.193 -1.5493 0.598824 0
M  V30 7024 O 659.378 -1.71487 0.83648 0
M  V30 7025 C 656.518 -2.87174 1.91376 0
M  V30 7026 C 655.631 -2.91283 3.19027 0
M  V30 7027 C 654.766 -4.20026 3.25195 0
M  V30 7028 C 653.805 -4.18113 4.47044 0
M  V30 7029 N 652.942 -5.38429 4.50598 0
M  V30 7030 H 657.782 -1.29075 2.68596 0
M  V30 7031 H 655.319 -0.626518 1.33091 0
M  V30 7032 H 657.277 -3.66959 1.98486 0
M  V30 7033 H 655.907 -3.06329 1.01795 0
M  V30 7034 H 654.959 -2.03984 3.21084 0
M  V30 7035 H 656.271 -2.85734 4.08849 0
M  V30 7036 H 655.425 -5.08204 3.31382 0
M  V30 7037 H 654.164 -4.28271 2.33313 0
M  V30 7038 H 653.169 -3.28325 4.41002 0
M  V30 7039 H 654.394 -4.11507 5.40221 0
M  V30 7040 H 652.34 -5.4734 3.616 0
M  V30 7041 H 652.257 -5.34879 5.34266 0
M  V30 7042 H 653.525 -6.28557 4.61016 0
M  V30 7043 N 657.755 -1.42862 -0.66545 0
M  V30 7044 C 659.032 -1.3431 -1.42197 0
M  V30 7045 C 659.412 0.0150265 -2.11095 0
M  V30 7046 O 658.76 1.03101 -2.03918 0
M  V30 7047 C 658.97 -2.51783 -2.41674 0
M  V30 7048 C 660.318 -2.94321 -3.0604 0
M  V30 7049 O 661.342 -2.51741 -2.52001 0
M  V30 7050 O 660.201 -3.68047 -4.03985 0
M  V30 7051 H 657.295 -0.530159 -0.634713 0
M  V30 7052 H 659.841 -1.54888 -0.693386 0
M  V30 7053 H 658.613 -3.42282 -1.89627 0
M  V30 7054 H 658.236 -2.33241 -3.22001 0
M  V30 7055 N 659.233 0.902656 -1.29189 0
M  V30 7056 C 660.649 1.18296 -1.07137 0
M  V30 7057 C 660.849 2.00701 0.179223 0
M  V30 7058 O 659.905 2.3675 0.877812 0
M  V30 7059 C 661.218 1.90677 -2.32514 0
M  V30 7060 C 662.766 2.03515 -2.37804 0
M  V30 7061 C 663.241 2.79307 -3.62976 0
M  V30 7062 N 664.732 2.86862 -3.63681 0
M  V30 7063 C 665.467 3.46035 -4.57217 0
M  V30 7064 N 664.963 4.06399 -5.61081 0
M  V30 7065 N 666.756 3.43681 -4.44792 0
M  V30 7066 H 658.907 0.352765 -2.0945 0
M  V30 7067 H 661.17 0.21876 -0.922414 0
M  V30 7068 H 660.876 1.3756 -3.23682 0
M  V30 7069 H 660.75 2.91169 -2.39793 0
M  V30 7070 H 663.137 2.55809 -1.47125 0
M  V30 7071 H 663.218 1.02166 -2.34512 0
M  V30 7072 H 662.862 2.2769 -4.54004 0
M  V30 7073 H 662.792 3.80995 -3.63525 0
M  V30 7074 H 665.283 2.43987 -2.88581 0
M  V30 7075 H 665.596 4.49564 -6.2858 0
M  V30 7076 H 663.941 4.0487 -5.64894 0
M  V30 7077 H 667.132 2.9574 -3.62843 0
M  V30 7078 H 667.305 3.89503 -5.17872 0
M  V30 7079 N 660.711 1.11618 1.11262 0
M  V30 7080 C 662.122 0.881942 1.64556 0
M  V30 7081 C 662.473 -0.585442 1.87262 0
M  V30 7082 O 661.598 -1.44795 1.60821 0
M  V30 7083 C 662.193 1.59446 2.98935 0
M  V30 7084 C 660.752 1.40661 3.4913 0
M  V30 7085 C 659.899 1.63593 2.23903 0
M  V30 7086 H 662.85 1.27217 0.94877 0
M  V30 7087 H 662.871 1.04054 3.65996 0
M  V30 7088 H 662.383 2.66241 2.82378 0
M  V30 7089 H 660.484 0.360835 3.70849 0
M  V30 7090 H 660.597 2.15693 4.27801 0
M  V30 7091 H 658.961 1.05944 2.3162 0
M  V30 7092 H 659.744 2.71666 2.09886 0
M  V30 7093 N 662.189 -1.289 0.906776 0
M  V30 7094 C 663.435 -1.95558 0.53712 0
M  V30 7095 C 663.768 -1.71262 -0.915582 0
M  V30 7096 O 663.043 -1.02961 -1.65013 0
M  V30 7097 C 663.326 -3.50198 0.838645 0
M  V30 7098 C 663.179 -3.83923 2.34357 0
M  V30 7099 C 664.498 -4.38861 0.329988 0
M  V30 7100 H 661.617 -0.710289 0.196617 0
M  V30 7101 H 664.259 -1.52392 1.13475 0
M  V30 7102 H 662.409 -3.87096 0.330024 0
M  V30 7103 H 664.081 -3.56933 2.92227 0
M  V30 7104 H 662.324 -3.31215 2.80141 0
M  V30 7105 H 662.995 -4.91883 2.5051 0
M  V30 7106 H 665.471 -4.08996 0.765609 0
M  V30 7107 H 664.347 -5.45931 0.570105 0
M  V30 7108 H 664.608 -4.35352 -0.769511 0
M  V30 7109 N 663.667 -0.670007 -1.42649 0
M  V30 7110 C 664.577 0.0114788 -2.34597 0
M  V30 7111 C 665.593 0.794055 -1.54825 0
M  V30 7112 O 666.769 0.737472 -1.87412 0
M  V30 7113 C 663.834 0.954436 -3.33304 0
M  V30 7114 C 662.895 0.166925 -4.28975 0
M  V30 7115 C 662.128 1.06497 -5.22967 0
M  V30 7116 O 662.351 2.30446 -5.21777 0
M  V30 7117 O 661.285 0.528347 -5.99577 0
M  V30 7118 H 665.111 -0.745794 -2.944 0
M  V30 7119 H 662.696 -0.430228 -1.43071 0
M  V30 7120 H 664.578 1.49589 -3.93956 0
M  V30 7121 H 663.253 1.69164 -2.7598 0
M  V30 7122 H 662.16 -0.418515 -3.71752 0
M  V30 7123 H 663.493 -0.531067 -4.89327 0
M  V30 7124 N 665.145 1.52092 -0.413018 0
M  V30 7125 C 666.556 1.86617 0.0556967 0
M  V30 7126 C 666.907 1.33156 1.44097 0
M  V30 7127 O 666.032 0.672417 2.05688 0
M  V30 7128 C 666.627 3.38628 0.107844 0
M  V30 7129 C 665.186 3.72778 0.520904 0
M  V30 7130 C 664.333 2.75649 -0.302109 0
M  V30 7131 H 667.284 1.45663 -0.629919 0
M  V30 7132 H 667.305 3.69152 0.922324 0
M  V30 7133 H 666.817 3.77508 -0.900506 0
M  V30 7134 H 664.918 3.39478 1.53575 0
M  V30 7135 H 665.031 4.7838 0.262591 0
M  V30 7136 H 663.395 2.53603 0.236115 0
M  V30 7137 H 664.178 3.17369 -1.30888 0
M  V30 7138 N 666.623 0.143563 1.56945 0
M  V30 7139 C 667.553 -0.7936 2.196 0
M  V30 7140 C 668.534 -1.25955 1.14321 0
M  V30 7141 O 669.719 -1.31773 1.42651 0
M  V30 7142 C 666.849 -2.03424 2.81489 0
M  V30 7143 C 665.803 -1.70519 3.92565 0
M  V30 7144 C 665.129 -3.01817 4.41373 0
M  V30 7145 C 666.429 -0.95449 5.13504 0
M  V30 7146 H 668.123 -0.271423 2.98167 0
M  V30 7147 H 665.669 -0.12911 1.4342 0
M  V30 7148 H 667.622 -2.69463 3.23987 0
M  V30 7149 H 666.346 -2.58008 2.00248 0
M  V30 7150 H 665.005 -1.06859 3.5068 0
M  V30 7151 H 664.653 -3.54386 3.56959 0
M  V30 7152 H 664.353 -2.80565 5.16292 0
M  V30 7153 H 665.877 -3.68934 4.86539 0
M  V30 7154 H 667.291 -1.5169 5.52868 0
M  V30 7155 H 665.688 -0.842035 5.94163 0
M  V30 7156 H 666.758 0.0544033 4.84869 0
M  V30 7157 N 668.101 -1.57061 -0.130224 0
M  V30 7158 C 669.378 -1.75205 -0.869631 0
M  V30 7159 C 669.758 -0.716063 -1.98584 0
M  V30 7160 O 669.106 0.262032 -2.26993 0
M  V30 7161 C 669.316 -3.19835 -1.39666 0
M  V30 7162 C 670.664 -3.82011 -1.85345 0
M  V30 7163 O 671.688 -3.23368 -1.49371 0
M  V30 7164 O 670.547 -4.85064 -2.51744 0
M  V30 7165 H 667.641 -0.716977 -0.412157 0
M  V30 7166 H 670.187 -1.69311 -0.11484 0
M  V30 7167 H 668.959 -3.86745 -0.595288 0
M  V30 7168 H 668.582 -3.30222 -2.21448 0
M  V30 7169 N 669.579 0.400081 -1.52437 0
M  V30 7170 C 670.509 1.4947 -1.7939 0
M  V30 7171 C 671.49 1.57383 -0.645329 0
M  V30 7172 O 672.675 1.72511 -0.891826 0
M  V30 7173 C 669.805 2.87201 -1.95276 0
M  V30 7174 C 668.759 2.94134 -3.10917 0
M  V30 7175 C 668.085 4.34207 -3.1204 0
M  V30 7176 C 669.385 2.64791 -4.50203 0
M  V30 7177 H 671.079 1.27165 -2.71052 0
M  V30 7178 H 668.625 0.610312 -1.30427 0
M  V30 7179 H 670.578 3.63772 -2.12715 0
M  V30 7180 H 669.302 3.10819 -1.00294 0
M  V30 7181 H 667.961 2.20009 -2.93243 0
M  V30 7182 H 667.609 4.54848 -2.14761 0
M  V30 7183 H 667.309 4.39768 -3.89715 0
M  V30 7184 H 668.833 5.127 -3.31619 0
M  V30 7185 H 670.247 3.31083 -4.68035 0
M  V30 7186 H 668.644 2.81717 -5.29864 0
M  V30 7187 H 669.714 1.60184 -4.57678 0
M  V30 7188 N 671.057 1.43213 0.657864 0
M  V30 7189 C 672.02 1.47687 1.75275 0
M  V30 7190 C 673.02 0.362179 1.56668 0
M  V30 7191 O 674.21 0.623734 1.62651 0
M  V30 7192 C 671.342 1.32497 3.14098 0
M  V30 7193 H 672.535 2.4519 1.7269 0
M  V30 7194 H 670.088 1.2991 0.869087 0
M  V30 7195 H 670.823 0.359831 3.22298 0
M  V30 7196 H 670.608 2.13299 3.29008 0
M  V30 7197 H 672.098 1.38549 3.93946 0
M  V30 7198 N 672.536 -0.895792 1.29666 0
M  V30 7199 C 673.782 -1.64908 1.18039 0
M  V30 7200 C 674.115 -1.9236 -0.266682 0
M  V30 7201 O 673.39 -1.53682 -1.19214 0
M  V30 7202 C 673.673 -2.99574 1.99819 0
M  V30 7203 C 673.526 -2.79163 3.52687 0
M  V30 7204 C 674.845 -4.00358 1.82761 0
M  V30 7205 H 671.964 -0.598437 0.430165 0
M  V30 7206 H 674.606 -1.03736 1.59182 0
M  V30 7207 H 672.756 -3.51786 1.64859 0
M  V30 7208 H 674.428 -2.33821 3.9765 0
M  V30 7209 H 672.671 -2.13871 3.77414 0
M  V30 7210 H 673.342 -3.74871 4.05186 0
M  V30 7211 H 675.818 -3.57268 2.13304 0
M  V30 7212 H 674.694 -4.92514 2.42325 0
M  V30 7213 H 674.955 -4.35096 0.783839 0
M  V30 7214 N 674.014 -1.12206 -1.10668 0
M  V30 7215 C 675.261 -0.875875 -1.82578 0
M  V30 7216 C 675.589 0.598342 -1.85068 0
M  V30 7217 O 674.844 1.45818 -1.3052 0
M  V30 7218 C 675.143 -1.39276 -3.29146 0
M  V30 7219 C 674.809 -2.8816 -3.46806 0
M  V30 7220 C 673.471 -3.28813 -3.51334 0
M  V30 7221 C 675.823 -3.8401 -3.52399 0
M  V30 7222 C 673.151 -4.64028 -3.59019 0
M  V30 7223 C 675.503 -5.19053 -3.61617 0
M  V30 7224 C 674.167 -5.59252 -3.64408 0
M  V30 7225 H 673.437 -0.320505 -0.6681 0
M  V30 7226 H 676.084 -1.40184 -1.30464 0
M  V30 7227 H 674.389 -0.787207 -3.8381 0
M  V30 7228 H 676.086 -1.17851 -3.83291 0
M  V30 7229 H 672.676 -2.55716 -3.43958 0
M  V30 7230 H 676.86 -3.53698 -3.48154 0
M  V30 7231 H 672.116 -4.94568 -3.59461 0
M  V30 7232 H 676.29 -5.93152 -3.64889 0
M  V30 7233 H 673.917 -6.64017 -3.70116 0
M  V30 7234 N 675.492 1.28418 -0.913599 0
M  V30 7235 C 676.738 1.95627 -0.556933 0
M  V30 7236 C 677.093 1.706 0.889565 0
M  V30 7237 O 676.386 1.01637 1.6242 0
M  V30 7238 C 676.58 3.48283 -0.802099 0
M  V30 7239 C 676.409 3.88151 -2.27088 0
M  V30 7240 C 675.179 4.1232 -2.92096 0
M  V30 7241 C 677.377 3.98819 -3.24728 0
M  V30 7242 N 675.359 4.3886 -4.29272 0
M  V30 7243 C 676.73 4.29571 -4.47067 0
M  V30 7244 C 678.785 3.81342 -3.20129 0
M  V30 7245 C 677.488 4.44667 -5.65388 0
M  V30 7246 C 679.514 3.97656 -4.37749 0
M  V30 7247 C 678.876 4.2878 -5.58862 0
M  V30 7248 H 674.975 0.739715 -0.253664 0
M  V30 7249 H 677.559 1.55074 -1.1773 0
M  V30 7250 H 675.73 3.87826 -0.211007 0
M  V30 7251 H 677.462 4.02623 -0.409478 0
M  V30 7252 H 674.217 4.06611 -2.42826 0
M  V30 7253 H 674.641 4.56214 -5.00198 0
M  V30 7254 H 679.283 3.56331 -2.2757 0
M  V30 7255 H 677.001 4.68509 -6.58426 0
M  V30 7256 H 680.587 3.85569 -4.35692 0
M  V30 7257 H 679.467 4.41136 -6.48359 0
M  V30 7258 N 676.97 0.677563 1.42291 0
M  V30 7259 C 678.216 0.201272 2.01799 0
M  V30 7260 C 678.549 -1.19004 1.53465 0
M  V30 7261 O 677.824 -1.79953 0.738039 0
M  V30 7262 C 678.107 0.238968 3.59306 0
M  V30 7263 C 677.96 1.66594 4.17812 0
M  V30 7264 C 679.279 -0.411287 4.38174 0
M  V30 7265 H 676.398 0.0746114 0.733214 0
M  V30 7266 H 679.04 0.862872 1.69276 0
M  V30 7267 H 677.19 -0.324368 3.87144 0
M  V30 7268 H 678.862 2.28173 4.00917 0
M  V30 7269 H 677.105 2.20576 3.73536 0
M  V30 7270 H 677.776 1.64398 5.26951 0
M  V30 7271 H 680.252 0.0682804 4.16044 0
M  V30 7272 H 679.128 -0.354286 5.47755 0
M  V30 7273 H 679.389 -1.4893 4.1626 0
M  V30 7274 N 678.448 -1.51871 0.421078 0
M  V30 7275 C 679.358 -2.31077 -0.405069 0
M  V30 7276 C 680.374 -1.39301 -1.04265 0
M  V30 7277 O 681.55 -1.72376 -1.04157 0
M  V30 7278 C 678.615 -3.12556 -1.50032 0
M  V30 7279 C 677.676 -4.20088 -0.884559 0
M  V30 7280 C 676.909 -4.97673 -1.92762 0
M  V30 7281 O 677.132 -4.75696 -3.14753 0
M  V30 7282 O 676.066 -5.82203 -1.52719 0
M  V30 7283 H 679.892 -3.02742 0.241086 0
M  V30 7284 H 677.477 -1.48263 0.183991 0
M  V30 7285 H 679.359 -3.6326 -2.13589 0
M  V30 7286 H 678.034 -2.43672 -2.13086 0
M  V30 7287 H 676.941 -3.73502 -0.211379 0
M  V30 7288 H 678.274 -4.91298 -0.297763 0
M  V30 7289 N 679.926 -0.151884 -1.56866 0
M  V30 7290 C 681.173 0.498004 -1.96281 0
M  V30 7291 C 681.501 1.64551 -1.03698 0
M  V30 7292 O 680.756 1.95585 -0.0671497 0
M  V30 7293 C 681.055 1.04074 -3.41911 0
M  V30 7294 C 680.721 0.0111688 -4.50899 0
M  V30 7295 C 679.383 -0.271844 -4.80432 0
M  V30 7296 C 681.735 -0.68869 -5.1663 0
M  V30 7297 C 679.063 -1.26044 -5.73001 0
M  V30 7298 C 681.415 -1.66613 -6.10264 0
M  V30 7299 C 680.079 -1.9568 -6.38174 0
M  V30 7300 H 679.349 0.182233 -0.718242 0
M  V30 7301 H 681.996 -0.239746 -1.89993 0
M  V30 7302 H 680.301 1.85592 -3.45055 0
M  V30 7303 H 681.998 1.55224 -3.69738 0
M  V30 7304 H 678.588 0.241932 -4.27917 0
M  V30 7305 H 682.772 -0.48324 -4.93942 0
M  V30 7306 H 678.028 -1.49202 -5.92915 0
M  V30 7307 H 682.202 -2.21392 -6.60272 0
M  V30 7308 H 679.829 -2.72434 -7.09707 0
M  V30 7309 N 681.404 1.57128 0.121893 0
M  V30 7310 C 682.65 1.84974 0.831418 0
M  V30 7311 C 682.983 0.737204 1.79663 0
M  V30 7312 O 682.258 -0.257199 1.92792 0
M  V30 7313 C 682.541 3.23397 1.58386 0
M  V30 7314 C 682.394 4.45246 0.638445 0
M  V30 7315 C 683.713 3.59355 2.54071 0
M  V30 7316 H 680.832 0.67282 0.300803 0
M  V30 7317 H 683.474 1.89759 0.0957587 0
M  V30 7318 H 681.624 3.19449 2.21098 0
M  V30 7319 H 683.296 4.61295 0.0203925 0
M  V30 7320 H 681.539 4.33771 -0.05023 0
M  V30 7321 H 682.21 5.38765 1.20151 0
M  V30 7322 H 684.686 3.64075 2.01465 0
M  V30 7323 H 683.562 4.57193 3.03752 0
M  V30 7324 H 683.823 2.86622 3.36601 0
M  V30 7325 N 682.882 -0.391992 1.52647 0
M  V30 7326 C 683.815 -1.50019 1.71958 0
M  V30 7327 C 684.793 -1.5238 0.567365 0
M  V30 7328 O 685.977 -1.70831 0.796806 0
M  V30 7329 C 683.104 -2.88496 1.77447 0
M  V30 7330 C 682.15 -3.03974 2.99169 0
M  V30 7331 S 682.983 -2.75487 4.59203 0
M  V30 7332 C 684.139 -4.16163 4.67503 0
M  V30 7333 H 684.372 -1.33413 2.65685 0
M  V30 7334 H 681.905 -0.584674 1.42902 0
M  V30 7335 H 683.863 -3.68296 1.81296 0
M  V30 7336 H 682.524 -3.02431 0.848188 0
M  V30 7337 H 681.717 -4.05328 2.99542 0
M  V30 7338 H 681.319 -2.32062 2.93297 0
M  V30 7339 H 683.611 -5.10048 4.45934 0
M  V30 7340 H 684.554 -4.20806 5.69498 0
M  V30 7341 H 684.962 -4.01933 3.96371 0
M  V30 7342 N 684.36 -1.4356 -0.65026 0
M  V30 7343 C 685.776 -1.27025 -0.966269 0
M  V30 7344 C 685.976 -0.192117 -2.00582 0
M  V30 7345 O 685.032 0.428459 -2.48838 0
M  V30 7346 C 686.345 -2.63556 -1.44772 0
M  V30 7347 C 687.893 -2.71111 -1.56421 0
M  V30 7348 C 688.368 -4.08067 -2.07956 0
M  V30 7349 N 689.859 -4.10146 -2.15254 0
M  V30 7350 C 690.594 -5.12952 -2.56258 0
M  V30 7351 N 690.09 -6.26129 -2.96537 0
M  V30 7352 N 691.883 -5.00306 -2.56224 0
M  V30 7353 H 684.034 -2.12367 0.0375758 0
M  V30 7354 H 686.297 -0.946894 -0.0457782 0
M  V30 7355 H 686.003 -3.43429 -0.758271 0
M  V30 7356 H 685.877 -2.89152 -2.42221 0
M  V30 7357 H 688.264 -1.91569 -2.24467 0
M  V30 7358 H 688.345 -2.49277 -0.573967 0
M  V30 7359 H 687.989 -4.88077 -1.40511 0
M  V30 7360 H 687.919 -4.27266 -3.07817 0
M  V30 7361 H 690.41 -3.28453 -1.86887 0
M  V30 7362 H 690.723 -7.00403 -3.26582 0
M  V30 7363 H 689.068 -6.29597 -2.94334 0
M  V30 7364 H 692.259 -4.10952 -2.24135 0
M  V30 7365 H 692.432 -5.80553 -2.87857 0
M  V30 7366 N 685.838 0.888903 -1.30139 0
M  V30 7367 C 686.788 1.9814 -1.12803 0
M  V30 7368 C 687.772 1.60839 -0.0443137 0
M  V30 7369 O 688.964 1.74971 -0.267208 0
M  V30 7370 C 686.093 3.33416 -0.817849 0
M  V30 7371 C 685.179 3.77043 -1.94163 0
M  V30 7372 N 685.57 3.92805 -3.18651 0
M  V30 7373 C 683.868 4.06407 -1.8371 0
M  V30 7374 C 684.569 4.29746 -3.92038 0
M  V30 7375 N 683.545 4.3939 -3.20059 0
M  V30 7376 H 687.347 2.08411 -2.07225 0
M  V30 7377 H 684.861 1.07845 -1.21421 0
M  V30 7378 H 686.858 4.11405 -0.674668 0
M  V30 7379 H 685.518 3.24484 0.118344 0
M  V30 7380 H 686.529 3.78042 -3.53984 0
M  V30 7381 H 683.206 4.05972 -0.974331 0
M  V30 7382 H 684.596 4.49695 -4.99223 0
M  V30 7383 N 687.317 1.12792 1.10072 0
M  V30 7384 C 688.264 0.79921 2.16521 0
M  V30 7385 C 689.234 -0.235726 1.64419 0
M  V30 7386 O 690.419 -0.109457 1.90486 0
M  V30 7387 C 687.559 0.264091 3.44088 0
M  V30 7388 C 686.672 1.35729 4.10124 0
M  V30 7389 C 685.807 0.781212 5.25424 0
M  V30 7390 C 684.846 1.85327 5.8337 0
M  V30 7391 N 683.983 1.29564 6.90042 0
M  V30 7392 H 688.823 1.71105 2.43981 0
M  V30 7393 H 686.36 0.854225 1.19756 0
M  V30 7394 H 688.318 -0.0642423 4.17151 0
M  V30 7395 H 686.948 -0.610901 3.16967 0
M  V30 7396 H 686 1.80234 3.34993 0
M  V30 7397 H 687.312 2.16782 4.4923 0
M  V30 7398 H 686.466 0.403769 6.05355 0
M  V30 7399 H 685.205 -0.0604686 4.87663 0
M  V30 7400 H 684.21 2.23986 5.02106 0
M  V30 7401 H 685.435 2.69824 6.23195 0
M  V30 7402 H 683.381 0.475844 6.54272 0
M  V30 7403 H 683.298 2.04271 7.2788 0
M  V30 7404 H 684.566 0.945545 7.73744 0
M  V30 7405 N 688.795 -1.27931 0.920396 0
M  V30 7406 C 690.043 -1.94304 0.555906 0
M  V30 7407 C 690.364 -1.72753 -0.904519 0
M  V30 7408 O 689.634 -1.07104 -1.64029 0
M  V30 7409 H 688.214 -0.719001 0.202599 0
M  V30 7410 H 690.876 -1.55785 1.1712 0
M  V30 7411 H 689.972 -3.02806 0.755981 0
M  V30 7412 N 690.273 -0.685099 -1.4193 0
M  V30 7413 C 691.236 -0.0222632 -2.29189 0
M  V30 7414 C 692.236 0.7186 -1.4385 0
M  V30 7415 O 693.426 0.555058 -1.6512 0
M  V30 7416 C 690.558 0.979013 -3.2654 0
M  V30 7417 H 691.751 -0.790424 -2.89296 0
M  V30 7418 H 689.304 -0.448012 -1.49742 0
M  V30 7419 H 690.039 1.77531 -2.71392 0
M  V30 7420 H 689.824 0.451037 -3.89497 0
M  V30 7421 H 691.314 1.44091 -3.91954 0
M  V30 7422 N 691.751 1.51645 -0.429126 0
M  V30 7423 C 693.162 1.86665 0.0359003 0
M  V30 7424 C 693.513 1.34677 1.42676 0
M  V30 7425 O 692.638 0.694195 2.04963 0
M  V30 7426 C 693.233 3.38724 0.0719221 0
M  V30 7427 C 691.792 3.7331 0.481336 0
M  V30 7428 C 690.939 2.75313 -0.331329 0
M  V30 7429 H 693.89 1.44987 -0.645333 0
M  V30 7430 H 693.911 3.7011 0.883118 0
M  V30 7431 H 693.423 3.76532 -0.940495 0
M  V30 7432 H 691.524 3.41088 1.49966 0
M  V30 7433 H 691.637 4.78631 0.211837 0
M  V30 7434 H 690.001 2.53839 0.209204 0
M  V30 7435 H 690.784 3.15963 -1.34247 0
M  V30 7436 N 693.229 0.160201 1.56784 0
M  V30 7437 C 694.179 -0.786461 2.14007 0
M  V30 7438 C 695.163 -1.20046 1.07134 0
M  V30 7439 O 696.355 -1.16468 1.33283 0
M  V30 7440 C 693.484 -2.02024 2.77563 0
M  V30 7441 C 692.57 -1.62874 3.91578 0
M  V30 7442 N 692.961 -0.946176 4.96871 0
M  V30 7443 C 691.259 -1.92054 4.02531 0
M  V30 7444 C 691.96 -0.755084 5.76778 0
M  V30 7445 N 690.936 -1.29307 5.27997 0
M  V30 7446 H 694.738 -0.255879 2.92784 0
M  V30 7447 H 692.252 -0.0408778 1.62349 0
M  V30 7448 H 694.249 -2.70855 3.16928 0
M  V30 7449 H 692.909 -2.55587 2.00263 0
M  V30 7450 H 693.92 -0.605455 5.14349 0
M  V30 7451 H 690.597 -2.47374 3.36322 0
M  V30 7452 H 691.987 -0.216138 6.71552 0
M  V30 7453 N 694.707 -1.5719 -0.113559 0
M  V30 7454 C 695.637 -2.03772 -1.14013 0
M  V30 7455 C 696.618 -0.923176 -1.42869 0
M  V30 7456 O 697.803 -1.19325 -1.53216 0
M  V30 7457 C 694.933 -2.44663 -2.4649 0
M  V30 7458 C 693.887 -3.59612 -2.32085 0
M  V30 7459 C 693.213 -3.8642 -3.69573 0
M  V30 7460 C 694.513 -4.91149 -1.7768 0
M  V30 7461 H 696.207 -2.89785 -0.752665 0
M  V30 7462 H 693.753 -1.39412 -0.360609 0
M  V30 7463 H 695.706 -2.75857 -3.18561 0
M  V30 7464 H 694.43 -1.55628 -2.87137 0
M  V30 7465 H 693.089 -3.28636 -1.62461 0
M  V30 7466 H 692.737 -2.94581 -4.07715 0
M  V30 7467 H 692.437 -4.63797 -3.60786 0
M  V30 7468 H 693.961 -4.2007 -4.4314 0
M  V30 7469 H 695.375 -5.20843 -2.39574 0
M  V30 7470 H 693.772 -5.72562 -1.79701 0
M  V30 7471 H 694.842 -4.79301 -0.734776 0
M  V30 7472 N 696.185 0.383891 -1.52853 0
M  V30 7473 C 697.601 0.724316 -1.42218 0
M  V30 7474 C 697.801 1.93943 -0.546654 0
M  V30 7475 O 696.857 2.5249 -0.0220562 0
M  V30 7476 C 698.17 0.954635 -2.85144 0
M  V30 7477 C 699.718 1.05579 -2.94656 0
M  V30 7478 C 700.193 1.3187 -4.38605 0
M  V30 7479 N 701.684 1.38681 -4.41952 0
M  V30 7480 C 702.419 1.60699 -5.50421 0
M  V30 7481 N 701.915 1.80154 -6.68967 0
M  V30 7482 N 703.708 1.6292 -5.37972 0
M  V30 7483 H 695.859 -0.4156 -2.08294 0
M  V30 7484 H 698.122 -0.123776 -0.939885 0
M  V30 7485 H 697.828 0.133829 -3.51445 0
M  V30 7486 H 697.702 1.86788 -3.27704 0
M  V30 7487 H 700.089 1.86716 -2.2852 0
M  V30 7488 H 700.17 0.120338 -2.55517 0
M  V30 7489 H 699.814 0.512416 -5.05309 0
M  V30 7490 H 699.744 2.26708 -4.75301 0
M  V30 7491 H 702.235 1.25334 -3.56511 0
M  V30 7492 H 702.548 1.96476 -7.47407 0
M  V30 7493 H 700.893 1.77368 -6.71986 0
M  V30 7494 H 704.084 1.47276 -4.44328 0
M  V30 7495 H 704.257 1.79739 -6.22574 0
M  V30 7496 N 697.663 1.43903 0.642637 0
M  V30 7497 C 699.074 1.40975 1.22404 0
M  V30 7498 C 699.425 0.1192 1.95838 0
M  V30 7499 O 698.55 -0.780939 2.01818 0
M  V30 7500 C 699.145 2.5538 2.22636 0
M  V30 7501 C 697.704 2.55684 2.76229 0
M  V30 7502 C 696.851 2.32556 1.51039 0
M  V30 7503 H 699.802 1.5265 0.434006 0
M  V30 7504 H 699.823 2.27474 3.05017 0
M  V30 7505 H 699.335 3.49294 1.69161 0
M  V30 7506 H 697.436 1.65679 3.33738 0
M  V30 7507 H 697.549 3.53799 3.23053 0
M  V30 7508 H 695.913 1.81427 1.78764 0
M  V30 7509 H 696.696 3.28569 0.99484 0
M  V30 7510 N 699.141 -0.881989 1.30609 0
M  V30 7511 C 700.104 -1.96957 1.1722 0
M  V30 7512 C 701.104 -1.60472 0.102598 0
M  V30 7513 O 702.294 -1.70628 0.350943 0
M  V30 7514 C 699.426 -3.31463 0.796572 0
M  V30 7515 H 700.619 -2.10262 2.13846 0
M  V30 7516 H 698.172 -1.06877 1.14048 0
M  V30 7517 H 698.907 -3.23859 -0.169053 0
M  V30 7518 H 698.692 -3.59314 1.56959 0
M  V30 7519 H 700.182 -4.11233 0.72645 0
M  V30 7520 N 700.619 -1.13374 -1.09472 0
M  V30 7521 C 701.582 -0.813639 -2.14272 0
M  V30 7522 C 702.582 0.176677 -1.59826 0
M  V30 7523 O 703.772 -0.0503441 -1.74127 0
M  V30 7524 C 700.904 -0.210897 -3.40247 0
M  V30 7525 H 702.097 -1.74229 -2.44099 0
M  V30 7526 H 699.65 -0.938304 -1.25002 0
M  V30 7527 H 700.385 0.726998 -3.16046 0
M  V30 7528 H 700.17 -0.924048 -3.81056 0
M  V30 7529 H 701.66 -0.00377603 -4.176 0
M  V30 7530 N 702.098 1.27442 -0.927168 0
M  V30 7531 C 703.048 2.24519 -0.396878 0
M  V30 7532 C 704.032 1.52981 0.498555 0
M  V30 7533 O 705.224 1.7378 0.336087 0
M  V30 7534 C 702.353 3.41514 0.349694 0
M  V30 7535 C 701.439 4.20357 -0.562226 0
M  V30 7536 N 701.83 4.7702 -1.68182 0
M  V30 7537 C 700.128 4.44503 -0.365135 0
M  V30 7538 C 700.829 5.36467 -2.24895 0
M  V30 7539 N 699.805 5.21371 -1.5386 0
M  V30 7540 H 703.607 2.65911 -1.25173 0
M  V30 7541 H 701.121 1.42366 -0.78138 0
M  V30 7542 H 703.118 4.10161 0.746536 0
M  V30 7543 H 701.778 3.01653 1.20148 0
M  V30 7544 H 702.789 4.74985 -2.06421 0
M  V30 7545 H 699.466 4.15111 0.446037 0
M  V30 7546 H 700.856 5.91264 -3.1915 0
M  V30 7547 N 703.576 0.692616 1.41565 0
M  V30 7548 C 704.853 0.150496 1.9502 0
M  V30 7549 C 705.233 -1.33881 1.63215 0
M  V30 7550 O 704.581 -2.08378 0.937598 0
M  V30 7551 C 704.791 0.438636 3.46233 0
M  V30 7552 C 706.139 0.364777 4.2303 0
M  V30 7553 O 707.163 0.373383 3.54238 0
M  V30 7554 O 706.022 0.32234 5.45549 0
M  V30 7555 H 703.116 0.0132454 0.826894 0
M  V30 7556 H 705.662 0.768574 1.51298 0
M  V30 7557 H 704.434 1.46962 3.62654 0
M  V30 7558 H 704.057 -0.210562 3.97042 0
M  V30 7559 N 705.054 -1.51416 0.437162 0
M  V30 7560 C 705.984 -2.30631 -0.364922 0
M  V30 7561 C 706.965 -1.36037 -1.02118 0
M  V30 7562 O 708.15 -1.64956 -1.02485 0
M  V30 7563 C 705.28 -3.1482 -1.46648 0
M  V30 7564 C 704.234 -4.17691 -0.933717 0
M  V30 7565 C 703.56 -4.904 -2.13101 0
M  V30 7566 C 704.86 -5.2229 0.0317201 0
M  V30 7567 H 706.554 -2.97932 0.29614 0
M  V30 7568 H 704.1 -1.4328 0.143865 0
M  V30 7569 H 706.053 -3.69017 -2.03481 0
M  V30 7570 H 704.777 -2.4534 -2.15583 0
M  V30 7571 H 703.436 -3.64545 -0.387602 0
M  V30 7572 H 703.084 -4.17423 -2.80654 0
M  V30 7573 H 702.784 -5.59962 -1.78092 0
M  V30 7574 H 704.308 -5.4742 -2.70487 0
M  V30 7575 H 705.722 -5.7156 -0.446302 0
M  V30 7576 H 704.119 -5.99378 0.29437 0
M  V30 7577 H 705.189 -4.75131 0.968447 0
M  V30 7578 N 706.532 -0.168513 -1.56696 0
M  V30 7579 C 707.76 0.483503 -2.01171 0
M  V30 7580 C 708.175 1.56994 -1.04872 0
M  V30 7581 O 707.532 1.82434 -0.0491337 0
M  V30 7582 C 707.583 1.0644 -3.45475 0
M  V30 7583 O 707.304 0.0213375 -4.38095 0
M  V30 7584 C 708.805 1.79493 -4.05336 0
M  V30 7585 H 706.025 0.124002 -0.659443 0
M  V30 7586 H 708.569 -0.269419 -2.02717 0
M  V30 7587 H 706.724 1.76784 -3.44712 0
M  V30 7588 H 707.138 0.449837 -5.22567 0
M  V30 7589 H 708.612 2.15401 -5.08238 0
M  V30 7590 H 709.089 2.68889 -3.47269 0
M  V30 7591 H 709.695 1.13798 -4.09793 0
M  V30 7592 N 708.01 1.57248 0.105221 0
M  V30 7593 C 709.256 1.86719 0.806692 0
M  V30 7594 C 709.611 0.758061 1.76837 0
M  V30 7595 O 708.904 -0.240812 1.90081 0
M  V30 7596 C 709.098 3.20437 1.58287 0
M  V30 7597 C 708.927 4.44252 0.697864 0
M  V30 7598 C 707.697 5.04104 0.347444 0
M  V30 7599 C 709.895 5.14299 0.00933014 0
M  V30 7600 N 707.877 6.1146 -0.546786 0
M  V30 7601 C 709.248 6.15528 -0.74336 0
M  V30 7602 C 711.303 4.97857 -0.0656505 0
M  V30 7603 C 710.006 7.02091 -1.56401 0
M  V30 7604 C 712.032 5.84919 -0.873167 0
M  V30 7605 C 711.394 6.8566 -1.61401 0
M  V30 7606 H 707.493 0.73329 0.271679 0
M  V30 7607 H 710.077 1.94575 0.0697152 0
M  V30 7608 H 708.248 3.13651 2.29079 0
M  V30 7609 H 709.98 3.37668 2.23075 0
M  V30 7610 H 706.735 4.68505 0.692817 0
M  V30 7611 H 707.159 6.69779 -0.986157 0
M  V30 7612 H 711.801 4.19919 0.492768 0
M  V30 7613 H 709.519 7.79427 -2.13353 0
M  V30 7614 H 713.105 5.74259 -0.933724 0
M  V30 7615 H 711.985 7.5186 -2.2288 0
M  V30 7616 N 709.488 -0.375779 1.53054 0
M  V30 7617 C 710.718 -1.1387 1.72386 0
M  V30 7618 C 711.126 -1.8382 0.447966 0
M  V30 7619 O 710.469 -1.74027 -0.588244 0
M  V30 7620 C 710.531 -2.22047 2.82728 0
M  V30 7621 C 710.195 -1.71951 4.23417 0
M  V30 7622 C 711.192 -1.18909 5.06119 0
M  V30 7623 C 708.877 -1.77773 4.69789 0
M  V30 7624 C 710.871 -0.723529 6.3328 0
M  V30 7625 C 708.558 -1.30829 5.96931 0
M  V30 7626 C 709.556 -0.782077 6.78508 0
M  V30 7627 O 709.244 -0.319529 8.03265 0
M  V30 7628 H 708.976 -0.346835 0.580242 0
M  V30 7629 H 711.53 -0.443748 2.00549 0
M  V30 7630 H 709.76 -2.95006 2.50017 0
M  V30 7631 H 711.449 -2.83654 2.90336 0
M  V30 7632 H 712.215 -1.13758 4.7147 0
M  V30 7633 H 708.094 -2.17673 4.06373 0
M  V30 7634 H 711.638 -0.312126 6.96901 0
M  V30 7635 H 707.535 -1.3567 6.31081 0
M  V30 7636 H 708.303 -0.439796 8.17318 0
M  V30 7637 N 710.966 -1.44241 -0.634997 0
M  V30 7638 C 711.898 -1.46793 -1.76024 0
M  V30 7639 C 712.911 -0.361781 -1.58729 0
M  V30 7640 O 714.1 -0.627297 -1.67114 0
M  V30 7641 C 711.2 -1.28248 -3.13697 0
M  V30 7642 C 710.373 -2.52038 -3.57485 0
M  V30 7643 C 709.432 -2.2845 -4.74022 0
M  V30 7644 O 708.458 -3.01915 -4.82531 0
M  V30 7645 N 709.66 -1.31264 -5.65464 0
M  V30 7646 H 712.425 -2.43797 -1.74307 0
M  V30 7647 H 709.986 -1.39631 -0.819438 0
M  V30 7648 H 711.978 -1.10321 -3.89373 0
M  V30 7649 H 710.548 -0.39623 -3.10079 0
M  V30 7650 H 709.768 -2.85268 -2.72059 0
M  V30 7651 H 711.056 -3.34382 -3.83492 0
M  V30 7652 H 710.454 -0.705817 -5.6128 0
M  V30 7653 H 709.011 -1.19316 -6.40786 0
M  V30 7654 N 712.444 0.87505 -1.31075 0
M  V30 7655 C 713.674 1.65818 -1.2324 0
M  V30 7656 C 714.082 1.8808 0.205536 0
M  V30 7657 O 713.425 1.43548 1.14628 0
M  V30 7658 C 713.487 3.05131 -1.90093 0
M  V30 7659 C 713.151 3.05999 -3.39432 0
M  V30 7660 C 714.148 2.84328 -4.35263 0
M  V30 7661 C 711.833 3.27281 -3.81041 0
M  V30 7662 C 713.827 2.83912 -5.70678 0
M  V30 7663 C 711.514 3.26493 -5.16571 0
M  V30 7664 C 712.512 3.04834 -6.112 0
M  V30 7665 O 712.2 3.03882 -7.44252 0
M  V30 7666 H 711.932 0.52387 -0.427242 0
M  V30 7667 H 714.486 1.10086 -1.73408 0
M  V30 7668 H 712.716 3.62568 -1.34468 0
M  V30 7669 H 714.405 3.65641 -1.76242 0
M  V30 7670 H 715.171 2.67673 -4.04445 0
M  V30 7671 H 711.05 3.43171 -3.07822 0
M  V30 7672 H 714.594 2.66925 -6.44513 0
M  V30 7673 H 710.491 3.42687 -5.47025 0
M  V30 7674 H 711.259 3.19979 -7.53363 0
M  V30 7675 N 713.922 1.13953 1.08869 0
M  V30 7676 C 714.872 0.790812 2.13846 0
M  V30 7677 C 715.856 -0.217819 1.59419 0
M  V30 7678 O 717.048 -0.0208723 1.76988 0
M  V30 7679 C 714.177 0.26479 3.42277 0
M  V30 7680 C 713.263 1.30267 4.03598 0
M  V30 7681 N 713.654 2.50535 4.39393 0
M  V30 7682 C 711.952 1.15178 4.30871 0
M  V30 7683 C 712.653 3.16938 4.87776 0
M  V30 7684 N 711.629 2.44349 4.85587 0
M  V30 7685 H 715.431 1.70577 2.39334 0
M  V30 7686 H 712.945 1.02268 1.26154 0
M  V30 7687 H 714.942 -0.00330398 4.169 0
M  V30 7688 H 713.602 -0.644419 3.18241 0
M  V30 7689 H 714.613 2.87798 4.30572 0
M  V30 7690 H 711.29 0.301204 4.16412 0
M  V30 7691 H 712.68 4.19453 5.2489 0
M  V30 7692 N 715.4 -1.26948 0.933913 0
M  V30 7693 C 716.625 -1.98724 0.593589 0
M  V30 7694 C 717.05 -1.6915 -0.822801 0
M  V30 7695 O 716.408 -0.93533 -1.5531 0
M  V30 7696 C 716.456 -3.50834 0.833542 0
M  V30 7697 O 715.56 -4.12284 -0.0978788 0
M  V30 7698 H 714.901 -0.623683 0.227849 0
M  V30 7699 H 717.431 -1.61599 1.25486 0
M  V30 7700 H 717.441 -4.01018 0.75156 0
M  V30 7701 H 716.116 -3.71691 1.86597 0
M  V30 7702 H 714.693 -3.72884 0.0345443 0
M  V30 7703 N 716.879 -0.700114 -1.41195 0
M  V30 7704 C 717.809 -0.0521132 -2.33442 0
M  V30 7705 C 718.79 0.76228 -1.52063 0
M  V30 7706 O 719.975 0.714336 -1.80585 0
M  V30 7707 C 717.105 0.881693 -3.35922 0
M  V30 7708 C 716.059 0.174062 -4.27646 0
M  V30 7709 C 715.385 1.22254 -5.20536 0
M  V30 7710 C 716.685 -0.962396 -5.13357 0
M  V30 7711 H 718.379 -0.822574 -2.87879 0
M  V30 7712 H 715.925 -0.397011 -1.38419 0
M  V30 7713 H 717.878 1.34429 -3.99383 0
M  V30 7714 H 716.602 1.68387 -2.79845 0
M  V30 7715 H 715.261 -0.268551 -3.65615 0
M  V30 7716 H 714.909 2.01736 -4.60773 0
M  V30 7717 H 714.609 0.754038 -5.82742 0
M  V30 7718 H 716.133 1.68555 -5.86874 0
M  V30 7719 H 717.547 -0.579875 -5.7036 0
M  V30 7720 H 715.944 -1.35828 -5.84526 0
M  V30 7721 H 717.014 -1.80003 -4.50252 0
M  V30 7722 N 718.357 1.51182 -0.445186 0
M  V30 7723 C 719.634 1.9478 0.178965 0
M  V30 7724 C 720.014 1.38428 1.59376 0
M  V30 7725 O 719.362 0.574552 2.21159 0
M  V30 7726 C 719.572 3.48683 0.148711 0
M  V30 7727 C 720.92 4.23152 0.35042 0
M  V30 7728 O 721.944 3.55479 0.226474 0
M  V30 7729 O 720.803 5.4322 0.597893 0
M  V30 7730 H 717.897 0.817387 0.12573 0
M  V30 7731 H 720.443 1.62051 -0.503729 0
M  V30 7732 H 719.215 3.82176 -0.84009 0
M  V30 7733 H 718.838 3.87875 0.873979 0
M  V30 7734 N 719.835 0.176821 1.56605 0
M  V30 7735 C 721.081 -0.467406 1.9734 0
M  V30 7736 C 721.414 -1.62523 1.06301 0
M  V30 7737 O 720.689 -1.94182 0.11125 0
M  V30 7738 C 720.972 -0.945106 3.47476 0
M  V30 7739 C 720.825 0.213273 4.49294 0
M  V30 7740 C 722.144 -1.8169 4.00845 0
M  V30 7741 H 719.263 -0.168426 0.717497 0
M  V30 7742 H 721.905 0.264065 1.88156 0
M  V30 7743 H 720.055 -1.56841 3.55434 0
M  V30 7744 H 721.727 0.850508 4.53392 0
M  V30 7745 H 719.97 0.867918 4.25029 0
M  V30 7746 H 720.641 -0.163187 5.51759 0
M  V30 7747 H 723.117 -1.29139 3.95553 0
M  V30 7748 H 721.993 -2.12015 5.06301 0
M  V30 7749 H 722.254 -2.76463 3.44994 0
M  V30 7750 N 721.313 -1.57302 -0.09688 0
M  V30 7751 C 722.562 -1.85183 -0.799388 0
M  V30 7752 C 722.875 -0.765818 -1.79985 0
M  V30 7753 O 724.081 -0.931696 -2.55013 0
M  V30 7754 C 722.537 -3.28399 -1.47249 0
M  V30 7755 C 722.145 -4.45066 -0.511888 0
M  V30 7756 C 723.889 -3.65506 -2.15883 0
M  V30 7757 C 721.796 -5.79315 -1.18948 0
M  V30 7758 H 720.726 -0.690752 -0.302287 0
M  V30 7759 H 723.377 -1.83425 -0.0523104 0
M  V30 7760 H 721.759 -3.24692 -2.26697 0
M  V30 7761 H 722.933 -4.60116 0.250962 0
M  V30 7762 H 721.248 -4.16343 0.0686576 0
M  V30 7763 H 723.845 -4.63087 -2.67309 0
M  V30 7764 H 724.188 -2.94041 -2.94696 0
M  V30 7765 H 724.721 -3.71094 -1.43298 0
M  V30 7766 H 721.46 -6.54007 -0.442198 0
M  V30 7767 H 720.98 -5.68111 -1.9238 0
M  V30 7768 H 722.659 -6.23816 -1.71646 0
M  V30 7769 N 722.791 0.367657 -1.53252 0
M  V30 7770 C 724.039 1.10832 -1.68999 0
M  V30 7771 C 724.36 1.89894 -0.443306 0
M  V30 7772 O 723.63 1.88235 0.54262 0
M  V30 7773 H 722.21 0.412153 -0.623008 0
M  V30 7774 H 724.872 0.414775 -1.90435 0
M  V30 7775 H 723.968 1.7993 -2.55013 0
M  V30 7776 N 724.269 1.44576 0.627338 0
M  V30 7777 C 725.516 1.47558 1.38682 0
M  V30 7778 C 725.844 0.109636 1.94191 0
M  V30 7779 O 725.099 -0.889092 1.74338 0
M  V30 7780 C 725.398 2.48644 2.56731 0
M  V30 7781 C 725.064 3.93873 2.19489 0
M  V30 7782 C 723.726 4.33421 2.09045 0
M  V30 7783 C 726.078 4.85286 1.90124 0
M  V30 7784 C 723.406 5.62303 1.6743 0
M  V30 7785 C 725.758 6.14559 1.50001 0
M  V30 7786 C 724.422 6.53058 1.38101 0
M  V30 7787 H 723.692 0.539955 0.507474 0
M  V30 7788 H 726.339 1.77811 0.711021 0
M  V30 7789 H 724.644 2.11889 3.29561 0
M  V30 7790 H 726.341 2.48197 3.14959 0
M  V30 7791 H 722.931 3.62587 2.28537 0
M  V30 7792 H 727.115 4.55483 1.971 0
M  V30 7793 H 722.371 5.90945 1.56823 0
M  V30 7794 H 726.545 6.84848 1.26319 0
M  V30 7795 H 724.172 7.52826 1.05628 0
M  V30 7796 N 725.747 -0.868086 1.31537 0
M  V30 7797 C 726.677 -1.99131 1.21939 0
M  V30 7798 C 727.658 -1.69768 0.106166 0
M  V30 7799 O 728.843 -1.92006 0.291081 0
M  V30 7800 C 725.973 -3.34676 0.927879 0
M  V30 7801 C 724.927 -3.7835 2.00088 0
M  V30 7802 C 724.253 -5.11375 1.56203 0
M  V30 7803 C 725.553 -3.95256 3.41424 0
M  V30 7804 H 727.247 -2.07419 2.15911 0
M  V30 7805 H 724.793 -0.996569 1.03945 0
M  V30 7806 H 726.746 -4.12793 0.847327 0
M  V30 7807 H 725.47 -3.26565 -0.0475042 0
M  V30 7808 H 724.129 -3.02474 2.07135 0
M  V30 7809 H 723.777 -4.99709 0.57445 0
M  V30 7810 H 723.477 -5.41568 2.27985 0
M  V30 7811 H 725.001 -5.92001 1.49558 0
M  V30 7812 H 726.415 -4.63764 3.3704 0
M  V30 7813 H 724.812 -4.36849 4.1144 0
M  V30 7814 H 725.882 -2.98579 3.82072 0
M  V30 7815 N 727.225 -1.14528 -1.08264 0
M  V30 7816 C 728.155 -0.856356 -2.1723 0
M  V30 7817 C 729.136 0.189251 -1.69044 0
M  V30 7818 O 730.321 0.0456119 -1.94146 0
M  V30 7819 C 727.451 -0.334662 -3.45684 0
M  V30 7820 C 726.405 -1.31588 -4.0727 0
M  V30 7821 C 725.731 -0.653428 -5.30692 0
M  V30 7822 C 727.031 -2.67866 -4.48381 0
M  V30 7823 H 728.725 -1.76755 -2.41657 0
M  V30 7824 H 726.271 -0.851287 -1.16143 0
M  V30 7825 H 728.224 -0.120128 -4.21229 0
M  V30 7826 H 726.948 0.611967 -3.20815 0
M  V30 7827 H 725.607 -1.51661 -3.33758 0
M  V30 7828 H 725.255 0.299054 -5.0211 0
M  V30 7829 H 724.955 -1.30817 -5.72853 0
M  V30 7830 H 726.479 -0.448453 -6.08951 0
M  V30 7831 H 727.893 -2.51692 -5.15096 0
M  V30 7832 H 726.29 -3.29627 -5.01464 0
M  V30 7833 H 727.36 -3.24632 -3.60198 0
M  V30 7834 N 728.703 1.26451 -0.940633 0
M  V30 7835 C 729.666 2.24651 -0.454378 0
M  V30 7836 C 730.666 1.54826 0.434222 0
M  V30 7837 O 731.856 1.72628 0.233477 0
M  V30 7838 C 728.988 3.39148 0.345192 0
M  V30 7839 H 730.181 2.69182 -1.32217 0
M  V30 7840 H 727.734 1.38596 -0.722547 0
M  V30 7841 H 728.469 3.00018 1.23125 0
M  V30 7842 H 728.254 3.9101 -0.292107 0
M  V30 7843 H 729.744 4.12103 0.675341 0
M  V30 7844 N 730.181 0.707592 1.40822 0
M  V30 7845 C 731.427 0.244031 2.01326 0
M  V30 7846 C 731.76 -1.15722 1.55955 0
M  V30 7847 O 731.035 -1.78347 0.776044 0
M  V30 7848 C 731.318 0.315128 3.58718 0
M  V30 7849 C 731.171 1.75419 4.14184 0
M  V30 7850 C 732.49 -0.318251 4.38948 0
M  V30 7851 H 729.609 0.0901471 0.731466 0
M  V30 7852 H 732.251 0.898584 1.67408 0
M  V30 7853 H 730.401 -0.242176 3.87744 0
M  V30 7854 H 732.073 2.36626 3.95987 0
M  V30 7855 H 730.316 2.28449 3.68773 0
M  V30 7856 H 730.987 1.75538 5.23345 0
M  V30 7857 H 733.463 0.156514 4.15806 0
M  V30 7858 H 732.339 -0.238019 5.48384 0
M  V30 7859 H 732.6 -1.40067 4.19325 0
M  V30 7860 N 731.66 -1.50943 0.453197 0
M  V30 7861 C 732.906 -2.02512 -0.108082 0
M  V30 7862 C 733.239 -1.33574 -1.40967 0
M  V30 7863 O 732.514 -0.455671 -1.89087 0
M  V30 7864 C 732.797 -3.58759 -0.310453 0
M  V30 7865 C 732.65 -4.38293 1.0109 0
M  V30 7866 C 733.969 -4.26816 -1.07313 0
M  V30 7867 H 731.088 -0.73603 -0.0378064 0
M  V30 7868 H 733.73 -1.80433 0.595295 0
M  V30 7869 H 731.88 -3.77702 -0.909582 0
M  V30 7870 H 733.552 -4.30964 1.64523 0
M  V30 7871 H 731.795 -4.02745 1.61179 0
M  V30 7872 H 732.466 -5.45828 0.82315 0
M  V30 7873 H 734.942 -4.1224 -0.565473 0
M  V30 7874 H 733.818 -5.35989 -1.1835 0
M  V30 7875 H 734.079 -3.88757 -2.10525 0
M  V30 7876 N 733.138 -0.185124 -1.56509 0
M  V30 7877 C 734.068 0.735098 -2.21627 0
M  V30 7878 C 735.049 1.2288 -1.1762 0
M  V30 7879 O 736.234 1.27945 -1.46095 0
M  V30 7880 C 733.364 1.95889 -2.86783 0
M  V30 7881 C 732.318 1.6005 -3.96948 0
M  V30 7882 C 731.644 2.90009 -4.4922 0
M  V30 7883 C 732.944 0.818008 -5.15855 0
M  V30 7884 H 734.638 0.192274 -2.98782 0
M  V30 7885 H 732.184 0.0910393 -1.43712 0
M  V30 7886 H 734.137 2.60779 -3.31017 0
M  V30 7887 H 732.861 2.52608 -2.07018 0
M  V30 7888 H 731.52 0.975237 -3.5339 0
M  V30 7889 H 731.168 3.44797 -3.6623 0
M  V30 7890 H 730.868 2.66778 -5.23549 0
M  V30 7891 H 732.392 3.55904 -4.9615 0
M  V30 7892 H 733.806 1.36979 -5.56695 0
M  V30 7893 H 732.203 0.684207 -5.96187 0
M  V30 7894 H 733.273 -0.182939 -4.84555 0
M  V30 7895 N 734.616 1.57351 0.0885366 0
M  V30 7896 C 735.844 1.90631 0.804196 0
M  V30 7897 C 736.259 0.779474 1.71958 0
M  V30 7898 O 735.616 -0.248179 1.80805 0
M  V30 7899 C 735.667 3.23568 1.61202 0
M  V30 7900 O 735.388 4.31917 0.733447 0
M  V30 7901 C 736.889 3.70753 2.43016 0
M  V30 7902 H 734.109 0.630501 0.229585 0
M  V30 7903 H 736.653 2.044 0.0638092 0
M  V30 7904 H 734.808 3.11377 2.30485 0
M  V30 7905 H 735.222 5.08297 1.29361 0
M  V30 7906 H 736.696 4.66447 2.9518 0
M  V30 7907 H 737.173 2.98922 3.2178 0
M  V30 7908 H 737.779 3.85834 1.7892 0
M  V30 7909 N 736.094 -0.359525 1.53444 0
M  V30 7910 C 737.34 -1.10315 1.70172 0
M  V30 7911 C 737.673 -1.88788 0.455287 0
M  V30 7912 O 736.948 -1.86635 -0.547514 0
M  V30 7913 C 737.231 -2.05744 2.95536 0
M  V30 7914 C 737.084 -1.3084 4.3035 0
M  V30 7915 C 738.403 -3.05784 3.16518 0
M  V30 7916 H 735.522 -0.399662 0.619225 0
M  V30 7917 H 738.164 -0.383338 1.86093 0
M  V30 7918 H 736.314 -2.67125 2.82093 0
M  V30 7919 H 737.986 -0.721959 4.55615 0
M  V30 7920 H 736.229 -0.610283 4.29486 0
M  V30 7921 H 736.9 -2.00718 5.14214 0
M  V30 7922 H 739.376 -2.5451 3.29187 0
M  V30 7923 H 738.252 -3.69772 4.05659 0
M  V30 7924 H 738.513 -3.76289 2.32076 0
M  V30 7925 N 737.572 -1.44907 -0.619662 0
M  V30 7926 C 738.535 -1.52282 -1.71297 0
M  V30 7927 C 739.535 -0.40359 -1.55653 0
M  V30 7928 O 740.725 -0.666638 -1.6094 0
M  V30 7929 C 737.857 -1.40778 -3.10474 0
M  V30 7930 H 739.05 -2.49683 -1.66128 0
M  V30 7931 H 736.603 -1.32168 -0.834339 0
M  V30 7932 H 737.338 -0.445156 -3.2123 0
M  V30 7933 H 737.123 -2.21947 -3.23237 0
M  V30 7934 H 738.613 -1.48946 -3.90135 0
M  V30 7935 N 739.05 0.861098 -1.31996 0
M  V30 7936 C 740.297 1.61481 -1.22188 0
M  V30 7937 C 740.625 1.93276 0.217853 0
M  V30 7938 O 739.88 1.56942 1.16909 0
M  V30 7939 C 740.179 2.94822 -2.02027 0
M  V30 7940 C 739.845 2.82483 -3.51446 0
M  V30 7941 C 738.507 2.78825 -3.92186 0
M  V30 7942 C 740.859 2.68878 -4.46491 0
M  V30 7943 C 738.187 2.59433 -5.26224 0
M  V30 7944 C 740.539 2.51022 -5.80664 0
M  V30 7945 C 739.203 2.45753 -6.20614 0
M  V30 7946 H 738.473 0.590902 -0.447119 0
M  V30 7947 H 741.12 0.999376 -1.63355 0
M  V30 7948 H 739.425 3.6045 -1.53569 0
M  V30 7949 H 741.122 3.52149 -1.91812 0
M  V30 7950 H 737.712 2.86152 -3.19085 0
M  V30 7951 H 741.896 2.70754 -4.1594 0
M  V30 7952 H 737.152 2.53784 -5.5624 0
M  V30 7953 H 741.326 2.39473 -6.53931 0
M  V30 7954 H 738.953 2.30485 -7.24417 0
M  V30 7955 N 740.528 1.15101 1.07655 0
M  V30 7956 C 741.777 0.918528 1.79572 0
M  V30 7957 C 742.09 -0.555922 1.87534 0
M  V30 7958 O 743.296 -0.905893 2.55941 0
M  V30 7959 C 741.752 1.59394 3.22679 0
M  V30 7960 C 741.36 3.1052 3.22927 0
M  V30 7961 C 743.104 1.44289 3.99225 0
M  V30 7962 C 741.011 3.70862 4.60668 0
M  V30 7963 H 739.941 0.340006 0.672987 0
M  V30 7964 H 742.592 1.38079 1.20857 0
M  V30 7965 H 740.974 1.05936 3.81567 0
M  V30 7966 H 742.148 3.70708 2.737 0
M  V30 7967 H 740.463 3.25351 2.59876 0
M  V30 7968 H 743.06 1.86766 5.01022 0
M  V30 7969 H 743.403 0.389975 4.14469 0
M  V30 7970 H 743.936 1.94826 3.46825 0
M  V30 7971 H 740.675 4.7604 4.50628 0
M  V30 7972 H 740.195 3.15456 5.10145 0
M  V30 7973 H 741.874 3.71607 5.29639 0
M  V30 7974 N 742.006 -1.2595 0.947325 0
M  V30 7975 C 743.234 -1.97544 0.615127 0
M  V30 7976 C 743.649 -1.70484 -0.811221 0
M  V30 7977 O 743.006 -0.97662 -1.5417 0
M  V30 7978 C 743.057 -3.51236 0.855328 0
M  V30 7979 O 742.778 -3.77359 2.22558 0
M  V30 7980 C 744.279 -4.40066 0.534515 0
M  V30 7981 H 741.499 -0.629888 0.231263 0
M  V30 7982 H 744.043 -1.60308 1.26971 0
M  V30 7983 H 742.198 -3.8661 0.247266 0
M  V30 7984 H 742.612 -4.71857 2.29022 0
M  V30 7985 H 744.086 -5.46838 0.753168 0
M  V30 7986 H 744.563 -4.35982 -0.530701 0
M  V30 7987 H 745.169 -4.10245 1.12158 0
M  V30 7988 N 743.484 -0.715051 -1.40445 0
M  V30 7989 C 744.731 -0.254328 -2.00897 0
M  V30 7990 C 745.059 1.15228 -1.56693 0
M  V30 7991 O 744.314 1.7958 -0.777786 0
M  V30 7992 C 744.613 -0.281791 -3.56287 0
M  V30 7993 C 744.279 -1.63862 -4.20071 0
M  V30 7994 C 742.941 -2.01003 -4.37208 0
M  V30 7995 C 745.293 -2.53039 -4.55654 0
M  V30 7996 C 742.621 -3.26869 -4.8721 0
M  V30 7997 C 744.973 -3.78256 -5.07055 0
M  V30 7998 C 743.637 -4.15515 -5.22401 0
M  V30 7999 H 742.907 -0.0930652 -0.735133 0
M  V30 8000 H 745.554 -0.917977 -1.68064 0
M  V30 8001 H 743.859 0.465428 -3.89026 0
M  V30 8002 H 745.556 0.0925158 -4.00893 0
M  V30 8003 H 742.146 -1.33979 -4.07121 0
M  V30 8004 H 746.33 -2.2562 -4.42051 0
M  V30 8005 H 741.586 -3.55706 -4.97276 0
M  V30 8006 H 745.76 -4.47528 -5.33565 0
M  V30 8007 H 743.387 -5.13114 -5.60909 0
M  V30 8008 N 744.962 1.50701 -0.461195 0
M  V30 8009 C 745.909 2.2831 0.338094 0
M  V30 8010 C 746.879 1.32928 0.995957 0
M  V30 8011 O 748.064 1.61857 1.0103 0
M  V30 8012 C 745.204 3.14539 1.41983 0
M  V30 8013 C 744.317 4.24942 0.77773 0
M  V30 8014 C 743.452 4.98443 1.83652 0
M  V30 8015 C 742.491 6.00733 1.17413 0
M  V30 8016 N 741.628 6.6755 2.17533 0
M  V30 8017 H 746.468 2.96167 -0.330051 0
M  V30 8018 H 744.005 1.4606 -0.174611 0
M  V30 8019 H 745.963 3.62877 2.05855 0
M  V30 8020 H 744.593 2.48749 2.05727 0
M  V30 8021 H 743.645 3.80391 0.0266924 0
M  V30 8022 H 744.957 4.98151 0.254362 0
M  V30 8023 H 744.111 5.50449 2.55129 0
M  V30 8024 H 742.85 4.24917 2.39367 0
M  V30 8025 H 741.855 5.47997 0.444944 0
M  V30 8026 H 743.08 6.76227 0.624006 0
M  V30 8027 H 741.026 5.96823 2.72284 0
M  V30 8028 H 740.943 7.36603 1.70154 0
M  V30 8029 H 742.211 7.24178 2.88421 0
M  V30 8030 N 746.441 0.193421 1.56409 0
M  V30 8031 C 747.681 -0.447977 1.9943 0
M  V30 8032 C 748.045 -1.58915 1.07751 0
M  V30 8033 O 749.246 -2.29462 1.40002 0
M  V30 8034 C 747.517 -0.89793 3.45936 0
M  V30 8035 S 749.076 -1.5374 4.10986 0
M  V30 8036 H 745.894 -0.143316 0.696406 0
M  V30 8037 H 748.496 0.296093 1.93245 0
M  V30 8038 H 747.2 -0.0572927 4.1036 0
M  V30 8039 H 746.731 -1.67551 3.55936 0
M  V30 8040 H 748.746 -2.82612 4.07854 0
M  V30 8041 N 747.919 -1.57396 -0.0801906 0
M  V30 8042 C 749.159 -1.88668 -0.786367 0
M  V30 8043 C 749.523 -0.786216 -1.75165 0
M  V30 8044 O 750.724 -0.981769 -2.50229 0
M  V30 8045 C 748.995 -3.25176 -1.48308 0
M  V30 8046 S 750.554 -3.78177 -2.22549 0
M  V30 8047 H 747.372 -0.661094 -0.261679 0
M  V30 8048 H 749.974 -1.95453 -0.0428196 0
M  V30 8049 H 748.678 -4.03176 -0.766629 0
M  V30 8050 H 748.209 -3.21567 -2.26623 0
M  V30 8051 H 750.224 -3.52789 -3.48934 0
M  V30 8052 N 749.397 0.351382 -1.53633 0
M  V30 8053 C 750.36 1.41403 -1.80383 0
M  V30 8054 C 751.36 1.45963 -0.674635 0
M  V30 8055 O 752.55 1.46476 -0.942895 0
M  V30 8056 C 749.682 2.80401 -1.93876 0
M  V30 8057 H 750.875 1.18951 -2.75301 0
M  V30 8058 H 748.428 0.58533 -1.44926 0
M  V30 8059 H 749.163 3.08147 -1.01074 0
M  V30 8060 H 748.948 2.78488 -2.7602 0
M  V30 8061 H 750.438 3.57329 -2.16116 0
M  V30 8062 N 750.875 1.45233 0.611969 0
M  V30 8063 C 752.105 1.52318 1.39581 0
M  V30 8064 C 752.513 0.153093 1.8858 0
M  V30 8065 O 751.856 -0.854792 1.62601 0
M  V30 8066 C 751.918 2.4426 2.63775 0
M  V30 8067 C 751.582 3.91079 2.36445 0
M  V30 8068 C 752.579 4.81099 1.97079 0
M  V30 8069 C 750.264 4.35958 2.49492 0
M  V30 8070 C 752.258 6.14002 1.71115 0
M  V30 8071 C 749.945 5.68903 2.23142 0
M  V30 8072 C 750.943 6.57744 1.84015 0
M  V30 8073 O 750.631 7.88226 1.5797 0
M  V30 8074 H 750.363 0.518428 0.43383 0
M  V30 8075 H 752.917 1.91067 0.753837 0
M  V30 8076 H 751.147 2.00474 3.30677 0
M  V30 8077 H 752.836 2.42077 3.25812 0
M  V30 8078 H 753.602 4.47692 1.86539 0
M  V30 8079 H 749.481 3.67053 2.78914 0
M  V30 8080 H 753.025 6.83305 1.405 0
M  V30 8081 H 748.922 6.01866 2.33297 0
M  V30 8082 H 749.69 8.00211 1.72058 0
M  V30 8083 N 752.353 -0.854086 1.3245 0
M  V30 8084 C 753.601 -1.60513 1.228 0
M  V30 8085 C 753.922 -1.93865 -0.210073 0
M  V30 8086 O 753.192 -1.59673 -1.13496 0
M  V30 8087 H 751.772 -0.595099 0.451516 0
M  V30 8088 H 754.434 -1.0216 1.6598 0
M  V30 8089 H 753.53 -2.54182 1.81102 0
M  V30 8090 N 753.831 -1.1567 -1.07043 0
M  V30 8091 C 755.061 -0.956083 -1.83146 0
M  V30 8092 C 755.469 0.498969 -1.82502 0
M  V30 8093 O 754.812 1.35791 -1.23719 0
M  V30 8094 C 754.874 -1.39704 -3.31245 0
M  V30 8095 C 754.538 -2.87045 -3.55604 0
M  V30 8096 C 755.535 -3.85092 -3.49285 0
M  V30 8097 C 753.22 -3.24787 -3.8317 0
M  V30 8098 C 755.214 -5.18885 -3.70185 0
M  V30 8099 C 752.901 -4.58751 -4.03721 0
M  V30 8100 C 753.899 -5.55609 -3.97224 0
M  V30 8101 O 753.587 -6.87154 -4.17223 0
M  V30 8102 H 753.319 -0.339473 -0.58458 0
M  V30 8103 H 755.873 -1.53922 -1.36005 0
M  V30 8104 H 754.103 -0.757326 -3.79212 0
M  V30 8105 H 755.792 -1.16503 -3.88821 0
M  V30 8106 H 756.558 -3.5728 -3.27988 0
M  V30 8107 H 752.437 -2.49979 -3.87339 0
M  V30 8108 H 755.981 -5.94473 -3.6503 0
M  V30 8109 H 751.878 -4.86277 -4.24505 0
M  V30 8110 H 752.646 -6.93618 -4.34553 0
M  V30 8111 N 755.309 1.25446 -0.953992 0
M  V30 8112 C 756.725 1.4539 -0.658316 0
M  V30 8113 C 756.925 1.85607 0.784356 0
M  V30 8114 O 755.981 1.98568 1.55972 0
M  V30 8115 C 757.294 2.52643 -1.6307 0
M  V30 8116 C 758.842 2.66484 -1.64181 0
M  V30 8117 C 759.317 3.76921 -2.60182 0
M  V30 8118 N 760.808 3.84331 -2.58542 0
M  V30 8119 C 761.543 4.69271 -3.29503 0
M  V30 8120 N 761.039 5.58503 -4.09934 0
M  V30 8121 N 762.832 4.6323 -3.18393 0
M  V30 8122 H 754.983 0.976337 -1.8863 0
M  V30 8123 H 757.246 0.490343 -0.811337 0
M  V30 8124 H 756.952 2.29949 -2.66114 0
M  V30 8125 H 756.826 3.50547 -1.39271 0
M  V30 8126 H 759.213 2.88545 -0.618552 0
M  V30 8127 H 759.294 1.68982 -1.92038 0
M  V30 8128 H 758.938 3.55612 -3.62633 0
M  V30 8129 H 758.868 4.73906 -2.29609 0
M  V30 8130 H 761.359 3.20544 -2.0015 0
M  V30 8131 H 761.672 6.20241 -4.61 0
M  V30 8132 H 760.017 5.58214 -4.14032 0
M  V30 8133 H 763.208 3.92527 -2.5503 0
M  V30 8134 H 763.381 5.29204 -3.73961 0
M  V30 8135 N 756.787 0.722489 1.40064 0
M  V30 8136 C 757.734 0.0743738 2.3068 0
M  V30 8137 C 758.704 -0.743004 1.48555 0
M  V30 8138 O 759.889 -0.705536 1.77276 0
M  V30 8139 C 757.029 -0.836292 3.34814 0
M  V30 8140 C 756.142 -0.00764663 4.31999 0
M  V30 8141 C 755.277 -0.918428 5.232 0
M  V30 8142 C 754.316 -0.0842838 6.12042 0
M  V30 8143 N 753.453 -0.950316 6.95639 0
M  V30 8144 H 758.293 0.852794 2.85537 0
M  V30 8145 H 755.83 0.432222 1.40607 0
M  V30 8146 H 757.788 -1.3786 3.93765 0
M  V30 8147 H 756.418 -1.58082 2.81443 0
M  V30 8148 H 755.47 0.651928 3.74772 0
M  V30 8149 H 756.782 0.63786 4.94705 0
M  V30 8150 H 755.936 -1.52902 5.87116 0
M  V30 8151 H 754.675 -1.59774 4.60786 0
M  V30 8152 H 753.68 0.5392 5.4715 0
M  V30 8153 H 754.905 0.591628 6.76518 0
M  V30 8154 H 752.851 -1.61515 6.35806 0
M  V30 8155 H 752.768 -0.361004 7.55138 0
M  V30 8156 H 754.036 -1.54687 7.63997 0
M  V30 8157 N 758.265 -1.50454 0.469181 0
M  V30 8158 C 759.505 -2.04222 -0.0852381 0
M  V30 8159 C 759.869 -1.34357 -1.37158 0
M  V30 8160 O 761.07 -1.78669 -2.00825 0
M  V30 8161 C 759.341 -3.56403 -0.266778 0
M  V30 8162 S 760.9 -4.31811 -0.780028 0
M  V30 8163 H 757.718 -0.7108 -0.0168589 0
M  V30 8164 H 760.32 -1.8487 0.635883 0
M  V30 8165 H 759.024 -4.04807 0.67525 0
M  V30 8166 H 758.555 -3.80106 -1.01407 0
M  V30 8167 H 760.57 -4.51706 -2.05368 0
M  V30 8168 N 759.743 -0.201713 -1.56304 0
M  V30 8169 C 760.673 0.71155 -2.22394 0
M  V30 8170 C 761.654 1.21625 -1.18917 0
M  V30 8171 O 762.839 1.26388 -1.47444 0
M  V30 8172 C 759.969 1.92837 -2.88845 0
M  V30 8173 C 758.923 1.55831 -3.98623 0
M  V30 8174 C 758.249 2.85228 -4.52271 0
M  V30 8175 C 759.549 0.763249 -5.16693 0
M  V30 8176 H 761.243 0.160573 -2.98969 0
M  V30 8177 H 758.789 0.0757916 -1.438 0
M  V30 8178 H 760.742 2.57253 -3.33764 0
M  V30 8179 H 759.466 2.50398 -2.09686 0
M  V30 8180 H 758.125 0.9377 -3.54405 0
M  V30 8181 H 757.773 3.40893 -3.69866 0
M  V30 8182 H 757.473 2.6121 -5.26349 0
M  V30 8183 H 758.997 3.50622 -4.99897 0
M  V30 8184 H 760.411 1.31066 -5.58117 0
M  V30 8185 H 758.808 0.620935 -5.96879 0
M  V30 8186 H 759.878 -0.234322 -4.84334 0
M  V30 8187 N 761.222 1.57436 0.0718424 0
M  V30 8188 C 762.47 1.86878 0.769484 0
M  V30 8189 C 762.791 0.7937 1.78116 0
M  V30 8190 O 762.061 -0.177642 1.95093 0
M  V30 8191 H 760.641 0.689593 0.287177 0
M  V30 8192 H 763.303 1.94841 0.0479427 0
M  V30 8193 H 762.399 2.84387 1.28572 0
M  V30 8194 N 762.7 -0.34323 1.53817 0
M  V30 8195 C 763.647 -1.42153 1.81827 0
M  V30 8196 C 764.617 -1.52251 0.663996 0
M  V30 8197 O 765.802 -1.67784 0.908461 0
M  V30 8198 C 762.942 -2.78799 2.03384 0
M  V30 8199 C 762.055 -2.7749 3.31094 0
M  V30 8200 C 761.19 -4.05856 3.42717 0
M  V30 8201 C 760.229 -3.98776 4.64375 0
M  V30 8202 N 759.366 -5.18833 4.73029 0
M  V30 8203 H 764.206 -1.17567 2.73829 0
M  V30 8204 H 761.743 -0.569506 1.35628 0
M  V30 8205 H 763.701 -3.58211 2.13872 0
M  V30 8206 H 762.331 -3.01736 1.14696 0
M  V30 8207 H 761.383 -1.90182 3.29446 0
M  V30 8208 H 762.695 -2.68137 4.206 0
M  V30 8209 H 761.849 -4.93691 3.52638 0
M  V30 8210 H 760.588 -4.1799 2.51267 0
M  V30 8211 H 759.593 -3.09325 4.5453 0
M  V30 8212 H 760.818 -3.88224 5.57189 0
M  V30 8213 H 758.764 -5.31511 3.84489 0
M  V30 8214 H 758.681 -5.11737 5.56472 0
M  V30 8215 H 759.949 -6.08439 4.87261 0
M  V30 8216 N 764.178 -1.45556 -0.604258 0
M  V30 8217 C 765.125 -1.54482 -1.71476 0
M  V30 8218 C 766.095 -0.390479 -1.61445 0
M  V30 8219 O 767.28 -0.604371 -1.80975 0
M  V30 8220 C 764.42 -1.52064 -3.09791 0
M  V30 8221 C 763.533 -2.78073 -3.30604 0
M  V30 8222 C 762.668 -2.67304 -4.59044 0
M  V30 8223 C 761.707 -3.88352 -4.73127 0
M  V30 8224 N 760.844 -3.76098 -5.9287 0
M  V30 8225 H 765.684 -2.49349 -1.63184 0
M  V30 8226 H 763.221 -1.23725 -0.795641 0
M  V30 8227 H 765.179 -1.48649 -3.89819 0
M  V30 8228 H 763.809 -0.607442 -3.17033 0
M  V30 8229 H 762.861 -2.91561 -2.44329 0
M  V30 8230 H 764.173 -3.67847 -3.36883 0
M  V30 8231 H 763.327 -2.61875 -5.47272 0
M  V30 8232 H 762.066 -1.75135 -4.55169 0
M  V30 8233 H 761.071 -3.94137 -3.83322 0
M  V30 8234 H 762.296 -4.81591 -4.78797 0
M  V30 8235 H 760.242 -2.867 -5.90033 0
M  V30 8236 H 760.159 -4.59509 -6.00323 0
M  V30 8237 H 761.427 -3.74607 -6.83586 0
M  V30 8238 N 765.656 0.84705 -1.32902 0
M  V30 8239 C 766.904 1.5986 -1.2365 0
M  V30 8240 C 767.225 1.93974 0.199789 0
M  V30 8241 O 766.495 1.60273 1.12648 0
M  V30 8242 H 765.075 0.592696 -0.454665 0
M  V30 8243 H 767.737 1.01278 -1.66519 0
M  V30 8244 H 766.833 2.53218 -1.82448 0
M  V30 8245 N 767.134 1.16236 1.06428 0
M  V30 8246 C 768.55 0.906983 1.31324 0
M  V30 8247 C 768.75 -0.440872 1.96618 0
M  V30 8248 O 767.806 -1.1807 2.23194 0
M  V30 8249 C 769.119 2.05501 2.19522 0
M  V30 8250 C 770.667 2.09061 2.32943 0
M  V30 8251 C 771.142 3.23214 3.24495 0
M  V30 8252 N 772.633 3.22922 3.32078 0
M  V30 8253 C 773.368 4.07889 4.03006 0
M  V30 8254 N 772.864 5.02941 4.76469 0
M  V30 8255 N 774.657 3.95881 3.99043 0
M  V30 8256 H 766.808 2.03015 0.624388 0
M  V30 8257 H 769.071 0.88576 0.337835 0
M  V30 8258 H 768.777 3.02847 1.78819 0
M  V30 8259 H 768.651 1.99538 3.201 0
M  V30 8260 H 771.038 1.12308 2.72893 0
M  V30 8261 H 771.119 2.19089 1.32037 0
M  V30 8262 H 770.763 4.20225 2.85261 0
M  V30 8263 H 770.693 3.10423 4.25377 0
M  V30 8264 H 773.184 2.54093 2.79724 0
M  V30 8265 H 773.497 5.64196 5.28112 0
M  V30 8266 H 771.842 5.06922 4.75453 0
M  V30 8267 H 775.033 3.20927 3.40769 0
M  V30 8268 H 775.206 4.62321 4.54052 0
M  V30 8269 N 768.612 -1.24939 0.960631 0
M  V30 8270 C 769.858 -1.93104 0.61958 0
M  V30 8271 C 770.191 -1.74991 -0.84212 0
M  V30 8272 O 769.466 -1.09867 -1.60498 0
M  V30 8273 C 769.749 -3.46326 0.986422 0
M  V30 8274 C 769.602 -3.73638 2.50429 0
M  V30 8275 C 770.921 -4.37067 0.515827 0
M  V30 8276 H 768.04 -0.701311 0.226566 0
M  V30 8277 H 770.682 -1.47442 1.19836 0
M  V30 8278 H 768.832 -3.85348 0.493907 0
M  V30 8279 H 770.504 -3.44217 3.07103 0
M  V30 8280 H 768.747 -3.19035 2.93937 0
M  V30 8281 H 769.418 -4.80815 2.71147 0
M  V30 8282 H 771.894 -4.05381 0.938389 0
M  V30 8283 H 770.77 -5.43022 0.80114 0
M  V30 8284 H 771.031 -4.38224 -0.584171 0
M  V30 8285 N 770.09 -0.729906 -1.39679 0
M  V30 8286 C 771.037 -0.0866063 -2.30637 0
M  V30 8287 C 772.007 0.735115 -1.48947 0
M  V30 8288 O 773.192 0.696125 -1.77648 0
M  V30 8289 C 770.332 0.818524 -3.35252 0
M  V30 8290 C 769.445 -0.0152635 -4.31997 0
M  V30 8291 C 768.58 0.890669 -5.2368 0
M  V30 8292 C 767.619 0.0518246 -6.12078 0
M  V30 8293 N 766.756 0.913411 -6.96133 0
M  V30 8294 H 771.596 -0.867925 -2.85081 0
M  V30 8295 H 769.133 -0.439673 -1.40376 0
M  V30 8296 H 771.091 1.3577 -3.9449 0
M  V30 8297 H 769.721 1.56587 -2.82277 0
M  V30 8298 H 768.773 -0.671794 -3.74421 0
M  V30 8299 H 770.085 -0.664086 -4.9436 0
M  V30 8300 H 769.239 1.49787 -5.87919 0
M  V30 8301 H 767.978 1.57328 -4.61627 0
M  V30 8302 H 766.983 -0.568209 -5.46856 0
M  V30 8303 H 768.208 -0.627497 -6.76195 0
M  V30 8304 H 766.154 1.58141 -6.36653 0
M  V30 8305 H 766.071 0.320952 -7.55318 0
M  V30 8306 H 767.339 1.50633 -7.64807 0
M  V30 8307 N 771.568 1.50203 -0.477153 0
M  V30 8308 C 772.515 2.28656 0.31386 0
M  V30 8309 C 773.485 1.33977 0.981802 0
M  V30 8310 O 774.67 1.62919 0.993072 0
M  V30 8311 C 771.81 3.16027 1.38639 0
M  V30 8312 C 770.923 4.25743 0.732615 0
M  V30 8313 C 770.058 5.00363 1.78355 0
M  V30 8314 C 769.097 6.01945 1.11035 0
M  V30 8315 N 768.234 6.6982 2.10441 0
M  V30 8316 H 773.074 2.958 -0.361445 0
M  V30 8317 H 770.611 1.45867 -0.190093 0
M  V30 8318 H 772.569 3.6504 2.01994 0
M  V30 8319 H 771.199 2.50917 2.03077 0
M  V30 8320 H 770.251 3.80398 -0.0136546 0
M  V30 8321 H 771.563 4.98393 0.201513 0
M  V30 8322 H 770.717 5.53124 2.49276 0
M  V30 8323 H 769.456 4.27432 2.34847 0
M  V30 8324 H 768.461 5.48438 0.386797 0
M  V30 8325 H 769.686 6.76851 0.552248 0
M  V30 8326 H 767.632 5.99677 2.65939 0
M  V30 8327 H 767.549 7.38366 1.62332 0
M  V30 8328 H 768.817 7.27196 2.80724 0
M  V30 8329 N 773.046 0.209999 1.56195 0
M  V30 8330 C 774.009 -0.691232 2.18528 0
M  V30 8331 C 775.009 -1.13013 1.14388 0
M  V30 8332 O 776.199 -1.04081 1.39688 0
M  V30 8333 C 773.331 -1.94551 2.79934 0
M  V30 8334 H 774.524 -0.147953 2.99535 0
M  V30 8335 H 772.077 -0.0396243 1.5625 0
M  V30 8336 H 772.812 -2.53094 2.02766 0
M  V30 8337 H 772.597 -1.63938 3.56184 0
M  V30 8338 H 774.087 -2.58785 3.2775 0
M  V30 8339 N 774.524 -1.57472 -0.0634922 0
M  V30 8340 C 775.474 -2.00709 -1.08166 0
M  V30 8341 C 776.458 -0.890498 -1.34011 0
M  V30 8342 O 777.65 -1.15441 -1.34173 0
M  V30 8343 C 774.779 -2.46148 -2.39303 0
M  V30 8344 C 773.865 -3.64559 -2.16697 0
M  V30 8345 N 774.256 -4.78459 -1.64043 0
M  V30 8346 C 772.554 -3.71269 -2.47135 0
M  V30 8347 C 773.255 -5.60268 -1.56445 0
M  V30 8348 N 772.231 -5.04357 -2.02792 0
M  V30 8349 H 776.033 -2.86208 -0.668016 0
M  V30 8350 H 773.547 -1.60133 -0.270426 0
M  V30 8351 H 775.544 -2.75367 -3.13016 0
M  V30 8352 H 774.204 -1.62041 -2.81377 0
M  V30 8353 H 775.215 -5.00587 -1.32791 0
M  V30 8354 H 771.892 -2.97891 -2.92518 0
M  V30 8355 H 773.282 -6.6172 -1.16519 0
M  V30 8356 N 776.003 0.335068 -1.53997 0
M  V30 8357 C 776.95 1.41187 -1.82579 0
M  V30 8358 C 777.92 1.51897 -0.672061 0
M  V30 8359 O 779.105 1.673 -0.917346 0
M  V30 8360 C 776.245 2.77717 -2.0486 0
M  V30 8361 C 775.358 2.7573 -3.32561 0
M  V30 8362 C 774.493 4.04032 -3.44864 0
M  V30 8363 C 773.532 3.96308 -4.66483 0
M  V30 8364 N 772.669 5.16317 -4.75774 0
M  V30 8365 H 777.509 1.16113 -2.74448 0
M  V30 8366 H 775.046 0.562305 -1.35928 0
M  V30 8367 H 777.004 3.57071 -2.15768 0
M  V30 8368 H 775.634 3.01124 -1.16294 0
M  V30 8369 H 774.686 1.88432 -3.3045 0
M  V30 8370 H 775.998 2.65902 -4.22016 0
M  V30 8371 H 775.152 4.91814 -3.55251 0
M  V30 8372 H 773.891 4.16652 -2.53481 0
M  V30 8373 H 772.896 3.06911 -4.56164 0
M  V30 8374 H 774.121 3.85263 -5.5924 0
M  V30 8375 H 772.067 5.29464 -3.87303 0
M  V30 8376 H 771.984 5.08779 -5.59178 0
M  V30 8377 H 773.252 6.05846 -4.9048 0
M  V30 8378 N 777.481 1.45874 0.596531 0
M  V30 8379 C 778.706 1.54247 1.38646 0
M  V30 8380 C 779.131 0.179571 1.87241 0
M  V30 8381 O 778.489 -0.837831 1.6078 0
M  V30 8382 C 778.537 2.54015 2.55946 0
M  V30 8383 O 777.641 2.06561 3.5694 0
M  V30 8384 H 776.982 0.519555 0.413471 0
M  V30 8385 H 779.512 1.91327 0.724936 0
M  V30 8386 H 779.522 2.73179 3.03047 0
M  V30 8387 H 778.197 3.52994 2.19928 0
M  V30 8388 H 776.774 1.97324 3.16414 0
M  V30 8389 N 778.959 -0.83999 1.33349 0
M  V30 8390 C 779.906 -1.94972 1.23509 0
M  V30 8391 C 780.876 -1.65709 0.113967 0
M  V30 8392 O 782.061 -1.88552 0.292045 0
M  V30 8393 C 779.201 -3.30919 0.979105 0
M  V30 8394 C 778.314 -3.72587 2.18639 0
M  V30 8395 C 777.449 -4.97397 1.86465 0
M  V30 8396 C 776.488 -5.31597 3.03432 0
M  V30 8397 N 775.625 -6.47584 2.71254 0
M  V30 8398 H 780.465 -2.0272 2.18423 0
M  V30 8399 H 778.002 -0.992017 1.08616 0
M  V30 8400 H 779.96 -4.09239 0.811126 0
M  V30 8401 H 778.59 -3.22731 0.0667099 0
M  V30 8402 H 777.642 -2.89799 2.46416 0
M  V30 8403 H 778.954 -3.93844 3.06086 0
M  V30 8404 H 778.108 -5.83462 1.66305 0
M  V30 8405 H 776.847 -4.78107 0.96254 0
M  V30 8406 H 775.852 -4.44037 3.24208 0
M  V30 8407 H 777.077 -5.52836 3.94397 0
M  V30 8408 H 775.023 -6.29783 1.836 0
M  V30 8409 H 774.94 -6.68931 3.52231 0
M  V30 8410 H 776.208 -7.36764 2.54558 0
M  V30 8411 N 780.437 -1.16799 -1.0581 0
M  V30 8412 C 781.665 -0.97687 -1.82387 0
M  V30 8413 C 782.08 0.474917 -1.82729 0
M  V30 8414 O 781.437 1.3297 -1.25001 0
M  V30 8415 C 781.488 -1.50279 -3.28783 0
M  V30 8416 O 781.209 -2.89772 -3.28578 0
M  V30 8417 C 782.71 -1.35538 -4.22071 0
M  V30 8418 H 779.93 -0.345977 -0.574927 0
M  V30 8419 H 782.474 -1.54942 -1.33466 0
M  V30 8420 H 780.629 -0.972414 -3.74997 0
M  V30 8421 H 781.043 -3.13954 -4.20159 0
M  V30 8422 H 782.517 -1.7716 -5.22799 0
M  V30 8423 H 782.994 -0.301598 -4.38163 0
M  V30 8424 H 783.6 -1.87562 -3.81708 0
M  V30 8425 N 781.915 1.24427 -0.967243 0
M  V30 8426 C 782.865 2.23143 -0.468106 0
M  V30 8427 C 783.849 1.5449 0.449633 0
M  V30 8428 O 785.041 1.74761 0.28063 0
M  V30 8429 C 782.17 3.42454 0.240867 0
M  V30 8430 C 781.256 4.18355 -0.695674 0
M  V30 8431 N 781.647 4.71428 -1.83273 0
M  V30 8432 C 779.945 4.43116 -0.506365 0
M  V30 8433 C 780.646 5.29041 -2.41849 0
M  V30 8434 N 779.622 5.16213 -1.70369 0
M  V30 8435 H 783.424 2.61795 -1.3357 0
M  V30 8436 H 780.938 1.39809 -0.826277 0
M  V30 8437 H 782.935 4.12329 0.615668 0
M  V30 8438 H 781.595 3.05323 1.10491 0
M  V30 8439 H 782.606 4.68177 -2.21428 0
M  V30 8440 H 779.283 4.16319 0.313747 0
M  V30 8441 H 780.673 5.80811 -3.37799 0
M  V30 8442 O 783.432 0.875006 1.35742 0
M  V30 8443 H 784.123 0.476549 1.87746 0
M  V30 END ATOM
M  V30 BEGIN BOND
M  V30 END BOND
M  V30 END CTAB
M  END
$$$$
