drugbank_target|Q05514 Methylaspartate ammonia-lyase (DB03661)
 OpenBabel12092120243D

  0  0  0     0  0            999 V3000
M  V30 BEGIN CTAB
M  V30 COUNTS 6379 6428 0 0 0
M  V30 BEGIN ATOM
M  V30 1 H -0.908 1.98254 -0.117106 0
M  V30 2 N 0 1.576 0 0
M  V30 3 C 0.933 2.03868 1.02534 0
M  V30 4 C 1.911 0.928543 1.3348 0
M  V30 5 O 3.095 1.19667 1.45644 0
M  V30 6 C 0.222 2.43627 2.35294 0
M  V30 7 C -0.732 3.65373 2.2001 0
M  V30 8 S 0.101 5.13292 1.52614 0
M  V30 9 C 1.257 5.56322 2.86805 0
M  V30 10 H 1.49 2.90518 0.631377 0
M  V30 11 H -0.977 1.52953 0.210867 0
M  V30 12 H 0.981 2.67203 3.11629 0
M  V30 13 H -0.358 1.57376 2.7183 0
M  V30 14 H -1.165 3.90944 3.18086 0
M  V30 15 H -1.563 3.418 1.51819 0
M  V30 16 H 0.729 5.58782 3.83104 0
M  V30 17 H 1.672 6.56266 2.65933 0
M  V30 18 H 2.08 4.83886 2.90714 0
M  V30 19 N 1.4781 -0.272755 1.55222 0
M  V30 20 C 2.4251 -1.33716 1.88119 0
M  V30 21 C 3.3951 -1.49066 0.73271 0
M  V30 22 O 4.5801 -1.63469 0.984002 0
M  V30 23 C 1.7201 -2.69238 2.15882 0
M  V30 24 C 0.8331 -2.62108 3.43399 0
M  V30 25 C -0.0319 -3.89811 3.60861 0
M  V30 26 C -0.9929 -3.77193 4.8207 0
M  V30 27 N -1.8559 -4.9673 4.96189 0
M  V30 28 H 2.9841 -1.04962 2.78903 0
M  V30 29 H 0.5211 -0.507088 1.38083 0
M  V30 30 H 2.4791 -3.48089 2.29978 0
M  V30 31 H 1.1091 -2.96194 1.28331 0
M  V30 32 H 0.1611 -1.74967 3.37773 0
M  V30 33 H 1.4731 -2.48685 4.32386 0
M  V30 34 H 0.6271 -4.77103 3.74777 0
M  V30 35 H -0.6339 -4.06102 2.7006 0
M  V30 36 H -1.6289 -2.88284 4.68159 0
M  V30 37 H -0.4039 -3.62421 5.74307 0
M  V30 38 H -2.4579 -5.13431 4.08319 0
M  V30 39 H -2.5409 -4.85839 5.79221 0
M  V30 40 H -1.2729 -5.85594 5.1449 0
M  V30 41 N 2.9562 -1.48159 -0.537278 0
M  V30 42 C 4.2052 -1.5506 -1.28993 0
M  V30 43 C 4.5182 -0.226211 -1.94288 0
M  V30 44 O 5.7242 -0.173395 -2.70946 0
M  V30 45 C 4.1802 -2.73429 -2.34018 0
M  V30 46 C 3.7882 -4.1248 -1.74825 0
M  V30 47 C 5.5322 -2.89638 -3.10339 0
M  V30 48 C 3.4392 -5.22121 -2.77747 0
M  V30 49 H 2.3692 -0.577231 -0.485098 0
M  V30 50 H 5.0202 -1.74478 -0.568317 0
M  V30 51 H 3.4022 -2.47431 -3.09182 0
M  V30 52 H 4.5762 -4.48466 -1.05899 0
M  V30 53 H 2.8912 -4.01327 -1.11022 0
M  V30 54 H 5.4882 -3.68718 -3.87235 0
M  V30 55 H 5.8312 -1.9882 -3.65754 0
M  V30 56 H 6.3642 -3.15502 -2.42288 0
M  V30 57 H 3.1032 -6.1488 -2.27161 0
M  V30 58 H 2.6232 -4.90631 -3.45024 0
M  V30 59 H 4.3022 -5.49924 -3.4087 0
M  V30 60 N 4.4343 0.785586 -1.36625 0
M  V30 61 C 5.6803 1.54591 -1.31261 0
M  V30 62 C 6.0133 1.93906 0.106823 0
M  V30 63 O 5.2883 1.63007 1.06108 0
M  V30 64 C 5.5713 2.82038 -2.23889 0
M  V30 65 C 5.4243 2.49066 -3.74548 0
M  V30 66 C 6.7433 3.83887 -2.15217 0
M  V30 67 H 3.8623 0.560846 -0.478143 0
M  V30 68 H 6.5043 0.902278 -1.67209 0
M  V30 69 H 4.6543 3.36961 -1.93363 0
M  V30 70 H 6.3263 2.00164 -4.15611 0
M  V30 71 H 4.5693 1.81954 -3.93796 0
M  V30 72 H 5.2403 3.40109 -4.34776 0
M  V30 73 H 7.7163 3.38421 -2.42096 0
M  V30 74 H 6.5923 4.70806 -2.82193 0
M  V30 75 H 6.8533 4.27131 -1.14068 0
M  V30 76 N 5.9124 1.20967 1.01018 0
M  V30 77 C 7.1894 0.93264 1.71934 0
M  V30 78 C 7.5694 -0.55692 2.03621 0
M  V30 79 O 6.9174 -1.52035 1.7058 0
M  V30 80 C 7.1274 1.81233 2.98254 0
M  V30 81 C 8.4754 2.05804 3.71389 0
M  V30 82 O 9.4994 1.78539 3.08225 0
M  V30 83 O 8.3584 2.51888 4.84989 0
M  V30 84 H 5.4524 0.349272 0.749625 0
M  V30 85 H 7.9984 1.31871 1.06808 0
M  V30 86 H 6.7704 2.82067 2.71208 0
M  V30 87 H 6.3934 1.42674 3.7112 0
M  V30 88 N 7.3905 -1.2043 1.01659 0
M  V30 89 C 8.6365 -1.90079 0.706963 0
M  V30 90 C 8.9695 -1.78648 -0.761474 0
M  V30 91 O 8.2445 -1.17069 -1.55323 0
M  V30 92 C 8.5275 -3.41469 1.14327 0
M  V30 93 C 8.3805 -3.61833 2.67201 0
M  V30 94 C 9.6995 -4.34261 0.714529 0
M  V30 95 H 6.8185 -0.690254 0.2583 0
M  V30 96 H 9.4605 -1.41826 1.26433 0
M  V30 97 H 7.6105 -3.82696 0.669056 0
M  V30 98 H 9.2825 -3.2986 3.22475 0
M  V30 99 H 7.5255 -3.05304 3.08175 0
M  V30 100 H 8.1965 -4.67955 2.92783 0
M  V30 101 H 10.6725 -4.00682 1.12221 0
M  V30 102 H 9.5485 -5.38806 1.04784 0
M  V30 103 H 9.8095 -4.40431 -0.383799 0
M  V30 104 N 8.8686 -0.792821 -1.36206 0
M  V30 105 C 9.7986 -0.207853 -2.32573 0
M  V30 106 C 10.7796 0.659055 -1.56813 0
M  V30 107 O 11.9646 0.592176 -1.84951 0
M  V30 108 C 9.0946 0.655449 -3.41059 0
M  V30 109 C 8.0486 -0.111842 -4.27854 0
M  V30 110 C 7.3746 0.872274 -5.27537 0
M  V30 111 C 8.6746 -1.30299 -5.05786 0
M  V30 112 H 10.3686 -1.01294 -2.81744 0
M  V30 113 H 7.9146 -0.48854 -1.3546 0
M  V30 114 H 9.8676 1.07464 -4.07467 0
M  V30 115 H 8.5916 1.49328 -2.90463 0
M  V30 116 H 7.2506 -0.512053 -3.63006 0
M  V30 117 H 6.8986 1.70523 -4.73214 0
M  V30 118 H 6.5986 0.363291 -5.86476 0
M  V30 119 H 8.1226 1.28996 -5.96818 0
M  V30 120 H 9.5366 -0.959379 -5.65216 0
M  V30 121 H 7.9336 -1.7455 -5.74154 0
M  V30 122 H 9.0036 -2.09663 -4.37229 0
M  V30 123 N 10.3467 1.47872 -0.545128 0
M  V30 124 C 11.5867 2.04391 -0.0187854 0
M  V30 125 C 11.9507 1.41162 1.30144 0
M  V30 126 O 13.1517 1.88656 1.91474 0
M  V30 127 C 11.4227 3.57299 0.0850867 0
M  V30 128 S 12.9817 4.35221 0.559302 0
M  V30 129 H 9.7997 0.710737 -0.0193301 0
M  V30 130 H 12.4017 1.81395 -0.729125 0
M  V30 131 H 11.1057 4.00847 -0.880351 0
M  V30 132 H 10.6367 3.84773 0.819348 0
M  V30 133 H 12.6517 4.61571 1.82118 0
M  V30 134 N 11.8248 0.280983 1.55075 0
M  V30 135 C 13.0528 -0.337293 2.04132 0
M  V30 136 C 13.4678 -1.4903 1.15912 0
M  V30 137 O 12.8248 -1.81606 0.180459 0
M  V30 138 C 12.8758 -0.812706 3.52246 0
M  V30 139 O 12.5968 0.294387 4.3711 0
M  V30 140 C 14.0978 -1.4982 4.17216 0
M  V30 141 H 11.3178 -0.0761638 0.666663 0
M  V30 142 H 13.8618 0.414787 2.00249 0
M  V30 143 H 12.0168 -1.51486 3.56554 0
M  V30 144 H 12.4308 -0.0721325 5.2445 0
M  V30 145 H 13.9048 -1.7822 5.22438 0
M  V30 146 H 14.3818 -2.43168 3.65741 0
M  V30 147 H 14.9878 -0.839742 4.16927 0
M  V30 148 N 13.3029 -1.57598 0.00835791 0
M  V30 149 C 14.7139 -1.7892 -0.53333 0
M  V30 150 C 15.0649 -0.916609 -1.73473 0
M  V30 151 O 14.1899 -0.121336 -2.1606 0
M  V30 152 C 14.7849 -3.24488 -0.974313 0
M  V30 153 C 13.3439 -3.46878 -1.46125 0
M  V30 154 C 12.4909 -2.74157 -0.416302 0
M  V30 155 H 15.4419 -1.56958 0.234495 0
M  V30 156 H 15.4629 -3.3306 -1.83988 0
M  V30 157 H 14.9749 -3.87972 -0.099718 0
M  V30 158 H 13.0759 -2.8862 -2.35646 0
M  V30 159 H 13.1889 -4.55572 -1.48295 0
M  V30 160 H 11.5529 -2.39022 -0.87981 0
M  V30 161 H 12.3359 -3.40345 0.44947 0
M  V30 162 N 14.781 0.264519 -1.55364 0
M  V30 163 C 16.029 0.993021 -1.76021 0
M  V30 164 C 16.35 1.86511 -0.569099 0
M  V30 165 O 15.62 1.91438 0.415735 0
M  V30 166 H 14.2 0.369639 -0.649135 0
M  V30 167 H 16.862 0.286707 -1.9278 0
M  V30 168 H 15.958 1.62502 -2.66457 0
M  V30 169 N 16.2591 1.48442 0.529413 0
M  V30 170 C 17.1891 1.65902 1.64313 0
M  V30 171 C 18.1701 0.507897 1.6234 0
M  V30 172 O 19.3551 0.740503 1.79528 0
M  V30 173 C 16.4851 1.69911 3.02898 0
M  V30 174 C 15.4391 2.8453 3.19729 0
M  V30 175 C 14.7651 2.73629 4.59381 0
M  V30 176 C 16.0651 4.25821 3.02447 0
M  V30 177 H 17.7591 2.5914 1.49955 0
M  V30 178 H 15.3051 1.24709 0.719982 0
M  V30 179 H 17.2581 1.80715 3.80684 0
M  V30 180 H 15.9821 0.732524 3.18279 0
M  V30 181 H 14.6411 2.73283 2.44361 0
M  V30 182 H 14.2891 1.74938 4.71599 0
M  V30 183 H 13.9891 3.50541 4.71588 0
M  V30 184 H 15.5131 2.86401 5.39265 0
M  V30 185 H 16.9271 4.37898 3.70024 0
M  V30 186 H 15.3241 5.03735 3.26146 0
M  V30 187 H 16.3941 4.42244 1.98867 0
M  V30 188 N 17.7372 -0.778329 1.37039 0
M  V30 189 C 18.9652 -1.56734 1.35063 0
M  V30 190 C 19.3802 -1.88686 -0.0655597 0
M  V30 191 O 18.7372 -1.5096 -1.02554 0
M  V30 192 C 18.7882 -2.88163 2.18276 0
M  V30 193 O 18.5092 -2.57583 3.54376 0
M  V30 194 C 20.0102 -3.82422 2.24206 0
M  V30 195 H 17.2302 -0.485778 0.462883 0
M  V30 196 H 19.7742 -0.965185 1.8029 0
M  V30 197 H 17.9292 -3.44818 1.76576 0
M  V30 198 H 18.3432 -3.41699 3.97922 0
M  V30 199 H 19.8172 -4.71667 2.86765 0
M  V30 200 H 20.2942 -4.21078 1.24861 0
M  V30 201 H 20.9002 -3.31697 2.6619 0
M  V30 202 N 19.2153 -1.21501 -1.00376 0
M  V30 203 C 20.4633 -1.03095 -1.73827 0
M  V30 204 C 20.7843 0.436341 -1.90055 0
M  V30 205 O 20.0543 1.31466 -1.45236 0
M  V30 206 H 18.6343 -0.378487 -0.644016 0
M  V30 207 H 21.2963 -1.52831 -1.20949 0
M  V30 208 H 20.3923 -1.49991 -2.73695 0
M  V30 209 N 20.6934 1.19889 -1.02296 0
M  V30 210 C 21.9404 1.8942 -0.715972 0
M  V30 211 C 22.2684 1.79251 0.754944 0
M  V30 212 O 21.5234 1.17526 1.56481 0
M  V30 213 C 21.8224 3.39883 -1.10518 0
M  V30 214 C 21.4884 3.70254 -2.57337 0
M  V30 215 C 20.1504 3.78254 -2.97452 0
M  V30 216 C 22.5024 3.84052 -3.52354 0
M  V30 217 C 19.8304 3.97514 -4.31509 0
M  V30 218 C 22.1824 4.04824 -4.86108 0
M  V30 219 C 20.8464 4.11054 -5.25919 0
M  V30 220 H 20.1164 0.693138 -0.261993 0
M  V30 221 H 22.7634 1.42012 -1.28472 0
M  V30 222 H 21.0684 3.8915 -0.454953 0
M  V30 223 H 22.7654 3.9199 -0.845261 0
M  V30 224 H 19.3554 3.64632 -2.25258 0
M  V30 225 H 23.5394 3.77221 -3.22518 0
M  V30 226 H 18.7954 4.00574 -4.61898 0
M  V30 227 H 22.9694 4.14442 -5.59653 0
M  V30 228 H 20.5964 4.2573 -6.29808 0
M  V30 229 N 22.1715 0.800033 1.35784 0
M  V30 230 C 23.4015 0.389041 2.02904 0
M  V30 231 C 23.8095 -1.0027 1.60445 0
M  V30 232 O 23.1525 -1.65633 0.794453 0
M  V30 233 C 23.2145 0.385495 3.57427 0
M  V30 234 C 22.8785 1.72662 4.23127 0
M  V30 235 C 23.8755 2.68385 4.4527 0
M  V30 236 C 21.5605 2.00883 4.60381 0
M  V30 237 C 23.5545 3.90517 5.03761 0
M  V30 238 C 21.2415 3.2328 5.18588 0
M  V30 239 C 22.2395 4.17915 5.40218 0
M  V30 240 O 21.9275 5.38153 5.97199 0
M  V30 241 H 21.6595 0.157032 0.657508 0
M  V30 242 H 24.2135 1.08311 1.74522 0
M  V30 243 H 22.4435 -0.365128 3.84972 0
M  V30 244 H 24.1325 -0.00228296 4.059 0
M  V30 245 H 24.8985 2.47872 4.16874 0
M  V30 246 H 20.7775 1.28037 4.42863 0
M  V30 247 H 24.3215 4.64395 5.2056 0
M  V30 248 H 20.2185 3.43667 5.4641 0
M  V30 249 H 20.9865 5.3936 6.15656 0
M  V30 250 N 23.6496 -1.47581 0.552962 0
M  V30 251 C 24.8966 -2.02482 0.0273243 0
M  V30 252 C 25.2246 -1.42776 -1.32081 0
M  V30 253 O 24.4796 -0.571393 -1.87173 0
M  V30 254 C 24.7786 -3.57199 -0.119728 0
M  V30 255 C 24.4446 -4.35804 1.15697 0
M  V30 256 C 23.1066 -4.57 1.50681 0
M  V30 257 C 25.4586 -4.81167 2.00319 0
M  V30 258 C 22.7866 -5.20807 2.70142 0
M  V30 259 C 25.1386 -5.46293 3.18978 0
M  V30 260 C 23.8026 -5.65722 3.54281 0
M  V30 261 H 23.0726 -0.740933 0.00999866 0
M  V30 262 H 25.7196 -1.77302 0.72362 0
M  V30 263 H 24.0246 -3.81348 -0.89896 0
M  V30 264 H 25.7216 -3.97324 -0.541718 0
M  V30 265 H 22.3116 -4.19582 0.874561 0
M  V30 266 H 26.4956 -4.64574 1.74599 0
M  V30 267 H 21.7516 -5.34045 2.97668 0
M  V30 268 H 25.9256 -5.80407 3.84838 0
M  V30 269 H 23.5526 -6.14936 4.46942 0
M  V30 270 N 25.1277 -0.289203 -1.54924 0
M  V30 271 C 26.4047 0.376032 -1.91951 0
M  V30 272 C 26.7847 1.72622 -1.21511 0
M  V30 273 O 26.1327 2.25853 -0.346767 0
M  V30 274 C 26.3427 0.502378 -3.45365 0
M  V30 275 C 27.6907 0.778741 -4.17398 0
M  V30 276 O 28.7147 0.586647 -3.51336 0
M  V30 277 O 27.5737 1.14698 -5.34328 0
M  V30 278 H 24.6677 0.208167 -0.800372 0
M  V30 279 H 27.2137 -0.336394 -1.66332 0
M  V30 280 H 25.9857 -0.447255 -3.88736 0
M  V30 281 H 25.6087 1.26373 -3.76982 0
M  V30 282 N 26.6058 1.57591 -0.0167156 0
M  V30 283 C 27.8828 1.82547 0.702564 0
M  V30 284 C 28.2628 0.898018 1.91047 0
M  V30 285 O 27.6108 -0.0493456 2.28447 0
M  V30 286 C 27.8208 3.31459 1.09251 0
M  V30 287 C 29.1688 3.97622 1.48937 0
M  V30 288 O 30.1928 3.35881 1.18584 0
M  V30 289 O 29.0518 5.06415 2.05442 0
M  V30 290 H 26.1458 0.752268 0.343544 0
M  V30 291 H 28.6918 1.69644 -0.0434495 0
M  V30 292 H 27.4638 3.9061 0.23227 0
M  V30 293 H 27.0868 3.49422 1.89709 0
M  V30 294 N 28.0839 -0.256276 1.55502 0
M  V30 295 C 29.0159 -1.33981 1.85962 0
M  V30 296 C 30.0289 -1.44743 0.745212 0
M  V30 297 O 31.2179 -1.4626 1.02324 0
M  V30 298 C 28.3179 -2.7194 2.02242 0
M  V30 299 C 27.4909 -2.83562 3.33033 0
M  V30 300 C 26.5499 -4.02304 3.39172 0
M  V30 301 O 25.5759 -3.92273 4.12444 0
M  V30 302 N 26.7779 -5.15045 2.67784 0
M  V30 303 H 29.5429 -1.08191 2.7949 0
M  V30 304 H 27.1039 -0.446388 1.55624 0
M  V30 305 H 29.0959 -3.49697 2.03701 0
M  V30 306 H 27.6659 -2.90479 1.15502 0
M  V30 307 H 26.8859 -1.92555 3.43971 0
M  V30 308 H 28.1739 -2.88271 4.19258 0
M  V30 309 H 27.5719 -5.26085 2.07968 0
M  V30 310 H 26.1289 -5.90972 2.74947 0
M  V30 311 N 29.562 -1.4872 -0.521534 0
M  V30 312 C 30.978 -1.35028 -0.850855 0
M  V30 313 C 31.178 -0.367712 -1.98116 0
M  V30 314 O 30.234 0.208037 -2.51642 0
M  V30 315 C 31.547 -2.75263 -1.21041 0
M  V30 316 C 33.095 -2.83813 -1.31981 0
M  V30 317 C 33.57 -4.24769 -1.71276 0
M  V30 318 N 35.061 -4.27482 -1.78363 0
M  V30 319 C 35.796 -5.33494 -2.1017 0
M  V30 320 N 35.292 -6.49775 -2.40343 0
M  V30 321 N 37.085 -5.20894 -2.11248 0
M  V30 322 H 29.236 -2.11214 0.22413 0
M  V30 323 H 31.499 -0.947252 0.0376439 0
M  V30 324 H 31.205 -3.48765 -0.453415 0
M  V30 325 H 31.079 -3.09327 -2.15863 0
M  V30 326 H 33.466 -2.10561 -2.06756 0
M  V30 327 H 33.547 -2.53358 -0.352596 0
M  V30 328 H 33.191 -4.9854 -0.970588 0
M  V30 329 H 33.121 -4.52673 -2.69062 0
M  V30 330 H 35.612 -3.43611 -1.57288 0
M  V30 331 H 35.925 -7.26402 -2.63743 0
M  V30 332 H 34.27 -6.53035 -2.37844 0
M  V30 333 H 37.461 -4.29065 -1.87139 0
M  V30 334 H 37.634 -6.03612 -2.35704 0
M  V30 335 N 31.0401 0.771051 -1.3745 0
M  V30 336 C 32.0031 1.86598 -1.33093 0
M  V30 337 C 33.0031 1.59076 -0.234845 0
M  V30 338 O 34.1931 1.67145 -0.490732 0
M  V30 339 C 31.3251 3.23747 -1.06773 0
M  V30 340 H 32.5181 1.91873 -2.30488 0
M  V30 341 H 30.0711 0.970876 -1.2249 0
M  V30 342 H 30.8061 3.24148 -0.099129 0
M  V30 343 H 30.5911 3.45115 -1.86112 0
M  V30 344 H 32.0811 4.03824 -1.06377 0
M  V30 345 N 32.5182 1.22032 0.997298 0
M  V30 346 C 33.7672 1.03637 1.73038 0
M  V30 347 C 34.0802 -0.429475 1.90827 0
M  V30 348 O 35.2862 -0.732995 2.61418 0
M  V30 349 C 33.7422 1.80582 3.11317 0
M  V30 350 C 33.3502 3.31387 3.01474 0
M  V30 351 C 35.0942 1.70621 3.88701 0
M  V30 352 C 33.0012 4.00791 4.3488 0
M  V30 353 H 31.9312 0.384179 0.648785 0
M  V30 354 H 34.5822 1.4584 1.11368 0
M  V30 355 H 32.9642 1.31175 3.73643 0
M  V30 356 H 34.1382 3.88155 2.4834 0
M  V30 357 H 32.4532 3.41976 2.37575 0
M  V30 358 H 35.0502 2.19799 4.87434 0
M  V30 359 H 35.3932 0.665823 4.10941 0
M  V30 360 H 35.9262 2.17547 3.33044 0
M  V30 361 H 32.6652 5.05064 4.1784 0
M  V30 362 H 32.1852 3.48811 4.87945 0
M  V30 363 H 33.8642 4.06139 5.03647 0
M  V30 364 N 33.9963 -1.19345 1.0293 0
M  V30 365 C 34.9433 -2.2258 0.610464 0
M  V30 366 C 35.9133 -1.6179 -0.375946 0
M  V30 367 O 37.0983 -1.88844 -0.272511 0
M  V30 368 C 34.2383 -3.45085 -0.0321473 0
M  V30 369 C 33.3513 -4.20258 1.00035 0
M  V30 370 C 32.4863 -5.3019 0.32746 0
M  V30 371 C 31.5253 -5.97121 1.34584 0
M  V30 372 N 30.6623 -6.98615 0.698726 0
M  V30 373 H 35.5023 -2.57764 1.49538 0
M  V30 374 H 33.0393 -1.26644 0.748311 0
M  V30 375 H 34.9973 -4.15061 -0.421966 0
M  V30 376 H 33.6273 -3.10555 -0.88064 0
M  V30 377 H 32.6793 -3.49223 1.50823 0
M  V30 378 H 33.9913 -4.66175 1.77433 0
M  V30 379 H 33.1453 -6.06587 -0.11718 0
M  V30 380 H 31.8843 -4.85345 -0.478713 0
M  V30 381 H 30.8893 -5.19474 1.80074 0
M  V30 382 H 32.1143 -6.4405 2.15352 0
M  V30 383 H 30.0603 -6.55942 -0.0873471 0
M  V30 384 H 29.9773 -7.42724 1.41058 0
M  V30 385 H 31.2453 -7.79004 0.278102 0
M  V30 386 N 35.4744 -0.807222 -1.35358 0
M  V30 387 C 36.4214 -0.216037 -2.29787 0
M  V30 388 C 37.3914 0.650278 -1.52842 0
M  V30 389 O 38.5764 0.595227 -1.81278 0
M  V30 390 C 35.7164 0.628893 -3.39321 0
M  V30 391 C 34.8294 -0.257927 -4.31229 0
M  V30 392 C 33.9644 0.595069 -5.27856 0
M  V30 393 C 33.0034 -0.292111 -6.11403 0
M  V30 394 N 32.1404 0.520895 -7.00165 0
M  V30 395 H 36.9804 -1.02671 -2.79755 0
M  V30 396 H 34.5174 -0.517839 -1.37684 0
M  V30 397 H 36.4754 1.13393 -4.01494 0
M  V30 398 H 35.1054 1.40482 -2.90628 0
M  V30 399 H 34.1574 -0.881076 -3.70056 0
M  V30 400 H 35.4694 -0.940759 -4.89848 0
M  V30 401 H 34.6234 1.16522 -5.95405 0
M  V30 402 H 33.3624 1.31146 -4.69736 0
M  V30 403 H 32.3674 -0.874525 -5.428 0
M  V30 404 H 33.5924 -1.00638 -6.71602 0
M  V30 405 H 31.5384 1.22125 -6.44532 0
M  V30 406 H 31.4554 -0.103877 -7.55929 0
M  V30 407 H 32.7234 1.0743 -7.72062 0
M  V30 408 N 36.9525 1.47285 -0.560781 0
M  V30 409 C 38.2005 2.02064 -0.0379868 0
M  V30 410 C 38.5215 1.43711 1.31803 0
M  V30 411 O 37.7915 0.61362 1.86042 0
M  V30 412 H 36.3715 0.746918 -0.0110531 0
M  V30 413 H 39.0335 1.80648 -0.731598 0
M  V30 414 H 38.1295 3.12064 0.0474463 0
M  V30 415 N 38.4306 0.297415 1.54768 0
M  V30 416 C 39.3936 -0.567375 2.22066 0
M  V30 417 C 40.3936 -1.06409 1.20556 0
M  V30 418 O 41.5836 -0.960691 1.45315 0
M  V30 419 C 38.7156 -1.78517 2.90421 0
M  V30 420 H 39.9086 0.0205534 2.99893 0
M  V30 421 H 37.4616 0.0482163 1.56226 0
M  V30 422 H 38.1966 -2.41303 2.16664 0
M  V30 423 H 37.9816 -1.43669 3.64831 0
M  V30 424 H 39.4716 -2.39964 3.41771 0
M  V30 425 N 39.9087 -1.5758 0.0250728 0
M  V30 426 C 41.1567 -1.91255 -0.653151 0
M  V30 427 C 41.4777 -0.901691 -1.729 0
M  V30 428 O 40.7477 0.0573785 -1.95816 0
M  V30 429 H 39.3277 -0.705942 -0.244243 0
M  V30 430 H 41.9897 -1.94767 0.0719209 0
M  V30 431 H 41.0857 -2.91752 -1.10847 0
M  V30 432 N 41.3868 0.248026 -1.55636 0
M  V30 433 C 42.3368 1.30994 -1.86614 0
M  V30 434 C 43.3208 1.43543 -0.726918 0
M  V30 435 O 44.5128 1.46804 -0.988818 0
M  V30 436 C 41.6418 2.6656 -2.16335 0
M  V30 437 C 40.7278 2.58019 -3.36581 0
M  V30 438 N 41.1188 2.1911 -4.55878 0
M  V30 439 C 39.4168 2.89035 -3.39669 0
M  V30 440 C 40.1178 2.21174 -5.38012 0
M  V30 441 N 39.0938 2.60632 -4.77045 0
M  V30 442 H 42.8958 0.999583 -2.76379 0
M  V30 443 H 40.4098 0.456652 -1.55848 0
M  V30 444 H 42.4068 3.43194 -2.36692 0
M  V30 445 H 41.0668 2.98463 -1.27867 0
M  V30 446 H 42.0778 1.90672 -4.81523 0
M  V30 447 H 38.7548 3.25485 -2.61469 0
M  V30 448 H 40.1448 1.9344 -6.43452 0
M  V30 449 N 42.8649 1.48995 0.513639 0
M  V30 450 C 44.1419 1.48338 1.27495 0
M  V30 451 C 44.5219 0.204065 2.10111 0
M  V30 452 O 43.8699 -0.813881 2.13514 0
M  V30 453 C 44.0799 2.75498 2.14247 0
M  V30 454 C 45.4279 3.24484 2.73852 0
M  V30 455 O 46.4519 2.76528 2.24523 0
M  V30 456 O 45.3109 4.07974 3.6362 0
M  V30 457 H 42.4049 0.593149 0.576284 0
M  V30 458 H 44.9509 1.61246 0.528948 0
M  V30 459 H 43.7229 3.60109 1.53092 0
M  V30 460 H 43.3459 2.6539 2.96064 0
M  V30 461 N 44.343 -0.763751 1.37857 0
M  V30 462 C 45.591 -1.51957 1.33243 0
M  V30 463 C 45.912 -1.94835 -0.0801709 0
M  V30 464 O 45.182 -1.66894 -1.02582 0
M  V30 465 H 43.762 -0.563626 0.49024 0
M  V30 466 H 46.424 -0.908504 1.7243 0
M  V30 467 H 45.52 -2.41523 1.97669 0
M  V30 468 N 45.8211 -1.22559 -0.990812 0
M  V30 469 C 47.0681 -1.05141 -1.73065 0
M  V30 470 C 47.3961 0.413191 -1.9006 0
M  V30 471 O 46.6511 1.32257 -1.44245 0
M  V30 472 C 46.9501 -1.71011 -3.13831 0
M  V30 473 C 46.6161 -3.20911 -3.16745 0
M  V30 474 C 45.2781 -3.61812 -3.17247 0
M  V30 475 C 47.6301 -4.16846 -3.12872 0
M  V30 476 C 44.9581 -4.97127 -3.1158 0
M  V30 477 C 47.3101 -5.5214 -3.08746 0
M  V30 478 C 45.9741 -5.92419 -3.07565 0
M  V30 479 H 45.2441 -0.384738 -0.633291 0
M  V30 480 H 47.8911 -1.5235 -1.16025 0
M  V30 481 H 46.1961 -1.16133 -3.74193 0
M  V30 482 H 47.8931 -1.55023 -3.69823 0
M  V30 483 H 44.4831 -2.88344 -3.17105 0
M  V30 484 H 48.6671 -3.86263 -3.11632 0
M  V30 485 H 43.9231 -5.27562 -3.09012 0
M  V30 486 H 48.0971 -6.26201 -3.04705 0
M  V30 487 H 45.7241 -6.97236 -3.02929 0
M  V30 488 N 47.2992 1.18797 -1.03562 0
M  V30 489 C 48.5272 1.92599 -0.755869 0
M  V30 490 C 48.9422 1.75886 0.686271 0
M  V30 491 O 48.2992 1.08517 1.46732 0
M  V30 492 C 48.3502 3.44159 -1.10619 0
M  V30 493 O 48.0712 3.60341 -2.4917 0
M  V30 494 C 49.5722 4.3507 -0.850214 0
M  V30 495 H 46.7922 0.611587 -0.276048 0
M  V30 496 H 49.3362 1.50742 -1.38192 0
M  V30 497 H 47.4912 3.83823 -0.525194 0
M  V30 498 H 47.9052 4.54128 -2.62427 0
M  V30 499 H 49.3792 5.39989 -1.14523 0
M  V30 500 H 49.8562 4.38673 0.215176 0
M  V30 501 H 50.4622 4.01097 -1.41426 0
M  V30 502 N 48.7773 0.814389 1.34928 0
M  V30 503 C 50.0073 0.41054 2.0248 0
M  V30 504 C 50.4153 -0.985625 1.61499 0
M  V30 505 O 49.7583 -1.64781 0.811976 0
M  V30 506 C 49.8203 0.423384 3.56998 0
M  V30 507 C 49.4843 1.77141 4.21272 0
M  V30 508 C 50.4813 2.73093 4.42398 0
M  V30 509 C 48.1663 2.05755 4.58225 0
M  V30 510 C 50.1603 3.95838 4.9959 0
M  V30 511 C 47.8473 3.28762 5.1513 0
M  V30 512 C 48.8453 4.23621 5.35755 0
M  V30 513 O 48.5333 5.44456 5.91458 0
M  V30 514 H 48.2653 0.163997 0.655806 0
M  V30 515 H 50.8193 1.10155 1.73364 0
M  V30 516 H 49.0493 -0.324276 3.85338 0
M  V30 517 H 50.7383 0.0407683 4.0588 0
M  V30 518 H 51.5043 2.5228 4.14222 0
M  V30 519 H 47.3833 1.32727 4.4148 0
M  V30 520 H 50.9273 4.69891 5.15605 0
M  V30 521 H 46.8243 3.49443 5.42734 0
M  V30 522 H 47.5923 5.4586 6.09901 0
M  V30 523 N 50.2554 -1.46986 0.568584 0
M  V30 524 C 51.4834 -2.0683 0.0539956 0
M  V30 525 C 51.8984 -1.41953 -1.24478 0
M  V30 526 O 51.2554 -0.519933 -1.74937 0
M  V30 527 C 51.3064 -3.61254 -0.133362 0
M  V30 528 O 51.0274 -4.237 1.11399 0
M  V30 529 C 52.5284 -4.37992 -0.683927 0
M  V30 530 H 49.7484 -0.669058 0.0510141 0
M  V30 531 H 52.2924 -1.88824 0.785234 0
M  V30 532 H 50.4474 -3.78735 -0.81477 0
M  V30 533 H 50.8614 -5.16388 0.91888 0
M  V30 534 H 52.3354 -5.46684 -0.764263 0
M  V30 535 H 52.8124 -4.05058 -1.69778 0
M  V30 536 H 53.4184 -4.25283 -0.0378494 0
M  V30 537 N 51.7335 -0.305618 -1.54608 0
M  V30 538 C 52.9815 0.301701 -1.99835 0
M  V30 539 C 53.3025 1.54054 -1.19551 0
M  V30 540 O 52.5725 1.93702 -0.292658 0
M  V30 541 H 51.1525 0.114468 -0.738178 0
M  V30 542 H 53.8145 -0.418016 -1.90364 0
M  V30 543 H 52.9105 0.570548 -3.06841 0
M  V30 544 N 53.2116 1.57565 -0.0334293 0
M  V30 545 C 54.4366 1.96689 0.657895 0
M  V30 546 C 54.8616 0.910057 1.64619 0
M  V30 547 O 54.2196 -0.128598 1.80843 0
M  V30 548 C 54.2676 3.34905 1.33683 0
M  V30 549 O 53.3716 3.31574 2.45219 0
M  V30 550 H 52.7126 0.641205 0.172489 0
M  V30 551 H 55.2426 2.04372 -0.0965621 0
M  V30 552 H 55.2526 3.71234 1.69262 0
M  V30 553 H 53.9276 4.11366 0.612411 0
M  V30 554 H 52.5046 3.06968 2.11719 0
M  V30 555 N 54.6897 -0.239769 1.55765 0
M  V30 556 C 55.9177 -0.98417 1.81994 0
M  V30 557 C 56.3327 -1.7867 0.610124 0
M  V30 558 O 55.6897 -1.77571 -0.421271 0
M  V30 559 C 55.7407 -1.91635 3.06526 0
M  V30 560 O 55.4617 -1.14629 4.22838 0
M  V30 561 C 56.9627 -2.77616 3.45607 0
M  V30 562 H 54.1827 -0.28928 0.605441 0
M  V30 563 H 56.7267 -0.260499 2.02834 0
M  V30 564 H 54.8817 -2.5942 2.87715 0
M  V30 565 H 55.2957 -1.77745 4.93464 0
M  V30 566 H 56.7697 -3.38759 4.35828 0
M  V30 567 H 57.2467 -3.4909 2.6652 0
M  V30 568 H 57.8527 -2.15271 3.66795 0
M  V30 569 N 56.1678 -1.49265 -0.50573 0
M  V30 570 C 57.4138 -1.58748 -1.26202 0
M  V30 571 C 57.7468 -0.271227 -1.92297 0
M  V30 572 O 57.0218 0.724831 -1.80489 0
M  V30 573 C 57.3048 -2.74332 -2.33268 0
M  V30 574 C 57.1578 -4.15737 -1.71705 0
M  V30 575 C 58.4768 -2.85576 -3.34865 0
M  V30 576 H 55.5958 -0.577826 -0.457478 0
M  V30 577 H 58.2378 -1.81532 -0.560897 0
M  V30 578 H 56.3878 -2.55036 -2.93068 0
M  V30 579 H 58.0598 -4.46537 -1.15769 0
M  V30 580 H 56.3028 -4.21605 -1.02135 0
M  V30 581 H 56.9738 -4.92477 -2.49341 0
M  V30 582 H 59.4498 -3.03127 -2.8505 0
M  V30 583 H 58.3258 -3.68135 -4.07146 0
M  V30 584 H 58.5868 -1.94732 -3.96903 0
M  V30 585 N 57.6459 0.756429 -1.3826 0
M  V30 586 C 58.8739 1.54565 -1.3754 0
M  V30 587 C 59.2889 1.88767 0.0355331 0
M  V30 588 O 58.6459 1.52572 1.0014 0
M  V30 589 C 58.6969 2.84654 -2.22833 0
M  V30 590 O 58.4179 2.51912 -3.5843 0
M  V30 591 C 59.9189 3.78807 -2.30261 0
M  V30 592 H 57.1389 0.478353 -0.470553 0
M  V30 593 H 59.6829 0.936381 -1.81803 0
M  V30 594 H 57.8379 3.41965 -1.8204 0
M  V30 595 H 58.2519 3.35325 -4.03308 0
M  V30 596 H 59.7259 4.67045 -2.94233 0
M  V30 597 H 60.2029 4.19038 -1.31545 0
M  V30 598 H 60.8089 3.2742 -2.71433 0
M  V30 599 N 59.124 1.23083 0.984299 0
M  V30 600 C 60.034 1.02515 2.11016 0
M  V30 601 C 61.05 -0.0291702 1.73976 0
M  V30 602 O 62.226 0.165434 2.00719 0
M  V30 603 C 59.291 0.614673 3.41208 0
M  V30 604 C 58.352 1.74359 3.92297 0
M  V30 605 C 57.585 1.35261 5.16275 0
M  V30 606 O 57.808 0.235136 5.69915 0
M  V30 607 O 56.742 2.17227 5.61334 0
M  V30 608 H 60.568 1.96862 2.31255 0
M  V30 609 H 58.153 1.01753 1.09392 0
M  V30 610 H 60.035 0.396518 4.1953 0
M  V30 611 H 58.71 -0.299851 3.22308 0
M  V30 612 H 57.617 2.01635 3.1511 0
M  V30 613 H 58.95 2.63629 4.15645 0
M  V30 614 N 60.6021 -1.18246 1.0419 0
M  V30 615 C 61.8501 -1.87886 0.744543 0
M  V30 616 C 62.1711 -1.8082 -0.730006 0
M  V30 617 O 61.4411 -1.22736 -1.52685 0
M  V30 618 H 60.0211 -0.695556 0.272417 0
M  V30 619 H 62.6831 -1.43494 1.31892 0
M  V30 620 H 61.7791 -2.9389 1.05049 0
M  V30 621 N 62.0802 -0.821533 -1.34494 0
M  V30 622 C 63.3272 -0.408946 -1.98328 0
M  V30 623 C 63.6552 1.02764 -1.65136 0
M  V30 624 O 62.9102 1.73026 -0.914349 0
M  V30 625 C 63.2092 -0.556512 -3.53041 0
M  V30 626 C 62.8752 -1.95861 -4.0614 0
M  V30 627 C 61.5372 -2.34217 -4.20352 0
M  V30 628 C 63.8892 -2.87523 -4.34718 0
M  V30 629 C 61.2172 -3.63572 -4.6047 0
M  V30 630 C 63.5692 -4.1634 -4.76281 0
M  V30 631 C 62.2332 -4.54675 -4.88699 0
M  V30 632 H 61.5032 -0.149644 -0.725732 0
M  V30 633 H 64.1502 -1.04521 -1.6046 0
M  V30 634 H 62.4552 0.163148 -3.9146 0
M  V30 635 H 64.1522 -0.217826 -4.00408 0
M  V30 636 H 60.7422 -1.65066 -3.95539 0
M  V30 637 H 64.9262 -2.59133 -4.23277 0
M  V30 638 H 60.1822 -3.93101 -4.68275 0
M  V30 639 H 64.3562 -4.87455 -4.97354 0
M  V30 640 H 61.9832 -5.54959 -5.19542 0
M  V30 641 N 63.5583 1.46682 -0.576371 0
M  V30 642 C 64.7863 2.06798 -0.0649635 0
M  V30 643 C 65.2013 1.42612 1.23723 0
M  V30 644 O 64.5583 0.529203 1.74659 0
M  V30 645 C 64.6093 3.6132 0.114202 0
M  V30 646 O 64.3303 4.23104 -1.13644 0
M  V30 647 C 65.8313 4.38349 0.66069 0
M  V30 648 H 63.0513 0.668778 -0.0545616 0
M  V30 649 H 65.5953 1.88404 -0.795237 0
M  V30 650 H 63.7503 3.79162 0.794673 0
M  V30 651 H 64.1643 5.15894 -0.946253 0
M  V30 652 H 65.6383 5.47081 0.73526 0
M  V30 653 H 66.1153 4.05953 1.67627 0
M  V30 654 H 66.7213 4.25297 0.0152951 0
M  V30 655 N 65.0364 0.313813 1.54444 0
M  V30 656 C 65.9684 -0.590425 2.21465 0
M  V30 657 C 66.9814 -1.08753 1.21147 0
M  V30 658 O 68.1704 -1.00278 1.4767 0
M  V30 659 C 65.2704 -1.82179 2.85769 0
M  V30 660 C 64.4434 -1.46502 4.12136 0
M  V30 661 C 63.5024 -2.55288 4.60124 0
M  V30 662 O 62.5284 -2.19842 5.25032 0
M  V30 663 N 63.7304 -3.86053 4.33525 0
M  V30 664 H 66.4954 -0.0166033 2.99695 0
M  V30 665 H 64.0564 0.136578 1.61323 0
M  V30 666 H 66.0484 -2.54328 3.14801 0
M  V30 667 H 64.6184 -2.30369 2.11303 0
M  V30 668 H 63.8384 -0.575595 3.89975 0
M  V30 669 H 65.1264 -1.20221 4.94393 0
M  V30 670 H 64.5244 -4.17654 3.81552 0
M  V30 671 H 63.0814 -4.54461 4.67235 0
M  V30 672 N 66.5145 -1.57545 0.0417849 0
M  V30 673 C 67.7605 -1.92601 -0.635021 0
M  V30 674 C 68.0935 -0.919627 -1.71045 0
M  V30 675 O 67.3685 0.0557892 -1.9442 0
M  V30 676 C 67.6515 -3.38085 -1.23979 0
M  V30 677 C 67.5045 -4.49467 -0.173057 0
M  V30 678 C 68.8235 -3.83776 -2.15416 0
M  V30 679 H 65.9425 -0.700397 -0.229374 0
M  V30 680 H 68.5845 -1.89728 0.101633 0
M  V30 681 H 66.7345 -3.40664 -1.86762 0
M  V30 682 H 68.4065 -4.59018 0.458312 0
M  V30 683 H 66.6495 -4.30909 0.499996 0
M  V30 684 H 67.3205 -5.48323 -0.636054 0
M  V30 685 H 69.7965 -3.83013 -1.62605 0
M  V30 686 H 68.6725 -4.8624 -2.54679 0
M  V30 687 H 68.9335 -3.19998 -3.05047 0
M  V30 688 N 67.9926 0.231505 -1.5589 0
M  V30 689 C 69.4086 0.580748 -1.48659 0
M  V30 690 C 69.6086 1.87617 -0.73498 0
M  V30 691 O 68.6646 2.51046 -0.270586 0
M  V30 692 C 69.9776 0.669202 -2.93159 0
M  V30 693 C 71.5256 0.760499 -3.03621 0
M  V30 694 C 72.0006 0.880383 -4.49459 0
M  V30 695 N 73.4916 0.944861 -4.53461 0
M  V30 696 C 74.2266 1.05716 -5.63571 0
M  V30 697 N 73.7226 1.13403 -6.83456 0
M  V30 698 N 75.5156 1.09152 -5.514 0
M  V30 699 H 67.6666 -0.618695 -2.03189 0
M  V30 700 H 69.9296 -0.215728 -0.923128 0
M  V30 701 H 69.6356 -0.212904 -3.51055 0
M  V30 702 H 69.5096 1.5361 -3.44505 0
M  V30 703 H 71.8966 1.63305 -2.45796 0
M  V30 704 H 71.9776 -0.131864 -2.5546 0
M  V30 705 H 71.6216 0.0123284 -5.07899 0
M  V30 706 H 71.5516 1.78802 -4.95316 0
M  V30 707 H 74.0426 0.896176 -3.6712 0
M  V30 708 H 74.3556 1.21921 -7.63122 0
M  V30 709 H 72.7006 1.10333 -6.86186 0
M  V30 710 H 75.8916 1.02805 -4.56671 0
M  V30 711 H 76.0646 1.17558 -6.37247 0
M  V30 712 N 69.4707 1.49531 0.497807 0
M  V30 713 C 70.4027 1.62559 1.61578 0
M  V30 714 C 71.4157 0.508134 1.54667 0
M  V30 715 O 72.6047 0.780309 1.60541 0
M  V30 716 C 69.7047 1.56925 3.00379 0
M  V30 717 C 68.8777 2.84257 3.3244 0
M  V30 718 C 67.9367 2.71632 4.50669 0
M  V30 719 O 66.9627 3.4557 4.52294 0
M  V30 720 N 68.1647 1.83391 5.5077 0
M  V30 721 H 70.9297 2.58981 1.50828 0
M  V30 722 H 68.4907 1.4666 0.685743 0
M  V30 723 H 70.4827 1.46129 3.77397 0
M  V30 724 H 69.0527 0.683483 3.05037 0
M  V30 725 H 68.2727 3.09381 2.44289 0
M  V30 726 H 69.5607 3.68666 3.5066 0
M  V30 727 H 68.9587 1.22583 5.52259 0
M  V30 728 H 67.5157 1.78515 6.26878 0
M  V30 729 N 70.9488 -0.749086 1.3866 0
M  V30 730 C 71.8958 -1.86291 1.36251 0
M  V30 731 C 72.8658 -1.64578 0.224347 0
M  V30 732 O 74.0508 -1.86181 0.417279 0
M  V30 733 C 71.1908 -3.23644 1.19786 0
M  V30 734 C 70.3038 -3.57158 2.43027 0
M  V30 735 C 69.4388 -4.83838 2.19258 0
M  V30 736 C 68.4778 -5.10152 3.38247 0
M  V30 737 N 67.6148 -6.28029 3.13884 0
M  V30 738 H 72.4548 -1.87685 2.3147 0
M  V30 739 H 69.9918 -0.917287 1.14997 0
M  V30 740 H 71.9498 -4.0291 1.08254 0
M  V30 741 H 70.5798 -3.21566 0.282031 0
M  V30 742 H 69.6318 -2.72701 2.65214 0
M  V30 743 H 70.9438 -3.7253 3.31697 0
M  V30 744 H 70.0978 -5.71057 2.04888 0
M  V30 745 H 68.8368 -4.70614 1.2796 0
M  V30 746 H 67.8418 -4.21401 3.53131 0
M  V30 747 H 69.0668 -5.25271 4.30427 0
M  V30 748 H 67.0128 -6.1612 2.25238 0
M  V30 749 H 66.9298 -6.43922 3.96106 0
M  V30 750 H 68.1978 -7.18124 3.03179 0
M  V30 751 N 72.4269 -1.23603 -0.977757 0
M  V30 752 C 73.6749 -1.06759 -1.71601 0
M  V30 753 C 73.9959 0.395929 -1.90938 0
M  V30 754 O 73.2659 1.28356 -1.47992 0
M  V30 755 H 71.8459 -0.392062 -0.635843 0
M  V30 756 H 74.5079 -1.55362 -1.1768 0
M  V30 757 H 73.6039 -1.55763 -2.70452 0
M  V30 758 N 73.905 1.17692 -1.04816 0
M  V30 759 C 74.815 2.25229 -0.65643 0
M  V30 760 C 75.831 1.71018 0.320761 0
M  V30 761 O 77.007 2.00649 0.173805 0
M  V30 762 C 74.072 3.46684 -0.0332629 0
M  V30 763 C 73.133 4.15997 -1.06042 0
M  V30 764 C 72.366 5.31654 -0.466893 0
M  V30 765 O 72.589 5.65777 0.724758 0
M  V30 766 O 71.523 5.89831 -1.1993 0
M  V30 767 H 75.349 2.61016 -1.55255 0
M  V30 768 H 72.934 1.24919 -0.81949 0
M  V30 769 H 74.816 4.20234 0.313256 0
M  V30 770 H 73.491 3.12703 0.836566 0
M  V30 771 H 72.398 3.44482 -1.45886 0
M  V30 772 H 73.731 4.53996 -1.90127 0
M  V30 773 N 75.3831 0.828654 1.34056 0
M  V30 774 C 76.6081 0.431637 2.02859 0
M  V30 775 C 77.0331 -0.956339 1.61975 0
M  V30 776 O 76.3911 -1.62338 0.807228 0
M  V30 777 C 76.4391 0.548323 3.56407 0
M  V30 778 O 75.5431 -0.429556 4.10157 0
M  V30 779 H 74.8841 0.176886 0.640006 0
M  V30 780 H 77.4141 1.12066 1.71179 0
M  V30 781 H 77.4241 0.426196 4.05768 0
M  V30 782 H 76.0991 1.5606 3.8551 0
M  V30 783 H 74.6761 -0.265836 3.71951 0
M  V30 784 N 76.8612 -1.46375 0.584142 0
M  V30 785 C 78.1102 -2.01585 0.0679741 0
M  V30 786 C 78.4232 -1.46109 -1.30045 0
M  V30 787 O 79.6292 -1.93148 -1.90804 0
M  V30 788 C 78.0852 -3.5983 0.0709207 0
M  V30 789 C 77.6932 -4.24303 1.43775 0
M  V30 790 C 79.4372 -4.22693 -0.391228 0
M  V30 791 C 77.3442 -5.74631 1.39834 0
M  V30 792 H 76.2742 -0.753689 0.0216421 0
M  V30 793 H 78.9252 -1.68093 0.736001 0
M  V30 794 H 77.3072 -3.90405 -0.663299 0
M  V30 795 H 78.4812 -4.05335 2.19181 0
M  V30 796 H 76.7962 -3.73539 1.84004 0
M  V30 797 H 79.3932 -5.3289 -0.439524 0
M  V30 798 H 79.7362 -3.91728 -1.40906 0
M  V30 799 H 80.2692 -3.96749 0.288974 0
M  V30 800 H 77.0082 -6.10258 2.39303 0
M  V30 801 H 76.5282 -5.95858 0.686505 0
M  V30 802 H 78.2072 -6.37375 1.11187 0
M  V30 803 N 78.3393 -0.321999 -1.54275 0
M  V30 804 C 79.5643 0.285791 -2.05422 0
M  V30 805 C 79.9893 1.45124 -1.19669 0
M  V30 806 O 79.3473 1.80132 -0.205441 0
M  V30 807 C 79.3953 0.69956 -3.53749 0
M  V30 808 O 78.4993 1.8021 -3.70942 0
M  V30 809 H 77.8403 0.0518962 -0.661969 0
M  V30 810 H 80.3703 -0.469954 -1.9913 0
M  V30 811 H 80.3803 0.982649 -3.9599 0
M  V30 812 H 79.0553 -0.152864 -4.15619 0
M  V30 813 H 77.6323 1.51794 -3.40607 0
M  V30 814 N 79.8174 1.5752 -0.0501392 0
M  V30 815 C 81.0634 1.92936 0.624798 0
M  V30 816 C 81.3964 0.928685 1.70555 0
M  V30 817 O 80.6714 -0.0454779 1.94447 0
M  V30 818 C 80.9544 3.38737 1.22185 0
M  V30 819 C 80.8074 4.49552 0.149218 0
M  V30 820 C 82.1264 3.84913 2.13378 0
M  V30 821 H 79.2454 0.701604 0.225657 0
M  V30 822 H 81.8874 1.89671 -0.111693 0
M  V30 823 H 80.0374 3.4165 1.84953 0
M  V30 824 H 81.7094 4.58768 -0.482648 0
M  V30 825 H 79.9524 4.30638 -0.522841 0
M  V30 826 H 80.6234 5.48653 0.606966 0
M  V30 827 H 83.0994 3.8387 1.60572 0
M  V30 828 H 81.9754 4.87584 2.52097 0
M  V30 829 H 82.2364 3.21611 3.03346 0
M  V30 830 N 81.2955 -0.223234 1.56011 0
M  V30 831 C 82.2255 -1.27988 1.95298 0
M  V30 832 C 83.2065 -1.48976 0.820979 0
M  V30 833 O 84.3915 -1.61188 1.08315 0
M  V30 834 C 81.5215 -2.63 2.26822 0
M  V30 835 C 80.4755 -2.56671 3.42497 0
M  V30 836 C 79.8015 -3.95697 3.59622 0
M  V30 837 C 81.1015 -2.11601 4.77517 0
M  V30 838 H 82.7955 -0.953525 2.8381 0
M  V30 839 H 80.3415 -0.457244 1.36548 0
M  V30 840 H 82.2945 -3.37077 2.52898 0
M  V30 841 H 81.0185 -2.9732 1.35161 0
M  V30 842 H 79.6775 -1.85051 3.16467 0
M  V30 843 H 79.3255 -4.27322 2.6534 0
M  V30 844 H 79.0255 -3.92345 4.37424 0
M  V30 845 H 80.5495 -4.71438 3.88044 0
M  V30 846 H 81.9635 -2.7542 5.02809 0
M  V30 847 H 80.3605 -2.19311 5.5859 0
M  V30 848 H 81.4305 -1.06824 4.72987 0
M  V30 849 N 82.7736 -1.49793 -0.48987 0
M  V30 850 C 83.7036 -1.70201 -1.59856 0
M  V30 851 C 84.6846 -0.55076 -1.60937 0
M  V30 852 O 85.8696 -0.787841 -1.77501 0
M  V30 853 C 82.9996 -1.77882 -2.98287 0
M  V30 854 C 81.9536 -2.92907 -3.12073 0
M  V30 855 C 81.2796 -2.85712 -4.51965 0
M  V30 856 C 82.5796 -4.3369 -2.91051 0
M  V30 857 H 84.2736 -2.63025 -1.43032 0
M  V30 858 H 81.8196 -1.26574 -0.686664 0
M  V30 859 H 83.7726 -1.90744 -3.75759 0
M  V30 860 H 82.4966 -0.816653 -3.16225 0
M  V30 861 H 81.1556 -2.79665 -2.37029 0
M  V30 862 H 80.8036 -1.8738 -4.66795 0
M  V30 863 H 80.5036 -3.62921 -4.62128 0
M  V30 864 H 82.0276 -3.00598 -5.31482 0
M  V30 865 H 83.4416 -4.47555 -3.58284 0
M  V30 866 H 81.8386 -5.12205 -3.12675 0
M  V30 867 H 82.9086 -4.47362 -1.87071 0
M  V30 868 N 84.2517 0.741722 -1.39055 0
M  V30 869 C 85.4977 1.50336 -1.36113 0
M  V30 870 C 85.8307 1.94148 0.0450796 0
M  V30 871 O 85.1057 1.66301 1.00868 0
M  V30 872 C 85.3887 2.74773 -2.32749 0
M  V30 873 C 85.2417 2.37023 -3.82283 0
M  V30 874 C 86.5607 3.76846 -2.27322 0
M  V30 875 H 83.6797 0.545351 -0.495743 0
M  V30 876 H 86.3217 0.848624 -1.69995 0
M  V30 877 H 84.4717 3.30639 -2.03986 0
M  V30 878 H 86.1437 1.8684 -4.21768 0
M  V30 879 H 84.3867 1.69334 -3.99385 0
M  V30 880 H 85.0577 3.26104 -4.45376 0
M  V30 881 H 87.5337 3.30548 -2.5274 0
M  V30 882 H 86.4097 4.6159 -2.97028 0
M  V30 883 H 86.6707 4.23286 -1.27599 0
M  V30 884 N 85.7298 1.2412 0.971189 0
M  V30 885 C 86.6598 1.05508 2.08304 0
M  V30 886 C 87.6408 -0.0308864 1.70072 0
M  V30 887 O 88.8258 0.135521 1.93727 0
M  V30 888 C 85.9558 0.655365 3.4106 0
M  V30 889 C 84.9098 1.68971 3.93234 0
M  V30 890 C 84.2358 1.14516 5.22293 0
M  V30 891 C 85.5358 3.08487 4.21465 0
M  V30 892 H 87.2298 1.98507 2.24132 0
M  V30 893 H 84.7758 0.955821 1.07704 0
M  V30 894 H 86.7288 0.51217 4.18276 0
M  V30 895 H 85.4528 -0.31032 3.25122 0
M  V30 896 H 84.1118 1.82106 3.18171 0
M  V30 897 H 83.7598 0.170189 5.02712 0
M  V30 898 H 83.4598 1.83635 5.58168 0
M  V30 899 H 84.9838 1.01401 6.02121 0
M  V30 900 H 86.3978 2.98601 4.89398 0
M  V30 901 H 84.7948 3.74926 4.68562 0
M  V30 902 H 85.8648 3.56787 3.28376 0
M  V30 903 N 87.2079 -1.17134 1.05439 0
M  V30 904 C 88.1179 -2.24878 0.668365 0
M  V30 905 C 89.1339 -1.71186 -0.311687 0
M  V30 906 O 90.3099 -2.00738 -0.163161 0
M  V30 907 C 87.3749 -3.46662 0.051648 0
M  V30 908 C 86.4359 -4.15429 1.08246 0
M  V30 909 C 85.6689 -5.31399 0.495082 0
M  V30 910 O 85.8919 -5.66153 -0.694743 0
M  V30 911 O 84.8259 -5.89187 1.23056 0
M  V30 912 H 88.6519 -2.60189 1.56637 0
M  V30 913 H 86.2369 -1.24482 0.826104 0
M  V30 914 H 88.1189 -4.20394 -0.290966 0
M  V30 915 H 86.7939 -3.13142 -0.819971 0
M  V30 916 H 85.7009 -3.43704 1.47711 0
M  V30 917 H 87.0339 -4.52982 1.92532 0
M  V30 918 N 88.686 -0.835752 -1.33615 0
M  V30 919 C 89.963 -0.352017 -1.92406 0
M  V30 920 C 90.343 1.16225 -1.76224 0
M  V30 921 O 89.691 1.97526 -1.14873 0
M  V30 922 C 89.901 -0.795485 -3.39813 0
M  V30 923 C 91.249 -0.801703 -4.16963 0
M  V30 924 O 92.273 -0.738889 -3.48452 0
M  V30 925 O 91.132 -0.886607 -5.3926 0
M  V30 926 H 88.226 -0.0989641 -0.821057 0
M  V30 927 H 90.772 -0.921397 -1.42507 0
M  V30 928 H 89.544 -1.83795 -3.45449 0
M  V30 929 H 89.167 -0.202505 -3.97084 0
M  V30 930 N 90.1641 1.46063 -0.591896 0
M  V30 931 C 91.4121 2.01938 -0.0808391 0
M  V30 932 C 91.7331 1.46475 1.28725 0
M  V30 933 O 91.0031 0.652944 1.84698 0
M  V30 934 H 89.5831 0.746516 -0.0268938 0
M  V30 935 H 92.2451 1.79055 -0.769752 0
M  V30 936 H 91.3411 3.12094 -0.0187578 0
M  V30 937 N 91.6422 0.330177 1.54103 0
M  V30 938 C 92.5742 -0.566902 2.22079 0
M  V30 939 C 93.5872 -1.07462 1.22294 0
M  V30 940 O 94.7762 -0.987065 1.48726 0
M  V30 941 C 91.8762 -1.79138 2.87685 0
M  V30 942 C 91.0492 -1.42123 4.13666 0
M  V30 943 C 90.1082 -2.50394 4.62806 0
M  V30 944 O 89.1342 -2.14261 5.27334 0
M  V30 945 N 90.3362 -3.81433 4.37595 0
M  V30 946 H 93.1012 0.0151844 2.99696 0
M  V30 947 H 90.6622 0.153681 1.61169 0
M  V30 948 H 92.6542 -2.50975 3.1748 0
M  V30 949 H 91.2242 -2.28115 2.13734 0
M  V30 950 H 90.4442 -0.534201 3.90564 0
M  V30 951 H 91.7322 -1.14971 4.9564 0
M  V30 952 H 91.1302 -4.13584 3.8596 0
M  V30 953 H 89.6872 -4.4948 4.72029 0
M  V30 954 N 93.1203 -1.57491 0.0584922 0
M  V30 955 C 94.3663 -1.93264 -0.614558 0
M  V30 956 C 94.6993 -0.937717 -1.7006 0
M  V30 957 O 93.9743 0.0351652 -1.94468 0
M  V30 958 C 94.2573 -3.3938 -1.20386 0
M  V30 959 C 94.1103 -4.49625 -0.125375 0
M  V30 960 C 95.4293 -3.86039 -2.11334 0
M  V30 961 H 92.5483 -0.702791 -0.221933 0
M  V30 962 H 95.1903 -1.8961 0.12175 0
M  V30 963 H 93.3403 -3.42626 -1.83139 0
M  V30 964 H 95.0123 -4.58506 0.506971 0
M  V30 965 H 93.2553 -4.30354 0.545672 0
M  V30 966 H 93.9263 -5.48967 -0.577861 0
M  V30 967 H 96.4023 -3.84716 -1.58534 0
M  V30 968 H 95.2783 -4.88914 -2.49507 0
M  V30 969 H 95.5393 -3.23215 -3.01636 0
M  V30 970 N 94.5984 0.214957 -1.56127 0
M  V30 971 C 95.5614 1.24997 -1.92116 0
M  V30 972 C 96.5614 1.39467 -0.800344 0
M  V30 973 O 97.7514 1.37619 -1.06802 0
M  V30 974 C 94.8834 2.62271 -2.17777 0
M  V30 975 H 96.0764 0.942875 -2.84693 0
M  V30 976 H 93.6294 0.455654 -1.49511 0
M  V30 977 H 94.3644 2.98068 -1.27773 0
M  V30 978 H 94.1494 2.53143 -2.99434 0
M  V30 979 H 95.6394 3.36946 -2.46693 0
M  V30 980 N 96.0765 1.50051 0.48192 0
M  V30 981 C 97.0265 1.64512 1.5786 0
M  V30 982 C 98.0105 0.500073 1.52932 0
M  V30 983 O 99.2025 0.753964 1.60139 0
M  V30 984 C 96.3315 1.73263 2.9637 0
M  V30 985 C 95.4175 2.93409 3.06222 0
M  V30 986 N 95.8085 4.17236 2.85915 0
M  V30 987 C 94.1065 2.91742 3.37346 0
M  V30 988 C 94.8075 4.981 3.00451 0
M  V30 989 N 93.7835 4.3184 3.30174 0
M  V30 990 H 97.5855 2.57955 1.40842 0
M  V30 991 H 95.0995 1.47086 0.688439 0
M  V30 992 H 97.0965 1.81724 3.75209 0
M  V30 993 H 95.7565 0.809711 3.14442 0
M  V30 994 H 96.7675 4.46909 2.6171 0
M  V30 995 H 93.4445 2.08907 3.61475 0
M  V30 996 H 94.8345 6.06532 2.89082 0
M  V30 997 N 97.5546 -0.734337 1.39446 0
M  V30 998 C 98.8026 -1.49096 1.36436 0
M  V30 999 C 99.1236 -1.94961 -0.0388255 0
M  V30 1000 O 98.3936 -1.69033 -0.990191 0
M  V30 1001 H 96.9736 -0.5531 0.502085 0
M  V30 1002 H 99.6356 -0.871725 1.74319 0
M  V30 1003 H 98.7316 -2.37276 2.02747 0
M  V30 1004 N 99.0327 -1.24633 -0.964593 0
M  V30 1005 C 100.31 -0.995809 -1.68354 0
M  V30 1006 C 100.69 0.480964 -2.05548 0
M  V30 1007 O 100.038 1.45599 -1.76105 0
M  V30 1008 C 100.248 -1.92177 -2.91323 0
M  V30 1009 C 101.596 -2.19446 -3.63495 0
M  V30 1010 O 102.62 -1.89855 -3.01386 0
M  V30 1011 O 101.479 -2.69714 -4.75307 0
M  V30 1012 H 98.5727 -0.376854 -0.736146 0
M  V30 1013 H 101.119 -1.35745 -1.0184 0
M  V30 1014 H 99.8907 -2.91938 -2.60553 0
M  V30 1015 H 99.5137 -1.56349 -3.65569 0
M  V30 1016 N 100.511 1.16574 -1.06058 0
M  V30 1017 C 101.751 1.88723 -0.78504 0
M  V30 1018 C 102.115 1.79706 0.676006 0
M  V30 1019 O 103.316 2.46757 1.06603 0
M  V30 1020 C 101.587 3.34338 -1.26304 0
M  V30 1021 S 103.146 4.24366 -1.1162 0
M  V30 1022 H 99.9638 0.651448 -0.284846 0
M  V30 1023 H 102.566 1.40732 -1.35701 0
M  V30 1024 H 101.27 3.38439 -2.32136 0
M  V30 1025 H 100.801 3.87378 -0.685719 0
M  V30 1026 H 102.816 4.96179 -0.0456539 0
M  V30 1027 N 101.989 0.842826 1.3317 0
M  V30 1028 C 102.952 0.284065 2.27433 0
M  V30 1029 C 103.952 -0.54948 1.5112 0
M  V30 1030 O 105.142 -0.362699 1.70382 0
M  V30 1031 C 102.274 -0.599384 3.35589 0
M  V30 1032 H 103.467 1.11589 2.78366 0
M  V30 1033 H 101.02 0.616221 1.4364 0
M  V30 1034 H 101.755 -1.45349 2.89904 0
M  V30 1035 H 101.54 -0.00291266 3.921 0
M  V30 1036 H 103.03 -0.983488 4.05854 0
M  V30 1037 N 103.467 -1.45747 0.599634 0
M  V30 1038 C 104.43 -2.28917 -0.113835 0
M  V30 1039 C 105.43 -1.3933 -0.802729 0
M  V30 1040 O 106.62 -1.61534 -0.652103 0
M  V30 1041 C 103.752 -3.20152 -1.17114 0
M  V30 1042 H 104.945 -2.93478 0.617289 0
M  V30 1043 H 102.498 -1.52137 0.358327 0
M  V30 1044 H 103.233 -2.60374 -1.93329 0
M  V30 1045 H 103.018 -3.86133 -0.681468 0
M  V30 1046 H 104.508 -3.82708 -1.67105 0
M  V30 1047 N 104.945 -0.338344 -1.53925 0
M  V30 1048 C 106.191 0.260143 -2.01125 0
M  V30 1049 C 106.524 1.50617 -1.22589 0
M  V30 1050 O 105.799 1.91979 -0.312113 0
M  V30 1051 C 106.082 0.579499 -3.55407 0
M  V30 1052 C 105.935 -0.678264 -4.44657 0
M  V30 1053 C 107.254 1.39122 -4.17532 0
M  V30 1054 H 104.373 0.0930772 -0.731099 0
M  V30 1055 H 107.015 -0.457852 -1.84401 0
M  V30 1056 H 105.165 1.19118 -3.69788 0
M  V30 1057 H 106.837 -1.31631 -4.42121 0
M  V30 1058 H 105.08 -1.3042 -4.13731 0
M  V30 1059 H 105.751 -0.410143 -5.50474 0
M  V30 1060 H 108.227 0.874035 -4.06817 0
M  V30 1061 H 107.103 1.58342 -5.25565 0
M  V30 1062 H 107.364 2.39178 -3.71815 0
M  V30 1063 N 106.423 1.57458 -0.0668435 0
M  V30 1064 C 107.355 2.09413 0.931601 0
M  V30 1065 C 108.368 1.02522 1.26464 0
M  V30 1066 O 109.557 1.30049 1.22269 0
M  V30 1067 C 106.657 2.53537 2.24882 0
M  V30 1068 C 105.83 3.83944 2.09537 0
M  V30 1069 C 104.889 4.14214 3.2452 0
M  V30 1070 O 103.915 4.83891 2.9973 0
M  V30 1071 N 105.117 3.67367 4.49469 0
M  V30 1072 H 107.882 2.95699 0.488048 0
M  V30 1073 H 105.443 1.61462 0.119009 0
M  V30 1074 H 107.435 2.70853 3.00701 0
M  V30 1075 H 106.005 1.72415 2.60753 0
M  V30 1076 H 105.225 3.76057 1.18215 0
M  V30 1077 H 106.513 4.69312 1.96529 0
M  V30 1078 H 105.911 3.11068 4.72497 0
M  V30 1079 H 104.468 3.89891 5.2233 0
M  V30 1080 N 107.901 -0.206675 1.56239 0
M  V30 1081 C 109.131 -0.943975 1.83773 0
M  V30 1082 C 109.539 -1.77841 0.645703 0
M  V30 1083 O 108.882 -1.79403 -0.395008 0
M  V30 1084 C 108.944 -1.899 3.05251 0
M  V30 1085 C 108.608 -1.24764 4.39639 0
M  V30 1086 C 109.605 -0.630216 5.16066 0
M  V30 1087 C 107.29 -1.25496 4.8637 0
M  V30 1088 C 109.284 -0.0287946 6.37393 0
M  V30 1089 C 106.971 -0.649698 6.07637 0
M  V30 1090 C 107.969 -0.0376845 6.8299 0
M  V30 1091 O 107.657 0.55812 8.0196 0
M  V30 1092 H 107.389 -0.281508 0.614597 0
M  V30 1093 H 109.943 -0.222458 2.04192 0
M  V30 1094 H 108.173 -2.6599 2.80689 0
M  V30 1095 H 109.862 -2.5031 3.1953 0
M  V30 1096 H 110.628 -0.616785 4.81062 0
M  V30 1097 H 106.507 -1.72072 4.27683 0
M  V30 1098 H 110.051 0.449518 6.9615 0
M  V30 1099 H 105.948 -0.660592 6.42111 0
M  V30 1100 H 106.716 0.453891 8.17241 0
M  V30 1101 N 109.379 -1.50304 -0.473955 0
M  V30 1102 C 110.604 -1.65175 -1.25427 0
M  V30 1103 C 111.029 -0.333673 -1.85117 0
M  V30 1104 O 110.387 0.702114 -1.67153 0
M  V30 1105 C 110.435 -2.74295 -2.34082 0
M  V30 1106 O 109.539 -2.35349 -3.38651 0
M  V30 1107 H 108.88 -0.551944 -0.369126 0
M  V30 1108 H 111.41 -1.96662 -0.564364 0
M  V30 1109 H 111.42 -2.97285 -2.79438 0
M  V30 1110 H 110.095 -3.69959 -1.90008 0
M  V30 1111 H 108.672 -2.22794 -2.99027 0
M  V30 1112 N 110.857 0.726932 -1.39834 0
M  V30 1113 C 112.105 1.4837 -1.37225 0
M  V30 1114 C 112.426 1.94979 0.0284857 0
M  V30 1115 O 111.696 1.69555 0.981213 0
M  V30 1116 H 110.276 0.55043 -0.505011 0
M  V30 1117 H 112.938 0.862468 -1.74778 0
M  V30 1118 H 112.034 2.36198 -2.04003 0
M  V30 1119 N 112.336 1.25143 0.95797 0
M  V30 1120 C 113.299 1.05321 2.03569 0
M  V30 1121 C 114.299 0.007152 1.60798 0
M  V30 1122 O 115.489 0.24903 1.72411 0
M  V30 1123 C 112.621 0.598394 3.35607 0
M  V30 1124 H 113.814 2.00986 2.22586 0
M  V30 1125 H 111.367 1.07502 1.13459 0
M  V30 1126 H 112.102 -0.361014 3.22284 0
M  V30 1127 H 111.887 1.35351 3.67998 0
M  V30 1128 H 113.377 0.48104 4.1482 0
M  V30 1129 N 113.814 -1.1601 1.06675 0
M  V30 1130 C 115.062 -1.86264 0.784229 0
M  V30 1131 C 115.383 -1.82328 -0.691488 0
M  V30 1132 O 114.653 -1.25947 -1.50047 0
M  V30 1133 H 113.233 -0.689621 0.28711 0
M  V30 1134 H 115.895 -1.40664 1.34906 0
M  V30 1135 H 114.991 -2.91595 1.11259 0
M  V30 1136 N 115.292 -0.849877 -1.32721 0
M  V30 1137 C 116.54 -0.450032 -1.97026 0
M  V30 1138 C 116.861 0.996604 -1.67609 0
M  V30 1139 O 116.131 1.6958 -0.980786 0
M  V30 1140 H 114.711 -0.163426 -0.728904 0
M  V30 1141 H 117.373 -1.08526 -1.6189 0
M  V30 1142 H 116.469 -0.591146 -3.0645 0
M  V30 1143 N 116.77 1.45427 -0.607355 0
M  V30 1144 C 118.186 1.57283 -0.270985 0
M  V30 1145 C 118.386 1.59875 1.22647 0
M  V30 1146 O 117.442 1.52893 2.00948 0
M  V30 1147 C 118.755 2.85566 -0.941952 0
M  V30 1148 C 120.303 2.9924 -0.917849 0
M  V30 1149 C 120.778 4.30293 -1.56882 0
M  V30 1150 N 122.269 4.37051 -1.5343 0
M  V30 1151 C 123.004 5.37123 -2.00715 0
M  V30 1152 N 122.5 6.43734 -2.56084 0
M  V30 1153 N 124.293 5.28479 -1.91484 0
M  V30 1154 H 116.444 1.41988 -1.57966 0
M  V30 1155 H 118.707 0.67885 -0.661715 0
M  V30 1156 H 118.413 2.8955 -1.99633 0
M  V30 1157 H 118.287 3.74322 -0.465096 0
M  V30 1158 H 120.674 2.94822 0.127984 0
M  V30 1159 H 120.755 2.11895 -1.43297 0
M  V30 1160 H 120.399 4.35469 -2.61398 0
M  V30 1161 H 120.329 5.16454 -1.02873 0
M  V30 1162 H 122.82 3.60615 -1.12982 0
M  V30 1163 H 123.133 7.16341 -2.89958 0
M  V30 1164 H 121.478 6.44485 -2.60122 0
M  V30 1165 H 124.669 4.44098 -1.47967 0
M  V30 1166 H 124.842 6.0632 -2.28648 0
M  V30 1167 N 118.248 0.346503 1.53744 0
M  V30 1168 C 119.525 -0.304532 1.93215 0
M  V30 1169 C 119.905 -1.67993 1.27834 0
M  V30 1170 O 119.253 -2.24411 0.430352 0
M  V30 1171 C 119.463 -0.373852 3.46992 0
M  V30 1172 C 120.811 -0.62329 4.2 0
M  V30 1173 O 121.835 -0.455847 3.53271 0
M  V30 1174 O 120.694 -0.947879 5.38217 0
M  V30 1175 H 117.788 -0.178318 0.807547 0
M  V30 1176 H 120.334 0.397895 1.64969 0
M  V30 1177 H 119.106 0.591224 3.86808 0
M  V30 1178 H 118.729 -1.12294 3.81413 0
M  V30 1179 N 119.726 -1.57421 0.075193 0
M  V30 1180 C 121.137 -1.81021 -0.456964 0
M  V30 1181 C 121.488 -0.98936 -1.69429 0
M  V30 1182 O 120.613 -0.212865 -2.15351 0
M  V30 1183 C 121.208 -3.28329 -0.83581 0
M  V30 1184 C 119.767 -3.52764 -1.31281 0
M  V30 1185 C 118.914 -2.75676 -0.299648 0
M  V30 1186 H 121.865 -1.55822 0.300856 0
M  V30 1187 H 121.886 -3.40564 -1.69696 0
M  V30 1188 H 121.398 -3.88046 0.0649238 0
M  V30 1189 H 119.499 -2.98355 -2.23193 0
M  V30 1190 H 119.612 -4.61451 -1.28839 0
M  V30 1191 H 117.976 -2.42538 -0.777641 0
M  V30 1192 H 118.759 -3.38132 0.593417 0
M  V30 1193 N 121.204 0.198386 -1.56346 0
M  V30 1194 C 122.134 1.24865 -1.9731 0
M  V30 1195 C 123.115 1.47651 -0.844576 0
M  V30 1196 O 124.3 1.59444 -1.10866 0
M  V30 1197 C 121.43 2.59358 -2.30977 0
M  V30 1198 C 120.384 2.5119 -3.46537 0
M  V30 1199 C 119.71 3.89926 -3.65871 0
M  V30 1200 C 121.01 2.03977 -4.80823 0
M  V30 1201 H 122.704 0.908252 -2.85291 0
M  V30 1202 H 120.25 0.435462 -1.37258 0
M  V30 1203 H 122.203 3.33011 -2.58228 0
M  V30 1204 H 120.927 2.95132 -1.39874 0
M  V30 1205 H 119.586 1.79993 -3.19371 0
M  V30 1206 H 119.234 4.23046 -2.72105 0
M  V30 1207 H 118.934 3.85336 -4.4361 0
M  V30 1208 H 120.458 4.65205 -3.95495 0
M  V30 1209 H 121.872 2.67386 -5.07127 0
M  V30 1210 H 120.269 2.10397 -5.62008 0
M  V30 1211 H 121.339 0.992861 -4.74626 0
M  V30 1212 N 122.682 1.50554 0.465978 0
M  V30 1213 C 123.929 1.61798 1.21768 0
M  V30 1214 C 124.257 0.320696 1.91838 0
M  V30 1215 O 123.512 -0.693724 1.82992 0
M  V30 1216 C 123.811 2.75152 2.28093 0
M  V30 1217 C 123.477 4.15454 1.75239 0
M  V30 1218 C 122.139 4.53628 1.60546 0
M  V30 1219 C 124.491 5.03121 1.36083 0
M  V30 1220 C 121.819 5.77204 1.05128 0
M  V30 1221 C 124.171 6.27249 0.821056 0
M  V30 1222 C 122.835 6.64221 0.660795 0
M  V30 1223 H 122.105 0.592063 0.445582 0
M  V30 1224 H 124.752 1.84503 0.512927 0
M  V30 1225 H 123.057 2.46556 3.04496 0
M  V30 1226 H 124.754 2.81055 2.86023 0
M  V30 1227 H 121.344 3.85341 1.87644 0
M  V30 1228 H 125.528 4.74257 1.46267 0
M  V30 1229 H 120.784 6.0452 0.91462 0
M  V30 1230 H 124.958 6.94537 0.509018 0
M  V30 1231 H 122.585 7.59854 0.229226 0
M  V30 1232 N 124.16 -0.719506 1.40217 0
M  V30 1233 C 125.09 -1.8465 1.42922 0
M  V30 1234 C 126.071 -1.67599 0.29062 0
M  V30 1235 O 127.256 -1.87688 0.498677 0
M  V30 1236 C 124.386 -3.22565 1.28722 0
M  V30 1237 C 123.34 -3.54281 2.40144 0
M  V30 1238 C 122.666 -4.91298 2.11023 0
M  V30 1239 C 123.966 -3.55676 3.82481 0
M  V30 1240 H 125.66 -1.82644 2.37237 0
M  V30 1241 H 123.206 -0.877305 1.1419 0
M  V30 1242 H 125.159 -4.01095 1.29232 0
M  V30 1243 H 123.883 -3.25137 0.308811 0
M  V30 1244 H 122.542 -2.78088 2.38877 0
M  V30 1245 H 122.19 -4.90468 1.11582 0
M  V30 1246 H 121.89 -5.13485 2.8567 0
M  V30 1247 H 123.414 -5.72166 2.13209 0
M  V30 1248 H 124.828 -4.24254 3.85592 0
M  V30 1249 H 123.225 -3.89388 4.56614 0
M  V30 1250 H 124.295 -2.55144 4.12346 0
M  V30 1251 N 125.638 -1.25649 -0.95132 0
M  V30 1252 C 126.601 -1.06399 -2.03007 0
M  V30 1253 C 127.601 -0.0156794 -1.60792 0
M  V30 1254 O 128.791 -0.25817 -1.72276 0
M  V30 1255 C 125.923 -0.616184 -3.35285 0
M  V30 1256 H 127.116 -2.02164 -2.21517 0
M  V30 1257 H 124.669 -1.08103 -1.12887 0
M  V30 1258 H 125.404 0.343917 -3.22471 0
M  V30 1259 H 125.189 -1.37301 -3.67275 0
M  V30 1260 H 126.679 -0.503032 -4.14559 0
M  V30 1261 N 127.117 1.15442 -1.07289 0
M  V30 1262 C 128.064 2.20161 -0.692653 0
M  V30 1263 C 129.034 1.63073 0.31564 0
M  V30 1264 O 130.219 1.89725 0.202235 0
M  V30 1265 C 127.359 3.44967 -0.0959509 0
M  V30 1266 C 126.472 4.16256 -1.15564 0
M  V30 1267 C 125.607 5.28609 -0.524011 0
M  V30 1268 C 124.646 5.91715 -1.56653 0
M  V30 1269 N 123.783 6.9554 -0.957531 0
M  V30 1270 H 128.623 2.52037 -1.59002 0
M  V30 1271 H 126.16 1.2378 -0.794798 0
M  V30 1272 H 128.118 4.16341 0.267628 0
M  V30 1273 H 126.748 3.1361 0.764772 0
M  V30 1274 H 125.8 3.43385 -1.6368 0
M  V30 1275 H 127.112 4.59268 -1.94613 0
M  V30 1276 H 126.266 6.06604 -0.108032 0
M  V30 1277 H 125.005 4.86787 0.29825 0
M  V30 1278 H 124.01 5.12433 -1.9923 0
M  V30 1279 H 125.235 6.35614 -2.39107 0
M  V30 1280 H 123.181 6.55814 -0.156162 0
M  V30 1281 H 123.098 7.36977 -1.68526 0
M  V30 1282 H 124.366 7.77435 -0.567032 0
M  V30 1283 N 128.595 0.856903 1.32268 0
M  V30 1284 C 129.872 0.382583 1.91822 0
M  V30 1285 C 130.252 -1.13407 1.78051 0
M  V30 1286 O 129.6 -1.95673 1.18001 0
M  V30 1287 C 129.81 0.849446 3.38505 0
M  V30 1288 C 131.158 0.867936 4.15634 0
M  V30 1289 O 132.182 0.794232 3.47232 0
M  V30 1290 O 131.041 0.972286 5.37781 0
M  V30 1291 H 128.135 0.112014 0.819379 0
M  V30 1292 H 130.681 0.943952 1.41024 0
M  V30 1293 H 129.453 1.89267 3.42482 0
M  V30 1294 H 129.076 0.265652 3.96712 0
M  V30 1295 N 130.073 -1.45103 0.615059 0
M  V30 1296 C 131.32 -2.02183 0.113179 0
M  V30 1297 C 131.648 -1.48249 -1.25906 0
M  V30 1298 O 130.903 -0.650265 -1.84581 0
M  V30 1299 C 131.202 -3.57386 0.0318797 0
M  V30 1300 C 130.868 -4.30505 1.34077 0
M  V30 1301 C 129.53 -4.50197 1.69929 0
M  V30 1302 C 131.882 -4.72238 2.20546 0
M  V30 1303 C 129.21 -5.08881 2.91988 0
M  V30 1304 C 131.562 -5.32272 3.41861 0
M  V30 1305 C 130.226 -5.50187 3.77956 0
M  V30 1306 H 129.496 -0.739842 0.0414151 0
M  V30 1307 H 132.143 -1.74073 0.798168 0
M  V30 1308 H 130.448 -3.84817 -0.736409 0
M  V30 1309 H 132.145 -3.99264 -0.372712 0
M  V30 1310 H 128.735 -4.15496 1.05173 0
M  V30 1311 H 132.919 -4.56751 1.94146 0
M  V30 1312 H 128.175 -5.20939 3.2005 0
M  V30 1313 H 132.349 -5.63563 4.09109 0
M  V30 1314 H 129.976 -5.95427 4.72622 0
M  V30 1315 N 131.551 -0.354651 -1.53558 0
M  V30 1316 C 132.8 0.239504 -2.00273 0
M  V30 1317 C 133.113 1.50759 -1.24623 0
M  V30 1318 O 134.319 2.17968 -1.61871 0
M  V30 1319 C 132.775 0.477341 -3.5672 0
M  V30 1320 C 132.383 -0.775488 -4.41237 0
M  V30 1321 C 134.127 1.02975 -4.11821 0
M  V30 1322 C 132.034 -0.507838 -5.89216 0
M  V30 1323 H 130.964 0.0932743 -0.748208 0
M  V30 1324 H 133.615 -0.471701 -1.77334 0
M  V30 1325 H 131.997 1.24953 -3.7577 0
M  V30 1326 H 133.171 -1.54963 -4.33962 0
M  V30 1327 H 131.486 -1.25033 -3.97185 0
M  V30 1328 H 134.083 1.24513 -5.2 0
M  V30 1329 H 134.426 1.98862 -3.65731 0
M  V30 1330 H 134.959 0.317994 -3.96527 0
M  V30 1331 H 131.698 -1.43674 -6.39561 0
M  V30 1332 H 131.218 0.228011 -5.99366 0
M  V30 1333 H 132.897 -0.129238 -6.46871 0
M  V30 1334 N 133.029 1.57378 -0.0835403 0
M  V30 1335 C 134.44 1.81261 0.447358 0
M  V30 1336 C 134.791 0.998331 1.68902 0
M  V30 1337 O 133.916 0.224282 2.15235 0
M  V30 1338 C 134.511 3.28767 0.818386 0
M  V30 1339 C 133.07 3.53455 1.29409 0
M  V30 1340 C 132.217 2.75831 0.285024 0
M  V30 1341 H 135.168 1.5566 -0.309115 0
M  V30 1342 H 135.189 3.41459 1.67887 0
M  V30 1343 H 134.701 3.88006 -0.0855019 0
M  V30 1344 H 132.802 2.99534 2.21608 0
M  V30 1345 H 132.915 4.62128 1.2639 0
M  V30 1346 H 131.279 2.42947 0.764767 0
M  V30 1347 H 132.062 3.37813 -0.611341 0
M  V30 1348 N 134.507 -0.190092 1.56449 0
M  V30 1349 C 135.753 -0.911052 1.81184 0
M  V30 1350 C 136.086 -1.82699 0.658396 0
M  V30 1351 O 135.361 -1.91491 -0.340775 0
M  V30 1352 C 135.644 -1.72297 3.16205 0
M  V30 1353 C 135.497 -0.831419 4.42049 0
M  V30 1354 C 136.816 -2.69454 3.47969 0
M  V30 1355 H 133.935 -0.32977 0.659106 0
M  V30 1356 H 136.577 -0.178169 1.89163 0
M  V30 1357 H 134.727 -2.34778 3.09534 0
M  V30 1358 H 136.399 -0.220929 4.60771 0
M  V30 1359 H 134.642 -0.138406 4.33579 0
M  V30 1360 H 135.313 -1.43461 5.33032 0
M  V30 1361 H 137.789 -2.17104 3.54972 0
M  V30 1362 H 136.665 -3.23342 4.43555 0
M  V30 1363 H 136.926 -3.48744 2.71717 0
M  V30 1364 N 135.985 -1.50799 -0.457987 0
M  V30 1365 C 137.234 -1.6168 -1.20593 0
M  V30 1366 C 137.547 -0.32888 -1.92815 0
M  V30 1367 O 138.753 -0.316773 -2.69646 0
M  V30 1368 C 137.209 -2.8545 -2.19195 0
M  V30 1369 C 136.817 -4.21168 -1.52715 0
M  V30 1370 C 138.561 -3.05681 -2.94549 0
M  V30 1371 C 136.468 -5.3611 -2.4968 0
M  V30 1372 H 135.398 -0.602134 -0.453818 0
M  V30 1373 H 138.049 -1.77245 -0.475031 0
M  V30 1374 H 136.431 -2.63472 -2.95632 0
M  V30 1375 H 137.605 -4.53449 -0.819775 0
M  V30 1376 H 135.92 -4.06648 -0.895922 0
M  V30 1377 H 138.517 -3.88727 -3.67145 0
M  V30 1378 H 138.86 -2.17929 -3.54701 0
M  V30 1379 H 139.393 -3.27901 -2.25223 0
M  V30 1380 H 136.132 -6.26057 -1.94249 0
M  V30 1381 H 135.652 -5.0823 -3.18532 0
M  V30 1382 H 137.331 -5.6722 -3.11241 0
M  V30 1383 N 137.463 0.71206 -1.40597 0
M  V30 1384 C 138.373 1.8562 -1.43466 0
M  V30 1385 C 139.389 1.70902 -0.326902 0
M  V30 1386 O 140.565 1.93105 -0.572043 0
M  V30 1387 C 137.63 3.21451 -1.29884 0
M  V30 1388 C 136.691 3.48398 -2.50833 0
M  V30 1389 C 135.924 4.77749 -2.3789 0
M  V30 1390 O 136.147 5.53089 -1.39459 0
M  V30 1391 O 135.081 5.05111 -3.27333 0
M  V30 1392 H 138.907 1.86155 -2.39958 0
M  V30 1393 H 136.492 0.86295 -1.21957 0
M  V30 1394 H 138.374 4.02579 -1.24531 0
M  V30 1395 H 137.049 3.21636 -0.364997 0
M  V30 1396 H 135.956 2.67265 -2.61763 0
M  V30 1397 H 137.289 3.53014 -3.4299 0
M  V30 1398 N 138.941 1.26152 0.944643 0
M  V30 1399 C 139.888 1.07408 2.04285 0
M  V30 1400 C 140.858 -0.0198413 1.66088 0
M  V30 1401 O 142.043 0.139264 1.90291 0
M  V30 1402 C 139.183 0.70945 3.37729 0
M  V30 1403 C 138.296 1.87926 3.88983 0
M  V30 1404 C 137.431 1.45807 5.10797 0
M  V30 1405 C 136.47 2.5964 5.54305 0
M  V30 1406 N 135.607 2.18226 6.67324 0
M  V30 1407 H 140.447 2.01389 2.1965 0
M  V30 1408 H 137.984 1.00275 1.07626 0
M  V30 1409 H 139.942 0.478948 4.14442 0
M  V30 1410 H 138.572 -0.193389 3.2222 0
M  V30 1411 H 137.624 2.22279 3.08701 0
M  V30 1412 H 138.936 2.73377 4.17213 0
M  V30 1413 H 138.09 1.18781 5.94959 0
M  V30 1414 H 136.829 0.574414 4.84305 0
M  V30 1415 H 135.834 2.87399 4.68702 0
M  V30 1416 H 137.059 3.48599 5.828 0
M  V30 1417 H 135.005 1.3229 6.42523 0
M  V30 1418 H 134.922 2.97221 6.95123 0
M  V30 1419 H 136.19 1.94403 7.54869 0
M  V30 1420 N 140.419 -1.14872 1.07899 0
M  V30 1421 C 141.329 -2.2341 0.715915 0
M  V30 1422 C 142.345 -1.71808 -0.275306 0
M  V30 1423 O 143.521 -2.01039 -0.120545 0
M  V30 1424 C 140.586 -3.46474 0.125168 0
M  V30 1425 C 139.647 -4.13039 1.17034 0
M  V30 1426 C 138.88 -5.30229 0.607688 0
M  V30 1427 O 139.103 -5.675 -0.574497 0
M  V30 1428 O 138.037 -5.86444 1.35526 0
M  V30 1429 H 141.863 -2.56808 1.62121 0
M  V30 1430 H 139.448 -1.22702 0.852322 0
M  V30 1431 H 141.33 -4.20917 -0.201729 0
M  V30 1432 H 140.005 -3.14811 -0.753364 0
M  V30 1433 H 138.912 -3.40493 1.54968 0
M  V30 1434 H 140.245 -4.48796 2.02097 0
M  V30 1435 N 141.898 -0.863906 -1.31812 0
M  V30 1436 C 143.147 -0.46801 -1.96195 0
M  V30 1437 C 143.46 0.983474 -1.69077 0
M  V30 1438 O 144.666 1.48523 -2.27273 0
M  V30 1439 C 143.122 -0.785995 -3.51212 0
M  V30 1440 C 142.73 -2.25383 -3.87178 0
M  V30 1441 C 144.474 -0.458274 -4.22019 0
M  V30 1442 C 142.381 -2.51455 -5.3528 0
M  V30 1443 H 141.311 -0.171283 -0.734287 0
M  V30 1444 H 143.962 -1.05597 -1.50072 0
M  V30 1445 H 142.344 -0.127359 -3.95795 0
M  V30 1446 H 143.518 -2.95502 -3.53575 0
M  V30 1447 H 141.833 -2.54698 -3.2942 0
M  V30 1448 H 144.43 -0.630369 -5.30971 0
M  V30 1449 H 144.773 0.600834 -4.11941 0
M  V30 1450 H 145.306 -1.07319 -3.8305 0
M  V30 1451 H 142.045 -3.56025 -5.50387 0
M  V30 1452 H 141.565 -1.85923 -5.70257 0
M  V30 1453 H 143.244 -2.35874 -6.02472 0
M  V30 1454 N 143.376 1.44774 -0.622745 0
M  V30 1455 C 144.339 2.29069 0.0774015 0
M  V30 1456 C 145.339 1.4059 0.780461 0
M  V30 1457 O 146.529 1.62551 0.626322 0
M  V30 1458 C 143.661 3.21974 1.12006 0
M  V30 1459 H 144.854 2.92459 -0.663901 0
M  V30 1460 H 142.407 1.51548 -0.382486 0
M  V30 1461 H 143.142 2.63417 1.89162 0
M  V30 1462 H 142.927 3.87168 0.619951 0
M  V30 1463 H 144.417 3.85318 1.60995 0
M  V30 1464 N 144.854 0.36279 1.53368 0
M  V30 1465 C 146.265 -0.117022 1.86333 0
M  V30 1466 C 146.616 -1.48397 1.28347 0
M  V30 1467 O 145.741 -2.07787 0.604428 0
M  V30 1468 C 146.336 -0.21912 3.38091 0
M  V30 1469 C 144.895 -0.643184 3.70864 0
M  V30 1470 C 144.042 0.211318 2.76494 0
M  V30 1471 H 146.993 0.581687 1.47655 0
M  V30 1472 H 147.014 -1.04319 3.6592 0
M  V30 1473 H 146.526 0.775902 3.80265 0
M  V30 1474 H 144.627 -1.64654 3.34245 0
M  V30 1475 H 144.74 -0.41973 4.77258 0
M  V30 1476 H 143.104 -0.319367 2.5269 0
M  V30 1477 H 143.887 1.20383 3.21501 0
M  V30 1478 N 146.332 -1.57332 0.0918853 0
M  V30 1479 C 147.279 -2.13847 -0.868211 0
M  V30 1480 C 148.249 -1.05618 -1.28196 0
M  V30 1481 O 149.434 -1.33387 -1.36427 0
M  V30 1482 C 146.574 -2.72062 -2.12312 0
M  V30 1483 C 145.687 -3.94514 -1.7602 0
M  V30 1484 C 144.822 -4.40903 -2.96273 0
M  V30 1485 C 143.861 -5.55953 -2.56092 0
M  V30 1486 N 142.998 -5.97209 -3.69169 0
M  V30 1487 H 147.838 -2.95575 -0.379406 0
M  V30 1488 H 145.375 -1.46048 -0.175606 0
M  V30 1489 H 147.333 -3.03931 -2.858 0
M  V30 1490 H 145.963 -1.93068 -2.58698 0
M  V30 1491 H 145.015 -3.68979 -0.925135 0
M  V30 1492 H 146.327 -4.7802 -1.42472 0
M  V30 1493 H 145.481 -4.74539 -3.78018 0
M  V30 1494 H 144.22 -3.56291 -3.33029 0
M  V30 1495 H 143.225 -5.21948 -1.72773 0
M  V30 1496 H 144.45 -6.42311 -2.20484 0
M  V30 1497 H 142.396 -5.15543 -4.05649 0
M  V30 1498 H 142.313 -6.75504 -3.39456 0
M  V30 1499 H 143.581 -6.35475 -4.51434 0
M  V30 1500 N 147.81 0.181792 -1.56548 0
M  V30 1501 C 148.74 1.22765 -1.98623 0
M  V30 1502 C 149.721 1.46747 -0.860189 0
M  V30 1503 O 150.906 1.58259 -1.12551 0
M  V30 1504 C 148.036 2.56894 -2.33715 0
M  V30 1505 C 146.99 2.475 -3.49182 0
M  V30 1506 C 146.316 3.86023 -3.69986 0
M  V30 1507 C 147.616 1.98866 -4.82959 0
M  V30 1508 H 149.31 0.877942 -2.86239 0
M  V30 1509 H 146.856 0.42088 -1.37712 0
M  V30 1510 H 148.809 3.30253 -2.61746 0
M  V30 1511 H 147.533 2.93632 -1.42997 0
M  V30 1512 H 146.192 1.76596 -3.21262 0
M  V30 1513 H 145.84 4.20136 -2.76576 0
M  V30 1514 H 145.54 3.80609 -4.47672 0
M  V30 1515 H 147.064 4.60984 -4.00407 0
M  V30 1516 H 148.478 2.61992 -5.09934 0
M  V30 1517 H 146.875 2.04424 -5.64208 0
M  V30 1518 H 147.945 0.942465 -4.75653 0
M  V30 1519 N 149.288 1.51039 0.449983 0
M  V30 1520 C 150.537 1.62317 1.19733 0
M  V30 1521 C 150.85 0.339101 1.92638 0
M  V30 1522 O 152.056 0.331069 2.69474 0
M  V30 1523 C 150.512 2.86608 2.17678 0
M  V30 1524 C 150.12 4.21972 1.50479 0
M  V30 1525 C 151.864 3.07239 2.92924 0
M  V30 1526 C 149.771 5.37426 2.46834 0
M  V30 1527 H 148.701 0.604532 0.450619 0
M  V30 1528 H 151.352 1.77494 0.465625 0
M  V30 1529 H 149.734 2.65037 2.94231 0
M  V30 1530 H 150.908 4.53878 0.795716 0
M  V30 1531 H 149.223 4.07117 0.874344 0
M  V30 1532 H 151.82 3.90668 3.65079 0
M  V30 1533 H 152.163 2.19807 3.5354 0
M  V30 1534 H 152.696 3.29091 2.23481 0
M  V30 1535 H 149.435 6.27079 1.90926 0
M  V30 1536 H 148.955 5.09912 3.15832 0
M  V30 1537 H 150.634 5.68862 3.08228 0
M  V30 1538 N 150.766 -0.704594 1.40972 0
M  V30 1539 C 152.014 -1.46169 1.39568 0
M  V30 1540 C 152.335 -1.95 0.00253745 0
M  V30 1541 O 151.605 -1.71095 -0.954114 0
M  V30 1542 H 150.185 -0.542326 0.513704 0
M  V30 1543 H 152.847 -0.834553 1.76128 0
M  V30 1544 H 151.943 -2.32922 2.07735 0
M  V30 1545 N 152.244 -1.26651 -0.937939 0
M  V30 1546 C 153.66 -1.03834 -1.21205 0
M  V30 1547 C 153.86 0.234502 -2.00131 0
M  V30 1548 O 152.916 0.942767 -2.3424 0
M  V30 1549 C 154.229 -2.27167 -1.97017 0
M  V30 1550 C 155.777 -2.32101 -2.09996 0
M  V30 1551 C 156.252 -3.55136 -2.8921 0
M  V30 1552 N 157.743 -3.55632 -2.96783 0
M  V30 1553 C 158.478 -4.475 -3.58512 0
M  V30 1554 N 157.974 -5.4966 -4.21717 0
M  V30 1555 N 159.767 -4.35145 -3.55816 0
M  V30 1556 H 151.918 -2.08398 -0.410391 0
M  V30 1557 H 154.181 -0.916031 -0.244114 0
M  V30 1558 H 153.887 -3.19765 -1.46434 0
M  V30 1559 H 153.761 -2.31672 -2.97671 0
M  V30 1560 H 156.148 -1.40015 -2.59769 0
M  V30 1561 H 156.229 -2.31605 -1.08594 0
M  V30 1562 H 155.873 -4.47553 -2.40123 0
M  V30 1563 H 155.803 -3.5288 -3.90875 0
M  V30 1564 H 158.294 -2.81743 -2.51852 0
M  V30 1565 H 158.607 -6.15943 -4.66727 0
M  V30 1566 H 156.952 -5.53514 -4.20294 0
M  V30 1567 H 160.143 -3.5455 -3.05634 0
M  V30 1568 H 160.316 -5.06934 -4.03636 0
M  V30 1569 N 153.722 1.14298 -1.08507 0
M  V30 1570 C 154.632 2.23027 -0.727753 0
M  V30 1571 C 155.648 1.71952 0.26619 0
M  V30 1572 O 156.824 2.011 0.109882 0
M  V30 1573 C 153.889 3.46403 -0.143541 0
M  V30 1574 C 152.95 4.12413 -1.19223 0
M  V30 1575 C 152.183 5.29899 -0.635798 0
M  V30 1576 O 152.406 5.67796 0.544393 0
M  V30 1577 O 151.34 5.85717 -1.38634 0
M  V30 1578 H 155.166 2.55945 -1.63481 0
M  V30 1579 H 152.751 1.22248 -0.858817 0
M  V30 1580 H 154.633 4.21018 0.179404 0
M  V30 1581 H 153.308 3.15206 0.736659 0
M  V30 1582 H 152.215 3.39667 -1.56772 0
M  V30 1583 H 153.548 4.47718 -2.04474 0
M  V30 1584 N 155.201 0.870884 1.31352 0
M  V30 1585 C 156.45 0.478408 1.95944 0
M  V30 1586 C 156.763 -0.974493 1.69597 0
M  V30 1587 O 157.969 -1.47316 2.28058 0
M  V30 1588 C 156.425 0.804609 3.50791 0
M  V30 1589 C 156.033 2.27433 3.85977 0
M  V30 1590 C 157.777 0.480648 4.2177 0
M  V30 1591 C 155.684 2.5429 5.33939 0
M  V30 1592 H 154.614 0.175175 0.733369 0
M  V30 1593 H 157.265 1.06391 1.4951 0
M  V30 1594 H 155.647 0.148347 3.95722 0
M  V30 1595 H 156.821 2.97373 3.52002 0
M  V30 1596 H 155.136 2.56442 3.28065 0
M  V30 1597 H 157.733 0.658519 5.30629 0
M  V30 1598 H 158.076 -0.578979 4.12254 0
M  V30 1599 H 158.609 1.09349 3.82476 0
M  V30 1600 H 155.348 3.58939 5.48491 0
M  V30 1601 H 154.868 1.88945 5.69263 0
M  V30 1602 H 156.547 2.39066 6.01212 0
M  V30 1603 N 156.679 -1.44442 0.630414 0
M  V30 1604 C 157.907 -2.06414 0.141671 0
M  V30 1605 C 158.322 -1.47105 -1.18345 0
M  V30 1606 O 157.679 -0.593662 -1.72574 0
M  V30 1607 C 157.73 -3.61494 0.0199784 0
M  V30 1608 O 157.451 -4.18594 1.29269 0
M  V30 1609 C 158.952 -4.40499 -0.497544 0
M  V30 1610 H 156.172 -0.666292 0.0793452 0
M  V30 1611 H 158.716 -1.85323 0.864614 0
M  V30 1612 H 156.871 -3.8185 -0.653402 0
M  V30 1613 H 157.285 -5.12026 1.13707 0
M  V30 1614 H 158.759 -5.49433 -0.531708 0
M  V30 1615 H 159.236 -4.11895 -1.52445 0
M  V30 1616 H 159.842 -4.25061 0.142562 0
M  V30 1617 N 158.157 -0.370918 -1.53173 0
M  V30 1618 C 159.105 0.488101 -2.27421 0
M  V30 1619 C 160.099 1.07884 -1.30604 0
M  V30 1620 O 161.305 1.02143 -1.48212 0
M  V30 1621 H 157.68 0.176134 -0.731082 0
M  V30 1622 H 159.651 -0.159815 -2.97972 0
M  V30 1623 C 158.4 1.61306 -3.08019 0
M  V30 1624 H 157.723 1.1678 -3.82364 0
M  V30 1625 H 159.163 2.18872 -3.63141 0
M  V30 1626 C 157.622 2.55848 -2.19188 0
M  V30 1627 O 158.152 3.58799 -1.80626 0
M  V30 1628 N 156.358 2.2516 -1.83715 0
M  V30 1629 H 155.905 1.41476 -2.15273 0
M  V30 1630 H 155.863 2.8867 -1.24567 0
M  V30 1631 N 159.635 1.57281 -0.100228 0
M  V30 1632 C 160.882 1.94537 0.562268 0
M  V30 1633 C 161.21 0.982315 1.67871 0
M  V30 1634 O 160.465 0.00280936 1.957 0
M  V30 1635 C 160.764 3.38305 1.15259 0
M  V30 1636 C 160.43 4.50618 0.159409 0
M  V30 1637 C 159.092 4.81066 -0.113741 0
M  V30 1638 C 161.444 5.18615 -0.518461 0
M  V30 1639 C 158.772 5.76835 -1.07137 0
M  V30 1640 C 161.124 6.15412 -1.46459 0
M  V30 1641 C 159.788 6.44262 -1.74592 0
M  V30 1642 H 159.058 0.711863 0.205748 0
M  V30 1643 H 161.705 1.90679 -0.17715 0
M  V30 1644 H 160.01 3.38766 1.96836 0
M  V30 1645 H 161.707 3.64435 1.67297 0
M  V30 1646 H 158.297 4.2689 0.382491 0
M  V30 1647 H 162.481 4.95264 -0.320581 0
M  V30 1648 H 157.737 5.975 -1.29628 0
M  V30 1649 H 161.911 6.67194 -1.99564 0
M  V30 1650 H 159.538 7.1828 -2.48953 0
M  V30 1651 N 161.113 -0.173488 1.56642 0
M  V30 1652 C 162.06 -1.21482 1.96242 0
M  V30 1653 C 163.03 -1.44104 0.826027 0
M  V30 1654 O 164.215 -1.5688 1.08597 0
M  V30 1655 C 161.355 -2.54964 2.32567 0
M  V30 1656 C 160.468 -2.39739 3.59373 0
M  V30 1657 C 159.603 -3.66072 3.84921 0
M  V30 1658 C 158.642 -3.45771 5.05083 0
M  V30 1659 N 157.779 -4.64169 5.26775 0
M  V30 1660 H 162.619 -0.870123 2.85014 0
M  V30 1661 H 160.156 -0.418245 1.41029 0
M  V30 1662 H 162.114 -3.32758 2.5165 0
M  V30 1663 H 160.744 -2.87433 1.46908 0
M  V30 1664 H 159.796 -1.53131 3.48217 0
M  V30 1665 H 161.108 -2.20683 4.47326 0
M  V30 1666 H 160.262 -4.52303 4.0436 0
M  V30 1667 H 159.001 -3.88105 2.9534 0
M  V30 1668 H 158.006 -2.57927 4.85545 0
M  V30 1669 H 159.231 -3.25163 5.96193 0
M  V30 1670 H 157.177 -4.86425 4.40144 0
M  V30 1671 H 157.094 -4.48019 6.08946 0
M  V30 1672 H 158.362 -5.51689 5.5069 0
M  V30 1673 N 162.591 -1.51276 -0.441967 0
M  V30 1674 C 164.002 -1.56244 -1.02199 0
M  V30 1675 C 164.353 -0.383149 -1.92422 0
M  V30 1676 O 163.478 0.500613 -2.1053 0
M  V30 1677 C 164.073 -2.83162 -1.86024 0
M  V30 1678 C 162.632 -2.90716 -2.39084 0
M  V30 1679 C 161.779 -2.50858 -1.18175 0
M  V30 1680 H 164.73 -1.5712 -0.223416 0
M  V30 1681 H 164.751 -2.66663 -2.71425 0
M  V30 1682 H 164.263 -3.68974 -1.20331 0
M  V30 1683 H 162.364 -2.09323 -3.08244 0
M  V30 1684 H 162.477 -3.94266 -2.72198 0
M  V30 1685 H 160.841 -2.03951 -1.52565 0
M  V30 1686 H 161.624 -3.3901 -0.541001 0
M  V30 1687 N 164.069 0.697108 -1.41344 0
M  V30 1688 C 165.002 1.82134 -1.37486 0
M  V30 1689 C 165.98 1.60784 -0.242351 0
M  V30 1690 O 167.164 1.83553 -0.429012 0
M  V30 1691 C 164.291 3.18788 -1.14421 0
M  V30 1692 C 163.337 3.58932 -2.3037 0
M  V30 1693 S 164.17 3.63916 -3.92843 0
M  V30 1694 C 165.326 5.03298 -3.72078 0
M  V30 1695 H 165.559 1.85129 -2.32625 0
M  V30 1696 H 163.092 0.865671 -1.2785 0
M  V30 1697 H 165.05 3.97677 -1.018 0
M  V30 1698 H 163.711 3.13404 -0.20905 0
M  V30 1699 H 162.904 4.58202 -2.09922 0
M  V30 1700 H 162.506 2.87347 -2.39391 0
M  V30 1701 H 164.798 5.90753 -3.31688 0
M  V30 1702 H 165.741 5.28788 -4.70945 0
M  V30 1703 H 166.149 4.74764 -3.05384 0
M  V30 1704 N 165.547 1.27147 0.931209 0
M  V30 1705 C 166.51 1.09615 2.01289 0
M  V30 1706 C 167.51 0.0412581 1.60747 0
M  V30 1707 O 168.7 0.285545 1.71844 0
M  V30 1708 C 165.832 0.669447 3.34262 0
M  V30 1709 H 167.025 2.05662 2.18273 0
M  V30 1710 H 164.578 1.09885 1.11153 0
M  V30 1711 H 165.313 -0.292572 3.22978 0
M  V30 1712 H 165.098 1.43127 3.65044 0
M  V30 1713 H 166.588 0.568921 4.13706 0
M  V30 1714 N 167.025 -1.13721 1.09112 0
M  V30 1715 C 167.935 -2.22638 0.73957 0
M  V30 1716 C 168.951 -1.72091 -0.257068 0
M  V30 1717 O 170.127 -2.01155 -0.0992154 0
M  V30 1718 C 167.192 -3.46322 0.16191 0
M  V30 1719 C 166.253 -4.11775 1.21408 0
M  V30 1720 C 165.486 -5.29555 0.663891 0
M  V30 1721 O 165.709 -5.68077 -0.514274 0
M  V30 1722 O 164.643 -5.84973 1.41738 0
M  V30 1723 H 168.469 -2.55074 1.64836 0
M  V30 1724 H 166.054 -1.21791 0.865289 0
M  V30 1725 H 167.936 -4.21107 -0.157073 0
M  V30 1726 H 166.611 -3.15593 -0.719932 0
M  V30 1727 H 165.518 -3.3883 1.58571 0
M  V30 1728 H 166.851 -4.46627 2.06845 0
M  V30 1729 N 168.503 -0.877838 -1.30888 0
M  V30 1730 C 169.413 -0.343096 -2.32078 0
M  V30 1731 C 170.429 0.551022 -1.65045 0
M  V30 1732 O 171.605 0.445854 -1.96403 0
M  V30 1733 C 168.67 0.439905 -3.43898 0
M  V30 1734 C 167.731 -0.483111 -4.26573 0
M  V30 1735 C 166.964 0.262616 -5.33053 0
M  V30 1736 O 167.187 1.48967 -5.50604 0
M  V30 1737 O 166.121 -0.383593 -6.00676 0
M  V30 1738 H 169.947 -1.18203 -2.79753 0
M  V30 1739 H 167.532 -0.64145 -1.34929 0
M  V30 1740 H 169.414 0.883504 -4.12034 0
M  V30 1741 H 168.089 1.25526 -2.98371 0
M  V30 1742 H 166.996 -0.975374 -3.61161 0
M  V30 1743 H 168.329 -1.26427 -4.75686 0
M  V30 1744 N 169.982 1.44106 -0.638065 0
M  V30 1745 C 171.229 2.01978 -0.14533 0
M  V30 1746 C 171.557 1.50234 1.23532 0
M  V30 1747 O 170.812 0.679548 1.83523 0
M  V30 1748 C 171.111 3.5729 -0.0887327 0
M  V30 1749 C 170.777 4.28317 -1.40909 0
M  V30 1750 C 169.439 4.47437 -1.77069 0
M  V30 1751 C 171.791 4.6867 -2.28031 0
M  V30 1752 C 169.119 5.04171 -3.00047 0
M  V30 1753 C 171.471 5.26766 -3.50286 0
M  V30 1754 C 170.135 5.44104 -3.86661 0
M  V30 1755 H 169.405 0.739089 -0.0531801 0
M  V30 1756 H 172.052 1.72781 -0.825761 0
M  V30 1757 H 170.357 3.8594 0.675095 0
M  V30 1758 H 172.054 3.99807 0.309145 0
M  V30 1759 H 168.644 4.1377 -1.1177 0
M  V30 1760 H 172.828 4.53604 -2.01388 0
M  V30 1761 H 168.084 5.15782 -3.28298 0
M  V30 1762 H 172.258 5.56983 -4.18023 0
M  V30 1763 H 169.885 5.87832 -4.82034 0
M  V30 1764 N 171.46 0.379036 1.52974 0
M  V30 1765 C 172.737 -0.263479 1.93817 0
M  V30 1766 C 173.117 -1.65244 1.31368 0
M  V30 1767 O 172.465 -2.23448 0.477856 0
M  V30 1768 C 172.675 -0.300166 3.47707 0
M  V30 1769 C 174.023 -0.534061 4.21228 0
M  V30 1770 O 175.047 -0.38081 3.54159 0
M  V30 1771 O 173.906 -0.833501 5.40106 0
M  V30 1772 H 171 -0.161149 0.811147 0
M  V30 1773 H 173.546 0.432798 1.64088 0
M  V30 1774 H 172.318 0.673138 3.85467 0
M  V30 1775 H 171.941 -1.04179 3.83709 0
M  V30 1776 N 172.938 -1.57226 0.108567 0
M  V30 1777 C 173.885 -2.14756 -0.845481 0
M  V30 1778 C 174.855 -1.06971 -1.27068 0
M  V30 1779 O 176.04 -1.34827 -1.35005 0
M  V30 1780 C 173.18 -2.74298 -2.09415 0
M  V30 1781 C 172.293 -3.96358 -1.71826 0
M  V30 1782 C 171.428 -4.44021 -2.9158 0
M  V30 1783 C 170.467 -5.58637 -2.50181 0
M  V30 1784 N 169.604 -6.01091 -3.62814 0
M  V30 1785 H 174.444 -2.95961 -0.348035 0
M  V30 1786 H 171.981 -1.46226 -0.160106 0
M  V30 1787 H 173.939 -3.06945 -2.82561 0
M  V30 1788 H 172.569 -1.95801 -2.56636 0
M  V30 1789 H 171.621 -3.69939 -0.885947 0
M  V30 1790 H 172.933 -4.79504 -1.37394 0
M  V30 1791 H 172.087 -4.78522 -3.72963 0
M  V30 1792 H 170.826 -3.59803 -3.29231 0
M  V30 1793 H 169.831 -5.23751 -1.67228 0
M  V30 1794 H 171.056 -6.44613 -2.13659 0
M  V30 1795 H 169.002 -5.19817 -4.00158 0
M  V30 1796 H 168.919 -6.79066 -3.32273 0
M  V30 1797 H 170.187 -6.40227 -4.44668 0
M  V30 1798 N 174.416 0.165178 -1.56732 0
M  V30 1799 C 175.349 1.23336 -1.91998 0
M  V30 1800 C 176.327 1.42476 -0.783531 0
M  V30 1801 O 177.511 1.57384 -1.03743 0
M  V30 1802 C 174.638 2.59533 -2.17625 0
M  V30 1803 C 173.684 2.57093 -3.40302 0
M  V30 1804 S 174.517 2.05571 -4.9447 0
M  V30 1805 C 175.673 3.43532 -5.23198 0
M  V30 1806 H 175.906 0.932387 -2.82301 0
M  V30 1807 H 173.439 0.370013 -1.49901 0
M  V30 1808 H 175.397 3.37918 -2.3307 0
M  V30 1809 H 174.058 2.86827 -1.28019 0
M  V30 1810 H 173.251 3.57308 -3.55453 0
M  V30 1811 H 172.853 1.86806 -3.24005 0
M  V30 1812 H 175.145 4.39559 -5.15552 0
M  V30 1813 H 176.088 3.33251 -6.2478 0
M  V30 1814 H 176.496 3.39828 -4.50752 0
M  V30 1815 N 175.894 1.51508 0.433938 0
M  V30 1816 C 177.122 1.68157 1.20543 0
M  V30 1817 C 177.537 0.380362 1.84929 0
M  V30 1818 O 176.894 -0.641446 1.70856 0
M  V30 1819 C 176.945 2.79965 2.28696 0
M  V30 1820 O 176.666 4.05045 1.66943 0
M  V30 1821 C 178.167 3.07912 3.18912 0
M  V30 1822 H 175.387 0.56421 0.363191 0
M  V30 1823 H 177.931 1.97941 0.513754 0
M  V30 1824 H 176.086 2.5277 2.93574 0
M  V30 1825 H 176.5 4.67165 2.38448 0
M  V30 1826 H 177.974 3.89719 3.90926 0
M  V30 1827 H 178.451 2.20456 3.79863 0
M  V30 1828 H 179.057 3.36779 2.59731 0
M  V30 1829 N 177.372 -0.689602 1.41712 0
M  V30 1830 C 178.618 -1.45181 1.41599 0
M  V30 1831 C 178.951 -1.94181 0.0270081 0
M  V30 1832 O 178.226 -1.6993 -0.946265 0
M  V30 1833 C 178.509 -2.65945 2.42787 0
M  V30 1834 C 178.362 -2.22672 3.90816 0
M  V30 1835 C 179.681 -3.68149 2.41151 0
M  V30 1836 H 176.8 -0.526576 0.515642 0
M  V30 1837 H 179.442 -0.784947 1.73028 0
M  V30 1838 H 177.592 -3.2284 2.16116 0
M  V30 1839 H 179.264 -1.71058 4.28412 0
M  V30 1840 H 177.507 -1.54394 4.05395 0
M  V30 1841 H 178.178 -3.0935 4.57172 0
M  V30 1842 H 180.654 -3.2094 2.64834 0
M  V30 1843 H 179.53 -4.50248 3.13955 0
M  V30 1844 H 179.791 -4.18259 1.43221 0
M  V30 1845 N 178.85 -1.27639 -0.924453 0
M  V30 1846 C 179.798 -1.10485 -2.04685 0
M  V30 1847 C 180.792 -0.0270421 -1.69378 0
M  V30 1848 O 181.998 -0.185008 -1.79047 0
M  V30 1849 H 178.373 -0.340546 -0.670472 0
M  V30 1850 H 180.344 -2.05566 -2.16298 0
M  V30 1851 C 179.093 -0.772229 -3.39016 0
M  V30 1852 H 178.416 -1.59351 -3.66671 0
M  V30 1853 H 179.856 -0.692097 -4.18313 0
M  V30 1854 C 178.315 0.523554 -3.32807 0
M  V30 1855 O 178.845 1.55702 -3.70297 0
M  V30 1856 N 177.051 0.520363 -2.85903 0
M  V30 1857 H 176.598 -0.32107 -2.55591 0
M  V30 1858 H 176.556 1.38742 -2.82131 0
M  V30 1859 N 180.328 1.1314 -1.09713 0
M  V30 1860 C 181.576 1.84119 -0.833338 0
M  V30 1861 C 181.897 1.84097 0.642904 0
M  V30 1862 O 181.167 1.29881 1.46655 0
M  V30 1863 H 179.747 0.681766 -0.305293 0
M  V30 1864 H 182.409 1.37038 -1.38588 0
M  V30 1865 H 181.505 2.88543 -1.18951 0
M  V30 1866 N 181.806 0.884767 1.30421 0
M  V30 1867 C 182.754 0.340869 2.30089 0
M  V30 1868 C 183.748 -0.55201 1.60154 0
M  V30 1869 O 184.954 -0.436467 1.74628 0
M  V30 1870 H 181.329 0.0915739 0.746404 0
M  V30 1871 H 183.3 1.19513 2.73421 0
M  V30 1872 C 182.049 -0.429779 3.45034 0
M  V30 1873 H 181.372 0.248024 3.9903 0
M  V30 1874 H 182.812 -0.775445 4.16849 0
M  V30 1875 C 181.271 -1.62677 2.95022 0
M  V30 1876 O 181.801 -2.72614 2.95033 0
M  V30 1877 N 180.007 -1.46387 2.51036 0
M  V30 1878 H 179.554 -0.569506 2.51226 0
M  V30 1879 H 179.512 -2.26612 2.17932 0
M  V30 1880 N 183.284 -1.43765 0.645699 0
M  V30 1881 C 184.7 -1.56509 0.312591 0
M  V30 1882 C 184.9 -1.6307 -1.18365 0
M  V30 1883 O 183.956 -1.58167 -1.96824 0
M  V30 1884 C 185.269 -2.82968 1.01733 0
M  V30 1885 C 186.817 -2.96701 0.996865 0
M  V30 1886 C 187.292 -4.25982 1.68236 0
M  V30 1887 N 188.783 -4.32829 1.64964 0
M  V30 1888 C 189.518 -5.31613 2.14885 0
M  V30 1889 N 189.014 -6.36718 2.73061 0
M  V30 1890 N 190.807 -5.23217 2.05428 0
M  V30 1891 H 182.958 -1.3775 1.61675 0
M  V30 1892 H 185.221 -0.661067 0.679481 0
M  V30 1893 H 184.927 -2.84156 2.0724 0
M  V30 1894 H 184.801 -3.72957 0.564177 0
M  V30 1895 H 187.188 -2.95058 -0.0497719 0
M  V30 1896 H 187.269 -2.08022 1.48865 0
M  V30 1897 H 186.913 -4.28386 2.72852 0
M  V30 1898 H 186.843 -5.13545 1.16529 0
M  V30 1899 H 189.334 -3.57493 1.22503 0
M  V30 1900 H 189.647 -7.08401 3.08848 0
M  V30 1901 H 187.992 -6.37362 2.77118 0
M  V30 1902 H 191.183 -4.40019 1.59689 0
M  V30 1903 H 191.356 -6.00045 2.44643 0
M  V30 1904 N 184.763 -0.387143 -1.52771 0
M  V30 1905 C 185.693 0.440551 -2.29306 0
M  V30 1906 C 186.674 1.06535 -1.32606 0
M  V30 1907 O 187.859 1.07853 -1.61497 0
M  V30 1908 C 184.989 1.56919 -3.09829 0
M  V30 1909 C 183.943 1.07054 -4.14395 0
M  V30 1910 C 183.269 2.29109 -4.83129 0
M  V30 1911 C 184.569 0.140015 -5.22112 0
M  V30 1912 H 186.263 -0.198026 -2.98744 0
M  V30 1913 H 183.809 -0.09668 -1.43675 0
M  V30 1914 H 185.762 2.15503 -3.62128 0
M  V30 1915 H 184.486 2.23532 -2.3812 0
M  V30 1916 H 183.145 0.507247 -3.63074 0
M  V30 1917 H 182.793 2.94227 -4.0797 0
M  V30 1918 H 182.493 1.96406 -5.53804 0
M  V30 1919 H 184.017 2.88339 -5.38231 0
M  V30 1920 H 185.431 0.633978 -5.69784 0
M  V30 1921 H 183.828 -0.0971485 -6.00021 0
M  V30 1922 H 184.898 -0.811711 -4.78058 0
M  V30 1923 N 186.241 1.57166 -0.116904 0
M  V30 1924 C 187.191 2.11756 0.845178 0
M  V30 1925 C 188.175 1.03783 1.22955 0
M  V30 1926 O 189.367 1.3002 1.20099 0
M  V30 1927 C 186.496 2.71886 2.09602 0
M  V30 1928 C 185.582 3.86937 1.7361 0
M  V30 1929 N 185.973 4.94073 1.08284 0
M  V30 1930 C 184.271 3.97082 2.03082 0
M  V30 1931 C 184.972 5.74477 0.913855 0
M  V30 1932 N 183.948 5.2423 1.43818 0
M  V30 1933 H 187.75 2.91967 0.336523 0
M  V30 1934 H 185.264 1.62174 0.0856332 0
M  V30 1935 H 187.261 3.09338 2.79492 0
M  V30 1936 H 185.921 1.93138 2.61013 0
M  V30 1937 H 186.932 5.12483 0.747067 0
M  V30 1938 H 183.609 3.29372 2.56554 0
M  V30 1939 H 184.999 6.70701 0.40125 0
M  V30 1940 N 187.719 -0.156864 1.56817 0
M  V30 1941 C 188.947 -0.886316 1.86955 0
M  V30 1942 C 189.362 -1.75185 0.703975 0
M  V30 1943 O 188.719 -1.79555 -0.326552 0
M  V30 1944 C 188.77 -1.75117 3.16253 0
M  V30 1945 O 188.491 -0.920537 4.2832 0
M  V30 1946 C 189.992 -2.58905 3.59837 0
M  V30 1947 H 187.212 -0.25678 0.619923 0
M  V30 1948 H 189.756 -0.152615 2.0393 0
M  V30 1949 H 187.911 -2.43805 3.01062 0
M  V30 1950 H 188.325 -1.51337 5.02192 0
M  V30 1951 H 189.799 -3.1518 4.53172 0
M  V30 1952 H 190.276 -3.34472 2.84649 0
M  V30 1953 H 190.882 -1.95526 3.7769 0
M  V30 1954 N 189.197 -1.51736 -0.425897 0
M  V30 1955 C 190.16 -1.73271 -1.50032 0
M  V30 1956 C 191.16 -0.602639 -1.4908 0
M  V30 1957 O 192.35 -0.87033 -1.509 0
M  V30 1958 C 189.482 -1.79969 -2.89523 0
M  V30 1959 H 190.675 -2.69172 -1.32237 0
M  V30 1960 H 188.228 -1.41899 -0.65532 0
M  V30 1961 H 188.963 -0.859241 -3.1271 0
M  V30 1962 H 188.748 -2.62109 -2.91619 0
M  V30 1963 H 190.238 -1.9843 -3.67444 0
M  V30 1964 N 190.675 0.682077 -1.42076 0
M  V30 1965 C 191.924 1.43786 -1.41451 0
M  V30 1966 C 192.237 1.95574 -0.0317074 0
M  V30 1967 O 193.443 2.71326 0.0971462 0
M  V30 1968 C 191.899 2.60071 -2.48779 0
M  V30 1969 C 191.507 2.15013 -3.93031 0
M  V30 1970 C 193.251 3.37626 -2.57311 0
M  V30 1971 C 191.158 3.28336 -4.91883 0
M  V30 1972 H 190.088 0.540143 -0.526082 0
M  V30 1973 H 192.739 0.739157 -1.67955 0
M  V30 1974 H 191.121 3.32275 -2.15429 0
M  V30 1975 H 192.295 1.5001 -4.35699 0
M  V30 1976 H 190.61 1.50416 -3.88284 0
M  V30 1977 H 193.207 4.22012 -3.28345 0
M  V30 1978 H 193.55 3.83727 -1.61429 0
M  V30 1979 H 194.083 2.72488 -2.89819 0
M  V30 1980 H 190.822 2.87234 -5.89217 0
M  V30 1981 H 190.342 3.92145 -4.53853 0
M  V30 1982 H 192.021 3.93913 -5.13265 0
M  V30 1983 N 192.153 1.28127 0.917671 0
M  V30 1984 C 193.569 1.05749 1.19538 0
M  V30 1985 C 193.769 -0.202633 2.00479 0
M  V30 1986 O 192.825 -0.905382 2.3571 0
M  V30 1987 C 194.138 2.30273 1.93378 0
M  V30 1988 C 195.686 2.35412 2.06277 0
M  V30 1989 C 196.161 3.59692 2.83524 0
M  V30 1990 N 197.652 3.60309 2.91087 0
M  V30 1991 C 198.387 4.53147 3.51348 0
M  V30 1992 N 197.883 5.563 4.12919 0
M  V30 1993 N 199.676 4.40751 3.48849 0
M  V30 1994 H 191.827 2.09024 0.377184 0
M  V30 1995 H 194.09 0.919798 0.22951 0
M  V30 1996 H 193.796 3.22055 1.41328 0
M  V30 1997 H 193.67 2.36378 2.93947 0
M  V30 1998 H 196.057 1.4413 2.57508 0
M  V30 1999 H 196.138 2.33304 1.04895 0
M  V30 2000 H 195.782 4.51316 2.32973 0
M  V30 2001 H 195.712 3.59054 3.85211 0
M  V30 2002 H 198.203 2.85714 2.47338 0
M  V30 2003 H 198.516 6.2329 4.56869 0
M  V30 2004 H 196.861 5.60131 4.11435 0
M  V30 2005 H 200.052 3.59367 2.99955 0
M  V30 2006 H 200.225 5.13291 3.9552 0
M  V30 2007 N 193.631 -1.12557 1.10312 0
M  V30 2008 C 194.861 -1.87592 0.865617 0
M  V30 2009 C 195.269 -1.79851 -0.587389 0
M  V30 2010 O 194.612 -1.16949 -1.41664 0
M  V30 2011 C 194.674 -3.37665 1.23381 0
M  V30 2012 C 194.338 -3.69181 2.69359 0
M  V30 2013 C 195.335 -3.67652 3.67597 0
M  V30 2014 C 193.02 -3.98555 3.05711 0
M  V30 2015 C 195.014 -3.95053 5.00212 0
M  V30 2016 C 192.701 -4.25616 4.38514 0
M  V30 2017 C 193.699 -4.23851 5.35574 0
M  V30 2018 O 193.387 -4.50242 6.65986 0
M  V30 2019 H 193.119 -0.600442 0.310557 0
M  V30 2020 H 195.673 -1.4335 1.47105 0
M  V30 2021 H 193.903 -3.82454 0.571467 0
M  V30 2022 H 195.592 -3.94041 0.973994 0
M  V30 2023 H 196.358 -3.45024 3.40857 0
M  V30 2024 H 192.237 -3.99071 2.30789 0
M  V30 2025 H 195.781 -3.93591 5.75962 0
M  V30 2026 H 191.678 -4.47718 4.64994 0
M  V30 2027 H 192.446 -4.67867 6.71597 0
M  V30 2028 N 195.109 -0.891671 -1.2995 0
M  V30 2029 C 196.357 -0.512486 -1.95494 0
M  V30 2030 C 196.678 0.942776 -1.70695 0
M  V30 2031 O 195.948 1.66374 -1.03424 0
M  V30 2032 H 194.528 -0.186533 -0.723336 0
M  V30 2033 H 197.19 -1.13621 -1.58355 0
M  V30 2034 H 196.286 -0.688342 -3.04415 0
M  V30 2035 N 196.587 1.43421 -0.653314 0
M  V30 2036 C 197.836 2.01032 -0.164076 0
M  V30 2037 C 198.149 1.52147 1.22926 0
M  V30 2038 O 199.355 2.02031 1.81371 0
M  V30 2039 C 197.811 3.59082 -0.24252 0
M  V30 2040 C 197.419 4.1696 -1.63855 0
M  V30 2041 C 199.163 4.24079 0.18911 0
M  V30 2042 C 197.07 5.67304 -1.67092 0
M  V30 2043 H 196 0.751798 -0.0575769 0
M  V30 2044 H 198.651 1.6439 -0.815362 0
M  V30 2045 H 197.033 3.93125 0.476276 0
M  V30 2046 H 198.207 3.94416 -2.38271 0
M  V30 2047 H 196.522 3.64335 -2.01616 0
M  V30 2048 H 199.119 5.34381 0.184775 0
M  V30 2049 H 199.462 3.98005 1.22056 0
M  V30 2050 H 199.995 3.94918 -0.477938 0
M  V30 2051 H 196.734 5.98145 -2.68146 0
M  V30 2052 H 196.254 5.91904 -0.970014 0
M  V30 2053 H 197.933 6.31344 -1.4147 0
M  V30 2054 N 198.065 0.39524 1.52563 0
M  V30 2055 C 199.293 -0.184943 2.06072 0
M  V30 2056 C 199.708 -1.40021 1.26647 0
M  V30 2057 O 199.065 -1.79767 0.314672 0
M  V30 2058 C 199.116 -0.549179 3.57304 0
M  V30 2059 O 198.837 0.617813 4.33722 0
M  V30 2060 C 200.338 -1.18459 4.2718 0
M  V30 2061 H 197.558 -0.0265025 0.670476 0
M  V30 2062 H 200.102 0.562184 1.96621 0
M  V30 2063 H 198.257 -1.2462 3.66809 0
M  V30 2064 H 198.671 0.317091 5.23541 0
M  V30 2065 H 200.145 -1.38976 5.34219 0
M  V30 2066 H 200.622 -2.15368 3.82771 0
M  V30 2067 H 201.228 -0.528163 4.22008 0
M  V30 2068 N 199.544 -1.57102 0.125237 0
M  V30 2069 C 200.476 -2.12726 -0.853237 0
M  V30 2070 C 201.489 -1.07145 -1.22571 0
M  V30 2071 O 202.678 -1.34497 -1.17358 0
M  V30 2072 C 199.778 -2.61709 -2.15317 0
M  V30 2073 C 198.951 -3.91456 -1.95143 0
M  V30 2074 C 198.01 -4.25973 -3.08923 0
M  V30 2075 O 197.036 -4.94682 -2.81564 0
M  V30 2076 N 198.238 -3.83795 -4.35524 0
M  V30 2077 H 201.003 -2.97307 -0.377964 0
M  V30 2078 H 198.564 -1.61792 -0.0590011 0
M  V30 2079 H 200.556 -2.81826 -2.90441 0
M  V30 2080 H 199.126 -1.81974 -2.54174 0
M  V30 2081 H 198.346 -3.80185 -1.04177 0
M  V30 2082 H 199.634 -4.76283 -1.78976 0
M  V30 2083 H 199.032 -3.2839 -4.60626 0
M  V30 2084 H 197.589 -4.09008 -5.07499 0
M  V30 2085 N 201.022 0.148545 -1.56898 0
M  V30 2086 C 201.985 1.16736 -1.97244 0
M  V30 2087 C 202.985 1.35947 -0.858777 0
M  V30 2088 O 204.175 1.32966 -1.12542 0
M  V30 2089 C 201.307 2.52798 -2.28705 0
M  V30 2090 H 202.5 0.821279 -2.88435 0
M  V30 2091 H 200.053 0.391831 -1.51309 0
M  V30 2092 H 200.788 2.92381 -1.403 0
M  V30 2093 H 200.573 2.40216 -3.09901 0
M  V30 2094 H 202.063 3.26179 -2.60762 0
M  V30 2095 N 202.5 1.5196 0.417844 0
M  V30 2096 C 203.749 1.6482 1.16264 0
M  V30 2097 C 204.062 0.379886 1.91876 0
M  V30 2098 O 205.268 0.388154 2.68711 0
M  V30 2099 C 203.724 2.91161 2.1155 0
M  V30 2100 C 203.332 4.25068 1.41495 0
M  V30 2101 C 205.076 3.13383 2.86341 0
M  V30 2102 C 202.983 5.42541 2.35379 0
M  V30 2103 H 201.913 0.613954 0.437694 0
M  V30 2104 H 204.564 1.78442 0.427871 0
M  V30 2105 H 202.946 2.71218 2.88543 0
M  V30 2106 H 204.12 4.55463 0.699263 0
M  V30 2107 H 202.435 4.0888 0.787792 0
M  V30 2108 H 205.032 3.98324 3.5671 0
M  V30 2109 H 205.375 2.27256 3.48798 0
M  V30 2110 H 205.908 3.33757 2.1645 0
M  V30 2111 H 202.647 6.30987 1.77582 0
M  V30 2112 H 202.167 5.16497 3.04945 0
M  V30 2113 H 203.846 5.75272 2.96093 0
M  V30 2114 N 203.978 -0.674533 1.42435 0
M  V30 2115 C 204.908 -1.80009 1.48724 0
M  V30 2116 C 205.889 -1.6659 0.343793 0
M  V30 2117 O 207.074 -1.86007 0.558137 0
M  V30 2118 C 204.204 -3.18306 1.38919 0
M  V30 2119 C 203.158 -3.46461 2.51294 0
M  V30 2120 C 202.484 -4.84335 2.26547 0
M  V30 2121 C 203.784 -3.43328 3.93603 0
M  V30 2122 H 205.478 -1.75004 2.42928 0
M  V30 2123 H 203.024 -0.840533 1.16923 0
M  V30 2124 H 204.977 -3.9678 1.41927 0
M  V30 2125 H 203.701 -3.2399 0.412094 0
M  V30 2126 H 202.36 -2.70348 2.47604 0
M  V30 2127 H 202.008 -4.86669 1.2713 0
M  V30 2128 H 201.708 -5.04136 3.01861 0
M  V30 2129 H 203.232 -5.65094 2.31304 0
M  V30 2130 H 204.646 -4.11772 3.98894 0
M  V30 2131 H 203.043 -3.74664 4.68771 0
M  V30 2132 H 204.113 -2.41897 4.20255 0
M  V30 2133 N 205.456 -1.28612 -0.910864 0
M  V30 2134 C 206.733 -1.06632 -1.63979 0
M  V30 2135 C 207.113 0.393351 -2.07403 0
M  V30 2136 O 206.461 1.37999 -1.82122 0
M  V30 2137 C 206.671 -2.0436 -2.8291 0
M  V30 2138 C 208.019 -2.34666 -3.5386 0
M  V30 2139 O 209.043 -2.02467 -2.93062 0
M  V30 2140 O 207.902 -2.89631 -4.63439 0
M  V30 2141 H 204.996 -0.407737 -0.7195 0
M  V30 2142 H 207.542 -1.39942 -0.959914 0
M  V30 2143 H 206.314 -3.02727 -2.47936 0
M  V30 2144 H 205.937 -1.71714 -3.58609 0
M  V30 2145 N 206.934 1.1197 -1.10907 0
M  V30 2146 C 207.897 2.16031 -0.765707 0
M  V30 2147 C 208.897 1.59393 0.212235 0
M  V30 2148 O 210.087 1.74196 -0.0115441 0
M  V30 2149 C 207.219 3.40632 -0.135053 0
M  V30 2150 H 208.412 2.47919 -1.68748 0
M  V30 2151 H 205.965 1.27061 -0.910226 0
M  V30 2152 H 206.7 3.14348 0.797218 0
M  V30 2153 H 206.485 3.8302 -0.838937 0
M  V30 2154 H 207.975 4.17505 0.0892469 0
M  V30 2155 N 208.412 0.89855 1.29475 0
M  V30 2156 C 209.658 0.524658 1.95896 0
M  V30 2157 C 209.991 -0.926468 1.70676 0
M  V30 2158 O 209.266 -1.65665 1.01908 0
M  V30 2159 C 209.549 0.81633 3.50725 0
M  V30 2160 C 209.402 2.31907 3.85408 0
M  V30 2161 C 210.721 0.302038 4.39062 0
M  V30 2162 H 207.84 0.19209 0.711527 0
M  V30 2163 H 210.482 1.12502 1.53112 0
M  V30 2164 H 208.632 0.305369 3.87298 0
M  V30 2165 H 210.304 2.89949 3.58786 0
M  V30 2166 H 208.547 2.78027 3.32992 0
M  V30 2167 H 209.218 2.47373 4.93468 0
M  V30 2168 H 211.694 0.739551 4.09475 0
M  V30 2169 H 210.57 0.535331 5.46283 0
M  V30 2170 H 210.831 -0.797216 4.34853 0
M  V30 2171 N 209.89 -1.43072 0.660911 0
M  V30 2172 C 210.853 -2.29194 -0.0166406 0
M  V30 2173 C 211.853 -1.42609 -0.742912 0
M  V30 2174 O 213.043 -1.64155 -0.583004 0
M  V30 2175 C 210.175 -3.24831 -1.0343 0
M  V30 2176 H 211.368 -2.90596 0.741208 0
M  V30 2177 H 208.921 -1.5048 0.422532 0
M  V30 2178 H 209.656 -2.68339 -1.82111 0
M  V30 2179 H 209.441 -3.88676 -0.517082 0
M  V30 2180 H 210.931 -3.89451 -1.50723 0
M  V30 2181 N 211.368 -0.403325 -1.52352 0
M  V30 2182 C 212.315 0.425011 -2.26853 0
M  V30 2183 C 213.285 1.04598 -1.29029 0
M  V30 2184 O 214.47 1.07135 -1.57882 0
M  V30 2185 C 211.61 1.53888 -3.08889 0
M  V30 2186 C 210.723 0.939396 -4.21663 0
M  V30 2187 C 209.858 2.02547 -4.91068 0
M  V30 2188 C 208.897 1.40263 -5.95813 0
M  V30 2189 N 208.034 2.4286 -6.58759 0
M  V30 2190 H 212.874 -0.21674 -2.97211 0
M  V30 2191 H 210.411 -0.118722 -1.4662 0
M  V30 2192 H 212.369 2.19558 -3.54753 0
M  V30 2193 H 210.999 2.15074 -2.40714 0
M  V30 2194 H 210.051 0.171898 -3.80011 0
M  V30 2195 H 211.363 0.44436 -4.96817 0
M  V30 2196 H 210.517 2.75958 -5.40308 0
M  V30 2197 H 209.256 2.55415 -4.15469 0
M  V30 2198 H 208.261 0.653833 -5.45898 0
M  V30 2199 H 209.486 0.881719 -6.73352 0
M  V30 2200 H 207.432 2.94871 -5.85992 0
M  V30 2201 H 207.349 1.98152 -7.2957 0
M  V30 2202 H 208.617 3.15858 -7.12639 0
M  V30 2203 N 212.846 1.57033 -0.133567 0
M  V30 2204 C 214.074 2.00044 0.528195 0
M  V30 2205 C 214.489 1.01349 1.59291 0
M  V30 2206 O 213.846 0.00848369 1.82498 0
M  V30 2207 C 213.897 3.43018 1.1411 0
M  V30 2208 O 213.618 4.37939 0.11892 0
M  V30 2209 C 215.119 4.01237 1.88477 0
M  V30 2210 H 212.339 0.656517 0.138661 0
M  V30 2211 H 214.883 2.03267 -0.224196 0
M  V30 2212 H 213.038 3.40688 1.84418 0
M  V30 2213 H 213.452 5.21436 0.56613 0
M  V30 2214 H 214.926 5.03314 2.26669 0
M  V30 2215 H 215.403 3.41193 2.76558 0
M  V30 2216 H 216.009 4.07156 1.22898 0
M  V30 2217 N 214.325 -0.140222 1.56975 0
M  V30 2218 C 215.741 -0.493088 1.51792 0
M  V30 2219 C 215.941 -1.83013 0.843116 0
M  V30 2220 O 214.997 -2.49041 0.416493 0
M  V30 2221 C 216.31 -0.497144 2.96562 0
M  V30 2222 C 217.858 -0.582186 3.07538 0
M  V30 2223 C 218.333 -0.616838 4.53827 0
M  V30 2224 N 219.824 -0.678873 4.58198 0
M  V30 2225 C 220.559 -0.726782 5.68775 0
M  V30 2226 N 220.055 -0.733623 6.88905 0
M  V30 2227 N 221.848 -0.768179 5.56826 0
M  V30 2228 H 213.999 0.736108 1.99237 0
M  V30 2229 H 216.262 0.269182 0.90898 0
M  V30 2230 H 215.968 0.417217 3.49217 0
M  V30 2231 H 215.842 -1.33263 3.52875 0
M  V30 2232 H 218.229 -1.48697 2.54899 0
M  V30 2233 H 218.31 0.280581 2.54257 0
M  V30 2234 H 217.954 0.283812 5.07106 0
M  V30 2235 H 217.884 -1.49619 5.04898 0
M  V30 2236 H 220.375 -0.68061 3.7172 0
M  V30 2237 H 220.688 -0.772215 7.68932 0
M  V30 2238 H 219.033 -0.701389 6.91452 0
M  V30 2239 H 222.224 -0.760051 4.61888 0
M  V30 2240 H 222.397 -0.80205 6.43017 0
M  V30 2241 N 215.803 -1.52179 -0.40978 0
M  V30 2242 C 216.75 -1.75475 -1.49924 0
M  V30 2243 C 217.72 -0.597175 -1.54994 0
M  V30 2244 O 218.905 -0.834655 -1.71575 0
M  V30 2245 C 216.045 -1.9107 -2.87378 0
M  V30 2246 C 215.158 -3.18717 -2.91622 0
M  V30 2247 C 214.293 -3.24747 -4.20372 0
M  V30 2248 C 213.332 -4.46598 -4.18588 0
M  V30 2249 N 212.469 -4.50025 -5.38908 0
M  V30 2250 H 217.309 -2.68458 -1.29361 0
M  V30 2251 H 214.846 -1.33024 -0.627934 0
M  V30 2252 H 216.804 -1.98096 -3.6717 0
M  V30 2253 H 215.434 -1.01469 -3.06437 0
M  V30 2254 H 214.486 -3.20866 -2.04326 0
M  V30 2255 H 215.798 -4.08544 -2.86169 0
M  V30 2256 H 214.952 -3.30841 -5.08556 0
M  V30 2257 H 213.691 -2.32857 -4.28519 0
M  V30 2258 H 212.696 -4.40652 -3.28794 0
M  V30 2259 H 213.921 -5.39783 -4.12081 0
M  V30 2260 H 211.867 -3.61017 -5.47725 0
M  V30 2261 H 211.784 -5.33697 -5.35447 0
M  V30 2262 H 213.052 -4.60347 -6.29048 0
M  V30 2263 N 217.281 0.66697 -1.42791 0
M  V30 2264 C 218.527 1.4291 -1.43891 0
M  V30 2265 C 218.86 1.94114 -0.0578972 0
M  V30 2266 O 218.135 1.71414 0.91911 0
M  V30 2267 C 218.418 2.62049 -2.46987 0
M  V30 2268 C 218.271 2.16426 -3.94309 0
M  V30 2269 C 219.59 3.64266 -2.46978 0
M  V30 2270 H 216.709 0.518306 -0.523954 0
M  V30 2271 H 219.351 0.757321 -1.74255 0
M  V30 2272 H 217.501 3.19361 -2.21225 0
M  V30 2273 H 219.173 1.64221 -4.31079 0
M  V30 2274 H 217.416 1.47925 -4.078 0
M  V30 2275 H 218.087 3.02038 -4.62036 0
M  V30 2276 H 220.563 3.16686 -2.69906 0
M  V30 2277 H 219.439 4.45196 -3.21079 0
M  V30 2278 H 219.7 4.15927 -1.49857 0
M  V30 2279 N 218.759 1.29093 0.90403 0
M  V30 2280 C 219.987 1.19689 1.68766 0
M  V30 2281 C 220.402 -0.243113 1.87228 0
M  V30 2282 O 219.759 -1.16326 1.40621 0
M  V30 2283 C 219.81 1.90144 3.07453 0
M  V30 2284 O 219.531 3.2852 2.89838 0
M  V30 2285 C 221.032 1.87162 4.01852 0
M  V30 2286 H 218.252 0.415035 0.527244 0
M  V30 2287 H 220.796 1.7039 1.13082 0
M  V30 2288 H 218.951 1.43289 3.59926 0
M  V30 2289 H 219.365 3.63944 3.77684 0
M  V30 2290 H 220.839 2.41032 4.96596 0
M  V30 2291 H 221.316 0.84617 4.30972 0
M  V30 2292 H 221.922 2.33741 3.5531 0
M  V30 2293 N 220.237 -1.11381 1.11499 0
M  V30 2294 C 221.17 -2.16621 0.71769 0
M  V30 2295 C 222.148 -1.60058 -0.286413 0
M  V30 2296 O 223.332 -1.87613 -0.182689 0
M  V30 2297 C 220.459 -3.38646 0.0607265 0
M  V30 2298 C 219.505 -4.13874 1.03008 0
M  V30 2299 S 220.338 -4.70731 2.55289 0
M  V30 2300 C 221.494 -5.96079 1.90895 0
M  V30 2301 H 221.727 -2.49987 1.60915 0
M  V30 2302 H 219.26 -1.23015 0.933092 0
M  V30 2303 H 221.218 -4.09313 -0.311965 0
M  V30 2304 H 219.879 -3.03537 -0.807702 0
M  V30 2305 H 219.072 -5.01333 0.517853 0
M  V30 2306 H 218.674 -3.4897 1.34522 0
M  V30 2307 H 220.966 -6.65948 1.24577 0
M  V30 2308 H 221.909 -6.51946 2.76354 0
M  V30 2309 H 222.317 -5.47652 1.36885 0
M  V30 2310 N 221.715 -0.905404 -1.28997 0
M  V30 2311 C 222.678 -0.392253 -2.25819 0
M  V30 2312 C 223.678 0.476753 -1.5357 0
M  V30 2313 O 224.868 0.280994 -1.71919 0
M  V30 2314 C 222 0.438588 -3.38067 0
M  V30 2315 H 223.193 -1.24743 -2.72725 0
M  V30 2316 H 220.746 -0.684051 -1.40536 0
M  V30 2317 H 221.481 1.31352 -2.96508 0
M  V30 2318 H 221.266 -0.184167 -3.91667 0
M  V30 2319 H 222.756 0.78873 -4.10084 0
M  V30 2320 N 223.193 1.4272 -0.668489 0
M  V30 2321 C 224.103 2.34596 0.0139753 0
M  V30 2322 C 225.119 1.5474 0.795703 0
M  V30 2323 O 226.295 1.87334 0.739466 0
M  V30 2324 C 223.36 3.33202 0.957982 0
M  V30 2325 C 222.421 4.28957 0.17149 0
M  V30 2326 C 221.654 5.22853 1.07053 0
M  V30 2327 O 221.877 5.21531 2.31001 0
M  V30 2328 O 220.811 5.9952 0.534727 0
M  V30 2329 H 224.637 2.9448 -0.742661 0
M  V30 2330 H 222.222 1.43117 -0.428705 0
M  V30 2331 H 224.104 3.93796 1.50008 0
M  V30 2332 H 222.779 2.758 1.69458 0
M  V30 2333 H 221.686 3.71796 -0.414558 0
M  V30 2334 H 223.019 4.89383 -0.52586 0
M  V30 2335 N 224.671 0.411399 1.52136 0
M  V30 2336 C 225.917 -0.163888 2.02137 0
M  V30 2337 C 226.25 -1.44597 1.29636 0
M  V30 2338 O 225.525 -1.90272 0.403353 0
M  V30 2339 C 225.808 -0.40927 3.57767 0
M  V30 2340 C 225.661 0.889643 4.40914 0
M  V30 2341 C 226.98 -1.19042 4.23694 0
M  V30 2342 H 224.099 -0.0580896 0.734707 0
M  V30 2343 H 226.741 0.54531 1.82007 0
M  V30 2344 H 224.891 -1.0134 3.7505 0
M  V30 2345 H 226.563 1.52575 4.35337 0
M  V30 2346 H 224.806 1.50011 4.07037 0
M  V30 2347 H 225.477 0.672314 5.4789 0
M  V30 2348 H 227.953 -0.678942 4.10524 0
M  V30 2349 H 226.829 -1.33086 5.32522 0
M  V30 2350 H 227.09 -2.21166 3.82803 0
M  V30 2351 N 226.149 -1.5696 0.141893 0
M  V30 2352 C 227.398 -1.95135 -0.510427 0
M  V30 2353 C 227.711 -1.02896 -1.66348 0
M  V30 2354 O 228.917 -1.30629 -2.38009 0
M  V30 2355 C 227.373 -3.46876 -0.959427 0
M  V30 2356 C 226.981 -4.47691 0.166419 0
M  V30 2357 C 228.725 -3.93927 -1.58183 0
M  V30 2358 C 226.632 -5.90636 -0.300565 0
M  V30 2359 H 225.562 -0.728494 -0.194454 0
M  V30 2360 H 228.213 -1.8211 0.22542 0
M  V30 2361 H 226.595 -3.55215 -1.75038 0
M  V30 2362 H 227.769 -4.51043 0.94325 0
M  V30 2363 H 226.084 -4.10527 0.696905 0
M  V30 2364 H 228.681 -4.98158 -1.94275 0
M  V30 2365 H 229.024 -3.3519 -2.46888 0
M  V30 2366 H 229.557 -3.88484 -0.855863 0
M  V30 2367 H 226.296 -6.5318 0.550989 0
M  V30 2368 H 225.816 -5.90655 -1.04338 0
M  V30 2369 H 227.495 -6.42588 -0.754265 0
M  V30 2370 N 227.627 0.131896 -1.57047 0
M  V30 2371 C 229.043 0.485031 -1.52051 0
M  V30 2372 C 229.243 1.82563 -0.85281 0
M  V30 2373 O 228.299 2.48817 -0.429694 0
M  V30 2374 C 229.612 0.481409 -2.96821 0
M  V30 2375 C 231.16 0.565868 -3.07842 0
M  V30 2376 C 231.635 0.592762 -4.54148 0
M  V30 2377 N 233.126 0.654564 -4.58552 0
M  V30 2378 C 233.861 0.696608 -5.69153 0
M  V30 2379 N 233.357 0.697078 -6.89284 0
M  V30 2380 N 235.15 0.738639 -5.57226 0
M  V30 2381 H 227.301 -0.746664 -1.98843 0
M  V30 2382 H 229.564 -0.273999 -0.90754 0
M  V30 2383 H 229.27 -0.435731 -3.4899 0
M  V30 2384 H 229.144 1.3139 -3.53577 0
M  V30 2385 H 231.531 1.47343 -2.55684 0
M  V30 2386 H 231.612 -0.29406 -2.54104 0
M  V30 2387 H 231.256 -0.310701 -5.06949 0
M  V30 2388 H 231.186 1.46939 -5.05684 0
M  V30 2389 H 233.677 0.660887 -3.72076 0
M  V30 2390 H 233.99 0.731426 -7.69331 0
M  V30 2391 H 232.335 0.66471 -6.91814 0
M  V30 2392 H 235.526 0.735545 -4.62285 0
M  V30 2393 H 235.699 0.767938 -6.43434 0
M  V30 2394 N 229.106 1.52395 0.401703 0
M  V30 2395 C 230.383 1.57387 1.16141 0
M  V30 2396 C 230.763 0.359359 2.08019 0
M  V30 2397 O 230.111 -0.65326 2.18963 0
M  V30 2398 C 230.321 2.90631 1.93221 0
M  V30 2399 C 231.669 3.43904 2.49028 0
M  V30 2400 O 232.693 2.92421 2.03393 0
M  V30 2401 O 231.552 4.33823 3.32356 0
M  V30 2402 H 228.646 0.634262 0.530698 0
M  V30 2403 H 231.192 1.64725 0.407883 0
M  V30 2404 H 229.964 3.70473 1.25958 0
M  V30 2405 H 229.587 2.8662 2.75563 0
M  V30 2406 N 230.584 -0.659388 1.43143 0
M  V30 2407 C 231.494 -1.80167 1.50256 0
M  V30 2408 C 232.51 -1.69571 0.390106 0
M  V30 2409 O 233.686 -1.90849 0.643319 0
M  V30 2410 C 230.751 -3.16409 1.41725 0
M  V30 2411 C 229.812 -3.38848 2.63591 0
M  V30 2412 C 229.045 -4.68591 2.55458 0
M  V30 2413 O 229.268 -5.47532 1.59891 0
M  V30 2414 O 228.202 -4.92614 3.45854 0
M  V30 2415 H 232.028 -1.77121 2.46702 0
M  V30 2416 H 229.613 -0.817092 1.25076 0
M  V30 2417 H 231.495 -3.9768 1.39387 0
M  V30 2418 H 230.17 -3.20059 0.484118 0
M  V30 2419 H 229.077 -2.57366 2.71502 0
M  V30 2420 H 230.41 -3.4004 3.55856 0
M  V30 2421 N 232.062 -1.29571 -0.897171 0
M  V30 2422 C 233.292 -1.20408 -1.67886 0
M  V30 2423 C 233.7 0.237429 -1.87704 0
M  V30 2424 O 233.043 1.17048 -1.41582 0
M  V30 2425 C 233.105 -1.84887 -3.08314 0
M  V30 2426 C 232.769 -3.34189 -3.11716 0
M  V30 2427 C 233.766 -4.30374 -2.91675 0
M  V30 2428 C 231.451 -3.75431 -3.33701 0
M  V30 2429 C 233.445 -5.65776 -2.93557 0
M  V30 2430 C 231.132 -5.10955 -3.35214 0
M  V30 2431 C 232.13 -6.05938 -3.15164 0
M  V30 2432 O 231.818 -7.38987 -3.1647 0
M  V30 2433 H 231.55 -0.418289 -0.531046 0
M  V30 2434 H 234.104 -1.71514 -1.13014 0
M  V30 2435 H 232.334 -1.28295 -3.64798 0
M  V30 2436 H 234.023 -1.70011 -3.6858 0
M  V30 2437 H 234.789 -3.99844 -2.74499 0
M  V30 2438 H 230.668 -3.01953 -3.48347 0
M  V30 2439 H 234.212 -6.39889 -2.77826 0
M  V30 2440 H 230.109 -5.4113 -3.51922 0
M  V30 2441 H 230.877 -7.47823 -3.3272 0
M  V30 2442 N 233.54 1.10788 -1.12088 0
M  V30 2443 C 234.488 2.19111 -0.780587 0
M  V30 2444 C 235.482 1.67818 0.230961 0
M  V30 2445 O 236.688 1.79777 0.0895427 0
M  V30 2446 H 233.063 0.714477 -0.234578 0
M  V30 2447 H 235.034 2.45055 -1.70266 0
M  V30 2448 C 233.783 3.46818 -0.24747 0
M  V30 2449 H 233.106 3.86646 -1.01712 0
M  V30 2450 H 234.546 4.23973 -0.0476291 0
M  V30 2451 C 233.005 3.20968 1.02378 0
M  V30 2452 O 233.535 3.42298 2.10226 0
M  V30 2453 N 231.741 2.74658 0.949271 0
M  V30 2454 H 231.288 2.57501 0.0715173 0
M  V30 2455 H 231.246 2.57739 1.80049 0
M  V30 2456 N 235.018 0.912232 1.28515 0
M  V30 2457 C 236.429 0.591352 1.77087 0
M  V30 2458 C 236.78 -0.8933 1.74684 0
M  V30 2459 O 235.905 -1.69876 1.34056 0
M  V30 2460 C 236.5 1.06668 3.2157 0
M  V30 2461 C 235.059 0.79675 3.67871 0
M  V30 2462 C 234.206 1.23427 2.48316 0
M  V30 2463 H 237.157 1.09365 1.15 0
M  V30 2464 H 237.178 0.407455 3.78312 0
M  V30 2465 H 236.69 2.14726 3.23287 0
M  V30 2466 H 234.791 -0.270679 3.71616 0
M  V30 2467 H 234.904 1.40343 4.58084 0
M  V30 2468 H 233.268 0.653036 2.46186 0
M  V30 2469 H 234.051 2.32316 2.52753 0
M  V30 2470 N 236.496 -1.42363 0.676048 0
M  V30 2471 C 237.744 -2.01123 0.198437 0
M  V30 2472 C 238.065 -1.53731 -1.19966 0
M  V30 2473 O 237.335 -0.759518 -1.80577 0
M  V30 2474 H 235.915 -0.743678 0.0703721 0
M  V30 2475 H 238.577 -1.74263 0.872837 0
M  V30 2476 H 237.673 -3.11454 0.200686 0
M  V30 2477 N 237.974 -0.419461 -1.51915 0
M  V30 2478 C 238.937 0.389116 -2.25873 0
M  V30 2479 C 239.937 0.964924 -1.28631 0
M  V30 2480 O 241.127 0.842179 -1.52489 0
M  V30 2481 C 238.259 1.54874 -3.03689 0
M  V30 2482 H 239.452 -0.258799 -2.98781 0
M  V30 2483 H 237.005 -0.172209 -1.55348 0
M  V30 2484 H 237.74 2.23323 -2.35154 0
M  V30 2485 H 237.525 1.14223 -3.75094 0
M  V30 2486 H 239.015 2.12046 -3.59759 0
M  V30 2487 N 239.452 1.56882 -0.150215 0
M  V30 2488 C 240.362 2.20494 0.801222 0
M  V30 2489 C 241.378 1.19019 1.26927 0
M  V30 2490 O 242.554 1.51607 1.32579 0
M  V30 2491 C 239.619 2.81659 2.02161 0
M  V30 2492 C 238.68 3.9827 1.60249 0
M  V30 2493 C 237.913 4.56508 2.7647 0
M  V30 2494 O 238.136 4.13627 3.92771 0
M  V30 2495 O 237.07 5.46719 2.51757 0
M  V30 2496 H 240.896 3.02315 0.289717 0
M  V30 2497 H 238.481 1.49202 0.0769684 0
M  V30 2498 H 240.363 3.20522 2.73576 0
M  V30 2499 H 239.038 2.02849 2.52258 0
M  V30 2500 H 237.945 3.64117 0.858477 0
M  V30 2501 H 239.278 4.78609 1.14864 0
M  V30 2502 N 240.93 -0.123565 1.57115 0
M  V30 2503 C 242.179 -0.830704 1.83799 0
M  V30 2504 C 242.492 -1.81259 0.735158 0
M  V30 2505 O 243.698 -2.56558 0.888278 0
M  V30 2506 C 242.154 -1.52802 3.25852 0
M  V30 2507 C 241.762 -0.587356 4.44133 0
M  V30 2508 C 243.506 -2.22056 3.61789 0
M  V30 2509 C 241.413 -1.28764 5.77212 0
M  V30 2510 H 240.343 -0.313967 0.685522 0
M  V30 2511 H 242.994 -0.0834359 1.8331 0
M  V30 2512 H 241.376 -2.32175 3.20797 0
M  V30 2513 H 242.55 0.172829 4.60476 0
M  V30 2514 H 240.865 -0.00201892 4.164 0
M  V30 2515 H 243.462 -2.75131 4.58483 0
M  V30 2516 H 243.805 -2.99644 2.88997 0
M  V30 2517 H 244.338 -1.49576 3.68608 0
M  V30 2518 H 241.077 -0.55314 6.53162 0
M  V30 2519 H 240.597 -2.01995 5.64764 0
M  V30 2520 H 242.276 -1.8221 6.20813 0
M  V30 2521 N 242.408 -1.52605 -0.393616 0
M  V30 2522 C 243.356 -1.77688 -1.50099 0
M  V30 2523 C 244.35 -0.644615 -1.56656 0
M  V30 2524 O 245.556 -0.826997 -1.59877 0
M  V30 2525 H 241.931 -0.562159 -0.499481 0
M  V30 2526 H 243.902 -2.7043 -1.26135 0
M  V30 2527 C 242.651 -1.95858 -2.87289 0
M  V30 2528 H 241.974 -2.8241 -2.82992 0
M  V30 2529 H 243.414 -2.174 -3.64024 0
M  V30 2530 C 241.873 -0.729848 -3.28899 0
M  V30 2531 O 242.403 0.0949217 -4.01588 0
M  V30 2532 N 240.609 -0.561283 -2.85128 0
M  V30 2533 H 240.156 -1.23357 -2.26143 0
M  V30 2534 H 240.114 0.2595 -3.13327 0
M  V30 2535 N 243.887 0.651787 -1.4349 0
M  V30 2536 C 244.85 1.74647 -1.48429 0
M  V30 2537 C 245.85 1.56513 -0.368817 0
M  V30 2538 O 247.04 1.62385 -0.630623 0
M  V30 2539 C 244.172 3.13533 -1.33827 0
M  V30 2540 H 245.365 1.71649 -2.4592 0
M  V30 2541 H 242.918 0.863573 -1.30277 0
M  V30 2542 H 243.653 3.22142 -0.37349 0
M  V30 2543 H 243.438 3.28101 -2.14691 0
M  V30 2544 H 244.928 3.93356 -1.40218 0
M  V30 2545 N 245.365 1.30045 0.890287 0
M  V30 2546 C 246.611 1.18737 1.64406 0
M  V30 2547 C 246.944 -0.258525 1.92472 0
M  V30 2548 O 246.219 -1.18562 1.54186 0
M  V30 2549 C 246.502 2.01087 2.98724 0
M  V30 2550 C 246.355 3.53867 2.77665 0
M  V30 2551 C 247.674 1.84457 3.9958 0
M  V30 2552 H 244.793 0.432698 0.596608 0
M  V30 2553 H 247.435 1.5962 1.0306 0
M  V30 2554 H 245.585 1.66349 3.51084 0
M  V30 2555 H 247.257 3.98637 2.32133 0
M  V30 2556 H 245.5 3.78318 2.12269 0
M  V30 2557 H 246.171 4.06772 3.7315 0
M  V30 2558 H 248.647 2.14817 3.56361 0
M  V30 2559 H 247.523 2.44411 4.91482 0
M  V30 2560 H 247.784 0.802276 4.3476 0
M  V30 2561 N 246.843 -1.10192 1.12674 0
M  V30 2562 C 248.254 -1.63707 0.897604 0
M  V30 2563 C 248.605 -1.87812 -0.567546 0
M  V30 2564 O 247.73 -1.62196 -1.43253 0
M  V30 2565 C 248.325 -2.974 1.62292 0
M  V30 2566 C 246.884 -3.47772 1.43986 0
M  V30 2567 C 246.031 -2.22332 1.65722 0
M  V30 2568 H 248.982 -0.936587 1.28116 0
M  V30 2569 H 249.003 -3.64986 1.07541 0
M  V30 2570 H 248.515 -2.79824 2.68924 0
M  V30 2571 H 246.616 -3.70487 0.396206 0
M  V30 2572 H 246.729 -4.25723 2.19765 0
M  V30 2573 H 245.093 -2.30599 1.08149 0
M  V30 2574 H 245.876 -2.07285 2.73657 0
M  V30 2575 N 248.321 -0.919034 -1.28029 0
M  V30 2576 C 249.567 -0.555757 -1.95036 0
M  V30 2577 C 249.9 0.899198 -1.72128 0
M  V30 2578 O 249.175 1.64023 -1.04531 0
M  V30 2579 C 249.458 -0.872024 -3.49382 0
M  V30 2580 C 249.311 -2.3801 -3.81669 0
M  V30 2581 C 250.63 -0.37185 -4.38526 0
M  V30 2582 H 247.749 -0.203386 -0.708381 0
M  V30 2583 H 250.391 -1.14924 -1.51303 0
M  V30 2584 H 248.541 -0.366946 -3.86763 0
M  V30 2585 H 250.213 -2.9562 -3.54128 0
M  V30 2586 H 248.456 -2.83289 -3.28526 0
M  V30 2587 H 249.127 -2.55192 -4.8947 0
M  V30 2588 H 251.603 -0.804602 -4.08247 0
M  V30 2589 H 250.479 -0.622173 -5.45362 0
M  V30 2590 H 250.74 0.727934 -4.36066 0
M  V30 2591 N 249.799 1.42003 -0.683588 0
M  V30 2592 C 251.046 2.01413 -0.209514 0
M  V30 2593 C 251.374 1.54088 1.1869 0
M  V30 2594 O 250.629 0.737591 1.81268 0
M  V30 2595 C 250.928 3.56827 -0.202357 0
M  V30 2596 C 250.594 4.23617 -1.54464 0
M  V30 2597 C 249.256 4.41577 -1.91215 0
M  V30 2598 C 251.608 4.61178 -2.42826 0
M  V30 2599 C 248.936 4.9437 -3.15935 0
M  V30 2600 C 251.288 5.15355 -3.66867 0
M  V30 2601 C 249.952 5.31528 -4.03776 0
M  V30 2602 H 249.222 0.737023 -0.0766668 0
M  V30 2603 H 251.869 1.70067 -0.880312 0
M  V30 2604 H 250.174 3.87892 0.551969 0
M  V30 2605 H 251.871 4.00588 0.181793 0
M  V30 2606 H 248.461 4.10004 -1.24877 0
M  V30 2607 H 252.645 4.46968 -2.15717 0
M  V30 2608 H 247.901 5.05076 -3.44541 0
M  V30 2609 H 252.075 5.43402 -4.35531 0
M  V30 2610 H 249.702 5.72199 -5.00492 0
M  V30 2611 N 251.277 0.427512 1.51691 0
M  V30 2612 C 252.24 -0.377132 2.26076 0
M  V30 2613 C 253.24 -0.958089 1.29141 0
M  V30 2614 O 254.43 -0.83408 1.52934 0
M  V30 2615 C 251.562 -1.53262 3.04506 0
M  V30 2616 H 252.755 0.27464 2.9864 0
M  V30 2617 H 250.308 0.180445 1.55255 0
M  V30 2618 H 251.043 -2.22072 2.36335 0
M  V30 2619 H 250.828 -1.12232 3.75694 0
M  V30 2620 H 252.318 -2.10135 3.60878 0
M  V30 2621 N 252.755 -1.56801 0.158532 0
M  V30 2622 C 253.687 -2.14488 -0.807923 0
M  V30 2623 C 254.7 -1.09721 -1.20271 0
M  V30 2624 O 255.889 -1.36956 -1.14478 0
M  V30 2625 C 252.989 -2.66217 -2.09718 0
M  V30 2626 C 252.162 -3.95507 -1.86796 0
M  V30 2627 C 251.221 -4.3243 -2.99818 0
M  V30 2628 O 250.247 -5.00543 -2.71008 0
M  V30 2629 N 251.449 -3.92947 -4.27285 0
M  V30 2630 H 254.214 -2.98042 -0.314816 0
M  V30 2631 H 251.775 -1.61881 -0.0246692 0
M  V30 2632 H 253.767 -2.87924 -2.84398 0
M  V30 2633 H 252.337 -1.87324 -2.50257 0
M  V30 2634 H 251.557 -3.82309 -0.96089 0
M  V30 2635 H 252.845 -4.79972 -1.68833 0
M  V30 2636 H 252.243 -3.38087 -4.53557 0
M  V30 2637 H 250.8 -4.19681 -4.9871 0
M  V30 2638 N 254.233 0.115231 -1.57178 0
M  V30 2639 C 255.458 0.840354 -1.89612 0
M  V30 2640 C 255.883 1.72464 -0.750845 0
M  V30 2641 O 255.241 1.78826 0.298478 0
M  V30 2642 C 255.289 1.64654 -3.20814 0
M  V30 2643 O 254.393 2.7538 -3.06985 0
M  V30 2644 H 253.734 0.232158 -0.622092 0
M  V30 2645 H 256.264 0.0964977 -2.04372 0
M  V30 2646 H 256.274 2.03499 -3.53627 0
M  V30 2647 H 254.949 0.997416 -4.03763 0
M  V30 2648 H 253.526 2.3971 -2.85646 0
M  V30 2649 N 255.711 1.52812 0.385517 0
M  V30 2650 C 256.959 1.67694 1.12797 0
M  V30 2651 C 257.28 0.421115 1.90399 0
M  V30 2652 O 256.55 -0.564551 1.87589 0
M  V30 2653 H 255.13 0.618155 0.419396 0
M  V30 2654 H 257.792 1.89938 0.436972 0
M  V30 2655 H 256.888 2.52896 1.82894 0
M  V30 2656 N 257.189 -0.644168 1.43834 0
M  V30 2657 C 258.466 -1.40188 1.36406 0
M  V30 2658 C 258.846 -2.11094 0.0163124 0
M  V30 2659 O 258.194 -2.05426 -1.00062 0
M  V30 2660 C 258.404 -2.3791 2.55343 0
M  V30 2661 C 259.752 -3.01637 2.98832 0
M  V30 2662 O 260.776 -2.48237 2.55455 0
M  V30 2663 O 259.635 -3.98477 3.74003 0
M  V30 2664 H 256.729 -0.626773 0.539523 0
M  V30 2665 H 259.275 -0.670317 1.559 0
M  V30 2666 H 258.047 -1.84525 3.4506 0
M  V30 2667 H 257.67 -3.18503 2.37995 0
M  V30 2668 N 258.668 -1.30515 -0.883378 0
M  V30 2669 C 259.945 -1.10086 -1.6168 0
M  V30 2670 C 260.325 0.349269 -2.08191 0
M  V30 2671 O 259.673 1.34105 -1.85008 0
M  V30 2672 C 259.883 -2.10315 -2.78511 0
M  V30 2673 C 261.231 -2.42119 -3.48803 0
M  V30 2674 O 262.255 -2.08638 -2.88702 0
M  V30 2675 O 261.114 -2.99396 -4.57192 0
M  V30 2676 H 258.208 -0.422907 -0.710689 0
M  V30 2677 H 260.754 -1.41947 -0.930015 0
M  V30 2678 H 259.526 -3.07917 -2.41459 0
M  V30 2679 H 259.149 -1.79282 -3.54886 0
M  V30 2680 N 260.146 1.09593 -1.13257 0
M  V30 2681 C 261.562 1.33775 -0.870423 0
M  V30 2682 C 261.762 1.95327 0.494926 0
M  V30 2683 O 260.818 2.19853 1.2418 0
M  V30 2684 C 262.131 2.25106 -1.99369 0
M  V30 2685 C 263.679 2.3862 -2.02558 0
M  V30 2686 C 264.154 3.33285 -3.14142 0
M  V30 2687 N 265.645 3.40857 -3.13641 0
M  V30 2688 C 266.38 4.14101 -3.96621 0
M  V30 2689 N 265.876 4.90157 -4.8961 0
M  V30 2690 N 267.669 4.09808 -3.84726 0
M  V30 2691 H 259.82 0.680136 -2.01216 0
M  V30 2692 H 262.083 0.362133 -0.876107 0
M  V30 2693 H 261.789 1.87103 -2.97801 0
M  V30 2694 H 261.663 3.25481 -1.90635 0
M  V30 2695 H 264.05 2.75887 -1.0474 0
M  V30 2696 H 264.131 1.38028 -2.15364 0
M  V30 2697 H 263.775 2.96741 -4.12198 0
M  V30 2698 H 263.705 4.33776 -2.98574 0
M  V30 2699 H 266.196 2.86624 -2.46282 0
M  V30 2700 H 266.509 5.4347 -5.49418 0
M  V30 2701 H 264.854 4.89251 -4.93617 0
M  V30 2702 H 268.045 3.4949 -3.11408 0
M  V30 2703 H 268.218 4.66629 -4.49623 0
M  V30 2704 N 261.624 0.925811 1.2754 0
M  V30 2705 C 262.854 0.580666 1.98272 0
M  V30 2706 C 263.262 -0.845207 1.69272 0
M  V30 2707 O 262.605 -1.57306 0.948707 0
M  V30 2708 C 262.667 0.724418 3.52126 0
M  V30 2709 C 262.331 2.12206 4.04744 0
M  V30 2710 C 263.328 3.09604 4.17662 0
M  V30 2711 C 261.013 2.4385 4.39138 0
M  V30 2712 C 263.007 4.36755 4.64246 0
M  V30 2713 C 260.694 3.71237 4.85414 0
M  V30 2714 C 261.692 4.67503 4.97926 0
M  V30 2715 O 261.38 5.92624 5.43187 0
M  V30 2716 H 261.112 0.218987 0.639547 0
M  V30 2717 H 263.666 1.24452 1.63404 0
M  V30 2718 H 261.896 0.0034663 3.867 0
M  V30 2719 H 263.585 0.384607 4.04074 0
M  V30 2720 H 264.351 2.86478 3.91351 0
M  V30 2721 H 260.23 1.69665 4.28643 0
M  V30 2722 H 263.774 5.11898 4.73927 0
M  V30 2723 H 259.671 3.94182 5.11166 0
M  V30 2724 H 260.439 5.95585 5.61445 0
M  V30 2725 N 263.102 -1.41638 0.69111 0
M  V30 2726 C 264.379 -1.95036 0.148421 0
M  V30 2727 C 264.759 -1.63072 -1.34055 0
M  V30 2728 O 264.107 -0.93538 -2.08478 0
M  V30 2729 C 264.317 -3.46279 0.434951 0
M  V30 2730 C 265.665 -4.23069 0.360275 0
M  V30 2731 O 266.689 -3.54277 0.369613 0
M  V30 2732 O 265.548 -5.45583 0.316534 0
M  V30 2733 H 262.642 -0.826908 0.0123654 0
M  V30 2734 H 265.188 -1.5138 0.766963 0
M  V30 2735 H 263.96 -3.6281 1.46576 0
M  V30 2736 H 263.583 -3.97019 -0.214787 0
M  V30 2737 N 264.58 -0.43555 -1.51462 0
M  V30 2738 C 265.528 0.391205 -2.29287 0
M  V30 2739 C 266.522 1.02247 -1.35062 0
M  V30 2740 O 267.728 0.957646 -1.52411 0
M  V30 2741 H 264.103 0.144968 -0.737895 0
M  V30 2742 H 266.074 -0.286051 -2.97026 0
M  V30 2743 C 264.823 1.48096 -3.14583 0
M  V30 2744 H 264.146 1.00457 -3.86973 0
M  V30 2745 H 265.586 2.03273 -3.72097 0
M  V30 2746 C 264.045 2.46321 -2.29843 0
M  V30 2747 O 264.575 3.50815 -1.95682 0
M  V30 2748 N 262.781 2.17166 -1.931 0
M  V30 2749 H 262.328 1.32218 -2.21079 0
M  V30 2750 H 262.286 2.83127 -1.36698 0
M  V30 2751 N 266.058 1.56714 -0.166846 0
M  V30 2752 C 267.304 1.97039 0.479962 0
M  V30 2753 C 267.637 1.05264 1.63197 0
M  V30 2754 O 266.912 0.0988833 1.94248 0
M  V30 2755 C 267.195 3.46867 0.967212 0
M  V30 2756 C 267.048 4.49421 -0.18466 0
M  V30 2757 C 268.367 3.9968 1.84238 0
M  V30 2758 H 265.486 0.71641 0.172992 0
M  V30 2759 H 268.128 1.8832 -0.252079 0
M  V30 2760 H 266.278 3.54428 1.59101 0
M  V30 2761 H 267.95 4.53924 -0.821621 0
M  V30 2762 H 266.193 4.25573 -0.840837 0
M  V30 2763 H 266.864 5.51644 0.198317 0
M  V30 2764 H 269.34 3.94723 1.31655 0
M  V30 2765 H 268.216 5.04941 2.15234 0
M  V30 2766 H 268.477 3.43226 2.78654 0
M  V30 2767 N 267.536 -0.106894 1.57237 0
M  V30 2768 C 268.813 -0.843526 1.76477 0
M  V30 2769 C 269.193 -1.97499 0.745464 0
M  V30 2770 O 268.541 -2.27357 -0.228306 0
M  V30 2771 C 268.751 -1.34903 3.21873 0
M  V30 2772 C 270.099 -1.79654 3.8472 0
M  V30 2773 O 271.123 -1.44554 3.2555 0
M  V30 2774 O 269.982 -2.44515 4.88748 0
M  V30 2775 H 267.076 -0.401468 0.723016 0
M  V30 2776 H 269.622 -0.0896927 1.69463 0
M  V30 2777 H 268.394 -0.53781 3.87586 0
M  V30 2778 H 268.017 -2.16522 3.33473 0
M  V30 2779 N 269.014 -1.53014 -0.377408 0
M  V30 2780 C 269.961 -1.78616 -1.46168 0
M  V30 2781 C 270.931 -0.629917 -1.53692 0
M  V30 2782 O 272.116 -0.870861 -1.69766 0
M  V30 2783 C 269.256 -1.97123 -2.8326 0
M  V30 2784 C 268.369 -3.24831 -2.84796 0
M  V30 2785 C 267.504 -3.33591 -4.13389 0
M  V30 2786 C 266.543 -4.55377 -4.09021 0
M  V30 2787 N 265.68 -4.61355 -5.29241 0
M  V30 2788 H 270.52 -2.71142 -1.23637 0
M  V30 2789 H 268.057 -1.34326 -0.599577 0
M  V30 2790 H 270.015 -2.05839 -3.62886 0
M  V30 2791 H 268.645 -1.07946 -3.04216 0
M  V30 2792 H 267.697 -3.25128 -1.97474 0
M  V30 2793 H 269.009 -4.14523 -2.77439 0
M  V30 2794 H 268.163 -3.41554 -5.01424 0
M  V30 2795 H 266.902 -2.41894 -4.23484 0
M  V30 2796 H 265.907 -4.47527 -3.19373 0
M  V30 2797 H 267.132 -5.48402 -4.00539 0
M  V30 2798 H 265.078 -3.72554 -5.39944 0
M  V30 2799 H 264.995 -5.44935 -5.24006 0
M  V30 2800 H 266.263 -4.73586 -6.19141 0
M  V30 2801 N 270.492 0.636531 -1.44174 0
M  V30 2802 C 271.425 1.76139 -1.45087 0
M  V30 2803 C 272.403 1.59611 -0.310326 0
M  V30 2804 O 273.587 1.81568 -0.506477 0
M  V30 2805 C 270.714 3.13648 -1.27839 0
M  V30 2806 C 269.76 3.48838 -2.45386 0
M  V30 2807 S 270.593 3.46927 -4.07924 0
M  V30 2808 C 271.749 4.87064 -3.9309 0
M  V30 2809 H 271.982 1.75096 -2.40268 0
M  V30 2810 H 269.515 0.810666 -1.31406 0
M  V30 2811 H 271.473 3.93002 -1.18575 0
M  V30 2812 H 270.134 3.12235 -0.341787 0
M  V30 2813 H 269.327 4.48886 -2.29167 0
M  V30 2814 H 268.929 2.76935 -2.51362 0
M  V30 2815 H 271.221 5.76153 -3.56446 0
M  V30 2816 H 272.164 5.08337 -4.92949 0
M  V30 2817 H 272.572 4.61384 -3.25246 0
M  V30 2818 N 271.97 1.30982 0.876444 0
M  V30 2819 C 273.219 1.19658 1.62373 0
M  V30 2820 C 273.532 -0.245636 1.94052 0
M  V30 2821 O 274.738 -0.48049 2.67214 0
M  V30 2822 C 273.194 2.09433 2.92687 0
M  V30 2823 C 272.802 3.58613 2.68516 0
M  V30 2824 C 274.546 2.06893 3.70669 0
M  V30 2825 C 272.453 4.40416 3.94699 0
M  V30 2826 H 271.383 0.444268 0.609214 0
M  V30 2827 H 274.034 1.55791 0.969605 0
M  V30 2828 H 272.416 1.66191 3.59439 0
M  V30 2829 H 273.59 4.10058 2.10212 0
M  V30 2830 H 271.905 3.63063 2.03898 0
M  V30 2831 H 274.502 2.65258 4.64265 0
M  V30 2832 H 274.845 1.05448 4.02724 0
M  V30 2833 H 275.378 2.48301 3.10792 0
M  V30 2834 H 272.117 5.42591 3.67798 0
M  V30 2835 H 271.637 3.93731 4.52477 0
M  V30 2836 H 273.316 4.52294 4.62644 0
M  V30 2837 N 273.449 -1.08991 1.13837 0
M  V30 2838 C 274.698 -1.80631 0.897509 0
M  V30 2839 C 275.011 -1.86872 -0.57777 0
M  V30 2840 O 276.217 -2.54866 -0.935701 0
M  V30 2841 C 274.673 -3.24517 1.55618 0
M  V30 2842 C 274.281 -3.26529 3.0673 0
M  V30 2843 C 276.025 -4.00882 1.3962 0
M  V30 2844 C 273.932 -4.64965 3.65461 0
M  V30 2845 H 272.862 -0.67691 0.332129 0
M  V30 2846 H 275.513 -1.2246 1.3666 0
M  V30 2847 H 273.895 -3.82778 1.01476 0
M  V30 2848 H 275.069 -2.78008 3.67489 0
M  V30 2849 H 273.384 -2.63656 3.22296 0
M  V30 2850 H 275.981 -5.03167 1.80906 0
M  V30 2851 H 276.324 -4.14896 0.341578 0
M  V30 2852 H 276.857 -3.49075 1.90766 0
M  V30 2853 H 273.596 -4.56153 4.70749 0
M  V30 2854 H 273.116 -5.13792 3.09481 0
M  V30 2855 H 274.795 -5.3394 3.654 0
M  V30 2856 N 274.927 -0.932562 -1.27047 0
M  V30 2857 C 275.874 -0.434072 -2.26681 0
M  V30 2858 C 276.844 0.501639 -1.58344 0
M  V30 2859 O 278.029 0.419734 -1.86126 0
M  V30 2860 C 275.169 0.30261 -3.43771 0
M  V30 2861 C 274.282 -0.667774 -4.26808 0
M  V30 2862 C 273.417 0.0892393 -5.31125 0
M  V30 2863 C 272.456 -0.873532 -6.05835 0
M  V30 2864 N 271.593 -0.148832 -7.01942 0
M  V30 2865 H 276.433 -1.28868 -2.68695 0
M  V30 2866 H 273.97 -0.646713 -1.32121 0
M  V30 2867 H 275.928 0.746092 -4.10474 0
M  V30 2868 H 274.558 1.12142 -3.02695 0
M  V30 2869 H 273.61 -1.22978 -3.59973 0
M  V30 2870 H 274.922 -1.40337 -4.78651 0
M  V30 2871 H 274.076 0.592409 -6.03801 0
M  V30 2872 H 272.815 0.85777 -4.80097 0
M  V30 2873 H 271.82 -1.38791 -5.31994 0
M  V30 2874 H 273.045 -1.64193 -6.58952 0
M  V30 2875 H 270.991 0.601365 -6.53238 0
M  V30 2876 H 270.908 -0.82391 -7.51497 0
M  V30 2877 H 272.176 0.333527 -7.78786 0
M  V30 2878 N 276.405 1.4127 -0.698611 0
M  V30 2879 C 277.315 2.34573 -0.0357891 0
M  V30 2880 C 278.331 1.56393 0.762701 0
M  V30 2881 O 279.507 1.8886 0.699564 0
M  V30 2882 C 276.572 3.35159 0.887089 0
M  V30 2883 C 275.633 4.29225 0.0804634 0
M  V30 2884 C 274.866 5.25006 0.959387 0
M  V30 2885 O 275.089 5.26314 2.19886 0
M  V30 2886 O 274.023 6.00519 0.407439 0
M  V30 2887 H 277.849 2.92838 -0.804957 0
M  V30 2888 H 275.434 1.42175 -0.458966 0
M  V30 2889 H 277.316 3.9689 1.41621 0
M  V30 2890 H 275.991 2.79333 1.6357 0
M  V30 2891 H 274.898 3.70833 -0.493328 0
M  V30 2892 H 276.231 4.88157 -0.629547 0
M  V30 2893 N 277.883 0.443576 1.51229 0
M  V30 2894 C 278.846 -0.353132 2.26463 0
M  V30 2895 C 279.846 -0.944338 1.3015 0
M  V30 2896 O 281.036 -0.817813 1.5381 0
M  V30 2897 C 278.168 -1.50023 3.06114 0
M  V30 2898 H 279.361 0.3063 2.98332 0
M  V30 2899 H 276.914 0.196902 1.55055 0
M  V30 2900 H 277.649 -2.19553 2.38677 0
M  V30 2901 H 277.434 -1.08241 3.76864 0
M  V30 2902 H 278.924 -2.06296 3.63087 0
M  V30 2903 N 279.361 -1.56624 0.175154 0
M  V30 2904 C 280.638 -1.88688 -0.515373 0
M  V30 2905 C 281.018 -1.08564 -1.81044 0
M  V30 2906 O 280.366 -0.180703 -2.27784 0
M  V30 2907 C 280.576 -3.40768 -0.753552 0
M  V30 2908 C 281.924 -4.10587 -1.08184 0
M  V30 2909 O 282.948 -3.46106 -0.841961 0
M  V30 2910 O 281.807 -5.24512 -1.53459 0
M  V30 2911 H 278.901 -0.78301 -0.26613 0
M  V30 2912 H 281.447 -1.68347 0.213877 0
M  V30 2913 H 280.219 -3.90965 0.161829 0
M  V30 2914 H 279.842 -3.66733 -1.53598 0
M  V30 2915 N 280.839 0.0985539 -1.57292 0
M  V30 2916 C 282.085 0.803867 -1.86188 0
M  V30 2917 C 282.418 1.78549 -0.763794 0
M  V30 2918 O 281.693 1.93153 0.22855 0
M  V30 2919 C 281.976 1.53568 -3.25713 0
M  V30 2920 C 281.829 0.572277 -4.46145 0
M  V30 2921 C 283.148 2.48708 -3.63087 0
M  V30 2922 H 280.267 0.290781 -0.677211 0
M  V30 2923 H 282.909 0.0675783 -1.8988 0
M  V30 2924 H 281.059 2.16332 -3.22696 0
M  V30 2925 H 282.731 -0.0480894 -4.61275 0
M  V30 2926 H 280.974 -0.114618 -4.33649 0
M  V30 2927 H 281.645 1.12139 -5.40489 0
M  V30 2928 H 284.121 1.96039 -3.67026 0
M  V30 2929 H 282.997 2.96932 -4.61652 0
M  V30 2930 H 283.258 3.32309 -2.91588 0
M  V30 2931 N 282.317 1.53212 0.369288 0
M  V30 2932 C 283.247 1.82365 1.45826 0
M  V30 2933 C 284.228 0.676907 1.56051 0
M  V30 2934 O 285.413 0.926401 1.70679 0
M  V30 2935 C 282.543 2.01023 2.83208 0
M  V30 2936 C 281.497 3.1678 2.8781 0
M  V30 2937 C 280.823 3.20724 4.27832 0
M  V30 2938 C 282.123 4.55447 2.55667 0
M  V30 2939 H 283.817 2.73559 1.21678 0
M  V30 2940 H 281.363 1.3163 0.583911 0
M  V30 2941 H 283.316 2.20001 3.59413 0
M  V30 2942 H 282.04 1.06536 3.08736 0
M  V30 2943 H 280.699 2.97616 2.14056 0
M  V30 2944 H 280.347 2.23882 4.50429 0
M  V30 2945 H 280.047 3.98496 4.31827 0
M  V30 2946 H 281.571 3.41881 5.05915 0
M  V30 2947 H 282.985 4.74611 3.21586 0
M  V30 2948 H 281.382 5.35432 2.70984 0
M  V30 2949 H 282.452 4.60812 1.5093 0
M  V30 2950 N 283.795 -0.628877 1.44509 0
M  V30 2951 C 285.206 -1.21054 1.42137 0
M  V30 2952 C 285.557 -1.95715 0.137881 0
M  V30 2953 O 284.682 -2.02554 -0.761645 0
M  V30 2954 C 285.277 -2.20189 2.57493 0
M  V30 2955 C 283.836 -2.73777 2.58308 0
M  V30 2956 C 282.983 -1.48813 2.33987 0
M  V30 2957 H 285.934 -0.41942 1.53057 0
M  V30 2958 H 285.955 -3.02833 2.30375 0
M  V30 2959 H 285.467 -1.6582 3.50892 0
M  V30 2960 H 283.568 -3.32142 1.68856 0
M  V30 2961 H 283.681 -3.19662 3.56865 0
M  V30 2962 H 282.045 -1.77024 1.83124 0
M  V30 2963 H 282.828 -0.963442 3.29504 0
M  V30 2964 N 285.273 -1.31445 -0.869486 0
M  V30 2965 C 286.223 -1.15731 -1.96444 0
M  V30 2966 C 287.207 -0.0681855 -1.60755 0
M  V30 2967 O 288.399 -0.293154 -1.74555 0
M  V30 2968 C 285.528 -0.867255 -3.32165 0
M  V30 2969 C 284.614 -1.99738 -3.74119 0
M  V30 2970 N 285.005 -3.24447 -3.88031 0
M  V30 2971 C 283.303 -1.89723 -4.03635 0
M  V30 2972 C 284.004 -3.98374 -4.23879 0
M  V30 2973 N 282.98 -3.26547 -4.3459 0
M  V30 2974 H 286.782 -2.10296 -2.05312 0
M  V30 2975 H 284.296 -1.23009 -1.06031 0
M  V30 2976 H 286.293 -0.735668 -4.10358 0
M  V30 2977 H 284.953 0.0701614 -3.24624 0
M  V30 2978 H 285.964 -3.59557 -3.72746 0
M  V30 2979 H 282.641 -1.03449 -4.04481 0
M  V30 2980 H 284.031 -5.05844 -4.42235 0
M  V30 2981 N 286.751 1.08385 -1.14413 0
M  V30 2982 C 287.714 2.13486 -0.834048 0
M  V30 2983 C 288.714 1.59988 0.161418 0
M  V30 2984 O 289.904 1.74071 -0.0669575 0
M  V30 2985 C 287.036 3.4003 -0.243354 0
M  V30 2986 H 288.229 2.42425 -1.7655 0
M  V30 2987 H 285.782 1.24101 -0.950189 0
M  V30 2988 H 286.517 3.16726 0.696807 0
M  V30 2989 H 286.302 3.80157 -0.960367 0
M  V30 2990 H 287.792 4.17577 -0.0436242 0
M  V30 2991 N 288.23 0.939286 1.26551 0
M  V30 2992 C 289.16 0.465044 2.28822 0
M  V30 2993 C 290.141 -0.480692 1.63167 0
M  V30 2994 O 291.326 -0.382955 1.90387 0
M  V30 2995 C 288.456 -0.27234 3.46231 0
M  V30 2996 C 287.41 0.58666 4.2396 0
M  V30 2997 C 286.736 -0.280573 5.33963 0
M  V30 2998 C 288.036 1.85704 4.88171 0
M  V30 2999 H 289.73 1.31979 2.68741 0
M  V30 3000 H 287.276 0.636061 1.29191 0
M  V30 3001 H 289.229 -0.615133 4.16886 0
M  V30 3002 H 287.953 -1.16121 3.0526 0
M  V30 3003 H 286.612 0.91232 3.55067 0
M  V30 3004 H 286.26 -1.16874 4.89234 0
M  V30 3005 H 285.96 0.29076 5.8688 0
M  V30 3006 H 287.484 -0.618678 6.07458 0
M  V30 3007 H 288.898 1.58161 5.51052 0
M  V30 3008 H 287.295 2.37279 5.51197 0
M  V30 3009 H 288.365 2.56957 4.11219 0
M  V30 3010 N 289.708 -1.40897 0.706093 0
M  V30 3011 C 290.957 -2.00284 0.238574 0
M  V30 3012 C 291.27 -1.56604 -1.17194 0
M  V30 3013 O 292.476 -2.08624 -1.73748 0
M  V30 3014 C 290.932 -3.57934 0.375623 0
M  V30 3015 C 290.54 -4.10591 1.79217 0
M  V30 3016 C 292.284 -4.24488 -0.0315857 0
M  V30 3017 C 290.191 -5.60712 1.88032 0
M  V30 3018 H 289.121 -0.749144 0.0854398 0
M  V30 3019 H 291.772 -1.61251 0.875813 0
M  V30 3020 H 290.154 -3.94622 -0.330042 0
M  V30 3021 H 291.328 -3.85301 2.52745 0
M  V30 3022 H 289.643 -3.56601 2.15 0
M  V30 3023 H 292.24 -5.34698 0.0136842 0
M  V30 3024 H 292.583 -4.02261 -1.072 0
M  V30 3025 H 293.116 -3.92873 0.624181 0
M  V30 3026 H 289.855 -5.87781 2.90161 0
M  V30 3027 H 289.375 -5.87896 1.18903 0
M  V30 3028 H 291.054 -6.25658 1.64805 0
M  V30 3029 N 291.186 -0.45159 -1.50991 0
M  V30 3030 C 292.134 0.366864 -2.29689 0
M  V30 3031 C 293.128 1.00809 -1.36139 0
M  V30 3032 O 294.334 0.941427 -1.53418 0
M  V30 3033 H 290.709 0.137133 -0.739391 0
M  V30 3034 H 292.68 -0.317538 -2.96706 0
M  V30 3035 C 291.429 1.44751 -3.16137 0
M  V30 3036 H 290.752 0.963473 -3.88017 0
M  V30 3037 H 292.192 1.99315 -3.74232 0
M  V30 3038 C 290.651 2.43869 -2.32442 0
M  V30 3039 O 291.181 3.4872 -1.99392 0
M  V30 3040 N 289.387 2.15105 -1.95392 0
M  V30 3041 H 288.934 1.29866 -2.22469 0
M  V30 3042 H 288.892 2.81661 -1.39693 0
M  V30 3043 N 292.664 1.56529 -0.183458 0
M  V30 3044 C 293.612 2.19873 0.758845 0
M  V30 3045 C 294.606 1.16638 1.22849 0
M  V30 3046 O 295.812 1.3481 1.19274 0
M  V30 3047 H 292.187 0.7045 0.263029 0
M  V30 3048 H 294.158 2.97724 0.200755 0
M  V30 3049 C 292.907 2.86314 1.9728 0
M  V30 3050 H 292.23 3.65487 1.62047 0
M  V30 3051 H 293.67 3.3409 2.61075 0
M  V30 3052 C 292.129 1.86729 2.80418 0
M  V30 3053 O 292.659 1.36031 3.77966 0
M  V30 3054 N 290.865 1.55216 2.45675 0
M  V30 3055 H 290.412 1.96636 1.66409 0
M  V30 3056 H 290.37 0.888388 3.01588 0
M  V30 3057 N 294.142 -0.090211 1.57342 0
M  V30 3058 C 295.388 -0.793982 1.86611 0
M  V30 3059 C 295.721 -1.78142 0.773252 0
M  V30 3060 O 294.996 -1.93271 -0.218304 0
M  V30 3061 C 295.279 -1.51839 3.26523 0
M  V30 3062 C 295.132 -0.548609 4.46442 0
M  V30 3063 C 296.451 -2.46779 3.64401 0
M  V30 3064 H 293.57 -0.287186 0.678744 0
M  V30 3065 H 296.212 -0.0575076 1.89913 0
M  V30 3066 H 294.362 -2.14617 3.23839 0
M  V30 3067 H 296.034 0.0725513 4.61243 0
M  V30 3068 H 294.277 0.137614 4.33582 0
M  V30 3069 H 294.948 -1.09271 5.41076 0
M  V30 3070 H 297.424 -1.94089 3.68061 0
M  V30 3071 H 296.3 -2.94479 4.63221 0
M  V30 3072 H 296.561 -3.30758 2.93346 0
M  V30 3073 N 295.62 -1.53406 -0.361157 0
M  V30 3074 C 296.53 -1.83122 -1.4664 0
M  V30 3075 C 297.546 -0.719943 -1.58407 0
M  V30 3076 O 298.722 -1.01046 -1.74218 0
M  V30 3077 C 295.787 -2.01891 -2.81853 0
M  V30 3078 C 294.848 -3.25784 -2.79577 0
M  V30 3079 C 294.081 -3.43648 -4.0834 0
M  V30 3080 O 294.304 -2.65714 -5.0473 0
M  V30 3081 O 293.238 -4.37018 -4.13883 0
M  V30 3082 H 297.064 -2.7703 -1.24451 0
M  V30 3083 H 294.649 -1.38841 -0.551678 0
M  V30 3084 H 296.531 -2.15782 -3.61962 0
M  V30 3085 H 295.206 -1.11173 -3.0401 0
M  V30 3086 H 294.113 -3.17312 -1.98151 0
M  V30 3087 H 295.446 -4.16439 -2.62373 0
M  V30 3088 N 297.098 0.621204 -1.44841 0
M  V30 3089 C 298.008 1.7612 -1.5498 0
M  V30 3090 C 299.024 1.68477 -0.434927 0
M  V30 3091 O 300.2 1.89076 -0.693693 0
M  V30 3092 C 297.265 3.1254 -1.50065 0
M  V30 3093 C 296.326 3.31741 -2.72482 0
M  V30 3094 C 295.559 4.61653 -2.67792 0
M  V30 3095 O 295.782 5.431 -1.74352 0
M  V30 3096 O 294.716 4.83271 -3.58794 0
M  V30 3097 H 298.542 1.70518 -2.51311 0
M  V30 3098 H 296.127 0.783643 -1.27198 0
M  V30 3099 H 298.009 3.93844 -1.49882 0
M  V30 3100 H 296.684 3.18663 -0.568806 0
M  V30 3101 H 295.591 2.50077 -2.7823 0
M  V30 3102 H 296.924 3.30486 -3.64746 0
M  V30 3103 N 298.576 1.31904 0.862503 0
M  V30 3104 C 299.523 1.20182 1.9704 0
M  V30 3105 C 300.493 0.0858247 1.65878 0
M  V30 3106 O 301.678 0.26 1.8902 0
M  V30 3107 C 298.818 0.922797 3.32533 0
M  V30 3108 C 297.931 2.12284 3.76244 0
M  V30 3109 C 297.066 1.77996 5.00491 0
M  V30 3110 C 296.105 2.94366 5.36671 0
M  V30 3111 N 295.242 2.60223 6.52095 0
M  V30 3112 H 300.082 2.14951 2.06398 0
M  V30 3113 H 297.619 1.06917 1.01031 0
M  V30 3114 H 299.577 0.741548 4.10557 0
M  V30 3115 H 298.207 0.0119227 3.22798 0
M  V30 3116 H 297.259 2.41461 2.9394 0
M  V30 3117 H 298.571 2.99357 3.98982 0
M  V30 3118 H 297.725 1.56377 5.862 0
M  V30 3119 H 296.464 0.881252 4.79672 0
M  V30 3120 H 295.469 3.16625 4.49476 0
M  V30 3121 H 296.694 3.84957 5.59451 0
M  V30 3122 H 294.64 1.72884 6.32809 0
M  V30 3123 H 294.557 3.40827 6.74814 0
M  V30 3124 H 295.825 2.42016 7.40978 0
M  V30 3125 N 300.054 -1.07777 1.14986 0
M  V30 3126 C 300.984 -2.16865 0.865557 0
M  V30 3127 C 301.965 -1.69123 -0.182083 0
M  V30 3128 O 303.15 -1.94164 -0.0373815 0
M  V30 3129 C 300.28 -3.45539 0.349313 0
M  V30 3130 C 299.234 -4.06708 1.33313 0
M  V30 3131 C 298.56 -5.30411 0.675918 0
M  V30 3132 C 299.86 -4.47241 2.69764 0
M  V30 3133 H 301.554 -2.40905 1.77778 0
M  V30 3134 H 299.1 -1.15781 0.856203 0
M  V30 3135 H 301.053 -4.21174 0.137983 0
M  V30 3136 H 299.777 -3.21072 -0.598362 0
M  V30 3137 H 298.436 -3.33112 1.53075 0
M  V30 3138 H 298.084 -5.02232 -0.277767 0
M  V30 3139 H 297.784 -5.72293 1.33244 0
M  V30 3140 H 299.308 -6.08755 0.474262 0
M  V30 3141 H 300.722 -5.14025 2.53873 0
M  V30 3142 H 299.119 -5.00062 3.3175 0
M  V30 3143 H 300.189 -3.58818 3.26156 0
M  V30 3144 N 301.532 -0.945985 -1.26051 0
M  V30 3145 C 302.78 -0.594941 -1.93145 0
M  V30 3146 C 303.101 0.86953 -1.7454 0
M  V30 3147 O 302.371 1.61838 -1.10387 0
M  V30 3148 H 300.951 -0.217044 -0.714773 0
M  V30 3149 H 303.613 -1.20235 -1.53393 0
M  V30 3150 H 302.709 -0.816835 -3.01221 0
M  V30 3151 N 303.011 1.40521 -0.713556 0
M  V30 3152 C 303.941 2.33381 -0.0743864 0
M  V30 3153 C 304.922 1.52784 0.747735 0
M  V30 3154 O 306.107 1.81258 0.697071 0
M  V30 3155 C 303.237 3.36748 0.849598 0
M  V30 3156 C 302.191 4.27793 0.133247 0
M  V30 3157 C 301.517 5.21679 1.17281 0
M  V30 3158 C 302.817 5.12415 -1.01134 0
M  V30 3159 H 304.511 2.87081 -0.850007 0
M  V30 3160 H 302.057 1.38034 -0.410201 0
M  V30 3161 H 304.01 4.00648 1.30612 0
M  V30 3162 H 302.734 2.81439 1.65709 0
M  V30 3163 H 301.393 3.65342 -0.303426 0
M  V30 3164 H 301.041 4.62677 1.9733 0
M  V30 3165 H 300.741 5.83435 0.698397 0
M  V30 3166 H 302.265 5.88456 1.62947 0
M  V30 3167 H 303.679 5.69781 -0.634274 0
M  V30 3168 H 302.076 5.83203 -1.41399 0
M  V30 3169 H 303.146 4.48514 -1.84292 0
M  V30 3170 N 304.489 0.459591 1.5075 0
M  V30 3171 C 305.436 -0.340524 2.28274 0
M  V30 3172 C 306.406 -0.997371 1.32822 0
M  V30 3173 O 307.591 -1.01202 1.61749 0
M  V30 3174 C 304.731 -1.42317 3.14388 0
M  V30 3175 C 303.844 -0.782251 4.24859 0
M  V30 3176 C 302.979 -1.84182 4.98247 0
M  V30 3177 C 302.018 -1.18053 6.00608 0
M  V30 3178 N 301.155 -2.18244 6.67319 0
M  V30 3179 H 305.995 0.326899 2.96202 0
M  V30 3180 H 303.532 0.173057 1.46078 0
M  V30 3181 H 305.49 -2.06241 3.62658 0
M  V30 3182 H 304.12 -2.05992 2.4853 0
M  V30 3183 H 303.172 -0.0307404 3.80388 0
M  V30 3184 H 304.484 -0.259663 4.98124 0
M  V30 3185 H 303.638 -2.55714 5.50177 0
M  V30 3186 H 302.377 -2.39819 4.24662 0
M  V30 3187 H 301.382 -0.450776 5.47949 0
M  V30 3188 H 302.607 -0.631202 6.7616 0
M  V30 3189 H 300.553 -2.72919 5.96533 0
M  V30 3190 H 300.47 -1.70938 7.36421 0
M  V30 3191 H 301.738 -2.89191 7.23871 0
M  V30 3192 N 305.967 -1.56429 0.191757 0
M  V30 3193 C 307.215 -1.97095 -0.447006 0
M  V30 3194 C 307.536 -1.07967 -1.62383 0
M  V30 3195 O 306.806 -0.150248 -1.95323 0
M  V30 3196 H 305.386 -0.727832 -0.168135 0
M  V30 3197 H 308.048 -1.92911 0.27771 0
M  V30 3198 H 307.144 -3.01848 -0.793371 0
M  V30 3199 N 307.445 0.0818655 -1.57387 0
M  V30 3200 C 308.355 1.11642 -2.06333 0
M  V30 3201 C 309.371 1.43033 -0.99083 0
M  V30 3202 O 310.547 1.53411 -1.30488 0
M  V30 3203 C 307.612 2.41342 -2.48907 0
M  V30 3204 C 306.673 2.17014 -3.7041 0
M  V30 3205 C 305.906 3.4053 -4.10944 0
M  V30 3206 O 306.129 4.4927 -3.51444 0
M  V30 3207 O 305.063 3.29336 -5.03807 0
M  V30 3208 H 308.889 0.730657 -2.9478 0
M  V30 3209 H 306.474 0.295301 -1.46452 0
M  V30 3210 H 308.356 3.17691 -2.76858 0
M  V30 3211 H 307.031 2.79319 -1.63593 0
M  V30 3212 H 305.938 1.38403 -3.47556 0
M  V30 3213 H 307.271 1.83923 -4.56545 0
M  V30 3214 N 308.923 1.53595 0.353017 0
M  V30 3215 C 309.87 1.80919 1.43308 0
M  V30 3216 C 310.84 0.654288 1.5267 0
M  V30 3217 O 312.025 0.897759 1.6836 0
M  V30 3218 C 309.165 2.01605 2.80089 0
M  V30 3219 C 308.278 3.29321 2.79593 0
M  V30 3220 C 307.413 3.40125 4.0803 0
M  V30 3221 C 306.452 4.61826 4.01725 0
M  V30 3222 N 305.589 4.69716 5.21834 0
M  V30 3223 H 310.429 2.73074 1.19308 0
M  V30 3224 H 307.966 1.35263 0.578131 0
M  V30 3225 H 309.924 2.11586 3.59565 0
M  V30 3226 H 308.554 1.12772 3.0246 0
M  V30 3227 H 307.606 3.28229 1.92276 0
M  V30 3228 H 308.918 4.18884 2.70809 0
M  V30 3229 H 308.072 3.49488 4.95927 0
M  V30 3230 H 306.811 2.48601 4.19582 0
M  V30 3231 H 305.816 4.52552 3.12213 0
M  V30 3232 H 307.041 5.54705 3.91764 0
M  V30 3233 H 304.987 3.81097 5.33948 0
M  V30 3234 H 304.904 5.53202 5.1527 0
M  V30 3235 H 306.172 4.83376 6.11529 0
M  V30 3236 N 310.401 -0.613514 1.45168 0
M  V30 3237 C 311.331 -1.7354 1.56225 0
M  V30 3238 C 312.312 -1.64981 0.41414 0
M  V30 3239 O 313.497 -1.83472 0.636526 0
M  V30 3240 C 310.627 -3.12128 1.52295 0
M  V30 3241 C 309.581 -3.35491 2.65762 0
M  V30 3242 C 308.907 -4.74291 2.46885 0
M  V30 3243 C 310.207 -3.26325 4.0781 0
M  V30 3244 H 311.901 -1.64543 2.50132 0
M  V30 3245 H 309.447 -0.790185 1.20383 0
M  V30 3246 H 311.4 -3.90404 1.58628 0
M  V30 3247 H 310.124 -3.2195 0.549139 0
M  V30 3248 H 308.783 -2.59603 2.58847 0
M  V30 3249 H 308.431 -4.80839 1.47657 0
M  V30 3250 H 308.131 -4.9088 3.22972 0
M  V30 3251 H 309.655 -5.54775 2.55063 0
M  V30 3252 H 311.069 -3.94483 4.16 0
M  V30 3253 H 309.466 -3.54445 4.8424 0
M  V30 3254 H 310.536 -2.23855 4.30136 0
M  V30 3255 N 311.879 -1.3236 -0.855495 0
M  V30 3256 C 312.809 -1.23833 -1.97958 0
M  V30 3257 C 313.79 -0.122361 -1.69659 0
M  V30 3258 O 314.975 -0.30939 -1.9172 0
M  V30 3259 C 312.105 -0.959772 -3.33775 0
M  V30 3260 C 311.059 -2.03689 -3.76424 0
M  V30 3261 C 310.385 -1.61075 -5.09862 0
M  V30 3262 C 311.685 -3.4518 -3.9198 0
M  V30 3263 H 313.379 -2.1788 -2.0535 0
M  V30 3264 H 310.925 -1.04891 -0.986605 0
M  V30 3265 H 312.878 -0.886678 -4.11966 0
M  V30 3266 H 311.602 0.0163404 -3.26596 0
M  V30 3267 H 310.261 -2.10012 -3.00484 0
M  V30 3268 H 309.909 -0.622107 -4.99138 0
M  V30 3269 H 309.609 -2.33143 -5.39368 0
M  V30 3270 H 311.133 -1.55201 -5.90546 0
M  V30 3271 H 312.547 -3.4145 -4.60526 0
M  V30 3272 H 310.944 -4.1559 -4.32903 0
M  V30 3273 H 312.014 -3.84903 -2.94919 0
M  V30 3274 N 313.357 1.07166 -1.15556 0
M  V30 3275 C 314.267 2.17947 -0.868116 0
M  V30 3276 C 315.283 1.73297 0.156297 0
M  V30 3277 O 316.459 2.01392 -0.0182327 0
M  V30 3278 C 313.524 3.44789 -0.36355 0
M  V30 3279 C 312.585 4.03996 -1.45209 0
M  V30 3280 C 311.818 5.24783 -0.971508 0
M  V30 3281 O 312.041 5.70109 0.182194 0
M  V30 3282 O 310.975 5.75715 -1.75603 0
M  V30 3283 H 314.801 2.4503 -1.79427 0
M  V30 3284 H 312.386 1.16539 -0.934824 0
M  V30 3285 H 314.268 4.21307 -0.0887113 0
M  V30 3286 H 312.943 3.19253 0.534708 0
M  V30 3287 H 311.85 3.29009 -1.78056 0
M  V30 3288 H 313.183 4.33808 -2.32533 0
M  V30 3289 N 314.835 0.952656 1.25548 0
M  V30 3290 C 316.065 0.622592 1.96996 0
M  V30 3291 C 316.473 -0.809112 1.71026 0
M  V30 3292 O 315.816 -1.55258 0.981861 0
M  V30 3293 C 315.878 0.798946 3.5051 0
M  V30 3294 C 315.542 2.20744 4.00151 0
M  V30 3295 C 316.539 3.18394 4.11001 0
M  V30 3296 C 314.224 2.5311 4.33867 0
M  V30 3297 C 316.218 4.46504 4.54877 0
M  V30 3298 C 313.905 3.8145 4.7743 0
M  V30 3299 C 314.903 4.77959 4.87897 0
M  V30 3300 O 314.591 6.04012 5.30494 0
M  V30 3301 H 314.323 0.232503 0.634758 0
M  V30 3302 H 316.877 1.2789 1.60728 0
M  V30 3303 H 315.107 0.0854903 3.86605 0
M  V30 3304 H 316.796 0.47023 4.03167 0
M  V30 3305 H 317.562 2.94715 3.85186 0
M  V30 3306 H 313.441 1.78719 4.24948 0
M  V30 3307 H 316.985 5.21835 4.62962 0
M  V30 3308 H 312.882 4.04936 5.0269 0
M  V30 3309 H 313.65 6.0736 5.48685 0
M  V30 3310 N 316.313 -1.40141 0.720998 0
M  V30 3311 C 317.559 -2.01084 0.263231 0
M  V30 3312 C 317.892 -1.57052 -1.14229 0
M  V30 3313 O 317.167 -0.793027 -1.77599 0
M  V30 3314 C 317.45 -3.58401 0.349344 0
M  V30 3315 C 317.303 -4.12491 1.79363 0
M  V30 3316 C 318.622 -4.39231 -0.276351 0
M  V30 3317 H 315.741 -0.730572 0.0971228 0
M  V30 3318 H 318.383 -1.66543 0.914518 0
M  V30 3319 H 316.533 -3.87958 -0.205165 0
M  V30 3320 H 318.205 -3.93711 2.40394 0
M  V30 3321 H 316.448 -3.66576 2.31958 0
M  V30 3322 H 317.119 -5.21646 1.80524 0
M  V30 3323 H 319.595 -4.15637 0.196184 0
M  V30 3324 H 318.471 -5.48586 -0.185681 0
M  V30 3325 H 318.732 -4.20643 -1.36059 0
M  V30 3326 N 317.792 -0.46758 -1.50504 0
M  V30 3327 C 318.739 0.328413 -2.28452 0
M  V30 3328 C 319.709 0.990313 -1.33349 0
M  V30 3329 O 320.894 1.00343 -1.62284 0
M  V30 3330 C 318.034 1.40648 -3.15138 0
M  V30 3331 C 317.147 0.759709 -4.25267 0
M  V30 3332 C 316.282 1.81537 -4.99217 0
M  V30 3333 C 315.321 1.14866 -6.01226 0
M  V30 3334 N 314.458 2.14702 -6.68467 0
M  V30 3335 H 319.298 -0.342603 -2.96024 0
M  V30 3336 H 316.835 -0.180801 -1.45985 0
M  V30 3337 H 318.793 2.04315 -3.63746 0
M  V30 3338 H 317.423 2.04671 -2.49619 0
M  V30 3339 H 316.475 0.0105671 -3.80399 0
M  V30 3340 H 317.787 0.233243 -4.98254 0
M  V30 3341 H 316.941 2.52793 -5.51526 0
M  V30 3342 H 315.68 2.37564 -4.25928 0
M  V30 3343 H 314.685 0.42171 -5.4818 0
M  V30 3344 H 315.91 0.595334 -6.76485 0
M  V30 3345 H 313.856 2.69752 -5.97972 0
M  V30 3346 H 313.773 1.6703 -7.37317 0
M  V30 3347 H 315.041 2.85348 -7.25394 0
M  V30 3348 N 319.27 1.56325 -0.20005 0
M  V30 3349 C 320.516 1.98772 0.431408 0
M  V30 3350 C 320.871 1.0849 1.58895 0
M  V30 3351 O 320.164 0.130331 1.91156 0
M  V30 3352 C 320.358 3.4495 0.935103 0
M  V30 3353 C 320.187 4.49371 -0.172096 0
M  V30 3354 C 318.957 5.0134 -0.631377 0
M  V30 3355 C 321.155 5.04822 -0.982806 0
M  V30 3356 N 319.137 5.89433 -1.71588 0
M  V30 3357 C 320.508 5.89632 -1.91661 0
M  V30 3358 C 322.563 4.87242 -1.02467 0
M  V30 3359 C 321.266 6.58741 -2.88881 0
M  V30 3360 C 323.292 5.57094 -1.98494 0
M  V30 3361 C 322.654 6.41655 -2.90617 0
M  V30 3362 H 318.753 0.771922 0.125144 0
M  V30 3363 H 321.337 1.92266 -0.306883 0
M  V30 3364 H 319.508 3.51946 1.64282 0
M  V30 3365 H 321.24 3.74354 1.53758 0
M  V30 3366 H 317.995 4.73071 -0.223827 0
M  V30 3367 H 318.419 6.38182 -2.25948 0
M  V30 3368 H 323.061 4.21538 -0.326408 0
M  V30 3369 H 320.779 7.23641 -3.5968 0
M  V30 3370 H 324.365 5.45466 -2.0238 0
M  V30 3371 H 323.245 6.94755 -3.63711 0
M  V30 3372 N 320.748 -0.0735177 1.57428 0
M  V30 3373 C 321.678 -1.0879 2.06608 0
M  V30 3374 C 322.659 -1.40473 0.959237 0
M  V30 3375 O 323.844 -1.5013 1.23185 0
M  V30 3376 C 320.974 -2.40183 2.50857 0
M  V30 3377 C 319.928 -2.22858 3.65402 0
M  V30 3378 C 319.254 -3.59619 3.957 0
M  V30 3379 C 320.554 -1.65123 4.95511 0
M  V30 3380 H 322.248 -0.678673 2.91607 0
M  V30 3381 H 319.794 -0.325013 1.40284 0
M  V30 3382 H 321.747 -3.11437 2.83874 0
M  V30 3383 H 320.471 -2.83083 1.62885 0
M  V30 3384 H 319.13 -1.54045 3.32664 0
M  V30 3385 H 318.778 -4.00086 3.04861 0
M  V30 3386 H 318.478 -3.48866 4.72828 0
M  V30 3387 H 320.002 -4.32306 4.31212 0
M  V30 3388 H 321.416 -2.26241 5.26771 0
M  V30 3389 H 319.813 -1.65071 5.7695 0
M  V30 3390 H 320.883 -0.612559 4.81015 0
M  V30 3391 N 322.226 -1.5378 -0.344866 0
M  V30 3392 C 323.642 -1.44015 -0.687888 0
M  V30 3393 C 323.842 -0.595834 -1.92489 0
M  V30 3394 O 322.898 -0.0863064 -2.52352 0
M  V30 3395 C 324.211 -2.87481 -0.881758 0
M  V30 3396 C 325.759 -2.97247 -0.980459 0
M  V30 3397 C 326.234 -4.41819 -1.20665 0
M  V30 3398 N 327.725 -4.45339 -1.27389 0
M  V30 3399 C 328.46 -5.54333 -1.46639 0
M  V30 3400 N 327.956 -6.73335 -1.63071 0
M  V30 3401 N 329.749 -5.41944 -1.49176 0
M  V30 3402 H 321.9 -2.07169 0.468475 0
M  V30 3403 H 324.163 -0.93643 0.147655 0
M  V30 3404 H 323.869 -3.51672 -0.0443444 0
M  V30 3405 H 323.743 -3.32352 -1.78388 0
M  V30 3406 H 326.13 -2.33197 -1.8084 0
M  V30 3407 H 326.211 -2.5574 -0.0552713 0
M  V30 3408 H 325.855 -5.06449 -0.383652 0
M  V30 3409 H 325.785 -4.80917 -2.14539 0
M  V30 3410 H 328.276 -3.59585 -1.1622 0
M  V30 3411 H 328.589 -7.52165 -1.77391 0
M  V30 3412 H 326.934 -6.76282 -1.60209 0
M  V30 3413 H 330.125 -4.47932 -1.3592 0
M  V30 3414 H 330.298 -6.26946 -1.63837 0
M  V30 3415 N 323.704 0.605807 -1.45491 0
M  V30 3416 C 324.981 1.36522 -1.40075 0
M  V30 3417 C 325.361 2.10976 -0.0722744 0
M  V30 3418 O 324.709 2.08007 0.945808 0
M  V30 3419 C 324.919 2.31056 -2.61561 0
M  V30 3420 C 326.267 2.93608 -3.06724 0
M  V30 3421 O 327.291 2.41376 -2.61946 0
M  V30 3422 O 326.15 3.88421 -3.84437 0
M  V30 3423 H 323.244 0.612248 -0.555951 0
M  V30 3424 H 325.79 0.628747 -1.57623 0
M  V30 3425 H 324.562 1.75311 -3.49831 0
M  V30 3426 H 324.185 3.12081 -2.46356 0
M  V30 3427 N 325.182 1.32811 0.848464 0
M  V30 3428 C 326.598 1.11937 1.13764 0
M  V30 3429 C 326.798 -0.0960789 2.01271 0
M  V30 3430 O 325.854 -0.779165 2.40178 0
M  V30 3431 C 327.167 2.402 1.809 0
M  V30 3432 C 328.715 2.46016 1.93508 0
M  V30 3433 C 329.19 3.74215 2.64059 0
M  V30 3434 N 330.681 3.75232 2.71579 0
M  V30 3435 C 331.416 4.71134 3.26833 0
M  V30 3436 N 330.912 5.77406 3.8285 0
M  V30 3437 N 332.705 4.58623 3.24995 0
M  V30 3438 H 324.856 2.1073 0.265855 0
M  V30 3439 H 327.119 0.930671 0.180431 0
M  V30 3440 H 326.825 3.29093 1.24058 0
M  V30 3441 H 326.699 2.51628 2.81004 0
M  V30 3442 H 329.086 1.57577 2.49506 0
M  V30 3443 H 329.167 2.38536 0.923811 0
M  V30 3444 H 328.811 4.63031 2.08722 0
M  V30 3445 H 328.741 3.78968 3.65637 0
M  V30 3446 H 331.232 2.98423 2.31845 0
M  V30 3447 H 331.545 6.46632 4.23187 0
M  V30 3448 H 329.89 5.81152 3.81165 0
M  V30 3449 H 333.081 3.74762 2.80484 0
M  V30 3450 H 333.254 5.33535 3.67756 0
M  V30 3451 N 326.66 -1.06551 1.16123 0
M  V30 3452 C 327.909 -1.78687 0.935622 0
M  V30 3453 C 328.222 -1.88056 -0.538001 0
M  V30 3454 O 329.428 -2.56794 -0.88143 0
M  V30 3455 C 327.884 -3.21143 1.62466 0
M  V30 3456 C 327.492 -3.19949 3.13587 0
M  V30 3457 C 329.236 -3.9783 1.48092 0
M  V30 3458 C 327.143 -4.57108 3.75241 0
M  V30 3459 H 326.073 -0.669712 0.346412 0
M  V30 3460 H 328.724 -1.19534 1.39226 0
M  V30 3461 H 327.106 -3.80539 1.09572 0
M  V30 3462 H 328.28 -2.70151 3.73303 0
M  V30 3463 H 326.595 -2.5676 3.27816 0
M  V30 3464 H 329.192 -4.99217 1.91538 0
M  V30 3465 H 329.535 -4.14078 0.429507 0
M  V30 3466 H 330.068 -3.4495 1.98127 0
M  V30 3467 H 326.807 -4.46065 4.80319 0
M  V30 3468 H 326.327 -5.07111 3.20309 0
M  V30 3469 H 328.006 -5.26069 3.76644 0
M  V30 3470 N 328.138 -0.959301 -1.25041 0
M  V30 3471 C 329.387 -0.612254 -1.92183 0
M  V30 3472 C 329.7 0.855347 -1.75907 0
M  V30 3473 O 330.906 1.31256 -2.37664 0
M  V30 3474 C 329.362 -1.04435 -3.44414 0
M  V30 3475 C 328.97 -2.53482 -3.69393 0
M  V30 3476 C 330.714 -0.770055 -4.17457 0
M  V30 3477 C 328.621 -2.90468 -5.15153 0
M  V30 3478 H 327.551 -0.225279 -0.719559 0
M  V30 3479 H 330.202 -1.16438 -1.41825 0
M  V30 3480 H 328.584 -0.4206 -3.9376 0
M  V30 3481 H 329.758 -3.20916 -3.30681 0
M  V30 3482 H 328.073 -2.78432 -3.0962 0
M  V30 3483 H 330.67 -1.02249 -5.24832 0
M  V30 3484 H 331.013 0.293611 -4.15263 0
M  V30 3485 H 331.546 -1.35437 -3.74034 0
M  V30 3486 H 328.285 -3.95871 -5.22462 0
M  V30 3487 H 327.805 -2.27711 -5.54894 0
M  V30 3488 H 329.484 -2.79914 -5.83315 0
M  V30 3489 N 329.616 1.39756 -0.72842 0
M  V30 3490 C 330.563 2.30647 -0.0841519 0
M  V30 3491 C 331.533 1.48869 0.7367 0
M  V30 3492 O 332.718 1.77574 0.698015 0
M  V30 3493 C 329.858 3.35165 0.822091 0
M  V30 3494 C 328.971 4.31999 -0.0106663 0
M  V30 3495 C 328.106 5.23585 0.896241 0
M  V30 3496 C 327.145 6.12072 0.0583381 0
M  V30 3497 N 326.282 6.96035 0.920818 0
M  V30 3498 H 331.122 2.85173 -0.864891 0
M  V30 3499 H 328.659 1.40422 -0.438179 0
M  V30 3500 H 330.617 3.94345 1.36189 0
M  V30 3501 H 329.247 2.8211 1.56888 0
M  V30 3502 H 328.299 3.74492 -0.66781 0
M  V30 3503 H 329.611 4.9443 -0.658825 0
M  V30 3504 H 328.765 5.87759 1.50412 0
M  V30 3505 H 327.504 4.61459 1.57819 0
M  V30 3506 H 326.509 5.46916 -0.562389 0
M  V30 3507 H 327.734 6.76261 -0.6203 0
M  V30 3508 H 325.68 6.36485 1.58818 0
M  V30 3509 H 325.597 7.55284 0.32899 0
M  V30 3510 H 326.865 7.64646 1.51447 0
M  V30 3511 N 331.094 0.475555 1.50254 0
M  V30 3512 C 332.024 -0.30611 2.31485 0
M  V30 3513 C 333.005 -0.986228 1.38591 0
M  V30 3514 O 334.19 -0.982541 1.67511 0
M  V30 3515 C 331.32 -1.38588 3.1845 0
M  V30 3516 C 330.274 -0.827115 4.19932 0
M  V30 3517 C 329.6 -2.00551 4.95665 0
M  V30 3518 C 330.9 0.16463 5.2204 0
M  V30 3519 H 332.594 0.371866 2.97082 0
M  V30 3520 H 330.14 0.180282 1.42867 0
M  V30 3521 H 332.093 -1.94023 3.74076 0
M  V30 3522 H 330.817 -2.09269 2.50747 0
M  V30 3523 H 329.476 -0.294702 3.65414 0
M  V30 3524 H 329.124 -2.6994 4.2443 0
M  V30 3525 H 328.824 -1.63784 5.64313 0
M  V30 3526 H 330.348 -2.56468 5.54127 0
M  V30 3527 H 331.762 -0.300699 5.72511 0
M  V30 3528 H 330.159 0.446813 5.98434 0
M  V30 3529 H 331.229 1.08905 4.72512 0
M  V30 3530 N 332.573 -1.56217 0.208337 0
M  V30 3531 C 333.989 -1.58919 -0.14729 0
M  V30 3532 C 334.189 -1.22486 -1.59998 0
M  V30 3533 O 333.245 -0.953849 -2.3379 0
M  V30 3534 C 334.558 -3.00236 0.167048 0
M  V30 3535 C 336.106 -3.12813 0.108219 0
M  V30 3536 C 336.581 -4.56284 0.396049 0
M  V30 3537 N 338.072 -4.61912 0.345142 0
M  V30 3538 C 338.807 -5.70837 0.541523 0
M  V30 3539 N 338.303 -6.88178 0.798968 0
M  V30 3540 N 340.096 -5.60091 0.474867 0
M  V30 3541 H 332.247 -1.78177 1.15614 0
M  V30 3542 H 334.51 -0.827555 0.462446 0
M  V30 3543 H 334.216 -3.31499 1.1748 0
M  V30 3544 H 334.09 -3.7354 -0.524184 0
M  V30 3545 H 336.477 -2.81354 -0.890157 0
M  V30 3546 H 336.558 -2.41866 0.832729 0
M  V30 3547 H 336.202 -4.88458 1.3918 0
M  V30 3548 H 336.132 -5.25439 -0.349502 0
M  V30 3549 H 338.623 -3.77589 0.153316 0
M  V30 3550 H 338.936 -7.67095 0.93727 0
M  V30 3551 H 337.281 -6.89953 0.836013 0
M  V30 3552 H 340.472 -4.67297 0.274064 0
M  V30 3553 H 340.645 -6.44917 0.631326 0
M  V30 3554 N 334.051 0.0651679 -1.57465 0
M  V30 3555 C 335.297 0.764193 -1.87851 0
M  V30 3556 C 335.63 1.76889 -0.801495 0
M  V30 3557 O 334.905 1.93594 0.187528 0
M  V30 3558 C 335.188 1.46625 -3.28897 0
M  V30 3559 C 335.041 0.477515 -4.47258 0
M  V30 3560 C 336.36 2.4095 -3.68281 0
M  V30 3561 H 333.479 0.276351 -0.683227 0
M  V30 3562 H 336.121 0.0272868 -1.8998 0
M  V30 3563 H 334.271 2.09438 -3.27212 0
M  V30 3564 H 335.943 -0.145922 -4.61069 0
M  V30 3565 H 334.186 -0.206576 -4.33308 0
M  V30 3566 H 334.857 1.0065 -5.42746 0
M  V30 3567 H 337.333 1.88209 -3.71102 0
M  V30 3568 H 336.209 2.87072 -4.67847 0
M  V30 3569 H 336.47 3.26049 -2.98571 0
M  V30 3570 N 335.529 1.53961 0.336706 0
M  V30 3571 C 336.945 1.44378 0.680241 0
M  V30 3572 C 337.145 0.606034 1.9217 0
M  V30 3573 O 336.201 0.099688 2.52303 0
M  V30 3574 C 337.514 2.87945 0.8665 0
M  V30 3575 C 339.062 2.97763 0.964682 0
M  V30 3576 C 339.537 4.42453 1.18321 0
M  V30 3577 N 341.028 4.46008 1.25025 0
M  V30 3578 C 341.763 5.55102 1.43697 0
M  V30 3579 N 341.259 6.7419 1.59498 0
M  V30 3580 N 343.052 5.42727 1.463 0
M  V30 3581 H 335.203 2.06918 -0.479455 0
M  V30 3582 H 337.466 0.935634 -0.152619 0
M  V30 3583 H 337.172 3.51691 0.0256937 0
M  V30 3584 H 337.046 3.33293 1.76623 0
M  V30 3585 H 339.433 2.34153 1.796 0
M  V30 3586 H 339.514 2.55766 0.041708 0
M  V30 3587 H 339.158 5.06645 0.356788 0
M  V30 3588 H 339.088 4.82048 2.11985 0
M  V30 3589 H 341.579 3.60196 1.14312 0
M  V30 3590 H 341.892 7.53095 1.734 0
M  V30 3591 H 340.237 6.77123 1.56621 0
M  V30 3592 H 343.428 4.48647 1.33543 0
M  V30 3593 H 343.601 6.27806 1.6051 0
M  V30 3594 N 337.007 -0.598083 1.45811 0
M  V30 3595 C 337.917 -1.73632 1.57763 0
M  V30 3596 C 338.933 -1.67763 0.461676 0
M  V30 3597 O 340.109 -1.87949 0.723685 0
M  V30 3598 C 337.174 -3.10114 1.55018 0
M  V30 3599 C 336.235 -3.27364 2.77726 0
M  V30 3600 C 335.468 -4.57334 2.75102 0
M  V30 3601 O 335.691 -5.40258 1.8297 0
M  V30 3602 O 334.625 -4.77502 3.66437 0
M  V30 3603 H 338.451 -1.66498 2.53992 0
M  V30 3604 H 336.036 -0.763308 1.28429 0
M  V30 3605 H 337.918 -3.9141 1.56129 0
M  V30 3606 H 336.593 -3.17718 0.619431 0
M  V30 3607 H 335.5 -2.45619 2.82174 0
M  V30 3608 H 336.833 -3.24641 3.69958 0
M  V30 3609 N 338.485 -1.33259 -0.841409 0
M  V30 3610 C 339.762 -1.15174 -1.58096 0
M  V30 3611 C 340.142 0.282858 -2.09196 0
M  V30 3612 O 339.49 1.28151 -1.89181 0
M  V30 3613 C 339.7 -2.1907 -2.71679 0
M  V30 3614 C 341.048 -2.53093 -3.40924 0
M  V30 3615 O 342.072 -2.17717 -2.81918 0
M  V30 3616 O 340.931 -3.1379 -4.47435 0
M  V30 3617 H 338.025 -0.445303 -0.696875 0
M  V30 3618 H 340.571 -1.44833 -0.884385 0
M  V30 3619 H 339.343 -3.15443 -2.31541 0
M  V30 3620 H 338.966 -1.90481 -3.49002 0
M  V30 3621 N 339.963 1.05934 -1.16686 0
M  V30 3622 C 341.193 1.82226 -0.973515 0
M  V30 3623 C 341.601 1.8297 0.481532 0
M  V30 3624 O 340.944 1.25009 1.34604 0
M  V30 3625 C 341.006 3.29897 -1.42858 0
M  V30 3626 C 340.67 3.52849 -2.90425 0
M  V30 3627 C 341.667 3.45595 -3.88407 0
M  V30 3628 C 339.352 3.80053 -3.28428 0
M  V30 3629 C 341.346 3.65217 -5.22394 0
M  V30 3630 C 339.033 3.99325 -4.62583 0
M  V30 3631 C 340.031 3.91905 -5.59374 0
M  V30 3632 O 339.719 4.10647 -6.91104 0
M  V30 3633 H 339.451 0.581314 -0.345036 0
M  V30 3634 H 342.005 1.3453 -1.55212 0
M  V30 3635 H 340.235 3.78472 -0.793477 0
M  V30 3636 H 341.924 3.87692 -1.20207 0
M  V30 3637 H 342.69 3.24564 -3.60393 0
M  V30 3638 H 338.569 3.84936 -2.53664 0
M  V30 3639 H 342.113 3.59341 -5.9793 0
M  V30 3640 H 338.01 4.19846 -4.90306 0
M  V30 3641 H 338.778 4.27915 -6.97733 0
M  V30 3642 N 341.441 0.965919 1.2453 0
M  V30 3643 C 342.404 0.499547 2.2369 0
M  V30 3644 C 343.404 -0.40294 1.5567 0
M  V30 3645 O 344.594 -0.19865 1.73064 0
M  V30 3646 C 341.726 -0.276792 3.39774 0
M  V30 3647 H 342.919 1.37613 2.66463 0
M  V30 3648 H 340.472 0.750324 1.37112 0
M  V30 3649 H 341.207 -1.17055 3.02438 0
M  V30 3650 H 340.992 0.370826 3.90343 0
M  V30 3651 H 342.482 -0.592175 4.1338 0
M  V30 3652 N 342.919 -1.39368 0.735821 0
M  V30 3653 C 344.33 -1.83313 0.354015 0
M  V30 3654 C 344.681 -1.61461 -1.11466 0
M  V30 3655 O 343.806 -1.10621 -1.85989 0
M  V30 3656 C 344.401 -3.32781 0.635769 0
M  V30 3657 C 342.96 -3.75142 0.307448 0
M  V30 3658 C 342.107 -2.62358 0.897974 0
M  V30 3659 H 345.058 -1.28349 0.933398 0
M  V30 3660 H 345.079 -3.80388 -0.0921773 0
M  V30 3661 H 344.591 -3.48654 1.70476 0
M  V30 3662 H 342.692 -3.64857 -0.755674 0
M  V30 3663 H 342.805 -4.72532 0.790583 0
M  V30 3664 H 341.169 -2.52624 0.324551 0
M  V30 3665 H 341.952 -2.81036 1.97164 0
M  V30 3666 N 344.397 -0.483516 -1.5 0
M  V30 3667 C 345.646 0.0689102 -2.01582 0
M  V30 3668 C 345.959 1.39655 -1.36952 0
M  V30 3669 O 347.165 2.03465 -1.79762 0
M  V30 3670 C 345.621 0.173302 -3.59483 0
M  V30 3671 C 345.229 -1.14665 -4.33077 0
M  V30 3672 C 346.973 0.677024 -4.19066 0
M  V30 3673 C 344.88 -1.00537 -5.82792 0
M  V30 3674 H 343.81 0.0295277 -0.753422 0
M  V30 3675 H 346.461 -0.620295 -1.72698 0
M  V30 3676 H 344.843 0.926569 -3.85007 0
M  V30 3677 H 346.017 -1.91184 -4.19268 0
M  V30 3678 H 344.332 -1.58244 -3.85159 0
M  V30 3679 H 346.929 0.799952 -5.28682 0
M  V30 3680 H 347.272 1.67151 -3.81269 0
M  V30 3681 H 347.805 -0.0192083 -3.97795 0
M  V30 3682 H 344.544 -1.9736 -6.25083 0
M  V30 3683 H 344.064 -0.280776 -5.99142 0
M  V30 3684 H 345.743 -0.677 -6.43448 0
M  V30 3685 N 345.875 1.56104 -0.216619 0
M  V30 3686 C 347.122 1.98172 0.416416 0
M  V30 3687 C 347.45 1.10413 1.60122 0
M  V30 3688 O 346.705 0.147967 1.9514 0
M  V30 3689 C 347.004 3.45923 0.898464 0
M  V30 3690 C 346.67 4.50559 -0.175288 0
M  V30 3691 C 345.332 4.78897 -0.470271 0
M  V30 3692 C 347.684 5.1334 -0.901728 0
M  V30 3693 C 345.012 5.67299 -1.4963 0
M  V30 3694 C 347.364 6.02853 -1.91705 0
M  V30 3695 C 346.028 6.29537 -2.21901 0
M  V30 3696 H 345.298 0.725164 0.152377 0
M  V30 3697 H 347.945 1.88839 -0.318103 0
M  V30 3698 H 346.25 3.52434 1.71165 0
M  V30 3699 H 347.947 3.75841 1.39803 0
M  V30 3700 H 344.537 4.28551 0.0647806 0
M  V30 3701 H 348.721 4.91521 -0.687072 0
M  V30 3702 H 343.977 5.86239 -1.73592 0
M  V30 3703 H 348.151 6.50552 -2.48505 0
M  V30 3704 H 345.778 6.97835 -3.01548 0
M  V30 3705 N 347.353 -0.0568162 1.57498 0
M  V30 3706 C 348.303 -1.07315 2.01166 0
M  V30 3707 C 349.287 -1.33632 0.896171 0
M  V30 3708 O 350.479 -1.33682 1.16009 0
M  V30 3709 C 347.608 -2.38257 2.47161 0
M  V30 3710 C 346.694 -2.1515 3.65474 0
M  V30 3711 N 347.085 -1.62014 4.7915 0
M  V30 3712 C 345.383 -2.45559 3.72313 0
M  V30 3713 C 346.084 -1.54069 5.60926 0
M  V30 3714 N 345.06 -2.00652 5.05213 0
M  V30 3715 H 348.862 -0.655878 2.86488 0
M  V30 3716 H 346.376 -0.263635 1.60246 0
M  V30 3717 H 348.373 -3.11845 2.76691 0
M  V30 3718 H 347.033 -2.80687 1.63232 0
M  V30 3719 H 348.044 -1.30667 5.01145 0
M  V30 3720 H 344.721 -2.91253 2.99129 0
M  V30 3721 H 346.111 -1.13712 6.62208 0
M  V30 3722 N 348.832 -1.54138 -0.328536 0
M  V30 3723 C 350.081 -1.71318 -1.06456 0
M  V30 3724 C 350.394 -0.491109 -1.89334 0
M  V30 3725 O 351.6 -0.54416 -2.65991 0
M  V30 3726 C 350.056 -3.03 -1.94214 0
M  V30 3727 C 349.664 -4.32595 -1.16471 0
M  V30 3728 C 351.408 -3.29544 -2.67583 0
M  V30 3729 C 349.315 -5.55341 -2.03347 0
M  V30 3730 H 348.245 -0.638429 -0.401155 0
M  V30 3731 H 350.896 -1.80633 -0.323106 0
M  V30 3732 H 349.278 -2.87579 -2.72239 0
M  V30 3733 H 350.452 -4.58766 -0.432525 0
M  V30 3734 H 348.767 -4.12777 -0.548063 0
M  V30 3735 H 351.364 -4.18444 -3.3288 0
M  V30 3736 H 351.707 -2.47206 -3.34955 0
M  V30 3737 H 352.24 -3.45809 -1.96623 0
M  V30 3738 H 348.979 -6.40268 -1.40491 0
M  V30 3739 H 348.499 -5.33397 -2.74313 0
M  V30 3740 H 350.178 -5.91557 -2.62049 0
M  V30 3741 N 350.31 0.590341 -1.46126 0
M  V30 3742 C 351.587 1.35029 -1.41515 0
M  V30 3743 C 351.967 2.10888 -0.0946472 0
M  V30 3744 O 351.315 2.08998 0.923693 0
M  V30 3745 C 351.525 2.28269 -2.63997 0
M  V30 3746 C 352.873 2.90338 -3.09821 0
M  V30 3747 O 353.897 2.38585 -2.64492 0
M  V30 3748 O 352.756 3.84321 -3.88535 0
M  V30 3749 H 349.85 0.606317 -0.562413 0
M  V30 3750 H 352.396 0.611994 -1.58281 0
M  V30 3751 H 351.168 1.71591 -3.51671 0
M  V30 3752 H 350.791 3.0945 -2.49652 0
M  V30 3753 N 351.788 1.33704 0.83433 0
M  V30 3754 C 353.034 1.25603 1.59222 0
M  V30 3755 C 353.367 -0.176659 1.93395 0
M  V30 3756 O 352.642 -1.11915 1.59076 0
M  V30 3757 C 352.925 2.13576 2.89926 0
M  V30 3758 C 352.778 3.65326 2.62406 0
M  V30 3759 C 354.097 2.01238 3.91397 0
M  V30 3760 H 351.216 0.457613 0.577719 0
M  V30 3761 H 353.858 1.63848 0.961972 0
M  V30 3762 H 352.008 1.8109 3.43713 0
M  V30 3763 H 353.68 4.08124 2.15017 0
M  V30 3764 H 351.923 3.8698 1.96033 0
M  V30 3765 H 352.594 4.22232 3.55562 0
M  V30 3766 H 355.07 2.29738 3.46929 0
M  V30 3767 H 353.946 2.65036 4.80673 0
M  V30 3768 H 354.207 0.985951 4.30966 0
M  V30 3769 N 353.266 -1.05314 1.17247 0
M  V30 3770 C 354.496 -1.81707 0.983166 0
M  V30 3771 C 354.904 -1.83222 -0.471822 0
M  V30 3772 O 354.247 -1.25721 -1.3394 0
M  V30 3773 C 354.309 -3.29134 1.44606 0
M  V30 3774 C 353.973 -3.51304 2.92292 0
M  V30 3775 C 354.97 -3.4353 3.90235 0
M  V30 3776 C 352.655 -3.78306 3.30439 0
M  V30 3777 C 354.649 -3.62442 5.24323 0
M  V30 3778 C 352.336 -3.96866 4.64694 0
M  V30 3779 C 353.334 -3.88933 5.61445 0
M  V30 3780 O 353.022 -4.06976 6.93272 0
M  V30 3781 H 352.754 -0.579476 0.348114 0
M  V30 3782 H 355.308 -1.33705 1.55924 0
M  V30 3783 H 353.538 -3.78046 0.813537 0
M  V30 3784 H 355.227 -3.87049 1.22262 0
M  V30 3785 H 355.993 -3.22648 3.62109 0
M  V30 3786 H 351.872 -3.83585 2.55702 0
M  V30 3787 H 355.416 -3.56165 5.99827 0
M  V30 3788 H 351.313 -4.1724 4.92525 0
M  V30 3789 H 352.081 -4.24209 6.99992 0
M  V30 3790 N 354.744 -0.972509 -1.24016 0
M  V30 3791 C 355.992 -0.635776 -1.91839 0
M  V30 3792 C 356.313 0.832312 -1.76345 0
M  V30 3793 O 355.583 1.5946 -1.13795 0
M  V30 3794 H 354.163 -0.232157 -0.710009 0
M  V30 3795 H 356.825 -1.23462 -1.50809 0
M  V30 3796 H 355.921 -0.880545 -2.99421 0
M  V30 3797 N 356.222 1.38976 -0.743202 0
M  V30 3798 C 357.45 2.04636 -0.30525 0
M  V30 3799 C 357.865 1.56044 1.06281 0
M  V30 3800 O 357.222 0.728921 1.67311 0
M  V30 3801 C 357.273 3.60193 -0.307177 0
M  V30 3802 O 356.994 4.06998 -1.62124 0
M  V30 3803 C 358.495 4.4306 0.145928 0
M  V30 3804 H 355.715 0.65788 -0.132041 0
M  V30 3805 H 358.259 1.77866 -1.00915 0
M  V30 3806 H 356.414 3.85835 0.347898 0
M  V30 3807 H 356.828 5.01371 -1.54036 0
M  V30 3808 H 358.302 5.51921 0.0934183 0
M  V30 3809 H 358.779 4.22706 1.19231 0
M  V30 3810 H 359.385 4.22584 -0.479886 0
M  V30 3811 N 357.7 0.491464 1.49741 0
M  V30 3812 C 358.949 -0.0582189 2.01616 0
M  V30 3813 C 359.262 -1.38927 1.3769 0
M  V30 3814 O 360.468 -2.02509 1.80838 0
M  V30 3815 C 358.924 -0.154235 3.59569 0
M  V30 3816 C 358.532 1.1696 4.32463 0
M  V30 3817 C 360.276 -0.65479 4.1942 0
M  V30 3818 C 358.183 1.03627 5.8225 0
M  V30 3819 H 357.113 -0.0255317 0.753568 0
M  V30 3820 H 359.764 0.629445 1.72367 0
M  V30 3821 H 358.146 -0.906138 3.85493 0
M  V30 3822 H 359.32 1.93405 4.18248 0
M  V30 3823 H 357.635 1.60285 3.84315 0
M  V30 3824 H 360.232 -0.771903 5.29099 0
M  V30 3825 H 360.575 -1.65127 3.8215 0
M  V30 3826 H 361.108 0.040304 3.9778 0
M  V30 3827 H 357.847 2.00672 6.24028 0
M  V30 3828 H 357.367 0.312546 5.98985 0
M  V30 3829 H 359.046 0.711114 6.4308 0
M  V30 3830 N 359.178 -1.55987 0.224894 0
M  V30 3831 C 360.426 -1.97998 -0.405099 0
M  V30 3832 C 360.747 -1.11387 -1.60056 0
M  V30 3833 O 360.017 -0.191645 -1.9496 0
M  V30 3834 H 358.597 -0.731235 -0.152658 0
M  V30 3835 H 361.259 -1.92279 0.318567 0
M  V30 3836 H 360.355 -3.03463 -0.729167 0
M  V30 3837 N 360.656 0.0484629 -1.57525 0
M  V30 3838 C 361.619 1.03956 -2.04269 0
M  V30 3839 C 362.619 1.30211 -0.943496 0
M  V30 3840 O 363.809 1.25539 -1.20771 0
M  V30 3841 C 360.941 2.37742 -2.44319 0
M  V30 3842 H 362.134 0.636182 -2.93075 0
M  V30 3843 H 359.687 0.294811 -1.53494 0
M  V30 3844 H 360.422 2.82866 -1.5861 0
M  V30 3845 H 360.207 2.20021 -3.24551 0
M  V30 3846 H 361.697 3.08936 -2.80978 0
M  V30 3847 N 362.134 1.5431 0.320358 0
M  V30 3848 C 363.097 1.83195 1.3774 0
M  V30 3849 C 364.097 0.703906 1.44575 0
M  V30 3850 O 365.287 0.972214 1.44546 0
M  V30 3851 C 362.419 1.99487 2.76438 0
M  V30 3852 H 363.612 2.77642 1.1338 0
M  V30 3853 H 361.165 1.46076 0.556012 0
M  V30 3854 H 361.9 1.07262 3.06048 0
M  V30 3855 H 361.685 2.81575 2.7287 0
M  V30 3856 H 363.175 2.23271 3.52902 0
M  V30 3857 N 363.613 -0.582584 1.46437 0
M  V30 3858 C 364.86 -1.34079 1.51753 0
M  V30 3859 C 365.188 -1.93762 0.169299 0
M  V30 3860 O 364.443 -1.76989 -0.835062 0
M  V30 3861 C 364.742 -2.48964 2.56421 0
M  V30 3862 C 364.408 -2.07273 4.00436 0
M  V30 3863 C 363.07 -1.95618 4.39644 0
M  V30 3864 C 365.422 -1.75111 4.90903 0
M  V30 3865 C 362.75 -1.5006 5.67185 0
M  V30 3866 C 365.102 -1.31032 6.18881 0
M  V30 3867 C 363.766 -1.17954 6.56996 0
M  V30 3868 H 363.036 -0.49063 0.555304 0
M  V30 3869 H 365.683 -0.656007 1.79913 0
M  V30 3870 H 363.988 -3.22889 2.21923 0
M  V30 3871 H 365.685 -3.07178 2.57765 0
M  V30 3872 H 362.275 -2.17279 3.69443 0
M  V30 3873 H 366.459 -1.83001 4.61329 0
M  V30 3874 H 361.715 -1.38577 5.95488 0
M  V30 3875 H 365.889 -1.052 6.88408 0
M  V30 3876 H 363.516 -0.824279 7.55718 0
M  V30 3877 N 365.091 -1.34144 -0.827227 0
M  V30 3878 C 366.368 -1.16844 -1.56865 0
M  V30 3879 C 366.748 0.260654 -2.09485 0
M  V30 3880 O 366.096 1.26138 -1.9053 0
M  V30 3881 C 366.306 -2.21939 -2.6934 0
M  V30 3882 C 367.654 -2.56695 -3.3822 0
M  V30 3883 O 368.678 -2.20695 -2.79593 0
M  V30 3884 O 367.537 -3.18518 -4.44082 0
M  V30 3885 H 364.631 -0.452669 -0.692112 0
M  V30 3886 H 367.177 -1.45763 -0.868973 0
M  V30 3887 H 365.949 -3.17882 -2.28182 0
M  V30 3888 H 365.572 -1.94172 -3.46962 0
M  V30 3889 N 366.569 1.04691 -1.17803 0
M  V30 3890 C 367.815 1.78045 -0.970969 0
M  V30 3891 C 368.148 1.87686 0.498751 0
M  V30 3892 O 367.423 1.38035 1.37027 0
M  V30 3893 C 367.706 3.2166 -1.61884 0
M  V30 3894 C 367.559 3.20001 -3.161 0
M  V30 3895 C 368.878 4.1962 -1.3269 0
M  V30 3896 H 365.997 0.64633 -0.354155 0
M  V30 3897 H 368.639 1.22333 -1.45378 0
M  V30 3898 H 366.789 3.69232 -1.20831 0
M  V30 3899 H 368.461 2.80467 -3.66246 0
M  V30 3900 H 366.704 2.58203 -3.48588 0
M  V30 3901 H 367.375 4.21386 -3.56564 0
M  V30 3902 H 369.851 3.80567 -1.68249 0
M  V30 3903 H 368.727 5.18339 -1.80599 0
M  V30 3904 H 368.988 4.414 -0.248622 0
M  V30 3905 N 368.047 0.979072 1.23499 0
M  V30 3906 C 369.324 0.563674 1.87302 0
M  V30 3907 C 369.704 -0.959199 1.88049 0
M  V30 3908 O 369.052 -1.83535 1.36114 0
M  V30 3909 C 369.262 1.16822 3.28867 0
M  V30 3910 C 370.61 1.26014 4.0547 0
M  V30 3911 O 371.634 1.12158 3.38082 0
M  V30 3912 O 370.493 1.48044 5.26066 0
M  V30 3913 H 367.587 0.189602 0.804972 0
M  V30 3914 H 370.133 1.07407 1.31384 0
M  V30 3915 H 368.905 2.21049 3.22883 0
M  V30 3916 H 368.528 0.642564 3.92373 0
M  V30 3917 N 369.525 -1.3858 0.750561 0
M  V30 3918 C 370.774 -1.99424 0.302172 0
M  V30 3919 C 371.087 -1.60254 -1.12152 0
M  V30 3920 O 372.293 -2.14046 -1.67023 0
M  V30 3921 C 370.749 -3.56558 0.489307 0
M  V30 3922 C 370.357 -4.04682 1.92189 0
M  V30 3923 C 372.101 -4.24374 0.103478 0
M  V30 3924 C 370.008 -5.54446 2.05775 0
M  V30 3925 H 368.938 -0.746046 0.10923 0
M  V30 3926 H 371.589 -1.58383 0.92667 0
M  V30 3927 H 369.971 -3.95472 -0.204329 0
M  V30 3928 H 371.145 -3.77065 2.64875 0
M  V30 3929 H 369.46 -3.4958 2.26236 0
M  V30 3930 H 372.057 -5.34384 0.183787 0
M  V30 3931 H 372.4 -4.05468 -0.943481 0
M  V30 3932 H 372.933 -3.90688 0.748854 0
M  V30 3933 H 369.672 -5.78252 3.08714 0
M  V30 3934 H 369.192 -5.83816 1.37546 0
M  V30 3935 H 370.871 -6.20099 1.84626 0
M  V30 3936 N 371.003 -0.499398 -1.49478 0
M  V30 3937 C 371.95 0.279881 -2.29097 0
M  V30 3938 C 372.92 0.961805 -1.3542 0
M  V30 3939 O 374.105 0.968777 -1.64376 0
M  V30 3940 C 371.245 1.33932 -3.18051 0
M  V30 3941 C 370.358 0.669333 -4.26783 0
M  V30 3942 C 369.493 1.70907 -5.02955 0
M  V30 3943 C 368.532 1.02087 -6.03527 0
M  V30 3944 N 367.669 2.00474 -6.7287 0
M  V30 3945 H 372.509 -0.405317 -2.95231 0
M  V30 3946 H 370.046 -0.211726 -1.45568 0
M  V30 3947 H 372.004 1.96553 -3.67998 0
M  V30 3948 H 370.634 1.9933 -2.53904 0
M  V30 3949 H 369.686 -0.0701234 -3.80335 0
M  V30 3950 H 370.998 0.127503 -4.98637 0
M  V30 3951 H 370.152 2.41037 -5.56764 0
M  V30 3952 H 368.891 2.28476 -4.30871 0
M  V30 3953 H 367.896 0.305338 -5.48951 0
M  V30 3954 H 369.121 0.451708 -6.77596 0
M  V30 3955 H 367.067 2.57007 -6.03559 0
M  V30 3956 H 366.984 1.51353 -7.40694 0
M  V30 3957 H 368.252 2.69897 -7.31284 0
M  V30 3958 N 372.481 1.55866 -0.233164 0
M  V30 3959 C 373.444 2.1953 0.658715 0
M  V30 3960 C 374.444 1.16053 1.11303 0
M  V30 3961 O 375.634 1.41218 1.01996 0
M  V30 3962 C 372.766 2.82791 1.90373 0
M  V30 3963 H 373.959 2.99721 0.10347 0
M  V30 3964 H 371.512 1.56291 0.0164245 0
M  V30 3965 H 372.247 2.06501 2.50056 0
M  V30 3966 H 372.032 3.58578 1.58632 0
M  V30 3967 H 373.522 3.31556 2.53891 0
M  V30 3968 N 373.959 -0.0401083 1.57549 0
M  V30 3969 C 374.892 -1.07689 2.01192 0
M  V30 3970 C 375.87 -1.358 0.894273 0
M  V30 3971 O 377.054 -1.48642 1.15921 0
M  V30 3972 C 374.181 -2.41418 2.3756 0
M  V30 3973 C 373.227 -2.29237 3.59656 0
M  V30 3974 S 374.06 -1.65628 5.09242 0
M  V30 3975 C 375.216 -3.0087 5.48843 0
M  V30 3976 H 375.449 -0.705108 2.88817 0
M  V30 3977 H 372.982 -0.249724 1.52367 0
M  V30 3978 H 374.94 -3.18329 2.59186 0
M  V30 3979 H 373.601 -2.75747 1.50407 0
M  V30 3980 H 372.794 -3.27932 3.82722 0
M  V30 3981 H 372.396 -1.60469 3.37825 0
M  V30 3982 H 374.688 -3.97201 5.48851 0
M  V30 3983 H 375.631 -2.82549 6.49286 0
M  V30 3984 H 376.039 -3.02934 4.76331 0
M  V30 3985 N 375.437 -1.54477 -0.31217 0
M  V30 3986 C 376.4 -1.83923 -1.36766 0
M  V30 3987 C 377.4 -0.711563 -1.44199 0
M  V30 3988 O 378.59 -0.979866 -1.44029 0
M  V30 3989 C 375.722 -2.0095 -2.75376 0
M  V30 3990 H 376.915 -2.78239 -1.11906 0
M  V30 3991 H 374.468 -1.46369 -0.548257 0
M  V30 3992 H 375.203 -1.08883 -3.05475 0
M  V30 3993 H 374.988 -2.83018 -2.71373 0
M  V30 3994 H 376.478 -2.2514 -3.51713 0
M  V30 3995 N 376.915 0.57481 -1.46744 0
M  V30 3996 C 378.192 1.3352 -1.4294 0
M  V30 3997 C 378.572 2.10775 -0.117009 0
M  V30 3998 O 377.92 2.09966 0.901474 0
M  V30 3999 C 378.13 2.25456 -2.66403 0
M  V30 4000 C 379.478 2.87035 -3.12883 0
M  V30 4001 O 380.502 2.35766 -2.67007 0
M  V30 4002 O 379.361 3.80179 -3.92589 0
M  V30 4003 H 376.455 0.600318 -0.568812 0
M  V30 4004 H 379.001 0.595171 -1.58921 0
M  V30 4005 H 377.773 1.67851 -3.53471 0
M  V30 4006 H 377.396 3.06785 -2.52921 0
M  V30 4007 N 378.394 1.34581 0.820102 0
M  V30 4008 C 379.624 1.29991 1.6058 0
M  V30 4009 C 380.032 -0.127588 1.88769 0
M  V30 4010 O 379.375 -1.08595 1.48165 0
M  V30 4011 C 379.437 2.02548 2.9701 0
M  V30 4012 C 379.101 3.51794 2.91701 0
M  V30 4013 C 380.098 4.46647 2.66087 0
M  V30 4014 C 377.783 3.94249 3.11245 0
M  V30 4015 C 379.777 5.81929 2.60071 0
M  V30 4016 C 377.464 5.2963 3.04853 0
M  V30 4017 C 378.462 6.23282 2.793 0
M  V30 4018 O 378.15 7.56181 2.72847 0
M  V30 4019 H 377.882 0.448539 0.505756 0
M  V30 4020 H 380.436 1.77811 1.02822 0
M  V30 4021 H 378.666 1.49345 3.56697 0
M  V30 4022 H 380.355 1.91211 3.58041 0
M  V30 4023 H 381.121 4.15168 2.5072 0
M  V30 4024 H 377 3.21749 3.30149 0
M  V30 4025 H 380.544 6.54999 2.40046 0
M  V30 4026 H 376.441 5.60727 3.19774 0
M  V30 4027 H 377.209 7.6595 2.88553 0
M  V30 4028 N 379.872 -1.04064 1.18357 0
M  V30 4029 C 381.121 -1.76662 0.973313 0
M  V30 4030 C 381.434 -1.89154 -0.497991 0
M  V30 4031 O 382.64 -2.58606 -0.826762 0
M  V30 4032 C 381.096 -3.17624 1.69242 0
M  V30 4033 C 380.704 -3.13225 3.20303 0
M  V30 4034 C 382.448 -3.946 1.56497 0
M  V30 4035 C 380.355 -4.49046 3.84853 0
M  V30 4036 H 379.285 -0.662214 0.36054 0
M  V30 4037 H 381.936 -1.16553 1.41731 0
M  V30 4038 H 380.318 -3.78129 1.1762 0
M  V30 4039 H 381.492 -2.62172 3.78949 0
M  V30 4040 H 379.807 -2.49749 3.33189 0
M  V30 4041 H 382.404 -4.95042 2.02084 0
M  V30 4042 H 382.747 -4.13074 0.517243 0
M  V30 4043 H 383.28 -3.4067 2.05399 0
M  V30 4044 H 380.019 -4.35777 4.89672 0
M  V30 4045 H 379.539 -5.00203 3.30994 0
M  V30 4046 H 381.218 -5.17961 3.87718 0
M  V30 4047 N 381.35 -0.985608 -1.22978 0
M  V30 4048 C 382.282 -0.488154 -2.23941 0
M  V30 4049 C 383.295 0.41282 -1.57479 0
M  V30 4050 O 384.484 0.216121 -1.77187 0
M  V30 4051 C 381.584 0.312611 -3.37455 0
M  V30 4052 C 380.757 -0.582741 -4.33501 0
M  V30 4053 C 379.816 0.165064 -5.25941 0
M  V30 4054 O 378.842 -0.447077 -5.67442 0
M  V30 4055 N 380.044 1.44953 -5.62111 0
M  V30 4056 H 382.809 -1.3563 -2.67254 0
M  V30 4057 H 380.37 -0.859477 -1.37203 0
M  V30 4058 H 382.362 0.821357 -3.96277 0
M  V30 4059 H 380.932 1.0818 -2.93285 0
M  V30 4060 H 380.152 -1.27225 -3.73105 0
M  V30 4061 H 381.44 -1.19275 -4.94622 0
M  V30 4062 H 380.838 1.9683 -5.30353 0
M  V30 4063 H 379.395 1.90361 -6.23383 0
M  V30 4064 N 382.828 1.3818 -0.7579 0
M  V30 4065 C 384.056 2.04301 -0.326937 0
M  V30 4066 C 384.471 1.57163 1.0462 0
M  V30 4067 O 383.828 0.746626 1.66529 0
M  V30 4068 C 383.879 3.59846 -0.345363 0
M  V30 4069 O 383.6 4.05256 -1.66432 0
M  V30 4070 C 385.101 4.4319 0.098927 0
M  V30 4071 H 382.321 0.656443 -0.139012 0
M  V30 4072 H 384.865 1.76786 -1.02796 0
M  V30 4073 H 383.02 3.86182 0.306955 0
M  V30 4074 H 383.434 4.99709 -1.59345 0
M  V30 4075 H 384.908 5.51989 0.0348745 0
M  V30 4076 H 385.385 4.23947 1.14741 0
M  V30 4077 H 385.991 4.22051 -0.52468 0
M  V30 4078 N 384.306 0.507319 1.49211 0
M  V30 4079 C 385.236 -0.256939 2.32082 0
M  V30 4080 C 386.217 -0.956609 1.40652 0
M  V30 4081 O 387.402 -0.946788 1.69557 0
M  V30 4082 C 384.532 -1.31802 3.21318 0
M  V30 4083 C 383.486 -0.737855 4.21592 0
M  V30 4084 C 382.812 -1.89992 4.99807 0
M  V30 4085 C 384.112 0.275325 5.21574 0
M  V30 4086 H 385.806 0.434798 2.96226 0
M  V30 4087 H 383.352 0.210546 1.42452 0
M  V30 4088 H 385.305 -1.86045 3.78107 0
M  V30 4089 H 384.029 -2.03903 2.5513 0
M  V30 4090 H 382.688 -0.217126 3.65956 0
M  V30 4091 H 382.336 -2.60877 4.30061 0
M  V30 4092 H 382.036 -1.51777 5.6766 0
M  V30 4093 H 383.56 -2.44657 5.59442 0
M  V30 4094 H 384.974 -0.179193 5.7302 0
M  V30 4095 H 383.371 0.573649 5.97352 0
M  V30 4096 H 384.441 1.18903 4.70096 0
M  V30 4097 N 385.784 -1.5574 0.241426 0
M  V30 4098 C 386.747 -2.19877 -0.647063 0
M  V30 4099 C 387.747 -1.16642 -1.10686 0
M  V30 4100 O 388.937 -1.41757 -1.01245 0
M  V30 4101 C 386.069 -2.83797 -1.88871 0
M  V30 4102 H 387.262 -2.99772 -0.087574 0
M  V30 4103 H 384.815 -1.56298 -0.00813574 0
M  V30 4104 H 385.55 -2.07824 -2.48957 0
M  V30 4105 H 385.335 -3.59414 -1.56728 0
M  V30 4106 H 386.825 -3.32898 -2.52129 0
M  V30 4107 N 387.262 0.0317525 -1.57568 0
M  V30 4108 C 388.172 1.05021 -2.0978 0
M  V30 4109 C 389.188 1.39809 -1.03583 0
M  V30 4110 O 390.364 1.49182 -1.35302 0
M  V30 4111 C 387.429 2.33301 -2.56459 0
M  V30 4112 C 386.49 2.0512 -3.77127 0
M  V30 4113 C 385.723 3.27283 -4.2157 0
M  V30 4114 O 385.946 4.37861 -3.65559 0
M  V30 4115 O 384.88 3.13141 -5.14029 0
M  V30 4116 H 388.706 0.636505 -2.96955 0
M  V30 4117 H 386.291 0.248559 -1.47318 0
M  V30 4118 H 388.173 3.08722 -2.86825 0
M  V30 4119 H 386.848 2.73973 -1.72397 0
M  V30 4120 H 385.755 1.27276 -3.51784 0
M  V30 4121 H 387.088 1.69305 -4.62165 0
M  V30 4122 N 388.74 1.54641 0.303973 0
M  V30 4123 C 389.703 1.84646 1.35789 0
M  V30 4124 C 390.703 0.7192 1.4382 0
M  V30 4125 O 391.893 0.987491 1.43507 0
M  V30 4126 C 389.025 2.02407 2.74307 0
M  V30 4127 H 390.218 2.78829 1.10429 0
M  V30 4128 H 387.771 1.46658 0.540487 0
M  V30 4129 H 388.506 1.10502 3.04893 0
M  V30 4130 H 388.291 2.84453 2.69868 0
M  V30 4131 H 389.781 2.27002 3.50514 0
M  V30 4132 N 390.218 -0.567019 1.47046 0
M  V30 4133 C 391.181 -1.65696 1.58359 0
M  V30 4134 C 392.181 -1.54097 0.459441 0
M  V30 4135 O 393.371 -1.58432 0.724225 0
M  V30 4136 C 390.503 -3.05197 1.51879 0
M  V30 4137 H 391.696 -1.57019 2.5551 0
M  V30 4138 H 389.249 -0.786148 1.3509 0
M  V30 4139 H 389.984 -3.19417 0.560673 0
M  V30 4140 H 389.769 -3.15025 2.33455 0
M  V30 4141 H 391.259 -3.84511 1.62913 0
M  V30 4142 N 391.696 -1.35014 -0.812953 0
M  V30 4143 C 392.643 -1.27412 -1.92444 0
M  V30 4144 C 393.613 -0.14733 -1.65445 0
M  V30 4145 O 394.798 -0.329974 -1.87925 0
M  V30 4146 C 391.938 -1.04558 -3.28879 0
M  V30 4147 C 391.051 -2.26101 -3.68106 0
M  V30 4148 C 390.186 -1.96449 -4.9354 0
M  V30 4149 C 389.225 -3.14081 -5.25376 0
M  V30 4150 N 388.362 -2.84246 -6.41988 0
M  V30 4151 H 393.202 -2.22463 -1.98278 0
M  V30 4152 H 390.739 -1.10593 -0.969933 0
M  V30 4153 H 392.697 -0.893413 -4.07522 0
M  V30 4154 H 391.327 -0.131719 -3.22531 0
M  V30 4155 H 390.379 -2.52204 -2.84775 0
M  V30 4156 H 391.691 -3.13959 -3.87597 0
M  V30 4157 H 390.845 -1.78026 -5.79993 0
M  V30 4158 H 389.584 -1.05867 -4.76071 0
M  V30 4159 H 388.589 -3.33089 -4.37415 0
M  V30 4160 H 389.814 -4.05455 -5.44778 0
M  V30 4161 H 387.76 -1.96252 -6.25956 0
M  V30 4162 H 387.677 -3.65637 -6.61699 0
M  V30 4163 H 388.945 -2.6935 -7.31485 0
M  V30 4164 N 393.175 1.03435 -1.18907 0
M  V30 4165 C 394.586 1.58195 -0.991523 0
M  V30 4166 C 394.937 1.90801 0.457081 0
M  V30 4167 O 394.062 1.70272 1.33553 0
M  V30 4168 C 394.657 2.87432 -1.79355 0
M  V30 4169 C 393.216 3.38785 -1.64017 0
M  V30 4170 C 392.363 2.12292 -1.78402 0
M  V30 4171 H 395.314 0.860299 -1.33359 0
M  V30 4172 H 395.335 3.58096 -1.28638 0
M  V30 4173 H 394.847 2.63669 -2.84781 0
M  V30 4174 H 392.948 3.67547 -0.611536 0
M  V30 4175 H 393.061 4.12186 -2.44212 0
M  V30 4176 H 391.425 2.23901 -1.2141 0
M  V30 4177 H 392.208 1.90977 -2.85277 0
M  V30 4178 N 394.653 0.992116 1.22453 0
M  V30 4179 C 395.9 0.667534 1.91181 0
M  V30 4180 C 396.228 -0.800317 1.77271 0
M  V30 4181 O 395.483 -1.59421 1.13505 0
M  V30 4182 C 395.782 1.01832 3.42586 0
M  V30 4183 C 395.448 2.47831 3.76684 0
M  V30 4184 C 394.11 2.87729 3.85701 0
M  V30 4185 C 396.462 3.42466 3.92895 0
M  V30 4186 C 393.79 4.21252 4.08367 0
M  V30 4187 C 396.142 4.75648 4.17064 0
M  V30 4188 C 394.806 5.15288 4.24305 0
M  V30 4189 H 394.076 0.244268 0.699581 0
M  V30 4190 H 396.723 1.24816 1.45235 0
M  V30 4191 H 395.028 0.355769 3.90181 0
M  V30 4192 H 396.725 0.745228 3.94014 0
M  V30 4193 H 393.315 2.15905 3.70247 0
M  V30 4194 H 397.499 3.12814 3.85307 0
M  V30 4195 H 392.755 4.51554 4.122 0
M  V30 4196 H 396.929 5.48924 4.2855 0
M  V30 4197 H 394.556 6.18769 4.41621 0
M  V30 4198 N 396.131 -1.37776 0.765217 0
M  V30 4199 C 397.081 -2.2768 0.12075 0
M  V30 4200 C 398.065 -1.45778 -0.680988 0
M  V30 4201 O 399.257 -1.684 -0.545033 0
M  V30 4202 C 396.386 -3.34722 -0.762626 0
M  V30 4203 C 395.472 -4.24074 0.0465881 0
M  V30 4204 N 395.863 -4.93939 1.08892 0
M  V30 4205 C 394.161 -4.45643 -0.178418 0
M  V30 4206 C 394.862 -5.59845 1.57951 0
M  V30 4207 N 393.838 -5.36218 0.892797 0
M  V30 4208 H 397.64 -2.79166 0.918889 0
M  V30 4209 H 395.154 -1.50816 0.602353 0
M  V30 4210 H 397.151 -3.98031 -1.24005 0
M  V30 4211 H 395.811 -2.84793 -1.55959 0
M  V30 4212 H 396.822 -4.96572 1.47095 0
M  V30 4213 H 393.499 -4.06599 -0.9478 0
M  V30 4214 H 394.889 -6.25703 2.44838 0
M  V30 4215 N 397.609 -0.515225 -1.4894 0
M  V30 4216 C 398.539 0.244628 -2.32215 0
M  V30 4217 C 399.52 0.949136 -1.41157 0
M  V30 4218 O 400.705 0.937783 -1.70057 0
M  V30 4219 C 397.835 1.30096 -3.22013 0
M  V30 4220 C 396.789 0.715486 -4.21977 0
M  V30 4221 C 396.115 1.87339 -5.00808 0
M  V30 4222 C 397.415 -0.302982 -5.2142 0
M  V30 4223 H 399.109 -0.450501 -2.95991 0
M  V30 4224 H 396.655 -0.218098 -1.42339 0
M  V30 4225 H 398.608 1.84037 -3.79089 0
M  V30 4226 H 397.332 2.02547 -2.56207 0
M  V30 4227 H 395.991 0.197715 -3.66066 0
M  V30 4228 H 395.639 2.58592 -4.31438 0
M  V30 4229 H 395.339 1.48764 -5.68457 0
M  V30 4230 H 396.863 2.41686 -5.60732 0
M  V30 4231 H 398.277 0.148802 -5.73107 0
M  V30 4232 H 396.674 -0.60532 -5.97039 0
M  V30 4233 H 397.744 -1.21395 -4.69459 0
M  V30 4234 N 399.087 1.5561 -0.249682 0
M  V30 4235 C 400.503 1.59254 0.105103 0
M  V30 4236 C 400.703 1.26685 1.56694 0
M  V30 4237 O 399.759 1.0155 2.31179 0
M  V30 4238 C 401.072 2.99687 -0.246592 0
M  V30 4239 C 402.62 3.12416 -0.191118 0
M  V30 4240 C 403.095 4.55074 -0.516885 0
M  V30 4241 N 404.586 4.60835 -0.467489 0
M  V30 4242 C 405.321 5.69201 -0.69268 0
M  V30 4243 N 404.817 6.85817 -0.981146 0
M  V30 4244 N 406.61 5.58635 -0.623198 0
M  V30 4245 H 398.761 1.75049 -1.20298 0
M  V30 4246 H 401.024 0.815003 -0.484225 0
M  V30 4247 H 400.73 3.28267 -1.26228 0
M  V30 4248 H 400.604 3.74798 0.424962 0
M  V30 4249 H 402.991 2.83615 0.815247 0
M  V30 4250 H 403.072 2.39573 -0.896563 0
M  V30 4251 H 402.716 4.84596 -1.52082 0
M  V30 4252 H 402.646 5.26181 0.210068 0
M  V30 4253 H 405.137 3.7705 -0.253373 0
M  V30 4254 H 405.45 7.64341 -1.14032 0
M  V30 4255 H 403.795 6.87494 -1.01865 0
M  V30 4256 H 406.986 4.66406 -0.397863 0
M  V30 4257 H 407.159 6.43017 -0.802093 0
M  V30 4258 N 400.565 -0.0233959 1.57583 0
M  V30 4259 C 401.814 -0.712133 1.8871 0
M  V30 4260 C 402.127 -1.76217 0.848944 0
M  V30 4261 O 403.333 -2.50389 1.04964 0
M  V30 4262 C 401.789 -1.3177 3.3491 0
M  V30 4263 C 401.397 -0.303715 4.46969 0
M  V30 4264 C 403.141 -1.98598 3.75179 0
M  V30 4265 C 401.048 -0.917945 5.84233 0
M  V30 4266 H 399.978 -0.269735 0.704101 0
M  V30 4267 H 402.629 0.0333114 1.8347 0
M  V30 4268 H 401.011 -2.11304 3.34913 0
M  V30 4269 H 402.185 0.465325 4.58445 0
M  V30 4270 H 400.5 0.2628 4.1557 0
M  V30 4271 H 403.097 -2.45416 4.75053 0
M  V30 4272 H 403.44 -2.80659 3.07468 0
M  V30 4273 H 403.973 -1.25831 3.77374 0
M  V30 4274 H 400.712 -0.136633 6.55358 0
M  V30 4275 H 400.232 -1.65669 5.76467 0
M  V30 4276 H 401.911 -1.4236 6.31144 0
M  V30 4277 N 402.043 -1.548 -0.295768 0
M  V30 4278 C 402.953 -1.89177 -1.38742 0
M  V30 4279 C 403.969 -0.786481 -1.55211 0
M  V30 4280 O 405.145 -1.08344 -1.69775 0
M  V30 4281 C 402.21 -2.13663 -2.73036 0
M  V30 4282 C 401.271 -3.37349 -2.65508 0
M  V30 4283 C 400.504 -3.60658 -3.93398 0
M  V30 4284 O 400.727 -2.86882 -4.93006 0
M  V30 4285 O 399.661 -4.54179 -3.94975 0
M  V30 4286 H 403.487 -2.82059 -1.12589 0
M  V30 4287 H 401.072 -1.41056 -0.492295 0
M  V30 4288 H 402.954 -2.3094 -3.52484 0
M  V30 4289 H 401.629 -1.23967 -2.99022 0
M  V30 4290 H 400.536 -3.25431 -1.84514 0
M  V30 4291 H 401.869 -4.27192 -2.44474 0
M  V30 4292 N 403.521 0.559213 -1.47345 0
M  V30 4293 C 404.769 1.31388 -1.53563 0
M  V30 4294 C 405.09 1.93985 -0.198678 0
M  V30 4295 O 404.36 1.79825 0.777167 0
M  V30 4296 H 402.94 0.487901 -0.565652 0
M  V30 4297 H 405.602 0.65315 -1.8363 0
M  V30 4298 H 404.698 2.10844 -2.30111 0
M  V30 4299 N 404.999 1.35443 0.805782 0
M  V30 4300 C 406.41 1.25768 1.37983 0
M  V30 4301 C 406.761 -0.10958 1.95894 0
M  V30 4302 O 405.886 -1.01056 1.91355 0
M  V30 4303 C 406.481 2.27727 2.5085 0
M  V30 4304 C 405.04 2.2179 3.04115 0
M  V30 4305 C 404.187 2.13393 1.77084 0
M  V30 4306 H 407.138 1.4656 0.608752 0
M  V30 4307 H 407.159 1.90422 3.29424 0
M  V30 4308 H 406.671 3.27227 2.08671 0
M  V30 4309 H 404.772 1.25703 3.50756 0
M  V30 4310 H 404.885 3.13788 3.62042 0
M  V30 4311 H 403.249 1.59384 1.98668 0
M  V30 4312 H 404.032 3.14755 1.37056 0
M  V30 4313 N 406.477 -1.02803 1.19454 0
M  V30 4314 C 407.41 -2.107 0.876396 0
M  V30 4315 C 408.388 -1.61741 -0.166897 0
M  V30 4316 O 409.572 -1.88451 -0.0430195 0
M  V30 4317 C 406.699 -3.37262 0.311758 0
M  V30 4318 C 405.745 -4.05093 1.33424 0
M  V30 4319 S 406.578 -4.50498 2.89503 0
M  V30 4320 C 407.734 -5.80277 2.34584 0
M  V30 4321 H 407.967 -2.37362 1.79016 0
M  V30 4322 H 405.5 -1.15755 1.02177 0
M  V30 4323 H 407.458 -4.10499 -0.00748752 0
M  V30 4324 H 406.119 -3.08693 -0.58032 0
M  V30 4325 H 405.312 -4.9611 0.888302 0
M  V30 4326 H 404.914 -3.3803 1.60037 0
M  V30 4327 H 407.206 -6.54873 1.73633 0
M  V30 4328 H 408.149 -6.29651 3.23952 0
M  V30 4329 H 408.557 -5.3599 1.77131 0
M  V30 4330 N 407.956 -0.998596 -1.21925 0
M  V30 4331 C 409.233 -0.593401 -1.86382 0
M  V30 4332 C 409.613 0.92916 -1.89552 0
M  V30 4333 O 408.961 1.81347 -1.39017 0
M  V30 4334 C 409.171 -1.22039 -3.26967 0
M  V30 4335 C 410.519 -1.32449 -4.03413 0
M  V30 4336 O 411.543 -1.17522 -3.36254 0
M  V30 4337 O 410.402 -1.56395 -5.23644 0
M  V30 4338 H 407.496 -0.202385 -0.801854 0
M  V30 4339 H 410.042 -1.09484 -1.29659 0
M  V30 4340 H 408.814 -2.26158 -3.19325 0
M  V30 4341 H 408.437 -0.704906 -3.91301 0
M  V30 4342 N 409.434 1.37368 -0.772513 0
M  V30 4343 C 410.68 1.99969 -0.337681 0
M  V30 4344 C 411.013 1.61184 1.08321 0
M  V30 4345 O 410.288 0.858395 1.74533 0
M  V30 4346 C 410.571 3.56858 -0.482121 0
M  V30 4347 C 410.424 4.0555 -1.94549 0
M  V30 4348 C 411.743 4.39955 0.113143 0
M  V30 4349 H 408.862 0.726464 -0.124171 0
M  V30 4350 H 411.504 1.63034 -0.975699 0
M  V30 4351 H 409.654 3.88452 0.0610361 0
M  V30 4352 H 411.326 3.84518 -2.54841 0
M  V30 4353 H 409.569 3.57715 -2.45403 0
M  V30 4354 H 410.24 5.14587 -1.9976 0
M  V30 4355 H 412.716 4.14623 -0.35031 0
M  V30 4356 H 411.592 5.48897 -0.0180514 0
M  V30 4357 H 411.853 4.25403 1.20354 0
M  V30 4358 N 410.912 0.523116 1.48665 0
M  V30 4359 C 411.822 -0.247406 2.33292 0
M  V30 4360 C 412.838 -0.945769 1.46052 0
M  V30 4361 O 414.014 -0.922253 1.79043 0
M  V30 4362 C 411.079 -1.28487 3.22012 0
M  V30 4363 C 410.14 -0.597592 4.2512 0
M  V30 4364 C 409.373 -1.58563 5.09601 0
M  V30 4365 O 409.596 -2.81763 4.95949 0
M  V30 4366 O 408.53 -1.12879 5.91221 0
M  V30 4367 H 412.356 0.445869 3.00409 0
M  V30 4368 H 409.941 0.284128 1.46673 0
M  V30 4369 H 411.823 -1.88459 3.7691 0
M  V30 4370 H 410.498 -1.96068 2.57564 0
M  V30 4371 H 409.405 0.0424407 3.74076 0
M  V30 4372 H 410.738 0.0361517 4.92187 0
M  V30 4373 N 412.39 -1.55475 0.257931 0
M  V30 4374 C 413.667 -1.91155 -0.414629 0
M  V30 4375 C 414.047 -1.18008 -1.75035 0
M  V30 4376 O 413.395 -0.301193 -2.26506 0
M  V30 4377 C 413.605 -3.44283 -0.571859 0
M  V30 4378 C 414.953 -4.15744 -0.862678 0
M  V30 4379 O 415.977 -3.50083 -0.657314 0
M  V30 4380 O 414.836 -5.31909 -1.2544 0
M  V30 4381 H 411.93 -0.796016 -0.22425 0
M  V30 4382 H 414.476 -1.66976 0.302814 0
M  V30 4383 H 413.248 -3.89558 0.368844 0
M  V30 4384 H 412.871 -3.7436 -1.33943 0
M  V30 4385 N 413.868 0.0150385 -1.57593 0
M  V30 4386 C 415.284 0.370907 -1.5523 0
M  V30 4387 C 415.484 1.75735 -0.985882 0
M  V30 4388 O 414.54 2.44944 -0.613077 0
M  V30 4389 C 415.853 0.259908 -2.99575 0
M  V30 4390 C 417.401 0.335959 -3.11192 0
M  V30 4391 C 417.876 0.254253 -4.57294 0
M  V30 4392 N 419.367 0.312618 -4.62144 0
M  V30 4393 C 420.102 0.272505 -5.72752 0
M  V30 4394 N 419.598 0.183864 -6.92556 0
M  V30 4395 N 421.391 0.323267 -5.6117 0
M  V30 4396 H 413.542 -0.892104 -1.92757 0
M  V30 4397 H 415.805 -0.340563 -0.884715 0
M  V30 4398 H 415.511 -0.693403 -3.44797 0
M  V30 4399 H 415.385 1.048 -3.62349 0
M  V30 4400 H 417.772 1.27971 -2.65909 0
M  V30 4401 H 417.853 -0.481739 -2.51223 0
M  V30 4402 H 417.497 -0.685887 -5.03247 0
M  V30 4403 H 417.427 1.09024 -5.15191 0
M  V30 4404 H 419.918 0.38307 -3.75953 0
M  V30 4405 H 420.231 0.15874 -7.72637 0
M  V30 4406 H 418.576 0.149708 -6.94839 0
M  V30 4407 H 421.767 0.390607 -4.66467 0
M  V30 4408 H 421.94 0.288539 -6.47357 0
M  V30 4409 N 415.346 1.54954 0.287554 0
M  V30 4410 C 416.278 1.83224 1.37701 0
M  V30 4411 C 417.291 0.715898 1.46215 0
M  V30 4412 O 418.48 0.993565 1.48292 0
M  V30 4413 C 415.58 1.96723 2.75959 0
M  V30 4414 C 414.753 3.27253 2.90215 0
M  V30 4415 C 413.812 3.30998 4.09056 0
M  V30 4416 O 412.838 4.04457 4.00503 0
M  V30 4417 N 414.04 2.57353 5.20336 0
M  V30 4418 H 416.805 2.77254 1.138 0
M  V30 4419 H 414.366 1.54694 0.477652 0
M  V30 4420 H 416.358 1.96615 3.5373 0
M  V30 4421 H 414.928 1.09626 2.92747 0
M  V30 4422 H 414.148 3.40022 1.99447 0
M  V30 4423 H 415.436 4.13365 2.96659 0
M  V30 4424 H 414.834 1.97327 5.30169 0
M  V30 4425 H 413.391 2.62984 5.96391 0
M  V30 4426 N 416.824 -0.551391 1.4764 0
M  V30 4427 C 417.771 -1.65796 1.60563 0
M  V30 4428 C 418.741 -1.59932 0.448428 0
M  V30 4429 O 419.926 -1.78679 0.669222 0
M  V30 4430 C 417.066 -3.04108 1.63133 0
M  V30 4431 C 416.179 -3.20365 2.89811 0
M  V30 4432 C 415.314 -4.49109 2.8368 0
M  V30 4433 C 414.353 -4.58819 4.05156 0
M  V30 4434 N 413.49 -5.78926 3.97227 0
M  V30 4435 H 418.33 -1.54088 2.5507 0
M  V30 4436 H 415.867 -0.75052 1.26513 0
M  V30 4437 H 417.825 -3.84207 1.62606 0
M  V30 4438 H 416.455 -3.14637 0.721341 0
M  V30 4439 H 415.507 -2.33659 3.00179 0
M  V30 4440 H 416.819 -3.23402 3.79753 0
M  V30 4441 H 415.973 -5.37475 2.81434 0
M  V30 4442 H 414.712 -4.4856 1.91431 0
M  V30 4443 H 413.717 -3.68864 4.077 0
M  V30 4444 H 414.942 -4.61124 4.98539 0
M  V30 4445 H 412.888 -5.79314 3.07785 0
M  V30 4446 H 412.805 -5.83367 4.80853 0
M  V30 4447 H 414.073 -6.69637 3.99007 0
M  V30 4448 N 418.302 -1.35869 -0.798587 0
M  V30 4449 C 419.234 -1.25305 -1.91915 0
M  V30 4450 C 420.247 -0.174548 -1.61862 0
M  V30 4451 O 421.436 -0.428499 -1.73281 0
M  V30 4452 C 418.536 -0.9086 -3.26493 0
M  V30 4453 C 417.709 -2.08711 -3.84394 0
M  V30 4454 C 416.768 -1.71717 -4.97393 0
M  V30 4455 O 415.794 -2.43692 -5.14396 0
M  V30 4456 N 416.996 -0.645473 -5.769 0
M  V30 4457 H 419.761 -2.21849 -2.01502 0
M  V30 4458 H 417.322 -1.29143 -0.976408 0
M  V30 4459 H 419.314 -0.642455 -3.99568 0
M  V30 4460 H 417.884 -0.0325815 -3.12583 0
M  V30 4461 H 417.104 -2.51659 -3.03416 0
M  V30 4462 H 418.392 -2.87468 -4.19809 0
M  V30 4463 H 417.79 -0.047648 -5.6568 0
M  V30 4464 H 416.347 -0.43913 -6.50319 0
M  V30 4465 N 419.78 1.02168 -1.19998 0
M  V30 4466 C 420.713 2.10232 -0.887558 0
M  V30 4467 C 421.691 1.61827 0.158317 0
M  V30 4468 O 422.875 1.88471 0.0330249 0
M  V30 4469 C 420.002 3.37092 -0.32964 0
M  V30 4470 C 419.048 4.0438 -1.3557 0
M  V30 4471 S 419.881 4.48956 -2.91888 0
M  V30 4472 C 421.037 5.79024 -2.37658 0
M  V30 4473 H 421.27 2.36409 -1.80272 0
M  V30 4474 H 418.803 1.15211 -1.0279 0
M  V30 4475 H 420.761 4.10498 -0.0142824 0
M  V30 4476 H 419.422 3.08996 0.563941 0
M  V30 4477 H 418.615 4.95632 -0.9146 0
M  V30 4478 H 418.217 3.37176 -1.61828 0
M  V30 4479 H 420.509 6.53942 -1.77103 0
M  V30 4480 H 421.452 6.27924 -3.27287 0
M  V30 4481 H 421.86 5.35043 -1.79971 0
M  V30 4482 N 421.258 1.00505 1.21394 0
M  V30 4483 C 422.168 0.574806 2.27449 0
M  V30 4484 C 423.184 -0.382206 1.6975 0
M  V30 4485 O 424.36 -0.246027 1.99892 0
M  V30 4486 C 421.425 -0.0917414 3.46579 0
M  V30 4487 C 420.486 0.909758 4.1955 0
M  V30 4488 C 419.719 0.274924 5.32991 0
M  V30 4489 O 419.942 -0.928254 5.62796 0
M  V30 4490 O 418.876 0.985877 5.93771 0
M  V30 4491 H 422.702 1.45744 2.66444 0
M  V30 4492 H 420.287 0.773923 1.27792 0
M  V30 4493 H 422.169 -0.464551 4.18832 0
M  V30 4494 H 420.844 -0.948755 3.09484 0
M  V30 4495 H 419.751 1.33372 3.49518 0
M  V30 4496 H 421.084 1.73636 4.60555 0
M  V30 4497 N 422.737 -1.36956 0.779787 0
M  V30 4498 C 423.7 -2.2851 0.177662 0
M  V30 4499 C 424.7 -1.48393 -0.619377 0
M  V30 4500 O 425.89 -1.68505 -0.441785 0
M  V30 4501 C 423.022 -3.32428 -0.755279 0
M  V30 4502 H 424.215 -2.83269 0.984823 0
M  V30 4503 H 421.768 -1.46358 0.548544 0
M  V30 4504 H 422.503 -2.82808 -1.58714 0
M  V30 4505 H 422.288 -3.91659 -0.185817 0
M  V30 4506 H 423.778 -4.00824 -1.17174 0
M  V30 4507 N 424.215 -0.530993 -1.48385 0
M  V30 4508 C 425.148 0.278511 -2.26494 0
M  V30 4509 C 426.126 0.943905 -1.32398 0
M  V30 4510 O 427.31 0.968098 -1.61741 0
M  V30 4511 C 424.437 1.39453 -3.08659 0
M  V30 4512 C 423.483 0.840434 -4.18137 0
M  V30 4513 S 424.316 -0.292496 -5.34701 0
M  V30 4514 C 425.472 0.825973 -6.20426 0
M  V30 4515 H 425.705 -0.384365 -2.94805 0
M  V30 4516 H 423.238 -0.316799 -1.51115 0
M  V30 4517 H 425.196 2.03382 -3.56575 0
M  V30 4518 H 423.857 2.02913 -2.3976 0
M  V30 4519 H 423.05 1.67769 -4.75257 0
M  V30 4520 H 422.652 0.277819 -3.72967 0
M  V30 4521 H 424.944 1.72438 -6.55188 0
M  V30 4522 H 425.887 0.292728 -7.07495 0
M  V30 4523 H 426.295 1.10683 -5.53543 0
M  V30 4524 N 425.693 1.55336 -0.266172 0
M  V30 4525 C 427.109 1.59356 0.0882065 0
M  V30 4526 C 427.309 1.2834 1.55342 0
M  V30 4527 O 426.365 1.03996 2.30089 0
M  V30 4528 C 427.678 2.99409 -0.278364 0
M  V30 4529 C 429.226 3.12196 -0.224243 0
M  V30 4530 C 429.701 4.545 -0.565123 0
M  V30 4531 N 431.192 4.60313 -0.51634 0
M  V30 4532 C 431.927 5.68434 -0.753013 0
M  V30 4533 N 431.423 6.84738 -1.05383 0
M  V30 4534 N 433.216 5.57942 -0.682414 0
M  V30 4535 H 425.367 1.73764 -1.22147 0
M  V30 4536 H 427.63 0.809822 -0.492841 0
M  V30 4537 H 427.336 3.2691 -1.29703 0
M  V30 4538 H 427.21 3.75228 0.385186 0
M  V30 4539 H 429.597 2.84464 0.78512 0
M  V30 4540 H 429.678 2.38609 -0.921922 0
M  V30 4541 H 429.322 4.82956 -1.57213 0
M  V30 4542 H 429.252 5.26374 0.154248 0
M  V30 4543 H 431.743 3.7676 -0.29335 0
M  V30 4544 H 432.056 7.63088 -1.22133 0
M  V30 4545 H 430.401 6.86375 -1.09151 0
M  V30 4546 H 433.592 4.65958 -0.44731 0
M  V30 4547 H 433.765 6.4213 -0.870248 0
M  V30 4548 N 427.171 -0.0066808 1.57599 0
M  V30 4549 C 428.448 -0.729586 1.81484 0
M  V30 4550 C 428.828 -1.92359 0.869558 0
M  V30 4551 O 428.176 -2.28348 -0.0832533 0
M  V30 4552 C 428.386 -1.1416 3.29801 0
M  V30 4553 C 429.734 -1.54823 3.95367 0
M  V30 4554 O 430.758 -1.23558 3.34084 0
M  V30 4555 O 429.617 -2.12937 5.03309 0
M  V30 4556 H 426.711 -0.354674 0.747085 0
M  V30 4557 H 429.257 0.0182609 1.6969 0
M  V30 4558 H 428.029 -0.290231 3.90222 0
M  V30 4559 H 427.652 -1.94876 3.46568 0
M  V30 4560 N 428.649 -1.55105 -0.279332 0
M  V30 4561 C 429.579 -1.90557 -1.34945 0
M  V30 4562 C 430.56 -0.766738 -1.51839 0
M  V30 4563 O 431.745 -1.02434 -1.64988 0
M  V30 4564 C 428.875 -2.17193 -2.71006 0
M  V30 4565 C 427.829 -3.33021 -2.68851 0
M  V30 4566 C 427.155 -3.45123 -4.08405 0
M  V30 4567 C 428.455 -4.69578 -2.28678 0
M  V30 4568 H 430.149 -2.80188 -1.05522 0
M  V30 4569 H 427.695 -1.34811 -0.506173 0
M  V30 4570 H 429.648 -2.40581 -3.45975 0
M  V30 4571 H 428.372 -1.24355 -3.01999 0
M  V30 4572 H 427.031 -3.0959 -1.9634 0
M  V30 4573 H 426.679 -2.49762 -4.3661 0
M  V30 4574 H 426.379 -4.22995 -4.07859 0
M  V30 4575 H 427.903 -3.70796 -4.85121 0
M  V30 4576 H 429.317 -4.92553 -2.93368 0
M  V30 4577 H 427.714 -5.5032 -2.39306 0
M  V30 4578 H 428.784 -4.68828 -1.23807 0
M  V30 4579 N 430.127 0.543554 -1.4793 0
M  V30 4580 C 431.543 0.870806 -1.3375 0
M  V30 4581 C 431.743 1.9864 -0.338261 0
M  V30 4582 O 430.799 2.51305 0.245371 0
M  V30 4583 C 432.112 1.25114 -2.73435 0
M  V30 4584 C 433.66 1.3618 -2.81823 0
M  V30 4585 C 434.135 1.77563 -4.22179 0
M  V30 4586 N 435.626 1.8469 -4.24787 0
M  V30 4587 C 436.361 2.18067 -5.30315 0
M  V30 4588 N 435.857 2.49963 -6.46135 0
M  V30 4589 N 437.65 2.18958 -5.17701 0
M  V30 4590 H 429.801 -0.19275 -2.11524 0
M  V30 4591 H 432.064 -0.0235777 -0.947707 0
M  V30 4592 H 431.77 0.50514 -3.48053 0
M  V30 4593 H 431.644 2.20431 -3.06088 0
M  V30 4594 H 434.031 2.09859 -2.07468 0
M  V30 4595 H 434.112 0.390169 -2.52807 0
M  V30 4596 H 433.756 1.04449 -4.97044 0
M  V30 4597 H 433.686 2.75753 -4.48629 0
M  V30 4598 H 436.177 1.62372 -3.41239 0
M  V30 4599 H 436.49 2.74497 -7.22406 0
M  V30 4600 H 434.835 2.47513 -6.49432 0
M  V30 4601 H 438.026 1.93488 -4.2624 0
M  V30 4602 H 438.199 2.44639 -6.00047 0
M  V30 4603 N 431.605 1.3629 0.791371 0
M  V30 4604 C 432.568 1.30309 1.88553 0
M  V30 4605 C 433.568 0.211204 1.59407 0
M  V30 4606 O 434.758 0.465865 1.67855 0
M  V30 4607 C 431.89 1.01956 3.25297 0
M  V30 4608 H 433.083 2.27614 1.95273 0
M  V30 4609 H 430.636 1.21035 0.988953 0
M  V30 4610 H 431.371 0.050998 3.2426 0
M  V30 4611 H 431.156 1.80968 3.4784 0
M  V30 4612 H 432.646 1.0037 4.05359 0
M  V30 4613 N 433.083 -1.0153 1.20538 0
M  V30 4614 C 433.993 -2.13557 0.971113 0
M  V30 4615 C 435.009 -1.73845 -0.0734366 0
M  V30 4616 O 436.185 -2.01075 0.114299 0
M  V30 4617 C 433.25 -3.42661 0.527639 0
M  V30 4618 C 432.311 -3.96608 1.64319 0
M  V30 4619 C 431.544 -5.1955 1.22078 0
M  V30 4620 O 431.767 -5.70329 0.0900198 0
M  V30 4621 O 430.701 -5.66681 2.02871 0
M  V30 4622 H 434.527 -2.3619 1.90913 0
M  V30 4623 H 432.112 -1.11946 0.989362 0
M  V30 4624 H 433.994 -4.20404 0.289621 0
M  V30 4625 H 432.669 -3.21441 -0.381779 0
M  V30 4626 H 431.576 -3.20139 1.93551 0
M  V30 4627 H 432.909 -4.22219 2.52966 0
M  V30 4628 N 434.561 -1.01147 -1.20859 0
M  V30 4629 C 435.491 -0.597663 -2.25722 0
M  V30 4630 C 436.472 0.384744 -1.65692 0
M  V30 4631 O 437.657 0.271303 -1.92296 0
M  V30 4632 C 434.787 0.0700149 -3.47229 0
M  V30 4633 C 433.741 -0.832843 -4.19819 0
M  V30 4634 C 433.067 -0.0312202 -5.34691 0
M  V30 4635 C 434.367 -2.1385 -4.76514 0
M  V30 4636 H 436.061 -1.47423 -2.60589 0
M  V30 4637 H 433.607 -0.710301 -1.25263 0
M  V30 4638 H 435.56 0.37103 -4.19763 0
M  V30 4639 H 434.284 0.981259 -3.11511 0
M  V30 4640 H 432.943 -1.11778 -3.49144 0
M  V30 4641 H 432.591 0.881515 -4.95215 0
M  V30 4642 H 432.291 -0.632434 -5.84187 0
M  V30 4643 H 433.815 0.26346 -6.10031 0
M  V30 4644 H 435.229 -1.9002 -5.40893 0
M  V30 4645 H 433.626 -2.69012 -5.36426 0
M  V30 4646 H 434.696 -2.80495 -3.95538 0
M  V30 4647 N 436.039 1.36541 -0.78704 0
M  V30 4648 C 437.316 1.9355 -0.282424 0
M  V30 4649 C 437.696 1.71919 1.22503 0
M  V30 4650 O 437.044 1.07677 2.01539 0
M  V30 4651 C 437.254 3.4246 -0.672462 0
M  V30 4652 C 438.602 4.19582 -0.650863 0
M  V30 4653 O 439.626 3.50889 -0.612789 0
M  V30 4654 O 438.485 5.42106 -0.691623 0
M  V30 4655 H 435.579 0.824091 -0.0693 0
M  V30 4656 H 438.125 1.45736 -0.869423 0
M  V30 4657 H 436.897 3.51851 -1.71221 0
M  V30 4658 H 436.52 3.97556 -0.0592211 0
M  V30 4659 N 437.518 0.538854 1.48102 0
M  V30 4660 C 438.766 0.00798599 2.02098 0
M  V30 4661 C 439.087 -1.33922 1.41739 0
M  V30 4662 O 438.357 -1.86932 0.585934 0
M  V30 4663 H 436.937 -3.62179e-05 0.747 0
M  V30 4664 H 439.599 0.7047 1.81714 0
M  V30 4665 H 438.695 -0.0937672 3.11959 0
M  V30 4666 N 438.996 -1.55193 0.274407 0
M  V30 4667 C 440.412 -1.59401 -0.0797543 0
M  V30 4668 C 440.612 -1.29162 -1.54659 0
M  V30 4669 O 439.668 -1.05215 -2.29534 0
M  V30 4670 C 440.981 -2.99257 0.294238 0
M  V30 4671 C 442.529 -3.12072 0.240796 0
M  V30 4672 C 443.004 -4.54194 0.589218 0
M  V30 4673 N 444.495 -4.60033 0.540744 0
M  V30 4674 C 445.23 -5.68027 0.783147 0
M  V30 4675 N 444.726 -6.8417 1.09013 0
M  V30 4676 N 446.519 -5.57572 0.711993 0
M  V30 4677 H 438.67 -1.73113 1.23067 0
M  V30 4678 H 440.933 -0.807197 0.497129 0
M  V30 4679 H 440.639 -3.26217 1.31435 0
M  V30 4680 H 440.513 -3.75427 -0.365281 0
M  V30 4681 H 442.9 -2.84877 -0.770024 0
M  V30 4682 H 442.981 -2.38117 0.934563 0
M  V30 4683 H 442.625 -4.82115 1.59772 0
M  V30 4684 H 442.555 -5.26448 -0.126331 0
M  V30 4685 H 445.046 -3.76599 0.313327 0
M  V30 4686 H 445.359 -7.6243 1.26178 0
M  V30 4687 H 443.704 -6.85787 1.12789 0
M  V30 4688 H 446.895 -4.65714 0.472014 0
M  V30 4689 H 447.068 -6.41659 0.90429 0
M  V30 4690 N 440.474 -0.00167713 -1.576 0
M  V30 4691 C 441.722 0.681471 -1.90264 0
M  V30 4692 C 442.043 1.7422 -0.875924 0
M  V30 4693 O 441.313 1.95709 0.0864412 0
M  V30 4694 H 439.893 0.254696 -0.702239 0
M  V30 4695 H 442.555 -0.0429996 -1.94853 0
M  V30 4696 H 441.651 1.15166 -2.90075 0
M  V30 4697 N 441.952 1.55251 0.271103 0
M  V30 4698 C 443.198 1.76207 1.00394 0
M  V30 4699 C 443.531 0.562604 1.85872 0
M  V30 4700 O 442.806 -0.439785 1.89463 0
M  V30 4701 C 443.089 3.06828 1.8849 0
M  V30 4702 C 442.942 4.37134 1.05992 0
M  V30 4703 C 444.261 3.33503 2.87165 0
M  V30 4704 H 441.38 0.641086 0.363562 0
M  V30 4705 H 444.022 1.87982 0.276189 0
M  V30 4706 H 442.172 2.96921 2.5054 0
M  V30 4707 H 443.844 4.59001 0.459978 0
M  V30 4708 H 442.087 4.32275 0.363443 0
M  V30 4709 H 442.758 5.2486 1.70955 0
M  V30 4710 H 445.234 3.43215 2.3525 0
M  V30 4711 H 444.11 4.2616 3.45946 0
M  V30 4712 H 444.371 2.53235 3.62387 0
M  V30 4713 N 443.43 -0.535701 1.48216 0
M  V30 4714 C 444.707 -1.29683 1.46429 0
M  V30 4715 C 445.087 -2.10391 0.172852 0
M  V30 4716 O 444.435 -2.12282 -0.845488 0
M  V30 4717 C 444.645 -2.18313 2.72287 0
M  V30 4718 C 445.993 -2.78639 3.20383 0
M  V30 4719 O 447.017 -2.28604 2.73164 0
M  V30 4720 O 445.876 -3.69636 4.02531 0
M  V30 4721 H 442.97 -0.585026 0.584529 0
M  V30 4722 H 445.516 -0.552827 1.60443 0
M  V30 4723 H 444.288 -1.58421 3.57797 0
M  V30 4724 H 443.911 -2.99971 2.60966 0
M  V30 4725 N 444.908 -1.36708 -0.784132 0
M  V30 4726 C 445.871 -1.31307 -1.87859 0
M  V30 4727 C 446.871 -0.219654 -1.59293 0
M  V30 4728 O 448.061 -0.47476 -1.67606 0
M  V30 4729 C 445.193 -1.03679 -3.24751 0
M  V30 4730 H 446.386 -2.28647 -1.94064 0
M  V30 4731 H 443.939 -1.21558 -0.98252 0
M  V30 4732 H 444.674 -0.0681936 -3.24228 0
M  V30 4733 H 444.459 -1.82811 -3.46876 0
M  V30 4734 H 445.949 -1.02518 -4.04821 0
M  V30 4735 N 446.386 1.0089 -1.21074 0
M  V30 4736 C 447.296 2.13039 -0.982425 0
M  V30 4737 C 448.312 1.73881 0.0642161 0
M  V30 4738 O 449.488 2.01012 -0.12496 0
M  V30 4739 C 446.553 3.42377 -0.545803 0
M  V30 4740 C 445.614 3.95731 -1.6642 0
M  V30 4741 C 444.847 5.18896 -1.24832 0
M  V30 4742 O 445.07 5.70273 -0.120265 0
M  V30 4743 O 444.004 5.65597 -2.05873 0
M  V30 4744 H 447.83 2.35175 -1.92163 0
M  V30 4745 H 445.415 1.1142 -0.995285 0
M  V30 4746 H 447.297 4.20244 -0.311912 0
M  V30 4747 H 445.972 3.21639 0.364727 0
M  V30 4748 H 444.879 3.19108 -1.95246 0
M  V30 4749 H 446.212 4.20872 -2.55201 0
M  V30 4750 N 447.864 1.01787 1.20321 0
M  V30 4751 C 448.794 0.609625 2.25401 0
M  V30 4752 C 449.775 -0.375951 1.65893 0
M  V30 4753 O 450.96 -0.261101 1.92437 0
M  V30 4754 C 448.09 -0.0515995 3.47262 0
M  V30 4755 C 447.044 0.855095 4.19371 0
M  V30 4756 C 446.37 0.0595757 5.34667 0
M  V30 4757 C 447.67 2.16374 4.75373 0
M  V30 4758 H 449.364 1.48803 2.59804 0
M  V30 4759 H 446.91 0.716934 1.24884 0
M  V30 4760 H 448.863 -0.348764 4.19954 0
M  V30 4761 H 447.587 -0.964726 3.12027 0
M  V30 4762 H 446.246 1.13628 3.48546 0
M  V30 4763 H 445.894 -0.85524 4.95676 0
M  V30 4764 H 445.594 0.663406 5.83843 0
M  V30 4765 H 447.118 -0.231105 6.10162 0
M  V30 4766 H 448.532 1.92885 5.39878 0
M  V30 4767 H 446.929 2.71853 5.34991 0
M  V30 4768 H 447.999 2.82589 3.94045 0
M  V30 4769 N 449.342 -1.36122 0.79427 0
M  V30 4770 C 450.588 -1.99406 0.369452 0
M  V30 4771 C 450.921 -1.62886 -1.05743 0
M  V30 4772 O 450.196 -0.886053 -1.73145 0
M  V30 4773 C 450.479 -3.56046 0.538833 0
M  V30 4774 C 450.332 -4.02404 2.00976 0
M  V30 4775 C 451.651 -4.40079 -0.0431359 0
M  V30 4776 H 448.77 -0.724397 0.135712 0
M  V30 4777 H 451.412 -1.61461 1.00151 0
M  V30 4778 H 449.562 -3.885 0.000771004 0
M  V30 4779 H 451.234 -3.80415 2.60926 0
M  V30 4780 H 449.477 -3.53765 2.51063 0
M  V30 4781 H 450.148 -5.11344 2.07922 0
M  V30 4782 H 452.624 -4.14013 0.416228 0
M  V30 4783 H 451.5 -5.48799 0.105374 0
M  V30 4784 H 451.761 -4.27264 -1.13571 0
M  V30 4785 N 450.82 -0.546701 -1.47814 0
M  V30 4786 C 451.783 0.196287 -2.28358 0
M  V30 4787 C 452.783 0.852437 -1.36346 0
M  V30 4788 O 453.973 0.709913 -1.59078 0
M  V30 4789 C 451.105 1.28579 -3.15722 0
M  V30 4790 H 452.298 -0.511086 -2.95513 0
M  V30 4791 H 449.851 -0.303248 -1.5333 0
M  V30 4792 H 450.586 2.0259 -2.53235 0
M  V30 4793 H 450.371 0.820229 -3.83425 0
M  V30 4794 H 451.861 1.80793 -3.76435 0
M  V30 4795 N 452.299 1.55045 -0.282633 0
M  V30 4796 C 453.576 1.9179 0.384166 0
M  V30 4797 C 453.956 1.20778 1.73136 0
M  V30 4798 O 453.304 0.33719 2.25998 0
M  V30 4799 C 453.514 3.45149 0.517014 0
M  V30 4800 C 454.862 4.17064 0.796427 0
M  V30 4801 O 455.886 3.51084 0.601535 0
M  V30 4802 O 454.745 5.33837 1.16962 0
M  V30 4803 H 451.839 0.799483 0.211558 0
M  V30 4804 H 454.385 1.66474 -0.32934 0
M  V30 4805 H 453.157 3.88922 -0.430772 0
M  V30 4806 H 452.78 3.76443 1.2797 0
M  V30 4807 N 453.777 0.010035 1.57597 0
M  V30 4808 C 454.687 -0.994226 2.12491 0
M  V30 4809 C 455.703 -1.37013 1.07254 0
M  V30 4810 O 456.879 -1.45542 1.3921 0
M  V30 4811 C 453.944 -2.2642 2.62555 0
M  V30 4812 C 453.005 -1.95049 3.82432 0
M  V30 4813 C 452.238 -3.15991 4.30099 0
M  V30 4814 O 452.461 -4.28015 3.7704 0
M  V30 4815 O 451.395 -2.99403 5.22151 0
M  V30 4816 H 455.221 -0.557549 2.98538 0
M  V30 4817 H 452.806 -0.209413 1.47925 0
M  V30 4818 H 454.688 -3.01009 2.9491 0
M  V30 4819 H 453.363 -2.69306 1.796 0
M  V30 4820 H 452.27 -1.17904 3.55034 0
M  V30 4821 H 453.603 -1.56992 4.66491 0
M  V30 4822 N 455.255 -1.55392 -0.262866 0
M  V30 4823 C 456.501 -1.77657 -0.990424 0
M  V30 4824 C 456.856 -0.576333 -1.83565 0
M  V30 4825 O 456.149 0.430795 -1.86694 0
M  V30 4826 C 456.343 -3.02889 -1.89718 0
M  V30 4827 C 456.172 -4.34979 -1.14121 0
M  V30 4828 C 454.942 -4.98052 -0.852768 0
M  V30 4829 C 457.14 -5.11597 -0.526625 0
M  V30 4830 N 455.122 -6.13859 -0.0710649 0
M  V30 4831 C 456.493 -6.19883 0.12042 0
M  V30 4832 C 458.548 -4.95992 -0.435485 0
M  V30 4833 C 457.251 -7.14262 0.849833 0
M  V30 4834 C 459.277 -5.90735 0.280359 0
M  V30 4835 C 458.639 -6.98417 0.916103 0
M  V30 4836 H 454.738 -0.702242 -0.344064 0
M  V30 4837 H 457.322 -1.92887 -0.265088 0
M  V30 4838 H 455.493 -2.89017 -2.59468 0
M  V30 4839 H 457.225 -3.13516 -2.5591 0
M  V30 4840 H 453.98 -4.5916 -1.16058 0
M  V30 4841 H 454.404 -6.76302 0.307413 0
M  V30 4842 H 459.046 -4.12832 -0.912671 0
M  V30 4843 H 456.764 -7.96935 1.33867 0
M  V30 4844 H 460.35 -5.80738 0.351332 0
M  V30 4845 H 459.23 -7.70467 1.46119 0
M  V30 4846 N 456.733 0.527833 -1.48498 0
M  V30 4847 C 457.973 1.29401 -1.58224 0
M  V30 4848 C 458.337 1.90348 -0.251327 0
M  V30 4849 O 459.538 2.67868 -0.223588 0
M  V30 4850 C 457.809 2.35266 -2.69044 0
M  V30 4851 S 459.368 3.2158 -2.98549 0
M  V30 4852 H 456.186 0.440138 -0.558391 0
M  V30 4853 H 458.788 0.601079 -1.8603 0
M  V30 4854 H 457.492 1.88975 -3.64303 0
M  V30 4855 H 457.023 3.09263 -2.43146 0
M  V30 4856 H 459.038 4.35391 -2.38011 0
M  V30 4857 N 458.211 1.37122 0.776871 0
M  V30 4858 C 459.159 1.32549 1.91138 0
M  V30 4859 C 460.153 0.215119 1.68029 0
M  V30 4860 O 461.359 0.382852 1.75881 0
M  V30 4861 H 457.734 0.412952 0.62847 0
M  V30 4862 H 459.705 2.28332 1.92112 0
M  V30 4863 C 458.454 1.14422 3.28333 0
M  V30 4864 H 457.777 1.99115 3.46689 0
M  V30 4865 H 459.217 1.15272 4.0803 0
M  V30 4866 C 457.676 -0.150434 3.36564 0
M  V30 4867 O 458.206 -1.13584 3.85307 0
M  V30 4868 N 456.412 -0.19939 2.89915 0
M  V30 4869 H 455.959 0.603142 2.5044 0
M  V30 4870 H 455.917 -1.06526 2.95803 0
M  V30 4871 N 459.689 -1.00246 1.21608 0
M  V30 4872 C 460.917 -1.77631 1.06089 0
M  V30 4873 C 461.332 -1.84746 -0.38916 0
M  V30 4874 O 460.689 -1.31068 -1.26994 0
M  V30 4875 C 460.74 -3.21415 1.65453 0
M  V30 4876 O 460.461 -3.14703 3.04785 0
M  V30 4877 C 461.962 -4.15289 1.55079 0
M  V30 4878 H 459.182 -0.558162 0.37242 0
M  V30 4879 H 461.726 -1.26093 1.60999 0
M  V30 4880 H 459.881 -3.70053 1.14629 0
M  V30 4881 H 460.295 -4.05056 3.33212 0
M  V30 4882 H 461.769 -5.13965 2.01355 0
M  V30 4883 H 462.246 -4.36279 0.505665 0
M  V30 4884 H 462.852 -3.72543 2.05163 0
M  V30 4885 N 461.167 -1.02423 -1.1978 0
M  V30 4886 C 462.413 -0.719051 -1.89625 0
M  V30 4887 C 462.746 0.750083 -1.7913 0
M  V30 4888 O 462.021 1.54574 -1.18056 0
M  V30 4889 C 462.304 -1.16499 -3.40735 0
M  V30 4890 C 462.157 -2.695 -3.60125 0
M  V30 4891 C 463.476 -0.742166 -4.33797 0
M  V30 4892 H 460.595 -0.26269 -0.688595 0
M  V30 4893 H 463.237 -1.27333 -1.41018 0
M  V30 4894 H 461.387 -0.69341 -3.82262 0
M  V30 4895 H 463.059 -3.24569 -3.278 0
M  V30 4896 H 461.302 -3.10113 -3.03336 0
M  V30 4897 H 461.973 -2.95757 -4.66081 0
M  V30 4898 H 464.449 -1.1477 -3.99959 0
M  V30 4899 H 463.325 -1.08213 -5.38127 0
M  V30 4900 H 463.586 0.355747 -4.40666 0
M  V30 4901 N 462.645 1.35699 -0.801477 0
M  V30 4902 C 463.555 2.33661 -0.209691 0
M  V30 4903 C 464.571 1.6162 0.644591 0
M  V30 4904 O 465.747 1.93529 0.557545 0
M  V30 4905 C 462.812 3.40816 0.636033 0
M  V30 4906 C 461.873 4.28639 -0.238147 0
M  V30 4907 C 461.106 5.30676 0.567307 0
M  V30 4908 O 461.329 5.41174 1.8024 0
M  V30 4909 O 460.263 6.01887 -0.0391336 0
M  V30 4910 H 464.089 2.8606 -1.01996 0
M  V30 4911 H 461.674 1.38379 -0.563164 0
M  V30 4912 H 463.556 4.06301 1.11791 0
M  V30 4913 H 462.231 2.90696 1.42399 0
M  V30 4914 H 461.138 3.66152 -0.767044 0
M  V30 4915 H 462.471 4.82143 -0.989915 0
M  V30 4916 N 464.123 0.554532 1.47522 0
M  V30 4917 C 465.4 -0.0360704 1.95567 0
M  V30 4918 C 465.78 -1.48828 1.49711 0
M  V30 4919 O 465.128 -2.16366 0.734717 0
M  V30 4920 C 465.338 0.106631 3.48837 0
M  V30 4921 C 466.686 -0.0400899 4.24581 0
M  V30 4922 O 467.71 0.0340453 3.56184 0
M  V30 4923 O 466.569 -0.199111 5.46137 0
M  V30 4924 H 463.663 -0.0656294 0.824392 0
M  V30 4925 H 466.209 0.620867 1.57935 0
M  V30 4926 H 464.981 1.11727 3.7501 0
M  V30 4927 H 464.604 -0.58804 3.93227 0
M  V30 4928 N 465.601 -1.54893 0.290851 0
M  V30 4929 C 466.847 -2.0023 -0.321867 0
M  V30 4930 C 467.18 -1.179 -1.54316 0
M  V30 4931 O 466.455 -0.25293 -1.92848 0
M  V30 4932 C 466.738 -3.53456 -0.688515 0
M  V30 4933 C 466.591 -4.46532 0.541209 0
M  V30 4934 C 467.91 -4.13057 -1.51895 0
M  V30 4935 H 465.029 -0.727891 -0.115515 0
M  V30 4936 H 467.671 -1.85722 0.400931 0
M  V30 4937 H 465.821 -3.6595 -1.30433 0
M  V30 4938 H 467.493 -4.4596 1.17973 0
M  V30 4939 H 465.736 -4.17545 1.17636 0
M  V30 4940 H 466.407 -5.51475 0.240675 0
M  V30 4941 H 468.883 -4.03937 -0.99872 0
M  V30 4942 H 467.759 -5.20448 -1.74429 0
M  V30 4943 H 468.02 -3.64284 -2.50498 0
M  V30 4944 N 467.08 -0.0183926 -1.57589 0
M  V30 4945 C 468.027 0.967022 -2.09565 0
M  V30 4946 C 468.997 1.32983 -0.995225 0
M  V30 4947 O 470.182 1.42501 -1.26878 0
M  V30 4948 C 467.322 2.24772 -2.61861 0
M  V30 4949 C 466.435 1.94232 -3.85873 0
M  V30 4950 C 465.57 3.16518 -4.26603 0
M  V30 4951 C 464.609 2.81748 -5.43401 0
M  V30 4952 N 463.746 3.96626 -5.79338 0
M  V30 4953 H 468.586 0.516874 -2.93483 0
M  V30 4954 H 466.123 0.243544 -1.4507 0
M  V30 4955 H 468.081 2.99667 -2.90268 0
M  V30 4956 H 466.711 2.67423 -1.8079 0
M  V30 4957 H 465.763 1.09625 -3.64262 0
M  V30 4958 H 467.075 1.64616 -4.70853 0
M  V30 4959 H 466.229 3.99743 -4.56389 0
M  V30 4960 H 464.968 3.49286 -3.40368 0
M  V30 4961 H 463.973 1.96933 -5.1332 0
M  V30 4962 H 465.198 2.50207 -6.31327 0
M  V30 4963 H 463.144 4.29257 -4.96059 0
M  V30 4964 H 463.061 3.70598 -6.58933 0
M  V30 4965 H 464.329 4.80586 -6.13724 0
M  V30 4966 N 468.558 1.5553 0.254621 0
M  V30 4967 C 469.805 1.77 0.983736 0
M  V30 4968 C 470.133 0.58133 1.85609 0
M  V30 4969 O 469.388 -0.435621 1.9079 0
M  V30 4970 C 469.687 3.03891 1.88109 0
M  V30 4971 C 469.353 4.35597 1.16472 0
M  V30 4972 C 468.015 4.7139 0.966714 0
M  V30 4973 C 470.367 5.1705 0.656387 0
M  V30 4974 C 467.695 5.86176 0.247942 0
M  V30 4975 C 470.047 6.32581 -0.0488807 0
M  V30 4976 C 468.711 6.67 -0.258438 0
M  V30 4977 H 467.981 0.647688 0.359974 0
M  V30 4978 H 470.628 1.89802 0.254463 0
M  V30 4979 H 468.933 2.86068 2.67717 0
M  V30 4980 H 470.63 3.17701 2.44677 0
M  V30 4981 H 467.22 4.07475 1.32899 0
M  V30 4982 H 471.404 4.8986 0.796933 0
M  V30 4983 H 466.66 6.11354 0.075035 0
M  V30 4984 H 470.834 6.94942 -0.450444 0
M  V30 4985 H 468.461 7.55793 -0.817358 0
M  V30 4986 N 470.036 -0.519951 1.48776 0
M  V30 4987 C 471.283 -1.27522 1.57303 0
M  V30 4988 C 471.611 -1.92869 0.251328 0
M  V30 4989 O 470.866 -1.80372 -0.759243 0
M  V30 4990 C 471.165 -2.37864 2.6675 0
M  V30 4991 C 470.831 -1.90103 4.08867 0
M  V30 4992 C 469.493 -1.76795 4.47546 0
M  V30 4993 C 471.845 -1.54133 4.97888 0
M  V30 4994 C 469.173 -1.25868 5.73039 0
M  V30 4995 C 471.525 -1.04665 6.23881 0
M  V30 4996 C 470.189 -0.899823 6.61407 0
M  V30 4997 H 469.459 -0.466636 0.575614 0
M  V30 4998 H 472.106 -0.579109 1.82534 0
M  V30 4999 H 470.411 -3.13186 2.35418 0
M  V30 5000 H 472.108 -2.95969 2.70561 0
M  V30 5001 H 468.698 -2.01414 3.78326 0
M  V30 5002 H 472.882 -1.6327 4.68675 0
M  V30 5003 H 468.138 -1.13196 6.0083 0
M  V30 5004 H 472.312 -0.759074 6.92251 0
M  V30 5005 H 469.939 -0.503011 7.58534 0
M  V30 5006 N 471.514 -1.37532 -0.769588 0
M  V30 5007 C 472.742 -1.36059 -1.55871 0
M  V30 5008 C 473.157 0.053544 -1.88724 0
M  V30 5009 O 472.514 1.01591 -1.5161 0
M  V30 5010 C 472.565 -2.20107 -2.86767 0
M  V30 5011 O 472.286 -3.56009 -2.55321 0
M  V30 5012 C 473.787 -2.26636 -3.80987 0
M  V30 5013 H 471.007 -0.465967 -0.482821 0
M  V30 5014 H 473.551 -1.80901 -0.953686 0
M  V30 5015 H 471.706 -1.78768 -3.43687 0
M  V30 5016 H 472.12 -4.0009 -3.39158 0
M  V30 5017 H 473.594 -2.89763 -4.69831 0
M  V30 5018 H 474.071 -1.2754 -4.20274 0
M  V30 5019 H 474.677 -2.68296 -3.29996 0
M  V30 5020 N 472.992 0.995999 -1.22138 0
M  V30 5021 C 474.269 1.70834 -0.952642 0
M  V30 5022 C 474.649 2.04257 0.533119 0
M  V30 5023 O 473.997 1.72343 1.50034 0
M  V30 5024 C 474.207 2.96119 -1.84701 0
M  V30 5025 C 475.555 3.68962 -2.10124 0
M  V30 5026 O 476.579 3.0612 -1.82124 0
M  V30 5027 O 475.438 4.82017 -2.57531 0
M  V30 5028 H 472.532 0.745498 -0.357997 0
M  V30 5029 H 475.078 1.05262 -1.33109 0
M  V30 5030 H 473.85 2.67898 -2.85213 0
M  V30 5031 H 473.473 3.6943 -1.46995 0
M  V30 5032 N 474.47 1.03057 1.19235 0
M  V30 5033 C 475.418 0.606391 2.24557 0
M  V30 5034 C 476.412 -0.361826 1.65491 0
M  V30 5035 O 477.618 -0.23022 1.78522 0
M  V30 5036 H 473.993 0.177838 0.730669 0
M  V30 5037 H 475.964 1.50529 2.5765 0
M  V30 5038 C 474.713 -0.0252127 3.47691 0
M  V30 5039 H 474.036 0.710838 3.9343 0
M  V30 5040 H 475.476 -0.284931 4.23042 0
M  V30 5041 C 473.935 -1.27229 3.11953 0
M  V30 5042 O 474.465 -2.36416 3.24762 0
M  V30 5043 N 472.671 -1.16169 2.6637 0
M  V30 5044 H 472.218 -0.273189 2.56147 0
M  V30 5045 H 472.176 -1.99703 2.42829 0
M  V30 5046 N 475.948 -1.35272 0.808662 0
M  V30 5047 C 476.895 -2.29764 0.218482 0
M  V30 5048 C 477.865 -1.52911 -0.648652 0
M  V30 5049 O 479.05 -1.81341 -0.593297 0
M  V30 5050 C 476.19 -3.39388 -0.625282 0
M  V30 5051 C 475.303 -4.31202 0.262516 0
M  V30 5052 C 474.438 -5.27919 -0.589451 0
M  V30 5053 C 473.477 -6.11371 0.298617 0
M  V30 5054 N 472.614 -7.0022 -0.513443 0
M  V30 5055 H 477.454 -2.79645 1.02968 0
M  V30 5056 H 474.991 -1.37629 0.519303 0
M  V30 5057 H 476.949 -4.01615 -1.12966 0
M  V30 5058 H 475.579 -2.90777 -1.40173 0
M  V30 5059 H 474.631 -3.69962 0.885013 0
M  V30 5060 H 475.943 -4.89748 0.945971 0
M  V30 5061 H 475.097 -5.95529 -1.15888 0
M  V30 5062 H 473.836 -4.69875 -1.30647 0
M  V30 5063 H 472.841 -5.42707 0.880301 0
M  V30 5064 H 474.066 -6.71494 1.01352 0
M  V30 5065 H 472.012 -6.44662 -1.21439 0
M  V30 5066 H 471.929 -7.55917 0.111922 0
M  V30 5067 H 473.197 -7.72175 -1.06608 0
M  V30 5068 N 477.426 -0.562348 -1.47226 0
M  V30 5069 C 478.389 0.172056 -2.28553 0
M  V30 5070 C 479.389 0.837928 -1.37242 0
M  V30 5071 O 480.579 0.693001 -1.59822 0
M  V30 5072 C 477.711 1.25223 -3.17068 0
M  V30 5073 H 478.904 -0.542401 -2.94954 0
M  V30 5074 H 476.457 -0.319493 -1.53 0
M  V30 5075 H 477.192 1.99892 -2.55369 0
M  V30 5076 H 476.977 0.779515 -3.84273 0
M  V30 5077 H 478.467 1.76791 -3.78332 0
M  V30 5078 N 478.904 1.54736 -0.299062 0
M  V30 5079 C 480.152 1.99706 0.31017 0
M  V30 5080 C 480.473 1.18896 1.54559 0
M  V30 5081 O 479.743 0.284445 1.93824 0
M  V30 5082 H 478.323 0.737686 0.117596 0
M  V30 5083 H 480.985 1.9054 -0.409943 0
M  V30 5084 H 480.081 3.06596 0.58355 0
M  V30 5085 N 480.382 0.0267497 1.57577 0
M  V30 5086 C 481.332 -0.965003 2.06571 0
M  V30 5087 C 482.316 -1.28694 0.965746 0
M  V30 5088 O 483.508 -1.27345 1.22932 0
M  V30 5089 C 480.637 -2.24821 2.59443 0
M  V30 5090 C 479.723 -1.95474 3.76365 0
M  V30 5091 N 480.114 -1.36387 4.87065 0
M  V30 5092 C 478.412 -2.25478 3.84806 0
M  V30 5093 C 479.113 -1.24119 5.68304 0
M  V30 5094 N 478.089 -1.7359 5.15138 0
M  V30 5095 H 481.891 -0.503095 2.89562 0
M  V30 5096 H 479.405 -0.178322 1.61418 0
M  V30 5097 H 481.402 -2.9674 2.92833 0
M  V30 5098 H 480.062 -2.7164 1.77881 0
M  V30 5099 H 481.073 -1.03919 5.07367 0
M  V30 5100 H 477.75 -2.74987 3.14147 0
M  V30 5101 H 479.14 -0.784504 6.67304 0
M  V30 5102 N 481.861 -1.55662 -0.24637 0
M  V30 5103 C 482.794 -1.85332 -1.33143 0
M  V30 5104 C 483.772 -0.708464 -1.46354 0
M  V30 5105 O 484.956 -0.954274 -1.6256 0
M  V30 5106 C 482.083 -2.0385 -2.70487 0
M  V30 5107 C 481.129 -3.26488 -2.74423 0
M  V30 5108 S 481.962 -4.83124 -2.30979 0
M  V30 5109 C 483.118 -5.04647 -3.70246 0
M  V30 5110 H 483.351 -2.77077 -1.07777 0
M  V30 5111 H 480.884 -1.47776 -0.44738 0
M  V30 5112 H 482.842 -2.15202 -3.49569 0
M  V30 5113 H 481.503 -1.12947 -2.9309 0
M  V30 5114 H 480.696 -3.36413 -3.7529 0
M  V30 5115 H 480.298 -3.13864 -2.03385 0
M  V30 5116 H 482.59 -4.92023 -4.65746 0
M  V30 5117 H 483.533 -6.06625 -3.65255 0
M  V30 5118 H 483.941 -4.32491 -3.62784 0
M  V30 5119 N 483.339 0.512053 -1.4905 0
M  V30 5120 C 484.585 1.26874 -1.58212 0
M  V30 5121 C 484.918 1.9241 -0.263073 0
M  V30 5122 O 484.193 1.80181 0.732476 0
M  V30 5123 C 484.476 2.34428 -2.73341 0
M  V30 5124 C 484.329 1.73466 -4.15006 0
M  V30 5125 C 485.648 3.36073 -2.84154 0
M  V30 5126 H 482.767 0.459924 -0.575881 0
M  V30 5127 H 485.409 0.568587 -1.81293 0
M  V30 5128 H 483.559 2.94146 -2.53792 0
M  V30 5129 H 485.231 1.17661 -4.46042 0
M  V30 5130 H 483.474 1.03921 -4.21168 0
M  V30 5131 H 484.145 2.51426 -4.91415 0
M  V30 5132 H 486.621 2.86332 -3.01916 0
M  V30 5133 H 485.497 4.08703 -3.66406 0
M  V30 5134 H 485.758 3.97725 -1.93048 0
M  V30 5135 N 484.817 1.37938 0.762283 0
M  V30 5136 C 485.749 1.30349 1.88525 0
M  V30 5137 C 486.762 0.217402 1.61342 0
M  V30 5138 O 487.951 0.474291 1.72084 0
M  V30 5139 C 485.051 0.994844 3.23969 0
M  V30 5140 C 484.224 2.18829 3.78725 0
M  V30 5141 C 483.283 1.84844 4.92665 0
M  V30 5142 O 482.309 2.57244 5.07754 0
M  V30 5143 N 483.511 0.798201 5.74986 0
M  V30 5144 H 486.276 2.27114 1.95549 0
M  V30 5145 H 483.837 1.31686 0.941825 0
M  V30 5146 H 485.829 0.748168 3.97724 0
M  V30 5147 H 484.399 0.115446 3.12387 0
M  V30 5148 H 483.619 2.59615 2.96637 0
M  V30 5149 H 484.907 2.98497 4.1204 0
M  V30 5150 H 484.305 0.197611 5.65355 0
M  V30 5151 H 482.862 0.611396 6.48926 0
M  V30 5152 N 486.295 -0.989507 1.22664 0
M  V30 5153 C 487.544 -1.72375 1.04737 0
M  V30 5154 C 487.857 -1.91096 -0.417316 0
M  V30 5155 O 489.063 -2.6188 -0.716334 0
M  V30 5156 C 487.519 -3.10161 1.82561 0
M  V30 5157 C 487.127 -2.99358 3.333 0
M  V30 5158 C 488.871 -3.87607 1.73093 0
M  V30 5159 C 486.778 -4.32319 4.03552 0
M  V30 5160 H 485.708 -0.646326 0.388302 0
M  V30 5161 H 488.359 -1.10437 1.46546 0
M  V30 5162 H 486.741 -3.728 1.33552 0
M  V30 5163 H 487.915 -2.45863 3.89728 0
M  V30 5164 H 486.23 -2.35392 3.43481 0
M  V30 5165 H 488.827 -4.86025 2.22899 0
M  V30 5166 H 489.17 -4.10509 0.691976 0
M  V30 5167 H 489.703 -3.31652 2.19663 0
M  V30 5168 H 486.442 -4.14616 5.07714 0
M  V30 5169 H 485.962 -4.85714 3.51911 0
M  V30 5170 H 487.641 -5.01051 4.09337 0
M  V30 5171 N 487.773 -1.03688 -1.18687 0
M  V30 5172 C 488.72 -0.624624 -2.22187 0
M  V30 5173 C 489.69 0.365636 -1.62026 0
M  V30 5174 O 490.875 0.260481 -1.89014 0
M  V30 5175 C 488.015 0.0101738 -3.45099 0
M  V30 5176 C 487.128 -1.02709 -4.19613 0
M  V30 5177 C 486.263 -0.361213 -5.2997 0
M  V30 5178 C 485.302 -1.38384 -5.96252 0
M  V30 5179 N 484.439 -0.743196 -6.98155 0
M  V30 5180 H 489.279 -1.51176 -2.56807 0
M  V30 5181 H 486.816 -0.75636 -1.26165 0
M  V30 5182 H 488.774 0.395528 -4.15321 0
M  V30 5183 H 487.404 0.860848 -3.1111 0
M  V30 5184 H 486.456 -1.53043 -3.48256 0
M  V30 5185 H 487.768 -1.80398 -4.65036 0
M  V30 5186 H 486.922 0.0785537 -6.06649 0
M  V30 5187 H 485.661 0.447799 -4.8564 0
M  V30 5188 H 484.666 -1.83378 -5.18317 0
M  V30 5189 H 485.891 -2.19448 -6.42666 0
M  V30 5190 H 483.837 0.0455789 -6.55984 0
M  V30 5191 H 483.754 -1.45784 -7.41811 0
M  V30 5192 H 485.022 -0.327698 -7.78811 0
M  V30 5193 N 489.251 1.34841 -0.815825 0
M  V30 5194 C 490.479 2.0273 -0.413294 0
M  V30 5195 C 490.894 1.61459 0.978599 0
M  V30 5196 O 490.251 0.816584 1.63212 0
M  V30 5197 C 490.302 3.58058 -0.497676 0
M  V30 5198 O 490.023 3.97832 -1.8347 0
M  V30 5199 C 491.524 4.4321 -0.0891339 0
M  V30 5200 H 488.744 0.649956 -0.166728 0
M  V30 5201 H 491.288 1.72267 -1.10201 0
M  V30 5202 H 489.443 3.87136 0.142886 0
M  V30 5203 H 489.857 4.92501 -1.80396 0
M  V30 5204 H 491.331 5.5164 -0.199274 0
M  V30 5205 H 491.808 4.28432 0.966571 0
M  V30 5206 H 492.414 4.19446 -0.703214 0
M  V30 5207 N 490.729 0.570148 1.46925 0
M  V30 5208 C 492.14 0.1402 1.86173 0
M  V30 5209 C 492.491 -1.29347 1.47526 0
M  V30 5210 O 491.616 -1.97508 0.884292 0
M  V30 5211 C 492.211 0.247661 3.37894 0
M  V30 5212 C 490.77 -0.127332 3.76185 0
M  V30 5213 C 489.917 0.589349 2.70965 0
M  V30 5214 H 492.868 0.779117 1.38259 0
M  V30 5215 H 492.889 -0.530341 3.76786 0
M  V30 5216 H 492.401 1.29121 3.65991 0
M  V30 5217 H 490.502 -1.17149 3.53704 0
M  V30 5218 H 490.615 0.240238 4.78497 0
M  V30 5219 H 488.979 0.0309824 2.54681 0
M  V30 5220 H 489.762 1.6343 3.01903 0
M  V30 5221 N 492.207 -1.54576 0.307264 0
M  V30 5222 C 493.484 -1.92377 -0.353605 0
M  V30 5223 C 493.864 -1.23517 -1.71192 0
M  V30 5224 O 493.212 -0.373101 -2.25433 0
M  V30 5225 C 493.422 -3.45928 -0.462039 0
M  V30 5226 C 494.77 -4.18278 -0.729975 0
M  V30 5227 O 495.794 -3.51997 -0.545605 0
M  V30 5228 O 494.653 -5.3563 -1.08454 0
M  V30 5229 H 491.747 -0.802747 -0.198812 0
M  V30 5230 H 494.293 -1.65929 0.355783 0
M  V30 5231 H 493.065 -3.88187 0.492592 0
M  V30 5232 H 492.688 -3.78431 -1.21965 0
M  V30 5233 N 493.685 -0.035106 -1.57561 0
M  V30 5234 C 494.615 0.942993 -2.13612 0
M  V30 5235 C 495.596 1.33531 -1.05373 0
M  V30 5236 O 496.781 1.41287 -1.33235 0
M  V30 5237 C 493.911 2.22332 -2.66807 0
M  V30 5238 C 492.865 1.97156 -3.79886 0
M  V30 5239 C 492.191 3.31506 -4.19533 0
M  V30 5240 C 493.491 1.30596 -5.05709 0
M  V30 5241 H 495.185 0.476179 -2.95589 0
M  V30 5242 H 492.731 0.227602 -1.4219 0
M  V30 5243 H 494.684 2.91142 -3.04654 0
M  V30 5244 H 493.408 2.7119 -1.81999 0
M  V30 5245 H 492.067 1.30763 -3.42486 0
M  V30 5246 H 491.715 3.78134 -3.31698 0
M  V30 5247 H 491.415 3.15465 -4.95738 0
M  V30 5248 H 492.939 4.01574 -4.59968 0
M  V30 5249 H 494.353 1.89416 -5.41105 0
M  V30 5250 H 492.75 1.24934 -5.86951 0
M  V30 5251 H 493.82 0.279742 -4.84092 0
M  V30 5252 N 495.163 1.55791 0.238111 0
M  V30 5253 C 496.411 1.77681 0.963001 0
M  V30 5254 C 496.732 0.600674 1.85518 0
M  V30 5255 O 496.002 -0.383182 1.92116 0
M  V30 5256 H 494.582 0.655315 0.358568 0
M  V30 5257 H 497.244 1.93239 0.253945 0
M  V30 5258 H 496.34 2.69177 1.57956 0
M  V30 5259 N 496.642 -0.504142 1.49319 0
M  V30 5260 C 497.89 -1.25598 1.58334 0
M  V30 5261 C 498.211 -1.93114 0.270538 0
M  V30 5262 O 497.481 -1.82585 -0.709891 0
M  V30 5263 H 496.061 -0.466571 0.58337 0
M  V30 5264 H 498.723 -0.584547 1.85928 0
M  V30 5265 H 497.819 -2.02159 2.37778 0
M  V30 5266 N 498.12 -1.38341 -0.754957 0
M  V30 5267 C 499.366 -1.34672 -1.51628 0
M  V30 5268 C 499.699 0.0636036 -1.94096 0
M  V30 5269 O 498.974 1.0245 -1.6533 0
M  V30 5270 C 499.257 -2.30116 -2.76981 0
M  V30 5271 C 499.11 -3.80003 -2.4066 0
M  V30 5272 C 500.429 -2.23715 -3.78998 0
M  V30 5273 H 497.548 -0.490517 -0.550056 0
M  V30 5274 H 500.19 -1.69178 -0.864807 0
M  V30 5275 H 498.34 -2.00821 -3.3257 0
M  V30 5276 H 500.012 -4.19966 -1.90856 0
M  V30 5277 H 498.255 -3.97751 -1.73137 0
M  V30 5278 H 498.926 -4.42244 -3.30339 0
M  V30 5279 H 501.402 -2.49574 -3.32945 0
M  V30 5280 H 500.278 -2.9261 -4.64403 0
M  V30 5281 H 500.539 -1.23554 -4.24484 0
M  V30 5282 N 499.598 0.982988 -1.23187 0
M  V30 5283 C 500.546 2.09616 -1.00817 0
M  V30 5284 C 501.54 1.6932 0.0519995 0
M  V30 5285 O 502.746 1.79715 -0.101284 0
M  V30 5286 H 499.121 0.685628 -0.308899 0
M  V30 5287 H 501.092 2.25652 -1.95253 0
M  V30 5288 C 499.841 3.42249 -0.613243 0
M  V30 5289 H 499.164 3.73705 -1.42073 0
M  V30 5290 H 500.604 4.21086 -0.496208 0
M  V30 5291 C 499.063 3.30002 0.678233 0
M  V30 5292 O 499.593 3.6263 1.72807 0
M  V30 5293 N 497.799 2.83164 0.653165 0
M  V30 5294 H 497.346 2.56811 -0.201492 0
M  V30 5295 H 497.304 2.75352 1.51752 0
M  V30 5296 N 501.076 1.04316 1.18135 0
M  V30 5297 C 502.024 0.630175 2.23901 0
M  V30 5298 C 503.018 -0.344254 1.65865 0
M  V30 5299 O 504.224 -0.211273 1.78756 0
M  V30 5300 H 500.599 0.185578 0.728742 0
M  V30 5301 H 502.57 1.53253 2.56039 0
M  V30 5302 C 501.319 0.011666 3.47698 0
M  V30 5303 H 500.642 0.752526 3.92654 0
M  V30 5304 H 502.082 -0.240046 4.2332 0
M  V30 5305 C 500.541 -1.23913 3.13285 0
M  V30 5306 O 501.071 -2.32959 3.27251 0
M  V30 5307 N 499.277 -1.13338 2.67587 0
M  V30 5308 H 498.824 -0.246006 2.56423 0
M  V30 5309 H 498.782 -1.97116 2.44934 0
M  V30 5310 N 502.554 -1.34406 0.822964 0
M  V30 5311 C 503.803 -1.97542 0.407458 0
M  V30 5312 C 504.116 -1.65973 -1.035 0
M  V30 5313 O 505.322 -2.22598 -1.55442 0
M  V30 5314 C 503.778 -3.53463 0.677623 0
M  V30 5315 C 503.386 -3.93925 2.1337 0
M  V30 5316 C 505.13 -4.23229 0.328284 0
M  V30 5317 C 503.037 -5.42759 2.34876 0
M  V30 5318 H 501.967 -0.739207 0.148623 0
M  V30 5319 H 504.618 -1.53248 1.00932 0
M  V30 5320 H 503 -3.96 0.00558965 0
M  V30 5321 H 504.174 -3.62494 2.8449 0
M  V30 5322 H 502.489 -3.37097 2.44448 0
M  V30 5323 H 505.086 -5.32659 0.466794 0
M  V30 5324 H 505.429 -4.09899 -0.727224 0
M  V30 5325 H 505.962 -3.86169 0.954896 0
M  V30 5326 H 502.701 -5.61075 3.38932 0
M  V30 5327 H 502.221 -5.75704 1.68299 0
M  V30 5328 H 503.9 -6.0944 2.17236 0
M  V30 5329 N 504.032 -0.577932 -1.46621 0
M  V30 5330 C 504.995 0.147805 -2.28723 0
M  V30 5331 C 505.995 0.823325 -1.38123 0
M  V30 5332 O 507.185 0.676011 -1.60548 0
M  V30 5333 C 504.317 1.21853 -3.18378 0
M  V30 5334 H 505.51 -0.573654 -2.94362 0
M  V30 5335 H 503.063 -0.335703 -1.52652 0
M  V30 5336 H 503.798 1.97173 -2.57475 0
M  V30 5337 H 503.583 0.738714 -3.85078 0
M  V30 5338 H 505.073 1.72768 -3.80186 0
M  V30 5339 N 505.51 1.54411 -0.315457 0
M  V30 5340 C 506.787 1.92562 0.343398 0
M  V30 5341 C 507.167 1.24423 1.70535 0
M  V30 5342 O 506.515 0.385051 2.25232 0
M  V30 5343 C 506.725 3.46168 0.443687 0
M  V30 5344 C 508.073 4.18659 0.707783 0
M  V30 5345 O 509.097 3.52281 0.52693 0
M  V30 5346 O 507.956 5.36198 1.05612 0
M  V30 5347 H 505.05 0.80379 0.194552 0
M  V30 5348 H 507.596 1.65738 -0.364577 0
M  V30 5349 H 506.368 3.8792 -0.513172 0
M  V30 5350 H 505.991 3.79073 1.19956 0
M  V30 5351 N 506.988 0.0434614 1.5754 0
M  V30 5352 C 507.951 -0.918696 2.09982 0
M  V30 5353 C 508.951 -1.24488 1.01781 0
M  V30 5354 O 510.141 -1.18284 1.27885 0
M  V30 5355 C 507.273 -2.23093 2.57764 0
M  V30 5356 H 508.466 -0.464229 2.96285 0
M  V30 5357 H 506.019 -0.204818 1.54952 0
M  V30 5358 H 506.754 -2.73137 1.74832 0
M  V30 5359 H 506.539 -2.00724 3.36827 0
M  V30 5360 H 508.029 -2.92028 2.98512 0
M  V30 5361 N 508.466 -1.55915 -0.229846 0
M  V30 5362 C 509.715 -1.77742 -0.953455 0
M  V30 5363 C 510.028 -0.610524 -1.85828 0
M  V30 5364 O 511.234 -0.712219 -2.61992 0
M  V30 5365 C 509.69 -3.14738 -1.74551 0
M  V30 5366 C 509.298 -4.39126 -0.887242 0
M  V30 5367 C 511.042 -3.45895 -2.46084 0
M  V30 5368 C 508.949 -5.67149 -1.67617 0
M  V30 5369 H 507.879 -0.662648 -0.359741 0
M  V30 5370 H 510.53 -1.82322 -0.207576 0
M  V30 5371 H 508.912 -3.04311 -2.53399 0
M  V30 5372 H 510.086 -4.60588 -0.139892 0
M  V30 5373 H 508.401 -4.15427 -0.284443 0
M  V30 5374 H 510.998 -4.38767 -3.05594 0
M  V30 5375 H 511.341 -2.68007 -3.18556 0
M  V30 5376 H 511.874 -3.57614 -1.74233 0
M  V30 5377 H 508.613 -6.47906 -0.994881 0
M  V30 5378 H 508.133 -5.49763 -2.39836 0
M  V30 5379 H 509.812 -6.07025 -2.23898 0
M  V30 5380 N 509.944 0.496216 -1.49584 0
M  V30 5381 C 510.877 1.61508 -1.61215 0
M  V30 5382 C 511.855 1.55927 -0.461045 0
M  V30 5383 O 513.039 1.75914 -0.677231 0
M  V30 5384 C 510.166 3.00035 -1.57152 0
M  V30 5385 C 509.212 3.23861 -2.77518 0
M  V30 5386 S 510.045 3.06466 -4.39134 0
M  V30 5387 C 511.201 4.4738 -4.37724 0
M  V30 5388 H 511.434 1.51398 -2.55863 0
M  V30 5389 H 508.967 0.681727 -1.38535 0
M  V30 5390 H 510.925 3.7991 -1.55494 0
M  V30 5391 H 509.586 3.07556 -0.637834 0
M  V30 5392 H 508.779 4.25 -2.70908 0
M  V30 5393 H 508.381 2.51716 -2.76614 0
M  V30 5394 H 510.673 5.39556 -4.09738 0
M  V30 5395 H 511.616 4.59038 -5.39156 0
M  V30 5396 H 512.024 4.28283 -3.67742 0
M  V30 5397 N 511.423 1.38739 0.74761 0
M  V30 5398 C 512.653 1.3832 1.53464 0
M  V30 5399 C 513.061 -0.0273464 1.8918 0
M  V30 5400 O 512.404 -1.00588 1.53713 0
M  V30 5401 C 512.466 2.18007 2.85855 0
M  V30 5402 C 512.13 3.66762 2.72644 0
M  V30 5403 C 513.127 4.60124 2.42037 0
M  V30 5404 C 510.812 4.10193 2.89909 0
M  V30 5405 C 512.806 5.94897 2.28859 0
M  V30 5406 C 510.493 5.45045 2.7635 0
M  V30 5407 C 511.491 6.37211 2.45869 0
M  V30 5408 O 511.179 7.69581 2.3238 0
M  V30 5409 H 510.911 0.474718 0.481268 0
M  V30 5410 H 513.465 1.83012 0.932518 0
M  V30 5411 H 511.695 1.68043 3.48279 0
M  V30 5412 H 513.384 2.09921 3.47402 0
M  V30 5413 H 514.15 4.27874 2.28361 0
M  V30 5414 H 510.029 3.38797 3.1263 0
M  V30 5415 H 513.573 6.66802 2.04989 0
M  V30 5416 H 509.47 5.76889 2.89601 0
M  V30 5417 H 510.238 7.80169 2.47546 0
M  V30 5418 N 512.901 -0.976442 1.23707 0
M  V30 5419 C 514.141 -1.73331 1.08332 0
M  V30 5420 C 514.505 -1.88346 -0.372781 0
M  V30 5421 O 515.706 -2.60877 -0.647813 0
M  V30 5422 C 513.977 -3.09159 1.7932 0
M  V30 5423 S 515.536 -4.00376 1.79567 0
M  V30 5424 H 512.354 -0.596045 0.387622 0
M  V30 5425 H 514.956 -1.16625 1.56904 0
M  V30 5426 H 513.66 -2.95884 2.84395 0
M  V30 5427 H 513.191 -3.70932 1.31046 0
M  V30 5428 H 515.206 -4.88742 0.857094 0
M  V30 5429 N 514.379 -1.04941 -1.1758 0
M  V30 5430 C 515.326 -0.648155 -2.21512 0
M  V30 5431 C 516.296 0.348431 -1.62404 0
M  V30 5432 O 517.481 0.240419 -1.89279 0
M  V30 5433 C 514.621 -0.0264291 -3.4509 0
M  V30 5434 C 513.734 -1.07154 -4.185 0
M  V30 5435 C 512.869 -0.417403 -5.29558 0
M  V30 5436 C 511.908 -1.447 -5.94751 0
M  V30 5437 N 511.045 -0.817203 -6.97328 0
M  V30 5438 H 515.885 -1.53891 -2.55189 0
M  V30 5439 H 513.422 -0.769699 -1.25356 0
M  V30 5440 H 515.38 0.351456 -4.15717 0
M  V30 5441 H 514.01 0.827802 -3.12005 0
M  V30 5442 H 513.062 -1.56728 -3.46613 0
M  V30 5443 H 514.374 -1.8532 -4.63096 0
M  V30 5444 H 513.528 0.0142061 -6.06698 0
M  V30 5445 H 512.267 0.396265 -4.86087 0
M  V30 5446 H 511.272 -1.88865 -5.16343 0
M  V30 5447 H 512.497 -2.26252 -6.40302 0
M  V30 5448 H 510.443 -0.0239995 -6.55996 0
M  V30 5449 H 510.36 -1.53644 -7.40223 0
M  V30 5450 H 511.628 -0.410283 -7.7842 0
M  V30 5451 N 515.857 1.33968 -0.830081 0
M  V30 5452 C 516.82 2.27694 -0.26235 0
M  V30 5453 C 517.82 1.50589 0.563876 0
M  V30 5454 O 519.01 1.70028 0.378941 0
M  V30 5455 C 516.142 3.35002 0.63138 0
M  V30 5456 H 517.335 2.79419 -1.08928 0
M  V30 5457 H 514.888 1.44221 -0.602486 0
M  V30 5458 H 515.623 2.88504 1.48109 0
M  V30 5459 H 515.408 3.92079 0.0403276 0
M  V30 5460 H 516.898 4.04897 1.02217 0
M  V30 5461 N 517.335 0.585699 1.46312 0
M  V30 5462 C 518.283 -0.158577 2.32059 0
M  V30 5463 C 519.277 -0.881427 1.44662 0
M  V30 5464 O 520.483 -0.799476 1.61271 0
M  V30 5465 H 516.858 -0.0700066 0.748734 0
M  V30 5466 H 518.829 0.583383 2.92642 0
M  V30 5467 C 517.578 -1.15701 3.27885 0
M  V30 5468 H 516.901 -0.610215 3.95116 0
M  V30 5469 H 518.341 -1.64812 3.90657 0
M  V30 5470 C 516.8 -2.21951 2.53455 0
M  V30 5471 O 517.33 -3.29352 2.29978 0
M  V30 5472 N 515.536 -1.9664 2.13965 0
M  V30 5473 H 515.083 -1.09309 2.33258 0
M  V30 5474 H 515.041 -2.6794 1.64485 0
M  V30 5475 N 518.813 -1.54241 0.323641 0
M  V30 5476 C 520.061 -2.00174 -0.278359 0
M  V30 5477 C 520.382 -1.2134 -1.52648 0
M  V30 5478 O 519.652 -0.315244 -1.93347 0
M  V30 5479 H 518.232 -0.739463 -0.105845 0
M  V30 5480 H 520.894 -1.89864 0.440204 0
M  V30 5481 H 519.99 -3.07486 -0.5347 0
M  V30 5482 N 520.291 -0.0518155 -1.57515 0
M  V30 5483 C 521.224 0.957758 -2.07129 0
M  V30 5484 C 522.202 1.30355 -0.971927 0
M  V30 5485 O 523.386 1.41631 -1.2439 0
M  V30 5486 C 520.513 2.27157 -2.51232 0
M  V30 5487 C 519.559 2.07879 -3.72409 0
M  V30 5488 S 520.392 1.35656 -5.18033 0
M  V30 5489 C 521.548 2.68359 -5.65451 0
M  V30 5490 H 521.781 0.53552 -2.92437 0
M  V30 5491 H 519.314 0.160465 -1.53564 0
M  V30 5492 H 521.272 3.02676 -2.77304 0
M  V30 5493 H 519.933 2.66509 -1.66228 0
M  V30 5494 H 519.126 3.05061 -4.01191 0
M  V30 5495 H 518.728 1.40499 -3.46606 0
M  V30 5496 H 521.02 3.64526 -5.71076 0
M  V30 5497 H 521.963 2.44213 -6.64654 0
M  V30 5498 H 522.371 2.74647 -4.93183 0
M  V30 5499 N 521.769 1.56035 0.221574 0
M  V30 5500 C 523.017 1.78693 0.944102 0
M  V30 5501 C 523.338 0.620317 1.8487 0
M  V30 5502 O 522.608 -0.362784 1.92512 0
M  V30 5503 H 521.188 0.659082 0.351597 0
M  V30 5504 H 523.85 1.93497 0.233435 0
M  V30 5505 H 522.946 2.70837 1.55093 0
M  V30 5506 N 523.247 -0.488276 1.49845 0
M  V30 5507 C 524.21 -1.57069 1.66919 0
M  V30 5508 C 525.21 -1.51445 0.540479 0
M  V30 5509 O 526.4 -1.5437 0.807188 0
M  V30 5510 C 523.532 -2.96718 1.67844 0
M  V30 5511 H 524.725 -1.43254 2.63474 0
M  V30 5512 H 522.278 -0.713435 1.39068 0
M  V30 5513 H 523.013 -3.15996 0.7292 0
M  V30 5514 H 522.798 -3.02208 2.49826 0
M  V30 5515 H 524.288 -3.75335 1.83066 0
M  V30 5516 N 524.725 -1.39134 -0.740242 0
M  V30 5517 C 525.955 -1.39132 -1.52728 0
M  V30 5518 C 526.363 0.0173133 -1.89192 0
M  V30 5519 O 525.706 0.997715 -1.54244 0
M  V30 5520 C 525.768 -2.1952 -2.84695 0
M  V30 5521 C 525.432 -3.68203 -2.70695 0
M  V30 5522 C 526.429 -4.61401 -2.39593 0
M  V30 5523 C 524.114 -4.11724 -2.8773 0
M  V30 5524 C 526.108 -5.96102 -2.25701 0
M  V30 5525 C 523.795 -5.46503 -2.73456 0
M  V30 5526 C 524.793 -6.38506 -2.42486 0
M  V30 5527 O 524.481 -7.70803 -2.28295 0
M  V30 5528 H 524.213 -0.477263 -0.478744 0
M  V30 5529 H 526.767 -1.83504 -0.922799 0
M  V30 5530 H 524.997 -1.69888 -3.47383 0
M  V30 5531 H 526.686 -2.1176 -3.46284 0
M  V30 5532 H 527.452 -4.29079 -2.26088 0
M  V30 5533 H 523.331 -3.4045 -3.10829 0
M  V30 5534 H 526.875 -6.6788 -2.0145 0
M  V30 5535 H 522.772 -5.78417 -2.86538 0
M  V30 5536 H 523.54 -7.8147 -2.43405 0
M  V30 5537 N 526.204 0.969867 -1.24223 0
M  V30 5538 C 527.444 1.72754 -1.0925 0
M  V30 5539 C 527.808 1.88541 0.362787 0
M  V30 5540 O 529.009 2.61217 0.633969 0
M  V30 5541 C 527.28 3.08204 -1.80957 0
M  V30 5542 S 528.839 3.99418 -1.81688 0
M  V30 5543 H 525.657 0.593981 -0.390778 0
M  V30 5544 H 528.259 1.15792 -1.5752 0
M  V30 5545 H 526.963 2.94372 -2.85961 0
M  V30 5546 H 526.494 3.70232 -1.33012 0
M  V30 5547 H 528.509 4.8828 -0.883001 0
M  V30 5548 N 527.682 1.05563 1.17022 0
M  V30 5549 C 528.93 0.76642 1.87004 0
M  V30 5550 C 529.251 -0.708854 1.8166 0
M  V30 5551 O 528.521 -1.51242 1.2451 0
M  V30 5552 H 527.101 0.280516 0.692329 0
M  V30 5553 H 529.763 1.33557 1.41945 0
M  V30 5554 H 528.859 1.08472 2.92644 0
M  V30 5555 N 529.16 -1.33526 0.837174 0
M  V30 5556 C 530.408 -1.97446 0.431211 0
M  V30 5557 C 530.729 -1.6665 -1.01255 0
M  V30 5558 O 529.999 -0.964559 -1.70508 0
M  V30 5559 H 528.579 -0.73043 0.156463 0
M  V30 5560 H 531.241 -1.62918 1.06976 0
M  V30 5561 H 530.337 -3.07001 0.561877 0
M  V30 5562 N 530.638 -0.59345 -1.46 0
M  V30 5563 C 531.866 -0.0890934 -2.06708 0
M  V30 5564 C 532.281 1.2205 -1.44046 0
M  V30 5565 O 531.638 1.74029 -0.549551 0
M  V30 5566 C 531.689 0.0720263 -3.61428 0
M  V30 5567 O 531.41 -1.18574 -4.21748 0
M  V30 5568 C 532.911 0.609487 -4.3909 0
M  V30 5569 H 530.131 -0.0623628 -0.668096 0
M  V30 5570 H 532.675 -0.817171 -1.87464 0
M  V30 5571 H 530.83 0.750369 -3.80063 0
M  V30 5572 H 531.244 -1.0064 -5.14754 0
M  V30 5573 H 532.718 0.671363 -5.47902 0
M  V30 5574 H 533.195 1.62878 -4.07882 0
M  V30 5575 H 533.801 -0.03434 -4.25286 0
M  V30 5576 N 532.116 1.54067 -0.331816 0
M  V30 5577 C 533.356 2.02625 0.26876 0
M  V30 5578 C 533.72 1.21462 1.48697 0
M  V30 5579 O 534.921 1.59863 2.16096 0
M  V30 5580 C 533.192 3.52554 0.586577 0
M  V30 5581 S 534.751 4.23035 1.16563 0
M  V30 5582 H 531.569 0.706395 0.0807862 0
M  V30 5583 H 534.171 1.89844 -0.466856 0
M  V30 5584 H 532.875 4.09242 -0.308046 0
M  V30 5585 H 532.406 3.69432 1.35217 0
M  V30 5586 H 534.421 4.31382 2.45203 0
M  V30 5587 N 533.594 0.0601682 1.57485 0
M  V30 5588 C 534.542 -0.928899 2.13247 0
M  V30 5589 C 535.536 -1.31616 1.06647 0
M  V30 5590 O 536.742 -1.29476 1.25043 0
M  V30 5591 H 533.117 -0.317455 0.681708 0
M  V30 5592 H 535.088 -0.433566 2.95233 0
M  V30 5593 C 533.837 -2.19121 2.69965 0
M  V30 5594 H 533.16 -1.90204 3.51657 0
M  V30 5595 H 534.6 -2.86465 3.12592 0
M  V30 5596 C 533.059 -2.94195 1.64168 0
M  V30 5597 O 533.589 -3.87468 1.05978 0
M  V30 5598 N 531.795 -2.57089 1.35476 0
M  V30 5599 H 531.342 -1.81314 1.82984 0
M  V30 5600 H 531.3 -3.07624 0.649196 0
M  V30 5601 N 535.072 -1.5615 -0.213296 0
M  V30 5602 C 535.982 -1.96265 -1.28519 0
M  V30 5603 C 536.998 -0.86765 -1.50824 0
M  V30 5604 O 538.174 -1.17191 -1.63793 0
M  V30 5605 C 535.239 -2.27836 -2.61327 0
M  V30 5606 C 534.3 -3.50949 -2.47252 0
M  V30 5607 C 533.533 -3.81004 -3.73727 0
M  V30 5608 O 533.756 -3.12612 -4.77106 0
M  V30 5609 O 532.69 -4.74477 -3.70344 0
M  V30 5610 H 536.516 -2.87631 -0.974795 0
M  V30 5611 H 534.101 -1.43467 -0.416832 0
M  V30 5612 H 535.983 -2.49299 -3.39747 0
M  V30 5613 H 534.658 -1.39643 -2.9203 0
M  V30 5614 H 533.565 -3.34754 -1.67004 0
M  V30 5615 H 534.898 -4.39551 -2.21486 0
M  V30 5616 N 536.55 0.480323 -1.50102 0
M  V30 5617 C 537.778 1.25657 -1.64371 0
M  V30 5618 C 538.193 1.86011 -0.323316 0
M  V30 5619 O 537.55 1.68803 0.693682 0
M  V30 5620 C 537.601 2.37197 -2.728 0
M  V30 5621 O 537.322 1.7932 -3.9972 0
M  V30 5622 C 538.823 3.2823 -2.9796 0
M  V30 5623 H 536.043 0.380369 -0.552775 0
M  V30 5624 H 538.587 0.574379 -1.96268 0
M  V30 5625 H 536.742 3.01208 -2.43623 0
M  V30 5626 H 537.156 2.52701 -4.59611 0
M  V30 5627 H 538.63 4.02725 -3.77513 0
M  V30 5628 H 539.107 3.86462 -2.08671 0
M  V30 5629 H 539.713 2.69964 -3.28633 0
M  V30 5630 N 538.028 1.39524 0.732853 0
M  V30 5631 C 538.976 1.38563 1.86824 0
M  V30 5632 C 539.97 0.268467 1.67259 0
M  V30 5633 O 541.176 0.438613 1.74574 0
M  V30 5634 H 537.551 0.432737 0.615014 0
M  V30 5635 H 539.522 2.34328 1.84751 0
M  V30 5636 C 538.271 1.2481 3.24527 0
M  V30 5637 H 537.594 2.10044 3.40179 0
M  V30 5638 H 539.034 1.28194 4.04156 0
M  V30 5639 C 537.493 -0.0432825 3.36872 0
M  V30 5640 O 538.023 -1.01268 3.88726 0
M  V30 5641 N 536.229 -0.107055 2.90403 0
M  V30 5642 H 535.776 0.682512 2.48394 0
M  V30 5643 H 535.734 -0.970618 2.99042 0
M  V30 5644 N 539.506 -0.963266 1.24736 0
M  V30 5645 C 540.922 -1.23273 1.01371 0
M  V30 5646 C 541.122 -1.99618 -0.274776 0
M  V30 5647 O 540.178 -2.32293 -0.989769 0
M  V30 5648 C 541.491 -2.01554 2.23152 0
M  V30 5649 C 543.039 -2.14629 2.27823 0
M  V30 5650 C 543.514 -2.96307 3.49237 0
M  V30 5651 N 545.005 -3.03887 3.49581 0
M  V30 5652 C 545.74 -3.67456 4.40186 0
M  V30 5653 N 545.236 -4.32706 5.41052 0
M  V30 5654 N 547.029 -3.64511 4.27888 0
M  V30 5655 H 539.18 -0.452294 2.07528 0
M  V30 5656 H 541.443 -0.262521 0.910926 0
M  V30 5657 H 541.149 -1.52847 3.1675 0
M  V30 5658 H 541.023 -3.02278 2.25628 0
M  V30 5659 H 543.41 -2.62537 1.34753 0
M  V30 5660 H 543.491 -1.13238 2.2937 0
M  V30 5661 H 543.135 -2.49091 4.42624 0
M  V30 5662 H 543.065 -3.97905 3.44933 0
M  V30 5663 H 545.556 -2.57477 2.76611 0
M  V30 5664 H 545.869 -4.79042 6.06415 0
M  V30 5665 H 544.214 -4.31361 5.44934 0
M  V30 5666 H 547.405 -3.12715 3.4832 0
M  V30 5667 H 547.578 -4.13768 4.98698 0
M  V30 5668 N 540.985 -1.06182 -1.16461 0
M  V30 5669 C 542.21 -0.798599 -1.91408 0
M  V30 5670 C 542.635 0.640987 -1.76842 0
M  V30 5671 O 541.993 1.44652 -1.09296 0
M  V30 5672 C 542.041 -1.19665 -3.40165 0
M  V30 5673 O 541.145 -0.334768 -4.11039 0
M  V30 5674 H 540.486 -0.291961 -0.596368 0
M  V30 5675 H 543.016 -1.41732 -1.47557 0
M  V30 5676 H 543.026 -1.16772 -3.90933 0
M  V30 5677 H 541.701 -2.24526 -3.50087 0
M  V30 5678 H 540.278 -0.425168 -3.70468 0
M  V30 5679 N 542.463 1.3308 -0.844243 0
M  V30 5680 C 543.426 2.27403 -0.286485 0
M  V30 5681 C 544.426 1.51179 0.547872 0
M  V30 5682 O 545.616 1.70421 0.360886 0
M  V30 5683 C 542.748 3.35653 0.595813 0
M  V30 5684 H 543.941 2.78248 -1.11885 0
M  V30 5685 H 541.494 1.43574 -0.617749 0
M  V30 5686 H 542.229 2.90058 1.4504 0
M  V30 5687 H 542.014 3.921 -0.00125994 0
M  V30 5688 H 543.504 4.05958 0.979168 0
M  V30 5689 N 543.941 0.601185 1.45683 0
M  V30 5690 C 544.851 -0.123395 2.34275 0
M  V30 5691 C 545.867 -0.86702 1.5086 0
M  V30 5692 O 547.043 -0.826049 1.8368 0
M  V30 5693 C 544.108 -1.11237 3.2837 0
M  V30 5694 C 543.169 -0.371405 4.2769 0
M  V30 5695 C 542.402 -1.31327 5.1729 0
M  V30 5696 O 542.625 -2.55078 5.10188 0
M  V30 5697 O 541.559 -0.813811 5.96373 0
M  V30 5698 H 545.385 0.604483 2.97623 0
M  V30 5699 H 542.97 0.361477 1.44961 0
M  V30 5700 H 544.852 -1.68214 3.8637 0
M  V30 5701 H 543.527 -1.82139 2.67595 0
M  V30 5702 H 542.434 0.24067 3.73325 0
M  V30 5703 H 543.767 0.296998 4.91303 0
M  V30 5704 N 545.419 -1.53889 0.339982 0
M  V30 5705 C 546.665 -2.01152 -0.258003 0
M  V30 5706 C 546.998 -1.22749 -1.50487 0
M  V30 5707 O 546.273 -0.314156 -1.91946 0
M  V30 5708 C 546.556 -3.55468 -0.575717 0
M  V30 5709 C 546.409 -4.44584 0.682996 0
M  V30 5710 C 547.728 -4.1768 -1.38677 0
M  V30 5711 H 544.847 -0.731198 -0.0922992 0
M  V30 5712 H 547.489 -1.84352 0.459814 0
M  V30 5713 H 545.639 -3.69914 -1.18725 0
M  V30 5714 H 547.311 -4.41981 1.32102 0
M  V30 5715 H 545.554 -4.13592 1.3086 0
M  V30 5716 H 546.225 -5.5043 0.416001 0
M  V30 5717 H 548.701 -4.0691 -0.869705 0
M  V30 5718 H 547.577 -5.25734 -1.57783 0
M  V30 5719 H 547.838 -3.72069 -2.38782 0
M  V30 5720 N 546.897 -0.0685191 -1.57451 0
M  V30 5721 C 548.125 0.610462 -1.97689 0
M  V30 5722 C 548.54 1.63346 -0.946758 0
M  V30 5723 O 547.897 1.82377 0.0669868 0
M  V30 5724 C 547.948 1.28196 -3.38006 0
M  V30 5725 O 547.669 0.299906 -4.37072 0
M  V30 5726 C 549.17 2.04907 -3.931 0
M  V30 5727 H 546.39 0.165689 -0.650222 0
M  V30 5728 H 548.934 -0.139953 -2.04021 0
M  V30 5729 H 547.089 1.98348 -3.32771 0
M  V30 5730 H 547.503 0.78126 -5.18649 0
M  V30 5731 H 548.977 2.47287 -4.93511 0
M  V30 5732 H 549.454 2.9043 -3.29465 0
M  V30 5733 H 550.06 1.39629 -4.01726 0
M  V30 5734 N 548.375 1.56261 0.205012 0
M  V30 5735 C 549.603 1.84141 0.943386 0
M  V30 5736 C 550.018 0.649772 1.77266 0
M  V30 5737 O 549.375 -0.381612 1.78466 0
M  V30 5738 C 549.426 3.10719 1.84759 0
M  V30 5739 O 549.147 4.25286 1.05181 0
M  V30 5740 C 550.648 3.51706 2.69848 0
M  V30 5741 H 547.868 0.611734 0.275721 0
M  V30 5742 H 550.412 2.03364 0.215253 0
M  V30 5743 H 548.567 2.93422 2.52947 0
M  V30 5744 H 548.981 4.97301 1.66709 0
M  V30 5745 H 550.455 4.43266 3.28967 0
M  V30 5746 H 550.932 2.7423 3.43067 0
M  V30 5747 H 551.538 3.71499 2.07047 0
M  V30 5748 N 549.853 -0.472356 1.50355 0
M  V30 5749 C 550.801 -1.59126 1.69651 0
M  V30 5750 C 551.795 -1.59793 0.56237 0
M  V30 5751 O 553.001 -1.63957 0.742832 0
M  V30 5752 H 549.376 -0.528008 0.535454 0
M  V30 5753 H 551.347 -1.40013 2.63513 0
M  V30 5754 C 550.096 -2.97075 1.8067 0
M  V30 5755 H 549.419 -2.9728 2.67329 0
M  V30 5756 H 550.859 -3.74825 1.98197 0
M  V30 5757 C 549.318 -3.32247 0.558016 0
M  V30 5758 O 549.848 -4.00553 -0.303399 0
M  V30 5759 N 548.054 -2.87659 0.412415 0
M  V30 5760 H 547.601 -2.32246 1.11443 0
M  V30 5761 H 547.559 -3.11556 -0.421908 0
M  V30 5762 N 551.331 -1.39911 -0.725443 0
M  V30 5763 C 552.58 -1.36963 -1.48068 0
M  V30 5764 C 552.893 0.0284478 -1.95579 0
M  V30 5765 O 554.099 0.180535 -2.70899 0
M  V30 5766 C 552.555 -2.40664 -2.67598 0
M  V30 5767 C 552.163 -3.86234 -2.26997 0
M  V30 5768 C 553.907 -2.46807 -3.45379 0
M  V30 5769 C 551.814 -4.81554 -3.43307 0
M  V30 5770 H 550.744 -0.509223 -0.556065 0
M  V30 5771 H 553.395 -1.65602 -0.790454 0
M  V30 5772 H 551.777 -2.05109 -3.38742 0
M  V30 5773 H 552.951 -4.3088 -1.63337 0
M  V30 5774 H 551.266 -3.83475 -1.62284 0
M  V30 5775 H 553.863 -3.15213 -4.31909 0
M  V30 5776 H 554.206 -1.49552 -3.8851 0
M  V30 5777 H 554.739 -2.81303 -2.81271 0
M  V30 5778 H 551.478 -5.80106 -3.05217 0
M  V30 5779 H 550.998 -4.4158 -4.05915 0
M  V30 5780 H 552.677 -5.0091 -4.0951 0
M  V30 5781 N 552.809 0.956637 -1.25245 0
M  V30 5782 C 554.057 1.69764 -1.09657 0
M  V30 5783 C 554.378 1.91583 0.363464 0
M  V30 5784 O 553.648 1.50149 1.25825 0
M  V30 5785 H 552.228 0.629097 -0.402798 0
M  V30 5786 H 554.89 1.15026 -1.57337 0
M  V30 5787 H 553.986 2.67769 -1.60331 0
M  V30 5788 N 554.287 1.06798 1.15896 0
M  V30 5789 C 555.22 0.627503 2.19403 0
M  V30 5790 C 556.198 -0.352352 1.58736 0
M  V30 5791 O 557.382 -0.260111 1.86697 0
M  V30 5792 C 554.509 -0.079356 3.38607 0
M  V30 5793 C 553.555 0.858057 4.17779 0
M  V30 5794 S 554.388 2.35605 4.80885 0
M  V30 5795 C 555.544 1.66083 6.03463 0
M  V30 5796 H 555.777 1.50441 2.56427 0
M  V30 5797 H 553.31 0.881427 1.26768 0
M  V30 5798 H 555.268 -0.48095 4.07673 0
M  V30 5799 H 553.929 -0.932524 2.99938 0
M  V30 5800 H 553.122 0.310108 5.03045 0
M  V30 5801 H 552.724 1.19977 3.54234 0
M  V30 5802 H 555.016 0.969337 6.7053 0
M  V30 5803 H 555.959 2.49159 6.62816 0
M  V30 5804 H 556.367 1.14122 5.52844 0
M  V30 5805 N 555.766 -1.3263 0.851289 0
M  V30 5806 C 556.729 -2.27247 0.298541 0
M  V30 5807 C 557.729 -1.51467 -0.539847 0
M  V30 5808 O 558.919 -1.7061 -0.351843 0
M  V30 5809 C 556.051 -3.35964 -0.578004 0
M  V30 5810 H 557.244 -2.7765 1.13359 0
M  V30 5811 H 554.797 -1.43245 0.625354 0
M  V30 5812 H 555.532 -2.90823 -1.435 0
M  V30 5813 H 555.317 -3.92094 0.0220539 0
M  V30 5814 H 556.807 -4.06472 -0.957626 0
M  V30 5815 N 557.244 -0.608902 -1.45362 0
M  V30 5816 C 558.484 -0.10763 -2.04116 0
M  V30 5817 C 558.848 1.23883 -1.46686 0
M  V30 5818 O 560.049 1.83091 -1.96803 0
M  V30 5819 C 558.32 -0.0703351 -3.57331 0
M  V30 5820 S 559.879 0.369554 -4.37241 0
M  V30 5821 H 556.697 -0.0502123 -0.709225 0
M  V30 5822 H 559.299 -0.8073 -1.78053 0
M  V30 5823 H 558.003 -1.05379 -3.9664 0
M  V30 5824 H 557.534 0.651287 -3.87971 0
M  V30 5825 H 559.549 1.61878 -4.69052 0
M  V30 5826 N 558.722 1.53707 -0.348139 0
M  V30 5827 C 559.97 2.00591 0.246478 0
M  V30 5828 C 560.291 1.23753 1.50699 0
M  V30 5829 O 559.561 0.345964 1.92821 0
M  V30 5830 H 558.141 0.741053 0.0940679 0
M  V30 5831 H 560.803 1.89139 -0.470354 0
M  V30 5832 H 559.899 3.08297 0.485714 0
M  V30 5833 N 560.2 0.0768682 1.57412 0
M  V30 5834 C 561.163 -0.873949 2.11884 0
M  V30 5835 C 562.163 -1.22301 1.04398 0
M  V30 5836 O 563.353 -1.15545 1.30365 0
M  V30 5837 C 560.485 -2.17575 2.62438 0
M  V30 5838 H 561.678 -0.401278 2.97203 0
M  V30 5839 H 559.231 -0.171904 1.55352 0
M  V30 5840 H 559.966 -2.69368 1.80587 0
M  V30 5841 H 559.751 -1.93534 3.41009 0
M  V30 5842 H 561.241 -2.85631 3.04639 0
M  V30 5843 N 561.678 -1.56367 -0.196722 0
M  V30 5844 C 563.094 -1.49916 -0.54749 0
M  V30 5845 C 563.294 -0.77659 -1.85934 0
M  V30 5846 O 562.35 -0.32644 -2.50381 0
M  V30 5847 C 563.663 -2.94577 -0.603734 0
M  V30 5848 C 565.211 -3.05239 -0.692677 0
M  V30 5849 C 565.686 -4.51308 -0.780046 0
M  V30 5850 N 567.177 -4.55453 -0.843616 0
M  V30 5851 C 567.912 -5.65786 -0.931358 0
M  V30 5852 N 567.408 -6.85812 -0.981503 0
M  V30 5853 N 569.201 -5.53695 -0.968421 0
M  V30 5854 H 561.352 -2.01761 0.663803 0
M  V30 5855 H 563.615 -0.918094 0.236238 0
M  V30 5856 H 563.321 -3.50494 0.29105 0
M  V30 5857 H 563.195 -3.47841 -1.45898 0
M  V30 5858 H 565.582 -2.49372 -1.57789 0
M  V30 5859 H 565.663 -2.55103 0.188736 0
M  V30 5860 H 565.307 -5.078 0.100811 0
M  V30 5861 H 565.237 -4.99176 -1.67724 0
M  V30 5862 H 567.728 -3.69025 -0.814176 0
M  V30 5863 H 568.041 -7.65648 -1.04892 0
M  V30 5864 H 566.386 -6.88474 -0.950208 0
M  V30 5865 H 569.577 -4.58848 -0.926072 0
M  V30 5866 H 569.75 -6.39708 -1.03334 0
M  V30 5867 N 563.156 0.464375 -1.50603 0
M  V30 5868 C 564.088 1.57916 -1.66118 0
M  V30 5869 C 565.101 1.53497 -0.54246 0
M  V30 5870 O 566.29 1.58763 -0.815877 0
M  V30 5871 C 563.39 2.96809 -1.63577 0
M  V30 5872 C 562.563 3.26026 -2.91592 0
M  V30 5873 C 561.622 4.44506 -2.81604 0
M  V30 5874 O 560.648 4.44484 -3.55559 0
M  V30 5875 N 561.85 5.46549 -1.95614 0
M  V30 5876 H 564.615 1.45022 -2.62276 0
M  V30 5877 H 562.176 0.652903 -1.48151 0
M  V30 5878 H 564.168 3.74048 -1.54499 0
M  V30 5879 H 562.738 3.03438 -0.751262 0
M  V30 5880 H 561.958 2.37337 -3.14746 0
M  V30 5881 H 563.246 3.42361 -3.76386 0
M  V30 5882 H 562.644 5.49391 -1.34854 0
M  V30 5883 H 561.201 6.22746 -1.92435 0
M  V30 5884 N 564.634 1.40294 0.718013 0
M  V30 5885 C 565.88 1.38645 1.48005 0
M  V30 5886 C 566.213 -0.0121202 1.94196 0
M  V30 5887 O 565.488 -0.980309 1.67989 0
M  V30 5888 C 565.771 2.37379 2.70782 0
M  V30 5889 C 565.624 3.8625 2.30501 0
M  V30 5890 C 566.943 2.33685 3.72933 0
M  V30 5891 H 564.062 0.504928 0.536858 0
M  V30 5892 H 566.704 1.71411 0.819649 0
M  V30 5893 H 564.854 2.09568 3.27129 0
M  V30 5894 H 566.526 4.24879 1.79655 0
M  V30 5895 H 564.769 4.02202 1.6253 0
M  V30 5896 H 565.44 4.50847 3.18498 0
M  V30 5897 H 567.916 2.58314 3.2621 0
M  V30 5898 H 566.792 3.0482 4.56482 0
M  V30 5899 H 567.053 1.34765 4.21059 0
M  V30 5900 N 566.112 -0.949982 1.2575 0
M  V30 5901 C 567.042 -2.06483 1.09028 0
M  V30 5902 C 568.023 -1.701 -0.00201532 0
M  V30 5903 O 569.208 -1.93469 0.168383 0
M  V30 5904 C 566.338 -3.39899 0.71316 0
M  V30 5905 C 565.292 -3.90309 1.75621 0
M  V30 5906 C 564.618 -5.20274 1.23365 0
M  V30 5907 C 565.918 -4.16169 3.15596 0
M  V30 5908 H 567.612 -2.20731 2.02283 0
M  V30 5909 H 565.158 -1.06066 0.973964 0
M  V30 5910 H 567.111 -4.17346 0.58309 0
M  V30 5911 H 565.835 -3.25602 -0.255091 0
M  V30 5912 H 564.494 -3.15035 1.8748 0
M  V30 5913 H 564.142 -5.02351 0.255491 0
M  V30 5914 H 563.842 -5.54971 1.93082 0
M  V30 5915 H 565.366 -6.00314 1.11607 0
M  V30 5916 H 566.78 -4.84259 3.06864 0
M  V30 5917 H 565.177 -4.62131 3.82825 0
M  V30 5918 H 566.247 -3.22273 3.6231 0
M  V30 5919 N 567.59 -1.07411 -1.15328 0
M  V30 5920 C 568.553 -0.698914 -2.18284 0
M  V30 5921 C 569.553 0.261149 -1.58665 0
M  V30 5922 O 570.743 0.0420277 -1.74149 0
M  V30 5923 C 567.875 -0.0302427 -3.40887 0
M  V30 5924 H 569.068 -1.61045 -2.52991 0
M  V30 5925 H 566.621 -0.870724 -1.298 0
M  V30 5926 H 567.356 0.893505 -3.11748 0
M  V30 5927 H 567.141 -0.720759 -3.85419 0
M  V30 5928 H 568.631 0.21759 -4.17033 0
M  V30 5929 N 569.068 1.32177 -0.85831 0
M  V30 5930 C 570.015 2.28794 -0.303607 0
M  V30 5931 C 570.985 1.55213 0.591453 0
M  V30 5932 O 572.17 1.83418 0.525585 0
M  V30 5933 C 569.31 3.41475 0.49889 0
M  V30 5934 C 568.423 4.2993 -0.422373 0
M  V30 5935 C 567.558 5.29743 0.393111 0
M  V30 5936 C 566.597 6.09842 -0.525317 0
M  V30 5937 N 565.734 7.01643 0.253208 0
M  V30 5938 H 570.574 2.75631 -1.13276 0
M  V30 5939 H 568.111 1.35606 -0.570026 0
M  V30 5940 H 570.069 4.05531 0.979826 0
M  V30 5941 H 568.699 2.95779 1.29284 0
M  V30 5942 H 567.751 3.66422 -1.02171 0
M  V30 5943 H 569.063 4.85899 -1.12709 0
M  V30 5944 H 568.217 5.9942 0.937056 0
M  V30 5945 H 566.956 4.744 1.13117 0
M  V30 5946 H 565.961 5.39066 -1.08112 0
M  V30 5947 H 567.186 6.6727 -1.26205 0
M  V30 5948 H 565.132 6.48725 0.974295 0
M  V30 5949 H 565.049 7.54981 -0.392398 0
M  V30 5950 H 566.317 7.756 0.778761 0
M  V30 5951 N 570.547 0.616602 1.45037 0
M  V30 5952 C 571.958 0.199359 1.85633 0
M  V30 5953 C 572.309 -1.24588 1.51566 0
M  V30 5954 O 571.434 -1.94594 0.94668 0
M  V30 5955 C 572.029 0.355033 3.36935 0
M  V30 5956 C 570.588 -0.00758748 3.76399 0
M  V30 5957 C 569.735 0.675256 2.68953 0
M  V30 5958 H 572.686 0.822708 1.3571 0
M  V30 5959 H 572.707 -0.410201 3.78282 0
M  V30 5960 H 572.219 1.40699 3.61698 0
M  V30 5961 H 570.32 -1.05837 3.57252 0
M  V30 5962 H 570.433 0.392346 4.77491 0
M  V30 5963 H 568.797 0.111992 2.54454 0
M  V30 5964 H 569.58 1.72952 2.96551 0
M  V30 5965 N 572.025 -1.5352 0.356285 0
M  V30 5966 C 573.273 -2.00719 -0.235837 0
M  V30 5967 C 573.594 -1.24551 -1.5004 0
M  V30 5968 O 572.864 -0.356185 -1.92635 0
M  V30 5969 H 571.444 -0.741542 -0.0901366 0
M  V30 5970 H 574.106 -1.88887 0.480378 0
M  V30 5971 H 573.202 -3.08551 -0.469357 0
M  V30 5972 N 573.503 -0.0852151 -1.57369 0
M  V30 5973 C 574.436 0.913608 -2.09113 0
M  V30 5974 C 575.414 1.28264 -0.999358 0
M  V30 5975 O 576.598 1.3896 -1.27367 0
M  V30 5976 C 573.725 2.21777 -2.55993 0
M  V30 5977 C 572.771 1.99932 -3.76735 0
M  V30 5978 S 573.604 1.24637 -5.20794 0
M  V30 5979 C 574.76 2.56304 -5.71016 0
M  V30 5980 H 574.993 0.473369 -2.93507 0
M  V30 5981 H 572.526 0.127856 -1.5387 0
M  V30 5982 H 574.484 2.96726 -2.83662 0
M  V30 5983 H 573.145 2.62923 -1.71843 0
M  V30 5984 H 572.338 2.96482 -4.07571 0
M  V30 5985 H 571.94 1.33116 -3.49509 0
M  V30 5986 H 574.232 3.5233 -5.78679 0
M  V30 5987 H 575.175 2.3006 -6.69685 0
M  V30 5988 H 575.583 2.64125 -4.98897 0
M  V30 5989 N 574.981 1.5647 0.188427 0
M  V30 5990 C 576.229 1.80655 0.905986 0
M  V30 5991 C 576.55 0.659391 1.83513 0
M  V30 5992 O 575.82 -0.321868 1.93238 0
M  V30 5993 H 574.4 0.666391 0.337538 0
M  V30 5994 H 577.062 1.93949 0.192339 0
M  V30 5995 H 576.158 2.74066 1.49313 0
M  V30 5996 N 576.459 -0.456382 1.50847 0
M  V30 5997 C 577.705 -1.20914 1.62811 0
M  V30 5998 C 578.038 -1.91301 0.334304 0
M  V30 5999 O 577.313 -1.82775 -0.665098 0
M  V30 6000 C 577.596 -2.24122 2.81853 0
M  V30 6001 C 577.449 -1.57944 4.21158 0
M  V30 6002 C 578.768 -3.25295 2.96431 0
M  V30 6003 H 575.887 -0.438233 0.592554 0
M  V30 6004 H 578.529 -0.50091 1.83278 0
M  V30 6005 H 576.679 -2.84524 2.64534 0
M  V30 6006 H 578.351 -1.01025 4.50102 0
M  V30 6007 H 576.594 -0.882185 4.24735 0
M  V30 6008 H 577.265 -2.33014 5.00408 0
M  V30 6009 H 579.741 -2.7493 3.12335 0
M  V30 6010 H 578.617 -3.94822 3.81322 0
M  V30 6011 H 578.878 -3.90286 2.07676 0
M  V30 6012 N 577.937 -1.40673 -0.710563 0
M  V30 6013 C 579.214 -1.29718 -1.46398 0
M  V30 6014 C 579.594 0.082177 -2.1094 0
M  V30 6015 O 578.942 1.09536 -2.00534 0
M  V30 6016 C 579.152 -2.43967 -2.49562 0
M  V30 6017 C 580.5 -2.84436 -3.15248 0
M  V30 6018 O 581.524 -2.43597 -2.59883 0
M  V30 6019 O 580.383 -3.55008 -4.1549 0
M  V30 6020 H 577.477 -0.509697 -0.651258 0
M  V30 6021 H 580.023 -1.52603 -0.742312 0
M  V30 6022 H 578.795 -3.36076 -2.0042 0
M  V30 6023 H 578.418 -2.22879 -3.29258 0
M  V30 6024 N 579.415 0.9433 -1.26252 0
M  V30 6025 C 580.325 2.07532 -1.09397 0
M  V30 6026 C 581.341 1.73977 -0.0280449 0
M  V30 6027 O 582.517 2.00067 -0.231337 0
M  V30 6028 C 579.582 3.39002 -0.726523 0
M  V30 6029 C 578.643 3.86353 -1.87163 0
M  V30 6030 C 577.876 5.11549 -1.52162 0
M  V30 6031 O 578.099 5.68834 -0.422385 0
M  V30 6032 O 577.033 5.53889 -2.35565 0
M  V30 6033 H 580.859 2.24658 -2.04359 0
M  V30 6034 H 578.444 1.05988 -1.05295 0
M  V30 6035 H 580.326 4.18 -0.534236 0
M  V30 6036 H 579.001 3.2312 0.193721 0
M  V30 6037 H 577.908 3.0831 -2.11886 0
M  V30 6038 H 579.241 4.06752 -2.77152 0
M  V30 6039 N 580.893 1.08022 1.14757 0
M  V30 6040 C 582.141 0.805913 1.85336 0
M  V30 6041 C 582.462 -0.670162 1.83122 0
M  V30 6042 O 581.732 -1.48567 1.2769 0
M  V30 6043 H 580.312 0.295138 0.686223 0
M  V30 6044 H 582.974 1.36538 1.3908 0
M  V30 6045 H 582.07 1.14655 2.90277 0
M  V30 6046 N 582.371 -1.3172 0.865308 0
M  V30 6047 C 583.304 -2.26687 0.262376 0
M  V30 6048 C 584.282 -1.50894 -0.605787 0
M  V30 6049 O 585.466 -1.79982 -0.56024 0
M  V30 6050 C 582.593 -3.3281 -0.628915 0
M  V30 6051 C 581.639 -4.26172 0.167278 0
M  V30 6052 S 582.472 -5.12797 1.54272 0
M  V30 6053 C 583.628 -6.22438 0.657427 0
M  V30 6054 H 583.861 -2.77478 1.0674 0
M  V30 6055 H 581.394 -1.39414 0.663555 0
M  V30 6056 H 583.352 -3.94426 -1.13747 0
M  V30 6057 H 582.013 -2.80782 -1.40785 0
M  V30 6058 H 581.206 -5.01392 -0.51203 0
M  V30 6059 H 580.808 -3.69029 0.607777 0
M  V30 6060 H 583.1 -6.77368 -0.133925 0
M  V30 6061 H 584.043 -6.9451 1.38061 0
M  V30 6062 H 584.451 -5.64043 0.227044 0
M  V30 6063 N 583.85 -0.624285 -1.44708 0
M  V30 6064 C 584.783 0.133905 -2.27807 0
M  V30 6065 C 585.76 0.857794 -1.38133 0
M  V30 6066 O 586.945 0.863277 -1.6757 0
M  V30 6067 C 584.072 1.19541 -3.16903 0
M  V30 6068 C 583.118 0.572813 -4.22636 0
M  V30 6069 S 583.951 -0.631953 -5.31758 0
M  V30 6070 C 585.106 0.429733 -6.24423 0
M  V30 6071 H 585.34 -0.571072 -2.91764 0
M  V30 6072 H 582.873 -0.412261 -1.48794 0
M  V30 6073 H 584.831 1.80293 -3.68788 0
M  V30 6074 H 583.492 1.87255 -2.5218 0
M  V30 6075 H 582.685 1.37205 -4.84965 0
M  V30 6076 H 582.287 0.0400641 -3.73979 0
M  V30 6077 H 584.579 1.30421 -6.64828 0
M  V30 6078 H 585.522 -0.157804 -7.07924 0
M  V30 6079 H 585.93 0.75256 -5.59461 0
M  V30 6080 N 585.328 1.53329 -0.364422 0
M  V30 6081 C 586.577 2.00421 0.226747 0
M  V30 6082 C 586.89 1.25581 1.49963 0
M  V30 6083 O 588.096 1.63256 2.16933 0
M  V30 6084 C 586.552 3.57017 0.454618 0
M  V30 6085 C 586.16 4.40734 -0.803568 0
M  V30 6086 C 587.904 4.12468 1.00351 0
M  V30 6087 C 585.811 5.8888 -0.545345 0
M  V30 6088 H 584.741 0.748787 0.0885082 0
M  V30 6089 H 587.392 1.7703 -0.482983 0
M  V30 6090 H 585.774 3.76558 1.22558 0
M  V30 6091 H 586.948 4.32967 -1.57723 0
M  V30 6092 H 585.263 3.96381 -1.27559 0
M  V30 6093 H 587.86 5.20783 1.212 0
M  V30 6094 H 588.203 3.6699 1.9653 0
M  V30 6095 H 588.736 3.96721 0.29274 0
M  V30 6096 H 585.475 6.38633 -1.47743 0
M  V30 6097 H 584.995 5.99499 0.189842 0
M  V30 6098 H 586.674 6.46776 -0.170425 0
M  V30 6099 N 586.806 0.0935595 1.57322 0
M  V30 6100 C 588.052 -0.571355 1.94585 0
M  V30 6101 C 588.385 -1.67929 0.975366 0
M  V30 6102 O 587.66 -1.94498 0.00816206 0
M  V30 6103 C 587.943 -1.12797 3.41978 0
M  V30 6104 C 587.796 -0.0251881 4.49793 0
M  V30 6105 C 589.115 -2.02682 3.90651 0
M  V30 6106 H 586.234 -0.206223 0.70756 0
M  V30 6107 H 588.876 0.163956 1.89291 0
M  V30 6108 H 587.026 -1.75461 3.4662 0
M  V30 6109 H 588.698 0.608979 4.57263 0
M  V30 6110 H 586.941 0.641399 4.29032 0
M  V30 6111 H 587.612 -0.455433 5.50118 0
M  V30 6112 H 590.088 -1.49925 3.88152 0
M  V30 6113 H 588.964 -2.38555 4.94351 0
M  V30 6114 H 589.225 -2.94362 3.29854 0
M  V30 6115 N 588.284 -1.56567 -0.180126 0
M  V30 6116 C 589.231 -1.95725 -1.22313 0
M  V30 6117 C 590.201 -0.819911 -1.44453 0
M  V30 6118 O 591.386 -1.07931 -1.57339 0
M  V30 6119 C 588.526 -2.31484 -2.55947 0
M  V30 6120 C 587.639 -3.58354 -2.4126 0
M  V30 6121 C 586.774 -3.83366 -3.67701 0
M  V30 6122 C 585.813 -5.03612 -3.47909 0
M  V30 6123 N 584.95 -5.24802 -4.66398 0
M  V30 6124 H 589.79 -2.84642 -0.882198 0
M  V30 6125 H 587.327 -1.4085 -0.42422 0
M  V30 6126 H 589.285 -2.50237 -3.33822 0
M  V30 6127 H 587.915 -1.45689 -2.88053 0
M  V30 6128 H 586.967 -3.47565 -1.54606 0
M  V30 6129 H 588.279 -4.46386 -2.22577 0
M  V30 6130 H 587.433 -4.02439 -4.54013 0
M  V30 6131 H 586.172 -2.93692 -3.89353 0
M  V30 6132 H 585.177 -4.84447 -2.59983 0
M  V30 6133 H 586.402 -5.94809 -3.27688 0
M  V30 6134 H 584.348 -4.38079 -4.88286 0
M  V30 6135 H 584.265 -6.07041 -4.50596 0
M  V30 6136 H 585.533 -5.48346 -5.54019 0
M  V30 6137 N 589.762 0.448376 -1.51087 0
M  V30 6138 C 590.71 1.56407 -1.72161 0
M  V30 6139 C 591.704 1.58878 -0.587721 0
M  V30 6140 O 592.91 1.62755 -0.768822 0
M  V30 6141 H 589.285 0.519423 -0.543786 0
M  V30 6142 H 591.256 1.35803 -2.65707 0
M  V30 6143 C 590.005 2.94163 -1.85373 0
M  V30 6144 H 589.328 2.9299 -2.72024 0
M  V30 6145 H 590.768 3.71625 -2.04135 0
M  V30 6146 C 589.227 3.31317 -0.610803 0
M  V30 6147 O 589.757 4.00985 0.239636 0
M  V30 6148 N 587.963 2.86966 -0.458127 0
M  V30 6149 H 587.51 2.30443 -1.15124 0
M  V30 6150 H 587.468 3.12188 0.372289 0
M  V30 6151 N 591.24 1.41047 0.703093 0
M  V30 6152 C 592.15 1.44645 1.84703 0
M  V30 6153 C 593.166 0.337778 1.7069 0
M  V30 6154 O 594.342 0.584327 1.92737 0
M  V30 6155 C 591.407 1.31928 3.20618 0
M  V30 6156 C 590.468 2.53047 3.46794 0
M  V30 6157 C 589.701 2.40927 4.76224 0
M  V30 6158 O 589.924 1.42978 5.5219 0
M  V30 6159 O 588.858 3.30543 5.03016 0
M  V30 6160 H 592.684 2.41139 1.84624 0
M  V30 6161 H 590.269 1.22504 0.855167 0
M  V30 6162 H 592.151 1.27092 4.01778 0
M  V30 6163 H 590.826 0.385469 3.21397 0
M  V30 6164 H 589.733 2.6346 2.65593 0
M  V30 6165 H 591.066 3.45231 3.50822 0
M  V30 6166 N 592.718 -0.936591 1.26751 0
M  V30 6167 C 593.651 -2.03619 1.03027 0
M  V30 6168 C 594.629 -1.62534 -0.0464619 0
M  V30 6169 O 595.813 -1.88251 0.0968873 0
M  V30 6170 C 592.94 -3.3402 0.561072 0
M  V30 6171 C 591.986 -3.9408 1.63105 0
M  V30 6172 S 592.819 -4.27782 3.22122 0
M  V30 6173 C 593.975 -5.61277 2.76982 0
M  V30 6174 H 594.208 -2.23429 1.96129 0
M  V30 6175 H 591.741 -1.07857 1.10482 0
M  V30 6176 H 593.699 -4.09424 0.297031 0
M  V30 6177 H 592.36 -3.12147 -0.349741 0
M  V30 6178 H 591.553 -4.88154 1.25386 0
M  V30 6179 H 591.155 -3.25227 1.84671 0
M  V30 6180 H 593.447 -6.40189 2.21731 0
M  V30 6181 H 594.39 -6.03887 3.69766 0
M  V30 6182 H 594.798 -5.21374 2.16402 0
M  V30 6183 N 594.196 -1.08629 -1.14182 0
M  V30 6184 C 595.144 -0.71284 -2.21408 0
M  V30 6185 C 596.138 0.282457 -1.67029 0
M  V30 6186 O 597.344 0.144783 -1.79417 0
M  V30 6187 H 593.719 -0.212497 -0.721352 0
M  V30 6188 H 595.69 -1.6265 -2.50175 0
M  V30 6189 C 594.439 -0.140704 -3.47415 0
M  V30 6190 H 593.762 -0.897739 -3.8959 0
M  V30 6191 H 595.202 0.0827677 -4.23919 0
M  V30 6192 C 593.661 1.122 -3.17668 0
M  V30 6193 O 594.191 2.20652 -3.35672 0
M  V30 6194 N 592.397 1.03328 -2.71609 0
M  V30 6195 H 591.944 0.150666 -2.57159 0
M  V30 6196 H 591.902 1.8789 -2.52081 0
M  V30 6197 N 595.674 1.31259 -0.872281 0
M  V30 6198 C 597.09 1.49283 -0.564521 0
M  V30 6199 C 597.29 1.80243 0.900807 0
M  V30 6200 O 596.346 1.88246 1.68284 0
M  V30 6201 C 597.659 2.62503 -1.46673 0
M  V30 6202 C 599.207 2.76386 -1.46901 0
M  V30 6203 C 599.682 3.92705 -2.35684 0
M  V30 6204 N 601.173 3.99995 -2.33577 0
M  V30 6205 C 601.908 4.89276 -2.98992 0
M  V30 6206 N 601.404 5.83443 -3.73585 0
M  V30 6207 N 603.197 4.82541 -2.88289 0
M  V30 6208 H 595.348 1.09432 -1.82039 0
M  V30 6209 H 597.611 0.540949 -0.77851 0
M  V30 6210 H 597.317 2.46407 -2.50951 0
M  V30 6211 H 597.191 3.58695 -1.16696 0
M  V30 6212 H 599.578 2.91894 -0.433796 0
M  V30 6213 H 599.659 1.80853 -1.80903 0
M  V30 6214 H 599.303 3.77954 -3.39283 0
M  V30 6215 H 599.233 4.87549 -1.99006 0
M  V30 6216 H 601.724 3.32624 -1.7936 0
M  V30 6217 H 602.037 6.48303 -4.20622 0
M  V30 6218 H 600.382 5.83415 -3.77694 0
M  V30 6219 H 603.573 4.07951 -2.2955 0
M  V30 6220 H 603.746 5.51916 -3.39549 0
M  V30 6221 N 597.152 0.631951 1.44375 0
M  V30 6222 C 598.398 0.13697 2.02337 0
M  V30 6223 C 598.731 -1.23826 1.49602 0
M  V30 6224 O 598.006 -1.8221 0.680415 0
M  V30 6225 C 598.289 0.124536 3.59885 0
M  V30 6226 C 598.142 1.53217 4.229 0
M  V30 6227 C 599.461 -0.550481 4.36644 0
M  V30 6228 H 596.58 0.051247 0.735216 0
M  V30 6229 H 599.222 0.808581 1.71936 0
M  V30 6230 H 597.372 -0.44737 3.85916 0
M  V30 6231 H 599.044 2.15303 4.07973 0
M  V30 6232 H 597.287 2.0858 3.80364 0
M  V30 6233 H 597.958 1.4755 5.31914 0
M  V30 6234 H 600.434 -0.0641154 4.16051 0
M  V30 6235 H 599.31 -0.528371 5.46351 0
M  V30 6236 H 599.571 -1.62097 4.11311 0
M  V30 6237 N 598.631 -1.53133 0.372548 0
M  V30 6238 C 599.561 -2.28876 -0.462412 0
M  V30 6239 C 600.542 -1.31583 -1.07796 0
M  V30 6240 O 601.727 -1.60461 -1.09389 0
M  V30 6241 C 598.857 -3.08317 -1.59868 0
M  V30 6242 C 597.811 -4.13355 -1.11003 0
M  V30 6243 C 597.137 -4.8092 -2.33708 0
M  V30 6244 C 598.437 -5.21955 -0.18983 0
M  V30 6245 H 600.131 -2.9892 0.169511 0
M  V30 6246 H 597.677 -1.43761 0.0829658 0
M  V30 6247 H 599.63 -3.60055 -2.18949 0
M  V30 6248 H 598.354 -2.35976 -2.25794 0
M  V30 6249 H 597.013 -3.62573 -0.541869 0
M  V30 6250 H 596.661 -4.05144 -2.98106 0
M  V30 6251 H 596.361 -5.51904 -2.01682 0
M  V30 6252 H 597.885 -5.35455 -2.93462 0
M  V30 6253 H 599.299 -5.69153 -0.688319 0
M  V30 6254 H 597.696 -6.00087 0.0398887 0
M  V30 6255 H 598.766 -4.78811 0.766057 0
M  V30 6256 N 600.109 -0.101901 -1.5727 0
M  V30 6257 C 601.072 0.840129 -2.13247 0
M  V30 6258 C 602.072 1.20625 -1.06331 0
M  V30 6259 O 603.262 1.13456 -1.32186 0
M  V30 6260 C 600.394 2.13372 -2.65867 0
M  V30 6261 H 601.587 0.353945 -2.97804 0
M  V30 6262 H 599.14 0.147167 -1.55606 0
M  V30 6263 H 599.875 2.66461 -1.84849 0
M  V30 6264 H 599.66 1.88085 -3.44044 0
M  V30 6265 H 601.15 2.80748 -3.09145 0
M  V30 6266 N 601.587 1.56661 0.17182 0
M  V30 6267 C 602.517 1.99401 1.21498 0
M  V30 6268 C 603.498 0.869516 1.46197 0
M  V30 6269 O 604.683 1.13556 1.57539 0
M  V30 6270 C 601.813 2.35346 2.55401 0
M  V30 6271 C 600.767 3.5075 2.45272 0
M  V30 6272 C 600.093 3.72437 3.8366 0
M  V30 6273 C 601.393 4.84216 1.95787 0
M  V30 6274 H 603.087 2.86792 0.859699 0
M  V30 6275 H 600.633 1.37977 0.412103 0
M  V30 6276 H 602.586 2.63843 3.2858 0
M  V30 6277 H 601.31 1.44864 2.92715 0
M  V30 6278 H 599.969 3.2238 1.74547 0
M  V30 6279 H 599.617 2.79246 4.18367 0
M  V30 6280 H 599.317 4.50087 3.77751 0
M  V30 6281 H 600.841 4.03334 4.58426 0
M  V30 6282 H 602.255 5.11592 2.5874 0
M  V30 6283 H 600.652 5.65498 2.00827 0
M  V30 6284 H 601.722 4.76243 0.912159 0
M  V30 6285 N 603.065 -0.440357 1.51323 0
M  V30 6286 C 604.311 -1.19181 1.64085 0
M  V30 6287 C 604.644 -1.90936 0.354575 0
M  V30 6288 O 603.919 -1.8347 -0.645675 0
M  V30 6289 C 604.202 -2.2112 2.84215 0
M  V30 6290 C 604.055 -1.53468 4.22809 0
M  V30 6291 C 605.374 -3.22133 2.99864 0
M  V30 6292 H 602.493 -0.431924 0.597169 0
M  V30 6293 H 605.135 -0.481443 1.83799 0
M  V30 6294 H 603.285 -2.81703 2.67537 0
M  V30 6295 H 604.957 -0.962455 4.51148 0
M  V30 6296 H 603.2 -0.837086 4.25647 0
M  V30 6297 H 603.871 -2.27694 5.02852 0
M  V30 6298 H 606.347 -2.71601 3.15233 0
M  V30 6299 H 605.223 -3.90756 3.85488 0
M  V30 6300 H 605.484 -3.88061 2.11804 0
M  V30 6301 N 604.543 -1.41418 -0.695603 0
M  V30 6302 C 605.791 -1.40496 -1.45277 0
M  V30 6303 C 606.112 -0.0149538 -1.94994 0
M  V30 6304 O 605.382 0.9432 -1.71699 0
M  V30 6305 H 603.962 -0.517147 -0.539044 0
M  V30 6306 H 606.624 -1.76656 -0.823321 0
M  V30 6307 H 605.72 -2.09214 -2.31595 0
M  V30 6308 N 606.021 0.929856 -1.27246 0
M  V30 6309 C 607.437 1.20542 -1.04603 0
M  V30 6310 C 607.637 2.00276 0.221754 0
M  V30 6311 O 606.693 2.34835 0.927833 0
M  V30 6312 C 608.006 1.95566 -2.28417 0
M  V30 6313 C 609.554 2.08513 -2.33433 0
M  V30 6314 C 610.029 2.86943 -3.5697 0
M  V30 6315 N 611.52 2.94512 -3.57515 0
M  V30 6316 C 612.255 3.55656 -4.49774 0
M  V30 6317 N 611.751 4.18209 -5.52334 0
M  V30 6318 N 613.544 3.53038 -4.37402 0
M  V30 6319 H 605.695 0.397113 -2.08655 0
M  V30 6320 H 607.958 0.238277 -0.917566 0
M  V30 6321 H 607.664 1.44395 -3.20691 0
M  V30 6322 H 607.538 2.9619 -2.33563 0
M  V30 6323 H 609.925 2.58872 -1.41666 0
M  V30 6324 H 610.006 1.07117 -2.32292 0
M  V30 6325 H 609.65 2.37268 -4.49072 0
M  V30 6326 H 609.58 3.8862 -3.55362 0
M  V30 6327 H 612.071 2.50053 -2.83341 0
M  V30 6328 H 612.384 4.62796 -6.18902 0
M  V30 6329 H 610.729 4.16761 -5.56179 0
M  V30 6330 H 613.92 3.0337 -3.56489 0
M  V30 6331 H 614.093 4.004 -5.09493 0
M  V30 6332 N 607.499 1.09233 1.13605 0
M  V30 6333 C 608.915 0.82163 1.36826 0
M  V30 6334 C 609.115 -0.565021 1.93416 0
M  V30 6335 O 608.171 -1.32026 2.15234 0
M  V30 6336 C 609.484 1.91124 2.32147 0
M  V30 6337 C 611.032 1.93824 2.45767 0
M  V30 6338 C 611.507 3.01923 3.44393 0
M  V30 6339 N 612.998 3.01149 3.51942 0
M  V30 6340 C 613.733 3.81434 4.2813 0
M  V30 6341 N 613.229 4.71621 5.07489 0
M  V30 6342 N 615.022 3.69702 4.23411 0
M  V30 6343 H 607.173 1.98633 0.752234 0
M  V30 6344 H 609.436 0.862482 0.393482 0
M  V30 6345 H 609.142 2.90862 1.97717 0
M  V30 6346 H 609.016 1.78777 3.32142 0
M  V30 6347 H 611.403 0.94726 2.79483 0
M  V30 6348 H 611.484 2.10248 1.45703 0
M  V30 6349 H 611.128 4.01232 3.11408 0
M  V30 6350 H 611.058 2.82742 4.44257 0
M  V30 6351 H 613.549 2.35789 2.95317 0
M  V30 6352 H 613.862 5.29468 5.62924 0
M  V30 6353 H 612.207 4.75658 5.06729 0
M  V30 6354 H 615.398 2.98606 3.60489 0
M  V30 6355 H 615.571 4.32509 4.82535 0
M  V30 6356 N 608.977 -1.30795 0.87923 0
M  V30 6357 C 609.924 -2.28282 0.339968 0
M  V30 6358 C 610.894 -1.56134 -0.566685 0
M  V30 6359 O 612.079 -1.84231 -0.496338 0
M  V30 6360 C 609.219 -3.42225 -0.444501 0
M  V30 6361 C 608.332 -4.29204 0.490717 0
M  V30 6362 C 607.467 -5.30302 -0.308784 0
M  V30 6363 C 606.506 -6.08929 0.622272 0
M  V30 6364 N 605.643 -7.01957 -0.14155 0
M  V30 6365 H 610.483 -2.73794 1.17647 0
M  V30 6366 H 608.02 -1.34682 0.591527 0
M  V30 6367 H 609.978 -4.07038 -0.915186 0
M  V30 6368 H 608.608 -2.97799 -1.24562 0
M  V30 6369 H 607.66 -3.6475 1.07988 0
M  V30 6370 H 608.972 -4.84045 1.20425 0
M  V30 6371 H 608.126 -6.00835 -0.841575 0
M  V30 6372 H 606.865 -4.7614 -1.05556 0
M  V30 6373 H 605.87 -5.37278 1.16674 0
M  V30 6374 H 607.095 -6.65178 1.36804 0
M  V30 6375 H 605.041 -6.50192 -0.870966 0
M  V30 6376 H 604.958 -7.54261 0.51246 0
M  V30 6377 H 606.226 -7.76741 -0.655271 0
M  V30 6378 O 610.494 -0.779418 -1.41447 0
M  V30 6379 H 611.185 -0.346083 -1.90583 0
M  V30 END ATOM
M  V30 BEGIN BOND
M  V30 END BOND
M  V30 END CTAB
M  END
$$$$
