drugbank_drug|DB00086 Streptokinase Sequence DB00086
 OpenBabel12092119113D

  0  0  0     0  0            999 V3000
M  V30 BEGIN CTAB
M  V30 COUNTS 7005 7078 0 0 0
M  V30 BEGIN ATOM
M  V30 1 H -0.908 1.98254 -0.117106 0
M  V30 2 N 0 1.576 0 0
M  V30 3 C 0.933 2.03868 1.02534 0
M  V30 4 C 1.911 0.928543 1.3348 0
M  V30 5 O 3.095 1.19667 1.45644 0
M  V30 6 C 0.222 2.43627 2.35294 0
M  V30 7 C -0.732 3.65373 2.2001 0
M  V30 8 S 0.101 5.13292 1.52614 0
M  V30 9 C 1.257 5.56322 2.86805 0
M  V30 10 H 1.49 2.90518 0.631377 0
M  V30 11 H -0.977 1.52953 0.210867 0
M  V30 12 H 0.981 2.67203 3.11629 0
M  V30 13 H -0.358 1.57376 2.7183 0
M  V30 14 H -1.165 3.90944 3.18086 0
M  V30 15 H -1.563 3.418 1.51819 0
M  V30 16 H 0.729 5.58782 3.83104 0
M  V30 17 H 1.672 6.56266 2.65933 0
M  V30 18 H 2.08 4.83886 2.90714 0
M  V30 19 N 1.4781 -0.272755 1.55222 0
M  V30 20 C 2.4251 -1.33716 1.88119 0
M  V30 21 C 3.3951 -1.49066 0.73271 0
M  V30 22 O 4.5801 -1.63469 0.984002 0
M  V30 23 C 1.7201 -2.69238 2.15882 0
M  V30 24 C 0.8331 -2.62108 3.43399 0
M  V30 25 C -0.0319 -3.89811 3.60861 0
M  V30 26 C -0.9929 -3.77193 4.8207 0
M  V30 27 N -1.8559 -4.9673 4.96189 0
M  V30 28 H 2.9841 -1.04962 2.78903 0
M  V30 29 H 0.5211 -0.507088 1.38083 0
M  V30 30 H 2.4791 -3.48089 2.29978 0
M  V30 31 H 1.1091 -2.96194 1.28331 0
M  V30 32 H 0.1611 -1.74967 3.37773 0
M  V30 33 H 1.4731 -2.48685 4.32386 0
M  V30 34 H 0.6271 -4.77103 3.74777 0
M  V30 35 H -0.6339 -4.06102 2.7006 0
M  V30 36 H -1.6289 -2.88284 4.68159 0
M  V30 37 H -0.4039 -3.62421 5.74307 0
M  V30 38 H -2.4579 -5.13431 4.08319 0
M  V30 39 H -2.5409 -4.85839 5.79221 0
M  V30 40 H -1.2729 -5.85594 5.1449 0
M  V30 41 N 2.9562 -1.48159 -0.537278 0
M  V30 42 C 3.9042 -1.62573 -1.66352 0
M  V30 43 C 4.8982 -0.492366 -1.62087 0
M  V30 44 O 6.1042 -0.670847 -1.67032 0
M  V30 45 H 2.4792 -0.511992 -0.550789 0
M  V30 46 H 4.4502 -2.57176 -1.51337 0
M  V30 47 C 3.1992 -1.67583 -3.04649 0
M  V30 48 H 2.5222 -2.54151 -3.08622 0
M  V30 49 H 3.9622 -1.81713 -3.83088 0
M  V30 50 C 2.4212 -0.413039 -3.34358 0
M  V30 51 O 2.9512 0.477259 -3.98855 0
M  V30 52 N 1.1572 -0.286961 -2.8918 0
M  V30 53 H 0.7042 -1.01241 -2.36871 0
M  V30 54 H 0.6622 0.556963 -3.09427 0
M  V30 55 N 4.4343 0.785586 -1.36625 0
M  V30 56 C 5.6643 1.5722 -1.34036 0
M  V30 57 C 6.0723 1.89033 0.0795062 0
M  V30 58 O 5.4153 1.50881 1.04789 0
M  V30 59 C 5.4773 2.91759 -2.10041 0
M  V30 60 C 5.1413 2.82654 -3.59104 0
M  V30 61 C 6.1383 2.54634 -4.53274 0
M  V30 62 C 3.8233 3.01111 -4.02042 0
M  V30 63 C 5.8173 2.45177 -5.88359 0
M  V30 64 C 3.5043 2.91276 -5.37216 0
M  V30 65 C 4.5023 2.63348 -6.30188 0
M  V30 66 O 4.1903 2.53514 -7.6288 0
M  V30 67 H 3.9223 0.494177 -0.461265 0
M  V30 68 H 6.4763 0.982632 -1.8037 0
M  V30 69 H 4.7063 3.52781 -1.58375 0
M  V30 70 H 6.3953 3.53059 -2.00261 0
M  V30 71 H 7.1613 2.40073 -4.21414 0
M  V30 72 H 3.0403 3.21854 -3.30047 0
M  V30 73 H 6.5843 2.23299 -6.60896 0
M  V30 74 H 2.4813 3.054 -5.68684 0
M  V30 75 H 3.2493 2.68967 -7.73045 0
M  V30 76 N 5.9124 1.20967 1.01018 0
M  V30 77 C 6.8424 0.988272 2.11555 0
M  V30 78 C 7.8234 -0.0849778 1.69888 0
M  V30 79 O 9.0084 0.0738202 1.9406 0
M  V30 80 C 6.1384 0.546528 3.42973 0
M  V30 81 C 5.0924 1.56375 3.9841 0
M  V30 82 C 4.4184 0.97842 5.25672 0
M  V30 83 C 5.7184 2.94922 4.31066 0
M  V30 84 H 7.4124 1.91276 2.30334 0
M  V30 85 H 4.9584 0.921073 1.1069 0
M  V30 86 H 6.9114 0.378839 4.19694 0
M  V30 87 H 5.6354 -0.413598 3.23971 0
M  V30 88 H 4.2944 1.71891 3.23804 0
M  V30 89 H 3.9424 0.0101688 5.02999 0
M  V30 90 H 3.6424 1.65784 5.63728 0
M  V30 91 H 5.1664 0.821939 6.05043 0
M  V30 92 H 6.5804 2.8288 4.9865 0
M  V30 93 H 4.9774 3.5983 4.80253 0
M  V30 94 H 6.0474 3.4616 3.39561 0
M  V30 95 N 7.3905 -1.2043 1.01659 0
M  V30 96 C 8.6155 -1.94318 0.724942 0
M  V30 97 C 9.0405 -1.74266 -0.708034 0
M  V30 98 O 8.3985 -1.03694 -1.48719 0
M  V30 99 C 8.4465 -3.44486 1.06591 0
M  V30 100 O 7.5505 -4.12017 0.177599 0
M  V30 101 H 6.8915 -0.60708 0.26898 0
M  V30 102 H 9.4215 -1.52861 1.35995 0
M  V30 103 H 9.4315 -3.95106 1.01762 0
M  V30 104 H 8.1065 -3.58404 2.10997 0
M  V30 105 H 6.6835 -3.71821 0.283421 0
M  V30 106 N 8.8686 -0.792821 -1.36206 0
M  V30 107 C 10.1156 -0.366786 -1.99151 0
M  V30 108 C 10.4436 1.06243 -1.62919 0
M  V30 109 O 9.6986 1.74927 -0.877442 0
M  V30 110 C 9.9976 -0.481501 -3.54142 0
M  V30 111 C 9.6636 -1.87202 -4.10203 0
M  V30 112 C 8.3256 -2.25248 -4.25226 0
M  V30 113 C 10.6776 -2.78237 -4.40719 0
M  V30 114 C 8.0056 -3.53723 -4.68078 0
M  V30 115 C 10.3576 -4.06144 -4.85005 0
M  V30 116 C 9.0216 -4.44207 -4.98234 0
M  V30 117 H 8.2916 -0.134217 -0.728743 0
M  V30 118 H 10.9386 -1.01094 -1.62641 0
M  V30 119 H 9.2436 0.246146 -3.91026 0
M  V30 120 H 10.9406 -0.132844 -4.0078 0
M  V30 121 H 7.5306 -1.56639 -3.98951 0
M  V30 122 H 11.7146 -2.50097 -4.28679 0
M  V30 123 H 6.9706 -3.8308 -4.76508 0
M  V30 124 H 11.1446 -4.76796 -5.07581 0
M  V30 125 H 8.7716 -5.43814 -5.31197 0
M  V30 126 N 10.3467 1.47872 -0.545128 0
M  V30 127 C 11.5947 2.02093 -0.016553 0
M  V30 128 C 11.9157 1.42305 1.3332 0
M  V30 129 O 11.1857 0.593853 1.86682 0
M  V30 130 H 9.7657 0.746993 -0.00313038 0
M  V30 131 H 12.4277 1.81414 -0.712397 0
M  V30 132 H 11.5237 3.11996 0.0805422 0
M  V30 133 N 11.8248 0.280983 1.55075 0
M  V30 134 C 12.7578 -0.645439 2.18882 0
M  V30 135 C 13.7358 -1.14786 1.15165 0
M  V30 136 O 14.9198 -1.21975 1.43716 0
M  V30 137 C 12.0468 -1.88088 2.81674 0
M  V30 138 C 11.0928 -1.51343 3.98745 0
M  V30 139 S 11.9258 -0.586548 5.32278 0
M  V30 140 C 13.0818 -1.83024 5.98543 0
M  V30 141 H 13.3148 -0.1033 2.9712 0
M  V30 142 H 10.8478 0.0652099 1.54262 0
M  V30 143 H 12.8058 -2.58997 3.18482 0
M  V30 144 H 11.4668 -2.39417 2.03318 0
M  V30 145 H 10.6598 -2.43289 4.41392 0
M  V30 146 H 10.2618 -0.884477 3.63391 0
M  V30 147 H 12.5538 -2.77342 6.18133 0
M  V30 148 H 13.4968 -1.44668 6.93164 0
M  V30 149 H 13.9048 -1.99785 5.27964 0
M  V30 150 N 13.3029 -1.57598 0.00835791 0
M  V30 151 C 14.5499 -1.90928 -0.674732 0
M  V30 152 C 14.8779 -0.88277 -1.73313 0
M  V30 153 O 14.1329 0.111294 -1.95383 0
M  V30 154 C 14.4319 -3.3101 -1.34787 0
M  V30 155 C 14.0979 -4.48922 -0.421861 0
M  V30 156 C 12.7599 -4.8091 -0.166927 0
M  V30 157 C 15.1119 -5.20755 0.215211 0
M  V30 158 C 12.4399 -5.821 0.733232 0
M  V30 159 C 14.7919 -6.22905 1.1033 0
M  V30 160 C 13.4559 -6.53346 1.36733 0
M  V30 161 H 12.7259 -0.698656 -0.246902 0
M  V30 162 H 15.3729 -1.91387 0.0656779 0
M  V30 163 H 13.6779 -3.26714 -2.16253 0
M  V30 164 H 15.3749 -3.54061 -1.8826 0
M  V30 165 H 11.9649 -4.23934 -0.630729 0
M  V30 166 H 16.1489 -4.9629 0.0312829 0
M  V30 167 H 11.4049 -6.04042 0.945712 0
M  V30 168 H 15.5789 -6.77694 1.60325 0
M  V30 169 H 13.2059 -7.31573 2.06652 0
M  V30 170 N 14.781 0.264519 -1.55364 0
M  V30 171 C 15.744 1.31046 -1.88042 0
M  V30 172 C 16.744 1.41943 -0.755569 0
M  V30 173 O 17.934 1.40947 -1.02369 0
M  V30 174 C 15.066 2.69067 -2.09323 0
M  V30 175 H 16.259 1.03297 -2.81549 0
M  V30 176 H 13.812 0.502989 -1.47986 0
M  V30 177 H 14.547 3.01982 -1.18226 0
M  V30 178 H 14.332 2.62542 -2.91229 0
M  V30 179 H 15.822 3.44623 -2.35848 0
M  V30 180 N 16.2591 1.48442 0.529413 0
M  V30 181 C 17.1891 1.65902 1.64313 0
M  V30 182 C 18.1701 0.507897 1.6234 0
M  V30 183 O 19.3551 0.740503 1.79528 0
M  V30 184 C 16.4851 1.69911 3.02898 0
M  V30 185 C 15.4391 2.8453 3.19729 0
M  V30 186 C 14.7651 2.73629 4.59381 0
M  V30 187 C 16.0651 4.25821 3.02447 0
M  V30 188 H 17.7591 2.5914 1.49955 0
M  V30 189 H 15.3051 1.24709 0.719982 0
M  V30 190 H 17.2581 1.80715 3.80684 0
M  V30 191 H 15.9821 0.732524 3.18279 0
M  V30 192 H 14.6411 2.73283 2.44361 0
M  V30 193 H 14.2891 1.74938 4.71599 0
M  V30 194 H 13.9891 3.50541 4.71588 0
M  V30 195 H 15.5131 2.86401 5.39265 0
M  V30 196 H 16.9271 4.37898 3.70024 0
M  V30 197 H 15.3241 5.03735 3.26146 0
M  V30 198 H 16.3941 4.42244 1.98867 0
M  V30 199 N 17.7372 -0.778329 1.37039 0
M  V30 200 C 18.6672 -1.90546 1.34962 0
M  V30 201 C 19.6482 -1.68681 0.219274 0
M  V30 202 O 20.8332 -1.89634 0.418624 0
M  V30 203 C 17.9632 -3.27734 1.14925 0
M  V30 204 C 16.9172 -3.64147 2.24902 0
M  V30 205 C 16.2432 -4.99806 1.89996 0
M  V30 206 C 17.5432 -3.71579 3.67051 0
M  V30 207 H 19.2372 -1.92541 2.29277 0
M  V30 208 H 16.7832 -0.924948 1.10366 0
M  V30 209 H 18.7362 -4.06215 1.12104 0
M  V30 210 H 17.4602 -3.26154 0.170631 0
M  V30 211 H 16.1192 -2.8797 2.26868 0
M  V30 212 H 15.7672 -4.94759 0.906796 0
M  V30 213 H 15.4672 -5.25139 2.63634 0
M  V30 214 H 16.9912 -5.80694 1.88749 0
M  V30 215 H 18.4052 -4.40227 3.67251 0
M  V30 216 H 16.8022 -4.08405 4.39688 0
M  V30 217 H 17.8722 -2.72404 4.01154 0
M  V30 218 N 19.2153 -1.21501 -1.00376 0
M  V30 219 C 20.4623 -1.03299 -1.74171 0
M  V30 220 C 20.7903 0.433326 -1.89612 0
M  V30 221 O 20.0453 1.33779 -1.42834 0
M  V30 222 C 20.3443 -1.67673 -3.15627 0
M  V30 223 C 20.0103 -3.17533 -3.2013 0
M  V30 224 C 18.6723 -3.58427 -3.21067 0
M  V30 225 C 21.0243 -4.13504 -3.17275 0
M  V30 226 C 18.3523 -4.93794 -3.16835 0
M  V30 227 C 20.7043 -5.48834 -3.14585 0
M  V30 228 C 19.3683 -5.89123 -3.13831 0
M  V30 229 H 18.6383 -0.377999 -0.637336 0
M  V30 230 H 21.2853 -1.51111 -1.17634 0
M  V30 231 H 19.5903 -1.12158 -3.75404 0
M  V30 232 H 21.2873 -1.51091 -3.71446 0
M  V30 233 H 17.8773 -2.84965 -3.20145 0
M  V30 234 H 22.0613 -3.82936 -3.15711 0
M  V30 235 H 17.3173 -5.24255 -3.1459 0
M  V30 236 H 21.4913 -6.22934 -3.1133 0
M  V30 237 H 19.1183 -6.93984 -3.10307 0
M  V30 238 N 20.6934 1.19889 -1.02296 0
M  V30 239 C 21.6564 2.21116 -0.603351 0
M  V30 240 C 22.6564 1.5738 0.329884 0
M  V30 241 O 23.8464 1.73802 0.117702 0
M  V30 242 C 20.9784 3.40696 0.117992 0
M  V30 243 H 22.1714 2.59754 -1.49893 0
M  V30 244 H 19.7244 1.33463 -0.813468 0
M  V30 245 H 20.4594 3.07569 1.0282 0
M  V30 246 H 20.2444 3.88188 -0.552511 0
M  V30 247 H 21.7344 4.15692 0.398696 0
M  V30 248 N 22.1715 0.800033 1.35784 0
M  V30 249 C 23.1015 0.220184 2.3246 0
M  V30 250 C 24.0825 -0.65073 1.57161 0
M  V30 251 O 25.2675 -0.582359 1.85263 0
M  V30 252 C 22.3975 -0.637353 3.41402 0
M  V30 253 C 21.3515 0.134531 4.27789 0
M  V30 254 C 20.6775 -0.844285 5.27992 0
M  V30 255 C 21.9775 1.32979 5.05088 0
M  V30 256 H 23.6715 1.02787 2.81203 0
M  V30 257 H 21.2175 0.495717 1.35199 0
M  V30 258 H 23.1705 -1.05302 4.08031 0
M  V30 259 H 21.8945 -1.47785 2.91251 0
M  V30 260 H 20.5535 0.531296 3.6273 0
M  V30 261 H 20.2015 -1.68011 4.74111 0
M  V30 262 H 19.9015 -0.332184 5.8666 0
M  V30 263 H 21.4255 -1.2583 5.97494 0
M  V30 264 H 22.8395 0.98934 5.64699 0
M  V30 265 H 21.2365 1.77593 5.7322 0
M  V30 266 H 22.3065 2.11978 4.36111 0
M  V30 267 N 23.6496 -1.47581 0.552962 0
M  V30 268 C 24.8776 -2.06875 0.0320556 0
M  V30 269 C 25.2926 -1.40625 -1.25976 0
M  V30 270 O 24.6496 -0.501349 -1.75479 0
M  V30 271 C 24.7006 -3.61092 -0.17167 0
M  V30 272 O 24.4216 -4.24858 1.06899 0
M  V30 273 C 25.9226 -4.37242 -0.730344 0
M  V30 274 H 23.1426 -0.669561 0.043915 0
M  V30 275 H 25.6866 -1.89646 0.765163 0
M  V30 276 H 23.8416 -3.7785 -0.854894 0
M  V30 277 H 24.2556 -5.17334 0.864059 0
M  V30 278 H 25.7296 -5.45842 -0.822203 0
M  V30 279 H 26.2066 -4.03235 -1.74064 0
M  V30 280 H 26.8126 -4.25219 -0.0829543 0
M  V30 281 N 25.1277 -0.289203 -1.54924 0
M  V30 282 C 26.3747 0.323519 -1.99899 0
M  V30 283 C 26.7027 1.54797 -1.17762 0
M  V30 284 O 25.9577 1.94237 -0.238835 0
M  V30 285 C 26.2567 0.736119 -3.49737 0
M  V30 286 C 25.9227 -0.385276 -4.49251 0
M  V30 287 C 24.5847 -0.693156 -4.76181 0
M  V30 288 C 26.9367 -1.14021 -5.08575 0
M  V30 289 C 24.2647 -1.7593 -5.59701 0
M  V30 290 C 26.6167 -2.19619 -5.93254 0
M  V30 291 C 25.2807 -2.51026 -6.185 0
M  V30 292 H 24.5507 0.118384 -0.731482 0
M  V30 293 H 27.1977 -0.405847 -1.8715 0
M  V30 294 H 25.5027 1.54539 -3.60035 0
M  V30 295 H 27.1997 1.22118 -3.81953 0
M  V30 296 H 23.7897 -0.135202 -4.28387 0
M  V30 297 H 27.9737 -0.915611 -4.87781 0
M  V30 298 H 23.2297 -2.0075 -5.77503 0
M  V30 299 H 27.4037 -2.78581 -6.38252 0
M  V30 300 H 25.0307 -3.33772 -6.83008 0
M  V30 301 N 26.6058 1.57591 -0.0167156 0
M  V30 302 C 27.8538 1.90906 0.663285 0
M  V30 303 C 28.1748 0.892509 1.73376 0
M  V30 304 O 27.4448 -0.0677623 1.95783 0
M  V30 305 H 26.0248 0.704637 0.247983 0
M  V30 306 H 28.6868 1.94803 -0.0615909 0
M  V30 307 H 27.7828 2.9116 1.12393 0
M  V30 308 N 28.0839 -0.256276 1.55502 0
M  V30 309 C 29.3119 -1.00342 1.8094 0
M  V30 310 C 29.7269 -1.79307 0.59114 0
M  V30 311 O 29.0839 -1.77114 -0.440081 0
M  V30 312 C 29.1349 -1.94875 3.04476 0
M  V30 313 O 28.8559 -1.19107 4.21598 0
M  V30 314 C 30.3569 -2.81266 3.42644 0
M  V30 315 H 27.5769 -0.295685 0.602338 0
M  V30 316 H 30.1209 -0.281998 2.02546 0
M  V30 317 H 28.2759 -2.62457 2.84947 0
M  V30 318 H 28.6899 -1.82969 4.91551 0
M  V30 319 H 30.1639 -3.43362 4.32211 0
M  V30 320 H 30.6409 -3.51897 2.62802 0
M  V30 321 H 31.2469 -2.1915 3.64491 0
M  V30 322 N 29.562 -1.4872 -0.521534 0
M  V30 323 C 30.808 -1.574 -1.27879 0
M  V30 324 C 31.141 -0.250817 -1.92573 0
M  V30 325 O 30.416 0.743934 -1.79711 0
M  V30 326 C 30.699 -2.71843 -2.36164 0
M  V30 327 C 30.552 -4.13893 -1.76105 0
M  V30 328 C 31.871 -2.82008 -3.37875 0
M  V30 329 H 28.99 -0.572941 -0.463581 0
M  V30 330 H 31.632 -1.80927 -0.580119 0
M  V30 331 H 29.782 -2.51914 -2.95756 0
M  V30 332 H 31.454 -4.45284 -1.20499 0
M  V30 333 H 29.697 -4.20498 -1.06601 0
M  V30 334 H 30.368 -4.89804 -2.5455 0
M  V30 335 H 32.844 -3.00086 -2.88249 0
M  V30 336 H 31.72 -3.63796 -4.11028 0
M  V30 337 H 31.981 -1.90511 -3.98946 0
M  V30 338 N 31.0401 0.771051 -1.3745 0
M  V30 339 C 31.9881 1.90574 -1.33358 0
M  V30 340 C 32.9821 1.67936 -0.22224 0
M  V30 341 O 34.1881 1.75717 -0.390304 0
M  V30 342 H 30.5631 0.626714 -0.415612 0
M  V30 343 H 32.5341 1.91142 -2.29144 0
M  V30 344 C 31.2831 3.27845 -1.15813 0
M  V30 345 H 30.6061 3.45842 -2.00583 0
M  V30 346 H 32.0461 4.07538 -1.17 0
M  V30 347 C 30.5051 3.36625 0.136165 0
M  V30 348 O 31.0351 3.85785 1.11949 0
M  V30 349 N 29.2411 2.89997 0.187099 0
M  V30 350 H 28.7881 2.50182 -0.613753 0
M  V30 351 H 28.7461 2.96252 1.05272 0
M  V30 352 N 32.5182 1.22032 0.997298 0
M  V30 353 C 33.7432 1.06921 1.77715 0
M  V30 354 C 34.1682 -0.376226 1.84299 0
M  V30 355 O 33.5262 -1.27165 1.29223 0
M  V30 356 C 33.5742 1.67996 3.19076 0
M  V30 357 O 32.6782 0.930653 4.01762 0
M  V30 358 H 32.0192 0.375814 0.547412 0
M  V30 359 H 34.5492 1.61737 1.25309 0
M  V30 360 H 34.5592 1.72538 3.69723 0
M  V30 361 H 33.2342 2.73182 3.13599 0
M  V30 362 H 31.8112 0.960917 3.60307 0
M  V30 363 N 33.9963 -1.19345 1.0293 0
M  V30 364 C 35.2423 -1.89318 0.727083 0
M  V30 365 C 35.5753 -1.79446 -0.742483 0
M  V30 366 O 34.8503 -1.1871 -1.54072 0
M  V30 367 C 35.1333 -3.40238 1.17942 0
M  V30 368 C 34.9863 -3.58979 2.71024 0
M  V30 369 C 36.3053 -4.33479 0.760548 0
M  V30 370 H 33.4243 -0.687475 0.265606 0
M  V30 371 H 36.0663 -1.40477 1.2793 0
M  V30 372 H 34.2163 -3.81964 0.709608 0
M  V30 373 H 35.8883 -3.26421 3.25955 0
M  V30 374 H 34.1313 -3.02018 3.11396 0
M  V30 375 H 34.8023 -4.64823 2.9773 0
M  V30 376 H 37.2783 -3.99469 1.16464 0
M  V30 377 H 36.1543 -5.37664 1.10493 0
M  V30 378 H 36.4153 -4.40813 -0.337063 0
M  V30 379 N 35.4744 -0.807222 -1.35358 0
M  V30 380 C 36.4064 -0.175717 -2.28525 0
M  V30 381 C 37.4194 0.625354 -1.5031 0
M  V30 382 O 38.6084 0.457611 -1.72535 0
M  V30 383 C 35.7084 0.773471 -3.29956 0
M  V30 384 C 34.8814 0.0186296 -4.37396 0
M  V30 385 C 33.9404 0.886395 -5.18681 0
M  V30 386 O 32.9664 0.337106 -5.68201 0
M  V30 387 N 34.1684 2.20839 -5.36852 0
M  V30 388 H 36.9334 -0.976091 -2.83359 0
M  V30 389 H 34.4944 -0.662737 -1.47714 0
M  V30 390 H 36.4864 1.35824 -3.81227 0
M  V30 391 H 35.0564 1.47465 -2.75632 0
M  V30 392 H 34.2764 -0.747349 -3.87051 0
M  V30 393 H 35.5644 -0.501577 -5.06322 0
M  V30 394 H 34.9624 2.67858 -4.98265 0
M  V30 395 H 33.5194 2.74237 -5.91301 0
M  V30 396 N 36.9525 1.47285 -0.560781 0
M  V30 397 C 37.9155 2.28535 0.174488 0
M  V30 398 C 38.9155 1.37153 0.839388 0
M  V30 399 O 40.1055 1.59748 0.694702 0
M  V30 400 C 37.2375 3.16934 1.25561 0
M  V30 401 H 38.4305 2.95012 -0.539262 0
M  V30 402 H 35.9835 1.53034 -0.317865 0
M  V30 403 H 36.7185 2.55157 2.00164 0
M  V30 404 H 36.5035 3.8419 0.783604 0
M  V30 405 H 37.9935 3.78143 1.77193 0
M  V30 406 N 38.4306 0.297415 1.54768 0
M  V30 407 C 39.6796 -0.313669 1.99246 0
M  V30 408 C 39.9926 -1.55281 1.18942 0
M  V30 409 O 41.1986 -2.23825 1.5367 0
M  V30 410 C 39.6546 -0.609407 3.54703 0
M  V30 411 C 39.2626 0.611192 4.43811 0
M  V30 412 C 41.0066 -1.18188 4.07715 0
M  V30 413 C 38.9136 0.288805 5.90694 0
M  V30 414 H 37.8436 -0.120979 0.744231 0
M  V30 415 H 40.4946 0.40556 1.78962 0
M  V30 416 H 38.8766 -1.38813 3.70873 0
M  V30 417 H 40.0506 1.3875 4.39414 0
M  V30 418 H 38.3656 1.10205 4.01552 0
M  V30 419 H 40.9626 -1.43727 5.15021 0
M  V30 420 H 41.3056 -2.12299 3.58099 0
M  V30 421 H 41.8386 -0.464944 3.95074 0
M  V30 422 H 38.5776 1.19838 6.44453 0
M  V30 423 H 38.0976 -0.450305 5.98107 0
M  V30 424 H 39.7766 -0.110933 6.46905 0
M  V30 425 N 39.9087 -1.5758 0.0250728 0
M  V30 426 C 40.8717 -2.08896 -0.943139 0
M  V30 427 C 41.8717 -1.00321 -1.25668 0
M  V30 428 O 43.0617 -1.26495 -1.19769 0
M  V30 429 C 40.1937 -2.55143 -2.26086 0
M  V30 430 H 41.3867 -2.95723 -0.498775 0
M  V30 431 H 38.9397 -1.54703 -0.222888 0
M  V30 432 H 39.6747 -1.71633 -2.75159 0
M  V30 433 H 39.4597 -3.34461 -2.04641 0
M  V30 434 H 40.9497 -2.95083 -2.95492 0
M  V30 435 N 41.3868 0.248026 -1.55636 0
M  V30 436 C 42.6348 0.974295 -1.77065 0
M  V30 437 C 42.9558 1.85897 -0.588849 0
M  V30 438 O 42.2258 1.91868 0.395407 0
M  V30 439 H 40.8058 0.362733 -0.653019 0
M  V30 440 H 43.4678 0.266244 -1.93073 0
M  V30 441 H 42.5638 1.59667 -2.68166 0
M  V30 442 N 42.8649 1.48995 0.513639 0
M  V30 443 C 44.2759 1.5119 1.09537 0
M  V30 444 C 44.6269 0.290906 1.94031 0
M  V30 445 O 43.7519 -0.60049 2.07902 0
M  V30 446 C 44.3469 2.73964 1.99322 0
M  V30 447 C 42.9059 2.78978 2.52682 0
M  V30 448 C 42.0529 2.44934 1.30009 0
M  V30 449 H 45.0039 1.55875 0.298125 0
M  V30 450 H 45.0249 2.53409 2.83838 0
M  V30 451 H 44.5369 3.62813 1.37799 0
M  V30 452 H 42.6379 1.94378 3.1788 0
M  V30 453 H 42.7509 3.8083 2.90698 0
M  V30 454 H 41.1149 1.9644 1.62122 0
M  V30 455 H 41.8979 3.36043 0.702131 0
M  V30 456 N 44.343 -0.763751 1.37857 0
M  V30 457 C 45.253 -1.90817 1.36478 0
M  V30 458 C 46.269 -1.71997 0.263248 0
M  V30 459 O 47.445 -1.95095 0.499979 0
M  V30 460 C 44.51 -3.2605 1.17864 0
M  V30 461 C 43.571 -3.57467 2.3773 0
M  V30 462 C 42.804 -4.86249 2.19995 0
M  V30 463 O 43.027 -5.57884 1.18836 0
M  V30 464 O 41.961 -5.16911 3.08361 0
M  V30 465 H 45.787 -1.94933 2.32884 0
M  V30 466 H 43.372 -0.907619 1.1867 0
M  V30 467 H 45.254 -4.06924 1.09504 0
M  V30 468 H 43.929 -3.22769 0.245372 0
M  V30 469 H 42.836 -2.76796 2.51664 0
M  V30 470 H 44.169 -3.655 3.29652 0
M  V30 471 N 45.8211 -1.22559 -0.990812 0
M  V30 472 C 47.0671 -1.06303 -1.73411 0
M  V30 473 C 47.4221 0.397442 -1.8825 0
M  V30 474 O 46.7151 1.29062 -1.41611 0
M  V30 475 C 46.9091 -1.71011 -3.13831 0
M  V30 476 C 46.7381 -3.232 -3.12685 0
M  V30 477 C 45.5081 -3.92314 -3.18461 0
M  V30 478 C 47.7061 -4.20107 -2.96673 0
M  V30 479 N 45.6881 -5.31571 -3.07091 0
M  V30 480 C 47.0591 -5.46208 -2.93354 0
M  V30 481 C 49.1141 -4.10973 -2.8108 0
M  V30 482 C 47.8171 -6.64225 -2.76039 0
M  V30 483 C 49.8431 -5.28642 -2.65126 0
M  V30 484 C 49.2051 -6.53663 -2.62496 0
M  V30 485 H 45.3041 -0.443441 -0.644115 0
M  V30 486 H 47.8881 -1.55131 -1.17654 0
M  V30 487 H 46.0591 -1.2473 -3.67827 0
M  V30 488 H 47.7911 -1.47828 -3.76735 0
M  V30 489 H 44.5461 -3.43326 -3.26227 0
M  V30 490 H 44.9701 -6.0455 -3.0471 0
M  V30 491 H 49.6121 -3.15098 -2.8191 0
M  V30 492 H 47.3301 -7.60246 -2.73954 0
M  V30 493 H 50.9161 -5.23407 -2.54039 0
M  V30 494 H 49.7961 -7.43182 -2.50302 0
M  V30 495 N 47.2992 1.18797 -1.03562 0
M  V30 496 C 48.2292 2.24472 -0.643019 0
M  V30 497 C 49.2102 1.66433 0.351283 0
M  V30 498 O 50.3952 1.92803 0.232505 0
M  V30 499 C 47.5252 3.473 4.24935e-05 0
M  V30 500 C 46.4792 4.18055 -0.917257 0
M  V30 501 C 45.8052 5.34519 -0.138941 0
M  V30 502 C 47.1052 4.72109 -2.23407 0
M  V30 503 H 48.7992 2.57566 -1.52643 0
M  V30 504 H 46.3452 1.23806 -0.735394 0
M  V30 505 H 48.2982 4.20426 0.286383 0
M  V30 506 H 47.0222 3.13424 0.918299 0
M  V30 507 H 45.6812 3.46821 -1.1879 0
M  V30 508 H 45.3292 4.96891 0.781562 0
M  V30 509 H 45.0292 5.82794 -0.750005 0
M  V30 510 H 46.5532 6.10438 0.1405 0
M  V30 511 H 47.9672 5.36955 -2.00879 0
M  V30 512 H 46.3642 5.30897 -2.79765 0
M  V30 513 H 47.4342 3.89807 -2.88407 0
M  V30 514 N 48.7773 0.814389 1.34928 0
M  V30 515 C 49.7073 0.244827 2.32213 0
M  V30 516 C 50.6883 -0.634024 1.57842 0
M  V30 517 O 51.8733 -0.562676 1.8587 0
M  V30 518 C 49.0033 -0.601106 3.42058 0
M  V30 519 C 47.9573 0.179896 4.27622 0
M  V30 520 C 47.2833 -0.788237 5.28858 0
M  V30 521 C 48.5833 1.38329 5.03649 0
M  V30 522 H 50.2773 1.05763 2.80097 0
M  V30 523 H 47.8233 0.510029 1.34665 0
M  V30 524 H 49.7763 -1.00968 4.09125 0
M  V30 525 H 48.5003 -1.44688 2.92802 0
M  V30 526 H 47.1593 0.569739 3.62146 0
M  V30 527 H 46.8073 -1.62973 4.75866 0
M  V30 528 H 46.5073 -0.269942 5.8698 0
M  V30 529 H 48.0313 -1.19485 5.98795 0
M  V30 530 H 49.4453 1.04918 5.63618 0
M  V30 531 H 47.8423 1.83662 5.71304 0
M  V30 532 H 48.9123 2.16592 4.33839 0
M  V30 533 N 50.2554 -1.46986 0.568584 0
M  V30 534 C 51.5324 -1.95592 -0.0174074 0
M  V30 535 C 51.9124 -1.51124 -1.47393 0
M  V30 536 O 51.2604 -0.755329 -2.15655 0
M  V30 537 C 51.4704 -3.48719 0.139913 0
M  V30 538 C 52.8184 -4.246 0.000426376 0
M  V30 539 O 53.8424 -3.56135 0.0680316 0
M  V30 540 O 52.7014 -5.46302 -0.146988 0
M  V30 541 H 49.7954 -0.82498 -0.0577599 0
M  V30 542 H 52.3414 -1.57335 0.635909 0
M  V30 543 H 51.1134 -3.73927 1.15301 0
M  V30 544 H 50.7364 -3.93771 -0.550491 0
M  V30 545 N 51.7335 -0.305618 -1.54608 0
M  V30 546 C 53.1495 0.0476228 -1.59529 0
M  V30 547 C 53.3495 1.52025 -1.32252 0
M  V30 548 O 52.4055 2.27368 -1.09818 0
M  V30 549 C 53.7185 -0.354471 -2.98603 0
M  V30 550 C 55.2665 -0.303622 -3.11524 0
M  V30 551 C 55.7415 -0.680608 -4.52915 0
M  V30 552 N 57.2325 -0.63332 -4.5885 0
M  V30 553 C 57.9675 -0.897432 -5.66334 0
M  V30 554 N 57.4635 -1.22775 -6.81834 0
M  V30 555 N 59.2565 -0.824186 -5.56025 0
M  V30 556 H 51.4075 -1.2653 -1.70599 0
M  V30 557 H 53.6705 -0.513291 -0.797017 0
M  V30 558 H 53.3765 -1.3798 -3.23503 0
M  V30 559 H 53.2505 0.289568 -3.76087 0
M  V30 560 H 55.6375 0.712472 -2.8637 0
M  V30 561 H 55.7185 -0.982348 -2.36185 0
M  V30 562 H 55.3625 -1.69453 -4.78799 0
M  V30 563 H 55.2925 0.0202385 -5.26596 0
M  V30 564 H 57.7835 -0.389138 -3.75891 0
M  V30 565 H 58.0965 -1.41513 -7.59733 0
M  V30 566 H 56.4415 -1.26583 -6.83375 0
M  V30 567 H 59.6325 -0.565748 -4.64669 0
M  V30 568 H 59.8055 -1.03338 -6.39707 0
M  V30 569 N 53.2116 1.57565 -0.0334293 0
M  V30 570 C 54.6226 1.79746 0.504798 0
M  V30 571 C 54.9736 0.944091 1.71992 0
M  V30 572 O 54.0986 0.155694 2.15839 0
M  V30 573 C 54.6936 3.25997 0.922567 0
M  V30 574 C 53.2526 3.49159 1.40588 0
M  V30 575 C 52.3996 2.74785 0.372633 0
M  V30 576 H 55.3506 1.56565 -0.259436 0
M  V30 577 H 55.3716 3.35945 1.78666 0
M  V30 578 H 54.8836 3.88081 0.0379825 0
M  V30 579 H 52.9846 2.92332 2.31025 0
M  V30 580 H 53.0976 4.57873 1.41028 0
M  V30 581 H 51.4616 2.40391 0.841672 0
M  V30 582 H 52.2446 3.39587 -0.503559 0
M  V30 583 N 54.6897 -0.239769 1.55765 0
M  V30 584 C 55.9147 -0.988373 1.82335 0
M  V30 585 C 56.3397 -1.77886 0.611421 0
M  V30 586 O 55.6977 -1.75889 -0.439639 0
M  V30 587 C 55.7457 -1.89627 3.06715 0
M  V30 588 O 54.8497 -2.98904 2.84131 0
M  V30 589 H 54.1907 -0.280858 0.601677 0
M  V30 590 H 56.7207 -0.258597 2.02959 0
M  V30 591 H 56.7307 -2.30957 3.36338 0
M  V30 592 H 55.4057 -1.31511 3.9456 0
M  V30 593 H 53.9827 -2.61651 2.65694 0
M  V30 594 N 56.1678 -1.49265 -0.50573 0
M  V30 595 C 57.4138 -1.58748 -1.26202 0
M  V30 596 C 57.7468 -0.271227 -1.92297 0
M  V30 597 O 57.0218 0.724831 -1.80489 0
M  V30 598 C 57.3048 -2.74332 -2.33268 0
M  V30 599 C 57.1578 -4.15737 -1.71705 0
M  V30 600 C 58.4768 -2.85576 -3.34865 0
M  V30 601 H 55.5958 -0.577826 -0.457478 0
M  V30 602 H 58.2378 -1.81532 -0.560897 0
M  V30 603 H 56.3878 -2.55036 -2.93068 0
M  V30 604 H 58.0598 -4.46537 -1.15769 0
M  V30 605 H 56.3028 -4.21605 -1.02135 0
M  V30 606 H 56.9738 -4.92477 -2.49341 0
M  V30 607 H 59.4498 -3.03127 -2.8505 0
M  V30 608 H 58.3258 -3.68135 -4.07146 0
M  V30 609 H 58.5868 -1.94732 -3.96903 0
M  V30 610 N 57.6459 0.756429 -1.3826 0
M  V30 611 C 58.5939 1.89149 -1.35372 0
M  V30 612 C 59.5879 1.67691 -0.24004 0
M  V30 613 O 60.7939 1.75294 -0.408919 0
M  V30 614 H 57.1689 0.622271 -0.422236 0
M  V30 615 H 59.1399 1.88701 -2.31159 0
M  V30 616 C 57.8889 3.26599 -1.19284 0
M  V30 617 H 57.2119 3.43695 -2.0424 0
M  V30 618 H 58.6519 4.06274 -1.21316 0
M  V30 619 C 57.1109 3.3675 0.100454 0
M  V30 620 O 57.6409 3.86951 1.07851 0
M  V30 621 N 55.8469 2.90179 0.15633 0
M  V30 622 H 55.3939 2.49517 -0.640253 0
M  V30 623 H 55.3519 2.97352 1.02123 0
M  V30 624 N 59.124 1.23083 0.984299 0
M  V30 625 C 60.072 1.00593 2.09723 0
M  V30 626 C 61.066 -0.0538014 1.69315 0
M  V30 627 O 62.272 0.0993719 1.79725 0
M  V30 628 H 58.647 0.30817 0.685956 0
M  V30 629 H 60.618 1.95012 2.2586 0
M  V30 630 C 59.367 0.609601 3.42314 0
M  V30 631 H 58.69 1.41675 3.73856 0
M  V30 632 H 60.13 0.491726 4.21139 0
M  V30 633 C 58.589 -0.681745 3.2993 0
M  V30 634 O 59.119 -1.73192 3.62446 0
M  V30 635 N 57.325 -0.656178 2.83095 0
M  V30 636 H 56.872 0.198759 2.56832 0
M  V30 637 H 56.83 -1.52044 2.75191 0
M  V30 638 N 60.6021 -1.18246 1.0419 0
M  V30 639 C 61.8271 -1.92736 0.765996 0
M  V30 640 C 62.2521 -1.75728 -0.67091 0
M  V30 641 O 61.6101 -1.06825 -1.46486 0
M  V30 642 C 61.6581 -3.42148 1.13875 0
M  V30 643 O 60.7621 -4.11548 0.264954 0
M  V30 644 H 60.1031 -0.601238 0.281797 0
M  V30 645 H 62.6331 -1.49942 1.39207 0
M  V30 646 H 62.6431 -3.92858 1.1012 0
M  V30 647 H 61.3181 -3.53848 2.18551 0
M  V30 648 H 59.8951 -3.71137 0.362226 0
M  V30 649 N 62.0802 -0.821533 -1.34494 0
M  V30 650 C 63.0122 -0.199946 -2.28326 0
M  V30 651 C 64.0252 0.609377 -1.50965 0
M  V30 652 O 65.2142 0.439285 -1.7301 0
M  V30 653 C 62.3142 0.738431 -3.30757 0
M  V30 654 C 61.4872 -0.0277632 -4.37391 0
M  V30 655 C 60.5462 0.831332 -5.19591 0
M  V30 656 O 59.5722 0.276822 -5.68526 0
M  V30 657 N 60.7742 2.15132 -5.39165 0
M  V30 658 H 63.5392 -1.00609 -2.82308 0
M  V30 659 H 61.1002 -0.678366 -1.47003 0
M  V30 660 H 63.0922 1.31773 -3.82646 0
M  V30 661 H 61.6622 1.44533 -2.7718 0
M  V30 662 H 60.8822 -0.788359 -3.86236 0
M  V30 663 H 62.1702 -0.555251 -5.05761 0
M  V30 664 H 61.5682 2.62559 -5.01078 0
M  V30 665 H 60.1252 2.6795 -5.94177 0
M  V30 666 N 63.5583 1.46682 -0.576371 0
M  V30 667 C 64.4883 2.33028 0.148397 0
M  V30 668 C 65.4693 1.44961 0.889956 0
M  V30 669 O 66.6543 1.73789 0.866662 0
M  V30 670 C 63.7843 3.27117 1.1667 0
M  V30 671 C 62.7383 4.24575 0.540386 0
M  V30 672 C 62.0643 5.08126 1.6647 0
M  V30 673 C 63.3643 5.19722 -0.518331 0
M  V30 674 H 65.0583 2.93875 -0.572509 0
M  V30 675 H 62.6043 1.41315 -0.276768 0
M  V30 676 H 64.5573 3.86374 1.68204 0
M  V30 677 H 63.2813 2.64364 1.9178 0
M  V30 678 H 61.9403 3.66571 0.0461769 0
M  V30 679 H 61.5883 4.41762 2.40531 0
M  V30 680 H 61.2883 5.74122 1.25131 0
M  V30 681 H 62.8123 5.70246 2.18293 0
M  V30 682 H 64.2263 5.73232 -0.0883058 0
M  V30 683 H 62.6233 5.94026 -0.851679 0
M  V30 684 H 63.6933 4.64037 -1.40703 0
M  V30 685 N 65.0364 0.313813 1.54444 0
M  V30 686 C 66.2824 -0.292108 2.00685 0
M  V30 687 C 66.6154 -1.52548 1.20177 0
M  V30 688 O 65.8904 -1.92452 0.281531 0
M  V30 689 C 66.1734 -0.635968 3.5444 0
M  V30 690 C 66.0264 0.607437 4.4568 0
M  V30 691 C 67.3454 -1.45747 4.15266 0
M  V30 692 H 64.4644 -0.104697 0.729526 0
M  V30 693 H 67.1064 0.428457 1.85106 0
M  V30 694 H 65.2564 -1.24986 3.67846 0
M  V30 695 H 66.9284 1.24581 4.44159 0
M  V30 696 H 65.1714 1.23822 4.15753 0
M  V30 697 H 65.8424 0.322515 5.51057 0
M  V30 698 H 68.3184 -0.938645 4.05375 0
M  V30 699 H 67.1944 -1.66683 5.2298 0
M  V30 700 H 67.4554 -2.45063 3.67963 0
M  V30 701 N 66.5145 -1.57545 0.0417849 0
M  V30 702 C 67.7605 -1.92601 -0.635021 0
M  V30 703 C 68.0935 -0.919627 -1.71045 0
M  V30 704 O 67.3685 0.0557892 -1.9442 0
M  V30 705 C 67.6515 -3.38085 -1.23979 0
M  V30 706 C 67.5045 -4.49467 -0.173057 0
M  V30 707 C 68.8235 -3.83776 -2.15416 0
M  V30 708 H 65.9425 -0.700397 -0.229374 0
M  V30 709 H 68.5845 -1.89728 0.101633 0
M  V30 710 H 66.7345 -3.40664 -1.86762 0
M  V30 711 H 68.4065 -4.59018 0.458312 0
M  V30 712 H 66.6495 -4.30909 0.499996 0
M  V30 713 H 67.3205 -5.48323 -0.636054 0
M  V30 714 H 69.7965 -3.83013 -1.62605 0
M  V30 715 H 68.6725 -4.8624 -2.54679 0
M  V30 716 H 68.9335 -3.19998 -3.05047 0
M  V30 717 N 67.9926 0.231505 -1.5589 0
M  V30 718 C 69.2176 0.978689 -1.82856 0
M  V30 719 C 69.6426 1.77559 -0.620846 0
M  V30 720 O 69.0006 1.76119 0.430305 0
M  V30 721 C 69.0486 1.87997 -3.07716 0
M  V30 722 O 68.1526 2.97393 -2.85712 0
M  V30 723 H 67.4936 0.277663 -0.603158 0
M  V30 724 H 70.0236 0.24783 -2.03093 0
M  V30 725 H 70.0336 2.2917 -3.37558 0
M  V30 726 H 68.7086 1.29417 -3.95252 0
M  V30 727 H 67.2856 2.60238 -2.67078 0
M  V30 728 N 69.4707 1.49531 0.497807 0
M  V30 729 C 70.7167 1.59415 1.25358 0
M  V30 730 C 71.0497 0.281422 1.9215 0
M  V30 731 O 70.3247 -0.715249 1.80871 0
M  V30 732 C 70.6077 2.75566 2.3181 0
M  V30 733 C 70.4607 4.16642 1.69498 0
M  V30 734 C 71.7797 2.87347 3.33346 0
M  V30 735 H 68.8987 0.580244 0.454408 0
M  V30 736 H 71.5407 1.81827 0.551262 0
M  V30 737 H 69.6907 2.56587 2.91711 0
M  V30 738 H 71.3627 4.47145 1.13399 0
M  V30 739 H 69.6057 4.22141 0.998978 0
M  V30 740 H 70.2767 4.93792 2.46725 0
M  V30 741 H 72.7527 3.04634 2.83438 0
M  V30 742 H 71.6287 3.70289 4.05188 0
M  V30 743 H 71.8897 1.96834 3.95865 0
M  V30 744 N 70.9488 -0.749086 1.3866 0
M  V30 745 C 71.9118 -1.84457 1.36045 0
M  V30 746 C 72.9118 -1.58682 0.260122 0
M  V30 747 O 74.1018 -1.66343 0.517261 0
M  V30 748 C 71.2338 -3.22008 1.11911 0
M  V30 749 H 72.4268 -1.88182 2.33512 0
M  V30 750 H 69.9798 -0.951266 1.24019 0
M  V30 751 H 70.7148 -3.2395 0.150686 0
M  V30 752 H 70.4998 -3.42111 1.91579 0
M  V30 753 H 71.9898 -4.0208 1.12788 0
M  V30 754 N 72.4269 -1.23603 -0.977757 0
M  V30 755 C 73.6749 -1.06759 -1.71601 0
M  V30 756 C 73.9959 0.395929 -1.90938 0
M  V30 757 O 73.2659 1.28356 -1.47992 0
M  V30 758 H 71.8459 -0.392062 -0.635843 0
M  V30 759 H 74.5079 -1.55362 -1.1768 0
M  V30 760 H 73.6039 -1.55763 -2.70452 0
M  V30 761 N 73.905 1.17692 -1.04816 0
M  V30 762 C 75.133 1.91786 -0.776254 0
M  V30 763 C 75.548 1.76604 0.667577 0
M  V30 764 O 74.905 1.10067 1.45573 0
M  V30 765 C 74.956 3.42967 -1.14263 0
M  V30 766 O 74.677 3.57678 -2.52978 0
M  V30 767 C 76.178 4.34144 -0.896311 0
M  V30 768 H 73.398 0.608624 -0.282519 0
M  V30 769 H 75.942 1.49268 -1.39783 0
M  V30 770 H 74.097 3.83245 -0.565874 0
M  V30 771 H 74.511 4.51319 -2.67229 0
M  V30 772 H 75.985 5.38744 -1.20244 0
M  V30 773 H 76.462 4.38876 0.168636 0
M  V30 774 H 77.068 3.99574 -1.45672 0
M  V30 775 N 75.3831 0.828654 1.34056 0
M  V30 776 C 76.6291 0.42008 1.98402 0
M  V30 777 C 76.9621 -1.01564 1.65525 0
M  V30 778 O 76.2371 -1.70834 0.929831 0
M  V30 779 C 76.5201 0.62927 3.54559 0
M  V30 780 C 76.3731 2.11152 3.97159 0
M  V30 781 C 77.6921 0.0688756 4.40046 0
M  V30 782 H 74.8111 0.154104 0.720709 0
M  V30 783 H 77.4531 1.04228 1.5886 0
M  V30 784 H 75.6031 0.0996418 3.88372 0
M  V30 785 H 77.2751 2.70522 3.73651 0
M  V30 786 H 75.5181 2.59985 3.47261 0
M  V30 787 H 76.1891 2.20868 5.05887 0
M  V30 788 H 78.6651 0.521458 4.1282 0
M  V30 789 H 77.5411 0.245006 5.48353 0
M  V30 790 H 77.8021 -1.0266 4.30015 0
M  V30 791 N 76.8612 -1.46375 0.584142 0
M  V30 792 C 77.7712 -2.34115 -0.150728 0
M  V30 793 C 78.7872 -1.49838 -0.884567 0
M  V30 794 O 79.9632 -1.82704 -0.847429 0
M  V30 795 C 77.0282 -3.2705 -1.15062 0
M  V30 796 C 76.0892 -4.27228 -0.421293 0
M  V30 797 C 75.3222 -5.15722 -1.37355 0
M  V30 798 O 75.5452 -5.07176 -2.61014 0
M  V30 799 O 74.4792 -5.95383 -0.883355 0
M  V30 800 H 78.3052 -2.98309 0.569708 0
M  V30 801 H 75.8902 -1.45373 0.344535 0
M  V30 802 H 77.7722 -3.84381 -1.72712 0
M  V30 803 H 76.4472 -2.65451 -1.8525 0
M  V30 804 H 75.3542 -3.7358 0.197085 0
M  V30 805 H 76.6872 -4.91616 0.239641 0
M  V30 806 N 78.3393 -0.321999 -1.54275 0
M  V30 807 C 79.5873 0.280489 -2.00144 0
M  V30 808 C 79.9083 1.52777 -1.21178 0
M  V30 809 O 79.1783 1.9338 -0.313187 0
M  V30 810 H 77.7583 0.106632 -0.73935 0
M  V30 811 H 80.4203 -0.438184 -1.8991 0
M  V30 812 H 79.5163 0.537972 -3.07428 0
M  V30 813 N 79.8174 1.5752 -0.0501392 0
M  V30 814 C 81.0454 1.96963 0.633492 0
M  V30 815 C 81.4604 0.927631 1.6444 0
M  V30 816 O 80.8174 -0.0882665 1.82286 0
M  V30 817 C 80.8684 3.36487 1.32132 0
M  V30 818 O 80.5894 4.36693 0.350894 0
M  V30 819 C 82.0904 3.90682 2.09481 0
M  V30 820 H 79.3104 0.648244 0.173266 0
M  V30 821 H 81.8544 2.0417 -0.116134 0
M  V30 822 H 80.0094 3.30434 2.02218 0
M  V30 823 H 80.4234 5.17702 0.841735 0
M  V30 824 H 81.8974 4.90591 2.5303 0
M  V30 825 H 82.3744 3.26053 2.94255 0
M  V30 826 H 82.9804 4.00069 1.44307 0
M  V30 827 N 81.2955 -0.223234 1.56011 0
M  V30 828 C 82.2435 -1.29627 1.93131 0
M  V30 829 C 83.2375 -1.48608 0.813146 0
M  V30 830 O 84.4435 -1.49802 0.997966 0
M  V30 831 H 80.8185 -0.434563 0.613726 0
M  V30 832 H 82.7895 -0.955995 2.82672 0
M  V30 833 C 81.5385 -2.63983 2.26292 0
M  V30 834 H 80.8615 -2.50185 3.11846 0
M  V30 835 H 82.3015 -3.3788 2.56151 0
M  V30 836 C 80.7605 -3.18866 1.08747 0
M  V30 837 O 81.2905 -4.00192 0.347727 0
M  V30 838 N 79.4965 -2.77217 0.871743 0
M  V30 839 H 79.0435 -2.1119 1.47501 0
M  V30 840 H 79.0015 -3.1428 0.0869905 0
M  V30 841 N 82.7736 -1.49793 -0.48987 0
M  V30 842 C 83.7056 -1.63413 -1.60713 0
M  V30 843 C 84.7186 -0.516329 -1.54395 0
M  V30 844 O 85.9076 -0.788812 -1.60125 0
M  V30 845 C 83.0076 -1.58516 -2.99543 0
M  V30 846 C 82.1806 -2.86016 -3.30928 0
M  V30 847 C 81.2396 -2.74018 -4.49222 0
M  V30 848 O 80.2656 -3.47964 -4.50455 0
M  V30 849 N 81.4676 -1.86309 -5.4979 0
M  V30 850 H 84.2326 -2.59777 -1.49452 0
M  V30 851 H 81.7936 -1.47022 -0.677955 0
M  V30 852 H 83.7856 -1.48128 -3.76617 0
M  V30 853 H 82.3556 -0.69965 -3.0467 0
M  V30 854 H 81.5756 -3.10672 -2.42645 0
M  V30 855 H 82.8636 -3.70521 -3.487 0
M  V30 856 H 82.2616 -1.2551 -5.51601 0
M  V30 857 H 80.8186 -1.81837 -6.25922 0
M  V30 858 N 84.2517 0.741722 -1.39055 0
M  V30 859 C 85.5287 1.49252 -1.26425 0
M  V30 860 C 85.9087 2.10705 0.129144 0
M  V30 861 O 85.2567 1.98045 1.13976 0
M  V30 862 C 85.4667 2.54934 -2.38347 0
M  V30 863 C 86.8147 3.21506 -2.77343 0
M  V30 864 O 87.8387 2.65245 -2.37747 0
M  V30 865 O 86.6977 4.23294 -3.45665 0
M  V30 866 H 83.7917 0.662451 -0.495064 0
M  V30 867 H 86.3377 0.776121 -1.50912 0
M  V30 868 H 85.1097 2.07857 -3.31529 0
M  V30 869 H 84.7327 3.34141 -2.15489 0
M  V30 870 N 85.7298 1.2412 0.971189 0
M  V30 871 C 86.9788 1.07284 1.70801 0
M  V30 872 C 87.2918 -0.388902 1.91695 0
M  V30 873 O 88.4978 -0.677379 2.62914 0
M  V30 874 C 86.9538 1.87145 3.07416 0
M  V30 875 C 86.5618 3.37707 2.94377 0
M  V30 876 C 88.3058 1.78828 3.84995 0
M  V30 877 C 86.2128 4.09925 4.26281 0
M  V30 878 H 85.1428 0.397854 0.64049 0
M  V30 879 H 87.7938 1.4817 1.0825 0
M  V30 880 H 86.1758 1.39071 3.70777 0
M  V30 881 H 87.3498 3.93335 2.4005 0
M  V30 882 H 85.6648 3.46938 2.30267 0
M  V30 883 H 88.2618 2.30089 4.82662 0
M  V30 884 H 88.6048 0.75284 4.09436 0
M  V30 885 H 89.1378 2.24563 3.28354 0
M  V30 886 H 85.8768 5.13813 4.07033 0
M  V30 887 H 85.3968 3.59083 4.80437 0
M  V30 888 H 87.0758 4.1673 4.94919 0
M  V30 889 N 87.2079 -1.17134 1.05439 0
M  V30 890 C 88.4329 -1.91913 0.786396 0
M  V30 891 C 88.8579 -1.7643 -0.652234 0
M  V30 892 O 88.2159 -1.08372 -1.45345 0
M  V30 893 C 88.2639 -3.40921 1.17497 0
M  V30 894 O 87.3679 -4.11244 0.308589 0
M  V30 895 H 86.7089 -0.598215 0.288158 0
M  V30 896 H 89.2389 -1.48457 1.4079 0
M  V30 897 H 89.2489 -3.91668 1.14281 0
M  V30 898 H 87.9239 -3.5151 2.22292 0
M  V30 899 H 86.5009 -3.70731 0.40157 0
M  V30 900 N 88.686 -0.835752 -1.33615 0
M  V30 901 C 89.616 -0.281739 -2.31794 0
M  V30 902 C 90.597 0.608833 -1.58831 0
M  V30 903 O 91.782 0.533035 -1.86741 0
M  V30 904 C 88.912 0.546612 -3.42971 0
M  V30 905 C 87.866 -0.247904 -4.27281 0
M  V30 906 C 87.192 0.704001 -5.30045 0
M  V30 907 C 88.492 -1.46324 -5.01385 0
M  V30 908 H 90.186 -1.10206 -2.78379 0
M  V30 909 H 87.732 -0.531388 -1.33837 0
M  V30 910 H 89.685 0.944467 -4.1068 0
M  V30 911 H 88.409 1.40011 -2.95067 0
M  V30 912 H 87.068 -0.627281 -3.61194 0
M  V30 913 H 86.716 1.55381 -4.78399 0
M  V30 914 H 86.416 0.176524 -5.87335 0
M  V30 915 H 87.94 1.09944 -6.0062 0
M  V30 916 H 89.354 -1.13871 -5.61877 0
M  V30 917 H 87.751 -1.92728 -5.6831 0
M  V30 918 H 88.821 -2.23467 -4.30338 0
M  V30 919 N 90.1641 1.46063 -0.591896 0
M  V30 920 C 91.1111 2.30399 0.136069 0
M  V30 921 C 92.0811 1.41169 0.875238 0
M  V30 922 O 93.2661 1.70112 0.86409 0
M  V30 923 C 90.4061 3.25804 1.13781 0
M  V30 924 C 89.5191 4.30134 0.401137 0
M  V30 925 C 88.6541 5.12659 1.39121 0
M  V30 926 C 87.6931 6.0873 0.641462 0
M  V30 927 N 86.8301 6.8409 1.58004 0
M  V30 928 H 91.6701 2.92118 -0.589144 0
M  V30 929 H 89.2071 1.43959 -0.302342 0
M  V30 930 H 91.1651 3.79569 1.73156 0
M  V30 931 H 89.7951 2.65872 1.83062 0
M  V30 932 H 88.8471 3.79152 -0.307826 0
M  V30 933 H 90.1591 4.98458 -0.184565 0
M  V30 934 H 89.3131 5.70747 2.05749 0
M  V30 935 H 88.0521 4.44316 2.01084 0
M  V30 936 H 87.0571 5.49786 -0.0385419 0
M  V30 937 H 88.2821 6.79095 0.0270945 0
M  V30 938 H 86.2281 6.18449 2.18761 0
M  V30 939 H 86.1451 7.48709 1.04738 0
M  V30 940 H 87.4131 7.4673 2.23639 0
M  V30 941 N 91.6422 0.330177 1.54103 0
M  V30 942 C 92.8892 -0.270405 2.00686 0
M  V30 943 C 93.2172 -1.51621 1.21825 0
M  V30 944 O 92.4722 -1.93536 0.29025 0
M  V30 945 C 92.7712 -0.643134 3.51566 0
M  V30 946 C 92.4372 0.504251 4.48072 0
M  V30 947 C 91.0992 0.819163 4.74176 0
M  V30 948 C 93.4512 1.27465 5.05373 0
M  V30 949 C 90.7792 1.90708 5.5484 0
M  V30 950 C 93.1312 2.35271 5.87223 0
M  V30 951 C 91.7952 2.67336 6.11627 0
M  V30 952 H 91.0652 -0.0989482 0.734364 0
M  V30 953 H 93.7122 0.455324 1.86008 0
M  V30 954 H 92.0172 -1.44938 3.64006 0
M  V30 955 H 93.7142 -1.11949 3.85056 0
M  V30 956 H 90.3042 0.248733 4.27878 0
M  V30 957 H 94.4882 1.04462 4.85182 0
M  V30 958 H 89.7442 2.15991 5.71977 0
M  V30 959 H 93.9182 2.95405 6.30641 0
M  V30 960 H 91.5452 3.51763 6.73919 0
M  V30 961 N 93.1203 -1.57491 0.0584922 0
M  V30 962 C 94.3673 -1.92978 -0.613648 0
M  V30 963 C 94.6953 -0.937461 -1.70417 0
M  V30 964 O 93.9503 0.049078 -1.95638 0
M  V30 965 C 94.2493 -3.3513 -1.24188 0
M  V30 966 C 93.9153 -4.50037 -0.278826 0
M  V30 967 C 92.5773 -4.81198 -0.0138447 0
M  V30 968 C 94.9293 -5.19807 0.380777 0
M  V30 969 C 92.2573 -5.79473 0.918052 0
M  V30 970 C 94.6093 -6.19079 1.30091 0
M  V30 971 C 93.2733 -6.48665 1.57449 0
M  V30 972 H 92.5433 -0.706157 -0.22455 0
M  V30 973 H 95.1903 -1.91082 0.126533 0
M  V30 974 H 93.4953 -3.33429 -2.05749 0
M  V30 975 H 95.1923 -3.59871 -1.769 0
M  V30 976 H 91.7823 -4.25726 -0.495539 0
M  V30 977 H 95.9663 -4.95939 0.189158 0
M  V30 978 H 91.2223 -6.00727 1.1374 0
M  V30 979 H 95.3963 -6.7225 1.81804 0
M  V30 980 H 93.0233 -7.24628 2.29822 0
M  V30 981 N 94.5984 0.214957 -1.56127 0
M  V30 982 C 95.5084 1.28727 -1.96129 0
M  V30 983 C 96.5244 1.50916 -0.866044 0
M  V30 984 O 97.7004 1.63918 -1.17016 0
M  V30 985 C 94.7654 2.61569 -2.27558 0
M  V30 986 C 93.8264 2.47625 -3.50685 0
M  V30 987 C 93.0594 3.74132 -3.80606 0
M  V30 988 O 93.2824 4.77438 -3.12104 0
M  V30 989 O 92.2164 3.70849 -4.74083 0
M  V30 990 H 96.0424 0.977855 -2.87527 0
M  V30 991 H 93.6274 0.418358 -1.43423 0
M  V30 992 H 95.5094 3.40012 -2.48938 0
M  V30 993 H 94.1844 2.92178 -1.39332 0
M  V30 994 H 93.0914 1.67361 -3.34576 0
M  V30 995 H 94.4244 2.21954 -4.39315 0
M  V30 996 N 96.0765 1.50051 0.48192 0
M  V30 997 C 97.3255 1.59741 1.23149 0
M  V30 998 C 97.6385 0.298163 1.93314 0
M  V30 999 O 98.8445 0.273835 2.70116 0
M  V30 1000 C 97.3005 2.81926 2.23708 0
M  V30 1001 C 96.9085 4.18685 1.59396 0
M  V30 1002 C 98.6525 3.00956 2.99375 0
M  V30 1003 C 96.5595 5.3207 2.58178 0
M  V30 1004 H 95.4895 0.594838 0.46334 0
M  V30 1005 H 98.1405 1.76467 0.503169 0
M  V30 1006 H 96.5225 2.58736 2.99786 0
M  V30 1007 H 97.6965 4.52088 0.891811 0
M  V30 1008 H 96.0115 4.05171 0.960503 0
M  V30 1009 H 98.6085 3.82836 3.73283 0
M  V30 1010 H 98.9515 2.12258 3.58123 0
M  V30 1011 H 99.4845 3.24277 2.30411 0
M  V30 1012 H 96.2235 6.22888 2.04184 0
M  V30 1013 H 95.7435 5.03098 3.26577 0
M  V30 1014 H 97.4225 5.62196 3.20225 0
M  V30 1015 N 97.5546 -0.734337 1.39446 0
M  V30 1016 C 98.8316 -1.48579 1.27215 0
M  V30 1017 C 99.2116 -2.1077 -0.117968 0
M  V30 1018 O 98.5596 -1.98646 -1.12924 0
M  V30 1019 C 98.7696 -2.53667 2.39696 0
M  V30 1020 C 100.118 -3.20031 2.79044 0
M  V30 1021 O 101.142 -2.6398 2.39151 0
M  V30 1022 O 100.001 -4.21455 3.47905 0
M  V30 1023 H 97.0946 -0.659816 0.49857 0
M  V30 1024 H 99.6406 -0.768106 1.51322 0
M  V30 1025 H 98.4126 -2.06096 3.32626 0
M  V30 1026 H 98.0356 -3.32994 2.17258 0
M  V30 1027 N 99.0327 -1.24633 -0.964593 0
M  V30 1028 C 99.9627 -1.06611 -2.07741 0
M  V30 1029 C 100.944 0.0218666 -1.70086 0
M  V30 1030 O 102.129 -0.145793 -1.93652 0
M  V30 1031 C 99.2587 -0.673444 -3.40708 0
M  V30 1032 C 98.2127 -1.71054 -3.92332 0
M  V30 1033 C 97.5387 -1.17285 -5.21678 0
M  V30 1034 C 98.8387 -3.10718 -4.19824 0
M  V30 1035 H 100.533 -1.99693 -2.23076 0
M  V30 1036 H 98.0787 -0.96152 -1.07195 0
M  V30 1037 H 100.032 -0.534345 -4.17998 0
M  V30 1038 H 98.7557 0.293073 -3.25282 0
M  V30 1039 H 97.4147 -1.83791 -3.17201 0
M  V30 1040 H 97.0627 -0.196847 -5.02615 0
M  V30 1041 H 96.7627 -1.86592 -5.57187 0
M  V30 1042 H 98.2867 -1.04593 -6.01575 0
M  V30 1043 H 99.7007 -3.01192 -4.87808 0
M  V30 1044 H 98.0977 -3.77406 -4.66567 0
M  V30 1045 H 99.1677 -3.58524 -3.26479 0
M  V30 1046 N 100.511 1.16574 -1.06058 0
M  V30 1047 C 101.739 1.90952 -0.796552 0
M  V30 1048 C 102.154 1.77302 0.648808 0
M  V30 1049 O 101.511 1.11605 1.44397 0
M  V30 1050 C 101.562 3.41736 -1.17894 0
M  V30 1051 O 101.283 3.54975 -2.56758 0
M  V30 1052 C 102.784 4.33169 -0.942308 0
M  V30 1053 H 100.004 0.605594 -0.288959 0
M  V30 1054 H 102.548 1.47777 -1.41358 0
M  V30 1055 H 100.703 3.82623 -0.606491 0
M  V30 1056 H 101.117 4.4846 -2.72 0
M  V30 1057 H 102.591 5.37439 -1.25952 0
M  V30 1058 H 103.068 4.3903 0.122078 0
M  V30 1059 H 103.674 3.98007 -1.49902 0
M  V30 1060 N 101.989 0.842826 1.3317 0
M  V30 1061 C 103.214 0.453129 2.02389 0
M  V30 1062 C 103.639 -0.939105 1.6298 0
M  V30 1063 O 102.997 -1.61472 0.8244 0
M  V30 1064 C 103.045 0.586094 3.55805 0
M  V30 1065 O 102.149 -0.386029 4.10589 0
M  V30 1066 H 101.49 0.183664 0.638094 0
M  V30 1067 H 104.02 1.13875 1.69981 0
M  V30 1068 H 104.03 0.469209 4.05293 0
M  V30 1069 H 102.705 1.6014 3.83833 0
M  V30 1070 H 101.282 -0.226371 3.72212 0
M  V30 1071 N 103.467 -1.45747 0.599634 0
M  V30 1072 C 104.883 -1.57424 0.26264 0
M  V30 1073 C 105.083 -1.59222 -1.23493 0
M  V30 1074 O 104.139 -1.51825 -2.01756 0
M  V30 1075 C 105.452 -2.86061 0.926795 0
M  V30 1076 C 107 -2.99722 0.901967 0
M  V30 1077 C 107.475 -4.31119 1.54598 0
M  V30 1078 N 108.966 -4.37858 1.5111 0
M  V30 1079 C 109.701 -5.3818 1.97863 0
M  V30 1080 N 109.197 -6.45083 2.52666 0
M  V30 1081 N 110.99 -5.29487 1.88679 0
M  V30 1082 H 103.141 -1.42823 1.57211 0
M  V30 1083 H 105.404 -0.68235 0.658105 0
M  V30 1084 H 105.11 -2.90605 1.98095 0
M  V30 1085 H 104.984 -3.74563 0.445238 0
M  V30 1086 H 107.371 -2.9475 -0.143617 0
M  V30 1087 H 107.452 -2.12652 1.42171 0
M  V30 1088 H 107.096 -4.36849 2.59085 0
M  V30 1089 H 107.026 -5.16992 1.00132 0
M  V30 1090 H 109.517 -3.61209 1.11068 0
M  V30 1091 H 109.83 -7.17869 2.86155 0
M  V30 1092 H 108.175 -6.45856 2.56701 0
M  V30 1093 H 111.366 -4.44877 1.4561 0
M  V30 1094 H 111.539 -6.07524 2.25429 0
M  V30 1095 N 104.945 -0.338344 -1.53925 0
M  V30 1096 C 106.356 0.146651 -1.86123 0
M  V30 1097 C 106.707 1.5042 -1.2597 0
M  V30 1098 O 105.832 2.08723 -0.571294 0
M  V30 1099 C 106.427 0.272879 -3.37699 0
M  V30 1100 C 104.986 0.702103 -3.69794 0
M  V30 1101 C 104.133 -0.167304 -2.76795 0
M  V30 1102 H 107.084 -0.558123 -1.48562 0
M  V30 1103 H 107.105 1.10128 -3.64214 0
M  V30 1104 H 106.617 -0.715307 -3.81451 0
M  V30 1105 H 104.718 1.6995 -3.31584 0
M  V30 1106 H 104.831 0.495604 -4.7653 0
M  V30 1107 H 103.195 0.359527 -2.5215 0
M  V30 1108 H 103.978 -1.15253 -3.23375 0
M  V30 1109 N 106.423 1.57458 -0.0668435 0
M  V30 1110 C 107.386 2.11323 0.887422 0
M  V30 1111 C 108.386 1.03618 1.22964 0
M  V30 1112 O 109.576 1.29626 1.16373 0
M  V30 1113 C 106.708 2.61048 2.19242 0
M  V30 1114 H 107.901 2.96942 0.420194 0
M  V30 1115 H 105.454 1.55239 0.181793 0
M  V30 1116 H 106.189 1.78868 2.70512 0
M  V30 1117 H 105.974 3.39769 1.95702 0
M  V30 1118 H 107.464 3.02814 2.87565 0
M  V30 1119 N 107.901 -0.206675 1.56239 0
M  V30 1120 C 108.851 -1.26 1.90021 0
M  V30 1121 C 109.835 -1.41566 0.764721 0
M  V30 1122 O 111.027 -1.44131 1.02739 0
M  V30 1123 C 108.156 -2.6073 2.23326 0
M  V30 1124 C 107.242 -2.49005 3.43304 0
M  V30 1125 N 107.633 -2.06946 4.61527 0
M  V30 1126 C 105.931 -2.79927 3.47213 0
M  V30 1127 C 106.632 -2.06832 5.43687 0
M  V30 1128 N 105.608 -2.47892 4.83788 0
M  V30 1129 H 109.41 -0.925955 2.78932 0
M  V30 1130 H 106.924 -0.415172 1.57003 0
M  V30 1131 H 108.921 -3.36798 2.45708 0
M  V30 1132 H 107.581 -2.94968 1.35735 0
M  V30 1133 H 108.592 -1.77839 4.86409 0
M  V30 1134 H 105.269 -3.18438 2.70006 0
M  V30 1135 H 106.659 -1.76312 6.48354 0
M  V30 1136 N 109.379 -1.50304 -0.473955 0
M  V30 1137 C 110.627 -1.60832 -1.22382 0
M  V30 1138 C 110.948 -0.30939 -1.9253 0
M  V30 1139 O 110.218 0.67296 -1.83978 0
M  V30 1140 H 108.798 -0.592652 -0.454723 0
M  V30 1141 H 111.46 -1.87068 -0.546968 0
M  V30 1142 H 110.556 -2.41803 -1.97327 0
M  V30 1143 N 110.857 0.726932 -1.39834 0
M  V30 1144 C 112.105 1.4837 -1.37225 0
M  V30 1145 C 112.426 1.94979 0.0284857 0
M  V30 1146 O 111.696 1.69555 0.981213 0
M  V30 1147 H 110.276 0.55043 -0.505011 0
M  V30 1148 H 112.938 0.862468 -1.74778 0
M  V30 1149 H 112.034 2.36198 -2.04003 0
M  V30 1150 N 112.336 1.25143 0.95797 0
M  V30 1151 C 113.283 1.05235 2.05412 0
M  V30 1152 C 114.253 -0.0374561 1.66058 0
M  V30 1153 O 115.438 0.119073 1.90428 0
M  V30 1154 C 112.578 0.673589 3.38462 0
M  V30 1155 C 111.691 1.8379 3.90954 0
M  V30 1156 C 110.826 1.40381 5.12315 0
M  V30 1157 C 109.865 2.53746 5.57027 0
M  V30 1158 N 109.002 2.11136 6.69601 0
M  V30 1159 H 113.842 1.99048 2.21774 0
M  V30 1160 H 111.379 0.991277 1.08683 0
M  V30 1161 H 113.337 0.434964 4.14926 0
M  V30 1162 H 111.967 -0.227554 3.21997 0
M  V30 1163 H 111.019 2.18992 3.11041 0
M  V30 1164 H 112.331 2.68937 4.20089 0
M  V30 1165 H 111.485 1.12464 5.96185 0
M  V30 1166 H 110.224 0.523015 4.84887 0
M  V30 1167 H 109.229 2.82412 4.71724 0
M  V30 1168 H 110.454 3.42398 5.86464 0
M  V30 1169 H 108.4 1.25468 6.4389 0
M  V30 1170 H 108.317 2.89832 6.98236 0
M  V30 1171 H 109.585 1.86385 7.56889 0
M  V30 1172 N 113.814 -1.1601 1.06675 0
M  V30 1173 C 115.042 -1.90527 0.806667 0
M  V30 1174 C 115.457 -1.77643 -0.639396 0
M  V30 1175 O 114.814 -1.12369 -1.43803 0
M  V30 1176 C 114.865 -3.41106 1.19705 0
M  V30 1177 O 114.586 -3.53608 2.58636 0
M  V30 1178 C 116.087 -4.32663 0.965266 0
M  V30 1179 H 113.307 -0.604053 0.292166 0
M  V30 1180 H 115.851 -1.47026 1.4214 0
M  V30 1181 H 114.006 -3.82296 0.626774 0
M  V30 1182 H 114.42 -4.47011 2.74375 0
M  V30 1183 H 115.894 -5.36763 1.288 0
M  V30 1184 H 116.371 -4.39089 -0.0987936 0
M  V30 1185 H 116.977 -3.97206 1.52011 0
M  V30 1186 N 115.292 -0.849877 -1.32721 0
M  V30 1187 C 116.202 -0.293791 -2.32753 0
M  V30 1188 C 117.218 0.585906 -1.63839 0
M  V30 1189 O 118.394 0.487413 -1.95413 0
M  V30 1190 C 115.459 0.512752 -3.42887 0
M  V30 1191 C 114.52 -0.39252 -4.27502 0
M  V30 1192 C 113.753 0.375625 -5.32377 0
M  V30 1193 O 113.976 1.60613 -5.4732 0
M  V30 1194 O 112.91 -0.256094 -6.01355 0
M  V30 1195 H 116.736 -1.12242 -2.82197 0
M  V30 1196 H 114.321 -0.612685 -1.36259 0
M  V30 1197 H 116.203 0.970704 -4.10067 0
M  V30 1198 H 114.878 1.31826 -2.95641 0
M  V30 1199 H 113.785 -0.898547 -3.63149 0
M  V30 1200 H 115.118 -1.16309 -4.7826 0
M  V30 1201 N 116.77 1.45427 -0.607355 0
M  V30 1202 C 117.702 2.2871 0.149752 0
M  V30 1203 C 118.715 1.39937 0.831958 0
M  V30 1204 O 119.904 1.64313 0.697385 0
M  V30 1205 C 117.004 3.15673 1.23304 0
M  V30 1206 C 116.177 4.32722 0.637996 0
M  V30 1207 C 115.236 5.00895 1.61215 0
M  V30 1208 O 114.262 5.57697 1.13854 0
M  V30 1209 N 115.464 5.00159 2.94655 0
M  V30 1210 H 118.229 2.94328 -0.564882 0
M  V30 1211 H 115.79 1.55612 -0.446823 0
M  V30 1212 H 117.782 3.58144 1.88454 0
M  V30 1213 H 116.352 2.51965 1.8502 0
M  V30 1214 H 115.572 3.93734 -0.191572 0
M  V30 1215 H 116.86 5.08321 0.220665 0
M  V30 1216 H 116.258 4.553 3.35735 0
M  V30 1217 H 114.815 5.46495 3.55228 0
M  V30 1218 N 118.248 0.346503 1.53744 0
M  V30 1219 C 119.496 -0.248612 2.00565 0
M  V30 1220 C 119.817 -1.5083 1.23593 0
M  V30 1221 O 119.087 -1.92858 0.343912 0
M  V30 1222 H 117.667 -0.0948564 0.740953 0
M  V30 1223 H 120.329 0.468341 1.89189 0
M  V30 1224 H 119.425 -0.488994 3.08245 0
M  V30 1225 N 119.726 -1.57421 0.075193 0
M  V30 1226 C 120.656 -2.15942 -0.888324 0
M  V30 1227 C 121.637 -1.08737 -1.30806 0
M  V30 1228 O 122.822 -1.36787 -1.37851 0
M  V30 1229 C 119.952 -2.72379 -2.1547 0
M  V30 1230 C 118.906 -3.8478 -1.87425 0
M  V30 1231 C 118.232 -4.27834 -3.20721 0
M  V30 1232 C 119.532 -5.08869 -1.17684 0
M  V30 1233 H 121.226 -2.96705 -0.400799 0
M  V30 1234 H 118.772 -1.42723 -0.191342 0
M  V30 1235 H 120.725 -3.11965 -2.83295 0
M  V30 1236 H 119.449 -1.88841 -2.6647 0
M  V30 1237 H 118.108 -3.45703 -1.22004 0
M  V30 1238 H 117.756 -3.41214 -3.6957 0
M  V30 1239 H 117.456 -5.03605 -3.02746 0
M  V30 1240 H 118.98 -4.70039 -3.89738 0
M  V30 1241 H 120.394 -5.4575 -1.75584 0
M  V30 1242 H 118.791 -5.8994 -1.09956 0
M  V30 1243 H 119.861 -4.84648 -0.156453 0
M  V30 1244 N 121.204 0.198386 -1.56346 0
M  V30 1245 C 122.429 0.939682 -1.84891 0
M  V30 1246 C 122.854 1.76202 -0.658369 0
M  V30 1247 O 122.212 1.76993 0.392851 0
M  V30 1248 C 122.26 1.81428 -3.11635 0
M  V30 1249 O 121.364 2.91265 -2.91956 0
M  V30 1250 H 120.705 0.264807 -0.608912 0
M  V30 1251 H 123.235 0.204695 -2.03573 0
M  V30 1252 H 123.245 2.21958 -3.42343 0
M  V30 1253 H 121.92 1.21004 -3.97908 0
M  V30 1254 H 120.497 2.54514 -2.72538 0
M  V30 1255 N 122.682 1.50554 0.465978 0
M  V30 1256 C 124.093 1.54599 1.04671 0
M  V30 1257 C 124.444 0.352488 1.93008 0
M  V30 1258 O 123.569 -0.534044 2.09707 0
M  V30 1259 C 124.164 2.80166 1.90505 0
M  V30 1260 C 122.723 2.86876 2.43678 0
M  V30 1261 C 121.87 2.48947 1.22151 0
M  V30 1262 H 124.821 1.56744 0.248384 0
M  V30 1263 H 124.842 2.62311 2.75633 0
M  V30 1264 H 124.354 3.67013 1.26186 0
M  V30 1265 H 122.455 2.04393 3.11536 0
M  V30 1266 H 122.568 3.89885 2.78436 0
M  V30 1267 H 120.932 2.01498 1.5579 0
M  V30 1268 H 121.715 3.38107 0.594866 0
M  V30 1269 N 124.16 -0.719506 1.40217 0
M  V30 1270 C 125.107 -1.83359 1.40172 0
M  V30 1271 C 126.077 -1.64065 0.259206 0
M  V30 1272 O 127.262 -1.85254 0.456677 0
M  V30 1273 C 124.402 -3.2103 1.26624 0
M  V30 1274 C 123.515 -3.51923 2.50548 0
M  V30 1275 C 122.65 -4.79079 2.29471 0
M  V30 1276 C 121.689 -5.02863 3.48992 0
M  V30 1277 N 120.826 -6.2123 3.27135 0
M  V30 1278 H 125.666 -1.82733 2.35399 0
M  V30 1279 H 123.203 -0.892688 1.16917 0
M  V30 1280 H 125.161 -4.00524 1.16776 0
M  V30 1281 H 123.791 -3.20895 0.350176 0
M  V30 1282 H 122.843 -2.67014 2.70939 0
M  V30 1283 H 124.155 -3.6541 3.39525 0
M  V30 1284 H 123.309 -5.66582 2.16955 0
M  V30 1285 H 122.048 -4.67794 1.37913 0
M  V30 1286 H 121.053 -4.13816 3.6199 0
M  V30 1287 H 122.278 -5.16023 4.41472 0
M  V30 1288 H 120.224 -6.11204 2.38256 0
M  V30 1289 H 120.141 -6.35375 4.09675 0
M  V30 1290 H 121.409 -7.11532 3.18344 0
M  V30 1291 N 125.638 -1.25649 -0.95132 0
M  V30 1292 C 126.863 -1.13443 -1.73624 0
M  V30 1293 C 127.288 0.307565 -1.85568 0
M  V30 1294 O 126.646 1.22282 -1.33854 0
M  V30 1295 C 126.694 -1.79723 -3.12621 0
M  V30 1296 O 125.798 -1.07912 -3.98031 0
M  V30 1297 H 125.139 -0.395872 -0.533086 0
M  V30 1298 H 127.669 -1.66276 -1.1922 0
M  V30 1299 H 127.679 -1.86141 -3.63064 0
M  V30 1300 H 126.354 -2.84633 -3.03244 0
M  V30 1301 H 124.931 -1.09398 -3.56492 0
M  V30 1302 N 127.117 1.15442 -1.07289 0
M  V30 1303 C 128.064 2.20161 -0.692653 0
M  V30 1304 C 129.034 1.63073 0.31564 0
M  V30 1305 O 130.219 1.89725 0.202235 0
M  V30 1306 C 127.359 3.44967 -0.0959509 0
M  V30 1307 C 126.472 4.16256 -1.15564 0
M  V30 1308 C 125.607 5.28609 -0.524011 0
M  V30 1309 C 124.646 5.91715 -1.56653 0
M  V30 1310 N 123.783 6.9554 -0.957531 0
M  V30 1311 H 128.623 2.52037 -1.59002 0
M  V30 1312 H 126.16 1.2378 -0.794798 0
M  V30 1313 H 128.118 4.16341 0.267628 0
M  V30 1314 H 126.748 3.1361 0.764772 0
M  V30 1315 H 125.8 3.43385 -1.6368 0
M  V30 1316 H 127.112 4.59268 -1.94613 0
M  V30 1317 H 126.266 6.06604 -0.108032 0
M  V30 1318 H 125.005 4.86787 0.29825 0
M  V30 1319 H 124.01 5.12433 -1.9923 0
M  V30 1320 H 125.235 6.35614 -2.39107 0
M  V30 1321 H 123.181 6.55814 -0.156162 0
M  V30 1322 H 123.098 7.36977 -1.68526 0
M  V30 1323 H 124.366 7.77435 -0.567032 0
M  V30 1324 N 128.595 0.856903 1.32268 0
M  V30 1325 C 130.006 0.515711 1.79436 0
M  V30 1326 C 130.357 -0.966586 1.70738 0
M  V30 1327 O 129.482 -1.75409 1.26731 0
M  V30 1328 C 130.077 0.929335 3.25805 0
M  V30 1329 C 128.636 0.640006 3.70919 0
M  V30 1330 C 127.783 1.12784 2.53328 0
M  V30 1331 H 130.734 1.04389 1.19535 0
M  V30 1332 H 130.755 0.246633 3.797 0
M  V30 1333 H 130.267 2.00821 3.32103 0
M  V30 1334 H 128.368 -0.428051 3.70133 0
M  V30 1335 H 128.481 1.20788 4.63624 0
M  V30 1336 H 126.845 0.548033 2.48734 0
M  V30 1337 H 127.628 2.21387 2.62379 0
M  V30 1338 N 130.073 -1.45103 0.615059 0
M  V30 1339 C 131.32 -2.02183 0.113179 0
M  V30 1340 C 131.648 -1.48249 -1.25906 0
M  V30 1341 O 130.903 -0.650265 -1.84581 0
M  V30 1342 C 131.202 -3.57386 0.0318797 0
M  V30 1343 C 130.868 -4.30505 1.34077 0
M  V30 1344 C 129.53 -4.50197 1.69929 0
M  V30 1345 C 131.882 -4.72238 2.20546 0
M  V30 1346 C 129.21 -5.08881 2.91988 0
M  V30 1347 C 131.562 -5.32272 3.41861 0
M  V30 1348 C 130.226 -5.50187 3.77956 0
M  V30 1349 H 129.496 -0.739842 0.0414151 0
M  V30 1350 H 132.143 -1.74073 0.798168 0
M  V30 1351 H 130.448 -3.84817 -0.736409 0
M  V30 1352 H 132.145 -3.99264 -0.372712 0
M  V30 1353 H 128.735 -4.15496 1.05173 0
M  V30 1354 H 132.919 -4.56751 1.94146 0
M  V30 1355 H 128.175 -5.20939 3.2005 0
M  V30 1356 H 132.349 -5.63563 4.09109 0
M  V30 1357 H 129.976 -5.95427 4.72622 0
M  V30 1358 N 131.551 -0.354651 -1.53558 0
M  V30 1359 C 132.514 0.484566 -2.24019 0
M  V30 1360 C 133.514 1.01861 -1.24422 0
M  V30 1361 O 134.704 0.906097 -1.4878 0
M  V30 1362 C 131.836 1.67615 -2.96847 0
M  V30 1363 H 133.029 -0.131843 -2.9961 0
M  V30 1364 H 130.582 -0.106165 -1.55939 0
M  V30 1365 H 131.317 2.33095 -2.25471 0
M  V30 1366 H 131.102 1.30029 -3.69912 0
M  V30 1367 H 132.592 2.27114 -3.50441 0
M  V30 1368 N 133.029 1.57378 -0.0835403 0
M  V30 1369 C 134.257 1.98263 0.59157 0
M  V30 1370 C 134.672 0.962302 1.62435 0
M  V30 1371 O 134.029 -0.049581 1.82433 0
M  V30 1372 C 134.08 3.39214 1.24965 0
M  V30 1373 O 133.801 4.37339 0.258186 0
M  V30 1374 C 135.302 3.95038 2.01147 0
M  V30 1375 H 132.522 0.651773 0.159477 0
M  V30 1376 H 135.066 2.03878 -0.159415 0
M  V30 1377 H 133.221 3.34649 1.95164 0
M  V30 1378 H 133.635 5.19371 0.731734 0
M  V30 1379 H 135.109 4.95848 2.42567 0
M  V30 1380 H 135.586 3.32222 2.87272 0
M  V30 1381 H 136.192 4.0304 1.35789 0
M  V30 1382 N 134.507 -0.190092 1.56449 0
M  V30 1383 C 135.784 -0.935886 1.71757 0
M  V30 1384 C 136.164 -2.01173 0.639726 0
M  V30 1385 O 135.512 -2.25827 -0.348502 0
M  V30 1386 C 135.722 -1.51775 3.1427 0
M  V30 1387 C 137.07 -1.99794 3.74656 0
M  V30 1388 O 138.094 -1.61607 3.1743 0
M  V30 1389 O 136.953 -2.70079 4.751 0
M  V30 1390 H 134.047 -0.439229 0.700719 0
M  V30 1391 H 136.593 -0.179395 1.68749 0
M  V30 1392 H 135.365 -0.742505 3.84191 0
M  V30 1393 H 134.988 -2.33894 3.21527 0
M  V30 1394 N 135.985 -1.50799 -0.457987 0
M  V30 1395 C 137.21 -1.66496 -1.23668 0
M  V30 1396 C 137.635 -0.353288 -1.84752 0
M  V30 1397 O 136.993 0.684346 -1.67888 0
M  V30 1398 C 137.041 -2.76763 -2.3116 0
M  V30 1399 O 136.145 -2.38928 -3.36136 0
M  V30 1400 H 135.486 -0.555828 -0.363252 0
M  V30 1401 H 138.016 -1.9725 -0.543474 0
M  V30 1402 H 138.026 -3.00232 -2.76269 0
M  V30 1403 H 136.701 -3.71954 -1.86073 0
M  V30 1404 H 135.278 -2.25953 -2.96647 0
M  V30 1405 N 137.463 0.71206 -1.40597 0
M  V30 1406 C 138.711 1.46907 -1.38791 0
M  V30 1407 C 139.032 1.94998 0.00780391 0
M  V30 1408 O 138.302 1.70587 0.963174 0
M  V30 1409 H 136.882 0.545043 -0.51082 0
M  V30 1410 H 139.544 0.843882 -1.75683 0
M  V30 1411 H 138.64 2.34021 -2.06496 0
M  V30 1412 N 138.941 1.26152 0.944643 0
M  V30 1413 C 139.904 1.07474 2.0244 0
M  V30 1414 C 140.904 0.0242064 1.60782 0
M  V30 1415 O 142.094 0.267302 1.72137 0
M  V30 1416 C 139.226 0.633956 3.34953 0
M  V30 1417 H 140.419 2.03336 2.20442 0
M  V30 1418 H 137.972 1.087 1.12312 0
M  V30 1419 H 138.707 -0.326811 3.22649 0
M  V30 1420 H 138.492 1.39247 3.66542 0
M  V30 1421 H 139.982 0.52501 4.14287 0
M  V30 1422 N 140.419 -1.14872 1.07899 0
M  V30 1423 C 141.352 -2.18794 0.64841 0
M  V30 1424 C 142.33 -1.59065 -0.337189 0
M  V30 1425 O 143.514 -1.86936 -0.242284 0
M  V30 1426 C 140.641 -3.38667 -0.0470417 0
M  V30 1427 C 139.687 -4.16942 0.897884 0
M  V30 1428 S 140.52 -4.78615 2.40183 0
M  V30 1429 C 141.676 -6.0185 1.71834 0
M  V30 1430 H 141.909 -2.5498 1.52881 0
M  V30 1431 H 139.442 -1.25922 0.893484 0
M  V30 1432 H 141.4 -4.08113 -0.442027 0
M  V30 1433 H 140.061 -3.00814 -0.903861 0
M  V30 1434 H 139.254 -5.02726 0.358096 0
M  V30 1435 H 138.856 -3.53073 1.23352 0
M  V30 1436 H 141.148 -6.69574 1.03328 0
M  V30 1437 H 142.091 -6.60408 2.55473 0
M  V30 1438 H 142.499 -5.5173 1.19392 0
M  V30 1439 N 141.898 -0.863906 -1.31812 0
M  V30 1440 C 143.123 -0.48527 -2.01643 0
M  V30 1441 C 143.548 0.913058 -1.64453 0
M  V30 1442 O 142.906 1.6014 -0.849985 0
M  V30 1443 C 142.954 -0.642625 -3.54828 0
M  V30 1444 O 142.058 0.320659 -4.11151 0
M  V30 1445 H 141.399 -0.193793 -0.635091 0
M  V30 1446 H 143.929 -1.16565 -1.68148 0
M  V30 1447 H 143.939 -0.533628 -4.04495 0
M  V30 1448 H 142.614 -1.66227 -3.81237 0
M  V30 1449 H 141.191 0.167126 -3.72525 0
M  V30 1450 N 143.376 1.44774 -0.622745 0
M  V30 1451 C 144.326 2.2774 0.108889 0
M  V30 1452 C 145.31 1.38189 0.824175 0
M  V30 1453 O 146.502 1.62063 0.711664 0
M  V30 1454 C 143.631 3.25353 1.09546 0
M  V30 1455 C 142.717 4.22392 0.380232 0
M  V30 1456 N 143.108 5.02388 -0.586535 0
M  V30 1457 C 141.406 4.41588 0.625792 0
M  V30 1458 C 142.107 5.72894 -1.00834 0
M  V30 1459 N 141.083 5.42479 -0.348878 0
M  V30 1460 H 144.885 2.86993 -0.63341 0
M  V30 1461 H 142.399 1.5611 -0.447589 0
M  V30 1462 H 144.396 3.83538 1.63414 0
M  V30 1463 H 143.056 2.6766 1.83815 0
M  V30 1464 H 144.067 5.0885 -0.963975 0
M  V30 1465 H 140.744 3.95003 1.352 0
M  V30 1466 H 142.134 6.47158 -1.80656 0
M  V30 1467 N 144.854 0.36279 1.53368 0
M  V30 1468 C 145.801 -0.485008 2.25646 0
M  V30 1469 C 146.771 -1.07982 1.2621 0
M  V30 1470 O 147.956 -1.11284 1.54986 0
M  V30 1471 C 145.096 -1.62023 3.04701 0
M  V30 1472 C 144.209 -1.05086 4.19024 0
M  V30 1473 C 143.344 -2.15496 4.85525 0
M  V30 1474 C 142.383 -1.5601 5.91884 0
M  V30 1475 N 141.52 -2.60241 6.52088 0
M  V30 1476 H 146.36 0.137864 2.97681 0
M  V30 1477 H 143.897 0.0798061 1.46883 0
M  V30 1478 H 145.855 -2.28887 3.48807 0
M  V30 1479 H 144.485 -2.2138 2.34927 0
M  V30 1480 H 143.537 -0.27259 3.79422 0
M  V30 1481 H 144.849 -0.575926 4.95464 0
M  V30 1482 H 144.003 -2.90186 5.32801 0
M  V30 1483 H 142.742 -2.66341 4.08551 0
M  V30 1484 H 141.747 -0.798338 5.43973 0
M  V30 1485 H 142.972 -1.05994 6.70777 0
M  V30 1486 H 140.918 -3.10304 5.77968 0
M  V30 1487 H 140.835 -2.17426 7.24059 0
M  V30 1488 H 142.103 -3.34641 7.04014 0
M  V30 1489 N 146.332 -1.57332 0.0918853 0
M  V30 1490 C 147.262 -2.16872 -0.865371 0
M  V30 1491 C 148.243 -1.10118 -1.29646 0
M  V30 1492 O 149.428 -1.38242 -1.36392 0
M  V30 1493 C 146.558 -2.74649 -2.12569 0
M  V30 1494 C 145.512 -3.86747 -1.83333 0
M  V30 1495 C 144.838 -4.31212 -3.16166 0
M  V30 1496 C 146.138 -5.10089 -1.1228 0
M  V30 1497 H 147.832 -2.97114 -0.369307 0
M  V30 1498 H 145.378 -1.42918 -0.176194 0
M  V30 1499 H 147.331 -3.14952 -2.7997 0
M  V30 1500 H 146.055 -1.91657 -2.64452 0
M  V30 1501 H 144.714 -3.46978 -1.18331 0
M  V30 1502 H 144.362 -3.45115 -3.6593 0
M  V30 1503 H 144.062 -5.06788 -2.97388 0
M  V30 1504 H 145.586 -4.74146 -3.84731 0
M  V30 1505 H 147 -5.47582 -1.69785 0
M  V30 1506 H 145.397 -5.91073 -1.03693 0
M  V30 1507 H 146.467 -4.84786 -0.105041 0
M  V30 1508 N 147.81 0.181792 -1.56548 0
M  V30 1509 C 148.72 1.24538 -1.98815 0
M  V30 1510 C 149.736 1.49045 -0.897861 0
M  V30 1511 O 150.912 1.61399 -1.20467 0
M  V30 1512 C 147.977 2.56683 -2.33055 0
M  V30 1513 C 147.038 2.40131 -3.55859 0
M  V30 1514 C 146.271 3.65975 -3.88456 0
M  V30 1515 O 146.494 4.70711 -3.22161 0
M  V30 1516 O 145.428 3.6071 -4.81842 0
M  V30 1517 H 149.254 0.916647 -2.89536 0
M  V30 1518 H 146.839 0.387842 -1.44278 0
M  V30 1519 H 148.721 3.34655 -2.56094 0
M  V30 1520 H 147.396 2.89157 -1.45498 0
M  V30 1521 H 146.303 1.60226 -3.38051 0
M  V30 1522 H 147.636 2.12585 -4.43924 0
M  V30 1523 N 149.288 1.51039 0.449983 0
M  V30 1524 C 150.235 1.71439 1.54523 0
M  V30 1525 C 151.205 0.555871 1.56522 0
M  V30 1526 O 152.39 0.788871 1.73728 0
M  V30 1527 C 149.53 1.83384 2.92343 0
M  V30 1528 C 148.643 3.10873 2.9997 0
M  V30 1529 C 147.778 3.13488 4.28834 0
M  V30 1530 C 146.817 4.35343 4.30282 0
M  V30 1531 N 145.954 4.35579 5.5065 0
M  V30 1532 H 150.794 2.64934 1.36433 0
M  V30 1533 H 148.331 1.31312 0.662982 0
M  V30 1534 H 150.289 1.88291 3.72293 0
M  V30 1535 H 148.919 0.933086 3.0902 0
M  V30 1536 H 147.971 3.15336 2.12761 0
M  V30 1537 H 149.283 4.00814 2.96901 0
M  V30 1538 H 148.437 3.17241 5.17149 0
M  V30 1539 H 147.176 2.21414 4.34543 0
M  V30 1540 H 146.181 4.3178 3.40362 0
M  V30 1541 H 147.406 5.28668 4.26248 0
M  V30 1542 H 145.352 3.46369 5.57104 0
M  V30 1543 H 145.269 5.19313 5.49409 0
M  V30 1544 H 146.537 4.43507 6.41032 0
M  V30 1545 N 150.766 -0.704594 1.40972 0
M  V30 1546 C 151.729 -1.80035 1.41845 0
M  V30 1547 C 152.729 -1.57774 0.310474 0
M  V30 1548 O 153.919 -1.64613 0.56992 0
M  V30 1549 C 151.051 -3.18284 1.22098 0
M  V30 1550 H 152.244 -1.80658 2.3938 0
M  V30 1551 H 149.797 -0.911329 1.26982 0
M  V30 1552 H 150.532 -3.23306 0.253672 0
M  V30 1553 H 150.317 -3.35843 2.02366 0
M  V30 1554 H 151.807 -3.98289 1.25522 0
M  V30 1555 N 152.244 -1.26651 -0.937939 0
M  V30 1556 C 153.521 -1.0313 -1.66204 0
M  V30 1557 C 153.901 0.437256 -2.06522 0
M  V30 1558 O 153.249 1.41831 -1.79154 0
M  V30 1559 C 153.459 -1.98314 -2.87181 0
M  V30 1560 C 154.807 -2.27107 -3.58758 0
M  V30 1561 O 155.831 -1.96205 -2.97291 0
M  V30 1562 O 154.69 -2.79736 -4.69479 0
M  V30 1563 H 151.784 -0.392384 -0.727986 0
M  V30 1564 H 154.33 -1.37874 -0.989382 0
M  V30 1565 H 153.102 -2.97399 -2.54302 0
M  V30 1566 H 152.725 -1.64068 -3.6217 0
M  V30 1567 N 153.722 1.14298 -1.08507 0
M  V30 1568 C 154.652 2.21542 -0.737646 0
M  V30 1569 C 155.633 1.67773 0.280377 0
M  V30 1570 O 156.818 1.93616 0.150521 0
M  V30 1571 C 153.948 3.46988 -0.147259 0
M  V30 1572 C 152.902 4.13789 -1.09374 0
M  V30 1573 C 152.228 5.33449 -0.365524 0
M  V30 1574 C 153.528 4.62208 -2.4323 0
M  V30 1575 H 155.222 2.5086 -1.6343 0
M  V30 1576 H 152.768 1.20576 -0.787243 0
M  V30 1577 H 154.721 4.21262 0.107808 0
M  V30 1578 H 153.445 3.17037 0.784538 0
M  V30 1579 H 152.104 3.4147 -1.33393 0
M  V30 1580 H 151.752 4.99759 0.57011 0
M  V30 1581 H 151.452 5.79088 -0.996512 0
M  V30 1582 H 152.976 6.10485 -0.118534 0
M  V30 1583 H 154.39 5.27952 -2.23472 0
M  V30 1584 H 152.787 5.18553 -3.02031 0
M  V30 1585 H 153.857 3.77224 -3.04681 0
M  V30 1586 N 155.201 0.870884 1.31352 0
M  V30 1587 C 156.131 0.343096 2.30966 0
M  V30 1588 C 157.112 -0.566507 1.60389 0
M  V30 1589 O 158.297 -0.483336 1.88089 0
M  V30 1590 C 155.427 -0.455487 3.443 0
M  V30 1591 C 154.381 0.361103 4.26474 0
M  V30 1592 C 153.707 -0.563221 5.31725 0
M  V30 1593 C 155.007 1.59566 4.97329 0
M  V30 1594 H 156.701 1.17548 2.75359 0
M  V30 1595 H 154.247 0.566686 1.32381 0
M  V30 1596 H 156.2 -0.83525 4.13039 0
M  V30 1597 H 154.924 -1.32139 2.98675 0
M  V30 1598 H 153.583 0.722825 3.59403 0
M  V30 1599 H 153.231 -1.42643 4.82351 0
M  V30 1600 H 152.931 -0.0207409 5.87596 0
M  V30 1601 H 154.455 -0.939808 6.03324 0
M  V30 1602 H 155.869 1.28728 5.58661 0
M  V30 1603 H 154.266 2.07728 5.63 0
M  V30 1604 H 155.336 2.34798 4.24262 0
M  V30 1605 N 156.679 -1.44442 0.630414 0
M  V30 1606 C 157.626 -2.30678 -0.0749355 0
M  V30 1607 C 158.596 -1.4344 -0.837502 0
M  V30 1608 O 159.781 -1.72343 -0.818684 0
M  V30 1609 C 156.921 -3.28706 -1.05103 0
M  V30 1610 C 156.034 -4.31046 -0.286954 0
M  V30 1611 C 155.169 -5.16167 -1.2548 0
M  V30 1612 C 154.208 -6.10216 -0.479843 0
M  V30 1613 N 153.345 -6.88039 -1.39811 0
M  V30 1614 H 158.185 -2.90454 0.666386 0
M  V30 1615 H 155.722 -1.43107 0.340404 0
M  V30 1616 H 157.68 -3.84027 -1.63031 0
M  V30 1617 H 156.31 -2.70632 -1.75949 0
M  V30 1618 H 155.362 -3.78203 0.408243 0
M  V30 1619 H 156.674 -4.97794 0.316657 0
M  V30 1620 H 155.828 -5.76002 -1.90544 0
M  V30 1621 H 154.567 -4.49491 -1.89233 0
M  V30 1622 H 153.572 -5.49491 0.184295 0
M  V30 1623 H 154.797 -6.78928 0.152965 0
M  V30 1624 H 152.743 -6.24032 -2.02287 0
M  V30 1625 H 152.66 -7.51223 -0.848508 0
M  V30 1626 H 153.928 -7.52397 -2.03762 0
M  V30 1627 N 158.157 -0.370918 -1.53173 0
M  V30 1628 C 159.12 0.460778 -2.24521 0
M  V30 1629 C 160.12 1.00536 -1.25496 0
M  V30 1630 O 161.31 0.890266 -1.49733 0
M  V30 1631 C 158.442 1.64457 -2.98608 0
M  V30 1632 H 159.635 -0.163613 -2.99453 0
M  V30 1633 H 157.188 -0.122699 -1.55818 0
M  V30 1634 H 157.923 2.30691 -2.2793 0
M  V30 1635 H 157.708 1.26099 -3.7127 0
M  V30 1636 H 159.198 2.23384 -3.5283 0
M  V30 1637 N 159.635 1.57281 -0.100228 0
M  V30 1638 C 160.884 1.93713 0.561984 0
M  V30 1639 C 161.197 0.984492 1.69018 0
M  V30 1640 O 162.403 1.24273 2.41389 0
M  V30 1641 C 160.859 3.4421 1.05106 0
M  V30 1642 C 160.467 4.47975 -0.0476628 0
M  V30 1643 C 162.211 3.89595 1.68571 0
M  V30 1644 C 160.118 5.89631 0.457055 0
M  V30 1645 H 159.048 0.723082 0.2137 0
M  V30 1646 H 161.699 1.82644 -0.177057 0
M  V30 1647 H 160.081 3.50449 1.84395 0
M  V30 1648 H 161.255 4.53385 -0.823333 0
M  V30 1649 H 159.57 4.1223 -0.587816 0
M  V30 1650 H 162.167 4.92832 2.07414 0
M  V30 1651 H 162.51 3.28526 2.55688 0
M  V30 1652 H 163.043 3.86078 0.958562 0
M  V30 1653 H 159.782 6.54411 -0.377616 0
M  V30 1654 H 159.302 5.87681 1.19962 0
M  V30 1655 H 160.981 6.40363 0.92437 0
M  V30 1656 N 161.113 -0.173488 1.56642 0
M  V30 1657 C 162.045 -1.23935 1.92802 0
M  V30 1658 C 163.058 -1.40589 0.820889 0
M  V30 1659 O 164.247 -1.40631 1.09933 0
M  V30 1660 C 161.347 -2.60837 2.16373 0
M  V30 1661 C 160.52 -2.6551 3.47596 0
M  V30 1662 C 159.579 -3.8376 3.60021 0
M  V30 1663 O 158.605 -3.69859 4.32658 0
M  V30 1664 N 159.807 -5.00127 2.94709 0
M  V30 1665 H 162.572 -0.932236 2.84832 0
M  V30 1666 H 160.133 -0.363268 1.57772 0
M  V30 1667 H 162.125 -3.38407 2.21952 0
M  V30 1668 H 160.695 -2.83948 1.30738 0
M  V30 1669 H 159.915 -1.74052 3.53694 0
M  V30 1670 H 161.203 -2.65641 4.33949 0
M  V30 1671 H 160.601 -5.14322 2.35563 0
M  V30 1672 H 159.158 -5.75567 3.05886 0
M  V30 1673 N 162.591 -1.51276 -0.441967 0
M  V30 1674 C 163.501 -1.75092 -1.56141 0
M  V30 1675 C 164.517 -0.634963 -1.62001 0
M  V30 1676 O 165.693 -0.916686 -1.79329 0
M  V30 1677 C 162.758 -1.86666 -2.92158 0
M  V30 1678 C 161.819 -3.10506 -2.96453 0
M  V30 1679 C 161.052 -3.21519 -4.25982 0
M  V30 1680 O 161.275 -2.38586 -5.18105 0
M  V30 1681 O 160.209 -4.14465 -4.36466 0
M  V30 1682 H 164.035 -2.70044 -1.38961 0
M  V30 1683 H 161.62 -1.35722 -0.624499 0
M  V30 1684 H 163.502 -1.96292 -3.72891 0
M  V30 1685 H 162.177 -0.949014 -3.09476 0
M  V30 1686 H 161.084 -3.06363 -2.14692 0
M  V30 1687 H 162.417 -4.01945 -2.84079 0
M  V30 1688 N 164.069 0.697108 -1.41344 0
M  V30 1689 C 165.001 1.8224 -1.39001 0
M  V30 1690 C 166.014 1.60152 -0.292428 0
M  V30 1691 O 167.203 1.69684 -0.554048 0
M  V30 1692 C 164.303 3.18976 -1.14489 0
M  V30 1693 C 163.476 3.68105 -2.36258 0
M  V30 1694 C 162.535 4.83506 -2.07625 0
M  V30 1695 O 161.561 4.95201 -2.8065 0
M  V30 1696 N 162.763 5.70637 -1.06555 0
M  V30 1697 H 165.528 1.84742 -2.35988 0
M  V30 1698 H 163.089 0.87937 -1.35936 0
M  V30 1699 H 165.081 3.93801 -0.932885 0
M  V30 1700 H 163.651 3.11508 -0.261043 0
M  V30 1701 H 162.871 2.84204 -2.7317 0
M  V30 1702 H 164.159 3.97667 -3.17393 0
M  V30 1703 H 163.557 5.63817 -0.461125 0
M  V30 1704 H 162.114 6.45368 -0.913444 0
M  V30 1705 N 165.547 1.27147 0.931209 0
M  V30 1706 C 166.477 1.12081 2.04842 0
M  V30 1707 C 167.458 0.0232364 1.70084 0
M  V30 1708 O 168.643 0.197085 1.93197 0
M  V30 1709 C 165.773 0.76354 3.38803 0
M  V30 1710 C 164.727 1.81396 3.87659 0
M  V30 1711 C 164.053 1.31075 5.18385 0
M  V30 1712 C 165.353 3.21739 4.11438 0
M  V30 1713 H 167.047 2.05537 2.17703 0
M  V30 1714 H 164.593 0.989603 1.04608 0
M  V30 1715 H 166.546 0.644982 4.16435 0
M  V30 1716 H 165.27 -0.206727 3.25945 0
M  V30 1717 H 163.929 1.92136 3.12217 0
M  V30 1718 H 163.577 0.330037 5.01916 0
M  V30 1719 H 163.277 2.013 5.52044 0
M  V30 1720 H 164.801 1.20506 5.98591 0
M  V30 1721 H 166.215 3.14019 4.79651 0
M  V30 1722 H 164.612 3.89644 4.56397 0
M  V30 1723 H 165.682 3.67054 3.16859 0
M  V30 1724 N 167.025 -1.13721 1.09112 0
M  V30 1725 C 168.274 -1.84275 0.82009 0
M  V30 1726 C 168.587 -1.84253 -0.656509 0
M  V30 1727 O 169.793 -2.50668 -1.04296 0
M  V30 1728 C 168.249 -3.30825 1.41714 0
M  V30 1729 C 167.857 -3.39244 2.92605 0
M  V30 1730 C 169.601 -4.06443 1.22492 0
M  V30 1731 C 167.508 -4.80047 3.45411 0
M  V30 1732 H 166.438 -0.690387 0.30312 0
M  V30 1733 H 169.089 -1.28146 1.31343 0
M  V30 1734 H 167.471 -3.86737 0.851498 0
M  V30 1735 H 168.645 -2.93344 3.55367 0
M  V30 1736 H 166.96 -2.77088 3.10823 0
M  V30 1737 H 169.557 -5.10387 1.59402 0
M  V30 1738 H 169.9 -4.15972 0.165299 0
M  V30 1739 H 170.433 -3.56852 1.75788 0
M  V30 1740 H 167.172 -4.75709 4.50978 0
M  V30 1741 H 166.692 -5.26455 2.87411 0
M  V30 1742 H 168.371 -5.48957 3.42425 0
M  V30 1743 N 168.503 -0.877838 -1.30888 0
M  V30 1744 C 169.466 -0.344265 -2.266 0
M  V30 1745 C 170.466 0.50922 -1.52524 0
M  V30 1746 O 171.656 0.317398 -1.71284 0
M  V30 1747 C 168.788 0.510198 -3.37061 0
M  V30 1748 H 169.981 -1.1893 -2.7531 0
M  V30 1749 H 167.534 -0.654088 -1.41956 0
M  V30 1750 H 168.269 1.37612 -2.93655 0
M  V30 1751 H 168.054 -0.101047 -3.9197 0
M  V30 1752 H 169.544 0.875537 -4.08319 0
M  V30 1753 N 169.982 1.44106 -0.638065 0
M  V30 1754 C 170.93 2.3248 0.0748149 0
M  V30 1755 C 171.924 1.47746 0.828702 0
M  V30 1756 O 173.13 1.64049 0.740816 0
M  V30 1757 H 169.505 0.750771 0.0429686 0
M  V30 1758 H 171.476 2.90348 -0.688504 0
M  V30 1759 C 170.225 3.31843 1.03805 0
M  V30 1760 H 169.548 3.97059 0.467375 0
M  V30 1761 H 170.988 3.96345 1.50622 0
M  V30 1762 C 169.447 2.61291 2.1267 0
M  V30 1763 O 169.977 2.41702 3.20847 0
M  V30 1764 N 168.183 2.20915 1.88798 0
M  V30 1765 H 167.73 2.37047 1.00829 0
M  V30 1766 H 167.688 1.74038 2.61836 0
M  V30 1767 N 171.46 0.379036 1.52974 0
M  V30 1768 C 172.706 -0.206727 2.01744 0
M  V30 1769 C 173.039 -1.47314 1.26539 0
M  V30 1770 O 172.314 -1.91084 0.362903 0
M  V30 1771 C 172.597 -0.485066 3.56818 0
M  V30 1772 C 172.45 0.795919 4.42702 0
M  V30 1773 C 173.769 -1.28003 4.21074 0
M  V30 1774 H 170.888 -0.0736607 0.73331 0
M  V30 1775 H 173.53 0.506581 1.83122 0
M  V30 1776 H 171.68 -1.09272 3.72816 0
M  V30 1777 H 173.352 1.43307 4.38476 0
M  V30 1778 H 171.595 1.41344 4.10127 0
M  V30 1779 H 172.266 0.555947 5.49193 0
M  V30 1780 H 174.742 -0.765867 4.08991 0
M  V30 1781 H 173.618 -1.44352 5.29579 0
M  V30 1782 H 173.879 -2.29236 3.78026 0
M  V30 1783 N 172.938 -1.57226 0.108567 0
M  V30 1784 C 173.888 -2.11305 -0.856396 0
M  V30 1785 C 174.872 -1.03129 -1.23504 0
M  V30 1786 O 176.064 -1.29381 -1.20787 0
M  V30 1787 C 173.193 -2.70771 -2.11041 0
M  V30 1788 C 172.279 -3.86011 -1.7566 0
M  V30 1789 N 172.67 -4.93492 -1.10902 0
M  V30 1790 C 170.968 -3.95999 -2.05185 0
M  V30 1791 C 171.669 -5.73984 -0.944308 0
M  V30 1792 N 170.645 -5.2346 -1.46596 0
M  V30 1793 H 174.447 -2.91784 -0.352002 0
M  V30 1794 H 171.961 -1.62126 -0.0942324 0
M  V30 1795 H 173.958 -3.07851 -2.81128 0
M  V30 1796 H 172.618 -1.91751 -2.62034 0
M  V30 1797 H 173.629 -5.1208 -0.774235 0
M  V30 1798 H 170.306 -3.28007 -2.58298 0
M  V30 1799 H 171.696 -6.70479 -0.436813 0
M  V30 1800 N 174.416 0.165178 -1.56732 0
M  V30 1801 C 175.641 0.900253 -1.86843 0
M  V30 1802 C 176.066 1.74766 -0.695596 0
M  V30 1803 O 175.424 1.77786 0.35522 0
M  V30 1804 C 175.472 1.74777 -3.15413 0
M  V30 1805 O 174.576 2.85007 -2.98068 0
M  V30 1806 H 173.917 0.251832 -0.614391 0
M  V30 1807 H 176.447 0.161468 -2.03962 0
M  V30 1808 H 176.457 2.14646 -3.46974 0
M  V30 1809 H 175.132 1.12537 -4.00385 0
M  V30 1810 H 173.709 2.48676 -2.77875 0
M  V30 1811 N 175.894 1.51508 0.433938 0
M  V30 1812 C 176.842 1.73646 1.54757 0
M  V30 1813 C 177.836 0.602854 1.5831 0
M  V30 1814 O 179.042 0.784318 1.62014 0
M  V30 1815 H 175.417 0.548718 0.51421 0
M  V30 1816 H 177.388 2.66991 1.33261 0
M  V30 1817 C 176.137 1.88172 2.92381 0
M  V30 1818 H 175.46 2.74808 2.90381 0
M  V30 1819 H 176.9 2.07672 3.6966 0
M  V30 1820 C 175.359 0.64239 3.30719 0
M  V30 1821 O 175.889 -0.201362 4.01195 0
M  V30 1822 N 174.095 0.485489 2.86516 0
M  V30 1823 H 173.642 1.17318 2.29334 0
M  V30 1824 H 173.6 -0.342482 3.12529 0
M  V30 1825 N 177.372 -0.689602 1.41712 0
M  V30 1826 C 178.649 -1.44457 1.31877 0
M  V30 1827 C 179.029 -2.11039 -0.0508537 0
M  V30 1828 O 178.377 -2.02138 -1.06547 0
M  V30 1829 C 178.587 -2.45913 2.47645 0
M  V30 1830 C 179.935 -3.10991 2.89084 0
M  V30 1831 O 180.959 -2.56238 2.47428 0
M  V30 1832 O 179.818 -4.10174 3.61137 0
M  V30 1833 H 176.912 -0.64362 0.519309 0
M  V30 1834 H 179.458 -0.719576 1.53689 0
M  V30 1835 H 178.23 -1.95409 3.39015 0
M  V30 1836 H 177.853 -3.25913 2.27742 0
M  V30 1837 N 178.85 -1.27639 -0.924453 0
M  V30 1838 C 180.127 -1.04887 -1.651 0
M  V30 1839 C 180.507 0.415327 -2.06974 0
M  V30 1840 O 179.855 1.39923 -1.80648 0
M  V30 1841 C 180.065 -2.01348 -2.85061 0
M  V30 1842 C 181.413 -2.30899 -3.56329 0
M  V30 1843 O 182.437 -1.99348 -2.95193 0
M  V30 1844 O 181.296 -2.84699 -4.66485 0
M  V30 1845 H 178.39 -0.400083 -0.723784 0
M  V30 1846 H 180.936 -1.38916 -0.974703 0
M  V30 1847 H 179.708 -3.0008 -2.51133 0
M  V30 1848 H 179.331 -1.679 -3.6041 0
M  V30 1849 N 180.328 1.1314 -1.09713 0
M  V30 1850 C 181.558 1.88048 -0.855656 0
M  V30 1851 C 181.966 1.79537 0.596919 0
M  V30 1852 O 181.309 1.16196 1.42282 0
M  V30 1853 C 181.371 3.38314 -1.21589 0
M  V30 1854 C 181.035 3.70605 -2.67397 0
M  V30 1855 C 182.032 3.69596 -3.65643 0
M  V30 1856 C 179.717 4.0017 -3.03593 0
M  V30 1857 C 181.711 3.977 -4.9811 0
M  V30 1858 C 179.398 4.27935 -4.36251 0
M  V30 1859 C 180.396 4.26685 -5.33318 0
M  V30 1860 O 180.084 4.53767 -6.63589 0
M  V30 1861 H 179.816 0.60208 -0.307368 0
M  V30 1862 H 182.37 1.44128 -1.46343 0
M  V30 1863 H 180.6 3.82752 -0.551177 0
M  V30 1864 H 182.289 3.94552 -0.953083 0
M  V30 1865 H 183.055 3.46826 -3.39023 0
M  V30 1866 H 178.934 4.00289 -2.2867 0
M  V30 1867 H 182.478 3.9664 -5.73866 0
M  V30 1868 H 178.375 4.50178 -4.62613 0
M  V30 1869 H 179.143 4.71422 -6.69107 0
M  V30 1870 N 181.806 0.884767 1.30421 0
M  V30 1871 C 183.053 0.503105 1.96151 0
M  V30 1872 C 183.381 -0.947676 1.69851 0
M  V30 1873 O 182.636 -1.68467 0.995861 0
M  V30 1874 C 182.935 0.724318 3.49983 0
M  V30 1875 C 182.601 2.15015 3.96332 0
M  V30 1876 C 181.263 2.54005 4.08699 0
M  V30 1877 C 183.615 3.07936 4.20505 0
M  V30 1878 C 180.943 3.85128 4.42599 0
M  V30 1879 C 183.295 4.3859 4.55874 0
M  V30 1880 C 181.959 4.77474 4.66449 0
M  V30 1881 H 181.229 0.184099 0.717766 0
M  V30 1882 H 183.876 1.12058 1.55291 0
M  V30 1883 H 182.181 0.0238086 3.91793 0
M  V30 1884 H 183.878 0.408617 3.98913 0
M  V30 1885 H 180.468 1.8375 3.87213 0
M  V30 1886 H 184.652 2.79033 4.10431 0
M  V30 1887 H 179.908 4.14996 4.48986 0
M  V30 1888 H 184.082 5.10629 4.7353 0
M  V30 1889 H 181.709 5.79115 4.92473 0
M  V30 1890 N 183.284 -1.43765 0.645699 0
M  V30 1891 C 184.194 -2.34544 -0.0512957 0
M  V30 1892 C 185.21 -1.53455 -0.82022 0
M  V30 1893 O 186.386 -1.86133 -0.769176 0
M  V30 1894 C 183.451 -3.31636 -1.01087 0
M  V30 1895 C 182.512 -4.2863 -0.239712 0
M  V30 1896 C 181.745 -5.21084 -1.15358 0
M  V30 1897 O 181.968 -5.1779 -2.39269 0
M  V30 1898 O 180.902 -5.98593 -0.630038 0
M  V30 1899 H 184.728 -2.95624 0.695718 0
M  V30 1900 H 182.313 -1.43781 0.405882 0
M  V30 1901 H 184.195 -3.9136 -1.56254 0
M  V30 1902 H 182.87 -2.73069 -1.73824 0
M  V30 1903 H 181.777 -3.72408 0.355356 0
M  V30 1904 H 183.11 -4.90157 0.447936 0
M  V30 1905 N 184.763 -0.387143 -1.52771 0
M  V30 1906 C 186.009 0.196025 -2.0185 0
M  V30 1907 C 186.342 1.46641 -1.27319 0
M  V30 1908 O 185.617 1.90889 -0.373032 0
M  V30 1909 C 185.9 0.466136 -3.5707 0
M  V30 1910 C 185.753 -0.819385 -4.42274 0
M  V30 1911 C 187.072 1.25768 -4.21747 0
M  V30 1912 H 184.191 0.0697708 -0.73369 0
M  V30 1913 H 186.833 -0.516286 -1.82851 0
M  V30 1914 H 184.983 1.07293 -3.7339 0
M  V30 1915 H 186.655 -1.4563 -4.37709 0
M  V30 1916 H 184.898 -1.43517 -4.09372 0
M  V30 1917 H 185.569 -0.585065 -5.48891 0
M  V30 1918 H 188.045 0.744167 -4.09391 0
M  V30 1919 H 186.921 1.41541 -5.30337 0
M  V30 1920 H 187.182 2.27228 -3.79236 0
M  V30 1921 N 186.241 1.57166 -0.116904 0
M  V30 1922 C 187.49 1.94298 0.541407 0
M  V30 1923 C 187.803 1.00236 1.67964 0
M  V30 1924 O 189.009 1.26826 2.40057 0
M  V30 1925 C 187.465 3.45306 1.01449 0
M  V30 1926 C 187.073 4.47899 -0.0951738 0
M  V30 1927 C 188.817 3.91361 1.6443 0
M  V30 1928 C 186.724 5.90083 0.394491 0
M  V30 1929 H 185.654 0.725308 0.206019 0
M  V30 1930 H 188.305 1.82446 -0.196419 0
M  V30 1931 H 186.687 3.52385 1.80667 0
M  V30 1932 H 187.861 4.52486 -0.871374 0
M  V30 1933 H 186.176 4.11583 -0.631505 0
M  V30 1934 H 188.773 4.95004 2.02176 0
M  V30 1935 H 189.116 3.3122 2.52189 0
M  V30 1936 H 189.649 3.87073 0.917559 0
M  V30 1937 H 186.388 6.53974 -0.447004 0
M  V30 1938 H 185.908 5.88921 1.13722 0
M  V30 1939 H 187.587 6.41307 0.856399 0
M  V30 1940 N 187.719 -0.156864 1.56817 0
M  V30 1941 C 188.996 -0.899244 1.73704 0
M  V30 1942 C 189.376 -1.99771 0.682254 0
M  V30 1943 O 188.724 -2.26515 -0.300522 0
M  V30 1944 C 188.934 -1.45075 3.17418 0
M  V30 1945 C 190.282 -1.91802 3.7881 0
M  V30 1946 O 191.306 -1.54838 3.20786 0
M  V30 1947 O 190.165 -2.5994 4.80722 0
M  V30 1948 H 187.259 -0.424267 0.709878 0
M  V30 1949 H 189.805 -0.143561 1.69092 0
M  V30 1950 H 188.577 -0.660846 3.85679 0
M  V30 1951 H 188.2 -2.27021 3.26416 0
M  V30 1952 N 189.197 -1.51736 -0.425897 0
M  V30 1953 C 190.444 -1.6497 -1.17436 0
M  V30 1954 C 190.772 -0.371445 -1.9092 0
M  V30 1955 O 190.027 0.644963 -1.84767 0
M  V30 1956 C 190.326 -2.81103 -2.20717 0
M  V30 1957 C 189.992 -4.19954 -1.64162 0
M  V30 1958 C 188.654 -4.57725 -1.48462 0
M  V30 1959 C 191.006 -5.06552 -1.22696 0
M  V30 1960 C 188.334 -5.79789 -0.897873 0
M  V30 1961 C 190.686 -6.29205 -0.654464 0
M  V30 1962 C 189.35 -6.6574 -0.484456 0
M  V30 1963 H 188.62 -0.603668 -0.429727 0
M  V30 1964 H 191.267 -1.85798 -0.463829 0
M  V30 1965 H 189.572 -2.54542 -2.97852 0
M  V30 1966 H 191.269 -2.8854 -2.78471 0
M  V30 1967 H 187.859 -3.90181 -1.77361 0
M  V30 1968 H 192.043 -4.77968 -1.33642 0
M  V30 1969 H 187.299 -6.06733 -0.75402 0
M  V30 1970 H 191.473 -6.95643 -0.324694 0
M  V30 1971 H 189.1 -7.60195 -0.0276833 0
M  V30 1972 N 190.675 0.682077 -1.42076 0
M  V30 1973 C 191.638 1.77756 -1.44691 0
M  V30 1974 C 192.638 1.5726 -0.335535 0
M  V30 1975 O 193.828 1.63686 -0.596037 0
M  V30 1976 C 190.96 3.16301 -1.27146 0
M  V30 1977 H 192.153 1.76826 -2.42224 0
M  V30 1978 H 189.706 0.891012 -1.28416 0
M  V30 1979 H 190.441 3.22862 -0.305075 0
M  V30 1980 H 190.226 3.32581 -2.07683 0
M  V30 1981 H 191.716 3.96241 -1.31843 0
M  V30 1982 N 192.153 1.28127 0.917671 0
M  V30 1983 C 193.378 1.18007 1.70555 0
M  V30 1984 C 193.803 -0.258257 1.86319 0
M  V30 1985 O 193.161 -1.1869 1.37049 0
M  V30 1986 C 193.209 1.87948 3.07746 0
M  V30 1987 O 192.313 1.18427 3.9503 0
M  V30 1988 H 191.654 0.409867 0.522403 0
M  V30 1989 H 194.184 1.69379 1.1477 0
M  V30 1990 H 194.194 1.95701 3.58001 0
M  V30 1991 H 192.869 2.92573 2.95591 0
M  V30 1992 H 191.446 1.18811 3.53466 0
M  V30 1993 N 193.631 -1.12557 1.10312 0
M  V30 1994 C 194.908 -1.80363 0.756878 0
M  V30 1995 C 195.288 -1.97067 -0.756824 0
M  V30 1996 O 194.636 -1.54601 -1.68259 0
M  V30 1997 C 194.846 -3.14812 1.50647 0
M  V30 1998 C 196.194 -3.90029 1.67817 0
M  V30 1999 O 197.218 -3.24464 1.46974 0
M  V30 2000 O 196.077 -5.07652 2.02365 0
M  V30 2001 H 193.171 -0.780667 0.272926 0
M  V30 2002 H 195.717 -1.19404 1.20586 0
M  V30 2003 H 194.489 -2.97936 2.53672 0
M  V30 2004 H 194.112 -3.83478 1.05026 0
M  V30 2005 N 195.109 -0.891671 -1.2995 0
M  V30 2006 C 196.072 -0.36828 -2.26222 0
M  V30 2007 C 197.072 0.493014 -1.53056 0
M  V30 2008 O 198.262 0.299213 -1.71611 0
M  V30 2009 C 195.394 0.47442 -3.37583 0
M  V30 2010 H 196.587 -1.21844 -2.74033 0
M  V30 2011 H 194.14 -0.669107 -1.41254 0
M  V30 2012 H 194.875 1.34489 -2.95099 0
M  V30 2013 H 194.66 -0.142615 -3.91841 0
M  V30 2014 H 196.15 0.83218 -4.09224 0
M  V30 2015 N 196.587 1.43421 -0.653314 0
M  V30 2016 C 197.815 2.06163 -0.174491 0
M  V30 2017 C 198.23 1.48969 1.1599 0
M  V30 2018 O 197.587 0.621042 1.71608 0
M  V30 2019 C 197.638 3.61417 -0.0774865 0
M  V30 2020 O 197.359 4.16485 -1.35912 0
M  V30 2021 C 198.86 4.41235 0.427402 0
M  V30 2022 H 196.08 0.664946 -0.0899353 0
M  V30 2023 H 198.624 1.83924 -0.893988 0
M  V30 2024 H 196.779 3.82841 0.59257 0
M  V30 2025 H 197.193 5.10153 -1.21839 0
M  V30 2026 H 198.667 5.5021 0.44423 0
M  V30 2027 H 199.144 4.14268 1.45873 0
M  V30 2028 H 199.75 4.2478 -0.210167 0
M  V30 2029 N 198.065 0.39524 1.52563 0
M  V30 2030 C 199.314 -0.186321 2.00838 0
M  V30 2031 C 199.627 -1.47402 1.28577 0
M  V30 2032 O 200.833 -2.13599 1.67593 0
M  V30 2033 C 199.289 -0.382595 3.57861 0
M  V30 2034 C 198.897 0.892202 4.39026 0
M  V30 2035 C 200.641 -0.9202 4.14406 0
M  V30 2036 C 198.548 0.66388 5.87662 0
M  V30 2037 H 197.478 -0.0734041 0.750418 0
M  V30 2038 H 200.129 0.518552 1.76021 0
M  V30 2039 H 198.511 -1.14946 3.7895 0
M  V30 2040 H 199.685 1.66414 4.29701 0
M  V30 2041 H 198 1.35519 3.9373 0
M  V30 2042 H 200.597 -1.10683 5.23119 0
M  V30 2043 H 200.94 -1.89096 3.70875 0
M  V30 2044 H 201.473 -0.212751 3.97231 0
M  V30 2045 H 198.212 1.6058 6.35527 0
M  V30 2046 H 197.732 -0.0690193 5.9976 0
M  V30 2047 H 199.411 0.300699 6.46301 0
M  V30 2048 N 199.544 -1.57102 0.125237 0
M  V30 2049 C 200.772 -1.99761 -0.538797 0
M  V30 2050 C 201.187 -1.00503 -1.59827 0
M  V30 2051 O 200.544 0.00119474 -1.825 0
M  V30 2052 C 200.595 -3.42408 -1.15927 0
M  V30 2053 O 200.316 -4.37869 -0.142143 0
M  V30 2054 C 201.817 -4.00232 -1.90602 0
M  V30 2055 H 199.037 -0.655772 -0.14214 0
M  V30 2056 H 201.581 -2.03383 0.213413 0
M  V30 2057 H 199.736 -3.39706 -1.86223 0
M  V30 2058 H 200.15 -5.21128 -0.593775 0
M  V30 2059 H 201.624 -5.02105 -2.29335 0
M  V30 2060 H 202.101 -3.39721 -2.78363 0
M  V30 2061 H 202.707 -4.06499 -1.25055 0
M  V30 2062 N 201.022 0.148545 -1.56898 0
M  V30 2063 C 202.299 0.890019 -1.74178 0
M  V30 2064 C 202.679 1.99407 -0.692839 0
M  V30 2065 O 202.027 2.26671 0.288505 0
M  V30 2066 C 202.237 1.43389 -3.18183 0
M  V30 2067 C 203.585 1.89791 -3.79822 0
M  V30 2068 O 204.609 1.53134 -3.21603 0
M  V30 2069 O 203.468 2.57387 -4.82093 0
M  V30 2070 H 200.562 0.420496 -0.712118 0
M  V30 2071 H 203.108 0.134591 -1.69165 0
M  V30 2072 H 201.88 0.640383 -3.86024 0
M  V30 2073 H 201.503 2.25287 -3.27615 0
M  V30 2074 N 202.5 1.5196 0.417844 0
M  V30 2075 C 203.916 1.40569 0.755816 0
M  V30 2076 C 204.116 0.503316 1.95113 0
M  V30 2077 O 203.172 -0.0341925 2.52477 0
M  V30 2078 C 204.485 2.82947 1.01791 0
M  V30 2079 C 206.033 2.92231 1.12116 0
M  V30 2080 C 206.508 4.35559 1.41608 0
M  V30 2081 N 207.999 4.38753 1.48491 0
M  V30 2082 C 208.734 5.46705 1.7292 0
M  V30 2083 N 208.23 6.64788 1.95011 0
M  V30 2084 N 210.023 5.34209 1.74863 0
M  V30 2085 H 202.174 2.09168 -0.369098 0
M  V30 2086 H 204.437 0.942409 -0.102809 0
M  V30 2087 H 204.143 3.5106 0.212081 0
M  V30 2088 H 204.017 3.23462 1.94042 0
M  V30 2089 H 206.404 2.24304 1.9176 0
M  V30 2090 H 206.485 2.55185 0.177225 0
M  V30 2091 H 206.129 5.04042 0.624848 0
M  V30 2092 H 206.059 4.70133 2.37239 0
M  V30 2093 H 208.55 3.5363 1.33244 0
M  V30 2094 H 208.863 7.42845 2.13076 0
M  V30 2095 H 207.208 6.67869 1.92293 0
M  V30 2096 H 210.399 4.40937 1.57137 0
M  V30 2097 H 210.572 6.18415 1.93563 0
M  V30 2098 N 203.978 -0.674533 1.42435 0
M  V30 2099 C 204.926 -1.80934 1.46169 0
M  V30 2100 C 205.92 -1.66006 0.3374 0
M  V30 2101 O 207.126 -1.72611 0.510425 0
M  V30 2102 H 203.501 -0.596594 0.457798 0
M  V30 2103 H 205.472 -1.74903 2.41767 0
M  V30 2104 C 204.221 -3.19088 1.38123 0
M  V30 2105 H 203.544 -3.31203 2.23931 0
M  V30 2106 H 204.984 -3.9851 1.44797 0
M  V30 2107 C 203.443 -3.36763 0.0960517 0
M  V30 2108 O 203.973 -3.92581 -0.851073 0
M  V30 2109 N 202.179 -2.90597 0.0131186 0
M  V30 2110 H 201.726 -2.45359 0.784639 0
M  V30 2111 H 201.684 -3.028 -0.846133 0
M  V30 2112 N 205.456 -1.28612 -0.910864 0
M  V30 2113 C 206.704 -1.15705 -1.65701 0
M  V30 2114 C 207.025 0.29416 -1.92769 0
M  V30 2115 O 206.295 1.20331 -1.54588 0
M  V30 2116 H 204.875 -0.425216 -0.614167 0
M  V30 2117 H 207.537 -1.61381 -1.0928 0
M  V30 2118 H 206.633 -1.6988 -2.61815 0
M  V30 2119 N 206.934 1.1197 -1.10907 0
M  V30 2120 C 207.881 2.17846 -0.762345 0
M  V30 2121 C 208.851 1.63995 0.263599 0
M  V30 2122 O 210.036 1.90273 0.141773 0
M  V30 2123 C 207.176 3.44487 -0.205651 0
M  V30 2124 C 206.289 4.12369 -1.28748 0
M  V30 2125 C 205.424 5.26674 -0.691919 0
M  V30 2126 C 204.463 5.86431 -1.75399 0
M  V30 2127 N 203.6 6.92142 -1.17833 0
M  V30 2128 H 208.44 2.46851 -1.6694 0
M  V30 2129 H 205.977 1.21188 -0.833776 0
M  V30 2130 H 207.935 4.16981 0.135037 0
M  V30 2131 H 206.565 3.15884 0.664613 0
M  V30 2132 H 205.617 3.38003 -1.74522 0
M  V30 2133 H 206.929 4.52844 -2.09125 0
M  V30 2134 H 206.083 6.05953 -0.300963 0
M  V30 2135 H 204.822 4.8749 0.143232 0
M  V30 2136 H 203.827 5.05835 -2.15432 0
M  V30 2137 H 205.052 6.27685 -2.59208 0
M  V30 2138 H 202.998 6.54985 -0.364725 0
M  V30 2139 H 202.915 7.31242 -1.91887 0
M  V30 2140 H 204.183 7.75237 -0.81408 0
M  V30 2141 N 208.412 0.89855 1.29475 0
M  V30 2142 C 209.658 0.524658 1.95896 0
M  V30 2143 C 209.991 -0.926468 1.70676 0
M  V30 2144 O 209.266 -1.65665 1.01908 0
M  V30 2145 C 209.549 0.81633 3.50725 0
M  V30 2146 C 209.402 2.31907 3.85408 0
M  V30 2147 C 210.721 0.302038 4.39062 0
M  V30 2148 H 207.84 0.19209 0.711527 0
M  V30 2149 H 210.482 1.12502 1.53112 0
M  V30 2150 H 208.632 0.305369 3.87298 0
M  V30 2151 H 210.304 2.89949 3.58786 0
M  V30 2152 H 208.547 2.78027 3.32992 0
M  V30 2153 H 209.218 2.47373 4.93468 0
M  V30 2154 H 211.694 0.739551 4.09475 0
M  V30 2155 H 210.57 0.535331 5.46283 0
M  V30 2156 H 210.831 -0.797216 4.34853 0
M  V30 2157 N 209.89 -1.43072 0.660911 0
M  V30 2158 C 211.12 -2.05769 0.185153 0
M  V30 2159 C 211.528 -1.49668 -1.15742 0
M  V30 2160 O 210.871 -0.625649 -1.72717 0
M  V30 2161 C 210.933 -3.59489 0.0278237 0
M  V30 2162 C 210.597 -4.38212 1.2969 0
M  V30 2163 C 211.594 -4.69772 2.22734 0
M  V30 2164 C 209.279 -4.7809 1.54063 0
M  V30 2165 C 211.273 -5.40129 3.38437 0
M  V30 2166 C 208.96 -5.4819 2.70058 0
M  V30 2167 C 209.958 -5.79132 3.62071 0
M  V30 2168 O 209.646 -6.47798 4.76039 0
M  V30 2169 H 209.378 -0.669873 0.0908086 0
M  V30 2170 H 211.932 -1.84436 0.90402 0
M  V30 2171 H 210.162 -3.79426 -0.746489 0
M  V30 2172 H 211.851 -4.03862 -0.406275 0
M  V30 2173 H 212.617 -4.39476 2.05149 0
M  V30 2174 H 208.496 -4.53408 0.833215 0
M  V30 2175 H 212.04 -5.64198 4.10277 0
M  V30 2176 H 207.937 -5.77902 2.87574 0
M  V30 2177 H 208.705 -6.66283 4.75404 0
M  V30 2178 N 211.368 -0.403325 -1.52352 0
M  V30 2179 C 212.615 0.174347 -2.01748 0
M  V30 2180 C 212.943 1.45636 -1.2892 0
M  V30 2181 O 212.198 1.9193 -0.382258 0
M  V30 2182 C 212.497 0.474665 -3.54234 0
M  V30 2183 C 212.163 -0.717458 -4.45155 0
M  V30 2184 C 210.825 -1.04447 -4.69728 0
M  V30 2185 C 213.177 -1.51432 -4.98716 0
M  V30 2186 C 210.505 -2.16963 -5.45109 0
M  V30 2187 C 212.857 -2.6302 -5.75329 0
M  V30 2188 C 211.521 -2.96213 -5.98175 0
M  V30 2189 H 210.791 0.0637981 -0.738248 0
M  V30 2190 H 213.438 -0.543553 -1.83624 0
M  V30 2191 H 211.743 1.27406 -3.70506 0
M  V30 2192 H 213.44 0.934496 -3.89959 0
M  V30 2193 H 210.03 -0.452596 -4.26204 0
M  V30 2194 H 214.214 -1.27491 -4.79645 0
M  V30 2195 H 209.47 -2.43034 -5.61021 0
M  V30 2196 H 213.644 -3.25158 -6.15829 0
M  V30 2197 H 211.271 -3.83516 -6.56368 0
M  V30 2198 N 212.846 1.57033 -0.133567 0
M  V30 2199 C 213.809 2.14897 0.796995 0
M  V30 2200 C 214.809 1.0874 1.18458 0
M  V30 2201 O 215.999 1.34446 1.1077 0
M  V30 2202 C 213.131 2.70112 2.07973 0
M  V30 2203 H 214.324 2.98457 0.293873 0
M  V30 2204 H 211.877 1.55871 0.115787 0
M  V30 2205 H 212.612 1.9018 2.62682 0
M  V30 2206 H 212.397 3.47764 1.81115 0
M  V30 2207 H 213.887 3.14738 2.74462 0
M  V30 2208 N 214.325 -0.140222 1.56975 0
M  V30 2209 C 215.602 -0.880769 1.74648 0
M  V30 2210 C 215.982 -1.99036 0.703404 0
M  V30 2211 O 215.33 -2.26821 -0.27648 0
M  V30 2212 C 215.54 -1.417 3.18939 0
M  V30 2213 C 216.888 -1.87774 3.80823 0
M  V30 2214 O 217.912 -1.51427 3.2241 0
M  V30 2215 O 216.771 -2.54827 4.83452 0
M  V30 2216 H 213.865 -0.416713 0.714338 0
M  V30 2217 H 216.411 -0.125618 1.69234 0
M  V30 2218 H 215.183 -0.619902 3.86359 0
M  V30 2219 H 214.806 -2.23546 3.28805 0
M  V30 2220 N 215.803 -1.52179 -0.40978 0
M  V30 2221 C 216.75 -1.75475 -1.49924 0
M  V30 2222 C 217.72 -0.597175 -1.54994 0
M  V30 2223 O 218.905 -0.834655 -1.71575 0
M  V30 2224 C 216.045 -1.9107 -2.87378 0
M  V30 2225 C 215.158 -3.18717 -2.91622 0
M  V30 2226 C 214.293 -3.24747 -4.20372 0
M  V30 2227 C 213.332 -4.46598 -4.18588 0
M  V30 2228 N 212.469 -4.50025 -5.38908 0
M  V30 2229 H 217.309 -2.68458 -1.29361 0
M  V30 2230 H 214.846 -1.33024 -0.627934 0
M  V30 2231 H 216.804 -1.98096 -3.6717 0
M  V30 2232 H 215.434 -1.01469 -3.06437 0
M  V30 2233 H 214.486 -3.20866 -2.04326 0
M  V30 2234 H 215.798 -4.08544 -2.86169 0
M  V30 2235 H 214.952 -3.30841 -5.08556 0
M  V30 2236 H 213.691 -2.32857 -4.28519 0
M  V30 2237 H 212.696 -4.40652 -3.28794 0
M  V30 2238 H 213.921 -5.39783 -4.12081 0
M  V30 2239 H 211.867 -3.61017 -5.47725 0
M  V30 2240 H 211.784 -5.33697 -5.35447 0
M  V30 2241 H 213.052 -4.60347 -6.29048 0
M  V30 2242 N 217.281 0.66697 -1.42791 0
M  V30 2243 C 218.558 1.4234 -1.34159 0
M  V30 2244 C 218.938 2.11093 0.0172729 0
M  V30 2245 O 218.286 2.03808 1.03318 0
M  V30 2246 C 218.496 2.41942 -2.51526 0
M  V30 2247 C 219.844 3.06353 -2.93995 0
M  V30 2248 O 220.868 2.52269 -2.51473 0
M  V30 2249 O 219.727 4.04376 -3.67617 0
M  V30 2250 H 216.821 0.635277 -0.529483 0
M  V30 2251 H 219.367 0.695034 -1.54814 0
M  V30 2252 H 218.139 1.89991 -3.42081 0
M  V30 2253 H 217.762 3.22249 -2.32898 0
M  V30 2254 N 218.759 1.29093 0.90403 0
M  V30 2255 C 220.007 1.16583 1.65085 0
M  V30 2256 C 220.328 -0.283933 1.92922 0
M  V30 2257 O 219.598 -1.19509 1.55224 0
M  V30 2258 H 218.178 0.428467 0.611903 0
M  V30 2259 H 220.84 1.61959 1.08422 0
M  V30 2260 H 219.936 1.71266 2.6091 0
M  V30 2261 N 220.237 -1.11381 1.11499 0
M  V30 2262 C 221.462 -1.87475 0.887019 0
M  V30 2263 C 221.887 -1.79639 -0.557796 0
M  V30 2264 O 221.245 -1.15924 -1.39396 0
M  V30 2265 C 221.293 -3.34213 1.35403 0
M  V30 2266 O 220.397 -4.0903 0.526146 0
M  V30 2267 H 219.738 -0.582099 0.319463 0
M  V30 2268 H 222.268 -1.40785 1.48461 0
M  V30 2269 H 222.278 -3.8506 1.34881 0
M  V30 2270 H 220.953 -3.39232 2.40612 0
M  V30 2271 H 219.53 -3.68082 0.597522 0
M  V30 2272 N 221.715 -0.905404 -1.28997 0
M  V30 2273 C 222.961 -0.535039 -1.95615 0
M  V30 2274 C 223.294 0.917404 -1.71165 0
M  V30 2275 O 222.569 1.65123 -1.02785 0
M  V30 2276 C 222.852 -0.834918 -3.50287 0
M  V30 2277 C 222.705 -2.33948 -3.84172 0
M  V30 2278 C 224.024 -0.325318 -4.38896 0
M  V30 2279 H 221.143 -0.195861 -0.710498 0
M  V30 2280 H 223.785 -1.13313 -1.52513 0
M  V30 2281 H 221.935 -0.325904 -3.87131 0
M  V30 2282 H 223.607 -2.91847 -3.57243 0
M  V30 2283 H 221.85 -2.79789 -3.31513 0
M  V30 2284 H 222.521 -2.49987 -4.92149 0
M  V30 2285 H 224.997 -0.761256 -4.09077 0
M  V30 2286 H 223.873 -0.564295 -5.45992 0
M  V30 2287 H 224.134 0.774144 -4.35269 0
M  V30 2288 N 223.193 1.4272 -0.668489 0
M  V30 2289 C 224.421 2.05966 -0.196348 0
M  V30 2290 C 224.836 1.50191 1.14403 0
M  V30 2291 O 224.193 0.639208 1.7094 0
M  V30 2292 C 224.244 3.61314 -0.115815 0
M  V30 2293 O 223.965 4.1502 -1.40322 0
M  V30 2294 C 225.466 4.41663 0.380579 0
M  V30 2295 H 222.686 0.663954 -0.0969829 0
M  V30 2296 H 225.23 1.82966 -0.913446 0
M  V30 2297 H 223.385 3.83448 0.551931 0
M  V30 2298 H 223.799 5.08832 -1.27243 0
M  V30 2299 H 225.273 5.5065 0.385848 0
M  V30 2300 H 225.75 4.15792 1.41471 0
M  V30 2301 H 226.356 4.24534 -0.255209 0
M  V30 2302 N 224.671 0.411399 1.52136 0
M  V30 2303 C 225.601 -0.404015 2.29978 0
M  V30 2304 C 226.582 -1.04412 1.34284 0
M  V30 2305 O 227.767 -1.0527 1.63192 0
M  V30 2306 C 224.897 -1.5197 3.12286 0
M  V30 2307 C 223.851 -1.00448 4.16046 0
M  V30 2308 C 223.177 -2.21393 4.86712 0
M  V30 2309 C 224.477 -0.0569336 5.22269 0
M  V30 2310 H 226.171 0.245529 2.98392 0
M  V30 2311 H 223.717 0.119525 1.43503 0
M  V30 2312 H 225.67 -2.09715 3.6551 0
M  V30 2313 H 224.394 -2.19716 2.41646 0
M  V30 2314 H 223.053 -0.449421 3.63835 0
M  V30 2315 H 222.701 -2.87699 4.12599 0
M  V30 2316 H 222.401 -1.87571 5.56858 0
M  V30 2317 H 223.925 -2.7974 5.4275 0
M  V30 2318 H 225.339 -0.54325 5.7072 0
M  V30 2319 H 223.736 0.192594 5.99791 0
M  V30 2320 H 224.806 0.887663 4.76706 0
M  V30 2321 N 226.149 -1.5696 0.141893 0
M  V30 2322 C 227.56 -1.82797 -0.379776 0
M  V30 2323 C 227.911 -1.06033 -1.6508 0
M  V30 2324 O 227.036 -0.304011 -2.14254 0
M  V30 2325 C 227.631 -3.31578 -0.695802 0
M  V30 2326 C 226.19 -3.58014 -1.16201 0
M  V30 2327 C 225.337 -2.76699 -0.182455 0
M  V30 2328 H 228.288 -1.54406 0.366675 0
M  V30 2329 H 228.309 -3.47454 -1.55099 0
M  V30 2330 H 227.821 -3.87421 0.229449 0
M  V30 2331 H 225.922 -3.07553 -2.10338 0
M  V30 2332 H 226.035 -4.66501 -1.09151 0
M  V30 2333 H 224.399 -2.45618 -0.674072 0
M  V30 2334 H 225.182 -3.35311 0.736297 0
M  V30 2335 N 227.627 0.131896 -1.57047 0
M  V30 2336 C 228.855 0.856461 -1.88341 0
M  V30 2337 C 229.27 1.74042 -0.731757 0
M  V30 2338 O 228.627 1.80051 0.297945 0
M  V30 2339 C 228.678 1.70064 -3.18999 0
M  V30 2340 O 228.399 0.852278 -4.2973 0
M  V30 2341 C 229.9 2.53148 -3.63911 0
M  V30 2342 H 227.12 0.246885 -0.62393 0
M  V30 2343 H 229.664 0.120152 -2.04147 0
M  V30 2344 H 227.819 2.38984 -3.04902 0
M  V30 2345 H 228.233 1.43329 -5.04537 0
M  V30 2346 H 229.707 3.07931 -4.58129 0
M  V30 2347 H 230.184 3.29901 -2.89935 0
M  V30 2348 H 230.79 1.89492 -3.80753 0
M  V30 2349 N 229.106 1.52395 0.401703 0
M  V30 2350 C 230.038 1.72505 1.50912 0
M  V30 2351 C 231.051 0.605468 1.51122 0
M  V30 2352 O 232.24 0.880828 1.55254 0
M  V30 2353 C 229.34 1.75711 2.89791 0
M  V30 2354 C 228.513 3.04824 3.1369 0
M  V30 2355 C 227.572 2.99743 4.32482 0
M  V30 2356 O 226.598 3.73635 4.29402 0
M  V30 2357 N 227.8 2.18047 5.37992 0
M  V30 2358 H 230.565 2.68049 1.34052 0
M  V30 2359 H 228.126 1.50724 0.591084 0
M  V30 2360 H 230.118 1.69834 3.6734 0
M  V30 2361 H 228.688 0.876092 3.00072 0
M  V30 2362 H 227.908 3.2429 2.24119 0
M  V30 2363 H 229.196 3.90221 3.26504 0
M  V30 2364 H 228.594 1.57456 5.43345 0
M  V30 2365 H 227.151 2.18021 6.14256 0
M  V30 2366 N 230.584 -0.659388 1.43143 0
M  V30 2367 C 231.995 -1.24041 1.39537 0
M  V30 2368 C 232.346 -1.95963 0.0963364 0
M  V30 2369 O 231.471 -2.00892 -0.804438 0
M  V30 2370 C 232.066 -2.25601 2.52764 0
M  V30 2371 C 230.625 -2.79195 2.52443 0
M  V30 2372 C 229.772 -1.53743 2.30778 0
M  V30 2373 H 232.723 -0.451792 1.52133 0
M  V30 2374 H 232.744 -3.07651 2.23899 0
M  V30 2375 H 232.256 -1.73226 3.47296 0
M  V30 2376 H 230.357 -3.35649 1.61773 0
M  V30 2377 H 230.47 -3.2716 3.50004 0
M  V30 2378 H 228.834 -1.80869 1.79328 0
M  V30 2379 H 229.617 -1.03312 3.27386 0
M  V30 2380 N 232.062 -1.29571 -0.897171 0
M  V30 2381 C 233.308 -1.17863 -1.65034 0
M  V30 2382 C 233.641 0.268729 -1.92332 0
M  V30 2383 O 232.916 1.19378 -1.53555 0
M  V30 2384 C 233.199 -1.995 -2.99786 0
M  V30 2385 C 233.052 -3.5239 -2.79538 0
M  V30 2386 C 234.371 -1.82335 -4.00552 0
M  V30 2387 H 231.49 -0.429528 -0.598895 0
M  V30 2388 H 234.132 -1.59072 -1.03905 0
M  V30 2389 H 232.282 -1.64485 -3.51962 0
M  V30 2390 H 233.954 -3.97401 -2.34244 0
M  V30 2391 H 232.197 -3.77187 -2.14273 0
M  V30 2392 H 232.868 -4.04787 -3.75302 0
M  V30 2393 H 235.344 -2.12924 -3.57495 0
M  V30 2394 H 234.22 -2.41801 -4.92771 0
M  V30 2395 H 234.481 -0.779209 -4.35179 0
M  V30 2396 N 233.54 1.10788 -1.12088 0
M  V30 2397 C 234.472 2.16816 -0.743213 0
M  V30 2398 C 235.485 1.6119 0.228412 0
M  V30 2399 O 236.674 1.78497 0.0102931 0
M  V30 2400 C 233.774 3.38809 -0.0787313 0
M  V30 2401 C 232.947 4.23885 -1.0789 0
M  V30 2402 C 232.006 5.24334 -0.442713 0
M  V30 2403 O 231.032 5.58497 -1.09864 0
M  V30 2404 N 232.234 5.75079 0.791457 0
M  V30 2405 H 234.999 2.49825 -1.65552 0
M  V30 2406 H 232.56 1.26373 -1.012 0
M  V30 2407 H 234.552 4.03107 0.358766 0
M  V30 2408 H 233.122 3.03805 0.736275 0
M  V30 2409 H 232.342 3.55939 -1.69414 0
M  V30 2410 H 233.63 4.77562 -1.75533 0
M  V30 2411 H 233.028 5.49517 1.3434 0
M  V30 2412 H 231.585 6.4118 1.17183 0
M  V30 2413 N 235.018 0.912232 1.28515 0
M  V30 2414 C 235.928 0.404506 2.31086 0
M  V30 2415 C 236.944 -0.50707 1.66448 0
M  V30 2416 O 238.12 -0.393624 1.97516 0
M  V30 2417 C 235.185 -0.348572 3.44943 0
M  V30 2418 C 234.246 0.59604 4.25142 0
M  V30 2419 C 233.479 -0.121194 5.33562 0
M  V30 2420 O 233.702 -1.34317 5.5436 0
M  V30 2421 O 232.636 0.542716 5.99448 0
M  V30 2422 H 236.462 1.25579 2.76521 0
M  V30 2423 H 234.047 0.676998 1.33181 0
M  V30 2424 H 235.929 -0.77395 4.14232 0
M  V30 2425 H 234.604 -1.17571 3.01594 0
M  V30 2426 H 233.511 1.07079 3.58448 0
M  V30 2427 H 234.844 1.38995 4.72167 0
M  V30 2428 N 236.496 -1.42363 0.676048 0
M  V30 2429 C 237.743 -2.01522 0.19883 0
M  V30 2430 C 238.071 -1.53456 -1.19505 0
M  V30 2431 O 237.326 -0.727967 -1.81657 0
M  V30 2432 C 237.625 -3.56929 0.183431 0
M  V30 2433 C 237.291 -4.24431 1.52215 0
M  V30 2434 C 235.953 -4.42585 1.8887 0
M  V30 2435 C 238.305 -4.62459 2.40377 0
M  V30 2436 C 235.633 -4.96039 3.13309 0
M  V30 2437 C 237.985 -5.17294 3.64129 0
M  V30 2438 C 236.649 -5.33661 4.00951 0
M  V30 2439 H 235.919 -0.737419 0.0727571 0
M  V30 2440 H 238.566 -1.70531 0.871281 0
M  V30 2441 H 236.871 -3.87594 -0.572532 0
M  V30 2442 H 238.568 -4.00486 -0.203035 0
M  V30 2443 H 235.158 -4.10661 1.22701 0
M  V30 2444 H 239.342 -4.48105 2.13343 0
M  V30 2445 H 234.598 -5.06896 3.41857 0
M  V30 2446 H 238.772 -5.45704 4.32644 0
M  V30 2447 H 236.399 -5.74845 4.9745 0
M  V30 2448 N 237.974 -0.419461 -1.51915 0
M  V30 2449 C 238.904 0.391813 -2.30189 0
M  V30 2450 C 239.885 1.03699 -1.34836 0
M  V30 2451 O 241.07 1.04403 -1.63748 0
M  V30 2452 C 238.2 1.50312 -3.13087 0
M  V30 2453 C 237.154 0.9824 -4.16573 0
M  V30 2454 C 236.48 2.18809 -4.8788 0
M  V30 2455 C 237.78 0.0292356 -5.22292 0
M  V30 2456 H 239.474 -0.26135 -2.98257 0
M  V30 2457 H 237.02 -0.127134 -1.43438 0
M  V30 2458 H 238.973 2.07773 -3.66617 0
M  V30 2459 H 237.697 2.18431 -2.42807 0
M  V30 2460 H 236.356 0.430119 -3.64068 0
M  V30 2461 H 236.004 2.85507 -4.14119 0
M  V30 2462 H 235.704 1.84615 -5.57845 0
M  V30 2463 H 237.228 2.76858 -5.44226 0
M  V30 2464 H 238.642 0.512976 -5.71 0
M  V30 2465 H 237.039 -0.2244 -5.9968 0
M  V30 2466 H 238.109 -0.912931 -4.76228 0
M  V30 2467 N 239.452 1.56882 -0.150215 0
M  V30 2468 C 240.382 2.19935 0.784284 0
M  V30 2469 C 241.363 1.14854 1.25469 0
M  V30 2470 O 242.548 1.43209 1.31168 0
M  V30 2471 C 239.678 2.82349 2.02229 0
M  V30 2472 C 238.632 3.93285 1.68853 0
M  V30 2473 C 237.958 4.42649 2.99944 0
M  V30 2474 C 239.258 5.13904 0.932714 0
M  V30 2475 H 240.952 2.9828 0.258781 0
M  V30 2476 H 238.498 1.43473 0.123029 0
M  V30 2477 H 240.451 3.25126 2.68088 0
M  V30 2478 H 239.175 2.0134 2.57157 0
M  V30 2479 H 237.834 3.5113 1.05371 0
M  V30 2480 H 237.482 3.58458 3.52869 0
M  V30 2481 H 237.182 5.17476 2.78374 0
M  V30 2482 H 238.706 4.88099 3.66868 0
M  V30 2483 H 240.12 5.53506 1.49345 0
M  V30 2484 H 238.517 5.94515 0.81684 0
M  V30 2485 H 239.587 4.84842 -0.0749568 0
M  V30 2486 N 240.93 -0.123565 1.57115 0
M  V30 2487 C 242.155 -0.850398 1.89164 0
M  V30 2488 C 242.58 -1.7286 0.741688 0
M  V30 2489 O 241.938 -1.78665 -0.307958 0
M  V30 2490 C 241.986 -1.66353 3.19936 0
M  V30 2491 O 241.09 -2.77004 3.0552 0
M  V30 2492 H 240.431 -0.235454 0.620852 0
M  V30 2493 H 242.961 -0.107335 2.04318 0
M  V30 2494 H 242.971 -2.05372 3.52543 0
M  V30 2495 H 241.646 -1.01881 4.03228 0
M  V30 2496 H 240.223 -2.41221 2.84371 0
M  V30 2497 N 242.408 -1.52605 -0.393616 0
M  V30 2498 C 243.656 -1.67093 -1.13685 0
M  V30 2499 C 243.977 -0.411011 -1.90619 0
M  V30 2500 O 243.247 0.574491 -1.87287 0
M  V30 2501 H 241.827 -0.615923 -0.422668 0
M  V30 2502 H 244.489 -1.89704 -0.447039 0
M  V30 2503 H 243.585 -2.51922 -1.84232 0
M  V30 2504 N 243.887 0.651787 -1.4349 0
M  V30 2505 C 244.837 1.75783 -1.45205 0
M  V30 2506 C 245.821 1.57679 -0.320328 0
M  V30 2507 O 247.013 1.67767 -0.564211 0
M  V30 2508 C 244.142 3.14377 -1.3792 0
M  V30 2509 C 243.228 3.38023 -2.56127 0
M  V30 2510 N 243.619 3.32135 -3.81471 0
M  V30 2511 C 241.917 3.68747 -2.50882 0
M  V30 2512 C 242.618 3.55902 -4.60118 0
M  V30 2513 N 241.594 3.77783 -3.90872 0
M  V30 2514 H 245.396 1.69657 -2.39987 0
M  V30 2515 H 242.91 0.853508 -1.38163 0
M  V30 2516 H 244.907 3.93666 -1.37231 0
M  V30 2517 H 243.567 3.21683 -0.441596 0
M  V30 2518 H 244.578 3.11515 -4.13738 0
M  V30 2519 H 241.255 3.8316 -1.65816 0
M  V30 2520 H 242.645 3.57116 -5.69138 0
M  V30 2521 N 245.365 1.30045 0.890287 0
M  V30 2522 C 246.611 1.18737 1.64406 0
M  V30 2523 C 246.944 -0.258525 1.92472 0
M  V30 2524 O 246.219 -1.18562 1.54186 0
M  V30 2525 C 246.502 2.01087 2.98724 0
M  V30 2526 C 246.355 3.53867 2.77665 0
M  V30 2527 C 247.674 1.84457 3.9958 0
M  V30 2528 H 244.793 0.432698 0.596608 0
M  V30 2529 H 247.435 1.5962 1.0306 0
M  V30 2530 H 245.585 1.66349 3.51084 0
M  V30 2531 H 247.257 3.98637 2.32133 0
M  V30 2532 H 245.5 3.78318 2.12269 0
M  V30 2533 H 246.171 4.06772 3.7315 0
M  V30 2534 H 248.647 2.14817 3.56361 0
M  V30 2535 H 247.523 2.44411 4.91482 0
M  V30 2536 H 247.784 0.802276 4.3476 0
M  V30 2537 N 246.843 -1.10192 1.12674 0
M  V30 2538 C 248.259 -1.34235 0.863317 0
M  V30 2539 C 248.459 -1.95062 -0.505277 0
M  V30 2540 O 247.515 -2.19192 -1.25345 0
M  V30 2541 C 248.828 -2.2616 1.98172 0
M  V30 2542 C 250.376 -2.3969 2.0129 0
M  V30 2543 C 250.851 -3.34946 3.1237 0
M  V30 2544 N 252.342 -3.42515 3.11829 0
M  V30 2545 C 253.077 -4.16199 3.94419 0
M  V30 2546 N 252.573 -4.92747 4.87004 0
M  V30 2547 N 254.366 -4.11843 3.82547 0
M  V30 2548 H 246.517 -0.690798 2.00853 0
M  V30 2549 H 248.78 -0.366774 0.874174 0
M  V30 2550 H 248.486 -1.8868 2.96804 0
M  V30 2551 H 248.36 -3.26488 1.88906 0
M  V30 2552 H 250.747 -2.76438 1.03276 0
M  V30 2553 H 250.828 -1.39169 2.14629 0
M  V30 2554 H 250.472 -2.98923 4.10619 0
M  V30 2555 H 250.402 -4.35353 2.96269 0
M  V30 2556 H 252.893 -2.87926 2.44759 0
M  V30 2557 H 253.206 -5.46376 5.46528 0
M  V30 2558 H 251.551 -4.91862 4.91016 0
M  V30 2559 H 254.742 -3.51136 3.0955 0
M  V30 2560 H 254.915 -4.69007 4.47142 0
M  V30 2561 N 248.321 -0.919034 -1.28029 0
M  V30 2562 C 249.567 -0.555757 -1.95036 0
M  V30 2563 C 249.9 0.899198 -1.72128 0
M  V30 2564 O 249.175 1.64023 -1.04531 0
M  V30 2565 C 249.458 -0.872024 -3.49382 0
M  V30 2566 C 249.311 -2.3801 -3.81669 0
M  V30 2567 C 250.63 -0.37185 -4.38526 0
M  V30 2568 H 247.749 -0.203386 -0.708381 0
M  V30 2569 H 250.391 -1.14924 -1.51303 0
M  V30 2570 H 248.541 -0.366946 -3.86763 0
M  V30 2571 H 250.213 -2.9562 -3.54128 0
M  V30 2572 H 248.456 -2.83289 -3.28526 0
M  V30 2573 H 249.127 -2.55192 -4.8947 0
M  V30 2574 H 251.603 -0.804602 -4.08247 0
M  V30 2575 H 250.479 -0.622173 -5.45362 0
M  V30 2576 H 250.74 0.727934 -4.36066 0
M  V30 2577 N 249.799 1.42003 -0.683588 0
M  V30 2578 C 251.215 1.55625 -0.353976 0
M  V30 2579 C 251.415 1.66151 1.14 0
M  V30 2580 O 250.471 1.63329 1.92561 0
M  V30 2581 C 251.784 2.80171 -1.092 0
M  V30 2582 C 253.332 2.93954 -1.07518 0
M  V30 2583 C 253.807 4.21372 -1.79471 0
M  V30 2584 N 255.298 4.28303 -1.76381 0
M  V30 2585 C 256.033 5.25729 -2.28904 0
M  V30 2586 N 255.529 6.29254 -2.89846 0
M  V30 2587 N 257.322 5.17586 -2.19228 0
M  V30 2588 H 249.473 1.33415 -1.6527 0
M  V30 2589 H 251.736 0.64282 -0.696769 0
M  V30 2590 H 251.442 2.78561 -2.14701 0
M  V30 2591 H 251.316 3.7133 -0.662862 0
M  V30 2592 H 253.703 2.95086 -0.028475 0
M  V30 2593 H 253.784 2.04002 -1.54328 0
M  V30 2594 H 253.428 4.21001 -2.84114 0
M  V30 2595 H 253.358 5.10275 -1.30104 0
M  V30 2596 H 255.849 3.54119 -1.31939 0
M  V30 2597 H 256.162 6.99964 -3.27522 0
M  V30 2598 H 254.507 6.29791 -2.93919 0
M  V30 2599 H 257.698 4.35631 -1.71299 0
M  V30 2600 H 257.871 5.93348 -2.60466 0
M  V30 2601 N 251.277 0.427512 1.51691 0
M  V30 2602 C 252.688 -0.0378867 1.86662 0
M  V30 2603 C 253.039 -1.42819 1.34525 0
M  V30 2604 O 252.164 -2.05037 0.692014 0
M  V30 2605 C 252.759 -0.0755266 3.38716 0
M  V30 2606 C 251.318 -0.485309 3.73258 0
M  V30 2607 C 250.465 0.328399 2.75349 0
M  V30 2608 H 253.416 0.64379 1.45055 0
M  V30 2609 H 253.437 -0.887056 3.70016 0
M  V30 2610 H 252.949 0.936487 3.76632 0
M  V30 2611 H 251.05 -1.50329 3.40928 0
M  V30 2612 H 251.163 -0.21693 4.78609 0
M  V30 2613 H 249.527 -0.211905 2.53817 0
M  V30 2614 H 250.31 1.3391 3.16106 0
M  V30 2615 N 252.755 -1.56801 0.158532 0
M  V30 2616 C 253.985 -2.00568 -0.495583 0
M  V30 2617 C 254.393 -1.03774 -1.58201 0
M  V30 2618 O 253.736 -0.0285797 -1.83678 0
M  V30 2619 C 253.798 -3.40768 -1.14532 0
M  V30 2620 C 253.462 -4.56553 -0.202101 0
M  V30 2621 C 254.459 -5.16714 0.574675 0
M  V30 2622 C 252.144 -5.02197 -0.101648 0
M  V30 2623 C 254.138 -6.20939 1.43924 0
M  V30 2624 C 251.825 -6.06274 0.766508 0
M  V30 2625 C 252.823 -6.65515 1.53555 0
M  V30 2626 O 252.511 -7.67575 2.38922 0
M  V30 2627 H 252.243 -0.662893 -0.13247 0
M  V30 2628 H 254.797 -2.03829 0.253559 0
M  V30 2629 H 253.027 -3.34381 -1.94233 0
M  V30 2630 H 254.716 -3.6857 -1.70033 0
M  V30 2631 H 255.482 -4.82341 0.507167 0
M  V30 2632 H 251.361 -4.55807 -0.689994 0
M  V30 2633 H 254.905 -6.67107 2.03996 0
M  V30 2634 H 250.802 -6.40073 0.835266 0
M  V30 2635 H 251.57 -7.84844 2.32296 0
M  V30 2636 N 254.233 0.115231 -1.57178 0
M  V30 2637 C 255.18 1.14115 -2.00615 0
M  V30 2638 C 256.15 1.40939 -0.878941 0
M  V30 2639 O 257.335 1.52741 -1.14345 0
M  V30 2640 C 254.475 2.46156 -2.4187 0
M  V30 2641 C 253.588 2.26236 -3.68024 0
M  V30 2642 C 252.723 3.51534 -3.98243 0
M  V30 2643 C 251.762 3.26787 -5.17568 0
M  V30 2644 N 250.899 4.44298 -5.43639 0
M  V30 2645 H 255.739 0.763743 -2.88047 0
M  V30 2646 H 253.276 0.365615 -1.42484 0
M  V30 2647 H 255.234 3.23189 -2.63827 0
M  V30 2648 H 253.864 2.81783 -1.57475 0
M  V30 2649 H 252.916 1.40102 -3.5366 0
M  V30 2650 H 254.228 2.03929 -4.55208 0
M  V30 2651 H 253.382 4.36984 -4.20868 0
M  V30 2652 H 252.121 3.76876 -3.09541 0
M  V30 2653 H 251.126 2.39729 -4.94783 0
M  V30 2654 H 252.351 3.02812 -6.0785 0
M  V30 2655 H 250.297 4.69754 -4.57895 0
M  V30 2656 H 250.214 4.25109 -6.25154 0
M  V30 2657 H 251.482 5.3087 -5.70786 0
M  V30 2658 N 255.711 1.52812 0.385517 0
M  V30 2659 C 256.621 1.80766 1.49535 0
M  V30 2660 C 257.637 0.694651 1.59532 0
M  V30 2661 O 258.813 0.982611 1.75803 0
M  V30 2662 C 255.878 1.97381 2.85029 0
M  V30 2663 C 254.939 3.21295 2.84724 0
M  V30 2664 C 254.172 3.37108 4.13756 0
M  V30 2665 O 254.395 2.5765 5.08893 0
M  V30 2666 O 253.329 4.30378 4.20783 0
M  V30 2667 H 257.155 2.75015 1.28842 0
M  V30 2668 H 254.74 1.37946 0.573697 0
M  V30 2669 H 256.622 2.09996 3.65349 0
M  V30 2670 H 255.297 1.06322 3.05741 0
M  V30 2671 H 254.204 3.1412 2.03174 0
M  V30 2672 H 255.537 4.12212 2.68965 0
M  V30 2673 N 257.189 -0.644168 1.43834 0
M  V30 2674 C 258.136 -1.75671 1.49694 0
M  V30 2675 C 259.106 -1.6246 0.345809 0
M  V30 2676 O 260.291 -1.82573 0.554234 0
M  V30 2677 C 257.431 -3.13867 1.43463 0
M  V30 2678 C 256.544 -3.38147 2.6885 0
M  V30 2679 C 255.679 -4.66241 2.54544 0
M  V30 2680 C 254.718 -4.83657 3.75157 0
M  V30 2681 N 253.855 -6.03016 3.59605 0
M  V30 2682 H 258.695 -1.69998 2.44754 0
M  V30 2683 H 256.232 -0.829458 1.21484 0
M  V30 2684 H 258.19 -3.9377 1.37843 0
M  V30 2685 H 256.82 -3.18588 0.519783 0
M  V30 2686 H 255.872 -2.52276 2.84712 0
M  V30 2687 H 257.184 -3.46899 3.58417 0
M  V30 2688 H 256.338 -5.54285 2.46683 0
M  V30 2689 H 255.077 -4.59826 1.62516 0
M  V30 2690 H 254.082 -3.94046 3.83416 0
M  V30 2691 H 255.307 -4.91896 4.68204 0
M  V30 2692 H 253.253 -5.97715 2.7032 0
M  V30 2693 H 253.17 -6.12766 4.42779 0
M  V30 2694 H 254.438 -6.93657 3.55613 0
M  V30 2695 N 258.668 -1.30515 -0.883378 0
M  V30 2696 C 260.079 -1.17509 -1.45081 0
M  V30 2697 C 260.43 0.223605 -1.94922 0
M  V30 2698 O 259.555 1.12041 -1.85137 0
M  V30 2699 C 260.15 -2.12715 -2.63701 0
M  V30 2700 C 258.709 -2.03682 -3.16529 0
M  V30 2701 C 257.856 -2.02706 -1.89224 0
M  V30 2702 H 260.807 -1.42762 -0.693165 0
M  V30 2703 H 260.828 -1.70891 -3.39965 0
M  V30 2704 H 260.34 -3.14505 -2.27395 0
M  V30 2705 H 258.441 -1.05039 -3.57488 0
M  V30 2706 H 258.554 -2.92146 -3.7972 0
M  V30 2707 H 256.918 -1.4753 -2.07622 0
M  V30 2708 H 257.701 -3.06229 -1.55174 0
M  V30 2709 N 260.146 1.09593 -1.13257 0
M  V30 2710 C 261.395 1.81105 -0.887917 0
M  V30 2711 C 261.708 1.86563 0.587672 0
M  V30 2712 O 262.914 2.54367 0.949204 0
M  V30 2713 C 261.37 3.25338 -1.53895 0
M  V30 2714 C 260.978 3.28151 -3.04994 0
M  V30 2715 C 262.722 4.01617 -1.37492 0
M  V30 2716 C 260.629 4.66897 -3.6299 0
M  V30 2717 H 259.559 0.678661 -0.328534 0
M  V30 2718 H 262.21 1.23183 -1.36008 0
M  V30 2719 H 260.592 3.8331 -0.994446 0
M  V30 2720 H 261.766 2.79953 -3.66009 0
M  V30 2721 H 260.081 2.65361 -3.20893 0
M  V30 2722 H 262.678 5.04119 -1.78235 0
M  V30 2723 H 263.021 4.15072 -0.31957 0
M  V30 2724 H 263.554 3.50082 -1.88912 0
M  V30 2725 H 260.293 4.58643 -4.68323 0
M  V30 2726 H 259.813 5.15426 -3.06752 0
M  V30 2727 H 261.492 5.3587 -3.62563 0
M  V30 2728 N 261.624 0.925811 1.2754 0
M  V30 2729 C 262.556 0.380753 2.26015 0
M  V30 2730 C 263.569 -0.487485 1.5533 0
M  V30 2731 O 264.758 -0.300413 1.75954 0
M  V30 2732 C 261.858 -0.473259 3.35579 0
M  V30 2733 C 261.031 0.375249 4.35787 0
M  V30 2734 C 260.09 -0.415809 5.24555 0
M  V30 2735 O 259.116 0.175834 5.68928 0
M  V30 2736 N 260.318 -1.71607 5.54555 0
M  V30 2737 H 263.083 1.22725 2.73421 0
M  V30 2738 H 260.644 0.793037 1.41147 0
M  V30 2739 H 262.636 -1.00949 3.91907 0
M  V30 2740 H 261.206 -1.2205 2.87789 0
M  V30 2741 H 260.426 1.09279 3.7875 0
M  V30 2742 H 261.714 0.955399 4.99749 0
M  V30 2743 H 261.112 -2.2191 5.20358 0
M  V30 2744 H 259.669 -2.19887 6.1359 0
M  V30 2745 N 263.102 -1.41638 0.69111 0
M  V30 2746 C 264.05 -2.32597 0.0115199 0
M  V30 2747 C 265.044 -1.5072 -0.773296 0
M  V30 2748 O 266.25 -1.66685 -0.67942 0
M  V30 2749 H 262.625 -0.751849 -0.0150746 0
M  V30 2750 H 264.596 -2.87593 0.795791 0
M  V30 2751 C 263.345 -3.35467 -0.914172 0
M  V30 2752 H 262.668 -3.9852 -0.319687 0
M  V30 2753 H 264.108 -4.01662 -1.35808 0
M  V30 2754 C 262.567 -2.69004 -2.02826 0
M  V30 2755 O 263.097 -2.53444 -3.11655 0
M  V30 2756 N 261.303 -2.2777 -1.80469 0
M  V30 2757 H 260.85 -2.40626 -0.919615 0
M  V30 2758 H 260.808 -1.83635 -2.55197 0
M  V30 2759 N 264.58 -0.43555 -1.51462 0
M  V30 2760 C 265.512 0.41257 -2.25456 0
M  V30 2761 C 266.525 0.987822 -1.29406 0
M  V30 2762 O 267.714 0.882266 -1.55172 0
M  V30 2763 C 264.814 1.58894 -2.99342 0
M  V30 2764 C 263.987 1.13288 -4.22474 0
M  V30 2765 C 263.046 2.17917 -4.78956 0
M  V30 2766 O 262.072 1.77425 -5.40841 0
M  V30 2767 N 263.274 3.50382 -4.62832 0
M  V30 2768 H 266.039 -0.221603 -2.9888 0
M  V30 2769 H 263.6 -0.264342 -1.59727 0
M  V30 2770 H 265.592 2.28508 -3.34015 0
M  V30 2771 H 264.162 2.12849 -2.28941 0
M  V30 2772 H 263.382 0.263881 -3.93316 0
M  V30 2773 H 264.67 0.805542 -5.02383 0
M  V30 2774 H 264.068 3.86013 -4.13534 0
M  V30 2775 H 262.625 4.15895 -5.01871 0
M  V30 2776 N 266.058 1.56714 -0.166846 0
M  V30 2777 C 267.021 2.16539 0.751232 0
M  V30 2778 C 268.021 1.11228 1.16125 0
M  V30 2779 O 269.211 1.36765 1.07894 0
M  V30 2780 C 266.343 2.74462 2.02196 0
M  V30 2781 H 267.536 2.99013 0.230499 0
M  V30 2782 H 265.089 1.56081 0.0826982 0
M  V30 2783 H 265.824 1.95709 2.58589 0
M  V30 2784 H 265.609 3.51527 1.73698 0
M  V30 2785 H 267.099 3.20489 2.67725 0
M  V30 2786 N 267.536 -0.106894 1.57237 0
M  V30 2787 C 268.483 -1.13049 2.01217 0
M  V30 2788 C 269.453 -1.40471 0.886403 0
M  V30 2789 O 270.638 -1.52133 1.15153 0
M  V30 2790 C 267.778 -2.4487 2.43172 0
M  V30 2791 C 266.891 -2.24281 3.69218 0
M  V30 2792 C 266.026 -3.49417 4.00101 0
M  V30 2793 C 265.065 -3.24038 5.19294 0
M  V30 2794 N 264.202 -4.41409 5.45988 0
M  V30 2795 H 269.042 -0.748456 2.88448 0
M  V30 2796 H 266.579 -0.358054 1.42676 0
M  V30 2797 H 268.537 -3.21786 2.65537 0
M  V30 2798 H 267.167 -2.80944 1.58967 0
M  V30 2799 H 266.219 -1.38224 3.54398 0
M  V30 2800 H 267.531 -2.01512 4.56283 0
M  V30 2801 H 266.685 -4.34746 4.2318 0
M  V30 2802 H 265.424 -3.75229 3.11535 0
M  V30 2803 H 264.429 -2.37102 4.96047 0
M  V30 2804 H 265.654 -2.99584 6.09447 0
M  V30 2805 H 263.6 -4.67319 4.60379 0
M  V30 2806 H 263.517 -4.21788 6.274 0
M  V30 2807 H 264.785 -5.27836 5.73593 0
M  V30 2808 N 269.014 -1.53014 -0.377408 0
M  V30 2809 C 270.239 -1.72818 -1.14668 0
M  V30 2810 C 270.664 -0.450725 -1.8262 0
M  V30 2811 O 270.022 0.59439 -1.7128 0
M  V30 2812 C 270.07 -2.88627 -2.16164 0
M  V30 2813 O 269.174 -2.56409 -3.22998 0
M  V30 2814 H 268.515 -0.574301 -0.333278 0
M  V30 2815 H 271.045 -1.99853 -0.438152 0
M  V30 2816 H 271.055 -3.14455 -2.59966 0
M  V30 2817 H 269.73 -3.81294 -1.66095 0
M  V30 2818 H 268.307 -2.4136 -2.84253 0
M  V30 2819 N 270.492 0.636531 -1.44174 0
M  V30 2820 C 271.738 1.39826 -1.4689 0
M  V30 2821 C 272.071 1.93947 -0.0990585 0
M  V30 2822 O 271.346 1.73325 0.882544 0
M  V30 2823 C 271.629 2.56751 -2.5249 0
M  V30 2824 C 271.482 2.08014 -3.98811 0
M  V30 2825 C 272.801 3.58946 -2.54649 0
M  V30 2826 H 269.92 0.507075 -0.53483 0
M  V30 2827 H 272.562 0.720188 -1.75822 0
M  V30 2828 H 270.712 3.14597 -2.2795 0
M  V30 2829 H 272.384 1.5504 -4.34466 0
M  V30 2830 H 270.627 1.39242 -4.10846 0
M  V30 2831 H 271.298 2.92169 -4.68339 0
M  V30 2832 H 273.774 3.1089 -2.76563 0
M  V30 2833 H 272.65 4.38286 -3.3045 0
M  V30 2834 H 272.911 4.12655 -1.58646 0
M  V30 2835 N 271.97 1.30982 0.876444 0
M  V30 2836 C 273.247 1.10942 1.61094 0
M  V30 2837 C 273.627 -0.338223 2.08373 0
M  V30 2838 O 272.975 -1.33122 1.85717 0
M  V30 2839 C 273.185 2.11789 2.77392 0
M  V30 2840 C 274.533 2.43965 3.47514 0
M  V30 2841 O 275.557 2.10166 2.87591 0
M  V30 2842 O 274.416 3.01817 4.55597 0
M  V30 2843 H 271.51 0.42667 0.708436 0
M  V30 2844 H 274.056 1.42438 0.922474 0
M  V30 2845 H 272.828 3.09194 2.39823 0
M  V30 2846 H 272.451 1.81161 3.5393 0
M  V30 2847 N 273.449 -1.08991 1.13837 0
M  V30 2848 C 274.695 -1.81526 0.90422 0
M  V30 2849 C 275.028 -1.85706 -0.568066 0
M  V30 2850 O 274.303 -1.32855 -1.42056 0
M  V30 2851 C 274.586 -3.27447 1.49835 0
M  V30 2852 C 274.439 -3.31512 3.04006 0
M  V30 2853 C 275.758 -4.24256 1.17025 0
M  V30 2854 H 272.877 -0.659029 0.329923 0
M  V30 2855 H 275.519 -1.27644 1.40737 0
M  V30 2856 H 273.669 -3.73462 1.07044 0
M  V30 2857 H 275.341 -2.93867 3.55584 0
M  V30 2858 H 273.584 -2.70963 3.38765 0
M  V30 2859 H 274.255 -4.34329 3.40679 0
M  V30 2860 H 276.731 -3.86549 1.54009 0
M  V30 2861 H 275.607 -5.24684 1.61237 0
M  V30 2862 H 275.868 -4.42019 0.0846274 0
M  V30 2863 N 274.927 -0.932562 -1.27047 0
M  V30 2864 C 275.837 -0.441219 -2.30414 0
M  V30 2865 C 276.853 0.480525 -1.67233 0
M  V30 2866 O 278.029 0.362151 -1.98117 0
M  V30 2867 C 275.094 0.293651 -3.45454 0
M  V30 2868 C 274.155 -0.663601 -4.2414 0
M  V30 2869 C 273.388 0.0362932 -5.33688 0
M  V30 2870 O 273.611 1.2548 -5.56427 0
M  V30 2871 O 272.545 -0.638015 -5.98509 0
M  V30 2872 H 276.371 -1.29962 -2.74488 0
M  V30 2873 H 273.956 -0.6981 -1.32087 0
M  V30 2874 H 275.838 0.707951 -4.15411 0
M  V30 2875 H 274.513 1.12758 -3.03426 0
M  V30 2876 H 273.42 -1.12768 -3.56699 0
M  V30 2877 H 274.753 -1.46489 -4.69896 0
M  V30 2878 N 276.405 1.4127 -0.698611 0
M  V30 2879 C 277.635 2.05205 -0.239644 0
M  V30 2880 C 278.043 1.52684 1.11733 0
M  V30 2881 O 277.386 0.671222 1.70998 0
M  V30 2882 C 277.448 3.59289 -0.123126 0
M  V30 2883 C 277.112 4.34619 -1.41263 0
M  V30 2884 C 278.109 4.63701 -2.35111 0
M  V30 2885 C 275.794 4.73837 -1.66684 0
M  V30 2886 C 277.788 5.30966 -3.52639 0
M  V30 2887 C 275.475 5.40837 -2.84498 0
M  V30 2888 C 276.473 5.69329 -3.77298 0
M  V30 2889 O 276.161 6.34949 -4.93047 0
M  V30 2890 H 275.893 0.66723 -0.108537 0
M  V30 2891 H 278.447 1.81974 -0.952602 0
M  V30 2892 H 276.677 3.81272 0.645628 0
M  V30 2893 H 278.366 4.04797 0.299056 0
M  V30 2894 H 279.132 4.33882 -2.16729 0
M  V30 2895 H 275.011 4.51039 -0.953135 0
M  V30 2896 H 278.555 5.53121 -4.25091 0
M  V30 2897 H 274.452 5.70075 -3.02795 0
M  V30 2898 H 275.22 6.53445 -4.92902 0
M  V30 2899 N 277.883 0.443576 1.51229 0
M  V30 2900 C 279.111 -0.11929 2.06556 0
M  V30 2901 C 279.526 -1.35921 1.31038 0
M  V30 2902 O 278.883 -1.78675 0.371704 0
M  V30 2903 C 278.934 -0.435228 3.5887 0
M  V30 2904 O 278.655 0.755486 4.31537 0
M  V30 2905 C 280.156 -1.04808 4.30732 0
M  V30 2906 H 277.376 -0.0051584 0.67098 0
M  V30 2907 H 279.92 0.624453 1.94733 0
M  V30 2908 H 278.075 -1.12887 3.70588 0
M  V30 2909 H 278.489 0.483491 5.22267 0
M  V30 2910 H 279.963 -1.2191 5.3837 0
M  V30 2911 H 280.44 -2.03081 3.89429 0
M  V30 2912 H 281.046 -0.393637 4.23474 0
M  V30 2913 N 279.361 -1.56624 0.175154 0
M  V30 2914 C 280.607 -1.9729 -0.469506 0
M  V30 2915 C 280.94 -1.06128 -1.62636 0
M  V30 2916 O 280.215 -0.109183 -1.94193 0
M  V30 2917 C 280.498 -3.47375 -0.948804 0
M  V30 2918 C 280.351 -4.49317 0.208491 0
M  V30 2919 C 281.67 -4.00652 -1.82116 0
M  V30 2920 H 278.789 -0.717317 -0.16919 0
M  V30 2921 H 281.431 -1.88184 0.262062 0
M  V30 2922 H 279.581 -3.55267 -1.57219 0
M  V30 2923 H 281.253 -4.53482 0.845682 0
M  V30 2924 H 279.496 -4.25121 0.863395 0
M  V30 2925 H 280.167 -5.51741 -0.169059 0
M  V30 2926 H 282.643 -3.95416 -1.2956 0
M  V30 2927 H 281.519 -5.06075 -2.12554 0
M  V30 2928 H 281.78 -3.44699 -2.7683 0
M  V30 2929 N 280.839 0.0985539 -1.57292 0
M  V30 2930 C 281.771 1.14595 -1.98496 0
M  V30 2931 C 282.784 1.36512 -0.887031 0
M  V30 2932 O 283.973 1.35225 -1.16518 0
M  V30 2933 C 281.073 2.50216 -2.28572 0
M  V30 2934 C 280.246 2.48624 -3.59868 0
M  V30 2935 C 279.305 3.66146 -3.7792 0
M  V30 2936 O 278.331 3.48795 -4.49812 0
M  V30 2937 N 279.533 4.85496 -3.18235 0
M  V30 2938 H 282.298 0.795277 -2.88956 0
M  V30 2939 H 279.859 0.287579 -1.59325 0
M  V30 2940 H 281.851 3.27432 -2.37845 0
M  V30 2941 H 280.421 2.77387 -1.44136 0
M  V30 2942 H 279.641 1.56978 -3.61596 0
M  V30 2943 H 280.929 2.44635 -4.46129 0
M  V30 2944 H 280.327 5.02497 -2.59833 0
M  V30 2945 H 278.884 5.60317 -3.32999 0
M  V30 2946 N 282.317 1.53212 0.369288 0
M  V30 2947 C 283.564 1.69215 1.11232 0
M  V30 2948 C 283.892 0.442048 1.8941 0
M  V30 2949 O 283.147 -0.575944 1.87033 0
M  V30 2950 C 283.446 2.89101 2.10132 0
M  V30 2951 C 283.112 4.25758 1.48463 0
M  V30 2952 C 281.774 4.6292 1.31372 0
M  V30 2953 C 284.126 5.10757 1.03811 0
M  V30 2954 C 281.454 5.82722 0.68207 0
M  V30 2955 C 283.806 6.31201 0.420487 0
M  V30 2956 C 282.47 6.67079 0.237038 0
M  V30 2957 H 281.74 0.619201 0.407027 0
M  V30 2958 H 284.387 1.87391 0.394552 0
M  V30 2959 H 282.692 2.65421 2.88199 0
M  V30 2960 H 284.389 2.98676 2.6757 0
M  V30 2961 H 280.979 3.96494 1.62758 0
M  V30 2962 H 285.163 4.82599 1.1581 0
M  V30 2963 H 280.419 6.09113 0.528316 0
M  V30 2964 H 284.593 6.96368 0.0662874 0
M  V30 2965 H 282.22 7.59774 -0.254477 0
M  V30 2966 N 283.795 -0.628877 1.44509 0
M  V30 2967 C 285.023 -1.41554 1.50897 0
M  V30 2968 C 285.438 -1.8832 0.134564 0
M  V30 2969 O 284.795 -1.60969 -0.859965 0
M  V30 2970 C 284.846 -2.63435 2.47556 0
M  V30 2971 O 284.567 -2.18619 3.79654 0
M  V30 2972 C 286.068 -3.56537 2.63431 0
M  V30 2973 H 283.288 -0.434044 0.511709 0
M  V30 2974 H 285.832 -0.768895 1.89495 0
M  V30 2975 H 283.987 -3.24187 2.12089 0
M  V30 2976 H 284.401 -2.97652 4.31861 0
M  V30 2977 H 285.875 -4.38657 3.35088 0
M  V30 2978 H 286.352 -4.05493 1.68738 0
M  V30 2979 H 286.958 -3.01653 2.9981 0
M  V30 2980 N 285.273 -1.31445 -0.869486 0
M  V30 2981 C 286.684 -1.19042 -1.43826 0
M  V30 2982 C 287.035 0.202919 -1.95148 0
M  V30 2983 O 286.16 1.10071 -1.86315 0
M  V30 2984 C 286.755 -2.15499 -2.6143 0
M  V30 2985 C 285.314 -2.07028 -3.14351 0
M  V30 2986 C 284.461 -2.04701 -1.87063 0
M  V30 2987 H 287.412 -1.43489 -0.677984 0
M  V30 2988 H 287.433 -1.74488 -3.38134 0
M  V30 2989 H 286.945 -3.16899 -2.24046 0
M  V30 2990 H 285.046 -1.08825 -3.56354 0
M  V30 2991 H 285.159 -2.96157 -3.766 0
M  V30 2992 H 283.523 -1.49724 -2.06046 0
M  V30 2993 H 284.306 -3.07857 -1.51917 0
M  V30 2994 N 286.751 1.08385 -1.14413 0
M  V30 2995 C 287.681 2.17321 -0.854044 0
M  V30 2996 C 288.662 1.69024 0.191049 0
M  V30 2997 O 289.847 1.94141 0.0476779 0
M  V30 2998 C 286.977 3.45719 -0.330983 0
M  V30 2999 C 285.931 4.07409 -1.31155 0
M  V30 3000 C 285.257 5.30762 -0.64778 0
M  V30 3001 C 286.557 4.48665 -2.67388 0
M  V30 3002 H 288.251 2.41845 -1.76498 0
M  V30 3003 H 285.797 1.16233 -0.850051 0
M  V30 3004 H 287.75 4.21241 -0.115645 0
M  V30 3005 H 286.474 3.2075 0.615381 0
M  V30 3006 H 285.133 3.33919 -1.51306 0
M  V30 3007 H 284.781 5.02078 0.304398 0
M  V30 3008 H 284.481 5.72992 -1.30207 0
M  V30 3009 H 286.005 6.08998 -0.441972 0
M  V30 3010 H 287.419 5.15364 -2.51143 0
M  V30 3011 H 285.816 5.01814 -3.29093 0
M  V30 3012 H 286.886 3.60543 -3.24248 0
M  V30 3013 N 288.23 0.939286 1.26551 0
M  V30 3014 C 289.178 0.43815 2.28436 0
M  V30 3015 C 290.172 -0.483587 1.62351 0
M  V30 3016 O 291.378 -0.362009 1.76322 0
M  V30 3017 H 287.753 0.123149 0.741848 0
M  V30 3018 H 289.724 1.31002 2.68106 0
M  V30 3019 C 288.473 -0.283052 3.46546 0
M  V30 3020 H 287.796 0.417043 3.97619 0
M  V30 3021 H 289.236 -0.597948 4.19763 0
M  V30 3022 C 287.695 -1.50018 3.01656 0
M  V30 3023 O 288.225 -2.59855 3.0633 0
M  V30 3024 N 286.431 -1.35608 2.57019 0
M  V30 3025 H 285.978 -0.46244 2.53415 0
M  V30 3026 H 285.936 -2.17165 2.27347 0
M  V30 3027 N 289.708 -1.40897 0.706093 0
M  V30 3028 C 291.119 -1.84023 0.315052 0
M  V30 3029 C 291.47 -1.5906 -1.14866 0
M  V30 3030 O 290.595 -1.06651 -1.88293 0
M  V30 3031 C 291.19 -3.34055 0.565038 0
M  V30 3032 C 289.749 -3.7571 0.227806 0
M  V30 3033 C 288.896 -2.64204 0.842122 0
M  V30 3034 H 291.847 -1.303 0.905963 0
M  V30 3035 H 291.868 -3.80107 -0.172843 0
M  V30 3036 H 291.38 -3.52192 1.63042 0
M  V30 3037 H 289.481 -3.63172 -0.832895 0
M  V30 3038 H 289.594 -4.74103 0.690174 0
M  V30 3039 H 287.958 -2.53255 0.270893 0
M  V30 3040 H 288.741 -2.85155 1.91158 0
M  V30 3041 N 291.186 -0.45159 -1.50991 0
M  V30 3042 C 292.463 0.170707 -1.94854 0
M  V30 3043 C 292.843 1.58788 -1.39103 0
M  V30 3044 O 292.191 2.20913 -0.583921 0
M  V30 3045 C 292.401 0.133929 -3.48743 0
M  V30 3046 C 293.749 0.33248 -4.23296 0
M  V30 3047 O 294.773 0.211403 -3.55572 0
M  V30 3048 O 293.632 0.57486 -5.43468 0
M  V30 3049 H 290.726 0.122264 -0.817912 0
M  V30 3050 H 293.272 -0.510594 -1.61836 0
M  V30 3051 H 292.044 -0.856283 -3.81816 0
M  V30 3052 H 291.667 0.857529 -3.88242 0
M  V30 3053 N 292.664 1.56529 -0.183458 0
M  V30 3054 C 293.941 1.88959 0.50536 0
M  V30 3055 C 294.321 1.09523 1.80466 0
M  V30 3056 O 293.669 0.19278 2.27685 0
M  V30 3057 C 293.879 3.41162 0.73547 0
M  V30 3058 C 295.227 4.11155 1.06005 0
M  V30 3059 O 296.251 3.46548 0.823594 0
M  V30 3060 O 295.11 5.25318 1.50675 0
M  V30 3061 H 292.204 0.78441 0.261973 0
M  V30 3062 H 294.75 1.68231 -0.222802 0
M  V30 3063 H 293.522 3.90874 -0.182561 0
M  V30 3064 H 293.145 3.67543 1.51651 0
M  V30 3065 N 294.142 -0.090211 1.57342 0
M  V30 3066 C 295.419 -0.824761 1.77361 0
M  V30 3067 C 295.799 -1.96698 0.76637 0
M  V30 3068 O 295.147 -2.27586 -0.204179 0
M  V30 3069 C 295.357 -1.31481 3.23286 0
M  V30 3070 C 296.705 -1.75563 3.86604 0
M  V30 3071 O 297.729 -1.41093 3.27065 0
M  V30 3072 O 296.588 -2.39317 4.91314 0
M  V30 3073 H 293.682 -0.393776 0.727234 0
M  V30 3074 H 296.228 -0.0717138 1.69548 0
M  V30 3075 H 295 -0.496671 3.88135 0
M  V30 3076 H 294.623 -2.12973 3.35751 0
M  V30 3077 N 295.62 -1.53406 -0.361157 0
M  V30 3078 C 296.867 -1.69802 -1.10333 0
M  V30 3079 C 297.195 -0.452087 -1.89173 0
M  V30 3080 O 296.45 0.566017 -1.87336 0
M  V30 3081 C 296.749 -2.90211 -2.08596 0
M  V30 3082 C 296.415 -4.26539 -1.46203 0
M  V30 3083 C 295.077 -4.6361 -1.28915 0
M  V30 3084 C 297.429 -5.113 -1.01101 0
M  V30 3085 C 294.757 -5.83075 -0.651157 0
M  V30 3086 C 297.109 -6.31415 -0.387007 0
M  V30 3087 C 295.773 -6.67195 -0.201657 0
M  V30 3088 H 295.043 -0.621351 -0.403737 0
M  V30 3089 H 297.69 -1.87598 -0.384609 0
M  V30 3090 H 295.995 -2.66946 -2.86788 0
M  V30 3091 H 297.692 -3.00091 -2.65982 0
M  V30 3092 H 294.282 -3.97352 -1.60653 0
M  V30 3093 H 298.466 -4.83206 -1.13249 0
M  V30 3094 H 293.722 -6.09385 -0.496006 0
M  V30 3095 H 297.896 -6.96394 -0.0293563 0
M  V30 3096 H 295.523 -7.59628 0.294766 0
M  V30 3097 N 297.098 0.621204 -1.44841 0
M  V30 3098 C 298.514 0.94048 -1.28946 0
M  V30 3099 C 298.714 2.00154 -0.23249 0
M  V30 3100 O 297.77 2.49651 0.378237 0
M  V30 3101 C 299.083 1.39433 -2.66419 0
M  V30 3102 C 300.631 1.50927 -2.74208 0
M  V30 3103 C 301.106 1.99692 -4.12174 0
M  V30 3104 N 302.597 2.06947 -4.144 0
M  V30 3105 C 303.332 2.45871 -5.1801 0
M  V30 3106 N 302.828 2.83862 -6.31977 0
M  V30 3107 N 304.621 2.46092 -5.05366 0
M  V30 3108 H 296.772 -0.0803548 -2.12248 0
M  V30 3109 H 299.035 0.0266913 -0.947624 0
M  V30 3110 H 298.741 0.688925 -3.44887 0
M  V30 3111 H 298.615 2.36347 -2.93973 0
M  V30 3112 H 301.002 2.20561 -1.96053 0
M  V30 3113 H 301.083 0.523627 -2.50383 0
M  V30 3114 H 300.727 1.30649 -4.90809 0
M  V30 3115 H 300.657 2.99146 -4.33381 0
M  V30 3116 H 303.148 1.80232 -3.32152 0
M  V30 3117 H 303.461 3.12405 -7.0684 0
M  V30 3118 H 301.806 2.8159 -6.35399 0
M  V30 3119 H 304.997 2.1581 -4.15384 0
M  V30 3120 H 305.17 2.76102 -5.86235 0
M  V30 3121 N 298.576 1.31904 0.862503 0
M  V30 3122 C 299.987 1.19803 1.43193 0
M  V30 3123 C 300.338 -0.192567 1.95253 0
M  V30 3124 O 299.463 -1.09081 1.86896 0
M  V30 3125 C 300.058 2.16883 2.60283 0
M  V30 3126 C 298.617 2.08692 3.13248 0
M  V30 3127 C 297.764 2.05691 1.85975 0
M  V30 3128 H 300.715 1.43846 0.670365 0
M  V30 3129 H 300.736 1.76278 3.37204 0
M  V30 3130 H 300.248 3.18083 2.22363 0
M  V30 3131 H 298.349 1.10713 3.55771 0
M  V30 3132 H 298.462 2.9815 3.75025 0
M  V30 3133 H 296.826 1.50814 2.05249 0
M  V30 3134 H 297.609 3.08659 1.50282 0
M  V30 3135 N 300.054 -1.07777 1.14986 0
M  V30 3136 C 301.302 -1.79934 0.920235 0
M  V30 3137 C 301.623 -1.86955 -0.554336 0
M  V30 3138 O 300.893 -1.36731 -1.40291 0
M  V30 3139 H 299.473 -0.666424 0.337473 0
M  V30 3140 H 302.135 -1.3027 1.44968 0
M  V30 3141 H 301.231 -2.82539 1.32583 0
M  V30 3142 N 301.532 -0.945985 -1.26051 0
M  V30 3143 C 302.462 -0.477172 -2.28572 0
M  V30 3144 C 303.443 0.472032 -1.63419 0
M  V30 3145 O 304.628 0.372853 -1.90587 0
M  V30 3146 C 301.758 0.253975 -3.4637 0
M  V30 3147 C 300.712 -0.609135 -4.23643 0
M  V30 3148 C 300.038 0.252252 -5.34105 0
M  V30 3149 C 301.338 -1.8829 -4.8718 0
M  V30 3150 H 303.032 -1.33402 -2.68038 0
M  V30 3151 H 300.578 -0.642904 -1.28852 0
M  V30 3152 H 302.531 0.593016 -4.17207 0
M  V30 3153 H 301.255 1.145 -3.05871 0
M  V30 3154 H 299.914 -0.931138 -3.54578 0
M  V30 3155 H 299.562 1.14278 -4.89846 0
M  V30 3156 H 299.262 -0.32188 -5.86718 0
M  V30 3157 H 300.786 0.586454 -6.07777 0
M  V30 3158 H 302.2 -1.61081 -5.50205 0
M  V30 3159 H 300.597 -2.40199 -5.49931 0
M  V30 3160 H 301.667 -2.59134 -4.09851 0
M  V30 3161 N 303.011 1.40521 -0.713556 0
M  V30 3162 C 303.958 2.30723 -0.059684 0
M  V30 3163 C 304.928 1.48079 0.752448 0
M  V30 3164 O 306.113 1.76823 0.71681 0
M  V30 3165 C 303.253 3.34274 0.857594 0
M  V30 3166 C 302.366 4.31986 0.0351536 0
M  V30 3167 C 301.501 5.22605 0.951724 0
M  V30 3168 C 300.54 6.11976 0.123253 0
M  V30 3169 N 299.677 6.9502 0.99459 0
M  V30 3170 H 304.517 2.86074 -0.834596 0
M  V30 3171 H 302.054 1.40879 -0.42326 0
M  V30 3172 H 304.012 3.92879 1.40364 0
M  V30 3173 H 302.642 2.8043 1.59871 0
M  V30 3174 H 301.694 3.7518 -0.628052 0
M  V30 3175 H 303.006 4.95101 -0.606347 0
M  V30 3176 H 302.16 5.86131 1.56638 0
M  V30 3177 H 300.899 4.59759 1.62705 0
M  V30 3178 H 299.904 5.47482 -0.50435 0
M  V30 3179 H 301.129 6.76881 -0.548539 0
M  V30 3180 H 299.075 6.34764 1.6556 0
M  V30 3181 H 298.992 7.54892 0.40908 0
M  V30 3182 H 300.26 7.62997 1.59549 0
M  V30 3183 N 304.489 0.459591 1.5075 0
M  V30 3184 C 305.766 -0.160371 1.94941 0
M  V30 3185 C 306.146 -1.58048 1.39943 0
M  V30 3186 O 305.494 -2.206 0.595629 0
M  V30 3187 C 305.704 -0.115432 3.48809 0
M  V30 3188 C 307.052 -0.310026 4.23467 0
M  V30 3189 O 308.076 -0.192543 3.55679 0
M  V30 3190 O 306.935 -0.546031 5.43765 0
M  V30 3191 H 304.029 -0.117925 0.818549 0
M  V30 3192 H 306.575 0.519169 1.61563 0
M  V30 3193 H 305.347 0.87652 3.81357 0
M  V30 3194 H 304.97 -0.836928 3.88692 0
M  V30 3195 N 305.967 -1.56429 0.191757 0
M  V30 3196 C 307.195 -2.01867 -0.453586 0
M  V30 3197 C 307.61 -1.07191 -1.5542 0
M  V30 3198 O 306.967 -0.0762108 -1.82341 0
M  V30 3199 C 307.018 -3.47017 -1.013 0
M  V30 3200 O 306.739 -4.38078 0.0437005 0
M  V30 3201 C 308.24 -4.07956 -1.73456 0
M  V30 3202 H 305.46 -0.661211 -0.114199 0
M  V30 3203 H 308.004 -2.02295 0.299483 0
M  V30 3204 H 306.159 -3.47298 -1.71647 0
M  V30 3205 H 306.573 -5.23178 -0.372212 0
M  V30 3206 H 308.047 -5.1138 -2.07833 0
M  V30 3207 H 308.524 -3.51222 -2.63704 0
M  V30 3208 H 309.13 -4.11437 -1.07702 0
M  V30 3209 N 307.445 0.0818655 -1.57387 0
M  V30 3210 C 308.392 1.09834 -2.0299 0
M  V30 3211 C 309.362 1.39043 -0.908639 0
M  V30 3212 O 310.547 1.50282 -1.17559 0
M  V30 3213 C 307.687 2.40971 -2.47037 0
M  V30 3214 C 306.8 2.18379 -3.7274 0
M  V30 3215 C 305.935 3.43008 -4.0561 0
M  V30 3216 C 304.974 3.15736 -5.24383 0
M  V30 3217 N 304.111 4.32667 -5.52941 0
M  V30 3218 H 308.951 0.702472 -2.89602 0
M  V30 3219 H 306.488 0.33531 -1.43227 0
M  V30 3220 H 308.446 3.1752 -2.70623 0
M  V30 3221 H 307.076 2.78379 -1.63417 0
M  V30 3222 H 306.128 1.32569 -3.56552 0
M  V30 3223 H 307.44 1.94227 -4.59431 0
M  V30 3224 H 306.594 4.27958 -4.30043 0
M  V30 3225 H 305.333 3.70225 -3.17466 0
M  V30 3226 H 304.338 2.2918 -4.99757 0
M  V30 3227 H 305.563 2.8985 -6.14136 0
M  V30 3228 H 303.509 4.59935 -4.67756 0
M  V30 3229 H 303.426 4.11753 -6.34031 0
M  V30 3230 H 304.694 5.18644 -5.81918 0
M  V30 3231 N 308.923 1.53595 0.353017 0
M  V30 3232 C 309.853 1.83902 1.43883 0
M  V30 3233 C 310.834 0.693421 1.55324 0
M  V30 3234 O 312.019 0.944452 1.69687 0
M  V30 3235 C 309.149 2.04016 2.8106 0
M  V30 3236 C 308.103 3.19814 2.84434 0
M  V30 3237 C 307.429 3.25244 4.24406 0
M  V30 3238 C 308.729 4.58133 2.50822 0
M  V30 3239 H 310.423 2.74835 1.1877 0
M  V30 3240 H 307.969 1.32242 0.569917 0
M  V30 3241 H 309.922 2.238 3.57059 0
M  V30 3242 H 308.646 1.09804 3.07588 0
M  V30 3243 H 307.305 2.9987 2.10887 0
M  V30 3244 H 306.953 2.28646 4.48029 0
M  V30 3245 H 306.653 4.03054 4.27576 0
M  V30 3246 H 308.177 3.47228 5.0226 0
M  V30 3247 H 309.591 4.77995 3.16534 0
M  V30 3248 H 307.988 5.38276 2.6529 0
M  V30 3249 H 309.058 4.62387 1.46034 0
M  V30 3250 N 310.401 -0.613514 1.45168 0
M  V30 3251 C 311.331 -1.7354 1.56225 0
M  V30 3252 C 312.312 -1.64981 0.41414 0
M  V30 3253 O 313.497 -1.83472 0.636526 0
M  V30 3254 C 310.627 -3.12128 1.52295 0
M  V30 3255 C 309.581 -3.35491 2.65762 0
M  V30 3256 C 308.907 -4.74291 2.46885 0
M  V30 3257 C 310.207 -3.26325 4.0781 0
M  V30 3258 H 311.901 -1.64543 2.50132 0
M  V30 3259 H 309.447 -0.790185 1.20383 0
M  V30 3260 H 311.4 -3.90404 1.58628 0
M  V30 3261 H 310.124 -3.2195 0.549139 0
M  V30 3262 H 308.783 -2.59603 2.58847 0
M  V30 3263 H 308.431 -4.80839 1.47657 0
M  V30 3264 H 308.131 -4.9088 3.22972 0
M  V30 3265 H 309.655 -5.54775 2.55063 0
M  V30 3266 H 311.069 -3.94483 4.16 0
M  V30 3267 H 309.466 -3.54445 4.8424 0
M  V30 3268 H 310.536 -2.23855 4.30136 0
M  V30 3269 N 311.879 -1.3236 -0.855495 0
M  V30 3270 C 312.826 -1.21225 -1.964 0
M  V30 3271 C 313.796 -0.0946204 -1.6583 0
M  V30 3272 O 314.981 -0.27002 -1.8888 0
M  V30 3273 C 312.121 -0.940419 -3.32039 0
M  V30 3274 C 311.234 -2.14276 -3.75113 0
M  V30 3275 C 310.369 -1.80648 -4.9954 0
M  V30 3276 C 309.408 -2.97208 -5.35102 0
M  V30 3277 N 308.545 -2.63678 -6.50706 0
M  V30 3278 H 313.385 -2.16042 -2.05255 0
M  V30 3279 H 310.922 -1.07451 -1.00463 0
M  V30 3280 H 312.88 -0.763311 -4.10158 0
M  V30 3281 H 311.51 -0.0290413 -3.22787 0
M  V30 3282 H 310.562 -2.43017 -2.92655 0
M  V30 3283 H 311.874 -3.01468 -3.97389 0
M  V30 3284 H 311.028 -1.59484 -5.85363 0
M  V30 3285 H 309.767 -0.906678 -4.79198 0
M  V30 3286 H 308.772 -3.19004 -4.47791 0
M  V30 3287 H 309.997 -3.87918 -5.57401 0
M  V30 3288 H 307.943 -1.76238 -6.31883 0
M  V30 3289 H 307.86 -3.444 -6.72997 0
M  V30 3290 H 309.128 -2.45942 -7.39684 0
M  V30 3291 N 313.357 1.07166 -1.15556 0
M  V30 3292 C 314.585 1.83514 -0.955519 0
M  V30 3293 C 315 1.82163 0.49621 0
M  V30 3294 O 314.357 1.23441 1.34419 0
M  V30 3295 C 314.408 3.30515 -1.46432 0
M  V30 3296 O 314.129 3.31937 -2.85918 0
M  V30 3297 C 315.63 4.23625 -1.30603 0
M  V30 3298 H 312.85 0.578926 -0.339244 0
M  V30 3299 H 315.394 1.35265 -1.53374 0
M  V30 3300 H 313.549 3.76106 -0.928584 0
M  V30 3301 H 313.963 4.23794 -3.09029 0
M  V30 3302 H 315.437 5.24831 -1.71047 0
M  V30 3303 H 315.914 4.38485 -0.250441 0
M  V30 3304 H 316.52 3.83871 -1.83094 0
M  V30 3305 N 314.835 0.952656 1.25548 0
M  V30 3306 C 315.765 0.489287 2.28316 0
M  V30 3307 C 316.746 -0.463359 1.63667 0
M  V30 3308 O 317.931 -0.36274 1.90782 0
M  V30 3309 C 315.061 -0.235603 3.465 0
M  V30 3310 C 314.015 0.631593 4.23314 0
M  V30 3311 C 313.341 -0.223923 5.34231 0
M  V30 3312 C 314.641 1.90871 4.86174 0
M  V30 3313 H 316.335 1.34822 2.67326 0
M  V30 3314 H 313.881 0.649728 1.28509 0
M  V30 3315 H 315.834 -0.570882 4.17515 0
M  V30 3316 H 314.558 -1.12877 3.06474 0
M  V30 3317 H 313.217 0.949929 3.54079 0
M  V30 3318 H 312.865 -1.11678 4.90446 0
M  V30 3319 H 312.565 0.35299 5.86539 0
M  V30 3320 H 314.089 -0.554214 6.0808 0
M  V30 3321 H 315.503 1.63997 5.49343 0
M  V30 3322 H 313.9 2.43112 5.4865 0
M  V30 3323 H 314.97 2.61304 4.08471 0
M  V30 3324 N 316.313 -1.40141 0.720998 0
M  V30 3325 C 317.276 -2.29058 0.0805834 0
M  V30 3326 C 318.276 -1.45632 -0.681758 0
M  V30 3327 O 319.466 -1.6648 -0.512856 0
M  V30 3328 C 316.598 -3.28925 -0.895593 0
M  V30 3329 H 317.791 -2.87191 0.863793 0
M  V30 3330 H 315.344 -1.48553 0.485975 0
M  V30 3331 H 316.079 -2.75822 -1.70566 0
M  V30 3332 H 315.864 -3.90519 -0.351766 0
M  V30 3333 H 317.354 -3.95494 -1.34069 0
M  V30 3334 N 317.792 -0.46758 -1.50504 0
M  V30 3335 C 319.041 0.0902868 -2.01498 0
M  V30 3336 C 319.354 1.411 -1.35463 0
M  V30 3337 O 320.56 2.0536 -1.77594 0
M  V30 3338 C 319.016 0.21142 -3.59278 0
M  V30 3339 C 318.624 -1.10065 -4.34269 0
M  V30 3340 C 320.368 0.721433 -4.18325 0
M  V30 3341 C 318.275 -0.943505 -5.83825 0
M  V30 3342 H 317.205 0.037517 -0.753066 0
M  V30 3343 H 319.856 -0.601943 -1.73346 0
M  V30 3344 H 318.238 0.967352 -3.84003 0
M  V30 3345 H 319.412 -1.86726 -4.21272 0
M  V30 3346 H 317.727 -1.5415 -3.86816 0
M  V30 3347 H 320.324 0.85598 -5.27804 0
M  V30 3348 H 320.667 1.71186 -3.79475 0
M  V30 3349 H 321.2 0.0229843 -3.97793 0
M  V30 3350 H 317.939 -1.90719 -6.27141 0
M  V30 3351 H 317.459 -0.217213 -5.99407 0
M  V30 3352 H 319.138 -0.608715 -6.4413 0
M  V30 3353 N 319.27 1.56325 -0.20005 0
M  V30 3354 C 320.518 1.97329 0.436547 0
M  V30 3355 C 320.839 1.08826 1.61808 0
M  V30 3356 O 320.109 0.160604 1.95241 0
M  V30 3357 H 318.689 0.728714 0.164272 0
M  V30 3358 H 321.351 1.92761 -0.287937 0
M  V30 3359 H 320.447 3.02264 0.777353 0
M  V30 3360 N 320.748 -0.0735177 1.57428 0
M  V30 3361 C 322.025 -0.805903 1.78226 0
M  V30 3362 C 322.405 -1.95874 0.787189 0
M  V30 3363 O 321.753 -2.2779 -0.180029 0
M  V30 3364 C 321.963 -1.28045 3.24662 0
M  V30 3365 C 323.311 -1.71453 3.88444 0
M  V30 3366 O 324.335 -1.37616 3.28543 0
M  V30 3367 O 323.194 -2.34093 4.93825 0
M  V30 3368 H 320.288 -0.386041 0.73137 0
M  V30 3369 H 322.834 -0.0537269 1.69615 0
M  V30 3370 H 321.606 -0.455476 3.8864 0
M  V30 3371 H 321.229 -2.094 3.37991 0
M  V30 3372 N 322.226 -1.5378 -0.344866 0
M  V30 3373 C 323.454 -1.74899 -1.10534 0
M  V30 3374 C 323.869 -0.487534 -1.82397 0
M  V30 3375 O 323.226 0.540741 -1.74305 0
M  V30 3376 C 323.277 -2.92822 -2.11984 0
M  V30 3377 O 322.998 -4.14089 -1.43044 0
M  V30 3378 C 324.499 -3.25982 -3.00417 0
M  V30 3379 H 321.719 -0.584426 -0.329678 0
M  V30 3380 H 324.263 -2.006 -0.397474 0
M  V30 3381 H 322.418 -2.69457 -2.78338 0
M  V30 3382 H 322.832 -4.80272 -2.10805 0
M  V30 3383 H 324.306 -4.11848 -3.67539 0
M  V30 3384 H 324.783 -2.42228 -3.66363 0
M  V30 3385 H 325.389 -3.51349 -2.39654 0
M  V30 3386 N 323.704 0.605807 -1.45491 0
M  V30 3387 C 324.953 1.36086 -1.48874 0
M  V30 3388 C 325.266 1.95131 -0.135333 0
M  V30 3389 O 326.472 2.7146 -0.0468144 0
M  V30 3390 C 324.928 2.46518 -2.62215 0
M  V30 3391 C 324.536 1.93877 -4.03876 0
M  V30 3392 C 326.28 3.23512 -2.74846 0
M  V30 3393 C 324.187 3.01801 -5.08596 0
M  V30 3394 H 323.117 0.511497 -0.553974 0
M  V30 3395 H 325.768 0.649089 -1.71636 0
M  V30 3396 H 324.15 3.20388 -2.32739 0
M  V30 3397 H 325.324 1.26704 -4.43038 0
M  V30 3398 H 323.639 1.29622 -3.95711 0
M  V30 3399 H 326.236 4.04013 -3.50253 0
M  V30 3400 H 326.579 3.74631 -1.81542 0
M  V30 3401 H 327.112 2.56742 -3.03856 0
M  V30 3402 H 323.851 2.55597 -6.03614 0
M  V30 3403 H 323.371 3.67535 -4.74002 0
M  V30 3404 H 325.05 3.66152 -5.33424 0
M  V30 3405 N 325.182 1.32811 0.848464 0
M  V30 3406 C 326.41 1.26739 1.63538 0
M  V30 3407 C 326.825 -0.163484 1.88091 0
M  V30 3408 O 326.182 -1.10258 1.45429 0
M  V30 3409 C 326.233 2.03013 2.99112 0
M  V30 3410 O 325.954 3.40518 2.75643 0
M  V30 3411 C 327.455 2.04038 3.93552 0
M  V30 3412 H 324.675 0.437024 0.509167 0
M  V30 3413 H 327.219 1.75033 1.05753 0
M  V30 3414 H 325.374 1.58426 3.53525 0
M  V30 3415 H 325.788 3.79635 3.61908 0
M  V30 3416 H 327.262 2.61877 4.85926 0
M  V30 3417 H 327.739 1.0282 4.26995 0
M  V30 3418 H 328.345 2.486 3.45077 0
M  V30 3419 N 326.66 -1.06551 1.16123 0
M  V30 3420 C 327.885 -1.83544 0.965735 0
M  V30 3421 C 328.31 -1.81843 -0.481102 0
M  V30 3422 O 327.668 -1.21732 -1.34354 0
M  V30 3423 C 327.716 -3.28169 1.49457 0
M  V30 3424 O 326.82 -4.0643 0.699157 0
M  V30 3425 H 326.161 -0.568026 0.343864 0
M  V30 3426 H 328.691 -1.34362 1.54299 0
M  V30 3427 H 328.701 -3.78992 1.51092 0
M  V30 3428 H 327.376 -3.28722 2.54784 0
M  V30 3429 H 325.953 -3.65216 0.7531 0
M  V30 3430 N 328.138 -0.959301 -1.25041 0
M  V30 3431 C 329.07 -0.440543 -2.24926 0
M  V30 3432 C 330.083 0.446131 -1.56568 0
M  V30 3433 O 331.272 0.253657 -1.76689 0
M  V30 3434 C 328.372 0.38412 -3.36716 0
M  V30 3435 C 327.545 -0.490658 -4.34639 0
M  V30 3436 C 326.604 0.276587 -5.25473 0
M  V30 3437 O 325.63 -0.326614 -5.68262 0
M  V30 3438 N 326.832 1.56844 -5.5891 0
M  V30 3439 H 329.597 -1.29931 -2.70071 0
M  V30 3440 H 327.158 -0.830181 -1.38995 0
M  V30 3441 H 329.15 0.905228 -3.94446 0
M  V30 3442 H 327.72 1.14377 -2.90924 0
M  V30 3443 H 326.94 -1.19282 -3.7572 0
M  V30 3444 H 328.228 -1.08756 -4.97041 0
M  V30 3445 H 327.626 2.08036 -5.26059 0
M  V30 3446 H 326.183 2.03541 -6.19205 0
M  V30 3447 N 329.616 1.39756 -0.72842 0
M  V30 3448 C 330.526 2.34444 -0.0855374 0
M  V30 3449 C 331.542 1.57976 0.729356 0
M  V30 3450 O 332.718 1.90301 0.659346 0
M  V30 3451 C 329.783 3.36965 0.815798 0
M  V30 3452 C 328.844 4.29299 -0.0105996 0
M  V30 3453 C 328.077 5.26923 0.84781 0
M  V30 3454 O 328.3 5.30859 2.08673 0
M  V30 3455 O 327.234 6.01249 0.279969 0
M  V30 3456 H 331.06 2.91065 -0.866892 0
M  V30 3457 H 328.645 1.4117 -0.48902 0
M  V30 3458 H 330.527 3.99804 1.33171 0
M  V30 3459 H 329.202 2.82739 1.57608 0
M  V30 3460 H 328.109 3.69703 -0.571877 0
M  V30 3461 H 329.442 4.86712 -0.73295 0
M  V30 3462 N 331.094 0.475555 1.50254 0
M  V30 3463 C 332.024 -0.30611 2.31485 0
M  V30 3464 C 333.005 -0.986228 1.38591 0
M  V30 3465 O 334.19 -0.982541 1.67511 0
M  V30 3466 C 331.32 -1.38588 3.1845 0
M  V30 3467 C 330.274 -0.827115 4.19932 0
M  V30 3468 C 329.6 -2.00551 4.95665 0
M  V30 3469 C 330.9 0.16463 5.2204 0
M  V30 3470 H 332.594 0.371866 2.97082 0
M  V30 3471 H 330.14 0.180282 1.42867 0
M  V30 3472 H 332.093 -1.94023 3.74076 0
M  V30 3473 H 330.817 -2.09269 2.50747 0
M  V30 3474 H 329.476 -0.294702 3.65414 0
M  V30 3475 H 329.124 -2.6994 4.2443 0
M  V30 3476 H 328.824 -1.63784 5.64313 0
M  V30 3477 H 330.348 -2.56468 5.54127 0
M  V30 3478 H 331.762 -0.300699 5.72511 0
M  V30 3479 H 330.159 0.446813 5.98434 0
M  V30 3480 H 331.229 1.08905 4.72512 0
M  V30 3481 N 332.573 -1.56217 0.208337 0
M  V30 3482 C 333.503 -2.22694 -0.702116 0
M  V30 3483 C 334.484 -1.19432 -1.2112 0
M  V30 3484 O 335.669 -1.47978 -1.25762 0
M  V30 3485 C 332.799 -2.8966 -1.9161 0
M  V30 3486 C 331.753 -3.9928 -1.5414 0
M  V30 3487 C 331.079 -4.53476 -2.83308 0
M  V30 3488 C 332.379 -5.17012 -0.741339 0
M  V30 3489 H 334.073 -2.99034 -0.147898 0
M  V30 3490 H 331.619 -1.43831 -0.0696951 0
M  V30 3491 H 333.572 -3.34852 -2.55836 0
M  V30 3492 H 332.296 -2.10746 -2.49507 0
M  V30 3493 H 330.955 -3.54799 -0.922668 0
M  V30 3494 H 330.603 -3.71308 -3.39322 0
M  V30 3495 H 330.303 -5.27451 -2.58976 0
M  V30 3496 H 331.827 -5.01378 -3.485 0
M  V30 3497 H 333.241 -5.58667 -1.28699 0
M  V30 3498 H 331.638 -5.97137 -0.595627 0
M  V30 3499 H 332.708 -4.8423 0.254851 0
M  V30 3500 N 334.051 0.0651679 -1.57465 0
M  V30 3501 C 335.014 1.06117 -2.03155 0
M  V30 3502 C 336.014 1.31204 -0.929632 0
M  V30 3503 O 337.204 1.26813 -1.19432 0
M  V30 3504 C 334.336 2.4032 -2.41783 0
M  V30 3505 H 335.529 0.667231 -2.92383 0
M  V30 3506 H 333.082 0.311075 -1.53173 0
M  V30 3507 H 333.817 2.84532 -1.55601 0
M  V30 3508 H 333.602 2.23451 -3.22199 0
M  V30 3509 H 335.092 3.11898 -2.77685 0
M  V30 3510 N 335.529 1.53961 0.336706 0
M  V30 3511 C 336.461 1.78751 1.4346 0
M  V30 3512 C 337.474 0.669019 1.48418 0
M  V30 3513 O 338.663 0.945884 1.51378 0
M  V30 3514 C 335.763 1.87844 2.82078 0
M  V30 3515 C 334.936 3.17854 3.00479 0
M  V30 3516 C 333.995 3.17816 4.19379 0
M  V30 3517 O 333.021 3.91511 4.13168 0
M  V30 3518 N 334.223 2.40669 5.2826 0
M  V30 3519 H 336.988 2.73493 1.22563 0
M  V30 3520 H 334.549 1.53096 0.526625 0
M  V30 3521 H 336.541 1.85261 3.59806 0
M  V30 3522 H 335.111 1.00257 2.96086 0
M  V30 3523 H 334.331 3.33504 2.10163 0
M  V30 3524 H 335.619 4.03718 3.0966 0
M  V30 3525 H 335.017 1.8036 5.36178 0
M  V30 3526 H 333.574 2.43877 6.04456 0
M  V30 3527 N 337.007 -0.598083 1.45811 0
M  V30 3528 C 337.97 -1.69018 1.54808 0
M  V30 3529 C 338.97 -1.55037 0.426652 0
M  V30 3530 O 340.16 -1.59932 0.690456 0
M  V30 3531 C 337.292 -3.0835 1.45371 0
M  V30 3532 H 338.485 -1.62403 2.52121 0
M  V30 3533 H 336.038 -0.814626 1.33392 0
M  V30 3534 H 336.773 -3.20534 0.492793 0
M  V30 3535 H 336.558 -3.19907 2.26721 0
M  V30 3536 H 338.048 -3.8788 1.54721 0
M  V30 3537 N 338.485 -1.33259 -0.841409 0
M  V30 3538 C 339.417 -1.19136 -1.95804 0
M  V30 3539 C 340.43 -0.122965 -1.62335 0
M  V30 3540 O 341.619 -0.373154 -1.74556 0
M  V30 3541 C 338.719 -0.804268 -3.29218 0
M  V30 3542 C 337.892 -1.96376 -3.90839 0
M  V30 3543 C 336.951 -1.55806 -5.02604 0
M  V30 3544 O 335.977 -2.27203 -5.21888 0
M  V30 3545 N 337.179 -0.461609 -5.78662 0
M  V30 3546 H 339.944 -2.15326 -2.08458 0
M  V30 3547 H 337.505 -1.25971 -1.017 0
M  V30 3548 H 339.497 -0.51501 -4.0141 0
M  V30 3549 H 338.067 0.0668809 -3.12528 0
M  V30 3550 H 337.287 -2.41879 -3.11269 0
M  V30 3551 H 338.575 -2.73966 -4.28742 0
M  V30 3552 H 337.973 0.132343 -5.65545 0
M  V30 3553 H 336.53 -0.232013 -6.51387 0
M  V30 3554 N 339.963 1.05934 -1.16686 0
M  V30 3555 C 341.188 1.83029 -0.975455 0
M  V30 3556 C 341.613 1.82096 0.471452 0
M  V30 3557 O 340.971 1.22443 1.33706 0
M  V30 3558 C 341.019 3.27372 -1.51195 0
M  V30 3559 O 340.123 4.06054 -0.720701 0
M  V30 3560 H 339.464 0.566194 -0.346872 0
M  V30 3561 H 341.994 1.33541 -1.55009 0
M  V30 3562 H 342.004 3.78186 -1.53099 0
M  V30 3563 H 340.679 3.27366 -2.56523 0
M  V30 3564 H 339.256 3.64812 -0.772458 0
M  V30 3565 N 341.441 0.965919 1.2453 0
M  V30 3566 C 342.69 0.622437 1.91856 0
M  V30 3567 C 343.003 -0.846006 1.76358 0
M  V30 3568 O 344.209 -1.29993 2.38357 0
M  V30 3569 C 342.665 1.0626 3.43856 0
M  V30 3570 C 342.273 2.55437 3.68043 0
M  V30 3571 C 344.017 0.792183 4.17043 0
M  V30 3572 C 341.924 2.93196 5.13605 0
M  V30 3573 H 340.854 0.229092 0.718354 0
M  V30 3574 H 343.505 1.17189 1.41206 0
M  V30 3575 H 341.887 0.441476 3.93531 0
M  V30 3576 H 343.061 3.22665 3.28974 0
M  V30 3577 H 341.376 2.8007 3.08139 0
M  V30 3578 H 343.973 1.05031 5.24283 0
M  V30 3579 H 344.316 -0.271584 4.15413 0
M  V30 3580 H 344.849 1.37419 3.73311 0
M  V30 3581 H 341.588 3.98636 5.20355 0
M  V30 3582 H 341.108 2.30651 5.53679 0
M  V30 3583 H 342.787 2.83004 5.81823 0
M  V30 3584 N 342.919 -1.39368 0.735821 0
M  V30 3585 C 343.849 -2.33234 0.111506 0
M  V30 3586 C 344.83 -1.53954 -0.723334 0
M  V30 3587 O 346.015 -1.82344 -0.668147 0
M  V30 3588 C 343.145 -3.38057 -0.795917 0
M  V30 3589 C 342.099 -4.2795 -0.065172 0
M  V30 3590 C 341.425 -5.23479 -1.08967 0
M  V30 3591 C 342.725 -5.10741 1.09273 0
M  V30 3592 H 344.419 -2.85692 0.895571 0
M  V30 3593 H 341.965 -1.37364 0.432109 0
M  V30 3594 H 343.918 -4.02675 -1.24221 0
M  V30 3595 H 342.642 -2.8404 -1.61211 0
M  V30 3596 H 341.301 -3.64813 0.361511 0
M  V30 3597 H 340.949 -4.65758 -1.89944 0
M  V30 3598 H 340.649 -5.84472 -0.605489 0
M  V30 3599 H 342.173 -5.90974 -1.53565 0
M  V30 3600 H 343.587 -5.68699 0.724841 0
M  V30 3601 H 341.984 -5.8088 1.50659 0
M  V30 3602 H 343.054 -4.45525 1.91404 0
M  V30 3603 N 344.397 -0.483516 -1.5 0
M  V30 3604 C 345.345 0.318061 -2.30415 0
M  V30 3605 C 346.339 0.978988 -1.38247 0
M  V30 3606 O 347.545 0.908673 -1.55381 0
M  V30 3607 H 343.92 0.121419 -0.742133 0
M  V30 3608 H 345.891 -0.380403 -2.95965 0
M  V30 3609 C 344.64 1.38013 -3.19136 0
M  V30 3610 H 343.963 0.880952 -3.89973 0
M  V30 3611 H 345.403 1.91332 -3.78375 0
M  V30 3612 C 343.862 2.38884 -2.37563 0
M  V30 3613 O 344.392 3.44412 -2.06744 0
M  V30 3614 N 342.598 2.10912 -1.99911 0
M  V30 3615 H 342.145 1.25118 -2.25174 0
M  V30 3616 H 342.103 2.78635 -1.45636 0
M  V30 3617 N 345.875 1.56104 -0.216619 0
M  V30 3618 C 346.822 2.2007 0.695531 0
M  V30 3619 C 347.792 1.15471 1.19397 0
M  V30 3620 O 348.977 1.43807 1.25396 0
M  V30 3621 C 346.117 2.88073 1.90021 0
M  V30 3622 C 345.23 4.07253 1.44113 0
M  V30 3623 C 344.365 4.63052 2.603 0
M  V30 3624 C 343.404 5.74545 2.11103 0
M  V30 3625 N 342.541 6.24656 3.20545 0
M  V30 3626 H 347.381 2.97655 0.143327 0
M  V30 3627 H 344.918 1.46982 0.0589934 0
M  V30 3628 H 346.876 3.25681 2.60745 0
M  V30 3629 H 345.506 2.13015 2.42538 0
M  V30 3630 H 344.558 3.75164 0.628999 0
M  V30 3631 H 345.87 4.8783 1.04036 0
M  V30 3632 H 345.024 5.03078 3.39113 0
M  V30 3633 H 343.763 3.81628 3.03663 0
M  V30 3634 H 342.768 5.34027 1.3075 0
M  V30 3635 H 343.993 6.57801 1.68746 0
M  V30 3636 H 341.939 5.46148 3.63399 0
M  V30 3637 H 341.856 7.00343 2.84704 0
M  V30 3638 H 343.124 6.69338 3.99508 0
M  V30 3639 N 347.353 -0.0568162 1.57498 0
M  V30 3640 C 348.301 -1.08452 2.05769 0
M  V30 3641 C 349.295 -1.39164 0.965903 0
M  V30 3642 O 350.501 -1.38395 1.15095 0
M  V30 3643 H 346.876 -0.367148 0.656282 0
M  V30 3644 H 348.847 -0.651368 2.91204 0
M  V30 3645 C 347.596 -2.38543 2.52968 0
M  V30 3646 H 346.919 -2.15765 3.36579 0
M  V30 3647 H 348.359 -3.08863 2.90481 0
M  V30 3648 C 346.818 -3.05562 1.41893 0
M  V30 3649 O 347.348 -3.94262 0.769442 0
M  V30 3650 N 345.554 -2.6643 1.16032 0
M  V30 3651 H 345.101 -1.94387 1.6903 0
M  V30 3652 H 345.059 -3.11593 0.419219 0
M  V30 3653 N 348.832 -1.54138 -0.328536 0
M  V30 3654 C 349.782 -1.79557 -1.4051 0
M  V30 3655 C 350.766 -0.651373 -1.47126 0
M  V30 3656 O 351.958 -0.911226 -1.51742 0
M  V30 3657 C 349.087 -2.02196 -2.77438 0
M  V30 3658 C 348.173 -3.22724 -2.75155 0
M  V30 3659 N 348.564 -4.43881 -2.42494 0
M  V30 3660 C 346.862 -3.24196 -3.06289 0
M  V30 3661 C 347.563 -5.25797 -2.48822 0
M  V30 3662 N 346.539 -4.62862 -2.8506 0
M  V30 3663 H 350.341 -2.70814 -1.1418 0
M  V30 3664 H 347.855 -1.53265 -0.536991 0
M  V30 3665 H 349.852 -2.18546 -3.55026 0
M  V30 3666 H 348.512 -1.12191 -3.04702 0
M  V30 3667 H 349.523 -4.70969 -2.15428 0
M  V30 3668 H 346.2 -2.44208 -3.38627 0
M  V30 3669 H 347.59 -6.32535 -2.26603 0
M  V30 3670 N 350.31 0.590341 -1.46126 0
M  V30 3671 C 351.721 1.17243 -1.45296 0
M  V30 3672 C 352.072 1.95281 -0.189723 0
M  V30 3673 O 351.197 2.04502 0.707674 0
M  V30 3674 C 351.792 2.13284 -2.6324 0
M  V30 3675 C 350.351 2.66832 -2.65476 0
M  V30 3676 C 349.498 1.42557 -2.3785 0
M  V30 3677 H 352.449 0.378692 -1.54116 0
M  V30 3678 H 352.47 2.96619 -2.38323 0
M  V30 3679 H 351.982 1.56459 -3.55165 0
M  V30 3680 H 350.083 3.27548 -1.77603 0
M  V30 3681 H 350.196 3.10088 -3.65215 0
M  V30 3682 H 348.56 1.72107 -1.87753 0
M  V30 3683 H 349.343 0.875741 -3.31942 0
M  V30 3684 N 351.788 1.33704 0.83433 0
M  V30 3685 C 353.036 1.25169 1.58673 0
M  V30 3686 C 353.357 -0.18127 1.94156 0
M  V30 3687 O 352.627 -1.11113 1.6134 0
M  V30 3688 H 351.207 0.4603 0.58833 0
M  V30 3689 H 353.869 1.67478 0.996847 0
M  V30 3690 H 352.965 1.84856 2.51465 0
M  V30 3691 N 353.266 -1.05314 1.17247 0
M  V30 3692 C 354.496 -1.81707 0.983166 0
M  V30 3693 C 354.904 -1.83222 -0.471822 0
M  V30 3694 O 354.247 -1.25721 -1.3394 0
M  V30 3695 C 354.309 -3.29134 1.44606 0
M  V30 3696 C 353.973 -3.51304 2.92292 0
M  V30 3697 C 354.97 -3.4353 3.90235 0
M  V30 3698 C 352.655 -3.78306 3.30439 0
M  V30 3699 C 354.649 -3.62442 5.24323 0
M  V30 3700 C 352.336 -3.96866 4.64694 0
M  V30 3701 C 353.334 -3.88933 5.61445 0
M  V30 3702 O 353.022 -4.06976 6.93272 0
M  V30 3703 H 352.754 -0.579476 0.348114 0
M  V30 3704 H 355.308 -1.33705 1.55924 0
M  V30 3705 H 353.538 -3.78046 0.813537 0
M  V30 3706 H 355.227 -3.87049 1.22262 0
M  V30 3707 H 355.993 -3.22648 3.62109 0
M  V30 3708 H 351.872 -3.83585 2.55702 0
M  V30 3709 H 355.416 -3.56165 5.99827 0
M  V30 3710 H 351.313 -4.1724 4.92525 0
M  V30 3711 H 352.081 -4.24209 6.99992 0
M  V30 3712 N 354.744 -0.972509 -1.24016 0
M  V30 3713 C 355.972 -0.654803 -1.96265 0
M  V30 3714 C 356.387 0.776708 -1.72083 0
M  V30 3715 O 355.744 1.52171 -1.00748 0
M  V30 3716 C 355.795 -0.92592 -3.49441 0
M  V30 3717 O 355.516 -2.30116 -3.72798 0
M  V30 3718 C 357.017 -0.623068 -4.38899 0
M  V30 3719 H 354.237 -0.243907 -0.6251 0
M  V30 3720 H 356.781 -1.30175 -1.57717 0
M  V30 3721 H 354.936 -0.325108 -3.86033 0
M  V30 3722 H 355.35 -2.38483 -4.67147 0
M  V30 3723 H 356.824 -0.863189 -5.45209 0
M  V30 3724 H 357.301 0.442754 -4.36963 0
M  V30 3725 H 357.907 -1.204 -4.07902 0
M  V30 3726 N 356.222 1.38976 -0.743202 0
M  V30 3727 C 357.471 1.99581 -0.291592 0
M  V30 3728 C 357.784 1.59656 1.13001 0
M  V30 3729 O 358.99 2.13157 1.68156 0
M  V30 3730 C 357.446 3.56813 -0.470391 0
M  V30 3731 C 357.054 4.05695 -1.90041 0
M  V30 3732 C 358.798 4.24423 -0.0809709 0
M  V30 3733 C 356.705 5.5553 -2.02832 0
M  V30 3734 H 355.635 0.746615 -0.105272 0
M  V30 3735 H 358.286 1.58872 -0.918258 0
M  V30 3736 H 356.668 3.95359 0.225299 0
M  V30 3737 H 357.842 3.78464 -2.62872 0
M  V30 3738 H 356.157 3.50775 -2.24379 0
M  V30 3739 H 358.754 5.34474 -0.155445 0
M  V30 3740 H 359.097 4.04962 0.96497 0
M  V30 3741 H 359.63 3.9108 -0.728124 0
M  V30 3742 H 356.369 5.79881 -3.05643 0
M  V30 3743 H 355.889 5.84537 -1.34448 0
M  V30 3744 H 357.568 6.21069 -1.81335 0
M  V30 3745 N 357.7 0.491464 1.49741 0
M  V30 3746 C 358.93 -0.0534375 2.06531 0
M  V30 3747 C 359.338 -1.32233 1.35318 0
M  V30 3748 O 358.681 -1.78781 0.422243 0
M  V30 3749 C 358.743 -0.387034 3.57411 0
M  V30 3750 C 358.407 0.782764 4.50246 0
M  V30 3751 C 359.404 1.67059 4.92329 0
M  V30 3752 C 357.089 0.978866 4.9267 0
M  V30 3753 C 359.083 2.73874 5.75562 0
M  V30 3754 C 356.77 2.05022 5.75682 0
M  V30 3755 C 357.768 2.92851 6.17031 0
M  V30 3756 O 357.456 3.98138 6.98385 0
M  V30 3757 H 357.188 0.0129324 0.675876 0
M  V30 3758 H 359.742 0.685238 1.93633 0
M  V30 3759 H 357.972 -1.17918 3.68283 0
M  V30 3760 H 359.661 -0.869419 3.96479 0
M  V30 3761 H 360.427 1.53086 4.60206 0
M  V30 3762 H 356.306 0.304646 4.59992 0
M  V30 3763 H 359.85 3.42458 6.07757 0
M  V30 3764 H 355.747 2.18993 6.07217 0
M  V30 3765 H 356.515 3.95374 7.16674 0
M  V30 3766 N 359.178 -1.55987 0.224894 0
M  V30 3767 C 360.088 -2.24066 -0.69511 0
M  V30 3768 C 361.104 -1.24939 -1.21104 0
M  V30 3769 O 362.28 -1.5776 -1.25195 0
M  V30 3770 C 359.345 -2.90983 -1.88493 0
M  V30 3771 C 358.406 -4.05462 -1.41064 0
M  V30 3772 C 357.639 -4.69179 -2.54375 0
M  V30 3773 O 357.862 -4.31895 -3.72589 0
M  V30 3774 O 356.796 -5.58108 -2.25386 0
M  V30 3775 H 360.622 -3.03353 -0.145149 0
M  V30 3776 H 358.207 -1.49399 -0.00569476 0
M  V30 3777 H 360.089 -3.33209 -2.57972 0
M  V30 3778 H 358.764 -2.14653 -2.42293 0
M  V30 3779 H 357.671 -3.67798 -0.683774 0
M  V30 3780 H 359.004 -4.83545 -0.918985 0
M  V30 3781 N 360.656 0.0484629 -1.57525 0
M  V30 3782 C 362.072 0.40375 -1.54409 0
M  V30 3783 C 362.272 1.77786 -0.948384 0
M  V30 3784 O 361.328 2.46189 -0.560983 0
M  V30 3785 C 362.641 0.323394 -2.98956 0
M  V30 3786 C 364.189 0.401892 -3.10409 0
M  V30 3787 C 364.664 0.351195 -4.56652 0
M  V30 3788 N 366.155 0.410576 -4.61377 0
M  V30 3789 C 366.89 0.393933 -5.72045 0
M  V30 3790 N 366.386 0.330724 -6.9201 0
M  V30 3791 N 368.179 0.442227 -5.60358 0
M  V30 3792 H 360.33 -0.851016 -1.94606 0
M  V30 3793 H 362.593 -0.321721 -0.89174 0
M  V30 3794 H 362.299 -0.62011 -3.4619 0
M  V30 3795 H 362.173 1.12463 -3.60044 0
M  V30 3796 H 364.56 1.33582 -2.63134 0
M  V30 3797 H 364.641 -0.428342 -2.52188 0
M  V30 3798 H 364.285 -0.578987 -5.04589 0
M  V30 3799 H 364.215 1.19928 -5.12762 0
M  V30 3800 H 366.706 0.462729 -3.75056 0
M  V30 3801 H 367.019 0.322592 -7.72126 0
M  V30 3802 H 365.364 0.29706 -6.94365 0
M  V30 3803 H 368.555 0.489464 -4.65534 0
M  V30 3804 H 368.728 0.425788 -6.466 0
M  V30 3805 N 362.134 1.5431 0.320358 0
M  V30 3806 C 363.411 1.63322 1.07635 0
M  V30 3807 C 363.791 0.46912 2.05821 0
M  V30 3808 O 363.139 -0.536274 2.22118 0
M  V30 3809 C 363.349 3.00465 1.77544 0
M  V30 3810 C 364.697 3.56621 2.30449 0
M  V30 3811 O 365.721 3.02791 1.87606 0
M  V30 3812 O 364.58 4.5083 3.08892 0
M  V30 3813 H 361.674 0.661502 0.496331 0
M  V30 3814 H 364.22 1.66656 0.319992 0
M  V30 3815 H 362.992 3.76629 1.06143 0
M  V30 3816 H 362.615 3.00824 2.59982 0
M  V30 3817 N 363.613 -0.582584 1.46437 0
M  V30 3818 C 364.838 -1.37168 1.55563 0
M  V30 3819 C 365.263 -1.87061 0.19743 0
M  V30 3820 O 364.621 -1.61572 -0.822451 0
M  V30 3821 C 364.669 -2.53511 2.56446 0
M  V30 3822 O 363.773 -3.54953 2.09958 0
M  V30 3823 H 363.114 -0.408494 0.523477 0
M  V30 3824 H 365.644 -0.706646 1.9201 0
M  V30 3825 H 365.654 -3.00426 2.76058 0
M  V30 3826 H 364.329 -2.16549 3.55076 0
M  V30 3827 H 362.906 -3.14516 2.00334 0
M  V30 3828 N 365.091 -1.34144 -0.827227 0
M  V30 3829 C 366.316 -1.29476 -1.62021 0
M  V30 3830 C 366.741 0.129292 -1.87655 0
M  V30 3831 O 366.099 1.08967 -1.449 0
M  V30 3832 C 366.147 -2.08702 -2.94068 0
M  V30 3833 O 365.251 -1.45359 -3.85933 0
M  V30 3834 H 364.592 -0.444881 -0.492927 0
M  V30 3835 H 367.122 -1.76882 -1.02829 0
M  V30 3836 H 367.132 -2.19898 -3.43669 0
M  V30 3837 H 365.807 -3.12241 -2.74734 0
M  V30 3838 H 364.384 -1.42879 -3.44442 0
M  V30 3839 N 366.569 1.04691 -1.17803 0
M  V30 3840 C 367.818 1.77176 -0.963931 0
M  V30 3841 C 368.131 1.88888 0.508015 0
M  V30 3842 O 369.337 2.58164 0.840465 0
M  V30 3843 C 367.793 3.18518 -1.67555 0
M  V30 3844 C 367.401 3.14919 -3.18637 0
M  V30 3845 C 369.145 3.95424 -1.54402 0
M  V30 3846 C 367.052 4.51081 -3.82466 0
M  V30 3847 H 365.982 0.664116 -0.357023 0
M  V30 3848 H 368.633 1.17303 -1.4111 0
M  V30 3849 H 367.015 3.78748 -1.15613 0
M  V30 3850 H 368.189 2.64178 -3.77554 0
M  V30 3851 H 366.504 2.51512 -3.31859 0
M  V30 3852 H 369.101 4.96106 -1.99456 0
M  V30 3853 H 369.444 4.13343 -0.495329 0
M  V30 3854 H 369.977 3.41754 -2.0359 0
M  V30 3855 H 366.716 4.38368 -4.87354 0
M  V30 3856 H 366.236 5.01951 -3.28337 0
M  V30 3857 H 367.915 5.2001 -3.84965 0
M  V30 3858 N 368.047 0.979072 1.23499 0
M  V30 3859 C 369.293 0.648178 1.92163 0
M  V30 3860 C 369.626 -0.816049 1.76222 0
M  V30 3861 O 368.901 -1.58849 1.12237 0
M  V30 3862 C 369.184 1.03773 3.44824 0
M  V30 3863 C 369.037 2.55948 3.69879 0
M  V30 3864 C 370.356 0.580653 4.36253 0
M  V30 3865 H 367.475 0.236952 0.69787 0
M  V30 3866 H 370.117 1.22012 1.45647 0
M  V30 3867 H 368.267 0.551058 3.84572 0
M  V30 3868 H 369.939 3.12179 3.3962 0
M  V30 3869 H 368.182 2.98641 3.14636 0
M  V30 3870 H 368.853 2.78255 4.76737 0
M  V30 3871 H 371.329 0.998465 4.03943 0
M  V30 3872 H 370.205 0.881663 5.41773 0
M  V30 3873 H 370.466 -0.519052 4.39042 0
M  V30 3874 N 369.525 -1.3858 0.750561 0
M  V30 3875 C 370.753 -2.04471 0.316098 0
M  V30 3876 C 371.168 -1.56606 -1.05452 0
M  V30 3877 O 370.525 -0.737784 -1.66922 0
M  V30 3878 C 370.576 -3.60025 0.326275 0
M  V30 3879 O 370.297 -4.06133 1.6428 0
M  V30 3880 C 371.798 -4.43131 -0.122429 0
M  V30 3881 H 369.018 -0.65717 0.135528 0
M  V30 3882 H 371.562 -1.77329 1.01857 0
M  V30 3883 H 369.717 -3.86014 -0.327431 0
M  V30 3884 H 370.131 -5.00547 1.56693 0
M  V30 3885 H 371.605 -5.51963 -0.0641473 0
M  V30 3886 H 372.082 -4.23333 -1.16988 0
M  V30 3887 H 372.688 -4.22323 0.50229 0
M  V30 3888 N 371.003 -0.499398 -1.49478 0
M  V30 3889 C 371.953 0.299103 -2.2603 0
M  V30 3890 C 372.937 0.936934 -1.30807 0
M  V30 3891 O 374.129 0.844798 -1.55538 0
M  V30 3892 C 371.258 1.36391 -3.15044 0
M  V30 3893 C 370.344 0.732398 -4.17728 0
M  V30 3894 N 370.735 -0.164028 -5.05534 0
M  V30 3895 C 369.033 0.993162 -4.34801 0
M  V30 3896 C 369.734 -0.525345 -5.79323 0
M  V30 3897 N 368.71 0.106348 -5.43496 0
M  V30 3898 H 372.512 -0.391003 -2.91287 0
M  V30 3899 H 370.026 -0.31537 -1.59308 0
M  V30 3900 H 372.023 1.94939 -3.68516 0
M  V30 3901 H 370.683 2.05571 -2.51338 0
M  V30 3902 H 371.694 -0.534736 -5.15132 0
M  V30 3903 H 368.371 1.67783 -3.82302 0
M  V30 3904 H 369.761 -1.25862 -6.60006 0
M  V30 3905 N 372.481 1.55866 -0.233164 0
M  V30 3906 C 373.758 1.90471 0.444988 0
M  V30 3907 C 374.138 1.15209 1.7689 0
M  V30 3908 O 373.486 0.265119 2.26957 0
M  V30 3909 C 373.696 3.4333 0.626559 0
M  V30 3910 C 375.044 4.14319 0.92871 0
M  V30 3911 O 376.068 3.48993 0.712926 0
M  V30 3912 O 374.927 5.29846 1.33887 0
M  V30 3913 H 372.021 0.792347 0.236885 0
M  V30 3914 H 374.567 1.67437 -0.276211 0
M  V30 3915 H 373.339 3.90095 -0.306822 0
M  V30 3916 H 372.962 3.72181 1.39881 0
M  V30 3917 N 373.959 -0.0401083 1.57549 0
M  V30 3918 C 374.907 -1.06264 2.06908 0
M  V30 3919 C 375.901 -1.38132 0.980608 0
M  V30 3920 O 377.107 -1.37167 1.16556 0
M  V30 3921 H 373.482 -0.360166 0.660139 0
M  V30 3922 H 375.453 -0.620445 2.91878 0
M  V30 3923 C 374.202 -2.35846 2.55483 0
M  V30 3924 H 373.525 -2.12183 3.38849 0
M  V30 3925 H 374.965 -3.05765 2.93741 0
M  V30 3926 C 373.424 -3.0404 1.45126 0
M  V30 3927 O 373.954 -3.93424 0.811216 0
M  V30 3928 N 372.16 -2.65184 1.18852 0
M  V30 3929 H 371.707 -1.92584 1.71083 0
M  V30 3930 H 371.665 -3.1113 0.452244 0
M  V30 3931 N 375.437 -1.54477 -0.31217 0
M  V30 3932 C 376.714 -1.63891 -1.06767 0
M  V30 3933 C 377.094 -0.480028 -2.0557 0
M  V30 3934 O 376.442 0.524487 -2.22399 0
M  V30 3935 C 376.652 -3.01402 -1.75948 0
M  V30 3936 C 378 -3.57838 -2.28554 0
M  V30 3937 O 379.024 -3.03782 -1.85998 0
M  V30 3938 O 377.883 -4.52462 -3.06497 0
M  V30 3939 H 374.977 -0.664125 -0.492816 0
M  V30 3940 H 377.523 -1.66823 -0.311149 0
M  V30 3941 H 376.295 -3.77187 -1.04144 0
M  V30 3942 H 375.918 -3.02199 -2.58383 0
M  V30 3943 N 376.915 0.57481 -1.46744 0
M  V30 3944 C 378.164 1.32898 -1.51727 0
M  V30 3945 C 378.477 1.948 -0.176692 0
M  V30 3946 O 379.683 2.71299 -0.104385 0
M  V30 3947 C 378.139 2.40901 -2.67385 0
M  V30 3948 C 377.747 1.85266 -4.07898 0
M  V30 3949 C 379.491 3.17609 -2.81646 0
M  V30 3950 C 377.398 2.90945 -5.14883 0
M  V30 3951 H 376.328 0.499631 -0.564699 0
M  V30 3952 H 378.979 0.612536 -1.72975 0
M  V30 3953 H 377.361 3.15379 -2.39483 0
M  V30 3954 H 378.535 1.17278 -4.45626 0
M  V30 3955 H 376.85 1.21199 -3.98371 0
M  V30 3956 H 379.447 3.96493 -3.58744 0
M  V30 3957 H 379.79 3.70696 -1.89448 0
M  V30 3958 H 380.323 2.50239 -3.09233 0
M  V30 3959 H 377.062 2.42736 -6.089 0
M  V30 3960 H 376.582 3.57398 -4.81691 0
M  V30 3961 H 378.261 3.54755 -5.41071 0
M  V30 3962 N 378.394 1.34581 0.820102 0
M  V30 3963 C 379.641 1.27096 1.57648 0
M  V30 3964 C 379.969 -0.158317 1.93855 0
M  V30 3965 O 379.224 -1.12028 1.60463 0
M  V30 3966 C 379.523 2.10997 2.8847 0
M  V30 3967 C 379.189 3.59966 2.71543 0
M  V30 3968 C 377.851 4.00575 2.66634 0
M  V30 3969 C 380.203 4.54548 2.55021 0
M  V30 3970 C 377.531 5.33953 2.43128 0
M  V30 3971 C 379.883 5.88109 2.33047 0
M  V30 3972 C 378.547 6.27878 2.26552 0
M  V30 3973 H 377.817 0.465078 0.576874 0
M  V30 3974 H 380.464 1.6635 0.948671 0
M  V30 3975 H 378.769 1.6458 3.55557 0
M  V30 3976 H 380.466 2.0255 3.46084 0
M  V30 3977 H 377.056 3.27733 2.76205 0
M  V30 3978 H 381.24 4.24069 2.57835 0
M  V30 3979 H 376.496 5.63781 2.3656 0
M  V30 3980 H 380.67 6.60985 2.19251 0
M  V30 3981 H 378.297 7.31162 2.081 0
M  V30 3982 N 379.872 -1.04064 1.18357 0
M  V30 3983 C 381.288 -1.2947 0.933258 0
M  V30 3984 C 381.488 -1.97466 -0.401169 0
M  V30 3985 O 380.544 -2.25528 -1.13549 0
M  V30 3986 C 381.857 -2.15337 2.09882 0
M  V30 3987 C 383.405 -2.28683 2.13712 0
M  V30 3988 C 383.88 -3.17917 3.29686 0
M  V30 3989 N 385.371 -3.25504 3.29547 0
M  V30 3990 C 386.106 -3.94706 4.15926 0
M  V30 3991 N 385.602 -4.66239 5.12439 0
M  V30 3992 N 387.395 -3.90986 4.0384 0
M  V30 3993 H 379.546 -0.583359 2.04232 0
M  V30 3994 H 381.809 -0.319921 0.892387 0
M  V30 3995 H 381.515 -1.72682 3.06389 0
M  V30 3996 H 381.389 -3.16015 2.05947 0
M  V30 3997 H 383.776 -2.70575 1.17784 0
M  V30 3998 H 383.857 -1.27596 2.21705 0
M  V30 3999 H 383.501 -2.76736 4.25887 0
M  V30 4000 H 383.431 -4.19036 3.1893 0
M  V30 4001 H 385.922 -2.74547 2.59677 0
M  V30 4002 H 386.235 -5.16638 5.74722 0
M  V30 4003 H 384.58 -4.65143 5.16398 0
M  V30 4004 H 387.771 -3.34234 3.27727 0
M  V30 4005 H 387.944 -4.44646 4.71375 0
M  V30 4006 N 381.35 -0.985608 -1.22978 0
M  V30 4007 C 382.578 -0.675582 -1.95559 0
M  V30 4008 C 382.993 0.758413 -1.72897 0
M  V30 4009 O 382.35 1.51094 -1.02357 0
M  V30 4010 C 382.401 -0.96293 -3.48439 0
M  V30 4011 O 382.122 -2.34057 -3.70336 0
M  V30 4012 C 383.623 -0.669585 -4.38214 0
M  V30 4013 H 380.843 -0.250523 -0.622478 0
M  V30 4014 H 383.387 -1.3184 -1.56328 0
M  V30 4015 H 381.542 -0.366033 -3.85667 0
M  V30 4016 H 381.956 -2.43424 -4.64591 0
M  V30 4017 H 383.43 -0.920967 -5.44263 0
M  V30 4018 H 383.907 0.396383 -4.37408 0
M  V30 4019 H 384.513 -1.2472 -4.06602 0
M  V30 4020 N 382.828 1.3818 -0.7579 0
M  V30 4021 C 384.077 1.99261 -0.312744 0
M  V30 4022 C 384.39 1.60846 1.11301 0
M  V30 4023 O 385.596 2.14929 1.65885 0
M  V30 4024 C 384.052 3.56294 -0.50821 0
M  V30 4025 C 383.66 4.03657 -1.94333 0
M  V30 4026 C 385.404 4.24313 -0.125982 0
M  V30 4027 C 383.311 5.53347 -2.08712 0
M  V30 4028 H 382.241 0.745456 -0.113185 0
M  V30 4029 H 384.892 1.57889 -0.935056 0
M  V30 4030 H 383.274 3.95575 0.183353 0
M  V30 4031 H 384.448 3.75655 -2.66871 0
M  V30 4032 H 382.763 3.48376 -2.28086 0
M  V30 4033 H 385.36 5.34279 -0.212125 0
M  V30 4034 H 385.703 4.05962 0.921964 0
M  V30 4035 H 386.236 3.90285 -0.769563 0
M  V30 4036 H 382.975 5.76607 -3.11777 0
M  V30 4037 H 382.495 5.83078 -1.4064 0
M  V30 4038 H 384.174 6.19111 -1.87912 0
M  V30 4039 N 384.306 0.507319 1.49211 0
M  V30 4040 C 385.236 -0.256939 2.32082 0
M  V30 4041 C 386.217 -0.956609 1.40652 0
M  V30 4042 O 387.402 -0.946788 1.69557 0
M  V30 4043 C 384.532 -1.31802 3.21318 0
M  V30 4044 C 383.486 -0.737855 4.21592 0
M  V30 4045 C 382.812 -1.89992 4.99807 0
M  V30 4046 C 384.112 0.275325 5.21574 0
M  V30 4047 H 385.806 0.434798 2.96226 0
M  V30 4048 H 383.352 0.210546 1.42452 0
M  V30 4049 H 385.305 -1.86045 3.78107 0
M  V30 4050 H 384.029 -2.03903 2.5513 0
M  V30 4051 H 382.688 -0.217126 3.65956 0
M  V30 4052 H 382.336 -2.60877 4.30061 0
M  V30 4053 H 382.036 -1.51777 5.6766 0
M  V30 4054 H 383.56 -2.44657 5.59442 0
M  V30 4055 H 384.974 -0.179193 5.7302 0
M  V30 4056 H 383.371 0.573649 5.97352 0
M  V30 4057 H 384.441 1.18903 4.70096 0
M  V30 4058 N 385.784 -1.5574 0.241426 0
M  V30 4059 C 387.195 -1.84842 -0.262755 0
M  V30 4060 C 387.546 -1.16317 -1.58003 0
M  V30 4061 O 386.671 -0.439653 -2.11887 0
M  V30 4062 C 387.266 -3.35332 -0.483523 0
M  V30 4063 C 385.825 -3.6468 -0.931977 0
M  V30 4064 C 384.972 -2.77299 -0.0061151 0
M  V30 4065 H 387.923 -1.51761 0.464129 0
M  V30 4066 H 387.944 -3.56615 -1.32688 0
M  V30 4067 H 387.456 -3.85178 0.47537 0
M  V30 4068 H 385.557 -3.20307 -1.90353 0
M  V30 4069 H 385.67 -4.72498 -0.792628 0
M  V30 4070 H 384.034 -2.49408 -0.516503 0
M  V30 4071 H 384.817 -3.2995 0.948052 0
M  V30 4072 N 387.262 0.0317525 -1.57568 0
M  V30 4073 C 388.195 1.06621 -2.0176 0
M  V30 4074 C 389.173 1.35323 -0.901462 0
M  V30 4075 O 390.357 1.48025 -1.16708 0
M  V30 4076 C 387.484 2.40155 -2.38837 0
M  V30 4077 C 386.53 2.27327 -3.60867 0
M  V30 4078 S 387.363 1.62925 -5.10113 0
M  V30 4079 C 388.519 2.97955 -5.5043 0
M  V30 4080 H 388.752 0.689781 -2.89187 0
M  V30 4081 H 386.285 0.24164 -1.52497 0
M  V30 4082 H 388.243 3.1695 -2.6087 0
M  V30 4083 H 386.904 2.74946 -1.51867 0
M  V30 4084 H 386.097 3.25898 -3.84456 0
M  V30 4085 H 385.699 1.58675 -3.38671 0
M  V30 4086 H 387.991 3.94285 -5.5095 0
M  V30 4087 H 388.934 2.79102 -6.50775 0
M  V30 4088 H 389.342 3.00404 -4.77931 0
M  V30 4089 N 388.74 1.54641 0.303973 0
M  V30 4090 C 390.017 1.64455 1.05896 0
M  V30 4091 C 390.397 0.490923 2.05312 0
M  V30 4092 O 389.745 -0.512685 2.22674 0
M  V30 4093 C 389.955 3.02331 1.74347 0
M  V30 4094 C 391.303 3.59045 2.26653 0
M  V30 4095 O 392.327 3.04764 1.84384 0
M  V30 4096 O 391.186 4.54081 3.04093 0
M  V30 4097 H 388.28 0.666729 0.489287 0
M  V30 4098 H 390.826 1.66986 0.302298 0
M  V30 4099 H 389.598 3.77734 1.02142 0
M  V30 4100 H 389.221 3.03565 2.56777 0
M  V30 4101 N 390.218 -0.567019 1.47046 0
M  V30 4102 C 391.15 -1.68985 1.54844 0
M  V30 4103 C 392.163 -1.56869 0.435431 0
M  V30 4104 O 393.352 -1.64006 0.70457 0
M  V30 4105 C 390.452 -3.07373 1.42742 0
M  V30 4106 C 389.625 -3.45339 2.6844 0
M  V30 4107 C 388.684 -4.62849 2.50314 0
M  V30 4108 O 387.71 -4.67922 3.24095 0
M  V30 4109 N 388.912 -5.58726 1.57499 0
M  V30 4110 H 391.677 -1.62745 2.51663 0
M  V30 4111 H 389.238 -0.753411 1.43302 0
M  V30 4112 H 391.23 -3.83803 1.28365 0
M  V30 4113 H 389.8 -3.07893 0.540445 0
M  V30 4114 H 389.02 -2.58455 2.97648 0
M  V30 4115 H 390.308 -3.67476 3.51907 0
M  V30 4116 H 389.706 -5.57376 0.966876 0
M  V30 4117 H 388.263 -6.34523 1.49078 0
M  V30 4118 N 391.696 -1.35014 -0.812953 0
M  V30 4119 C 392.606 -1.2951 -1.95613 0
M  V30 4120 C 393.622 -0.20107 -1.72834 0
M  V30 4121 O 394.798 -0.42932 -1.96771 0
M  V30 4122 C 391.863 -1.06033 -3.30088 0
M  V30 4123 C 390.924 -2.24688 -3.65805 0
M  V30 4124 C 390.157 -2.02322 -4.93864 0
M  V30 4125 O 390.38 -0.986464 -5.61805 0
M  V30 4126 O 389.314 -2.89525 -5.27692 0
M  V30 4127 H 393.14 -2.25705 -2.03202 0
M  V30 4128 H 390.725 -1.15321 -0.949811 0
M  V30 4129 H 392.607 -0.94763 -4.10607 0
M  V30 4130 H 391.282 -0.128852 -3.23443 0
M  V30 4131 H 390.189 -2.41521 -2.85689 0
M  V30 4132 H 391.522 -3.16261 -3.77147 0
M  V30 4133 N 393.175 1.03435 -1.18907 0
M  V30 4134 C 394.422 1.76743 -0.988334 0
M  V30 4135 C 394.75 1.88447 0.481441 0
M  V30 4136 O 394.005 1.39383 1.37371 0
M  V30 4137 C 394.304 3.19792 -1.59586 0
M  V30 4138 C 393.97 3.28108 -3.09283 0
M  V30 4139 C 392.632 3.30084 -3.5014 0
M  V30 4140 C 394.984 3.27696 -4.05296 0
M  V30 4141 C 392.312 3.29299 -4.85571 0
M  V30 4142 C 394.664 3.28451 -5.4065 0
M  V30 4143 C 393.328 3.28723 -5.80946 0
M  V30 4144 H 392.598 0.64675 -0.361657 0
M  V30 4145 H 395.245 1.21442 -1.48068 0
M  V30 4146 H 393.55 3.78136 -1.02568 0
M  V30 4147 H 395.247 3.75171 -1.41589 0
M  V30 4148 H 391.837 3.27294 -2.76725 0
M  V30 4149 H 396.021 3.25354 -3.74778 0
M  V30 4150 H 391.277 3.2783 -5.16079 0
M  V30 4151 H 395.451 3.27082 -6.14809 0
M  V30 4152 H 393.078 3.27868 -6.85862 0
M  V30 4153 N 394.653 0.992116 1.22453 0
M  V30 4154 C 395.881 0.685944 1.95198 0
M  V30 4155 C 396.296 -0.749233 1.73297 0
M  V30 4156 O 395.653 -1.50549 1.03156 0
M  V30 4157 C 395.704 0.981395 3.47924 0
M  V30 4158 O 395.425 2.36018 3.6909 0
M  V30 4159 C 396.926 0.692815 4.37853 0
M  V30 4160 H 394.146 0.253821 0.621141 0
M  V30 4161 H 396.69 1.32668 1.55626 0
M  V30 4162 H 394.845 0.386481 3.85467 0
M  V30 4163 H 395.259 2.45884 4.63294 0
M  V30 4164 H 396.733 0.949818 5.43767 0
M  V30 4165 H 397.21 -0.373181 4.37612 0
M  V30 4166 H 397.816 1.26874 4.05935 0
M  V30 4167 N 396.131 -1.37776 0.765217 0
M  V30 4168 C 397.361 -2.03828 0.337277 0
M  V30 4169 C 397.769 -1.57841 -1.04321 0
M  V30 4170 O 397.112 -0.752043 -1.67601 0
M  V30 4171 C 397.174 -3.58292 0.294407 0
M  V30 4172 C 396.838 -4.27384 1.61838 0
M  V30 4173 C 397.835 -4.51956 2.56967 0
M  V30 4174 C 395.52 -4.65345 1.89102 0
M  V30 4175 C 397.514 -5.13536 3.77571 0
M  V30 4176 C 395.201 -5.26647 3.09978 0
M  V30 4177 C 396.199 -5.50679 4.04032 0
M  V30 4178 O 395.887 -6.10702 5.2278 0
M  V30 4179 H 395.619 -0.661292 0.140248 0
M  V30 4180 H 398.173 -1.77222 1.03834 0
M  V30 4181 H 396.403 -3.83918 -0.462983 0
M  V30 4182 H 398.092 -4.05763 -0.105581 0
M  V30 4183 H 398.858 -4.23048 2.37183 0
M  V30 4184 H 394.737 -4.45978 1.16725 0
M  V30 4185 H 398.281 -5.3221 4.50997 0
M  V30 4186 H 394.178 -5.54979 3.29649 0
M  V30 4187 H 394.946 -6.29183 5.23517 0
M  V30 4188 N 397.609 -0.515225 -1.4894 0
M  V30 4189 C 399.025 -0.172099 -1.58669 0
M  V30 4190 C 399.225 1.32405 -1.51892 0
M  V30 4191 O 398.281 2.10116 -1.40027 0
M  V30 4192 C 399.594 -0.761533 -2.90897 0
M  V30 4193 C 401.142 -0.728926 -3.04394 0
M  V30 4194 C 401.617 -1.29667 -4.39261 0
M  V30 4195 N 403.108 -1.25799 -4.4579 0
M  V30 4196 C 403.843 -1.66733 -5.48623 0
M  V30 4197 N 403.339 -2.15327 -6.58488 0
M  V30 4198 N 405.132 -1.58061 -5.39419 0
M  V30 4199 H 397.283 -1.48778 -1.51588 0
M  V30 4200 H 399.546 -0.617968 -0.718901 0
M  V30 4201 H 399.252 -1.81136 -3.01468 0
M  V30 4202 H 399.126 -0.230106 -3.76497 0
M  V30 4203 H 401.513 0.312098 -2.93445 0
M  V30 4204 H 401.594 -1.29766 -2.20442 0
M  V30 4205 H 401.238 -2.33655 -4.50963 0
M  V30 4206 H 401.168 -0.703752 -5.21876 0
M  V30 4207 H 403.659 -0.902102 -3.66975 0
M  V30 4208 H 403.972 -2.44594 -7.33071 0
M  V30 4209 H 402.317 -2.19311 -6.59491 0
M  V30 4210 H 405.508 -1.19906 -4.52482 0
M  V30 4211 H 405.681 -1.90284 -6.19432 0
M  V30 4212 N 399.087 1.5561 -0.249682 0
M  V30 4213 C 400.333 1.99306 0.374841 0
M  V30 4214 C 400.666 1.13767 1.57387 0
M  V30 4215 O 399.941 0.201711 1.93451 0
M  V30 4216 C 400.224 3.51507 0.781986 0
M  V30 4217 C 400.077 4.4781 -0.422629 0
M  V30 4218 C 401.396 4.08884 1.62793 0
M  V30 4219 H 398.515 0.724572 0.134773 0
M  V30 4220 H 401.157 1.86719 -0.351549 0
M  V30 4221 H 399.307 3.62363 1.4009 0
M  V30 4222 H 400.979 4.48931 -1.06108 0
M  V30 4223 H 399.222 4.20518 -1.06524 0
M  V30 4224 H 399.893 5.51919 -0.0943766 0
M  V30 4225 H 402.369 4.01147 1.10547 0
M  V30 4226 H 401.245 5.1564 1.88166 0
M  V30 4227 H 401.506 3.57515 2.60068 0
M  V30 4228 N 400.565 -0.0233959 1.57583 0
M  V30 4229 C 401.512 -1.02224 2.06927 0
M  V30 4230 C 402.482 -1.35575 0.959617 0
M  V30 4231 O 403.667 -1.45815 1.23055 0
M  V30 4232 C 400.807 -2.31636 2.5581 0
M  V30 4233 C 399.92 -2.04394 3.80588 0
M  V30 4234 C 399.055 -3.27717 4.18061 0
M  V30 4235 C 398.094 -2.96056 5.3574 0
M  V30 4236 N 397.231 -4.11847 5.68618 0
M  V30 4237 H 402.071 -0.594504 2.9201 0
M  V30 4238 H 399.608 -0.281921 1.44373 0
M  V30 4239 H 401.566 -3.07258 2.82221 0
M  V30 4240 H 400.196 -2.72122 1.73636 0
M  V30 4241 H 399.248 -1.19244 3.61227 0
M  V30 4242 H 400.56 -1.77042 4.66323 0
M  V30 4243 H 399.714 -4.11702 4.4563 0
M  V30 4244 H 398.453 -3.58188 3.30988 0
M  V30 4245 H 397.458 -2.10474 5.07918 0
M  V30 4246 H 398.683 -2.66857 6.24471 0
M  V30 4247 H 396.629 -4.42258 4.84504 0
M  V30 4248 H 396.546 -3.87938 6.48876 0
M  V30 4249 H 397.814 -4.96689 6.00766 0
M  V30 4250 N 402.043 -1.548 -0.295768 0
M  V30 4251 C 402.991 -1.86874 -1.38495 0
M  V30 4252 C 403.985 -0.742938 -1.52239 0
M  V30 4253 O 405.191 -0.926999 -1.54294 0
M  V30 4254 H 401.566 -0.592786 -0.462719 0
M  V30 4255 H 403.537 -2.77904 -1.08682 0
M  V30 4256 C 402.286 -2.13732 -2.74252 0
M  V30 4257 H 401.609 -2.99835 -2.64459 0
M  V30 4258 H 403.049 -2.4011 -3.49461 0
M  V30 4259 C 401.508 -0.937539 -3.23592 0
M  V30 4260 O 402.038 -0.160665 -4.01379 0
M  V30 4261 N 400.244 -0.741478 -2.80981 0
M  V30 4262 H 399.791 -1.37489 -2.1784 0
M  V30 4263 H 399.749 0.0597103 -3.14343 0
M  V30 4264 N 403.521 0.559213 -1.47345 0
M  V30 4265 C 404.937 0.884943 -1.32819 0
M  V30 4266 C 405.137 1.98988 -0.317173 0
M  V30 4267 O 404.193 2.51031 0.272011 0
M  V30 4268 C 405.506 1.28007 -2.72093 0
M  V30 4269 C 407.054 1.39161 -2.80363 0
M  V30 4270 C 407.529 1.82031 -4.20272 0
M  V30 4271 N 409.02 1.89185 -4.22804 0
M  V30 4272 C 409.755 2.2368 -5.27973 0
M  V30 4273 N 409.251 2.56802 -6.43447 0
M  V30 4274 N 411.044 2.24436 -5.15349 0
M  V30 4275 H 403.195 -0.170304 -2.11716 0
M  V30 4276 H 405.458 -0.0135247 -0.947904 0
M  V30 4277 H 405.164 0.542027 -3.47498 0
M  V30 4278 H 405.038 2.23665 -3.03733 0
M  V30 4279 H 407.425 2.12048 -2.05231 0
M  V30 4280 H 407.506 0.41696 -2.52379 0
M  V30 4281 H 407.15 1.09715 -4.95908 0
M  V30 4282 H 407.08 2.80495 -4.45679 0
M  V30 4283 H 409.571 1.65982 -3.39497 0
M  V30 4284 H 409.884 2.82144 -7.19454 0
M  V30 4285 H 408.229 2.54387 -6.46771 0
M  V30 4286 H 411.42 1.97998 -4.24163 0
M  V30 4287 H 411.593 2.50989 -5.97418 0
M  V30 4288 N 404.999 1.35443 0.805782 0
M  V30 4289 C 405.909 1.30546 1.94923 0
M  V30 4290 C 406.925 0.210233 1.72725 0
M  V30 4291 O 408.101 0.43975 1.9654 0
M  V30 4292 C 405.166 1.07782 3.29521 0
M  V30 4293 C 404.227 2.26625 3.64609 0
M  V30 4294 C 403.46 2.04938 4.92784 0
M  V30 4295 O 403.683 1.01624 5.61274 0
M  V30 4296 O 402.617 2.9232 5.26149 0
M  V30 4297 H 406.443 2.26779 2.02002 0
M  V30 4298 H 404.028 1.15823 0.943682 0
M  V30 4299 H 405.91 0.969392 4.10098 0
M  V30 4300 H 404.585 0.146003 3.23371 0
M  V30 4301 H 403.492 2.43033 2.84404 0
M  V30 4302 H 404.825 3.18257 3.75464 0
M  V30 4303 N 406.477 -1.02803 1.19454 0
M  V30 4304 C 407.409 -2.11181 0.890807 0
M  V30 4305 C 408.422 -1.6238 -0.116829 0
M  V30 4306 O 409.611 -1.78144 0.112694 0
M  V30 4307 C 406.711 -3.37461 0.311942 0
M  V30 4308 C 405.884 -4.15446 1.36834 0
M  V30 4309 C 404.943 -5.20039 0.802864 0
M  V30 4310 O 403.969 -5.49602 1.48077 0
M  V30 4311 N 405.171 -5.79165 -0.393417 0
M  V30 4312 H 407.936 -2.37827 1.82369 0
M  V30 4313 H 405.497 -1.19101 1.09666 0
M  V30 4314 H 407.489 -4.0462 -0.0802225 0
M  V30 4315 H 406.059 -3.08156 -0.52524 0
M  V30 4316 H 405.279 -3.43423 1.93531 0
M  V30 4317 H 406.567 -4.64335 2.08015 0
M  V30 4318 H 405.965 -5.57466 -0.961658 0
M  V30 4319 H 404.522 -6.47729 -0.727351 0
M  V30 4320 N 407.956 -0.998596 -1.21925 0
M  V30 4321 C 408.919 -0.558679 -2.22287 0
M  V30 4322 C 409.919 0.361525 -1.56683 0
M  V30 4323 O 411.109 0.152695 -1.73529 0
M  V30 4324 C 408.241 0.18661 -3.40389 0
M  V30 4325 H 409.434 -1.4463 -2.62721 0
M  V30 4326 H 406.987 -0.786413 -1.35075 0
M  V30 4327 H 407.722 1.08996 -3.05435 0
M  V30 4328 H 407.507 -0.474188 -3.89222 0
M  V30 4329 H 408.997 0.482367 -4.14805 0
M  V30 4330 N 409.434 1.37368 -0.772513 0
M  V30 4331 C 410.664 2.03647 -0.348082 0
M  V30 4332 C 411.072 1.58392 1.03482 0
M  V30 4333 O 410.415 0.760921 1.672 0
M  V30 4334 C 410.477 3.58131 -0.313404 0
M  V30 4335 C 410.141 4.2652 -1.64102 0
M  V30 4336 C 411.138 4.50587 -2.5936 0
M  V30 4337 C 408.823 4.64335 -1.91567 0
M  V30 4338 C 410.817 5.11526 -3.80289 0
M  V30 4339 C 408.504 5.24996 -3.12766 0
M  V30 4340 C 409.502 5.48529 -4.06946 0
M  V30 4341 O 409.19 6.07921 -5.26011 0
M  V30 4342 H 408.922 0.660538 -0.143753 0
M  V30 4343 H 411.476 1.76669 -1.04772 0
M  V30 4344 H 409.706 3.84159 0.442617 0
M  V30 4345 H 411.395 4.05813 0.0840613 0
M  V30 4346 H 412.161 4.21784 -2.39423 0
M  V30 4347 H 408.04 4.45353 -1.19088 0
M  V30 4348 H 411.584 5.29811 -4.53813 0
M  V30 4349 H 407.481 5.53223 -3.32588 0
M  V30 4350 H 408.249 6.26398 -5.26847 0
M  V30 4351 N 410.912 0.523116 1.48665 0
M  V30 4352 C 412.328 0.180511 1.58576 0
M  V30 4353 C 412.528 -1.31597 1.52592 0
M  V30 4354 O 411.584 -2.0937 1.4114 0
M  V30 4355 C 412.897 0.776949 2.90489 0
M  V30 4356 C 414.445 0.745058 3.04003 0
M  V30 4357 C 414.92 1.31995 4.38567 0
M  V30 4358 N 416.411 1.28162 4.45117 0
M  V30 4359 C 417.146 1.6964 5.47731 0
M  V30 4360 N 416.642 2.18816 6.57337 0
M  V30 4361 N 418.435 1.6092 5.38573 0
M  V30 4362 H 410.586 1.4958 1.50797 0
M  V30 4363 H 412.849 0.621772 0.715614 0
M  V30 4364 H 412.555 1.82732 3.00503 0
M  V30 4365 H 412.429 0.25007 3.7637 0
M  V30 4366 H 414.816 -0.296532 2.93606 0
M  V30 4367 H 414.897 1.30933 2.1975 0
M  V30 4368 H 414.541 2.36043 4.49718 0
M  V30 4369 H 414.471 0.731418 5.21496 0
M  V30 4370 H 416.962 0.92155 3.66491 0
M  V30 4371 H 417.275 2.48478 7.31764 0
M  V30 4372 H 415.62 2.22805 6.58318 0
M  V30 4373 H 418.811 1.22304 4.5184 0
M  V30 4374 H 418.984 1.93567 6.18414 0
M  V30 4375 N 412.39 -1.55475 0.257931 0
M  V30 4376 C 413.639 -1.98383 -0.364275 0
M  V30 4377 C 413.952 -1.14952 -1.58258 0
M  V30 4378 O 415.158 -1.47924 -2.27664 0
M  V30 4379 C 413.614 -3.53037 -0.699479 0
M  V30 4380 C 413.222 -4.45223 0.498046 0
M  V30 4381 C 414.966 -4.04575 -1.28526 0
M  V30 4382 C 412.873 -5.91238 0.138383 0
M  V30 4383 H 411.803 -0.740911 -0.13988 0
M  V30 4384 H 414.454 -1.79936 0.359883 0
M  V30 4385 H 412.836 -3.6722 -1.48207 0
M  V30 4386 H 414.01 -4.42803 1.27522 0
M  V30 4387 H 412.325 -4.04226 0.999503 0
M  V30 4388 H 414.922 -5.11196 -1.56788 0
M  V30 4389 H 415.265 -3.5258 -2.21344 0
M  V30 4390 H 415.798 -3.93762 -0.565337 0
M  V30 4391 H 412.537 -6.47294 1.03398 0
M  V30 4392 H 412.057 -5.96768 -0.602374 0
M  V30 4393 H 413.736 -6.46413 -0.27553 0
M  V30 4394 N 413.868 0.0150385 -1.57593 0
M  V30 4395 C 414.816 1.02958 -2.08572 0
M  V30 4396 C 415.81 1.36554 -1.00246 0
M  V30 4397 O 417.016 1.35295 -1.18724 0
M  V30 4398 H 413.391 0.349619 -0.665786 0
M  V30 4399 H 415.362 0.573932 -2.92829 0
M  V30 4400 C 414.111 2.31752 -2.59203 0
M  V30 4401 H 413.434 2.06765 -3.42182 0
M  V30 4402 H 414.874 3.01053 -2.98568 0
M  V30 4403 C 413.333 3.01692 -1.49945 0
M  V30 4404 O 413.863 3.92083 -0.873704 0
M  V30 4405 N 412.069 2.6326 -1.23056 0
M  V30 4406 H 411.616 1.89838 -1.74125 0
M  V30 4407 H 411.574 3.10372 -0.501685 0
M  V30 4408 N 415.346 1.54954 0.287554 0
M  V30 4409 C 416.293 1.86834 1.35505 0
M  V30 4410 C 417.263 0.718452 1.49758 0
M  V30 4411 O 418.448 0.968358 1.644 0
M  V30 4412 C 415.588 2.13303 2.71286 0
M  V30 4413 C 414.701 3.40883 2.65373 0
M  V30 4414 C 413.836 3.57125 3.93236 0
M  V30 4415 C 412.875 4.78449 3.81776 0
M  V30 4416 N 412.012 4.91426 5.01443 0
M  V30 4417 H 416.852 2.77889 1.07619 0
M  V30 4418 H 414.389 1.37593 0.520241 0
M  V30 4419 H 416.347 2.26646 3.50267 0
M  V30 4420 H 414.977 1.25499 2.97405 0
M  V30 4421 H 414.029 3.36088 1.78182 0
M  V30 4422 H 415.341 4.29993 2.52799 0
M  V30 4423 H 414.495 3.70207 4.80658 0
M  V30 4424 H 413.234 2.66173 4.0866 0
M  V30 4425 H 412.239 4.65386 2.92738 0
M  V30 4426 H 413.464 5.70822 3.67884 0
M  V30 4427 H 411.41 4.03401 5.17304 0
M  V30 4428 H 411.327 5.74559 4.91343 0
M  V30 4429 H 412.595 5.08879 5.90477 0
M  V30 4430 N 416.824 -0.551391 1.4764 0
M  V30 4431 C 417.771 -1.65796 1.60563 0
M  V30 4432 C 418.741 -1.59932 0.448428 0
M  V30 4433 O 419.926 -1.78679 0.669222 0
M  V30 4434 C 417.066 -3.04108 1.63133 0
M  V30 4435 C 416.179 -3.20365 2.89811 0
M  V30 4436 C 415.314 -4.49109 2.8368 0
M  V30 4437 C 414.353 -4.58819 4.05156 0
M  V30 4438 N 413.49 -5.78926 3.97227 0
M  V30 4439 H 418.33 -1.54088 2.5507 0
M  V30 4440 H 415.867 -0.75052 1.26513 0
M  V30 4441 H 417.825 -3.84207 1.62606 0
M  V30 4442 H 416.455 -3.14637 0.721341 0
M  V30 4443 H 415.507 -2.33659 3.00179 0
M  V30 4444 H 416.819 -3.23402 3.79753 0
M  V30 4445 H 415.973 -5.37475 2.81434 0
M  V30 4446 H 414.712 -4.4856 1.91431 0
M  V30 4447 H 413.717 -3.68864 4.077 0
M  V30 4448 H 414.942 -4.61124 4.98539 0
M  V30 4449 H 412.888 -5.79314 3.07785 0
M  V30 4450 H 412.805 -5.83367 4.80853 0
M  V30 4451 H 414.073 -6.69637 3.99007 0
M  V30 4452 N 418.302 -1.35869 -0.798587 0
M  V30 4453 C 419.527 -1.32883 -1.59238 0
M  V30 4454 C 419.952 0.0894587 -1.87887 0
M  V30 4455 O 419.31 1.05869 -1.47178 0
M  V30 4456 C 419.358 -2.14892 -2.89575 0
M  V30 4457 O 418.462 -1.53512 -3.82763 0
M  V30 4458 H 417.803 -0.455236 -0.48338 0
M  V30 4459 H 420.333 -1.79024 -0.990539 0
M  V30 4460 H 420.343 -2.27139 -3.38928 0
M  V30 4461 H 419.018 -3.17998 -2.68049 0
M  V30 4462 H 417.595 -1.50153 -3.41334 0
M  V30 4463 N 419.78 1.02168 -1.19998 0
M  V30 4464 C 421.028 1.75338 -1.00504 0
M  V30 4465 C 421.349 1.89387 0.464506 0
M  V30 4466 O 420.619 1.43268 1.33608 0
M  V30 4467 H 419.199 0.649564 -0.368885 0
M  V30 4468 H 421.861 1.23205 -1.51018 0
M  V30 4469 H 420.957 2.75892 -1.45912 0
M  V30 4470 N 421.258 1.00505 1.21394 0
M  V30 4471 C 422.188 0.585684 2.26035 0
M  V30 4472 C 423.169 -0.393525 1.65485 0
M  V30 4473 O 424.354 -0.281497 1.92149 0
M  V30 4474 C 421.484 -0.0884283 3.47187 0
M  V30 4475 C 420.438 0.810567 4.20254 0
M  V30 4476 C 419.764 0.00286382 5.347 0
M  V30 4477 C 421.064 2.1132 4.77641 0
M  V30 4478 H 422.758 1.46039 2.61368 0
M  V30 4479 H 420.304 0.703648 1.25638 0
M  V30 4480 H 422.257 -0.393286 4.19561 0
M  V30 4481 H 420.981 -0.997766 3.10986 0
M  V30 4482 H 419.64 1.09925 3.49731 0
M  V30 4483 H 419.288 -0.907765 4.94741 0
M  V30 4484 H 418.988 0.601444 5.84514 0
M  V30 4485 H 420.512 -0.295808 6.09883 0
M  V30 4486 H 421.926 1.87148 5.41893 0
M  V30 4487 H 420.323 2.66164 5.37845 0
M  V30 4488 H 421.393 2.78393 3.9702 0
M  V30 4489 N 422.737 -1.36956 0.779787 0
M  V30 4490 C 423.685 -2.32053 0.15942 0
M  V30 4491 C 424.679 -1.55333 -0.675878 0
M  V30 4492 O 425.885 -1.70668 -0.57204 0
M  V30 4493 H 422.26 -0.751286 0.0327707 0
M  V30 4494 H 424.231 -2.8195 0.977078 0
M  V30 4495 C 422.98 -3.40602 -0.698977 0
M  V30 4496 H 422.303 -3.99746 -0.0655966 0
M  V30 4497 H 423.743 -4.09486 -1.09989 0
M  V30 4498 C 422.202 -2.81359 -1.85307 0
M  V30 4499 O 422.732 -2.72751 -2.94906 0
M  V30 4500 N 420.938 -2.38786 -1.65619 0
M  V30 4501 H 420.485 -2.45987 -0.764725 0
M  V30 4502 H 420.443 -1.99493 -2.43002 0
M  V30 4503 N 424.215 -0.530993 -1.48385 0
M  V30 4504 C 425.125 0.23503 -2.3342 0
M  V30 4505 C 426.141 0.93801 -1.46552 0
M  V30 4506 O 427.317 0.912745 -1.7953 0
M  V30 4507 C 424.382 1.26778 -3.22689 0
M  V30 4508 C 423.443 0.575038 -4.25431 0
M  V30 4509 C 422.676 1.55858 -5.10435 0
M  V30 4510 O 422.899 2.79129 -4.97437 0
M  V30 4511 O 421.833 1.09742 -5.91811 0
M  V30 4512 H 425.659 -0.461794 -3.00169 0
M  V30 4513 H 423.244 -0.291903 -1.46521 0
M  V30 4514 H 425.126 1.86457 -3.77904 0
M  V30 4515 H 423.801 1.94699 -2.586 0
M  V30 4516 H 422.708 -0.0622782 -3.74048 0
M  V30 4517 H 424.041 -0.062253 -4.92161 0
M  V30 4518 N 425.693 1.55336 -0.266172 0
M  V30 4519 C 426.603 2.2583 0.635458 0
M  V30 4520 C 427.619 1.28106 1.17749 0
M  V30 4521 O 428.795 1.61024 1.20968 0
M  V30 4522 C 425.86 2.95879 1.80712 0
M  V30 4523 C 424.921 4.09059 1.30265 0
M  V30 4524 C 424.154 4.75759 2.41846 0
M  V30 4525 O 424.377 4.41622 3.61007 0
M  V30 4526 O 423.311 5.63888 2.1051 0
M  V30 4527 H 427.137 3.03631 0.0646693 0
M  V30 4528 H 424.722 1.49361 -0.0339177 0
M  V30 4529 H 426.604 3.39932 2.49047 0
M  V30 4530 H 425.279 2.21002 2.36516 0
M  V30 4531 H 424.186 3.69482 0.586019 0
M  V30 4532 H 425.519 4.85811 0.790458 0
M  V30 4533 N 427.171 -0.0066808 1.57599 0
M  V30 4534 C 428.42 -0.692078 1.89455 0
M  V30 4535 C 428.733 -1.75306 0.867586 0
M  V30 4536 O 429.939 -2.49262 1.07614 0
M  V30 4537 C 428.395 -1.2821 3.36289 0
M  V30 4538 C 428.003 -0.256291 4.47266 0
M  V30 4539 C 429.747 -1.94608 3.77264 0
M  V30 4540 C 427.654 -0.855927 5.85173 0
M  V30 4541 H 426.584 -0.262252 0.706923 0
M  V30 4542 H 429.235 0.052769 1.83424 0
M  V30 4543 H 427.617 -2.0774 3.37135 0
M  V30 4544 H 428.791 0.513923 4.57925 0
M  V30 4545 H 427.106 0.306862 4.15268 0
M  V30 4546 H 429.703 -2.40364 4.77629 0
M  V30 4547 H 430.046 -2.77382 3.10427 0
M  V30 4548 H 430.579 -1.21822 3.78688 0
M  V30 4549 H 427.318 -0.0671161 6.55466 0
M  V30 4550 H 426.838 -1.59546 5.78191 0
M  V30 4551 H 428.517 -1.35658 6.32618 0
M  V30 4552 N 428.649 -1.55105 -0.279332 0
M  V30 4553 C 429.597 -1.88333 -1.36505 0
M  V30 4554 C 430.591 -0.759043 -1.51443 0
M  V30 4555 O 431.797 -0.943312 -1.53302 0
M  V30 4556 H 428.172 -0.59766 -0.456406 0
M  V30 4557 H 430.143 -2.79041 -1.05728 0
M  V30 4558 C 428.892 -2.16628 -2.7197 0
M  V30 4559 H 428.215 -3.02624 -2.61264 0
M  V30 4560 H 429.655 -2.43803 -3.46895 0
M  V30 4561 C 428.114 -0.971807 -3.22579 0
M  V30 4562 O 428.644 -0.203228 -4.01186 0
M  V30 4563 N 426.85 -0.771238 -2.80179 0
M  V30 4564 H 426.397 -1.39792 -2.1637 0
M  V30 4565 H 426.355 0.0263667 -3.14389 0
M  V30 4566 N 430.127 0.543554 -1.4793 0
M  V30 4567 C 431.075 1.67039 -1.61866 0
M  V30 4568 C 432.069 1.62294 -0.48549 0
M  V30 4569 O 433.275 1.67315 -0.66376 0
M  V30 4570 H 429.65 0.552954 -0.509652 0
M  V30 4571 H 431.621 1.52426 -2.56533 0
M  V30 4572 C 430.37 3.05357 -1.6629 0
M  V30 4573 H 429.693 3.09696 -2.5284 0
M  V30 4574 H 431.133 3.83855 -1.80088 0
M  V30 4575 C 429.592 3.34531 -0.398861 0
M  V30 4576 O 430.122 3.98649 0.494162 0
M  V30 4577 N 428.328 2.89299 -0.2747 0
M  V30 4578 H 427.875 2.37298 -1.00236 0
M  V30 4579 H 427.833 3.09188 0.570075 0
M  V30 4580 N 431.605 1.3629 0.791371 0
M  V30 4581 C 432.833 1.33562 1.58016 0
M  V30 4582 C 433.248 -0.0835616 1.88615 0
M  V30 4583 O 432.605 -1.0399 1.49974 0
M  V30 4584 C 432.656 2.15517 2.90232 0
M  V30 4585 O 432.377 3.51902 2.60953 0
M  V30 4586 C 433.878 2.20546 3.84544 0
M  V30 4587 H 431.098 0.458226 0.490173 0
M  V30 4588 H 433.642 1.79361 0.982345 0
M  V30 4589 H 431.797 1.73278 3.46487 0
M  V30 4590 H 432.211 3.94644 3.4548 0
M  V30 4591 H 433.685 2.82252 4.74382 0
M  V30 4592 H 434.162 1.20838 4.2225 0
M  V30 4593 H 434.768 2.63013 3.34222 0
M  V30 4594 N 433.083 -1.0153 1.20538 0
M  V30 4595 C 434.36 -1.72327 0.925343 0
M  V30 4596 C 434.74 -2.03383 -0.565547 0
M  V30 4597 O 434.088 -1.69934 -1.52757 0
M  V30 4598 C 434.298 -2.9902 1.79967 0
M  V30 4599 C 435.646 -3.72258 2.04228 0
M  V30 4600 O 436.67 -3.08979 1.77231 0
M  V30 4601 O 435.529 -4.86053 2.4983 0
M  V30 4602 H 432.623 -0.751099 0.346092 0
M  V30 4603 H 435.169 -1.07366 1.31417 0
M  V30 4604 H 433.941 -2.72402 2.80915 0
M  V30 4605 H 433.564 -3.71721 1.41099 0
M  V30 4606 N 434.561 -1.01147 -1.20859 0
M  V30 4607 C 435.491 -0.597663 -2.25722 0
M  V30 4608 C 436.472 0.384744 -1.65692 0
M  V30 4609 O 437.657 0.271303 -1.92296 0
M  V30 4610 C 434.787 0.0700149 -3.47229 0
M  V30 4611 C 433.741 -0.832843 -4.19819 0
M  V30 4612 C 433.067 -0.0312202 -5.34691 0
M  V30 4613 C 434.367 -2.1385 -4.76514 0
M  V30 4614 H 436.061 -1.47423 -2.60589 0
M  V30 4615 H 433.607 -0.710301 -1.25263 0
M  V30 4616 H 435.56 0.37103 -4.19763 0
M  V30 4617 H 434.284 0.981259 -3.11511 0
M  V30 4618 H 432.943 -1.11778 -3.49144 0
M  V30 4619 H 432.591 0.881515 -4.95215 0
M  V30 4620 H 432.291 -0.632434 -5.84187 0
M  V30 4621 H 433.815 0.26346 -6.10031 0
M  V30 4622 H 435.229 -1.9002 -5.40893 0
M  V30 4623 H 433.626 -2.69012 -5.36426 0
M  V30 4624 H 434.696 -2.80495 -3.95538 0
M  V30 4625 N 436.039 1.36541 -0.78704 0
M  V30 4626 C 437.288 1.98552 -0.35494 0
M  V30 4627 C 437.601 1.63171 1.07864 0
M  V30 4628 O 438.807 2.18399 1.61289 0
M  V30 4629 C 437.263 3.55136 -0.583671 0
M  V30 4630 C 436.871 3.99444 -2.02851 0
M  V30 4631 C 438.615 4.2395 -0.215957 0
M  V30 4632 C 436.522 5.48796 -2.20403 0
M  V30 4633 H 435.452 0.742888 -0.128972 0
M  V30 4634 H 438.103 1.5587 -0.968337 0
M  V30 4635 H 436.485 3.95875 0.0994046 0
M  V30 4636 H 437.659 3.6991 -2.74779 0
M  V30 4637 H 435.974 3.43459 -2.35425 0
M  V30 4638 H 438.571 5.33709 -0.325405 0
M  V30 4639 H 438.914 4.07827 0.835646 0
M  V30 4640 H 439.447 3.88565 -0.852175 0
M  V30 4641 H 436.186 5.69864 -3.23937 0
M  V30 4642 H 435.706 5.79964 -1.52977 0
M  V30 4643 H 437.385 6.14986 -2.01002 0
M  V30 4644 N 437.518 0.538854 1.48102 0
M  V30 4645 C 438.743 0.0102694 2.07397 0
M  V30 4646 C 439.168 -1.26562 1.39153 0
M  V30 4647 O 438.526 -1.75357 0.460387 0
M  V30 4648 C 438.574 -0.187602 3.60112 0
M  V30 4649 O 437.678 -1.25432 3.92862 0
M  V30 4650 H 437.019 0.0430975 0.6626 0
M  V30 4651 H 439.549 0.749301 1.90385 0
M  V30 4652 H 439.559 -0.407517 4.0596 0
M  V30 4653 H 438.234 0.744386 4.09184 0
M  V30 4654 H 436.811 -1.01636 3.58782 0
M  V30 4655 N 438.996 -1.55193 0.274407 0
M  V30 4656 C 439.906 -2.26164 -0.623473 0
M  V30 4657 C 440.922 -1.28729 -1.17068 0
M  V30 4658 O 442.098 -1.61663 -1.20112 0
M  V30 4659 C 439.163 -2.96833 -1.7914 0
M  V30 4660 C 438.224 -4.09745 -1.28093 0
M  V30 4661 C 437.457 -4.77034 -2.3932 0
M  V30 4662 O 437.68 -4.4353 -3.5866 0
M  V30 4663 O 436.614 -5.64996 -2.07516 0
M  V30 4664 H 440.44 -3.03661 -0.0485661 0
M  V30 4665 H 438.025 -1.49341 0.0418382 0
M  V30 4666 H 439.907 -3.41248 -2.4724 0
M  V30 4667 H 438.582 -2.22253 -2.35341 0
M  V30 4668 H 437.489 -3.69787 -0.566416 0
M  V30 4669 H 438.822 -4.86224 -0.764683 0
M  V30 4670 N 440.474 -0.00167713 -1.576 0
M  V30 4671 C 441.421 0.989195 -2.08527 0
M  V30 4672 C 442.391 1.34031 -0.981065 0
M  V30 4673 O 443.576 1.43839 -1.2536 0
M  V30 4674 C 440.716 2.27537 -2.59463 0
M  V30 4675 C 439.829 1.98314 -3.83791 0
M  V30 4676 C 438.964 3.21025 -4.23222 0
M  V30 4677 C 438.003 2.87495 -5.40382 0
M  V30 4678 N 437.14 4.02749 -5.75098 0
M  V30 4679 H 441.98 0.547973 -2.92919 0
M  V30 4680 H 439.517 0.258917 -1.44803 0
M  V30 4681 H 441.475 3.02729 -2.87073 0
M  V30 4682 H 440.105 2.69325 -1.77943 0
M  V30 4683 H 439.157 1.13482 -3.63078 0
M  V30 4684 H 440.469 1.69601 -4.69081 0
M  V30 4685 H 439.623 4.04561 -4.52123 0
M  V30 4686 H 438.362 3.52877 -3.36644 0
M  V30 4687 H 437.367 2.02367 -5.11202 0
M  V30 4688 H 438.592 2.56889 -6.28637 0
M  V30 4689 H 436.538 4.34494 -4.91478 0
M  V30 4690 H 436.455 3.77566 -6.54966 0
M  V30 4691 H 437.723 4.87068 -6.08592 0
M  V30 4692 N 441.952 1.55251 0.271103 0
M  V30 4693 C 443.182 1.79713 1.01916 0
M  V30 4694 C 443.59 0.571613 1.80359 0
M  V30 4695 O 442.933 -0.468853 1.77616 0
M  V30 4696 C 442.995 2.97138 2.02359 0
M  V30 4697 C 442.659 4.34104 1.42837 0
M  V30 4698 C 443.656 5.13019 0.843071 0
M  V30 4699 C 441.341 4.80765 1.455 0
M  V30 4700 C 443.335 6.36729 0.292333 0
M  V30 4701 C 441.022 6.0443 0.900402 0
M  V30 4702 C 442.02 6.8225 0.32007 0
M  V30 4703 O 441.708 8.03582 -0.226031 0
M  V30 4704 H 441.44 0.602431 0.306681 0
M  V30 4705 H 443.994 2.03097 0.306701 0
M  V30 4706 H 442.224 2.6945 2.77369 0
M  V30 4707 H 443.913 3.08907 2.63309 0
M  V30 4708 H 444.679 4.781 0.815178 0
M  V30 4709 H 440.558 4.20202 1.89609 0
M  V30 4710 H 444.102 6.97414 -0.161274 0
M  V30 4711 H 439.999 6.3883 0.925541 0
M  V30 4712 H 440.767 8.18418 -0.115572 0
M  V30 4713 N 443.43 -0.535701 1.48216 0
M  V30 4714 C 444.66 -1.3148 1.59363 0
M  V30 4715 C 445.068 -1.8753 0.250844 0
M  V30 4716 O 444.411 -1.66821 -0.769174 0
M  V30 4717 C 444.473 -2.50731 2.57632 0
M  V30 4718 C 444.137 -2.15811 4.02833 0
M  V30 4719 C 445.134 -1.71822 4.90686 0
M  V30 4720 C 442.819 -2.26509 4.48329 0
M  V30 4721 C 444.813 -1.3899 6.22062 0
M  V30 4722 C 442.5 -1.93289 5.79726 0
M  V30 4723 C 443.498 -1.49599 6.66415 0
M  V30 4724 O 443.186 -1.16812 7.95368 0
M  V30 4725 H 442.918 -0.406315 0.540263 0
M  V30 4726 H 445.472 -0.653569 1.94725 0
M  V30 4727 H 443.702 -3.19817 2.1738 0
M  V30 4728 H 445.391 -3.12797 2.58675 0
M  V30 4729 H 446.157 -1.63031 4.56778 0
M  V30 4730 H 442.036 -2.59471 3.81045 0
M  V30 4731 H 445.58 -1.04816 6.89681 0
M  V30 4732 H 441.477 -2.01718 6.13172 0
M  V30 4733 H 442.245 -1.30259 8.08069 0
M  V30 4734 N 444.908 -1.36708 -0.784132 0
M  V30 4735 C 446.154 -1.31426 -1.54451 0
M  V30 4736 C 446.487 0.10476 -1.93917 0
M  V30 4737 O 445.762 1.05934 -1.6312 0
M  V30 4738 C 446.045 -2.24189 -2.818 0
M  V30 4739 C 445.898 -3.74813 -2.48667 0
M  V30 4740 C 447.217 -2.15626 -3.83658 0
M  V30 4741 H 444.336 -0.478739 -0.560337 0
M  V30 4742 H 446.978 -1.67305 -0.900498 0
M  V30 4743 H 445.128 -1.93722 -3.36755 0
M  V30 4744 H 446.8 -4.15823 -1.99722 0
M  V30 4745 H 445.043 -3.93989 -1.81535 0
M  V30 4746 H 445.714 -4.35138 -3.39646 0
M  V30 4747 H 448.19 -2.42456 -3.38163 0
M  V30 4748 H 447.066 -2.82694 -4.70506 0
M  V30 4749 H 447.327 -1.14522 -4.27009 0
M  V30 4750 N 446.386 1.0089 -1.21074 0
M  V30 4751 C 447.316 2.1145 -0.990523 0
M  V30 4752 C 448.297 1.69897 0.0831699 0
M  V30 4753 O 449.482 1.94052 -0.0758853 0
M  V30 4754 C 446.612 3.42914 -0.550177 0
M  V30 4755 C 445.566 3.98244 -1.56799 0
M  V30 4756 C 444.892 5.25568 -0.984013 0
M  V30 4757 C 446.192 4.30752 -2.95381 0
M  V30 4758 H 447.886 2.3013 -1.91521 0
M  V30 4759 H 445.432 1.10592 -0.92225 0
M  V30 4760 H 447.385 4.19653 -0.383305 0
M  V30 4761 H 446.109 3.24014 0.41015 0
M  V30 4762 H 444.768 3.23621 -1.72236 0
M  V30 4763 H 444.416 5.02998 -0.0155216 0
M  V30 4764 H 444.116 5.63551 -1.66384 0
M  V30 4765 H 445.64 6.04955 -0.828378 0
M  V30 4766 H 447.054 4.98349 -2.8341 0
M  V30 4767 H 445.451 4.79869 -3.60341 0
M  V30 4768 H 446.521 3.39192 -3.46521 0
M  V30 4769 N 447.864 1.01787 1.20321 0
M  V30 4770 C 448.811 0.589197 2.23153 0
M  V30 4771 C 449.781 -0.391367 1.61423 0
M  V30 4772 O 450.966 -0.290518 1.88575 0
M  V30 4773 C 448.106 -0.0650747 3.45039 0
M  V30 4774 C 447.219 0.960207 4.21194 0
M  V30 4775 C 446.354 0.276854 5.30478 0
M  V30 4776 C 445.393 1.2888 5.98378 0
M  V30 4777 N 444.53 0.632031 6.99249 0
M  V30 4778 H 449.37 1.47071 2.59179 0
M  V30 4779 H 446.907 0.736192 1.27352 0
M  V30 4780 H 448.865 -0.461552 4.14639 0
M  V30 4781 H 447.495 -0.910233 3.09701 0
M  V30 4782 H 446.547 1.47484 3.50646 0
M  V30 4783 H 447.859 1.72977 4.67847 0
M  V30 4784 H 447.013 -0.175056 6.06447 0
M  V30 4785 H 445.752 -0.525004 4.84866 0
M  V30 4786 H 444.757 1.75109 5.21169 0
M  V30 4787 H 445.982 2.09196 6.46076 0
M  V30 4788 H 443.928 -0.149935 6.55829 0
M  V30 4789 H 443.845 1.33964 7.44036 0
M  V30 4790 H 445.113 0.203755 7.79234 0
M  V30 4791 N 449.342 -1.36122 0.79427 0
M  V30 4792 C 450.289 -2.29982 0.194101 0
M  V30 4793 C 451.259 -1.52214 -0.664833 0
M  V30 4794 O 452.444 -1.80702 -0.612498 0
M  V30 4795 C 449.584 -3.38706 -0.661244 0
M  V30 4796 C 448.697 -4.31456 0.216766 0
M  V30 4797 C 447.832 -5.27265 -0.645411 0
M  V30 4798 C 446.871 -6.11653 0.233756 0
M  V30 4799 N 446.008 -6.99636 -0.587682 0
M  V30 4800 H 450.848 -2.80722 0.999965 0
M  V30 4801 H 448.385 -1.38172 0.504677 0
M  V30 4802 H 450.343 -4.00394 -1.17219 0
M  V30 4803 H 448.973 -2.89274 -1.43249 0
M  V30 4804 H 448.025 -3.7088 0.845724 0
M  V30 4805 H 449.337 -4.90724 0.893973 0
M  V30 4806 H 448.491 -5.94266 -1.22198 0
M  V30 4807 H 447.23 -4.68463 -1.35623 0
M  V30 4808 H 446.235 -5.4361 0.82269 0
M  V30 4809 H 447.46 -6.72531 0.942247 0
M  V30 4810 H 445.406 -6.43337 -1.2827 0
M  V30 4811 H 445.323 -7.55993 0.0317402 0
M  V30 4812 H 446.591 -7.71001 -1.14792 0
M  V30 4813 N 450.82 -0.546701 -1.47814 0
M  V30 4814 C 452.068 -0.0187037 -2.02091 0
M  V30 4815 C 452.389 1.33168 -1.42447 0
M  V30 4816 O 451.659 1.86619 -0.595839 0
M  V30 4817 H 450.239 -0.00392531 -0.74699 0
M  V30 4818 H 452.901 -0.714327 -1.81338 0
M  V30 4819 H 451.997 0.0772219 -3.12004 0
M  V30 4820 N 452.299 1.55045 -0.282633 0
M  V30 4821 C 453.209 2.26491 0.61147 0
M  V30 4822 C 454.225 1.29348 1.16384 0
M  V30 4823 O 455.401 1.62298 1.19253 0
M  V30 4824 C 452.466 2.97779 1.77563 0
M  V30 4825 C 451.527 4.10418 1.25919 0
M  V30 4826 C 450.76 4.78297 2.36786 0
M  V30 4827 O 450.983 4.45426 3.56303 0
M  V30 4828 O 449.917 5.66089 2.04517 0
M  V30 4829 H 453.743 3.03683 0.0324615 0
M  V30 4830 H 451.328 1.49317 -0.0497576 0
M  V30 4831 H 453.21 3.42554 2.45427 0
M  V30 4832 H 451.885 2.23498 2.34159 0
M  V30 4833 H 450.792 3.70082 0.546797 0
M  V30 4834 H 452.125 4.86622 0.738887 0
M  V30 4835 N 453.777 0.010035 1.57597 0
M  V30 4836 C 454.724 -0.978122 2.09049 0
M  V30 4837 C 455.694 -1.33509 0.988159 0
M  V30 4838 O 456.879 -1.43172 1.26121 0
M  V30 4839 C 454.019 -2.26158 2.60666 0
M  V30 4840 C 453.132 -1.96275 3.84838 0
M  V30 4841 C 452.267 -3.18776 4.24918 0
M  V30 4842 C 451.306 -2.84625 5.41899 0
M  V30 4843 N 450.443 -3.99693 5.77226 0
M  V30 4844 H 455.283 -0.532431 2.93205 0
M  V30 4845 H 452.82 -0.251234 1.44939 0
M  V30 4846 H 454.778 -3.01202 2.88675 0
M  V30 4847 H 453.408 -2.68378 1.79369 0
M  V30 4848 H 452.46 -1.11555 3.63675 0
M  V30 4849 H 453.772 -1.67111 4.69974 0
M  V30 4850 H 452.926 -4.02157 4.54262 0
M  V30 4851 H 451.665 -3.51087 3.38511 0
M  V30 4852 H 450.67 -1.99653 5.12268 0
M  V30 4853 H 451.895 -2.53551 6.29991 0
M  V30 4854 H 449.841 -4.31882 4.93776 0
M  V30 4855 H 449.758 -3.74087 6.56959 0
M  V30 4856 H 451.026 -4.83834 6.11167 0
M  V30 4857 N 455.255 -1.55392 -0.262866 0
M  V30 4858 C 456.666 -1.67079 -0.833158 0
M  V30 4859 C 457.017 -0.604539 -1.86654 0
M  V30 4860 O 456.142 0.252138 -2.14926 0
M  V30 4861 C 456.737 -3.02891 -1.51797 0
M  V30 4862 C 455.296 -3.16571 -2.03617 0
M  V30 4863 C 454.443 -2.62909 -0.881701 0
M  V30 4864 H 457.394 -1.58652 -0.0389986 0
M  V30 4865 H 457.415 -2.96445 -2.38538 0
M  V30 4866 H 456.927 -3.80473 -0.765619 0
M  V30 4867 H 455.028 -2.43782 -2.81782 0
M  V30 4868 H 455.141 -4.23271 -2.24452 0
M  V30 4869 H 453.505 -2.20324 -1.27786 0
M  V30 4870 H 454.288 -3.43003 -0.14269 0
M  V30 4871 N 456.733 0.527833 -1.48498 0
M  V30 4872 C 457.963 1.30633 -1.60058 0
M  V30 4873 C 458.371 1.87394 -0.260786 0
M  V30 4874 O 457.714 1.67227 0.760317 0
M  V30 4875 C 457.776 2.49361 -2.58958 0
M  V30 4876 C 457.44 2.13671 -4.03972 0
M  V30 4877 C 458.437 1.69217 -4.91591 0
M  V30 4878 C 456.122 2.24129 -4.49524 0
M  V30 4879 C 458.116 1.35689 -6.2279 0
M  V30 4880 C 455.803 1.90212 -5.80743 0
M  V30 4881 C 456.801 1.46063 -6.67199 0
M  V30 4882 O 456.489 1.12593 -7.95976 0
M  V30 4883 H 456.221 0.403444 -0.54241 0
M  V30 4884 H 458.775 0.643233 -1.95068 0
M  V30 4885 H 457.005 3.18659 -2.19073 0
M  V30 4886 H 458.694 3.11421 -2.6033 0
M  V30 4887 H 459.46 1.60607 -4.57636 0
M  V30 4888 H 455.339 2.57447 -3.82416 0
M  V30 4889 H 458.883 1.01157 -6.90227 0
M  V30 4890 H 454.78 1.98464 -6.14233 0
M  V30 4891 H 455.548 1.25972 -8.08748 0
M  V30 4892 N 458.211 1.37122 0.776871 0
M  V30 4893 C 459.488 1.22586 1.52421 0
M  V30 4894 C 459.868 -0.182726 2.10308 0
M  V30 4895 O 459.216 -1.18979 1.9508 0
M  V30 4896 C 459.426 2.31782 2.60918 0
M  V30 4897 C 460.774 2.69071 3.2846 0
M  V30 4898 O 461.798 2.3092 2.71209 0
M  V30 4899 O 460.657 3.3478 4.31954 0
M  V30 4900 H 457.751 0.478045 0.674835 0
M  V30 4901 H 460.297 1.48888 0.814275 0
M  V30 4902 H 459.069 3.26131 2.16227 0
M  V30 4903 H 458.692 2.06916 3.39517 0
M  V30 4904 N 459.689 -1.00246 1.21608 0
M  V30 4905 C 461.1 -1.55511 1.03312 0
M  V30 4906 C 461.451 -1.91946 -0.406332 0
M  V30 4907 O 460.576 -1.73753 -1.28992 0
M  V30 4908 C 461.171 -2.82576 1.86913 0
M  V30 4909 C 459.73 -3.34318 1.72941 0
M  V30 4910 C 458.877 -2.07487 1.83968 0
M  V30 4911 H 461.828 -0.824638 1.35593 0
M  V30 4912 H 461.849 -3.54559 1.38087 0
M  V30 4913 H 461.361 -2.56026 2.91672 0
M  V30 4914 H 459.462 -3.65797 0.70877 0
M  V30 4915 H 459.575 -4.05566 2.55055 0
M  V30 4916 H 457.939 -2.20603 1.27304 0
M  V30 4917 H 458.722 -1.83346 2.9024 0
M  V30 4918 N 461.167 -1.02423 -1.1978 0
M  V30 4919 C 462.414 -0.717988 -1.89344 0
M  V30 4920 C 462.742 0.753036 -1.79331 0
M  V30 4921 O 461.997 1.56355 -1.17692 0
M  V30 4922 C 462.296 -1.1088 -3.39765 0
M  V30 4923 C 461.962 -2.57731 -3.6998 0
M  V30 4924 C 460.624 -2.97854 -3.77937 0
M  V30 4925 C 462.976 -3.52763 -3.83677 0
M  V30 4926 C 460.304 -4.31931 -3.97054 0
M  V30 4927 C 462.656 -4.86538 -4.04306 0
M  V30 4928 C 461.32 -5.26356 -4.10494 0
M  V30 4929 H 460.59 -0.26273 -0.692859 0
M  V30 4930 H 463.237 -1.28623 -1.41875 0
M  V30 4931 H 461.542 -0.459094 -3.89101 0
M  V30 4932 H 463.239 -0.849432 -3.919 0
M  V30 4933 H 459.829 -2.25646 -3.64393 0
M  V30 4934 H 464.013 -3.2292 -3.76877 0
M  V30 4935 H 459.269 -4.62324 -4.00083 0
M  V30 4936 H 463.443 -5.60093 -4.13846 0
M  V30 4937 H 461.07 -6.3026 -4.2506 0
M  V30 4938 N 462.645 1.35699 -0.801477 0
M  V30 4939 C 463.922 1.9324 -0.302937 0
M  V30 4940 C 464.302 1.73209 1.20672 0
M  V30 4941 O 463.65 1.09809 2.00385 0
M  V30 4942 C 463.86 3.41728 -0.708747 0
M  V30 4943 C 465.208 4.18868 -0.695328 0
M  V30 4944 O 466.232 3.5022 -0.649971 0
M  V30 4945 O 465.091 5.41342 -0.749081 0
M  V30 4946 H 462.185 0.82331 -0.0780367 0
M  V30 4947 H 464.731 1.44806 -0.884832 0
M  V30 4948 H 463.503 3.50015 -1.74944 0
M  V30 4949 H 463.126 3.97471 -0.101384 0
M  V30 4950 N 464.123 0.554532 1.47522 0
M  V30 4951 C 465.539 0.214107 1.58157 0
M  V30 4952 C 465.739 -1.28331 1.55349 0
M  V30 4953 O 464.795 -2.06329 1.45549 0
M  V30 4954 C 466.108 0.838391 2.88776 0
M  V30 4955 C 467.656 0.809374 3.02354 0
M  V30 4956 C 468.131 1.41268 4.35669 0
M  V30 4957 N 469.622 1.37574 4.42298 0
M  V30 4958 C 470.357 1.8122 5.4401 0
M  V30 4959 N 469.853 2.3271 6.52547 0
M  V30 4960 N 471.646 1.72307 5.35039 0
M  V30 4961 H 463.797 1.52744 1.4759 0
M  V30 4962 H 466.06 0.636812 0.702264 0
M  V30 4963 H 465.766 1.89065 2.96559 0
M  V30 4964 H 465.64 0.329847 3.75755 0
M  V30 4965 H 468.027 -0.234187 2.94169 0
M  V30 4966 H 468.108 1.35565 2.16924 0
M  V30 4967 H 467.752 2.45529 4.4461 0
M  V30 4968 H 467.682 0.841871 5.19827 0
M  V30 4969 H 470.173 0.999081 3.64454 0
M  V30 4970 H 470.486 2.63944 7.26329 0
M  V30 4971 H 468.831 2.36719 6.53444 0
M  V30 4972 H 472.022 1.3186 4.49144 0
M  V30 4973 H 472.195 2.06641 6.14169 0
M  V30 4974 N 465.601 -1.54893 0.290851 0
M  V30 4975 C 466.826 -2.04804 -0.32712 0
M  V30 4976 C 467.251 -1.16721 -1.47506 0
M  V30 4977 O 466.609 -0.169107 -1.8051 0
M  V30 4978 C 466.657 -3.52268 -0.770689 0
M  V30 4979 O 465.761 -3.67236 -1.87647 0
M  V30 4980 H 465.102 -0.660789 -0.0652227 0
M  V30 4981 H 467.632 -2.00036 0.429739 0
M  V30 4982 H 467.642 -3.9393 -1.06223 0
M  V30 4983 H 466.317 -4.15843 0.069096 0
M  V30 4984 H 464.894 -3.37479 -1.58626 0
M  V30 4985 N 467.08 -0.0183926 -1.57589 0
M  V30 4986 C 468.03 0.975944 -2.06057 0
M  V30 4987 C 469.014 1.29204 -0.958908 0
M  V30 4988 O 470.206 1.27995 -1.22255 0
M  V30 4989 C 467.335 2.26194 -2.58247 0
M  V30 4990 C 466.421 1.97467 -3.75323 0
M  V30 4991 N 466.812 1.38968 -4.86335 0
M  V30 4992 C 465.11 2.27515 -3.83605 0
M  V30 4993 C 465.811 1.27131 -5.67638 0
M  V30 4994 N 464.787 1.76319 -5.14211 0
M  V30 4995 H 468.589 0.518444 -2.89291 0
M  V30 4996 H 466.103 0.18688 -1.61321 0
M  V30 4997 H 468.1 2.98289 -2.91255 0
M  V30 4998 H 466.76 2.7258 -1.76438 0
M  V30 4999 H 467.771 1.06608 -5.06809 0
M  V30 5000 H 464.448 2.76649 -3.12684 0
M  V30 5001 H 465.838 0.819882 -6.66879 0
M  V30 5002 N 468.558 1.5553 0.254621 0
M  V30 5003 C 469.488 1.9268 1.31897 0
M  V30 5004 C 470.469 0.790797 1.506 0
M  V30 5005 O 471.654 1.05045 1.63337 0
M  V30 5006 C 468.784 2.21477 2.67517 0
M  V30 5007 C 467.738 3.37256 2.63519 0
M  V30 5008 C 467.064 3.51576 4.02862 0
M  V30 5009 C 468.364 4.73157 2.21179 0
M  V30 5010 H 470.058 2.81832 1.01051 0
M  V30 5011 H 467.604 1.35599 0.484662 0
M  V30 5012 H 469.557 2.46055 3.42104 0
M  V30 5013 H 468.281 1.29144 2.99982 0
M  V30 5014 H 466.94 3.12675 1.9139 0
M  V30 5015 H 466.588 2.56676 4.32581 0
M  V30 5016 H 466.288 4.2943 4.01078 0
M  V30 5017 H 467.812 3.78467 4.79161 0
M  V30 5018 H 469.226 4.97158 2.85494 0
M  V30 5019 H 467.623 5.54058 2.30521 0
M  V30 5020 H 468.693 4.70739 1.16332 0
M  V30 5021 N 470.036 -0.519951 1.48776 0
M  V30 5022 C 470.983 -1.62352 1.64044 0
M  V30 5023 C 471.953 -1.58945 0.482251 0
M  V30 5024 O 473.138 -1.77219 0.706971 0
M  V30 5025 C 470.278 -3.00579 1.69547 0
M  V30 5026 C 469.391 -3.14145 2.96541 0
M  V30 5027 C 468.526 -4.42991 2.93142 0
M  V30 5028 C 467.565 -4.50122 4.14797 0
M  V30 5029 N 466.702 -5.7037 4.09418 0
M  V30 5030 H 471.542 -1.48643 2.58281 0
M  V30 5031 H 469.079 -0.723516 1.28077 0
M  V30 5032 H 471.037 -3.80671 1.70719 0
M  V30 5033 H 469.667 -3.13036 0.787918 0
M  V30 5034 H 468.719 -2.27239 3.05068 0
M  V30 5035 H 470.031 -3.15275 3.86527 0
M  V30 5036 H 469.185 -5.31385 2.92772 0
M  V30 5037 H 467.924 -4.44398 2.00902 0
M  V30 5038 H 466.929 -3.60133 4.15433 0
M  V30 5039 H 468.154 -4.50445 5.08208 0
M  V30 5040 H 466.1 -5.72655 3.20004 0
M  V30 5041 H 466.017 -5.73036 4.93119 0
M  V30 5042 H 467.285 -6.61023 4.13121 0
M  V30 5043 N 471.514 -1.37532 -0.769588 0
M  V30 5044 C 472.444 -1.36172 -1.89682 0
M  V30 5045 C 473.425 -0.23001 -1.68538 0
M  V30 5046 O 474.61 -0.43069 -1.89364 0
M  V30 5047 C 471.74 -1.1701 -3.26995 0
M  V30 5048 C 470.694 -2.27216 -3.62708 0
M  V30 5049 C 470.02 -1.93174 -4.98586 0
M  V30 5050 C 471.32 -3.6941 -3.69234 0
M  V30 5051 H 473.014 -2.30499 -1.91078 0
M  V30 5052 H 470.56 -1.10953 -0.917902 0
M  V30 5053 H 472.513 -1.14688 -4.05493 0
M  V30 5054 H 471.237 -0.191395 -3.26039 0
M  V30 5055 H 469.896 -2.28697 -2.86519 0
M  V30 5056 H 469.544 -0.938281 -4.94171 0
M  V30 5057 H 469.244 -2.66973 -5.23449 0
M  V30 5058 H 470.768 -1.92443 -5.79481 0
M  V30 5059 H 472.182 -3.70047 -4.37879 0
M  V30 5060 H 470.579 -4.4228 -4.05597 0
M  V30 5061 H 471.649 -4.0288 -2.69844 0
M  V30 5062 N 472.992 0.995999 -1.22138 0
M  V30 5063 C 474.239 1.7351 -1.04406 0
M  V30 5064 C 474.567 1.89884 0.421244 0
M  V30 5065 O 473.822 1.43683 1.32867 0
M  V30 5066 C 474.121 3.14553 -1.6968 0
M  V30 5067 C 473.787 3.18102 -3.19565 0
M  V30 5068 C 472.449 3.18778 -3.60464 0
M  V30 5069 C 474.801 3.14636 -4.15516 0
M  V30 5070 C 472.129 3.13684 -4.95801 0
M  V30 5071 C 474.481 3.11084 -5.50826 0
M  V30 5072 C 473.145 3.10074 -5.91109 0
M  V30 5073 H 472.415 0.634916 -0.38205 0
M  V30 5074 H 475.062 1.1667 -1.51857 0
M  V30 5075 H 473.367 3.74682 -1.14546 0
M  V30 5076 H 475.064 3.70477 -1.53454 0
M  V30 5077 H 471.654 3.18324 -2.86998 0
M  V30 5078 H 475.838 3.13266 -3.84939 0
M  V30 5079 H 471.094 3.11245 -5.26247 0
M  V30 5080 H 475.268 3.07357 -6.24904 0
M  V30 5081 H 472.895 3.05882 -6.95946 0
M  V30 5082 N 474.47 1.03057 1.19235 0
M  V30 5083 C 475.698 0.747697 1.92917 0
M  V30 5084 C 476.113 -0.69372 1.75593 0
M  V30 5085 O 475.47 -1.47191 1.07894 0
M  V30 5086 C 475.521 1.09159 3.44625 0
M  V30 5087 O 475.242 2.47641 3.61394 0
M  V30 5088 C 476.743 0.831763 4.35427 0
M  V30 5089 H 473.963 0.273453 0.612751 0
M  V30 5090 H 476.507 1.37552 1.51327 0
M  V30 5091 H 474.662 0.508919 3.84043 0
M  V30 5092 H 475.076 2.60499 4.55237 0
M  V30 5093 H 476.55 1.12233 5.4047 0
M  V30 5094 H 477.027 -0.233769 4.38577 0
M  V30 5095 H 477.633 1.39725 4.01693 0
M  V30 5096 N 475.948 -1.35272 0.808662 0
M  V30 5097 C 477.197 -1.97963 0.386483 0
M  V30 5098 C 477.51 -1.64866 -1.05255 0
M  V30 5099 O 478.716 -2.20937 -1.57794 0
M  V30 5100 C 477.172 -3.54162 0.640096 0
M  V30 5101 C 476.78 -3.96166 2.0918 0
M  V30 5102 C 478.524 -4.23553 0.283376 0
M  V30 5103 C 476.431 -5.4522 2.29106 0
M  V30 5104 H 475.361 -0.740742 0.140774 0
M  V30 5105 H 478.012 -1.5431 0.993012 0
M  V30 5106 H 476.394 -3.95983 -0.0364117 0
M  V30 5107 H 477.568 -3.65491 2.80629 0
M  V30 5108 H 475.883 -3.3967 2.40859 0
M  V30 5109 H 478.48 -5.33124 0.410273 0
M  V30 5110 H 478.823 -4.09105 -0.770659 0
M  V30 5111 H 479.356 -3.8716 0.913884 0
M  V30 5112 H 476.095 -5.64638 3.32962 0
M  V30 5113 H 475.615 -5.77457 1.62184 0
M  V30 5114 H 477.294 -6.1171 2.1076 0
M  V30 5115 N 477.426 -0.562348 -1.47226 0
M  V30 5116 C 478.373 0.182461 -2.30078 0
M  V30 5117 C 479.343 0.903503 -1.39377 0
M  V30 5118 O 480.528 0.898188 -1.68337 0
M  V30 5119 C 477.668 1.20322 -3.23445 0
M  V30 5120 C 476.781 0.487717 -4.29238 0
M  V30 5121 C 475.916 1.49422 -5.09752 0
M  V30 5122 C 474.955 0.763976 -6.07314 0
M  V30 5123 N 474.092 1.71755 -6.80768 0
M  V30 5124 H 478.932 -0.530169 -2.93246 0
M  V30 5125 H 476.469 -0.273276 -1.44539 0
M  V30 5126 H 478.427 1.80768 -3.76004 0
M  V30 5127 H 477.057 1.88382 -2.6213 0
M  V30 5128 H 476.109 -0.231374 -3.79696 0
M  V30 5129 H 477.421 -0.0841003 -4.98729 0
M  V30 5130 H 476.575 2.17206 -5.66486 0
M  V30 5131 H 475.314 2.09995 -4.40174 0
M  V30 5132 H 474.319 0.0722344 -5.49753 0
M  V30 5133 H 475.544 0.16391 -6.78902 0
M  V30 5134 H 473.49 2.31177 -6.13916 0
M  V30 5135 H 473.407 1.19802 -7.46447 0
M  V30 5136 H 474.675 2.38638 -7.42073 0
M  V30 5137 N 478.904 1.54736 -0.299062 0
M  V30 5138 C 480.134 2.04215 0.312992 0
M  V30 5139 C 480.542 1.17596 1.48215 0
M  V30 5140 O 479.885 0.193835 1.82674 0
M  V30 5141 C 479.947 3.49696 0.833862 0
M  V30 5142 C 479.611 4.56518 -0.20977 0
M  V30 5143 C 480.608 5.09442 -1.03756 0
M  V30 5144 C 478.293 5.01073 -0.35091 0
M  V30 5145 C 480.287 6.05459 -1.99244 0
M  V30 5146 C 477.974 5.9691 -1.30924 0
M  V30 5147 C 478.972 6.48987 -2.1285 0
M  V30 5148 O 478.66 7.42947 -3.07059 0
M  V30 5149 H 478.392 0.672128 0.0722494 0
M  V30 5150 H 480.946 2.00718 -0.436043 0
M  V30 5151 H 479.176 3.5051 1.63339 0
M  V30 5152 H 480.865 3.82381 1.36159 0
M  V30 5153 H 481.631 4.75816 -0.939376 0
M  V30 5154 H 477.51 4.60168 0.276813 0
M  V30 5155 H 481.054 6.46031 -2.63229 0
M  V30 5156 H 476.951 6.29953 -1.40815 0
M  V30 5157 H 477.719 7.60743 -3.02015 0
M  V30 5158 N 480.382 0.0267497 1.57577 0
M  V30 5159 C 481.628 -0.653371 1.91987 0
M  V30 5160 C 481.961 -1.71915 0.903263 0
M  V30 5161 O 481.236 -1.94358 -0.0743387 0
M  V30 5162 C 481.519 -1.272 3.36886 0
M  V30 5163 C 481.372 -0.215938 4.49281 0
M  V30 5164 C 482.691 -2.19069 3.81703 0
M  V30 5165 H 479.81 -0.236047 0.698177 0
M  V30 5166 H 482.452 0.0835236 1.89816 0
M  V30 5167 H 480.602 -1.90005 3.38866 0
M  V30 5168 H 482.274 0.41449 4.59434 0
M  V30 5169 H 480.517 0.458855 4.31366 0
M  V30 5170 H 481.188 -0.688347 5.47691 0
M  V30 5171 H 483.664 -1.66253 3.81444 0
M  V30 5172 H 482.54 -2.59307 4.83788 0
M  V30 5173 H 482.801 -3.08087 3.17072 0
M  V30 5174 N 481.861 -1.55662 -0.24637 0
M  V30 5175 C 483.138 -1.68272 -0.997198 0
M  V30 5176 C 483.518 -0.566785 -2.03349 0
M  V30 5177 O 482.866 0.429688 -2.24424 0
M  V30 5178 C 483.076 -3.08594 -1.63006 0
M  V30 5179 C 484.424 -3.6721 -2.13171 0
M  V30 5180 O 485.448 -3.11397 -1.72946 0
M  V30 5181 O 484.307 -4.65054 -2.87031 0
M  V30 5182 H 481.401 -0.684429 -0.464205 0
M  V30 5183 H 483.947 -1.67993 -0.240114 0
M  V30 5184 H 482.719 -3.81264 -0.880527 0
M  V30 5185 H 482.342 -3.12886 -2.45333 0
M  V30 5186 N 483.339 0.512053 -1.4905 0
M  V30 5187 C 484.585 1.26874 -1.58212 0
M  V30 5188 C 484.918 1.9241 -0.263073 0
M  V30 5189 O 484.193 1.80181 0.732476 0
M  V30 5190 C 484.476 2.34428 -2.73341 0
M  V30 5191 C 484.329 1.73466 -4.15006 0
M  V30 5192 C 485.648 3.36073 -2.84154 0
M  V30 5193 H 482.767 0.459924 -0.575881 0
M  V30 5194 H 485.409 0.568587 -1.81293 0
M  V30 5195 H 483.559 2.94146 -2.53792 0
M  V30 5196 H 485.231 1.17661 -4.46042 0
M  V30 5197 H 483.474 1.03921 -4.21168 0
M  V30 5198 H 484.145 2.51426 -4.91415 0
M  V30 5199 H 486.621 2.86332 -3.01916 0
M  V30 5200 H 485.497 4.08703 -3.66406 0
M  V30 5201 H 485.758 3.97725 -1.93048 0
M  V30 5202 N 484.817 1.37938 0.762283 0
M  V30 5203 C 486.094 1.24196 1.51112 0
M  V30 5204 C 486.474 -0.160409 2.1049 0
M  V30 5205 O 485.822 -1.16904 1.96331 0
M  V30 5206 C 486.032 2.34537 2.58445 0
M  V30 5207 C 487.38 2.7254 3.25588 0
M  V30 5208 O 488.404 2.33783 2.68745 0
M  V30 5209 O 487.263 3.39343 4.28379 0
M  V30 5210 H 484.357 0.485175 0.669727 0
M  V30 5211 H 486.903 1.49743 0.798438 0
M  V30 5212 H 485.675 3.28406 2.12756 0
M  V30 5213 H 485.298 2.10505 3.37303 0
M  V30 5214 N 486.295 -0.989507 1.22664 0
M  V30 5215 C 487.523 -1.76496 1.07967 0
M  V30 5216 C 487.938 -1.85148 -0.369543 0
M  V30 5217 O 487.295 -1.32408 -1.25596 0
M  V30 5218 C 487.346 -3.19642 1.68853 0
M  V30 5219 O 487.067 -3.11453 3.08105 0
M  V30 5220 C 488.568 -4.13621 1.59475 0
M  V30 5221 H 485.788 -0.55418 0.378319 0
M  V30 5222 H 488.332 -1.24378 1.62328 0
M  V30 5223 H 486.487 -3.68816 1.18547 0
M  V30 5224 H 486.901 -4.01499 3.37489 0
M  V30 5225 H 488.375 -5.11801 2.06795 0
M  V30 5226 H 488.852 -4.35718 0.55191 0
M  V30 5227 H 489.458 -3.70346 2.09103 0
M  V30 5228 N 487.773 -1.03688 -1.18687 0
M  V30 5229 C 488.721 -0.618292 -2.24232 0
M  V30 5230 C 489.715 0.353045 -1.6568 0
M  V30 5231 O 490.921 0.220749 -1.78641 0
M  V30 5232 H 487.296 -0.181711 -0.729716 0
M  V30 5233 H 489.267 -1.51893 -2.56848 0
M  V30 5234 C 488.016 0.00677342 -3.47699 0
M  V30 5235 H 487.339 -0.731692 -3.93047 0
M  V30 5236 H 488.779 0.262492 -4.23187 0
M  V30 5237 C 487.238 1.25572 -3.12623 0
M  V30 5238 O 487.768 2.34691 -3.26011 0
M  V30 5239 N 485.974 1.14755 -2.66982 0
M  V30 5240 H 485.521 0.259601 -2.56289 0
M  V30 5241 H 485.479 1.98412 -2.43885 0
M  V30 5242 N 489.251 1.34841 -0.815825 0
M  V30 5243 C 490.161 2.33425 -0.234462 0
M  V30 5244 C 491.177 1.62295 0.627413 0
M  V30 5245 O 492.353 1.94109 0.536987 0
M  V30 5246 C 489.418 3.41471 0.599849 0
M  V30 5247 C 488.479 4.28362 -0.283596 0
M  V30 5248 C 487.712 5.31248 0.51099 0
M  V30 5249 O 487.935 5.43056 1.7449 0
M  V30 5250 O 486.869 6.01812 -0.10297 0
M  V30 5251 H 490.695 2.84962 -1.05024 0
M  V30 5252 H 488.28 1.37774 -0.577809 0
M  V30 5253 H 490.162 4.07464 1.07475 0
M  V30 5254 H 488.837 2.9219 1.39308 0
M  V30 5255 H 487.744 3.65318 -0.805836 0
M  V30 5256 H 489.077 4.81066 -1.041 0
M  V30 5257 N 490.729 0.570148 1.46925 0
M  V30 5258 C 491.659 -0.158274 2.32963 0
M  V30 5259 C 492.64 -0.896093 1.44583 0
M  V30 5260 O 493.825 -0.874022 1.7342 0
M  V30 5261 C 490.955 -1.18055 3.26619 0
M  V30 5262 C 489.909 -0.558379 4.24342 0
M  V30 5263 C 489.235 -1.68623 5.07415 0
M  V30 5264 C 490.535 0.496295 5.19937 0
M  V30 5265 H 492.229 0.560046 2.94115 0
M  V30 5266 H 489.775 0.270775 1.41431 0
M  V30 5267 H 491.728 -1.69841 3.85658 0
M  V30 5268 H 490.452 -1.92899 2.63548 0
M  V30 5269 H 489.111 -0.0617157 3.66548 0
M  V30 5270 H 488.759 -2.42402 4.40738 0
M  V30 5271 H 488.459 -1.27564 5.73586 0
M  V30 5272 H 489.983 -2.20709 5.69315 0
M  V30 5273 H 491.397 0.0640052 5.73264 0
M  V30 5274 H 489.794 0.82649 5.94381 0
M  V30 5275 H 490.864 1.38735 4.6463 0
M  V30 5276 N 492.207 -1.54576 0.307264 0
M  V30 5277 C 493.137 -2.26708 -0.55907 0
M  V30 5278 C 494.118 -1.26893 -1.1328 0
M  V30 5279 O 495.303 -1.55677 -1.16097 0
M  V30 5280 C 492.433 -3.01259 -1.72801 0
M  V30 5281 C 491.387 -4.08275 -1.28435 0
M  V30 5282 C 490.713 -4.70575 -2.53895 0
M  V30 5283 C 492.013 -5.2068 -0.411038 0
M  V30 5284 H 493.707 -2.9937 0.042576 0
M  V30 5285 H 491.253 -1.43983 0.0219173 0
M  V30 5286 H 493.206 -3.50444 -2.34023 0
M  V30 5287 H 491.93 -2.26187 -2.356 0
M  V30 5288 H 490.589 -3.59949 -0.695161 0
M  V30 5289 H 490.237 -3.92136 -3.15021 0
M  V30 5290 H 489.937 -5.42854 -2.24908 0
M  V30 5291 H 491.461 -5.22527 -3.15908 0
M  V30 5292 H 492.875 -5.65721 -0.929097 0
M  V30 5293 H 491.272 -5.99716 -0.214664 0
M  V30 5294 H 492.342 -4.81629 0.562287 0
M  V30 5295 N 493.685 -0.035106 -1.57561 0
M  V30 5296 C 494.632 0.94474 -2.10578 0
M  V30 5297 C 495.602 1.3192 -1.00927 0
M  V30 5298 O 496.787 1.41147 -1.28382 0
M  V30 5299 C 493.927 2.21982 -2.64231 0
M  V30 5300 C 493.04 1.90128 -3.87911 0
M  V30 5301 C 492.175 3.11975 -4.29936 0
M  V30 5302 C 491.214 2.75968 -5.46359 0
M  V30 5303 N 490.351 3.90459 -5.83512 0
M  V30 5304 H 495.191 0.485717 -2.94015 0
M  V30 5305 H 492.728 0.228143 -1.4532 0
M  V30 5306 H 494.686 2.96572 -2.9343 0
M  V30 5307 H 493.316 2.6549 -1.83616 0
M  V30 5308 H 492.368 1.05755 -3.65404 0
M  V30 5309 H 493.68 1.59613 -4.72573 0
M  V30 5310 H 492.834 3.9488 -4.60603 0
M  V30 5311 H 491.573 3.45657 -3.44053 0
M  V30 5312 H 490.578 1.91478 -5.1538 0
M  V30 5313 H 491.803 2.43497 -6.33945 0
M  V30 5314 H 489.749 4.23971 -5.00584 0
M  V30 5315 H 489.666 3.63588 -6.62827 0
M  V30 5316 H 490.934 4.7405 -6.18787 0
M  V30 5317 N 495.163 1.55791 0.238111 0
M  V30 5318 C 496.388 1.8244 0.986432 0
M  V30 5319 C 496.813 0.613314 1.7782 0
M  V30 5320 O 496.171 -0.437767 1.75935 0
M  V30 5321 C 496.219 3.06917 1.893 0
M  V30 5322 O 495.323 2.84449 2.98601 0
M  V30 5323 H 494.664 0.601975 0.280218 0
M  V30 5324 H 497.194 2.02987 0.256437 0
M  V30 5325 H 497.204 3.36583 2.30598 0
M  V30 5326 H 495.879 3.947 1.31091 0
M  V30 5327 H 494.456 2.65972 2.61368 0
M  V30 5328 N 496.642 -0.504142 1.49319 0
M  V30 5329 C 497.552 -1.63248 1.68486 0
M  V30 5330 C 498.568 -1.64488 0.567432 0
M  V30 5331 O 499.744 -1.82966 0.841749 0
M  V30 5332 C 496.809 -2.99627 1.74426 0
M  V30 5333 C 495.87 -3.09039 2.97982 0
M  V30 5334 C 495.103 -4.38913 3.0363 0
M  V30 5335 O 495.326 -5.27528 2.16958 0
M  V30 5336 O 494.26 -4.53231 3.96062 0
M  V30 5337 H 498.086 -1.50008 2.64067 0
M  V30 5338 H 495.671 -0.680086 1.33023 0
M  V30 5339 H 497.553 -3.80689 1.80705 0
M  V30 5340 H 496.228 -3.13136 0.820233 0
M  V30 5341 H 495.135 -2.27177 2.97223 0
M  V30 5342 H 496.468 -3.00456 3.89855 0
M  V30 5343 N 498.12 -1.38341 -0.754957 0
M  V30 5344 C 499.052 -1.31347 -1.87831 0
M  V30 5345 C 500.065 -0.225955 -1.61224 0
M  V30 5346 O 501.254 -0.48341 -1.7183 0
M  V30 5347 C 498.354 -1.01201 -3.23437 0
M  V30 5348 C 497.527 -2.20834 -3.77559 0
M  V30 5349 C 496.586 -1.87454 -4.91678 0
M  V30 5350 O 495.612 -2.59934 -5.06382 0
M  V30 5351 N 496.814 -0.828682 -5.74555 0
M  V30 5352 H 499.579 -2.28147 -1.94342 0
M  V30 5353 H 497.14 -1.32184 -0.934828 0
M  V30 5354 H 499.132 -0.769249 -3.97322 0
M  V30 5355 H 497.702 -0.132011 -3.12321 0
M  V30 5356 H 496.922 -2.61184 -2.95256 0
M  V30 5357 H 498.21 -3.00678 -4.10451 0
M  V30 5358 H 497.608 -0.227591 -5.65242 0
M  V30 5359 H 496.165 -0.645802 -6.48593 0
M  V30 5360 N 499.598 0.982988 -1.23187 0
M  V30 5361 C 500.528 2.09301 -1.03515 0
M  V30 5362 C 501.509 1.70035 0.0471136 0
M  V30 5363 O 502.694 1.93847 -0.117029 0
M  V30 5364 C 499.824 3.4167 -0.622791 0
M  V30 5365 C 498.778 3.94828 -1.65211 0
M  V30 5366 C 498.104 5.23362 -1.09527 0
M  V30 5367 C 499.404 4.2439 -3.04451 0
M  V30 5368 H 501.098 2.26016 -1.96359 0
M  V30 5369 H 498.644 1.08611 -0.945501 0
M  V30 5370 H 500.597 4.18746 -0.472233 0
M  V30 5371 H 499.321 3.24811 0.341329 0
M  V30 5372 H 497.98 3.19895 -1.79061 0
M  V30 5373 H 497.628 5.02852 -0.122211 0
M  V30 5374 H 497.328 5.59895 -1.783 0
M  V30 5375 H 498.852 6.03062 -0.956511 0
M  V30 5376 H 500.266 4.92225 -2.93917 0
M  V30 5377 H 498.663 4.72118 -3.70438 0
M  V30 5378 H 499.733 3.31765 -3.53638 0
M  V30 5379 N 501.076 1.04316 1.18135 0
M  V30 5380 C 502.006 0.657299 2.24058 0
M  V30 5381 C 502.987 -0.340678 1.66654 0
M  V30 5382 O 504.172 -0.220223 1.92947 0
M  V30 5383 C 501.302 0.0220715 3.47293 0
M  V30 5384 C 500.256 0.943857 4.17463 0
M  V30 5385 C 499.582 0.172973 5.3442 0
M  V30 5386 C 500.882 2.26409 4.70677 0
M  V30 5387 H 502.576 1.5428 2.56589 0
M  V30 5388 H 500.122 0.743263 1.23335 0
M  V30 5389 H 502.075 -0.259607 4.206 0
M  V30 5390 H 500.799 -0.898323 3.14003 0
M  V30 5391 H 499.458 1.20996 3.46057 0
M  V30 5392 H 499.106 -0.749907 4.97379 0
M  V30 5393 H 498.806 0.787098 5.82304 0
M  V30 5394 H 500.33 -0.101628 6.10515 0
M  V30 5395 H 501.744 2.04294 5.35665 0
M  V30 5396 H 500.141 2.8314 5.29105 0
M  V30 5397 H 501.211 2.90883 3.87962 0
M  V30 5398 N 502.554 -1.34406 0.822964 0
M  V30 5399 C 503.782 -2.02508 0.424039 0
M  V30 5400 C 504.197 -1.61975 -0.970022 0
M  V30 5401 O 503.554 -0.825228 -1.62777 0
M  V30 5402 C 503.605 -3.57789 0.516657 0
M  V30 5403 O 503.326 -3.96853 1.85577 0
M  V30 5404 C 504.827 -4.43157 0.112637 0
M  V30 5405 H 502.047 -0.649063 0.170173 0
M  V30 5406 H 504.591 -1.7168 1.11113 0
M  V30 5407 H 502.746 -3.87207 -0.122353 0
M  V30 5408 H 503.16 -4.91538 1.83005 0
M  V30 5409 H 504.634 -5.51527 0.228526 0
M  V30 5410 H 505.111 -4.28939 -0.943837 0
M  V30 5411 H 505.717 -4.19067 0.725449 0
M  V30 5412 N 504.032 -0.577932 -1.46621 0
M  V30 5413 C 504.995 0.147805 -2.28723 0
M  V30 5414 C 505.995 0.823325 -1.38123 0
M  V30 5415 O 507.185 0.676011 -1.60548 0
M  V30 5416 C 504.317 1.21853 -3.18378 0
M  V30 5417 H 505.51 -0.573654 -2.94362 0
M  V30 5418 H 503.063 -0.335703 -1.52652 0
M  V30 5419 H 503.798 1.97173 -2.57475 0
M  V30 5420 H 503.583 0.738714 -3.85078 0
M  V30 5421 H 505.073 1.72768 -3.80186 0
M  V30 5422 N 505.51 1.54411 -0.315457 0
M  V30 5423 C 506.735 2.05299 0.294496 0
M  V30 5424 C 507.16 1.19052 1.4563 0
M  V30 5425 O 506.518 0.197804 1.80218 0
M  V30 5426 C 506.566 3.5345 0.714549 0
M  V30 5427 O 505.67 3.70175 1.81781 0
M  V30 5428 H 505.011 0.661743 0.0547019 0
M  V30 5429 H 507.541 1.99327 -0.461508 0
M  V30 5430 H 507.551 3.9557 0.999426 0
M  V30 5431 H 506.226 4.1568 -0.135244 0
M  V30 5432 H 504.803 3.3996 1.53236 0
M  V30 5433 N 506.988 0.0434614 1.5754 0
M  V30 5434 C 507.898 -0.94893 2.14552 0
M  V30 5435 C 508.914 -1.34707 1.10136 0
M  V30 5436 O 510.09 -1.42557 1.42266 0
M  V30 5437 C 507.155 -2.208 2.67298 0
M  V30 5438 C 506.216 -1.86893 3.86484 0
M  V30 5439 C 505.449 -3.06797 4.36705 0
M  V30 5440 O 505.672 -4.19921 3.86034 0
M  V30 5441 O 504.606 -2.8826 5.28384 0
M  V30 5442 H 508.432 -0.494099 2.99654 0
M  V30 5443 H 506.017 -0.177989 1.48336 0
M  V30 5444 H 507.899 -2.94686 3.01228 0
M  V30 5445 H 506.574 -2.65436 1.85272 0
M  V30 5446 H 505.481 -1.10347 3.57455 0
M  V30 5447 H 506.814 -1.47062 4.69716 0
M  V30 5448 N 508.466 -1.55915 -0.229846 0
M  V30 5449 C 509.882 -1.48721 -0.579166 0
M  V30 5450 C 510.082 -0.736976 -1.87539 0
M  V30 5451 O 509.138 -0.273258 -2.51017 0
M  V30 5452 C 510.451 -2.9323 -0.666082 0
M  V30 5453 C 511.999 -3.03701 -0.757267 0
M  V30 5454 C 512.474 -4.49552 -0.8756 0
M  V30 5455 N 513.965 -4.53561 -0.940035 0
M  V30 5456 C 514.7 -5.63683 -1.05116 0
M  V30 5457 N 514.196 -6.83576 -1.12675 0
M  V30 5458 N 515.989 -5.51516 -1.08565 0
M  V30 5459 H 508.14 -2.03123 0.620857 0
M  V30 5460 H 510.403 -0.922898 0.21671 0
M  V30 5461 H 510.109 -3.51032 0.21664 0
M  V30 5462 H 509.983 -3.44668 -1.53243 0
M  V30 5463 H 512.37 -2.45969 -1.63043 0
M  V30 5464 H 512.451 -2.55446 0.134583 0
M  V30 5465 H 512.095 -5.079 -0.00692351 0
M  V30 5466 H 512.025 -4.95506 -1.78274 0
M  V30 5467 H 514.516 -3.67215 -0.892269 0
M  V30 5468 H 514.829 -7.63251 -1.21109 0
M  V30 5469 H 513.174 -6.86303 -1.09603 0
M  V30 5470 H 516.365 -4.5678 -1.02319 0
M  V30 5471 H 516.538 -6.37372 -1.1688 0
M  V30 5472 N 509.944 0.496216 -1.49584 0
M  V30 5473 C 510.892 1.61805 -1.67098 0
M  V30 5474 C 511.886 1.60667 -0.536877 0
M  V30 5475 O 513.092 1.65118 -0.716654 0
M  V30 5476 H 509.467 0.53646 -0.526986 0
M  V30 5477 H 511.438 1.44187 -2.61252 0
M  V30 5478 C 510.187 2.99912 -1.75921 0
M  V30 5479 H 509.51 3.01496 -2.62565 0
M  V30 5480 H 510.95 3.77931 -1.92209 0
M  V30 5481 C 509.409 3.33092 -0.505088 0
M  V30 5482 O 509.939 4.00019 0.367085 0
M  V30 5483 N 508.145 2.88278 -0.366599 0
M  V30 5484 H 507.692 2.33989 -1.07735 0
M  V30 5485 H 507.65 3.10846 0.47142 0
M  V30 5486 N 511.423 1.38739 0.74761 0
M  V30 5487 C 512.353 1.39173 1.87492 0
M  V30 5488 C 513.334 0.256794 1.6815 0
M  V30 5489 O 514.519 0.460762 1.88655 0
M  V30 5490 C 511.649 1.22197 3.25093 0
M  V30 5491 C 510.603 2.32957 3.59047 0
M  V30 5492 C 509.929 2.01082 4.95449 0
M  V30 5493 C 511.229 3.75237 3.6331 0
M  V30 5494 H 512.923 2.3351 1.87386 0
M  V30 5495 H 510.469 1.12399 0.900134 0
M  V30 5496 H 512.422 1.21124 4.03617 0
M  V30 5497 H 511.146 0.243241 3.25693 0
M  V30 5498 H 509.805 2.33226 2.82845 0
M  V30 5499 H 509.453 1.01678 4.92616 0
M  V30 5500 H 509.153 2.75267 5.19136 0
M  V30 5501 H 510.677 2.01638 5.76346 0
M  V30 5502 H 512.091 3.76966 4.31937 0
M  V30 5503 H 510.488 4.48677 3.98509 0
M  V30 5504 H 511.558 4.07122 2.634 0
M  V30 5505 N 512.901 -0.976442 1.23707 0
M  V30 5506 C 514.178 -1.69296 0.979699 0
M  V30 5507 C 514.558 -2.0508 -0.500555 0
M  V30 5508 O 513.906 -1.74708 -1.47273 0
M  V30 5509 C 514.116 -2.93143 1.89389 0
M  V30 5510 C 515.464 -3.65572 2.15968 0
M  V30 5511 O 516.488 -3.03184 1.86971 0
M  V30 5512 O 515.347 -4.77859 2.65167 0
M  V30 5513 H 512.441 -0.739708 0.369812 0
M  V30 5514 H 514.987 -1.03131 1.34767 0
M  V30 5515 H 513.759 -2.63327 2.89439 0
M  V30 5516 H 513.382 -3.67044 1.52854 0
M  V30 5517 N 514.379 -1.04941 -1.1758 0
M  V30 5518 C 515.626 -0.757989 -1.87779 0
M  V30 5519 C 515.954 0.714827 -1.80888 0
M  V30 5520 O 515.209 1.53824 -1.20982 0
M  V30 5521 C 515.508 -1.18062 -3.37337 0
M  V30 5522 C 515.174 -2.65521 -3.6443 0
M  V30 5523 C 513.836 -3.05804 -3.71534 0
M  V30 5524 C 516.188 -3.60822 -3.76108 0
M  V30 5525 C 513.516 -4.40256 -3.87803 0
M  V30 5526 C 515.868 -4.95005 -3.93895 0
M  V30 5527 C 514.532 -5.34945 -3.99237 0
M  V30 5528 H 513.802 -0.277368 -0.68713 0
M  V30 5529 H 516.449 -1.31603 -1.39115 0
M  V30 5530 H 514.754 -0.541525 -3.8804 0
M  V30 5531 H 516.451 -0.932368 -3.9001 0
M  V30 5532 H 513.041 -2.33324 -3.59524 0
M  V30 5533 H 517.225 -3.30841 -3.69943 0
M  V30 5534 H 512.481 -4.70707 -3.90186 0
M  V30 5535 H 516.655 -5.68746 -4.01872 0
M  V30 5536 H 514.282 -6.39135 -4.11596 0
M  V30 5537 N 515.857 1.33968 -0.830081 0
M  V30 5538 C 517.273 1.51003 -0.516742 0
M  V30 5539 C 517.473 1.77286 0.957694 0
M  V30 5540 O 516.529 1.82797 1.74188 0
M  V30 5541 C 517.842 2.67036 -1.38247 0
M  V30 5542 C 519.39 2.80919 -1.38034 0
M  V30 5543 C 519.865 4.00004 -2.23071 0
M  V30 5544 N 521.356 4.07224 -2.20733 0
M  V30 5545 C 522.091 4.98541 -2.83275 0
M  V30 5546 N 521.587 5.95033 -3.54835 0
M  V30 5547 N 523.38 4.91469 -2.72791 0
M  V30 5548 H 515.531 1.15168 -1.78466 0
M  V30 5549 H 517.794 0.565443 -0.760906 0
M  V30 5550 H 517.5 2.54266 -2.42985 0
M  V30 5551 H 517.374 3.62226 -1.05225 0
M  V30 5552 H 519.761 2.93127 -0.340713 0
M  V30 5553 H 519.842 1.86517 -1.75057 0
M  V30 5554 H 519.486 3.88557 -3.27087 0
M  V30 5555 H 519.416 4.93634 -1.83394 0
M  V30 5556 H 521.907 3.38162 -1.68687 0
M  V30 5557 H 522.22 6.61357 -3.99784 0
M  V30 5558 H 520.565 5.95135 -3.58942 0
M  V30 5559 H 523.756 4.15048 -2.16456 0
M  V30 5560 H 523.929 5.62439 -3.21818 0
M  V30 5561 N 517.335 0.585699 1.46312 0
M  V30 5562 C 518.612 0.00542031 1.95599 0
M  V30 5563 C 518.992 -1.45619 1.52834 0
M  V30 5564 O 518.34 -2.14759 0.780446 0
M  V30 5565 C 518.55 0.180601 3.48532 0
M  V30 5566 C 519.898 0.049979 4.24571 0
M  V30 5567 O 520.922 0.109589 3.56031 0
M  V30 5568 O 519.781 -0.0832226 5.46437 0
M  V30 5569 H 516.875 -0.0481281 0.825598 0
M  V30 5570 H 519.421 0.654227 1.56582 0
M  V30 5571 H 518.193 1.19657 3.72556 0
M  V30 5572 H 517.816 -0.504498 3.94386 0
M  V30 5573 N 518.813 -1.54241 0.323641 0
M  V30 5574 C 519.743 -2.27289 -0.534993 0
M  V30 5575 C 520.724 -1.28087 -1.11927 0
M  V30 5576 O 521.909 -1.56899 -1.14439 0
M  V30 5577 C 519.039 -3.03075 -1.69596 0
M  V30 5578 C 517.993 -4.09614 -1.24098 0
M  V30 5579 C 517.319 -4.73242 -2.4889 0
M  V30 5580 C 518.619 -5.21087 -0.355789 0
M  V30 5581 H 520.313 -2.99308 0.0743257 0
M  V30 5582 H 517.859 -1.43952 0.0371874 0
M  V30 5583 H 519.812 -3.52907 -2.30293 0
M  V30 5584 H 518.536 -2.28673 -2.33187 0
M  V30 5585 H 517.195 -3.60666 -0.656945 0
M  V30 5586 H 516.843 -3.95455 -3.10845 0
M  V30 5587 H 516.543 -5.45209 -2.19138 0
M  V30 5588 H 518.067 -5.25848 -3.10348 0
M  V30 5589 H 519.481 -5.66675 -0.869042 0
M  V30 5590 H 517.878 -5.9991 -0.151045 0
M  V30 5591 H 518.948 -4.81005 0.613339 0
M  V30 5592 N 520.291 -0.0518155 -1.57515 0
M  V30 5593 C 521.521 0.63048 -1.96745 0
M  V30 5594 C 521.929 1.64875 -0.928054 0
M  V30 5595 O 521.272 1.83449 0.0960678 0
M  V30 5596 C 521.334 1.37381 -3.32215 0
M  V30 5597 C 520.998 0.511298 -4.54131 0
M  V30 5598 C 521.995 -0.222884 -5.19422 0
M  V30 5599 C 519.68 0.442035 -5.00351 0
M  V30 5600 C 521.674 -1.01476 -6.2927 0
M  V30 5601 C 519.361 -0.35353 -6.10077 0
M  V30 5602 C 520.359 -1.08062 -6.74397 0
M  V30 5603 O 520.047 -1.8631 -7.82013 0
M  V30 5604 H 519.779 0.177126 -0.652382 0
M  V30 5605 H 522.333 -0.114726 -2.05079 0
M  V30 5606 H 520.563 2.16466 -3.20436 0
M  V30 5607 H 522.252 1.9464 -3.56188 0
M  V30 5608 H 523.018 -0.178846 -4.8467 0
M  V30 5609 H 518.897 0.997562 -4.50077 0
M  V30 5610 H 522.441 -1.58279 -6.79407 0
M  V30 5611 H 518.338 -0.399205 -6.44264 0
M  V30 5612 H 519.106 -1.78528 -7.98793 0
M  V30 5613 N 521.769 1.56035 0.221574 0
M  V30 5614 C 523.046 1.69837 0.970301 0
M  V30 5615 C 523.426 0.599065 2.02421 0
M  V30 5616 O 522.774 -0.393929 2.25079 0
M  V30 5617 C 522.984 3.11148 1.58076 0
M  V30 5618 C 524.332 3.70555 2.07302 0
M  V30 5619 O 525.356 3.14109 1.6797 0
M  V30 5620 O 524.215 4.69562 2.79596 0
M  V30 5621 H 521.309 0.691727 0.453257 0
M  V30 5622 H 523.855 1.68353 0.213358 0
M  V30 5623 H 522.627 3.82617 0.819759 0
M  V30 5624 H 522.25 3.16749 2.40324 0
M  V30 5625 N 523.247 -0.488276 1.49845 0
M  V30 5626 C 524.658 -1.06955 1.53028 0
M  V30 5627 C 525.009 -1.9351 0.323797 0
M  V30 5628 O 524.134 -2.08891 -0.565116 0
M  V30 5629 C 524.729 -1.94643 2.77307 0
M  V30 5630 C 523.288 -2.4791 2.83227 0
M  V30 5631 C 522.435 -1.25833 2.47106 0
M  V30 5632 H 525.386 -0.271626 1.56358 0
M  V30 5633 H 525.407 -2.79496 2.5819 0
M  V30 5634 H 524.919 -1.31621 3.65099 0
M  V30 5635 H 523.02 -3.14535 1.99745 0
M  V30 5636 H 523.133 -2.84193 3.85709 0
M  V30 5637 H 521.497 -1.58764 1.99163 0
M  V30 5638 H 522.28 -0.644993 3.37186 0
M  V30 5639 N 524.725 -1.39134 -0.740242 0
M  V30 5640 C 526.141 -1.20623 -1.0451 0
M  V30 5641 C 526.341 -0.0641651 -2.01398 0
M  V30 5642 O 525.397 0.585843 -2.4561 0
M  V30 5643 C 526.71 -2.53815 -1.6124 0
M  V30 5644 C 528.258 -2.60615 -1.73346 0
M  V30 5645 C 528.733 -3.94015 -2.33486 0
M  V30 5646 N 530.224 -3.95627 -2.40902 0
M  V30 5647 C 530.959 -4.95616 -2.88361 0
M  V30 5648 N 530.455 -6.06003 -3.35756 0
M  V30 5649 N 532.248 -4.82998 -2.87523 0
M  V30 5650 H 524.399 -2.12176 -0.0975576 0
M  V30 5651 H 526.662 -0.942066 -0.105904 0
M  V30 5652 H 526.368 -3.37911 -0.975144 0
M  V30 5653 H 526.242 -2.73162 -2.6012 0
M  V30 5654 H 528.629 -1.76906 -2.36195 0
M  V30 5655 H 528.71 -2.45123 -0.731336 0
M  V30 5656 H 528.354 -4.78153 -1.71267 0
M  V30 5657 H 528.284 -4.06825 -3.34366 0
M  V30 5658 H 530.775 -3.15903 -2.07398 0
M  V30 5659 H 531.088 -6.78215 -3.70464 0
M  V30 5660 H 529.433 -6.09604 -3.33778 0
M  V30 5661 H 532.624 -3.95866 -2.49816 0
M  V30 5662 H 532.797 -5.61072 -3.24196 0
M  V30 5663 N 526.204 0.969867 -1.24223 0
M  V30 5664 C 527.481 1.68774 -0.988664 0
M  V30 5665 C 527.861 2.05342 0.489673 0
M  V30 5666 O 527.209 1.75486 1.46345 0
M  V30 5667 C 527.419 2.92135 -1.90941 0
M  V30 5668 C 528.767 3.64422 -2.17903 0
M  V30 5669 O 529.791 3.02188 -1.88576 0
M  V30 5670 O 528.65 4.76446 -2.67697 0
M  V30 5671 H 525.744 0.737736 -0.37373 0
M  V30 5672 H 528.29 1.02415 -1.35312 0
M  V30 5673 H 527.062 2.61788 -2.90831 0
M  V30 5674 H 526.685 3.66228 -1.54798 0
M  V30 5675 N 527.682 1.05563 1.17022 0
M  V30 5676 C 528.629 0.659893 2.21165 0
M  V30 5677 C 529.599 -0.339813 1.62587 0
M  V30 5678 O 530.784 -0.230378 1.89404 0
M  V30 5679 C 527.924 0.0447297 3.45071 0
M  V30 5680 C 527.037 1.09372 4.17926 0
M  V30 5681 C 526.172 0.445481 5.29329 0
M  V30 5682 C 525.211 1.47852 5.93975 0
M  V30 5683 N 524.348 0.854172 6.96885 0
M  V30 5684 H 529.188 1.55243 2.54369 0
M  V30 5685 H 526.725 0.776336 1.24946 0
M  V30 5686 H 528.683 -0.329404 4.15898 0
M  V30 5687 H 527.313 -0.811244 3.1244 0
M  V30 5688 H 526.365 1.58564 3.45777 0
M  V30 5689 H 527.677 1.87773 4.62107 0
M  V30 5690 H 526.831 0.0179688 6.06697 0
M  V30 5691 H 525.57 -0.370481 4.86291 0
M  V30 5692 H 524.575 1.91601 5.15334 0
M  V30 5693 H 525.8 2.29645 6.39093 0
M  V30 5694 H 523.746 0.0587882 6.55974 0
M  V30 5695 H 523.663 1.57567 7.39397 0
M  V30 5696 H 524.931 0.451559 7.78191 0
M  V30 5697 N 529.16 -1.33526 0.837174 0
M  V30 5698 C 530.123 -2.27551 0.274421 0
M  V30 5699 C 531.123 -1.50886 -0.555881 0
M  V30 5700 O 532.313 -1.70227 -0.369918 0
M  V30 5701 C 529.445 -3.35332 -0.613605 0
M  V30 5702 H 530.638 -2.78837 1.10408 0
M  V30 5703 H 528.191 -1.439 0.610126 0
M  V30 5704 H 528.926 -2.89285 -1.46577 0
M  V30 5705 H 528.711 -3.92095 -0.0195341 0
M  V30 5706 H 530.201 -4.05433 -1.00068 0
M  V30 5707 N 530.638 -0.59345 -1.46 0
M  V30 5708 C 531.585 0.133618 -2.30413 0
M  V30 5709 C 532.555 0.873736 -1.41262 0
M  V30 5710 O 533.74 0.862279 -1.70204 0
M  V30 5711 C 530.88 1.13434 -3.25924 0
M  V30 5712 C 529.993 0.39656 -4.30176 0
M  V30 5713 C 529.128 1.38575 -5.12806 0
M  V30 5714 C 528.167 0.634984 -6.08797 0
M  V30 5715 N 527.304 1.57276 -6.84258 0
M  V30 5716 H 532.144 -0.592252 -2.92055 0
M  V30 5717 H 529.681 -0.303874 -1.43927 0
M  V30 5718 H 531.639 1.72752 -3.79753 0
M  V30 5719 H 530.269 1.82779 -2.66067 0
M  V30 5720 H 529.321 -0.311861 -3.79119 0
M  V30 5721 H 530.633 -0.189869 -4.98438 0
M  V30 5722 H 529.787 2.05141 -5.70966 0
M  V30 5723 H 528.526 2.00611 -4.44529 0
M  V30 5724 H 527.531 -0.0443925 -5.49782 0
M  V30 5725 H 528.756 0.0198678 -6.79097 0
M  V30 5726 H 526.702 2.18103 -6.18682 0
M  V30 5727 H 526.619 1.03941 -7.48821 0
M  V30 5728 H 527.887 2.22844 -7.46968 0
M  V30 5729 N 532.116 1.54067 -0.331816 0
M  V30 5730 C 533.046 2.27569 0.522932 0
M  V30 5731 C 534.027 1.28679 1.11247 0
M  V30 5732 O 535.212 1.57504 1.13605 0
M  V30 5733 C 532.342 3.0397 1.67987 0
M  V30 5734 C 531.296 4.10267 1.21924 0
M  V30 5735 C 530.622 4.74555 2.46377 0
M  V30 5736 C 531.922 5.21268 0.32815 0
M  V30 5737 H 533.616 2.99264 -0.0901977 0
M  V30 5738 H 531.162 1.4393 -0.044821 0
M  V30 5739 H 533.115 3.54123 2.28418 0
M  V30 5740 H 531.839 2.29906 2.31971 0
M  V30 5741 H 530.498 3.61009 0.637809 0
M  V30 5742 H 530.146 3.97098 3.08743 0
M  V30 5743 H 529.846 5.46363 2.16243 0
M  V30 5744 H 531.37 5.27487 3.07555 0
M  V30 5745 H 532.784 5.67128 0.838978 0
M  V30 5746 H 531.181 5.99982 0.119228 0
M  V30 5747 H 532.251 4.80673 -0.638839 0
M  V30 5748 N 533.594 0.0601682 1.57485 0
M  V30 5749 C 534.524 -0.90889 2.15085 0
M  V30 5750 C 535.505 -1.31838 1.07484 0
M  V30 5751 O 536.69 -1.3915 1.35466 0
M  V30 5752 C 533.82 -2.18059 2.7031 0
M  V30 5753 C 532.774 -1.91088 3.82974 0
M  V30 5754 C 532.1 -3.24789 4.24754 0
M  V30 5755 C 533.4 -1.22535 5.07723 0
M  V30 5756 H 535.094 -0.429093 2.96309 0
M  V30 5757 H 532.64 -0.204952 1.42534 0
M  V30 5758 H 534.593 -2.86258 3.09248 0
M  V30 5759 H 533.317 -2.6826 1.8629 0
M  V30 5760 H 531.976 -1.25297 3.44523 0
M  V30 5761 H 531.624 -3.72809 3.37672 0
M  V30 5762 H 531.324 -3.07538 5.00694 0
M  V30 5763 H 532.848 -3.94205 4.66299 0
M  V30 5764 H 534.262 -1.80783 5.4405 0
M  V30 5765 H 532.659 -1.1558 5.88864 0
M  V30 5766 H 533.729 -0.202692 4.84476 0
M  V30 5767 N 535.072 -1.5615 -0.213296 0
M  V30 5768 C 536.302 -1.83372 -0.951757 0
M  V30 5769 C 536.71 -0.638158 -1.78113 0
M  V30 5770 O 536.053 0.402609 -1.79234 0
M  V30 5771 C 536.115 -3.04444 -1.91192 0
M  V30 5772 C 535.779 -4.39107 -1.26627 0
M  V30 5773 C 536.776 -5.15794 -0.652087 0
M  V30 5774 C 534.461 -4.85834 -1.27556 0
M  V30 5775 C 536.455 -6.37376 -0.055814 0
M  V30 5776 C 534.142 -6.07356 -0.675451 0
M  V30 5777 C 535.14 -6.82967 -0.0666367 0
M  V30 5778 O 534.828 -8.0219 0.524119 0
M  V30 5779 H 534.56 -0.613398 -0.284111 0
M  V30 5780 H 537.114 -2.04096 -0.231112 0
M  V30 5781 H 535.344 -2.79559 -2.67178 0
M  V30 5782 H 537.033 -3.18466 -2.51662 0
M  V30 5783 H 537.799 -4.80796 -0.637172 0
M  V30 5784 H 533.678 -4.26949 -1.73883 0
M  V30 5785 H 537.222 -6.96334 0.420004 0
M  V30 5786 H 533.119 -6.41825 -0.687806 0
M  V30 5787 H 533.887 -8.17426 0.419243 0
M  V30 5788 N 536.55 0.480323 -1.50102 0
M  V30 5789 C 537.498 1.60024 -1.68805 0
M  V30 5790 C 538.492 1.60089 -0.553888 0
M  V30 5791 O 539.698 1.64349 -0.734127 0
M  V30 5792 H 536.073 0.530841 -0.532646 0
M  V30 5793 H 538.044 1.41408 -2.62767 0
M  V30 5794 C 536.793 2.98029 -1.79092 0
M  V30 5795 H 536.116 2.98694 -2.65748 0
M  V30 5796 H 537.556 3.75871 -1.96206 0
M  V30 5797 C 536.015 3.32538 -0.540388 0
M  V30 5798 O 536.545 4.00386 0.324637 0
M  V30 5799 N 534.751 2.87873 -0.397154 0
M  V30 5800 H 534.298 2.32834 -1.1021 0
M  V30 5801 H 534.256 3.11328 0.438425 0
M  V30 5802 N 538.028 1.39524 0.732853 0
M  V30 5803 C 538.976 1.38563 1.86824 0
M  V30 5804 C 539.97 0.268467 1.67259 0
M  V30 5805 O 541.176 0.438613 1.74574 0
M  V30 5806 H 537.551 0.432737 0.615014 0
M  V30 5807 H 539.522 2.34328 1.84751 0
M  V30 5808 C 538.271 1.2481 3.24527 0
M  V30 5809 H 537.594 2.10044 3.40179 0
M  V30 5810 H 539.034 1.28194 4.04156 0
M  V30 5811 C 537.493 -0.0432825 3.36872 0
M  V30 5812 O 538.023 -1.01268 3.88726 0
M  V30 5813 N 536.229 -0.107055 2.90403 0
M  V30 5814 H 535.776 0.682512 2.48394 0
M  V30 5815 H 535.734 -0.970618 2.99042 0
M  V30 5816 N 539.506 -0.963266 1.24736 0
M  V30 5817 C 540.436 -2.07628 1.06832 0
M  V30 5818 C 541.417 -1.70088 -0.0200566 0
M  V30 5819 O 542.602 -1.93636 0.147854 0
M  V30 5820 C 539.732 -3.40636 0.677069 0
M  V30 5821 C 538.686 -3.9215 1.71471 0
M  V30 5822 C 538.012 -5.21553 1.1784 0
M  V30 5823 C 539.312 -4.19493 3.11164 0
M  V30 5824 H 541.006 -2.22864 1.9993 0
M  V30 5825 H 538.552 -1.07093 0.96266 0
M  V30 5826 H 540.505 -4.17941 0.538792 0
M  V30 5827 H 539.229 -3.25313 -0.289612 0
M  V30 5828 H 537.888 -3.17005 1.84128 0
M  V30 5829 H 537.536 -5.02593 0.202195 0
M  V30 5830 H 537.236 -5.56988 1.87185 0
M  V30 5831 H 538.76 -6.01463 1.05233 0
M  V30 5832 H 540.174 -4.87487 3.01711 0
M  V30 5833 H 538.571 -4.66165 3.77902 0
M  V30 5834 H 539.641 -3.26097 3.58871 0
M  V30 5835 N 540.985 -1.06182 -1.16461 0
M  V30 5836 C 542.262 -0.691364 -1.82974 0
M  V30 5837 C 542.642 0.827377 -1.9421 0
M  V30 5838 O 541.99 1.73723 -1.48434 0
M  V30 5839 C 542.2 -1.39199 -3.20038 0
M  V30 5840 C 543.548 -1.53647 -3.95825 0
M  V30 5841 O 544.572 -1.35181 -3.29552 0
M  V30 5842 O 543.431 -1.83932 -5.14618 0
M  V30 5843 H 540.525 -0.244605 -0.789998 0
M  V30 5844 H 543.071 -1.16203 -1.23673 0
M  V30 5845 H 541.843 -2.42766 -3.06888 0
M  V30 5846 H 541.466 -0.911335 -3.87015 0
M  V30 5847 N 542.463 1.3308 -0.844243 0
M  V30 5848 C 543.426 2.27403 -0.286485 0
M  V30 5849 C 544.426 1.51179 0.547872 0
M  V30 5850 O 545.616 1.70421 0.360886 0
M  V30 5851 C 542.748 3.35653 0.595813 0
M  V30 5852 H 543.941 2.78248 -1.11885 0
M  V30 5853 H 541.494 1.43574 -0.617749 0
M  V30 5854 H 542.229 2.90058 1.4504 0
M  V30 5855 H 542.014 3.921 -0.00125994 0
M  V30 5856 H 543.504 4.05958 0.979168 0
M  V30 5857 N 543.941 0.601185 1.45683 0
M  V30 5858 C 545.188 0.0938811 2.02282 0
M  V30 5859 C 545.516 -1.27315 1.47041 0
M  V30 5860 O 544.771 -1.85193 0.632623 0
M  V30 5861 C 545.07 -0.00222425 3.574 0
M  V30 5862 C 544.736 1.29963 4.31764 0
M  V30 5863 C 543.398 1.65625 4.51798 0
M  V30 5864 C 545.75 2.1603 4.74321 0
M  V30 5865 C 543.078 2.87119 5.11644 0
M  V30 5866 C 545.43 3.36766 5.3551 0
M  V30 5867 C 544.094 3.72689 5.53768 0
M  V30 5868 H 543.364 0.0343535 0.740203 0
M  V30 5869 H 546.011 0.781522 1.74827 0
M  V30 5870 H 544.316 -0.773096 3.84097 0
M  V30 5871 H 546.013 -0.410794 3.9889 0
M  V30 5872 H 542.603 1.01204 4.1648 0
M  V30 5873 H 546.787 1.89778 4.58582 0
M  V30 5874 H 542.043 3.15065 5.2397 0
M  V30 5875 H 546.217 4.03713 5.67441 0
M  V30 5876 H 543.844 4.66918 5.99909 0
M  V30 5877 N 545.419 -1.53889 0.339982 0
M  V30 5878 C 546.667 -2.00458 -0.257112 0
M  V30 5879 C 546.988 -1.22953 -1.51353 0
M  V30 5880 O 546.258 -0.335734 -1.93002 0
M  V30 5881 H 544.838 -0.740544 -0.0979965 0
M  V30 5882 H 547.5 -1.89386 0.460317 0
M  V30 5883 H 546.596 -3.08035 -0.502057 0
M  V30 5884 N 546.897 -0.0685191 -1.57451 0
M  V30 5885 C 548.146 0.600898 -1.92541 0
M  V30 5886 C 548.459 1.70967 -0.950239 0
M  V30 5887 O 549.665 2.43844 -1.19384 0
M  V30 5888 C 548.121 1.12019 -3.42023 0
M  V30 5889 C 547.729 0.0426028 -4.4798 0
M  V30 5890 C 549.473 1.76386 -3.86119 0
M  V30 5891 C 547.38 0.575759 -5.88591 0
M  V30 5892 H 546.31 0.228225 -0.71863 0
M  V30 5893 H 548.961 -0.140223 -1.82963 0
M  V30 5894 H 547.343 1.91418 -3.46663 0
M  V30 5895 H 548.517 -0.73182 -4.54952 0
M  V30 5896 H 546.832 -0.504642 -4.13331 0
M  V30 5897 H 549.429 2.17302 -4.88553 0
M  V30 5898 H 549.772 2.62255 -3.23308 0
M  V30 5899 H 550.305 1.03615 -3.84069 0
M  V30 5900 H 547.044 -0.245691 -6.55039 0
M  V30 5901 H 546.564 1.31778 -5.85145 0
M  V30 5902 H 548.243 1.0532 -6.3837 0
M  V30 5903 N 548.375 1.56261 0.205012 0
M  V30 5904 C 549.308 1.88797 1.28183 0
M  V30 5905 C 550.286 0.747018 1.44424 0
M  V30 5906 O 551.47 0.997039 1.59973 0
M  V30 5907 C 548.597 2.10949 2.64987 0
M  V30 5908 C 547.643 3.33649 2.6567 0
M  V30 5909 S 548.476 4.89078 2.18088 0
M  V30 5910 C 549.632 5.14286 3.56736 0
M  V30 5911 H 549.865 2.79837 1.00393 0
M  V30 5912 H 547.398 1.48911 0.408042 0
M  V30 5913 H 549.356 2.24395 3.4374 0
M  V30 5914 H 548.017 1.20678 2.89993 0
M  V30 5915 H 547.21 3.46245 3.66239 0
M  V30 5916 H 546.812 3.19146 1.94992 0
M  V30 5917 H 549.104 5.04198 4.52537 0
M  V30 5918 H 550.047 6.16096 3.49043 0
M  V30 5919 H 550.455 4.41957 3.51189 0
M  V30 5920 N 549.853 -0.472356 1.50355 0
M  V30 5921 C 551.13 -1.23356 1.51798 0
M  V30 5922 C 551.51 -2.09469 0.26193 0
M  V30 5923 O 550.858 -2.15677 -0.754691 0
M  V30 5924 C 551.068 -2.06568 2.81302 0
M  V30 5925 C 552.416 -2.648 3.31913 0
M  V30 5926 O 553.44 -2.16812 2.82614 0
M  V30 5927 O 552.299 -3.52231 4.17846 0
M  V30 5928 H 549.393 -0.559707 0.608816 0
M  V30 5929 H 551.939 -0.48428 1.62643 0
M  V30 5930 H 550.711 -1.43103 3.64194 0
M  V30 5931 H 550.334 -2.88633 2.73454 0
M  V30 5932 N 551.331 -1.39911 -0.725443 0
M  V30 5933 C 552.561 -1.40744 -1.51244 0
M  V30 5934 C 552.969 -0.00275403 -1.892 0
M  V30 5935 O 552.312 0.981299 -1.55294 0
M  V30 5936 C 552.374 -2.22527 -2.82351 0
M  V30 5937 C 552.038 -3.71053 -2.66774 0
M  V30 5938 C 553.035 -4.63916 -2.34686 0
M  V30 5939 C 550.72 -4.14753 -2.83347 0
M  V30 5940 C 552.714 -5.98463 -2.19366 0
M  V30 5941 C 550.401 -5.49372 -2.67644 0
M  V30 5942 C 551.399 -6.41042 -2.357 0
M  V30 5943 O 551.087 -7.73181 -2.20107 0
M  V30 5944 H 550.819 -0.482314 -0.473655 0
M  V30 5945 H 553.373 -1.84472 -0.903284 0
M  V30 5946 H 551.603 -1.73563 -3.45562 0
M  V30 5947 H 553.292 -2.15421 -3.44018 0
M  V30 5948 H 554.058 -4.31453 -2.21525 0
M  V30 5949 H 549.937 -3.43728 -3.072 0
M  V30 5950 H 553.481 -6.69979 -1.94354 0
M  V30 5951 H 549.378 -5.81424 -2.80387 0
M  V30 5952 H 550.146 -7.84008 -2.35103 0
M  V30 5953 N 552.809 0.956637 -1.25245 0
M  V30 5954 C 554.037 1.73571 -1.12608 0
M  V30 5955 C 554.452 1.86063 0.320324 0
M  V30 5956 O 553.809 1.35691 1.22042 0
M  V30 5957 C 553.86 3.15053 -1.77268 0
M  V30 5958 O 553.581 3.03174 -3.16255 0
M  V30 5959 C 555.082 4.09248 -1.70386 0
M  V30 5960 H 552.302 0.543955 -0.392879 0
M  V30 5961 H 554.846 1.20031 -1.65568 0
M  V30 5962 H 553.001 3.65543 -1.28284 0
M  V30 5963 H 553.415 3.9241 -3.48015 0
M  V30 5964 H 554.889 5.06138 -2.20291 0
M  V30 5965 H 555.366 4.34102 -0.667239 0
M  V30 5966 H 555.972 3.64672 -2.18849 0
M  V30 5967 N 554.287 1.06798 1.15896 0
M  V30 5968 C 555.217 0.704677 2.22613 0
M  V30 5969 C 556.198 -0.305252 1.67339 0
M  V30 5970 O 557.383 -0.179247 1.93371 0
M  V30 5971 C 554.513 0.0957325 3.47168 0
M  V30 5972 C 553.467 1.0322 4.15367 0
M  V30 5973 C 552.793 0.286293 5.33933 0
M  V30 5974 C 554.093 2.36341 4.65768 0
M  V30 5975 H 555.787 1.59688 2.53259 0
M  V30 5976 H 553.333 0.769257 1.21731 0
M  V30 5977 H 555.286 -0.170333 4.21056 0
M  V30 5978 H 554.01 -0.831516 3.15838 0
M  V30 5979 H 552.669 1.28309 3.43413 0
M  V30 5980 H 552.317 -0.644237 4.98857 0
M  V30 5981 H 552.017 0.910436 5.80504 0
M  V30 5982 H 553.541 0.0278938 6.10594 0
M  V30 5983 H 554.955 2.1561 5.31211 0
M  V30 5984 H 553.352 2.94299 5.2298 0
M  V30 5985 H 554.422 2.99047 3.81705 0
M  V30 5986 N 555.766 -1.3263 0.851289 0
M  V30 5987 C 556.994 -2.01563 0.466899 0
M  V30 5988 C 557.409 -1.63996 -0.935447 0
M  V30 5989 O 556.766 -0.85957 -1.6099 0
M  V30 5990 C 556.817 -3.56613 0.592433 0
M  V30 5991 O 556.538 -3.92828 1.93954 0
M  V30 5992 C 558.039 -4.42818 0.206612 0
M  V30 5993 H 555.259 -0.645307 0.183902 0
M  V30 5994 H 557.803 -1.69285 1.1473 0
M  V30 5995 H 555.958 -3.87379 -0.0401936 0
M  V30 5996 H 556.372 -4.87545 1.9339 0
M  V30 5997 H 557.846 -5.50918 0.345462 0
M  V30 5998 H 558.323 -4.30844 -0.85264 0
M  V30 5999 H 558.929 -4.17434 0.814176 0
M  V30 6000 N 557.244 -0.608902 -1.45362 0
M  V30 6001 C 558.492 -0.104401 -2.0183 0
M  V30 6002 C 558.813 1.27007 -1.47967 0
M  V30 6003 O 558.083 1.83924 -0.674455 0
M  V30 6004 H 556.663 -0.0356042 -0.746151 0
M  V30 6005 H 559.325 -0.790596 -1.78145 0
M  V30 6006 H 558.421 -0.0551793 -3.12051 0
M  V30 6007 N 558.722 1.53707 -0.348139 0
M  V30 6008 C 559.669 2.25173 0.506518 0
M  V30 6009 C 560.639 1.25174 1.09182 0
M  V30 6010 O 561.824 1.53917 1.12757 0
M  V30 6011 C 558.964 3.03141 1.64923 0
M  V30 6012 C 558.077 4.18002 1.0908 0
M  V30 6013 C 557.212 4.83447 2.20119 0
M  V30 6014 C 556.251 5.90369 1.61651 0
M  V30 6015 N 555.388 6.49575 2.66451 0
M  V30 6016 H 560.228 2.97799 -0.109452 0
M  V30 6017 H 557.765 1.46953 -0.0657866 0
M  V30 6018 H 559.723 3.46607 2.32205 0
M  V30 6019 H 558.353 2.32803 2.23612 0
M  V30 6020 H 557.405 3.79145 0.308783 0
M  V30 6021 H 558.717 4.94892 0.623178 0
M  V30 6022 H 557.871 5.30008 2.95257 0
M  V30 6023 H 556.61 4.05991 2.70227 0
M  V30 6024 H 555.615 5.43186 0.850209 0
M  V30 6025 H 556.84 6.69735 1.1239 0
M  V30 6026 H 554.786 5.74981 3.15805 0
M  V30 6027 H 554.703 7.21952 2.24325 0
M  V30 6028 H 555.971 7.00789 3.41344 0
M  V30 6029 N 560.2 0.0768682 1.57412 0
M  V30 6030 C 561.446 -0.591961 1.93968 0
M  V30 6031 C 561.779 -1.68954 0.9575 0
M  V30 6032 O 561.054 -1.94496 -0.0124675 0
M  V30 6033 C 561.337 -1.16418 3.40762 0
M  V30 6034 C 561.19 -0.0728933 4.49741 0
M  V30 6035 C 562.509 -2.06814 3.88479 0
M  V30 6036 H 559.628 -0.213716 0.705333 0
M  V30 6037 H 562.27 0.14387 1.89455 0
M  V30 6038 H 560.42 -1.79128 3.4474 0
M  V30 6039 H 562.092 0.560446 4.57883 0
M  V30 6040 H 560.335 0.595859 4.29688 0
M  V30 6041 H 561.006 -0.513755 5.49604 0
M  V30 6042 H 563.482 -1.54033 3.8654 0
M  V30 6043 H 562.358 -2.43785 4.91793 0
M  V30 6044 H 562.619 -2.97844 3.26713 0
M  V30 6045 N 561.678 -1.56367 -0.196722 0
M  V30 6046 C 562.588 -1.97617 -1.2643 0
M  V30 6047 C 563.604 -0.883598 -1.49895 0
M  V30 6048 O 564.78 -1.18921 -1.62541 0
M  V30 6049 C 561.845 -2.30595 -2.58895 0
M  V30 6050 C 560.906 -3.53551 -2.43516 0
M  V30 6051 C 560.139 -3.84946 -3.69665 0
M  V30 6052 O 560.362 -3.17655 -4.73763 0
M  V30 6053 O 559.296 -4.78379 -3.65291 0
M  V30 6054 H 563.122 -2.88648 -0.944233 0
M  V30 6055 H 560.707 -1.43901 -0.401592 0
M  V30 6056 H 562.589 -2.52889 -3.37083 0
M  V30 6057 H 561.264 -1.42732 -2.90533 0
M  V30 6058 H 560.171 -3.36507 -1.63445 0
M  V30 6059 H 561.504 -4.41875 -2.16812 0
M  V30 6060 N 563.156 0.464375 -1.50603 0
M  V30 6061 C 564.433 1.22549 -1.5245 0
M  V30 6062 C 564.813 2.09327 -0.273035 0
M  V30 6063 O 564.161 2.16074 0.743242 0
M  V30 6064 C 564.371 2.05074 -2.82393 0
M  V30 6065 C 565.719 2.63036 -3.33313 0
M  V30 6066 O 566.743 2.1531 -2.8376 0
M  V30 6067 O 565.602 3.5001 -4.19709 0
M  V30 6068 H 562.696 0.556471 -0.611775 0
M  V30 6069 H 565.242 0.475648 -1.62898 0
M  V30 6070 H 564.014 1.41169 -3.64948 0
M  V30 6071 H 563.637 2.87179 -2.7498 0
M  V30 6072 N 564.634 1.40294 0.718013 0
M  V30 6073 C 565.582 1.40536 1.85344 0
M  V30 6074 C 566.576 0.286192 1.66965 0
M  V30 6075 O 567.782 0.457105 1.74099 0
M  V30 6076 H 564.157 0.439236 0.61039 0
M  V30 6077 H 566.128 2.36275 1.82255 0
M  V30 6078 C 564.877 1.28245 3.23185 0
M  V30 6079 H 564.2 2.1364 3.37932 0
M  V30 6080 H 565.64 1.32474 4.02774 0
M  V30 6081 C 564.099 -0.0075503 3.36899 0
M  V30 6082 O 564.629 -0.971391 3.89778 0
M  V30 6083 N 562.835 -0.0762479 2.905 0
M  V30 6084 H 562.382 0.708819 2.47656 0
M  V30 6085 H 562.34 -0.938846 3.00055 0
M  V30 6086 N 566.112 -0.949982 1.2575 0
M  V30 6087 C 567.062 -2.03297 1.03221 0
M  V30 6088 C 568.046 -1.60867 -0.0324751 0
M  V30 6089 O 569.238 -1.76047 0.183423 0
M  V30 6090 C 566.367 -3.36938 0.657841 0
M  V30 6091 C 565.453 -3.85878 1.75952 0
M  V30 6092 N 565.844 -4.0756 2.99547 0
M  V30 6093 C 564.142 -4.14709 1.64111 0
M  V30 6094 C 564.843 -4.47961 3.71087 0
M  V30 6095 N 563.819 -4.5416 2.98731 0
M  V30 6096 H 567.621 -2.1806 1.97045 0
M  V30 6097 H 565.135 -1.13516 1.16138 0
M  V30 6098 H 567.132 -4.14155 0.477614 0
M  V30 6099 H 565.792 -3.2355 -0.273025 0
M  V30 6100 H 566.803 -3.94501 3.35544 0
M  V30 6101 H 563.48 -4.10158 0.779527 0
M  V30 6102 H 564.87 -4.73002 4.77199 0
M  V30 6103 N 567.59 -1.07411 -1.15328 0
M  V30 6104 C 568.867 -0.710732 -1.82231 0
M  V30 6105 C 569.247 0.806732 -1.95077 0
M  V30 6106 O 568.595 1.72139 -1.50268 0
M  V30 6107 C 568.805 -1.42586 -3.18544 0
M  V30 6108 C 570.153 -1.57836 -3.94174 0
M  V30 6109 O 571.177 -1.38669 -3.281 0
M  V30 6110 O 570.036 -1.8938 -5.12638 0
M  V30 6111 H 567.13 -0.25297 -0.78736 0
M  V30 6112 H 569.676 -1.17508 -1.22434 0
M  V30 6113 H 568.448 -2.46008 -3.04296 0
M  V30 6114 H 568.071 -0.952332 -3.86026 0
M  V30 6115 N 569.068 1.32177 -0.85831 0
M  V30 6116 C 570.345 1.91781 -0.384624 0
M  V30 6117 C 570.725 1.78171 1.13217 0
M  V30 6118 O 570.073 1.18209 1.95548 0
M  V30 6119 C 570.283 3.38414 -0.853047 0
M  V30 6120 C 571.631 4.15542 -0.872359 0
M  V30 6121 O 572.655 3.47148 -0.797926 0
M  V30 6122 O 571.514 5.37678 -0.978009 0
M  V30 6123 H 568.608 0.819259 -0.112886 0
M  V30 6124 H 571.154 1.40923 -0.945453 0
M  V30 6125 H 569.926 3.4228 -1.89632 0
M  V30 6126 H 569.549 3.96683 -0.269874 0
M  V30 6127 N 570.547 0.616602 1.45037 0
M  V30 6128 C 571.775 0.121968 2.0654 0
M  V30 6129 C 572.19 -1.19743 1.45969 0
M  V30 6130 O 571.547 -1.73133 0.577168 0
M  V30 6131 C 571.598 -0.0145171 3.61497 0
M  V30 6132 O 571.319 1.25269 4.19809 0
M  V30 6133 C 572.82 -0.539555 4.40004 0
M  V30 6134 H 570.04 0.0729837 0.667019 0
M  V30 6135 H 572.584 0.846891 1.8614 0
M  V30 6136 H 570.739 -0.689809 3.81209 0
M  V30 6137 H 571.153 1.08816 5.13088 0
M  V30 6138 H 572.627 -0.584112 5.48901 0
M  V30 6139 H 573.104 -1.56368 4.10421 0
M  V30 6140 H 573.71 0.101995 4.25178 0
M  V30 6141 N 572.025 -1.5352 0.356285 0
M  V30 6142 C 572.973 -2.26945 -0.50978 0
M  V30 6143 C 573.967 -1.29569 -1.09125 0
M  V30 6144 O 575.173 -1.47231 -1.03552 0
M  V30 6145 H 571.548 -0.729368 -0.183102 0
M  V30 6146 H 573.519 -2.98111 0.131374 0
M  V30 6147 C 572.268 -3.06466 -1.64237 0
M  V30 6148 H 571.591 -3.81233 -1.20423 0
M  V30 6149 H 573.031 -3.61035 -2.22327 0
M  V30 6150 C 571.49 -2.16737 -2.57928 0
M  V30 6151 O 572.02 -1.77195 -3.60507 0
M  V30 6152 N 570.226 -1.81558 -2.26903 0
M  V30 6153 H 569.773 -2.13913 -1.43524 0
M  V30 6154 H 569.731 -1.21806 -2.89846 0
M  V30 6155 N 573.503 -0.0852151 -1.57369 0
M  V30 6156 C 574.919 0.271436 -1.57275 0
M  V30 6157 C 575.119 1.69109 -1.09565 0
M  V30 6158 O 574.175 2.40549 -0.767611 0
M  V30 6159 C 575.488 0.0688638 -3.00621 0
M  V30 6160 C 577.036 0.137373 -3.12698 0
M  V30 6161 C 577.511 -0.0370832 -4.57985 0
M  V30 6162 N 579.002 0.0180794 -4.63196 0
M  V30 6163 C 579.737 -0.0922953 -5.73326 0
M  V30 6164 N 579.233 -0.256948 -6.92323 0
M  V30 6165 N 581.026 -0.0342702 -5.6209 0
M  V30 6166 H 573.177 -1.01288 -1.86693 0
M  V30 6167 H 575.44 -0.396138 -0.861266 0
M  V30 6168 H 575.146 -0.911277 -3.39689 0
M  V30 6169 H 575.02 0.815442 -3.6828 0
M  V30 6170 H 577.407 1.10801 -2.73509 0
M  V30 6171 H 577.488 -0.640532 -2.47651 0
M  V30 6172 H 577.132 -1.00455 -4.97867 0
M  V30 6173 H 577.062 0.760392 -5.21081 0
M  V30 6174 H 579.553 0.143202 -3.77629 0
M  V30 6175 H 579.866 -0.332949 -7.72082 0
M  V30 6176 H 578.211 -0.292487 -6.94384 0
M  V30 6177 H 581.402 0.0931605 -4.68007 0
M  V30 6178 H 581.575 -0.12374 -6.47882 0
M  V30 6179 N 574.981 1.5647 0.188427 0
M  V30 6180 C 576.23 1.80207 0.905995 0
M  V30 6181 C 576.543 0.659579 1.84144 0
M  V30 6182 O 577.749 0.781431 2.60011 0
M  V30 6183 C 576.205 3.19255 1.66145 0
M  V30 6184 C 575.813 4.41324 0.770504 0
M  V30 6185 C 577.557 3.52298 2.36826 0
M  V30 6186 C 575.464 5.71394 1.52521 0
M  V30 6187 H 574.394 0.671953 0.342045 0
M  V30 6188 H 577.045 1.82808 0.159164 0
M  V30 6189 H 575.427 3.10922 2.45242 0
M  V30 6190 H 576.601 4.60797 0.0177261 0
M  V30 6191 H 574.916 4.16035 0.174199 0
M  V30 6192 H 577.513 4.46715 2.93854 0
M  V30 6193 H 577.856 2.76359 3.11338 0
M  V30 6194 H 578.389 3.62108 1.6469 0
M  V30 6195 H 575.128 6.50316 0.82275 0
M  V30 6196 H 574.648 5.55928 2.25175 0
M  V30 6197 H 576.327 6.12747 2.07725 0
M  V30 6198 N 576.459 -0.456382 1.50847 0
M  V30 6199 C 577.708 -1.2042 1.61808 0
M  V30 6200 C 578.021 -1.9278 0.330932 0
M  V30 6201 O 579.227 -2.69612 0.319643 0
M  V30 6202 C 577.683 -2.18891 2.85683 0
M  V30 6203 C 577.291 -1.52267 4.2133 0
M  V30 6204 C 579.035 -2.94224 3.05994 0
M  V30 6205 C 576.942 -2.4911 5.36375 0
M  V30 6206 H 575.872 -0.453177 0.602616 0
M  V30 6207 H 578.523 -0.473144 1.77295 0
M  V30 6208 H 576.905 -2.95351 2.63787 0
M  V30 6209 H 578.079 -0.814949 4.53536 0
M  V30 6210 H 576.394 -0.891594 4.06743 0
M  V30 6211 H 578.991 -3.66732 3.89117 0
M  V30 6212 H 579.334 -3.54469 2.18306 0
M  V30 6213 H 579.867 -2.24874 3.28141 0
M  V30 6214 H 576.606 -1.93582 6.26264 0
M  V30 6215 H 576.126 -3.17991 5.08569 0
M  V30 6216 H 577.805 -3.10637 5.67551 0
M  V30 6217 N 577.937 -1.40673 -0.710563 0
M  V30 6218 C 579.165 -1.42547 -1.4996 0
M  V30 6219 C 579.58 -0.0265485 -1.88781 0
M  V30 6220 O 578.937 0.950694 -1.55782 0
M  V30 6221 C 578.988 -2.32071 -2.77173 0
M  V30 6222 O 578.709 -3.66518 -2.39992 0
M  V30 6223 C 580.21 -2.42591 -3.71032 0
M  V30 6224 H 577.43 -0.486025 -0.462623 0
M  V30 6225 H 579.974 -1.84783 -0.876102 0
M  V30 6226 H 578.129 -1.93184 -3.35795 0
M  V30 6227 H 578.543 -4.14115 -3.21884 0
M  V30 6228 H 580.017 -3.09429 -4.57119 0
M  V30 6229 H 580.494 -1.4525 -4.14486 0
M  V30 6230 H 581.1 -2.82051 -3.18319 0
M  V30 6231 N 579.415 0.9433 -1.26252 0
M  V30 6232 C 580.661 1.69175 -1.11837 0
M  V30 6233 C 580.994 1.91238 0.337891 0
M  V30 6234 O 580.269 1.49152 1.24836 0
M  V30 6235 C 580.552 3.06783 -1.88563 0
M  V30 6236 C 580.405 2.9206 -3.42083 0
M  V30 6237 C 581.724 4.06865 -1.67776 0
M  V30 6238 H 578.843 0.61399 -0.407658 0
M  V30 6239 H 581.485 1.09572 -1.55222 0
M  V30 6240 H 579.635 3.57663 -1.51689 0
M  V30 6241 H 581.307 2.48419 -3.88698 0
M  V30 6242 H 579.55 2.27731 -3.69217 0
M  V30 6243 H 580.221 3.89651 -3.90994 0
M  V30 6244 H 582.697 3.64939 -1.99897 0
M  V30 6245 H 581.573 5.01168 -2.23879 0
M  V30 6246 H 581.834 4.37705 -0.621816 0
M  V30 6247 N 580.893 1.08022 1.14757 0
M  V30 6248 C 582.123 0.827646 1.89298 0
M  V30 6249 C 582.531 -0.623506 1.78631 0
M  V30 6250 O 581.874 -1.43991 1.14071 0
M  V30 6251 C 581.936 1.16553 3.40082 0
M  V30 6252 C 581.6 2.61866 3.74533 0
M  V30 6253 C 582.597 3.60116 3.74984 0
M  V30 6254 C 580.282 2.97619 4.04633 0
M  V30 6255 C 582.276 4.92151 4.05051 0
M  V30 6256 C 579.963 4.2985 4.34364 0
M  V30 6257 C 580.961 5.26926 4.34555 0
M  V30 6258 O 580.649 6.5678 4.63568 0
M  V30 6259 H 580.381 0.298396 0.606577 0
M  V30 6260 H 582.935 1.44187 1.46285 0
M  V30 6261 H 581.165 0.494296 3.83528 0
M  V30 6262 H 582.854 0.894407 3.95923 0
M  V30 6263 H 583.62 3.33837 3.51821 0
M  V30 6264 H 579.499 2.22702 4.03639 0
M  V30 6265 H 583.043 5.67915 4.05115 0
M  V30 6266 H 578.94 4.55879 4.56995 0
M  V30 6267 H 579.708 6.62035 4.81303 0
M  V30 6268 N 582.371 -1.3172 0.865308 0
M  V30 6269 C 583.304 -2.26687 0.262376 0
M  V30 6270 C 584.282 -1.50894 -0.605787 0
M  V30 6271 O 585.466 -1.79982 -0.56024 0
M  V30 6272 C 582.593 -3.3281 -0.628915 0
M  V30 6273 C 581.639 -4.26172 0.167278 0
M  V30 6274 S 582.472 -5.12797 1.54272 0
M  V30 6275 C 583.628 -6.22438 0.657427 0
M  V30 6276 H 583.861 -2.77478 1.0674 0
M  V30 6277 H 581.394 -1.39414 0.663555 0
M  V30 6278 H 583.352 -3.94426 -1.13747 0
M  V30 6279 H 582.013 -2.80782 -1.40785 0
M  V30 6280 H 581.206 -5.01392 -0.51203 0
M  V30 6281 H 580.808 -3.69029 0.607777 0
M  V30 6282 H 583.1 -6.77368 -0.133925 0
M  V30 6283 H 584.043 -6.9451 1.38061 0
M  V30 6284 H 584.451 -5.64043 0.227044 0
M  V30 6285 N 583.85 -0.624285 -1.44708 0
M  V30 6286 C 585.098 -0.125802 -2.01708 0
M  V30 6287 C 585.418 1.2543 -1.49306 0
M  V30 6288 O 584.689 1.83198 -0.693924 0
M  V30 6289 H 583.269 -0.0435161 -0.745731 0
M  V30 6290 H 585.931 -0.809446 -1.77296 0
M  V30 6291 H 585.027 -0.0882734 -3.11975 0
M  V30 6292 N 585.328 1.53329 -0.364422 0
M  V30 6293 C 586.275 2.25698 0.482607 0
M  V30 6294 C 587.245 1.26325 1.07848 0
M  V30 6295 O 588.43 1.55104 1.11119 0
M  V30 6296 C 585.57 3.04873 1.61699 0
M  V30 6297 C 584.683 4.19135 1.0464 0
M  V30 6298 C 583.818 4.85754 2.14979 0
M  V30 6299 C 582.857 5.9205 1.5538 0
M  V30 6300 N 581.994 6.52365 2.59547 0
M  V30 6301 H 586.834 2.97666 -0.141032 0
M  V30 6302 H 584.371 1.46875 -0.0813692 0
M  V30 6303 H 586.329 3.49051 2.28516 0
M  V30 6304 H 584.959 2.35162 2.2113 0
M  V30 6305 H 584.011 3.79451 0.268553 0
M  V30 6306 H 585.323 4.95525 0.570653 0
M  V30 6307 H 584.477 5.3311 2.89619 0
M  V30 6308 H 583.216 4.08834 2.65906 0
M  V30 6309 H 582.221 5.44058 0.792549 0
M  V30 6310 H 583.446 6.7089 1.0528 0
M  V30 6311 H 581.392 5.78298 3.09689 0
M  V30 6312 H 581.309 7.2429 2.16655 0
M  V30 6313 H 582.577 7.0437 3.33892 0
M  V30 6314 N 586.806 0.0935595 1.57322 0
M  V30 6315 C 588.222 -0.263091 1.57417 0
M  V30 6316 C 588.422 -1.68526 1.1046 0
M  V30 6317 O 587.478 -2.40139 0.780357 0
M  V30 6318 C 588.791 -0.0529201 3.00653 0
M  V30 6319 C 590.339 -0.120788 3.12767 0
M  V30 6320 C 590.814 0.0613707 4.57959 0
M  V30 6321 N 592.305 0.00648534 4.632 0
M  V30 6322 C 593.04 0.122699 5.73269 0
M  V30 6323 N 592.536 0.29366 6.92177 0
M  V30 6324 N 594.329 0.0640787 5.62063 0
M  V30 6325 H 586.48 1.02277 1.86154 0
M  V30 6326 H 588.743 0.4007 0.859153 0
M  V30 6327 H 588.449 0.929279 3.39201 0
M  V30 6328 H 588.323 -0.795899 3.68708 0
M  V30 6329 H 590.71 -1.09349 2.74093 0
M  V30 6330 H 590.791 0.653656 2.47307 0
M  V30 6331 H 590.435 1.03093 4.97327 0
M  V30 6332 H 590.365 -0.732748 5.21477 0
M  V30 6333 H 592.856 -0.123173 3.77699 0
M  V30 6334 H 593.169 0.37389 7.71895 0
M  V30 6335 H 591.514 0.329307 6.94219 0
M  V30 6336 H 594.705 -0.0683396 4.6805 0
M  V30 6337 H 594.878 0.158097 6.47807 0
M  V30 6338 N 588.284 -1.56567 -0.180126 0
M  V30 6339 C 589.695 -1.7126 -0.743422 0
M  V30 6340 C 590.046 -0.70263 -1.83187 0
M  V30 6341 O 589.171 0.137856 -2.1596 0
M  V30 6342 C 589.766 -3.10512 -1.35528 0
M  V30 6343 C 588.325 -3.26919 -1.8655 0
M  V30 6344 C 587.472 -2.67213 -0.741099 0
M  V30 6345 H 590.423 -1.58636 0.0451543 0
M  V30 6346 H 590.444 -3.08673 -2.22489 0
M  V30 6347 H 589.956 -3.83997 -0.562862 0
M  V30 6348 H 588.057 -2.58376 -2.68464 0
M  V30 6349 H 588.17 -4.34574 -2.01699 0
M  V30 6350 H 586.534 -2.26788 -1.15927 0
M  V30 6351 H 587.317 -3.43277 0.0393291 0
M  V30 6352 N 589.762 0.448376 -1.51087 0
M  V30 6353 C 590.672 1.56882 -1.74428 0
M  V30 6354 C 591.688 1.62268 -0.62809 0
M  V30 6355 O 592.864 1.79716 -0.909075 0
M  V30 6356 C 589.929 2.92947 -1.85426 0
M  V30 6357 C 588.99 2.97766 -3.09247 0
M  V30 6358 C 588.223 4.27341 -3.19711 0
M  V30 6359 O 588.446 5.19112 -2.36387 0
M  V30 6360 O 587.38 4.38219 -4.12611 0
M  V30 6361 H 591.206 1.40104 -2.69452 0
M  V30 6362 H 588.791 0.630247 -1.35456 0
M  V30 6363 H 590.673 3.73719 -1.94709 0
M  V30 6364 H 589.348 3.09876 -0.935887 0
M  V30 6365 H 588.255 2.15989 -3.0545 0
M  V30 6366 H 589.588 2.8578 -4.00738 0
M  V30 6367 N 591.24 1.41047 0.703093 0
M  V30 6368 C 592.488 1.39723 1.4602 0
M  V30 6369 C 592.809 0.00461257 1.94999 0
M  V30 6370 O 592.079 -0.952292 1.71196 0
M  V30 6371 H 590.659 0.514281 0.541779 0
M  V30 6372 H 593.321 1.76217 0.832678 0
M  V30 6373 H 592.417 2.07982 2.32701 0
M  V30 6374 N 592.718 -0.936591 1.26751 0
M  V30 6375 C 593.628 -2.06949 1.10496 0
M  V30 6376 C 594.644 -1.7396 0.037271 0
M  V30 6377 O 595.82 -1.99941 0.241944 0
M  V30 6378 C 592.885 -3.38612 0.744491 0
M  V30 6379 C 591.946 -3.85355 1.89209 0
M  V30 6380 C 591.179 -5.10735 1.54873 0
M  V30 6381 O 591.402 -5.68602 0.452546 0
M  V30 6382 O 590.336 -5.52632 2.38499 0
M  V30 6383 H 594.162 -2.23571 2.05547 0
M  V30 6384 H 591.747 -1.05428 1.05855 0
M  V30 6385 H 593.629 -4.17711 0.556396 0
M  V30 6386 H 592.304 -3.23218 -0.176582 0
M  V30 6387 H 591.211 -3.07182 2.13518 0
M  V30 6388 H 592.544 -4.05277 2.79305 0
M  V30 6389 N 594.196 -1.08629 -1.14182 0
M  V30 6390 C 595.144 -0.71284 -2.21408 0
M  V30 6391 C 596.138 0.282457 -1.67029 0
M  V30 6392 O 597.344 0.144783 -1.79417 0
M  V30 6393 H 593.719 -0.212497 -0.721352 0
M  V30 6394 H 595.69 -1.6265 -2.50175 0
M  V30 6395 C 594.439 -0.140704 -3.47415 0
M  V30 6396 H 593.762 -0.897739 -3.8959 0
M  V30 6397 H 595.202 0.0827677 -4.23919 0
M  V30 6398 C 593.661 1.122 -3.17668 0
M  V30 6399 O 594.191 2.20652 -3.35672 0
M  V30 6400 N 592.397 1.03328 -2.71609 0
M  V30 6401 H 591.944 0.150666 -2.57159 0
M  V30 6402 H 591.902 1.8789 -2.52081 0
M  V30 6403 N 595.674 1.31259 -0.872281 0
M  V30 6404 C 596.637 2.26744 -0.334656 0
M  V30 6405 C 597.637 1.52307 0.515681 0
M  V30 6406 O 598.827 1.71148 0.324656 0
M  V30 6407 C 595.959 3.36841 0.524482 0
M  V30 6408 H 597.152 2.75812 -1.17762 0
M  V30 6409 H 594.705 1.42232 -0.648064 0
M  V30 6410 H 595.44 2.93069 1.38855 0
M  V30 6411 H 595.225 3.92009 -0.0844299 0
M  V30 6412 H 596.715 4.07944 0.892838 0
M  V30 6413 N 597.152 0.631951 1.44375 0
M  V30 6414 C 598.377 0.142146 2.06912 0
M  V30 6415 C 598.802 -1.17456 1.4692 0
M  V30 6416 O 598.16 -1.72074 0.570975 0
M  V30 6417 C 598.208 0.0417952 3.60576 0
M  V30 6418 O 597.312 -1.00194 4.00044 0
M  V30 6419 H 596.653 0.0851491 0.658518 0
M  V30 6420 H 599.183 0.868863 1.85235 0
M  V30 6421 H 599.193 -0.148517 4.0773 0
M  V30 6422 H 597.868 1.0031 4.03622 0
M  V30 6423 H 596.445 -0.786131 3.64519 0
M  V30 6424 N 598.631 -1.53133 0.372548 0
M  V30 6425 C 599.861 -2.05476 -0.215202 0
M  V30 6426 C 600.269 -1.24534 -1.42436 0
M  V30 6427 O 599.612 -0.280771 -1.81542 0
M  V30 6428 C 599.674 -3.53276 -0.666068 0
M  V30 6429 C 599.338 -4.54998 0.427342 0
M  V30 6430 C 600.335 -5.03911 1.27944 0
M  V30 6431 C 598.02 -4.98828 0.589579 0
M  V30 6432 C 600.014 -5.95263 2.27905 0
M  V30 6433 C 597.701 -5.89984 1.59255 0
M  V30 6434 C 598.699 -6.38093 2.43571 0
M  V30 6435 O 598.387 -7.27451 3.42156 0
M  V30 6436 H 598.119 -0.67481 -0.040099 0
M  V30 6437 H 600.673 -1.98409 0.531312 0
M  V30 6438 H 598.903 -3.57904 -1.4643 0
M  V30 6439 H 600.592 -3.88442 -1.1776 0
M  V30 6440 H 601.358 -4.70792 1.16532 0
M  V30 6441 H 597.237 -4.60965 -0.0569456 0
M  V30 6442 H 600.781 -6.32736 2.93753 0
M  V30 6443 H 596.678 -6.22518 1.70711 0
M  V30 6444 H 597.446 -7.45467 3.37967 0
M  V30 6445 N 600.109 -0.101901 -1.5727 0
M  V30 6446 C 601.059 0.865346 -2.1094 0
M  V30 6447 C 602.043 1.2394 -1.02605 0
M  V30 6448 O 603.235 1.21334 -1.28868 0
M  V30 6449 C 600.364 2.12187 -2.69874 0
M  V30 6450 C 599.45 1.77295 -3.85263 0
M  V30 6451 N 599.841 1.12993 -4.93017 0
M  V30 6452 C 598.139 2.06862 -3.95126 0
M  V30 6453 C 598.84 0.968631 -5.73579 0
M  V30 6454 N 597.816 1.48814 -5.22834 0
M  V30 6455 H 601.618 0.364368 -2.91633 0
M  V30 6456 H 599.132 0.101104 -1.62085 0
M  V30 6457 H 601.129 2.82431 -3.06657 0
M  V30 6458 H 599.789 2.62844 -1.90639 0
M  V30 6459 H 600.8 0.795935 -5.11747 0
M  V30 6460 H 597.477 2.59686 -3.26909 0
M  V30 6461 H 598.867 0.465231 -6.70287 0
M  V30 6462 N 601.587 1.56661 0.17182 0
M  V30 6463 C 602.517 1.99401 1.21498 0
M  V30 6464 C 603.498 0.869516 1.46197 0
M  V30 6465 O 604.683 1.13556 1.57539 0
M  V30 6466 C 601.813 2.35346 2.55401 0
M  V30 6467 C 600.767 3.5075 2.45272 0
M  V30 6468 C 600.093 3.72437 3.8366 0
M  V30 6469 C 601.393 4.84216 1.95787 0
M  V30 6470 H 603.087 2.86792 0.859699 0
M  V30 6471 H 600.633 1.37977 0.412103 0
M  V30 6472 H 602.586 2.63843 3.2858 0
M  V30 6473 H 601.31 1.44864 2.92715 0
M  V30 6474 H 599.969 3.2238 1.74547 0
M  V30 6475 H 599.617 2.79246 4.18367 0
M  V30 6476 H 599.317 4.50087 3.77751 0
M  V30 6477 H 600.841 4.03334 4.58426 0
M  V30 6478 H 602.255 5.11592 2.5874 0
M  V30 6479 H 600.652 5.65498 2.00827 0
M  V30 6480 H 601.722 4.76243 0.912159 0
M  V30 6481 N 603.065 -0.440357 1.51323 0
M  V30 6482 C 604.028 -1.51679 1.71832 0
M  V30 6483 C 605.028 -1.49648 0.588386 0
M  V30 6484 O 606.218 -1.51724 0.855891 0
M  V30 6485 C 603.35 -2.91228 1.77199 0
M  V30 6486 H 604.543 -1.34799 2.67898 0
M  V30 6487 H 602.096 -0.66883 1.41267 0
M  V30 6488 H 602.831 -3.13516 0.829363 0
M  V30 6489 H 602.616 -2.94107 2.59314 0
M  V30 6490 H 604.106 -3.69321 1.94915 0
M  V30 6491 N 604.543 -1.41418 -0.695603 0
M  V30 6492 C 605.773 -1.43921 -1.48224 0
M  V30 6493 C 606.181 -0.0428855 -1.89151 0
M  V30 6494 O 605.524 0.948138 -1.5734 0
M  V30 6495 C 605.586 -2.28466 -2.77567 0
M  V30 6496 C 605.25 -3.76629 -2.58844 0
M  V30 6497 C 606.247 -4.6879 -2.24793 0
M  V30 6498 C 603.932 -4.2067 -2.74485 0
M  V30 6499 C 605.926 -6.02981 -2.06622 0
M  V30 6500 C 603.613 -5.54926 -2.55931 0
M  V30 6501 C 604.611 -6.45897 -2.2205 0
M  V30 6502 O 604.299 -7.77675 -2.03657 0
M  V30 6503 H 604.031 -0.492252 -0.463318 0
M  V30 6504 H 606.585 -1.86347 -0.863952 0
M  V30 6505 H 604.815 -1.80853 -3.41802 0
M  V30 6506 H 606.504 -2.2267 -3.39371 0
M  V30 6507 H 607.27 -4.36055 -2.12323 0
M  V30 6508 H 603.149 -3.50167 -2.9984 0
M  V30 6509 H 606.693 -6.73951 -1.80099 0
M  V30 6510 H 602.59 -5.8724 -2.67991 0
M  V30 6511 H 603.358 -7.88819 -2.1842 0
M  V30 6512 N 606.021 0.929856 -1.27246 0
M  V30 6513 C 607.298 1.65544 -1.04186 0
M  V30 6514 C 607.678 2.06796 0.424097 0
M  V30 6515 O 607.026 1.80053 1.40688 0
M  V30 6516 C 607.236 2.85912 -2.00138 0
M  V30 6517 C 608.584 3.57305 -2.29387 0
M  V30 6518 O 609.608 2.96036 -1.98094 0
M  V30 6519 O 608.467 4.67688 -2.82719 0
M  V30 6520 H 605.561 0.725473 -0.397011 0
M  V30 6521 H 608.107 0.980583 -1.38501 0
M  V30 6522 H 606.879 2.52403 -2.99013 0
M  V30 6523 H 606.502 3.61118 -1.66371 0
M  V30 6524 N 607.499 1.09233 1.13605 0
M  V30 6525 C 608.446 0.729921 2.18954 0
M  V30 6526 C 609.416 -0.287916 1.63586 0
M  V30 6527 O 610.601 -0.170003 1.90041 0
M  V30 6528 C 607.741 0.154489 3.44754 0
M  V30 6529 C 606.854 1.22613 4.14234 0
M  V30 6530 C 605.989 0.613657 5.27644 0
M  V30 6531 C 605.028 1.66674 5.8897 0
M  V30 6532 N 604.165 1.07545 6.93814 0
M  V30 6533 H 609.005 1.63257 2.49302 0
M  V30 6534 H 606.542 0.815693 1.22413 0
M  V30 6535 H 608.5 -0.196923 4.16735 0
M  V30 6536 H 607.13 -0.711433 3.14863 0
M  V30 6537 H 606.182 1.69485 3.40557 0
M  V30 6538 H 607.494 2.0238 4.55899 0
M  V30 6539 H 606.648 0.210976 6.06333 0
M  V30 6540 H 605.387 -0.215584 4.87223 0
M  V30 6541 H 604.392 2.07899 5.08978 0
M  V30 6542 H 605.617 2.49861 6.31464 0
M  V30 6543 H 603.563 0.267451 6.55455 0
M  V30 6544 H 603.48 1.81011 7.3401 0
M  V30 6545 H 604.748 0.698906 7.7636 0
M  V30 6546 N 608.977 -1.30795 0.87923 0
M  V30 6547 C 610.254 -1.91145 0.415086 0
M  V30 6548 C 610.634 -1.7995 -1.10368 0
M  V30 6549 O 609.982 -1.21305 -1.93642 0
M  V30 6550 C 610.192 -3.37014 0.906778 0
M  V30 6551 C 611.54 -4.14101 0.938358 0
M  V30 6552 O 612.564 -3.45834 0.853053 0
M  V30 6553 O 611.423 -5.36054 1.06342 0
M  V30 6554 H 608.517 -0.81736 0.125905 0
M  V30 6555 H 611.063 -1.39401 0.967753 0
M  V30 6556 H 609.835 -3.3922 1.95053 0
M  V30 6557 H 609.458 -3.96204 0.332948 0
M  V30 6558 N 610.455 -0.639598 -1.44038 0
M  V30 6559 C 611.871 -0.305953 -1.5664 0
M  V30 6560 C 612.071 1.19055 -1.62567 0
M  V30 6561 O 611.127 1.97492 -1.57331 0
M  V30 6562 C 612.44 -1.00533 -2.83397 0
M  V30 6563 C 613.988 -0.984278 -2.97121 0
M  V30 6564 C 614.463 -1.66428 -4.26691 0
M  V30 6565 N 615.954 -1.63127 -4.33525 0
M  V30 6566 C 616.689 -2.12629 -5.32519 0
M  V30 6567 N 616.185 -2.70359 -6.3787 0
M  V30 6568 N 617.978 -2.03208 -5.24083 0
M  V30 6569 H 610.129 -1.6109 -1.38434 0
M  V30 6570 H 612.392 -0.676672 -0.663942 0
M  V30 6571 H 612.098 -2.06034 -2.85032 0
M  V30 6572 H 611.972 -0.548362 -3.73193 0
M  V30 6573 H 614.359 0.0622792 -2.95034 0
M  V30 6574 H 614.44 -1.47981 -2.08651 0
M  V30 6575 H 614.084 -2.71034 -4.29538 0
M  V30 6576 H 614.014 -1.14351 -5.14034 0
M  V30 6577 H 616.505 -1.20987 -3.58009 0
M  V30 6578 H 616.818 -3.05842 -7.09704 0
M  V30 6579 H 615.163 -2.74414 -6.38531 0
M  V30 6580 H 618.354 -1.57823 -4.40692 0
M  V30 6581 H 618.527 -2.42097 -6.01077 0
M  V30 6582 N 611.933 1.52934 -0.380664 0
M  V30 6583 C 613.163 2.05587 0.204302 0
M  V30 6584 C 613.571 1.25288 1.41773 0
M  V30 6585 O 612.914 0.290394 1.8139 0
M  V30 6586 C 612.976 3.53624 0.647324 0
M  V30 6587 C 612.64 4.54765 -0.451465 0
M  V30 6588 C 613.637 5.03226 -1.30614 0
M  V30 6589 C 611.322 4.98508 -0.616025 0
M  V30 6590 C 613.316 5.94046 -2.31058 0
M  V30 6591 C 611.003 5.89131 -1.62381 0
M  V30 6592 C 612.001 6.36792 -2.46952 0
M  V30 6593 O 611.689 7.25626 -3.46009 0
M  V30 6594 H 611.421 0.675013 0.0365198 0
M  V30 6595 H 613.975 1.98125 -0.541827 0
M  V30 6596 H 612.205 3.58676 1.44529 0
M  V30 6597 H 613.894 3.89061 1.15698 0
M  V30 6598 H 614.66 4.70167 -1.19027 0
M  V30 6599 H 610.539 4.60989 0.0324987 0
M  V30 6600 H 614.083 6.3117 -2.97104 0
M  V30 6601 H 609.98 6.21603 -1.7401 0
M  V30 6602 H 610.748 7.43664 -3.41916 0
M  V30 6603 N 613.412 0.11024 1.57214 0
M  V30 6604 C 614.64 -0.557834 1.99238 0
M  V30 6605 C 615.055 -1.60778 0.989734 0
M  V30 6606 O 614.412 -1.82491 -0.0186092 0
M  V30 6607 C 614.463 -1.19189 3.41286 0
M  V30 6608 O 614.184 -0.183919 4.37714 0
M  V30 6609 C 615.685 -1.94413 3.98395 0
M  V30 6610 H 612.905 -0.148392 0.654386 0
M  V30 6611 H 615.449 0.193996 2.03578 0
M  V30 6612 H 613.604 -1.89456 3.37913 0
M  V30 6613 H 614.018 -0.643475 5.20538 0
M  V30 6614 H 615.492 -2.34116 4.99894 0
M  V30 6615 H 615.969 -2.81592 3.3705 0
M  V30 6616 H 616.575 -1.28928 4.05287 0
M  V30 6617 N 614.89 -1.56749 -0.16351 0
M  V30 6618 C 615.8 -2.00255 -1.2221 0
M  V30 6619 C 616.816 -0.915194 -1.47987 0
M  V30 6620 O 617.992 -1.22342 -1.59982 0
M  V30 6621 C 615.057 -2.36035 -2.53946 0
M  V30 6622 C 614.118 -3.58637 -2.35962 0
M  V30 6623 C 613.351 -3.92701 -3.61416 0
M  V30 6624 O 613.574 -3.27632 -4.66919 0
M  V30 6625 O 612.508 -4.86019 -3.55062 0
M  V30 6626 H 616.334 -2.90586 -0.882794 0
M  V30 6627 H 613.919 -1.44721 -0.370978 0
M  V30 6628 H 615.801 -2.59982 -3.31643 0
M  V30 6629 H 614.476 -1.48863 -2.8744 0
M  V30 6630 H 613.383 -3.39898 -1.5627 0
M  V30 6631 H 614.716 -4.46374 -2.0739 0
M  V30 6632 N 616.368 0.432326 -1.51554 0
M  V30 6633 C 617.278 1.55023 -1.76082 0
M  V30 6634 C 618.294 1.61593 -0.645265 0
M  V30 6635 O 619.47 1.78742 -0.928086 0
M  V30 6636 C 616.535 2.90964 -1.88523 0
M  V30 6637 C 615.596 2.9447 -3.12388 0
M  V30 6638 C 614.829 4.23926 -3.24225 0
M  V30 6639 O 615.052 5.16576 -2.4188 0
M  V30 6640 O 613.986 4.33818 -4.17235 0
M  V30 6641 H 617.812 1.37238 -2.70923 0
M  V30 6642 H 615.397 0.615845 -1.36117 0
M  V30 6643 H 617.279 3.71633 -1.98662 0
M  V30 6644 H 615.954 3.08865 -0.9687 0
M  V30 6645 H 614.861 2.12737 -3.07723 0
M  V30 6646 H 616.194 2.81514 -4.03746 0
M  V30 6647 N 617.846 1.41785 0.688094 0
M  V30 6648 C 618.756 1.46596 1.83158 0
M  V30 6649 C 619.772 0.355862 1.70322 0
M  V30 6650 O 620.948 0.604737 1.92106 0
M  V30 6651 C 618.013 1.35322 3.192 0
M  V30 6652 C 617.074 2.56711 3.4409 0
M  V30 6653 C 616.307 2.45965 4.73642 0
M  V30 6654 O 616.53 1.48827 5.50642 0
M  V30 6655 O 615.464 3.35859 4.99482 0
M  V30 6656 H 619.29 2.43083 1.82056 0
M  V30 6657 H 616.875 1.23404 0.842126 0
M  V30 6658 H 618.757 1.31347 4.00407 0
M  V30 6659 H 617.432 0.419536 3.2097 0
M  V30 6660 H 616.339 2.66262 2.62784 0
M  V30 6661 H 617.672 3.48933 3.47141 0
M  V30 6662 N 619.324 -0.923095 1.27737 0
M  V30 6663 C 620.74 -1.19985 1.05241 0
M  V30 6664 C 620.94 -2.00391 -0.21113 0
M  V30 6665 O 619.996 -2.35324 -0.915366 0
M  V30 6666 C 621.309 -1.94352 2.29451 0
M  V30 6667 C 622.857 -2.07273 2.34536 0
M  V30 6668 C 623.332 -2.85046 3.58487 0
M  V30 6669 N 624.823 -2.92612 3.59072 0
M  V30 6670 C 625.558 -3.53266 4.51654 0
M  V30 6671 N 625.054 -4.15274 5.54545 0
M  V30 6672 N 626.847 -3.50714 4.39268 0
M  V30 6673 H 618.998 -0.386042 2.08862 0
M  V30 6674 H 621.261 -0.233407 0.918817 0
M  V30 6675 H 620.967 -1.42692 3.21453 0
M  V30 6676 H 620.841 -2.94947 2.3513 0
M  V30 6677 H 623.228 -2.58117 1.43037 0
M  V30 6678 H 623.309 -1.05884 2.32857 0
M  V30 6679 H 622.953 -2.34884 4.50324 0
M  V30 6680 H 622.883 -3.8673 3.57418 0
M  V30 6681 H 625.374 -2.48547 2.84663 0
M  V30 6682 H 625.687 -4.59507 6.21348 0
M  V30 6683 H 624.032 -4.13806 5.58382 0
M  V30 6684 H 627.223 -3.01475 3.58093 0
M  V30 6685 H 627.396 -3.97693 5.1161 0
M  V30 6686 N 620.802 -1.09834 -1.13024 0
M  V30 6687 C 621.712 -0.753731 -2.22162 0
M  V30 6688 C 622.728 0.246105 -1.72251 0
M  V30 6689 O 623.904 0.0864051 -2.01215 0
M  V30 6690 C 620.969 -0.183958 -3.46212 0
M  V30 6691 C 620.03 -1.24028 -4.10993 0
M  V30 6692 C 619.263 -0.697597 -5.29121 0
M  V30 6693 O 619.486 0.478092 -5.68393 0
M  V30 6694 O 618.42 -1.4546 -5.84059 0
M  V30 6695 H 622.246 -1.66456 -2.5402 0
M  V30 6696 H 619.831 -0.873026 -1.21238 0
M  V30 6697 H 621.713 0.130257 -4.21199 0
M  V30 6698 H 620.388 0.699823 -3.16045 0
M  V30 6699 H 619.295 -1.60725 -3.37814 0
M  V30 6700 H 620.628 -2.09685 -4.45301 0
M  V30 6701 N 622.28 1.30327 -0.886154 0
M  V30 6702 C 623.526 1.96388 -0.505941 0
M  V30 6703 C 623.859 1.69784 0.942712 0
M  V30 6704 O 623.134 1.00322 1.6663 0
M  V30 6705 C 623.417 3.51488 -0.782826 0
M  V30 6706 C 623.27 3.87603 -2.28219 0
M  V30 6707 C 624.589 4.39331 -0.260128 0
M  V30 6708 H 621.708 0.713327 -0.185292 0
M  V30 6709 H 624.35 1.54178 -1.11036 0
M  V30 6710 H 622.5 3.87572 -0.268399 0
M  V30 6711 H 624.172 3.61537 -2.86512 0
M  V30 6712 H 622.415 3.3563 -2.74837 0
M  V30 6713 H 623.086 4.95806 -2.42653 0
M  V30 6714 H 625.562 4.10162 -0.700444 0
M  V30 6715 H 624.438 5.46769 -0.483179 0
M  V30 6716 H 624.699 4.34072 0.838674 0
M  V30 6717 N 623.758 0.647228 1.43697 0
M  V30 6718 C 624.988 0.16551 2.05936 0
M  V30 6719 C 625.396 -1.17164 1.48557 0
M  V30 6720 O 624.739 -1.73307 0.60914 0
M  V30 6721 C 624.801 -0.00648082 3.59499 0
M  V30 6722 C 624.465 1.25503 4.39429 0
M  V30 6723 C 625.462 2.18241 4.71876 0
M  V30 6724 C 623.147 1.49494 4.79538 0
M  V30 6725 C 625.141 3.33268 5.43333 0
M  V30 6726 C 622.828 2.64815 5.50742 0
M  V30 6727 C 623.826 3.56528 5.82561 0
M  V30 6728 O 623.514 4.69836 6.52311 0
M  V30 6729 H 623.246 0.0844124 0.670709 0
M  V30 6730 H 625.8 0.88638 1.8529 0
M  V30 6731 H 624.03 -0.782661 3.78697 0
M  V30 6732 H 625.719 -0.444794 4.03456 0
M  V30 6733 H 626.485 2.00946 4.41413 0
M  V30 6734 H 622.364 0.789912 4.54182 0
M  V30 6735 H 625.908 4.04874 5.68087 0
M  V30 6736 H 621.805 2.82047 5.8062 0
M  V30 6737 H 622.573 4.69024 6.70789 0
M  V30 6738 N 625.236 -1.5273 0.388769 0
M  V30 6739 C 626.461 -2.0647 -0.19621 0
M  V30 6740 C 626.886 -1.25865 -1.39784 0
M  V30 6741 O 626.244 -0.283562 -1.79069 0
M  V30 6742 C 626.292 -3.56456 -0.5451 0
M  V30 6743 O 625.396 -3.78426 -1.63912 0
M  V30 6744 H 624.737 -0.663599 -0.023067 0
M  V30 6745 H 627.267 -1.96898 0.556084 0
M  V30 6746 H 627.277 -3.99888 -0.809557 0
M  V30 6747 H 625.952 -4.14561 0.333417 0
M  V30 6748 H 624.529 -3.46884 -1.36842 0
M  V30 6749 N 626.714 -0.118576 -1.57153 0
M  V30 6750 C 627.944 0.546466 -1.99242 0
M  V30 6751 C 628.352 1.60791 -0.997148 0
M  V30 6752 O 627.695 1.83691 0.0181745 0
M  V30 6753 C 627.757 1.23167 -3.37743 0
M  V30 6754 C 627.421 0.318226 -4.55891 0
M  V30 6755 C 628.418 -0.442988 -5.18009 0
M  V30 6756 C 626.103 0.229421 -5.01776 0
M  V30 6757 C 628.097 -1.28074 -6.244 0
M  V30 6758 C 625.784 -0.611966 -6.08028 0
M  V30 6759 C 626.782 -1.36568 -6.69207 0
M  V30 6760 O 626.47 -2.1931 -7.73407 0
M  V30 6761 H 626.202 0.149297 -0.659307 0
M  V30 6762 H 628.756 -0.201603 -2.04408 0
M  V30 6763 H 626.986 2.0268 -3.29329 0
M  V30 6764 H 628.675 1.79358 -3.64123 0
M  V30 6765 H 629.441 -0.38425 -4.83475 0
M  V30 6766 H 625.32 0.805771 -4.53903 0
M  V30 6767 H 628.864 -1.86952 -6.72082 0
M  V30 6768 H 624.761 -0.6721 -6.41991 0
M  V30 6769 H 625.529 -2.12247 -7.90502 0
M  V30 6770 N 628.193 1.56834 0.155195 0
M  V30 6771 C 629.123 2.00678 1.19376 0
M  V30 6772 C 630.104 0.884973 1.45266 0
M  V30 6773 O 631.289 1.1522 1.56326 0
M  V30 6774 C 628.419 2.38042 2.5289 0
M  V30 6775 C 627.373 3.53332 2.41538 0
M  V30 6776 C 626.699 3.76485 3.79688 0
M  V30 6777 C 627.999 4.86265 1.9064 0
M  V30 6778 H 629.693 2.87688 0.829232 0
M  V30 6779 H 627.239 1.38407 0.397445 0
M  V30 6780 H 629.192 2.67314 3.25763 0
M  V30 6781 H 627.916 1.4796 2.91162 0
M  V30 6782 H 626.575 3.24213 1.71117 0
M  V30 6783 H 626.223 2.83667 4.15382 0
M  V30 6784 H 625.923 4.54068 3.72956 0
M  V30 6785 H 627.447 4.08174 4.54122 0
M  V30 6786 H 628.861 5.14308 2.53299 0
M  V30 6787 H 627.258 5.67597 1.94818 0
M  V30 6788 H 628.328 4.77184 0.861596 0
M  V30 6789 N 629.671 -0.424282 1.51781 0
M  V30 6790 C 631.087 -0.761768 1.40247 0
M  V30 6791 C 631.287 -1.95324 0.495041 0
M  V30 6792 O 630.343 -2.5246 -0.0448949 0
M  V30 6793 C 631.656 -1.0299 2.82513 0
M  V30 6794 C 633.204 -1.13354 2.91753 0
M  V30 6795 C 633.679 -1.43453 4.34954 0
M  V30 6796 N 635.17 -1.5035 4.3812 0
M  V30 6797 C 635.905 -1.75236 5.45967 0
M  V30 6798 N 635.401 -1.97827 6.63955 0
M  V30 6799 N 637.194 -1.77126 5.33463 0
M  V30 6800 H 629.345 0.360228 2.09323 0
M  V30 6801 H 631.608 0.0988128 0.942836 0
M  V30 6802 H 631.314 -0.226961 3.50967 0
M  V30 6803 H 631.188 -1.95411 3.22637 0
M  V30 6804 H 633.575 -1.92709 2.23489 0
M  V30 6805 H 633.656 -0.188041 2.55108 0
M  V30 6806 H 633.3 -0.646209 5.03772 0
M  V30 6807 H 633.23 -2.3923 4.69123 0
M  V30 6808 H 635.721 -1.34742 3.53062 0
M  V30 6809 H 636.034 -2.16223 7.41935 0
M  V30 6810 H 634.379 -1.95123 6.67047 0
M  V30 6811 H 637.57 -1.59005 4.40267 0
M  V30 6812 H 637.743 -1.96182 6.17589 0
M  V30 6813 N 631.149 -1.42148 -0.680565 0
M  V30 6814 C 632.379 -1.45485 -1.46689 0
M  V30 6815 C 632.787 -0.0629451 -1.89095 0
M  V30 6816 O 632.13 0.931397 -1.58337 0
M  V30 6817 C 632.192 -2.31397 -2.75129 0
M  V30 6818 C 631.856 -3.79353 -2.54834 0
M  V30 6819 C 632.853 -4.71148 -2.19808 0
M  V30 6820 C 630.538 -4.23557 -2.70008 0
M  V30 6821 C 632.532 -6.05139 -2.00215 0
M  V30 6822 C 630.219 -5.57609 -2.50031 0
M  V30 6823 C 631.217 -6.48216 -2.15187 0
M  V30 6824 O 630.905 -7.79792 -1.95397 0
M  V30 6825 H 630.637 -0.497139 -0.458071 0
M  V30 6826 H 633.191 -1.87252 -0.844139 0
M  V30 6827 H 631.421 -1.84468 -3.39865 0
M  V30 6828 H 633.11 -2.26257 -3.36991 0
M  V30 6829 H 633.876 -4.38282 -2.07686 0
M  V30 6830 H 629.755 -3.53327 -2.96109 0
M  V30 6831 H 633.299 -6.75823 -1.72941 0
M  V30 6832 H 629.196 -5.9005 -2.61748 0
M  V30 6833 H 629.964 -7.91091 -2.10042 0
M  V30 6834 N 632.627 0.916307 -1.28225 0
M  V30 6835 C 633.855 1.69901 -1.18073 0
M  V30 6836 C 634.27 1.86988 0.260968 0
M  V30 6837 O 633.627 1.39505 1.17663 0
M  V30 6838 C 633.678 3.09254 -1.87201 0
M  V30 6839 O 633.399 2.92959 -3.2574 0
M  V30 6840 C 634.9 4.0362 -1.83319 0
M  V30 6841 H 632.12 0.531181 -0.409985 0
M  V30 6842 H 634.664 1.14703 -1.69303 0
M  V30 6843 H 632.819 3.61277 -1.39848 0
M  V30 6844 H 633.233 3.81139 -3.60324 0
M  V30 6845 H 634.707 4.98873 -2.36282 0
M  V30 6846 H 635.184 4.3176 -0.805007 0
M  V30 6847 H 635.79 3.57524 -2.3034 0
M  V30 6848 N 634.105 1.10431 1.1244 0
M  V30 6849 C 635.353 0.845045 1.83585 0
M  V30 6850 C 635.674 -0.631168 1.84503 0
M  V30 6851 O 634.944 -1.45825 1.30813 0
M  V30 6852 H 633.524 0.309628 0.679809 0
M  V30 6853 H 636.186 1.39458 1.36153 0
M  V30 6854 H 635.282 1.20786 2.8778 0
M  V30 6855 N 635.583 -1.29855 0.893053 0
M  V30 6856 C 636.811 -1.99976 0.530788 0
M  V30 6857 C 637.226 -1.66889 -0.882799 0
M  V30 6858 O 636.583 -0.910352 -1.58173 0
M  V30 6859 C 636.634 -3.54547 0.705587 0
M  V30 6860 O 636.355 -3.86458 2.06353 0
M  V30 6861 C 637.856 -4.41937 0.347387 0
M  V30 6862 H 635.076 -0.639129 0.204339 0
M  V30 6863 H 637.62 -1.65549 1.20057 0
M  V30 6864 H 635.775 -3.87311 0.0830685 0
M  V30 6865 H 636.189 -4.81146 2.08803 0
M  V30 6866 H 637.663 -5.4954 0.520557 0
M  V30 6867 H 638.14 -4.33339 -0.715139 0
M  V30 6868 H 638.746 -4.14633 0.946567 0
M  V30 6869 N 637.061 -0.65484 -1.43351 0
M  V30 6870 C 638.472 -0.248506 -1.85039 0
M  V30 6871 C 638.823 1.20526 -1.54816 0
M  V30 6872 O 637.948 1.92016 -0.99794 0
M  V30 6873 C 638.543 -0.444241 -3.35875 0
M  V30 6874 C 637.102 -0.0922108 -3.76287 0
M  V30 6875 C 636.249 -0.746327 -2.67068 0
M  V30 6876 H 639.2 -0.8584 -1.33481 0
M  V30 6877 H 639.221 0.309762 -3.79237 0
M  V30 6878 H 638.733 -1.50239 -3.5784 0
M  V30 6879 H 636.834 0.96328 -3.59933 0
M  V30 6880 H 636.947 -0.518807 -4.76283 0
M  V30 6881 H 635.311 -0.179416 -2.54067 0
M  V30 6882 H 636.094 -1.80754 -2.91861 0
M  V30 6883 N 638.539 1.52521 -0.396863 0
M  V30 6884 C 639.788 2.00857 0.184184 0
M  V30 6885 C 640.101 1.28733 1.47265 0
M  V30 6886 O 641.307 1.67821 2.13421 0
M  V30 6887 C 639.763 3.57901 0.378787 0
M  V30 6888 C 639.371 4.38931 -0.896873 0
M  V30 6889 C 641.115 4.14504 0.915789 0
M  V30 6890 C 639.022 5.87591 -0.670133 0
M  V30 6891 H 637.952 0.750496 0.0726055 0
M  V30 6892 H 640.603 1.75965 -0.520425 0
M  V30 6893 H 638.985 3.79072 1.14543 0
M  V30 6894 H 640.159 4.29524 -1.66872 0
M  V30 6895 H 638.474 3.93586 -1.35938 0
M  V30 6896 H 641.071 5.23236 1.10126 0
M  V30 6897 H 641.414 3.71076 1.88701 0
M  V30 6898 H 641.947 3.97253 0.208523 0
M  V30 6899 H 638.686 6.35355 -1.61257 0
M  V30 6900 H 638.206 5.99767 0.0626368 0
M  V30 6901 H 639.885 6.46268 -0.307577 0
M  V30 6902 N 640.017 0.126909 1.57088 0
M  V30 6903 C 641.428 -0.397201 1.82426 0
M  V30 6904 C 641.779 -1.66084 1.04453 0
M  V30 6905 O 640.904 -2.14534 0.283552 0
M  V30 6906 C 641.499 -0.727411 3.30899 0
M  V30 6907 C 640.058 -1.19612 3.56889 0
M  V30 6908 C 639.205 -0.20885 2.76512 0
M  V30 6909 H 642.156 0.351924 1.54749 0
M  V30 6910 H 642.177 -1.58407 3.45959 0
M  V30 6911 H 641.689 0.19247 3.87622 0
M  V30 6912 H 639.79 -2.13263 3.05532 0
M  V30 6913 H 639.903 -1.13598 4.65438 0
M  V30 6914 H 638.267 -0.697479 2.44964 0
M  V30 6915 H 639.05 0.704267 3.35998 0
M  V30 6916 N 641.495 -1.56914 -0.146875 0
M  V30 6917 C 642.772 -1.74273 -0.888165 0
M  V30 6918 C 643.152 -0.69496 -1.99333 0
M  V30 6919 O 642.5 0.286093 -2.26702 0
M  V30 6920 C 642.71 -3.18336 -1.43051 0
M  V30 6921 C 644.058 -3.80024 -1.89387 0
M  V30 6922 O 645.082 -3.21765 -1.52792 0
M  V30 6923 O 643.941 -4.82367 -2.56874 0
M  V30 6924 H 641.035 -0.712565 -0.419738 0
M  V30 6925 H 643.581 -1.6918 -0.132791 0
M  V30 6926 H 642.353 -3.86092 -0.636274 0
M  V30 6927 H 641.976 -3.27854 -2.24938 0
M  V30 6928 N 642.974 0.416227 -1.52004 0
M  V30 6929 C 643.922 1.5272 -1.7544 0
M  V30 6930 C 644.916 1.57596 -0.621289 0
M  V30 6931 O 646.122 1.61087 -0.803172 0
M  V30 6932 H 642.497 0.507772 -0.554682 0
M  V30 6933 H 644.468 1.30136 -2.68528 0
M  V30 6934 C 643.217 2.90165 -1.91571 0
M  V30 6935 H 642.54 2.87154 -2.78178 0
M  V30 6936 H 643.98 3.67211 -2.11972 0
M  V30 6937 C 642.439 3.29947 -0.680942 0
M  V30 6938 O 642.969 4.01403 0.154527 0
M  V30 6939 N 641.175 2.8593 -0.518894 0
M  V30 6940 H 640.722 2.2795 -1.19986 0
M  V30 6941 H 640.68 3.12907 0.305985 0
M  V30 6942 N 644.452 1.42507 0.673017 0
M  V30 6943 C 645.863 1.38347 1.25367 0
M  V30 6944 C 646.214 0.0776327 1.96046 0
M  V30 6945 O 645.339 -0.823571 2.00116 0
M  V30 6946 C 645.934 2.506 2.28002 0
M  V30 6947 C 644.493 2.49767 2.81591 0
M  V30 6948 C 643.64 2.293 1.55938 0
M  V30 6949 H 646.591 1.51695 0.466288 0
M  V30 6950 H 646.612 2.20953 3.09774 0
M  V30 6951 H 646.124 3.45627 1.76532 0
M  V30 6952 H 644.225 1.58563 3.37177 0
M  V30 6953 H 644.338 3.46867 3.30485 0
M  V30 6954 H 642.702 1.77594 1.82572 0
M  V30 6955 H 643.485 3.26385 1.06431 0
M  V30 6956 N 645.93 -0.909495 1.28709 0
M  V30 6957 C 646.878 -2.03381 1.12866 0
M  V30 6958 C 647.872 -1.69335 0.0468074 0
M  V30 6959 O 649.078 -1.78819 0.205891 0
M  V30 6960 H 645.453 -0.666452 0.348348 0
M  V30 6961 H 647.424 -2.13885 2.08077 0
M  V30 6962 C 646.173 -3.38092 0.811742 0
M  V30 6963 H 645.496 -3.64786 1.63619 0
M  V30 6964 H 646.936 -4.17477 0.740869 0
M  V30 6965 C 645.395 -3.33395 -0.484679 0
M  V30 6966 O 645.925 -3.72089 -1.5137 0
M  V30 6967 N 644.131 -2.86491 -0.486961 0
M  V30 6968 H 643.678 -2.55199 0.350877 0
M  V30 6969 H 643.636 -2.83731 -1.3544 0
M  V30 6970 N 647.408 -1.11026 -1.11852 0
M  V30 6971 C 648.685 -0.768347 -1.79877 0
M  V30 6972 C 649.065 0.744261 -1.97545 0
M  V30 6973 O 648.413 1.67271 -1.55669 0
M  V30 6974 C 648.623 -1.52648 -3.13846 0
M  V30 6975 C 649.971 -1.70297 -3.88953 0
M  V30 6976 O 650.995 -1.49037 -3.23522 0
M  V30 6977 O 649.854 -2.05593 -5.06353 0
M  V30 6978 H 646.948 -0.277891 -0.778913 0
M  V30 6979 H 649.494 -1.21343 -1.18633 0
M  V30 6980 H 648.266 -2.55564 -2.96315 0
M  V30 6981 H 647.889 -1.07466 -3.82801 0
M  V30 6982 N 648.886 1.2938 -0.899927 0
M  V30 6983 C 649.833 2.27713 -0.376243 0
M  V30 6984 C 650.803 1.57016 0.541774 0
M  V30 6985 O 651.988 1.84997 0.466966 0
M  V30 6986 C 649.128 3.42889 0.39 0
M  V30 6987 C 648.241 4.28369 -0.558938 0
M  V30 6988 C 647.376 5.30726 0.224379 0
M  V30 6989 C 646.415 6.07862 -0.719068 0
M  V30 6990 N 645.552 7.02094 0.0298569 0
M  V30 6991 H 650.392 2.71888 -1.21988 0
M  V30 6992 H 647.929 1.33724 -0.612879 0
M  V30 6993 H 649.887 4.08443 0.850314 0
M  V30 6994 H 648.517 2.99743 1.19809 0
M  V30 6995 H 647.569 3.62986 -1.13777 0
M  V30 6996 H 648.881 4.82068 -1.2811 0
M  V30 6997 H 648.035 6.02098 0.745881 0
M  V30 6998 H 646.774 4.77759 0.979674 0
M  V30 6999 H 645.779 5.35353 -1.25207 0
M  V30 7000 H 647.004 6.62917 -1.4737 0
M  V30 7001 H 644.95 6.51496 0.767415 0
M  V30 7002 H 644.867 7.5335 -0.632391 0
M  V30 7003 H 646.135 7.77685 0.531615 0
M  V30 7004 O 650.403 0.801822 1.40189 0
M  V30 7005 H 651.094 0.376359 1.90008 0
M  V30 END ATOM
M  V30 BEGIN BOND
M  V30 END BOND
M  V30 END CTAB
M  END
$$$$
