drugbank_target|P28845 Corticosteroid 11-beta-dehydrogenase isozyme 1 (DB00157; DB02329; DB03461; DB03814; DB04652; DB05064; DB06992; DB07017; DB07049; DB07056; DB07310; DB07316; DB07619; DB07624; DB07866; DB08277; DB08280; DB08771; DB13751)
 OpenBabel12092119293D

  0  0  0     0  0            999 V3000
M  V30 BEGIN CTAB
M  V30 COUNTS 4591 4634 0 0 0
M  V30 BEGIN ATOM
M  V30 1 H -0.908 1.98254 -0.117106 0
M  V30 2 N 0 1.576 0 0
M  V30 3 C 0.933 2.03868 1.02534 0
M  V30 4 C 1.911 0.928543 1.3348 0
M  V30 5 O 3.095 1.19667 1.45644 0
M  V30 6 C 0.222 2.43627 2.35294 0
M  V30 7 C -0.732 3.65373 2.2001 0
M  V30 8 S 0.101 5.13292 1.52614 0
M  V30 9 C 1.257 5.56322 2.86805 0
M  V30 10 H 1.49 2.90518 0.631377 0
M  V30 11 H -0.977 1.52953 0.210867 0
M  V30 12 H 0.981 2.67203 3.11629 0
M  V30 13 H -0.358 1.57376 2.7183 0
M  V30 14 H -1.165 3.90944 3.18086 0
M  V30 15 H -1.563 3.418 1.51819 0
M  V30 16 H 0.729 5.58782 3.83104 0
M  V30 17 H 1.672 6.56266 2.65933 0
M  V30 18 H 2.08 4.83886 2.90714 0
M  V30 19 N 1.4781 -0.272755 1.55222 0
M  V30 20 C 2.4411 -1.32041 1.87344 0
M  V30 21 C 3.4411 -1.42342 0.74803 0
M  V30 22 O 4.6311 -1.41488 1.0162 0
M  V30 23 C 1.7631 -2.70173 2.07893 0
M  V30 24 H 2.9561 -1.04789 2.80997 0
M  V30 25 H 0.5091 -0.51083 1.47717 0
M  V30 26 H 1.2441 -3.02605 1.16622 0
M  V30 27 H 1.0291 -2.64082 2.89833 0
M  V30 28 H 2.5191 -3.45869 2.34017 0
M  V30 29 N 2.9562 -1.48159 -0.537278 0
M  V30 30 C 4.2032 -1.55804 -1.29349 0
M  V30 31 C 4.5312 -0.228802 -1.9315 0
M  V30 32 O 3.7862 0.780242 -1.79473 0
M  V30 33 C 4.0852 -2.63956 -2.40961 0
M  V30 34 C 3.7512 -4.0662 -1.94861 0
M  V30 35 C 2.4132 -4.45452 -1.82006 0
M  V30 36 C 4.7652 -4.96055 -1.59933 0
M  V30 37 C 2.0932 -5.71531 -1.32547 0
M  V30 38 C 4.4452 -6.22617 -1.11939 0
M  V30 39 C 3.1092 -6.60312 -0.976951 0
M  V30 40 H 2.3792 -0.570129 -0.473322 0
M  V30 41 H 5.0262 -1.81845 -0.600372 0
M  V30 42 H 3.3312 -2.31747 -3.15912 0
M  V30 43 H 5.0282 -2.67089 -2.99107 0
M  V30 44 H 1.6182 -3.75949 -2.05815 0
M  V30 45 H 5.8022 -4.66738 -1.68728 0
M  V30 46 H 1.0582 -5.99468 -1.202 0
M  V30 47 H 5.2322 -6.91318 -0.839811 0
M  V30 48 H 2.8592 -7.57895 -0.591501 0
M  V30 49 N 4.4343 0.785586 -1.36625 0
M  V30 50 C 5.3673 1.90509 -1.25625 0
M  V30 51 C 6.3453 1.62 -0.139607 0
M  V30 52 O 7.5293 1.8591 -0.31141 0
M  V30 53 C 4.6563 3.25419 -0.939158 0
M  V30 54 C 3.7023 3.72856 -2.07077 0
M  V30 55 S 4.5353 3.88162 -3.68904 0
M  V30 56 C 5.6913 5.25942 -3.39317 0
M  V30 57 H 5.9243 1.99549 -2.20381 0
M  V30 58 H 3.4573 0.945226 -1.22085 0
M  V30 59 H 5.4153 4.03346 -0.763029 0
M  V30 60 H 4.0763 3.14099 -0.00931402 0
M  V30 61 H 3.2693 4.70624 -1.80357 0
M  V30 62 H 2.8713 3.01989 -2.20632 0
M  V30 63 H 5.1633 6.10651 -2.93447 0
M  V30 64 H 6.1063 5.57668 -4.36363 0
M  V30 65 H 6.5143 4.93224 -2.74573 0
M  V30 66 N 5.9124 1.20967 1.01018 0
M  V30 67 C 6.8594 0.964281 2.09691 0
M  V30 68 C 7.8294 -0.107853 1.65749 0
M  V30 69 O 9.0144 0.0381987 1.90762 0
M  V30 70 C 6.1544 0.52943 3.41015 0
M  V30 71 C 5.2674 1.67043 3.98398 0
M  V30 72 C 4.4024 1.18525 5.17808 0
M  V30 73 C 3.4414 2.29892 5.67288 0
M  V30 74 N 2.5784 1.82546 6.77954 0
M  V30 75 H 7.4184 1.89463 2.30017 0
M  V30 76 H 4.9554 0.944289 1.1279 0
M  V30 77 H 6.9134 0.258588 4.16398 0
M  V30 78 H 5.5434 -0.363919 3.20742 0
M  V30 79 H 4.5954 2.05603 3.20049 0
M  V30 80 H 5.9074 2.50877 4.31117 0
M  V30 81 H 5.0614 0.870762 6.00419 0
M  V30 82 H 3.8004 0.316887 4.86669 0
M  V30 83 H 2.8054 2.6215 4.83278 0
M  V30 84 H 4.0304 3.17216 6.00459 0
M  V30 85 H 1.9764 0.980454 6.48632 0
M  V30 86 H 1.8934 2.59956 7.09901 0
M  V30 87 H 3.1614 1.54115 7.64113 0
M  V30 88 N 7.3905 -1.2043 1.01659 0
M  V30 89 C 8.3375 -2.23215 0.586822 0
M  V30 90 C 9.3075 -1.61382 -0.393085 0
M  V30 91 O 10.4925 -1.88544 -0.292525 0
M  V30 92 C 7.6325 -3.45032 -0.0687464 0
M  V30 93 C 6.7455 -4.21296 0.955724 0
M  V30 94 C 5.8805 -5.30507 0.271208 0
M  V30 95 C 4.9195 -5.98515 1.28244 0
M  V30 96 N 4.0565 -6.99316 0.62459 0
M  V30 97 H 8.8965 -2.59336 1.46796 0
M  V30 98 H 6.4335 -1.27431 0.734836 0
M  V30 99 H 8.3915 -4.1459 -0.465965 0
M  V30 100 H 7.0215 -3.09604 -0.913529 0
M  V30 101 H 6.0735 -3.50803 1.4711 0
M  V30 102 H 7.3855 -4.6803 1.72479 0
M  V30 103 H 6.5395 -6.06428 -0.18151 0
M  V30 104 H 5.2785 -4.8481 -0.530163 0
M  V30 105 H 4.2835 -5.21355 1.74554 0
M  V30 106 H 5.5085 -6.46298 2.08509 0
M  V30 107 H 3.4545 -6.55812 -0.156914 0
M  V30 108 H 3.3715 -7.44178 1.33172 0
M  V30 109 H 4.6395 -7.79255 0.195462 0
M  V30 110 N 8.8686 -0.792821 -1.36206 0
M  V30 111 C 10.0986 -0.378275 -2.03107 0
M  V30 112 C 10.5066 1.01119 -1.59911 0
M  V30 113 O 9.8496 1.66052 -0.785658 0
M  V30 114 C 9.9116 -0.366535 -3.57627 0
M  V30 115 C 9.5756 -1.70416 -4.24037 0
M  V30 116 C 10.5726 -2.6602 -4.46687 0
M  V30 117 C 8.2576 -1.98439 -4.6144 0
M  V30 118 C 10.2516 -3.8784 -5.05825 0
M  V30 119 C 7.9386 -3.20525 -5.20295 0
M  V30 120 C 8.9366 -4.15044 -5.42427 0
M  V30 121 O 8.6246 -5.34978 -6.00045 0
M  V30 122 H 8.3566 -0.153543 -0.658332 0
M  V30 123 H 10.9106 -1.07383 -1.75094 0
M  V30 124 H 9.1406 0.385539 -3.84773 0
M  V30 125 H 10.8296 0.0238088 -4.05893 0
M  V30 126 H 11.5956 -2.45658 -4.18183 0
M  V30 127 H 7.4746 -1.25686 -4.43536 0
M  V30 128 H 11.0186 -4.61628 -5.23015 0
M  V30 129 H 6.9156 -3.40764 -5.48225 0
M  V30 130 H 7.6836 -5.36088 -6.18508 0
M  V30 131 N 10.3467 1.47872 -0.545128 0
M  V30 132 C 11.2767 2.32661 0.197793 0
M  V30 133 C 12.2577 1.43041 0.920504 0
M  V30 134 O 13.4427 1.71912 0.90333 0
M  V30 135 C 10.5727 3.24569 1.23582 0
M  V30 136 C 9.5267 4.23333 0.630323 0
M  V30 137 C 8.8527 5.0448 1.77211 0
M  V30 138 C 10.1527 5.20704 -0.407974 0
M  V30 139 H 11.8467 2.95024 -0.510045 0
M  V30 140 H 9.3927 1.4187 -0.246731 0
M  V30 141 H 11.3457 3.8272 1.76362 0
M  V30 142 H 10.0697 2.60236 1.97344 0
M  V30 143 H 8.7287 3.6639 0.123922 0
M  V30 144 H 8.3767 4.36561 2.49847 0
M  V30 145 H 8.0767 5.71339 1.37281 0
M  V30 146 H 9.6007 5.65487 2.3034 0
M  V30 147 H 11.0147 5.7329 0.033305 0
M  V30 148 H 9.4117 5.95699 -0.725486 0
M  V30 149 H 10.4817 4.66917 -1.30828 0
M  V30 150 N 11.8248 0.280983 1.55075 0
M  V30 151 C 12.7548 -0.597469 2.25727 0
M  V30 152 C 13.7358 -1.15417 1.24952 0
M  V30 153 O 14.9208 -1.18722 1.53684 0
M  V30 154 C 12.0508 -1.7789 2.98283 0
M  V30 155 C 11.0048 -1.35347 4.06036 0
M  V30 156 C 10.3308 -2.61846 4.66198 0
M  V30 157 C 11.6308 -0.499354 5.19907 0
M  V30 158 H 13.3248 -0.00824265 2.99399 0
M  V30 159 H 10.8708 -0.0025244 1.44 0
M  V30 160 H 12.8238 -2.39937 3.46422 0
M  V30 161 H 11.5478 -2.39405 2.22155 0
M  V30 162 H 10.2068 -0.756156 3.58717 0
M  V30 163 H 9.8548 -3.21632 3.86732 0
M  V30 164 H 9.5548 -2.3409 5.38958 0
M  V30 165 H 11.0788 -3.24732 5.1709 0
M  V30 166 H 12.4928 -1.02498 5.64063 0
M  V30 167 H 10.8898 -0.316424 5.99265 0
M  V30 168 H 11.9598 0.480459 4.82514 0
M  V30 169 N 13.3029 -1.57598 0.00835791 0
M  V30 170 C 14.7139 -1.7892 -0.53333 0
M  V30 171 C 15.0649 -0.916609 -1.73473 0
M  V30 172 O 14.1899 -0.121336 -2.1606 0
M  V30 173 C 14.7849 -3.24488 -0.974313 0
M  V30 174 C 13.3439 -3.46878 -1.46125 0
M  V30 175 C 12.4909 -2.74157 -0.416302 0
M  V30 176 H 15.4419 -1.56958 0.234495 0
M  V30 177 H 15.4629 -3.3306 -1.83988 0
M  V30 178 H 14.9749 -3.87972 -0.099718 0
M  V30 179 H 13.0759 -2.8862 -2.35646 0
M  V30 180 H 13.1889 -4.55572 -1.48295 0
M  V30 181 H 11.5529 -2.39022 -0.87981 0
M  V30 182 H 12.3359 -3.40345 0.44947 0
M  V30 183 N 14.781 0.264519 -1.55364 0
M  V30 184 C 16.03 0.992812 -1.75574 0
M  V30 185 C 16.343 1.87142 -0.568979 0
M  V30 186 O 17.549 2.63513 -0.653682 0
M  V30 187 C 16.005 1.81519 -3.10771 0
M  V30 188 C 15.613 0.984839 -4.37041 0
M  V30 189 C 17.357 2.53727 -3.40327 0
M  V30 190 C 15.264 1.80209 -5.63275 0
M  V30 191 H 14.194 0.374412 -0.65447 0
M  V30 192 H 16.845 0.248138 -1.81815 0
M  V30 193 H 15.227 2.60115 -2.98591 0
M  V30 194 H 16.401 0.242455 -4.60162 0
M  V30 195 H 14.716 0.37691 -4.14691 0
M  V30 196 H 17.313 3.15292 -4.3185 0
M  V30 197 H 17.656 3.24447 -2.60845 0
M  V30 198 H 18.189 1.82156 -3.53644 0
M  V30 199 H 14.928 1.13896 -6.45529 0
M  V30 200 H 14.448 2.52022 -5.44284 0
M  V30 201 H 16.127 2.37364 -6.01887 0
M  V30 202 N 16.2591 1.48442 0.529413 0
M  V30 203 C 17.1891 1.65902 1.64313 0
M  V30 204 C 18.1701 0.507897 1.6234 0
M  V30 205 O 19.3551 0.740503 1.79528 0
M  V30 206 C 16.4851 1.69911 3.02898 0
M  V30 207 C 15.4391 2.8453 3.19729 0
M  V30 208 C 14.7651 2.73629 4.59381 0
M  V30 209 C 16.0651 4.25821 3.02447 0
M  V30 210 H 17.7591 2.5914 1.49955 0
M  V30 211 H 15.3051 1.24709 0.719982 0
M  V30 212 H 17.2581 1.80715 3.80684 0
M  V30 213 H 15.9821 0.732524 3.18279 0
M  V30 214 H 14.6411 2.73283 2.44361 0
M  V30 215 H 14.2891 1.74938 4.71599 0
M  V30 216 H 13.9891 3.50541 4.71588 0
M  V30 217 H 15.5131 2.86401 5.39265 0
M  V30 218 H 16.9271 4.37898 3.70024 0
M  V30 219 H 15.3241 5.03735 3.26146 0
M  V30 220 H 16.3941 4.42244 1.98867 0
M  V30 221 N 17.7372 -0.778329 1.37039 0
M  V30 222 C 18.9852 -1.53361 1.31623 0
M  V30 223 C 19.3062 -1.94739 -0.100831 0
M  V30 224 O 18.5762 -1.65797 -1.04347 0
M  V30 225 H 17.1562 -0.568794 0.484234 0
M  V30 226 H 19.8182 -0.926742 1.71457 0
M  V30 227 H 18.9142 -2.43606 1.95096 0
M  V30 228 N 19.2153 -1.21501 -1.00376 0
M  V30 229 C 20.1453 -0.999478 -2.11028 0
M  V30 230 C 21.1263 0.0759671 -1.6993 0
M  V30 231 O 22.3113 -0.0841106 -1.94018 0
M  V30 232 C 19.4413 -0.564709 -3.42678 0
M  V30 233 C 18.3953 -1.58486 -3.97576 0
M  V30 234 C 17.7213 -1.00628 -5.25146 0
M  V30 235 C 19.0213 -2.97204 -4.29496 0
M  V30 236 H 20.7153 -1.92495 -2.29317 0
M  V30 237 H 18.2613 -0.92693 -1.102 0
M  V30 238 H 20.2143 -0.401091 -4.19487 0
M  V30 239 H 18.9383 0.396411 -3.24185 0
M  V30 240 H 17.5973 -1.73606 -3.22888 0
M  V30 241 H 17.2453 -0.0368439 -5.02987 0
M  V30 242 H 16.9453 -1.68771 -5.62841 0
M  V30 243 H 18.4693 -0.854015 -6.04598 0
M  V30 244 H 19.8833 -2.8552 -4.97143 0
M  V30 245 H 18.2803 -3.62372 -4.78338 0
M  V30 246 H 19.3503 -3.47956 -3.3772 0
M  V30 247 N 20.6934 1.19889 -1.02296 0
M  V30 248 C 21.9404 1.8942 -0.715972 0
M  V30 249 C 22.2684 1.79251 0.754944 0
M  V30 250 O 21.5234 1.17526 1.56481 0
M  V30 251 C 21.8224 3.39883 -1.10518 0
M  V30 252 C 21.4884 3.70254 -2.57337 0
M  V30 253 C 20.1504 3.78254 -2.97452 0
M  V30 254 C 22.5024 3.84052 -3.52354 0
M  V30 255 C 19.8304 3.97514 -4.31509 0
M  V30 256 C 22.1824 4.04824 -4.86108 0
M  V30 257 C 20.8464 4.11054 -5.25919 0
M  V30 258 H 20.1164 0.693138 -0.261993 0
M  V30 259 H 22.7634 1.42012 -1.28472 0
M  V30 260 H 21.0684 3.8915 -0.454953 0
M  V30 261 H 22.7654 3.9199 -0.845261 0
M  V30 262 H 19.3554 3.64632 -2.25258 0
M  V30 263 H 23.5394 3.77221 -3.22518 0
M  V30 264 H 18.7954 4.00574 -4.61898 0
M  V30 265 H 22.9694 4.14442 -5.59653 0
M  V30 266 H 20.5964 4.2573 -6.29808 0
M  V30 267 N 22.1715 0.800033 1.35784 0
M  V30 268 C 23.1045 0.151499 2.27697 0
M  V30 269 C 24.0825 -0.678663 1.4776 0
M  V30 270 O 25.2665 -0.647358 1.77035 0
M  V30 271 C 22.3935 -0.790492 3.29346 0
M  V30 272 C 21.4395 -0.0407832 4.26481 0
M  V30 273 S 22.2725 1.29077 5.19711 0
M  V30 274 C 23.4285 0.353055 6.24903 0
M  V30 275 H 23.6615 0.930796 2.82353 0
M  V30 276 H 21.1945 0.594767 1.42485 0
M  V30 277 H 23.1525 -1.3285 3.88409 0
M  V30 278 H 21.8135 -1.54312 2.73581 0
M  V30 279 H 21.0065 -0.755971 4.98298 0
M  V30 280 H 20.6085 0.427063 3.71554 0
M  V30 281 H 22.9005 -0.464147 6.75908 0
M  V30 282 H 23.8435 1.04023 7.00418 0
M  V30 283 H 24.2515 -0.0483344 5.64479 0
M  V30 284 N 23.6496 -1.47581 0.552962 0
M  V30 285 C 24.6126 -2.28439 -0.186605 0
M  V30 286 C 25.6126 -1.36706 -0.84665 0
M  V30 287 O 26.8026 -1.59378 -0.703164 0
M  V30 288 C 23.9346 -3.16264 -1.2724 0
M  V30 289 H 25.1276 -2.95294 0.523609 0
M  V30 290 H 22.6806 -1.532 0.309745 0
M  V30 291 H 23.4156 -2.54091 -2.01514 0
M  V30 292 H 23.2006 -3.83769 -0.803968 0
M  V30 293 H 24.6906 -3.77198 -1.79196 0
M  V30 294 N 25.1277 -0.289203 -1.54924 0
M  V30 295 C 26.3577 0.325989 -2.04012 0
M  V30 296 C 26.7657 1.48961 -1.1665 0
M  V30 297 O 26.1087 1.82794 -0.1822 0
M  V30 298 C 26.1707 0.856112 -3.49158 0
M  V30 299 C 25.8347 -0.180697 -4.56643 0
M  V30 300 C 26.8317 -1.0051 -5.10092 0
M  V30 301 C 24.5167 -0.318998 -5.01286 0
M  V30 302 C 26.5107 -1.95385 -6.06715 0
M  V30 303 C 24.1977 -1.27121 -5.97732 0
M  V30 304 C 25.1957 -2.08713 -6.50329 0
M  V30 305 O 24.8837 -3.02322 -7.44887 0
M  V30 306 H 24.6157 0.0765276 -0.671654 0
M  V30 307 H 27.1697 -0.423254 -2.00992 0
M  V30 308 H 25.3997 1.65567 -3.49463 0
M  V30 309 H 27.0887 1.38591 -3.81507 0
M  V30 310 H 27.8547 -0.90906 -4.76404 0
M  V30 311 H 23.7337 0.306108 -4.59983 0
M  V30 312 H 27.2777 -2.59111 -6.47694 0
M  V30 313 H 23.1747 -1.36801 -6.30837 0
M  V30 314 H 23.9427 -2.97165 -7.6265 0
M  V30 315 N 26.6058 1.57591 -0.0167156 0
M  V30 316 C 27.8358 1.95292 0.674149 0
M  V30 317 C 28.2438 0.891097 1.66901 0
M  V30 318 O 27.5868 -0.136908 1.83189 0
M  V30 319 C 27.6488 3.29072 1.44747 0
M  V30 320 C 27.3128 4.52879 0.612331 0
M  V30 321 C 28.3098 5.1979 -0.107126 0
M  V30 322 C 25.9948 4.99242 0.553381 0
M  V30 323 C 27.9888 6.31375 -0.874339 0
M  V30 324 C 25.6758 6.10713 -0.217546 0
M  V30 325 C 26.6738 6.76637 -0.930123 0
M  V30 326 O 26.3618 7.85969 -1.68844 0
M  V30 327 H 26.0938 0.648275 0.191615 0
M  V30 328 H 28.6478 2.05284 -0.0690148 0
M  V30 329 H 26.8778 3.15535 2.2355 0
M  V30 330 H 28.5668 3.51764 2.02526 0
M  V30 331 H 29.3328 4.84948 -0.0708392 0
M  V30 332 H 25.2118 4.47744 1.09757 0
M  V30 333 H 28.7558 6.82764 -1.43106 0
M  V30 334 H 24.6528 6.44994 -0.255593 0
M  V30 335 H 25.4208 8.02571 -1.6069 0
M  V30 336 N 28.0839 -0.256276 1.55502 0
M  V30 337 C 29.3139 -1.00196 1.80677 0
M  V30 338 C 29.7219 -1.79805 0.588797 0
M  V30 339 O 29.0649 -1.78055 -0.451883 0
M  V30 340 C 29.1269 -1.99515 2.99055 0
M  V30 341 C 28.7909 -1.38688 4.35448 0
M  V30 342 C 29.7879 -0.794079 5.138 0
M  V30 343 C 27.4729 -1.40906 4.82132 0
M  V30 344 C 29.4669 -0.231562 6.36979 0
M  V30 345 C 27.1539 -0.842684 6.05262 0
M  V30 346 C 28.1519 -0.254953 6.82524 0
M  V30 347 O 27.8399 0.3027 8.0333 0
M  V30 348 H 27.5719 -0.300919 0.60533 0
M  V30 349 H 30.1259 -0.287307 2.03381 0
M  V30 350 H 28.3559 -2.74785 2.72084 0
M  V30 351 H 30.0449 -2.60349 3.11405 0
M  V30 352 H 30.8109 -0.769519 4.78856 0
M  V30 353 H 26.6899 -1.85591 4.21992 0
M  V30 354 H 30.2339 0.227816 6.97228 0
M  V30 355 H 26.1309 -0.86454 6.39684 0
M  V30 356 H 26.8989 0.193662 8.18271 0
M  V30 357 N 29.562 -1.4872 -0.521534 0
M  V30 358 C 30.792 -1.6061 -1.29954 0
M  V30 359 C 31.2 -0.268728 -1.87282 0
M  V30 360 O 30.543 0.753221 -1.67548 0
M  V30 361 C 30.605 -2.60013 -2.48261 0
M  V30 362 C 30.269 -4.04874 -2.11957 0
M  V30 363 C 31.266 -4.92304 -1.67132 0
M  V30 364 C 28.951 -4.5047 -2.22221 0
M  V30 365 C 30.945 -6.2336 -1.33047 0
M  V30 366 C 28.632 -5.81544 -1.87748 0
M  V30 367 C 29.63 -6.67812 -1.43234 0
M  V30 368 O 29.318 -7.96446 -1.09217 0
M  V30 369 H 29.05 -0.544116 -0.401141 0
M  V30 370 H 31.604 -1.95339 -0.634958 0
M  V30 371 H 29.834 -2.20422 -3.17728 0
M  V30 372 H 31.523 -2.61648 -3.10315 0
M  V30 373 H 32.289 -4.58312 -1.58665 0
M  V30 374 H 28.168 -3.83504 -2.55823 0
M  V30 375 H 31.712 -6.90649 -0.982299 0
M  V30 376 H 27.609 -6.15069 -1.95858 0
M  V30 377 H 28.377 -8.09275 -1.22542 0
M  V30 378 N 31.0401 0.771051 -1.3745 0
M  V30 379 C 32.2651 1.56529 -1.36065 0
M  V30 380 C 32.6901 1.88029 0.0515859 0
M  V30 381 O 32.0481 1.49282 1.02882 0
M  V30 382 C 32.0961 2.85187 -2.20683 0
M  V30 383 O 31.2001 3.79593 -1.61193 0
M  V30 384 H 30.5411 0.47411 -0.464883 0
M  V30 385 H 33.0711 0.954269 -1.80983 0
M  V30 386 H 33.0811 3.34283 -2.33921 0
M  V30 387 H 31.7561 2.61588 -3.23334 0
M  V30 388 H 30.3331 3.38239 -1.56999 0
M  V30 389 N 32.5182 1.22032 0.997298 0
M  V30 390 C 33.4812 0.987909 2.06816 0
M  V30 391 C 34.4812 -0.0440084 1.6074 0
M  V30 392 O 35.6712 0.194053 1.73116 0
M  V30 393 C 32.8032 0.49132 3.37341 0
M  V30 394 H 33.9962 1.93803 2.28868 0
M  V30 395 H 31.5492 1.03838 1.16822 0
M  V30 396 H 32.2842 -0.463364 3.20973 0
M  V30 397 H 32.0692 1.23575 3.72118 0
M  V30 398 H 33.5592 0.348824 4.16141 0
M  V30 399 N 33.9963 -1.19345 1.0293 0
M  V30 400 C 34.9443 -2.24621 0.604001 0
M  V30 401 C 35.9383 -1.65452 -0.363587 0
M  V30 402 O 37.1443 -1.78497 -0.23212 0
M  V30 403 H 33.5193 -0.730858 0.177061 0
M  V30 404 H 35.4903 -2.5781 1.50255 0
M  V30 405 C 34.2393 -3.47688 -0.0289127 0
M  V30 406 H 33.5623 -3.93505 0.706651 0
M  V30 407 H 35.0023 -4.23011 -0.289432 0
M  V30 408 C 33.4613 -3.11817 -1.2756 0
M  V30 409 O 33.9913 -3.2451 -2.36762 0
M  V30 410 N 32.1973 -2.66246 -1.16453 0
M  V30 411 H 31.7443 -2.56118 -0.275914 0
M  V30 412 H 31.7023 -2.42617 -1.99961 0
M  V30 413 N 35.4744 -0.807222 -1.35358 0
M  V30 414 C 36.3844 -0.219594 -2.3357 0
M  V30 415 C 37.4004 0.637734 -1.61892 0
M  V30 416 O 38.5764 0.549336 -1.93763 0
M  V30 417 C 35.6414 0.62158 -3.41083 0
M  V30 418 C 34.7024 -0.256315 -4.28534 0
M  V30 419 C 33.9354 0.544807 -5.30912 0
M  V30 420 O 34.1584 1.77944 -5.41934 0
M  V30 421 O 33.0924 -0.0646478 -6.01865 0
M  V30 422 H 36.9184 -1.03208 -2.85625 0
M  V30 423 H 34.5034 -0.569025 -1.38139 0
M  V30 424 H 36.3854 1.10067 -4.06772 0
M  V30 425 H 35.0604 1.41165 -2.91297 0
M  V30 426 H 33.9674 -0.782559 -3.65823 0
M  V30 427 H 35.3004 -1.01034 -4.81719 0
M  V30 428 N 36.9525 1.47285 -0.560781 0
M  V30 429 C 37.8625 2.33846 0.187954 0
M  V30 430 C 38.8785 1.48412 0.908293 0
M  V30 431 O 40.0545 1.81332 0.876388 0
M  V30 432 C 37.1195 3.25178 1.2025 0
M  V30 433 C 36.1805 4.26504 0.489208 0
M  V30 434 C 35.4135 5.13472 1.45542 0
M  V30 435 O 35.6365 5.02959 2.6905 0
M  V30 436 O 34.5705 5.93902 0.977963 0
M  V30 437 H 38.3965 2.99177 -0.522177 0
M  V30 438 H 35.9815 1.45903 -0.321364 0
M  V30 439 H 37.8635 3.81584 1.78805 0
M  V30 440 H 36.5385 2.6247 1.89449 0
M  V30 441 H 35.4455 3.73847 -0.137627 0
M  V30 442 H 36.7785 4.91935 -0.161399 0
M  V30 443 N 38.4306 0.297415 1.54768 0
M  V30 444 C 39.6776 -0.312913 2.00068 0
M  V30 445 C 40.0056 -1.54171 1.18582 0
M  V30 446 O 39.2606 -1.94108 0.249133 0
M  V30 447 C 39.5596 -0.717561 3.50123 0
M  V30 448 C 39.2256 0.409095 4.4904 0
M  V30 449 C 37.8876 0.718399 4.75807 0
M  V30 450 C 40.2396 1.16717 5.07963 0
M  V30 451 C 37.5676 1.78896 5.5876 0
M  V30 452 C 39.9196 2.22762 5.92081 0
M  V30 453 C 38.5836 2.54303 6.1716 0
M  V30 454 H 37.8536 -0.114503 0.7321 0
M  V30 455 H 40.5006 0.415767 1.86932 0
M  V30 456 H 38.8056 -1.52627 3.60849 0
M  V30 457 H 40.5026 -1.20091 3.82595 0
M  V30 458 H 37.0926 0.157918 4.28309 0
M  V30 459 H 41.2766 0.941466 4.87289 0
M  V30 460 H 36.5326 2.0381 5.7643 0
M  V30 461 H 40.7066 2.81962 6.36765 0
M  V30 462 H 38.3336 3.3739 6.81229 0
M  V30 463 N 39.9087 -1.5758 0.0250728 0
M  V30 464 C 41.3247 -1.56124 -0.331282 0
M  V30 465 C 41.5247 -1.03029 -1.73169 0
M  V30 466 O 40.5807 -0.675215 -2.43305 0
M  V30 467 C 41.8937 -3.00139 -0.183584 0
M  V30 468 C 43.4417 -3.11946 -0.256654 0
M  V30 469 C 43.9167 -4.57793 -0.137792 0
M  V30 470 N 45.4077 -4.6279 -0.194904 0
M  V30 471 C 46.1427 -5.7326 -0.126655 0
M  V30 472 N 45.6387 -6.928 -0.00755288 0
M  V30 473 N 47.4317 -5.61811 -0.180348 0
M  V30 474 H 39.5827 -1.90424 0.94087 0
M  V30 475 H 41.8457 -0.875761 0.362968 0
M  V30 476 H 41.5517 -3.4292 0.780927 0
M  V30 477 H 41.4257 -3.64899 -0.955448 0
M  V30 478 H 43.8127 -2.69079 -1.21162 0
M  V30 479 H 43.8937 -2.49915 0.545517 0
M  V30 480 H 43.5377 -5.01339 0.813739 0
M  V30 481 H 43.4677 -5.17798 -0.958775 0
M  V30 482 H 45.9587 -3.76807 -0.287267 0
M  V30 483 H 46.2717 -7.72791 0.0379428 0
M  V30 484 H 44.6167 -6.94995 0.0271731 0
M  V30 485 H 47.8077 -4.6731 -0.271767 0
M  V30 486 H 47.9807 -6.47882 -0.123697 0
M  V30 487 N 41.3868 0.248026 -1.55636 0
M  V30 488 C 42.7978 0.817177 -1.67866 0
M  V30 489 C 43.1488 1.86069 -0.622322 0
M  V30 490 O 42.2738 2.15157 0.231618 0
M  V30 491 C 42.8688 1.489 -3.04326 0
M  V30 492 C 41.4278 2.00587 -3.185 0
M  V30 493 C 40.5748 0.856573 -2.63739 0
M  V30 494 H 43.5258 0.0238579 -1.58682 0
M  V30 495 H 43.5468 2.35698 -2.98708 0
M  V30 496 H 43.0588 0.729279 -3.81186 0
M  V30 497 H 41.1598 2.79443 -2.4646 0
M  V30 498 H 41.2728 2.20402 -4.25393 0
M  V30 499 H 39.6368 1.25678 -2.21534 0
M  V30 500 H 40.4198 0.109953 -3.43124 0
M  V30 501 N 42.8649 1.48995 0.513639 0
M  V30 502 C 43.7749 1.67443 1.64317 0
M  V30 503 C 44.7909 0.556947 1.64846 0
M  V30 504 O 45.9669 0.830082 1.83498 0
M  V30 505 C 43.0319 1.72515 3.00732 0
M  V30 506 C 42.0929 2.96009 3.1093 0
M  V30 507 C 41.3259 3.00829 4.40837 0
M  V30 508 O 41.5489 2.13594 5.28898 0
M  V30 509 O 40.4829 3.93168 4.55744 0
M  V30 510 H 44.3089 2.63106 1.51687 0
M  V30 511 H 41.8939 1.32588 0.688543 0
M  V30 512 H 43.7759 1.78277 3.81831 0
M  V30 513 H 42.4509 0.800278 3.13651 0
M  V30 514 H 41.3579 2.9577 2.29065 0
M  V30 515 H 42.6909 3.87934 3.02933 0
M  V30 516 N 44.343 -0.763751 1.37857 0
M  V30 517 C 45.276 -1.88486 1.28639 0
M  V30 518 C 46.254 -1.61757 0.165363 0
M  V30 519 O 47.438 -1.85391 0.340948 0
M  V30 520 C 44.565 -3.23884 0.990811 0
M  V30 521 C 43.611 -3.69514 2.12983 0
M  V30 522 S 44.444 -3.82244 3.75033 0
M  V30 523 C 45.6 -5.20477 3.47641 0
M  V30 524 H 45.833 -1.96017 2.23527 0
M  V30 525 H 43.366 -0.925684 1.23574 0
M  V30 526 H 45.324 -4.02081 0.827101 0
M  V30 527 H 43.985 -3.14044 0.0592832 0
M  V30 528 H 43.178 -4.67696 1.87821 0
M  V30 529 H 42.78 -2.98441 2.25408 0
M  V30 530 H 45.072 -6.05905 3.03125 0
M  V30 531 H 46.015 -5.50655 4.4518 0
M  V30 532 H 46.423 -4.88793 2.82385 0
M  V30 533 N 45.8211 -1.22559 -0.990812 0
M  V30 534 C 46.7511 -1.0218 -2.09956 0
M  V30 535 C 47.7321 0.0579394 -1.70001 0
M  V30 536 O 48.9171 -0.104684 -1.93918 0
M  V30 537 C 46.0471 -0.601023 -3.4206 0
M  V30 538 C 45.0011 -1.62694 -3.95872 0
M  V30 539 C 44.3271 -1.06193 -5.24049 0
M  V30 540 C 45.6271 -3.01743 -4.2632 0
M  V30 541 H 47.3211 -1.94916 -2.27262 0
M  V30 542 H 44.8671 -0.938566 -1.09211 0
M  V30 543 H 46.8201 -0.445561 -4.19038 0
M  V30 544 H 45.5441 0.362005 -3.24588 0
M  V30 545 H 44.2031 -1.77021 -3.21028 0
M  V30 546 H 43.8511 -0.0901903 -5.02919 0
M  V30 547 H 43.5511 -1.74732 -5.61019 0
M  V30 548 H 45.0751 -0.918092 -6.03658 0
M  V30 549 H 46.4891 -2.90777 -4.94087 0
M  V30 550 H 44.8861 -3.67425 -4.74467 0
M  V30 551 H 45.9561 -3.51518 -3.34011 0
M  V30 552 N 47.2992 1.18797 -1.03562 0
M  V30 553 C 48.2312 2.21731 -0.580337 0
M  V30 554 C 49.2442 1.59051 0.347349 0
M  V30 555 O 50.4332 1.77929 0.142669 0
M  V30 556 C 47.5332 3.38459 0.172805 0
M  V30 557 C 46.7062 4.3072 -0.761496 0
M  V30 558 C 45.7652 5.26174 -0.0525547 0
M  V30 559 O 44.7912 5.65108 -0.681333 0
M  V30 560 N 45.9932 5.67624 1.21586 0
M  V30 561 H 48.7582 2.61417 -1.46565 0
M  V30 562 H 46.3192 1.33531 -0.915476 0
M  V30 563 H 48.3112 3.99335 0.656793 0
M  V30 564 H 46.8812 2.97507 0.959602 0
M  V30 565 H 46.1012 3.67525 -1.42544 0
M  V30 566 H 47.3892 4.89267 -1.39626 0
M  V30 567 H 46.7872 5.38038 1.74732 0
M  V30 568 H 45.3442 6.30721 1.64421 0
M  V30 569 N 48.7773 0.814389 1.34928 0
M  V30 570 C 50.0253 0.397636 1.9815 0
M  V30 571 C 50.3463 -1.04069 1.64908 0
M  V30 572 O 49.6163 -1.72121 0.93548 0
M  V30 573 H 48.1963 0.144043 0.732981 0
M  V30 574 H 50.8583 1.04195 1.6471 0
M  V30 575 H 49.9543 0.509688 3.0791 0
M  V30 576 N 50.2554 -1.46986 0.568584 0
M  V30 577 C 51.2024 -2.30153 -0.172707 0
M  V30 578 C 52.1724 -1.39759 -0.897586 0
M  V30 579 O 53.3574 -1.68716 -0.891044 0
M  V30 580 C 50.4974 -3.23952 -1.1895 0
M  V30 581 C 49.6104 -4.29441 -0.469517 0
M  V30 582 C 48.7454 -5.1038 -1.47259 0
M  V30 583 C 47.7844 -6.07632 -0.738225 0
M  V30 584 N 46.9214 -6.8149 -1.68868 0
M  V30 585 H 51.7614 -2.93019 0.542596 0
M  V30 586 H 49.2984 -1.44422 0.279401 0
M  V30 587 H 51.2564 -3.76767 -1.79173 0
M  V30 588 H 49.8864 -2.62926 -1.87269 0
M  V30 589 H 48.9384 -3.79594 0.247467 0
M  V30 590 H 50.2504 -4.98689 0.105241 0
M  V30 591 H 49.4044 -5.67402 -2.14803 0
M  V30 592 H 48.1434 -4.4106 -2.08128 0
M  V30 593 H 47.1484 -5.49778 -0.0489293 0
M  V30 594 H 48.3734 -6.78966 -0.135129 0
M  V30 595 H 46.3194 -6.14891 -2.28573 0
M  V30 596 H 46.2364 -7.46948 -1.16636 0
M  V30 597 H 47.5044 -7.43078 -2.3549 0
M  V30 598 N 51.7335 -0.305618 -1.54608 0
M  V30 599 C 52.6805 0.568421 -2.23691 0
M  V30 600 C 53.6505 1.12592 -1.22116 0
M  V30 601 O 54.8355 1.16959 -1.50749 0
M  V30 602 C 51.9755 1.7322 -2.98477 0
M  V30 603 C 51.0885 1.20566 -4.14835 0
M  V30 604 C 50.2235 2.33368 -4.77193 0
M  V30 605 C 49.2625 1.7787 -5.85686 0
M  V30 606 N 48.3995 2.84263 -6.4198 0
M  V30 607 H 53.2395 -0.0272867 -2.97988 0
M  V30 608 H 50.7765 -0.0252363 -1.47078 0
M  V30 609 H 52.7345 2.41675 -3.40072 0
M  V30 610 H 51.3645 2.29947 -2.26548 0
M  V30 611 H 50.4165 0.413223 -3.78149 0
M  V30 612 H 51.7285 0.759417 -4.92985 0
M  V30 613 H 50.8825 3.09761 -5.21664 0
M  V30 614 H 49.6215 2.8132 -3.98385 0
M  V30 615 H 48.6265 0.99968 -5.40635 0
M  V30 616 H 49.8515 1.30816 -6.66381 0
M  V30 617 H 47.7975 3.31541 -5.66053 0
M  V30 618 H 47.7145 2.44149 -7.15491 0
M  V30 619 H 48.9825 3.6054 -6.91109 0
M  V30 620 N 53.2116 1.57565 -0.0334293 0
M  V30 621 C 54.4576 1.92262 0.645226 0
M  V30 622 C 54.7906 0.910543 1.71531 0
M  V30 623 O 54.0656 -0.066099 1.94388 0
M  V30 624 C 54.3486 3.37422 1.2577 0
M  V30 625 C 54.2016 4.49369 0.196891 0
M  V30 626 C 55.5206 3.82628 2.17449 0
M  V30 627 H 52.6396 0.699171 0.233085 0
M  V30 628 H 55.2816 1.89779 -0.0915694 0
M  V30 629 H 53.4316 3.39669 1.88566 0
M  V30 630 H 55.1036 4.59254 -0.433962 0
M  V30 631 H 53.3466 4.31168 -0.477137 0
M  V30 632 H 54.0176 5.47978 0.665124 0
M  V30 633 H 56.4936 3.82145 1.64634 0
M  V30 634 H 55.3696 4.84883 2.57254 0
M  V30 635 H 55.6306 3.18376 3.0674 0
M  V30 636 N 54.6897 -0.239769 1.55765 0
M  V30 637 C 55.9387 -0.964754 1.77131 0
M  V30 638 C 56.2517 -1.86213 0.59868 0
M  V30 639 O 57.4577 -2.6244 0.695522 0
M  V30 640 C 55.9137 -1.76552 3.1362 0
M  V30 641 C 55.5217 -0.915185 4.38553 0
M  V30 642 C 57.2657 -2.48281 3.44321 0
M  V30 643 C 55.1727 -1.71225 5.66071 0
M  V30 644 H 54.1027 -0.363953 0.660344 0
M  V30 645 H 56.7537 -0.219181 1.82186 0
M  V30 646 H 55.1357 -2.55331 3.02691 0
M  V30 647 H 56.3097 -0.169217 4.60489 0
M  V30 648 H 54.6247 -0.310889 4.15238 0
M  V30 649 H 57.2217 -3.08382 4.36812 0
M  V30 650 H 57.5647 -3.20256 2.65973 0
M  V30 651 H 58.0977 -1.76507 3.56497 0
M  V30 652 H 54.8367 -1.03612 6.4726 0
M  V30 653 H 54.3567 -2.43331 5.48224 0
M  V30 654 H 56.0357 -2.27758 6.05587 0
M  V30 655 N 56.1678 -1.49265 -0.50573 0
M  V30 656 C 57.4138 -1.58748 -1.26202 0
M  V30 657 C 57.7468 -0.271227 -1.92297 0
M  V30 658 O 57.0218 0.724831 -1.80489 0
M  V30 659 C 57.3048 -2.74332 -2.33268 0
M  V30 660 C 57.1578 -4.15737 -1.71705 0
M  V30 661 C 58.4768 -2.85576 -3.34865 0
M  V30 662 H 55.5958 -0.577826 -0.457478 0
M  V30 663 H 58.2378 -1.81532 -0.560897 0
M  V30 664 H 56.3878 -2.55036 -2.93068 0
M  V30 665 H 58.0598 -4.46537 -1.15769 0
M  V30 666 H 56.3028 -4.21605 -1.02135 0
M  V30 667 H 56.9738 -4.92477 -2.49341 0
M  V30 668 H 59.4498 -3.03127 -2.8505 0
M  V30 669 H 58.3258 -3.68135 -4.07146 0
M  V30 670 H 58.5868 -1.94732 -3.96903 0
M  V30 671 N 57.6459 0.756429 -1.3826 0
M  V30 672 C 58.8739 1.54565 -1.3754 0
M  V30 673 C 59.2889 1.88767 0.0355331 0
M  V30 674 O 58.6459 1.52572 1.0014 0
M  V30 675 C 58.6969 2.84654 -2.22833 0
M  V30 676 O 58.4179 2.51912 -3.5843 0
M  V30 677 C 59.9189 3.78807 -2.30261 0
M  V30 678 H 57.1389 0.478353 -0.470553 0
M  V30 679 H 59.6829 0.936381 -1.81803 0
M  V30 680 H 57.8379 3.41965 -1.8204 0
M  V30 681 H 58.2519 3.35325 -4.03308 0
M  V30 682 H 59.7259 4.67045 -2.94233 0
M  V30 683 H 60.2029 4.19038 -1.31545 0
M  V30 684 H 60.8089 3.2742 -2.71433 0
M  V30 685 N 59.124 1.23083 0.984299 0
M  V30 686 C 60.372 1.05848 1.72165 0
M  V30 687 C 60.693 -0.406049 1.90726 0
M  V30 688 O 59.963 -1.29139 1.47309 0
M  V30 689 H 58.543 0.388685 0.637913 0
M  V30 690 H 61.205 1.54736 1.18503 0
M  V30 691 H 60.301 1.54327 2.71274 0
M  V30 692 N 60.6021 -1.18246 1.0419 0
M  V30 693 C 61.5651 -2.20128 0.638452 0
M  V30 694 C 62.5651 -1.57885 -0.304805 0
M  V30 695 O 63.7551 -1.73967 -0.0900369 0
M  V30 696 C 60.8871 -3.4084 -0.0637751 0
M  V30 697 H 62.0801 -2.57336 1.54007 0
M  V30 698 H 59.6331 -1.32152 0.834598 0
M  V30 699 H 60.3681 -3.09166 -0.979136 0
M  V30 700 H 60.1531 -3.8726 0.614198 0
M  V30 701 H 61.6431 -4.16274 -0.332512 0
M  V30 702 N 62.0802 -0.821533 -1.34494 0
M  V30 703 C 63.3052 -0.420873 -2.03085 0
M  V30 704 C 63.7302 0.964915 -1.61465 0
M  V30 705 O 63.0882 1.62763 -0.798607 0
M  V30 706 C 63.1362 -0.529414 -3.56693 0
M  V30 707 O 62.2402 0.451302 -4.09923 0
M  V30 708 H 61.5812 -0.173489 -0.640935 0
M  V30 709 H 64.1112 -1.11157 -1.71771 0
M  V30 710 H 64.1212 -0.404671 -4.05988 0
M  V30 711 H 62.7962 -1.54014 -3.86332 0
M  V30 712 H 61.3732 0.285558 -3.71805 0
M  V30 713 N 63.5583 1.46682 -0.576371 0
M  V30 714 C 64.5053 2.30241 0.160499 0
M  V30 715 C 65.4753 1.40233 0.890162 0
M  V30 716 O 66.6603 1.69186 0.882084 0
M  V30 717 C 63.8003 3.24578 1.1723 0
M  V30 718 C 62.9133 4.29684 0.446736 0
M  V30 719 C 62.0483 5.11154 1.44551 0
M  V30 720 C 61.0873 6.08015 0.70599 0
M  V30 721 N 60.2243 6.82376 1.65251 0
M  V30 722 H 65.0643 2.92727 -0.558127 0
M  V30 723 H 62.6013 1.44272 -0.287056 0
M  V30 724 H 64.5593 3.77711 1.77172 0
M  V30 725 H 63.1893 2.63916 1.85872 0
M  V30 726 H 62.2413 3.79458 -0.267594 0
M  V30 727 H 63.5533 4.98626 -0.131686 0
M  V30 728 H 62.7073 5.68533 2.11791 0
M  V30 729 H 61.4463 4.42158 2.05786 0
M  V30 730 H 60.4513 5.49796 0.0197725 0
M  V30 731 H 61.6763 6.79028 0.09912 0
M  V30 732 H 59.6223 6.16094 2.25308 0
M  V30 733 H 59.5393 7.47556 1.12673 0
M  V30 734 H 60.8073 7.44316 2.31546 0
M  V30 735 N 65.0364 0.313813 1.54444 0
M  V30 736 C 66.2844 -0.291099 1.99993 0
M  V30 737 C 66.6054 -1.53418 1.20366 0
M  V30 738 O 65.8754 -1.93544 0.302927 0
M  V30 739 H 64.4554 -0.110552 0.738774 0
M  V30 740 H 67.1174 0.428106 1.9014 0
M  V30 741 H 66.2134 -0.554268 3.07139 0
M  V30 742 N 66.5145 -1.57545 0.0417849 0
M  V30 743 C 67.7635 -1.91494 -0.633492 0
M  V30 744 C 68.0765 -0.921084 -1.72556 0
M  V30 745 O 69.2825 -1.15228 -2.45835 0
M  V30 746 C 67.7385 -3.40072 -1.17808 0
M  V30 747 C 67.3465 -4.47843 -0.118633 0
M  V30 748 C 69.0905 -3.8307 -1.82915 0
M  V30 749 C 66.9975 -5.87529 -0.675578 0
M  V30 750 H 65.9275 -0.714653 -0.24039 0
M  V30 751 H 68.5785 -1.83175 0.109148 0
M  V30 752 H 66.9605 -3.43364 -1.97274 0
M  V30 753 H 68.1345 -4.56128 0.654494 0
M  V30 754 H 66.4495 -4.14128 0.434414 0
M  V30 755 H 69.0465 -4.84794 -2.25563 0
M  V30 756 H 69.3895 -3.1881 -2.67705 0
M  V30 757 H 69.9225 -3.82255 -1.10119 0
M  V30 758 H 66.6615 -6.55362 0.134475 0
M  V30 759 H 66.1815 -5.82824 -1.4169 0
M  V30 760 H 67.8605 -6.36491 -1.1614 0
M  V30 761 N 67.9926 0.231505 -1.5589 0
M  V30 762 C 69.2406 0.955461 -1.78088 0
M  V30 763 C 69.5616 1.85262 -0.608533 0
M  V30 764 O 68.8316 1.92277 0.375035 0
M  V30 765 H 67.4116 0.355787 -0.656829 0
M  V30 766 H 70.0736 0.245751 -1.93344 0
M  V30 767 H 69.1696 1.56814 -2.69844 0
M  V30 768 N 69.4707 1.49531 0.497807 0
M  V30 769 C 70.8867 1.36365 0.829266 0
M  V30 770 C 71.0867 0.399184 1.97506 0
M  V30 771 O 70.1427 -0.167977 2.51941 0
M  V30 772 C 71.4557 2.77153 1.16647 0
M  V30 773 C 73.0037 2.85877 1.27449 0
M  V30 774 C 73.4787 4.2744 1.64497 0
M  V30 775 N 74.9697 4.30265 1.7154 0
M  V30 776 C 75.7047 5.3677 2.01656 0
M  V30 777 N 75.2007 6.53516 2.29976 0
M  V30 778 N 76.9937 5.24189 2.02934 0
M  V30 779 H 69.1447 2.10831 -0.257703 0
M  V30 780 H 71.4077 0.946534 -0.0527091 0
M  V30 781 H 71.1137 3.49442 0.397872 0
M  V30 782 H 70.9877 3.12722 2.10915 0
M  V30 783 H 73.3747 2.13824 2.0338 0
M  V30 784 H 73.4557 2.53887 0.312244 0
M  V30 785 H 73.0997 5.00021 0.891151 0
M  V30 786 H 73.0297 4.56896 2.61827 0
M  V30 787 H 75.5207 3.4607 1.51802 0
M  V30 788 H 75.8337 7.30506 2.52153 0
M  V30 789 H 74.1787 6.56737 2.27425 0
M  V30 790 H 77.3697 4.31988 1.80289 0
M  V30 791 H 77.5427 6.07286 2.26071 0
M  V30 792 N 70.9488 -0.749086 1.3866 0
M  V30 793 C 71.8588 -1.89358 1.38494 0
M  V30 794 C 72.8748 -1.71708 0.281476 0
M  V30 795 O 74.0508 -1.94554 0.520643 0
M  V30 796 C 71.1158 -3.24782 1.21316 0
M  V30 797 C 70.1768 -3.54926 2.41508 0
M  V30 798 C 69.4098 -4.83888 2.2514 0
M  V30 799 O 69.6328 -5.56592 1.24746 0
M  V30 800 O 68.5668 -5.13612 3.13826 0
M  V30 801 H 72.3928 -1.92452 2.34938 0
M  V30 802 H 69.9778 -0.894981 1.19626 0
M  V30 803 H 71.8598 -4.05739 1.13814 0
M  V30 804 H 70.5348 -3.2249 0.279592 0
M  V30 805 H 69.4418 -2.74112 2.54585 0
M  V30 806 H 70.7748 -3.61983 3.3351 0
M  V30 807 N 72.4269 -1.23603 -0.977757 0
M  V30 808 C 73.3599 -0.962772 -2.06896 0
M  V30 809 C 74.3379 0.0998743 -1.62293 0
M  V30 810 O 75.5219 -0.0349421 -1.88468 0
M  V30 811 C 72.6489 -0.45095 -3.35685 0
M  V30 812 C 71.6949 -1.50061 -3.99229 0
M  V30 813 S 72.5279 -3.07884 -4.38142 0
M  V30 814 C 73.6839 -2.58378 -5.7008 0
M  V30 815 H 73.9169 -1.88677 -2.29757 0
M  V30 816 H 71.4499 -1.06876 -1.11431 0
M  V30 817 H 73.4079 -0.162261 -4.10179 0
M  V30 818 H 72.0689 0.452179 -3.10828 0
M  V30 819 H 71.2619 -1.09269 -4.92013 0
M  V30 820 H 70.8639 -1.73878 -3.31123 0
M  V30 821 H 73.1559 -2.00563 -6.47133 0
M  V30 822 H 74.0989 -3.49711 -6.15717 0
M  V30 823 H 74.5069 -1.99143 -5.28207 0
M  V30 824 N 73.905 1.17692 -1.04816 0
M  V30 825 C 74.868 2.19787 -0.650117 0
M  V30 826 C 75.868 1.58044 0.296427 0
M  V30 827 O 77.058 1.74012 0.0808097 0
M  V30 828 C 74.19 3.40869 0.0456987 0
M  V30 829 H 75.383 2.56516 -1.5537 0
M  V30 830 H 72.936 1.31708 -0.841594 0
M  V30 831 H 73.671 3.09681 0.962726 0
M  V30 832 H 73.456 3.86928 -0.634727 0
M  V30 833 H 74.946 4.16445 0.310432 0
M  V30 834 N 75.3831 0.828654 1.34056 0
M  V30 835 C 76.6131 0.431993 2.02033 0
M  V30 836 C 77.0211 -0.96844 1.62536 0
M  V30 837 O 76.3641 -1.6391 0.829408 0
M  V30 838 C 76.4261 0.461224 3.56529 0
M  V30 839 C 76.0901 1.81599 4.1937 0
M  V30 840 C 77.0871 2.7777 4.39477 0
M  V30 841 C 74.7721 2.10604 4.56017 0
M  V30 842 C 76.7661 4.01115 4.95364 0
M  V30 843 C 74.4531 3.34207 5.11614 0
M  V30 844 C 75.4511 4.2928 5.31232 0
M  V30 845 O 75.1391 5.50699 5.8565 0
M  V30 846 H 74.8711 0.170943 0.654029 0
M  V30 847 H 77.4251 1.11988 1.72185 0
M  V30 848 H 75.6551 -0.283388 3.8566 0
M  V30 849 H 77.3441 0.0838149 4.05813 0
M  V30 850 H 78.1101 2.56659 4.11523 0
M  V30 851 H 73.9891 1.37402 4.40047 0
M  V30 852 H 77.5331 4.75333 5.10592 0
M  V30 853 H 73.4301 3.55179 5.38997 0
M  V30 854 H 74.1981 5.52298 6.04077 0
M  V30 855 N 76.8612 -1.46375 0.584142 0
M  V30 856 C 77.8112 -2.27371 -0.169232 0
M  V30 857 C 78.7952 -1.35955 -0.860523 0
M  V30 858 O 79.9872 -1.60119 -0.754382 0
M  V30 859 C 77.1162 -3.22334 -1.18134 0
M  V30 860 C 76.2022 -4.21235 -0.492088 0
M  V30 861 N 76.5932 -5.03766 0.453129 0
M  V30 862 C 74.8912 -4.39773 -0.742652 0
M  V30 863 C 75.5922 -5.75366 0.85609 0
M  V30 864 N 74.5682 -5.43214 0.204926 0
M  V30 865 H 78.3702 -2.88572 0.557097 0
M  V30 866 H 75.8842 -1.57242 0.406042 0
M  V30 867 H 77.8812 -3.79071 -1.73525 0
M  V30 868 H 76.5412 -2.62693 -1.90847 0
M  V30 869 H 77.5522 -5.11227 0.828723 0
M  V30 870 H 74.2292 -3.91279 -1.45625 0
M  V30 871 H 75.6192 -6.5172 1.63434 0
M  V30 872 N 78.3393 -0.321999 -1.54275 0
M  V30 873 C 79.2693 0.537411 -2.27231 0
M  V30 874 C 80.2503 1.12064 -1.27968 0
M  V30 875 O 81.4353 1.14606 -1.56777 0
M  V30 876 C 78.5653 1.69919 -3.02894 0
M  V30 877 C 77.5193 1.24534 -4.09482 0
M  V30 878 C 76.8453 2.49394 -4.72977 0
M  V30 879 C 78.1453 0.361335 -5.21049 0
M  V30 880 H 79.8393 -0.0711406 -2.99315 0
M  V30 881 H 77.3853 -0.0356555 -1.43956 0
M  V30 882 H 79.3383 2.30668 -3.52662 0
M  V30 883 H 78.0623 2.33431 -2.28424 0
M  V30 884 H 76.7213 0.660782 -3.60596 0
M  V30 885 H 76.3693 3.11265 -3.95124 0
M  V30 886 H 76.0693 2.19718 -5.44975 0
M  V30 887 H 77.5933 3.10908 -5.25517 0
M  V30 888 H 79.0073 0.875072 -5.66582 0
M  V30 889 H 77.4043 0.157428 -5.99893 0
M  V30 890 H 78.4743 -0.60822 -4.8107 0
M  V30 891 N 79.8174 1.5752 -0.0501392 0
M  V30 892 C 80.7804 2.1037 0.909786 0
M  V30 893 C 81.7804 1.02308 1.24056 0
M  V30 894 O 82.9704 1.28385 1.17741 0
M  V30 895 C 80.1024 2.58708 2.21998 0
M  V30 896 H 81.2954 2.96479 0.451665 0
M  V30 897 H 78.8484 1.55038 0.198248 0
M  V30 898 H 79.5834 1.75989 2.72394 0
M  V30 899 H 79.3684 3.37675 1.99295 0
M  V30 900 H 80.8584 2.99747 2.9076 0
M  V30 901 N 81.2955 -0.223234 1.56011 0
M  V30 902 C 82.2425 -1.27664 1.92277 0
M  V30 903 C 83.2125 -1.46659 0.779763 0
M  V30 904 O 84.3975 -1.60256 1.03551 0
M  V30 905 C 81.5375 -2.62234 2.24338 0
M  V30 906 C 80.6505 -2.51051 3.51564 0
M  V30 907 C 79.7855 -3.78133 3.7308 0
M  V30 908 C 78.8245 -3.61665 4.93827 0
M  V30 909 N 77.9615 -4.80693 5.11741 0
M  V30 910 H 82.8015 -0.960358 2.82101 0
M  V30 911 H 80.3385 -0.462901 1.39627 0
M  V30 912 H 82.2965 -3.40596 2.40936 0
M  V30 913 H 80.9265 -2.91961 1.3769 0
M  V30 914 H 79.9785 -1.64132 3.43169 0
M  V30 915 H 81.2905 -2.34803 4.40079 0
M  V30 916 H 80.4445 -4.64938 3.89766 0
M  V30 917 H 79.1835 -3.97304 2.82844 0
M  V30 918 H 78.1885 -2.73244 4.77093 0
M  V30 919 H 79.4135 -3.43966 5.85546 0
M  V30 920 H 77.3595 -5.00181 4.24446 0
M  V30 921 H 77.2765 -4.67165 5.94384 0
M  V30 922 H 78.5445 -5.6893 5.3286 0
M  V30 923 N 82.7736 -1.49793 -0.48987 0
M  V30 924 C 83.7066 -1.61898 -1.60823 0
M  V30 925 C 84.6846 -0.467651 -1.5573 0
M  V30 926 O 85.8686 -0.684682 -1.75626 0
M  V30 927 C 82.9956 -1.58422 -2.99366 0
M  V30 928 C 82.0416 -2.78889 -3.22682 0
M  V30 929 S 82.8746 -4.40429 -3.04602 0
M  V30 930 C 84.0306 -4.39617 -4.4552 0
M  V30 931 H 84.2636 -2.56502 -1.50312 0
M  V30 932 H 81.7966 -1.38822 -0.675849 0
M  V30 933 H 83.7546 -1.57103 -3.79248 0
M  V30 934 H 82.4156 -0.650866 -3.07283 0
M  V30 935 H 81.6086 -2.72708 -4.23847 0
M  V30 936 H 81.2106 -2.77678 -2.50541 0
M  V30 937 H 83.5026 -4.12022 -5.37814 0
M  V30 938 H 84.4456 -5.41097 -4.56749 0
M  V30 939 H 84.8536 -3.69554 -4.2672 0
M  V30 940 N 84.2517 0.741722 -1.39055 0
M  V30 941 C 85.4997 1.49818 -1.35643 0
M  V30 942 C 85.8207 1.94938 0.0491642 0
M  V30 943 O 85.0907 1.68505 0.999141 0
M  V30 944 H 83.6707 0.555755 -0.499144 0
M  V30 945 H 86.3327 0.880957 -1.73854 0
M  V30 946 H 85.4287 2.38348 -2.01486 0
M  V30 947 N 85.7298 1.2412 0.971189 0
M  V30 948 C 86.6928 1.03156 2.04674 0
M  V30 949 C 87.6928 -0.00990322 1.60797 0
M  V30 950 O 88.8828 0.230729 1.72665 0
M  V30 951 C 86.0148 0.562765 3.36223 0
M  V30 952 H 87.2078 1.98614 2.24705 0
M  V30 953 H 84.7608 1.06293 1.14593 0
M  V30 954 H 85.4958 -0.395176 3.21883 0
M  V30 955 H 85.2808 1.31441 3.69413 0
M  V30 956 H 86.7708 0.437015 4.15307 0
M  V30 957 N 87.2079 -1.17134 1.05439 0
M  V30 958 C 88.1579 -2.1919 0.627675 0
M  V30 959 C 89.1419 -1.57328 -0.337147 0
M  V30 960 O 90.3339 -1.76329 -0.153976 0
M  V30 961 C 87.4629 -3.43299 0.00651435 0
M  V30 962 C 86.5489 -4.12255 0.995312 0
M  V30 963 N 86.9399 -4.56997 2.16765 0
M  V30 964 C 85.2379 -4.38316 0.824336 0
M  V30 965 C 85.9389 -5.10239 2.7934 0
M  V30 966 N 84.9149 -5.02595 2.07122 0
M  V30 967 H 88.7169 -2.5149 1.52086 0
M  V30 968 H 86.2309 -1.33491 0.924868 0
M  V30 969 H 88.2279 -4.15693 -0.316965 0
M  V30 970 H 86.8879 -3.1249 -0.882033 0
M  V30 971 H 87.8989 -4.51006 2.54587 0
M  V30 972 H 84.5759 -4.17498 -0.0129526 0
M  V30 973 H 85.9659 -5.54961 3.78772 0
M  V30 974 N 88.686 -0.835752 -1.33615 0
M  V30 975 C 89.932 -0.430596 -1.98176 0
M  V30 976 C 90.265 1.00684 -1.66061 0
M  V30 977 O 89.54 1.70339 -0.938877 0
M  V30 978 C 89.823 -0.648065 -3.5422 0
M  V30 979 C 89.676 -2.13255 -3.96033 0
M  V30 980 C 90.995 -0.0922113 -4.40003 0
M  V30 981 H 88.114 -0.157924 -0.719881 0
M  V30 982 H 90.756 -1.05069 -1.58305 0
M  V30 983 H 88.906 -0.120237 -3.88314 0
M  V30 984 H 90.578 -2.725 -3.72211 0
M  V30 985 H 88.821 -2.61823 -3.45878 0
M  V30 986 H 89.492 -2.23547 -5.04708 0
M  V30 987 H 91.968 -0.543343 -4.12537 0
M  V30 988 H 90.844 -0.274083 -5.48215 0
M  V30 989 H 91.105 1.00378 -4.30554 0
M  V30 990 N 90.1641 1.46063 -0.591896 0
M  V30 991 C 91.4101 2.02638 -0.0811191 0
M  V30 992 C 91.7431 1.4613 1.27905 0
M  V30 993 O 91.0181 0.629908 1.84017 0
M  V30 994 C 91.3011 3.60091 -0.0252436 0
M  V30 995 C 91.1541 4.26965 -1.41496 0
M  V30 996 C 92.4731 4.3496 0.670685 0
M  V30 997 H 89.5921 0.73635 -0.0309524 0
M  V30 998 H 92.2341 1.741 -0.760859 0
M  V30 999 H 90.3841 3.84535 0.553624 0
M  V30 1000 H 92.0561 4.13756 -2.0397 0
M  V30 1001 H 90.2991 3.85971 -1.98011 0
M  V30 1002 H 90.9701 5.35781 -1.32825 0
M  V30 1003 H 93.4461 4.15716 0.178825 0
M  V30 1004 H 92.3221 5.44686 0.678837 0
M  V30 1005 H 92.5831 4.06685 1.73379 0
M  V30 1006 N 91.6422 0.330177 1.54103 0
M  V30 1007 C 92.8882 -0.270806 2.00984 0
M  V30 1008 C 93.2212 -1.51265 1.21789 0
M  V30 1009 O 92.4962 -1.92142 0.301927 0
M  V30 1010 C 92.7792 -0.598339 3.55094 0
M  V30 1011 C 92.6322 0.654674 4.4501 0
M  V30 1012 C 93.9512 -1.41334 4.16789 0
M  V30 1013 H 91.0702 -0.0969531 0.730595 0
M  V30 1014 H 93.7122 0.448066 1.84641 0
M  V30 1015 H 91.8622 -1.21078 3.69151 0
M  V30 1016 H 93.5342 1.29285 4.42813 0
M  V30 1017 H 91.7772 1.28224 4.14416 0
M  V30 1018 H 92.4482 0.380944 5.50684 0
M  V30 1019 H 94.9242 -0.895597 4.06347 0
M  V30 1020 H 93.8002 -1.61127 5.24718 0
M  V30 1021 H 94.0612 -2.41146 3.70541 0
M  V30 1022 N 93.1203 -1.57491 0.0584922 0
M  V30 1023 C 94.3483 -1.97296 -0.623037 0
M  V30 1024 C 94.7633 -0.936338 -1.63946 0
M  V30 1025 O 94.1203 0.0785981 -1.82331 0
M  V30 1026 C 94.1713 -3.37183 -1.30345 0
M  V30 1027 O 93.8923 -4.36872 -0.32773 0
M  V30 1028 C 95.3933 -3.91788 -2.07406 0
M  V30 1029 H 92.6133 -0.649153 -0.169826 0
M  V30 1030 H 95.1573 -2.04106 0.12696 0
M  V30 1031 H 93.3123 -3.31502 -2.00463 0
M  V30 1032 H 93.7263 -5.18141 -0.814269 0
M  V30 1033 H 95.2003 -4.91926 -2.50425 0
M  V30 1034 H 95.6773 -3.27609 -2.92521 0
M  V30 1035 H 96.2833 -4.00829 -1.42184 0
M  V30 1036 N 94.5984 0.214957 -1.56127 0
M  V30 1037 C 95.5614 1.24997 -1.92116 0
M  V30 1038 C 96.5614 1.39467 -0.800344 0
M  V30 1039 O 97.7514 1.37619 -1.06802 0
M  V30 1040 C 94.8834 2.62271 -2.17777 0
M  V30 1041 H 96.0764 0.942875 -2.84693 0
M  V30 1042 H 93.6294 0.455654 -1.49511 0
M  V30 1043 H 94.3644 2.98068 -1.27773 0
M  V30 1044 H 94.1494 2.53143 -2.99434 0
M  V30 1045 H 95.6394 3.36946 -2.46693 0
M  V30 1046 N 96.0765 1.50051 0.48192 0
M  V30 1047 C 97.4925 1.37237 0.814756 0
M  V30 1048 C 97.6925 0.420109 1.97072 0
M  V30 1049 O 96.7485 -0.141246 2.52105 0
M  V30 1050 C 98.0615 2.78375 1.13701 0
M  V30 1051 C 99.6095 2.87213 1.2441 0
M  V30 1052 C 100.084 4.29161 1.59954 0
M  V30 1053 N 101.575 4.32061 1.66967 0
M  V30 1054 C 102.31 5.38879 1.95952 0
M  V30 1055 N 101.806 6.55918 2.23031 0
M  V30 1056 N 103.599 5.26312 1.97363 0
M  V30 1057 H 95.7505 2.10546 -0.28005 0
M  V30 1058 H 98.0135 0.945921 -0.0627454 0
M  V30 1059 H 97.7195 3.49845 0.360787 0
M  V30 1060 H 97.5935 3.14941 2.07586 0
M  V30 1061 H 99.9805 2.15969 2.01101 0
M  V30 1062 H 100.061 2.54204 0.285299 0
M  V30 1063 H 99.7055 5.00938 0.838067 0
M  V30 1064 H 99.6355 4.59648 2.56966 0
M  V30 1065 H 102.126 3.47661 1.48123 0
M  V30 1066 H 102.439 7.33139 2.44391 0
M  V30 1067 H 100.784 6.59112 2.20447 0
M  V30 1068 H 103.975 4.33876 1.75697 0
M  V30 1069 H 104.148 6.09649 2.19618 0
M  V30 1070 N 97.5546 -0.734337 1.39446 0
M  V30 1071 C 98.7796 -1.52866 1.40167 0
M  V30 1072 C 99.2046 -1.881 -0.00171513 0
M  V30 1073 O 98.5626 -1.51957 -0.988879 0
M  V30 1074 C 98.6106 -2.79235 2.28167 0
M  V30 1075 O 97.7146 -3.75185 1.71201 0
M  V30 1076 H 97.0556 -0.461618 0.477289 0
M  V30 1077 H 99.5856 -0.905949 1.8345 0
M  V30 1078 H 99.5956 -3.27963 2.42702 0
M  V30 1079 H 98.2706 -2.52923 3.30156 0
M  V30 1080 H 96.8476 -3.33958 1.65912 0
M  V30 1081 N 99.0327 -1.24633 -0.964593 0
M  V30 1082 C 99.9797 -1.04144 -2.05968 0
M  V30 1083 C 100.95 0.046262 -1.66036 0
M  V30 1084 O 102.135 -0.108972 -1.90489 0
M  V30 1085 C 99.2747 -0.65563 -3.38815 0
M  V30 1086 C 98.3877 -1.81714 -3.91923 0
M  V30 1087 C 97.5227 -1.37662 -5.13052 0
M  V30 1088 C 96.5617 -2.50788 -5.58365 0
M  V30 1089 N 95.6987 -2.07582 -6.70712 0
M  V30 1090 H 100.539 -1.9787 -2.22827 0
M  V30 1091 H 98.0757 -0.9855 -1.09208 0
M  V30 1092 H 100.034 -0.412954 -4.15151 0
M  V30 1093 H 98.6637 0.244627 -3.21872 0
M  V30 1094 H 97.7157 -2.1734 -3.12198 0
M  V30 1095 H 99.0277 -2.66705 -4.21509 0
M  V30 1096 H 98.1817 -1.093 -5.96773 0
M  V30 1097 H 96.9207 -0.497293 -4.85158 0
M  V30 1098 H 95.9257 -2.79906 -4.73215 0
M  V30 1099 H 97.1507 -3.39283 -5.88272 0
M  V30 1100 H 95.0967 -1.22051 -6.44546 0
M  V30 1101 H 95.0137 -2.86125 -6.99763 0
M  V30 1102 H 96.2817 -1.82369 -7.57867 0
M  V30 1103 N 100.511 1.16574 -1.06058 0
M  V30 1104 C 101.421 2.2452 -0.680282 0
M  V30 1105 C 102.437 1.71348 0.302604 0
M  V30 1106 O 103.613 2.00822 0.152513 0
M  V30 1107 C 100.678 3.46629 -0.0700315 0
M  V30 1108 C 99.7388 4.14849 -1.10448 0
M  V30 1109 C 98.9718 5.31129 -0.523256 0
M  V30 1110 O 99.1948 5.66514 0.664709 0
M  V30 1111 O 98.1288 5.88526 -1.26179 0
M  V30 1112 H 101.955 2.59355 -1.58015 0
M  V30 1113 H 99.5398 1.24043 -0.832694 0
M  V30 1114 H 101.422 4.20543 0.268667 0
M  V30 1115 H 100.097 3.13573 0.803353 0
M  V30 1116 H 99.0038 3.42916 -1.49532 0
M  V30 1117 H 100.337 4.51954 -1.94931 0
M  V30 1118 N 101.989 0.842826 1.3317 0
M  V30 1119 C 103.217 0.454055 2.01856 0
M  V30 1120 C 103.632 -0.94587 1.63397 0
M  V30 1121 O 102.989 -1.61534 0.849302 0
M  V30 1122 C 103.04 0.569715 3.56982 0
M  V30 1123 O 102.761 1.91448 3.94055 0
M  V30 1124 C 104.262 0.178412 4.42941 0
M  V30 1125 H 101.482 0.17979 0.646465 0
M  V30 1126 H 104.026 1.1365 1.70012 0
M  V30 1127 H 102.181 -0.0648587 3.87346 0
M  V30 1128 H 102.595 1.90282 4.88767 0
M  V30 1129 H 104.069 0.310376 5.51127 0
M  V30 1130 H 104.546 -0.880056 4.30293 0
M  V30 1131 H 105.152 0.787579 4.17944 0
M  V30 1132 N 103.467 -1.45747 0.599634 0
M  V30 1133 C 104.397 -2.33235 -0.111306 0
M  V30 1134 C 105.378 -1.46359 -0.866781 0
M  V30 1135 O 106.563 -1.75146 -0.838904 0
M  V30 1136 C 103.693 -3.28932 -1.11451 0
M  V30 1137 C 102.647 -4.25381 -0.472772 0
M  V30 1138 C 101.973 -5.1071 -1.58365 0
M  V30 1139 C 103.273 -5.18831 0.600948 0
M  V30 1140 H 104.967 -2.92927 0.61919 0
M  V30 1141 H 102.513 -1.40857 0.299215 0
M  V30 1142 H 104.466 -3.89002 -1.62036 0
M  V30 1143 H 103.19 -2.67381 -1.8755 0
M  V30 1144 H 101.849 -3.66598 0.0121472 0
M  V30 1145 H 101.497 -4.45533 -2.33473 0
M  V30 1146 H 101.197 -5.7604 -1.15982 0
M  V30 1147 H 102.721 -5.73647 -2.09194 0
M  V30 1148 H 104.135 -5.73019 0.179491 0
M  V30 1149 H 102.532 -5.92595 0.946076 0
M  V30 1150 H 103.602 -4.6174 1.48068 0
M  V30 1151 N 104.945 -0.338344 -1.53925 0
M  V30 1152 C 105.877 0.555117 -2.22376 0
M  V30 1153 C 106.89 1.06812 -1.22862 0
M  V30 1154 O 108.079 0.979163 -1.49247 0
M  V30 1155 C 105.179 1.77609 -2.88631 0
M  V30 1156 C 104.352 1.39927 -4.14414 0
M  V30 1157 C 103.411 2.47936 -4.64127 0
M  V30 1158 O 102.437 2.11461 -5.28463 0
M  V30 1159 N 103.639 3.79107 -4.39612 0
M  V30 1160 H 106.404 -0.0310778 -2.99684 0
M  V30 1161 H 103.965 -0.162226 -1.61085 0
M  V30 1162 H 105.957 2.49287 -3.18807 0
M  V30 1163 H 104.527 2.26978 -2.14941 0
M  V30 1164 H 103.747 0.513481 -3.90841 0
M  V30 1165 H 105.035 1.12341 -4.96243 0
M  V30 1166 H 104.433 4.11531 -3.88148 0
M  V30 1167 H 102.99 4.4697 -4.74406 0
M  V30 1168 N 106.423 1.57458 -0.0668435 0
M  V30 1169 C 107.37 2.12439 0.902122 0
M  V30 1170 C 108.34 1.03565 1.2986 0
M  V30 1171 O 109.525 1.312 1.38532 0
M  V30 1172 C 106.665 2.6865 2.16614 0
M  V30 1173 C 105.778 3.91663 1.82274 0
M  V30 1174 C 104.913 4.36134 3.0325 0
M  V30 1175 C 103.952 5.51808 2.64904 0
M  V30 1176 N 103.089 5.9126 3.78624 0
M  V30 1177 H 107.929 2.94934 0.426382 0
M  V30 1178 H 105.466 1.4575 0.198819 0
M  V30 1179 H 107.424 2.99346 2.90599 0
M  V30 1180 H 106.054 1.88928 2.61737 0
M  V30 1181 H 105.106 3.6746 0.983719 0
M  V30 1182 H 106.418 4.75693 1.50059 0
M  V30 1183 H 105.572 4.68465 3.85519 0
M  V30 1184 H 104.311 3.50948 3.38655 0
M  V30 1185 H 103.316 5.19133 1.81055 0
M  V30 1186 H 104.541 6.38722 2.30675 0
M  V30 1187 H 102.487 5.09024 4.138 0
M  V30 1188 H 102.404 6.70018 3.5016 0
M  V30 1189 H 103.672 6.28212 4.61486 0
M  V30 1190 N 107.901 -0.206675 1.56239 0
M  V30 1191 C 109.147 -0.930218 1.80208 0
M  V30 1192 C 109.48 -1.83387 0.638981 0
M  V30 1193 O 108.755 -1.91119 -0.361066 0
M  V30 1194 C 109.038 -1.75641 3.1436 0
M  V30 1195 C 108.891 -0.878257 4.41142 0
M  V30 1196 C 110.21 -2.73129 3.45092 0
M  V30 1197 H 107.329 -0.336742 0.655571 0
M  V30 1198 H 109.971 -0.198222 1.88963 0
M  V30 1199 H 108.121 -2.38048 3.07027 0
M  V30 1200 H 109.793 -0.269787 4.6051 0
M  V30 1201 H 108.036 -0.184385 4.33408 0
M  V30 1202 H 108.707 -1.49106 5.3148 0
M  V30 1203 H 111.183 -2.20856 3.52649 0
M  V30 1204 H 110.059 -3.28028 4.40101 0
M  V30 1205 H 110.32 -3.51606 2.68003 0
M  V30 1206 N 109.379 -1.50304 -0.473955 0
M  V30 1207 C 110.625 -1.61389 -1.22806 0
M  V30 1208 C 110.958 -0.311955 -1.91678 0
M  V30 1209 O 110.233 0.686384 -1.81986 0
M  V30 1210 C 110.516 -2.79219 -2.27396 0
M  V30 1211 C 110.369 -4.19286 -1.62848 0
M  V30 1212 C 111.688 -2.92614 -3.28732 0
M  V30 1213 H 108.807 -0.587399 -0.445119 0
M  V30 1214 H 111.449 -1.82681 -0.522265 0
M  V30 1215 H 109.599 -2.61195 -2.87592 0
M  V30 1216 H 111.271 -4.48892 -1.06271 0
M  V30 1217 H 109.514 -4.23677 -0.931693 0
M  V30 1218 H 110.185 -4.97655 -2.38838 0
M  V30 1219 H 112.661 -3.09105 -2.78556 0
M  V30 1220 H 111.537 -3.76688 -3.99246 0
M  V30 1221 H 111.798 -2.03107 -3.92683 0
M  V30 1222 N 110.857 0.726932 -1.39834 0
M  V30 1223 C 112.082 1.52121 -1.40976 0
M  V30 1224 C 112.507 1.88098 -0.00826029 0
M  V30 1225 O 111.865 1.52479 0.980807 0
M  V30 1226 C 111.913 2.78021 -2.29644 0
M  V30 1227 O 111.017 3.74272 -1.73188 0
M  V30 1228 H 110.358 0.45908 -0.479731 0
M  V30 1229 H 112.888 0.896207 -1.83927 0
M  V30 1230 H 112.898 3.26671 -2.44438 0
M  V30 1231 H 111.573 2.51169 -3.31492 0
M  V30 1232 H 110.15 3.33073 -1.6768 0
M  V30 1233 N 112.336 1.25143 0.95797 0
M  V30 1234 C 113.286 1.01924 2.0395 0
M  V30 1235 C 114.27 -0.0427175 1.60843 0
M  V30 1236 O 115.462 0.17221 1.7616 0
M  V30 1237 C 112.591 0.636373 3.3735 0
M  V30 1238 C 111.677 1.73492 3.8699 0
M  V30 1239 N 112.068 2.96945 4.0946 0
M  V30 1240 C 110.366 1.61467 4.15746 0
M  V30 1241 C 111.067 3.68228 4.50315 0
M  V30 1242 N 110.043 2.95833 4.56053 0
M  V30 1243 H 113.845 1.95653 2.19311 0
M  V30 1244 H 111.359 1.15413 1.14253 0
M  V30 1245 H 113.356 0.451233 4.14451 0
M  V30 1246 H 112.016 -0.293621 3.2337 0
M  V30 1247 H 113.027 3.33025 3.96629 0
M  V30 1248 H 109.704 0.753394 4.10646 0
M  V30 1249 H 111.094 4.74178 4.76031 0
M  V30 1250 N 113.814 -1.1601 1.06675 0
M  V30 1251 C 115.054 -1.88304 0.795037 0
M  V30 1252 C 115.418 -1.80062 -0.666466 0
M  V30 1253 O 116.619 -2.47319 -1.05293 0
M  V30 1254 C 114.89 -3.33664 1.28076 0
M  V30 1255 S 116.449 -4.23768 1.13868 0
M  V30 1256 H 113.267 -0.649928 0.288296 0
M  V30 1257 H 115.869 -1.4001 1.36445 0
M  V30 1258 H 114.573 -3.37203 2.33927 0
M  V30 1259 H 114.104 -3.87009 0.706253 0
M  V30 1260 H 116.119 -4.96148 0.0719668 0
M  V30 1261 N 115.292 -0.849877 -1.32721 0
M  V30 1262 C 116.222 -0.306308 -2.31482 0
M  V30 1263 C 117.203 0.591952 -1.59468 0
M  V30 1264 O 118.388 0.513199 -1.87296 0
M  V30 1265 C 115.518 0.510204 -3.43532 0
M  V30 1266 C 114.472 -0.293209 -4.26994 0
M  V30 1267 C 113.798 0.647743 -5.30762 0
M  V30 1268 C 115.098 -1.51634 -4.99804 0
M  V30 1269 H 116.792 -1.13153 -2.77195 0
M  V30 1270 H 114.338 -0.545553 -1.33266 0
M  V30 1271 H 116.291 0.900856 -4.11658 0
M  V30 1272 H 115.015 1.36874 -2.96535 0
M  V30 1273 H 113.674 -0.665555 -3.60508 0
M  V30 1274 H 113.322 1.50299 -4.8002 0
M  V30 1275 H 113.022 0.11422 -5.87489 0
M  V30 1276 H 114.546 1.03567 -6.01753 0
M  V30 1277 H 115.96 -1.19824 -5.60638 0
M  V30 1278 H 114.357 -1.98745 -5.66234 0
M  V30 1279 H 115.427 -2.28018 -4.27943 0
M  V30 1280 N 116.77 1.45427 -0.607355 0
M  V30 1281 C 117.68 2.34325 0.113463 0
M  V30 1282 C 118.696 1.51226 0.860617 0
M  V30 1283 O 119.872 1.84029 0.818255 0
M  V30 1284 C 116.937 3.28839 1.09844 0
M  V30 1285 C 115.998 4.27844 0.353271 0
M  V30 1286 C 115.231 5.17842 1.29133 0
M  V30 1287 O 115.454 5.11264 2.52913 0
M  V30 1288 O 114.388 5.96713 0.788523 0
M  V30 1289 H 118.214 2.97364 -0.617094 0
M  V30 1290 H 115.799 1.44807 -0.367619 0
M  V30 1291 H 117.681 3.8708 1.66575 0
M  V30 1292 H 116.356 2.68365 1.81003 0
M  V30 1293 H 115.263 3.7322 -0.256494 0
M  V30 1294 H 116.596 4.91173 -0.317822 0
M  V30 1295 N 118.248 0.346503 1.53744 0
M  V30 1296 C 119.178 -0.501193 2.28058 0
M  V30 1297 C 120.159 -1.10014 1.29734 0
M  V30 1298 O 121.344 -1.12097 1.58581 0
M  V30 1299 C 118.474 -1.65078 3.05559 0
M  V30 1300 C 117.428 -1.18003 4.11411 0
M  V30 1301 C 116.754 -2.41837 4.76884 0
M  V30 1302 C 118.054 -0.278394 5.21558 0
M  V30 1303 H 119.748 0.11875 2.99164 0
M  V30 1304 H 117.294 0.0585531 1.43881 0
M  V30 1305 H 119.247 -2.25028 3.56287 0
M  V30 1306 H 117.971 -2.29767 2.32109 0
M  V30 1307 H 116.63 -0.603331 3.61601 0
M  V30 1308 H 116.278 -3.0494 4.00026 0
M  V30 1309 H 115.978 -2.1102 5.48402 0
M  V30 1310 H 117.502 -3.02508 5.30397 0
M  V30 1311 H 118.916 -0.784823 5.67903 0
M  V30 1312 H 117.313 -0.0619707 6.00068 0
M  V30 1313 H 118.383 0.684677 4.80042 0
M  V30 1314 N 119.726 -1.57421 0.075193 0
M  V30 1315 C 120.974 -1.93236 -0.591974 0
M  V30 1316 C 121.295 -0.956241 -1.69944 0
M  V30 1317 O 120.565 -0.00494792 -1.95899 0
M  V30 1318 H 119.145 -0.713355 -0.22166 0
M  V30 1319 H 121.807 -1.9444 0.133848 0
M  V30 1320 H 120.903 -2.95131 -1.01509 0
M  V30 1321 N 121.204 0.198386 -1.56346 0
M  V30 1322 C 122.167 1.22952 -1.93431 0
M  V30 1323 C 123.167 1.38611 -0.815092 0
M  V30 1324 O 124.357 1.36479 -1.08255 0
M  V30 1325 C 121.489 2.59946 -2.20546 0
M  V30 1326 H 122.682 0.912626 -2.85677 0
M  V30 1327 H 120.235 0.43977 -1.49986 0
M  V30 1328 H 120.97 2.96696 -1.30927 0
M  V30 1329 H 120.755 2.49953 -3.02102 0
M  V30 1330 H 122.245 3.3431 -2.50253 0
M  V30 1331 N 122.682 1.50554 0.465978 0
M  V30 1332 C 123.645 1.69233 1.54574 0
M  V30 1333 C 124.645 0.562901 1.50626 0
M  V30 1334 O 125.835 0.830016 1.53155 0
M  V30 1335 C 122.967 1.7223 2.94193 0
M  V30 1336 H 124.16 2.65571 1.39327 0
M  V30 1337 H 121.713 1.40111 0.692711 0
M  V30 1338 H 122.448 0.77603 3.14878 0
M  V30 1339 H 122.233 2.54285 2.98466 0
M  V30 1340 H 123.723 1.88618 3.72576 0
M  V30 1341 N 124.16 -0.719506 1.40217 0
M  V30 1342 C 125.385 -1.51371 1.4178 0
M  V30 1343 C 125.81 -1.88091 0.0182355 0
M  V30 1344 O 125.168 -1.52997 -0.972707 0
M  V30 1345 C 125.216 -2.768 2.31115 0
M  V30 1346 O 124.32 -3.73349 1.7517 0
M  V30 1347 H 123.661 -0.456529 0.482159 0
M  V30 1348 H 126.191 -0.88644 1.844 0
M  V30 1349 H 126.201 -3.25371 2.46167 0
M  V30 1350 H 124.876 -2.49407 3.3282 0
M  V30 1351 H 123.453 -3.32179 1.69444 0
M  V30 1352 N 125.638 -1.25649 -0.95132 0
M  V30 1353 C 126.601 -1.06399 -2.03007 0
M  V30 1354 C 127.601 -0.0156794 -1.60792 0
M  V30 1355 O 128.791 -0.25817 -1.72276 0
M  V30 1356 C 125.923 -0.616184 -3.35285 0
M  V30 1357 H 127.116 -2.02164 -2.21517 0
M  V30 1358 H 124.669 -1.08103 -1.12887 0
M  V30 1359 H 125.404 0.343917 -3.22471 0
M  V30 1360 H 125.189 -1.37301 -3.67275 0
M  V30 1361 H 126.679 -0.503032 -4.14559 0
M  V30 1362 N 127.117 1.15442 -1.07289 0
M  V30 1363 C 128.067 2.18164 -0.662467 0
M  V30 1364 C 129.051 1.57845 0.312074 0
M  V30 1365 O 130.243 1.76552 0.125905 0
M  V30 1366 C 127.372 3.43246 -0.0611295 0
M  V30 1367 C 126.458 4.1062 -1.06077 0
M  V30 1368 N 126.849 4.53491 -2.24008 0
M  V30 1369 C 125.147 4.36949 -0.893964 0
M  V30 1370 C 125.848 5.05731 -2.87422 0
M  V30 1371 N 124.824 4.99236 -2.15091 0
M  V30 1372 H 128.626 2.49038 -1.56068 0
M  V30 1373 H 126.14 1.32003 -0.945988 0
M  V30 1374 H 128.137 4.16145 0.250792 0
M  V30 1375 H 126.797 3.13854 0.832207 0
M  V30 1376 H 127.808 4.46898 -2.6173 0
M  V30 1377 H 124.485 4.17466 -0.0534693 0
M  V30 1378 H 125.875 5.48865 -3.87553 0
M  V30 1379 N 128.595 0.856903 1.32268 0
M  V30 1380 C 129.825 0.47475 2.01071 0
M  V30 1381 C 130.233 -0.933746 1.64553 0
M  V30 1382 O 129.576 -1.62114 0.863989 0
M  V30 1383 C 129.638 0.536746 3.55471 0
M  V30 1384 C 129.302 1.90453 4.15423 0
M  V30 1385 C 130.299 2.87029 4.33486 0
M  V30 1386 C 127.984 2.20229 4.51447 0
M  V30 1387 C 129.978 4.11532 4.86744 0
M  V30 1388 C 127.665 3.44984 5.0441 0
M  V30 1389 C 128.663 4.40452 5.22007 0
M  V30 1390 O 128.351 5.62998 5.73837 0
M  V30 1391 H 128.083 0.184778 0.650256 0
M  V30 1392 H 130.637 1.15615 1.69771 0
M  V30 1393 H 128.867 -0.20152 3.86175 0
M  V30 1394 H 130.556 0.169875 4.05544 0
M  V30 1395 H 131.322 2.6533 4.05986 0
M  V30 1396 H 127.201 1.46705 4.37034 0
M  V30 1397 H 130.745 4.86056 5.00395 0
M  V30 1398 H 126.642 3.66532 5.31342 0
M  V30 1399 H 127.41 5.64987 5.92226 0
M  V30 1400 N 130.073 -1.45103 0.615059 0
M  V30 1401 C 131.322 -2.01396 0.110718 0
M  V30 1402 C 131.635 -1.48834 -1.26916 0
M  V30 1403 O 132.841 -1.97152 -1.86664 0
M  V30 1404 C 131.297 -3.59599 0.14723 0
M  V30 1405 C 130.905 -4.21158 1.52743 0
M  V30 1406 C 132.649 -4.23428 -0.30148 0
M  V30 1407 C 130.556 -5.71535 1.51992 0
M  V30 1408 H 129.486 -0.753061 0.0376241 0
M  V30 1409 H 132.137 -1.66494 0.77149 0
M  V30 1410 H 130.519 -3.91724 -0.580339 0
M  V30 1411 H 131.693 -4.00594 2.2773 0
M  V30 1412 H 130.008 -3.69552 1.91886 0
M  V30 1413 H 132.605 -5.33703 -0.326392 0
M  V30 1414 H 132.948 -3.94629 -1.32565 0
M  V30 1415 H 133.481 -3.96047 0.373065 0
M  V30 1416 H 130.22 -6.05044 2.52193 0
M  V30 1417 H 129.74 -5.94268 0.81274 0
M  V30 1418 H 131.419 -6.34873 1.24681 0
M  V30 1419 N 131.551 -0.354651 -1.53558 0
M  V30 1420 C 132.514 0.484566 -2.24019 0
M  V30 1421 C 133.514 1.01861 -1.24422 0
M  V30 1422 O 134.704 0.906097 -1.4878 0
M  V30 1423 C 131.836 1.67615 -2.96847 0
M  V30 1424 H 133.029 -0.131843 -2.9961 0
M  V30 1425 H 130.582 -0.106165 -1.55939 0
M  V30 1426 H 131.317 2.33095 -2.25471 0
M  V30 1427 H 131.102 1.30029 -3.69912 0
M  V30 1428 H 132.592 2.27114 -3.50441 0
M  V30 1429 N 133.029 1.57378 -0.0835403 0
M  V30 1430 C 134.277 1.93547 0.581718 0
M  V30 1431 C 134.598 0.96524 1.69435 0
M  V30 1432 O 133.868 0.0153369 1.95894 0
M  V30 1433 H 132.448 0.714521 0.217874 0
M  V30 1434 H 135.11 1.94366 -0.144158 0
M  V30 1435 H 134.206 2.95665 0.999423 0
M  V30 1436 N 134.507 -0.190092 1.56449 0
M  V30 1437 C 135.735 -0.925772 1.85033 0
M  V30 1438 C 136.15 -1.76638 0.666658 0
M  V30 1439 O 135.507 -1.78822 -0.364565 0
M  V30 1440 C 135.558 -1.81786 3.12468 0
M  V30 1441 O 135.279 -1.01118 4.26271 0
M  V30 1442 C 136.78 -2.6648 3.54265 0
M  V30 1443 H 134 -0.269872 0.614337 0
M  V30 1444 H 136.544 -0.195837 2.0356 0
M  V30 1445 H 134.699 -2.50136 2.95822 0
M  V30 1446 H 135.113 -1.61956 4.98869 0
M  V30 1447 H 136.587 -3.24722 4.46385 0
M  V30 1448 H 137.064 -3.40434 2.77491 0
M  V30 1449 H 137.67 -2.03493 3.73458 0
M  V30 1450 N 135.985 -1.50799 -0.457987 0
M  V30 1451 C 136.918 -1.65273 -1.57353 0
M  V30 1452 C 137.896 -0.500578 -1.54703 0
M  V30 1453 O 139.08 -0.721781 -1.74134 0
M  V30 1454 C 136.207 -1.64737 -2.95938 0
M  V30 1455 C 135.253 -2.8567 -3.16693 0
M  V30 1456 S 136.086 -4.46791 -2.95191 0
M  V30 1457 C 137.242 -4.48968 -4.36095 0
M  V30 1458 H 137.475 -2.59633 -1.44838 0
M  V30 1459 H 135.008 -1.40225 -0.64625 0
M  V30 1460 H 136.966 -1.65112 -3.7583 0
M  V30 1461 H 135.627 -0.715899 -3.05833 0
M  V30 1462 H 134.82 -2.81637 -4.17967 0
M  V30 1463 H 134.422 -2.8293 -2.44594 0
M  V30 1464 H 136.714 -4.23337 -5.28954 0
M  V30 1465 H 137.657 -5.50664 -4.45168 0
M  V30 1466 H 138.065 -3.78522 -4.18786 0
M  V30 1467 N 137.463 0.71206 -1.40597 0
M  V30 1468 C 138.373 1.8562 -1.43466 0
M  V30 1469 C 139.389 1.70902 -0.326902 0
M  V30 1470 O 140.565 1.93105 -0.572043 0
M  V30 1471 C 137.63 3.21451 -1.29884 0
M  V30 1472 C 136.691 3.48398 -2.50833 0
M  V30 1473 C 135.924 4.77749 -2.3789 0
M  V30 1474 O 136.147 5.53089 -1.39459 0
M  V30 1475 O 135.081 5.05111 -3.27333 0
M  V30 1476 H 138.907 1.86155 -2.39958 0
M  V30 1477 H 136.492 0.86295 -1.21957 0
M  V30 1478 H 138.374 4.02579 -1.24531 0
M  V30 1479 H 137.049 3.21636 -0.364997 0
M  V30 1480 H 135.956 2.67265 -2.61763 0
M  V30 1481 H 137.289 3.53014 -3.4299 0
M  V30 1482 N 138.941 1.26152 0.944643 0
M  V30 1483 C 140.218 1.02247 1.66748 0
M  V30 1484 C 140.598 -0.448202 2.06287 0
M  V30 1485 O 139.946 -1.42779 1.78399 0
M  V30 1486 C 140.156 1.96788 2.88228 0
M  V30 1487 C 141.504 2.25201 3.59958 0
M  V30 1488 O 142.528 1.94626 2.98327 0
M  V30 1489 O 141.387 2.77242 4.70956 0
M  V30 1490 H 138.481 0.388517 0.730057 0
M  V30 1491 H 141.027 1.37348 0.99668 0
M  V30 1492 H 139.799 2.96047 2.55875 0
M  V30 1493 H 139.422 1.62145 3.63035 0
M  V30 1494 N 140.419 -1.14872 1.07899 0
M  V30 1495 C 141.352 -2.18794 0.64841 0
M  V30 1496 C 142.33 -1.59065 -0.337189 0
M  V30 1497 O 143.514 -1.86936 -0.242284 0
M  V30 1498 C 140.641 -3.38667 -0.0470417 0
M  V30 1499 C 139.687 -4.16942 0.897884 0
M  V30 1500 S 140.52 -4.78615 2.40183 0
M  V30 1501 C 141.676 -6.0185 1.71834 0
M  V30 1502 H 141.909 -2.5498 1.52881 0
M  V30 1503 H 139.442 -1.25922 0.893484 0
M  V30 1504 H 141.4 -4.08113 -0.442027 0
M  V30 1505 H 140.061 -3.00814 -0.903861 0
M  V30 1506 H 139.254 -5.02726 0.358096 0
M  V30 1507 H 138.856 -3.53073 1.23352 0
M  V30 1508 H 141.148 -6.69574 1.03328 0
M  V30 1509 H 142.091 -6.60408 2.55473 0
M  V30 1510 H 142.499 -5.5173 1.19392 0
M  V30 1511 N 141.898 -0.863906 -1.31812 0
M  V30 1512 C 143.126 -0.486111 -2.01108 0
M  V30 1513 C 143.541 0.919755 -1.64882 0
M  V30 1514 O 142.898 1.60162 -0.874893 0
M  V30 1515 C 142.949 -0.626435 -3.56031 0
M  V30 1516 O 142.67 -1.97693 -3.90959 0
M  V30 1517 C 144.171 -0.248857 -4.42601 0
M  V30 1518 H 141.391 -0.190052 -0.643523 0
M  V30 1519 H 143.935 -1.1634 -1.68182 0
M  V30 1520 H 142.09 0.00322717 -3.874 0
M  V30 1521 H 142.504 -1.98034 -4.85678 0
M  V30 1522 H 143.978 -0.398016 -5.50563 0
M  V30 1523 H 144.455 0.811489 -4.31638 0
M  V30 1524 H 145.061 -0.853971 -4.16638 0
M  V30 1525 N 143.376 1.44774 -0.622745 0
M  V30 1526 C 144.623 2.02121 -0.1239 0
M  V30 1527 C 144.951 1.48915 1.25118 0
M  V30 1528 O 144.206 0.660045 1.84233 0
M  V30 1529 C 144.505 3.57364 -0.0508323 0
M  V30 1530 C 144.171 4.29787 -1.36358 0
M  V30 1531 C 142.833 4.4929 -1.72314 0
M  V30 1532 C 145.185 4.71062 -2.23048 0
M  V30 1533 C 142.513 5.07325 -2.94682 0
M  V30 1534 C 144.865 5.30452 -3.44679 0
M  V30 1535 C 143.529 5.48175 -3.80868 0
M  V30 1536 H 142.799 0.739612 -0.0453381 0
M  V30 1537 H 145.446 1.73648 -0.807389 0
M  V30 1538 H 143.751 3.85202 0.715991 0
M  V30 1539 H 145.448 3.99456 0.351533 0
M  V30 1540 H 142.038 4.14932 -1.07375 0
M  V30 1541 H 146.222 4.55715 -1.96565 0
M  V30 1542 H 141.478 5.19235 -3.22809 0
M  V30 1543 H 145.652 5.61385 -4.12092 0
M  V30 1544 H 143.279 5.92912 -4.75773 0
M  V30 1545 N 144.854 0.36279 1.53368 0
M  V30 1546 C 145.817 -0.472679 2.24273 0
M  V30 1547 C 146.817 -1.012 1.24961 0
M  V30 1548 O 148.007 -0.898194 1.49259 0
M  V30 1549 C 145.139 -1.66039 2.97731 0
M  V30 1550 H 146.332 0.14773 2.99536 0
M  V30 1551 H 143.885 0.114434 1.55881 0
M  V30 1552 H 144.62 -2.31896 2.26704 0
M  V30 1553 H 144.405 -1.28066 3.70596 0
M  V30 1554 H 145.895 -2.25252 3.51641 0
M  V30 1555 N 146.332 -1.57332 0.0918853 0
M  V30 1556 C 147.242 -2.17368 -0.882505 0
M  V30 1557 C 148.258 -1.14226 -1.31257 0
M  V30 1558 O 149.434 -1.46582 -1.38115 0
M  V30 1559 C 146.499 -2.73962 -2.12476 0
M  V30 1560 C 145.56 -3.92048 -1.7492 0
M  V30 1561 C 144.793 -4.45933 -2.93223 0
M  V30 1562 O 145.016 -3.98764 -4.07852 0
M  V30 1563 O 143.95 -5.36999 -2.71875 0
M  V30 1564 H 147.776 -3.01031 -0.40172 0
M  V30 1565 H 145.361 -1.48813 -0.132291 0
M  V30 1566 H 147.243 -3.10147 -2.85283 0
M  V30 1567 H 145.918 -1.93347 -2.59613 0
M  V30 1568 H 144.825 -3.6068 -0.993025 0
M  V30 1569 H 146.158 -4.74017 -1.32548 0
M  V30 1570 N 147.81 0.181792 -1.56548 0
M  V30 1571 C 148.742 1.24956 -1.92142 0
M  V30 1572 C 149.755 1.41022 -0.813422 0
M  V30 1573 O 150.944 1.41212 -1.09186 0
M  V30 1574 C 148.044 2.61981 -2.14987 0
M  V30 1575 C 147.217 2.6735 -3.46183 0
M  V30 1576 C 146.276 3.85664 -3.5798 0
M  V30 1577 O 145.302 3.72148 -4.30691 0
M  V30 1578 N 146.504 5.01683 -2.92053 0
M  V30 1579 H 149.269 0.947329 -2.84334 0
M  V30 1580 H 146.83 0.371629 -1.57577 0
M  V30 1581 H 148.822 3.3958 -2.20154 0
M  V30 1582 H 147.392 2.84637 -1.2923 0
M  V30 1583 H 146.612 1.75925 -3.52766 0
M  V30 1584 H 147.9 2.67939 -4.32534 0
M  V30 1585 H 147.298 5.15564 -2.32832 0
M  V30 1586 H 145.855 5.77181 -3.0283 0
M  V30 1587 N 149.288 1.51039 0.449983 0
M  V30 1588 C 150.535 1.63081 1.20045 0
M  V30 1589 C 150.863 0.341024 1.91487 0
M  V30 1590 O 150.118 -0.674276 1.83717 0
M  V30 1591 C 150.417 2.77556 2.25161 0
M  V30 1592 C 150.083 4.17289 1.70823 0
M  V30 1593 C 148.745 4.55305 1.55725 0
M  V30 1594 C 151.097 5.04536 1.3074 0
M  V30 1595 C 148.425 5.78287 0.989999 0
M  V30 1596 C 150.777 6.28085 0.754482 0
M  V30 1597 C 149.441 6.64885 0.590308 0
M  V30 1598 H 148.711 0.596755 0.439277 0
M  V30 1599 H 151.358 1.85037 0.49333 0
M  V30 1600 H 149.663 2.49771 3.01863 0
M  V30 1601 H 151.36 2.84073 2.83026 0
M  V30 1602 H 147.95 3.8731 1.83546 0
M  V30 1603 H 152.134 4.75782 1.41229 0
M  V30 1604 H 147.39 6.05456 0.850451 0
M  V30 1605 H 151.564 6.95038 0.435324 0
M  V30 1606 H 149.191 7.60055 0.14862 0
M  V30 1607 N 150.766 -0.704594 1.40972 0
M  V30 1608 C 152.012 -1.46675 1.40051 0
M  V30 1609 C 152.345 -1.94199 0.00641102 0
M  V30 1610 O 151.62 -1.68916 -0.964235 0
M  V30 1611 C 151.903 -2.68505 2.39952 0
M  V30 1612 C 151.756 -2.26805 3.88432 0
M  V30 1613 C 153.075 -3.70686 2.37233 0
M  V30 1614 H 150.194 -0.532015 0.510028 0
M  V30 1615 H 152.836 -0.803255 1.72185 0
M  V30 1616 H 150.986 -3.25114 2.1268 0
M  V30 1617 H 152.658 -1.75592 4.26574 0
M  V30 1618 H 150.901 -1.58685 4.03734 0
M  V30 1619 H 151.572 -3.14181 4.53866 0
M  V30 1620 H 154.048 -3.23731 2.61415 0
M  V30 1621 H 152.924 -4.53553 3.09162 0
M  V30 1622 H 153.185 -4.19754 1.38777 0
M  V30 1623 N 152.244 -1.26651 -0.937939 0
M  V30 1624 C 153.207 -1.08546 -2.01867 0
M  V30 1625 C 154.207 -0.0327327 -1.60767 0
M  V30 1626 O 155.397 -0.276427 -1.71993 0
M  V30 1627 C 152.529 -0.651711 -3.34613 0
M  V30 1628 H 153.722 -2.04502 -2.1936 0
M  V30 1629 H 151.275 -1.09294 -1.11734 0
M  V30 1630 H 152.01 0.309696 -3.22818 0
M  V30 1631 H 151.795 -1.41189 -3.65798 0
M  V30 1632 H 153.285 -0.546973 -4.14002 0
M  V30 1633 N 153.722 1.14298 -1.08507 0
M  V30 1634 C 154.654 2.1907 -0.673859 0
M  V30 1635 C 155.667 1.60381 0.279577 0
M  V30 1636 O 156.856 1.78374 0.0670754 0
M  V30 1637 C 153.956 3.38888 0.0290979 0
M  V30 1638 C 153.129 4.27103 -0.943494 0
M  V30 1639 C 152.188 5.25477 -0.275676 0
M  V30 1640 O 151.214 5.61709 -0.920401 0
M  V30 1641 N 152.416 5.7227 0.974013 0
M  V30 1642 H 155.181 2.54965 -1.57521 0
M  V30 1643 H 152.742 1.29528 -0.971287 0
M  V30 1644 H 154.734 4.01761 0.48683 0
M  V30 1645 H 153.304 3.01309 0.832555 0
M  V30 1646 H 152.524 3.61149 -1.58004 0
M  V30 1647 H 153.812 4.82905 -1.60251 0
M  V30 1648 H 153.21 5.44965 1.51755 0
M  V30 1649 H 151.767 6.37127 1.37522 0
M  V30 1650 N 155.201 0.870884 1.31352 0
M  V30 1651 C 156.164 0.332243 2.26779 0
M  V30 1652 C 157.164 -0.517302 1.52252 0
M  V30 1653 O 158.354 -0.326477 1.71113 0
M  V30 1654 C 155.486 -0.528066 3.36785 0
M  V30 1655 H 156.679 1.17469 2.75937 0
M  V30 1656 H 154.232 0.64655 1.423 0
M  V30 1657 H 154.967 -1.39167 2.92922 0
M  V30 1658 H 154.752 0.0802582 3.92018 0
M  V30 1659 H 156.242 -0.897179 4.07849 0
M  V30 1660 N 156.679 -1.44442 0.630414 0
M  V30 1661 C 157.927 -2.01653 0.134351 0
M  V30 1662 C 158.248 -1.49836 -1.24796 0
M  V30 1663 O 157.518 -0.701684 -1.82902 0
M  V30 1664 H 156.098 -0.74554 0.0466769 0
M  V30 1665 H 158.76 -1.76952 0.816955 0
M  V30 1666 H 157.856 -3.11935 0.101498 0
M  V30 1667 N 158.157 -0.370918 -1.53173 0
M  V30 1668 C 159.104 0.473035 -2.259 0
M  V30 1669 C 160.074 1.07311 -1.26781 0
M  V30 1670 O 161.259 1.1046 -1.55574 0
M  V30 1671 C 158.399 1.60405 -3.05556 0
M  V30 1672 C 157.512 1.02863 -4.19575 0
M  V30 1673 C 156.647 2.12918 -4.86661 0
M  V30 1674 C 155.686 1.52869 -5.92704 0
M  V30 1675 N 154.823 2.56779 -6.53459 0
M  V30 1676 H 159.663 -0.153649 -2.97604 0
M  V30 1677 H 157.2 -0.0875946 -1.46839 0
M  V30 1678 H 159.158 2.27034 -3.50016 0
M  V30 1679 H 157.788 2.20131 -2.36097 0
M  V30 1680 H 156.84 0.252465 -3.79561 0
M  V30 1681 H 158.152 0.549642 -4.95762 0
M  V30 1682 H 157.306 2.87356 -5.34333 0
M  V30 1683 H 156.045 2.6417 -4.09958 0
M  V30 1684 H 155.05 0.769479 -5.44389 0
M  V30 1685 H 156.275 1.02435 -6.7133 0
M  V30 1686 H 154.221 3.07235 -5.79606 0
M  V30 1687 H 154.138 2.13583 -7.25202 0
M  V30 1688 H 155.406 3.30903 -7.05779 0
M  V30 1689 N 159.635 1.57281 -0.100228 0
M  V30 1690 C 160.565 2.17328 0.853857 0
M  V30 1691 C 161.546 1.10804 1.2906 0
M  V30 1692 O 162.731 1.38963 1.35657 0
M  V30 1693 C 159.861 2.75772 2.11109 0
M  V30 1694 C 158.815 3.87713 1.81279 0
M  V30 1695 C 158.141 4.32882 3.13874 0
M  V30 1696 C 159.441 5.10677 1.09574 0
M  V30 1697 H 161.135 2.97305 0.353545 0
M  V30 1698 H 158.681 1.43009 0.168612 0
M  V30 1699 H 160.634 3.16433 2.78296 0
M  V30 1700 H 159.358 1.93057 2.63432 0
M  V30 1701 H 158.017 3.476 1.16489 0
M  V30 1702 H 157.665 3.47051 3.64095 0
M  V30 1703 H 157.365 5.08358 2.94696 0
M  V30 1704 H 158.889 4.7618 3.82211 0
M  V30 1705 H 160.303 5.48474 1.66879 0
M  V30 1706 H 158.7 5.91615 1.00557 0
M  V30 1707 H 159.77 4.84835 0.0793299 0
M  V30 1708 N 161.113 -0.173488 1.56642 0
M  V30 1709 C 162.046 -1.24353 1.91342 0
M  V30 1710 C 163.024 -1.4289 0.775965 0
M  V30 1711 O 164.208 -1.57932 1.02907 0
M  V30 1712 C 161.335 -2.60683 2.16245 0
M  V30 1713 C 160.381 -2.58894 3.38934 0
M  V30 1714 S 161.214 -2.0819 4.93373 0
M  V30 1715 C 162.37 -3.46302 5.21369 0
M  V30 1716 H 162.603 -0.947345 2.81803 0
M  V30 1717 H 160.136 -0.377958 1.49703 0
M  V30 1718 H 162.094 -3.39149 2.31275 0
M  V30 1719 H 160.755 -2.87502 1.26496 0
M  V30 1720 H 159.948 -3.59188 3.53553 0
M  V30 1721 H 159.55 -1.88522 3.2301 0
M  V30 1722 H 161.842 -4.42287 5.13214 0
M  V30 1723 H 162.785 -3.3656 6.23003 0
M  V30 1724 H 163.193 -3.42214 4.48943 0
M  V30 1725 N 162.591 -1.51276 -0.441967 0
M  V30 1726 C 163.839 -1.63392 -1.18943 0
M  V30 1727 C 164.16 -0.350159 -1.9183 0
M  V30 1728 O 163.43 0.633784 -1.85364 0
M  V30 1729 H 162.01 -0.602164 -0.442049 0
M  V30 1730 H 164.672 -1.88186 -0.507165 0
M  V30 1731 H 163.768 -2.45934 -1.92154 0
M  V30 1732 N 164.069 0.697108 -1.41344 0
M  V30 1733 C 165.317 1.45426 -1.40341 0
M  V30 1734 C 165.638 1.94996 -0.0128787 0
M  V30 1735 O 164.908 1.71599 0.945027 0
M  V30 1736 H 163.488 0.539594 -0.516573 0
M  V30 1737 H 166.15 0.825201 -1.76569 0
M  V30 1738 H 165.246 2.31817 -2.08967 0
M  V30 1739 N 165.547 1.27147 0.931209 0
M  V30 1740 C 166.477 1.12081 2.04842 0
M  V30 1741 C 167.458 0.0232364 1.70084 0
M  V30 1742 O 168.643 0.197085 1.93197 0
M  V30 1743 C 165.773 0.76354 3.38803 0
M  V30 1744 C 164.727 1.81396 3.87659 0
M  V30 1745 C 164.053 1.31075 5.18385 0
M  V30 1746 C 165.353 3.21739 4.11438 0
M  V30 1747 H 167.047 2.05537 2.17703 0
M  V30 1748 H 164.593 0.989603 1.04608 0
M  V30 1749 H 166.546 0.644982 4.16435 0
M  V30 1750 H 165.27 -0.206727 3.25945 0
M  V30 1751 H 163.929 1.92136 3.12217 0
M  V30 1752 H 163.577 0.330037 5.01916 0
M  V30 1753 H 163.277 2.013 5.52044 0
M  V30 1754 H 164.801 1.20506 5.98591 0
M  V30 1755 H 166.215 3.14019 4.79651 0
M  V30 1756 H 164.612 3.89644 4.56397 0
M  V30 1757 H 165.682 3.67054 3.16859 0
M  V30 1758 N 167.025 -1.13721 1.09112 0
M  V30 1759 C 168.302 -1.81155 0.737706 0
M  V30 1760 C 168.682 -1.96253 -0.777683 0
M  V30 1761 O 168.03 -1.52807 -1.69889 0
M  V30 1762 C 168.24 -3.16392 1.47299 0
M  V30 1763 C 169.588 -3.91787 1.63671 0
M  V30 1764 O 170.612 -3.26005 1.43524 0
M  V30 1765 O 169.471 -5.0977 1.96969 0
M  V30 1766 H 166.565 -0.783518 0.26463 0
M  V30 1767 H 169.111 -1.20676 1.19312 0
M  V30 1768 H 167.883 -3.0061 2.50498 0
M  V30 1769 H 167.506 -3.8457 1.00953 0
M  V30 1770 N 168.503 -0.877838 -1.30888 0
M  V30 1771 C 169.436 -0.283995 -2.26426 0
M  V30 1772 C 170.414 0.591361 -1.51465 0
M  V30 1773 O 171.598 0.54304 -1.80509 0
M  V30 1774 C 168.725 0.597129 -3.33395 0
M  V30 1775 C 167.771 -0.207937 -4.25993 0
M  V30 1776 S 168.604 -1.59158 -5.11301 0
M  V30 1777 C 169.76 -0.716791 -6.21782 0
M  V30 1778 H 169.993 -1.09383 -2.76446 0
M  V30 1779 H 167.526 -0.676828 -1.38775 0
M  V30 1780 H 169.484 1.09978 -3.95493 0
M  V30 1781 H 168.145 1.38099 -2.82113 0
M  V30 1782 H 167.338 0.464163 -5.01858 0
M  V30 1783 H 166.94 -0.642963 -3.68432 0
M  V30 1784 H 169.232 0.0692833 -6.77465 0
M  V30 1785 H 170.175 -1.44682 -6.93161 0
M  V30 1786 H 170.583 -0.280855 -5.63801 0
M  V30 1787 N 169.982 1.44106 -0.638065 0
M  V30 1788 C 170.912 2.33448 0.0494287 0
M  V30 1789 C 171.893 1.48606 0.827672 0
M  V30 1790 O 173.078 1.77308 0.792173 0
M  V30 1791 C 170.208 3.31771 1.02691 0
M  V30 1792 C 169.162 4.26485 0.359823 0
M  V30 1793 C 168.488 5.14729 1.44769 0
M  V30 1794 C 169.788 5.17056 -0.738296 0
M  V30 1795 H 171.482 2.91183 -0.696636 0
M  V30 1796 H 169.028 1.40014 -0.336456 0
M  V30 1797 H 170.981 3.93161 1.51666 0
M  V30 1798 H 169.705 2.7226 1.80395 0
M  V30 1799 H 168.364 3.66437 -0.10934 0
M  V30 1800 H 168.012 4.51566 2.21578 0
M  V30 1801 H 167.712 5.78913 1.00668 0
M  V30 1802 H 169.236 5.78991 1.93911 0
M  V30 1803 H 170.65 5.72342 -0.331354 0
M  V30 1804 H 169.047 5.89879 -1.10286 0
M  V30 1805 H 170.117 4.57652 -1.60258 0
M  V30 1806 N 171.46 0.379036 1.52974 0
M  V30 1807 C 172.709 -0.207612 2.00629 0
M  V30 1808 C 173.022 -1.48758 1.27006 0
M  V30 1809 O 174.228 -2.15365 1.65318 0
M  V30 1810 C 172.684 -0.42053 3.57435 0
M  V30 1811 C 172.292 0.845587 4.39948 0
M  V30 1812 C 174.036 -0.964102 4.13407 0
M  V30 1813 C 171.943 0.601513 5.88333 0
M  V30 1814 H 170.873 -0.0813591 0.749598 0
M  V30 1815 H 173.524 0.499853 1.76561 0
M  V30 1816 H 171.906 -1.18959 3.7771 0
M  V30 1817 H 173.08 1.61848 4.31442 0
M  V30 1818 H 171.395 1.31336 3.95145 0
M  V30 1819 H 173.992 -1.16225 5.21916 0
M  V30 1820 H 174.335 -1.93019 3.68849 0
M  V30 1821 H 174.868 -0.25487 3.96983 0
M  V30 1822 H 171.607 1.53831 6.37194 0
M  V30 1823 H 171.127 -0.132628 5.99653 0
M  V30 1824 H 172.806 0.232134 6.46583 0
M  V30 1825 N 172.938 -1.57226 0.108567 0
M  V30 1826 C 173.868 -2.17778 -0.84232 0
M  V30 1827 C 174.849 -1.11487 -1.2847 0
M  V30 1828 O 176.034 -1.39681 -1.34918 0
M  V30 1829 C 173.164 -2.76888 -2.09644 0
M  V30 1830 C 172.118 -3.88669 -1.79221 0
M  V30 1831 C 171.444 -4.34541 -3.11574 0
M  V30 1832 C 172.744 -5.11251 -1.06864 0
M  V30 1833 H 174.438 -2.97489 -0.337774 0
M  V30 1834 H 171.984 -1.43097 -0.161025 0
M  V30 1835 H 173.937 -3.17904 -2.76614 0
M  V30 1836 H 172.661 -1.94451 -2.62405 0
M  V30 1837 H 171.32 -3.48213 -1.14644 0
M  V30 1838 H 170.968 -3.48977 -3.62249 0
M  V30 1839 H 170.668 -5.09914 -2.91996 0
M  V30 1840 H 172.192 -4.782 -3.7968 0
M  V30 1841 H 173.606 -5.49352 -1.63968 0
M  V30 1842 H 172.003 -5.9214 -0.974178 0
M  V30 1843 H 173.073 -4.8487 -0.0536168 0
M  V30 1844 N 174.416 0.165178 -1.56732 0
M  V30 1845 C 175.364 1.22369 -1.97809 0
M  V30 1846 C 176.358 1.45488 -0.867741 0
M  V30 1847 O 177.564 1.45995 -1.05288 0
M  V30 1848 H 173.939 0.411486 -0.629431 0
M  V30 1849 H 175.91 0.850425 -2.86025 0
M  V30 1850 C 174.659 2.55403 -2.35934 0
M  V30 1851 H 173.982 2.38438 -3.20916 0
M  V30 1852 H 175.422 3.2814 -2.68514 0
M  V30 1853 C 173.881 3.14611 -1.20506 0
M  V30 1854 O 174.411 3.98626 -0.496016 0
M  V30 1855 N 172.617 2.7379 -0.97403 0
M  V30 1856 H 172.164 2.0557 -1.55238 0
M  V30 1857 H 172.122 3.1374 -0.203573 0
M  V30 1858 N 175.894 1.51508 0.433938 0
M  V30 1859 C 176.844 1.69451 1.52546 0
M  V30 1860 C 177.828 0.548474 1.51263 0
M  V30 1861 O 179.02 0.804529 1.57659 0
M  V30 1862 C 176.149 1.82604 2.90707 0
M  V30 1863 C 175.235 3.03002 2.96733 0
M  V30 1864 N 175.626 4.26121 2.72496 0
M  V30 1865 C 173.924 3.02327 3.27894 0
M  V30 1866 C 174.625 5.07407 2.84452 0
M  V30 1867 N 173.601 4.42126 3.16269 0
M  V30 1868 H 177.403 2.62305 1.32564 0
M  V30 1869 H 174.917 1.49202 0.641297 0
M  V30 1870 H 176.914 1.93569 3.69238 0
M  V30 1871 H 175.574 0.909339 3.11707 0
M  V30 1872 H 176.585 4.55009 2.4736 0
M  V30 1873 H 173.262 2.20301 3.54646 0
M  V30 1874 H 174.652 6.15422 2.69639 0
M  V30 1875 N 177.372 -0.689602 1.41712 0
M  V30 1876 C 178.621 -1.44534 1.40686 0
M  V30 1877 C 178.934 -1.95588 0.0213352 0
M  V30 1878 O 180.14 -2.71271 -0.111534 0
M  V30 1879 C 178.596 -2.61387 2.47396 0
M  V30 1880 C 178.204 -2.17094 3.91885 0
M  V30 1881 C 179.948 -3.38986 2.55517 0
M  V30 1882 C 177.855 -3.3094 4.90135 0
M  V30 1883 H 176.785 -0.542925 0.52321 0
M  V30 1884 H 179.436 -0.748054 1.6756 0
M  V30 1885 H 177.818 -3.33412 2.13664 0
M  V30 1886 H 178.992 -1.52318 4.34897 0
M  V30 1887 H 177.307 -1.52473 3.8748 0
M  V30 1888 H 179.904 -4.23747 3.26102 0
M  V30 1889 H 180.247 -3.84578 1.59391 0
M  V30 1890 H 180.78 -2.74021 2.8837 0
M  V30 1891 H 177.519 -2.90355 5.87685 0
M  V30 1892 H 177.039 -3.94546 4.51767 0
M  V30 1893 H 178.718 -3.9663 5.11169 0
M  V30 1894 N 178.85 -1.27639 -0.924453 0
M  V30 1895 C 180.078 -1.16989 -1.70649 0
M  V30 1896 C 180.493 0.272869 -1.86818 0
M  V30 1897 O 179.85 1.18549 -1.38753 0
M  V30 1898 C 179.901 -1.85229 -3.10439 0
M  V30 1899 O 179.622 -3.23868 -2.95028 0
M  V30 1900 C 181.123 -1.80746 -4.04779 0
M  V30 1901 H 178.343 -0.406595 -0.53378 0
M  V30 1902 H 180.887 -1.68569 -1.15778 0
M  V30 1903 H 179.042 -1.37545 -3.6216 0
M  V30 1904 H 179.456 -3.57889 -3.83426 0
M  V30 1905 H 180.93 -2.33101 -5.00368 0
M  V30 1906 H 181.407 -0.777499 -4.32263 0
M  V30 1907 H 182.013 -2.28059 -3.58984 0
M  V30 1908 N 180.328 1.1314 -1.09713 0
M  V30 1909 C 181.276 2.20717 -0.733934 0
M  V30 1910 C 182.27 1.6729 0.266506 0
M  V30 1911 O 183.476 1.79547 0.127656 0
M  V30 1912 H 179.851 0.719292 -0.21937 0
M  V30 1913 H 181.822 2.48611 -1.6503 0
M  V30 1914 C 180.571 3.47265 -0.173849 0
M  V30 1915 H 179.894 3.88716 -0.934873 0
M  V30 1916 H 181.334 4.23979 0.0423126 0
M  V30 1917 C 179.793 3.18724 1.09164 0
M  V30 1918 O 180.323 3.37762 2.17439 0
M  V30 1919 N 178.529 2.72583 1.00732 0
M  V30 1920 H 178.076 2.57291 0.126121 0
M  V30 1921 H 178.034 2.53862 1.85476 0
M  V30 1922 N 181.806 0.884767 1.30421 0
M  V30 1923 C 183.034 0.518044 2.0031 0
M  V30 1924 C 183.449 -0.893408 1.66324 0
M  V30 1925 O 182.806 -1.5875 0.900262 0
M  V30 1926 C 182.857 0.682997 3.54989 0
M  V30 1927 O 182.578 2.03888 3.87764 0
M  V30 1928 C 184.079 0.31924 4.42149 0
M  V30 1929 H 181.299 0.200265 0.640418 0
M  V30 1930 H 183.843 1.19001 1.6631 0
M  V30 1931 H 181.998 0.0584052 3.87356 0
M  V30 1932 H 182.412 2.05735 4.82466 0
M  V30 1933 H 183.886 0.485555 5.4986 0
M  V30 1934 H 184.363 -0.742717 4.32875 0
M  V30 1935 H 184.969 0.920147 4.15227 0
M  V30 1936 N 183.284 -1.43765 0.645699 0
M  V30 1937 C 184.509 -2.06767 0.161883 0
M  V30 1938 C 184.934 -1.48034 -1.16049 0
M  V30 1939 O 184.292 -0.587369 -1.71522 0
M  V30 1940 C 184.34 -3.60519 0.0762003 0
M  V30 1941 O 183.444 -4.00982 -0.963721 0
M  V30 1942 H 182.785 -0.657675 0.091429 0
M  V30 1943 H 185.315 -1.84397 0.886499 0
M  V30 1944 H 185.325 -4.07853 -0.109604 0
M  V30 1945 H 184 -4.02646 1.04157 0
M  V30 1946 H 182.577 -3.65253 -0.751312 0
M  V30 1947 N 184.763 -0.387143 -1.52771 0
M  V30 1948 C 185.693 0.440551 -2.29306 0
M  V30 1949 C 186.674 1.06535 -1.32606 0
M  V30 1950 O 187.859 1.07853 -1.61497 0
M  V30 1951 C 184.989 1.56919 -3.09829 0
M  V30 1952 C 183.943 1.07054 -4.14395 0
M  V30 1953 C 183.269 2.29109 -4.83129 0
M  V30 1954 C 184.569 0.140015 -5.22112 0
M  V30 1955 H 186.263 -0.198026 -2.98744 0
M  V30 1956 H 183.809 -0.09668 -1.43675 0
M  V30 1957 H 185.762 2.15503 -3.62128 0
M  V30 1958 H 184.486 2.23532 -2.3812 0
M  V30 1959 H 183.145 0.507247 -3.63074 0
M  V30 1960 H 182.793 2.94227 -4.0797 0
M  V30 1961 H 182.493 1.96406 -5.53804 0
M  V30 1962 H 184.017 2.88339 -5.38231 0
M  V30 1963 H 185.431 0.633978 -5.69784 0
M  V30 1964 H 183.828 -0.0971485 -6.00021 0
M  V30 1965 H 184.898 -0.811711 -4.78058 0
M  V30 1966 N 186.241 1.57166 -0.116904 0
M  V30 1967 C 187.189 2.16457 0.851418 0
M  V30 1968 C 188.183 1.11323 1.27686 0
M  V30 1969 O 189.389 1.2963 1.24884 0
M  V30 1970 H 185.764 0.69271 0.292672 0
M  V30 1971 H 187.735 2.96605 0.32685 0
M  V30 1972 C 186.484 2.77689 2.09246 0
M  V30 1973 H 185.807 3.58285 1.77402 0
M  V30 1974 H 187.247 3.22716 2.7501 0
M  V30 1975 C 185.706 1.74667 2.88085 0
M  V30 1976 O 186.236 1.19877 3.83396 0
M  V30 1977 N 184.442 1.44656 2.52038 0
M  V30 1978 H 183.989 1.89402 1.74599 0
M  V30 1979 H 183.947 0.759675 3.05084 0
M  V30 1980 N 187.719 -0.156864 1.56817 0
M  V30 1981 C 188.649 -1.19589 2.00551 0
M  V30 1982 C 189.63 -1.4536 0.883426 0
M  V30 1983 O 190.815 -1.56449 1.15054 0
M  V30 1984 C 187.945 -2.53143 2.37773 0
M  V30 1985 C 186.899 -2.41913 3.53075 0
M  V30 1986 C 186.225 -3.80088 3.76081 0
M  V30 1987 C 187.525 -1.91157 4.86062 0
M  V30 1988 H 189.219 -0.832293 2.87599 0
M  V30 1989 H 186.765 -0.398918 1.38364 0
M  V30 1990 H 188.718 -3.26047 2.66967 0
M  V30 1991 H 187.442 -2.91319 1.4765 0
M  V30 1992 H 186.101 -1.71462 3.24031 0
M  V30 1993 H 185.749 -4.15683 2.83225 0
M  V30 1994 H 185.449 -3.73439 4.53671 0
M  V30 1995 H 186.973 -4.54556 4.0769 0
M  V30 1996 H 188.387 -2.53846 5.14038 0
M  V30 1997 H 186.784 -1.95422 5.67389 0
M  V30 1998 H 187.854 -0.866673 4.77092 0
M  V30 1999 N 189.197 -1.51736 -0.425897 0
M  V30 2000 C 190.444 -1.6497 -1.17436 0
M  V30 2001 C 190.772 -0.371445 -1.9092 0
M  V30 2002 O 190.027 0.644963 -1.84767 0
M  V30 2003 C 190.326 -2.81103 -2.20717 0
M  V30 2004 C 189.992 -4.19954 -1.64162 0
M  V30 2005 C 188.654 -4.57725 -1.48462 0
M  V30 2006 C 191.006 -5.06552 -1.22696 0
M  V30 2007 C 188.334 -5.79789 -0.897873 0
M  V30 2008 C 190.686 -6.29205 -0.654464 0
M  V30 2009 C 189.35 -6.6574 -0.484456 0
M  V30 2010 H 188.62 -0.603668 -0.429727 0
M  V30 2011 H 191.267 -1.85798 -0.463829 0
M  V30 2012 H 189.572 -2.54542 -2.97852 0
M  V30 2013 H 191.269 -2.8854 -2.78471 0
M  V30 2014 H 187.859 -3.90181 -1.77361 0
M  V30 2015 H 192.043 -4.77968 -1.33642 0
M  V30 2016 H 187.299 -6.06733 -0.75402 0
M  V30 2017 H 191.473 -6.95643 -0.324694 0
M  V30 2018 H 189.1 -7.60195 -0.0276833 0
M  V30 2019 N 190.675 0.682077 -1.42076 0
M  V30 2020 C 191.625 1.78823 -1.41444 0
M  V30 2021 C 192.609 1.58323 -0.28681 0
M  V30 2022 O 193.801 1.68926 -0.528498 0
M  V30 2023 C 190.93 3.17232 -1.3122 0
M  V30 2024 C 190.016 3.4338 -2.489 0
M  V30 2025 N 190.407 3.40152 -3.7434 0
M  V30 2026 C 188.705 3.73986 -2.43003 0
M  V30 2027 C 189.406 3.65581 -4.52466 0
M  V30 2028 N 188.382 3.85989 -3.8277 0
M  V30 2029 H 192.184 1.7471 -2.36334 0
M  V30 2030 H 189.698 0.882622 -1.36321 0
M  V30 2031 H 191.695 3.96489 -1.2885 0
M  V30 2032 H 190.355 3.22547 -0.373263 0
M  V30 2033 H 191.366 3.20221 -4.07037 0
M  V30 2034 H 188.043 3.86591 -1.57651 0
M  V30 2035 H 189.433 3.69108 -5.61435 0
M  V30 2036 N 192.153 1.28127 0.917671 0
M  V30 2037 C 193.43 1.05761 1.64542 0
M  V30 2038 C 193.81 -0.404344 2.07191 0
M  V30 2039 O 193.158 -1.38963 1.81388 0
M  V30 2040 C 193.368 2.02857 2.83989 0
M  V30 2041 C 194.716 2.32786 3.551 0
M  V30 2042 O 195.74 2.0091 2.94132 0
M  V30 2043 O 194.599 2.87169 4.64969 0
M  V30 2044 H 191.693 0.403916 0.721652 0
M  V30 2045 H 194.239 1.39431 0.967322 0
M  V30 2046 H 193.011 3.01407 2.49538 0
M  V30 2047 H 192.634 1.69809 3.59514 0
M  V30 2048 N 193.631 -1.12557 1.10312 0
M  V30 2049 C 194.908 -1.80363 0.756878 0
M  V30 2050 C 195.288 -1.97067 -0.756824 0
M  V30 2051 O 194.636 -1.54601 -1.68259 0
M  V30 2052 C 194.846 -3.14812 1.50647 0
M  V30 2053 C 196.194 -3.90029 1.67817 0
M  V30 2054 O 197.218 -3.24464 1.46974 0
M  V30 2055 O 196.077 -5.07652 2.02365 0
M  V30 2056 H 193.171 -0.780667 0.272926 0
M  V30 2057 H 195.717 -1.19404 1.20586 0
M  V30 2058 H 194.489 -2.97936 2.53672 0
M  V30 2059 H 194.112 -3.83478 1.05026 0
M  V30 2060 N 195.109 -0.891671 -1.2995 0
M  V30 2061 C 196.358 -0.509521 -1.95158 0
M  V30 2062 C 196.671 0.947388 -1.71125 0
M  V30 2063 O 197.877 1.43669 -2.30372 0
M  V30 2064 C 196.333 -0.860315 -3.49466 0
M  V30 2065 C 195.941 -2.33545 -3.8231 0
M  V30 2066 C 197.685 -0.547687 -4.20952 0
M  V30 2067 C 195.592 -2.62752 -5.29826 0
M  V30 2068 H 194.522 -0.18682 -0.730489 0
M  V30 2069 H 197.173 -1.08756 -1.47798 0
M  V30 2070 H 195.555 -0.211285 -3.95436 0
M  V30 2071 H 196.729 -3.02936 -3.47227 0
M  V30 2072 H 195.044 -2.61629 -3.23944 0
M  V30 2073 H 197.641 -0.742854 -5.29515 0
M  V30 2074 H 197.984 0.51332 -4.13123 0
M  V30 2075 H 198.517 -1.1542 -3.80688 0
M  V30 2076 H 195.256 -3.6762 -5.42712 0
M  V30 2077 H 194.776 -1.97977 -5.66185 0
M  V30 2078 H 196.455 -2.48601 -5.97333 0
M  V30 2079 N 196.587 1.43421 -0.653314 0
M  V30 2080 C 197.537 2.2792 0.060558 0
M  V30 2081 C 198.521 1.39906 0.794677 0
M  V30 2082 O 199.713 1.63536 0.677128 0
M  V30 2083 C 196.842 3.27603 1.0262 0
M  V30 2084 C 195.928 4.23104 0.290551 0
M  V30 2085 N 196.319 5.01031 -0.692967 0
M  V30 2086 C 194.617 4.42816 0.531984 0
M  V30 2087 C 195.318 5.70626 -1.12963 0
M  V30 2088 N 194.294 5.41617 -0.463867 0
M  V30 2089 H 198.096 2.85585 -0.694143 0
M  V30 2090 H 195.61 1.55126 -0.480602 0
M  V30 2091 H 197.607 3.86918 1.55242 0
M  V30 2092 H 196.267 2.71499 1.78096 0
M  V30 2093 H 197.278 5.0669 -1.07169 0
M  V30 2094 H 193.955 3.97782 1.26791 0
M  V30 2095 H 195.345 6.4318 -1.94343 0
M  V30 2096 N 198.065 0.39524 1.52563 0
M  V30 2097 C 199.015 -0.4541 2.23432 0
M  V30 2098 C 199.999 -1.02482 1.24042 0
M  V30 2099 O 201.191 -0.949938 1.49349 0
M  V30 2100 C 198.32 -1.57769 3.049 0
M  V30 2101 C 197.406 -1.01842 4.1169 0
M  V30 2102 N 197.797 -0.184613 5.05463 0
M  V30 2103 C 196.095 -1.29033 4.26927 0
M  V30 2104 C 196.796 0.125013 5.81566 0
M  V30 2105 N 195.772 -0.480498 5.41472 0
M  V30 2106 H 199.574 0.189413 2.93289 0
M  V30 2107 H 197.088 0.204877 1.61102 0
M  V30 2108 H 199.085 -2.19862 3.54212 0
M  V30 2109 H 197.745 -2.22397 2.36579 0
M  V30 2110 H 198.756 0.178602 5.17592 0
M  V30 2111 H 195.433 -1.93721 3.69836 0
M  V30 2112 H 196.823 0.800962 6.67109 0
M  V30 2113 N 199.544 -1.57102 0.125237 0
M  V30 2114 C 200.79 -1.95697 -0.532035 0
M  V30 2115 C 201.123 -1.009 -1.6593 0
M  V30 2116 O 200.398 -0.047347 -1.94442 0
M  V30 2117 C 200.681 -3.44181 -1.05884 0
M  V30 2118 C 200.534 -4.49752 0.0654392 0
M  V30 2119 C 201.853 -3.94655 -1.9477 0
M  V30 2120 H 198.972 -0.711571 -0.191925 0
M  V30 2121 H 201.614 -1.88923 0.20206 0
M  V30 2122 H 199.764 -3.50085 -1.68442 0
M  V30 2123 H 201.436 -4.55943 0.700982 0
M  V30 2124 H 199.679 -4.27653 0.727709 0
M  V30 2125 H 200.35 -5.50924 -0.344505 0
M  V30 2126 H 202.826 -3.91094 -1.42074 0
M  V30 2127 H 201.702 -4.99057 -2.28546 0
M  V30 2128 H 201.963 -3.35718 -2.87656 0
M  V30 2129 N 201.022 0.148545 -1.56898 0
M  V30 2130 C 202.438 0.501131 -1.51528 0
M  V30 2131 C 202.638 1.83458 -0.833399 0
M  V30 2132 O 201.694 2.49259 -0.40328 0
M  V30 2133 C 203.007 0.512864 -2.96294 0
M  V30 2134 C 204.555 0.598487 -3.07225 0
M  V30 2135 C 205.03 0.640897 -4.53494 0
M  V30 2136 N 206.521 0.703163 -4.57832 0
M  V30 2137 C 207.256 0.756935 -5.68382 0
M  V30 2138 N 206.752 0.770147 -6.88506 0
M  V30 2139 N 208.545 0.797698 -5.56411 0
M  V30 2140 H 200.696 -0.725532 -1.99624 0
M  V30 2141 H 202.959 -0.264358 -0.910395 0
M  V30 2142 H 202.665 -0.398691 -3.49433 0
M  V30 2143 H 202.539 1.35133 -3.52163 0
M  V30 2144 H 204.926 1.50046 -2.54106 0
M  V30 2145 H 205.007 -0.267093 -2.54402 0
M  V30 2146 H 204.651 -0.256915 -5.0725 0
M  V30 2147 H 204.581 1.52295 -5.04097 0
M  V30 2148 H 207.072 0.700314 -3.71354 0
M  V30 2149 H 207.385 0.812983 -7.68512 0
M  V30 2150 H 205.73 0.738049 -6.9107 0
M  V30 2151 H 208.921 0.784535 -4.61479 0
M  V30 2152 H 209.094 0.83614 -6.42583 0
M  V30 2153 N 202.5 1.5196 0.417844 0
M  V30 2154 C 203.447 1.74678 1.50852 0
M  V30 2155 C 204.417 0.588947 1.55308 0
M  V30 2156 O 205.602 0.825544 1.72016 0
M  V30 2157 C 202.742 1.89544 2.88387 0
M  V30 2158 C 201.855 3.17166 2.93309 0
M  V30 2159 C 200.99 3.22513 4.22088 0
M  V30 2160 C 200.029 4.44372 4.20951 0
M  V30 2161 N 199.166 4.47161 5.41287 0
M  V30 2162 H 204.006 2.67768 1.30783 0
M  V30 2163 H 201.543 1.32689 0.63498 0
M  V30 2164 H 203.501 1.96146 3.68216 0
M  V30 2165 H 202.131 0.998424 3.06971 0
M  V30 2166 H 201.183 3.19778 2.06024 0
M  V30 2167 H 202.495 4.07021 2.88332 0
M  V30 2168 H 201.649 3.28139 5.10303 0
M  V30 2169 H 200.388 2.30581 4.29748 0
M  V30 2170 H 199.393 4.38902 3.31127 0
M  V30 2171 H 200.618 5.3759 4.14938 0
M  V30 2172 H 198.564 3.58108 5.49632 0
M  V30 2173 H 198.481 5.3085 5.3827 0
M  V30 2174 H 199.749 4.57005 6.3148 0
M  V30 2175 N 203.978 -0.674533 1.42435 0
M  V30 2176 C 205.203 -1.46784 1.46524 0
M  V30 2177 C 205.628 -1.87938 0.078066 0
M  V30 2178 O 204.986 -1.56014 -0.92354 0
M  V30 2179 C 205.034 -2.69307 2.39805 0
M  V30 2180 O 204.138 -3.67587 1.86959 0
M  V30 2181 H 203.479 -0.440959 0.496439 0
M  V30 2182 H 206.009 -0.827326 1.87127 0
M  V30 2183 H 206.019 -3.17374 2.56393 0
M  V30 2184 H 204.694 -2.38692 3.40586 0
M  V30 2185 H 203.271 -3.2662 1.79927 0
M  V30 2186 N 205.456 -1.28612 -0.910864 0
M  V30 2187 C 206.389 -1.07109 -2.01502 0
M  V30 2188 C 207.367 0.013706 -1.62594 0
M  V30 2189 O 208.551 -0.134796 -1.88017 0
M  V30 2190 C 205.678 -0.628255 -3.32822 0
M  V30 2191 C 204.724 -1.71012 -3.90714 0
M  V30 2192 S 205.557 -3.30676 -4.21205 0
M  V30 2193 C 206.713 -2.88234 -5.55583 0
M  V30 2194 H 206.946 -2.00591 -2.19432 0
M  V30 2195 H 204.479 -1.12633 -1.05609 0
M  V30 2196 H 206.437 -0.37946 -4.08742 0
M  V30 2197 H 205.098 0.28678 -3.12788 0
M  V30 2198 H 204.291 -1.35195 -4.85529 0
M  V30 2199 H 203.893 -1.91186 -3.21441 0
M  V30 2200 H 206.185 -2.34584 -6.35591 0
M  V30 2201 H 207.128 -3.81857 -5.96314 0
M  V30 2202 H 207.536 -2.26862 -5.16908 0
M  V30 2203 N 206.934 1.1197 -1.10907 0
M  V30 2204 C 207.844 2.21433 -0.774896 0
M  V30 2205 C 208.86 1.72478 0.229657 0
M  V30 2206 O 210.036 2.01288 0.0672008 0
M  V30 2207 C 207.101 3.4602 -0.216986 0
M  V30 2208 C 206.162 4.09791 -1.27944 0
M  V30 2209 C 205.395 5.28431 -0.748055 0
M  V30 2210 O 205.618 5.68823 0.423833 0
M  V30 2211 O 204.552 5.82644 -1.51027 0
M  V30 2212 H 208.378 2.5242 -1.68873 0
M  V30 2213 H 205.963 1.20399 -0.884555 0
M  V30 2214 H 207.845 4.21304 0.090059 0
M  V30 2215 H 206.52 3.16698 0.669633 0
M  V30 2216 H 205.427 3.36265 -1.63941 0
M  V30 2217 H 206.76 4.4328 -2.13925 0
M  V30 2218 N 208.412 0.89855 1.29475 0
M  V30 2219 C 209.658 0.524658 1.95896 0
M  V30 2220 C 209.991 -0.926468 1.70676 0
M  V30 2221 O 209.266 -1.65665 1.01908 0
M  V30 2222 C 209.549 0.81633 3.50725 0
M  V30 2223 C 209.402 2.31907 3.85408 0
M  V30 2224 C 210.721 0.302038 4.39062 0
M  V30 2225 H 207.84 0.19209 0.711527 0
M  V30 2226 H 210.482 1.12502 1.53112 0
M  V30 2227 H 208.632 0.305369 3.87298 0
M  V30 2228 H 210.304 2.89949 3.58786 0
M  V30 2229 H 208.547 2.78027 3.32992 0
M  V30 2230 H 209.218 2.47373 4.93468 0
M  V30 2231 H 211.694 0.739551 4.09475 0
M  V30 2232 H 210.57 0.535331 5.46283 0
M  V30 2233 H 210.831 -0.797216 4.34853 0
M  V30 2234 N 209.89 -1.43072 0.660911 0
M  V30 2235 C 210.838 -2.32569 -0.0378199 0
M  V30 2236 C 211.832 -1.49046 -0.805092 0
M  V30 2237 O 213.038 -1.65206 -0.714624 0
M  V30 2238 H 209.413 -0.75136 -0.031019 0
M  V30 2239 H 211.384 -2.89216 0.734609 0
M  V30 2240 C 210.133 -3.33453 -0.985124 0
M  V30 2241 H 209.456 -3.97752 -0.404147 0
M  V30 2242 H 210.896 -3.98691 -1.44297 0
M  V30 2243 C 209.355 -2.64642 -2.08486 0
M  V30 2244 O 209.885 -2.46776 -3.16961 0
M  V30 2245 N 208.091 -2.23891 -1.8526 0
M  V30 2246 H 207.638 -2.38621 -0.970449 0
M  V30 2247 H 207.596 -1.78181 -2.59034 0
M  V30 2248 N 211.368 -0.403325 -1.52352 0
M  V30 2249 C 212.615 0.174347 -2.01748 0
M  V30 2250 C 212.943 1.45636 -1.2892 0
M  V30 2251 O 212.198 1.9193 -0.382258 0
M  V30 2252 C 212.497 0.474665 -3.54234 0
M  V30 2253 C 212.163 -0.717458 -4.45155 0
M  V30 2254 C 210.825 -1.04447 -4.69728 0
M  V30 2255 C 213.177 -1.51432 -4.98716 0
M  V30 2256 C 210.505 -2.16963 -5.45109 0
M  V30 2257 C 212.857 -2.6302 -5.75329 0
M  V30 2258 C 211.521 -2.96213 -5.98175 0
M  V30 2259 H 210.791 0.0637981 -0.738248 0
M  V30 2260 H 213.438 -0.543553 -1.83624 0
M  V30 2261 H 211.743 1.27406 -3.70506 0
M  V30 2262 H 213.44 0.934496 -3.89959 0
M  V30 2263 H 210.03 -0.452596 -4.26204 0
M  V30 2264 H 214.214 -1.27491 -4.79645 0
M  V30 2265 H 209.47 -2.43034 -5.61021 0
M  V30 2266 H 213.644 -3.25158 -6.15829 0
M  V30 2267 H 211.271 -3.83516 -6.56368 0
M  V30 2268 N 212.846 1.57033 -0.133567 0
M  V30 2269 C 213.776 2.1909 0.807567 0
M  V30 2270 C 214.757 1.13517 1.26681 0
M  V30 2271 O 215.942 1.41809 1.32679 0
M  V30 2272 C 213.072 2.80188 2.05212 0
M  V30 2273 C 212.026 3.91471 1.73015 0
M  V30 2274 C 211.352 4.39443 3.04622 0
M  V30 2275 C 212.652 5.12886 0.987168 0
M  V30 2276 H 214.346 2.97988 0.290403 0
M  V30 2277 H 211.892 1.43335 0.138239 0
M  V30 2278 H 213.845 3.22264 2.71521 0
M  V30 2279 H 212.569 1.98601 2.59278 0
M  V30 2280 H 211.228 3.49993 1.0909 0
M  V30 2281 H 210.876 3.54695 3.56651 0
M  V30 2282 H 210.576 5.14495 2.83847 0
M  V30 2283 H 212.1 4.8418 3.72024 0
M  V30 2284 H 213.514 5.51891 1.55208 0
M  V30 2285 H 211.911 5.93615 0.87985 0
M  V30 2286 H 212.981 4.84894 -0.0235286 0
M  V30 2287 N 214.325 -0.140222 1.56975 0
M  V30 2288 C 215.55 -0.870414 1.88251 0
M  V30 2289 C 215.975 -1.73637 0.723312 0
M  V30 2290 O 215.333 -1.78329 -0.32689 0
M  V30 2291 C 215.381 -1.69737 3.18154 0
M  V30 2292 O 214.485 -2.80229 3.02565 0
M  V30 2293 H 213.826 -0.242025 0.61832 0
M  V30 2294 H 216.356 -0.128999 2.04193 0
M  V30 2295 H 216.366 -2.09099 3.50345 0
M  V30 2296 H 215.041 -1.06152 4.02125 0
M  V30 2297 H 213.618 -2.44224 2.81796 0
M  V30 2298 N 215.803 -1.52179 -0.40978 0
M  V30 2299 C 217.033 -1.69807 -1.17682 0
M  V30 2300 C 217.441 -0.406908 -1.84773 0
M  V30 2301 O 216.784 0.626863 -1.72673 0
M  V30 2302 C 216.846 -2.77712 -2.2829 0
M  V30 2303 C 216.51 -4.19481 -1.81341 0
M  V30 2304 C 217.507 -5.03345 -1.30154 0
M  V30 2305 C 215.192 -4.65713 -1.88194 0
M  V30 2306 C 217.186 -6.31511 -0.864416 0
M  V30 2307 C 214.873 -5.93869 -1.44093 0
M  V30 2308 C 215.871 -6.76597 -0.933023 0
M  V30 2309 O 215.559 -8.02354 -0.49838 0
M  V30 2310 H 215.291 -0.572372 -0.359675 0
M  V30 2311 H 217.845 -1.99511 -0.488311 0
M  V30 2312 H 216.075 -2.43383 -3.00502 0
M  V30 2313 H 217.764 -2.83946 -2.90051 0
M  V30 2314 H 218.53 -4.68819 -1.24232 0
M  V30 2315 H 214.409 -4.01424 -2.26671 0
M  V30 2316 H 217.953 -6.96033 -0.467286 0
M  V30 2317 H 213.85 -6.27903 -1.49694 0
M  V30 2318 H 214.618 -8.16135 -0.621747 0
M  V30 2319 N 217.281 0.66697 -1.42791 0
M  V30 2320 C 218.527 1.4291 -1.43891 0
M  V30 2321 C 218.86 1.94114 -0.0578972 0
M  V30 2322 O 218.135 1.71414 0.91911 0
M  V30 2323 C 218.418 2.62049 -2.46987 0
M  V30 2324 C 218.271 2.16426 -3.94309 0
M  V30 2325 C 219.59 3.64266 -2.46978 0
M  V30 2326 H 216.709 0.518306 -0.523954 0
M  V30 2327 H 219.351 0.757321 -1.74255 0
M  V30 2328 H 217.501 3.19361 -2.21225 0
M  V30 2329 H 219.173 1.64221 -4.31079 0
M  V30 2330 H 217.416 1.47925 -4.078 0
M  V30 2331 H 218.087 3.02038 -4.62036 0
M  V30 2332 H 220.563 3.16686 -2.69906 0
M  V30 2333 H 219.439 4.45196 -3.21079 0
M  V30 2334 H 219.7 4.15927 -1.49857 0
M  V30 2335 N 218.759 1.29093 0.90403 0
M  V30 2336 C 220.005 1.16986 1.65656 0
M  V30 2337 C 220.338 -0.278925 1.92186 0
M  V30 2338 O 219.613 -1.2019 1.5292 0
M  V30 2339 C 219.896 1.97908 3.0084 0
M  V30 2340 C 219.749 3.50903 2.81403 0
M  V30 2341 C 221.068 1.80208 4.01513 0
M  V30 2342 H 218.187 0.426346 0.601164 0
M  V30 2343 H 220.829 1.58518 1.04747 0
M  V30 2344 H 218.979 1.62616 3.52829 0
M  V30 2345 H 220.651 3.96153 2.36348 0
M  V30 2346 H 218.894 3.76045 2.1627 0
M  V30 2347 H 219.565 4.02791 3.77443 0
M  V30 2348 H 222.041 2.11025 3.58619 0
M  V30 2349 H 220.917 2.39184 4.94047 0
M  V30 2350 H 221.178 0.756119 4.35586 0
M  V30 2351 N 220.237 -1.11381 1.11499 0
M  V30 2352 C 221.167 -2.19509 0.796125 0
M  V30 2353 C 222.148 -1.68458 -0.235796 0
M  V30 2354 O 223.333 -1.93947 -0.0991344 0
M  V30 2355 C 220.463 -3.46475 0.239205 0
M  V30 2356 C 219.417 -4.10744 1.20307 0
M  V30 2357 C 218.743 -5.32293 0.50683 0
M  V30 2358 C 220.043 -4.55597 2.55399 0
M  V30 2359 H 221.737 -2.46439 1.70024 0
M  V30 2360 H 219.283 -1.18446 0.818935 0
M  V30 2361 H 221.236 -4.214 0.00392006 0
M  V30 2362 H 219.96 -3.19006 -0.700206 0
M  V30 2363 H 218.619 -3.37813 1.42399 0
M  V30 2364 H 218.267 -5.01095 -0.437408 0
M  V30 2365 H 217.967 -5.76243 1.1497 0
M  V30 2366 H 219.491 -6.09956 0.280351 0
M  V30 2367 H 220.905 -5.21841 2.37391 0
M  V30 2368 H 219.302 -5.10363 3.15673 0
M  V30 2369 H 220.372 -3.69013 3.14575 0
M  V30 2370 N 221.715 -0.905404 -1.28997 0
M  V30 2371 C 222.943 -0.549846 -1.9946 0
M  V30 2372 C 223.358 0.866834 -1.67724 0
M  V30 2373 O 222.715 1.57298 -0.925404 0
M  V30 2374 C 222.766 -0.739387 -3.53858 0
M  V30 2375 O 222.487 -2.10031 -3.84472 0
M  V30 2376 C 223.988 -0.389541 -4.41585 0
M  V30 2377 H 221.208 -0.210429 -0.637151 0
M  V30 2378 H 223.752 -1.21632 -1.64396 0
M  V30 2379 H 221.907 -0.120023 -3.87214 0
M  V30 2380 H 222.321 -2.13385 -4.79132 0
M  V30 2381 H 223.795 -0.572972 -5.49018 0
M  V30 2382 H 224.272 0.673756 -4.34001 0
M  V30 2383 H 224.878 -0.986089 -4.1371 0
M  V30 2384 N 223.193 1.4272 -0.668489 0
M  V30 2385 C 224.439 2.01923 -0.188419 0
M  V30 2386 C 224.772 1.52704 1.19979 0
M  V30 2387 O 224.047 0.726566 1.8042 0
M  V30 2388 C 224.33 3.59451 -0.216085 0
M  V30 2389 C 224.183 4.18864 -1.6393 0
M  V30 2390 C 225.502 4.37903 0.439179 0
M  V30 2391 H 222.621 0.733674 -0.0699412 0
M  V30 2392 H 225.263 1.69822 -0.852076 0
M  V30 2393 H 223.413 3.86929 0.349012 0
M  V30 2394 H 225.085 4.02362 -2.25616 0
M  V30 2395 H 223.328 3.74933 -2.18193 0
M  V30 2396 H 223.999 5.27987 -1.61039 0
M  V30 2397 H 226.475 4.16079 -0.0417878 0
M  V30 2398 H 225.351 5.47519 0.389157 0
M  V30 2399 H 225.612 4.15303 1.51577 0
M  V30 2400 N 224.671 0.411399 1.52136 0
M  V30 2401 C 225.634 -0.401089 2.25663 0
M  V30 2402 C 226.634 -0.971732 1.28117 0
M  V30 2403 O 227.824 -0.850254 1.52041 0
M  V30 2404 C 224.956 -1.56483 3.02863 0
M  V30 2405 H 226.149 0.24295 2.98914 0
M  V30 2406 H 223.702 0.163968 1.55438 0
M  V30 2407 H 224.437 -2.24567 2.33967 0
M  V30 2408 H 224.222 -1.16211 3.74483 0
M  V30 2409 H 225.712 -2.13951 3.58629 0
M  V30 2410 N 226.149 -1.5696 0.141893 0
M  V30 2411 C 227.112 -2.15316 -0.785587 0
M  V30 2412 C 228.112 -1.09366 -1.1788 0
M  V30 2413 O 229.302 -1.35031 -1.10056 0
M  V30 2414 C 226.434 -2.71211 -2.06537 0
M  V30 2415 H 227.627 -2.98608 -0.278041 0
M  V30 2416 H 225.18 -1.5593 -0.107519 0
M  V30 2417 H 225.915 -1.91571 -2.6167 0
M  V30 2418 H 225.7 -3.4872 -1.79268 0
M  V30 2419 H 227.19 -3.16189 -2.72789 0
M  V30 2420 N 227.627 0.131896 -1.57047 0
M  V30 2421 C 228.557 1.16384 -2.02428 0
M  V30 2422 C 229.538 1.43936 -0.90644 0
M  V30 2423 O 230.723 1.54599 -1.17528 0
M  V30 2424 C 227.853 2.49328 -2.4177 0
M  V30 2425 C 226.807 2.36266 -3.56879 0
M  V30 2426 C 226.133 3.74057 -3.8208 0
M  V30 2427 C 227.433 1.834 -4.89042 0
M  V30 2428 H 229.127 0.786433 -2.88887 0
M  V30 2429 H 226.673 0.376855 -1.38981 0
M  V30 2430 H 228.626 3.21759 -2.7212 0
M  V30 2431 H 227.35 2.88934 -1.52266 0
M  V30 2432 H 226.009 1.66286 -3.26718 0
M  V30 2433 H 225.657 4.11125 -2.89803 0
M  V30 2434 H 225.357 3.66174 -4.59554 0
M  V30 2435 H 226.881 4.48012 -4.1487 0
M  V30 2436 H 228.295 2.45636 -5.18011 0
M  V30 2437 H 226.692 1.8637 -5.70426 0
M  V30 2438 H 227.762 0.790662 -4.7841 0
M  V30 2439 N 229.106 1.52395 0.401703 0
M  V30 2440 C 230.517 1.58899 0.980202 0
M  V30 2441 C 230.868 0.434032 1.91339 0
M  V30 2442 O 229.993 -0.444619 2.11783 0
M  V30 2443 C 230.588 2.87994 1.78451 0
M  V30 2444 C 229.147 2.96953 2.31292 0
M  V30 2445 C 228.294 2.53903 1.11483 0
M  V30 2446 H 231.245 1.57657 0.18168 0
M  V30 2447 H 231.266 2.73765 2.64259 0
M  V30 2448 H 230.778 3.72035 1.10506 0
M  V30 2449 H 228.879 2.17422 3.02586 0
M  V30 2450 H 228.992 4.01344 2.61649 0
M  V30 2451 H 227.356 2.07925 1.47104 0
M  V30 2452 H 228.139 3.40326 0.450928 0
M  V30 2453 N 230.584 -0.659388 1.43143 0
M  V30 2454 C 231.517 -1.78425 1.42267 0
M  V30 2455 C 232.495 -1.60085 0.284894 0
M  V30 2456 O 233.679 -1.82351 0.477527 0
M  V30 2457 C 230.806 -3.15642 1.22833 0
M  V30 2458 C 229.852 -3.52698 2.39806 0
M  V30 2459 S 230.685 -3.53372 4.02353 0
M  V30 2460 C 231.841 -4.93256 3.85291 0
M  V30 2461 H 232.074 -1.78897 2.37452 0
M  V30 2462 H 229.607 -0.831469 1.301 0
M  V30 2463 H 231.565 -3.94838 1.12308 0
M  V30 2464 H 230.226 -3.12739 0.29207 0
M  V30 2465 H 229.419 -4.52475 2.21996 0
M  V30 2466 H 229.021 -2.80899 2.46925 0
M  V30 2467 H 231.313 -5.81751 3.47235 0
M  V30 2468 H 232.256 -5.16115 4.84799 0
M  V30 2469 H 232.664 -4.665 3.17865 0
M  V30 2470 N 232.062 -1.29571 -0.897171 0
M  V30 2471 C 232.992 -1.17473 -2.01798 0
M  V30 2472 C 233.973 -0.068323 -1.69963 0
M  V30 2473 O 235.158 -0.248239 -1.92607 0
M  V30 2474 C 232.288 -0.853099 -3.36659 0
M  V30 2475 C 231.242 -1.9161 -3.82713 0
M  V30 2476 C 230.568 -1.44773 -5.14728 0
M  V30 2477 C 231.868 -3.32535 -4.02763 0
M  V30 2478 H 233.562 -2.11237 -2.12177 0
M  V30 2479 H 231.108 -1.01699 -1.01948 0
M  V30 2480 H 233.061 -0.755165 -4.14578 0
M  V30 2481 H 231.785 0.120236 -3.26379 0
M  V30 2482 H 230.444 -2.00346 -3.07013 0
M  V30 2483 H 230.092 -0.462995 -5.00865 0
M  V30 2484 H 229.792 -2.15865 -5.46513 0
M  V30 2485 H 231.316 -1.36334 -5.95185 0
M  V30 2486 H 232.73 -3.26626 -4.71156 0
M  V30 2487 H 231.127 -4.01607 -4.45905 0
M  V30 2488 H 232.197 -3.75326 -3.07016 0
M  V30 2489 N 233.54 1.10788 -1.12088 0
M  V30 2490 C 234.487 2.17025 -0.785407 0
M  V30 2491 C 235.457 1.64265 0.246191 0
M  V30 2492 O 236.642 1.90412 0.121584 0
M  V30 2493 C 233.782 3.44249 -0.242177 0
M  V30 2494 C 232.895 4.1098 -1.33115 0
M  V30 2495 C 232.03 5.25911 -0.747741 0
M  V30 2496 C 231.069 5.84538 -1.81609 0
M  V30 2497 N 230.206 6.90853 -1.25167 0
M  V30 2498 H 235.046 2.45066 -1.69548 0
M  V30 2499 H 232.583 1.20297 -0.846582 0
M  V30 2500 H 234.541 4.17101 0.0908026 0
M  V30 2501 H 233.171 3.16571 0.631072 0
M  V30 2502 H 232.223 3.36133 -1.78097 0
M  V30 2503 H 233.535 4.50601 -2.13917 0
M  V30 2504 H 232.689 6.056 -0.365216 0
M  V30 2505 H 231.428 4.87614 0.0915188 0
M  V30 2506 H 230.433 5.03522 -2.20785 0
M  V30 2507 H 231.658 6.249 -2.6585 0
M  V30 2508 H 229.604 6.54562 -0.434174 0
M  V30 2509 H 229.521 7.29166 -1.99633 0
M  V30 2510 H 230.789 7.7433 -0.896259 0
M  V30 2511 N 235.018 0.912232 1.28515 0
M  V30 2512 C 235.95 0.35676 2.26406 0
M  V30 2513 C 236.963 -0.503933 1.54804 0
M  V30 2514 O 238.152 -0.319059 1.75625 0
M  V30 2515 C 235.252 -0.508825 3.35058 0
M  V30 2516 C 234.425 0.329007 4.36161 0
M  V30 2517 C 233.484 -0.471422 5.24084 0
M  V30 2518 O 232.51 0.115482 5.69083 0
M  V30 2519 N 233.712 -1.77479 5.52704 0
M  V30 2520 H 236.477 1.19818 2.74707 0
M  V30 2521 H 234.038 0.778022 1.4198 0
M  V30 2522 H 236.03 -1.051 3.90815 0
M  V30 2523 H 234.6 -1.25095 2.86478 0
M  V30 2524 H 233.82 1.05256 3.79888 0
M  V30 2525 H 235.108 0.90234 5.00735 0
M  V30 2526 H 234.506 -2.27417 5.17975 0
M  V30 2527 H 233.063 -2.26382 6.11224 0
M  V30 2528 N 236.496 -1.42363 0.676048 0
M  V30 2529 C 237.721 -2.06377 0.205705 0
M  V30 2530 C 238.146 -1.50463 -1.12883 0
M  V30 2531 O 237.504 -0.623619 -1.70237 0
M  V30 2532 C 237.552 -3.60277 0.152655 0
M  V30 2533 O 236.656 -4.02935 -0.87845 0
M  V30 2534 H 235.997 -0.655588 0.105359 0
M  V30 2535 H 238.527 -1.82475 0.925412 0
M  V30 2536 H 238.537 -4.07993 -0.0230675 0
M  V30 2537 H 237.212 -4.00346 1.12675 0
M  V30 2538 H 235.789 -3.66764 -0.673668 0
M  V30 2539 N 237.974 -0.419461 -1.51915 0
M  V30 2540 C 238.922 0.415502 -2.28859 0
M  V30 2541 C 239.916 1.03674 -1.3397 0
M  V30 2542 O 241.122 0.973757 -1.51387 0
M  V30 2543 H 237.497 0.152786 -0.736315 0
M  V30 2544 H 239.468 -0.254531 -2.97312 0
M  V30 2545 C 238.217 1.51425 -3.12995 0
M  V30 2546 H 237.54 1.04556 -3.85886 0
M  V30 2547 H 238.98 2.07208 -3.6992 0
M  V30 2548 C 237.439 2.48745 -2.27217 0
M  V30 2549 O 237.969 3.52871 -1.9195 0
M  V30 2550 N 236.175 2.19202 -1.90785 0
M  V30 2551 H 235.722 1.34556 -2.19664 0
M  V30 2552 H 235.68 2.84561 -1.33687 0
M  V30 2553 N 239.452 1.56882 -0.150215 0
M  V30 2554 C 240.7 1.9584 0.499105 0
M  V30 2555 C 241.021 1.03623 1.65188 0
M  V30 2556 O 240.291 0.0984084 1.95653 0
M  V30 2557 H 238.871 0.723119 0.187373 0
M  V30 2558 H 241.533 1.9358 -0.226466 0
M  V30 2559 H 240.629 2.99638 0.873122 0
M  V30 2560 N 240.93 -0.123565 1.57115 0
M  V30 2561 C 242.155 -0.850398 1.89164 0
M  V30 2562 C 242.58 -1.7286 0.741688 0
M  V30 2563 O 241.938 -1.78665 -0.307958 0
M  V30 2564 C 241.986 -1.66353 3.19936 0
M  V30 2565 O 241.09 -2.77004 3.0552 0
M  V30 2566 H 240.431 -0.235454 0.620852 0
M  V30 2567 H 242.961 -0.107335 2.04318 0
M  V30 2568 H 242.971 -2.05372 3.52543 0
M  V30 2569 H 241.646 -1.01881 4.03228 0
M  V30 2570 H 240.223 -2.41221 2.84371 0
M  V30 2571 N 242.408 -1.52605 -0.393616 0
M  V30 2572 C 243.657 -1.66649 -1.13627 0
M  V30 2573 C 243.97 -0.410364 -1.91247 0
M  V30 2574 O 245.176 -0.430854 -2.68059 0
M  V30 2575 C 243.632 -2.9449 -2.06891 0
M  V30 2576 C 243.24 -4.27266 -1.34714 0
M  V30 2577 C 244.984 -3.17899 -2.81319 0
M  V30 2578 C 242.891 -5.46217 -2.26717 0
M  V30 2579 H 241.821 -0.62084 -0.427871 0
M  V30 2580 H 244.472 -1.791 -0.399428 0
M  V30 2581 H 242.854 -2.75774 -2.84191 0
M  V30 2582 H 244.028 -4.56518 -0.626714 0
M  V30 2583 H 242.343 -4.10081 -0.722643 0
M  V30 2584 H 244.94 -4.03949 -3.50328 0
M  V30 2585 H 245.283 -2.32777 -3.45139 0
M  V30 2586 H 245.816 -3.37159 -2.11113 0
M  V30 2587 H 242.555 -6.33733 -1.67521 0
M  V30 2588 H 242.075 -5.21283 -2.96689 0
M  V30 2589 H 243.754 -5.7991 -2.86903 0
M  V30 2590 N 243.887 0.651787 -1.4349 0
M  V30 2591 C 245.133 1.41376 -1.45398 0
M  V30 2592 C 245.466 1.94041 -0.0784823 0
M  V30 2593 O 244.741 1.72379 0.900878 0
M  V30 2594 C 245.024 2.59414 -2.49752 0
M  V30 2595 C 244.877 2.12232 -3.96582 0
M  V30 2596 C 246.196 3.61626 -2.50827 0
M  V30 2597 H 243.315 0.512719 -0.529422 0
M  V30 2598 H 245.957 0.738796 -1.75048 0
M  V30 2599 H 244.107 3.16997 -2.246 0
M  V30 2600 H 245.779 1.59639 -4.32797 0
M  V30 2601 H 244.022 1.43592 -4.09346 0
M  V30 2602 H 244.693 2.9712 -4.65214 0
M  V30 2603 H 247.169 3.13805 -2.7325 0
M  V30 2604 H 246.045 4.41766 -3.25783 0
M  V30 2605 H 246.306 4.14314 -1.5426 0
M  V30 2606 N 245.365 1.30045 0.890287 0
M  V30 2607 C 246.611 1.18737 1.64406 0
M  V30 2608 C 246.944 -0.258525 1.92472 0
M  V30 2609 O 246.219 -1.18562 1.54186 0
M  V30 2610 C 246.502 2.01087 2.98724 0
M  V30 2611 C 246.355 3.53867 2.77665 0
M  V30 2612 C 247.674 1.84457 3.9958 0
M  V30 2613 H 244.793 0.432698 0.596608 0
M  V30 2614 H 247.435 1.5962 1.0306 0
M  V30 2615 H 245.585 1.66349 3.51084 0
M  V30 2616 H 247.257 3.98637 2.32133 0
M  V30 2617 H 245.5 3.78318 2.12269 0
M  V30 2618 H 246.171 4.06772 3.7315 0
M  V30 2619 H 248.647 2.14817 3.56361 0
M  V30 2620 H 247.523 2.44411 4.91482 0
M  V30 2621 H 247.784 0.802276 4.3476 0
M  V30 2622 N 246.843 -1.10192 1.12674 0
M  V30 2623 C 248.089 -1.82475 0.884915 0
M  V30 2624 C 248.422 -1.85093 -0.58773 0
M  V30 2625 O 247.697 -1.3134 -1.43457 0
M  V30 2626 C 247.98 -3.29018 1.46353 0
M  V30 2627 C 247.833 -3.34718 3.00473 0
M  V30 2628 C 249.152 -4.25473 1.12519 0
M  V30 2629 H 246.271 -0.662492 0.322915 0
M  V30 2630 H 248.913 -1.2913 1.39375 0
M  V30 2631 H 247.063 -3.74576 1.03077 0
M  V30 2632 H 248.735 -2.97622 3.52447 0
M  V30 2633 H 246.978 -2.74541 3.35872 0
M  V30 2634 H 247.649 -4.37918 3.36053 0
M  V30 2635 H 250.125 -3.88161 1.499 0
M  V30 2636 H 249.001 -5.26365 1.55663 0
M  V30 2637 H 249.262 -4.42084 0.0377407 0
M  V30 2638 N 248.321 -0.919034 -1.28029 0
M  V30 2639 C 249.546 -0.570357 -1.99403 0
M  V30 2640 C 249.971 0.842486 -1.68178 0
M  V30 2641 O 249.329 1.56391 -0.917141 0
M  V30 2642 C 249.377 -0.792541 -3.51783 0
M  V30 2643 O 248.481 0.145988 -4.12142 0
M  V30 2644 H 247.822 -0.220555 -0.6263 0
M  V30 2645 H 250.352 -1.23592 -1.63053 0
M  V30 2646 H 250.362 -0.704708 -4.01868 0
M  V30 2647 H 249.037 -1.82247 -3.73844 0
M  V30 2648 H 247.614 0.00897528 -3.72899 0
M  V30 2649 N 249.799 1.42003 -0.683588 0
M  V30 2650 C 251.024 2.06265 -0.216647 0
M  V30 2651 C 251.449 1.51059 1.12083 0
M  V30 2652 O 250.807 0.632638 1.69904 0
M  V30 2653 C 250.855 3.60191 -0.171759 0
M  V30 2654 O 249.959 4.03396 0.857069 0
M  V30 2655 H 249.3 0.65502 -0.108834 0
M  V30 2656 H 251.83 1.81982 -0.935077 0
M  V30 2657 H 251.84 4.08 0.0014303 0
M  V30 2658 H 250.515 3.99743 -1.14796 0
M  V30 2659 H 249.092 3.67117 0.654208 0
M  V30 2660 N 251.277 0.427512 1.51691 0
M  V30 2661 C 252.207 -0.3796 2.30394 0
M  V30 2662 C 253.188 -1.02982 1.35384 0
M  V30 2663 O 254.373 -1.03534 1.643 0
M  V30 2664 C 251.503 -1.48649 3.1388 0
M  V30 2665 C 250.457 -0.960294 4.17088 0
M  V30 2666 C 249.783 -2.16219 4.89033 0
M  V30 2667 C 251.083 -0.00153679 5.223 0
M  V30 2668 H 252.777 0.277164 2.98114 0
M  V30 2669 H 250.323 0.134739 1.43368 0
M  V30 2670 H 252.276 -2.05826 3.67714 0
M  V30 2671 H 251 -2.1714 2.43962 0
M  V30 2672 H 249.659 -0.410806 3.64291 0
M  V30 2673 H 249.307 -2.83307 4.15628 0
M  V30 2674 H 249.007 -1.81654 5.58816 0
M  V30 2675 H 250.531 -2.73968 5.45687 0
M  V30 2676 H 251.945 -0.482687 5.71264 0
M  V30 2677 H 250.342 0.256199 5.99553 0
M  V30 2678 H 251.412 0.938174 4.75738 0
M  V30 2679 N 252.755 -1.56801 0.158532 0
M  V30 2680 C 253.718 -2.16138 -0.762705 0
M  V30 2681 C 254.718 -1.1061 -1.16713 0
M  V30 2682 O 255.908 -1.36191 -1.08617 0
M  V30 2683 C 253.04 -2.73386 -2.03649 0
M  V30 2684 H 254.233 -2.98886 -0.246354 0
M  V30 2685 H 251.786 -1.56035 -0.0909744 0
M  V30 2686 H 252.521 -1.94335 -2.59623 0
M  V30 2687 H 252.306 -3.50601 -1.75559 0
M  V30 2688 H 253.796 -3.19065 -2.6942 0
M  V30 2689 N 254.233 0.115231 -1.57178 0
M  V30 2690 C 255.481 0.820727 -1.84685 0
M  V30 2691 C 255.802 1.80237 -0.744279 0
M  V30 2692 O 255.072 1.94529 0.231375 0
M  V30 2693 H 253.652 0.306084 -0.681411 0
M  V30 2694 H 256.314 0.101656 -1.94635 0
M  V30 2695 H 255.41 1.36366 -2.80733 0
M  V30 2696 N 255.711 1.52812 0.385517 0
M  V30 2697 C 256.658 1.77838 1.47113 0
M  V30 2698 C 257.628 0.621757 1.54024 0
M  V30 2699 O 258.813 0.861846 1.70226 0
M  V30 2700 C 255.953 1.95618 2.84302 0
M  V30 2701 C 255.066 3.23316 2.86515 0
M  V30 2702 C 254.201 3.31394 4.15152 0
M  V30 2703 C 253.24 4.53201 4.1143 0
M  V30 2704 N 252.377 4.58542 5.3168 0
M  V30 2705 H 257.217 2.70482 1.25073 0
M  V30 2706 H 254.754 1.34006 0.606692 0
M  V30 2707 H 256.712 2.03912 3.63972 0
M  V30 2708 H 255.342 1.06331 3.04784 0
M  V30 2709 H 254.394 3.24076 1.99195 0
M  V30 2710 H 255.706 4.13045 2.79634 0
M  V30 2711 H 254.86 3.3889 5.03228 0
M  V30 2712 H 253.599 2.39645 4.24761 0
M  V30 2713 H 252.604 4.45827 3.21742 0
M  V30 2714 H 253.829 5.46271 4.03442 0
M  V30 2715 H 251.775 3.69686 5.41912 0
M  V30 2716 H 251.692 5.42148 5.26889 0
M  V30 2717 H 252.96 4.70296 6.21644 0
M  V30 2718 N 257.189 -0.644168 1.43834 0
M  V30 2719 C 258.435 -1.40603 1.46146 0
M  V30 2720 C 258.768 -1.93997 0.0887717 0
M  V30 2721 O 258.043 -1.72854 -0.891724 0
M  V30 2722 C 258.326 -2.58086 2.51124 0
M  V30 2723 C 258.179 -2.10126 3.97702 0
M  V30 2724 C 259.498 -3.60291 2.52742 0
M  V30 2725 H 256.617 -0.509905 0.532134 0
M  V30 2726 H 259.259 -0.729502 1.75437 0
M  V30 2727 H 257.409 -3.15801 2.26278 0
M  V30 2728 H 259.081 -1.57342 4.33637 0
M  V30 2729 H 257.324 -1.41419 4.10101 0
M  V30 2730 H 257.995 -2.94649 4.66783 0
M  V30 2731 H 260.471 -3.12352 2.7491 0
M  V30 2732 H 259.347 -4.40032 3.28121 0
M  V30 2733 H 259.608 -4.1349 1.56455 0
M  V30 2734 N 258.668 -1.30515 -0.883378 0
M  V30 2735 C 259.631 -1.1701 -1.97082 0
M  V30 2736 C 260.631 -0.10089 -1.60483 0
M  V30 2737 O 261.821 -0.349127 -1.70666 0
M  V30 2738 C 258.953 -0.793045 -3.31547 0
M  V30 2739 H 260.146 -2.13622 -2.10489 0
M  V30 2740 H 257.699 -1.13935 -1.06998 0
M  V30 2741 H 258.434 0.172499 -3.23841 0
M  V30 2742 H 258.219 -1.56576 -3.5948 0
M  V30 2743 H 259.709 -0.722073 -4.1131 0
M  V30 2744 N 260.146 1.09593 -1.13257 0
M  V30 2745 C 261.376 1.85231 -0.915049 0
M  V30 2746 C 261.784 1.81345 0.539498 0
M  V30 2747 O 261.127 1.20664 1.38513 0
M  V30 2748 C 261.189 3.34275 -1.3229 0
M  V30 2749 C 260.853 3.6191 -2.79052 0
M  V30 2750 C 261.85 3.57777 -3.77216 0
M  V30 2751 C 259.535 3.90309 -3.16171 0
M  V30 2752 C 261.529 3.81652 -5.1051 0
M  V30 2753 C 259.216 4.13839 -4.49644 0
M  V30 2754 C 260.214 4.09502 -5.46623 0
M  V30 2755 O 259.902 4.32426 -6.77689 0
M  V30 2756 H 259.634 0.591997 -0.326367 0
M  V30 2757 H 262.188 1.394 -1.50854 0
M  V30 2758 H 260.418 3.80805 -0.672667 0
M  V30 2759 H 262.107 3.9132 -1.07812 0
M  V30 2760 H 262.873 3.35865 -3.49885 0
M  V30 2761 H 258.752 3.92811 -2.41289 0
M  V30 2762 H 262.296 3.78182 -5.86195 0
M  V30 2763 H 258.193 4.35232 -4.767 0
M  V30 2764 H 258.961 4.49896 -6.83766 0
M  V30 2765 N 261.624 0.925811 1.2754 0
M  V30 2766 C 263.035 0.610102 1.7645 0
M  V30 2767 C 263.386 -0.874723 1.75622 0
M  V30 2768 O 262.511 -1.68444 1.35851 0
M  V30 2769 C 263.106 1.10073 3.20421 0
M  V30 2770 C 261.665 0.835723 3.67005 0
M  V30 2771 C 260.812 1.26054 2.46993 0
M  V30 2772 H 263.763 1.10579 1.13833 0
M  V30 2773 H 263.784 0.447557 3.77859 0
M  V30 2774 H 263.296 2.18143 3.20991 0
M  V30 2775 H 261.397 -0.231249 3.71882 0
M  V30 2776 H 261.51 1.45193 4.56569 0
M  V30 2777 H 259.874 0.679111 2.45479 0
M  V30 2778 H 260.657 2.34984 2.50275 0
M  V30 2779 N 263.102 -1.41638 0.69111 0
M  V30 2780 C 264.035 -2.28183 -0.0274913 0
M  V30 2781 C 265.013 -1.41984 -0.792424 0
M  V30 2782 O 266.197 -1.71415 -0.784169 0
M  V30 2783 C 263.324 -3.22135 -1.04628 0
M  V30 2784 C 262.37 -4.24848 -0.375037 0
M  V30 2785 S 263.203 -5.28231 0.879321 0
M  V30 2786 C 264.359 -6.25748 -0.137983 0
M  V30 2787 H 264.592 -2.88782 0.706553 0
M  V30 2788 H 262.125 -1.46709 0.481222 0
M  V30 2789 H 264.083 -3.76797 -1.62894 0
M  V30 2790 H 262.744 -2.6064 -1.75287 0
M  V30 2791 H 261.937 -4.90837 -1.14433 0
M  V30 2792 H 261.539 -3.73758 0.134434 0
M  V30 2793 H 263.831 -6.70188 -0.992659 0
M  V30 2794 H 264.774 -7.06417 0.487867 0
M  V30 2795 H 265.182 -5.62363 -0.490762 0
M  V30 2796 N 264.58 -0.43555 -1.51462 0
M  V30 2797 C 265.826 0.131709 -2.02372 0
M  V30 2798 C 266.159 1.42516 -1.3192 0
M  V30 2799 O 265.434 1.89606 -0.433573 0
M  V30 2800 C 265.717 0.352301 -3.58373 0
M  V30 2801 C 265.57 -0.959676 -4.39443 0
M  V30 2802 C 266.889 1.12286 -4.25535 0
M  V30 2803 H 264.008 0.0463936 -0.735538 0
M  V30 2804 H 266.65 -0.574197 -1.81116 0
M  V30 2805 H 264.8 0.9536 -3.76615 0
M  V30 2806 H 266.472 -1.59482 -4.32855 0
M  V30 2807 H 264.715 -1.56468 -4.04599 0
M  V30 2808 H 265.386 -0.759394 -5.46752 0
M  V30 2809 H 267.862 0.613545 -4.11552 0
M  V30 2810 H 266.738 1.24598 -5.34571 0
M  V30 2811 H 266.999 2.15048 -3.86273 0
M  V30 2812 N 266.058 1.56714 -0.166846 0
M  V30 2813 C 267.021 2.16539 0.751232 0
M  V30 2814 C 268.021 1.11228 1.16125 0
M  V30 2815 O 269.211 1.36765 1.07894 0
M  V30 2816 C 266.343 2.74462 2.02196 0
M  V30 2817 H 267.536 2.99013 0.230499 0
M  V30 2818 H 265.089 1.56081 0.0826982 0
M  V30 2819 H 265.824 1.95709 2.58589 0
M  V30 2820 H 265.609 3.51527 1.73698 0
M  V30 2821 H 267.099 3.20489 2.67725 0
M  V30 2822 N 267.536 -0.106894 1.57237 0
M  V30 2823 C 268.499 -1.11466 2.0027 0
M  V30 2824 C 269.499 -1.33623 0.894519 0
M  V30 2825 O 270.689 -1.29935 1.16028 0
M  V30 2826 C 267.821 -2.46646 2.35327 0
M  V30 2827 H 269.014 -0.744516 2.90512 0
M  V30 2828 H 266.567 -0.351576 1.52295 0
M  V30 2829 H 267.302 -2.88558 1.48003 0
M  V30 2830 H 267.087 -2.31915 3.16161 0
M  V30 2831 H 268.577 -3.19151 2.69318 0
M  V30 2832 N 269.014 -1.53014 -0.377408 0
M  V30 2833 C 270.244 -1.72265 -1.14054 0
M  V30 2834 C 270.652 -0.44601 -1.83868 0
M  V30 2835 O 269.995 0.590095 -1.73964 0
M  V30 2836 C 270.057 -2.82492 -2.22348 0
M  V30 2837 C 269.721 -4.23233 -1.72402 0
M  V30 2838 C 270.718 -5.05992 -1.19448 0
M  V30 2839 C 268.403 -4.696 -1.78273 0
M  V30 2840 C 270.397 -6.33203 -0.730268 0
M  V30 2841 C 268.084 -5.96792 -1.31464 0
M  V30 2842 C 269.082 -6.78424 -0.789297 0
M  V30 2843 O 268.77 -8.0323 -0.328077 0
M  V30 2844 H 268.502 -0.579873 -0.347453 0
M  V30 2845 H 271.056 -2.00502 -0.445882 0
M  V30 2846 H 269.286 -2.49702 -2.95272 0
M  V30 2847 H 270.975 -2.90034 -2.83963 0
M  V30 2848 H 271.741 -4.71349 -1.14259 0
M  V30 2849 H 267.62 -4.06142 -2.18106 0
M  V30 2850 H 271.164 -6.96868 -0.319542 0
M  V30 2851 H 267.061 -6.30937 -1.36342 0
M  V30 2852 H 267.829 -8.1727 -0.448493 0
M  V30 2853 N 270.492 0.636531 -1.44174 0
M  V30 2854 C 271.717 1.42847 -1.50364 0
M  V30 2855 C 272.142 1.87665 -0.127867 0
M  V30 2856 O 271.5 1.58408 0.88185 0
M  V30 2857 C 271.548 2.62854 -2.4686 0
M  V30 2858 O 270.652 3.62501 -1.9664 0
M  V30 2859 H 269.993 0.427642 -0.507955 0
M  V30 2860 H 272.523 0.777422 -1.89255 0
M  V30 2861 H 272.533 3.10465 -2.64718 0
M  V30 2862 H 271.208 2.29578 -3.46795 0
M  V30 2863 H 269.785 3.21735 -1.88523 0
M  V30 2864 N 271.97 1.30982 0.876444 0
M  V30 2865 C 272.933 1.18054 1.96459 0
M  V30 2866 C 273.933 0.109399 1.60427 0
M  V30 2867 O 275.123 0.358173 1.70478 0
M  V30 2868 C 272.255 0.810616 3.31122 0
M  V30 2869 H 273.448 2.14735 2.09354 0
M  V30 2870 H 271.001 1.145 1.06392 0
M  V30 2871 H 271.736 -0.155322 3.23928 0
M  V30 2872 H 271.521 1.58481 3.58645 0
M  V30 2873 H 273.011 0.743876 4.10921 0
M  V30 2874 N 273.449 -1.08991 1.13837 0
M  V30 2875 C 274.674 -1.85551 0.926585 0
M  V30 2876 C 275.099 -1.80782 -0.519566 0
M  V30 2877 O 274.457 -1.18855 -1.36906 0
M  V30 2878 C 274.505 -3.31266 1.42462 0
M  V30 2879 O 273.609 -4.07822 0.612789 0
M  V30 2880 H 272.95 -0.575192 0.331738 0
M  V30 2881 H 275.48 -1.37604 1.51414 0
M  V30 2882 H 275.49 -3.82112 1.43019 0
M  V30 2883 H 274.165 -3.34052 2.47754 0
M  V30 2884 H 272.742 -3.66731 0.675463 0
M  V30 2885 N 274.927 -0.932562 -1.27047 0
M  V30 2886 C 275.874 -0.434072 -2.26681 0
M  V30 2887 C 276.844 0.501639 -1.58344 0
M  V30 2888 O 278.029 0.419734 -1.86126 0
M  V30 2889 C 275.169 0.30261 -3.43771 0
M  V30 2890 C 274.282 -0.667774 -4.26808 0
M  V30 2891 C 273.417 0.0892393 -5.31125 0
M  V30 2892 C 272.456 -0.873532 -6.05835 0
M  V30 2893 N 271.593 -0.148832 -7.01942 0
M  V30 2894 H 276.433 -1.28868 -2.68695 0
M  V30 2895 H 273.97 -0.646713 -1.32121 0
M  V30 2896 H 275.928 0.746092 -4.10474 0
M  V30 2897 H 274.558 1.12142 -3.02695 0
M  V30 2898 H 273.61 -1.22978 -3.59973 0
M  V30 2899 H 274.922 -1.40337 -4.78651 0
M  V30 2900 H 274.076 0.592409 -6.03801 0
M  V30 2901 H 272.815 0.85777 -4.80097 0
M  V30 2902 H 271.82 -1.38791 -5.31994 0
M  V30 2903 H 273.045 -1.64193 -6.58952 0
M  V30 2904 H 270.991 0.601365 -6.53238 0
M  V30 2905 H 270.908 -0.82391 -7.51497 0
M  V30 2906 H 272.176 0.333527 -7.78786 0
M  V30 2907 N 276.405 1.4127 -0.698611 0
M  V30 2908 C 277.652 2.0118 -0.230865 0
M  V30 2909 C 277.98 1.55338 1.17049 0
M  V30 2910 O 277.235 0.756775 1.80475 0
M  V30 2911 C 277.534 3.56592 -0.240192 0
M  V30 2912 C 277.2 4.21955 -1.58948 0
M  V30 2913 C 275.862 4.39524 -1.95887 0
M  V30 2914 C 278.214 4.58576 -2.47704 0
M  V30 2915 C 275.542 4.90992 -3.2116 0
M  V30 2916 C 277.894 5.11435 -3.72313 0
M  V30 2917 C 276.558 5.27215 -4.0939 0
M  V30 2918 H 275.828 0.736169 -0.0844796 0
M  V30 2919 H 278.475 1.69124 -0.8983 0
M  V30 2920 H 276.78 3.88456 0.510797 0
M  V30 2921 H 278.477 4.00758 0.139296 0
M  V30 2922 H 275.067 4.08657 -1.29219 0
M  V30 2923 H 279.251 4.44654 -2.20445 0
M  V30 2924 H 274.507 5.01393 -3.49878 0
M  V30 2925 H 278.681 5.38752 -4.4127 0
M  V30 2926 H 276.308 5.66859 -5.06533 0
M  V30 2927 N 277.883 0.443576 1.51229 0
M  V30 2928 C 278.846 -0.353132 2.26463 0
M  V30 2929 C 279.846 -0.944338 1.3015 0
M  V30 2930 O 281.036 -0.817813 1.5381 0
M  V30 2931 C 278.168 -1.50023 3.06114 0
M  V30 2932 H 279.361 0.3063 2.98332 0
M  V30 2933 H 276.914 0.196902 1.55055 0
M  V30 2934 H 277.649 -2.19553 2.38677 0
M  V30 2935 H 277.434 -1.08241 3.76864 0
M  V30 2936 H 278.924 -2.06296 3.63087 0
M  V30 2937 N 279.361 -1.56624 0.175154 0
M  V30 2938 C 280.291 -2.21155 -0.749195 0
M  V30 2939 C 281.272 -1.16836 -1.23626 0
M  V30 2940 O 282.457 -1.45277 -1.28873 0
M  V30 2941 C 279.587 -2.8553 -1.97711 0
M  V30 2942 C 278.541 -3.95921 -1.62575 0
M  V30 2943 C 277.867 -4.47365 -2.92864 0
M  V30 2944 C 279.167 -5.15323 -0.850838 0
M  V30 2945 H 280.861 -2.98653 -0.211295 0
M  V30 2946 H 278.407 -1.43651 -0.100188 0
M  V30 2947 H 280.36 -3.2935 -2.62881 0
M  V30 2948 H 279.084 -2.05406 -2.53921 0
M  V30 2949 H 277.743 -3.52762 -0.997719 0
M  V30 2950 H 277.391 -3.64027 -3.47122 0
M  V30 2951 H 277.091 -5.21839 -2.70106 0
M  V30 2952 H 278.615 -4.93873 -3.59056 0
M  V30 2953 H 280.029 -5.55812 -1.40521 0
M  V30 2954 H 278.426 -5.95739 -0.722154 0
M  V30 2955 H 279.496 -4.84661 0.152082 0
M  V30 2956 N 280.839 0.0985539 -1.57292 0
M  V30 2957 C 282.116 0.834155 -1.76921 0
M  V30 2958 C 282.496 1.97101 -0.755928 0
M  V30 2959 O 281.844 2.27474 0.216245 0
M  V30 2960 C 282.054 1.33194 -3.22584 0
M  V30 2961 C 283.402 1.77611 -3.85668 0
M  V30 2962 O 284.426 1.42825 -3.26312 0
M  V30 2963 O 283.285 2.4192 -4.90038 0
M  V30 2964 H 280.379 0.397628 -0.725135 0
M  V30 2965 H 282.925 0.0807044 -1.69508 0
M  V30 2966 H 281.697 0.517248 -3.87866 0
M  V30 2967 H 281.32 2.1475 -3.34616 0
M  V30 2968 N 282.317 1.53212 0.369288 0
M  V30 2969 C 283.565 1.68881 1.11012 0
M  V30 2970 C 283.886 0.441285 1.89941 0
M  V30 2971 O 283.156 -0.544623 1.88177 0
M  V30 2972 H 281.736 0.622569 0.412816 0
M  V30 2973 H 284.398 1.90391 0.416802 0
M  V30 2974 H 283.494 2.54822 1.80201 0
M  V30 2975 N 283.795 -0.628877 1.44509 0
M  V30 2976 C 285.042 -1.38839 1.47411 0
M  V30 2977 C 285.37 -1.94202 0.10757 0
M  V30 2978 O 284.625 -1.74243 -0.890947 0
M  V30 2979 C 284.924 -2.56995 2.48371 0
M  V30 2980 C 284.59 -2.19908 3.93639 0
M  V30 2981 C 283.252 -2.09506 4.33198 0
M  V30 2982 C 285.604 -1.9064 4.85083 0
M  V30 2983 C 282.932 -1.68028 5.62124 0
M  V30 2984 C 285.284 -1.50655 6.14399 0
M  V30 2985 C 283.948 -1.38796 6.5291 0
M  V30 2986 H 283.218 -0.508048 0.539414 0
M  V30 2987 H 285.865 -0.712913 1.77735 0
M  V30 2988 H 284.17 -3.29786 2.11538 0
M  V30 2989 H 285.867 -3.15223 2.47861 0
M  V30 2990 H 282.457 -2.28922 3.62343 0
M  V30 2991 H 286.641 -1.97585 4.55273 0
M  V30 2992 H 281.897 -1.57452 5.90778 0
M  V30 2993 H 286.071 -1.27048 6.84713 0
M  V30 2994 H 283.698 -1.06429 7.52713 0
M  V30 2995 N 285.273 -1.31445 -0.869486 0
M  V30 2996 C 286.52 -1.21158 -1.62256 0
M  V30 2997 C 286.848 0.230155 -1.93133 0
M  V30 2998 O 286.103 1.17906 -1.56194 0
M  V30 2999 C 286.402 -2.00145 -2.96102 0
M  V30 3000 C 286.068 -3.4964 -2.84715 0
M  V30 3001 C 284.73 -3.90403 -2.81317 0
M  V30 3002 C 287.082 -4.44769 -2.71716 0
M  V30 3003 C 284.41 -5.24561 -2.62778 0
M  V30 3004 C 286.762 -5.79054 -2.54714 0
M  V30 3005 C 285.426 -6.19037 -2.49699 0
M  V30 3006 H 284.696 -0.443348 -0.593737 0
M  V30 3007 H 287.343 -1.62715 -1.00976 0
M  V30 3008 H 285.648 -1.5127 -3.6142 0
M  V30 3009 H 287.345 -1.89566 -3.53363 0
M  V30 3010 H 283.935 -3.17256 -2.88178 0
M  V30 3011 H 288.119 -4.14208 -2.73397 0
M  V30 3012 H 283.375 -5.54613 -2.57321 0
M  V30 3013 H 287.549 -6.52393 -2.43632 0
M  V30 3014 H 285.176 -7.22935 -2.35093 0
M  V30 3015 N 286.751 1.08385 -1.14413 0
M  V30 3016 C 287.976 1.85057 -0.936413 0
M  V30 3017 C 288.401 1.81055 0.509971 0
M  V30 3018 O 287.759 1.1958 1.36273 0
M  V30 3019 C 287.807 3.30505 -1.44217 0
M  V30 3020 O 286.911 4.07491 -0.634409 0
M  V30 3021 H 286.252 0.573425 -0.334784 0
M  V30 3022 H 288.782 1.36799 -1.52142 0
M  V30 3023 H 288.792 3.81348 -1.45043 0
M  V30 3024 H 287.467 3.32734 -2.49522 0
M  V30 3025 H 286.044 3.66368 -0.694902 0
M  V30 3026 N 288.23 0.939286 1.26551 0
M  V30 3027 C 289.455 0.602008 1.98471 0
M  V30 3028 C 289.88 -0.815624 1.69497 0
M  V30 3029 O 289.238 -1.54912 0.941905 0
M  V30 3030 C 289.286 0.848407 3.50477 0
M  V30 3031 O 288.39 -0.0804009 4.12322 0
M  V30 3032 H 287.731 0.23049 0.622712 0
M  V30 3033 H 290.261 1.2617 1.61066 0
M  V30 3034 H 290.271 0.768553 4.00696 0
M  V30 3035 H 288.946 1.88171 3.70897 0
M  V30 3036 H 287.523 0.0503508 3.72866 0
M  V30 3037 N 289.708 -1.40897 0.706093 0
M  V30 3038 C 290.957 -2.00284 0.238574 0
M  V30 3039 C 291.27 -1.56604 -1.17194 0
M  V30 3040 O 292.476 -2.08624 -1.73748 0
M  V30 3041 C 290.932 -3.57934 0.375623 0
M  V30 3042 C 290.54 -4.10591 1.79217 0
M  V30 3043 C 292.284 -4.24488 -0.0315857 0
M  V30 3044 C 290.191 -5.60712 1.88032 0
M  V30 3045 H 289.121 -0.749144 0.0854398 0
M  V30 3046 H 291.772 -1.61251 0.875813 0
M  V30 3047 H 290.154 -3.94622 -0.330042 0
M  V30 3048 H 291.328 -3.85301 2.52745 0
M  V30 3049 H 289.643 -3.56601 2.15 0
M  V30 3050 H 292.24 -5.34698 0.0136842 0
M  V30 3051 H 292.583 -4.02261 -1.072 0
M  V30 3052 H 293.116 -3.92873 0.624181 0
M  V30 3053 H 289.855 -5.87781 2.90161 0
M  V30 3054 H 289.375 -5.87896 1.18903 0
M  V30 3055 H 291.054 -6.25658 1.64805 0
M  V30 3056 N 291.186 -0.45159 -1.50991 0
M  V30 3057 C 292.602 -0.104647 -1.59257 0
M  V30 3058 C 292.802 1.38728 -1.4614 0
M  V30 3059 O 291.858 2.15866 -1.30989 0
M  V30 3060 C 293.171 -0.637468 -2.93865 0
M  V30 3061 C 294.719 -0.599166 -3.07212 0
M  V30 3062 C 295.194 -1.1092 -4.44366 0
M  V30 3063 N 296.685 -1.06778 -4.50725 0
M  V30 3064 C 297.42 -1.43314 -5.55201 0
M  V30 3065 N 296.916 -1.87204 -6.67028 0
M  V30 3066 N 298.709 -1.3504 -5.45638 0
M  V30 3067 H 290.86 -1.42214 -1.57762 0
M  V30 3068 H 293.123 -0.586921 -0.744465 0
M  V30 3069 H 292.829 -1.68187 -3.08879 0
M  V30 3070 H 292.703 -0.0702139 -3.77135 0
M  V30 3071 H 295.09 0.436277 -2.91857 0
M  V30 3072 H 295.171 -1.20299 -2.25747 0
M  V30 3073 H 294.815 -2.14318 -4.60467 0
M  V30 3074 H 294.745 -0.481773 -5.24392 0
M  V30 3075 H 297.236 -0.745643 -3.70471 0
M  V30 3076 H 297.549 -2.13282 -7.42786 0
M  V30 3077 H 295.894 -1.91142 -6.68199 0
M  V30 3078 H 299.085 -1.00607 -4.57161 0
M  V30 3079 H 299.258 -1.63841 -6.26945 0
M  V30 3080 N 292.664 1.56529 -0.183458 0
M  V30 3081 C 293.611 2.18546 0.742055 0
M  V30 3082 C 294.581 1.12912 1.2182 0
M  V30 3083 O 295.766 1.41115 1.28418 0
M  V30 3084 C 292.906 2.83977 1.96089 0
M  V30 3085 C 292.019 4.04105 1.52719 0
M  V30 3086 C 291.154 4.57427 2.70063 0
M  V30 3087 C 290.193 5.69938 2.23243 0
M  V30 3088 N 289.33 6.17717 3.33722 0
M  V30 3089 H 294.17 2.97284 0.206432 0
M  V30 3090 H 291.707 1.46823 0.0901571 0
M  V30 3091 H 293.665 3.20077 2.67594 0
M  V30 3092 H 292.295 2.07822 2.47002 0
M  V30 3093 H 291.347 3.73745 0.708436 0
M  V30 3094 H 292.659 4.85513 1.1436 0
M  V30 3095 H 291.813 4.95772 3.49708 0
M  V30 3096 H 290.552 3.75101 3.11689 0
M  V30 3097 H 289.557 5.31133 1.42048 0
M  V30 3098 H 290.782 6.54073 1.82661 0
M  V30 3099 H 288.728 5.38317 3.74902 0
M  V30 3100 H 288.645 6.94146 2.99495 0
M  V30 3101 H 289.913 6.60713 4.13616 0
M  V30 3102 N 294.142 -0.090211 1.57342 0
M  V30 3103 C 295.052 -1.12735 2.05738 0
M  V30 3104 C 296.068 -1.43557 0.983231 0
M  V30 3105 O 297.244 -1.54101 1.29672 0
M  V30 3106 C 294.309 -2.42659 2.47624 0
M  V30 3107 C 293.37 -2.18975 3.69254 0
M  V30 3108 C 292.603 -3.42704 4.09133 0
M  V30 3109 O 292.826 -4.51127 3.49057 0
M  V30 3110 O 291.76 -3.32003 5.02053 0
M  V30 3111 H 295.586 -0.746279 2.94388 0
M  V30 3112 H 293.171 -0.303064 1.46294 0
M  V30 3113 H 295.053 -3.19155 2.7517 0
M  V30 3114 H 293.728 -2.80182 1.62109 0
M  V30 3115 H 292.635 -1.40244 3.46818 0
M  V30 3116 H 293.968 -1.86342 4.55563 0
M  V30 3117 N 295.62 -1.53406 -0.361157 0
M  V30 3118 C 296.85 -1.73465 -1.1222 0
M  V30 3119 C 297.258 -0.465486 -1.83384 0
M  V30 3120 O 296.601 0.571611 -1.7458 0
M  V30 3121 C 296.663 -2.84834 -2.19339 0
M  V30 3122 C 296.327 -4.25038 -1.67903 0
M  V30 3123 C 297.324 -5.07231 -1.14074 0
M  V30 3124 C 295.009 -4.71464 -1.73282 0
M  V30 3125 C 297.003 -6.33942 -0.663068 0
M  V30 3126 C 294.69 -5.98153 -1.25127 0
M  V30 3127 C 295.688 -6.79223 -0.717296 0
M  V30 3128 O 295.376 -8.03533 -0.242865 0
M  V30 3129 H 295.108 -0.583526 -0.341283 0
M  V30 3130 H 297.662 -2.00964 -0.424591 0
M  V30 3131 H 295.892 -2.5282 -2.92607 0
M  V30 3132 H 297.581 -2.9303 -2.80871 0
M  V30 3133 H 298.347 -4.72534 -1.09254 0
M  V30 3134 H 294.226 -4.08432 -2.13786 0
M  V30 3135 H 297.77 -6.97167 -0.245612 0
M  V30 3136 H 293.667 -6.32347 -1.29642 0
M  V30 3137 H 294.435 -8.177 -0.361786 0
M  V30 3138 N 297.098 0.621204 -1.44841 0
M  V30 3139 C 298.323 1.41244 -1.51871 0
M  V30 3140 C 298.748 1.87519 -0.147764 0
M  V30 3141 O 298.106 1.59334 0.865 0
M  V30 3142 C 298.154 2.60221 -2.49634 0
M  V30 3143 O 297.258 3.60395 -2.00473 0
M  V30 3144 H 296.599 0.42223 -0.512463 0
M  V30 3145 H 299.129 0.757305 -1.90069 0
M  V30 3146 H 299.139 3.0764 -2.67996 0
M  V30 3147 H 297.814 2.25887 -3.4921 0
M  V30 3148 H 296.391 3.19717 -1.91925 0
M  V30 3149 N 298.576 1.31904 0.862503 0
M  V30 3150 C 299.822 1.22197 1.61851 0
M  V30 3151 C 300.155 -0.217641 1.92977 0
M  V30 3152 O 299.43 -1.15264 1.56666 0
M  V30 3153 C 299.713 2.07378 2.94391 0
M  V30 3154 C 299.566 3.59678 2.70096 0
M  V30 3155 C 300.885 1.92891 3.95577 0
M  V30 3156 H 298.004 0.445255 0.587296 0
M  V30 3157 H 300.646 1.6177 0.99651 0
M  V30 3158 H 298.796 1.73758 3.47477 0
M  V30 3159 H 300.468 4.03472 2.23625 0
M  V30 3160 H 298.711 3.82735 2.04197 0
M  V30 3161 H 299.382 4.14595 3.64438 0
M  V30 3162 H 301.858 2.22327 3.51724 0
M  V30 3163 H 300.734 2.54781 4.86187 0
M  V30 3164 H 300.995 0.894315 4.3296 0
M  V30 3165 N 300.054 -1.07777 1.14986 0
M  V30 3166 C 301.279 -1.84558 0.946213 0
M  V30 3167 C 301.704 -1.81323 -0.500362 0
M  V30 3168 O 301.062 -1.20301 -1.35637 0
M  V30 3169 C 301.11 -3.29736 1.45968 0
M  V30 3170 O 300.214 -4.07149 0.65601 0
M  V30 3171 H 299.555 -0.571641 0.33782 0
M  V30 3172 H 302.085 -1.35991 1.52865 0
M  V30 3173 H 302.095 -3.80574 1.47063 0
M  V30 3174 H 300.77 -3.31406 2.51283 0
M  V30 3175 H 299.347 -3.65994 0.714322 0
M  V30 3176 N 301.532 -0.945985 -1.26051 0
M  V30 3177 C 302.948 -0.649045 -1.45807 0
M  V30 3178 C 303.148 0.796158 -1.85104 0
M  V30 3179 O 302.204 1.57233 -1.97571 0
M  V30 3180 C 303.517 -1.61458 -2.53677 0
M  V30 3181 C 305.065 -1.62481 -2.67524 0
M  V30 3182 C 305.54 -2.57776 -3.7857 0
M  V30 3183 N 307.031 -2.5609 -3.85969 0
M  V30 3184 C 307.766 -3.26508 -4.7136 0
M  V30 3185 N 307.262 -4.0637 -5.61102 0
M  V30 3186 N 309.055 -3.15437 -4.65248 0
M  V30 3187 H 301.206 -1.88005 -0.988328 0
M  V30 3188 H 303.469 -0.808198 -0.4955 0
M  V30 3189 H 303.175 -2.64644 -2.31638 0
M  V30 3190 H 303.049 -1.37036 -3.51427 0
M  V30 3191 H 305.436 -0.600167 -2.88933 0
M  V30 3192 H 305.517 -1.90958 -1.70202 0
M  V30 3193 H 305.161 -3.60361 -3.57913 0
M  V30 3194 H 305.091 -2.26587 -4.75359 0
M  V30 3195 H 307.582 -1.98105 -3.21812 0
M  V30 3196 H 307.895 -4.57042 -6.23164 0
M  V30 3197 H 306.24 -4.10469 -5.60839 0
M  V30 3198 H 309.431 -2.52525 -3.94143 0
M  V30 3199 H 309.604 -3.70584 -5.31575 0
M  V30 3200 N 303.011 1.40521 -0.713556 0
M  V30 3201 C 304.257 2.01221 -0.252564 0
M  V30 3202 C 304.59 1.56444 1.1506 0
M  V30 3203 O 303.865 0.783597 1.78017 0
M  V30 3204 C 304.148 3.58582 -0.330332 0
M  V30 3205 C 304.001 4.13437 -1.77173 0
M  V30 3206 C 305.32 4.39079 0.299641 0
M  V30 3207 H 302.439 0.731077 -0.0932471 0
M  V30 3208 H 305.081 1.67026 -0.905673 0
M  V30 3209 H 303.231 3.87844 0.225737 0
M  V30 3210 H 304.903 3.9498 -2.38303 0
M  V30 3211 H 303.146 3.67801 -2.3001 0
M  V30 3212 H 303.817 5.22597 -1.77755 0
M  V30 3213 H 306.293 4.15735 -0.174139 0
M  V30 3214 H 305.169 5.4848 0.214771 0
M  V30 3215 H 305.43 4.19915 1.38288 0
M  V30 3216 N 304.489 0.459591 1.5075 0
M  V30 3217 C 305.437 -0.354678 2.2988 0
M  V30 3218 C 306.431 -1.00086 1.36672 0
M  V30 3219 O 307.637 -0.933277 1.53915 0
M  V30 3220 H 304.012 -0.13321 0.740107 0
M  V30 3221 H 305.983 0.333269 2.96533 0
M  V30 3222 C 304.732 -1.43073 3.169 0
M  V30 3223 H 304.055 -0.942882 3.88523 0
M  V30 3224 H 305.495 -1.97328 3.75284 0
M  V30 3225 C 303.954 -2.42633 2.33732 0
M  V30 3226 O 304.484 -3.47658 2.01238 0
M  V30 3227 N 302.69 -2.14066 1.9653 0
M  V30 3228 H 302.237 -1.28685 2.23155 0
M  V30 3229 H 302.195 -2.80917 1.41185 0
M  V30 3230 N 305.967 -1.56429 0.191757 0
M  V30 3231 C 307.213 -1.97777 -0.448554 0
M  V30 3232 C 307.546 -1.07847 -1.61501 0
M  V30 3233 O 306.821 -0.129774 -1.94067 0
M  V30 3234 C 307.104 -3.48362 -0.911906 0
M  V30 3235 C 306.957 -4.4907 0.256136 0
M  V30 3236 C 308.276 -4.02561 -1.77857 0
M  V30 3237 H 305.395 -0.719071 -0.161572 0
M  V30 3238 H 308.037 -1.87896 0.282007 0
M  V30 3239 H 306.187 -3.56914 -1.53442 0
M  V30 3240 H 307.859 -4.5256 0.893733 0
M  V30 3241 H 306.102 -4.24181 0.908436 0
M  V30 3242 H 306.773 -5.51889 -0.11053 0
M  V30 3243 H 309.249 -3.96767 -1.25359 0
M  V30 3244 H 308.125 -5.08301 -2.07174 0
M  V30 3245 H 308.386 -3.47616 -2.73158 0
M  V30 3246 N 307.445 0.0818655 -1.57387 0
M  V30 3247 C 308.67 0.799946 -1.91352 0
M  V30 3248 C 309.095 1.70833 -0.787258 0
M  V30 3249 O 308.453 1.79419 0.26048 0
M  V30 3250 C 308.501 1.57812 -3.24234 0
M  V30 3251 O 307.605 2.68806 -3.12757 0
M  V30 3252 H 306.946 0.21891 -0.626877 0
M  V30 3253 H 309.476 0.0531256 -2.04531 0
M  V30 3254 H 309.486 1.95952 -3.57864 0
M  V30 3255 H 308.161 0.911548 -4.05788 0
M  V30 3256 H 306.738 2.33597 -2.90666 0
M  V30 3257 N 308.923 1.53595 0.353017 0
M  V30 3258 C 310.172 1.69603 1.09168 0
M  V30 3259 C 310.485 0.460925 1.90092 0
M  V30 3260 O 311.691 0.501774 2.66823 0
M  V30 3261 C 310.147 2.99872 1.9901 0
M  V30 3262 C 309.755 4.30687 1.23339 0
M  V30 3263 C 311.499 3.25246 2.72792 0
M  V30 3264 C 309.406 5.52036 2.12156 0
M  V30 3265 H 308.336 0.631966 0.411261 0
M  V30 3266 H 310.987 1.80096 0.351802 0
M  V30 3267 H 309.369 2.83212 2.7678 0
M  V30 3268 H 310.543 4.58019 0.505456 0
M  V30 3269 H 308.858 4.11853 0.613663 0
M  V30 3270 H 311.455 4.13095 3.39495 0
M  V30 3271 H 311.798 2.41846 3.38846 0
M  V30 3272 H 312.331 3.42638 2.021 0
M  V30 3273 H 309.07 6.37951 1.50659 0
M  V30 3274 H 308.59 5.28966 2.82764 0
M  V30 3275 H 310.269 5.87313 2.71427 0
M  V30 3276 N 310.401 -0.613514 1.45168 0
M  V30 3277 C 311.629 -1.39946 1.5239 0
M  V30 3278 C 312.044 -1.88167 0.154531 0
M  V30 3279 O 311.401 -1.61872 -0.842843 0
M  V30 3280 C 311.452 -2.60795 2.50337 0
M  V30 3281 O 311.173 -2.1458 3.81952 0
M  V30 3282 C 312.674 -3.53723 2.67198 0
M  V30 3283 H 309.894 -0.428593 0.516284 0
M  V30 3284 H 312.438 -0.748753 1.903 0
M  V30 3285 H 310.593 -3.21919 2.15515 0
M  V30 3286 H 311.007 -2.93055 4.34993 0
M  V30 3287 H 312.481 -4.35079 3.39721 0
M  V30 3288 H 312.958 -4.0368 1.73029 0
M  V30 3289 H 313.564 -2.98456 3.02992 0
M  V30 3290 N 311.879 -1.3236 -0.855495 0
M  V30 3291 C 312.809 -1.23833 -1.97958 0
M  V30 3292 C 313.79 -0.122361 -1.69659 0
M  V30 3293 O 314.975 -0.30939 -1.9172 0
M  V30 3294 C 312.105 -0.959772 -3.33775 0
M  V30 3295 C 311.059 -2.03689 -3.76424 0
M  V30 3296 C 310.385 -1.61075 -5.09862 0
M  V30 3297 C 311.685 -3.4518 -3.9198 0
M  V30 3298 H 313.379 -2.1788 -2.0535 0
M  V30 3299 H 310.925 -1.04891 -0.986605 0
M  V30 3300 H 312.878 -0.886678 -4.11966 0
M  V30 3301 H 311.602 0.0163404 -3.26596 0
M  V30 3302 H 310.261 -2.10012 -3.00484 0
M  V30 3303 H 309.909 -0.622107 -4.99138 0
M  V30 3304 H 309.609 -2.33143 -5.39368 0
M  V30 3305 H 311.133 -1.55201 -5.90546 0
M  V30 3306 H 312.547 -3.4145 -4.60526 0
M  V30 3307 H 310.944 -4.1559 -4.32903 0
M  V30 3308 H 312.014 -3.84903 -2.94919 0
M  V30 3309 N 313.357 1.07166 -1.15556 0
M  V30 3310 C 314.597 1.81391 -0.94216 0
M  V30 3311 C 314.961 1.84788 0.521272 0
M  V30 3312 O 316.162 2.54904 0.85307 0
M  V30 3313 C 314.433 3.22431 -1.54185 0
M  V30 3314 S 315.992 4.13379 -1.47183 0
M  V30 3315 H 312.81 0.624963 -0.339031 0
M  V30 3316 H 315.412 1.28725 -1.4714 0
M  V30 3317 H 314.116 3.17548 -2.59984 0
M  V30 3318 H 313.647 3.80172 -1.01156 0
M  V30 3319 H 315.662 4.94007 -0.466004 0
M  V30 3320 N 314.835 0.952656 1.25548 0
M  V30 3321 C 316.081 0.607272 1.93494 0
M  V30 3322 C 316.414 -0.853245 1.74452 0
M  V30 3323 O 315.689 -1.61194 1.08843 0
M  V30 3324 C 315.972 0.96435 3.46947 0
M  V30 3325 C 315.825 2.48045 3.75225 0
M  V30 3326 C 317.144 0.487987 4.37386 0
M  V30 3327 H 314.263 0.222096 0.702739 0
M  V30 3328 H 316.905 1.18895 1.48203 0
M  V30 3329 H 315.055 0.469361 3.85654 0
M  V30 3330 H 316.727 3.04905 3.46166 0
M  V30 3331 H 314.97 2.919 3.209 0
M  V30 3332 H 315.641 2.6808 4.82532 0
M  V30 3333 H 318.117 0.912558 4.0597 0
M  V30 3334 H 316.993 0.766547 5.43521 0
M  V30 3335 H 317.254 -0.612063 4.37843 0
M  V30 3336 N 316.313 -1.40141 0.720998 0
M  V30 3337 C 317.243 -2.33339 0.0867621 0
M  V30 3338 C 318.224 -1.53178 -0.739622 0
M  V30 3339 O 319.409 -1.81625 -0.687449 0
M  V30 3340 C 316.539 -3.37194 -0.831728 0
M  V30 3341 C 315.493 -4.27857 -0.110558 0
M  V30 3342 C 314.819 -5.22294 -1.14513 0
M  V30 3343 C 316.119 -5.11872 1.0385 0
M  V30 3344 H 317.813 -2.86626 0.865219 0
M  V30 3345 H 315.359 -1.37814 0.417516 0
M  V30 3346 H 317.312 -4.01335 -1.28485 0
M  V30 3347 H 316.036 -2.82314 -1.64214 0
M  V30 3348 H 314.695 -3.65176 0.322797 0
M  V30 3349 H 314.343 -4.63717 -1.94874 0
M  V30 3350 H 314.043 -5.83797 -0.667446 0
M  V30 3351 H 315.567 -5.89312 -1.59824 0
M  V30 3352 H 316.981 -5.69436 0.664482 0
M  V30 3353 H 315.378 -5.82445 1.4449 0
M  V30 3354 H 316.448 -4.4753 1.86668 0
M  V30 3355 N 317.792 -0.46758 -1.50504 0
M  V30 3356 C 319.04 0.0884469 -2.01906 0
M  V30 3357 C 319.361 1.40532 -1.35188 0
M  V30 3358 O 318.631 1.89515 -0.496079 0
M  V30 3359 H 317.211 0.0356765 -0.746148 0
M  V30 3360 H 319.873 -0.6172 -1.84869 0
M  V30 3361 H 318.969 0.2425 -3.11156 0
M  V30 3362 N 319.27 1.56325 -0.20005 0
M  V30 3363 C 320.2 2.22318 0.713916 0
M  V30 3364 C 321.181 1.18788 1.21752 0
M  V30 3365 O 322.366 1.47309 1.26545 0
M  V30 3366 C 319.496 2.88639 1.93144 0
M  V30 3367 C 318.45 3.98457 1.56255 0
M  V30 3368 C 317.776 4.51967 2.85709 0
M  V30 3369 C 319.076 5.16612 0.768747 0
M  V30 3370 H 320.77 2.98952 0.163755 0
M  V30 3371 H 318.316 1.43792 0.0773219 0
M  V30 3372 H 320.269 3.33491 2.57608 0
M  V30 3373 H 318.993 2.09419 2.50621 0
M  V30 3374 H 317.652 3.54305 0.941471 0
M  V30 3375 H 317.3 3.69503 3.41287 0
M  V30 3376 H 317 5.26071 2.6177 0
M  V30 3377 H 318.524 4.99523 3.51154 0
M  V30 3378 H 319.938 5.57977 1.3166 0
M  V30 3379 H 318.335 5.96812 0.627286 0
M  V30 3380 H 319.405 4.84358 -0.229168 0
M  V30 3381 N 320.748 -0.0735177 1.57428 0
M  V30 3382 C 321.997 -0.771809 1.86349 0
M  V30 3383 C 322.31 -1.78828 0.792452 0
M  V30 3384 O 323.516 -2.53602 0.96945 0
M  V30 3385 C 321.972 -1.42358 3.30548 0
M  V30 3386 C 321.58 -0.445761 4.45777 0
M  V30 3387 C 323.324 -2.10434 3.6867 0
M  V30 3388 C 321.231 -1.10335 5.81016 0
M  V30 3389 H 320.161 -0.291999 0.695164 0
M  V30 3390 H 322.812 -0.0250749 1.83483 0
M  V30 3391 H 321.194 -2.21852 3.28021 0
M  V30 3392 H 322.368 0.319239 4.59693 0
M  V30 3393 H 320.683 0.130457 4.16196 0
M  V30 3394 H 323.28 -2.60405 4.67004 0
M  V30 3395 H 323.623 -2.90298 2.98383 0
M  V30 3396 H 324.156 -1.37773 3.7318 0
M  V30 3397 H 320.895 -0.345061 6.54591 0
M  V30 3398 H 320.415 -1.83925 5.70904 0
M  V30 3399 H 322.094 -1.62367 6.26295 0
M  V30 3400 N 322.226 -1.5378 -0.344866 0
M  V30 3401 C 323.503 -1.61589 -1.10219 0
M  V30 3402 C 323.883 -0.436316 -2.06542 0
M  V30 3403 O 323.231 0.571543 -2.21237 0
M  V30 3404 C 323.441 -2.97602 -1.82301 0
M  V30 3405 C 324.789 -3.5291 -2.36093 0
M  V30 3406 O 325.813 -2.99768 -1.924 0
M  V30 3407 O 324.672 -4.45859 -3.16026 0
M  V30 3408 H 321.766 -0.653522 -0.506792 0
M  V30 3409 H 324.312 -1.66126 -0.346465 0
M  V30 3410 H 323.084 -3.74893 -1.12121 0
M  V30 3411 H 322.707 -2.9665 -2.64735 0
M  V30 3412 N 323.704 0.605807 -1.45491 0
M  V30 3413 C 324.932 1.39136 -1.5313 0
M  V30 3414 C 325.347 1.88082 -0.164507 0
M  V30 3415 O 324.704 1.62316 0.834247 0
M  V30 3416 C 324.755 2.59463 -2.51716 0
M  V30 3417 O 324.476 2.12551 -3.83084 0
M  V30 3418 C 325.977 3.52301 -2.6907 0
M  V30 3419 H 323.197 0.425849 -0.51855 0
M  V30 3420 H 325.741 0.73865 -1.90694 0
M  V30 3421 H 323.896 3.20772 -2.17219 0
M  V30 3422 H 324.31 2.90744 -4.36541 0
M  V30 3423 H 325.784 4.33271 -3.42024 0
M  V30 3424 H 326.261 4.02757 -1.75167 0
M  V30 3425 H 326.867 2.96845 -3.04571 0
M  V30 3426 N 325.182 1.32811 0.848464 0
M  V30 3427 C 326.092 1.24278 1.98978 0
M  V30 3428 C 327.108 0.155176 1.73307 0
M  V30 3429 O 328.284 0.376999 1.9784 0
M  V30 3430 C 325.349 0.972444 3.32783 0
M  V30 3431 C 324.41 2.14911 3.71634 0
M  V30 3432 C 323.643 1.89157 4.99054 0
M  V30 3433 O 323.866 0.837165 5.64223 0
M  V30 3434 O 322.8 2.75433 5.35183 0
M  V30 3435 H 326.626 2.20238 2.09115 0
M  V30 3436 H 324.211 1.12762 0.980052 0
M  V30 3437 H 326.093 0.838432 4.12975 0
M  V30 3438 H 324.768 0.043051 3.23671 0
M  V30 3439 H 323.675 2.33862 2.91992 0
M  V30 3440 H 325.008 3.06151 3.85399 0
M  V30 3441 N 326.66 -1.06551 1.16123 0
M  V30 3442 C 327.888 -1.83005 0.965237 0
M  V30 3443 C 328.303 -1.82423 -0.486542 0
M  V30 3444 O 327.66 -1.24152 -1.33763 0
M  V30 3445 C 327.711 -3.29733 1.48183 0
M  V30 3446 O 327.432 -3.30416 2.87674 0
M  V30 3447 C 328.933 -4.22926 1.32848 0
M  V30 3448 H 326.153 -0.577118 0.342309 0
M  V30 3449 H 328.697 -1.3445 1.54089 0
M  V30 3450 H 326.852 -3.75609 0.948517 0
M  V30 3451 H 327.266 -4.22149 3.11272 0
M  V30 3452 H 328.74 -5.23916 1.73827 0
M  V30 3453 H 329.217 -4.38346 0.273692 0
M  V30 3454 H 329.823 -3.82894 1.85127 0
M  V30 3455 N 328.138 -0.959301 -1.25041 0
M  V30 3456 C 329.101 -0.487677 -2.23952 0
M  V30 3457 C 330.101 0.41119 -1.55454 0
M  V30 3458 O 331.291 0.207825 -1.72956 0
M  V30 3459 C 328.423 0.294807 -3.39623 0
M  V30 3460 H 329.616 -1.36198 -2.67189 0
M  V30 3461 H 327.169 -0.743042 -1.37508 0
M  V30 3462 H 327.904 1.18658 -3.01813 0
M  V30 3463 H 327.689 -0.35012 -3.90534 0
M  V30 3464 H 329.179 0.614089 -4.1306 0
M  V30 3465 N 329.616 1.39756 -0.72842 0
M  V30 3466 C 330.549 2.28176 -0.0330172 0
M  V30 3467 C 331.527 1.44035 0.754501 0
M  V30 3468 O 332.711 1.73434 0.738445 0
M  V30 3469 C 329.838 3.24795 0.960504 0
M  V30 3470 C 328.884 4.25693 0.262264 0
M  V30 3471 S 329.717 5.25714 -1.01906 0
M  V30 3472 C 330.873 6.25894 -0.0279717 0
M  V30 3473 H 331.106 2.86807 -0.78287 0
M  V30 3474 H 328.639 1.45382 -0.519951 0
M  V30 3475 H 330.597 3.80983 1.52846 0
M  V30 3476 H 329.258 2.65196 1.68315 0
M  V30 3477 H 328.451 4.93699 1.01379 0
M  V30 3478 H 328.053 3.7327 -0.233482 0
M  V30 3479 H 330.345 6.72585 0.814621 0
M  V30 3480 H 331.288 7.04876 -0.67499 0
M  V30 3481 H 331.696 5.63466 0.341489 0
M  V30 3482 N 331.094 0.475555 1.50254 0
M  V30 3483 C 332.041 -0.316293 2.28622 0
M  V30 3484 C 333.011 -0.983227 1.33873 0
M  V30 3485 O 334.196 -0.994805 1.62814 0
M  V30 3486 C 331.336 -1.38975 3.1588 0
M  V30 3487 C 330.449 -0.737146 4.25664 0
M  V30 3488 C 329.584 -1.78887 5.00173 0
M  V30 3489 C 328.623 -1.11676 6.01826 0
M  V30 3490 N 327.76 -2.11154 6.69596 0
M  V30 3491 H 332.6 0.358297 2.95838 0
M  V30 3492 H 330.137 0.188541 1.45887 0
M  V30 3493 H 332.095 -2.02383 3.64825 0
M  V30 3494 H 330.725 -2.03344 2.50701 0
M  V30 3495 H 329.777 0.0096065 3.80399 0
M  V30 3496 H 331.089 -0.206816 4.98371 0
M  V30 3497 H 330.243 -2.49865 5.52859 0
M  V30 3498 H 328.982 -2.35302 4.27182 0
M  V30 3499 H 327.987 -0.392633 5.48396 0
M  V30 3500 H 329.212 -0.55945 6.76792 0
M  V30 3501 H 327.158 -2.66577 5.99394 0
M  V30 3502 H 327.075 -1.63118 7.38193 0
M  V30 3503 H 328.343 -2.81497 7.26897 0
M  V30 3504 N 332.573 -1.56217 0.208337 0
M  V30 3505 C 333.536 -2.18455 -0.693557 0
M  V30 3506 C 334.536 -1.14268 -1.13135 0
M  V30 3507 O 335.726 -1.39577 -1.0423 0
M  V30 3508 C 332.858 -2.79727 -1.94848 0
M  V30 3509 H 334.051 -2.99519 -0.15114 0
M  V30 3510 H 331.604 -1.56245 -0.041287 0
M  V30 3511 H 332.339 -2.02497 -2.53309 0
M  V30 3512 H 332.124 -3.56009 -1.64316 0
M  V30 3513 H 333.614 -3.27475 -2.59133 0
M  V30 3514 N 334.051 0.0651679 -1.57465 0
M  V30 3515 C 335.297 0.764193 -1.87851 0
M  V30 3516 C 335.63 1.76889 -0.801495 0
M  V30 3517 O 334.905 1.93594 0.187528 0
M  V30 3518 C 335.188 1.46625 -3.28897 0
M  V30 3519 C 335.041 0.477515 -4.47258 0
M  V30 3520 C 336.36 2.4095 -3.68281 0
M  V30 3521 H 333.479 0.276351 -0.683227 0
M  V30 3522 H 336.121 0.0272868 -1.8998 0
M  V30 3523 H 334.271 2.09438 -3.27212 0
M  V30 3524 H 335.943 -0.145922 -4.61069 0
M  V30 3525 H 334.186 -0.206576 -4.33308 0
M  V30 3526 H 334.857 1.0065 -5.42746 0
M  V30 3527 H 337.333 1.88209 -3.71102 0
M  V30 3528 H 336.209 2.87072 -4.67847 0
M  V30 3529 H 336.47 3.26049 -2.98571 0
M  V30 3530 N 335.529 1.53961 0.336706 0
M  V30 3531 C 336.754 1.75797 1.10046 0
M  V30 3532 C 337.179 0.498985 1.81361 0
M  V30 3533 O 336.537 -0.548769 1.72795 0
M  V30 3534 C 336.585 2.94257 2.08436 0
M  V30 3535 O 335.689 2.64883 3.16087 0
M  V30 3536 H 335.03 0.582936 0.317934 0
M  V30 3537 H 337.56 2.00945 0.38501 0
M  V30 3538 H 337.57 3.21237 2.51537 0
M  V30 3539 H 336.245 3.85564 1.55927 0
M  V30 3540 H 334.822 2.48812 2.77753 0
M  V30 3541 N 337.007 -0.598083 1.45811 0
M  V30 3542 C 338.255 -1.35413 1.50026 0
M  V30 3543 C 338.576 -1.94444 0.147177 0
M  V30 3544 O 337.846 -1.77701 -0.824571 0
M  V30 3545 H 336.426 -0.502727 0.552517 0
M  V30 3546 H 339.088 -0.701606 1.81834 0
M  V30 3547 H 338.184 -2.16871 2.2444 0
M  V30 3548 N 338.485 -1.33259 -0.841409 0
M  V30 3549 C 339.734 -1.23921 -1.59143 0
M  V30 3550 C 340.047 0.1941 -1.94635 0
M  V30 3551 O 341.253 0.409474 -2.68394 0
M  V30 3552 C 339.709 -2.17119 -2.87032 0
M  V30 3553 C 339.317 -3.65606 -2.58914 0
M  V30 3554 C 341.061 -2.16648 -3.65053 0
M  V30 3555 C 338.968 -4.50726 -3.82884 0
M  V30 3556 H 337.898 -0.460264 -0.597221 0
M  V30 3557 H 340.549 -1.58307 -0.927959 0
M  V30 3558 H 338.931 -1.75663 -3.54906 0
M  V30 3559 H 340.105 -4.15487 -1.99267 0
M  V30 3560 H 338.42 -3.68341 -1.942 0
M  V30 3561 H 341.017 -2.77474 -4.57069 0
M  V30 3562 H 341.36 -1.16088 -3.99787 0
M  V30 3563 H 341.893 -2.56453 -3.041 0
M  V30 3564 H 338.632 -5.52151 -3.53283 0
M  V30 3565 H 338.152 -4.0559 -4.41879 0
M  V30 3566 H 339.831 -4.64401 -4.50489 0
M  V30 3567 N 339.963 1.05934 -1.16686 0
M  V30 3568 C 341.209 1.79065 -0.95203 0
M  V30 3569 C 341.542 1.87147 0.518629 0
M  V30 3570 O 340.817 1.36574 1.38484 0
M  V30 3571 C 341.1 3.23359 -1.58464 0
M  V30 3572 C 340.953 3.23336 -3.12689 0
M  V30 3573 C 342.272 4.21004 -1.28232 0
M  V30 3574 H 339.391 0.65005 -0.34728 0
M  V30 3575 H 342.033 1.23868 -1.44072 0
M  V30 3576 H 340.183 3.70493 -1.16908 0
M  V30 3577 H 341.855 2.84336 -3.6325 0
M  V30 3578 H 340.098 2.61886 -3.4583 0
M  V30 3579 H 340.769 4.25144 -3.52075 0
M  V30 3580 H 343.245 3.8233 -1.64203 0
M  V30 3581 H 342.121 5.20225 -1.75092 0
M  V30 3582 H 342.382 4.41639 -0.201791 0
M  V30 3583 N 341.441 0.965919 1.2453 0
M  V30 3584 C 342.391 0.465731 2.23193 0
M  V30 3585 C 343.375 -0.451277 1.54442 0
M  V30 3586 O 344.567 -0.282489 1.74731 0
M  V30 3587 C 341.696 -0.244511 3.42428 0
M  V30 3588 C 340.782 0.691222 4.18429 0
M  V30 3589 N 341.173 1.82771 4.71623 0
M  V30 3590 C 339.471 0.501649 4.4317 0
M  V30 3591 C 340.172 2.41285 5.29298 0
M  V30 3592 N 339.148 1.69819 5.16394 0
M  V30 3593 H 342.95 1.33291 2.61937 0
M  V30 3594 H 340.464 0.824789 1.39896 0
M  V30 3595 H 342.461 -0.620056 4.12263 0
M  V30 3596 H 341.121 -1.10815 3.05205 0
M  V30 3597 H 342.132 2.20929 4.68413 0
M  V30 3598 H 338.809 -0.318177 4.16286 0
M  V30 3599 H 340.199 3.37181 5.8117 0
M  V30 3600 N 342.919 -1.39368 0.735821 0
M  V30 3601 C 343.852 -2.28155 0.0451175 0
M  V30 3602 C 344.83 -1.44433 -0.746852 0
M  V30 3603 O 346.014 -1.73823 -0.729237 0
M  V30 3604 C 343.141 -3.253 -0.943266 0
M  V30 3605 C 342.187 -4.25826 -0.239685 0
M  V30 3606 S 343.02 -5.25166 1.04693 0
M  V30 3607 C 344.176 -6.2587 0.0611639 0
M  V30 3608 H 344.409 -2.86388 0.79807 0
M  V30 3609 H 341.942 -1.45104 0.527653 0
M  V30 3610 H 343.9 -3.81789 -1.50824 0
M  V30 3611 H 342.561 -2.66085 -1.66906 0
M  V30 3612 H 341.754 -4.94229 -0.987596 0
M  V30 3613 H 341.356 -3.73141 0.253274 0
M  V30 3614 H 343.648 -6.73007 -0.778941 0
M  V30 3615 H 344.591 -7.04508 0.712362 0
M  V30 3616 H 344.999 -5.63639 -0.311602 0
M  V30 3617 N 344.397 -0.483516 -1.5 0
M  V30 3618 C 345.329 0.340634 -2.26655 0
M  V30 3619 C 346.342 0.946152 -1.32483 0
M  V30 3620 O 347.531 0.832453 -1.579 0
M  V30 3621 C 344.631 1.4929 -3.04246 0
M  V30 3622 C 343.804 0.997903 -4.25865 0
M  V30 3623 C 342.863 2.02569 -4.85646 0
M  V30 3624 O 341.889 1.60128 -5.46212 0
M  V30 3625 N 343.091 3.3548 -4.73744 0
M  V30 3626 H 345.856 -0.316577 -2.98023 0
M  V30 3627 H 343.417 -0.315024 -1.58806 0
M  V30 3628 H 345.409 2.17766 -3.41116 0
M  V30 3629 H 343.979 2.05458 -2.35597 0
M  V30 3630 H 343.199 0.138617 -3.93956 0
M  V30 3631 H 344.487 0.645305 -5.04691 0
M  V30 3632 H 343.885 3.72661 -4.25605 0
M  V30 3633 H 342.442 3.99718 -5.14848 0
M  V30 3634 N 345.875 1.56104 -0.216619 0
M  V30 3635 C 346.838 2.18819 0.681962 0
M  V30 3636 C 347.838 1.14866 1.12528 0
M  V30 3637 O 349.028 1.40128 1.03488 0
M  V30 3638 C 346.16 2.80756 1.93362 0
M  V30 3639 H 347.353 2.99595 0.135254 0
M  V30 3640 H 344.906 1.56265 0.0330003 0
M  V30 3641 H 345.641 2.03837 2.52232 0
M  V30 3642 H 345.426 3.56876 1.62426 0
M  V30 3643 H 346.916 3.28844 2.57393 0
M  V30 3644 N 347.353 -0.0568162 1.57498 0
M  V30 3645 C 348.316 -1.05038 2.03715 0
M  V30 3646 C 349.316 -1.30709 0.936577 0
M  V30 3647 O 350.506 -1.26178 1.20103 0
M  V30 3648 C 347.638 -2.39034 2.43055 0
M  V30 3649 H 348.831 -0.651715 2.92733 0
M  V30 3650 H 346.384 -0.302947 1.53336 0
M  V30 3651 H 347.119 -2.83703 1.57108 0
M  V30 3652 H 346.904 -2.21739 3.2338 0
M  V30 3653 H 348.394 -3.10421 2.79336 0
M  V30 3654 N 348.832 -1.54138 -0.328536 0
M  V30 3655 C 350.243 -1.63395 -0.903272 0
M  V30 3656 C 350.594 -0.524828 -1.8905 0
M  V30 3657 O 349.719 0.343068 -2.13663 0
M  V30 3658 C 350.314 -2.9618 -1.64507 0
M  V30 3659 C 348.873 -3.0765 -2.1686 0
M  V30 3660 C 348.02 -2.58933 -0.992416 0
M  V30 3661 H 350.971 -1.58344 -0.106253 0
M  V30 3662 H 350.992 -2.86061 -2.50897 0
M  V30 3663 H 350.504 -3.76884 -0.926302 0
M  V30 3664 H 348.605 -2.31611 -2.91868 0
M  V30 3665 H 348.718 -4.1337 -2.42202 0
M  V30 3666 H 347.082 -2.14706 -1.37016 0
M  V30 3667 H 347.865 -3.42089 -0.288041 0
M  V30 3668 N 350.31 0.590341 -1.46126 0
M  V30 3669 C 351.257 1.69994 -1.56111 0
M  V30 3670 C 352.227 1.61065 -0.405867 0
M  V30 3671 O 353.412 1.8039 -0.621613 0
M  V30 3672 C 350.552 3.08326 -1.55013 0
M  V30 3673 C 349.665 3.27936 -2.81215 0
M  V30 3674 C 348.8 4.56473 -2.71673 0
M  V30 3675 C 347.839 4.694 -3.92849 0
M  V30 3676 N 346.976 5.89254 -3.81738 0
M  V30 3677 H 351.816 1.60797 -2.50895 0
M  V30 3678 H 349.353 0.783799 -1.24479 0
M  V30 3679 H 351.311 3.88383 -1.52362 0
M  V30 3680 H 349.941 3.16439 -0.637667 0
M  V30 3681 H 348.993 2.41536 -2.93879 0
M  V30 3682 H 350.305 3.33357 -3.71045 0
M  V30 3683 H 349.459 5.44748 -2.67085 0
M  V30 3684 H 348.198 4.53477 -1.7947 0
M  V30 3685 H 347.203 3.79544 -3.97777 0
M  V30 3686 H 348.428 4.7418 -4.86138 0
M  V30 3687 H 346.374 5.87271 -2.92317 0
M  V30 3688 H 346.291 5.95911 -4.65217 0
M  V30 3689 H 347.559 6.79981 -3.81112 0
M  V30 3690 N 351.788 1.33704 0.83433 0
M  V30 3691 C 352.698 1.26382 1.97648 0
M  V30 3692 C 353.714 0.173548 1.73132 0
M  V30 3693 O 354.89 0.397962 1.97429 0
M  V30 3694 C 351.955 1.00769 3.31733 0
M  V30 3695 C 351.016 2.1884 3.69334 0
M  V30 3696 C 350.249 1.9444 4.9702 0
M  V30 3697 O 350.472 0.896961 5.63303 0
M  V30 3698 O 349.406 2.81093 5.32231 0
M  V30 3699 H 353.232 2.22444 2.06767 0
M  V30 3700 H 350.817 1.13795 0.968037 0
M  V30 3701 H 352.699 0.882186 4.12062 0
M  V30 3702 H 351.374 0.0773783 3.23608 0
M  V30 3703 H 350.281 2.36946 2.89495 0
M  V30 3704 H 351.614 3.10221 3.82131 0
M  V30 3705 N 353.266 -1.05314 1.17247 0
M  V30 3706 C 354.176 -2.16538 0.90268 0
M  V30 3707 C 355.192 -1.73523 -0.128707 0
M  V30 3708 O 356.368 -2.01337 0.0502701 0
M  V30 3709 C 353.433 -3.44167 0.418356 0
M  V30 3710 C 352.494 -4.01635 1.51618 0
M  V30 3711 C 351.727 -5.23171 1.05487 0
M  V30 3712 O 351.95 -5.70327 -0.0914715 0
M  V30 3713 O 350.884 -5.72848 1.8474 0
M  V30 3714 H 354.71 -2.42145 1.83302 0
M  V30 3715 H 352.295 -1.15037 0.953246 0
M  V30 3716 H 354.177 -4.21112 0.155726 0
M  V30 3717 H 352.852 -3.20063 -0.48385 0
M  V30 3718 H 351.759 -3.26135 1.83268 0
M  V30 3719 H 353.092 -4.30053 2.39405 0
M  V30 3720 N 354.744 -0.972509 -1.24016 0
M  V30 3721 C 355.984 -0.644951 -1.93958 0
M  V30 3722 C 356.348 0.80559 -1.74282 0
M  V30 3723 O 357.549 1.2436 -2.38302 0
M  V30 3724 C 355.82 -1.01521 -3.42678 0
M  V30 3725 S 357.379 -0.802927 -4.31391 0
M  V30 3726 H 354.197 -0.236452 -0.670531 0
M  V30 3727 H 356.799 -1.25048 -1.50277 0
M  V30 3728 H 355.503 -2.06769 -3.54506 0
M  V30 3729 H 355.034 -0.400648 -3.91355 0
M  V30 3730 H 357.049 0.317256 -4.95185 0
M  V30 3731 N 356.222 1.38976 -0.743202 0
M  V30 3732 C 357.185 2.28901 -0.117014 0
M  V30 3733 C 358.185 1.46698 0.658503 0
M  V30 3734 O 359.375 1.67274 0.486305 0
M  V30 3735 C 356.507 3.30309 0.84315 0
M  V30 3736 H 357.7 2.8578 -0.909373 0
M  V30 3737 H 355.253 1.47761 -0.509547 0
M  V30 3738 H 355.988 2.785 1.66157 0
M  V30 3739 H 355.773 3.91029 0.289594 0
M  V30 3740 H 357.263 3.97577 1.2776 0
M  V30 3741 N 357.7 0.491464 1.49741 0
M  V30 3742 C 358.63 -0.28154 2.31796 0
M  V30 3743 C 359.611 -0.971473 1.3963 0
M  V30 3744 O 360.796 -0.964719 1.68543 0
M  V30 3745 C 357.926 -1.35203 3.19902 0
M  V30 3746 C 356.88 -0.782529 4.20786 0
M  V30 3747 C 356.206 -1.95283 4.97764 0
M  V30 3748 C 357.506 0.21999 5.21837 0
M  V30 3749 H 359.2 0.403355 2.96671 0
M  V30 3750 H 356.746 0.195425 1.42668 0
M  V30 3751 H 358.699 -1.90045 3.76113 0
M  V30 3752 H 357.423 -2.06598 2.52953 0
M  V30 3753 H 356.082 -0.255928 3.65706 0
M  V30 3754 H 355.73 -2.65423 4.2727 0
M  V30 3755 H 355.43 -1.57789 5.66018 0
M  V30 3756 H 356.954 -2.50577 5.56816 0
M  V30 3757 H 358.368 -0.23996 5.72798 0
M  V30 3758 H 356.765 0.51026 5.97927 0
M  V30 3759 H 357.835 1.13911 4.7133 0
M  V30 3760 N 359.178 -1.55987 0.224894 0
M  V30 3761 C 360.088 -2.24066 -0.69511 0
M  V30 3762 C 361.104 -1.24939 -1.21104 0
M  V30 3763 O 362.28 -1.5776 -1.25195 0
M  V30 3764 C 359.345 -2.90983 -1.88493 0
M  V30 3765 C 358.406 -4.05462 -1.41064 0
M  V30 3766 C 357.639 -4.69179 -2.54375 0
M  V30 3767 O 357.862 -4.31895 -3.72589 0
M  V30 3768 O 356.796 -5.58108 -2.25386 0
M  V30 3769 H 360.622 -3.03353 -0.145149 0
M  V30 3770 H 358.207 -1.49399 -0.00569476 0
M  V30 3771 H 360.089 -3.33209 -2.57972 0
M  V30 3772 H 358.764 -2.14653 -2.42293 0
M  V30 3773 H 357.671 -3.67798 -0.683774 0
M  V30 3774 H 359.004 -4.83545 -0.918985 0
M  V30 3775 N 360.656 0.0484629 -1.57525 0
M  V30 3776 C 361.905 0.742065 -1.87553 0
M  V30 3777 C 362.218 1.77545 -0.820802 0
M  V30 3778 O 363.424 2.52027 -1.00967 0
M  V30 3779 C 361.88 1.37081 -3.32771 0
M  V30 3780 C 361.488 0.374786 -4.4643 0
M  V30 3781 C 363.232 2.04542 -3.71972 0
M  V30 3782 C 361.139 1.01077 -5.82698 0
M  V30 3783 H 360.069 0.280903 -0.699721 0
M  V30 3784 H 362.72 -0.00411877 -1.835 0
M  V30 3785 H 361.102 2.16605 -3.31509 0
M  V30 3786 H 362.276 -0.392331 -4.59127 0
M  V30 3787 H 360.591 -0.196653 -4.15935 0
M  V30 3788 H 363.188 2.52943 -4.71088 0
M  V30 3789 H 363.531 2.85515 -3.02964 0
M  V30 3790 H 364.064 1.31819 -3.75325 0
M  V30 3791 H 360.803 0.240878 -6.55057 0
M  V30 3792 H 360.323 1.74819 -5.73758 0
M  V30 3793 H 362.002 1.52383 -6.28799 0
M  V30 3794 N 362.134 1.5431 0.320358 0
M  V30 3795 C 363.383 1.7188 1.05546 0
M  V30 3796 C 363.696 0.501143 1.89071 0
M  V30 3797 O 364.902 0.558258 2.65699 0
M  V30 3798 C 363.358 3.04025 1.92605 0
M  V30 3799 C 362.966 4.33207 1.14176 0
M  V30 3800 C 364.71 3.30959 2.65832 0
M  V30 3801 C 362.617 5.56412 2.00399 0
M  V30 3802 H 361.547 0.640547 0.397763 0
M  V30 3803 H 364.198 1.80802 0.313522 0
M  V30 3804 H 362.58 2.89019 2.7071 0
M  V30 3805 H 363.754 4.58989 0.40819 0
M  V30 3806 H 362.069 4.13062 0.526165 0
M  V30 3807 H 364.666 4.20203 3.30656 0
M  V30 3808 H 365.009 2.48979 3.33639 0
M  V30 3809 H 365.542 3.46847 1.94787 0
M  V30 3810 H 362.281 6.41004 1.37094 0
M  V30 3811 H 361.801 5.34844 2.7148 0
M  V30 3812 H 363.48 5.92938 2.58908 0
M  V30 3813 N 363.613 -0.582584 1.46437 0
M  V30 3814 C 364.56 -1.69164 1.5701 0
M  V30 3815 C 365.53 -1.60847 0.414403 0
M  V30 3816 O 366.715 -1.80058 0.631171 0
M  V30 3817 C 363.855 -3.075 1.56646 0
M  V30 3818 C 362.968 -3.2644 2.82951 0
M  V30 3819 C 362.103 -4.55026 2.7409 0
M  V30 3820 C 361.142 -4.6731 3.95333 0
M  V30 3821 N 360.279 -5.87221 3.84858 0
M  V30 3822 H 365.119 -1.59464 2.51744 0
M  V30 3823 H 362.656 -0.777186 1.24893 0
M  V30 3824 H 364.614 -3.8757 1.5442 0
M  V30 3825 H 363.244 -3.16096 0.654439 0
M  V30 3826 H 362.296 -2.39974 2.95155 0
M  V30 3827 H 363.608 -3.31385 3.72808 0
M  V30 3828 H 362.762 -5.43324 2.6997 0
M  V30 3829 H 361.501 -4.52519 1.81873 0
M  V30 3830 H 360.506 -3.77429 3.99784 0
M  V30 3831 H 361.731 -4.71595 4.88646 0
M  V30 3832 H 359.677 -5.85712 2.95427 0
M  V30 3833 H 359.594 -5.93435 4.6837 0
M  V30 3834 H 360.862 -6.7795 3.84713 0
M  V30 3835 N 365.091 -1.34144 -0.827227 0
M  V30 3836 C 366.339 -1.26009 -1.58007 0
M  V30 3837 C 366.66 0.170971 -1.94249 0
M  V30 3838 O 365.93 1.10256 -1.61927 0
M  V30 3839 H 364.51 -0.463414 -0.585881 0
M  V30 3840 H 367.172 -1.68005 -0.987951 0
M  V30 3841 H 366.268 -1.86187 -2.50481 0
M  V30 3842 N 366.569 1.04691 -1.17803 0
M  V30 3843 C 367.817 1.7743 -0.967617 0
M  V30 3844 C 368.138 1.88359 0.504574 0
M  V30 3845 O 367.408 1.40402 1.36617 0
M  V30 3846 H 365.988 0.657242 -0.355024 0
M  V30 3847 H 368.65 1.2638 -1.48371 0
M  V30 3848 H 367.746 2.78924 -1.40027 0
M  V30 3849 N 368.047 0.979072 1.23499 0
M  V30 3850 C 369.01 0.523244 2.23147 0
M  V30 3851 C 370.01 -0.386406 1.56088 0
M  V30 3852 O 371.2 -0.180283 1.73265 0
M  V30 3853 C 368.332 -0.240739 3.40049 0
M  V30 3854 H 369.525 1.40432 2.64989 0
M  V30 3855 H 367.078 0.764824 1.36309 0
M  V30 3856 H 367.813 -1.13841 3.03662 0
M  V30 3857 H 367.598 0.412207 3.89927 0
M  V30 3858 H 369.088 -0.548297 4.13985 0
M  V30 3859 N 369.525 -1.3858 0.750561 0
M  V30 3860 C 370.455 -2.33102 0.136237 0
M  V30 3861 C 371.436 -1.54713 -0.706965 0
M  V30 3862 O 372.621 -1.83043 -0.648769 0
M  V30 3863 C 369.751 -3.38882 -0.760017 0
M  V30 3864 C 368.705 -4.27995 -0.0197785 0
M  V30 3865 C 368.031 -5.24605 -1.03408 0
M  V30 3866 C 369.331 -5.09554 1.14684 0
M  V30 3867 H 371.025 -2.84726 0.925822 0
M  V30 3868 H 368.571 -1.36898 0.446654 0
M  V30 3869 H 370.524 -4.0397 -1.19943 0
M  V30 3870 H 369.248 -2.85734 -1.58189 0
M  V30 3871 H 367.907 -3.64409 0.400184 0
M  V30 3872 H 367.555 -4.67746 -1.84994 0
M  V30 3873 H 367.255 -5.85081 -0.543464 0
M  V30 3874 H 368.779 -5.9257 -1.47288 0
M  V30 3875 H 370.193 -5.67899 0.785118 0
M  V30 3876 H 368.59 -5.7925 1.56812 0
M  V30 3877 H 369.66 -4.4347 1.96118 0
M  V30 3878 N 371.003 -0.499398 -1.49478 0
M  V30 3879 C 372.419 -0.155261 -1.58843 0
M  V30 3880 C 372.619 1.34008 -1.50479 0
M  V30 3881 O 371.675 2.11589 -1.37791 0
M  V30 3882 C 372.988 -0.730636 -2.91689 0
M  V30 3883 C 374.536 -0.696599 -3.0515 0
M  V30 3884 C 375.011 -1.25001 -4.40612 0
M  V30 3885 N 376.502 -1.21064 -4.47099 0
M  V30 3886 C 377.237 -1.60905 -5.50361 0
M  V30 3887 N 376.733 -2.08331 -6.60735 0
M  V30 3888 N 378.526 -1.52331 -5.41065 0
M  V30 3889 H 370.677 -1.47162 -1.53158 0
M  V30 3890 H 372.94 -0.610309 -0.725415 0
M  V30 3891 H 372.646 -1.77928 -3.03372 0
M  V30 3892 H 372.52 -0.190161 -3.7672 0
M  V30 3893 H 374.907 0.343204 -2.93097 0
M  V30 3894 H 374.988 -1.2742 -2.21806 0
M  V30 3895 H 374.632 -2.28859 -4.53416 0
M  V30 3896 H 374.562 -0.64836 -5.22593 0
M  V30 3897 H 377.053 -0.863128 -3.67911 0
M  V30 3898 H 377.366 -2.36805 -7.35624 0
M  V30 3899 H 375.711 -2.12304 -6.6178 0
M  V30 3900 H 378.902 -1.151 -4.53729 0
M  V30 3901 H 379.075 -1.83704 -6.21415 0
M  V30 3902 N 372.481 1.55866 -0.233164 0
M  V30 3903 C 373.413 2.18099 0.704668 0
M  V30 3904 C 374.426 1.15334 1.14899 0
M  V30 3905 O 375.615 1.42262 1.07814 0
M  V30 3906 C 372.715 2.7592 1.96777 0
M  V30 3907 C 371.888 4.03969 1.67713 0
M  V30 3908 C 370.947 4.46242 2.78845 0
M  V30 3909 O 369.973 5.12903 2.46818 0
M  V30 3910 N 371.175 4.12886 4.08051 0
M  V30 3911 H 373.94 2.99205 0.172258 0
M  V30 3912 H 371.501 1.61815 -0.0525945 0
M  V30 3913 H 373.493 3.01165 2.70337 0
M  V30 3914 H 372.063 1.99051 2.41034 0
M  V30 3915 H 371.283 3.86459 0.777391 0
M  V30 3916 H 372.571 4.8748 1.4574 0
M  V30 3917 H 371.969 3.59342 4.3691 0
M  V30 3918 H 370.526 4.42997 4.78118 0
M  V30 3919 N 373.959 -0.0401083 1.57549 0
M  V30 3920 C 374.869 -1.06133 2.0922 0
M  V30 3921 C 375.885 -1.40356 1.0284 0
M  V30 3922 O 377.061 -1.49897 1.34509 0
M  V30 3923 C 374.126 -2.34658 2.55218 0
M  V30 3924 C 373.187 -2.07117 3.76033 0
M  V30 3925 C 372.42 -3.29514 4.19829 0
M  V30 3926 O 372.643 -4.39794 3.63232 0
M  V30 3927 O 371.577 -3.15863 5.12362 0
M  V30 3928 H 375.403 -0.652244 2.96613 0
M  V30 3929 H 372.988 -0.256368 1.47184 0
M  V30 3930 H 374.87 -3.10239 2.85184 0
M  V30 3931 H 373.545 -2.74883 1.70941 0
M  V30 3932 H 372.452 -1.29139 3.51104 0
M  V30 3933 H 373.785 -1.71754 4.61261 0
M  V30 3934 N 375.437 -1.54477 -0.31217 0
M  V30 3935 C 376.347 -1.87695 -1.4074 0
M  V30 3936 C 377.363 -0.769975 -1.56036 0
M  V30 3937 O 378.539 -1.06537 -1.70915 0
M  V30 3938 C 375.604 -2.10755 -2.75287 0
M  V30 3939 C 374.665 -3.34514 -2.69071 0
M  V30 3940 C 373.898 -3.56465 -3.97201 0
M  V30 3941 O 374.121 -2.81637 -4.96021 0
M  V30 3942 O 373.055 -4.49964 -3.9977 0
M  V30 3943 H 376.881 -2.80849 -1.15574 0
M  V30 3944 H 374.466 -1.40526 -0.507228 0
M  V30 3945 H 376.348 -2.27188 -3.54913 0
M  V30 3946 H 375.023 -1.20788 -3.0032 0
M  V30 3947 H 373.93 -3.23456 -1.87955 0
M  V30 3948 H 375.263 -4.24575 -2.48992 0
M  V30 3949 N 376.915 0.57481 -1.46744 0
M  V30 3950 C 378.161 1.3347 -1.52688 0
M  V30 3951 C 378.494 1.93353 -0.181229 0
M  V30 3952 O 377.769 1.76912 0.808237 0
M  V30 3953 C 378.052 2.45811 -2.63152 0
M  V30 3954 C 377.905 1.90912 -4.07275 0
M  V30 3955 C 379.224 3.47822 -2.69644 0
M  V30 3956 H 376.343 0.483935 -0.555856 0
M  V30 3957 H 378.985 0.644968 -1.78718 0
M  V30 3958 H 377.135 3.04646 -2.41088 0
M  V30 3959 H 378.807 1.36473 -4.4065 0
M  V30 3960 H 377.05 1.21691 -4.16382 0
M  V30 3961 H 377.721 2.72042 -4.80309 0
M  V30 3962 H 380.197 2.9888 -2.895 0
M  V30 3963 H 379.073 4.23876 -3.48742 0
M  V30 3964 H 379.334 4.05555 -1.76005 0
M  V30 3965 N 378.394 1.34581 0.820102 0
M  V30 3966 C 379.624 1.29991 1.6058 0
M  V30 3967 C 380.032 -0.127588 1.88769 0
M  V30 3968 O 379.375 -1.08595 1.48165 0
M  V30 3969 C 379.437 2.02548 2.9701 0
M  V30 3970 C 379.101 3.51794 2.91701 0
M  V30 3971 C 380.098 4.46647 2.66087 0
M  V30 3972 C 377.783 3.94249 3.11245 0
M  V30 3973 C 379.777 5.81929 2.60071 0
M  V30 3974 C 377.464 5.2963 3.04853 0
M  V30 3975 C 378.462 6.23282 2.793 0
M  V30 3976 O 378.15 7.56181 2.72847 0
M  V30 3977 H 377.882 0.448539 0.505756 0
M  V30 3978 H 380.436 1.77811 1.02822 0
M  V30 3979 H 378.666 1.49345 3.56697 0
M  V30 3980 H 380.355 1.91211 3.58041 0
M  V30 3981 H 381.121 4.15168 2.5072 0
M  V30 3982 H 377 3.21749 3.30149 0
M  V30 3983 H 380.544 6.54999 2.40046 0
M  V30 3984 H 376.441 5.60727 3.19774 0
M  V30 3985 H 377.209 7.6595 2.88553 0
M  V30 3986 N 379.872 -1.04064 1.18357 0
M  V30 3987 C 381.102 -1.80654 1.00238 0
M  V30 3988 C 381.51 -1.83713 -0.452362 0
M  V30 3989 O 380.853 -1.27135 -1.32599 0
M  V30 3990 C 380.915 -3.27582 1.48088 0
M  V30 3991 C 380.579 -3.48184 2.96002 0
M  V30 3992 C 381.576 -3.39372 3.93856 0
M  V30 3993 C 379.261 -3.7478 3.34433 0
M  V30 3994 C 381.255 -3.5686 5.28138 0
M  V30 3995 C 378.942 -3.91915 4.68877 0
M  V30 3996 C 379.94 -3.82956 5.65539 0
M  V30 3997 O 379.628 -3.996 6.97549 0
M  V30 3998 H 379.36 -0.575751 0.354241 0
M  V30 3999 H 381.914 -1.32044 1.57333 0
M  V30 4000 H 380.144 -3.77161 0.853588 0
M  V30 4001 H 381.833 -3.8573 1.2636 0
M  V30 4002 H 382.599 -3.18789 3.65511 0
M  V30 4003 H 378.478 -3.80852 2.59756 0
M  V30 4004 H 382.022 -3.49783 6.03571 0
M  V30 4005 H 377.919 -4.11992 4.96923 0
M  V30 4006 H 378.687 -4.1676 7.04452 0
M  V30 4007 N 381.35 -0.985608 -1.22978 0
M  V30 4008 C 382.627 -0.573599 -1.87001 0
M  V30 4009 C 383.007 0.949213 -1.88555 0
M  V30 4010 O 382.355 1.82811 -1.37086 0
M  V30 4011 C 382.565 -1.18564 -3.28243 0
M  V30 4012 C 383.913 -1.28163 -4.04796 0
M  V30 4013 O 384.937 -1.13949 -3.37482 0
M  V30 4014 O 383.796 -1.50832 -5.25273 0
M  V30 4015 H 380.89 -0.193868 -0.803955 0
M  V30 4016 H 383.436 -1.08102 -1.30813 0
M  V30 4017 H 382.208 -2.22758 -3.21706 0
M  V30 4018 H 381.831 -0.663363 -3.92027 0
M  V30 4019 N 382.828 1.3818 -0.7579 0
M  V30 4020 C 384.053 2.04827 -0.325679 0
M  V30 4021 C 384.478 1.56788 1.03919 0
M  V30 4022 O 383.836 0.721811 1.66312 0
M  V30 4023 C 383.884 3.58774 -0.362447 0
M  V30 4024 O 382.988 4.07372 0.642033 0
M  V30 4025 H 382.329 0.64833 -0.143402 0
M  V30 4026 H 384.859 1.7677 -1.03023 0
M  V30 4027 H 384.869 4.07434 -0.214844 0
M  V30 4028 H 383.544 3.93096 -1.35824 0
M  V30 4029 H 382.121 3.70068 0.458688 0
M  V30 4030 N 384.306 0.507319 1.49211 0
M  V30 4031 C 385.531 -0.033725 2.07373 0
M  V30 4032 C 385.956 -1.29485 1.36437 0
M  V30 4033 O 385.314 -1.76294 0.423087 0
M  V30 4034 C 385.362 -0.263945 3.59633 0
M  V30 4035 O 384.466 -1.33737 3.90113 0
M  V30 4036 H 383.807 0.0290331 0.663365 0
M  V30 4037 H 386.337 0.708749 1.91932 0
M  V30 4038 H 386.347 -0.493536 4.05004 0
M  V30 4039 H 385.022 0.657424 4.10671 0
M  V30 4040 H 383.599 -1.09224 3.56545 0
M  V30 4041 N 385.784 -1.5574 0.241426 0
M  V30 4042 C 386.714 -2.24133 -0.654722 0
M  V30 4043 C 387.695 -1.21974 -1.1856 0
M  V30 4044 O 388.88 -1.50612 -1.22595 0
M  V30 4045 C 386.01 -2.93659 -1.85423 0
M  V30 4046 C 384.964 -4.0246 -1.45636 0
M  V30 4047 C 384.29 -4.59383 -2.73626 0
M  V30 4048 C 385.59 -5.18468 -0.631506 0
M  V30 4049 H 387.284 -2.99281 -0.0844353 0
M  V30 4050 H 384.83 -1.43947 -0.0391707 0
M  V30 4051 H 386.783 -3.40203 -2.48676 0
M  V30 4052 H 385.507 -2.15991 -2.44981 0
M  V30 4053 H 384.166 -3.56676 -0.847202 0
M  V30 4054 H 383.814 -3.78422 -3.3137 0
M  V30 4055 H 383.514 -5.32826 -2.4773 0
M  V30 4056 H 385.038 -5.08658 -3.37786 0
M  V30 4057 H 386.452 -5.61272 -1.1682 0
M  V30 4058 H 384.849 -5.98266 -0.468831 0
M  V30 4059 H 385.919 -4.8358 0.357506 0
M  V30 4060 N 387.262 0.0317525 -1.57568 0
M  V30 4061 C 388.508 0.718712 -1.90279 0
M  V30 4062 C 388.863 1.73108 -0.839727 0
M  V30 4063 O 388.156 1.90997 0.15188 0
M  V30 4064 C 388.35 1.43167 -3.27472 0
M  V30 4065 C 388.179 0.489869 -4.47024 0
M  V30 4066 C 386.949 0.111909 -5.05176 0
M  V30 4067 C 389.147 -0.230592 -5.13783 0
M  V30 4068 N 387.129 -0.831427 -6.08244 0
M  V30 4069 C 388.5 -1.02968 -6.1139 0
M  V30 4070 C 390.555 -0.297821 -4.97008 0
M  V30 4071 C 389.258 -1.88982 -6.9403 0
M  V30 4072 C 391.284 -1.14507 -5.80209 0
M  V30 4073 C 390.646 -1.9321 -6.77384 0
M  V30 4074 H 386.745 0.237177 -0.745165 0
M  V30 4075 H 389.329 -0.0211267 -1.94689 0
M  V30 4076 H 387.5 2.14199 -3.23996 0
M  V30 4077 H 389.232 2.0708 -3.47707 0
M  V30 4078 H 385.987 0.473513 -4.71227 0
M  V30 4079 H 386.411 -1.29752 -6.6445 0
M  V30 4080 H 391.053 0.296346 -4.2176 0
M  V30 4081 H 388.771 -2.4948 -7.68626 0
M  V30 4082 H 392.357 -1.20059 -5.69278 0
M  V30 4083 H 391.237 -2.57711 -7.40645 0
M  V30 4084 N 388.74 1.54641 0.303973 0
M  V30 4085 C 389.968 1.77768 1.05858 0
M  V30 4086 C 390.383 0.535722 1.8104 0
M  V30 4087 O 389.74 -0.494337 1.75677 0
M  V30 4088 C 389.791 2.9834 2.04146 0
M  V30 4089 O 389.512 4.17736 1.32015 0
M  V30 4090 C 391.013 3.33832 2.91669 0
M  V30 4091 H 388.233 0.592961 0.314067 0
M  V30 4092 H 390.777 2.01583 0.344149 0
M  V30 4093 H 388.932 2.76742 2.71096 0
M  V30 4094 H 389.346 4.85693 1.97998 0
M  V30 4095 H 390.82 4.21448 3.56491 0
M  V30 4096 H 391.297 2.51857 3.59812 0
M  V30 4097 H 391.903 3.57579 2.30254 0
M  V30 4098 N 390.218 -0.567019 1.47046 0
M  V30 4099 C 391.446 -1.35027 1.56765 0
M  V30 4100 C 391.861 -1.8758 0.214316 0
M  V30 4101 O 391.218 -1.64471 -0.790919 0
M  V30 4102 C 391.269 -2.52698 2.58507 0
M  V30 4103 O 390.99 -2.0232 3.88585 0
M  V30 4104 C 392.491 -3.45043 2.78316 0
M  V30 4105 H 389.711 -0.41195 0.529658 0
M  V30 4106 H 392.255 -0.687832 1.92585 0
M  V30 4107 H 390.41 -3.149 2.25648 0
M  V30 4108 H 390.824 -2.79068 4.44096 0
M  V30 4109 H 392.298 -4.2405 3.53391 0
M  V30 4110 H 392.775 -3.97971 1.85784 0
M  V30 4111 H 393.381 -2.88665 3.12334 0
M  V30 4112 N 391.696 -1.35014 -0.812953 0
M  V30 4113 C 392.626 -1.30069 -1.93919 0
M  V30 4114 C 393.607 -0.176275 -1.69184 0
M  V30 4115 O 394.792 -0.370227 -1.90638 0
M  V30 4116 C 391.922 -1.06547 -3.30552 0
M  V30 4117 C 390.876 -2.15561 -3.69753 0
M  V30 4118 C 390.202 -1.77214 -5.04479 0
M  V30 4119 C 391.502 -3.57476 -3.808 0
M  V30 4120 H 393.196 -2.24303 -1.98314 0
M  V30 4121 H 390.742 -1.07977 -0.952736 0
M  V30 4122 H 392.695 -1.01729 -4.08937 0
M  V30 4123 H 391.419 -0.0875719 -3.26483 0
M  V30 4124 H 390.078 -2.19466 -2.9365 0
M  V30 4125 H 389.726 -0.780589 -4.96906 0
M  V30 4126 H 389.426 -2.50184 -5.31678 0
M  V30 4127 H 390.95 -1.7391 -5.8531 0
M  V30 4128 H 392.364 -3.55929 -4.4943 0
M  V30 4129 H 390.761 -4.29152 -4.19462 0
M  V30 4130 H 391.831 -3.94091 -2.82525 0
M  V30 4131 N 393.175 1.03435 -1.18907 0
M  V30 4132 C 394.105 2.13503 -0.945448 0
M  V30 4133 C 395.086 1.69682 0.119189 0
M  V30 4134 O 396.271 1.94169 -0.034707 0
M  V30 4135 C 393.401 3.44004 -0.477316 0
M  V30 4136 C 392.355 4.0148 -1.48316 0
M  V30 4137 C 391.681 5.27537 -0.872311 0
M  V30 4138 C 392.981 4.36921 -2.86177 0
M  V30 4139 H 394.675 2.34141 -1.86597 0
M  V30 4140 H 392.221 1.12523 -0.898584 0
M  V30 4141 H 394.174 4.20372 -0.294204 0
M  V30 4142 H 392.898 3.23072 0.478786 0
M  V30 4143 H 391.557 3.27201 -1.65332 0
M  V30 4144 H 391.205 5.02917 0.0911752 0
M  V30 4145 H 390.905 5.66954 -1.54393 0
M  V30 4146 H 392.429 6.06576 -0.699871 0
M  V30 4147 H 393.843 5.04248 -2.72776 0
M  V30 4148 H 392.24 4.87405 -3.50081 0
M  V30 4149 H 393.31 3.46466 -3.39248 0
M  V30 4150 N 394.653 0.992116 1.22453 0
M  V30 4151 C 395.902 0.662992 1.90492 0
M  V30 4152 C 396.215 -0.808407 1.78113 0
M  V30 4153 O 397.421 -1.24908 2.41061 0
M  V30 4154 C 395.877 1.1353 3.41524 0
M  V30 4155 C 395.485 2.63187 3.62542 0
M  V30 4156 C 397.229 0.880465 4.15269 0
M  V30 4157 C 395.136 3.04024 5.0727 0
M  V30 4158 H 394.066 0.244278 0.713333 0
M  V30 4159 H 396.717 1.20157 1.38688 0
M  V30 4160 H 395.099 0.52485 3.92506 0
M  V30 4161 H 396.273 3.2957 3.22056 0
M  V30 4162 H 394.588 2.86543 3.02129 0
M  V30 4163 H 397.185 1.16128 5.21937 0
M  V30 4164 H 397.528 -0.183408 4.15896 0
M  V30 4165 H 398.061 1.45307 3.70312 0
M  V30 4166 H 394.8 4.09584 5.11782 0
M  V30 4167 H 394.32 2.42343 5.48662 0
M  V30 4168 H 395.999 2.95282 5.75689 0
M  V30 4169 N 396.131 -1.37776 0.765217 0
M  V30 4170 C 397.547 -1.53297 0.444108 0
M  V30 4171 C 397.747 -1.72515 -1.04119 0
M  V30 4172 O 396.803 -1.74278 -1.82711 0
M  V30 4173 C 398.116 -2.73328 1.25349 0
M  V30 4174 C 399.664 -2.87185 1.24473 0
M  V30 4175 C 400.139 -4.10191 2.03733 0
M  V30 4176 N 401.63 -4.17291 2.01053 0
M  V30 4177 C 402.365 -5.11488 2.59166 0
M  V30 4178 N 401.861 -6.11285 3.26041 0
M  V30 4179 N 403.654 -5.03924 2.49032 0
M  V30 4180 H 395.805 -1.23552 1.72768 0
M  V30 4181 H 398.068 -0.601103 0.733062 0
M  V30 4182 H 397.774 -2.6557 2.30577 0
M  V30 4183 H 397.648 -3.66834 0.87823 0
M  V30 4184 H 400.035 -2.94418 0.20047 0
M  V30 4185 H 400.116 -1.94657 1.65959 0
M  V30 4186 H 399.76 -4.0372 3.08176 0
M  V30 4187 H 399.69 -5.01821 1.59633 0
M  V30 4188 H 402.181 -3.45825 1.5236 0
M  V30 4189 H 402.494 -6.79678 3.67774 0
M  V30 4190 H 400.839 -6.11583 3.30138 0
M  V30 4191 H 404.03 -4.24902 1.96407 0
M  V30 4192 H 404.203 -5.77152 2.94617 0
M  V30 4193 N 397.609 -0.515225 -1.4894 0
M  V30 4194 C 398.557 0.269115 -2.31038 0
M  V30 4195 C 399.551 0.949443 -1.40292 0
M  V30 4196 O 400.757 0.87551 -1.57273 0
M  V30 4197 H 397.132 0.10565 -0.744542 0
M  V30 4198 H 399.103 -0.443096 -2.95092 0
M  V30 4199 C 397.852 1.31213 -3.21991 0
M  V30 4200 H 397.175 0.798034 -3.91754 0
M  V30 4201 H 398.615 1.83263 -3.82349 0
M  V30 4202 C 397.074 2.33791 -2.42576 0
M  V30 4203 O 397.604 3.3995 -2.14003 0
M  V30 4204 N 395.81 2.06625 -2.0434 0
M  V30 4205 H 395.357 1.20314 -2.27777 0
M  V30 4206 H 395.315 2.75483 -1.51514 0
M  V30 4207 N 399.087 1.5561 -0.249682 0
M  V30 4208 C 400.498 1.84979 0.252949 0
M  V30 4209 C 400.849 1.17153 1.57384 0
M  V30 4210 O 399.974 0.450884 2.11651 0
M  V30 4211 C 400.569 3.35584 0.465732 0
M  V30 4212 C 399.128 3.65169 0.912624 0
M  V30 4213 C 398.275 2.77299 -0.00859085 0
M  V30 4214 H 401.226 1.51513 -0.47217 0
M  V30 4215 H 401.247 3.57313 1.30795 0
M  V30 4216 H 400.759 3.8492 -0.49579 0
M  V30 4217 H 398.86 3.21312 1.88652 0
M  V30 4218 H 398.973 4.72912 0.767559 0
M  V30 4219 H 397.337 2.49678 0.50327 0
M  V30 4220 H 398.12 3.29442 -0.965537 0
M  V30 4221 N 400.565 -0.0233959 1.57583 0
M  V30 4222 C 401.805 -0.71784 1.9138 0
M  V30 4223 C 402.169 -1.72216 0.848853 0
M  V30 4224 O 403.37 -2.46527 1.07134 0
M  V30 4225 C 401.641 -1.36489 3.30311 0
M  V30 4226 S 403.2 -2.0877 3.85954 0
M  V30 4227 H 400.018 -0.237676 0.670098 0
M  V30 4228 H 402.62 0.0276709 1.9548 0
M  V30 4229 H 401.324 -0.620782 4.05678 0
M  V30 4230 H 400.855 -2.14883 3.29528 0
M  V30 4231 H 402.87 -3.35988 3.65139 0
M  V30 4232 N 402.043 -1.548 -0.295768 0
M  V30 4233 C 403.459 -1.4613 -0.641722 0
M  V30 4234 C 403.659 -0.656771 -1.90496 0
M  V30 4235 O 402.715 -0.166547 -2.5195 0
M  V30 4236 C 404.028 -2.90141 -0.789852 0
M  V30 4237 C 405.576 -3.00216 -0.885396 0
M  V30 4238 C 406.051 -4.45434 -1.06548 0
M  V30 4239 N 407.542 -4.49166 -1.13156 0
M  V30 4240 C 408.277 -5.58717 -1.28929 0
M  V30 4241 N 407.773 -6.78182 -1.41567 0
M  V30 4242 N 409.566 -5.46415 -1.31859 0
M  V30 4243 H 401.717 -2.05574 0.534147 0
M  V30 4244 H 403.98 -0.931259 0.177372 0
M  V30 4245 H 403.686 -3.51635 0.0675598 0
M  V30 4246 H 403.56 -3.37859 -1.67724 0
M  V30 4247 H 405.947 -2.38833 -1.73329 0
M  V30 4248 H 406.028 -2.55787 0.0261185 0
M  V30 4249 H 405.672 -5.07413 -0.222335 0
M  V30 4250 H 405.602 -4.87499 -1.9913 0
M  V30 4251 H 408.093 -3.631 -1.04721 0
M  V30 4252 H 408.406 -7.57428 -1.53372 0
M  V30 4253 H 406.751 -6.81037 -1.38613 0
M  V30 4254 H 409.942 -4.5203 -1.21601 0
M  V30 4255 H 410.115 -6.31841 -1.43808 0
M  V30 4256 N 403.521 0.559213 -1.47345 0
M  V30 4257 C 404.468 1.66645 -1.59682 0
M  V30 4258 C 405.438 1.60168 -0.43994 0
M  V30 4259 O 406.623 1.79031 -0.659736 0
M  V30 4260 C 403.763 3.04969 -1.61518 0
M  V30 4261 C 402.876 3.21897 -2.88108 0
M  V30 4262 C 402.011 4.50608 -2.81294 0
M  V30 4263 C 401.05 4.60961 -4.02717 0
M  V30 4264 N 400.187 5.81024 -3.94151 0
M  V30 4265 H 405.027 1.55439 -2.54249 0
M  V30 4266 H 402.564 0.757219 -1.26113 0
M  V30 4267 H 404.522 3.85064 -1.60566 0
M  V30 4268 H 403.152 3.15015 -0.704645 0
M  V30 4269 H 402.204 2.35248 -2.98936 0
M  V30 4270 H 403.516 3.25412 -3.78032 0
M  V30 4271 H 402.67 5.3896 -2.7858 0
M  V30 4272 H 401.409 4.49568 -1.89049 0
M  V30 4273 H 400.414 3.71021 -4.05738 0
M  V30 4274 H 401.639 4.63761 -4.96087 0
M  V30 4275 H 399.585 5.80938 -3.04708 0
M  V30 4276 H 399.502 5.85909 -4.77752 0
M  V30 4277 H 400.77 6.71744 -3.9545 0
M  V30 4278 N 404.999 1.35443 0.805782 0
M  V30 4279 C 406.248 1.28097 1.55801 0
M  V30 4280 C 406.561 -0.142428 1.95081 0
M  V30 4281 O 407.767 -0.33817 2.69386 0
M  V30 4282 C 406.223 2.24653 2.81174 0
M  V30 4283 C 405.831 3.72342 2.49129 0
M  V30 4284 C 407.575 2.2625 3.59181 0
M  V30 4285 C 405.482 4.60719 3.70799 0
M  V30 4286 H 404.412 0.475937 0.584808 0
M  V30 4287 H 407.063 1.60712 0.885661 0
M  V30 4288 H 405.445 1.85011 3.50124 0
M  V30 4289 H 406.619 4.20624 1.88181 0
M  V30 4290 H 404.934 3.73361 1.84366 0
M  V30 4291 H 407.531 2.89495 4.49552 0
M  V30 4292 H 407.874 1.26647 3.96568 0
M  V30 4293 H 408.407 2.64426 2.97193 0
M  V30 4294 H 405.146 5.61324 3.3852 0
M  V30 4295 H 404.666 4.17163 4.3097 0
M  V30 4296 H 406.345 4.76182 4.38018 0
M  V30 4297 N 406.477 -1.02803 1.19454 0
M  V30 4298 C 407.407 -2.12999 0.956758 0
M  V30 4299 C 408.388 -1.69743 -0.110188 0
M  V30 4300 O 409.573 -1.94148 0.0450038 0
M  V30 4301 C 406.703 -3.43746 0.495553 0
M  V30 4302 C 405.657 -4.00688 1.50443 0
M  V30 4303 C 404.983 -5.27067 0.900275 0
M  V30 4304 C 406.283 -4.35397 2.8849 0
M  V30 4305 H 407.977 -2.33148 1.87836 0
M  V30 4306 H 405.523 -1.12045 0.904539 0
M  V30 4307 H 407.476 -4.2021 0.316493 0
M  V30 4308 H 406.2 -3.23321 -0.461646 0
M  V30 4309 H 404.859 -3.2632 1.67065 0
M  V30 4310 H 404.507 -5.02959 -0.064503 0
M  V30 4311 H 404.207 -5.66127 1.57397 0
M  V30 4312 H 405.731 -6.06196 0.73203 0
M  V30 4313 H 407.145 -5.02795 2.75446 0
M  V30 4314 H 405.542 -4.85541 3.52661 0
M  V30 4315 H 406.612 -3.44662 3.41081 0
M  V30 4316 N 407.956 -0.998596 -1.21925 0
M  V30 4317 C 408.866 -0.562736 -2.27751 0
M  V30 4318 C 409.882 0.391203 -1.69545 0
M  V30 4319 O 411.058 0.256625 -1.99758 0
M  V30 4320 C 408.123 0.11012 -3.46525 0
M  V30 4321 C 407.184 -0.887495 -4.20026 0
M  V30 4322 C 406.417 -0.246654 -5.3313 0
M  V30 4323 O 406.64 0.958088 -5.62296 0
M  V30 4324 O 405.574 -0.954374 -5.94286 0
M  V30 4325 H 409.4 -1.44329 -2.67213 0
M  V30 4326 H 406.985 -0.767135 -1.28201 0
M  V30 4327 H 408.867 0.486756 -4.18579 0
M  V30 4328 H 407.542 0.965154 -3.08976 0
M  V30 4329 H 406.449 -1.31517 -3.5022 0
M  V30 4330 H 407.782 -1.71191 -4.6147 0
M  V30 4331 N 409.434 1.37368 -0.772513 0
M  V30 4332 C 410.681 1.99673 -0.337182 0
M  V30 4333 C 411.009 1.61324 1.0865 0
M  V30 4334 O 410.264 0.851377 1.7621 0
M  V30 4335 C 410.563 3.54817 -0.428876 0
M  V30 4336 C 410.229 4.12936 -1.81092 0
M  V30 4337 C 408.891 4.28523 -2.1891 0
M  V30 4338 C 411.243 4.44801 -2.71664 0
M  V30 4339 C 408.571 4.73277 -3.46735 0
M  V30 4340 C 410.923 4.90981 -3.98899 0
M  V30 4341 C 409.587 5.04773 -4.36761 0
M  V30 4342 H 408.857 0.730656 -0.123384 0
M  V30 4343 H 411.504 1.64124 -0.986686 0
M  V30 4344 H 409.809 3.90618 0.304167 0
M  V30 4345 H 411.506 4.00933 -0.0733334 0
M  V30 4346 H 408.096 4.01233 -1.50699 0
M  V30 4347 H 412.28 4.32344 -2.43706 0
M  V30 4348 H 407.536 4.82142 -3.75964 0
M  V30 4349 H 411.71 5.14603 -4.69208 0
M  V30 4350 H 409.337 5.39211 -5.35868 0
M  V30 4351 N 410.912 0.523116 1.48665 0
M  V30 4352 C 411.842 -0.23231 2.32342 0
M  V30 4353 C 412.823 -0.941637 1.41659 0
M  V30 4354 O 414.008 -0.928751 1.70552 0
M  V30 4355 C 411.138 -1.28387 3.22698 0
M  V30 4356 C 410.092 -0.693098 4.22351 0
M  V30 4357 C 409.418 -1.8468 5.01794 0
M  V30 4358 C 410.718 0.33063 5.21252 0
M  V30 4359 H 412.412 0.466192 2.95748 0
M  V30 4360 H 409.958 0.225643 1.42221 0
M  V30 4361 H 411.911 -1.82024 3.80059 0
M  V30 4362 H 410.635 -2.01186 2.57278 0
M  V30 4363 H 409.294 -0.178299 3.66166 0
M  V30 4364 H 408.942 -2.56301 4.32804 0
M  V30 4365 H 408.642 -1.45747 5.69238 0
M  V30 4366 H 410.166 -2.38709 5.62006 0
M  V30 4367 H 411.58 -0.118407 5.73178 0
M  V30 4368 H 409.977 0.636974 5.9671 0
M  V30 4369 H 411.047 1.23883 4.68808 0
M  V30 4370 N 412.39 -1.55475 0.257931 0
M  V30 4371 C 413.62 -2.03314 -0.367026 0
M  V30 4372 C 414.028 -1.13625 -1.51281 0
M  V30 4373 O 413.371 -0.145334 -1.83124 0
M  V30 4374 C 413.433 -3.47362 -0.926284 0
M  V30 4375 C 413.097 -4.56914 0.0886584 0
M  V30 4376 C 414.094 -5.12013 0.902123 0
M  V30 4377 C 411.779 -5.01827 0.217936 0
M  V30 4378 C 413.773 -6.10529 1.83122 0
M  V30 4379 C 411.46 -6.00172 1.15052 0
M  V30 4380 C 412.458 -6.54402 1.95568 0
M  V30 4381 O 412.146 -7.50827 2.87253 0
M  V30 4382 H 411.878 -0.669976 -0.0900443 0
M  V30 4383 H 414.432 -2.01804 0.382673 0
M  V30 4384 H 412.662 -3.46056 -1.72575 0
M  V30 4385 H 414.351 -3.78637 -1.46249 0
M  V30 4386 H 415.117 -4.78139 0.812891 0
M  V30 4387 H 410.996 -4.59272 -0.398721 0
M  V30 4388 H 414.54 -6.52783 2.46008 0
M  V30 4389 H 410.437 -6.33465 1.24064 0
M  V30 4390 H 411.205 -7.68483 2.81739 0
M  V30 4391 N 413.868 0.0150385 -1.57593 0
M  V30 4392 C 415.093 0.718067 -1.94573 0
M  V30 4393 C 415.518 1.6734 -0.859005 0
M  V30 4394 O 414.876 1.80362 0.184147 0
M  V30 4395 C 414.924 1.43918 -3.30636 0
M  V30 4396 O 414.028 2.55299 -3.23876 0
M  V30 4397 H 413.369 0.192125 -0.635597 0
M  V30 4398 H 415.899 -0.0336708 -2.04572 0
M  V30 4399 H 415.909 1.80598 -3.65853 0
M  V30 4400 H 414.584 0.738619 -4.09289 0
M  V30 4401 H 413.161 2.21058 -3.00312 0
M  V30 4402 N 415.346 1.54954 0.287554 0
M  V30 4403 C 416.574 1.78881 1.03967 0
M  V30 4404 C 416.989 0.554894 1.80462 0
M  V30 4405 O 416.346 -0.475676 1.76192 0
M  V30 4406 C 416.397 3.00488 2.0097 0
M  V30 4407 O 416.118 4.19113 1.27577 0
M  V30 4408 C 417.619 3.36907 2.88112 0
M  V30 4409 H 414.839 0.596259 0.307761 0
M  V30 4410 H 417.383 2.01937 0.322749 0
M  V30 4411 H 415.538 2.79601 2.68145 0
M  V30 4412 H 415.952 4.87765 1.92835 0
M  V30 4413 H 417.426 4.25205 3.52001 0
M  V30 4414 H 417.903 2.55659 3.57121 0
M  V30 4415 H 418.509 3.60001 2.26449 0
M  V30 4416 N 416.824 -0.551391 1.4764 0
M  V30 4417 C 418.049 -1.33837 1.58437 0
M  V30 4418 C 418.474 -1.866 0.237063 0
M  V30 4419 O 417.832 -1.6328 -0.787994 0
M  V30 4420 C 417.88 -2.48014 2.61766 0
M  V30 4421 O 416.984 -3.50419 2.1744 0
M  V30 4422 H 416.325 -0.397299 0.532024 0
M  V30 4423 H 418.855 -0.665759 1.93465 0
M  V30 4424 H 418.865 -2.94503 2.82369 0
M  V30 4425 H 417.54 -2.08969 3.5959 0
M  V30 4426 H 416.117 -3.10196 2.06961 0
M  V30 4427 N 418.302 -1.35869 -0.798587 0
M  V30 4428 C 419.532 -1.32529 -1.58491 0
M  V30 4429 C 419.94 0.0975405 -1.88948 0
M  V30 4430 O 419.283 1.06224 -1.49874 0
M  V30 4431 C 419.345 -2.07247 -2.9375 0
M  V30 4432 C 419.009 -3.56391 -2.86068 0
M  V30 4433 C 420.006 -4.50824 -2.58947 0
M  V30 4434 C 417.691 -3.9915 -3.04933 0
M  V30 4435 C 419.685 -5.85993 -2.5078 0
M  V30 4436 C 417.372 -5.34413 -2.96389 0
M  V30 4437 C 418.37 -6.27646 -2.69349 0
M  V30 4438 O 418.058 -7.60426 -2.60782 0
M  V30 4439 H 417.79 -0.456529 -0.498556 0
M  V30 4440 H 420.344 -1.79425 -0.999799 0
M  V30 4441 H 418.574 -1.55001 -3.54276 0
M  V30 4442 H 420.263 -1.96883 -3.54954 0
M  V30 4443 H 421.029 -4.19104 -2.44084 0
M  V30 4444 H 416.908 -3.26961 -3.24989 0
M  V30 4445 H 420.452 -6.58735 -2.29595 0
M  V30 4446 H 416.349 -5.65743 -3.10813 0
M  V30 4447 H 417.117 -7.70444 -2.76331 0
M  V30 4448 N 419.78 1.02168 -1.19998 0
M  V30 4449 C 420.728 2.12717 -0.940967 0
M  V30 4450 C 421.722 1.69069 0.105841 0
M  V30 4451 O 422.928 1.79946 -0.0440583 0
M  V30 4452 H 419.303 0.695108 -0.28693 0
M  V30 4453 H 421.274 2.3175 -1.87975 0
M  V30 4454 C 420.023 3.44027 -0.504049 0
M  V30 4455 H 419.346 3.78036 -1.30112 0
M  V30 4456 H 420.786 4.22452 -0.361991 0
M  V30 4457 C 419.245 3.27678 0.782878 0
M  V30 4458 O 419.775 3.56949 1.84256 0
M  V30 4459 N 417.981 2.80943 0.742921 0
M  V30 4460 H 417.528 2.57322 -0.119687 0
M  V30 4461 H 417.486 2.70385 1.60435 0
M  V30 4462 N 421.258 1.00505 1.21394 0
M  V30 4463 C 422.191 0.51032 2.22421 0
M  V30 4464 C 423.169 -0.436 1.56645 0
M  V30 4465 O 424.353 -0.358709 1.85055 0
M  V30 4466 C 421.48 -0.258733 3.3771 0
M  V30 4467 C 420.526 0.635395 4.2174 0
M  V30 4468 S 421.359 2.09783 4.92698 0
M  V30 4469 C 422.515 1.33862 6.11418 0
M  V30 4470 H 422.748 1.36637 2.64041 0
M  V30 4471 H 420.281 0.812991 1.31262 0
M  V30 4472 H 422.239 -0.696372 4.0455 0
M  V30 4473 H 420.9 -1.0902 2.94573 0
M  V30 4474 H 420.093 0.0430189 5.03982 0
M  V30 4475 H 419.695 1.01031 3.60095 0
M  V30 4476 H 421.987 0.612541 6.74725 0
M  V30 4477 H 422.93 2.13675 6.75092 0
M  V30 4478 H 423.338 0.846568 5.58116 0
M  V30 4479 N 422.737 -1.36956 0.779787 0
M  V30 4480 C 424.014 -1.93697 0.272156 0
M  V30 4481 C 424.394 -1.71267 -1.23413 0
M  V30 4482 O 423.742 -1.06607 -2.02107 0
M  V30 4483 C 423.952 -3.42812 0.654291 0
M  V30 4484 C 425.3 -4.19921 0.628602 0
M  V30 4485 O 426.324 -3.51209 0.594172 0
M  V30 4486 O 425.183 -5.42465 0.662864 0
M  V30 4487 H 422.277 -0.824447 0.0649286 0
M  V30 4488 H 424.823 -1.46196 0.861682 0
M  V30 4489 H 423.595 -3.52754 1.69353 0
M  V30 4490 H 423.218 -3.97582 0.0381369 0
M  V30 4491 N 424.215 -0.530993 -1.48385 0
M  V30 4492 C 425.631 -0.188919 -1.58478 0
M  V30 4493 C 425.831 1.30786 -1.53288 0
M  V30 4494 O 424.887 2.08619 -1.42248 0
M  V30 4495 C 426.2 -0.792343 -2.90073 0
M  V30 4496 C 427.748 -0.76117 -3.03604 0
M  V30 4497 C 428.223 -1.34319 -4.37861 0
M  V30 4498 N 429.714 -1.3052 -4.44431 0
M  V30 4499 C 430.449 -1.72543 -5.46824 0
M  V30 4500 N 429.945 -2.22299 -6.56167 0
M  V30 4501 N 431.738 -1.63773 -5.37712 0
M  V30 4502 H 423.889 -1.50377 -1.50002 0
M  V30 4503 H 426.152 -0.625559 -0.712306 0
M  V30 4504 H 425.858 -1.84323 -2.99529 0
M  V30 4505 H 425.732 -0.270026 -3.76232 0
M  V30 4506 H 428.119 0.280957 -2.93759 0
M  V30 4507 H 428.2 -1.32097 -2.19053 0
M  V30 4508 H 427.844 -2.38425 -4.4846 0
M  V30 4509 H 427.774 -0.759064 -5.21101 0
M  V30 4510 H 430.265 -0.940973 -3.65997 0
M  V30 4511 H 430.578 -2.52356 -7.30436 0
M  V30 4512 H 428.923 -2.26293 -6.57127 0
M  V30 4513 H 432.114 -1.24698 -4.51185 0
M  V30 4514 H 432.287 -1.96844 -6.17379 0
M  V30 4515 N 425.693 1.55336 -0.266172 0
M  V30 4516 C 426.94 1.99397 0.353158 0
M  V30 4517 C 427.268 1.15451 1.56529 0
M  V30 4518 O 426.523 0.209974 1.9457 0
M  V30 4519 C 426.822 3.48606 0.787957 0
M  V30 4520 C 426.488 4.49773 -0.318541 0
M  V30 4521 C 425.15 4.77158 -0.62239 0
M  V30 4522 C 427.502 5.10212 -1.06459 0
M  V30 4523 C 424.83 5.62251 -1.67602 0
M  V30 4524 C 427.182 5.96449 -2.10788 0
M  V30 4525 C 425.846 6.22158 -2.41817 0
M  V30 4526 H 425.116 0.729644 0.12923 0
M  V30 4527 H 427.763 1.87732 -0.37802 0
M  V30 4528 H 426.068 3.57701 1.59866 0
M  V30 4529 H 427.765 3.80098 1.27775 0
M  V30 4530 H 424.355 4.2854 -0.0715925 0
M  V30 4531 H 428.539 4.89086 -0.843098 0
M  V30 4532 H 423.795 5.80419 -1.92155 0
M  V30 4533 H 427.969 6.42317 -2.69076 0
M  V30 4534 H 425.596 6.87888 -3.23596 0
M  V30 4535 N 427.171 -0.0066808 1.57599 0
M  V30 4536 C 428.42 -0.692078 1.89455 0
M  V30 4537 C 428.733 -1.75306 0.867586 0
M  V30 4538 O 429.939 -2.49262 1.07614 0
M  V30 4539 C 428.395 -1.2821 3.36289 0
M  V30 4540 C 428.003 -0.256291 4.47266 0
M  V30 4541 C 429.747 -1.94608 3.77264 0
M  V30 4542 C 427.654 -0.855927 5.85173 0
M  V30 4543 H 426.584 -0.262252 0.706923 0
M  V30 4544 H 429.235 0.052769 1.83424 0
M  V30 4545 H 427.617 -2.0774 3.37135 0
M  V30 4546 H 428.791 0.513923 4.57925 0
M  V30 4547 H 427.106 0.306862 4.15268 0
M  V30 4548 H 429.703 -2.40364 4.77629 0
M  V30 4549 H 430.046 -2.77382 3.10427 0
M  V30 4550 H 430.579 -1.21822 3.78688 0
M  V30 4551 H 427.318 -0.0671161 6.55466 0
M  V30 4552 H 426.838 -1.59546 5.78191 0
M  V30 4553 H 428.517 -1.35658 6.32618 0
M  V30 4554 N 428.649 -1.55105 -0.279332 0
M  V30 4555 C 429.597 -1.88333 -1.36505 0
M  V30 4556 C 430.591 -0.759043 -1.51443 0
M  V30 4557 O 431.797 -0.943312 -1.53302 0
M  V30 4558 H 428.172 -0.59766 -0.456406 0
M  V30 4559 H 430.143 -2.79041 -1.05728 0
M  V30 4560 C 428.892 -2.16628 -2.7197 0
M  V30 4561 H 428.215 -3.02624 -2.61264 0
M  V30 4562 H 429.655 -2.43803 -3.46895 0
M  V30 4563 C 428.114 -0.971807 -3.22579 0
M  V30 4564 O 428.644 -0.203228 -4.01186 0
M  V30 4565 N 426.85 -0.771238 -2.80179 0
M  V30 4566 H 426.397 -1.39792 -2.1637 0
M  V30 4567 H 426.355 0.0263667 -3.14389 0
M  V30 4568 N 430.127 0.543554 -1.4793 0
M  V30 4569 C 431.074 1.64942 -1.6144 0
M  V30 4570 C 432.044 1.59692 -0.456903 0
M  V30 4571 O 433.229 1.78321 -0.678688 0
M  V30 4572 C 430.369 3.03238 -1.64744 0
M  V30 4573 C 429.482 3.18823 -2.91506 0
M  V30 4574 C 428.617 4.47599 -2.86057 0
M  V30 4575 C 427.656 4.56664 -4.07584 0
M  V30 4576 N 426.793 5.76811 -4.00292 0
M  V30 4577 H 431.633 1.52733 -2.55884 0
M  V30 4578 H 429.17 0.7438 -1.2691 0
M  V30 4579 H 431.128 3.83339 -1.64641 0
M  V30 4580 H 429.758 3.1425 -0.738017 0
M  V30 4581 H 428.81 2.32064 -3.01414 0
M  V30 4582 H 430.122 3.21384 -3.81463 0
M  V30 4583 H 429.276 5.35975 -2.84281 0
M  V30 4584 H 428.015 4.47538 -1.93807 0
M  V30 4585 H 427.02 3.66697 -4.09651 0
M  V30 4586 H 428.245 4.58474 -5.00978 0
M  V30 4587 H 426.191 5.77673 -3.10853 0
M  V30 4588 H 426.108 5.80808 -4.8394 0
M  V30 4589 H 427.376 6.67512 -4.02553 0
M  V30 4590 O 431.644 1.46095 0.688375 0
M  V30 4591 H 432.335 1.39822 1.34051 0
M  V30 END ATOM
M  V30 BEGIN BOND
M  V30 END BOND
M  V30 END CTAB
M  END
$$$$
