drugbank_target|Q9HBH5 Retinol dehydrogenase 14 (DB00162)
 OpenBabel12092120093D

  0  0  0     0  0            999 V3000
M  V30 BEGIN CTAB
M  V30 COUNTS 5242 5286 0 0 0
M  V30 BEGIN ATOM
M  V30 1 H -0.908 1.98254 -0.117106 0
M  V30 2 N 0 1.576 0 0
M  V30 3 C 0.933 2.03868 1.02534 0
M  V30 4 C 1.911 0.928543 1.3348 0
M  V30 5 O 3.095 1.19667 1.45644 0
M  V30 6 C 0.222 2.43627 2.35294 0
M  V30 7 C -0.732 3.65373 2.2001 0
M  V30 8 S 0.101 5.13292 1.52614 0
M  V30 9 C 1.257 5.56322 2.86805 0
M  V30 10 H 1.49 2.90518 0.631377 0
M  V30 11 H -0.977 1.52953 0.210867 0
M  V30 12 H 0.981 2.67203 3.11629 0
M  V30 13 H -0.358 1.57376 2.7183 0
M  V30 14 H -1.165 3.90944 3.18086 0
M  V30 15 H -1.563 3.418 1.51819 0
M  V30 16 H 0.729 5.58782 3.83104 0
M  V30 17 H 1.672 6.56266 2.65933 0
M  V30 18 H 2.08 4.83886 2.90714 0
M  V30 19 N 1.4781 -0.272755 1.55222 0
M  V30 20 C 2.4411 -1.32041 1.87344 0
M  V30 21 C 3.4411 -1.42342 0.74803 0
M  V30 22 O 4.6311 -1.41488 1.0162 0
M  V30 23 C 1.7631 -2.70173 2.07893 0
M  V30 24 H 2.9561 -1.04789 2.80997 0
M  V30 25 H 0.5091 -0.51083 1.47717 0
M  V30 26 H 1.2441 -3.02605 1.16622 0
M  V30 27 H 1.0291 -2.64082 2.89833 0
M  V30 28 H 2.5191 -3.45869 2.34017 0
M  V30 29 N 2.9562 -1.48159 -0.537278 0
M  V30 30 C 4.2022 -1.56035 -1.29541 0
M  V30 31 C 4.5352 -0.230377 -1.92829 0
M  V30 32 O 3.8102 0.762952 -1.78911 0
M  V30 33 C 4.0932 -2.69323 -2.39034 0
M  V30 34 C 3.9462 -4.12002 -1.80485 0
M  V30 35 C 5.2652 -2.78408 -3.40847 0
M  V30 36 H 2.3842 -0.567992 -0.469632 0
M  V30 37 H 5.0262 -1.80302 -0.599277 0
M  V30 38 H 3.1762 -2.48763 -2.98412 0
M  V30 39 H 4.8482 -4.43981 -1.25215 0
M  V30 40 H 3.0912 -4.19344 -1.11055 0
M  V30 41 H 3.7622 -4.87077 -2.59731 0
M  V30 42 H 6.2382 -2.97012 -2.91416 0
M  V30 43 H 5.1142 -3.59416 -4.14863 0
M  V30 44 H 5.3752 -1.86269 -4.00944 0
M  V30 45 N 4.4343 0.785586 -1.36625 0
M  V30 46 C 5.3973 1.87999 -1.31107 0
M  V30 47 C 6.3973 1.59316 -0.217959 0
M  V30 48 O 7.5873 1.67656 -0.472977 0
M  V30 49 C 4.7193 3.24861 -1.03334 0
M  V30 50 H 5.9123 1.94307 -2.2844 0
M  V30 51 H 3.4653 0.983813 -1.21453 0
M  V30 52 H 4.2003 3.24235 -0.0647432 0
M  V30 53 H 3.9853 3.4707 -1.82441 0
M  V30 54 H 5.4753 4.04929 -1.02088 0
M  V30 55 N 5.9124 1.20967 1.01018 0
M  V30 56 C 7.1404 1.04956 1.78303 0
M  V30 57 C 7.5554 -0.400915 1.84494 0
M  V30 58 O 6.9124 -1.27826 1.30257 0
M  V30 59 C 6.9634 1.63403 3.22462 0
M  V30 60 O 6.6844 3.02775 3.16637 0
M  V30 61 C 8.1854 1.52432 4.16268 0
M  V30 62 H 5.4054 0.368858 0.560522 0
M  V30 63 H 7.9494 1.60193 1.27116 0
M  V30 64 H 6.1044 1.1227 3.70775 0
M  V30 65 H 6.5184 3.30626 4.07169 0
M  V30 66 H 7.9924 1.98078 5.15237 0
M  V30 67 H 8.4694 0.477875 4.36592 0
M  V30 68 H 9.0754 2.02787 3.73841 0
M  V30 69 N 7.3905 -1.2043 1.01659 0
M  V30 70 C 8.3535 -2.21433 0.591616 0
M  V30 71 C 9.3535 -1.57203 -0.338226 0
M  V30 72 O 10.5435 -1.73737 -0.126918 0
M  V30 73 C 7.6755 -3.40628 -0.136058 0
M  V30 74 H 8.8685 -2.60545 1.48514 0
M  V30 75 H 6.4215 -1.33893 0.806379 0
M  V30 76 H 7.1565 -3.07019 -1.04449 0
M  V30 77 H 6.9415 -3.88475 0.531917 0
M  V30 78 H 8.4315 -4.15475 -0.420735 0
M  V30 79 N 8.8686 -0.792821 -1.36206 0
M  V30 80 C 9.8316 -0.199459 -2.2833 0
M  V30 81 C 10.8316 0.605189 -1.48977 0
M  V30 82 O 12.0216 0.425685 -1.68919 0
M  V30 83 C 9.1536 0.723523 -3.33134 0
M  V30 84 H 10.3466 -1.01181 -2.82316 0
M  V30 85 H 7.8996 -0.562485 -1.45828 0
M  V30 86 H 8.6346 1.56008 -2.84309 0
M  V30 87 H 8.4196 0.148436 -3.91819 0
M  V30 88 H 9.9096 1.13344 -4.01924 0
M  V30 89 N 10.3467 1.47872 -0.545128 0
M  V30 90 C 11.3097 2.28337 0.198717 0
M  V30 91 C 12.3097 1.36255 0.853888 0
M  V30 92 O 13.4997 1.59003 0.711606 0
M  V30 93 C 10.6317 3.15585 1.28915 0
M  V30 94 H 11.8247 2.95567 -0.507941 0
M  V30 95 H 9.3777 1.53362 -0.301616 0
M  V30 96 H 10.1127 2.53019 2.02859 0
M  V30 97 H 9.8977 3.83337 0.824309 0
M  V30 98 H 11.3877 3.76243 1.81194 0
M  V30 99 N 11.8248 0.280983 1.55075 0
M  V30 100 C 13.0708 -0.33461 2.00021 0
M  V30 101 C 13.4038 -1.55063 1.16915 0
M  V30 102 O 12.6788 -1.93006 0.240646 0
M  V30 103 C 12.9618 -0.711007 3.53011 0
M  V30 104 C 12.8148 0.512766 4.46868 0
M  V30 105 C 14.1338 -1.54522 4.12081 0
M  V30 106 H 11.2528 -0.120147 0.727141 0
M  V30 107 H 13.8948 0.389097 1.85973 0
M  V30 108 H 12.0448 -1.32761 3.65112 0
M  V30 109 H 13.7168 1.15131 4.46702 0
M  V30 110 H 11.9598 1.14975 4.18286 0
M  V30 111 H 12.6308 0.205556 5.51617 0
M  V30 112 H 15.1068 -1.02442 4.03293 0
M  V30 113 H 13.9828 -1.77739 5.19327 0
M  V30 114 H 14.2438 -2.52813 3.62682 0
M  V30 115 N 13.3029 -1.57598 0.00835791 0
M  V30 116 C 14.2329 -2.1198 -0.979113 0
M  V30 117 C 15.2139 -1.03091 -1.35301 0
M  V30 118 O 16.3989 -1.30818 -1.43528 0
M  V30 119 C 13.5289 -2.62995 -2.26828 0
M  V30 120 C 12.4829 -3.76485 -2.03576 0
M  V30 121 C 11.8089 -4.13846 -3.38579 0
M  V30 122 C 13.1089 -5.0342 -1.39161 0
M  V30 123 H 14.8029 -2.94738 -0.526281 0
M  V30 124 H 12.3489 -1.41783 -0.251704 0
M  V30 125 H 14.3019 -2.99669 -2.96271 0
M  V30 126 H 13.0259 -1.7737 -2.7424 0
M  V30 127 H 11.6849 -3.40217 -1.36557 0
M  V30 128 H 11.3329 -3.25232 -3.83709 0
M  V30 129 H 11.0329 -4.90312 -3.23834 0
M  V30 130 H 12.5569 -4.53086 -4.09323 0
M  V30 131 H 13.9709 -5.37812 -1.98573 0
M  V30 132 H 12.3679 -5.84746 -1.34878 0
M  V30 133 H 13.4379 -4.83548 -0.361868 0
M  V30 134 N 14.781 0.264519 -1.55364 0
M  V30 135 C 15.744 1.31046 -1.88042 0
M  V30 136 C 16.744 1.41943 -0.755569 0
M  V30 137 O 17.934 1.40947 -1.02369 0
M  V30 138 C 15.066 2.69067 -2.09323 0
M  V30 139 H 16.259 1.03297 -2.81549 0
M  V30 140 H 13.812 0.502989 -1.47986 0
M  V30 141 H 14.547 3.01982 -1.18226 0
M  V30 142 H 14.332 2.62542 -2.91229 0
M  V30 143 H 15.822 3.44623 -2.35848 0
M  V30 144 N 16.2591 1.48442 0.529413 0
M  V30 145 C 17.2221 1.62524 1.61612 0
M  V30 146 C 18.2221 0.498509 1.52877 0
M  V30 147 O 19.4121 0.76431 1.56537 0
M  V30 148 C 16.5441 1.59597 3.01233 0
M  V30 149 H 17.7371 2.59423 1.50465 0
M  V30 150 H 15.2901 1.37047 0.751514 0
M  V30 151 H 16.0251 0.641781 3.17886 0
M  V30 152 H 15.8101 2.41397 3.08982 0
M  V30 153 H 17.3001 1.72646 3.80241 0
M  V30 154 N 17.7372 -0.778329 1.37039 0
M  V30 155 C 18.6672 -1.90546 1.34962 0
M  V30 156 C 19.6482 -1.68681 0.219274 0
M  V30 157 O 20.8332 -1.89634 0.418624 0
M  V30 158 C 17.9632 -3.27734 1.14925 0
M  V30 159 C 16.9172 -3.64147 2.24902 0
M  V30 160 C 16.2432 -4.99806 1.89996 0
M  V30 161 C 17.5432 -3.71579 3.67051 0
M  V30 162 H 19.2372 -1.92541 2.29277 0
M  V30 163 H 16.7832 -0.924948 1.10366 0
M  V30 164 H 18.7362 -4.06215 1.12104 0
M  V30 165 H 17.4602 -3.26154 0.170631 0
M  V30 166 H 16.1192 -2.8797 2.26868 0
M  V30 167 H 15.7672 -4.94759 0.906796 0
M  V30 168 H 15.4672 -5.25139 2.63634 0
M  V30 169 H 16.9912 -5.80694 1.88749 0
M  V30 170 H 18.4052 -4.40227 3.67251 0
M  V30 171 H 16.8022 -4.08405 4.39688 0
M  V30 172 H 17.8722 -2.72404 4.01154 0
M  V30 173 N 19.2153 -1.21501 -1.00376 0
M  V30 174 C 20.4633 -1.03095 -1.73827 0
M  V30 175 C 20.7843 0.436341 -1.90055 0
M  V30 176 O 20.0543 1.31466 -1.45236 0
M  V30 177 H 18.6343 -0.378487 -0.644016 0
M  V30 178 H 21.2963 -1.52831 -1.20949 0
M  V30 179 H 20.3923 -1.49991 -2.73695 0
M  V30 180 N 20.6934 1.19889 -1.02296 0
M  V30 181 C 21.9414 1.89046 -0.714558 0
M  V30 182 C 22.2624 1.79636 0.758681 0
M  V30 183 O 21.5324 1.20292 1.54618 0
M  V30 184 H 20.1124 0.699802 -0.261317 0
M  V30 185 H 22.7744 1.45574 -1.29592 0
M  V30 186 H 21.8704 2.95524 -1.0036 0
M  V30 187 N 22.1715 0.800033 1.35784 0
M  V30 188 C 23.1345 0.211565 2.28221 0
M  V30 189 C 24.1345 -0.59728 1.49296 0
M  V30 190 O 25.3245 -0.416721 1.69142 0
M  V30 191 C 22.4565 -0.705846 3.33513 0
M  V30 192 H 23.6495 1.02677 2.81776 0
M  V30 193 H 21.2025 0.570211 1.45528 0
M  V30 194 H 21.9375 -1.54498 2.85133 0
M  V30 195 H 21.7225 -0.127655 3.91892 0
M  V30 196 H 23.2125 -1.11211 4.02519 0
M  V30 197 N 23.6496 -1.47581 0.552962 0
M  V30 198 C 24.5796 -2.32762 -0.185451 0
M  V30 199 C 25.5606 -1.43527 -0.912905 0
M  V30 200 O 26.7456 -1.72388 -0.894201 0
M  V30 201 C 23.8756 -3.25219 -1.21859 0
M  V30 202 C 22.8296 -4.23661 -0.607864 0
M  V30 203 C 22.1556 -5.05413 -1.74533 0
M  V30 204 C 23.4556 -5.20481 0.435582 0
M  V30 205 H 25.1496 -2.94749 0.525684 0
M  V30 206 H 22.6956 -1.41738 0.254251 0
M  V30 207 H 24.6486 -3.8365 -1.7433 0
M  V30 208 H 23.3726 -2.61279 -1.95961 0
M  V30 209 H 22.0316 -3.66451 -0.104489 0
M  V30 210 H 21.6796 -4.3788 -2.47529 0
M  V30 211 H 21.3796 -5.72059 -1.34249 0
M  V30 212 H 22.9036 -5.66701 -2.27338 0
M  V30 213 H 24.3176 -5.733 -0.00290157 0
M  V30 214 H 22.7146 -5.95305 0.757067 0
M  V30 215 H 23.7846 -4.66217 1.33303 0
M  V30 216 N 25.1277 -0.289203 -1.54924 0
M  V30 217 C 26.3737 0.316922 -2.00916 0
M  V30 218 C 26.7287 1.52424 -1.17408 0
M  V30 219 O 26.0217 1.90097 -0.239536 0
M  V30 220 C 26.2157 0.736119 -3.49737 0
M  V30 221 C 26.0447 -0.429036 -4.47649 0
M  V30 222 C 24.8147 -0.917311 -4.96904 0
M  V30 223 C 27.0127 -1.27016 -4.98369 0
M  V30 224 N 24.9947 -2.05046 -5.78644 0
M  V30 225 C 26.3657 -2.25097 -5.77695 0
M  V30 226 C 28.4207 -1.30188 -4.80578 0
M  V30 227 C 27.1237 -3.26114 -6.41126 0
M  V30 228 C 29.1497 -2.30057 -5.44819 0
M  V30 229 C 28.5117 -3.2687 -6.23968 0
M  V30 230 H 24.6107 0.0807535 -0.777819 0
M  V30 231 H 27.1947 -0.416434 -1.90194 0
M  V30 232 H 25.3657 1.43867 -3.60773 0
M  V30 233 H 27.0977 1.32078 -3.82541 0
M  V30 234 H 23.8527 -0.494248 -4.71014 0
M  V30 235 H 24.2767 -2.62108 -6.24202 0
M  V30 236 H 28.9187 -0.567163 -4.18979 0
M  V30 237 H 26.6367 -4.00512 -7.01866 0
M  V30 238 H 30.2227 -2.33271 -5.32988 0
M  V30 239 H 29.1027 -4.02883 -6.72796 0
M  V30 240 N 26.6058 1.57591 -0.0167156 0
M  V30 241 C 27.5358 2.12496 0.967858 0
M  V30 242 C 28.5168 1.03807 1.34752 0
M  V30 243 O 29.7018 1.31577 1.42833 0
M  V30 244 C 26.8318 2.64194 2.25431 0
M  V30 245 C 25.7858 3.77559 2.01576 0
M  V30 246 C 25.1118 4.15636 3.36379 0
M  V30 247 C 26.4118 5.04151 1.36489 0
M  V30 248 H 28.1058 2.95013 0.510643 0
M  V30 249 H 25.6518 1.41915 0.244181 0
M  V30 250 H 27.6048 3.01236 2.94678 0
M  V30 251 H 26.3288 1.78821 2.73296 0
M  V30 252 H 24.9878 3.40937 1.34751 0
M  V30 253 H 24.6358 3.27263 3.81979 0
M  V30 254 H 24.3358 4.92022 3.21229 0
M  V30 255 H 25.8598 4.5525 4.06915 0
M  V30 256 H 27.2738 5.38857 1.95718 0
M  V30 257 H 25.6708 5.85453 1.31776 0
M  V30 258 H 26.7408 4.83733 0.336219 0
M  V30 259 N 28.0839 -0.256276 1.55502 0
M  V30 260 C 29.0469 -1.30047 1.88734 0
M  V30 261 C 30.0469 -1.4154 0.763086 0
M  V30 262 O 31.2369 -1.40403 1.03115 0
M  V30 263 C 28.3689 -2.67953 2.10747 0
M  V30 264 H 29.5619 -1.01802 2.82093 0
M  V30 265 H 27.1149 -0.495134 1.4825 0
M  V30 266 H 27.8499 -3.01351 1.19825 0
M  V30 267 H 27.6349 -2.60993 2.92617 0
M  V30 268 H 29.1249 -3.43368 2.37673 0
M  V30 269 N 29.562 -1.4872 -0.521534 0
M  V30 270 C 30.525 -1.63379 -1.60748 0
M  V30 271 C 31.525 -0.50661 -1.52611 0
M  V30 272 O 32.715 -0.772601 -1.5613 0
M  V30 273 C 29.847 -1.61192 -3.00383 0
M  V30 274 H 31.04 -2.60217 -1.49087 0
M  V30 275 H 28.593 -1.37444 -0.744235 0
M  V30 276 H 29.328 -0.65863 -3.17541 0
M  V30 277 H 29.113 -2.43032 -3.07698 0
M  V30 278 H 30.603 -1.7466 -3.7932 0
M  V30 279 N 31.0401 0.771051 -1.3745 0
M  V30 280 C 32.4561 1.07171 -1.18265 0
M  V30 281 C 32.6561 2.01491 -0.019287 0
M  V30 282 O 31.7121 2.44244 0.640408 0
M  V30 283 C 33.0251 1.66854 -2.50161 0
M  V30 284 C 34.5731 1.79109 -2.56689 0
M  V30 285 C 35.0481 2.42205 -3.88717 0
M  V30 286 N 36.5391 2.49655 -3.90162 0
M  V30 287 C 37.2741 2.9933 -4.8907 0
M  V30 288 N 36.7701 3.49172 -5.98374 0
M  V30 289 N 38.5631 2.9821 -4.76474 0
M  V30 290 H 30.7141 0.144796 -2.11906 0
M  V30 291 H 32.9771 0.126863 -0.939473 0
M  V30 292 H 32.6831 1.05017 -3.35655 0
M  V30 293 H 32.5571 2.6614 -2.673 0
M  V30 294 H 34.9441 2.40077 -1.71601 0
M  V30 295 H 35.0251 0.785757 -2.43433 0
M  V30 296 H 34.6691 1.81875 -4.74219 0
M  V30 297 H 34.5991 3.43345 -3.99276 0
M  V30 298 H 37.0901 2.14383 -3.11205 0
M  V30 299 H 37.4031 3.8548 -6.69795 0
M  V30 300 H 35.7481 3.47275 -6.02018 0
M  V30 301 H 38.9391 2.58572 -3.90203 0
M  V30 302 H 39.1121 3.36613 -5.53711 0
M  V30 303 N 32.5182 1.22032 0.997298 0
M  V30 304 C 33.9342 0.979326 1.26021 0
M  V30 305 C 34.1342 -0.32972 1.98784 0
M  V30 306 O 33.1902 -1.05345 2.29475 0
M  V30 307 C 34.5032 2.17509 2.07631 0
M  V30 308 C 36.0512 2.21817 2.2083 0
M  V30 309 C 36.5262 3.40933 3.05825 0
M  V30 310 N 38.0172 3.41067 3.13412 0
M  V30 311 C 38.7522 4.29885 3.79455 0
M  V30 312 N 38.2482 5.28914 4.47462 0
M  V30 313 N 40.0412 4.17673 3.76173 0
M  V30 314 H 32.1922 2.06202 0.509352 0
M  V30 315 H 34.4552 0.90334 0.287541 0
M  V30 316 H 34.1612 3.12415 1.61524 0
M  V30 317 H 34.0352 2.17206 3.08385 0
M  V30 318 H 36.4222 1.27462 2.66153 0
M  V30 319 H 36.5032 2.2616 1.1952 0
M  V30 320 H 36.1472 4.35586 2.61203 0
M  V30 321 H 36.0772 3.33829 4.07266 0
M  V30 322 H 38.5682 2.69406 2.65007 0
M  V30 323 H 38.8812 5.92973 4.95583 0
M  V30 324 H 37.2262 5.32831 4.46224 0
M  V30 325 H 40.4172 3.39564 3.22202 0
M  V30 326 H 40.5902 4.87098 4.27363 0
M  V30 327 N 33.9963 -1.19345 1.0293 0
M  V30 328 C 35.2433 -1.89038 0.726008 0
M  V30 329 C 35.5713 -1.79649 -0.745427 0
M  V30 330 O 34.8263 -1.18354 -1.55855 0
M  V30 331 C 35.1253 -3.39292 1.12319 0
M  V30 332 C 34.7913 -3.68885 2.59297 0
M  V30 333 C 33.4533 -3.76671 2.99453 0
M  V30 334 C 35.8053 -3.82178 3.54386 0
M  V30 335 C 33.1333 -3.9522 4.33611 0
M  V30 336 C 35.4853 -4.0224 4.88248 0
M  V30 337 C 34.1493 -4.08259 5.28092 0
M  V30 338 H 33.4193 -0.691739 0.265665 0
M  V30 339 H 36.0663 -1.41328 1.29223 0
M  V30 340 H 34.3713 -3.88903 0.475584 0
M  V30 341 H 36.0683 -3.91536 0.866037 0
M  V30 342 H 32.6583 -3.63433 2.27189 0
M  V30 343 H 36.8423 -3.75505 3.24514 0
M  V30 344 H 32.0983 -3.98119 4.64016 0
M  V30 345 H 36.2723 -4.11468 5.61843 0
M  V30 346 H 33.8993 -4.22384 6.32057 0
M  V30 347 N 35.4744 -0.807222 -1.35358 0
M  V30 348 C 36.7204 -0.388463 -1.99045 0
M  V30 349 C 37.0534 1.04184 -1.63888 0
M  V30 350 O 36.3284 1.72292 -0.902535 0
M  V30 351 C 36.6114 -0.572783 -3.55515 0
M  V30 352 C 36.4644 -2.04807 -4.00468 0
M  V30 353 C 37.7834 0.00114064 -4.401 0
M  V30 354 H 34.9024 -0.142619 -0.723069 0
M  V30 355 H 37.5444 -1.01687 -1.60498 0
M  V30 356 H 35.6944 -0.0378425 -3.88482 0
M  V30 357 H 37.3664 -2.64544 -3.77908 0
M  V30 358 H 35.6094 -2.54427 -3.51353 0
M  V30 359 H 36.2804 -2.12792 -5.09337 0
M  V30 360 H 38.7564 -0.455716 -4.13597 0
M  V30 361 H 37.6324 -0.157737 -5.48673 0
M  V30 362 H 37.8934 1.09488 -4.28328 0
M  V30 363 N 36.9525 1.47285 -0.560781 0
M  V30 364 C 38.2005 2.02064 -0.0379868 0
M  V30 365 C 38.5215 1.43711 1.31803 0
M  V30 366 O 37.7915 0.61362 1.86042 0
M  V30 367 H 36.3715 0.746918 -0.0110531 0
M  V30 368 H 39.0335 1.80648 -0.731598 0
M  V30 369 H 38.1295 3.12064 0.0474463 0
M  V30 370 N 38.4306 0.297415 1.54768 0
M  V30 371 C 39.8416 -0.195947 1.85669 0
M  V30 372 C 40.1926 -1.53707 1.21937 0
M  V30 373 O 39.3176 -2.10164 0.515754 0
M  V30 374 C 39.9126 -0.362318 3.36857 0
M  V30 375 C 38.4716 -0.799901 3.67802 0
M  V30 376 C 37.6186 0.0938578 2.77141 0
M  V30 377 H 40.5696 0.518538 1.4999 0
M  V30 378 H 40.5906 -1.19745 3.61167 0
M  V30 379 H 40.1026 0.613921 3.83214 0
M  V30 380 H 38.2036 -1.78682 3.26961 0
M  V30 381 H 38.3166 -0.621773 4.75048 0
M  V30 382 H 36.6806 -0.426254 2.51108 0
M  V30 383 H 37.4636 1.06639 3.26318 0
M  V30 384 N 39.9087 -1.5758 0.0250728 0
M  V30 385 C 41.3247 -1.56124 -0.331282 0
M  V30 386 C 41.5247 -1.03029 -1.73169 0
M  V30 387 O 40.5807 -0.675215 -2.43305 0
M  V30 388 C 41.8937 -3.00139 -0.183584 0
M  V30 389 C 43.4417 -3.11946 -0.256654 0
M  V30 390 C 43.9167 -4.57793 -0.137792 0
M  V30 391 N 45.4077 -4.6279 -0.194904 0
M  V30 392 C 46.1427 -5.7326 -0.126655 0
M  V30 393 N 45.6387 -6.928 -0.00755288 0
M  V30 394 N 47.4317 -5.61811 -0.180348 0
M  V30 395 H 39.5827 -1.90424 0.94087 0
M  V30 396 H 41.8457 -0.875761 0.362968 0
M  V30 397 H 41.5517 -3.4292 0.780927 0
M  V30 398 H 41.4257 -3.64899 -0.955448 0
M  V30 399 H 43.8127 -2.69079 -1.21162 0
M  V30 400 H 43.8937 -2.49915 0.545517 0
M  V30 401 H 43.5377 -5.01339 0.813739 0
M  V30 402 H 43.4677 -5.17798 -0.958775 0
M  V30 403 H 45.9587 -3.76807 -0.287267 0
M  V30 404 H 46.2717 -7.72791 0.0379428 0
M  V30 405 H 44.6167 -6.94995 0.0271731 0
M  V30 406 H 47.8077 -4.6731 -0.271767 0
M  V30 407 H 47.9807 -6.47882 -0.123697 0
M  V30 408 N 41.3868 0.248026 -1.55636 0
M  V30 409 C 42.6328 0.97767 -1.77678 0
M  V30 410 C 42.9658 1.85016 -0.590135 0
M  V30 411 O 42.2408 1.90095 0.411611 0
M  V30 412 C 42.5238 1.83914 -3.09593 0
M  V30 413 C 42.3768 0.99491 -4.38659 0
M  V30 414 C 43.6958 2.82183 -3.37729 0
M  V30 415 H 40.8148 0.354005 -0.646413 0
M  V30 416 H 43.4568 0.248253 -1.88371 0
M  V30 417 H 41.6068 2.46104 -3.00608 0
M  V30 418 H 43.2788 0.391789 -4.59633 0
M  V30 419 H 41.5218 0.299231 -4.32767 0
M  V30 420 H 42.1928 1.63145 -5.2734 0
M  V30 421 H 44.6688 2.30129 -3.4667 0
M  V30 422 H 43.5448 3.39582 -4.31249 0
M  V30 423 H 43.8058 3.58588 -2.58586 0
M  V30 424 N 42.8649 1.48995 0.513639 0
M  V30 425 C 43.7969 1.60836 1.63293 0
M  V30 426 C 44.8099 0.491701 1.55197 0
M  V30 427 O 45.9989 0.763238 1.6136 0
M  V30 428 C 43.0989 1.53731 3.02027 0
M  V30 429 C 42.2719 2.80715 3.35437 0
M  V30 430 C 41.3309 2.66837 4.53525 0
M  V30 431 O 40.3569 3.40753 4.55934 0
M  V30 432 N 41.5589 1.77539 5.52684 0
M  V30 433 H 44.3239 2.57366 1.53566 0
M  V30 434 H 41.8849 1.45925 0.701259 0
M  V30 435 H 43.8769 1.42118 3.78926 0
M  V30 436 H 42.4469 0.651092 3.05744 0
M  V30 437 H 41.6669 3.06772 2.47557 0
M  V30 438 H 42.9549 3.64927 3.54551 0
M  V30 439 H 42.3529 1.16719 5.53528 0
M  V30 440 H 40.9099 1.71856 6.28736 0
M  V30 441 N 44.343 -0.763751 1.37857 0
M  V30 442 C 45.759 -1.06542 1.18832 0
M  V30 443 C 45.959 -2.01478 0.0299722 0
M  V30 444 O 45.015 -2.4458 -0.627447 0
M  V30 445 C 46.328 -1.65525 2.51042 0
M  V30 446 C 47.876 -1.77745 2.57635 0
M  V30 447 C 48.351 -2.4014 3.89996 0
M  V30 448 N 49.842 -2.47582 3.91481 0
M  V30 449 C 50.577 -2.96732 4.9065 0
M  V30 450 N 50.073 -3.45993 6.00217 0
M  V30 451 N 51.866 -2.95679 4.78048 0
M  V30 452 H 44.017 -0.133556 2.1198 0
M  V30 453 H 46.28 -0.121879 0.940133 0
M  V30 454 H 45.986 -1.03236 3.36207 0
M  V30 455 H 45.86 -2.64719 2.68707 0
M  V30 456 H 48.247 -2.39164 1.72872 0
M  V30 457 H 48.328 -0.772836 2.43846 0
M  V30 458 H 47.972 -1.79358 4.75177 0
M  V30 459 H 47.902 -3.41223 4.01092 0
M  V30 460 H 50.393 -2.1273 3.12337 0
M  V30 461 H 50.706 -3.81922 6.7183 0
M  V30 462 H 49.051 -3.44077 6.03851 0
M  V30 463 H 52.242 -2.56499 3.91568 0
M  V30 464 H 52.415 -3.33672 5.55488 0
M  V30 465 N 45.8211 -1.22559 -0.990812 0
M  V30 466 C 46.7511 -1.0218 -2.09956 0
M  V30 467 C 47.7321 0.0579394 -1.70001 0
M  V30 468 O 48.9171 -0.104684 -1.93918 0
M  V30 469 C 46.0471 -0.601023 -3.4206 0
M  V30 470 C 45.0011 -1.62694 -3.95872 0
M  V30 471 C 44.3271 -1.06193 -5.24049 0
M  V30 472 C 45.6271 -3.01743 -4.2632 0
M  V30 473 H 47.3211 -1.94916 -2.27262 0
M  V30 474 H 44.8671 -0.938566 -1.09211 0
M  V30 475 H 46.8201 -0.445561 -4.19038 0
M  V30 476 H 45.5441 0.362005 -3.24588 0
M  V30 477 H 44.2031 -1.77021 -3.21028 0
M  V30 478 H 43.8511 -0.0901903 -5.02919 0
M  V30 479 H 43.5511 -1.74732 -5.61019 0
M  V30 480 H 45.0751 -0.918092 -6.03658 0
M  V30 481 H 46.4891 -2.90777 -4.94087 0
M  V30 482 H 44.8861 -3.67425 -4.74467 0
M  V30 483 H 45.9561 -3.51518 -3.34011 0
M  V30 484 N 47.2992 1.18797 -1.03562 0
M  V30 485 C 48.7152 1.40671 -0.753917 0
M  V30 486 C 48.9152 1.9043 0.658686 0
M  V30 487 O 47.9712 2.08538 1.42366 0
M  V30 488 C 49.2842 2.41192 -1.79574 0
M  V30 489 C 50.8322 2.54928 -1.81606 0
M  V30 490 C 51.3072 3.58709 -2.84766 0
M  V30 491 N 52.7982 3.66212 -2.83625 0
M  V30 492 C 53.5332 4.46225 -3.60098 0
M  V30 493 N 53.0292 5.29888 -4.46308 0
M  V30 494 N 54.8222 4.40939 -3.4861 0
M  V30 495 H 46.9732 0.848221 -1.94728 0
M  V30 496 H 49.2362 0.435081 -0.842264 0
M  V30 497 H 48.9422 2.11669 -2.80872 0
M  V30 498 H 48.8162 3.40467 -1.62365 0
M  V30 499 H 51.2032 2.83771 -0.809817 0
M  V30 500 H 51.2842 1.55784 -2.02891 0
M  V30 501 H 50.9282 3.30607 -3.85566 0
M  V30 502 H 50.8582 4.57519 -2.60737 0
M  V30 503 H 53.3492 3.06466 -2.21105 0
M  V30 504 H 53.6622 5.88078 -5.01382 0
M  V30 505 H 52.0072 5.29326 -4.50377 0
M  V30 506 H 55.1982 3.74624 -2.80668 0
M  V30 507 H 55.3712 5.03056 -4.08459 0
M  V30 508 N 48.7773 0.814389 1.34928 0
M  V30 509 C 50.1933 0.499084 1.51596 0
M  V30 510 C 50.3933 -0.978319 1.76157 0
M  V30 511 O 49.4493 -1.76309 1.80752 0
M  V30 512 C 50.7623 1.35121 2.68631 0
M  V30 513 C 52.3103 1.34746 2.82511 0
M  V30 514 C 52.7853 2.18388 4.0258 0
M  V30 515 N 54.2763 2.15966 4.09772 0
M  V30 516 C 55.0113 2.77437 5.01813 0
M  V30 517 N 54.5073 3.47866 5.99134 0
M  V30 518 N 56.3003 2.67037 4.94619 0
M  V30 519 H 48.4513 1.7711 1.17243 0
M  V30 520 H 50.7143 0.754256 0.574284 0
M  V30 521 H 50.4203 2.40001 2.57085 0
M  V30 522 H 50.2943 1.00991 3.63429 0
M  V30 523 H 52.6813 0.30648 2.93504 0
M  V30 524 H 52.7623 1.72869 1.88547 0
M  V30 525 H 52.4063 3.2253 3.92347 0
M  V30 526 H 52.3363 1.77621 4.9574 0
M  V30 527 H 54.8273 1.64729 3.40107 0
M  V30 528 H 55.1403 3.92038 6.65977 0
M  V30 529 H 53.4853 3.51972 5.99284 0
M  V30 530 H 56.6763 2.11597 4.17546 0
M  V30 531 H 56.8493 3.15232 5.66156 0
M  V30 532 N 50.2554 -1.46986 0.568584 0
M  V30 533 C 51.5034 -2.02041 0.0487022 0
M  V30 534 C 51.8244 -1.44408 -1.31039 0
M  V30 535 O 51.0944 -0.623477 -1.85714 0
M  V30 536 H 49.6744 -0.746849 0.015014 0
M  V30 537 H 52.3364 -1.80257 0.741168 0
M  V30 538 H 51.4324 -3.12085 -0.0308961 0
M  V30 539 N 51.7335 -0.305618 -1.54608 0
M  V30 540 C 52.9815 0.301701 -1.99835 0
M  V30 541 C 53.3025 1.54054 -1.19551 0
M  V30 542 O 52.5725 1.93702 -0.292658 0
M  V30 543 H 51.1525 0.114468 -0.738178 0
M  V30 544 H 53.8145 -0.418016 -1.90364 0
M  V30 545 H 52.9105 0.570548 -3.06841 0
M  V30 546 N 53.2116 1.57565 -0.0334293 0
M  V30 547 C 54.4886 1.83282 0.683163 0
M  V30 548 C 54.8686 0.91823 1.90084 0
M  V30 549 O 54.2166 -0.025113 2.28486 0
M  V30 550 C 54.4266 3.32599 1.0573 0
M  V30 551 C 55.7746 3.99179 1.44711 0
M  V30 552 O 56.7986 3.3712 1.15015 0
M  V30 553 O 55.6576 5.08565 2.0006 0
M  V30 554 H 52.7516 0.755869 0.335546 0
M  V30 555 H 55.2976 1.69589 -0.0614402 0
M  V30 556 H 54.0696 3.90834 0.190828 0
M  V30 557 H 53.6926 3.51415 1.85993 0
M  V30 558 N 54.6897 -0.239769 1.55765 0
M  V30 559 C 56.1007 -0.808263 1.68297 0
M  V30 560 C 56.4517 -1.85736 0.632181 0
M  V30 561 O 55.5767 -2.15277 -0.220204 0
M  V30 562 C 56.1717 -1.47284 3.05111 0
M  V30 563 C 54.7307 -1.98895 3.19559 0
M  V30 564 C 53.8777 -0.842575 2.64189 0
M  V30 565 H 56.8287 -0.0154422 1.58692 0
M  V30 566 H 56.8497 -2.34111 2.99954 0
M  V30 567 H 56.3617 -0.709053 3.81568 0
M  V30 568 H 54.4627 -2.78132 2.47938 0
M  V30 569 H 54.5757 -2.18143 4.26556 0
M  V30 570 H 52.9397 -1.24501 2.22197 0
M  V30 571 H 53.7227 -0.0917552 3.43177 0
M  V30 572 N 56.1678 -1.49265 -0.50573 0
M  V30 573 C 57.4158 -1.582 -1.25766 0
M  V30 574 C 57.7368 -0.268482 -1.93143 0
M  V30 575 O 57.0068 0.711833 -1.8251 0
M  V30 576 H 55.5868 -0.582873 -0.467191 0
M  V30 577 H 58.2488 -1.85865 -0.586525 0
M  V30 578 H 57.3448 -2.37563 -2.02412 0
M  V30 579 N 57.6459 0.756429 -1.3826 0
M  V30 580 C 58.5759 1.88374 -1.37976 0
M  V30 581 C 59.5569 1.68311 -0.246082 0
M  V30 582 O 60.7419 1.88944 -0.44874 0
M  V30 583 C 57.8719 3.25864 -1.20125 0
M  V30 584 C 56.8259 3.60523 -2.30666 0
M  V30 585 C 56.1519 4.9672 -1.97923 0
M  V30 586 C 57.4519 3.65692 -3.72916 0
M  V30 587 H 59.1459 1.88869 -2.32312 0
M  V30 588 H 56.6919 0.907272 -1.11824 0
M  V30 589 H 58.6449 4.0438 -1.18552 0
M  V30 590 H 57.3689 3.25841 -0.222498 0
M  V30 591 H 56.0279 2.84324 -2.3142 0
M  V30 592 H 55.6759 4.93253 -0.985393 0
M  V30 593 H 55.3759 5.20878 -2.71955 0
M  V30 594 H 56.8999 5.77618 -1.97964 0
M  V30 595 H 58.3139 4.34328 -3.74208 0
M  V30 596 H 56.7109 4.01358 -4.4613 0
M  V30 597 H 57.7809 2.65987 -4.05436 0
M  V30 598 N 59.124 1.23083 0.984299 0
M  V30 599 C 60.057 0.951786 2.07404 0
M  V30 600 C 61.035 -0.10848 1.62238 0
M  V30 601 O 62.219 0.0249467 1.88483 0
M  V30 602 C 59.346 0.433142 3.35919 0
M  V30 603 C 58.392 1.47941 4.0002 0
M  V30 604 S 59.225 3.05556 4.39768 0
M  V30 605 C 60.381 2.55351 5.71442 0
M  V30 606 H 60.614 1.87456 2.30754 0
M  V30 607 H 58.147 1.06284 1.11996 0
M  V30 608 H 60.105 0.140506 4.10259 0
M  V30 609 H 58.766 -0.468656 3.10584 0
M  V30 610 H 57.959 1.06658 4.92585 0
M  V30 611 H 57.561 1.7212 3.3204 0
M  V30 612 H 59.853 1.97128 6.48187 0
M  V30 613 H 60.796 3.46441 6.17563 0
M  V30 614 H 61.204 1.96339 5.29255 0
M  V30 615 N 60.6021 -1.18246 1.0419 0
M  V30 616 C 61.5521 -2.19843 0.604392 0
M  V30 617 C 62.5361 -1.56962 -0.353814 0
M  V30 618 O 63.7281 -1.76156 -0.17267 0
M  V30 619 C 60.8571 -3.43287 -0.0298975 0
M  V30 620 C 59.9431 -4.13288 0.951531 0
M  V30 621 N 60.3341 -4.59271 2.11906 0
M  V30 622 C 58.6321 -4.39165 0.7778 0
M  V30 623 C 59.3331 -5.13173 2.73912 0
M  V30 624 N 58.3091 -5.04763 2.01779 0
M  V30 625 H 62.1111 -2.53089 1.4941 0
M  V30 626 H 59.6251 -1.34465 0.910658 0
M  V30 627 H 61.6221 -4.15334 -0.361037 0
M  V30 628 H 60.2821 -3.11537 -0.915127 0
M  V30 629 H 61.2931 -4.5368 2.49789 0
M  V30 630 H 57.9701 -4.17461 -0.0572331 0
M  V30 631 H 59.3601 -5.58947 3.72864 0
M  V30 632 N 62.0802 -0.821533 -1.34494 0
M  V30 633 C 63.3282 -0.408139 -1.97936 0
M  V30 634 C 63.6492 1.03193 -1.65457 0
M  V30 635 O 62.9192 1.71622 -0.944595 0
M  V30 636 H 61.4992 -0.147928 -0.732206 0
M  V30 637 H 64.1612 -1.05067 -1.64155 0
M  V30 638 H 63.2572 -0.52601 -3.07635 0
M  V30 639 N 63.5583 1.46682 -0.576371 0
M  V30 640 C 64.5053 2.30241 0.160499 0
M  V30 641 C 65.4753 1.40233 0.890162 0
M  V30 642 O 66.6603 1.69186 0.882084 0
M  V30 643 C 63.8003 3.24578 1.1723 0
M  V30 644 C 62.9133 4.29684 0.446736 0
M  V30 645 C 62.0483 5.11154 1.44551 0
M  V30 646 C 61.0873 6.08015 0.70599 0
M  V30 647 N 60.2243 6.82376 1.65251 0
M  V30 648 H 65.0643 2.92727 -0.558127 0
M  V30 649 H 62.6013 1.44272 -0.287056 0
M  V30 650 H 64.5593 3.77711 1.77172 0
M  V30 651 H 63.1893 2.63916 1.85872 0
M  V30 652 H 62.2413 3.79458 -0.267594 0
M  V30 653 H 63.5533 4.98626 -0.131686 0
M  V30 654 H 62.7073 5.68533 2.11791 0
M  V30 655 H 61.4463 4.42158 2.05786 0
M  V30 656 H 60.4513 5.49796 0.0197725 0
M  V30 657 H 61.6763 6.79028 0.09912 0
M  V30 658 H 59.6223 6.16094 2.25308 0
M  V30 659 H 59.5393 7.47556 1.12673 0
M  V30 660 H 60.8073 7.44316 2.31546 0
M  V30 661 N 65.0364 0.313813 1.54444 0
M  V30 662 C 66.2644 -0.293918 2.04802 0
M  V30 663 C 66.6794 -1.46537 1.19047 0
M  V30 664 O 66.0364 -1.81182 0.218939 0
M  V30 665 C 66.0874 -0.737806 3.53891 0
M  V30 666 O 65.8084 0.387038 4.36387 0
M  V30 667 C 67.3094 -1.40936 4.203 0
M  V30 668 H 64.5294 -0.0620057 0.668129 0
M  V30 669 H 67.0734 0.457169 1.99324 0
M  V30 670 H 65.2284 -1.43889 3.59687 0
M  V30 671 H 65.6424 0.0391274 5.24485 0
M  V30 672 H 67.1164 -1.67099 5.26101 0
M  V30 673 H 67.5934 -2.35355 3.70816 0
M  V30 674 H 68.1994 -0.751117 4.18615 0
M  V30 675 N 66.5145 -1.57545 0.0417849 0
M  V30 676 C 67.7605 -1.92601 -0.635021 0
M  V30 677 C 68.0935 -0.919627 -1.71045 0
M  V30 678 O 67.3685 0.0557892 -1.9442 0
M  V30 679 C 67.6515 -3.38085 -1.23979 0
M  V30 680 C 67.5045 -4.49467 -0.173057 0
M  V30 681 C 68.8235 -3.83776 -2.15416 0
M  V30 682 H 65.9425 -0.700397 -0.229374 0
M  V30 683 H 68.5845 -1.89728 0.101633 0
M  V30 684 H 66.7345 -3.40664 -1.86762 0
M  V30 685 H 68.4065 -4.59018 0.458312 0
M  V30 686 H 66.6495 -4.30909 0.499996 0
M  V30 687 H 67.3205 -5.48323 -0.636054 0
M  V30 688 H 69.7965 -3.83013 -1.62605 0
M  V30 689 H 68.6725 -4.8624 -2.54679 0
M  V30 690 H 68.9335 -3.19998 -3.05047 0
M  V30 691 N 67.9926 0.231505 -1.5589 0
M  V30 692 C 68.9226 1.29022 -1.94617 0
M  V30 693 C 69.9036 1.4941 -0.813067 0
M  V30 694 O 71.0886 1.6176 -1.07459 0
M  V30 695 C 68.2186 2.64199 -2.25424 0
M  V30 696 C 67.1726 2.58484 -3.41131 0
M  V30 697 C 66.4986 3.97599 -3.57518 0
M  V30 698 C 67.7986 2.1413 -4.76388 0
M  V30 699 H 69.4926 0.968563 -2.83301 0
M  V30 700 H 67.0386 0.464479 -1.36303 0
M  V30 701 H 68.9916 3.38413 -2.51107 0
M  V30 702 H 67.7156 2.98032 -1.33583 0
M  V30 703 H 66.3746 1.86727 -3.15481 0
M  V30 704 H 66.0226 4.28723 -2.6307 0
M  V30 705 H 65.7226 3.94659 -4.35337 0
M  V30 706 H 67.2466 4.7349 -3.85538 0
M  V30 707 H 68.6606 2.78083 -5.01341 0
M  V30 708 H 67.0576 2.2227 -5.57419 0
M  V30 709 H 68.1276 1.09331 -4.72414 0
M  V30 710 N 69.4707 1.49531 0.497807 0
M  V30 711 C 70.7197 1.58426 1.24837 0
M  V30 712 C 71.0327 0.277643 1.93619 0
M  V30 713 O 72.2387 0.24517 2.70391 0
M  V30 714 C 70.6947 2.79538 2.26686 0
M  V30 715 C 70.3027 4.16971 1.63828 0
M  V30 716 C 72.0467 2.97764 3.0255 0
M  V30 717 C 69.9537 5.29301 2.63807 0
M  V30 718 H 68.8837 0.58989 0.469623 0
M  V30 719 H 71.5347 1.75923 0.521857 0
M  V30 720 H 69.9167 2.55542 3.02514 0
M  V30 721 H 71.0907 4.51116 0.939711 0
M  V30 722 H 69.4057 4.04129 1.00342 0
M  V30 723 H 72.0027 3.78856 3.77323 0
M  V30 724 H 72.3457 2.08448 3.60354 0
M  V30 725 H 72.8787 3.21815 2.33838 0
M  V30 726 H 69.6177 6.20687 2.10779 0
M  V30 727 H 69.1377 4.99606 3.31894 0
M  V30 728 H 70.8167 5.58768 3.2617 0
M  V30 729 N 70.9488 -0.749086 1.3866 0
M  V30 730 C 72.1768 -1.53834 1.38358 0
M  V30 731 C 72.5918 -1.88783 -0.0255219 0
M  V30 732 O 71.9488 -1.53101 -0.993292 0
M  V30 733 C 71.9998 -2.83468 2.2434 0
M  V30 734 O 71.7208 -2.50008 3.5976 0
M  V30 735 C 73.2218 -3.7758 2.32267 0
M  V30 736 H 70.4418 -0.47585 0.473083 0
M  V30 737 H 72.9858 -0.926726 1.82297 0
M  V30 738 H 71.1408 -3.40995 1.83851 0
M  V30 739 H 71.5548 -3.33182 4.05081 0
M  V30 740 H 73.0288 -4.65478 2.96706 0
M  V30 741 H 73.5058 -4.18334 1.33765 0
M  V30 742 H 74.1118 -3.25976 2.73166 0
M  V30 743 N 72.4269 -1.23603 -0.977757 0
M  V30 744 C 73.6749 -1.06759 -1.71601 0
M  V30 745 C 73.9959 0.395929 -1.90938 0
M  V30 746 O 73.2659 1.28356 -1.47992 0
M  V30 747 H 71.8459 -0.392062 -0.635843 0
M  V30 748 H 74.5079 -1.55362 -1.1768 0
M  V30 749 H 73.6039 -1.55763 -2.70452 0
M  V30 750 N 73.905 1.17692 -1.04816 0
M  V30 751 C 74.868 2.19787 -0.650117 0
M  V30 752 C 75.868 1.58044 0.296427 0
M  V30 753 O 77.058 1.74012 0.0808097 0
M  V30 754 C 74.19 3.40869 0.0456987 0
M  V30 755 H 75.383 2.56516 -1.5537 0
M  V30 756 H 72.936 1.31708 -0.841594 0
M  V30 757 H 73.671 3.09681 0.962726 0
M  V30 758 H 73.456 3.86928 -0.634727 0
M  V30 759 H 74.946 4.16445 0.310432 0
M  V30 760 N 75.3831 0.828654 1.34056 0
M  V30 761 C 76.3311 0.242973 2.31327 0
M  V30 762 C 77.3251 -0.61944 1.57668 0
M  V30 763 O 78.5311 -0.51014 1.7262 0
M  V30 764 H 74.9061 0.059834 0.749616 0
M  V30 765 H 76.8771 1.07809 2.78244 0
M  V30 766 C 75.6261 -0.575733 3.429 0
M  V30 767 H 74.9491 0.0785582 3.99723 0
M  V30 768 H 76.3891 -0.951547 4.13185 0
M  V30 769 C 74.8481 -1.75044 2.87856 0
M  V30 770 O 75.3781 -2.84882 2.83205 0
M  V30 771 N 73.5841 -1.56903 2.44602 0
M  V30 772 H 73.1311 -0.675547 2.48584 0
M  V30 773 H 73.0891 -2.35652 2.08124 0
M  V30 774 N 76.8612 -1.46375 0.584142 0
M  V30 775 C 78.0862 -2.07268 0.0740405 0
M  V30 776 C 78.5112 -1.42979 -1.22223 0
M  V30 777 O 77.8692 -0.514092 -1.73859 0
M  V30 778 C 77.9172 -3.60518 -0.0767769 0
M  V30 779 O 77.0212 -3.96533 -1.13292 0
M  V30 780 H 76.3622 -0.660961 0.0634524 0
M  V30 781 H 78.8922 -1.87991 0.807492 0
M  V30 782 H 78.9022 -4.07021 -0.282489 0
M  V30 783 H 77.5772 -4.06702 0.86986 0
M  V30 784 H 76.1542 -3.61738 -0.905553 0
M  V30 785 N 78.3393 -0.321999 -1.54275 0
M  V30 786 C 79.5873 0.280489 -2.00144 0
M  V30 787 C 79.9083 1.52777 -1.21178 0
M  V30 788 O 79.1783 1.9338 -0.313187 0
M  V30 789 H 77.7583 0.106632 -0.73935 0
M  V30 790 H 80.4203 -0.438184 -1.8991 0
M  V30 791 H 79.5163 0.537972 -3.07428 0
M  V30 792 N 79.8174 1.5752 -0.0501392 0
M  V30 793 C 80.7474 2.14502 0.922566 0
M  V30 794 C 81.7284 1.06642 1.3252 0
M  V30 795 O 82.9134 1.34577 1.4001 0
M  V30 796 C 80.0434 2.68916 2.19776 0
M  V30 797 C 78.9974 3.8175 1.93523 0
M  V30 798 C 78.3234 4.22677 3.27487 0
M  V30 799 C 79.6234 5.06932 1.25765 0
M  V30 800 H 81.3174 2.9603 0.447952 0
M  V30 801 H 78.8634 1.42401 0.214024 0
M  V30 802 H 80.8164 3.07419 2.88222 0
M  V30 803 H 79.5404 1.84578 2.69441 0
M  V30 804 H 78.1994 3.43718 1.27489 0
M  V30 805 H 77.8474 3.35291 3.74952 0
M  V30 806 H 77.5474 4.98725 3.1072 0
M  V30 807 H 79.0714 4.63779 3.97166 0
M  V30 808 H 80.4854 5.42888 1.84244 0
M  V30 809 H 78.8824 5.88116 1.19328 0
M  V30 810 H 79.9524 4.84337 0.233536 0
M  V30 811 N 81.2955 -0.223234 1.56011 0
M  V30 812 C 82.5435 -0.946003 1.78592 0
M  V30 813 C 82.8645 -1.84936 0.618349 0
M  V30 814 O 82.1345 -1.92473 -0.364833 0
M  V30 815 H 80.7145 -0.352298 0.658707 0
M  V30 816 H 83.3765 -0.235494 1.93472 0
M  V30 817 H 82.4725 -1.55381 2.70672 0
M  V30 818 N 82.7736 -1.49793 -0.48987 0
M  V30 819 C 84.1896 -1.36803 -0.822022 0
M  V30 820 C 84.3896 -0.409652 -1.97292 0
M  V30 821 O 83.4456 0.154614 -2.52026 0
M  V30 822 C 84.7586 -2.77768 -1.15175 0
M  V30 823 C 86.3066 -2.86549 -1.25931 0
M  V30 824 C 86.7816 -4.28306 -1.62228 0
M  V30 825 N 88.2726 -4.31169 -1.69256 0
M  V30 826 C 89.0076 -5.37832 -1.98807 0
M  V30 827 N 88.5036 -6.54726 -2.26507 0
M  V30 828 N 90.2966 -5.25258 -2.00152 0
M  V30 829 H 82.4476 -2.10691 0.268881 0
M  V30 830 H 84.7106 -0.946241 0.057728 0
M  V30 831 H 84.4166 -3.49648 -0.379335 0
M  V30 832 H 84.2906 -3.13836 -2.09253 0
M  V30 833 H 86.6776 -2.14899 -2.02243 0
M  V30 834 H 86.7586 -2.54049 -0.298776 0
M  V30 835 H 86.4026 -5.00486 -0.864622 0
M  V30 836 H 86.3326 -4.58279 -2.594 0
M  V30 837 H 88.8236 -3.4687 -1.49965 0
M  V30 838 H 89.1366 -7.31833 -2.48276 0
M  V30 839 H 87.4816 -6.57933 -2.23939 0
M  V30 840 H 90.6726 -4.32938 -1.77996 0
M  V30 841 H 90.8456 -6.08476 -2.22848 0
M  V30 842 N 84.2517 0.741722 -1.39055 0
M  V30 843 C 85.2147 1.83733 -1.37021 0
M  V30 844 C 86.2147 1.58542 -0.268534 0
M  V30 845 O 87.4047 1.66067 -0.526076 0
M  V30 846 C 84.5367 3.2141 -1.13617 0
M  V30 847 H 85.7297 1.86941 -2.34506 0
M  V30 848 H 83.2827 0.944676 -1.24521 0
M  V30 849 H 84.0177 3.23865 -0.167863 0
M  V30 850 H 83.8027 3.4109 -1.93391 0
M  V30 851 H 85.2927 4.01477 -1.14918 0
M  V30 852 N 85.7298 1.2412 0.971189 0
M  V30 853 C 86.9578 1.10575 1.74874 0
M  V30 854 C 87.3728 -0.342017 1.85676 0
M  V30 855 O 86.7298 -1.23617 1.34258 0
M  V30 856 C 86.7808 1.73579 3.171 0
M  V30 857 O 86.5018 3.12695 3.06844 0
M  V30 858 C 88.0028 1.65598 4.11208 0
M  V30 859 H 85.2228 0.386504 0.548503 0
M  V30 860 H 87.7668 1.64156 1.21955 0
M  V30 861 H 85.9218 1.24009 3.67016 0
M  V30 862 H 86.3358 3.43412 3.96445 0
M  V30 863 H 87.8098 2.1437 5.08674 0
M  V30 864 H 88.2868 0.616532 4.34851 0
M  V30 865 H 88.8928 2.14578 3.67201 0
M  V30 866 N 87.2079 -1.17134 1.05439 0
M  V30 867 C 88.1709 -2.19439 0.661764 0
M  V30 868 C 89.1709 -1.58199 -0.288042 0
M  V30 869 O 90.3609 -1.74053 -0.0715803 0
M  V30 870 C 87.4929 -3.40889 -0.0276209 0
M  V30 871 H 88.6859 -2.55688 1.56728 0
M  V30 872 H 86.2389 -1.31259 0.848567 0
M  V30 873 H 86.9739 -3.10187 -0.94629 0
M  V30 874 H 86.7589 -3.86586 0.655238 0
M  V30 875 H 88.2489 -4.16603 -0.288342 0
M  V30 876 N 88.686 -0.835752 -1.33615 0
M  V30 877 C 89.649 -0.272 -2.2758 0
M  V30 878 C 90.649 0.557487 -1.50827 0
M  V30 879 O 91.839 0.37173 -1.70188 0
M  V30 880 C 88.971 0.617173 -3.35267 0
M  V30 881 H 90.164 -1.10111 -2.78954 0
M  V30 882 H 87.717 -0.608594 -1.43965 0
M  V30 883 H 88.452 1.46884 -2.89129 0
M  V30 884 H 88.237 0.0237066 -3.92093 0
M  V30 885 H 89.727 1.005 -4.05326 0
M  V30 886 N 90.1641 1.46063 -0.591896 0
M  V30 887 C 91.0741 2.34192 0.13831 0
M  V30 888 C 92.0901 1.50305 0.876608 0
M  V30 889 O 93.2661 1.8315 0.837728 0
M  V30 890 C 90.3311 3.27656 1.13326 0
M  V30 891 C 89.3921 4.27445 0.39863 0
M  V30 892 C 88.6251 5.16443 1.34618 0
M  V30 893 O 88.8481 5.08553 2.58321 0
M  V30 894 O 87.7821 5.95843 0.851768 0
M  V30 895 H 91.6081 2.98002 -0.58552 0
M  V30 896 H 89.1931 1.45188 -0.352239 0
M  V30 897 H 91.0751 3.85291 1.70671 0
M  V30 898 H 89.7501 2.6643 1.83839 0
M  V30 899 H 88.6571 3.73471 -0.216895 0
M  V30 900 H 89.9901 4.91482 -0.265709 0
M  V30 901 N 91.6422 0.330177 1.54103 0
M  V30 902 C 92.5722 -0.525353 2.27513 0
M  V30 903 C 93.5532 -1.11383 1.2856 0
M  V30 904 O 94.7382 -1.13773 1.57383 0
M  V30 905 C 91.8682 -1.6831 3.03791 0
M  V30 906 C 90.8222 -1.2236 4.10137 0
M  V30 907 C 90.1482 -2.46882 4.74293 0
M  V30 908 C 91.4482 -0.333697 5.21233 0
M  V30 909 H 93.1422 0.087013 2.99274 0
M  V30 910 H 90.6882 0.0432893 1.43935 0
M  V30 911 H 92.6412 -2.28795 3.5388 0
M  V30 912 H 91.3652 -2.32216 2.29659 0
M  V30 913 H 90.0242 -0.64165 3.60941 0
M  V30 914 H 89.6722 -3.09165 3.96769 0
M  V30 915 H 89.3722 -2.16825 5.46133 0
M  V30 916 H 90.8962 -3.08117 5.27159 0
M  V30 917 H 92.3102 -0.845013 5.67038 0
M  V30 918 H 90.7072 -0.125612 5.99969 0
M  V30 919 H 91.7772 0.633724 4.80741 0
M  V30 920 N 93.1203 -1.57491 0.0584922 0
M  V30 921 C 94.0503 -2.14988 -0.911178 0
M  V30 922 C 95.0313 -1.07343 -1.31952 0
M  V30 923 O 96.2163 -1.35318 -1.39294 0
M  V30 924 C 93.3463 -2.70078 -2.18347 0
M  V30 925 C 92.3003 -3.82771 -1.91495 0
M  V30 926 C 91.6263 -4.24408 -3.25241 0
M  V30 927 C 92.9263 -5.07592 -1.23075 0
M  V30 928 H 94.6203 -2.96263 -0.432246 0
M  V30 929 H 92.1663 -1.42512 -0.206469 0
M  V30 930 H 94.1193 -3.08943 -2.86587 0
M  V30 931 H 92.8433 -1.86005 -2.68458 0
M  V30 932 H 91.5023 -3.44389 -1.25664 0
M  V30 933 H 91.1503 -3.37275 -3.73168 0
M  V30 934 H 90.8503 -5.00366 -3.08071 0
M  V30 935 H 92.3743 -4.65879 -3.94701 0
M  V30 936 H 93.7883 -5.43857 -1.81362 0
M  V30 937 H 92.1853 -5.88741 -1.16207 0
M  V30 938 H 93.2553 -4.84454 -0.207847 0
M  V30 939 N 94.5984 0.214957 -1.56127 0
M  V30 940 C 96.0144 0.564948 -1.49267 0
M  V30 941 C 96.2144 1.86827 -0.754838 0
M  V30 942 O 95.2704 2.50745 -0.297198 0
M  V30 943 C 96.5834 0.638071 -2.93852 0
M  V30 944 C 98.1314 0.728253 -3.0441 0
M  V30 945 C 98.6064 0.832663 -4.50367 0
M  V30 946 N 100.097 0.896712 -4.54437 0
M  V30 947 C 100.832 0.997324 -5.6466 0
M  V30 948 N 100.328 1.06147 -6.8462 0
M  V30 949 N 102.121 1.03297 -5.52527 0
M  V30 950 H 94.2724 -0.640211 -2.02522 0
M  V30 951 H 96.5354 -0.225507 -0.920788 0
M  V30 952 H 96.2414 -0.250126 -3.50809 0
M  V30 953 H 96.1154 1.49947 -3.46115 0
M  V30 954 H 98.5024 1.60689 -2.47514 0
M  V30 955 H 98.5834 -0.158952 -2.55306 0
M  V30 956 H 98.2274 -0.0415417 -5.07883 0
M  V30 957 H 98.1574 1.73538 -4.97184 0
M  V30 958 H 100.648 0.857188 -3.6805 0
M  V30 959 H 100.961 1.1382 -7.64372 0
M  V30 960 H 99.3064 1.03049 -6.87318 0
M  V30 961 H 102.497 0.979558 -4.57736 0
M  V30 962 H 102.67 1.10793 -6.38458 0
M  V30 963 N 96.0765 1.50051 0.48192 0
M  V30 964 C 97.0065 1.71046 1.58951 0
M  V30 965 C 97.9875 0.559288 1.60642 0
M  V30 966 O 99.1725 0.797243 1.77081 0
M  V30 967 C 96.3025 1.79462 2.97339 0
M  V30 968 C 95.2565 2.94558 3.10515 0
M  V30 969 C 94.5825 2.88105 4.50444 0
M  V30 970 C 95.8825 4.35227 2.88747 0
M  V30 971 H 97.5765 2.6378 1.41635 0
M  V30 972 H 95.1225 1.26936 0.679942 0
M  V30 973 H 97.0755 1.92734 3.74742 0
M  V30 974 H 95.7995 0.833412 3.15788 0
M  V30 975 H 94.4585 2.80918 2.35543 0
M  V30 976 H 94.1065 1.89853 4.65795 0
M  V30 977 H 93.8065 3.65366 4.60197 0
M  V30 978 H 95.3305 3.03412 5.29881 0
M  V30 979 H 96.7445 4.49449 3.55905 0
M  V30 980 H 95.1415 5.13856 3.09955 0
M  V30 981 H 96.2115 4.48347 1.84696 0
M  V30 982 N 97.5546 -0.734337 1.39446 0
M  V30 983 C 98.8026 -1.49096 1.36436 0
M  V30 984 C 99.1236 -1.94961 -0.0388255 0
M  V30 985 O 98.3936 -1.69033 -0.990191 0
M  V30 986 H 96.9736 -0.5531 0.502085 0
M  V30 987 H 99.6356 -0.871725 1.74319 0
M  V30 988 H 98.7316 -2.37276 2.02747 0
M  V30 989 N 99.0327 -1.24633 -0.964593 0
M  V30 990 C 99.9957 -1.0424 -2.04124 0
M  V30 991 C 100.996 0.00137563 -1.608 0
M  V30 992 O 102.186 -0.239883 -1.7254 0
M  V30 993 C 99.3177 -0.580588 -3.3592 0
M  V30 994 H 100.511 -1.99803 -2.23649 0
M  V30 995 H 98.0637 -1.06899 -1.14027 0
M  V30 996 H 98.7987 0.3781 -3.22088 0
M  V30 997 H 98.5837 -1.33398 -3.6871 0
M  V30 998 H 100.074 -0.459034 -4.15069 0
M  V30 999 N 100.511 1.16574 -1.06058 0
M  V30 1000 C 101.927 1.3904 -0.783585 0
M  V30 1001 C 102.127 1.91784 0.618145 0
M  V30 1002 O 101.183 2.11511 1.37911 0
M  V30 1003 C 102.496 2.37329 -1.84649 0
M  V30 1004 C 104.044 2.51018 -1.86973 0
M  V30 1005 C 104.519 3.52588 -2.92311 0
M  V30 1006 N 106.01 3.60113 -2.91329 0
M  V30 1007 C 106.745 4.38486 -3.69482 0
M  V30 1008 N 106.241 5.20302 -4.57447 0
M  V30 1009 N 108.034 4.33446 -3.57885 0
M  V30 1010 H 100.185 0.806725 -1.96483 0
M  V30 1011 H 102.448 0.417117 -0.851303 0
M  V30 1012 H 102.154 2.05663 -2.85299 0
M  V30 1013 H 102.028 3.36946 -1.6955 0
M  V30 1014 H 104.415 2.81989 -0.869827 0
M  V30 1015 H 104.496 1.51445 -2.0615 0
M  V30 1016 H 104.14 3.22354 -3.92492 0
M  V30 1017 H 104.07 4.51886 -2.70383 0
M  V30 1018 H 106.561 3.01707 -2.27555 0
M  V30 1019 H 106.874 5.77311 -5.13743 0
M  V30 1020 H 105.219 5.19653 -4.61503 0
M  V30 1021 H 108.41 3.68586 -2.88551 0
M  V30 1022 H 108.583 4.94279 -4.19037 0
M  V30 1023 N 101.989 0.842826 1.3317 0
M  V30 1024 C 103.235 0.441099 1.97945 0
M  V30 1025 C 103.568 -0.998024 1.66593 0
M  V30 1026 O 102.843 -1.69839 0.947898 0
M  V30 1027 C 103.126 0.666841 3.53872 0
M  V30 1028 C 102.979 2.15352 3.94897 0
M  V30 1029 C 104.298 0.115544 4.39948 0
M  V30 1030 H 101.417 0.161739 0.719034 0
M  V30 1031 H 104.059 1.05907 1.57746 0
M  V30 1032 H 102.209 0.140828 3.88245 0
M  V30 1033 H 103.881 2.7447 3.70761 0
M  V30 1034 H 102.124 2.63653 3.44484 0
M  V30 1035 H 102.795 2.26221 5.03516 0
M  V30 1036 H 105.271 0.565213 4.12243 0
M  V30 1037 H 104.147 0.303152 5.48062 0
M  V30 1038 H 104.408 -0.980935 4.3108 0
M  V30 1039 N 103.467 -1.45747 0.599634 0
M  V30 1040 C 104.716 -2.01502 0.0893511 0
M  V30 1041 C 105.029 -1.4748 -1.28488 0
M  V30 1042 O 106.235 -1.95161 -1.88745 0
M  V30 1043 C 104.691 -3.59735 0.109082 0
M  V30 1044 C 104.299 -4.22754 1.48267 0
M  V30 1045 C 106.043 -4.23085 -0.346374 0
M  V30 1046 C 103.95 -5.73115 1.45921 0
M  V30 1047 H 102.88 -0.753417 0.0296347 0
M  V30 1048 H 105.531 -1.67303 0.753788 0
M  V30 1049 H 103.913 -3.91087 -0.621854 0
M  V30 1050 H 105.087 -4.02987 2.23468 0
M  V30 1051 H 103.402 -3.71567 1.87955 0
M  V30 1052 H 105.999 -5.33327 -0.38298 0
M  V30 1053 H 106.342 -3.93201 -1.36743 0
M  V30 1054 H 106.875 -3.9642 0.331038 0
M  V30 1055 H 103.614 -6.07685 2.45762 0
M  V30 1056 H 103.134 -5.95097 0.749665 0
M  V30 1057 H 104.813 -6.3616 1.17941 0
M  V30 1058 N 104.945 -0.338344 -1.53925 0
M  V30 1059 C 105.878 0.563758 -2.21127 0
M  V30 1060 C 106.856 1.10433 -1.19345 0
M  V30 1061 O 108.04 1.16557 -1.48144 0
M  V30 1062 C 105.167 1.77505 -2.88461 0
M  V30 1063 C 104.213 1.3644 -4.04087 0
M  V30 1064 S 105.046 0.388593 -5.34088 0
M  V30 1065 C 106.202 1.60683 -6.04923 0
M  V30 1066 H 106.435 -0.00704546 -2.97299 0
M  V30 1067 H 103.968 -0.122418 -1.53914 0
M  V30 1068 H 105.926 2.46999 -3.27875 0
M  V30 1069 H 104.587 2.31706 -2.12064 0
M  V30 1070 H 103.78 2.26739 -4.50117 0
M  V30 1071 H 103.382 0.748998 -3.66423 0
M  V30 1072 H 105.674 2.54209 -6.28 0
M  V30 1073 H 106.617 1.18842 -6.98056 0
M  V30 1074 H 107.025 1.80052 -5.35015 0
M  V30 1075 N 106.423 1.57458 -0.0668435 0
M  V30 1076 C 107.671 1.92919 0.602214 0
M  V30 1077 C 107.992 0.947215 1.70449 0
M  V30 1078 O 107.262 -0.00544117 1.95899 0
M  V30 1079 H 105.842 0.71217 0.22544 0
M  V30 1080 H 108.504 1.94508 -0.123535 0
M  V30 1081 H 107.6 2.94589 1.03073 0
M  V30 1082 N 107.901 -0.206675 1.56239 0
M  V30 1083 C 109.141 -0.93574 1.81723 0
M  V30 1084 C 109.505 -1.80927 0.642609 0
M  V30 1085 O 110.706 -2.57323 0.777081 0
M  V30 1086 C 108.977 -1.74012 3.12177 0
M  V30 1087 S 110.536 -2.52279 3.59028 0
M  V30 1088 H 107.354 -0.314065 0.637875 0
M  V30 1089 H 109.956 -0.200071 1.94474 0
M  V30 1090 H 108.66 -1.0888 3.95693 0
M  V30 1091 H 108.191 -2.51782 3.02274 0
M  V30 1092 H 110.206 -3.76209 3.23545 0
M  V30 1093 N 109.379 -1.50304 -0.473955 0
M  V30 1094 C 110.795 -1.37667 -0.807466 0
M  V30 1095 C 110.995 -0.430555 -1.96846 0
M  V30 1096 O 110.051 0.127874 -2.52176 0
M  V30 1097 C 111.364 -2.78974 -1.12223 0
M  V30 1098 C 112.912 -2.87868 -1.22885 0
M  V30 1099 C 113.387 -4.30003 -1.57676 0
M  V30 1100 N 114.878 -4.3294 -1.64673 0
M  V30 1101 C 115.613 -5.3991 -1.93091 0
M  V30 1102 N 115.109 -6.57092 -2.1955 0
M  V30 1103 N 116.902 -5.27351 -1.94569 0
M  V30 1104 H 109.053 -2.10394 0.291212 0
M  V30 1105 H 111.316 -0.945575 0.0677609 0
M  V30 1106 H 111.022 -3.50031 -0.342229 0
M  V30 1107 H 110.896 -3.16038 -2.05913 0
M  V30 1108 H 113.283 -2.17032 -1.99953 0
M  V30 1109 H 113.364 -2.54352 -0.271814 0
M  V30 1110 H 113.008 -5.01375 -0.81149 0
M  V30 1111 H 112.938 -4.61004 -2.54525 0
M  V30 1112 H 115.429 -3.48441 -1.46277 0
M  V30 1113 H 115.742 -7.34425 -2.405 0
M  V30 1114 H 114.087 -6.60272 -2.16948 0
M  V30 1115 H 117.278 -4.34801 -1.73394 0
M  V30 1116 H 117.451 -6.10805 -2.16381 0
M  V30 1117 N 110.857 0.726932 -1.39834 0
M  V30 1118 C 112.134 1.47902 -1.28001 0
M  V30 1119 C 112.514 2.1083 0.106789 0
M  V30 1120 O 111.862 1.99242 1.11869 0
M  V30 1121 C 112.072 2.52392 -2.41038 0
M  V30 1122 C 113.42 3.18546 -2.80737 0
M  V30 1123 O 114.444 2.62708 -2.40547 0
M  V30 1124 O 113.303 4.19604 -3.50135 0
M  V30 1125 H 110.397 0.657163 -0.502062 0
M  V30 1126 H 112.943 0.760071 -1.51727 0
M  V30 1127 H 111.715 2.04329 -3.33715 0
M  V30 1128 H 111.338 3.31837 -2.19021 0
M  V30 1129 N 112.336 1.25143 0.95797 0
M  V30 1130 C 113.752 1.01892 1.22842 0
M  V30 1131 C 113.952 -0.266311 1.99732 0
M  V30 1132 O 113.008 -0.979913 2.3271 0
M  V30 1133 C 114.321 2.24004 2.00606 0
M  V30 1134 C 115.869 2.28731 2.13662 0
M  V30 1135 C 116.344 3.5049 2.94823 0
M  V30 1136 N 117.835 3.50866 3.02403 0
M  V30 1137 C 118.57 4.4174 3.65586 0
M  V30 1138 N 118.066 5.42882 4.30408 0
M  V30 1139 N 119.859 4.29429 3.62694 0
M  V30 1140 H 112.01 2.07718 0.443493 0
M  V30 1141 H 114.273 0.912031 0.258657 0
M  V30 1142 H 113.979 3.17395 1.51503 0
M  V30 1143 H 113.853 2.26907 3.01319 0
M  V30 1144 H 116.24 1.35865 2.61963 0
M  V30 1145 H 116.321 2.29848 1.12265 0
M  V30 1146 H 115.965 4.43676 2.47213 0
M  V30 1147 H 115.895 3.46617 3.96439 0
M  V30 1148 H 118.386 2.777 2.56302 0
M  V30 1149 H 118.699 6.0844 4.76467 0
M  V30 1150 H 117.044 5.46758 4.29047 0
M  V30 1151 H 120.235 3.49643 3.11236 0
M  V30 1152 H 120.408 5.00448 4.1165 0
M  V30 1153 N 113.814 -1.1601 1.06675 0
M  V30 1154 C 114.777 -2.18724 0.685001 0
M  V30 1155 C 115.777 -1.58496 -0.271246 0
M  V30 1156 O 116.967 -1.74119 -0.0531156 0
M  V30 1157 C 114.099 -3.40899 0.00853648 0
M  V30 1158 H 115.292 -2.54011 1.59431 0
M  V30 1159 H 112.845 -1.30352 0.862441 0
M  V30 1160 H 113.58 -3.11173 -0.913337 0
M  V30 1161 H 113.365 -3.8587 0.696204 0
M  V30 1162 H 114.855 -4.16886 -0.24414 0
M  V30 1163 N 115.292 -0.849877 -1.32721 0
M  V30 1164 C 116.708 -0.539102 -1.50219 0
M  V30 1165 C 116.908 0.931271 -1.78689 0
M  V30 1166 O 115.964 1.71455 -1.85363 0
M  V30 1167 C 117.277 -1.42196 -2.64954 0
M  V30 1168 C 118.825 -1.42189 -2.78839 0
M  V30 1169 C 119.3 -2.28985 -3.96648 0
M  V30 1170 N 120.791 -2.26754 -4.03902 0
M  V30 1171 C 121.526 -2.90644 -4.94281 0
M  V30 1172 N 121.022 -3.63629 -5.897 0
M  V30 1173 N 122.815 -2.80057 -4.87365 0
M  V30 1174 H 114.966 -1.80156 -1.12506 0
M  V30 1175 H 117.229 -0.769217 -0.554085 0
M  V30 1176 H 116.935 -2.46733 -2.50631 0
M  V30 1177 H 116.809 -1.10591 -3.60624 0
M  V30 1178 H 119.196 -0.38419 -2.92588 0
M  V30 1179 H 119.277 -1.77807 -1.83898 0
M  V30 1180 H 118.921 -3.32819 -3.83658 0
M  V30 1181 H 118.851 -1.90702 -4.90857 0
M  V30 1182 H 121.342 -1.73688 -3.3562 0
M  V30 1183 H 121.655 -4.09558 -6.55349 0
M  V30 1184 H 120 -3.67737 -5.89741 0
M  V30 1185 H 123.191 -2.22593 -4.11789 0
M  V30 1186 H 123.364 -3.30132 -5.57599 0
M  V30 1187 N 116.77 1.45427 -0.607355 0
M  V30 1188 C 117.733 2.28974 0.101693 0
M  V30 1189 C 118.733 1.39754 0.795329 0
M  V30 1190 O 119.923 1.61878 0.643527 0
M  V30 1191 C 117.055 3.20768 1.15414 0
M  V30 1192 H 118.248 2.93147 -0.632844 0
M  V30 1193 H 115.801 1.51945 -0.366391 0
M  V30 1194 H 116.536 2.61395 1.91945 0
M  V30 1195 H 116.321 3.86489 0.66098 0
M  V30 1196 H 117.811 3.83589 1.65073 0
M  V30 1197 N 118.248 0.346503 1.53744 0
M  V30 1198 C 119.158 -0.517293 2.28826 0
M  V30 1199 C 120.174 -1.10935 1.3405 0
M  V30 1200 O 121.35 -1.1244 1.6709 0
M  V30 1201 C 118.415 -1.65098 3.04866 0
M  V30 1202 C 117.476 -1.0884 4.15274 0
M  V30 1203 C 116.709 -2.16806 4.87679 0
M  V30 1204 O 116.932 -3.3758 4.59778 0
M  V30 1205 O 115.866 -1.80934 5.74061 0
M  V30 1206 H 119.692 0.0931396 3.03557 0
M  V30 1207 H 117.277 0.111458 1.48984 0
M  V30 1208 H 119.159 -2.31053 3.5241 0
M  V30 1209 H 117.834 -2.24717 2.32989 0
M  V30 1210 H 116.741 -0.3933 3.72027 0
M  V30 1211 H 118.074 -0.537036 4.89261 0
M  V30 1212 N 119.726 -1.57421 0.075193 0
M  V30 1213 C 120.636 -2.1642 -0.905511 0
M  V30 1214 C 121.652 -1.12828 -1.32461 0
M  V30 1215 O 122.828 -1.45109 -1.39661 0
M  V30 1216 C 119.893 -2.71693 -2.15369 0
M  V30 1217 C 118.954 -3.90171 -1.79068 0
M  V30 1218 C 118.187 -4.42798 -2.97936 0
M  V30 1219 O 118.41 -3.94416 -4.12058 0
M  V30 1220 O 117.344 -5.34085 -2.77555 0
M  V30 1221 H 121.17 -3.00588 -0.433626 0
M  V30 1222 H 118.755 -1.48664 -0.148067 0
M  V30 1223 H 120.637 -3.07104 -2.88557 0
M  V30 1224 H 119.312 -1.90582 -2.61649 0
M  V30 1225 H 118.219 -3.59606 -1.03122 0
M  V30 1226 H 119.552 -4.72584 -1.37569 0
M  V30 1227 N 121.204 0.198386 -1.56346 0
M  V30 1228 C 122.167 1.22952 -1.93431 0
M  V30 1229 C 123.167 1.38611 -0.815092 0
M  V30 1230 O 124.357 1.36479 -1.08255 0
M  V30 1231 C 121.489 2.59946 -2.20546 0
M  V30 1232 H 122.682 0.912626 -2.85677 0
M  V30 1233 H 120.235 0.43977 -1.49986 0
M  V30 1234 H 120.97 2.96696 -1.30927 0
M  V30 1235 H 120.755 2.49953 -3.02102 0
M  V30 1236 H 122.245 3.3431 -2.50253 0
M  V30 1237 N 122.682 1.50554 0.465978 0
M  V30 1238 C 123.645 1.69233 1.54574 0
M  V30 1239 C 124.645 0.562901 1.50626 0
M  V30 1240 O 125.835 0.830016 1.53155 0
M  V30 1241 C 122.967 1.7223 2.94193 0
M  V30 1242 H 124.16 2.65571 1.39327 0
M  V30 1243 H 121.713 1.40111 0.692711 0
M  V30 1244 H 122.448 0.77603 3.14878 0
M  V30 1245 H 122.233 2.54285 2.98466 0
M  V30 1246 H 123.723 1.88618 3.72576 0
M  V30 1247 N 124.16 -0.719506 1.40217 0
M  V30 1248 C 125.408 -1.47641 1.3801 0
M  V30 1249 C 125.729 -1.94992 -0.018145 0
M  V30 1250 O 124.999 -1.70073 -0.972207 0
M  V30 1251 H 123.579 -0.547744 0.507923 0
M  V30 1252 H 126.241 -0.853187 1.75233 0
M  V30 1253 H 125.337 -2.35112 2.05253 0
M  V30 1254 N 125.638 -1.25649 -0.95132 0
M  V30 1255 C 126.57 -1.02112 -2.05197 0
M  V30 1256 C 127.583 0.0150571 -1.62793 0
M  V30 1257 O 128.772 -0.223874 -1.77091 0
M  V30 1258 C 125.872 -0.522361 -3.3485 0
M  V30 1259 C 125.045 -1.62546 -4.06076 0
M  V30 1260 C 124.104 -1.12649 -5.14001 0
M  V30 1261 O 123.13 -1.82156 -5.39266 0
M  V30 1262 N 124.332 0.03047 -5.80492 0
M  V30 1263 H 127.097 -1.96885 -2.25957 0
M  V30 1264 H 124.658 -1.16899 -1.1201 0
M  V30 1265 H 126.65 -0.172961 -4.0433 0
M  V30 1266 H 125.22 0.33151 -3.10837 0
M  V30 1267 H 124.44 -2.14628 -3.30649 0
M  V30 1268 H 125.728 -2.36644 -4.50419 0
M  V30 1269 H 125.126 0.611169 -5.62389 0
M  V30 1270 H 123.683 0.320875 -6.5101 0
M  V30 1271 N 127.117 1.15442 -1.07289 0
M  V30 1272 C 128.047 2.22312 -0.714107 0
M  V30 1273 C 129.028 1.67467 0.298155 0
M  V30 1274 O 130.213 1.93445 0.171048 0
M  V30 1275 C 127.343 3.47124 -0.110448 0
M  V30 1276 C 126.297 4.14926 -1.04979 0
M  V30 1277 C 125.623 5.33807 -0.308924 0
M  V30 1278 C 126.923 4.64762 -2.38314 0
M  V30 1279 H 128.617 2.5258 -1.6076 0
M  V30 1280 H 126.163 1.21404 -0.77441 0
M  V30 1281 H 128.116 4.21124 0.152482 0
M  V30 1282 H 126.84 3.16187 0.81812 0
M  V30 1283 H 125.499 3.42866 -1.29764 0
M  V30 1284 H 125.147 4.99126 0.623084 0
M  V30 1285 H 124.847 5.80113 -0.935036 0
M  V30 1286 H 126.371 6.10576 -0.0537771 0
M  V30 1287 H 127.785 5.30292 -2.1786 0
M  V30 1288 H 126.182 5.21728 -2.96514 0
M  V30 1289 H 127.252 3.80434 -3.00663 0
M  V30 1290 N 128.595 0.856903 1.32268 0
M  V30 1291 C 130.011 0.547061 1.49931 0
M  V30 1292 C 130.211 -0.921781 1.7918 0
M  V30 1293 O 129.267 -1.70469 1.8627 0
M  V30 1294 C 130.58 1.43599 2.64196 0
M  V30 1295 C 132.128 1.43665 2.78081 0
M  V30 1296 C 132.603 2.31085 3.95428 0
M  V30 1297 N 134.094 2.28893 4.02694 0
M  V30 1298 C 134.829 2.93262 4.92732 0
M  V30 1299 N 134.325 3.66751 5.87763 0
M  V30 1300 N 136.118 2.82638 4.85873 0
M  V30 1301 H 128.269 1.8075 1.11549 0
M  V30 1302 H 130.532 0.772144 0.549997 0
M  V30 1303 H 130.238 2.48058 2.49319 0
M  V30 1304 H 130.112 1.12502 3.60032 0
M  V30 1305 H 132.499 0.399701 2.92381 0
M  V30 1306 H 132.58 1.7878 1.82952 0
M  V30 1307 H 132.224 3.34849 3.81888 0
M  V30 1308 H 132.154 1.93302 4.89839 0
M  V30 1309 H 134.645 1.75466 3.34694 0
M  V30 1310 H 134.958 4.13027 6.53168 0
M  V30 1311 H 133.303 3.70859 5.87783 0
M  V30 1312 H 136.494 2.24774 4.10602 0
M  V30 1313 H 136.667 3.33084 5.55841 0
M  V30 1314 N 130.073 -1.45103 0.615059 0
M  V30 1315 C 131.489 -1.57137 0.279322 0
M  V30 1316 C 131.689 -1.60523 -1.21797 0
M  V30 1317 O 130.745 -1.53956 -2.00134 0
M  V30 1318 C 132.058 -2.85062 0.957083 0
M  V30 1319 C 133.606 -2.98749 0.933706 0
M  V30 1320 C 134.081 -4.29455 1.59162 0
M  V30 1321 N 135.572 -4.36231 1.55746 0
M  V30 1322 C 136.307 -5.36051 2.0356 0
M  V30 1323 N 135.803 -6.42367 2.59494 0
M  V30 1324 N 137.596 -5.27456 1.94284 0
M  V30 1325 H 129.747 -1.41148 1.58717 0
M  V30 1326 H 132.01 -0.675331 0.665306 0
M  V30 1327 H 131.716 -2.88488 2.01166 0
M  V30 1328 H 131.59 -3.7407 0.48494 0
M  V30 1329 H 133.977 -2.94886 -0.112347 0
M  V30 1330 H 134.058 -2.11132 1.44419 0
M  V30 1331 H 133.702 -4.34077 2.63704 0
M  V30 1332 H 133.632 -5.15901 1.0561 0
M  V30 1333 H 136.123 -3.60011 1.14893 0
M  V30 1334 H 136.436 -7.14793 2.93752 0
M  V30 1335 H 134.781 -6.43097 2.63537 0
M  V30 1336 H 137.972 -4.43308 1.5032 0
M  V30 1337 H 138.145 -6.05099 2.3186 0
M  V30 1338 N 131.551 -0.354651 -1.53558 0
M  V30 1339 C 132.461 0.50515 -2.29097 0
M  V30 1340 C 133.477 1.10223 -1.34636 0
M  V30 1341 O 134.653 1.11553 -1.67684 0
M  V30 1342 C 131.718 1.63479 -3.05738 0
M  V30 1343 C 130.779 1.06636 -4.15845 0
M  V30 1344 C 130.012 2.14217 -4.88822 0
M  V30 1345 O 130.235 3.35137 -4.61562 0
M  V30 1346 O 129.169 1.77887 -5.75013 0
M  V30 1347 H 132.995 -0.109237 -3.03503 0
M  V30 1348 H 130.58 -0.119357 -1.48922 0
M  V30 1349 H 132.462 2.2918 -3.5363 0
M  V30 1350 H 131.137 2.23478 -2.34178 0
M  V30 1351 H 130.044 0.373565 -3.7223 0
M  V30 1352 H 131.377 0.511081 -4.89539 0
M  V30 1353 N 133.029 1.57378 -0.0835403 0
M  V30 1354 C 133.959 2.1641 0.87686 0
M  V30 1355 C 134.94 1.09429 1.30228 0
M  V30 1356 O 136.125 1.37516 1.37124 0
M  V30 1357 C 133.255 2.73517 2.14022 0
M  V30 1358 C 132.209 3.85769 1.85381 0
M  V30 1359 C 131.535 4.29529 3.18448 0
M  V30 1360 C 132.835 5.09486 1.14984 0
M  V30 1361 H 134.529 2.96914 0.385059 0
M  V30 1362 H 132.075 1.42823 0.18377 0
M  V30 1363 H 134.028 3.13463 2.81636 0
M  V30 1364 H 132.752 1.90252 2.65465 0
M  V30 1365 H 131.411 3.46345 1.20169 0
M  V30 1366 H 131.059 3.43169 3.67755 0
M  V30 1367 H 130.759 5.05204 3.00071 0
M  V30 1368 H 132.283 4.72099 3.8724 0
M  V30 1369 H 133.697 5.46674 1.72687 0
M  V30 1370 H 132.094 5.90515 1.06826 0
M  V30 1371 H 133.164 4.84724 0.130749 0
M  V30 1372 N 134.507 -0.190092 1.56449 0
M  V30 1373 C 135.923 -0.54113 1.50146 0
M  V30 1374 C 136.123 -1.85603 0.784465 0
M  V30 1375 O 135.179 -2.5024 0.337051 0
M  V30 1376 C 136.492 -0.591241 2.9483 0
M  V30 1377 C 138.04 -0.679732 3.0553 0
M  V30 1378 C 138.515 -0.760908 4.51635 0
M  V30 1379 N 140.006 -0.824302 4.55806 0
M  V30 1380 C 140.741 -0.907365 5.66175 0
M  V30 1381 N 140.237 -0.952422 6.86222 0
M  V30 1382 N 142.03 -0.94494 5.541 0
M  V30 1383 H 134.181 0.67235 2.01478 0
M  V30 1384 H 136.444 0.240127 0.917084 0
M  V30 1385 H 136.15 0.305905 3.50367 0
M  V30 1386 H 136.024 -1.44422 3.48457 0
M  V30 1387 H 138.411 -1.56731 2.50039 0
M  V30 1388 H 138.492 0.199549 2.5502 0
M  V30 1389 H 138.136 0.122336 5.07753 0
M  V30 1390 H 138.066 -1.65606 4.99882 0
M  V30 1391 H 140.557 -0.798526 3.69367 0
M  V30 1392 H 140.87 -1.01645 7.66086 0
M  V30 1393 H 139.215 -0.921014 6.8887 0
M  V30 1394 H 142.406 -0.906612 4.59236 0
M  V30 1395 H 142.579 -1.00622 6.4014 0
M  V30 1396 N 135.985 -1.50799 -0.457987 0
M  V30 1397 C 136.917 -1.66786 -1.57211 0
M  V30 1398 C 137.93 -0.548962 -1.53265 0
M  V30 1399 O 139.119 -0.8226 -1.58416 0
M  V30 1400 C 136.219 -1.64834 -2.96113 0
M  V30 1401 C 135.392 -2.92971 -3.24787 0
M  V30 1402 C 134.451 -2.83485 -4.43309 0
M  V30 1403 O 133.477 -3.5744 -4.42973 0
M  V30 1404 N 134.679 -1.97929 -5.45714 0
M  V30 1405 H 137.444 -2.62889 -1.43909 0
M  V30 1406 H 135.005 -1.48427 -0.646617 0
M  V30 1407 H 136.997 -1.56084 -3.7339 0
M  V30 1408 H 135.567 -0.764118 -3.03117 0
M  V30 1409 H 134.787 -3.15749 -2.36 0
M  V30 1410 H 136.075 -3.77834 -3.40762 0
M  V30 1411 H 135.473 -1.37182 -5.48815 0
M  V30 1412 H 134.03 -1.95073 -6.21924 0
M  V30 1413 N 137.463 0.71206 -1.40597 0
M  V30 1414 C 138.426 1.80785 -1.40888 0
M  V30 1415 C 139.426 1.57937 -0.302103 0
M  V30 1416 O 140.616 1.64913 -0.561182 0
M  V30 1417 C 137.748 3.18927 -1.20409 0
M  V30 1418 H 138.941 1.81924 -2.38419 0
M  V30 1419 H 136.494 0.91805 -1.26497 0
M  V30 1420 H 137.229 3.23436 -0.236522 0
M  V30 1421 H 137.014 3.36911 -2.00582 0
M  V30 1422 H 138.504 3.98949 -1.23408 0
M  V30 1423 N 138.941 1.26152 0.944643 0
M  V30 1424 C 139.904 1.07474 2.0244 0
M  V30 1425 C 140.904 0.0242064 1.60782 0
M  V30 1426 O 142.094 0.267302 1.72137 0
M  V30 1427 C 139.226 0.633956 3.34953 0
M  V30 1428 H 140.419 2.03336 2.20442 0
M  V30 1429 H 137.972 1.087 1.12312 0
M  V30 1430 H 138.707 -0.326811 3.22649 0
M  V30 1431 H 138.492 1.39247 3.66542 0
M  V30 1432 H 139.982 0.52501 4.14287 0
M  V30 1433 N 140.419 -1.14872 1.07899 0
M  V30 1434 C 141.329 -2.2341 0.715915 0
M  V30 1435 C 142.345 -1.71808 -0.275306 0
M  V30 1436 O 143.521 -2.01039 -0.120545 0
M  V30 1437 C 140.586 -3.46474 0.125168 0
M  V30 1438 C 139.647 -4.13039 1.17034 0
M  V30 1439 C 138.88 -5.30229 0.607688 0
M  V30 1440 O 139.103 -5.675 -0.574497 0
M  V30 1441 O 138.037 -5.86444 1.35526 0
M  V30 1442 H 141.863 -2.56808 1.62121 0
M  V30 1443 H 139.448 -1.22702 0.852322 0
M  V30 1444 H 141.33 -4.20917 -0.201729 0
M  V30 1445 H 140.005 -3.14811 -0.753364 0
M  V30 1446 H 138.912 -3.40493 1.54968 0
M  V30 1447 H 140.245 -4.48796 2.02097 0
M  V30 1448 N 141.898 -0.863906 -1.31812 0
M  V30 1449 C 143.138 -0.47825 -1.98726 0
M  V30 1450 C 143.502 0.950397 -1.66828 0
M  V30 1451 O 144.703 1.44109 -2.26905 0
M  V30 1452 C 142.974 -0.721134 -3.50049 0
M  V30 1453 S 144.533 -0.434432 -4.36644 0
M  V30 1454 H 141.351 -0.178773 -0.688158 0
M  V30 1455 H 143.953 -1.11862 -1.60334 0
M  V30 1456 H 142.657 -1.75981 -3.70755 0
M  V30 1457 H 142.188 -0.0675315 -3.93342 0
M  V30 1458 H 144.203 0.735786 -4.90714 0
M  V30 1459 N 143.376 1.44774 -0.622745 0
M  V30 1460 C 144.624 2.01721 -0.123655 0
M  V30 1461 C 144.945 1.49172 1.25589 0
M  V30 1462 O 144.215 0.691974 1.83272 0
M  V30 1463 H 142.795 0.745777 -0.0427225 0
M  V30 1464 H 145.457 1.77382 -0.807559 0
M  V30 1465 H 144.553 3.11984 -0.0849534 0
M  V30 1466 N 144.854 0.36279 1.53368 0
M  V30 1467 C 146.265 -0.117022 1.86333 0
M  V30 1468 C 146.616 -1.48397 1.28347 0
M  V30 1469 O 145.741 -2.07787 0.604428 0
M  V30 1470 C 146.336 -0.21912 3.38091 0
M  V30 1471 C 144.895 -0.643184 3.70864 0
M  V30 1472 C 144.042 0.211318 2.76494 0
M  V30 1473 H 146.993 0.581687 1.47655 0
M  V30 1474 H 147.014 -1.04319 3.6592 0
M  V30 1475 H 146.526 0.775902 3.80265 0
M  V30 1476 H 144.627 -1.64654 3.34245 0
M  V30 1477 H 144.74 -0.41973 4.77258 0
M  V30 1478 H 143.104 -0.319367 2.5269 0
M  V30 1479 H 143.887 1.20383 3.21501 0
M  V30 1480 N 146.332 -1.57332 0.0918853 0
M  V30 1481 C 147.242 -2.17368 -0.882505 0
M  V30 1482 C 148.258 -1.14226 -1.31257 0
M  V30 1483 O 149.434 -1.46582 -1.38115 0
M  V30 1484 C 146.499 -2.73962 -2.12476 0
M  V30 1485 C 145.56 -3.92048 -1.7492 0
M  V30 1486 C 144.793 -4.45933 -2.93223 0
M  V30 1487 O 145.016 -3.98764 -4.07852 0
M  V30 1488 O 143.95 -5.36999 -2.71875 0
M  V30 1489 H 147.776 -3.01031 -0.40172 0
M  V30 1490 H 145.361 -1.48813 -0.132291 0
M  V30 1491 H 147.243 -3.10147 -2.85283 0
M  V30 1492 H 145.918 -1.93347 -2.59613 0
M  V30 1493 H 144.825 -3.6068 -0.993025 0
M  V30 1494 H 146.158 -4.74017 -1.32548 0
M  V30 1495 N 147.81 0.181792 -1.56548 0
M  V30 1496 C 149.221 0.745244 -1.71181 0
M  V30 1497 C 149.572 1.83262 -0.70068 0
M  V30 1498 O 148.697 2.15946 0.140154 0
M  V30 1499 C 149.292 1.35859 -3.10367 0
M  V30 1500 C 147.851 1.86898 -3.2672 0
M  V30 1501 C 146.998 0.743942 -2.67134 0
M  V30 1502 H 149.949 -0.0434661 -1.5864 0
M  V30 1503 H 149.97 2.22817 -3.08436 0
M  V30 1504 H 149.482 0.566948 -3.83937 0
M  V30 1505 H 147.583 2.68738 -2.5809 0
M  V30 1506 H 147.696 2.02162 -4.34359 0
M  V30 1507 H 146.06 1.16169 -2.26665 0
M  V30 1508 H 146.843 -0.035676 -3.43281 0
M  V30 1509 N 149.288 1.51039 0.449983 0
M  V30 1510 C 150.536 1.62759 1.19808 0
M  V30 1511 C 150.857 0.339981 1.92013 0
M  V30 1512 O 150.127 -0.643606 1.85026 0
M  V30 1513 H 148.707 0.599811 0.445237 0
M  V30 1514 H 151.369 1.87914 0.517138 0
M  V30 1515 H 150.465 2.44911 1.93455 0
M  V30 1516 N 150.766 -0.704594 1.40972 0
M  V30 1517 C 152.012 -1.46675 1.40051 0
M  V30 1518 C 152.345 -1.94199 0.00641102 0
M  V30 1519 O 151.62 -1.68916 -0.964235 0
M  V30 1520 C 151.903 -2.68505 2.39952 0
M  V30 1521 C 151.756 -2.26805 3.88432 0
M  V30 1522 C 153.075 -3.70686 2.37233 0
M  V30 1523 H 150.194 -0.532015 0.510028 0
M  V30 1524 H 152.836 -0.803255 1.72185 0
M  V30 1525 H 150.986 -3.25114 2.1268 0
M  V30 1526 H 152.658 -1.75592 4.26574 0
M  V30 1527 H 150.901 -1.58685 4.03734 0
M  V30 1528 H 151.572 -3.14181 4.53866 0
M  V30 1529 H 154.048 -3.23731 2.61415 0
M  V30 1530 H 152.924 -4.53553 3.09162 0
M  V30 1531 H 153.185 -4.19754 1.38777 0
M  V30 1532 N 152.244 -1.26651 -0.937939 0
M  V30 1533 C 153.469 -1.15279 -1.72411 0
M  V30 1534 C 153.894 0.287866 -1.85884 0
M  V30 1535 O 153.252 1.20855 -1.35143 0
M  V30 1536 C 153.3 -1.83028 -3.10698 0
M  V30 1537 O 152.404 -1.12128 -3.96864 0
M  V30 1538 H 151.745 -0.401504 -0.528858 0
M  V30 1539 H 154.275 -1.67531 -1.1745 0
M  V30 1540 H 154.285 -1.89981 -3.6107 0
M  V30 1541 H 152.96 -2.87833 -3.00208 0
M  V30 1542 H 151.537 -1.13173 -3.55312 0
M  V30 1543 N 153.722 1.14298 -1.08507 0
M  V30 1544 C 154.97 1.84993 -0.813763 0
M  V30 1545 C 155.291 1.83405 0.662393 0
M  V30 1546 O 154.561 1.28319 1.48024 0
M  V30 1547 H 153.141 0.684966 -0.298045 0
M  V30 1548 H 155.803 1.385 -1.37126 0
M  V30 1549 H 154.899 2.89788 -1.15884 0
M  V30 1550 N 155.201 0.870884 1.31352 0
M  V30 1551 C 156.447 0.482987 1.96965 0
M  V30 1552 C 156.78 -0.962462 1.68672 0
M  V30 1553 O 156.055 -1.6779 0.98371 0
M  V30 1554 C 156.338 0.741752 3.52378 0
M  V30 1555 C 156.191 2.2368 3.9024 0
M  V30 1556 C 157.51 0.208838 4.39604 0
M  V30 1557 H 154.629 0.176955 0.715441 0
M  V30 1558 H 157.271 1.09229 1.55464 0
M  V30 1559 H 155.421 0.223149 3.87859 0
M  V30 1560 H 157.093 2.82273 3.64856 0
M  V30 1561 H 155.336 2.70901 3.38814 0
M  V30 1562 H 156.007 2.3685 4.98604 0
M  V30 1563 H 158.483 0.652529 4.10952 0
M  V30 1564 H 157.359 0.419336 5.47296 0
M  V30 1565 H 157.62 -0.889275 4.33064 0
M  V30 1566 N 156.679 -1.44442 0.630414 0
M  V30 1567 C 157.927 -2.01653 0.134351 0
M  V30 1568 C 158.248 -1.49836 -1.24796 0
M  V30 1569 O 157.518 -0.701684 -1.82902 0
M  V30 1570 H 156.098 -0.74554 0.0466769 0
M  V30 1571 H 158.76 -1.76952 0.816955 0
M  V30 1572 H 157.856 -3.11935 0.101498 0
M  V30 1573 N 158.157 -0.370918 -1.53173 0
M  V30 1574 C 159.067 0.480823 -2.2962 0
M  V30 1575 C 160.083 1.08789 -1.35798 0
M  V30 1576 O 161.259 1.09768 -1.68858 0
M  V30 1577 C 158.324 1.60227 -3.07454 0
M  V30 1578 C 157.385 1.0222 -4.16953 0
M  V30 1579 C 156.618 2.0902 -4.91066 0
M  V30 1580 O 156.841 3.30222 -4.65091 0
M  V30 1581 O 155.775 1.71778 -5.76867 0
M  V30 1582 H 159.601 -0.141421 -3.03371 0
M  V30 1583 H 157.186 -0.135146 -1.48787 0
M  V30 1584 H 159.068 2.25417 -3.56041 0
M  V30 1585 H 157.743 2.20982 -2.36535 0
M  V30 1586 H 156.65 0.334064 -3.72605 0
M  V30 1587 H 157.983 0.459131 -4.90054 0
M  V30 1588 N 159.635 1.57281 -0.100228 0
M  V30 1589 C 160.565 2.17328 0.853857 0
M  V30 1590 C 161.546 1.10804 1.2906 0
M  V30 1591 O 162.731 1.38963 1.35657 0
M  V30 1592 C 159.861 2.75772 2.11109 0
M  V30 1593 C 158.815 3.87713 1.81279 0
M  V30 1594 C 158.141 4.32882 3.13874 0
M  V30 1595 C 159.441 5.10677 1.09574 0
M  V30 1596 H 161.135 2.97305 0.353545 0
M  V30 1597 H 158.681 1.43009 0.168612 0
M  V30 1598 H 160.634 3.16433 2.78296 0
M  V30 1599 H 159.358 1.93057 2.63432 0
M  V30 1600 H 158.017 3.476 1.16489 0
M  V30 1601 H 157.665 3.47051 3.64095 0
M  V30 1602 H 157.365 5.08358 2.94696 0
M  V30 1603 H 158.889 4.7618 3.82211 0
M  V30 1604 H 160.303 5.48474 1.66879 0
M  V30 1605 H 158.7 5.91615 1.00557 0
M  V30 1606 H 159.77 4.84835 0.0793299 0
M  V30 1607 N 161.113 -0.173488 1.56642 0
M  V30 1608 C 162.362 -0.888758 1.81063 0
M  V30 1609 C 162.675 -1.83506 0.67712 0
M  V30 1610 O 163.881 -2.59254 0.806206 0
M  V30 1611 C 162.337 -1.63091 3.20826 0
M  V30 1612 C 161.945 -0.728357 4.4204 0
M  V30 1613 C 163.689 -2.33454 3.54541 0
M  V30 1614 C 161.596 -1.47062 5.72823 0
M  V30 1615 H 160.526 -0.335618 0.675186 0
M  V30 1616 H 163.177 -0.141712 1.82952 0
M  V30 1617 H 161.559 -2.42263 3.13248 0
M  V30 1618 H 162.733 0.0262449 4.60793 0
M  V30 1619 H 161.048 -0.134492 4.16183 0
M  V30 1620 H 163.645 -2.89578 4.49498 0
M  V30 1621 H 163.988 -3.08687 2.79317 0
M  V30 1622 H 164.521 -1.61227 3.63663 0
M  V30 1623 H 161.26 -0.760658 6.51072 0
M  V30 1624 H 160.78 -2.1986 5.58052 0
M  V30 1625 H 162.459 -2.01868 6.14702 0
M  V30 1626 N 162.591 -1.51276 -0.441967 0
M  V30 1627 C 163.837 -1.63958 -1.19355 0
M  V30 1628 C 164.17 -0.352543 -1.90973 0
M  V30 1629 O 163.445 0.647627 -1.83401 0
M  V30 1630 C 163.728 -2.83979 -2.21422 0
M  V30 1631 C 163.581 -4.22646 -1.53918 0
M  V30 1632 C 164.9 -2.99521 -3.22451 0
M  V30 1633 H 162.019 -0.596709 -0.432559 0
M  V30 1634 H 164.661 -1.83748 -0.483398 0
M  V30 1635 H 162.811 -2.67237 -2.81987 0
M  V30 1636 H 164.483 -4.51045 -0.967256 0
M  V30 1637 H 162.726 -4.25558 -0.841615 0
M  V30 1638 H 163.397 -5.02609 -2.28229 0
M  V30 1639 H 165.873 -3.14944 -2.71937 0
M  V30 1640 H 164.749 -3.85072 -3.91166 0
M  V30 1641 H 165.01 -2.11391 -3.88287 0
M  V30 1642 N 164.069 0.697108 -1.41344 0
M  V30 1643 C 165.485 1.00751 -1.2378 0
M  V30 1644 C 165.685 2.01105 -0.126066 0
M  V30 1645 O 164.741 2.47295 0.51004 0
M  V30 1646 C 166.054 1.53359 -2.58653 0
M  V30 1647 C 167.602 1.6525 -2.65822 0
M  V30 1648 C 168.077 2.2126 -4.01009 0
M  V30 1649 N 169.568 2.28622 -4.02847 0
M  V30 1650 C 170.303 2.72984 -5.04249 0
M  V30 1651 N 169.799 3.16962 -6.16041 0
M  V30 1652 N 171.592 2.72534 -4.91611 0
M  V30 1653 H 163.743 0.0322662 -2.12375 0
M  V30 1654 H 166.006 0.0768853 -0.944877 0
M  V30 1655 H 165.712 0.870773 -3.4075 0
M  V30 1656 H 165.586 2.51597 -2.81032 0
M  V30 1657 H 167.973 2.30644 -1.84086 0
M  V30 1658 H 168.054 0.655614 -2.47256 0
M  V30 1659 H 167.698 1.56482 -4.83193 0
M  V30 1660 H 167.628 3.21698 -4.16915 0
M  V30 1661 H 170.119 1.97585 -3.22131 0
M  V30 1662 H 170.432 3.49434 -6.89287 0
M  V30 1663 H 168.777 3.14875 -6.1958 0
M  V30 1664 H 171.968 2.37525 -4.0336 0
M  V30 1665 H 172.141 3.06789 -5.70775 0
M  V30 1666 N 165.547 1.27147 0.931209 0
M  V30 1667 C 166.457 1.11372 2.06478 0
M  V30 1668 C 167.473 0.044645 1.73943 0
M  V30 1669 O 168.649 0.250417 1.99837 0
M  V30 1670 C 165.714 0.758838 3.38294 0
M  V30 1671 C 164.775 1.90841 3.84549 0
M  V30 1672 C 164.008 1.57036 5.10074 0
M  V30 1673 O 164.231 0.476645 5.68405 0
M  V30 1674 O 163.165 2.40839 5.51616 0
M  V30 1675 H 166.991 2.06493 2.22698 0
M  V30 1676 H 164.576 1.06301 1.04978 0
M  V30 1677 H 166.458 0.574098 4.17471 0
M  V30 1678 H 165.133 -0.162879 3.2329 0
M  V30 1679 H 164.04 2.14819 3.06274 0
M  V30 1680 H 165.373 2.81021 4.04089 0
M  V30 1681 N 167.025 -1.13721 1.09112 0
M  V30 1682 C 167.955 -2.21148 0.749385 0
M  V30 1683 C 168.936 -1.6792 -0.271475 0
M  V30 1684 O 170.121 -1.93693 -0.140251 0
M  V30 1685 C 167.251 -3.46905 0.165659 0
M  V30 1686 C 166.205 -4.13203 1.11567 0
M  V30 1687 C 165.531 -5.33248 0.393809 0
M  V30 1688 C 166.831 -4.60912 2.45678 0
M  V30 1689 H 168.525 -2.4999 1.64758 0
M  V30 1690 H 166.071 -1.20156 0.793626 0
M  V30 1691 H 168.024 -4.21313 -0.085466 0
M  V30 1692 H 166.748 -3.17449 -0.767714 0
M  V30 1693 H 165.407 -3.40758 1.35202 0
M  V30 1694 H 165.055 -5.00054 -0.543599 0
M  V30 1695 H 164.755 -5.78552 1.02721 0
M  V30 1696 H 166.279 -6.10413 0.150908 0
M  V30 1697 H 167.693 -5.26759 2.26269 0
M  V30 1698 H 166.09 -5.16944 3.04776 0
M  V30 1699 H 167.16 -3.75603 3.06677 0
M  V30 1700 N 168.503 -0.877838 -1.30888 0
M  V30 1701 C 169.78 -0.413052 -1.91189 0
M  V30 1702 C 170.16 1.1056 -1.79832 0
M  V30 1703 O 169.508 1.93771 -1.21099 0
M  V30 1704 C 169.718 -0.903191 -3.3711 0
M  V30 1705 C 171.066 -0.93395 -4.14201 0
M  V30 1706 O 172.09 -0.849373 -3.45925 0
M  V30 1707 O 170.949 -1.05772 -5.36167 0
M  V30 1708 H 168.043 -0.125035 -0.817493 0
M  V30 1709 H 170.589 -0.966269 -1.39504 0
M  V30 1710 H 169.361 -1.94692 -3.39427 0
M  V30 1711 H 168.984 -0.328732 -3.96239 0
M  V30 1712 N 169.982 1.44106 -0.638065 0
M  V30 1713 C 170.912 2.33448 0.0494287 0
M  V30 1714 C 171.893 1.48606 0.827672 0
M  V30 1715 O 173.078 1.77308 0.792173 0
M  V30 1716 C 170.208 3.31771 1.02691 0
M  V30 1717 C 169.162 4.26485 0.359823 0
M  V30 1718 C 168.488 5.14729 1.44769 0
M  V30 1719 C 169.788 5.17056 -0.738296 0
M  V30 1720 H 171.482 2.91183 -0.696636 0
M  V30 1721 H 169.028 1.40014 -0.336456 0
M  V30 1722 H 170.981 3.93161 1.51666 0
M  V30 1723 H 169.705 2.7226 1.80395 0
M  V30 1724 H 168.364 3.66437 -0.10934 0
M  V30 1725 H 168.012 4.51566 2.21578 0
M  V30 1726 H 167.712 5.78913 1.00668 0
M  V30 1727 H 169.236 5.78991 1.93911 0
M  V30 1728 H 170.65 5.72342 -0.331354 0
M  V30 1729 H 169.047 5.89879 -1.10286 0
M  V30 1730 H 170.117 4.57652 -1.60258 0
M  V30 1731 N 171.46 0.379036 1.52974 0
M  V30 1732 C 172.423 -0.448865 2.24762 0
M  V30 1733 C 173.423 -0.998689 1.26027 0
M  V30 1734 O 174.613 -0.882313 1.50203 0
M  V30 1735 C 171.745 -1.62872 2.99476 0
M  V30 1736 H 172.938 0.179491 2.99362 0
M  V30 1737 H 170.491 0.13096 1.5575 0
M  V30 1738 H 171.226 -2.29479 2.29151 0
M  V30 1739 H 171.011 -1.24128 3.71934 0
M  V30 1740 H 172.501 -2.2151 3.5401 0
M  V30 1741 N 172.938 -1.57226 0.108567 0
M  V30 1742 C 174.163 -1.99604 -0.563303 0
M  V30 1743 C 174.588 -0.987563 -1.6009 0
M  V30 1744 O 173.946 0.0421687 -1.81251 0
M  V30 1745 C 173.994 -3.40902 -1.17552 0
M  V30 1746 O 173.098 -3.42896 -2.2912 0
M  V30 1747 H 172.439 -0.648704 -0.1417 0
M  V30 1748 H 174.969 -2.03679 0.193961 0
M  V30 1749 H 174.979 -3.78886 -1.51357 0
M  V30 1750 H 173.654 -4.1382 -0.415445 0
M  V30 1751 H 172.231 -3.1672 -1.96832 0
M  V30 1752 N 174.416 0.165178 -1.56732 0
M  V30 1753 C 175.346 1.20651 -1.99914 0
M  V30 1754 C 176.327 1.45827 -0.875705 0
M  V30 1755 O 177.512 1.57057 -1.14223 0
M  V30 1756 C 174.642 2.54401 -2.36427 0
M  V30 1757 C 173.596 2.43782 -3.51787 0
M  V30 1758 C 172.922 3.82078 -3.7406 0
M  V30 1759 C 174.222 1.93732 -4.85041 0
M  V30 1760 H 175.916 0.847534 -2.87154 0
M  V30 1761 H 173.462 0.40625 -1.38151 0
M  V30 1762 H 175.415 3.27458 -2.65234 0
M  V30 1763 H 174.139 2.92098 -1.46103 0
M  V30 1764 H 172.798 1.73178 -3.23117 0
M  V30 1765 H 172.446 4.17179 -2.81017 0
M  V30 1766 H 172.146 3.7584 -4.51684 0
M  V30 1767 H 173.67 4.56712 -4.05274 0
M  V30 1768 H 175.084 2.56569 -5.12684 0
M  V30 1769 H 173.481 1.98428 -5.66345 0
M  V30 1770 H 174.551 0.891962 -4.76626 0
M  V30 1771 N 175.894 1.51508 0.433938 0
M  V30 1772 C 177.31 1.39759 0.770682 0
M  V30 1773 C 177.51 0.482594 1.95636 0
M  V30 1774 O 176.566 -0.0609691 2.52426 0
M  V30 1775 C 177.879 2.81851 1.04787 0
M  V30 1776 C 179.427 2.91025 1.1521 0
M  V30 1777 C 179.902 4.34032 1.46219 0
M  V30 1778 N 181.393 4.37154 1.53136 0
M  V30 1779 C 182.128 5.4484 1.78709 0
M  V30 1780 N 181.624 6.62682 2.02051 0
M  V30 1781 N 183.417 5.32324 1.80519 0
M  V30 1782 H 175.568 2.09548 -0.346892 0
M  V30 1783 H 177.831 0.943446 -0.0928074 0
M  V30 1784 H 177.537 3.50815 0.249304 0
M  V30 1785 H 177.411 3.21386 1.97461 0
M  V30 1786 H 179.798 2.22257 1.94128 0
M  V30 1787 H 179.879 2.54983 0.204281 0
M  V30 1788 H 179.523 5.03351 0.678274 0
M  V30 1789 H 179.453 4.6759 2.42212 0
M  V30 1790 H 181.944 3.52197 1.36987 0
M  V30 1791 H 182.257 7.40543 2.20943 0
M  V30 1792 H 180.602 6.65791 1.99366 0
M  V30 1793 H 183.793 4.39246 1.61805 0
M  V30 1794 H 183.966 6.16328 2.00111 0
M  V30 1795 N 177.372 -0.689602 1.41712 0
M  V30 1796 C 178.597 -1.48329 1.44959 0
M  V30 1797 C 179.022 -1.8801 0.0581283 0
M  V30 1798 O 178.38 -1.55026 -0.940035 0
M  V30 1799 C 178.428 -2.71835 2.36935 0
M  V30 1800 O 177.532 -3.69549 1.8305 0
M  V30 1801 H 176.873 -0.446199 0.491734 0
M  V30 1802 H 179.403 -0.847127 1.86239 0
M  V30 1803 H 179.413 -3.20076 2.53013 0
M  V30 1804 H 178.088 -2.42291 3.38035 0
M  V30 1805 H 176.665 -3.2851 1.76452 0
M  V30 1806 N 178.85 -1.27639 -0.924453 0
M  V30 1807 C 180.096 -1.14336 -1.67497 0
M  V30 1808 C 180.429 0.309465 -1.91718 0
M  V30 1809 O 179.704 1.22608 -1.50989 0
M  V30 1810 C 179.987 -1.93096 -3.0395 0
M  V30 1811 C 179.84 -3.46381 -2.8695 0
M  V30 1812 C 181.159 -1.73798 -4.0433 0
M  V30 1813 H 178.278 -0.416728 -0.607871 0
M  V30 1814 H 180.92 -1.56832 -1.07256 0
M  V30 1815 H 179.07 -1.56982 -3.55372 0
M  V30 1816 H 180.742 -3.92343 -2.42621 0
M  V30 1817 H 178.985 -3.72557 -2.22225 0
M  V30 1818 H 179.656 -3.96735 -3.83804 0
M  V30 1819 H 182.132 -2.05293 -3.61931 0
M  V30 1820 H 181.008 -2.31294 -4.97789 0
M  V30 1821 H 181.269 -0.686725 -4.36734 0
M  V30 1822 N 180.328 1.1314 -1.09713 0
M  V30 1823 C 181.744 1.36477 -0.827423 0
M  V30 1824 C 181.944 1.93654 0.556817 0
M  V30 1825 O 181 2.15791 1.31112 0
M  V30 1826 C 182.313 2.31334 -1.92106 0
M  V30 1827 C 183.861 2.44943 -1.94864 0
M  V30 1828 C 184.336 3.4311 -3.0338 0
M  V30 1829 N 185.827 3.50662 -3.02639 0
M  V30 1830 C 186.562 4.2651 -3.83246 0
M  V30 1831 N 186.058 5.05485 -4.73768 0
M  V30 1832 N 187.851 4.2184 -3.71493 0
M  V30 1833 H 180.002 0.743807 -1.9895 0
M  V30 1834 H 182.265 0.389823 -0.864143 0
M  V30 1835 H 181.971 1.96483 -2.91698 0
M  V30 1836 H 181.845 3.31381 -1.80184 0
M  V30 1837 H 184.232 2.79079 -0.959099 0
M  V30 1838 H 184.313 1.4481 -2.10864 0
M  V30 1839 H 183.957 3.09704 -4.02549 0
M  V30 1840 H 183.887 4.43055 -2.84622 0
M  V30 1841 H 186.378 2.94315 -2.37039 0
M  V30 1842 H 186.691 5.60675 -5.3185 0
M  V30 1843 H 185.036 5.04708 -4.77802 0
M  V30 1844 H 188.227 3.5922 -3.00131 0
M  V30 1845 H 188.4 4.80697 -4.3455 0
M  V30 1846 N 181.806 0.884767 1.30421 0
M  V30 1847 C 182.769 0.356277 2.26414 0
M  V30 1848 C 183.769 -0.501124 1.52792 0
M  V30 1849 O 184.959 -0.30831 1.7145 0
M  V30 1850 C 182.091 -0.492316 3.37326 0
M  V30 1851 H 183.284 1.20389 2.74675 0
M  V30 1852 H 180.837 0.661607 1.41607 0
M  V30 1853 H 181.572 -1.36052 2.94381 0
M  V30 1854 H 181.357 0.121832 3.91911 0
M  V30 1855 H 182.847 -0.853871 4.08777 0
M  V30 1856 N 183.284 -1.43765 0.645699 0
M  V30 1857 C 184.531 -2.01898 0.15604 0
M  V30 1858 C 184.859 -1.50887 -1.22733 0
M  V30 1859 O 184.114 -0.689271 -1.8316 0
M  V30 1860 C 184.413 -3.57238 0.107679 0
M  V30 1861 C 184.079 -4.27564 1.43178 0
M  V30 1862 C 182.741 -4.46492 1.7944 0
M  V30 1863 C 185.093 -4.67454 2.30513 0
M  V30 1864 C 182.421 -5.02573 3.02716 0
M  V30 1865 C 184.773 -5.24901 3.53074 0
M  V30 1866 C 183.437 -5.42046 3.89541 0
M  V30 1867 H 182.707 -0.738797 0.057099 0
M  V30 1868 H 185.354 -1.72341 0.834912 0
M  V30 1869 H 183.659 -3.86293 -0.654618 0
M  V30 1870 H 185.356 -3.99965 -0.287938 0
M  V30 1871 H 181.946 -4.13171 1.13963 0
M  V30 1872 H 186.13 -4.5253 2.0379 0
M  V30 1873 H 181.386 -5.14033 3.31028 0
M  V30 1874 H 185.56 -5.54758 4.20971 0
M  V30 1875 H 183.187 -5.85268 4.85145 0
M  V30 1876 N 184.763 -0.387143 -1.52771 0
M  V30 1877 C 186.003 0.195537 -2.03463 0
M  V30 1878 C 186.367 1.44222 -1.26744 0
M  V30 1879 O 187.568 2.10192 -1.67549 0
M  V30 1880 C 185.839 0.459097 -3.54439 0
M  V30 1881 S 187.398 1.01237 -4.26962 0
M  V30 1882 H 184.216 0.0552675 -0.708849 0
M  V30 1883 H 186.818 -0.534992 -1.88037 0
M  V30 1884 H 185.522 -0.455382 -4.07866 0
M  V30 1885 H 185.053 1.21811 -3.74066 0
M  V30 1886 H 187.068 2.29492 -4.39941 0
M  V30 1887 N 186.241 1.57166 -0.116904 0
M  V30 1888 C 187.173 2.12271 0.864507 0
M  V30 1889 C 188.186 1.06494 1.23138 0
M  V30 1890 O 189.375 1.33873 1.18069 0
M  V30 1891 C 186.475 2.60564 2.16702 0
M  V30 1892 C 185.648 3.90416 1.97216 0
M  V30 1893 C 184.707 4.24329 3.11178 0
M  V30 1894 O 183.733 4.93182 2.84184 0
M  V30 1895 N 184.935 3.8148 4.37554 0
M  V30 1896 H 187.7 2.97102 0.393726 0
M  V30 1897 H 185.261 1.61759 0.0675805 0
M  V30 1898 H 187.253 2.80282 2.91932 0
M  V30 1899 H 185.823 1.80623 2.55135 0
M  V30 1900 H 185.043 3.79627 1.06192 0
M  V30 1901 H 186.331 4.75327 1.81499 0
M  V30 1902 H 185.729 3.25943 4.62361 0
M  V30 1903 H 184.286 4.06311 5.09661 0
M  V30 1904 N 187.719 -0.156864 1.56817 0
M  V30 1905 C 188.629 -1.2136 2.00771 0
M  V30 1906 C 189.645 -1.47598 0.921459 0
M  V30 1907 O 190.821 -1.59462 1.2302 0
M  V30 1908 C 187.886 -2.52943 2.37109 0
M  V30 1909 C 186.947 -2.34439 3.59634 0
M  V30 1910 C 186.18 -3.59748 3.94229 0
M  V30 1911 O 186.403 -4.65526 3.29609 0
M  V30 1912 O 185.337 -3.52998 4.8752 0
M  V30 1913 H 189.163 -0.870468 2.90958 0
M  V30 1914 H 186.748 -0.36484 1.44877 0
M  V30 1915 H 188.63 -3.30538 2.61386 0
M  V30 1916 H 187.305 -2.86806 1.5008 0
M  V30 1917 H 186.212 -1.54828 3.40557 0
M  V30 1918 H 187.545 -2.05496 4.4725 0
M  V30 1919 N 189.197 -1.51736 -0.425897 0
M  V30 1920 C 190.13 -1.68574 -1.53812 0
M  V30 1921 C 191.108 -0.53328 -1.53606 0
M  V30 1922 O 192.292 -0.758555 -1.72564 0
M  V30 1923 C 189.419 -1.70977 -2.92377 0
M  V30 1924 C 188.465 -2.92324 -3.10563 0
M  V30 1925 S 189.298 -4.52952 -2.85648 0
M  V30 1926 C 190.454 -4.58117 -4.26474 0
M  V30 1927 H 190.687 -2.62647 -1.39298 0
M  V30 1928 H 188.22 -1.41564 -0.616361 0
M  V30 1929 H 190.178 -1.73047 -3.72243 0
M  V30 1930 H 188.839 -0.78061 -3.04245 0
M  V30 1931 H 188.032 -2.90439 -4.11899 0
M  V30 1932 H 187.634 -2.88055 -2.38538 0
M  V30 1933 H 189.926 -4.34462 -5.19855 0
M  V30 1934 H 190.869 -5.59983 -4.33388 0
M  V30 1935 H 191.277 -3.8732 -4.10662 0
M  V30 1936 N 190.675 0.682077 -1.42076 0
M  V30 1937 C 191.605 1.80796 -1.47767 0
M  V30 1938 C 192.586 1.6677 -0.334954 0
M  V30 1939 O 193.771 1.863 -0.548264 0
M  V30 1940 C 190.901 3.19038 -1.37229 0
M  V30 1941 C 189.855 3.47789 -2.49453 0
M  V30 1942 C 189.181 4.8553 -2.23975 0
M  V30 1943 C 190.481 3.45411 -3.91776 0
M  V30 1944 H 192.175 1.7629 -2.41997 0
M  V30 1945 H 189.721 0.846721 -1.16476 0
M  V30 1946 H 191.674 3.97528 -1.39821 0
M  V30 1947 H 190.398 3.24204 -0.394907 0
M  V30 1948 H 189.057 2.71657 -2.46166 0
M  V30 1949 H 188.705 4.87337 -1.24547 0
M  V30 1950 H 188.405 5.0573 -2.99184 0
M  V30 1951 H 189.929 5.66312 -2.28304 0
M  V30 1952 H 191.343 4.13882 -3.96705 0
M  V30 1953 H 189.74 3.77145 -4.66778 0
M  V30 1954 H 190.81 2.44122 -4.18966 0
M  V30 1955 N 192.153 1.28127 0.917671 0
M  V30 1956 C 193.085 1.07517 2.02417 0
M  V30 1957 C 194.098 0.0281099 1.62776 0
M  V30 1958 O 195.287 0.270748 1.76435 0
M  V30 1959 C 192.387 0.610957 3.33347 0
M  V30 1960 C 191.56 1.73255 4.01624 0
M  V30 1961 C 190.619 1.26238 5.10833 0
M  V30 1962 O 189.645 1.96389 5.34247 0
M  V30 1963 N 190.847 0.123448 5.80369 0
M  V30 1964 H 193.612 2.02806 2.20658 0
M  V30 1965 H 191.173 1.19827 1.08871 0
M  V30 1966 H 193.165 0.280101 4.0373 0
M  V30 1967 H 191.735 -0.24898 3.11607 0
M  V30 1968 H 190.955 2.23319 3.24842 0
M  V30 1969 H 192.243 2.48503 4.43986 0
M  V30 1970 H 191.641 -0.461847 5.63812 0
M  V30 1971 H 190.198 -0.148158 6.51632 0
M  V30 1972 N 193.631 -1.12557 1.10312 0
M  V30 1973 C 194.541 -2.21841 0.763142 0
M  V30 1974 C 195.557 -1.72354 -0.238801 0
M  V30 1975 O 196.733 -2.01249 -0.0778746 0
M  V30 1976 C 193.798 -3.46131 0.198632 0
M  V30 1977 C 192.859 -4.10464 1.25769 0
M  V30 1978 C 192.092 -5.28821 0.72002 0
M  V30 1979 O 192.315 -5.6859 -0.453993 0
M  V30 1980 O 191.249 -5.83437 1.47935 0
M  V30 1981 H 195.075 -2.53312 1.67532 0
M  V30 1982 H 192.66 -1.20867 0.878157 0
M  V30 1983 H 194.542 -4.2125 -0.112401 0
M  V30 1984 H 193.217 -3.16338 -0.686419 0
M  V30 1985 H 192.124 -3.3713 1.62156 0
M  V30 1986 H 193.457 -4.44408 2.11571 0
M  V30 1987 N 195.109 -0.891671 -1.2995 0
M  V30 1988 C 196.019 -0.367691 -2.31701 0
M  V30 1989 C 197.035 0.533486 -1.6562 0
M  V30 1990 O 198.211 0.424997 -1.96865 0
M  V30 1991 C 195.276 0.403406 -3.44345 0
M  V30 1992 C 194.337 -0.528328 -4.26037 0
M  V30 1993 C 193.57 0.206063 -5.33302 0
M  V30 1994 O 193.793 1.43119 -5.52153 0
M  V30 1995 O 192.727 -0.447281 -6.00236 0
M  V30 1996 H 196.553 -1.21163 -2.78484 0
M  V30 1997 H 194.138 -0.655725 -1.34241 0
M  V30 1998 H 196.02 0.839753 -4.12948 0
M  V30 1999 H 194.695 1.22354 -2.99685 0
M  V30 2000 H 193.602 -1.01362 -3.60106 0
M  V30 2001 H 194.935 -1.31465 -4.74318 0
M  V30 2002 N 196.587 1.43421 -0.653314 0
M  V30 2003 C 197.998 1.85065 -0.246537 0
M  V30 2004 C 198.349 1.54688 1.2069 0
M  V30 2005 O 197.474 0.995896 1.92122 0
M  V30 2006 C 198.069 3.35922 -0.440666 0
M  V30 2007 C 196.628 3.76297 -0.0882064 0
M  V30 2008 C 195.775 2.67147 -0.743484 0
M  V30 2009 H 198.726 1.33572 -0.856979 0
M  V30 2010 H 198.747 3.79204 0.313798 0
M  V30 2011 H 198.259 3.58 -1.49858 0
M  V30 2012 H 196.36 3.5983 0.96711 0
M  V30 2013 H 196.473 4.76338 -0.513738 0
M  V30 2014 H 194.837 2.54086 -0.176712 0
M  V30 2015 H 195.62 2.92053 -1.80443 0
M  V30 2016 N 198.065 0.39524 1.52563 0
M  V30 2017 C 199.481 0.0454682 1.59535 0
M  V30 2018 C 199.681 -1.44056 1.4089 0
M  V30 2019 O 198.737 -2.20579 1.22888 0
M  V30 2020 C 200.05 0.527963 2.96029 0
M  V30 2021 C 201.598 0.484733 3.09224 0
M  V30 2022 C 202.073 0.943512 4.48176 0
M  V30 2023 N 203.564 0.899765 4.54377 0
M  V30 2024 C 204.299 1.22609 5.60138 0
M  V30 2025 N 203.795 1.62319 6.73516 0
M  V30 2026 N 205.588 1.14696 5.50274 0
M  V30 2027 H 197.739 1.36261 1.62931 0
M  V30 2028 H 200.002 0.558887 0.765735 0
M  V30 2029 H 199.708 1.56607 3.14908 0
M  V30 2030 H 199.582 -0.0698056 3.77135 0
M  V30 2031 H 201.969 -0.544298 2.90037 0
M  V30 2032 H 202.05 1.11838 2.30056 0
M  V30 2033 H 201.694 1.9708 4.68104 0
M  V30 2034 H 201.624 0.286817 5.25818 0
M  V30 2035 H 204.115 0.607632 3.72983 0
M  V30 2036 H 204.428 1.85567 7.5019 0
M  V30 2037 H 202.773 1.66211 6.74833 0
M  V30 2038 H 205.964 0.835701 4.6058 0
M  V30 2039 H 206.137 1.40459 6.32594 0
M  V30 2040 N 199.544 -1.57102 0.125237 0
M  V30 2041 C 200.474 -2.18659 -0.819174 0
M  V30 2042 C 201.455 -1.12843 -1.27281 0
M  V30 2043 O 202.64 -1.41104 -1.33429 0
M  V30 2044 C 199.77 -2.79096 -2.06695 0
M  V30 2045 C 198.724 -3.90548 -1.75088 0
M  V30 2046 C 198.05 -4.37821 -3.06948 0
M  V30 2047 C 199.35 -5.12356 -1.01435 0
M  V30 2048 H 201.044 -2.9783 -0.306202 0
M  V30 2049 H 198.59 -1.4326 -0.145839 0
M  V30 2050 H 200.543 -3.2082 -2.73226 0
M  V30 2051 H 199.267 -1.97223 -2.60328 0
M  V30 2052 H 197.926 -3.49409 -1.10944 0
M  V30 2053 H 197.574 -3.52799 -3.58527 0
M  V30 2054 H 197.274 -5.12982 -2.86571 0
M  V30 2055 H 198.798 -4.822 -3.74587 0
M  V30 2056 H 200.212 -5.5106 -1.58132 0
M  V30 2057 H 198.609 -5.9314 -0.911319 0
M  V30 2058 H 199.679 -4.849 -0.00218681 0
M  V30 2059 N 201.022 0.148545 -1.56898 0
M  V30 2060 C 202.299 0.890019 -1.74178 0
M  V30 2061 C 202.679 1.99407 -0.692839 0
M  V30 2062 O 202.027 2.26671 0.288505 0
M  V30 2063 C 202.237 1.43389 -3.18183 0
M  V30 2064 C 203.585 1.89791 -3.79822 0
M  V30 2065 O 204.609 1.53134 -3.21603 0
M  V30 2066 O 203.468 2.57387 -4.82093 0
M  V30 2067 H 200.562 0.420496 -0.712118 0
M  V30 2068 H 203.108 0.134591 -1.69165 0
M  V30 2069 H 201.88 0.640383 -3.86024 0
M  V30 2070 H 201.503 2.25287 -3.27615 0
M  V30 2071 N 202.5 1.5196 0.417844 0
M  V30 2072 C 203.746 1.65836 1.16732 0
M  V30 2073 C 204.079 0.382881 1.90388 0
M  V30 2074 O 203.354 -0.618368 1.84408 0
M  V30 2075 C 203.637 2.87466 2.16876 0
M  V30 2076 C 203.49 4.25041 1.47174 0
M  V30 2077 C 204.809 3.04613 3.17646 0
M  V30 2078 H 201.928 0.603515 0.423011 0
M  V30 2079 H 204.57 1.84494 0.454105 0
M  V30 2080 H 202.72 2.71689 2.777 0
M  V30 2081 H 204.392 4.52527 0.895376 0
M  V30 2082 H 202.635 4.26843 0.773806 0
M  V30 2083 H 203.306 5.06176 2.20204 0
M  V30 2084 H 205.782 3.1923 2.66892 0
M  V30 2085 H 204.658 3.91247 3.8499 0
M  V30 2086 H 204.919 2.17541 3.84874 0
M  V30 2087 N 203.978 -0.674533 1.42435 0
M  V30 2088 C 204.908 -1.80009 1.48724 0
M  V30 2089 C 205.889 -1.6659 0.343793 0
M  V30 2090 O 207.074 -1.86007 0.558137 0
M  V30 2091 C 204.204 -3.18306 1.38919 0
M  V30 2092 C 203.158 -3.46461 2.51294 0
M  V30 2093 C 202.484 -4.84335 2.26547 0
M  V30 2094 C 203.784 -3.43328 3.93603 0
M  V30 2095 H 205.478 -1.75004 2.42928 0
M  V30 2096 H 203.024 -0.840533 1.16923 0
M  V30 2097 H 204.977 -3.9678 1.41927 0
M  V30 2098 H 203.701 -3.2399 0.412094 0
M  V30 2099 H 202.36 -2.70348 2.47604 0
M  V30 2100 H 202.008 -4.86669 1.2713 0
M  V30 2101 H 201.708 -5.04136 3.01861 0
M  V30 2102 H 203.232 -5.65094 2.31304 0
M  V30 2103 H 204.646 -4.11772 3.98894 0
M  V30 2104 H 203.043 -3.74664 4.68771 0
M  V30 2105 H 204.113 -2.41897 4.20255 0
M  V30 2106 N 205.456 -1.28612 -0.910864 0
M  V30 2107 C 206.705 -1.15311 -1.65488 0
M  V30 2108 C 207.018 0.296999 -1.93332 0
M  V30 2109 O 208.224 0.551168 -2.65847 0
M  V30 2110 C 206.68 -2.01599 -2.98137 0
M  V30 2111 C 206.288 -3.51367 -2.7793 0
M  V30 2112 C 208.032 -1.96993 -3.76024 0
M  V30 2113 C 205.939 -4.29797 -4.06237 0
M  V30 2114 H 204.869 -0.42796 -0.620779 0
M  V30 2115 H 207.52 -1.53166 -1.01057 0
M  V30 2116 H 205.902 -1.56603 -3.63719 0
M  V30 2117 H 207.076 -4.0434 -2.21011 0
M  V30 2118 H 205.391 -3.57529 -2.13452 0
M  V30 2119 H 207.988 -2.52856 -4.71135 0
M  V30 2120 H 208.331 -0.94733 -4.05378 0
M  V30 2121 H 208.864 -2.39973 -3.17266 0
M  V30 2122 H 205.603 -5.32648 -3.82055 0
M  V30 2123 H 205.123 -3.81596 -4.62757 0
M  V30 2124 H 206.802 -4.39869 -4.74473 0
M  V30 2125 N 206.934 1.1197 -1.10907 0
M  V30 2126 C 207.882 2.19927 -0.757303 0
M  V30 2127 C 208.876 1.67564 0.248747 0
M  V30 2128 O 210.082 1.79672 0.108605 0
M  V30 2129 H 206.457 0.716925 -0.226987 0
M  V30 2130 H 208.428 2.46847 -1.67658 0
M  V30 2131 C 207.177 3.47061 -0.210671 0
M  V30 2132 H 206.5 3.87703 -0.976049 0
M  V30 2133 H 207.94 4.24 -0.0026584 0
M  V30 2134 C 206.399 3.19864 1.05777 0
M  V30 2135 O 206.929 3.40049 2.13845 0
M  V30 2136 N 205.135 2.73636 0.978349 0
M  V30 2137 H 204.682 2.5741 0.0988246 0
M  V30 2138 H 204.64 2.55815 1.82773 0
M  V30 2139 N 208.412 0.89855 1.29475 0
M  V30 2140 C 209.36 0.365253 2.29714 0
M  V30 2141 C 210.354 -0.534993 1.6073 0
M  V30 2142 O 211.56 -0.417921 1.75081 0
M  V30 2143 H 207.935 0.0994853 0.74539 0
M  V30 2144 H 209.906 1.22406 2.72138 0
M  V30 2145 C 208.655 -0.393159 3.4547 0
M  V30 2146 H 207.978 0.290332 3.98744 0
M  V30 2147 H 209.418 -0.731189 4.17648 0
M  V30 2148 C 207.877 -1.59539 2.9673 0
M  V30 2149 O 208.407 -2.69469 2.97908 0
M  V30 2150 N 206.613 -1.43716 2.52575 0
M  V30 2151 H 206.16 -0.542828 2.51816 0
M  V30 2152 H 206.118 -2.24288 2.20323 0
M  V30 2153 N 209.89 -1.43072 0.660911 0
M  V30 2154 C 210.853 -2.29194 -0.0166406 0
M  V30 2155 C 211.853 -1.42609 -0.742912 0
M  V30 2156 O 213.043 -1.64155 -0.583004 0
M  V30 2157 C 210.175 -3.24831 -1.0343 0
M  V30 2158 H 211.368 -2.90596 0.741208 0
M  V30 2159 H 208.921 -1.5048 0.422532 0
M  V30 2160 H 209.656 -2.68339 -1.82111 0
M  V30 2161 H 209.441 -3.88676 -0.517082 0
M  V30 2162 H 210.931 -3.89451 -1.50723 0
M  V30 2163 N 211.368 -0.403325 -1.52352 0
M  V30 2164 C 212.616 0.174003 -2.0135 0
M  V30 2165 C 212.937 1.46139 -1.29106 0
M  V30 2166 O 212.207 1.91448 -0.415253 0
M  V30 2167 H 210.787 0.0672911 -0.743963 0
M  V30 2168 H 213.449 -0.538235 -1.87321 0
M  V30 2169 H 212.545 0.374254 -3.09848 0
M  V30 2170 N 212.846 1.57033 -0.133567 0
M  V30 2171 C 214.095 1.94861 0.520768 0
M  V30 2172 C 214.408 1.02012 1.66892 0
M  V30 2173 O 215.614 1.29365 2.38699 0
M  V30 2174 C 214.07 3.46362 0.977809 0
M  V30 2175 C 213.678 4.47773 -0.142674 0
M  V30 2176 C 215.422 3.93083 1.60269 0
M  V30 2177 C 213.329 5.90468 0.331883 0
M  V30 2178 H 212.259 0.727453 0.198315 0
M  V30 2179 H 214.91 1.82227 -0.215759 0
M  V30 2180 H 213.292 3.54282 1.7692 0
M  V30 2181 H 214.466 4.51536 -0.919317 0
M  V30 2182 H 212.781 4.10891 -0.675124 0
M  V30 2183 H 215.378 4.97121 1.96914 0
M  V30 2184 H 215.721 3.33876 2.48662 0
M  V30 2185 H 216.254 3.88025 0.876453 0
M  V30 2186 H 212.993 6.53463 -0.516341 0
M  V30 2187 H 212.513 5.90094 1.07469 0
M  V30 2188 H 214.192 6.42179 0.788332 0
M  V30 2189 N 214.325 -0.140222 1.56975 0
M  V30 2190 C 215.572 -0.851687 1.83719 0
M  V30 2191 C 215.9 -1.80862 0.715485 0
M  V30 2192 O 215.155 -1.93464 -0.294956 0
M  V30 2193 C 215.454 -1.65386 3.16832 0
M  V30 2194 C 215.12 -0.843112 4.42947 0
M  V30 2195 C 213.782 -0.619464 4.77196 0
M  V30 2196 C 216.134 -0.276582 5.20466 0
M  V30 2197 C 213.462 0.181312 5.8642 0
M  V30 2198 C 215.814 0.51127 6.30531 0
M  V30 2199 C 214.478 0.745432 6.63325 0
M  V30 2200 H 213.748 -0.311654 0.672274 0
M  V30 2201 H 216.395 -0.115006 1.91154 0
M  V30 2202 H 214.7 -2.46084 3.04877 0
M  V30 2203 H 216.397 -2.20793 3.34741 0
M  V30 2204 H 212.987 -1.0275 4.16101 0
M  V30 2205 H 217.171 -0.436632 4.94376 0
M  V30 2206 H 212.427 0.372165 6.10266 0
M  V30 2207 H 216.601 0.957354 6.89788 0
M  V30 2208 H 214.228 1.36778 7.47794 0
M  V30 2209 N 215.803 -1.52179 -0.40978 0
M  V30 2210 C 216.735 -1.71703 -1.51825 0
M  V30 2211 C 217.748 -0.597445 -1.51441 0
M  V30 2212 O 218.937 -0.872582 -1.55719 0
M  V30 2213 C 216.037 -1.74171 -2.90719 0
M  V30 2214 C 215.21 -3.03156 -3.15302 0
M  V30 2215 C 214.269 -2.97445 -4.34065 0
M  V30 2216 O 213.295 -3.71352 -4.31377 0
M  V30 2217 N 214.497 -2.15191 -5.39141 0
M  V30 2218 H 217.262 -2.67334 -1.35472 0
M  V30 2219 H 214.823 -1.50409 -0.599069 0
M  V30 2220 H 216.815 -1.67884 -3.68235 0
M  V30 2221 H 215.385 -0.860166 -3.00533 0
M  V30 2222 H 214.605 -3.23097 -2.25836 0
M  V30 2223 H 215.893 -3.88484 -3.28569 0
M  V30 2224 H 215.291 -1.54573 -5.44173 0
M  V30 2225 H 213.848 -2.1476 -6.15403 0
M  V30 2226 N 217.281 0.66697 -1.42791 0
M  V30 2227 C 218.521 1.43892 -1.4517 0
M  V30 2228 C 218.885 1.91877 -0.0687551 0
M  V30 2229 O 220.086 2.6878 0.0327455 0
M  V30 2230 C 218.357 2.59839 -2.45395 0
M  V30 2231 S 219.916 3.48572 -2.66539 0
M  V30 2232 H 216.734 0.491356 -0.513897 0
M  V30 2233 H 219.336 0.775656 -1.79454 0
M  V30 2234 H 218.04 2.22838 -3.44632 0
M  V30 2235 H 217.571 3.3103 -2.12562 0
M  V30 2236 H 219.586 4.56094 -1.95429 0
M  V30 2237 N 218.759 1.29093 0.90403 0
M  V30 2238 C 220.17 1.15186 1.46932 0
M  V30 2239 C 220.521 -0.254587 1.94541 0
M  V30 2240 O 219.646 -1.14972 1.83332 0
M  V30 2241 C 220.241 2.08492 2.67051 0
M  V30 2242 C 218.8 1.98621 3.19729 0
M  V30 2243 C 217.947 1.9967 1.92425 0
M  V30 2244 H 220.898 1.41641 0.715789 0
M  V30 2245 H 220.919 1.65461 3.42641 0
M  V30 2246 H 220.431 3.10847 2.3237 0
M  V30 2247 H 218.532 0.993389 3.59114 0
M  V30 2248 H 218.645 2.86068 3.8432 0
M  V30 2249 H 217.009 1.44208 2.09943 0
M  V30 2250 H 217.792 3.03721 1.60026 0
M  V30 2251 N 220.237 -1.11381 1.11499 0
M  V30 2252 C 221.467 -1.86663 0.885464 0
M  V30 2253 C 221.875 -1.80464 -0.568281 0
M  V30 2254 O 221.218 -1.18445 -1.40415 0
M  V30 2255 C 221.28 -3.36337 1.26956 0
M  V30 2256 C 220.944 -3.66304 2.73259 0
M  V30 2257 C 221.941 -3.63733 3.71476 0
M  V30 2258 C 219.626 -3.9529 3.09921 0
M  V30 2259 C 221.62 -3.89725 5.04374 0
M  V30 2260 C 219.307 -4.20941 4.43004 0
M  V30 2261 C 220.305 -4.18147 5.40039 0
M  V30 2262 O 219.993 -4.43153 6.70724 0
M  V30 2263 H 219.725 -0.597114 0.316908 0
M  V30 2264 H 222.279 -1.41782 1.48617 0
M  V30 2265 H 220.509 -3.81826 0.611999 0
M  V30 2266 H 222.198 -3.92986 1.01573 0
M  V30 2267 H 222.964 -3.41389 3.44498 0
M  V30 2268 H 218.843 -3.966 2.35009 0
M  V30 2269 H 222.387 -3.8746 5.80104 0
M  V30 2270 H 218.284 -4.42761 4.69716 0
M  V30 2271 H 219.052 -4.60717 6.76522 0
M  V30 2272 N 221.715 -0.905404 -1.28997 0
M  V30 2273 C 222.648 -0.331959 -2.25773 0
M  V30 2274 C 223.626 0.559099 -1.52685 0
M  V30 2275 O 224.81 0.50463 -1.8162 0
M  V30 2276 C 221.937 0.526276 -3.34586 0
M  V30 2277 C 220.983 -0.298249 -4.25456 0
M  V30 2278 S 221.816 -1.69968 -5.0781 0
M  V30 2279 C 222.972 -0.848519 -6.20122 0
M  V30 2280 H 223.205 -1.15222 -2.74064 0
M  V30 2281 H 220.738 -0.706112 -1.37308 0
M  V30 2282 H 222.696 1.01565 -3.97737 0
M  V30 2283 H 221.357 1.32084 -2.84978 0
M  V30 2284 H 220.55 0.357607 -5.0273 0
M  V30 2285 H 220.152 -0.720968 -3.66985 0
M  V30 2286 H 222.444 -0.0744325 -6.77459 0
M  V30 2287 H 223.387 -1.59353 -6.89937 0
M  V30 2288 H 223.795 -0.400383 -5.63078 0
M  V30 2289 N 223.193 1.4272 -0.668489 0
M  V30 2290 C 224.14 2.30796 0.0137489 0
M  V30 2291 C 225.11 1.4561 0.799177 0
M  V30 2292 O 226.295 1.74453 0.772702 0
M  V30 2293 C 223.435 3.31377 0.963507 0
M  V30 2294 C 222.548 4.31655 0.172569 0
M  V30 2295 C 221.683 5.19312 1.1175 0
M  V30 2296 C 220.722 6.11274 0.317886 0
M  V30 2297 N 219.859 6.91504 1.2152 0
M  V30 2298 H 224.699 2.88585 -0.743161 0
M  V30 2299 H 222.236 1.42154 -0.378226 0
M  V30 2300 H 224.194 3.88214 1.52792 0
M  V30 2301 H 222.824 2.75202 1.68712 0
M  V30 2302 H 221.876 3.76988 -0.508374 0
M  V30 2303 H 223.188 4.96779 -0.448527 0
M  V30 2304 H 222.342 5.80851 1.75206 0
M  V30 2305 H 221.081 4.5435 1.77249 0
M  V30 2306 H 220.086 5.48809 -0.329918 0
M  V30 2307 H 221.311 6.78283 -0.332917 0
M  V30 2308 H 219.257 6.29176 1.85671 0
M  V30 2309 H 219.174 7.53209 0.649036 0
M  V30 2310 H 220.442 7.57535 1.83742 0
M  V30 2311 N 224.671 0.411399 1.52136 0
M  V30 2312 C 225.899 -0.163076 2.06256 0
M  V30 2313 C 226.314 -1.3867 1.28125 0
M  V30 2314 O 225.671 -1.79423 0.333721 0
M  V30 2315 C 225.722 -0.511252 3.57867 0
M  V30 2316 O 225.443 0.66378 4.33042 0
M  V30 2317 C 226.944 -1.13921 4.28412 0
M  V30 2318 H 224.164 -0.0193897 0.67072 0
M  V30 2319 H 226.708 0.583007 1.96013 0
M  V30 2320 H 224.863 -1.20723 3.6811 0
M  V30 2321 H 225.277 0.372601 5.23175 0
M  V30 2322 H 226.751 -1.33302 5.35663 0
M  V30 2323 H 227.228 -2.11296 3.85033 0
M  V30 2324 H 227.834 -0.483373 4.22544 0
M  V30 2325 N 226.149 -1.5696 0.141893 0
M  V30 2326 C 227.059 -2.20066 -0.812905 0
M  V30 2327 C 228.075 -1.18344 -1.27557 0
M  V30 2328 O 229.251 -1.50902 -1.33381 0
M  V30 2329 C 226.316 -2.80583 -2.03652 0
M  V30 2330 C 225.377 -3.97414 -1.62359 0
M  V30 2331 C 224.61 -4.55036 -2.78887 0
M  V30 2332 O 224.833 -4.11538 -3.94959 0
M  V30 2333 O 223.767 -5.45376 -2.54653 0
M  V30 2334 H 227.593 -3.02157 -0.305746 0
M  V30 2335 H 225.178 -1.49159 -0.0848799 0
M  V30 2336 H 227.06 -3.19067 -2.75272 0
M  V30 2337 H 225.735 -2.01508 -2.5333 0
M  V30 2338 H 224.642 -3.63656 -0.877775 0
M  V30 2339 H 225.975 -4.77994 -1.17401 0
M  V30 2340 N 227.627 0.131896 -1.57047 0
M  V30 2341 C 228.904 0.871495 -1.75112 0
M  V30 2342 C 229.284 1.9866 -0.713949 0
M  V30 2343 O 228.632 2.26965 0.264447 0
M  V30 2344 C 228.842 1.40007 -3.19686 0
M  V30 2345 C 230.19 1.85752 -3.81813 0
M  V30 2346 O 231.214 1.49715 -3.23209 0
M  V30 2347 O 230.073 2.5226 -4.84796 0
M  V30 2348 H 227.167 0.412919 -0.716538 0
M  V30 2349 H 229.713 0.116641 -1.69299 0
M  V30 2350 H 228.485 0.599404 -3.86682 0
M  V30 2351 H 228.108 2.218 -3.29986 0
M  V30 2352 N 229.106 1.52395 0.401703 0
M  V30 2353 C 230.354 1.66488 1.14569 0
M  V30 2354 C 230.675 0.400897 1.90835 0
M  V30 2355 O 229.945 -0.584415 1.8698 0
M  V30 2356 H 228.525 0.613672 0.425929 0
M  V30 2357 H 231.187 1.89464 0.457093 0
M  V30 2358 H 230.283 2.50942 1.85566 0
M  V30 2359 N 230.584 -0.659388 1.43143 0
M  V30 2360 C 231.831 -1.41935 1.44433 0
M  V30 2361 C 232.159 -1.94387 0.0663522 0
M  V30 2362 O 231.414 -1.72314 -0.927706 0
M  V30 2363 C 231.713 -2.62206 2.42864 0
M  V30 2364 C 231.379 -2.28208 3.88886 0
M  V30 2365 C 230.041 -2.18647 4.28657 0
M  V30 2366 C 232.393 -2.00887 4.8093 0
M  V30 2367 C 229.721 -1.79914 5.58433 0
M  V30 2368 C 232.073 -1.63653 6.11065 0
M  V30 2369 C 230.737 -1.52614 6.49819 0
M  V30 2370 H 230.007 -0.519376 0.528517 0
M  V30 2371 H 232.654 -0.750453 1.76183 0
M  V30 2372 H 230.959 -3.34199 2.04495 0
M  V30 2373 H 232.656 -3.2041 2.41119 0
M  V30 2374 H 229.246 -2.36557 3.57406 0
M  V30 2375 H 233.43 -2.07198 4.5098 0
M  V30 2376 H 228.686 -1.69948 5.87305 0
M  V30 2377 H 232.86 -1.41543 6.81864 0
M  V30 2378 H 230.487 -1.22371 7.50286 0
M  V30 2379 N 232.062 -1.29571 -0.897171 0
M  V30 2380 C 232.972 -1.16808 -2.03453 0
M  V30 2381 C 233.988 -0.0907471 -1.73763 0
M  V30 2382 O 235.164 -0.303312 -1.99103 0
M  V30 2383 C 232.229 -0.848264 -3.36163 0
M  V30 2384 C 231.29 -2.0097 -3.79354 0
M  V30 2385 C 230.523 -1.70505 -5.05731 0
M  V30 2386 O 230.746 -0.62718 -5.66941 0
M  V30 2387 O 229.68 -2.5538 -5.45036 0
M  V30 2388 H 233.506 -2.12325 -2.17144 0
M  V30 2389 H 231.091 -1.09047 -1.02123 0
M  V30 2390 H 232.973 -0.684581 -4.15802 0
M  V30 2391 H 231.648 0.0771071 -3.23608 0
M  V30 2392 H 230.555 -2.22863 -3.00471 0
M  V30 2393 H 231.888 -2.91636 -3.96496 0
M  V30 2394 N 233.54 1.10788 -1.12088 0
M  V30 2395 C 234.473 2.16237 -0.729168 0
M  V30 2396 C 235.451 1.60207 0.277921 0
M  V30 2397 O 236.635 1.87707 0.172737 0
M  V30 2398 C 233.762 3.38609 -0.0786848 0
M  V30 2399 C 232.808 4.13322 -1.05201 0
M  V30 2400 S 233.641 4.69371 -2.57781 0
M  V30 2401 C 234.797 5.95058 -1.94053 0
M  V30 2402 H 235.03 2.4913 -1.62239 0
M  V30 2403 H 232.563 1.22519 -0.939603 0
M  V30 2404 H 234.521 4.09473 0.290254 0
M  V30 2405 H 233.182 3.03962 0.791593 0
M  V30 2406 H 232.375 5.01051 -0.544433 0
M  V30 2407 H 231.977 3.48251 -1.36371 0
M  V30 2408 H 234.269 6.65278 -1.28107 0
M  V30 2409 H 235.212 6.50472 -2.79807 0
M  V30 2410 H 235.62 5.46918 -1.39787 0
M  V30 2411 N 235.018 0.912232 1.28515 0
M  V30 2412 C 235.95 0.35676 2.26406 0
M  V30 2413 C 236.963 -0.503933 1.54804 0
M  V30 2414 O 238.152 -0.319059 1.75625 0
M  V30 2415 C 235.252 -0.508825 3.35058 0
M  V30 2416 C 234.425 0.329007 4.36161 0
M  V30 2417 C 233.484 -0.471422 5.24084 0
M  V30 2418 O 232.51 0.115482 5.69083 0
M  V30 2419 N 233.712 -1.77479 5.52704 0
M  V30 2420 H 236.477 1.19818 2.74707 0
M  V30 2421 H 234.038 0.778022 1.4198 0
M  V30 2422 H 236.03 -1.051 3.90815 0
M  V30 2423 H 234.6 -1.25095 2.86478 0
M  V30 2424 H 233.82 1.05256 3.79888 0
M  V30 2425 H 235.108 0.90234 5.00735 0
M  V30 2426 H 234.506 -2.27417 5.17975 0
M  V30 2427 H 233.063 -2.26382 6.11224 0
M  V30 2428 N 236.496 -1.42363 0.676048 0
M  V30 2429 C 237.743 -2.01522 0.19883 0
M  V30 2430 C 238.071 -1.53456 -1.19505 0
M  V30 2431 O 237.326 -0.727967 -1.81657 0
M  V30 2432 C 237.625 -3.56929 0.183431 0
M  V30 2433 C 237.291 -4.24431 1.52215 0
M  V30 2434 C 235.953 -4.42585 1.8887 0
M  V30 2435 C 238.305 -4.62459 2.40377 0
M  V30 2436 C 235.633 -4.96039 3.13309 0
M  V30 2437 C 237.985 -5.17294 3.64129 0
M  V30 2438 C 236.649 -5.33661 4.00951 0
M  V30 2439 H 235.919 -0.737419 0.0727571 0
M  V30 2440 H 238.566 -1.70531 0.871281 0
M  V30 2441 H 236.871 -3.87594 -0.572532 0
M  V30 2442 H 238.568 -4.00486 -0.203035 0
M  V30 2443 H 235.158 -4.10661 1.22701 0
M  V30 2444 H 239.342 -4.48105 2.13343 0
M  V30 2445 H 234.598 -5.06896 3.41857 0
M  V30 2446 H 238.772 -5.45704 4.32644 0
M  V30 2447 H 236.399 -5.74845 4.9745 0
M  V30 2448 N 237.974 -0.419461 -1.51915 0
M  V30 2449 C 239.222 0.152637 -2.01523 0
M  V30 2450 C 239.543 1.44762 -1.30649 0
M  V30 2451 O 238.813 1.90997 -0.435535 0
M  V30 2452 H 237.393 0.0593966 -0.744635 0
M  V30 2453 H 240.055 -0.558073 -1.86739 0
M  V30 2454 H 239.151 0.341369 -3.10227 0
M  V30 2455 N 239.452 1.56882 -0.150215 0
M  V30 2456 C 240.698 1.96518 0.500834 0
M  V30 2457 C 241.031 1.03527 1.64304 0
M  V30 2458 O 240.306 0.0782751 1.94342 0
M  V30 2459 C 240.589 3.45822 1.00395 0
M  V30 2460 C 240.442 4.49591 -0.136983 0
M  V30 2461 C 241.761 3.97704 1.88467 0
M  V30 2462 H 238.88 0.714535 0.18058 0
M  V30 2463 H 241.522 1.88577 -0.232091 0
M  V30 2464 H 239.672 3.5272 1.62851 0
M  V30 2465 H 241.344 4.5477 -0.77343 0
M  V30 2466 H 239.587 4.26441 -0.795652 0
M  V30 2467 H 240.258 5.51402 0.256815 0
M  V30 2468 H 242.734 3.93304 1.35834 0
M  V30 2469 H 241.61 5.0263 2.20578 0
M  V30 2470 H 241.871 3.40252 2.82279 0
M  V30 2471 N 240.93 -0.123565 1.57115 0
M  V30 2472 C 241.878 -1.17082 2.00984 0
M  V30 2473 C 242.872 -1.43136 0.906009 0
M  V30 2474 O 244.078 -1.43152 1.09121 0
M  V30 2475 H 240.453 -0.394653 0.64012 0
M  V30 2476 H 242.424 -0.774292 2.88179 0
M  V30 2477 C 241.173 -2.49057 2.42623 0
M  V30 2478 H 240.496 -2.29846 3.27125 0
M  V30 2479 H 241.936 -3.20906 2.7712 0
M  V30 2480 C 240.395 -3.11305 1.28805 0
M  V30 2481 O 240.925 -3.97171 0.60153 0
M  V30 2482 N 239.131 -2.71111 1.04628 0
M  V30 2483 H 238.678 -2.01382 1.60634 0
M  V30 2484 H 238.636 -3.1309 0.286685 0
M  V30 2485 N 242.408 -1.52605 -0.393616 0
M  V30 2486 C 243.358 -1.73436 -1.48 0
M  V30 2487 C 244.342 -0.588386 -1.49756 0
M  V30 2488 O 245.534 -0.846047 -1.5547 0
M  V30 2489 C 242.663 -1.90247 -2.85764 0
M  V30 2490 C 241.749 -3.10763 -2.88595 0
M  V30 2491 N 242.14 -4.33196 -2.61103 0
M  V30 2492 C 240.438 -3.10914 -3.19763 0
M  V30 2493 C 241.139 -5.1477 -2.70899 0
M  V30 2494 N 240.115 -4.50356 -3.04435 0
M  V30 2495 H 243.917 -2.65727 -1.25563 0
M  V30 2496 H 241.431 -1.5085 -0.601513 0
M  V30 2497 H 243.428 -2.03291 -3.63976 0
M  V30 2498 H 242.088 -0.991663 -3.09186 0
M  V30 2499 H 243.099 -4.61408 -2.35209 0
M  V30 2500 H 239.776 -2.29626 -3.4868 0
M  V30 2501 H 241.166 -6.22355 -2.53227 0
M  V30 2502 N 243.887 0.651787 -1.4349 0
M  V30 2503 C 244.817 1.77621 -1.51569 0
M  V30 2504 C 245.798 1.66022 -0.370253 0
M  V30 2505 O 246.983 1.85095 -0.587658 0
M  V30 2506 C 244.113 3.16056 -1.43966 0
M  V30 2507 C 243.067 3.4242 -2.56774 0
M  V30 2508 C 242.393 4.8067 -2.34223 0
M  V30 2509 C 243.693 3.37023 -3.99015 0
M  V30 2510 H 245.387 1.71117 -2.45681 0
M  V30 2511 H 242.933 0.821825 -1.18246 0
M  V30 2512 H 244.886 3.94472 -1.48221 0
M  V30 2513 H 243.61 3.23293 -0.463586 0
M  V30 2514 H 242.269 2.66375 -2.51873 0
M  V30 2515 H 241.917 4.84585 -1.34856 0
M  V30 2516 H 241.617 4.9927 -3.09844 0
M  V30 2517 H 243.141 5.61342 -2.40265 0
M  V30 2518 H 244.555 4.05374 -4.05395 0
M  V30 2519 H 242.952 3.67159 -4.74673 0
M  V30 2520 H 244.022 2.3518 -4.2405 0
M  V30 2521 N 245.365 1.30045 0.890287 0
M  V30 2522 C 246.613 1.18327 1.63839 0
M  V30 2523 C 246.934 -0.263455 1.93212 0
M  V30 2524 O 246.204 -1.17856 1.56482 0
M  V30 2525 H 244.784 0.434933 0.607324 0
M  V30 2526 H 247.446 1.631 1.06698 0
M  V30 2527 H 246.542 1.74024 2.59079 0
M  V30 2528 N 246.843 -1.10192 1.12674 0
M  V30 2529 C 247.793 -2.14754 0.765801 0
M  V30 2530 C 248.777 -1.59154 -0.236409 0
M  V30 2531 O 249.969 -1.76951 -0.0415261 0
M  V30 2532 C 247.098 -3.42563 0.224827 0
M  V30 2533 C 246.184 -4.05091 1.25548 0
M  V30 2534 N 246.575 -4.42287 2.4539 0
M  V30 2535 C 244.873 -4.32186 1.10142 0
M  V30 2536 C 245.574 -4.91441 3.11224 0
M  V30 2537 N 244.55 -4.88405 2.38666 0
M  V30 2538 H 248.352 -2.41309 1.67772 0
M  V30 2539 H 245.866 -1.27339 1.00789 0
M  V30 2540 H 247.863 -4.16868 -0.0519578 0
M  V30 2541 H 246.523 -3.17467 -0.681515 0
M  V30 2542 H 247.534 -4.33902 2.82754 0
M  V30 2543 H 244.211 -4.16735 0.252587 0
M  V30 2544 H 245.601 -5.29749 4.13298 0
M  V30 2545 N 248.321 -0.919034 -1.28029 0
M  V30 2546 C 249.568 -0.554934 -1.94748 0
M  V30 2547 C 249.896 0.90231 -1.72304 0
M  V30 2548 O 249.151 1.65767 -1.04018 0
M  V30 2549 C 249.45 -0.816855 -3.4794 0
M  V30 2550 C 249.116 -2.25448 -3.90492 0
M  V30 2551 C 247.778 -2.64752 -4.01821 0
M  V30 2552 C 250.13 -3.18977 -4.12193 0
M  V30 2553 C 247.458 -3.96727 -4.32232 0
M  V30 2554 C 249.81 -4.50523 -4.44086 0
M  V30 2555 C 248.474 -4.89673 -4.53626 0
M  V30 2556 H 247.744 -0.203065 -0.712633 0
M  V30 2557 H 250.391 -1.16136 -1.52265 0
M  V30 2558 H 248.696 -0.127677 -3.91592 0
M  V30 2559 H 250.393 -0.514238 -3.97689 0
M  V30 2560 H 246.983 -1.93952 -3.82205 0
M  V30 2561 H 251.167 -2.89817 -4.02889 0
M  V30 2562 H 246.423 -4.26754 -4.37825 0
M  V30 2563 H 250.597 -5.23005 -4.59825 0
M  V30 2564 H 248.224 -5.91969 -4.76946 0
M  V30 2565 N 249.799 1.42003 -0.683588 0
M  V30 2566 C 250.729 2.33487 -0.024866 0
M  V30 2567 C 251.71 1.51163 0.779975 0
M  V30 2568 O 252.895 1.79739 0.735362 0
M  V30 2569 C 250.025 3.3487 0.920836 0
M  V30 2570 C 248.979 4.27414 0.223958 0
M  V30 2571 C 248.305 5.19074 1.2832 0
M  V30 2572 C 249.605 5.14445 -0.90242 0
M  V30 2573 H 251.299 2.88819 -0.788921 0
M  V30 2574 H 248.845 1.38873 -0.38083 0
M  V30 2575 H 250.798 3.97787 1.39081 0
M  V30 2576 H 249.522 2.77861 1.71642 0
M  V30 2577 H 248.181 3.65904 -0.225864 0
M  V30 2578 H 247.829 4.58387 2.071 0
M  V30 2579 H 247.529 5.81822 0.821995 0
M  V30 2580 H 249.053 5.84867 1.75392 0
M  V30 2581 H 250.467 5.70998 -0.513272 0
M  V30 2582 H 248.864 5.86072 -1.28997 0
M  V30 2583 H 249.934 4.52322 -1.74737 0
M  V30 2584 N 251.277 0.427512 1.51691 0
M  V30 2585 C 252.207 -0.3796 2.30394 0
M  V30 2586 C 253.188 -1.02982 1.35384 0
M  V30 2587 O 254.373 -1.03534 1.643 0
M  V30 2588 C 251.503 -1.48649 3.1388 0
M  V30 2589 C 250.457 -0.960294 4.17088 0
M  V30 2590 C 249.783 -2.16219 4.89033 0
M  V30 2591 C 251.083 -0.00153679 5.223 0
M  V30 2592 H 252.777 0.277164 2.98114 0
M  V30 2593 H 250.323 0.134739 1.43368 0
M  V30 2594 H 252.276 -2.05826 3.67714 0
M  V30 2595 H 251 -2.1714 2.43962 0
M  V30 2596 H 249.659 -0.410806 3.64291 0
M  V30 2597 H 249.307 -2.83307 4.15628 0
M  V30 2598 H 249.007 -1.81654 5.58816 0
M  V30 2599 H 250.531 -2.73968 5.45687 0
M  V30 2600 H 251.945 -0.482687 5.71264 0
M  V30 2601 H 250.342 0.256199 5.99553 0
M  V30 2602 H 251.412 0.938174 4.75738 0
M  V30 2603 N 252.755 -1.56801 0.158532 0
M  V30 2604 C 253.983 -2.00859 -0.496303 0
M  V30 2605 C 254.398 -1.03871 -1.57659 0
M  V30 2606 O 253.755 -0.0375165 -1.82461 0
M  V30 2607 C 253.806 -3.4479 -1.08638 0
M  V30 2608 O 253.527 -4.38072 -0.0492322 0
M  V30 2609 C 255.028 -4.04185 -1.8207 0
M  V30 2610 H 252.248 -0.65864 -0.128199 0
M  V30 2611 H 254.792 -2.02885 0.256506 0
M  V30 2612 H 252.947 -3.43579 -1.78975 0
M  V30 2613 H 253.361 -5.2227 -0.483102 0
M  V30 2614 H 254.835 -5.06857 -2.18633 0
M  V30 2615 H 255.312 -3.45549 -2.71095 0
M  V30 2616 H 255.918 -4.0906 -1.16405 0
M  V30 2617 N 254.233 0.115231 -1.57178 0
M  V30 2618 C 255.181 1.16014 -2.01602 0
M  V30 2619 C 256.175 1.42653 -0.913587 0
M  V30 2620 O 257.381 1.42571 -1.09879 0
M  V30 2621 H 253.756 0.391252 -0.642204 0
M  V30 2622 H 255.727 0.758998 -2.88586 0
M  V30 2623 C 254.476 2.47767 -2.4394 0
M  V30 2624 H 253.799 2.28108 -3.28339 0
M  V30 2625 H 255.239 3.19432 -2.78818 0
M  V30 2626 C 253.698 3.10617 -1.30455 0
M  V30 2627 O 254.228 3.96846 -0.622585 0
M  V30 2628 N 252.434 2.70553 -1.06064 0
M  V30 2629 H 251.981 2.00527 -1.61699 0
M  V30 2630 H 251.939 3.12934 -0.303284 0
M  V30 2631 N 255.711 1.52812 0.385517 0
M  V30 2632 C 256.641 1.80808 1.47752 0
M  V30 2633 C 257.622 0.660318 1.5676 0
M  V30 2634 O 258.807 0.908246 1.71652 0
M  V30 2635 C 255.937 1.98008 2.85324 0
M  V30 2636 C 254.891 3.13709 2.91154 0
M  V30 2637 C 254.217 3.16169 4.31209 0
M  V30 2638 C 255.517 4.52709 2.60483 0
M  V30 2639 H 257.211 2.72253 1.24573 0
M  V30 2640 H 254.757 1.31003 0.597839 0
M  V30 2641 H 256.71 2.16176 3.61726 0
M  V30 2642 H 255.434 1.03255 3.09848 0
M  V30 2643 H 254.093 2.95329 2.17201 0
M  V30 2644 H 253.741 2.19092 4.52778 0
M  V30 2645 H 253.441 3.93894 4.36029 0
M  V30 2646 H 254.965 3.36496 5.09512 0
M  V30 2647 H 256.379 4.71173 3.26602 0
M  V30 2648 H 254.776 5.32528 2.76648 0
M  V30 2649 H 255.846 4.59186 1.55809 0
M  V30 2650 N 257.189 -0.644168 1.43834 0
M  V30 2651 C 258.119 -1.76814 1.52509 0
M  V30 2652 C 259.1 -1.65823 0.379052 0
M  V30 2653 O 260.285 -1.84781 0.597466 0
M  V30 2654 C 257.415 -3.15288 1.4564 0
M  V30 2655 C 256.369 -3.41053 2.58586 0
M  V30 2656 C 255.695 -4.79421 2.36769 0
M  V30 2657 C 256.995 -3.34902 4.00797 0
M  V30 2658 H 258.689 -1.69812 2.46586 0
M  V30 2659 H 256.235 -0.815542 1.1868 0
M  V30 2660 H 258.188 -3.93681 1.50311 0
M  V30 2661 H 256.912 -3.23043 0.480725 0
M  V30 2662 H 255.571 -2.65035 2.53282 0
M  V30 2663 H 255.219 -4.83863 1.37424 0
M  V30 2664 H 254.919 -4.9762 3.12487 0
M  V30 2665 H 256.443 -5.6006 2.43238 0
M  V30 2666 H 257.857 -4.03218 4.07539 0
M  V30 2667 H 256.254 -3.64637 4.76613 0
M  V30 2668 H 257.324 -2.32928 4.25291 0
M  V30 2669 N 258.668 -1.30515 -0.883378 0
M  V30 2670 C 259.598 -1.19607 -2.00541 0
M  V30 2671 C 260.579 -0.086346 -1.69881 0
M  V30 2672 O 261.764 -0.268654 -1.92333 0
M  V30 2673 C 258.894 -0.888758 -3.35736 0
M  V30 2674 C 257.848 -1.95659 -3.8066 0
M  V30 2675 C 257.174 -1.50224 -5.13164 0
M  V30 2676 C 258.474 -3.36788 -3.99213 0
M  V30 2677 H 260.168 -2.13476 -2.09925 0
M  V30 2678 H 257.714 -1.02775 -1.00863 0
M  V30 2679 H 259.667 -0.799094 -4.13754 0
M  V30 2680 H 258.391 0.0856125 -3.26488 0
M  V30 2681 H 257.05 -2.03591 -3.04871 0
M  V30 2682 H 256.698 -0.516092 -5.00345 0
M  V30 2683 H 256.398 -2.2165 -5.44192 0
M  V30 2684 H 257.922 -1.42639 -5.93706 0
M  V30 2685 H 259.336 -3.31605 -4.67665 0
M  V30 2686 H 257.733 -4.06314 -4.41621 0
M  V30 2687 H 258.803 -3.78561 -3.03017 0
M  V30 2688 N 260.146 1.09593 -1.13257 0
M  V30 2689 C 261.394 1.81375 -0.891492 0
M  V30 2690 C 261.715 1.86049 0.584009 0
M  V30 2691 O 260.985 1.34481 1.42449 0
M  V30 2692 H 259.565 0.671708 -0.326828 0
M  V30 2693 H 262.227 1.3256 -1.42877 0
M  V30 2694 H 261.323 2.84612 -1.28071 0
M  V30 2695 N 261.624 0.925811 1.2754 0
M  V30 2696 C 262.554 0.440748 2.29303 0
M  V30 2697 C 263.535 -0.497971 1.62648 0
M  V30 2698 O 264.72 -0.403126 1.8997 0
M  V30 2699 C 261.85 -0.309048 3.45922 0
M  V30 2700 C 260.804 0.54166 4.24559 0
M  V30 2701 C 260.13 -0.337191 5.33636 0
M  V30 2702 C 261.43 1.80516 4.90114 0
M  V30 2703 H 263.124 1.29121 2.70126 0
M  V30 2704 H 260.67 0.622323 1.29858 0
M  V30 2705 H 262.623 -0.659315 4.1621 0
M  V30 2706 H 261.347 -1.19352 3.04011 0
M  V30 2707 H 260.006 0.874609 3.56014 0
M  V30 2708 H 259.654 -1.22056 4.87966 0
M  V30 2709 H 259.354 0.228497 5.87156 0
M  V30 2710 H 260.878 -0.683072 6.06767 0
M  V30 2711 H 262.292 1.52307 5.52698 0
M  V30 2712 H 260.689 2.3142 5.53683 0
M  V30 2713 H 261.759 2.52581 4.13921 0
M  V30 2714 N 263.102 -1.41638 0.69111 0
M  V30 2715 C 264.032 -2.3347 0.037248 0
M  V30 2716 C 265.013 -1.51575 -0.771947 0
M  V30 2717 O 266.198 -1.80126 -0.72582 0
M  V30 2718 C 263.328 -3.35354 -0.903064 0
M  V30 2719 C 262.282 -4.27526 -0.201288 0
M  V30 2720 C 261.608 -5.19747 -1.25565 0
M  V30 2721 C 262.908 -5.13959 0.929689 0
M  V30 2722 H 264.602 -2.88397 0.804227 0
M  V30 2723 H 262.148 -1.38669 0.388189 0
M  V30 2724 H 264.101 -3.98519 -1.36969 0
M  V30 2725 H 262.825 -2.78767 -1.70166 0
M  V30 2726 H 261.484 -3.65779 0.245265 0
M  V30 2727 H 261.132 -4.59479 -2.04666 0
M  V30 2728 H 260.832 -5.8225 -0.791128 0
M  V30 2729 H 262.356 -5.85789 -1.72288 0
M  V30 2730 H 263.77 -5.70718 0.543546 0
M  V30 2731 H 262.167 -5.85379 1.32103 0
M  V30 2732 H 263.237 -4.51389 1.77133 0
M  V30 2733 N 264.58 -0.43555 -1.51462 0
M  V30 2734 C 265.527 0.376797 -2.27703 0
M  V30 2735 C 266.497 1.01838 -1.31219 0
M  V30 2736 O 267.682 1.03762 -1.60119 0
M  V30 2737 C 264.822 1.47301 -3.12084 0
M  V30 2738 C 263.935 0.849744 -4.2356 0
M  V30 2739 C 263.07 1.92086 -4.95254 0
M  V30 2740 C 262.109 1.27593 -5.98654 0
M  V30 2741 N 261.246 2.28833 -6.63762 0
M  V30 2742 H 266.086 -0.279734 -2.96684 0
M  V30 2743 H 263.623 -0.149795 -1.46335 0
M  V30 2744 H 265.581 2.11984 -3.59331 0
M  V30 2745 H 264.211 2.0992 -2.45221 0
M  V30 2746 H 263.263 0.0912529 -3.80291 0
M  V30 2747 H 264.575 0.338878 -4.97648 0
M  V30 2748 H 263.729 2.64435 -5.46039 0
M  V30 2749 H 262.468 2.46545 -4.20793 0
M  V30 2750 H 261.473 0.537893 -5.47162 0
M  V30 2751 H 262.698 0.738693 -6.7507 0
M  V30 2752 H 260.644 2.82375 -5.92115 0
M  V30 2753 H 260.561 1.82632 -7.33608 0
M  V30 2754 H 261.829 3.00671 -7.19178 0
M  V30 2755 N 266.058 1.56714 -0.166846 0
M  V30 2756 C 267.283 2.01557 0.488833 0
M  V30 2757 C 267.708 1.0463 1.56314 0
M  V30 2758 O 267.066 0.0251304 1.81283 0
M  V30 2759 C 267.114 3.4503 1.04818 0
M  V30 2760 O 266.218 3.51163 2.16236 0
M  V30 2761 H 265.559 0.653516 0.117526 0
M  V30 2762 H 268.089 2.02818 -0.269421 0
M  V30 2763 H 268.099 3.84243 1.37191 0
M  V30 2764 H 266.774 4.15077 0.261572 0
M  V30 2765 H 265.351 3.23807 1.84942 0
M  V30 2766 N 267.536 -0.106894 1.57237 0
M  V30 2767 C 268.761 -0.830287 1.90055 0
M  V30 2768 C 269.186 -1.72064 0.75998 0
M  V30 2769 O 268.544 -1.78982 -0.288991 0
M  V30 2770 C 268.592 -1.6295 3.21683 0
M  V30 2771 O 267.696 -2.73748 3.08441 0
M  V30 2772 H 267.037 -0.228855 0.623315 0
M  V30 2773 H 269.567 -0.085658 2.04421 0
M  V30 2774 H 269.577 -2.01621 3.54701 0
M  V30 2775 H 268.252 -0.975989 4.04286 0
M  V30 2776 H 266.829 -2.38192 2.86913 0
M  V30 2777 N 269.014 -1.53014 -0.377408 0
M  V30 2778 C 269.977 -1.77957 -1.44444 0
M  V30 2779 C 270.977 -0.649763 -1.47087 0
M  V30 2780 O 272.167 -0.917897 -1.48055 0
M  V30 2781 C 269.299 -1.89089 -2.83651 0
M  V30 2782 H 270.492 -2.73243 -1.23606 0
M  V30 2783 H 268.045 -1.43912 -0.609844 0
M  V30 2784 H 268.78 -0.958293 -3.09818 0
M  V30 2785 H 268.565 -2.71254 -2.83132 0
M  V30 2786 H 270.055 -2.1002 -3.60945 0
M  V30 2787 N 270.492 0.636531 -1.44174 0
M  V30 2788 C 271.903 1.21806 -1.41493 0
M  V30 2789 C 272.254 1.95785 -0.1275 0
M  V30 2790 O 271.379 2.02147 0.772376 0
M  V30 2791 C 271.974 2.21551 -2.56321 0
M  V30 2792 C 270.533 2.75143 -2.56853 0
M  V30 2793 C 269.68 1.50052 -2.33195 0
M  V30 2794 H 272.631 0.427531 -1.52833 0
M  V30 2795 H 272.652 3.0405 -2.28765 0
M  V30 2796 H 272.164 1.67679 -3.50008 0
M  V30 2797 H 270.265 3.33033 -1.67093 0
M  V30 2798 H 270.378 3.2155 -3.55165 0
M  V30 2799 H 268.742 1.77993 -1.82183 0
M  V30 2800 H 269.525 0.980903 -3.28988 0
M  V30 2801 N 271.97 1.30982 0.876444 0
M  V30 2802 C 273.195 1.23373 1.66715 0
M  V30 2803 C 273.62 -0.19885 1.87046 0
M  V30 2804 O 272.978 -1.1427 1.40756 0
M  V30 2805 C 273.026 1.97644 3.01611 0
M  V30 2806 O 272.13 1.30935 3.91062 0
M  V30 2807 H 271.471 0.426279 0.509099 0
M  V30 2808 H 274.001 1.72944 1.09323 0
M  V30 2809 H 274.011 2.06992 3.51594 0
M  V30 2810 H 272.686 3.01829 2.86133 0
M  V30 2811 H 271.263 1.29996 3.49507 0
M  V30 2812 N 273.449 -1.08991 1.13837 0
M  V30 2813 C 274.865 -1.33312 0.877506 0
M  V30 2814 C 275.065 -1.95587 -0.48456 0
M  V30 2815 O 274.121 -2.20509 -1.23013 0
M  V30 2816 C 275.434 -2.24045 2.0056 0
M  V30 2817 C 276.982 -2.37542 2.03821 0
M  V30 2818 C 277.457 -3.31614 3.15905 0
M  V30 2819 N 278.948 -3.39189 3.15445 0
M  V30 2820 C 279.683 -4.11992 3.98811 0
M  V30 2821 N 279.179 -4.87553 4.92203 0
M  V30 2822 N 280.972 -4.07762 3.86894 0
M  V30 2823 H 273.123 -0.669456 2.01574 0
M  V30 2824 H 275.386 -0.357482 0.878015 0
M  V30 2825 H 275.092 -1.85521 2.98789 0
M  V30 2826 H 274.966 -3.24466 1.92359 0
M  V30 2827 H 277.353 -2.75327 1.06202 0
M  V30 2828 H 277.434 -1.36884 2.16093 0
M  V30 2829 H 277.078 -2.94551 4.13766 0
M  V30 2830 H 277.008 -4.32186 3.0087 0
M  V30 2831 H 279.499 -2.85314 2.47799 0
M  V30 2832 H 279.812 -5.40549 5.52292 0
M  V30 2833 H 278.157 -4.86627 4.96205 0
M  V30 2834 H 281.348 -3.47833 3.13257 0
M  V30 2835 H 281.521 -4.64238 4.52092 0
M  V30 2836 N 274.927 -0.932562 -1.27047 0
M  V30 2837 C 276.176 -0.571351 -1.93439 0
M  V30 2838 C 276.489 0.892467 -1.74053 0
M  V30 2839 O 277.695 1.36267 -2.34826 0
M  V30 2840 C 276.151 -0.97106 -3.46552 0
M  V30 2841 C 275.759 -2.4559 -3.74686 0
M  V30 2842 C 277.503 -0.681333 -4.18997 0
M  V30 2843 C 275.41 -2.79475 -5.21198 0
M  V30 2844 H 274.34 -0.209966 -0.724176 0
M  V30 2845 H 276.991 -1.13403 -1.44263 0
M  V30 2846 H 275.373 -0.336983 -3.94564 0
M  V30 2847 H 276.547 -3.13829 -3.37414 0
M  V30 2848 H 274.862 -2.71802 -3.15456 0
M  V30 2849 H 277.459 -0.910939 -5.26883 0
M  V30 2850 H 277.802 0.381628 -4.14547 0
M  V30 2851 H 278.335 -1.27473 -3.76823 0
M  V30 2852 H 275.074 -3.847 -5.30741 0
M  V30 2853 H 274.594 -2.1589 -5.596 0
M  V30 2854 H 276.273 -2.67478 -5.89122 0
M  V30 2855 N 276.405 1.4127 -0.698611 0
M  V30 2856 C 277.651 2.01478 -0.231207 0
M  V30 2857 C 277.984 1.55215 1.16713 0
M  V30 2858 O 277.259 0.764672 1.78838 0
M  V30 2859 C 277.542 3.58912 -0.292281 0
M  V30 2860 C 277.395 4.15293 -1.72778 0
M  V30 2861 C 278.714 4.38736 0.346194 0
M  V30 2862 H 275.833 0.732025 -0.0854878 0
M  V30 2863 H 278.475 1.67977 -0.887906 0
M  V30 2864 H 276.625 3.87582 0.26686 0
M  V30 2865 H 278.297 3.97486 -2.341 0
M  V30 2866 H 276.54 3.7022 -2.26096 0
M  V30 2867 H 277.211 5.24452 -1.72202 0
M  V30 2868 H 279.687 4.15897 -0.130035 0
M  V30 2869 H 278.563 5.48221 0.272932 0
M  V30 2870 H 278.824 4.18425 1.42734 0
M  V30 2871 N 277.883 0.443576 1.51229 0
M  V30 2872 C 279.129 -0.120975 2.02439 0
M  V30 2873 C 279.462 -1.41815 1.32674 0
M  V30 2874 O 278.737 -1.89373 0.443622 0
M  V30 2875 C 279.02 -0.333291 3.58554 0
M  V30 2876 C 278.873 0.982968 4.38928 0
M  V30 2877 C 280.192 -1.10028 4.26124 0
M  V30 2878 H 277.311 -0.0424923 0.735774 0
M  V30 2879 H 279.953 0.583794 1.80809 0
M  V30 2880 H 278.103 -0.933614 3.77115 0
M  V30 2881 H 279.775 1.61775 4.32003 0
M  V30 2882 H 278.018 1.58611 4.03763 0
M  V30 2883 H 278.689 0.788379 5.46341 0
M  V30 2884 H 281.165 -0.591711 4.11871 0
M  V30 2885 H 280.041 -1.21761 5.35225 0
M  V30 2886 H 280.302 -2.12996 3.87408 0
M  V30 2887 N 279.361 -1.56624 0.175154 0
M  V30 2888 C 280.607 -1.9729 -0.469506 0
M  V30 2889 C 280.94 -1.06128 -1.62636 0
M  V30 2890 O 280.215 -0.109183 -1.94193 0
M  V30 2891 C 280.498 -3.47375 -0.948804 0
M  V30 2892 C 280.351 -4.49317 0.208491 0
M  V30 2893 C 281.67 -4.00652 -1.82116 0
M  V30 2894 H 278.789 -0.717317 -0.16919 0
M  V30 2895 H 281.431 -1.88184 0.262062 0
M  V30 2896 H 279.581 -3.55267 -1.57219 0
M  V30 2897 H 281.253 -4.53482 0.845682 0
M  V30 2898 H 279.496 -4.25121 0.863395 0
M  V30 2899 H 280.167 -5.51741 -0.169059 0
M  V30 2900 H 282.643 -3.95416 -1.2956 0
M  V30 2901 H 281.519 -5.06075 -2.12554 0
M  V30 2902 H 281.78 -3.44699 -2.7683 0
M  V30 2903 N 280.839 0.0985539 -1.57292 0
M  V30 2904 C 282.064 0.820196 -1.90493 0
M  V30 2905 C 282.489 1.71658 -0.769094 0
M  V30 2906 O 281.847 1.79133 0.279495 0
M  V30 2907 C 281.895 1.61242 -3.22542 0
M  V30 2908 O 280.999 2.72108 -3.09888 0
M  V30 2909 H 280.34 0.225547 -0.62452 0
M  V30 2910 H 282.87 0.0748159 -2.04463 0
M  V30 2911 H 282.88 1.99737 -3.55766 0
M  V30 2912 H 281.555 0.954535 -4.04798 0
M  V30 2913 H 280.132 2.36667 -2.88172 0
M  V30 2914 N 282.317 1.53212 0.369288 0
M  V30 2915 C 283.542 1.73423 1.1375 0
M  V30 2916 C 283.967 0.460404 1.82378 0
M  V30 2917 O 283.325 -0.585298 1.71592 0
M  V30 2918 C 283.373 2.89769 2.1463 0
M  V30 2919 O 282.477 2.58119 3.21634 0
M  V30 2920 H 281.818 0.576061 0.330227 0
M  V30 2921 H 284.348 2.00083 0.427547 0
M  V30 2922 H 284.358 3.15829 2.58294 0
M  V30 2923 H 283.033 3.8217 1.64071 0
M  V30 2924 H 281.61 2.42864 2.82969 0
M  V30 2925 N 283.795 -0.628877 1.44509 0
M  V30 2926 C 284.742 -1.74074 1.51549 0
M  V30 2927 C 285.712 -1.62084 0.363021 0
M  V30 2928 O 286.897 -1.81975 0.573567 0
M  V30 2929 C 284.037 -3.12328 1.46784 0
M  V30 2930 C 283.15 -3.35277 2.72422 0
M  V30 2931 C 282.285 -4.63515 2.59475 0
M  V30 2932 C 281.324 -4.7965 3.80266 0
M  V30 2933 N 280.461 -5.99168 3.65981 0
M  V30 2934 H 285.301 -1.67392 2.46544 0
M  V30 2935 H 282.838 -0.816527 1.22357 0
M  V30 2936 H 284.796 -3.92286 1.42012 0
M  V30 2937 H 283.426 -3.18018 0.553544 0
M  V30 2938 H 282.478 -2.49242 2.87372 0
M  V30 2939 H 283.79 -3.43078 3.62076 0
M  V30 2940 H 282.944 -5.51638 2.52548 0
M  V30 2941 H 281.683 -4.58076 1.67384 0
M  V30 2942 H 280.688 -3.89957 3.87574 0
M  V30 2943 H 281.913 -4.86902 4.73395 0
M  V30 2944 H 279.859 -5.94814 2.76644 0
M  V30 2945 H 279.776 -6.08035 4.49254 0
M  V30 2946 H 281.044 -6.89846 3.6295 0
M  V30 2947 N 285.273 -1.31445 -0.869486 0
M  V30 2948 C 286.203 -1.21727 -1.99261 0
M  V30 2949 C 287.184 -0.104359 -1.6978 0
M  V30 2950 O 288.369 -0.289038 -1.92037 0
M  V30 2951 C 285.499 -0.924317 -3.34774 0
M  V30 2952 C 284.453 -1.99685 -3.78563 0
M  V30 2953 C 283.779 -1.55658 -5.11541 0
M  V30 2954 C 285.079 -3.41003 -3.95619 0
M  V30 2955 H 286.773 -2.1569 -2.07649 0
M  V30 2956 H 284.319 -1.03839 -0.997675 0
M  V30 2957 H 286.272 -0.842934 -4.12883 0
M  V30 2958 H 284.996 0.0509793 -3.2656 0
M  V30 2959 H 283.655 -2.06813 -3.02694 0
M  V30 2960 H 283.303 -0.569132 -4.9977 0
M  V30 2961 H 283.003 -2.27409 -5.41811 0
M  V30 2962 H 284.527 -1.48928 -5.92159 0
M  V30 2963 H 285.941 -3.36547 -4.64122 0
M  V30 2964 H 284.338 -4.10975 -4.37286 0
M  V30 2965 H 285.408 -3.81754 -2.98985 0
M  V30 2966 N 286.751 1.08385 -1.14413 0
M  V30 2967 C 287.981 1.8425 -0.934644 0
M  V30 2968 C 288.389 1.81907 0.520234 0
M  V30 2969 O 287.732 1.22126 1.37226 0
M  V30 2970 C 287.794 3.32853 -1.35828 0
M  V30 2971 C 287.458 3.5893 -2.82875 0
M  V30 2972 C 288.455 3.53756 -3.80989 0
M  V30 2973 C 286.14 3.86934 -3.20293 0
M  V30 2974 C 288.134 3.76216 -5.14529 0
M  V30 2975 C 285.821 4.09047 -4.54008 0
M  V30 2976 C 286.819 4.03682 -5.50936 0
M  V30 2977 O 286.507 4.25214 -6.82238 0
M  V30 2978 H 286.239 0.588502 -0.332628 0
M  V30 2979 H 288.793 1.37792 -1.52324 0
M  V30 2980 H 287.023 3.8007 -0.713019 0
M  V30 2981 H 288.712 3.90154 -1.11957 0
M  V30 2982 H 289.478 3.32135 -3.53428 0
M  V30 2983 H 285.357 3.9023 -2.45442 0
M  V30 2984 H 288.901 3.71943 -5.90173 0
M  V30 2985 H 284.798 4.30151 -4.8129 0
M  V30 2986 H 285.566 4.42619 -6.88499 0
M  V30 2987 N 288.23 0.939286 1.26551 0
M  V30 2988 C 289.177 0.446088 2.26448 0
M  V30 2989 C 290.147 -0.493234 1.58608 0
M  V30 2990 O 291.332 -0.409857 1.86346 0
M  V30 2991 C 288.472 -0.284375 3.43926 0
M  V30 2992 C 287.585 0.690399 4.26448 0
M  V30 2993 C 286.72 -0.0610712 5.31165 0
M  V30 2994 C 285.759 0.905649 6.05363 0
M  V30 2995 N 284.896 0.186055 7.01853 0
M  V30 2996 H 289.736 1.30291 2.68008 0
M  V30 2997 H 287.273 0.65371 1.31776 0
M  V30 2998 H 289.231 -0.724313 4.10864 0
M  V30 2999 H 287.861 -1.10535 3.03285 0
M  V30 3000 H 286.913 1.24885 3.59316 0
M  V30 3001 H 288.225 1.42873 4.779 0
M  V30 3002 H 287.379 -0.56038 6.04106 0
M  V30 3003 H 286.118 -0.832297 4.80546 0
M  V30 3004 H 285.123 1.4161 5.3125 0
M  V30 3005 H 286.348 1.67685 6.58072 0
M  V30 3006 H 284.294 -0.566714 6.53548 0
M  V30 3007 H 284.211 0.863752 7.51049 0
M  V30 3008 H 285.479 -0.292221 7.78952 0
M  V30 3009 N 289.708 -1.40897 0.706093 0
M  V30 3010 C 290.938 -2.05075 0.250523 0
M  V30 3011 C 291.346 -1.53275 -1.10921 0
M  V30 3012 O 290.689 -0.680281 -1.7064 0
M  V30 3013 C 290.751 -3.59219 0.142178 0
M  V30 3014 C 290.415 -4.33864 1.43566 0
M  V30 3015 C 291.412 -4.62448 2.37566 0
M  V30 3016 C 289.097 -4.72946 1.69195 0
M  V30 3017 C 291.091 -5.29088 3.5545 0
M  V30 3018 C 288.778 -5.3932 2.87362 0
M  V30 3019 C 289.776 -5.6732 3.80312 0
M  V30 3020 O 289.464 -6.32325 4.96408 0
M  V30 3021 H 289.196 -0.666645 0.112074 0
M  V30 3022 H 291.75 -1.81467 0.962239 0
M  V30 3023 H 289.98 -3.81609 -0.6254 0
M  V30 3024 H 291.669 -4.0495 -0.277584 0
M  V30 3025 H 292.435 -4.32727 2.19027 0
M  V30 3026 H 288.314 -4.50527 0.977042 0
M  V30 3027 H 291.858 -5.50859 4.28018 0
M  V30 3028 H 287.755 -5.68461 3.05814 0
M  V30 3029 H 288.523 -6.50821 4.9636 0
M  V30 3030 N 291.186 -0.45159 -1.50991 0
M  V30 3031 C 292.434 0.109857 -2.01801 0
M  V30 3032 C 292.755 1.41958 -1.3369 0
M  V30 3033 O 292.025 1.9003 -0.475951 0
M  V30 3034 H 290.605 0.0435884 -0.745727 0
M  V30 3035 H 293.267 -0.597557 -1.85514 0
M  V30 3036 H 292.363 0.275489 -3.10882 0
M  V30 3037 N 292.664 1.56529 -0.183458 0
M  V30 3038 C 293.941 1.88959 0.50536 0
M  V30 3039 C 294.321 1.09523 1.80466 0
M  V30 3040 O 293.669 0.19278 2.27685 0
M  V30 3041 C 293.879 3.41162 0.73547 0
M  V30 3042 C 295.227 4.11155 1.06005 0
M  V30 3043 O 296.251 3.46548 0.823594 0
M  V30 3044 O 295.11 5.25318 1.50675 0
M  V30 3045 H 292.204 0.78441 0.261973 0
M  V30 3046 H 294.75 1.68231 -0.222802 0
M  V30 3047 H 293.522 3.90874 -0.182561 0
M  V30 3048 H 293.145 3.67543 1.51651 0
M  V30 3049 N 294.142 -0.090211 1.57342 0
M  V30 3050 C 295.391 -0.791531 1.8552 0
M  V30 3051 C 295.704 -1.79659 0.773441 0
M  V30 3052 O 296.91 -2.54616 0.942497 0
M  V30 3053 C 295.366 -1.45856 3.2902 0
M  V30 3054 C 294.974 -0.493017 4.45279 0
M  V30 3055 C 296.718 -2.14332 3.66418 0
M  V30 3056 C 294.625 -1.16491 5.79814 0
M  V30 3057 H 293.555 -0.299356 0.692027 0
M  V30 3058 H 296.206 -0.0445343 1.83446 0
M  V30 3059 H 294.588 -2.25318 3.2565 0
M  V30 3060 H 295.762 0.270464 4.60006 0
M  V30 3061 H 294.077 0.0863061 4.16311 0
M  V30 3062 H 296.674 -2.65344 4.64216 0
M  V30 3063 H 297.017 -2.93447 2.95287 0
M  V30 3064 H 297.55 -1.41724 3.71698 0
M  V30 3065 H 294.289 -0.41447 6.54188 0
M  V30 3066 H 293.809 -1.8997 5.68921 0
M  V30 3067 H 295.488 -1.69001 6.24538 0
M  V30 3068 N 295.62 -1.53406 -0.361157 0
M  V30 3069 C 296.568 -1.80832 -1.46296 0
M  V30 3070 C 297.562 -0.677699 -1.55253 0
M  V30 3071 O 298.768 -0.860723 -1.58087 0
M  V30 3072 H 295.143 -0.572627 -0.487445 0
M  V30 3073 H 297.114 -2.73045 -1.20371 0
M  V30 3074 C 295.863 -2.01907 -2.8307 0
M  V30 3075 H 295.186 -2.88349 -2.76938 0
M  V30 3076 H 296.626 -2.25072 -3.59331 0
M  V30 3077 C 295.085 -0.799449 -3.27277 0
M  V30 3078 O 295.615 0.00971761 -4.01699 0
M  V30 3079 N 293.821 -0.621637 -2.83873 0
M  V30 3080 H 293.368 -1.28126 -2.23476 0
M  V30 3081 H 293.326 0.19298 -3.13807 0
M  V30 3082 N 297.098 0.621204 -1.44841 0
M  V30 3083 C 298.345 1.38055 -1.48145 0
M  V30 3084 C 298.673 1.94143 -0.117867 0
M  V30 3085 O 297.928 1.74713 0.881694 0
M  V30 3086 C 298.227 2.55675 -2.4973 0
M  V30 3087 C 297.893 2.17817 -3.94799 0
M  V30 3088 C 296.555 2.07205 -4.34303 0
M  V30 3089 C 298.907 1.88065 -4.86087 0
M  V30 3090 C 296.235 1.65045 -5.63007 0
M  V30 3091 C 298.587 1.47394 -6.15189 0
M  V30 3092 C 297.251 1.35331 -6.53637 0
M  V30 3093 H 296.521 0.505181 -0.542101 0
M  V30 3094 H 299.168 0.703477 -1.78111 0
M  V30 3095 H 297.473 3.2866 -2.13284 0
M  V30 3096 H 299.17 3.13904 -2.4953 0
M  V30 3097 H 295.76 2.26998 -3.63552 0
M  V30 3098 H 299.944 1.95168 -4.56315 0
M  V30 3099 H 295.2 1.54317 -5.91605 0
M  V30 3100 H 299.374 1.23415 -6.85377 0
M  V30 3101 H 297.001 1.02435 -7.53267 0
M  V30 3102 N 298.576 1.31904 0.862503 0
M  V30 3103 C 299.853 1.12644 1.59908 0
M  V30 3104 C 300.233 -0.316104 2.0872 0
M  V30 3105 O 299.581 -1.31145 1.87118 0
M  V30 3106 C 299.791 2.1472 2.7513 0
M  V30 3107 C 301.139 2.47637 3.44907 0
M  V30 3108 O 302.163 2.13205 2.85346 0
M  V30 3109 O 301.022 3.06632 4.52371 0
M  V30 3110 H 298.116 0.43416 0.703871 0
M  V30 3111 H 300.662 1.43408 0.907314 0
M  V30 3112 H 299.434 3.1172 2.3653 0
M  V30 3113 H 299.057 1.84905 3.51989 0
M  V30 3114 N 300.054 -1.07777 1.14986 0
M  V30 3115 C 301.331 -1.7699 0.832695 0
M  V30 3116 C 301.711 -2.001 -0.672561 0
M  V30 3117 O 301.059 -1.61598 -1.6155 0
M  V30 3118 C 301.269 -3.08139 1.63863 0
M  V30 3119 C 302.617 -3.8256 1.84208 0
M  V30 3120 O 303.641 -3.17939 1.60603 0
M  V30 3121 O 302.5 -4.98612 2.23714 0
M  V30 3122 H 299.594 -0.768389 0.305791 0
M  V30 3123 H 302.14 -1.14182 1.25541 0
M  V30 3124 H 300.912 -2.86909 2.6608 0
M  V30 3125 H 300.535 -3.78678 1.21197 0
M  V30 3126 N 301.532 -0.945985 -1.26051 0
M  V30 3127 C 302.462 -0.477172 -2.28572 0
M  V30 3128 C 303.443 0.472032 -1.63419 0
M  V30 3129 O 304.628 0.372853 -1.90587 0
M  V30 3130 C 301.758 0.253975 -3.4637 0
M  V30 3131 C 300.712 -0.609135 -4.23643 0
M  V30 3132 C 300.038 0.252252 -5.34105 0
M  V30 3133 C 301.338 -1.8829 -4.8718 0
M  V30 3134 H 303.032 -1.33402 -2.68038 0
M  V30 3135 H 300.578 -0.642904 -1.28852 0
M  V30 3136 H 302.531 0.593016 -4.17207 0
M  V30 3137 H 301.255 1.145 -3.05871 0
M  V30 3138 H 299.914 -0.931138 -3.54578 0
M  V30 3139 H 299.562 1.14278 -4.89846 0
M  V30 3140 H 299.262 -0.32188 -5.86718 0
M  V30 3141 H 300.786 0.586454 -6.07777 0
M  V30 3142 H 302.2 -1.61081 -5.50205 0
M  V30 3143 H 300.597 -2.40199 -5.49931 0
M  V30 3144 H 301.667 -2.59134 -4.09851 0
M  V30 3145 N 303.011 1.40521 -0.713556 0
M  V30 3146 C 303.959 2.32549 -0.0485227 0
M  V30 3147 C 304.953 1.51931 0.74922 0
M  V30 3148 O 306.159 1.67745 0.652816 0
M  V30 3149 H 302.534 0.751994 0.00311138 0
M  V30 3150 H 304.505 2.86291 -0.841443 0
M  V30 3151 C 303.254 3.36879 0.860687 0
M  V30 3152 H 302.577 3.98978 0.256246 0
M  V30 3153 H 304.017 4.03772 1.294 0
M  V30 3154 C 302.476 2.72197 1.9852 0
M  V30 3155 O 303.006 2.5837 3.07584 0
M  V30 3156 N 301.212 2.30612 1.76823 0
M  V30 3157 H 300.759 2.42059 0.881217 0
M  V30 3158 H 300.717 1.87672 2.52243 0
M  V30 3159 N 304.489 0.459591 1.5075 0
M  V30 3160 C 305.714 -0.0996819 2.0716 0
M  V30 3161 C 306.139 -1.33761 1.32249 0
M  V30 3162 O 305.497 -1.77551 0.366786 0
M  V30 3163 C 305.545 -0.378226 3.58611 0
M  V30 3164 O 304.649 -1.46081 3.85661 0
M  V30 3165 H 303.99 0.00791392 0.663953 0
M  V30 3166 H 306.52 0.647329 1.9409 0
M  V30 3167 H 306.53 -0.622135 4.03229 0
M  V30 3168 H 305.205 0.526439 4.12555 0
M  V30 3169 H 303.782 -1.20511 3.5289 0
M  V30 3170 N 305.967 -1.56429 0.191757 0
M  V30 3171 C 306.877 -2.22541 -0.742481 0
M  V30 3172 C 307.893 -1.22342 -1.23727 0
M  V30 3173 O 309.069 -1.55069 -1.28513 0
M  V30 3174 C 306.134 -2.8692 -1.94623 0
M  V30 3175 C 305.195 -4.02378 -1.49633 0
M  V30 3176 C 304.428 -4.63678 -2.6427 0
M  V30 3177 O 304.651 -4.23895 -3.81666 0
M  V30 3178 O 303.585 -5.53202 -2.37174 0
M  V30 3179 H 307.411 -3.02977 -0.209462 0
M  V30 3180 H 304.996 -1.49353 -0.0373832 0
M  V30 3181 H 306.878 -3.27663 -2.64982 0
M  V30 3182 H 305.553 -2.09466 -2.46791 0
M  V30 3183 H 304.46 -3.66265 -0.761636 0
M  V30 3184 H 305.793 -4.81487 -1.02134 0
M  V30 3185 N 307.445 0.0818655 -1.57387 0
M  V30 3186 C 308.377 1.12484 -1.997 0
M  V30 3187 C 309.39 1.35564 -0.90146 0
M  V30 3188 O 310.579 1.33982 -1.17945 0
M  V30 3189 C 307.679 2.47778 -2.31213 0
M  V30 3190 C 306.852 2.44793 -3.62485 0
M  V30 3191 C 305.911 3.62117 -3.81782 0
M  V30 3192 O 304.937 3.44005 -4.53486 0
M  V30 3193 N 306.139 4.82094 -3.23367 0
M  V30 3194 H 308.904 0.764585 -2.89783 0
M  V30 3195 H 306.465 0.270664 -1.59621 0
M  V30 3196 H 308.457 3.24891 -2.41304 0
M  V30 3197 H 307.027 2.75843 -1.4707 0
M  V30 3198 H 306.247 1.53134 -3.6324 0
M  V30 3199 H 307.535 2.39889 -4.48699 0
M  V30 3200 H 306.933 4.99713 -2.65148 0
M  V30 3201 H 305.49 5.56753 -3.38923 0
M  V30 3202 N 308.923 1.53595 0.353017 0
M  V30 3203 C 310.148 1.7462 1.11904 0
M  V30 3204 C 310.573 0.479721 1.8188 0
M  V30 3205 O 309.931 -0.567066 1.72204 0
M  V30 3206 C 309.979 2.92029 2.11545 0
M  V30 3207 O 309.083 2.61516 3.18878 0
M  V30 3208 H 308.424 0.579531 0.324099 0
M  V30 3209 H 310.954 2.00525 0.406301 0
M  V30 3210 H 310.964 3.18551 2.5493 0
M  V30 3211 H 309.639 3.83888 1.60008 0
M  V30 3212 H 308.216 2.45852 2.80377 0
M  V30 3213 N 310.401 -0.613514 1.45168 0
M  V30 3214 C 311.631 -1.39743 1.52169 0
M  V30 3215 C 312.039 -1.88596 0.151086 0
M  V30 3216 O 311.382 -1.6251 -0.856521 0
M  V30 3217 C 311.444 -2.64035 2.43979 0
M  V30 3218 C 311.108 -2.36861 3.90827 0
M  V30 3219 C 312.105 -1.97591 4.80889 0
M  V30 3220 C 309.79 -2.49956 4.35692 0
M  V30 3221 C 311.784 -1.71768 6.1382 0
M  V30 3222 C 309.471 -2.23747 5.68665 0
M  V30 3223 C 310.469 -1.84714 6.57548 0
M  V30 3224 O 310.157 -1.58809 7.88058 0
M  V30 3225 H 309.889 -0.434382 0.517966 0
M  V30 3226 H 312.443 -0.75587 1.90986 0
M  V30 3227 H 310.673 -3.3089 2.00122 0
M  V30 3228 H 312.362 -3.26069 2.41731 0
M  V30 3229 H 313.128 -1.87015 4.47493 0
M  V30 3230 H 309.007 -2.79305 3.66756 0
M  V30 3231 H 312.551 -1.41227 6.83155 0
M  V30 3232 H 308.448 -2.33938 6.01617 0
M  V30 3233 H 309.216 -1.7291 8.00028 0
M  V30 3234 N 311.879 -1.3236 -0.855495 0
M  V30 3235 C 312.827 -1.2118 -1.9854 0
M  V30 3236 C 313.821 -0.116788 -1.68997 0
M  V30 3237 O 315.027 -0.279657 -1.77814 0
M  V30 3238 H 311.402 -0.375608 -0.651477 0
M  V30 3239 H 313.373 -2.16743 -2.05098 0
M  V30 3240 C 312.122 -0.950849 -3.34446 0
M  V30 3241 H 311.445 -1.78563 -3.57708 0
M  V30 3242 H 312.885 -0.912863 -4.14057 0
M  V30 3243 C 311.344 0.346404 -3.35114 0
M  V30 3244 O 311.874 1.35855 -3.7803 0
M  V30 3245 N 310.08 0.36808 -2.88259 0
M  V30 3246 H 309.627 -0.456102 -2.5353 0
M  V30 3247 H 309.585 1.23591 -2.89089 0
M  V30 3248 N 313.357 1.07166 -1.15556 0
M  V30 3249 C 314.304 2.14417 -0.854055 0
M  V30 3250 C 315.274 1.64965 0.193806 0
M  V30 3251 O 316.459 1.90703 0.0609443 0
M  V30 3252 C 313.599 3.43304 -0.351574 0
M  V30 3253 C 312.712 4.06537 -1.46123 0
M  V30 3254 C 311.847 5.23266 -0.914677 0
M  V30 3255 C 310.886 5.78464 -2.00114 0
M  V30 3256 N 310.023 6.86521 -1.47083 0
M  V30 3257 H 314.863 2.39548 -1.77259 0
M  V30 3258 H 312.4 1.17543 -0.884425 0
M  V30 3259 H 314.358 4.17179 -0.0419409 0
M  V30 3260 H 312.988 3.18419 0.530037 0
M  V30 3261 H 312.04 3.30297 -1.88701 0
M  V30 3262 H 313.352 4.43567 -2.28144 0
M  V30 3263 H 312.506 6.04131 -0.557698 0
M  V30 3264 H 311.245 4.87658 -0.0636583 0
M  V30 3265 H 310.25 4.96243 -2.36692 0
M  V30 3266 H 311.475 6.16126 -2.85597 0
M  V30 3267 H 309.421 6.52849 -0.642198 0
M  V30 3268 H 309.338 7.22446 -2.22729 0
M  V30 3269 H 310.606 7.71087 -1.14215 0
M  V30 3270 N 314.835 0.952656 1.25548 0
M  V30 3271 C 316.06 0.623025 1.97821 0
M  V30 3272 C 316.485 -0.7976 1.70352 0
M  V30 3273 O 315.843 -1.53905 0.958283 0
M  V30 3274 C 315.891 0.885532 3.49558 0
M  V30 3275 O 314.995 -0.0366641 4.12384 0
M  V30 3276 H 314.336 0.237082 0.620232 0
M  V30 3277 H 316.866 1.27871 1.59719 0
M  V30 3278 H 316.876 0.811009 3.99858 0
M  V30 3279 H 315.551 1.92094 3.6888 0
M  V30 3280 H 314.128 0.0898954 3.72792 0
M  V30 3281 N 316.313 -1.40141 0.720998 0
M  V30 3282 C 317.56 -2.00787 0.262842 0
M  V30 3283 C 317.888 -1.5718 -1.14563 0
M  V30 3284 O 317.143 -0.785391 -1.79249 0
M  V30 3285 C 317.442 -3.56165 0.296892 0
M  V30 3286 C 317.108 -4.19373 1.65641 0
M  V30 3287 C 315.77 -4.36352 2.02855 0
M  V30 3288 C 318.122 -4.54578 2.54968 0
M  V30 3289 C 315.45 -4.8582 3.28931 0
M  V30 3290 C 317.802 -5.05447 3.80402 0
M  V30 3291 C 316.466 -5.20635 4.17726 0
M  V30 3292 H 315.736 -0.734731 0.0961807 0
M  V30 3293 H 318.383 -1.67673 0.925093 0
M  V30 3294 H 316.688 -3.8922 -0.448932 0
M  V30 3295 H 318.385 -4.00929 -0.0755208 0
M  V30 3296 H 314.975 -4.06549 1.35704 0
M  V30 3297 H 319.159 -4.41091 2.27491 0
M  V30 3298 H 314.415 -4.95764 3.57811 0
M  V30 3299 H 318.589 -5.31663 4.49786 0
M  V30 3300 H 316.216 -5.58728 5.15487 0
M  V30 3301 N 317.792 -0.46758 -1.50504 0
M  V30 3302 C 319.032 0.0874114 -2.04213 0
M  V30 3303 C 319.396 1.37301 -1.34211 0
M  V30 3304 O 320.597 2.01015 -1.78456 0
M  V30 3305 C 318.868 0.270571 -3.56374 0
M  V30 3306 S 320.427 0.784623 -4.31728 0
M  V30 3307 H 317.245 0.0176153 -0.710782 0
M  V30 3308 H 319.847 -0.633915 -1.84937 0
M  V30 3309 H 318.551 -0.670942 -4.04878 0
M  V30 3310 H 318.082 1.01811 -3.79997 0
M  V30 3311 H 320.097 2.05849 -4.51487 0
M  V30 3312 N 319.27 1.56325 -0.20005 0
M  V30 3313 C 320.5 2.01811 0.442232 0
M  V30 3314 C 320.908 1.07932 1.55394 0
M  V30 3315 O 320.251 0.0772685 1.83537 0
M  V30 3316 C 320.313 3.43685 1.05457 0
M  V30 3317 C 319.977 4.56928 0.0809833 0
M  V30 3318 C 320.974 5.15009 -0.711471 0
M  V30 3319 C 318.659 5.0229 -0.0315364 0
M  V30 3320 C 320.653 6.16904 -1.60336 0
M  V30 3321 C 318.34 6.04028 -0.926981 0
M  V30 3322 C 319.338 6.6121 -1.71146 0
M  V30 3323 O 319.026 7.60971 -2.59189 0
M  V30 3324 H 318.758 0.666173 0.114848 0
M  V30 3325 H 321.312 2.03085 -0.307511 0
M  V30 3326 H 319.542 3.39413 1.85299 0
M  V30 3327 H 321.231 3.72948 1.60201 0
M  V30 3328 H 321.997 4.80827 -0.634873 0
M  V30 3329 H 317.876 4.57476 0.568902 0
M  V30 3330 H 321.42 6.61464 -2.21611 0
M  V30 3331 H 317.317 6.37634 -1.00468 0
M  V30 3332 H 318.085 7.7841 -2.53023 0
M  V30 3333 N 320.748 -0.0735177 1.57428 0
M  V30 3334 C 321.973 -0.789787 1.91774 0
M  V30 3335 C 322.398 -1.70413 0.796306 0
M  V30 3336 O 321.756 -1.79555 -0.250961 0
M  V30 3337 C 321.804 -1.5609 3.25067 0
M  V30 3338 O 320.908 -2.67144 3.14178 0
M  V30 3339 H 320.249 -0.215582 0.628029 0
M  V30 3340 H 322.779 -0.0422781 2.04556 0
M  V30 3341 H 322.789 -1.94052 3.58898 0
M  V30 3342 H 321.464 -0.890015 4.06265 0
M  V30 3343 H 320.041 -2.32052 2.91901 0
M  V30 3344 N 322.226 -1.5378 -0.344866 0
M  V30 3345 C 323.642 -1.44015 -0.687888 0
M  V30 3346 C 323.842 -0.595834 -1.92489 0
M  V30 3347 O 322.898 -0.0863064 -2.52352 0
M  V30 3348 C 324.211 -2.87481 -0.881758 0
M  V30 3349 C 325.759 -2.97247 -0.980459 0
M  V30 3350 C 326.234 -4.41819 -1.20665 0
M  V30 3351 N 327.725 -4.45339 -1.27389 0
M  V30 3352 C 328.46 -5.54333 -1.46639 0
M  V30 3353 N 327.956 -6.73335 -1.63071 0
M  V30 3354 N 329.749 -5.41944 -1.49176 0
M  V30 3355 H 321.9 -2.07169 0.468475 0
M  V30 3356 H 324.163 -0.93643 0.147655 0
M  V30 3357 H 323.869 -3.51672 -0.0443444 0
M  V30 3358 H 323.743 -3.32352 -1.78388 0
M  V30 3359 H 326.13 -2.33197 -1.8084 0
M  V30 3360 H 326.211 -2.5574 -0.0552713 0
M  V30 3361 H 325.855 -5.06449 -0.383652 0
M  V30 3362 H 325.785 -4.80917 -2.14539 0
M  V30 3363 H 328.276 -3.59585 -1.1622 0
M  V30 3364 H 328.589 -7.52165 -1.77391 0
M  V30 3365 H 326.934 -6.76282 -1.60209 0
M  V30 3366 H 330.125 -4.47932 -1.3592 0
M  V30 3367 H 330.298 -6.26946 -1.63837 0
M  V30 3368 N 323.704 0.605807 -1.45491 0
M  V30 3369 C 324.929 1.39625 -1.53361 0
M  V30 3370 C 325.354 1.87351 -0.167645 0
M  V30 3371 O 324.712 1.60243 0.848051 0
M  V30 3372 C 324.76 2.57559 -2.5238 0
M  V30 3373 O 323.864 3.58248 -2.04285 0
M  V30 3374 H 323.205 0.416771 -0.516912 0
M  V30 3375 H 325.735 0.737103 -1.90861 0
M  V30 3376 H 325.745 3.0478 -2.71244 0
M  V30 3377 H 324.42 2.22171 -3.51586 0
M  V30 3378 H 322.997 3.17664 -1.95305 0
M  V30 3379 N 325.182 1.32811 0.848464 0
M  V30 3380 C 326.129 1.22265 1.95755 0
M  V30 3381 C 327.099 0.103413 1.65778 0
M  V30 3382 O 328.284 0.280033 1.88734 0
M  V30 3383 C 325.424 0.958014 3.31536 0
M  V30 3384 C 324.537 2.16262 3.73971 0
M  V30 3385 C 323.672 1.83295 4.98575 0
M  V30 3386 C 322.711 3.00041 5.33518 0
M  V30 3387 N 321.848 2.67125 6.49299 0
M  V30 3388 H 326.688 2.17128 2.04107 0
M  V30 3389 H 324.225 1.07982 0.998913 0
M  V30 3390 H 326.183 0.785052 4.09747 0
M  V30 3391 H 324.813 0.046159 3.22767 0
M  V30 3392 H 323.865 2.44565 2.91362 0
M  V30 3393 H 325.177 3.03572 3.95785 0
M  V30 3394 H 324.331 1.62586 5.84509 0
M  V30 3395 H 323.07 0.932078 4.7871 0
M  V30 3396 H 322.075 3.21374 4.46093 0
M  V30 3397 H 323.3 3.90869 5.55336 0
M  V30 3398 H 321.246 1.79586 6.3094 0
M  V30 3399 H 321.163 3.47965 6.71161 0
M  V30 3400 H 322.431 2.49861 7.3837 0
M  V30 3401 N 326.66 -1.06551 1.16123 0
M  V30 3402 C 327.59 -2.15935 0.88851 0
M  V30 3403 C 328.571 -1.69306 -0.164135 0
M  V30 3404 O 329.756 -1.94193 -0.0167857 0
M  V30 3405 C 326.886 -3.45149 0.385942 0
M  V30 3406 C 325.84 -4.05271 1.3762 0
M  V30 3407 C 325.166 -5.29664 0.732137 0
M  V30 3408 C 326.466 -4.44355 2.74493 0
M  V30 3409 H 328.16 -2.39006 1.80323 0
M  V30 3410 H 325.706 -1.14866 0.868435 0
M  V30 3411 H 327.659 -4.21004 0.182647 0
M  V30 3412 H 326.383 -3.21689 -0.564274 0
M  V30 3413 H 325.042 -3.3147 1.56599 0
M  V30 3414 H 324.69 -5.02499 -0.224483 0
M  V30 3415 H 324.39 -5.70848 1.39307 0
M  V30 3416 H 325.914 -6.08218 0.538802 0
M  V30 3417 H 327.328 -5.11303 2.59311 0
M  V30 3418 H 325.725 -4.96515 3.37035 0
M  V30 3419 H 326.795 -3.55339 3.29943 0
M  V30 3420 N 328.138 -0.959301 -1.25041 0
M  V30 3421 C 329.101 -0.487677 -2.23952 0
M  V30 3422 C 330.101 0.41119 -1.55454 0
M  V30 3423 O 331.291 0.207825 -1.72956 0
M  V30 3424 C 328.423 0.294807 -3.39623 0
M  V30 3425 H 329.616 -1.36198 -2.67189 0
M  V30 3426 H 327.169 -0.743042 -1.37508 0
M  V30 3427 H 327.904 1.18658 -3.01813 0
M  V30 3428 H 327.689 -0.35012 -3.90534 0
M  V30 3429 H 329.179 0.614089 -4.1306 0
M  V30 3430 N 329.616 1.39756 -0.72842 0
M  V30 3431 C 330.564 2.32485 -0.0731849 0
M  V30 3432 C 331.558 1.52717 0.733063 0
M  V30 3433 O 332.764 1.68428 0.634988 0
M  V30 3434 H 329.139 0.751984 -0.00486469 0
M  V30 3435 H 331.11 2.85382 -0.871761 0
M  V30 3436 C 329.859 3.37773 0.824908 0
M  V30 3437 H 329.182 3.99227 0.213915 0
M  V30 3438 H 330.622 4.05121 1.25111 0
M  V30 3439 C 329.081 2.74287 1.95622 0
M  V30 3440 O 329.611 2.61618 3.04826 0
M  V30 3441 N 327.817 2.32475 1.74367 0
M  V30 3442 H 327.364 2.4298 0.855494 0
M  V30 3443 H 327.322 1.90337 2.50238 0
M  V30 3444 N 331.094 0.475555 1.50254 0
M  V30 3445 C 332.343 -0.0795996 2.01543 0
M  V30 3446 C 332.656 -1.4038 1.36209 0
M  V30 3447 O 333.862 -2.04415 1.7868 0
M  V30 3448 C 332.318 -0.192363 3.59386 0
M  V30 3449 C 331.926 1.12367 4.33679 0
M  V30 3450 C 333.67 -0.699238 4.18701 0
M  V30 3451 C 331.577 0.974453 5.83317 0
M  V30 3452 H 330.507 -0.0335228 0.753254 0
M  V30 3453 H 333.158 0.611128 1.73025 0
M  V30 3454 H 331.54 -0.946974 3.84511 0
M  V30 3455 H 332.714 1.88958 4.20276 0
M  V30 3456 H 331.029 1.562 3.85993 0
M  V30 3457 H 333.626 -0.827978 5.28251 0
M  V30 3458 H 333.969 -1.69171 3.80377 0
M  V30 3459 H 334.502 -0.00188807 3.978 0
M  V30 3460 H 331.241 1.94042 6.26121 0
M  V30 3461 H 330.761 0.248998 5.99283 0
M  V30 3462 H 332.44 0.642867 6.43798 0
M  V30 3463 N 332.573 -1.56217 0.208337 0
M  V30 3464 C 333.503 -2.22694 -0.702116 0
M  V30 3465 C 334.484 -1.19432 -1.2112 0
M  V30 3466 O 335.669 -1.47978 -1.25762 0
M  V30 3467 C 332.799 -2.8966 -1.9161 0
M  V30 3468 C 331.753 -3.9928 -1.5414 0
M  V30 3469 C 331.079 -4.53476 -2.83308 0
M  V30 3470 C 332.379 -5.17012 -0.741339 0
M  V30 3471 H 334.073 -2.99034 -0.147898 0
M  V30 3472 H 331.619 -1.43831 -0.0696951 0
M  V30 3473 H 333.572 -3.34852 -2.55836 0
M  V30 3474 H 332.296 -2.10746 -2.49507 0
M  V30 3475 H 330.955 -3.54799 -0.922668 0
M  V30 3476 H 330.603 -3.71308 -3.39322 0
M  V30 3477 H 330.303 -5.27451 -2.58976 0
M  V30 3478 H 331.827 -5.01378 -3.485 0
M  V30 3479 H 333.241 -5.58667 -1.28699 0
M  V30 3480 H 331.638 -5.97137 -0.595627 0
M  V30 3481 H 332.708 -4.8423 0.254851 0
M  V30 3482 N 334.051 0.0651679 -1.57465 0
M  V30 3483 C 335.298 0.763063 -1.87573 0
M  V30 3484 C 335.626 1.77242 -0.800961 0
M  V30 3485 O 334.881 1.94651 0.202316 0
M  V30 3486 C 335.18 1.50081 -3.24362 0
M  V30 3487 C 334.846 0.630816 -4.46466 0
M  V30 3488 C 333.508 0.391082 -4.79608 0
M  V30 3489 C 335.86 0.0279465 -5.21193 0
M  V30 3490 C 333.188 -0.460894 -5.84887 0
M  V30 3491 C 335.54 -0.811522 -6.27373 0
M  V30 3492 C 334.204 -1.06106 -6.59013 0
M  V30 3493 H 333.474 0.279224 -0.686378 0
M  V30 3494 H 336.121 0.0236726 -1.91485 0
M  V30 3495 H 334.426 2.31258 -3.16271 0
M  V30 3496 H 336.123 2.04571 -3.44894 0
M  V30 3497 H 332.713 0.8278 -4.2053 0
M  V30 3498 H 336.897 0.200262 -4.95896 0
M  V30 3499 H 332.153 -0.662907 -6.07796 0
M  V30 3500 H 336.327 -1.28537 -6.84435 0
M  V30 3501 H 333.954 -1.723 -7.40417 0
M  V30 3502 N 335.529 1.53961 0.336706 0
M  V30 3503 C 336.757 1.75483 1.09605 0
M  V30 3504 C 337.172 0.4972 1.82136 0
M  V30 3505 O 336.529 -0.53149 1.74589 0
M  V30 3506 C 336.58 2.93943 2.10428 0
M  V30 3507 O 336.301 4.14842 1.40846 0
M  V30 3508 C 337.802 3.27571 2.98684 0
M  V30 3509 H 335.022 0.586166 0.326574 0
M  V30 3510 H 337.566 2.00808 0.38683 0
M  V30 3511 H 335.721 2.70929 2.76905 0
M  V30 3512 H 336.135 4.81383 2.08255 0
M  V30 3513 H 337.609 4.13791 3.6535 0
M  V30 3514 H 338.086 2.44168 3.65074 0
M  V30 3515 H 338.692 3.52615 2.37787 0
M  V30 3516 N 337.007 -0.598083 1.45811 0
M  V30 3517 C 338.423 -0.919847 1.30426 0
M  V30 3518 C 338.623 -1.99759 0.264303 0
M  V30 3519 O 337.679 -2.50221 -0.338472 0
M  V30 3520 C 338.992 -1.35176 2.68603 0
M  V30 3521 C 340.54 -1.46546 2.76574 0
M  V30 3522 C 341.015 -1.9311 4.15298 0
M  V30 3523 N 342.506 -2.00328 4.1764 0
M  V30 3524 C 343.241 -2.37599 5.21856 0
M  V30 3525 N 342.737 -2.73771 6.36413 0
M  V30 3526 N 344.53 -2.38021 5.09218 0
M  V30 3527 H 336.681 0.114111 2.12093 0
M  V30 3528 H 338.944 -0.0116121 0.947929 0
M  V30 3529 H 338.65 -0.633969 3.45939 0
M  V30 3530 H 338.524 -2.3164 2.97696 0
M  V30 3531 H 340.911 -2.17415 1.99537 0
M  V30 3532 H 340.992 -0.483727 2.51185 0
M  V30 3533 H 340.636 -1.22824 4.92825 0
M  V30 3534 H 340.566 -2.92213 4.38086 0
M  V30 3535 H 343.057 -1.74925 3.34977 0
M  V30 3536 H 343.37 -3.0112 7.11721 0
M  V30 3537 H 341.715 -2.71445 6.39799 0
M  V30 3538 H 344.906 -2.09174 4.18765 0
M  V30 3539 H 345.079 -2.66741 5.90554 0
M  V30 3540 N 338.485 -1.33259 -0.841409 0
M  V30 3541 C 339.395 -1.25332 -1.98316 0
M  V30 3542 C 340.411 -0.164364 -1.73222 0
M  V30 3543 O 341.587 -0.387486 -1.97637 0
M  V30 3544 C 338.652 -0.990078 -3.32262 0
M  V30 3545 C 337.713 -2.16879 -3.70489 0
M  V30 3546 C 336.946 -1.91801 -4.98044 0
M  V30 3547 O 337.169 -0.867075 -5.63771 0
M  V30 3548 O 336.103 -2.78267 -5.33714 0
M  V30 3549 H 339.929 -2.21344 -2.07944 0
M  V30 3550 H 337.514 -1.1328 -0.974058 0
M  V30 3551 H 339.396 -0.860321 -4.12524 0
M  V30 3552 H 338.071 -0.0602155 -3.23644 0
M  V30 3553 H 336.978 -2.35407 -2.90748 0
M  V30 3554 H 338.311 -3.0819 -3.8377 0
M  V30 3555 N 339.963 1.05934 -1.16686 0
M  V30 3556 C 340.893 2.1546 -0.899949 0
M  V30 3557 C 341.874 1.69391 0.155154 0
M  V30 3558 O 343.059 1.94199 0.00648693 0
M  V30 3559 C 340.189 3.44939 -0.404241 0
M  V30 3560 C 339.143 4.04536 -1.39767 0
M  V30 3561 C 338.469 5.29268 -0.760216 0
M  V30 3562 C 339.769 4.42893 -2.76845 0
M  V30 3563 H 341.463 2.38046 -1.81588 0
M  V30 3564 H 339.009 1.14404 -0.874514 0
M  V30 3565 H 340.962 4.20901 -0.204971 0
M  V30 3566 H 339.686 3.21983 0.547206 0
M  V30 3567 H 338.345 3.30635 -1.58355 0
M  V30 3568 H 337.993 5.02611 0.197831 0
M  V30 3569 H 337.693 5.70101 -1.42332 0
M  V30 3570 H 339.217 6.07924 -0.57105 0
M  V30 3571 H 340.631 5.09921 -2.62019 0
M  V30 3572 H 339.028 4.94721 -3.39663 0
M  V30 3573 H 340.098 3.53584 -3.31823 0
M  V30 3574 N 341.441 0.965919 1.2453 0
M  V30 3575 C 342.404 0.499547 2.2369 0
M  V30 3576 C 343.404 -0.40294 1.5567 0
M  V30 3577 O 344.594 -0.19865 1.73064 0
M  V30 3578 C 341.726 -0.276792 3.39774 0
M  V30 3579 H 342.919 1.37613 2.66463 0
M  V30 3580 H 340.472 0.750324 1.37112 0
M  V30 3581 H 341.207 -1.17055 3.02438 0
M  V30 3582 H 340.992 0.370826 3.90343 0
M  V30 3583 H 342.482 -0.592175 4.1338 0
M  V30 3584 N 342.919 -1.39368 0.735821 0
M  V30 3585 C 344.335 -1.54204 0.411492 0
M  V30 3586 C 344.535 -1.70268 -1.07755 0
M  V30 3587 O 343.591 -1.70364 -1.86366 0
M  V30 3588 C 344.904 -2.75925 1.19523 0
M  V30 3589 C 346.452 -2.89761 1.18354 0
M  V30 3590 C 346.927 -4.14421 1.94986 0
M  V30 3591 N 348.418 -4.21462 1.92156 0
M  V30 3592 C 349.153 -5.16871 2.48258 0
M  V30 3593 N 348.649 -6.18063 3.13001 0
M  V30 3594 N 350.442 -5.09093 2.38287 0
M  V30 3595 H 342.593 -1.27189 1.70108 0
M  V30 3596 H 344.856 -0.616517 0.720147 0
M  V30 3597 H 344.562 -2.70401 2.24892 0
M  V30 3598 H 344.436 -3.68614 0.800222 0
M  V30 3599 H 346.823 -2.94777 0.137975 0
M  V30 3600 H 346.904 -1.98133 1.61793 0
M  V30 3601 H 346.548 -4.10166 2.99543 0
M  V30 3602 H 346.478 -5.05095 1.48953 0
M  V30 3603 H 348.969 -3.48979 1.44991 0
M  V30 3604 H 349.282 -6.87326 3.53275 0
M  V30 3605 H 347.627 -6.18448 3.17091 0
M  V30 3606 H 350.818 -4.28973 1.8735 0
M  V30 3607 H 350.991 -5.83272 2.82308 0
M  V30 3608 N 344.397 -0.483516 -1.5 0
M  V30 3609 C 345.813 -0.138404 -1.58999 0
M  V30 3610 C 346.013 1.35597 -1.4905 0
M  V30 3611 O 345.069 2.13039 -1.35539 0
M  V30 3612 C 346.382 -0.699658 -2.92447 0
M  V30 3613 C 347.93 -0.664195 -3.05872 0
M  V30 3614 C 348.405 -1.20321 -4.41913 0
M  V30 3615 N 349.896 -1.16315 -4.48358 0
M  V30 3616 C 350.631 -1.55058 -5.52037 0
M  V30 3617 N 350.127 -2.01311 -6.62907 0
M  V30 3618 N 351.92 -1.46584 -5.42651 0
M  V30 3619 H 344.071 -1.45529 -1.5471 0
M  V30 3620 H 346.334 -0.60258 -0.731848 0
M  V30 3621 H 346.04 -1.747 -3.05242 0
M  V30 3622 H 345.914 -0.150194 -3.76901 0
M  V30 3623 H 348.301 0.374272 -2.92717 0
M  V30 3624 H 348.382 -1.25061 -2.23144 0
M  V30 3625 H 348.026 -2.24037 -4.55818 0
M  V30 3626 H 347.956 -0.592896 -5.23252 0
M  V30 3627 H 350.447 -0.824058 -3.68806 0
M  V30 3628 H 350.76 -2.2899 -7.38095 0
M  V30 3629 H 349.105 -2.05273 -6.63994 0
M  V30 3630 H 352.296 -1.10281 -4.54924 0
M  V30 3631 H 352.469 -1.77103 -6.23329 0
M  V30 3632 N 345.875 1.56104 -0.216619 0
M  V30 3633 C 346.805 2.23063 0.690296 0
M  V30 3634 C 347.786 1.20072 1.20485 0
M  V30 3635 O 348.971 1.48643 1.24976 0
M  V30 3636 C 346.101 2.90672 1.90072 0
M  V30 3637 C 345.055 4.00092 1.5202 0
M  V30 3638 C 344.381 4.54972 2.80899 0
M  V30 3639 C 345.681 5.17398 0.71391 0
M  V30 3640 H 347.375 2.99109 0.132038 0
M  V30 3641 H 344.921 1.43866 0.0620664 0
M  V30 3642 H 346.874 3.36204 2.54057 0
M  V30 3643 H 345.598 2.12066 2.48386 0
M  V30 3644 H 344.257 3.55283 0.903839 0
M  V30 3645 H 343.905 3.73102 3.37348 0
M  V30 3646 H 343.605 5.28817 2.56176 0
M  V30 3647 H 345.129 5.0322 3.45836 0
M  V30 3648 H 346.543 5.59342 1.25735 0
M  V30 3649 H 344.94 5.97444 0.563951 0
M  V30 3650 H 346.01 4.84088 -0.280527 0
M  V30 3651 N 347.353 -0.0568162 1.57498 0
M  V30 3652 C 348.263 -1.08346 2.08083 0
M  V30 3653 C 349.279 -1.41439 1.01346 0
M  V30 3654 O 350.455 -1.51316 1.32912 0
M  V30 3655 C 347.52 -2.37352 2.52715 0
M  V30 3656 C 346.581 -2.11093 3.73816 0
M  V30 3657 C 345.814 -3.33949 4.1631 0
M  V30 3658 O 346.037 -4.43622 3.58547 0
M  V30 3659 O 344.971 -3.21279 5.08983 0
M  V30 3660 H 348.797 -0.683667 2.95905 0
M  V30 3661 H 346.382 -0.271965 1.46904 0
M  V30 3662 H 348.264 -3.13246 2.81877 0
M  V30 3663 H 346.939 -2.76681 1.68016 0
M  V30 3664 H 345.846 -1.32856 3.49714 0
M  V30 3665 H 347.179 -1.76637 4.59413 0
M  V30 3666 N 348.832 -1.54138 -0.328536 0
M  V30 3667 C 350.08 -1.71765 -1.06496 0
M  V30 3668 C 350.401 -0.49149 -1.88704 0
M  V30 3669 O 349.671 0.494539 -1.89555 0
M  V30 3670 H 348.251 -0.633295 -0.396164 0
M  V30 3671 H 350.913 -1.91429 -0.366176 0
M  V30 3672 H 350.009 -2.5951 -1.73381 0
M  V30 3673 N 350.31 0.590341 -1.46126 0
M  V30 3674 C 351.538 1.37504 -1.54597 0
M  V30 3675 C 351.953 1.87897 -0.184447 0
M  V30 3676 O 351.31 1.63192 0.816984 0
M  V30 3677 C 351.361 2.56779 -2.54454 0
M  V30 3678 O 351.082 2.08476 -3.85317 0
M  V30 3679 C 352.583 3.49427 -2.72792 0
M  V30 3680 H 349.803 0.420325 -0.523037 0
M  V30 3681 H 352.347 0.718383 -1.91467 0
M  V30 3682 H 350.502 3.1845 -2.20609 0
M  V30 3683 H 350.916 2.86097 -4.396 0
M  V30 3684 H 352.39 4.29619 -3.466 0
M  V30 3685 H 352.867 4.00876 -1.79429 0
M  V30 3686 H 353.473 2.93598 -3.07702 0
M  V30 3687 N 351.788 1.33704 0.83433 0
M  V30 3688 C 352.736 1.24323 1.96587 0
M  V30 3689 C 353.73 0.143659 1.6879 0
M  V30 3690 O 354.936 0.30791 1.77347 0
M  V30 3691 H 351.311 0.385925 0.645419 0
M  V30 3692 H 353.282 2.19978 2.01624 0
M  V30 3693 C 352.031 1.00394 3.32891 0
M  V30 3694 H 351.354 1.84231 3.54822 0
M  V30 3695 H 352.794 0.97862 4.12552 0
M  V30 3696 C 351.253 -0.293047 3.35623 0
M  V30 3697 O 351.783 -1.29823 3.80143 0
M  V30 3698 N 349.989 -0.322174 2.88809 0
M  V30 3699 H 349.536 0.496379 2.52772 0
M  V30 3700 H 349.494 -1.18977 2.91019 0
M  V30 3701 N 353.266 -1.05314 1.17247 0
M  V30 3702 C 354.512 -1.78557 0.961513 0
M  V30 3703 C 354.845 -1.87419 -0.508697 0
M  V30 3704 O 354.12 -1.37307 -1.37757 0
M  V30 3705 C 354.403 -3.22514 1.60176 0
M  V30 3706 C 354.256 -3.21673 3.14399 0
M  V30 3707 C 355.575 -4.20318 1.30463 0
M  V30 3708 H 352.694 -0.6482 0.350723 0
M  V30 3709 H 355.336 -1.23102 1.44727 0
M  V30 3710 H 353.486 -3.69867 1.18871 0
M  V30 3711 H 355.158 -2.82405 3.64753 0
M  V30 3712 H 353.401 -2.60048 3.47214 0
M  V30 3713 H 354.072 -4.23271 3.54324 0
M  V30 3714 H 356.548 -3.81454 1.66229 0
M  V30 3715 H 355.424 -5.19289 1.77848 0
M  V30 3716 H 355.685 -4.41526 0.22521 0
M  V30 3717 N 354.744 -0.972509 -1.24016 0
M  V30 3718 C 355.972 -0.654803 -1.96265 0
M  V30 3719 C 356.387 0.776708 -1.72083 0
M  V30 3720 O 355.744 1.52171 -1.00748 0
M  V30 3721 C 355.795 -0.92592 -3.49441 0
M  V30 3722 O 355.516 -2.30116 -3.72798 0
M  V30 3723 C 357.017 -0.623068 -4.38899 0
M  V30 3724 H 354.237 -0.243907 -0.6251 0
M  V30 3725 H 356.781 -1.30175 -1.57717 0
M  V30 3726 H 354.936 -0.325108 -3.86033 0
M  V30 3727 H 355.35 -2.38483 -4.67147 0
M  V30 3728 H 356.824 -0.863189 -5.45209 0
M  V30 3729 H 357.301 0.442754 -4.36963 0
M  V30 3730 H 357.907 -1.204 -4.07902 0
M  V30 3731 N 356.222 1.38976 -0.743202 0
M  V30 3732 C 357.468 2.0064 -0.295189 0
M  V30 3733 C 357.801 1.5885 1.11716 0
M  V30 3734 O 357.076 0.821181 1.76315 0
M  V30 3735 C 357.359 3.578 -0.406318 0
M  V30 3736 C 357.212 4.09586 -1.85903 0
M  V30 3737 C 358.531 4.39616 0.206439 0
M  V30 3738 H 355.65 0.728935 -0.108733 0
M  V30 3739 H 358.292 1.65067 -0.940897 0
M  V30 3740 H 356.442 3.88235 0.143419 0
M  V30 3741 H 358.114 3.89837 -2.46627 0
M  V30 3742 H 356.357 3.6284 -2.3776 0
M  V30 3743 H 357.028 5.18708 -1.888 0
M  V30 3744 H 359.504 4.15273 -0.262283 0
M  V30 3745 H 358.38 5.48812 0.0983819 0
M  V30 3746 H 358.641 4.22754 1.2935 0
M  V30 3747 N 357.7 0.491464 1.49741 0
M  V30 3748 C 358.648 -0.305837 2.30581 0
M  V30 3749 C 359.642 -0.971642 1.38764 0
M  V30 3750 O 360.848 -0.90042 1.5586 0
M  V30 3751 H 357.223 -0.117482 0.742767 0
M  V30 3752 H 359.194 0.396093 2.95759 0
M  V30 3753 C 357.943 -1.36319 3.19863 0
M  V30 3754 H 357.266 -0.860258 3.90435 0
M  V30 3755 H 358.706 -1.89323 3.79385 0
M  V30 3756 C 357.165 -2.37621 2.38826 0
M  V30 3757 O 357.695 -3.43311 2.08567 0
M  V30 3758 N 355.901 -2.09849 2.01026 0
M  V30 3759 H 355.448 -1.23922 2.25834 0
M  V30 3760 H 355.406 -2.77859 1.47112 0
M  V30 3761 N 359.178 -1.55987 0.224894 0
M  V30 3762 C 360.424 -1.98684 -0.406502 0
M  V30 3763 C 360.757 -1.11248 -1.59177 0
M  V30 3764 O 360.032 -0.170909 -1.93748 0
M  V30 3765 C 360.315 -3.50218 -0.837808 0
M  V30 3766 C 360.168 -4.48426 0.351332 0
M  V30 3767 C 361.487 -4.06243 -1.69278 0
M  V30 3768 H 358.606 -0.722337 -0.146283 0
M  V30 3769 H 361.248 -1.87255 0.321799 0
M  V30 3770 H 359.398 -3.60089 -1.45837 0
M  V30 3771 H 361.07 -4.50562 0.989526 0
M  V30 3772 H 359.313 -4.22159 0.998207 0
M  V30 3773 H 359.984 -5.52 0.00655905 0
M  V30 3774 H 362.46 -3.99337 -1.16914 0
M  V30 3775 H 361.336 -5.12581 -1.96346 0
M  V30 3776 H 361.597 -3.53332 -2.65723 0
M  V30 3777 N 360.656 0.0484629 -1.57525 0
M  V30 3778 C 361.586 1.0549 -2.08313 0
M  V30 3779 C 362.567 1.38929 -0.981463 0
M  V30 3780 O 363.752 1.48151 -1.25558 0
M  V30 3781 C 360.882 2.36162 -2.54646 0
M  V30 3782 C 359.836 2.17016 -3.68901 0
M  V30 3783 C 359.162 3.53278 -4.01371 0
M  V30 3784 C 360.462 1.57219 -4.98076 0
M  V30 3785 H 362.156 0.632195 -2.92649 0
M  V30 3786 H 359.702 0.302654 -1.40784 0
M  V30 3787 H 361.655 3.06882 -2.88793 0
M  V30 3788 H 360.379 2.80456 -1.67368 0
M  V30 3789 H 359.038 1.48733 -3.35073 0
M  V30 3790 H 358.686 3.95185 -3.11188 0
M  V30 3791 H 358.386 3.41299 -4.78318 0
M  V30 3792 H 359.91 4.25391 -4.38035 0
M  V30 3793 H 361.324 2.17832 -5.30304 0
M  V30 3794 H 359.721 1.55871 -5.79503 0
M  V30 3795 H 360.791 0.535956 -4.81929 0
M  V30 3796 N 362.134 1.5431 0.320358 0
M  V30 3797 C 363.084 1.803 1.39556 0
M  V30 3798 C 364.068 0.659166 1.46778 0
M  V30 3799 O 365.26 0.91926 1.51257 0
M  V30 3800 C 362.389 2.03665 2.76361 0
M  V30 3801 C 361.475 3.24178 2.73439 0
M  V30 3802 N 361.866 4.4516 2.40137 0
M  V30 3803 C 360.164 3.25816 3.04565 0
M  V30 3804 C 360.865 5.27109 2.4603 0
M  V30 3805 N 359.841 4.64368 2.82601 0
M  V30 3806 H 363.643 2.71416 1.12742 0
M  V30 3807 H 361.157 1.53548 0.528856 0
M  V30 3808 H 363.154 2.20425 3.53862 0
M  V30 3809 H 361.814 1.13805 3.04103 0
M  V30 3810 H 362.825 4.72104 2.12927 0
M  V30 3811 H 359.502 2.46001 3.37328 0
M  V30 3812 H 360.892 6.33728 2.23246 0
M  V30 3813 N 363.613 -0.582584 1.46437 0
M  V30 3814 C 365.024 -1.1647 1.45916 0
M  V30 3815 C 365.375 -1.95177 0.200077 0
M  V30 3816 O 364.5 -2.04874 -0.696819 0
M  V30 3817 C 365.095 -2.11885 2.64367 0
M  V30 3818 C 363.654 -2.65421 2.66887 0
M  V30 3819 C 362.801 -1.41294 2.38603 0
M  V30 3820 H 365.752 -0.370514 1.54314 0
M  V30 3821 H 365.773 -2.9535 2.39892 0
M  V30 3822 H 365.285 -1.54573 3.5599 0
M  V30 3823 H 363.386 -3.26602 1.79338 0
M  V30 3824 H 363.499 -3.08147 3.66854 0
M  V30 3825 H 361.863 -1.71109 1.88663 0
M  V30 3826 H 362.646 -0.858125 3.32402 0
M  V30 3827 N 365.091 -1.34144 -0.827227 0
M  V30 3828 C 366.339 -1.26009 -1.58007 0
M  V30 3829 C 366.66 0.170971 -1.94249 0
M  V30 3830 O 365.93 1.10256 -1.61927 0
M  V30 3831 H 364.51 -0.463414 -0.585881 0
M  V30 3832 H 367.172 -1.68005 -0.987951 0
M  V30 3833 H 366.268 -1.86187 -2.50481 0
M  V30 3834 N 366.569 1.04691 -1.17803 0
M  V30 3835 C 367.818 1.77176 -0.963931 0
M  V30 3836 C 368.131 1.88888 0.508015 0
M  V30 3837 O 369.337 2.58164 0.840465 0
M  V30 3838 C 367.793 3.18518 -1.67555 0
M  V30 3839 C 367.401 3.14919 -3.18637 0
M  V30 3840 C 369.145 3.95424 -1.54402 0
M  V30 3841 C 367.052 4.51081 -3.82466 0
M  V30 3842 H 365.982 0.664116 -0.357023 0
M  V30 3843 H 368.633 1.17303 -1.4111 0
M  V30 3844 H 367.015 3.78748 -1.15613 0
M  V30 3845 H 368.189 2.64178 -3.77554 0
M  V30 3846 H 366.504 2.51512 -3.31859 0
M  V30 3847 H 369.101 4.96106 -1.99456 0
M  V30 3848 H 369.444 4.13343 -0.495329 0
M  V30 3849 H 369.977 3.41754 -2.0359 0
M  V30 3850 H 366.716 4.38368 -4.87354 0
M  V30 3851 H 366.236 5.01951 -3.28337 0
M  V30 3852 H 367.915 5.2001 -3.84965 0
M  V30 3853 N 368.047 0.979072 1.23499 0
M  V30 3854 C 369.293 0.648178 1.92163 0
M  V30 3855 C 369.626 -0.816049 1.76222 0
M  V30 3856 O 368.901 -1.58849 1.12237 0
M  V30 3857 C 369.184 1.03773 3.44824 0
M  V30 3858 C 369.037 2.55948 3.69879 0
M  V30 3859 C 370.356 0.580653 4.36253 0
M  V30 3860 H 367.475 0.236952 0.69787 0
M  V30 3861 H 370.117 1.22012 1.45647 0
M  V30 3862 H 368.267 0.551058 3.84572 0
M  V30 3863 H 369.939 3.12179 3.3962 0
M  V30 3864 H 368.182 2.98641 3.14636 0
M  V30 3865 H 368.853 2.78255 4.76737 0
M  V30 3866 H 371.329 0.998465 4.03943 0
M  V30 3867 H 370.205 0.881663 5.41773 0
M  V30 3868 H 370.466 -0.519052 4.39042 0
M  V30 3869 N 369.525 -1.3858 0.750561 0
M  V30 3870 C 370.941 -1.53759 0.427824 0
M  V30 3871 C 371.141 -1.71401 -1.05943 0
M  V30 3872 O 370.197 -1.72331 -1.84549 0
M  V30 3873 C 371.51 -2.74642 1.22443 0
M  V30 3874 C 373.058 -2.88489 1.2142 0
M  V30 3875 C 373.533 -4.12329 1.9937 0
M  V30 3876 N 375.024 -4.194 1.96616 0
M  V30 3877 C 375.759 -5.14209 2.53727 0
M  V30 3878 N 375.255 -6.14709 3.19539 0
M  V30 3879 N 377.048 -5.06537 2.43673 0
M  V30 3880 H 369.199 -1.25377 1.71447 0
M  V30 3881 H 371.462 -0.608844 0.726645 0
M  V30 3882 H 371.168 -2.68 2.27747 0
M  V30 3883 H 371.042 -3.67745 0.839273 0
M  V30 3884 H 373.429 -2.94614 0.169232 0
M  V30 3885 H 373.51 -1.96406 1.63885 0
M  V30 3886 H 373.154 -4.06966 3.03877 0
M  V30 3887 H 373.084 -5.03486 1.54302 0
M  V30 3888 H 375.575 -3.47421 1.48684 0
M  V30 3889 H 375.888 -6.8354 3.60545 0
M  V30 3890 H 374.233 -6.1505 3.23633 0
M  V30 3891 H 377.424 -4.26962 1.91889 0
M  V30 3892 H 377.597 -5.80245 2.88479 0
M  V30 3893 N 371.003 -0.499398 -1.49478 0
M  V30 3894 C 372.231 0.0425456 -2.06856 0
M  V30 3895 C 372.646 1.30964 -1.35992 0
M  V30 3896 O 372.003 1.77172 -0.437762 0
M  V30 3897 C 372.054 0.301735 -3.60239 0
M  V30 3898 O 371.775 -0.915127 -4.28436 0
M  V30 3899 C 373.276 0.887499 -4.34325 0
M  V30 3900 H 370.496 -0.0197482 -0.670709 0
M  V30 3901 H 373.04 -0.696297 -1.92281 0
M  V30 3902 H 371.195 0.990556 -3.74522 0
M  V30 3903 H 371.609 -0.676993 -5.20113 0
M  V30 3904 H 373.083 1.01845 -5.42523 0
M  V30 3905 H 373.56 1.88488 -3.96698 0
M  V30 3906 H 374.166 0.236196 -4.24644 0
M  V30 3907 N 372.481 1.55866 -0.233164 0
M  V30 3908 C 373.429 2.22176 0.68851 0
M  V30 3909 C 374.423 1.20487 1.19076 0
M  V30 3910 O 375.629 1.38536 1.14925 0
M  V30 3911 H 372.004 0.712511 0.240483 0
M  V30 3912 H 373.975 2.98212 0.105935 0
M  V30 3913 C 372.724 2.92446 1.88071 0
M  V30 3914 H 372.047 3.70458 1.50337 0
M  V30 3915 H 373.487 3.42226 2.50314 0
M  V30 3916 C 371.946 1.95555 2.74335 0
M  V30 3917 O 372.476 1.47986 3.73447 0
M  V30 3918 N 370.682 1.62953 2.40613 0
M  V30 3919 H 370.229 2.01831 1.60069 0
M  V30 3920 H 370.187 0.983886 2.98609 0
M  V30 3921 N 373.959 -0.0401083 1.57549 0
M  V30 3922 C 374.889 -1.04384 2.08869 0
M  V30 3923 C 375.87 -1.38407 0.988817 0
M  V30 3924 O 377.055 -1.47483 1.26342 0
M  V30 3925 C 374.185 -2.34808 2.55895 0
M  V30 3926 C 373.139 -2.15057 3.70047 0
M  V30 3927 C 372.465 -3.51145 4.03239 0
M  V30 3928 C 373.765 -1.54576 4.98902 0
M  V30 3929 H 375.459 -0.616666 2.92981 0
M  V30 3930 H 373.005 -0.295184 1.40942 0
M  V30 3931 H 374.958 -3.05346 2.90417 0
M  V30 3932 H 373.682 -2.79565 1.68853 0
M  V30 3933 H 372.341 -1.46954 3.35857 0
M  V30 3934 H 371.989 -3.93529 3.13279 0
M  V30 3935 H 371.689 -3.38758 4.80122 0
M  V30 3936 H 373.213 -4.23062 4.40285 0
M  V30 3937 H 374.627 -2.15017 5.31451 0
M  V30 3938 H 373.024 -1.52796 5.80322 0
M  V30 3939 H 374.094 -0.51039 4.82206 0
M  V30 3940 N 375.437 -1.54477 -0.31217 0
M  V30 3941 C 376.685 -1.72884 -1.04668 0
M  V30 3942 C 377.006 -0.511477 -1.88173 0
M  V30 3943 O 376.276 0.474407 -1.90069 0
M  V30 3944 H 374.856 -0.637461 -0.389425 0
M  V30 3945 H 377.518 -1.91807 -0.345852 0
M  V30 3946 H 376.614 -2.61334 -1.70619 0
M  V30 3947 N 376.915 0.57481 -1.46744 0
M  V30 3948 C 378.331 0.898981 -1.31873 0
M  V30 3949 C 378.531 1.99313 -0.29605 0
M  V30 3950 O 377.587 2.50728 0.298621 0
M  V30 3951 C 378.9 1.30886 -2.7072 0
M  V30 3952 C 380.448 1.42127 -2.78871 0
M  V30 3953 C 380.923 1.86478 -4.18318 0
M  V30 3954 N 382.414 1.93658 -4.20774 0
M  V30 3955 C 383.149 2.29267 -5.2557 0
M  V30 3956 N 382.645 2.63612 -6.40688 0
M  V30 3957 N 384.438 2.29889 -5.1294 0
M  V30 3958 H 376.589 -0.147839 -2.11885 0
M  V30 3959 H 378.852 -0.00347013 -0.947994 0
M  V30 3960 H 378.558 0.578853 -3.46904 0
M  V30 3961 H 378.432 2.26874 -3.01343 0
M  V30 3962 H 380.819 2.14213 -2.0297 0
M  V30 3963 H 380.9 0.443705 -2.51922 0
M  V30 3964 H 380.544 1.14968 -4.94717 0
M  V30 3965 H 380.474 2.85207 -4.42679 0
M  V30 3966 H 382.965 1.69574 -3.37718 0
M  V30 3967 H 383.278 2.89759 -7.16421 0
M  V30 3968 H 381.623 2.61232 -6.44036 0
M  V30 3969 H 384.814 2.02485 -4.22039 0
M  V30 3970 H 384.987 2.57312 -5.94722 0
M  V30 3971 N 378.394 1.34581 0.820102 0
M  V30 3972 C 379.344 1.22943 1.92013 0
M  V30 3973 C 380.328 0.127802 1.60392 0
M  V30 3974 O 381.52 0.357737 1.73347 0
M  V30 3975 C 378.649 0.989938 3.28717 0
M  V30 3976 C 377.735 2.13486 3.66449 0
M  V30 3977 N 378.126 3.38625 3.75722 0
M  V30 3978 C 376.424 2.04573 3.96315 0
M  V30 3979 C 377.125 4.13832 4.08801 0
M  V30 3980 N 376.101 3.42451 4.22171 0
M  V30 3981 H 379.903 2.17771 1.97365 0
M  V30 3982 H 377.417 1.2686 1.01392 0
M  V30 3983 H 379.414 0.887462 4.07345 0
M  V30 3984 H 378.074 0.0503691 3.24661 0
M  V30 3985 H 379.085 3.73143 3.59144 0
M  V30 3986 H 375.762 1.1839 4.00362 0
M  V30 3987 H 377.152 5.21909 4.23156 0
M  V30 3988 N 379.872 -1.04064 1.18357 0
M  V30 3989 C 381.121 -1.76662 0.973313 0
M  V30 3990 C 381.434 -1.89154 -0.497991 0
M  V30 3991 O 382.64 -2.58606 -0.826762 0
M  V30 3992 C 381.096 -3.17624 1.69242 0
M  V30 3993 C 380.704 -3.13225 3.20303 0
M  V30 3994 C 382.448 -3.946 1.56497 0
M  V30 3995 C 380.355 -4.49046 3.84853 0
M  V30 3996 H 379.285 -0.662214 0.36054 0
M  V30 3997 H 381.936 -1.16553 1.41731 0
M  V30 3998 H 380.318 -3.78129 1.1762 0
M  V30 3999 H 381.492 -2.62172 3.78949 0
M  V30 4000 H 379.807 -2.49749 3.33189 0
M  V30 4001 H 382.404 -4.95042 2.02084 0
M  V30 4002 H 382.747 -4.13074 0.517243 0
M  V30 4003 H 383.28 -3.4067 2.05399 0
M  V30 4004 H 380.019 -4.35777 4.89672 0
M  V30 4005 H 379.539 -5.00203 3.30994 0
M  V30 4006 H 381.218 -5.17961 3.87718 0
M  V30 4007 N 381.35 -0.985608 -1.22978 0
M  V30 4008 C 382.3 -0.50118 -2.22423 0
M  V30 4009 C 383.284 0.426649 -1.5514 0
M  V30 4010 O 384.476 0.254656 -1.75159 0
M  V30 4011 C 381.605 0.190003 -3.42774 0
M  V30 4012 C 380.691 -0.757703 -4.17276 0
M  V30 4013 N 381.082 -1.90251 -4.68656 0
M  V30 4014 C 379.38 -0.57209 -4.42316 0
M  V30 4015 C 380.081 -2.49676 -5.25392 0
M  V30 4016 N 379.057 -1.78013 -5.13627 0
M  V30 4017 H 382.859 -1.37441 -2.59783 0
M  V30 4018 H 380.373 -0.846941 -1.38567 0
M  V30 4019 H 382.37 0.55439 -4.13197 0
M  V30 4020 H 381.03 1.05946 -3.06929 0
M  V30 4021 H 382.041 -2.28354 -4.64839 0
M  V30 4022 H 378.718 0.251909 -4.16739 0
M  V30 4023 H 380.108 -3.46384 -5.75732 0
M  V30 4024 N 382.828 1.3818 -0.7579 0
M  V30 4025 C 384.077 1.99261 -0.312744 0
M  V30 4026 C 384.39 1.60846 1.11301 0
M  V30 4027 O 385.596 2.14929 1.65885 0
M  V30 4028 C 384.052 3.56294 -0.50821 0
M  V30 4029 C 383.66 4.03657 -1.94333 0
M  V30 4030 C 385.404 4.24313 -0.125982 0
M  V30 4031 C 383.311 5.53347 -2.08712 0
M  V30 4032 H 382.241 0.745456 -0.113185 0
M  V30 4033 H 384.892 1.57889 -0.935056 0
M  V30 4034 H 383.274 3.95575 0.183353 0
M  V30 4035 H 384.448 3.75655 -2.66871 0
M  V30 4036 H 382.763 3.48376 -2.28086 0
M  V30 4037 H 385.36 5.34279 -0.212125 0
M  V30 4038 H 385.703 4.05962 0.921964 0
M  V30 4039 H 386.236 3.90285 -0.769563 0
M  V30 4040 H 382.975 5.76607 -3.11777 0
M  V30 4041 H 382.495 5.83078 -1.4064 0
M  V30 4042 H 384.174 6.19111 -1.87912 0
M  V30 4043 N 384.306 0.507319 1.49211 0
M  V30 4044 C 385.717 0.0611118 1.866 0
M  V30 4045 C 386.068 -1.35488 1.41907 0
M  V30 4046 O 385.193 -2.0108 0.799726 0
M  V30 4047 C 385.788 0.104125 3.3864 0
M  V30 4048 C 384.347 -0.28677 3.75306 0
M  V30 4049 C 383.494 0.473893 2.73221 0
M  V30 4050 H 386.445 0.719775 1.41439 0
M  V30 4051 H 386.466 -0.689672 3.74198 0
M  V30 4052 H 385.978 1.13482 3.71138 0
M  V30 4053 H 384.079 -1.32046 3.48417 0
M  V30 4054 H 384.192 0.0370745 4.79086 0
M  V30 4055 H 382.556 -0.0770644 2.54583 0
M  V30 4056 H 383.339 1.50478 3.08563 0
M  V30 4057 N 385.784 -1.5574 0.241426 0
M  V30 4058 C 386.714 -2.24133 -0.654722 0
M  V30 4059 C 387.695 -1.21974 -1.1856 0
M  V30 4060 O 388.88 -1.50612 -1.22595 0
M  V30 4061 C 386.01 -2.93659 -1.85423 0
M  V30 4062 C 384.964 -4.0246 -1.45636 0
M  V30 4063 C 384.29 -4.59383 -2.73626 0
M  V30 4064 C 385.59 -5.18468 -0.631506 0
M  V30 4065 H 387.284 -2.99281 -0.0844353 0
M  V30 4066 H 384.83 -1.43947 -0.0391707 0
M  V30 4067 H 386.783 -3.40203 -2.48676 0
M  V30 4068 H 385.507 -2.15991 -2.44981 0
M  V30 4069 H 384.166 -3.56676 -0.847202 0
M  V30 4070 H 383.814 -3.78422 -3.3137 0
M  V30 4071 H 383.514 -5.32826 -2.4773 0
M  V30 4072 H 385.038 -5.08658 -3.37786 0
M  V30 4073 H 386.452 -5.61272 -1.1682 0
M  V30 4074 H 384.849 -5.98266 -0.468831 0
M  V30 4075 H 385.919 -4.8358 0.357506 0
M  V30 4076 N 387.262 0.0317525 -1.57568 0
M  V30 4077 C 388.192 1.03274 -2.0942 0
M  V30 4078 C 389.173 1.3788 -0.996143 0
M  V30 4079 O 390.358 1.46811 -1.27122 0
M  V30 4080 C 387.488 2.33448 -2.57137 0
M  V30 4081 C 386.442 2.13091 -3.71182 0
M  V30 4082 C 385.768 3.49001 -4.05095 0
M  V30 4083 C 387.068 1.51928 -4.99715 0
M  V30 4084 H 388.762 0.60112 -2.93303 0
M  V30 4085 H 386.308 0.287705 -1.41097 0
M  V30 4086 H 388.261 3.03802 -2.92032 0
M  V30 4087 H 386.985 2.78665 -1.70333 0
M  V30 4088 H 385.644 1.45171 -3.36632 0
M  V30 4089 H 385.292 3.91862 -3.15362 0
M  V30 4090 H 384.992 3.36207 -4.81911 0
M  V30 4091 H 386.516 4.20721 -4.42522 0
M  V30 4092 H 387.93 2.12196 -5.32584 0
M  V30 4093 H 386.327 1.49716 -5.81124 0
M  V30 4094 H 387.397 0.484811 -4.8247 0
M  V30 4095 N 388.74 1.54641 0.303973 0
M  V30 4096 C 389.986 1.74038 1.04109 0
M  V30 4097 C 390.319 0.523051 1.87024 0
M  V30 4098 O 389.594 -0.479874 1.88487 0
M  V30 4099 C 389.877 3.02761 1.94955 0
M  V30 4100 C 389.73 4.34787 1.1524 0
M  V30 4101 C 391.049 3.27336 2.94175 0
M  V30 4102 H 388.168 0.63323 0.377079 0
M  V30 4103 H 390.81 1.87354 0.316001 0
M  V30 4104 H 388.96 2.9154 2.56782 0
M  V30 4105 H 390.632 4.57922 0.557236 0
M  V30 4106 H 388.875 4.31407 0.455053 0
M  V30 4107 H 389.546 5.21116 1.8205 0
M  V30 4108 H 392.022 3.38148 2.42477 0
M  V30 4109 H 390.898 4.18726 3.54908 0
M  V30 4110 H 391.159 2.45491 3.67677 0
M  V30 4111 N 390.218 -0.567019 1.47046 0
M  V30 4112 C 391.165 -1.67489 1.58796 0
M  V30 4113 C 392.135 -1.60399 0.43144 0
M  V30 4114 O 393.32 -1.79378 0.650233 0
M  V30 4115 C 390.46 -3.05821 1.59899 0
M  V30 4116 C 389.573 -3.2342 2.86397 0
M  V30 4117 C 388.708 -4.52093 2.789 0
M  V30 4118 C 387.747 -4.6309 4.00267 0
M  V30 4119 N 386.884 -5.83106 3.91064 0
M  V30 4120 H 391.724 -1.56785 2.53422 0
M  V30 4121 H 389.261 -0.763896 1.2571 0
M  V30 4122 H 391.219 -3.8591 1.58522 0
M  V30 4123 H 389.849 -3.15384 0.687929 0
M  V30 4124 H 388.901 -2.3683 2.97684 0
M  V30 4125 H 390.213 -3.27412 3.76301 0
M  V30 4126 H 389.367 -5.4043 2.75718 0
M  V30 4127 H 388.106 -4.50565 1.86662 0
M  V30 4128 H 387.111 -3.73168 4.03765 0
M  V30 4129 H 388.336 -4.66386 4.93621 0
M  V30 4130 H 386.282 -5.82546 3.01623 0
M  V30 4131 H 386.199 -5.88434 4.74638 0
M  V30 4132 H 387.467 -6.73831 3.91882 0
M  V30 4133 N 391.696 -1.35014 -0.812953 0
M  V30 4134 C 393.107 -1.25035 -1.38648 0
M  V30 4135 C 393.458 0.119967 -1.95833 0
M  V30 4136 O 392.583 1.02069 -1.90816 0
M  V30 4137 C 393.178 -2.26394 -2.52054 0
M  V30 4138 C 391.737 -2.20175 -3.05287 0
M  V30 4139 C 390.884 -2.12451 -1.78213 0
M  V30 4140 H 393.835 -1.46235 -0.616516 0
M  V30 4141 H 393.856 -1.88672 -3.30429 0
M  V30 4142 H 393.368 -3.26116 -2.10404 0
M  V30 4143 H 391.469 -1.23841 -3.51417 0
M  V30 4144 H 391.582 -3.11863 -3.63701 0
M  V30 4145 H 389.946 -1.58328 -1.9951 0
M  V30 4146 H 390.729 -3.14024 -1.38723 0
M  V30 4147 N 393.175 1.03435 -1.18907 0
M  V30 4148 C 394.105 2.13503 -0.945448 0
M  V30 4149 C 395.086 1.69682 0.119189 0
M  V30 4150 O 396.271 1.94169 -0.034707 0
M  V30 4151 C 393.401 3.44004 -0.477316 0
M  V30 4152 C 392.355 4.0148 -1.48316 0
M  V30 4153 C 391.681 5.27537 -0.872311 0
M  V30 4154 C 392.981 4.36921 -2.86177 0
M  V30 4155 H 394.675 2.34141 -1.86597 0
M  V30 4156 H 392.221 1.12523 -0.898584 0
M  V30 4157 H 394.174 4.20372 -0.294204 0
M  V30 4158 H 392.898 3.23072 0.478786 0
M  V30 4159 H 391.557 3.27201 -1.65332 0
M  V30 4160 H 391.205 5.02917 0.0911752 0
M  V30 4161 H 390.905 5.66954 -1.54393 0
M  V30 4162 H 392.429 6.06576 -0.699871 0
M  V30 4163 H 393.843 5.04248 -2.72776 0
M  V30 4164 H 392.24 4.87405 -3.50081 0
M  V30 4165 H 393.31 3.46466 -3.39248 0
M  V30 4166 N 394.653 0.992116 1.22453 0
M  V30 4167 C 395.9 0.667534 1.91181 0
M  V30 4168 C 396.228 -0.800317 1.77271 0
M  V30 4169 O 395.483 -1.59421 1.13505 0
M  V30 4170 C 395.782 1.01832 3.42586 0
M  V30 4171 C 395.448 2.47831 3.76684 0
M  V30 4172 C 394.11 2.87729 3.85701 0
M  V30 4173 C 396.462 3.42466 3.92895 0
M  V30 4174 C 393.79 4.21252 4.08367 0
M  V30 4175 C 396.142 4.75648 4.17064 0
M  V30 4176 C 394.806 5.15288 4.24305 0
M  V30 4177 H 394.076 0.244268 0.699581 0
M  V30 4178 H 396.723 1.24816 1.45235 0
M  V30 4179 H 395.028 0.355769 3.90181 0
M  V30 4180 H 396.725 0.745228 3.94014 0
M  V30 4181 H 393.315 2.15905 3.70247 0
M  V30 4182 H 397.499 3.12814 3.85307 0
M  V30 4183 H 392.755 4.51554 4.122 0
M  V30 4184 H 396.929 5.48924 4.2855 0
M  V30 4185 H 394.556 6.18769 4.41621 0
M  V30 4186 N 396.131 -1.37776 0.765217 0
M  V30 4187 C 397.079 -2.32209 0.134798 0
M  V30 4188 C 398.073 -1.54607 -0.692315 0
M  V30 4189 O 399.279 -1.70052 -0.590109 0
M  V30 4190 H 395.654 -0.751591 0.0248005 0
M  V30 4191 H 397.625 -2.8297 0.947119 0
M  V30 4192 C 396.374 -3.39841 -0.735063 0
M  V30 4193 H 395.697 -3.99654 -0.107991 0
M  V30 4194 H 397.137 -4.08296 -1.14326 0
M  V30 4195 C 395.596 -2.79378 -1.88281 0
M  V30 4196 O 396.126 -2.69608 -2.97783 0
M  V30 4197 N 394.332 -2.37016 -1.68142 0
M  V30 4198 H 393.879 -2.45162 -0.790772 0
M  V30 4199 H 393.837 -1.96905 -2.45104 0
M  V30 4200 N 397.609 -0.515225 -1.4894 0
M  V30 4201 C 398.539 0.244628 -2.32215 0
M  V30 4202 C 399.52 0.949136 -1.41157 0
M  V30 4203 O 400.705 0.937783 -1.70057 0
M  V30 4204 C 397.835 1.30096 -3.22013 0
M  V30 4205 C 396.789 0.715486 -4.21977 0
M  V30 4206 C 396.115 1.87339 -5.00808 0
M  V30 4207 C 397.415 -0.302982 -5.2142 0
M  V30 4208 H 399.109 -0.450501 -2.95991 0
M  V30 4209 H 396.655 -0.218098 -1.42339 0
M  V30 4210 H 398.608 1.84037 -3.79089 0
M  V30 4211 H 397.332 2.02547 -2.56207 0
M  V30 4212 H 395.991 0.197715 -3.66066 0
M  V30 4213 H 395.639 2.58592 -4.31438 0
M  V30 4214 H 395.339 1.48764 -5.68457 0
M  V30 4215 H 396.863 2.41686 -5.60732 0
M  V30 4216 H 398.277 0.148802 -5.73107 0
M  V30 4217 H 396.674 -0.60532 -5.97039 0
M  V30 4218 H 397.744 -1.21395 -4.69459 0
M  V30 4219 N 399.087 1.5561 -0.249682 0
M  V30 4220 C 400.333 1.99306 0.374841 0
M  V30 4221 C 400.666 1.13767 1.57387 0
M  V30 4222 O 399.941 0.201711 1.93451 0
M  V30 4223 C 400.224 3.51507 0.781986 0
M  V30 4224 C 400.077 4.4781 -0.422629 0
M  V30 4225 C 401.396 4.08884 1.62793 0
M  V30 4226 H 398.515 0.724572 0.134773 0
M  V30 4227 H 401.157 1.86719 -0.351549 0
M  V30 4228 H 399.307 3.62363 1.4009 0
M  V30 4229 H 400.979 4.48931 -1.06108 0
M  V30 4230 H 399.222 4.20518 -1.06524 0
M  V30 4231 H 399.893 5.51919 -0.0943766 0
M  V30 4232 H 402.369 4.01147 1.10547 0
M  V30 4233 H 401.245 5.1564 1.88166 0
M  V30 4234 H 401.506 3.57515 2.60068 0
M  V30 4235 N 400.565 -0.0233959 1.57583 0
M  V30 4236 C 401.79 -0.728376 1.94189 0
M  V30 4237 C 402.215 -1.67793 0.850119 0
M  V30 4238 O 401.573 -1.80262 -0.19371 0
M  V30 4239 C 401.621 -1.45669 3.29868 0
M  V30 4240 O 400.725 -2.57013 3.22518 0
M  V30 4241 H 400.066 -0.195493 0.63457 0
M  V30 4242 H 402.596 0.0228214 2.04587 0
M  V30 4243 H 402.606 -1.82535 3.6489 0
M  V30 4244 H 401.281 -0.760314 4.08891 0
M  V30 4245 H 399.858 -2.22648 2.99136 0
M  V30 4246 N 402.043 -1.548 -0.295768 0
M  V30 4247 C 403.289 -1.75517 -1.02789 0
M  V30 4248 C 403.644 -0.537266 -1.84746 0
M  V30 4249 O 402.937 0.470299 -1.85738 0
M  V30 4250 C 403.131 -2.98797 -1.961 0
M  V30 4251 C 402.96 -4.3246 -1.23321 0
M  V30 4252 C 401.73 -4.96131 -0.95822 0
M  V30 4253 C 403.928 -5.10365 -0.635024 0
M  V30 4254 N 401.91 -6.1357 -0.201257 0
M  V30 4255 C 403.281 -6.19999 -0.0110937 0
M  V30 4256 C 405.336 -4.94957 -0.540594 0
M  V30 4257 C 404.039 -7.15904 0.698136 0
M  V30 4258 C 406.065 -5.91197 0.154992 0
M  V30 4259 C 405.427 -7.00203 0.767752 0
M  V30 4260 H 401.526 -0.694786 -0.358882 0
M  V30 4261 H 404.11 -1.92281 -0.305943 0
M  V30 4262 H 402.281 -2.83448 -2.6554 0
M  V30 4263 H 404.013 -3.08017 -2.62502 0
M  V30 4264 H 400.768 -4.56595 -1.25771 0
M  V30 4265 H 401.192 -6.76802 0.16389 0
M  V30 4266 H 405.834 -4.10803 -1.00003 0
M  V30 4267 H 403.552 -7.99595 1.16933 0
M  V30 4268 H 407.138 -5.81353 0.228069 0
M  V30 4269 H 406.018 -7.73393 1.29743 0
M  V30 4270 N 403.521 0.559213 -1.47345 0
M  V30 4271 C 404.484 1.64854 -1.59235 0
M  V30 4272 C 405.484 1.53851 -0.467607 0
M  V30 4273 O 406.674 1.58045 -0.732617 0
M  V30 4274 C 403.806 3.04388 -1.53496 0
M  V30 4275 H 404.999 1.55662 -2.56339 0
M  V30 4276 H 402.552 0.778973 -1.35505 0
M  V30 4277 H 403.287 3.19115 -0.577604 0
M  V30 4278 H 403.072 3.13783 -2.35123 0
M  V30 4279 H 404.562 3.83642 -1.6495 0
M  V30 4280 N 404.999 1.35443 0.805782 0
M  V30 4281 C 406.246 1.28761 1.56291 0
M  V30 4282 C 406.574 -0.137747 1.94012 0
M  V30 4283 O 405.829 -1.1032 1.61642 0
M  V30 4284 C 406.128 2.14045 2.86216 0
M  V30 4285 C 405.794 3.62826 2.67709 0
M  V30 4286 C 404.456 4.0338 2.6237 0
M  V30 4287 C 406.808 4.57227 2.50186 0
M  V30 4288 C 404.136 5.36501 2.37451 0
M  V30 4289 C 406.488 5.90547 2.26797 0
M  V30 4290 C 405.152 6.30245 2.1988 0
M  V30 4291 H 404.422 0.471171 0.571908 0
M  V30 4292 H 407.069 1.67347 0.930974 0
M  V30 4293 H 405.374 1.68342 3.53791 0
M  V30 4294 H 407.071 2.0621 3.43917 0
M  V30 4295 H 403.661 3.30644 2.72713 0
M  V30 4296 H 407.845 4.2678 2.53323 0
M  V30 4297 H 403.101 5.66259 2.30567 0
M  V30 4298 H 407.275 6.63274 2.12228 0
M  V30 4299 H 404.902 7.33328 2.00333 0
M  V30 4300 N 406.477 -1.02803 1.19454 0
M  V30 4301 C 407.724 -1.76217 0.997693 0
M  V30 4302 C 408.052 -1.887 -0.47144 0
M  V30 4303 O 407.307 -1.4011 -1.3663 0
M  V30 4304 C 407.606 -3.18941 1.6128 0
M  V30 4305 C 407.272 -3.26463 3.11019 0
M  V30 4306 C 405.934 -3.28223 3.51885 0
M  V30 4307 C 408.286 -3.25542 4.07028 0
M  V30 4308 C 405.614 -3.26719 4.8731 0
M  V30 4309 C 407.966 -3.25579 5.42385 0
M  V30 4310 C 406.63 -3.25637 5.82681 0
M  V30 4311 H 405.9 -0.644823 0.365082 0
M  V30 4312 H 408.547 -1.20655 1.4871 0
M  V30 4313 H 406.852 -3.77587 1.04572 0
M  V30 4314 H 408.549 -3.74415 1.43577 0
M  V30 4315 H 405.139 -3.25822 2.78457 0
M  V30 4316 H 409.323 -3.23362 3.76498 0
M  V30 4317 H 404.579 -3.25089 5.1781 0
M  V30 4318 H 408.753 -3.23817 6.16535 0
M  V30 4319 H 406.38 -3.24226 6.87591 0
M  V30 4320 N 407.956 -0.998596 -1.21925 0
M  V30 4321 C 408.903 -0.553621 -2.24062 0
M  V30 4322 C 409.873 0.416999 -1.6078 0
M  V30 4323 O 411.058 0.320482 -1.88089 0
M  V30 4324 C 408.198 0.119959 -3.44891 0
M  V30 4325 C 407.311 -0.893077 -4.22668 0
M  V30 4326 C 406.446 -0.192424 -5.30851 0
M  V30 4327 C 405.485 -1.19344 -6.00353 0
M  V30 4328 N 404.622 -0.520707 -7.00166 0
M  V30 4329 H 409.462 -1.4293 -2.61486 0
M  V30 4330 H 406.999 -0.715838 -1.28507 0
M  V30 4331 H 408.957 0.527459 -4.13852 0
M  V30 4332 H 407.587 0.959389 -3.08214 0
M  V30 4333 H 406.639 -1.41886 -3.52948 0
M  V30 4334 H 407.951 -1.65512 -4.70539 0
M  V30 4335 H 407.105 0.271515 -6.06092 0
M  V30 4336 H 405.844 0.602075 -4.83969 0
M  V30 4337 H 404.849 -1.66795 -5.23889 0
M  V30 4338 H 406.074 -1.98891 -6.49322 0
M  V30 4339 H 404.02 0.254252 -6.55507 0
M  V30 4340 H 403.937 -1.2211 -7.46073 0
M  V30 4341 H 405.205 -0.0797596 -7.79459 0
M  V30 4342 N 409.434 1.37368 -0.772513 0
M  V30 4343 C 410.662 2.03942 -0.348588 0
M  V30 4344 C 411.077 1.58264 1.02947 0
M  V30 4345 O 410.434 0.764246 1.65727 0
M  V30 4346 C 410.485 3.5946 -0.38351 0
M  V30 4347 O 410.206 4.03468 -1.70721 0
M  V30 4348 C 411.707 4.4327 0.0519152 0
M  V30 4349 H 408.927 0.654931 -0.145966 0
M  V30 4350 H 411.471 1.75686 -1.04665 0
M  V30 4351 H 409.626 3.86486 0.265978 0
M  V30 4352 H 410.04 4.97991 -1.64636 0
M  V30 4353 H 411.514 5.51995 -0.0236733 0
M  V30 4354 H 411.991 4.2514 1.10238 0
M  V30 4355 H 412.597 4.21471 -0.569415 0
M  V30 4356 N 410.912 0.523116 1.48665 0
M  V30 4357 C 412.323 0.0808997 1.86525 0
M  V30 4358 C 412.674 -1.33975 1.43336 0
M  V30 4359 O 411.799 -2.00221 0.821009 0
M  V30 4360 C 412.394 0.140037 3.3851 0
M  V30 4361 C 410.953 -0.246948 3.75589 0
M  V30 4362 C 410.1 0.502845 2.72703 0
M  V30 4363 H 413.051 0.734736 1.40667 0
M  V30 4364 H 413.072 -0.649945 3.74908 0
M  V30 4365 H 412.584 1.17412 3.69914 0
M  V30 4366 H 410.685 -1.28343 3.49798 0
M  V30 4367 H 410.798 0.0878859 4.79019 0
M  V30 4368 H 409.162 -0.0500581 2.54651 0
M  V30 4369 H 409.945 1.53743 3.0695 0
M  V30 4370 N 412.39 -1.55475 0.257931 0
M  V30 4371 C 413.636 -1.99502 -0.364266 0
M  V30 4372 C 413.969 -1.146 -1.56782 0
M  V30 4373 O 413.244 -0.211968 -1.93342 0
M  V30 4374 C 413.527 -3.51917 -0.763333 0
M  V30 4375 C 413.38 -4.4758 0.446371 0
M  V30 4376 C 414.699 -4.09742 -1.60623 0
M  V30 4377 H 411.818 -0.725277 -0.130929 0
M  V30 4378 H 414.46 -1.8653 0.361446 0
M  V30 4379 H 412.61 -3.63101 -1.38166 0
M  V30 4380 H 414.282 -4.48362 1.08487 0
M  V30 4381 H 412.525 -4.19947 1.08753 0
M  V30 4382 H 413.196 -5.51862 0.123645 0
M  V30 4383 H 415.672 -4.01727 -1.08418 0
M  V30 4384 H 414.548 -5.16631 -1.85429 0
M  V30 4385 H 414.809 -3.58889 -2.58169 0
M  V30 4386 N 413.868 0.0150385 -1.57593 0
M  V30 4387 C 414.778 1.02791 -2.10882 0
M  V30 4388 C 415.794 1.38702 -1.0506 0
M  V30 4389 O 416.97 1.47739 -1.36877 0
M  V30 4390 C 414.035 2.30568 -2.58919 0
M  V30 4391 C 413.096 2.01108 -3.79281 0
M  V30 4392 C 412.329 3.22794 -4.25018 0
M  V30 4393 O 412.552 4.33959 -3.70183 0
M  V30 4394 O 411.486 3.07672 -5.17322 0
M  V30 4395 H 415.312 0.604973 -2.97613 0
M  V30 4396 H 412.897 0.23292 -1.47573 0
M  V30 4397 H 414.779 3.05662 -2.90084 0
M  V30 4398 H 413.454 2.72129 -1.75293 0
M  V30 4399 H 412.361 1.23537 -3.53114 0
M  V30 4400 H 413.694 1.64394 -4.63935 0
M  V30 4401 N 415.346 1.54954 0.287554 0
M  V30 4402 C 416.594 1.74528 1.01904 0
M  V30 4403 C 416.915 0.541349 1.87335 0
M  V30 4404 O 416.185 -0.444108 1.908 0
M  V30 4405 H 414.765 0.643576 0.379235 0
M  V30 4406 H 417.427 1.92333 0.315294 0
M  V30 4407 H 416.523 2.64015 1.6644 0
M  V30 4408 N 416.824 -0.551391 1.4764 0
M  V30 4409 C 417.787 -1.64007 1.60107 0
M  V30 4410 C 418.787 -1.53601 0.47576 0
M  V30 4411 O 419.977 -1.57655 0.740988 0
M  V30 4412 C 417.109 -3.03569 1.55108 0
M  V30 4413 H 418.302 -1.543 2.57161 0
M  V30 4414 H 415.855 -0.771776 1.35917 0
M  V30 4415 H 416.59 -3.18804 0.594519 0
M  V30 4416 H 416.375 -3.12532 2.36783 0
M  V30 4417 H 417.865 -3.82762 1.66982 0
M  V30 4418 N 418.302 -1.35869 -0.798587 0
M  V30 4419 C 419.234 -1.25305 -1.91915 0
M  V30 4420 C 420.247 -0.174548 -1.61862 0
M  V30 4421 O 421.436 -0.428499 -1.73281 0
M  V30 4422 C 418.536 -0.9086 -3.26493 0
M  V30 4423 C 417.709 -2.08711 -3.84394 0
M  V30 4424 C 416.768 -1.71717 -4.97393 0
M  V30 4425 O 415.794 -2.43692 -5.14396 0
M  V30 4426 N 416.996 -0.645473 -5.769 0
M  V30 4427 H 419.761 -2.21849 -2.01502 0
M  V30 4428 H 417.322 -1.29143 -0.976408 0
M  V30 4429 H 419.314 -0.642455 -3.99568 0
M  V30 4430 H 417.884 -0.0325815 -3.12583 0
M  V30 4431 H 417.104 -2.51659 -3.03416 0
M  V30 4432 H 418.392 -2.87468 -4.19809 0
M  V30 4433 H 417.79 -0.047648 -5.6568 0
M  V30 4434 H 416.347 -0.43913 -6.50319 0
M  V30 4435 N 419.78 1.02168 -1.19998 0
M  V30 4436 C 421.008 1.79296 -1.03249 0
M  V30 4437 C 421.423 1.84103 0.418502 0
M  V30 4438 O 420.78 1.29031 1.29063 0
M  V30 4439 C 420.831 3.24007 -1.60319 0
M  V30 4440 O 420.552 3.19512 -2.99739 0
M  V30 4441 C 422.053 4.17704 -1.48453 0
M  V30 4442 H 419.273 0.564016 -0.363493 0
M  V30 4443 H 421.817 1.28639 -1.58973 0
M  V30 4444 H 419.972 3.7183 -1.08727 0
M  V30 4445 H 420.386 4.10306 -3.26725 0
M  V30 4446 H 421.86 5.17104 -1.93153 0
M  V30 4447 H 422.337 4.37029 -0.436193 0
M  V30 4448 H 422.943 3.7576 -1.99211 0
M  V30 4449 N 421.258 1.00505 1.21394 0
M  V30 4450 C 422.483 0.706367 1.95001 0
M  V30 4451 C 422.908 -0.72463 1.73582 0
M  V30 4452 O 422.266 -1.49702 1.0227 0
M  V30 4453 C 422.314 1.03299 3.45487 0
M  V30 4454 O 421.418 0.138275 4.12168 0
M  V30 4455 H 420.759 0.263175 0.609619 0
M  V30 4456 H 423.289 1.34531 1.54151 0
M  V30 4457 H 423.299 0.979872 3.96059 0
M  V30 4458 H 421.974 2.07567 3.60401 0
M  V30 4459 H 420.551 0.247928 3.72075 0
M  V30 4460 N 422.737 -1.36956 0.779787 0
M  V30 4461 C 423.986 -1.98738 0.344405 0
M  V30 4462 C 424.299 -1.62596 -1.08728 0
M  V30 4463 O 425.505 -2.1754 -1.62445 0
M  V30 4464 C 423.961 -3.5544 0.564829 0
M  V30 4465 C 423.569 -4.00514 2.0073 0
M  V30 4466 C 425.313 -4.24059 0.193471 0
M  V30 4467 C 423.22 -5.49957 2.17489 0
M  V30 4468 H 422.15 -0.743561 0.12503 0
M  V30 4469 H 424.801 -1.56381 0.960057 0
M  V30 4470 H 423.183 -3.95817 -0.120397 0
M  V30 4471 H 424.357 -3.71362 2.72814 0
M  V30 4472 H 422.672 -3.44703 2.336 0
M  V30 4473 H 425.269 -5.33874 0.297097 0
M  V30 4474 H 425.612 -4.07378 -0.857263 0
M  V30 4475 H 426.145 -3.89012 0.831556 0
M  V30 4476 H 422.884 -5.71574 3.2091 0
M  V30 4477 H 422.404 -5.80767 1.49899 0
M  V30 4478 H 424.083 -6.16043 1.97738 0
M  V30 4479 N 424.215 -0.530993 -1.48385 0
M  V30 4480 C 425.445 -0.00133928 -2.066 0
M  V30 4481 C 425.853 1.28599 -1.38777 0
M  V30 4482 O 425.196 1.77599 -0.469495 0
M  V30 4483 C 425.258 0.292137 -3.58311 0
M  V30 4484 C 424.922 -0.901864 -4.48013 0
M  V30 4485 C 425.919 -1.80053 -4.87726 0
M  V30 4486 C 423.604 -1.10915 -4.89901 0
M  V30 4487 C 425.598 -2.89038 -5.68098 0
M  V30 4488 C 423.285 -2.20213 -5.70043 0
M  V30 4489 C 424.283 -3.09107 -6.0905 0
M  V30 4490 O 423.971 -4.16514 -6.87583 0
M  V30 4491 H 423.703 -0.0308475 -0.675296 0
M  V30 4492 H 426.257 -0.736335 -1.91748 0
M  V30 4493 H 424.487 1.08112 -3.7128 0
M  V30 4494 H 426.176 0.763994 -3.98645 0
M  V30 4495 H 426.942 -1.65234 -4.55986 0
M  V30 4496 H 422.821 -0.426498 -4.59023 0
M  V30 4497 H 426.365 -3.58451 -5.98464 0
M  V30 4498 H 422.262 -2.35016 -6.01197 0
M  V30 4499 H 423.03 -4.14237 -7.05939 0
M  V30 4500 N 425.693 1.55336 -0.266172 0
M  V30 4501 C 426.623 2.25146 0.618981 0
M  V30 4502 C 427.604 1.23845 1.16604 0
M  V30 4503 O 428.789 1.52544 1.20183 0
M  V30 4504 C 425.919 2.96572 1.80728 0
M  V30 4505 C 424.873 4.04726 1.39215 0
M  V30 4506 C 424.199 4.63678 2.66283 0
M  V30 4507 C 425.499 5.19407 0.548942 0
M  V30 4508 H 427.193 2.99377 0.0368116 0
M  V30 4509 H 424.739 1.43991 0.0162651 0
M  V30 4510 H 426.692 3.44116 2.43232 0
M  V30 4511 H 425.416 2.19861 2.41514 0
M  V30 4512 H 424.075 3.57979 0.790351 0
M  V30 4513 H 423.723 3.83646 3.25308 0
M  V30 4514 H 423.423 5.367 2.39222 0
M  V30 4515 H 424.947 5.13967 3.29651 0
M  V30 4516 H 426.361 5.63059 1.07876 0
M  V30 4517 H 424.758 5.98936 0.373593 0
M  V30 4518 H 425.828 4.8295 -0.434394 0
M  V30 4519 N 427.171 -0.0066808 1.57599 0
M  V30 4520 C 428.134 -0.985035 2.06953 0
M  V30 4521 C 429.134 -1.27663 0.977687 0
M  V30 4522 O 430.324 -1.22293 1.24057 0
M  V30 4523 C 427.456 -2.3118 2.50536 0
M  V30 4524 H 428.649 -0.558255 2.94658 0
M  V30 4525 H 426.202 -0.254011 1.54222 0
M  V30 4526 H 426.937 -2.78561 1.66054 0
M  V30 4527 H 426.722 -2.11338 3.3027 0
M  V30 4528 H 428.212 -3.01377 2.8907 0
M  V30 4529 N 428.649 -1.55105 -0.279332 0
M  V30 4530 C 429.874 -1.7976 -1.03446 0
M  V30 4531 C 430.299 -0.565952 -1.79384 0
M  V30 4532 O 429.657 0.484259 -1.74713 0
M  V30 4533 C 429.705 -3.0179 -1.97371 0
M  V30 4534 O 428.809 -2.76432 -3.06038 0
M  V30 4535 H 428.15 -0.594334 -0.29608 0
M  V30 4536 H 430.68 -2.02235 -0.310165 0
M  V30 4537 H 430.69 -3.30351 -2.39441 0
M  V30 4538 H 429.365 -3.91085 -1.4151 0
M  V30 4539 H 427.942 -2.58949 -2.68328 0
M  V30 4540 N 430.127 0.543554 -1.4793 0
M  V30 4541 C 431.352 1.32995 -1.59145 0
M  V30 4542 C 431.777 1.86472 -0.246956 0
M  V30 4543 O 431.135 1.63696 0.779324 0
M  V30 4544 C 431.183 2.46623 -2.63077 0
M  V30 4545 O 430.287 3.49261 -2.19295 0
M  V30 4546 H 429.628 0.394472 -0.534124 0
M  V30 4547 H 432.158 0.655489 -1.93816 0
M  V30 4548 H 432.168 2.93001 -2.83926 0
M  V30 4549 H 430.843 2.07059 -3.60693 0
M  V30 4550 H 429.42 3.09094 -2.08603 0
M  V30 4551 N 431.605 1.3629 0.791371 0
M  V30 4552 C 433.016 1.27225 1.36641 0
M  V30 4553 C 433.367 -0.0887968 1.95999 0
M  V30 4554 O 432.492 -0.990207 1.92416 0
M  V30 4555 C 433.087 2.30375 2.48421 0
M  V30 4556 C 431.646 2.25004 3.01746 0
M  V30 4557 C 430.793 2.15259 1.7481 0
M  V30 4558 H 433.744 1.47198 0.593173 0
M  V30 4559 H 433.765 1.93905 3.27385 0
M  V30 4560 H 433.277 3.29422 2.05189 0
M  V30 4561 H 431.378 1.29417 3.49403 0
M  V30 4562 H 431.491 3.1761 3.58693 0
M  V30 4563 H 429.855 1.61482 1.96966 0
M  V30 4564 H 430.638 3.16191 1.33709 0
M  V30 4565 N 433.083 -1.0153 1.20538 0
M  V30 4566 C 433.993 -2.13557 0.971113 0
M  V30 4567 C 435.009 -1.73845 -0.0734366 0
M  V30 4568 O 436.185 -2.01075 0.114299 0
M  V30 4569 C 433.25 -3.42661 0.527639 0
M  V30 4570 C 432.311 -3.96608 1.64319 0
M  V30 4571 C 431.544 -5.1955 1.22078 0
M  V30 4572 O 431.767 -5.70329 0.0900198 0
M  V30 4573 O 430.701 -5.66681 2.02871 0
M  V30 4574 H 434.527 -2.3619 1.90913 0
M  V30 4575 H 432.112 -1.11946 0.989362 0
M  V30 4576 H 433.994 -4.20404 0.289621 0
M  V30 4577 H 432.669 -3.21441 -0.381779 0
M  V30 4578 H 431.576 -3.20139 1.93551 0
M  V30 4579 H 432.909 -4.22219 2.52966 0
M  V30 4580 N 434.561 -1.01147 -1.20859 0
M  V30 4581 C 435.807 -0.698899 -1.90377 0
M  V30 4582 C 436.14 0.76904 -1.78324 0
M  V30 4583 O 435.415 1.55817 -1.16409 0
M  V30 4584 C 435.698 -1.12878 -3.41951 0
M  V30 4585 C 435.551 -2.65665 -3.62963 0
M  V30 4586 C 436.87 -0.696114 -4.3456 0
M  V30 4587 H 433.989 -0.255372 -0.691342 0
M  V30 4588 H 436.631 -1.25831 -1.42361 0
M  V30 4589 H 434.781 -0.652827 -3.82976 0
M  V30 4590 H 436.453 -3.21074 -3.31224 0
M  V30 4591 H 434.696 -3.06878 -3.06608 0
M  V30 4592 H 435.367 -2.90797 -4.69192 0
M  V30 4593 H 437.843 -1.10521 -4.01154 0
M  V30 4594 H 436.719 -1.025 -5.39245 0
M  V30 4595 H 436.98 0.402465 -4.40264 0
M  V30 4596 N 436.039 1.36541 -0.78704 0
M  V30 4597 C 436.949 2.3387 -0.184896 0
M  V30 4598 C 437.965 1.60927 0.661697 0
M  V30 4599 O 439.141 1.92927 0.57804 0
M  V30 4600 C 436.206 3.40122 0.672145 0
M  V30 4601 C 435.267 4.28867 -0.19267 0
M  V30 4602 C 434.5 5.30045 0.623561 0
M  V30 4603 O 434.723 5.39232 1.8597 0
M  V30 4604 O 433.657 6.01895 0.0247068 0
M  V30 4605 H 437.483 2.87126 -0.989562 0
M  V30 4606 H 435.068 1.38969 -0.548455 0
M  V30 4607 H 436.95 4.05093 1.16094 0
M  V30 4608 H 435.625 2.89169 1.45474 0
M  V30 4609 H 434.532 3.66945 -0.728166 0
M  V30 4610 H 435.865 4.83165 -0.938722 0
M  V30 4611 N 437.518 0.538854 1.48102 0
M  V30 4612 C 438.766 0.00798599 2.02098 0
M  V30 4613 C 439.087 -1.33922 1.41739 0
M  V30 4614 O 438.357 -1.86932 0.585934 0
M  V30 4615 H 436.937 -3.62179e-05 0.747 0
M  V30 4616 H 439.599 0.7047 1.81714 0
M  V30 4617 H 438.695 -0.0937672 3.11959 0
M  V30 4618 N 438.996 -1.55193 0.274407 0
M  V30 4619 C 440.242 -1.99877 -0.343086 0
M  V30 4620 C 440.575 -1.16256 -1.55558 0
M  V30 4621 O 439.85 -0.232462 -1.93106 0
M  V30 4622 C 440.133 -3.52706 -0.725965 0
M  V30 4623 C 439.986 -4.47081 0.493818 0
M  V30 4624 C 441.305 -4.11422 -1.56268 0
M  V30 4625 H 438.424 -0.726625 -0.123229 0
M  V30 4626 H 441.066 -1.86136 0.38121 0
M  V30 4627 H 439.216 -3.64546 -1.34307 0
M  V30 4628 H 440.888 -4.47186 1.13237 0
M  V30 4629 H 439.131 -4.1877 1.13201 0
M  V30 4630 H 439.802 -5.51699 0.18217 0
M  V30 4631 H 442.278 -4.02855 -1.04151 0
M  V30 4632 H 441.154 -5.18568 -1.79939 0
M  V30 4633 H 441.415 -3.61607 -2.54348 0
M  V30 4634 N 440.474 -0.00167713 -1.576 0
M  V30 4635 C 441.699 0.69739 -1.95323 0
M  V30 4636 C 442.124 1.6642 -0.876706 0
M  V30 4637 O 441.482 1.80548 0.165007 0
M  V30 4638 C 441.53 1.40403 -3.32144 0
M  V30 4639 O 440.634 2.5185 -3.26566 0
M  V30 4640 H 439.975 0.185373 -0.637599 0
M  V30 4641 H 442.505 -0.0553665 -2.04525 0
M  V30 4642 H 442.515 1.76707 -3.67748 0
M  V30 4643 H 441.19 0.695167 -4.10049 0
M  V30 4644 H 439.767 2.17861 -3.0264 0
M  V30 4645 N 441.952 1.55251 0.271103 0
M  V30 4646 C 443.2 1.75599 1.00047 0
M  V30 4647 C 443.521 0.561188 1.8675 0
M  V30 4648 O 442.791 -0.423846 1.9126 0
M  V30 4649 H 441.371 0.647562 0.372387 0
M  V30 4650 H 444.033 1.92656 0.294876 0
M  V30 4651 H 443.129 2.65766 1.6363 0
M  V30 4652 N 443.43 -0.535701 1.48216 0
M  V30 4653 C 444.846 -0.863701 1.3421 0
M  V30 4654 C 445.046 -1.98458 0.34879 0
M  V30 4655 O 444.102 -2.51432 -0.23204 0
M  V30 4656 C 445.415 -1.23662 2.74095 0
M  V30 4657 C 446.963 -1.34683 2.82541 0
M  V30 4658 C 447.438 -1.75322 4.23115 0
M  V30 4659 N 448.929 -1.82434 4.2576 0
M  V30 4660 C 449.664 -2.15252 5.31464 0
M  V30 4661 N 449.16 -2.46533 6.47452 0
M  V30 4662 N 450.953 -2.16209 5.18855 0
M  V30 4663 H 443.104 0.203965 2.11418 0
M  V30 4664 H 445.367 0.0286033 0.947568 0
M  V30 4665 H 445.073 -0.486674 3.48316 0
M  V30 4666 H 444.947 -2.18805 3.07253 0
M  V30 4667 H 447.334 -2.08756 2.08579 0
M  V30 4668 H 447.415 -0.376756 2.5301 0
M  V30 4669 H 447.059 -1.01812 4.97591 0
M  V30 4670 H 446.989 -2.7337 4.50085 0
M  V30 4671 H 449.48 -1.6056 3.42095 0
M  V30 4672 H 449.793 -2.70662 7.23852 0
M  V30 4673 H 448.138 -2.44065 6.50736 0
M  V30 4674 H 451.329 -1.91224 4.2726 0
M  V30 4675 H 451.502 -2.41453 6.01335 0
M  V30 4676 N 444.908 -1.36708 -0.784132 0
M  V30 4677 C 446.138 -1.34203 -1.57077 0
M  V30 4678 C 446.546 0.0774945 -1.89041 0
M  V30 4679 O 445.889 1.04628 -1.50992 0
M  V30 4680 C 445.951 -2.10351 -2.91535 0
M  V30 4681 C 445.615 -3.59405 -2.82272 0
M  V30 4682 C 446.612 -4.53545 -2.54151 0
M  V30 4683 C 444.297 -4.02362 -3.00683 0
M  V30 4684 C 446.291 -5.8862 -2.44551 0
M  V30 4685 C 443.978 -5.37526 -2.90704 0
M  V30 4686 C 444.976 -6.30468 -2.62677 0
M  V30 4687 O 444.664 -7.63149 -2.52702 0
M  V30 4688 H 444.396 -0.461791 -0.493685 0
M  V30 4689 H 446.95 -1.80475 -0.980712 0
M  V30 4690 H 445.18 -1.5875 -3.52612 0
M  V30 4691 H 446.869 -2.00636 -3.52845 0
M  V30 4692 H 447.635 -4.21669 -2.39625 0
M  V30 4693 H 443.514 -3.30389 -3.21503 0
M  V30 4694 H 447.058 -6.61133 -2.22596 0
M  V30 4695 H 442.955 -5.69008 -3.04795 0
M  V30 4696 H 443.723 -7.73331 -2.68144 0
M  V30 4697 N 446.386 1.0089 -1.21074 0
M  V30 4698 C 447.633 1.74607 -1.0256 0
M  V30 4699 C 447.961 1.89426 0.44136 0
M  V30 4700 O 447.216 1.42266 1.34384 0
M  V30 4701 C 447.515 3.16335 -1.66334 0
M  V30 4702 C 447.181 3.21474 -3.16173 0
M  V30 4703 C 445.843 3.22583 -3.57062 0
M  V30 4704 C 448.195 3.19025 -4.12156 0
M  V30 4705 C 445.523 3.18925 -4.92446 0
M  V30 4706 C 447.875 3.16909 -5.47496 0
M  V30 4707 C 446.539 3.16326 -5.87787 0
M  V30 4708 H 445.809 0.638933 -0.375294 0
M  V30 4709 H 448.456 1.18274 -1.50611 0
M  V30 4710 H 446.761 3.75876 -1.10566 0
M  V30 4711 H 448.458 3.72083 -1.49516 0
M  V30 4712 H 445.048 3.2135 -2.83605 0
M  V30 4713 H 449.232 3.17332 -3.81595 0
M  V30 4714 H 444.488 3.16809 -5.22917 0
M  V30 4715 H 448.662 3.13968 -6.21609 0
M  V30 4716 H 446.289 3.13246 -6.92662 0
M  V30 4717 N 447.864 1.01787 1.20321 0
M  V30 4718 C 449.112 0.706538 1.89347 0
M  V30 4719 C 449.433 -0.766289 1.79313 0
M  V30 4720 O 448.703 -1.55126 1.19635 0
M  V30 4721 H 447.283 0.258348 0.700903 0
M  V30 4722 H 449.945 1.28974 1.46122 0
M  V30 4723 H 449.041 0.991066 2.95946 0
M  V30 4724 N 449.342 -1.36122 0.79427 0
M  V30 4725 C 450.619 -1.93398 0.292685 0
M  V30 4726 C 450.999 -1.72567 -1.21589 0
M  V30 4727 O 450.347 -1.08745 -2.00965 0
M  V30 4728 C 450.557 -3.42099 0.690614 0
M  V30 4729 C 451.905 -4.19231 0.673105 0
M  V30 4730 O 452.929 -3.50559 0.631389 0
M  V30 4731 O 451.788 -5.41732 0.720362 0
M  V30 4732 H 448.882 -0.823712 0.0736693 0
M  V30 4733 H 451.428 -1.45273 0.87714 0
M  V30 4734 H 450.2 -3.50938 1.73085 0
M  V30 4735 H 449.823 -3.97519 0.0803036 0
M  V30 4736 N 450.82 -0.546701 -1.47814 0
M  V30 4737 C 452.06 -0.0209604 -2.04389 0
M  V30 4738 C 452.424 1.29993 -1.413 0
M  V30 4739 O 453.625 1.91273 -1.8886 0
M  V30 4740 C 451.896 0.0812844 -3.57308 0
M  V30 4741 S 453.455 0.55467 -4.3528 0
M  V30 4742 H 450.273 -0.0200865 -0.710716 0
M  V30 4743 H 452.875 -0.731055 -1.81317 0
M  V30 4744 H 451.579 -0.884616 -4.00753 0
M  V30 4745 H 451.11 0.815253 -3.8486 0
M  V30 4746 H 453.125 1.81627 -4.61764 0
M  V30 4747 N 452.299 1.55045 -0.282633 0
M  V30 4748 C 453.246 2.22822 0.601566 0
M  V30 4749 C 454.216 1.20431 1.14392 0
M  V30 4750 O 455.401 1.48996 1.19184 0
M  V30 4751 C 452.541 2.95873 1.77632 0
M  V30 4752 C 451.654 4.12999 1.26711 0
M  V30 4753 C 450.789 4.73676 2.40426 0
M  V30 4754 C 449.828 5.82981 1.86545 0
M  V30 4755 N 448.965 6.3769 2.93762 0
M  V30 4756 H 453.805 2.97995 0.0169528 0
M  V30 4757 H 451.342 1.471 -0.00339964 0
M  V30 4758 H 453.3 3.36447 2.46697 0
M  V30 4759 H 451.93 2.2311 2.33285 0
M  V30 4760 H 450.982 3.77494 0.469314 0
M  V30 4761 H 452.294 4.91803 0.832518 0
M  V30 4762 H 451.448 5.17008 3.17471 0
M  V30 4763 H 450.187 3.94164 2.87203 0
M  V30 4764 H 449.192 5.39092 1.07983 0
M  V30 4765 H 450.417 6.64366 1.40694 0
M  V30 4766 H 448.363 5.61069 3.39908 0
M  V30 4767 H 448.28 7.11788 2.54744 0
M  V30 4768 H 449.548 6.8568 3.7076 0
M  V30 4769 N 453.777 0.010035 1.57597 0
M  V30 4770 C 454.687 -0.994226 2.12491 0
M  V30 4771 C 455.703 -1.37013 1.07254 0
M  V30 4772 O 456.879 -1.45542 1.3921 0
M  V30 4773 C 453.944 -2.2642 2.62555 0
M  V30 4774 C 453.005 -1.95049 3.82432 0
M  V30 4775 C 452.238 -3.15991 4.30099 0
M  V30 4776 O 452.461 -4.28015 3.7704 0
M  V30 4777 O 451.395 -2.99403 5.22151 0
M  V30 4778 H 455.221 -0.557549 2.98538 0
M  V30 4779 H 452.806 -0.209413 1.47925 0
M  V30 4780 H 454.688 -3.01009 2.9491 0
M  V30 4781 H 453.363 -2.69306 1.796 0
M  V30 4782 H 452.27 -1.17904 3.55034 0
M  V30 4783 H 453.603 -1.56992 4.66491 0
M  V30 4784 N 455.255 -1.55392 -0.262866 0
M  V30 4785 C 456.165 -1.92077 -1.34698 0
M  V30 4786 C 457.181 -0.819227 -1.53508 0
M  V30 4787 O 458.357 -1.11921 -1.67439 0
M  V30 4788 C 455.422 -2.19407 -2.68443 0
M  V30 4789 C 454.483 -3.42905 -2.58292 0
M  V30 4790 C 453.716 -3.68921 -3.85659 0
M  V30 4791 O 453.939 -2.97275 -4.8681 0
M  V30 4792 O 452.873 -4.62455 -3.85252 0
M  V30 4793 H 456.699 -2.84384 -1.06581 0
M  V30 4794 H 454.284 -1.42069 -0.462264 0
M  V30 4795 H 456.166 -2.38365 -3.47506 0
M  V30 4796 H 454.841 -1.30282 -2.96325 0
M  V30 4797 H 453.748 -3.29272 -1.7757 0
M  V30 4798 H 455.081 -4.32282 -2.35358 0
M  V30 4799 N 456.733 0.527833 -1.48498 0
M  V30 4800 C 457.643 1.65907 -1.65867 0
M  V30 4801 C 458.659 1.6537 -0.541192 0
M  V30 4802 O 459.835 1.84282 -0.812534 0
M  V30 4803 C 456.9 3.02364 -1.69637 0
M  V30 4804 C 455.961 3.1374 -2.93028 0
M  V30 4805 C 455.194 4.43688 -2.96609 0
M  V30 4806 O 455.417 5.30913 -2.08538 0
M  V30 4807 O 454.351 4.59475 -3.88802 0
M  V30 4808 H 458.177 1.5419 -2.61647 0
M  V30 4809 H 455.762 0.701163 -1.31924 0
M  V30 4810 H 457.644 3.83515 -1.74625 0
M  V30 4811 H 456.319 3.14401 -0.770312 0
M  V30 4812 H 455.226 2.31877 -2.93571 0
M  V30 4813 H 456.559 3.06621 -3.85026 0
M  V30 4814 N 458.211 1.37122 0.776871 0
M  V30 4815 C 459.141 1.35164 1.90402 0
M  V30 4816 C 460.122 0.221069 1.68657 0
M  V30 4817 O 461.307 0.420642 1.8959 0
M  V30 4818 C 458.437 1.15274 3.27611 0
M  V30 4819 C 457.391 2.25289 3.63908 0
M  V30 4820 C 456.717 1.90527 4.99603 0
M  V30 4821 C 458.017 3.67446 3.71188 0
M  V30 4822 H 459.711 2.29482 1.92297 0
M  V30 4823 H 457.257 1.10465 0.923773 0
M  V30 4824 H 459.21 1.12536 4.06096 0
M  V30 4825 H 457.934 0.174102 3.26136 0
M  V30 4826 H 456.593 2.27174 2.87728 0
M  V30 4827 H 456.241 0.91206 4.94662 0
M  V30 4828 H 455.941 2.64193 5.24858 0
M  V30 4829 H 457.465 1.89367 5.80493 0
M  V30 4830 H 458.879 3.67719 4.39836 0
M  V30 4831 H 457.276 4.40123 4.07936 0
M  V30 4832 H 458.346 4.01443 2.71977 0
M  V30 4833 N 459.689 -1.00246 1.21608 0
M  V30 4834 C 460.619 -2.10921 1.00172 0
M  V30 4835 C 461.6 -1.69938 -0.0741587 0
M  V30 4836 O 462.785 -1.94009 0.0861753 0
M  V30 4837 C 459.915 -3.42618 0.568355 0
M  V30 4838 C 458.869 -3.97407 1.58909 0
M  V30 4839 C 458.195 -5.25038 1.01187 0
M  V30 4840 C 459.495 -4.2918 2.97661 0
M  V30 4841 H 461.189 -2.29112 1.92739 0
M  V30 4842 H 458.735 -1.10101 0.928102 0
M  V30 4843 H 460.688 -4.19444 0.405555 0
M  V30 4844 H 459.412 -3.24227 -0.392961 0
M  V30 4845 H 458.071 -3.22703 1.73949 0
M  V30 4846 H 457.719 -5.02982 0.0421965 0
M  V30 4847 H 457.419 -5.62661 1.6937 0
M  V30 4848 H 458.943 -6.04507 0.860448 0
M  V30 4849 H 460.357 -4.96839 2.86049 0
M  V30 4850 H 458.754 -4.77952 3.6288 0
M  V30 4851 H 459.824 -3.3735 3.48315 0
M  V30 4852 N 461.167 -1.02423 -1.1978 0
M  V30 4853 C 462.578 -0.748389 -1.71044 0
M  V30 4854 C 462.929 0.732398 -1.82017 0
M  V30 4855 O 462.054 1.57116 -1.48807 0
M  V30 4856 C 462.649 -1.35187 -3.1066 0
M  V30 4857 C 461.208 -1.12472 -3.59203 0
M  V30 4858 C 460.355 -1.45283 -2.36195 0
M  V30 4859 H 463.306 -1.19275 -1.04686 0
M  V30 4860 H 463.327 -0.746408 -3.73107 0
M  V30 4861 H 462.839 -2.4296 -3.02642 0
M  V30 4862 H 460.94 -0.0649983 -3.72543 0
M  V30 4863 H 461.053 -1.81016 -4.43588 0
M  V30 4864 H 459.417 -0.872034 -2.39307 0
M  V30 4865 H 460.2 -2.54129 -2.30811 0
M  V30 4866 N 462.645 1.35699 -0.801477 0
M  V30 4867 C 463.592 2.29876 -0.206294 0
M  V30 4868 C 464.562 1.52565 0.656752 0
M  V30 4869 O 465.747 1.81024 0.602906 0
M  V30 4870 C 462.887 3.39052 0.643272 0
M  V30 4871 C 462 4.31335 -0.239644 0
M  V30 4872 C 461.135 5.27599 0.61744 0
M  V30 4873 C 460.174 6.11521 -0.26619 0
M  V30 4874 N 459.311 6.99938 0.550571 0
M  V30 4875 H 464.151 2.80187 -1.01484 0
M  V30 4876 H 461.688 1.37902 -0.511997 0
M  V30 4877 H 463.646 4.0101 1.15094 0
M  V30 4878 H 462.276 2.9003 1.41713 0
M  V30 4879 H 461.328 3.70426 -0.865381 0
M  V30 4880 H 462.64 4.90243 -0.919985 0
M  V30 4881 H 461.794 5.94906 1.19045 0
M  V30 4882 H 460.533 4.69176 1.33137 0
M  V30 4883 H 459.538 5.43166 -0.851507 0
M  V30 4884 H 460.763 6.72022 -0.9779 0
M  V30 4885 H 458.709 6.44008 1.24856 0
M  V30 4886 H 458.626 7.55966 -0.071832 0
M  V30 4887 H 459.894 7.71599 1.10702 0
M  V30 4888 N 464.123 0.554532 1.47522 0
M  V30 4889 C 465.086 -0.184174 2.28459 0
M  V30 4890 C 466.086 -0.845195 1.36796 0
M  V30 4891 O 467.276 -0.701467 1.59452 0
M  V30 4892 C 464.408 -1.26903 3.16399 0
M  V30 4893 H 465.601 0.526751 2.95238 0
M  V30 4894 H 463.154 0.311375 1.53167 0
M  V30 4895 H 463.889 -2.01244 2.54306 0
M  V30 4896 H 463.674 -0.799883 3.83854 0
M  V30 4897 H 465.164 -1.78794 3.77389 0
M  V30 4898 N 465.601 -1.54893 0.290851 0
M  V30 4899 C 466.534 -2.19289 -0.631489 0
M  V30 4900 C 467.512 -1.15893 -1.14051 0
M  V30 4901 O 468.696 -1.4449 -1.21058 0
M  V30 4902 C 465.823 -2.82866 -1.86291 0
M  V30 4903 C 464.869 -3.997 -1.48801 0
M  V30 4904 S 465.702 -5.32641 -0.552644 0
M  V30 4905 C 466.858 -5.99696 -1.79209 0
M  V30 4906 H 467.091 -2.9718 -0.0843791 0
M  V30 4907 H 464.624 -1.54218 0.075031 0
M  V30 4908 H 466.582 -3.20124 -2.56964 0
M  V30 4909 H 465.243 -2.04839 -2.38117 0
M  V30 4910 H 464.436 -4.42932 -2.40473 0
M  V30 4911 H 464.038 -3.63947 -0.861321 0
M  V30 4912 H 466.33 -6.19886 -2.734 0
M  V30 4913 H 467.273 -6.94071 -1.40251 0
M  V30 4914 H 467.681 -5.29226 -1.96419 0
M  V30 4915 N 467.08 -0.0183926 -1.57589 0
M  V30 4916 C 468.357 0.700621 -1.82622 0
M  V30 4917 C 468.737 1.90951 -0.90005 0
M  V30 4918 O 468.085 2.28452 0.0469145 0
M  V30 4919 C 468.295 1.08899 -3.31575 0
M  V30 4920 C 469.643 1.48514 -3.9778 0
M  V30 4921 O 470.667 1.18227 -3.36007 0
M  V30 4922 O 469.526 2.04903 -5.06633 0
M  V30 4923 H 466.62 0.342743 -0.752633 0
M  V30 4924 H 469.166 -0.0452548 -1.6964 0
M  V30 4925 H 467.938 0.228113 -3.90635 0
M  V30 4926 H 467.561 1.89338 -3.49624 0
M  V30 4927 N 468.558 1.5553 0.254621 0
M  V30 4928 C 469.468 1.92789 1.33677 0
M  V30 4929 C 470.484 0.827356 1.53071 0
M  V30 4930 O 471.66 1.12807 1.66843 0
M  V30 4931 C 468.725 2.20827 2.67275 0
M  V30 4932 C 467.786 3.4427 2.5647 0
M  V30 4933 C 467.019 3.70961 3.83697 0
M  V30 4934 O 467.242 2.99852 4.85227 0
M  V30 4935 O 466.176 4.64491 3.82794 0
M  V30 4936 H 470.002 2.84945 1.05071 0
M  V30 4937 H 467.587 1.42312 0.454723 0
M  V30 4938 H 469.469 2.40204 3.46237 0
M  V30 4939 H 468.144 1.31851 2.9563 0
M  V30 4940 H 467.051 3.30209 1.75821 0
M  V30 4941 H 468.384 4.33524 2.33062 0
M  V30 4942 N 470.036 -0.519951 1.48776 0
M  V30 4943 C 471.261 -1.30447 1.6124 0
M  V30 4944 C 471.686 -1.86055 0.276591 0
M  V30 4945 O 471.044 -1.64915 -0.753183 0
M  V30 4946 C 471.092 -2.42406 2.66967 0
M  V30 4947 O 470.196 -3.45728 2.24824 0
M  V30 4948 H 469.537 -0.385924 0.540332 0
M  V30 4949 H 472.067 -0.624572 1.94834 0
M  V30 4950 H 472.077 -2.88447 2.88552 0
M  V30 4951 H 470.752 -2.01294 3.63941 0
M  V30 4952 H 469.329 -3.05737 2.13494 0
M  V30 4953 N 471.514 -1.37532 -0.769588 0
M  V30 4954 C 472.76 -1.33057 -1.53048 0
M  V30 4955 C 473.093 0.0841865 -1.94017 0
M  V30 4956 O 472.368 1.04198 -1.64235 0
M  V30 4957 C 472.651 -2.27166 -2.79406 0
M  V30 4958 C 472.504 -3.77429 -2.44677 0
M  V30 4959 C 473.823 -2.19683 -3.81349 0
M  V30 4960 H 470.942 -0.484655 -0.555228 0
M  V30 4961 H 473.584 -1.68251 -0.882702 0
M  V30 4962 H 471.734 -1.97283 -3.34682 0
M  V30 4963 H 473.406 -4.17918 -1.953 0
M  V30 4964 H 471.649 -3.95892 -1.77346 0
M  V30 4965 H 472.32 -4.38716 -3.35011 0
M  V30 4966 H 474.796 -2.46029 -3.35573 0
M  V30 4967 H 473.672 -2.87668 -4.67481 0
M  V30 4968 H 473.933 -1.19045 -4.25771 0
M  V30 4969 N 472.992 0.995999 -1.22138 0
M  V30 4970 C 473.955 2.06711 -0.990109 0
M  V30 4971 C 474.955 1.60744 0.0422978 0
M  V30 4972 O 476.145 1.73095 -0.195895 0
M  V30 4973 C 473.277 3.37288 -0.49491 0
M  V30 4974 H 474.47 2.28661 -1.94047 0
M  V30 4975 H 472.023 1.16711 -1.03963 0
M  V30 4976 H 472.758 3.21022 0.459948 0
M  V30 4977 H 472.543 3.71986 -1.23971 0
M  V30 4978 H 474.033 4.16103 -0.353253 0
M  V30 4979 N 474.47 1.03057 1.19235 0
M  V30 4980 C 475.886 0.747947 1.40989 0
M  V30 4981 C 476.086 -0.666752 1.90149 0
M  V30 4982 O 475.142 -1.43249 2.07933 0
M  V30 4983 C 476.455 1.7855 2.41951 0
M  V30 4984 C 478.003 1.80524 2.55695 0
M  V30 4985 C 478.478 2.83243 3.59913 0
M  V30 4986 N 479.969 2.8207 3.67411 0
M  V30 4987 C 480.704 3.58204 4.47747 0
M  V30 4988 N 480.2 4.44057 5.31775 0
M  V30 4989 N 481.993 3.46738 4.42413 0
M  V30 4990 H 474.144 1.94367 0.856468 0
M  V30 4991 H 476.407 0.840412 0.438647 0
M  V30 4992 H 476.113 2.79973 2.12857 0
M  V30 4993 H 475.987 1.6092 3.41152 0
M  V30 4994 H 478.374 0.79778 2.84112 0
M  V30 4995 H 478.455 2.02229 1.56643 0
M  V30 4996 H 478.099 3.84161 3.32239 0
M  V30 4997 H 478.029 2.58795 4.5862 0
M  V30 4998 H 480.52 2.19803 3.074 0
M  V30 4999 H 480.833 4.98884 5.90199 0
M  V30 5000 H 479.178 4.48129 5.3123 0
M  V30 5001 H 482.369 2.79077 3.75811 0
M  V30 5002 H 482.542 4.06322 5.04783 0
M  V30 5003 N 475.948 -1.35272 0.808662 0
M  V30 5004 C 476.895 -2.29764 0.218482 0
M  V30 5005 C 477.865 -1.52911 -0.648652 0
M  V30 5006 O 479.05 -1.81341 -0.593297 0
M  V30 5007 C 476.19 -3.39388 -0.625282 0
M  V30 5008 C 475.303 -4.31202 0.262516 0
M  V30 5009 C 474.438 -5.27919 -0.589451 0
M  V30 5010 C 473.477 -6.11371 0.298617 0
M  V30 5011 N 472.614 -7.0022 -0.513443 0
M  V30 5012 H 477.454 -2.79645 1.02968 0
M  V30 5013 H 474.991 -1.37629 0.519303 0
M  V30 5014 H 476.949 -4.01615 -1.12966 0
M  V30 5015 H 475.579 -2.90777 -1.40173 0
M  V30 5016 H 474.631 -3.69962 0.885013 0
M  V30 5017 H 475.943 -4.89748 0.945971 0
M  V30 5018 H 475.097 -5.95529 -1.15888 0
M  V30 5019 H 473.836 -4.69875 -1.30647 0
M  V30 5020 H 472.841 -5.42707 0.880301 0
M  V30 5021 H 474.066 -6.71494 1.01352 0
M  V30 5022 H 472.012 -6.44662 -1.21439 0
M  V30 5023 H 471.929 -7.55917 0.111922 0
M  V30 5024 H 473.197 -7.72175 -1.06608 0
M  V30 5025 N 477.426 -0.562348 -1.47226 0
M  V30 5026 C 478.356 0.170627 -2.32876 0
M  V30 5027 C 479.337 0.903748 -1.44106 0
M  V30 5028 O 480.522 0.883206 -1.72954 0
M  V30 5029 C 477.652 1.19786 -3.25989 0
M  V30 5030 C 476.606 0.580875 -4.2404 0
M  V30 5031 C 475.932 1.71311 -5.06514 0
M  V30 5032 C 477.232 -0.468714 -5.20193 0
M  V30 5033 H 478.926 -0.544441 -2.94408 0
M  V30 5034 H 476.472 -0.263271 -1.41573 0
M  V30 5035 H 478.425 1.71884 -3.84752 0
M  V30 5036 H 477.149 1.94294 -2.62521 0
M  V30 5037 H 475.808 0.0811538 -3.6651 0
M  V30 5038 H 475.456 2.44736 -4.39447 0
M  V30 5039 H 475.156 1.30604 -5.72902 0
M  V30 5040 H 476.68 2.23725 -5.68137 0
M  V30 5041 H 478.094 -0.0336028 -5.7329 0
M  V30 5042 H 476.491 -0.794957 -5.94811 0
M  V30 5043 H 477.561 -1.36269 -4.65359 0
M  V30 5044 N 478.904 1.54736 -0.299062 0
M  V30 5045 C 480.15 2.01114 0.304123 0
M  V30 5046 C 480.505 1.18376 1.51674 0
M  V30 5047 O 479.798 0.251635 1.8994 0
M  V30 5048 C 479.992 3.50199 0.713835 0
M  V30 5049 C 479.821 4.47366 -0.457531 0
M  V30 5050 C 478.591 4.9631 -0.948933 0
M  V30 5051 C 480.789 4.9755 -1.30186 0
M  V30 5052 N 478.771 5.77327 -2.08726 0
M  V30 5053 C 480.142 5.7625 -2.28771 0
M  V30 5054 C 482.197 4.79739 -1.33246 0
M  V30 5055 C 480.9 6.39036 -3.3019 0
M  V30 5056 C 482.926 5.43343 -2.33521 0
M  V30 5057 C 482.288 6.21874 -3.30836 0
M  V30 5058 H 478.387 0.778318 0.0757992 0
M  V30 5059 H 480.971 1.89925 -0.428536 0
M  V30 5060 H 479.142 3.61681 1.41567 0
M  V30 5061 H 480.874 3.83374 1.29639 0
M  V30 5062 H 477.629 4.7069 -0.52423 0
M  V30 5063 H 478.053 6.22521 -2.66077 0
M  V30 5064 H 482.695 4.18609 -0.59383 0
M  V30 5065 H 480.413 6.99302 -4.04973 0
M  V30 5066 H 483.999 5.31492 -2.3666 0
M  V30 5067 H 482.879 6.70217 -4.07159 0
M  V30 5068 N 480.382 0.0267497 1.57577 0
M  V30 5069 C 481.659 -0.690926 1.82991 0
M  V30 5070 C 482.039 -1.90471 0.910164 0
M  V30 5071 O 481.387 -2.28474 -0.0347985 0
M  V30 5072 C 481.597 -1.07139 3.32148 0
M  V30 5073 C 482.945 -1.46402 3.98562 0
M  V30 5074 O 483.969 -1.16443 3.36629 0
M  V30 5075 O 482.828 -2.02214 5.07712 0
M  V30 5076 H 479.922 -0.338747 0.75444 0
M  V30 5077 H 482.468 0.0542506 1.69613 0
M  V30 5078 H 481.24 -0.207394 3.9075 0
M  V30 5079 H 480.863 -1.87481 3.50623 0
M  V30 5080 N 481.861 -1.55662 -0.24637 0
M  V30 5081 C 483.11 -1.7672 -0.972254 0
M  V30 5082 C 483.423 -0.59078 -1.86465 0
M  V30 5083 O 484.629 -0.684391 -2.62732 0
M  V30 5084 C 483.085 -3.12869 -1.7788 0
M  V30 5085 C 482.693 -4.38161 -0.933768 0
M  V30 5086 C 484.437 -3.43265 -2.49738 0
M  V30 5087 C 482.344 -5.6534 -1.73623 0
M  V30 5088 H 481.274 -0.658795 -0.366749 0
M  V30 5089 H 483.925 -1.82092 -0.226902 0
M  V30 5090 H 482.307 -3.01606 -2.56612 0
M  V30 5091 H 483.481 -4.60413 -0.188736 0
M  V30 5092 H 481.796 -4.15102 -0.328488 0
M  V30 5093 H 484.393 -4.35501 -3.10231 0
M  V30 5094 H 484.736 -2.64614 -3.2138 0
M  V30 5095 H 485.269 -3.55746 -1.78016 0
M  V30 5096 H 482.008 -6.46814 -1.06354 0
M  V30 5097 H 481.528 -5.47188 -2.45653 0
M  V30 5098 H 483.207 -6.04616 -2.30323 0
M  V30 5099 N 483.339 0.512053 -1.4905 0
M  V30 5100 C 484.564 1.2959 -1.6193 0
M  V30 5101 C 484.989 1.85906 -0.286454 0
M  V30 5102 O 484.347 1.65312 0.744426 0
M  V30 5103 C 484.395 2.40987 -2.68249 0
M  V30 5104 O 483.499 3.44531 -2.26654 0
M  V30 5105 H 482.84 0.383053 -0.542371 0
M  V30 5106 H 485.37 0.614231 -1.95162 0
M  V30 5107 H 485.38 2.86913 -2.90078 0
M  V30 5108 H 484.055 1.99361 -3.65004 0
M  V30 5109 H 482.632 3.046 -2.15112 0
M  V30 5110 N 484.817 1.37938 0.762283 0
M  V30 5111 C 485.727 1.36681 1.90671 0
M  V30 5112 C 486.743 0.265078 1.71969 0
M  V30 5113 O 487.919 0.502055 1.95042 0
M  V30 5114 C 484.984 1.18211 3.25925 0
M  V30 5115 C 484.045 2.3811 3.57214 0
M  V30 5116 C 483.278 2.20512 4.86014 0
M  V30 5117 O 483.501 1.19429 5.57757 0
M  V30 5118 O 482.435 3.08911 5.16583 0
M  V30 5119 H 486.261 2.33091 1.94685 0
M  V30 5120 H 483.846 1.18767 0.906356 0
M  V30 5121 H 485.728 1.09937 4.06807 0
M  V30 5122 H 484.403 0.248807 3.22742 0
M  V30 5123 H 483.31 2.51958 2.76529 0
M  V30 5124 H 484.643 3.30041 3.65149 0
M  V30 5125 N 486.295 -0.989507 1.22664 0
M  V30 5126 C 487.541 -1.7321 1.05481 0
M  V30 5127 C 487.874 -1.89852 -0.408635 0
M  V30 5128 O 487.149 -1.44416 -1.30285 0
M  V30 5129 C 487.432 -3.1357 1.77047 0
M  V30 5130 C 487.285 -3.04555 3.31008 0
M  V30 5131 C 488.604 -4.12812 1.5256 0
M  V30 5132 H 485.723 -0.628697 0.384589 0
M  V30 5133 H 488.365 -1.15258 1.51049 0
M  V30 5134 H 486.515 -3.63046 1.3831 0
M  V30 5135 H 488.187 -2.62674 3.7921 0
M  V30 5136 H 486.43 -2.41278 3.6051 0
M  V30 5137 H 487.101 -4.03894 3.76263 0
M  V30 5138 H 489.577 -3.72106 1.86215 0
M  V30 5139 H 488.453 -5.09132 2.05124 0
M  V30 5140 H 488.714 -4.39711 0.458936 0
M  V30 5141 N 487.773 -1.03688 -1.18687 0
M  V30 5142 C 488.706 -0.569112 -2.2099 0
M  V30 5143 C 489.684 0.394315 -1.57746 0
M  V30 5144 O 490.868 0.309519 -1.85941 0
M  V30 5145 C 487.995 0.169104 -3.38278 0
M  V30 5146 C 487.041 -0.746989 -4.19908 0
M  V30 5147 S 487.874 -2.22773 -4.86963 0
M  V30 5148 C 489.03 -1.50025 -6.07654 0
M  V30 5149 H 489.263 -1.43589 -2.60326 0
M  V30 5150 H 486.796 -0.847507 -1.29061 0
M  V30 5151 H 488.754 0.588868 -4.06254 0
M  V30 5152 H 487.415 1.01172 -2.9736 0
M  V30 5153 H 486.608 -0.176626 -5.0369 0
M  V30 5154 H 486.21 -1.10543 -3.5729 0
M  V30 5155 H 488.502 -0.791217 -6.72864 0
M  V30 5156 H 489.445 -2.31498 -6.69189 0
M  V30 5157 H 489.853 -0.994245 -5.55675 0
M  V30 5158 N 489.251 1.34841 -0.815825 0
M  V30 5159 C 490.497 1.98793 -0.401129 0
M  V30 5160 C 490.83 1.64548 1.03139 0
M  V30 5161 O 490.105 0.913487 1.71714 0
M  V30 5162 C 490.388 3.55143 -0.595409 0
M  V30 5163 C 490.241 3.99155 -2.07352 0
M  V30 5164 C 491.56 4.40092 -0.0268823 0
M  V30 5165 H 488.679 0.722146 -0.14722 0
M  V30 5166 H 491.321 1.59847 -1.02707 0
M  V30 5167 H 489.471 3.8845 -0.0625779 0
M  V30 5168 H 491.143 3.76216 -2.66945 0
M  V30 5169 H 489.386 3.49726 -2.56659 0
M  V30 5170 H 490.057 5.07971 -2.1603 0
M  V30 5171 H 492.533 4.13298 -0.482042 0
M  V30 5172 H 491.409 5.48562 -0.19267 0
M  V30 5173 H 491.67 4.29016 1.06759 0
M  V30 5174 N 490.729 0.570148 1.46925 0
M  V30 5175 C 491.977 0.0508523 2.02036 0
M  V30 5176 C 492.298 -1.30885 1.44548 0
M  V30 5177 O 491.568 -1.85647 0.625453 0
M  V30 5178 H 490.148 0.0158088 0.746833 0
M  V30 5179 H 492.81 0.743086 1.80178 0
M  V30 5180 H 491.906 -0.027575 3.12088 0
M  V30 5181 N 492.207 -1.54576 0.307264 0
M  V30 5182 C 493.137 -2.26708 -0.55907 0
M  V30 5183 C 494.118 -1.26893 -1.1328 0
M  V30 5184 O 495.303 -1.55677 -1.16097 0
M  V30 5185 C 492.433 -3.01259 -1.72801 0
M  V30 5186 C 491.387 -4.08275 -1.28435 0
M  V30 5187 C 490.713 -4.70575 -2.53895 0
M  V30 5188 C 492.013 -5.2068 -0.411038 0
M  V30 5189 H 493.707 -2.9937 0.042576 0
M  V30 5190 H 491.253 -1.43983 0.0219173 0
M  V30 5191 H 493.206 -3.50444 -2.34023 0
M  V30 5192 H 491.93 -2.26187 -2.356 0
M  V30 5193 H 490.589 -3.59949 -0.695161 0
M  V30 5194 H 490.237 -3.92136 -3.15021 0
M  V30 5195 H 489.937 -5.42854 -2.24908 0
M  V30 5196 H 491.461 -5.22527 -3.15908 0
M  V30 5197 H 492.875 -5.65721 -0.929097 0
M  V30 5198 H 491.272 -5.99716 -0.214664 0
M  V30 5199 H 492.342 -4.81629 0.562287 0
M  V30 5200 N 493.685 -0.035106 -1.57561 0
M  V30 5201 C 494.615 0.942993 -2.13612 0
M  V30 5202 C 495.596 1.33531 -1.05373 0
M  V30 5203 O 496.781 1.41287 -1.33235 0
M  V30 5204 C 493.911 2.22332 -2.66807 0
M  V30 5205 C 492.865 1.97156 -3.79886 0
M  V30 5206 C 492.191 3.31506 -4.19533 0
M  V30 5207 C 493.491 1.30596 -5.05709 0
M  V30 5208 H 495.185 0.476179 -2.95589 0
M  V30 5209 H 492.731 0.227602 -1.4219 0
M  V30 5210 H 494.684 2.91142 -3.04654 0
M  V30 5211 H 493.408 2.7119 -1.81999 0
M  V30 5212 H 492.067 1.30763 -3.42486 0
M  V30 5213 H 491.715 3.78134 -3.31698 0
M  V30 5214 H 491.415 3.15465 -4.95738 0
M  V30 5215 H 492.939 4.01574 -4.59968 0
M  V30 5216 H 494.353 1.89416 -5.41105 0
M  V30 5217 H 492.75 1.24934 -5.86951 0
M  V30 5218 H 493.82 0.279742 -4.84092 0
M  V30 5219 N 495.163 1.55791 0.238111 0
M  V30 5220 C 496.11 1.9105 1.29493 0
M  V30 5221 C 497.08 0.765733 1.47397 0
M  V30 5222 O 498.265 1.02017 1.61236 0
M  V30 5223 C 495.405 2.21826 2.64362 0
M  V30 5224 C 494.518 3.49153 2.54394 0
M  V30 5225 C 493.653 3.69455 3.81676 0
M  V30 5226 C 492.692 4.90353 3.66361 0
M  V30 5227 N 491.829 5.07131 4.85554 0
M  V30 5228 H 496.669 2.81172 0.987233 0
M  V30 5229 H 494.206 1.39179 0.476203 0
M  V30 5230 H 496.164 2.37675 3.4288 0
M  V30 5231 H 494.794 1.34897 2.93262 0
M  V30 5232 H 493.846 3.41587 1.67399 0
M  V30 5233 H 495.158 4.37818 2.38991 0
M  V30 5234 H 494.312 3.85311 4.68636 0
M  V30 5235 H 493.051 2.7904 3.99985 0
M  V30 5236 H 492.056 4.74464 2.77784 0
M  V30 5237 H 493.281 5.82237 3.49538 0
M  V30 5238 H 491.227 4.19654 5.04209 0
M  V30 5239 H 491.144 5.89899 4.72816 0
M  V30 5240 H 492.412 5.27407 5.73988 0
M  V30 5241 O 496.68 -0.383686 1.56876 0
M  V30 5242 H 497.371 -1.03525 1.63714 0
M  V30 END ATOM
M  V30 BEGIN BOND
M  V30 END BOND
M  V30 END CTAB
M  END
$$$$
