drugbank_target|P56181 NADH dehydrogenase [ubiquinone] flavoprotein 3, mitochondrial (DB00157; DB09270)
 OpenBabel12092119223D

  0  0  0     0  0            999 V3000
M  V30 BEGIN CTAB
M  V30 COUNTS 1678 1698 0 0 0
M  V30 BEGIN ATOM
M  V30 1 H -0.908 1.98254 -0.117106 0
M  V30 2 N 0 1.576 0 0
M  V30 3 C 0.933 2.03868 1.02534 0
M  V30 4 C 1.911 0.928543 1.3348 0
M  V30 5 O 3.095 1.19667 1.45644 0
M  V30 6 C 0.222 2.43627 2.35294 0
M  V30 7 C -0.732 3.65373 2.2001 0
M  V30 8 S 0.101 5.13292 1.52614 0
M  V30 9 C 1.257 5.56322 2.86805 0
M  V30 10 H 1.49 2.90518 0.631377 0
M  V30 11 H -0.977 1.52953 0.210867 0
M  V30 12 H 0.981 2.67203 3.11629 0
M  V30 13 H -0.358 1.57376 2.7183 0
M  V30 14 H -1.165 3.90944 3.18086 0
M  V30 15 H -1.563 3.418 1.51819 0
M  V30 16 H 0.729 5.58782 3.83104 0
M  V30 17 H 1.672 6.56266 2.65933 0
M  V30 18 H 2.08 4.83886 2.90714 0
M  V30 19 N 1.4781 -0.272755 1.55222 0
M  V30 20 C 2.4411 -1.32041 1.87344 0
M  V30 21 C 3.4411 -1.42342 0.74803 0
M  V30 22 O 4.6311 -1.41488 1.0162 0
M  V30 23 C 1.7631 -2.70173 2.07893 0
M  V30 24 H 2.9561 -1.04789 2.80997 0
M  V30 25 H 0.5091 -0.51083 1.47717 0
M  V30 26 H 1.2441 -3.02605 1.16622 0
M  V30 27 H 1.0291 -2.64082 2.89833 0
M  V30 28 H 2.5191 -3.45869 2.34017 0
M  V30 29 N 2.9562 -1.48159 -0.537278 0
M  V30 30 C 3.9192 -1.61665 -1.62472 0
M  V30 31 C 4.9192 -0.490395 -1.5314 0
M  V30 32 O 6.1092 -0.755998 -1.5694 0
M  V30 33 C 3.2412 -1.57997 -3.02076 0
M  V30 34 H 4.4342 -2.58621 -1.51839 0
M  V30 35 H 1.9872 -1.36647 -0.758771 0
M  V30 36 H 2.7222 -0.624913 -3.18222 0
M  V30 37 H 2.5072 -2.39755 -3.10258 0
M  V30 38 H 3.9972 -1.70627 -3.81151 0
M  V30 39 N 4.4343 0.785586 -1.36625 0
M  V30 40 C 5.8453 1.36101 -1.27803 0
M  V30 41 C 6.1963 1.96035 0.0804875 0
M  V30 42 O 5.3213 1.92834 0.982042 0
M  V30 43 C 5.9163 2.47442 -2.31426 0
M  V30 44 C 4.4753 3.00789 -2.26281 0
M  V30 45 C 3.6223 1.73896 -2.15999 0
M  V30 46 H 6.5733 0.586928 -1.47448 0
M  V30 47 H 6.5943 3.2656 -1.95291 0
M  V30 48 H 6.1063 2.03791 -3.30289 0
M  V30 49 H 4.2073 3.48851 -1.30896 0
M  V30 50 H 4.3203 3.57343 -3.19128 0
M  V30 51 H 2.6843 1.9628 -1.62316 0
M  V30 52 H 3.4673 1.32368 -3.16755 0
M  V30 53 N 5.9124 1.20967 1.01018 0
M  V30 54 C 7.1524 1.03511 1.76252 0
M  V30 55 C 7.5164 -0.42458 1.87247 0
M  V30 56 O 8.7174 -0.719508 2.58991 0
M  V30 57 C 6.9884 1.70726 3.13986 0
M  V30 58 S 8.5474 1.68458 4.05176 0
M  V30 59 H 5.3654 0.371037 0.606508 0
M  V30 60 H 7.9674 1.53628 1.20908 0
M  V30 61 H 6.6714 2.76128 3.03614 0
M  V30 62 H 6.2024 1.20767 3.74405 0
M  V30 63 H 8.2174 0.721987 4.90919 0
M  V30 64 N 7.3905 -1.2043 1.01659 0
M  V30 65 C 8.3205 -2.25466 0.607226 0
M  V30 66 C 9.3015 -1.65853 -0.377716 0
M  V30 67 O 10.4865 -1.92409 -0.263149 0
M  V30 68 C 7.6165 -3.47256 -0.0552949 0
M  V30 69 C 6.5705 -4.19462 0.850632 0
M  V30 70 C 5.8965 -5.34673 0.0538859 0
M  V30 71 C 7.1965 -4.75603 2.15868 0
M  V30 72 H 8.8905 -2.59962 1.48526 0
M  V30 73 H 6.4365 -1.2496 0.715605 0
M  V30 74 H 8.3895 -4.19917 -0.353233 0
M  V30 75 H 7.1135 -3.11924 -0.968045 0
M  V30 76 H 5.7725 -3.48667 1.13257 0
M  V30 77 H 5.4205 -4.95585 -0.860514 0
M  V30 78 H 5.1205 -5.83913 0.657192 0
M  V30 79 H 6.6445 -6.10138 -0.237598 0
M  V30 80 H 8.0585 -5.40083 1.92311 0
M  V30 81 H 6.4555 -5.3528 2.71284 0
M  V30 82 H 7.5255 -3.94346 2.82169 0
M  V30 83 N 8.8686 -0.792821 -1.36206 0
M  V30 84 C 9.7986 -0.207853 -2.32573 0
M  V30 85 C 10.7796 0.659055 -1.56813 0
M  V30 86 O 11.9646 0.592176 -1.84951 0
M  V30 87 C 9.0946 0.655449 -3.41059 0
M  V30 88 C 8.0486 -0.111842 -4.27854 0
M  V30 89 C 7.3746 0.872274 -5.27537 0
M  V30 90 C 8.6746 -1.30299 -5.05786 0
M  V30 91 H 10.3686 -1.01294 -2.81744 0
M  V30 92 H 7.9146 -0.48854 -1.3546 0
M  V30 93 H 9.8676 1.07464 -4.07467 0
M  V30 94 H 8.5916 1.49328 -2.90463 0
M  V30 95 H 7.2506 -0.512053 -3.63006 0
M  V30 96 H 6.8986 1.70523 -4.73214 0
M  V30 97 H 6.5986 0.363291 -5.86476 0
M  V30 98 H 8.1226 1.28996 -5.96818 0
M  V30 99 H 9.5366 -0.959379 -5.65216 0
M  V30 100 H 7.9336 -1.7455 -5.74154 0
M  V30 101 H 9.0036 -2.09663 -4.37229 0
M  V30 102 N 10.3467 1.47872 -0.545128 0
M  V30 103 C 11.7627 1.5829 -0.204032 0
M  V30 104 C 11.9627 1.54529 1.29317 0
M  V30 105 O 11.0187 1.44232 2.07252 0
M  V30 106 C 12.3317 2.89304 -0.819987 0
M  V30 107 C 13.8797 3.02864 -0.790105 0
M  V30 108 C 14.3547 4.3656 -1.38491 0
M  V30 109 N 15.8457 4.43165 -1.34755 0
M  V30 110 C 16.5807 5.45153 -1.77753 0
M  V30 111 N 16.0767 6.54016 -2.2855 0
M  V30 112 N 17.8697 5.36125 -1.68897 0
M  V30 113 H 10.0207 1.4856 -1.51802 0
M  V30 114 H 12.2837 0.706305 -0.632327 0
M  V30 115 H 11.9897 2.97757 -1.87173 0
M  V30 116 H 11.8637 3.75957 -0.305915 0
M  V30 117 H 14.2507 2.94014 0.252913 0
M  V30 118 H 14.3317 2.17782 -1.34181 0
M  V30 119 H 13.9757 4.46164 -2.42693 0
M  V30 120 H 13.9057 5.20353 -0.808754 0
M  V30 121 H 16.3967 3.65083 -0.975855 0
M  V30 122 H 16.7097 7.27994 -2.59314 0
M  V30 123 H 15.0547 6.54938 -2.32553 0
M  V30 124 H 18.2457 4.49975 -1.28998 0
M  V30 125 H 18.4187 6.15472 -2.02726 0
M  V30 126 N 11.8248 0.280983 1.55075 0
M  V30 127 C 12.7568 -0.637268 2.20163 0
M  V30 128 C 13.7698 -1.11298 1.18813 0
M  V30 129 O 14.9588 -1.03388 1.4551 0
M  V30 130 C 12.0588 -1.88199 2.81841 0
M  V30 131 C 11.2318 -1.55211 4.08936 0
M  V30 132 C 10.2908 -2.64991 4.54606 0
M  V30 133 O 9.3168 -2.30929 5.2025 0
M  V30 134 N 10.5188 -3.95161 4.25238 0
M  V30 135 H 13.2838 -0.0801694 2.99593 0
M  V30 136 H 10.8448 0.102329 1.61576 0
M  V30 137 H 12.8368 -2.60948 3.09335 0
M  V30 138 H 11.4068 -2.34799 2.06369 0
M  V30 139 H 10.6268 -0.658185 3.88666 0
M  V30 140 H 11.9148 -1.30681 4.91732 0
M  V30 141 H 11.3128 -4.25653 3.72607 0
M  V30 142 H 9.8698 -4.6427 4.5749 0
M  V30 143 N 13.3029 -1.57598 0.00835791 0
M  V30 144 C 14.5509 -1.90551 -0.6734 0
M  V30 145 C 14.8719 -0.883301 -1.73847 0
M  V30 146 O 14.1419 0.0781442 -1.95744 0
M  V30 147 H 12.7219 -0.703312 -0.251717 0
M  V30 148 H 15.3839 -1.94833 0.0512592 0
M  V30 149 H 14.4799 -2.9056 -1.13935 0
M  V30 150 N 14.781 0.264519 -1.55364 0
M  V30 151 C 16.197 0.61215 -1.47394 0
M  V30 152 C 16.397 1.89134 -0.695018 0
M  V30 153 O 15.453 2.51563 -0.217275 0
M  V30 154 C 16.766 0.731235 -2.91674 0
M  V30 155 C 18.314 0.82473 -3.01939 0
M  V30 156 C 18.789 0.975522 -4.4749 0
M  V30 157 N 20.28 1.04083 -4.51354 0
M  V30 158 C 21.015 1.17646 -5.61201 0
M  V30 159 N 20.511 1.27874 -6.80896 0
M  V30 160 N 22.304 1.20823 -5.48961 0
M  V30 161 H 14.455 -0.575456 -2.04456 0
M  V30 162 H 16.718 -0.196099 -0.927496 0
M  V30 163 H 16.424 -0.138392 -3.51428 0
M  V30 164 H 16.298 1.60883 -3.41169 0
M  V30 165 H 18.685 1.68482 -2.42276 0
M  V30 166 H 18.766 -0.0776479 -2.55682 0
M  V30 167 H 18.41 0.120058 -5.07758 0
M  V30 168 H 18.34 1.89268 -4.91412 0
M  V30 169 H 20.831 0.973846 -3.65136 0
M  V30 170 H 21.144 1.38081 -7.60364 0
M  V30 171 H 19.489 1.24863 -6.83692 0
M  V30 172 H 22.68 1.12469 -4.54388 0
M  V30 173 H 22.853 1.31049 -6.3461 0
M  V30 174 N 16.2591 1.48442 0.529413 0
M  V30 175 C 17.2221 1.62524 1.61612 0
M  V30 176 C 18.2221 0.498509 1.52877 0
M  V30 177 O 19.4121 0.76431 1.56537 0
M  V30 178 C 16.5441 1.59597 3.01233 0
M  V30 179 H 17.7371 2.59423 1.50465 0
M  V30 180 H 15.2901 1.37047 0.751514 0
M  V30 181 H 16.0251 0.641781 3.17886 0
M  V30 182 H 15.8101 2.41397 3.08982 0
M  V30 183 H 17.3001 1.72646 3.80241 0
M  V30 184 N 17.7372 -0.778329 1.37039 0
M  V30 185 C 18.9852 -1.53361 1.31623 0
M  V30 186 C 19.3062 -1.94739 -0.100831 0
M  V30 187 O 18.5762 -1.65797 -1.04347 0
M  V30 188 H 17.1562 -0.568794 0.484234 0
M  V30 189 H 19.8182 -0.926742 1.71457 0
M  V30 190 H 18.9142 -2.43606 1.95096 0
M  V30 191 N 19.2153 -1.21501 -1.00376 0
M  V30 192 C 20.1783 -0.976927 -2.07337 0
M  V30 193 C 21.1783 0.0525322 -1.60714 0
M  V30 194 O 22.3683 -0.184869 -1.73216 0
M  V30 195 C 19.5003 -0.473423 -3.37597 0
M  V30 196 H 20.6933 -1.92587 -2.29892 0
M  V30 197 H 18.2463 -1.03217 -1.17371 0
M  V30 198 H 18.9813 0.480379 -3.20722 0
M  V30 199 H 18.7663 -1.216 -3.72768 0
M  V30 200 H 20.2563 -0.32675 -4.1632 0
M  V30 201 N 20.6934 1.19889 -1.02296 0
M  V30 202 C 21.6234 2.25141 -0.619174 0
M  V30 203 C 22.6044 1.66051 0.368915 0
M  V30 204 O 23.7894 1.92546 0.252941 0
M  V30 205 C 20.9194 3.4728 0.0368783 0
M  V30 206 C 19.8734 4.19005 -0.872865 0
M  V30 207 C 19.1994 5.34637 -0.0822402 0
M  V30 208 C 20.4994 4.74452 -2.18387 0
M  V30 209 H 22.1934 2.59171 -1.49903 0
M  V30 210 H 19.7394 1.24579 -0.722222 0
M  V30 211 H 21.6924 4.20098 0.330958 0
M  V30 212 H 20.4164 3.12433 0.95149 0
M  V30 213 H 19.0754 3.48061 -1.15105 0
M  V30 214 H 18.7234 4.96034 0.83422 0
M  V30 215 H 18.4234 5.83557 -0.688149 0
M  V30 216 H 19.9474 6.10255 0.205238 0
M  V30 217 H 21.3614 5.39055 -1.95172 0
M  V30 218 H 19.7584 5.33834 -2.74119 0
M  V30 219 H 20.8284 3.92844 -2.84257 0
M  V30 220 N 22.1715 0.800033 1.35784 0
M  V30 221 C 23.1185 0.203848 2.29898 0
M  V30 222 C 24.0885 -0.658375 1.52495 0
M  V30 223 O 25.2735 -0.604832 1.8096 0
M  V30 224 C 22.4135 -0.64688 3.38983 0
M  V30 225 C 21.5265 0.235054 4.3136 0
M  V30 226 C 20.6615 -0.623054 5.27533 0
M  V30 227 C 19.7005 0.259682 6.11549 0
M  V30 228 N 18.8375 -0.558019 6.99879 0
M  V30 229 H 23.6775 1.01186 2.80295 0
M  V30 230 H 21.2145 0.51053 1.37957 0
M  V30 231 H 23.1725 -1.15521 4.00887 0
M  V30 232 H 21.8025 -1.42021 2.89879 0
M  V30 233 H 20.8545 0.861438 3.70518 0
M  V30 234 H 22.1665 0.914768 4.9034 0
M  V30 235 H 21.3205 -1.19678 5.94779 0
M  V30 236 H 20.0595 -1.33636 4.69034 0
M  V30 237 H 19.0645 0.845726 5.43256 0
M  V30 238 H 20.2895 0.970748 6.72126 0
M  V30 239 H 18.2355 -1.25542 6.43875 0
M  V30 240 H 18.1525 0.0637872 7.55973 0
M  V30 241 H 19.4205 -1.11523 7.71481 0
M  V30 242 N 23.6496 -1.47581 0.552962 0
M  V30 243 C 24.8776 -2.06875 0.0320556 0
M  V30 244 C 25.2926 -1.40625 -1.25976 0
M  V30 245 O 24.6496 -0.501349 -1.75479 0
M  V30 246 C 24.7006 -3.61092 -0.17167 0
M  V30 247 O 24.4216 -4.24858 1.06899 0
M  V30 248 C 25.9226 -4.37242 -0.730344 0
M  V30 249 H 23.1426 -0.669561 0.043915 0
M  V30 250 H 25.6866 -1.89646 0.765163 0
M  V30 251 H 23.8416 -3.7785 -0.854894 0
M  V30 252 H 24.2556 -5.17334 0.864059 0
M  V30 253 H 25.7296 -5.45842 -0.822203 0
M  V30 254 H 26.2066 -4.03235 -1.74064 0
M  V30 255 H 26.8126 -4.25219 -0.0829543 0
M  V30 256 N 25.1277 -0.289203 -1.54924 0
M  V30 257 C 26.0607 0.633823 -2.19221 0
M  V30 258 C 27.0387 1.14174 -1.15772 0
M  V30 259 O 28.2227 1.21211 -1.44361 0
M  V30 260 C 25.3497 1.86592 -2.82668 0
M  V30 261 C 24.3957 1.49227 -3.99542 0
M  V30 262 S 25.2287 0.558312 -5.32582 0
M  V30 263 C 26.3847 1.79847 -5.99505 0
M  V30 264 H 26.6177 0.0875416 -2.97171 0
M  V30 265 H 24.1507 -0.0733899 -1.54225 0
M  V30 266 H 26.1087 2.57305 -3.19851 0
M  V30 267 H 24.7697 2.38335 -2.04585 0
M  V30 268 H 23.9627 2.40945 -4.42676 0
M  V30 269 H 23.5647 0.865193 -3.63855 0
M  V30 270 H 25.8567 2.7406 -6.19595 0
M  V30 271 H 26.7997 1.4099 -6.93922 0
M  V30 272 H 27.2077 1.96982 -5.29016 0
M  V30 273 N 26.6058 1.57591 -0.0167156 0
M  V30 274 C 27.5358 2.12496 0.967858 0
M  V30 275 C 28.5168 1.03807 1.34752 0
M  V30 276 O 29.7018 1.31577 1.42833 0
M  V30 277 C 26.8318 2.64194 2.25431 0
M  V30 278 C 25.7858 3.77559 2.01576 0
M  V30 279 C 25.1118 4.15636 3.36379 0
M  V30 280 C 26.4118 5.04151 1.36489 0
M  V30 281 H 28.1058 2.95013 0.510643 0
M  V30 282 H 25.6518 1.41915 0.244181 0
M  V30 283 H 27.6048 3.01236 2.94678 0
M  V30 284 H 26.3288 1.78821 2.73296 0
M  V30 285 H 24.9878 3.40937 1.34751 0
M  V30 286 H 24.6358 3.27263 3.81979 0
M  V30 287 H 24.3358 4.92022 3.21229 0
M  V30 288 H 25.8598 4.5525 4.06915 0
M  V30 289 H 27.2738 5.38857 1.95718 0
M  V30 290 H 25.6708 5.85453 1.31776 0
M  V30 291 H 26.7408 4.83733 0.336219 0
M  V30 292 N 28.0839 -0.256276 1.55502 0
M  V30 293 C 29.0159 -1.33981 1.85962 0
M  V30 294 C 30.0289 -1.44743 0.745212 0
M  V30 295 O 31.2179 -1.4626 1.02324 0
M  V30 296 C 28.3179 -2.7194 2.02242 0
M  V30 297 C 27.4909 -2.83562 3.33033 0
M  V30 298 C 26.5499 -4.02304 3.39172 0
M  V30 299 O 25.5759 -3.92273 4.12444 0
M  V30 300 N 26.7779 -5.15045 2.67784 0
M  V30 301 H 29.5429 -1.08191 2.7949 0
M  V30 302 H 27.1039 -0.446388 1.55624 0
M  V30 303 H 29.0959 -3.49697 2.03701 0
M  V30 304 H 27.6659 -2.90479 1.15502 0
M  V30 305 H 26.8859 -1.92555 3.43971 0
M  V30 306 H 28.1739 -2.88271 4.19258 0
M  V30 307 H 27.5719 -5.26085 2.07968 0
M  V30 308 H 26.1289 -5.90972 2.74947 0
M  V30 309 N 29.562 -1.4872 -0.521534 0
M  V30 310 C 30.472 -1.66569 -1.65203 0
M  V30 311 C 31.488 -0.548197 -1.65139 0
M  V30 312 O 32.664 -0.820339 -1.83936 0
M  V30 313 C 29.729 -1.70917 -3.01642 0
M  V30 314 C 28.79 -2.94356 -3.12495 0
M  V30 315 C 28.023 -2.98487 -4.42426 0
M  V30 316 O 28.246 -2.10786 -5.30024 0
M  V30 317 O 27.18 -3.90746 -4.57822 0
M  V30 318 H 31.006 -2.62298 -1.5308 0
M  V30 319 H 28.591 -1.3222 -0.695565 0
M  V30 320 H 30.473 -1.7625 -3.82771 0
M  V30 321 H 29.148 -0.783633 -3.14071 0
M  V30 322 H 28.055 -2.94552 -2.3063 0
M  V30 323 H 29.388 -3.86322 -3.04986 0
M  V30 324 N 31.0401 0.771051 -1.3745 0
M  V30 325 C 32.0031 1.86598 -1.33093 0
M  V30 326 C 33.0031 1.59076 -0.234845 0
M  V30 327 O 34.1931 1.67145 -0.490732 0
M  V30 328 C 31.3251 3.23747 -1.06773 0
M  V30 329 H 32.5181 1.91873 -2.30488 0
M  V30 330 H 30.0711 0.970876 -1.2249 0
M  V30 331 H 30.8061 3.24148 -0.099129 0
M  V30 332 H 30.5911 3.45115 -1.86112 0
M  V30 333 H 32.0811 4.03824 -1.06377 0
M  V30 334 N 32.5182 1.22032 0.997298 0
M  V30 335 C 33.4502 0.944263 2.08845 0
M  V30 336 C 34.4632 -0.0754663 1.62625 0
M  V30 337 O 35.6522 0.157994 1.77799 0
M  V30 338 C 32.7522 0.397723 3.36558 0
M  V30 339 C 31.9252 1.47362 4.11829 0
M  V30 340 C 30.9842 0.934951 5.17827 0
M  V30 341 O 30.0102 1.62016 5.45655 0
M  V30 342 N 31.2122 -0.245895 5.79979 0
M  V30 343 H 33.9772 1.88363 2.33109 0
M  V30 344 H 31.5382 1.12661 1.16272 0
M  V30 345 H 33.5302 0.0227771 4.04694 0
M  V30 346 H 32.1002 -0.446646 3.09393 0
M  V30 347 H 31.3202 2.02208 3.38386 0
M  V30 348 H 32.6082 2.19764 4.58891 0
M  V30 349 H 32.0062 -0.819475 5.59733 0
M  V30 350 H 30.5632 -0.562272 6.4937 0
M  V30 351 N 33.9963 -1.19345 1.0293 0
M  V30 352 C 35.2423 -1.89318 0.727083 0
M  V30 353 C 35.5753 -1.79446 -0.742483 0
M  V30 354 O 34.8503 -1.1871 -1.54072 0
M  V30 355 C 35.1333 -3.40238 1.17942 0
M  V30 356 C 34.9863 -3.58979 2.71024 0
M  V30 357 C 36.3053 -4.33479 0.760548 0
M  V30 358 H 33.4243 -0.687475 0.265606 0
M  V30 359 H 36.0663 -1.40477 1.2793 0
M  V30 360 H 34.2163 -3.81964 0.709608 0
M  V30 361 H 35.8883 -3.26421 3.25955 0
M  V30 362 H 34.1313 -3.02018 3.11396 0
M  V30 363 H 34.8023 -4.64823 2.9773 0
M  V30 364 H 37.2783 -3.99469 1.16464 0
M  V30 365 H 36.1543 -5.37664 1.10493 0
M  V30 366 H 36.4153 -4.40813 -0.337063 0
M  V30 367 N 35.4744 -0.807222 -1.35358 0
M  V30 368 C 36.7214 -0.387888 -1.9875 0
M  V30 369 C 37.0494 1.04509 -1.64037 0
M  V30 370 O 36.3044 1.73986 -0.895946 0
M  V30 371 C 36.6034 -0.519036 -3.53611 0
M  V30 372 C 36.2694 -1.91542 -4.08194 0
M  V30 373 C 34.9314 -2.29745 -4.22813 0
M  V30 374 C 37.2834 -2.82896 -4.37744 0
M  V30 375 C 34.6114 -3.58668 -4.643 0
M  V30 376 C 36.9634 -4.11265 -4.8067 0
M  V30 377 C 35.6274 -4.49466 -4.93494 0
M  V30 378 H 34.8974 -0.141938 -0.727279 0
M  V30 379 H 37.5444 -1.02814 -1.6156 0
M  V30 380 H 35.8494 0.204658 -3.91265 0
M  V30 381 H 37.5464 -0.175345 -4.00616 0
M  V30 382 H 34.1364 -1.60862 -3.97268 0
M  V30 383 H 38.3204 -2.54629 -4.26002 0
M  V30 384 H 33.5764 -3.88113 -4.72418 0
M  V30 385 H 37.7504 -4.82153 -5.02496 0
M  V30 386 H 35.3774 -5.49418 -5.25399 0
M  V30 387 N 36.9525 1.47285 -0.560781 0
M  V30 388 C 38.3685 1.58065 -0.22081 0
M  V30 389 C 38.5685 1.55892 1.27671 0
M  V30 390 O 37.6245 1.46422 2.0571 0
M  V30 391 C 38.9375 2.88418 -0.850625 0
M  V30 392 C 40.4855 3.02009 -0.822184 0
M  V30 393 C 40.9605 4.35066 -1.43113 0
M  V30 394 N 42.4515 4.41711 -1.39448 0
M  V30 395 C 43.1865 5.43237 -1.83525 0
M  V30 396 N 42.6825 6.51555 -2.35474 0
M  V30 397 N 44.4755 5.34304 -1.74574 0
M  V30 398 H 36.6265 1.46941 -1.53369 0
M  V30 399 H 38.8895 0.699558 -0.639783 0
M  V30 400 H 38.5955 2.95755 -1.9032 0
M  V30 401 H 38.4695 3.75612 -0.345773 0
M  V30 402 H 40.8565 2.94266 0.221714 0
M  V30 403 H 40.9375 2.16347 -1.36483 0
M  V30 404 H 40.5815 4.43565 -2.47412 0
M  V30 405 H 40.5115 5.19465 -0.863899 0
M  V30 406 H 43.0025 3.64027 -1.01452 0
M  V30 407 H 43.3155 7.25203 -2.67021 0
M  V30 408 H 41.6605 6.52435 -2.39487 0
M  V30 409 H 44.8515 4.48581 -1.33763 0
M  V30 410 H 45.0245 6.13288 -2.09242 0
M  V30 411 N 38.4306 0.297415 1.54768 0
M  V30 412 C 39.6786 -0.312295 1.99673 0
M  V30 413 C 39.9996 -1.54686 1.18732 0
M  V30 414 O 39.2696 -1.93854 0.282382 0
M  V30 415 H 37.8496 -0.118381 0.73756 0
M  V30 416 H 40.5116 0.407915 1.90583 0
M  V30 417 H 39.6076 -0.586813 3.06534 0
M  V30 418 N 39.9087 -1.5758 0.0250728 0
M  V30 419 C 40.8387 -2.13007 -0.956575 0
M  V30 420 C 41.8197 -1.0452 -1.342 0
M  V30 421 O 43.0047 -1.32332 -1.42133 0
M  V30 422 C 40.1347 -2.65386 -2.24026 0
M  V30 423 C 39.0887 -3.78623 -1.99571 0
M  V30 424 C 38.4147 -4.17414 -3.3417 0
M  V30 425 C 39.7147 -5.04867 -1.33814 0
M  V30 426 H 41.4087 -2.9528 -0.494991 0
M  V30 427 H 38.9547 -1.42042 -0.236651 0
M  V30 428 H 40.9077 -3.02794 -2.93076 0
M  V30 429 H 39.6317 -1.80268 -2.72343 0
M  V30 430 H 38.2907 -3.41646 -1.32941 0
M  V30 431 H 37.9387 -3.29284 -3.80238 0
M  V30 432 H 37.6387 -4.93719 -3.18615 0
M  V30 433 H 39.1627 -4.57402 -4.04495 0
M  V30 434 H 40.5767 -5.39888 -1.92857 0
M  V30 435 H 38.9737 -5.86144 -1.28669 0
M  V30 436 H 40.0437 -4.83904 -0.310561 0
M  V30 437 N 41.3868 0.248026 -1.55636 0
M  V30 438 C 42.3498 1.29044 -1.89421 0
M  V30 439 C 43.3498 1.41134 -0.770581 0
M  V30 440 O 44.5398 1.39854 -1.03858 0
M  V30 441 C 41.6718 2.66831 -2.12165 0
M  V30 442 H 42.8648 1.00305 -2.82629 0
M  V30 443 H 40.4178 0.487265 -1.48511 0
M  V30 444 H 41.1528 3.00711 -1.21422 0
M  V30 445 H 40.9378 2.59438 -2.93997 0
M  V30 446 H 42.4278 3.42103 -2.3949 0
M  V30 447 N 42.8649 1.48995 0.513639 0
M  V30 448 C 44.0899 1.61792 1.29762 0
M  V30 449 C 44.5149 0.284475 1.85936 0
M  V30 450 O 43.8729 -0.746185 1.65232 0
M  V30 451 C 43.9209 2.67993 2.41272 0
M  V30 452 O 43.0249 2.26287 3.44772 0
M  V30 453 H 42.3659 0.541963 0.38363 0
M  V30 454 H 44.8959 1.95097 0.616307 0
M  V30 455 H 44.9059 2.89772 2.87221 0
M  V30 456 H 43.5809 3.64791 1.9975 0
M  V30 457 H 42.1579 2.14788 3.04829 0
M  V30 458 N 44.343 -0.763751 1.37857 0
M  V30 459 C 45.571 -1.55293 1.36718 0
M  V30 460 C 45.986 -1.88745 -0.0455434 0
M  V30 461 O 45.343 -1.52039 -1.00947 0
M  V30 462 C 45.394 -2.85831 2.2132 0
M  V30 463 O 45.115 -2.5381 3.57089 0
M  V30 464 C 46.616 -3.80023 2.28249 0
M  V30 465 H 43.836 -0.480841 0.468009 0
M  V30 466 H 46.38 -0.946009 1.81303 0
M  V30 467 H 44.535 -3.42926 1.80223 0
M  V30 468 H 44.949 -3.37459 4.01524 0
M  V30 469 H 46.423 -4.68599 2.91752 0
M  V30 470 H 46.9 -4.1973 1.2932 0
M  V30 471 H 47.506 -3.28855 2.69693 0
M  V30 472 N 45.8211 -1.22559 -0.990812 0
M  V30 473 C 47.0671 -1.05297 -1.73322 0
M  V30 474 C 47.4001 0.410655 -1.89808 0
M  V30 475 O 46.6751 1.30439 -1.44277 0
M  V30 476 C 46.9581 -1.76713 -3.13759 0
M  V30 477 C 46.8111 -3.30684 -3.04907 0
M  V30 478 C 48.1301 -1.52121 -4.12974 0
M  V30 479 H 45.2491 -0.38392 -0.629106 0
M  V30 480 H 47.8911 -1.50926 -1.15418 0
M  V30 481 H 46.0411 -1.37924 -3.63193 0
M  V30 482 H 47.7131 -3.7893 -2.63077 0
M  V30 483 H 45.9561 -3.60253 -2.41661 0
M  V30 484 H 46.6271 -3.75833 -4.04294 0
M  V30 485 H 49.1031 -1.85819 -3.72304 0
M  V30 486 H 47.9791 -2.04582 -5.0935 0
M  V30 487 H 48.2401 -0.454257 -4.3976 0
M  V30 488 N 47.2992 1.18797 -1.03562 0
M  V30 489 C 48.5242 1.9314 -0.755764 0
M  V30 490 C 48.9492 1.7537 0.68022 0
M  V30 491 O 48.3072 1.06046 1.47051 0
M  V30 492 C 48.3552 3.42747 -1.12058 0
M  V30 493 O 47.4592 4.11683 -0.243124 0
M  V30 494 H 46.8002 0.602724 -0.278604 0
M  V30 495 H 49.3302 1.50678 -1.3841 0
M  V30 496 H 49.3402 3.93437 -1.08035 0
M  V30 497 H 48.0152 3.55002 -2.16672 0
M  V30 498 H 46.5922 3.71323 -0.342539 0
M  V30 499 N 48.7773 0.814389 1.34928 0
M  V30 500 C 49.7073 0.244827 2.32213 0
M  V30 501 C 50.6883 -0.634024 1.57842 0
M  V30 502 O 51.8733 -0.562676 1.8587 0
M  V30 503 C 49.0033 -0.601106 3.42058 0
M  V30 504 C 47.9573 0.179896 4.27622 0
M  V30 505 C 47.2833 -0.788237 5.28858 0
M  V30 506 C 48.5833 1.38329 5.03649 0
M  V30 507 H 50.2773 1.05763 2.80097 0
M  V30 508 H 47.8233 0.510029 1.34665 0
M  V30 509 H 49.7763 -1.00968 4.09125 0
M  V30 510 H 48.5003 -1.44688 2.92802 0
M  V30 511 H 47.1593 0.569739 3.62146 0
M  V30 512 H 46.8073 -1.62973 4.75866 0
M  V30 513 H 46.5073 -0.269942 5.8698 0
M  V30 514 H 48.0313 -1.19485 5.98795 0
M  V30 515 H 49.4453 1.04918 5.63618 0
M  V30 516 H 47.8423 1.83662 5.71304 0
M  V30 517 H 48.9123 2.16592 4.33839 0
M  V30 518 N 50.2554 -1.46986 0.568584 0
M  V30 519 C 51.4804 -2.07335 0.0520528 0
M  V30 520 C 51.9054 -1.41675 -1.23733 0
M  V30 521 O 51.2634 -0.495623 -1.74394 0
M  V30 522 C 51.3114 -3.60417 -0.11501 0
M  V30 523 O 50.4154 -3.95309 -1.17492 0
M  V30 524 H 49.7564 -0.661597 0.0564385 0
M  V30 525 H 52.2864 -1.88837 0.787507 0
M  V30 526 H 52.2964 -4.06698 -0.325644 0
M  V30 527 H 50.9714 -4.07601 0.826675 0
M  V30 528 H 49.5484 -3.60757 -0.943869 0
M  V30 529 N 51.7335 -0.305618 -1.54608 0
M  V30 530 C 52.6965 0.555591 -2.22364 0
M  V30 531 C 53.6965 1.05768 -1.21119 0
M  V30 532 O 54.8865 0.952972 -1.45822 0
M  V30 533 C 52.0185 1.76974 -2.91364 0
M  V30 534 H 53.2115 -0.0364572 -2.99878 0
M  V30 535 H 50.7645 -0.0565007 -1.56198 0
M  V30 536 H 51.4995 2.40151 -2.17941 0
M  V30 537 H 51.2845 1.41732 -3.65588 0
M  V30 538 H 52.7745 2.38148 -3.43038 0
M  V30 539 N 53.2116 1.57565 -0.0334293 0
M  V30 540 C 54.1216 2.13943 0.962572 0
M  V30 541 C 55.1376 1.09276 1.35406 0
M  V30 542 O 56.3136 1.41355 1.4346 0
M  V30 543 C 53.3786 2.65887 2.22497 0
M  V30 544 C 52.4396 3.85286 1.8935 0
M  V30 545 C 51.6726 4.34743 3.09571 0
M  V30 546 O 51.8956 3.83352 4.22371 0
M  V30 547 O 50.8296 5.26538 2.91618 0
M  V30 548 H 54.6556 2.99333 0.513169 0
M  V30 549 H 52.2406 1.4822 0.18743 0
M  V30 550 H 54.1226 2.99346 2.96598 0
M  V30 551 H 52.7976 1.83578 2.6661 0
M  V30 552 H 51.7046 3.56746 1.1262 0
M  V30 553 H 53.0376 4.68771 1.5005 0
M  V30 554 N 54.6897 -0.239769 1.55765 0
M  V30 555 C 55.9147 -0.988373 1.82335 0
M  V30 556 C 56.3397 -1.77886 0.611421 0
M  V30 557 O 55.6977 -1.75889 -0.439639 0
M  V30 558 C 55.7457 -1.89627 3.06715 0
M  V30 559 O 54.8497 -2.98904 2.84131 0
M  V30 560 H 54.1907 -0.280858 0.601677 0
M  V30 561 H 56.7207 -0.258597 2.02959 0
M  V30 562 H 56.7307 -2.30957 3.36338 0
M  V30 563 H 55.4057 -1.31511 3.9456 0
M  V30 564 H 53.9827 -2.61651 2.65694 0
M  V30 565 N 56.1678 -1.49265 -0.50573 0
M  V30 566 C 57.4158 -1.582 -1.25766 0
M  V30 567 C 57.7368 -0.268482 -1.93143 0
M  V30 568 O 57.0068 0.711833 -1.8251 0
M  V30 569 H 55.5868 -0.582873 -0.467191 0
M  V30 570 H 58.2488 -1.85865 -0.586525 0
M  V30 571 H 57.3448 -2.37563 -2.02412 0
M  V30 572 N 57.6459 0.756429 -1.3826 0
M  V30 573 C 58.5929 1.87011 -1.35261 0
M  V30 574 C 59.5629 1.64695 -0.215616 0
M  V30 575 O 60.7479 1.864 -0.407399 0
M  V30 576 C 57.8879 3.24275 -1.18068 0
M  V30 577 C 57.0009 3.58442 -2.41129 0
M  V30 578 C 56.1359 4.84994 -2.16689 0
M  V30 579 C 55.1749 5.11939 -3.35537 0
M  V30 580 N 54.3119 6.29685 -3.10549 0
M  V30 581 H 59.1519 1.8891 -2.30472 0
M  V30 582 H 56.6889 0.923373 -1.14509 0
M  V30 583 H 58.6469 4.03479 -1.06116 0
M  V30 584 H 57.2769 3.21711 -0.264973 0
M  V30 585 H 56.3289 2.74103 -2.63764 0
M  V30 586 H 57.6409 3.74283 -3.29717 0
M  V30 587 H 56.7949 5.72135 -2.01857 0
M  V30 588 H 55.5339 4.71286 -1.25462 0
M  V30 589 H 54.5389 4.23268 -3.50891 0
M  V30 590 H 55.7639 5.27546 -4.27635 0
M  V30 591 H 53.7099 6.17306 -2.21967 0
M  V30 592 H 53.6269 6.46014 -3.92686 0
M  V30 593 H 54.8949 7.19722 -2.99367 0
M  V30 594 N 59.124 1.23083 0.984299 0
M  V30 595 C 60.349 1.088 1.76571 0
M  V30 596 C 60.774 -0.356657 1.84688 0
M  V30 597 O 60.132 -1.25788 1.30565 0
M  V30 598 C 60.18 1.71371 3.17277 0
M  V30 599 O 59.284 0.973213 4.00752 0
M  V30 600 H 58.625 0.381599 0.543395 0
M  V30 601 H 61.155 1.63057 1.23587 0
M  V30 602 H 61.165 1.76449 3.67872 0
M  V30 603 H 59.84 2.76493 3.10684 0
M  V30 604 H 58.417 0.999078 3.59267 0
M  V30 605 N 60.6021 -1.18246 1.0419 0
M  V30 606 C 61.5121 -2.25574 0.644476 0
M  V30 607 C 62.5281 -1.70845 -0.329826 0
M  V30 608 O 63.7041 -2.00554 -0.184443 0
M  V30 609 C 60.7691 -3.46697 0.014877 0
M  V30 610 C 59.8301 -4.16554 1.03834 0
M  V30 611 C 59.0631 -5.31894 0.438692 0
M  V30 612 O 59.2861 -5.65385 -0.754752 0
M  V30 613 O 58.2201 -5.90459 1.168 0
M  V30 614 H 62.0461 -2.61836 1.53869 0
M  V30 615 H 59.6311 -1.25352 0.812854 0
M  V30 616 H 61.5131 -4.20062 -0.335538 0
M  V30 617 H 60.1881 -3.12255 -0.853138 0
M  V30 618 H 59.0951 -3.45251 1.44057 0
M  V30 619 H 60.4281 -4.54998 1.87716 0
M  V30 620 N 62.0802 -0.821533 -1.34494 0
M  V30 621 C 63.0272 -0.240397 -2.29545 0
M  V30 622 C 63.9972 0.634031 -1.53523 0
M  V30 623 O 65.1822 0.575966 -1.81899 0
M  V30 624 C 62.3222 0.592869 -3.39969 0
M  V30 625 C 61.4352 -0.30365 -4.30932 0
M  V30 626 C 60.5702 0.539049 -5.28458 0
M  V30 627 C 59.6092 -0.356942 -6.11058 0
M  V30 628 N 58.7462 0.446603 -7.00678 0
M  V30 629 H 63.5862 -1.05632 -2.7865 0
M  V30 630 H 61.1232 -0.532413 -1.37127 0
M  V30 631 H 63.0812 1.09129 -4.02675 0
M  V30 632 H 61.7112 1.37392 -2.92102 0
M  V30 633 H 60.7632 -0.920276 -3.691 0
M  V30 634 H 62.0752 -0.992661 -4.88823 0
M  V30 635 H 61.2292 1.102 -5.96608 0
M  V30 636 H 59.9682 1.26157 -4.71101 0
M  V30 637 H 58.9732 -0.932047 -5.41842 0
M  V30 638 H 60.1982 -1.07755 -6.70497 0
M  V30 639 H 58.1442 1.15282 -6.45791 0
M  V30 640 H 58.0612 -0.184048 -7.55776 0
M  V30 641 H 59.3292 0.992352 -7.73158 0
M  V30 642 N 63.5583 1.46682 -0.576371 0
M  V30 643 C 64.8063 2.02013 -0.0594163 0
M  V30 644 C 65.1273 1.45101 1.30271 0
M  V30 645 O 64.3973 0.633317 1.8538 0
M  V30 646 H 62.9773 0.746759 -0.0189745 0
M  V30 647 H 65.6393 1.79862 -0.750717 0
M  V30 648 H 64.7353 3.12097 0.014345 0
M  V30 649 N 65.0364 0.313813 1.54444 0
M  V30 650 C 65.9684 -0.590425 2.21465 0
M  V30 651 C 66.9814 -1.08753 1.21147 0
M  V30 652 O 68.1704 -1.00278 1.4767 0
M  V30 653 C 65.2704 -1.82179 2.85769 0
M  V30 654 C 64.4434 -1.46502 4.12136 0
M  V30 655 C 63.5024 -2.55288 4.60124 0
M  V30 656 O 62.5284 -2.19842 5.25032 0
M  V30 657 N 63.7304 -3.86053 4.33525 0
M  V30 658 H 66.4954 -0.0166033 2.99695 0
M  V30 659 H 64.0564 0.136578 1.61323 0
M  V30 660 H 66.0484 -2.54328 3.14801 0
M  V30 661 H 64.6184 -2.30369 2.11303 0
M  V30 662 H 63.8384 -0.575595 3.89975 0
M  V30 663 H 65.1264 -1.20221 4.94393 0
M  V30 664 H 64.5244 -4.17654 3.81552 0
M  V30 665 H 63.0814 -4.54461 4.67235 0
M  V30 666 N 66.5145 -1.57545 0.0417849 0
M  V30 667 C 67.9255 -1.80011 -0.495259 0
M  V30 668 C 68.2765 -0.953199 -1.71489 0
M  V30 669 O 67.4015 -0.167138 -2.15754 0
M  V30 670 C 67.9965 -3.26482 -0.905265 0
M  V30 671 C 66.5555 -3.499 -1.38734 0
M  V30 672 C 65.7025 -2.74979 -0.358056 0
M  V30 673 H 68.6535 -1.56425 0.267736 0
M  V30 674 H 68.6745 -3.36887 -1.76882 0
M  V30 675 H 68.1865 -3.88096 -0.017401 0
M  V30 676 H 66.2875 -2.93553 -2.29471 0
M  V30 677 H 66.4005 -4.58615 -1.38598 0
M  V30 678 H 64.7645 -2.40834 -0.828912 0
M  V30 679 H 65.5475 -3.39315 0.521561 0
M  V30 680 N 67.9926 0.231505 -1.5589 0
M  V30 681 C 68.9246 1.31006 -1.8807 0
M  V30 682 C 69.9376 1.43539 -0.768145 0
M  V30 683 O 71.1266 1.44614 -1.04638 0
M  V30 684 C 68.2266 2.68688 -2.06543 0
M  V30 685 C 67.3996 2.78228 -3.37502 0
M  V30 686 C 66.4586 3.96857 -3.4553 0
M  V30 687 O 65.4846 3.85662 -4.18633 0
M  V30 688 N 66.6866 5.1072 -2.75944 0
M  V30 689 H 69.4516 1.03731 -2.81176 0
M  V30 690 H 67.0126 0.421573 -1.56315 0
M  V30 691 H 69.0046 3.46412 -2.09239 0
M  V30 692 H 67.5746 2.88605 -1.20109 0
M  V30 693 H 66.7946 1.87059 -3.46991 0
M  V30 694 H 68.0826 2.81564 -4.23791 0
M  V30 695 H 67.4806 5.2271 -2.16311 0
M  V30 696 H 66.0376 5.86523 -2.84314 0
M  V30 697 N 69.4707 1.49531 0.497807 0
M  V30 698 C 70.4187 1.66926 1.61983 0
M  V30 699 C 71.4127 0.535167 1.60724 0
M  V30 700 O 72.6187 0.714896 1.65195 0
M  V30 701 H 68.9937 0.526415 0.537021 0
M  V30 702 H 70.9647 2.61098 1.44465 0
M  V30 703 C 69.7137 1.75602 3.00099 0
M  V30 704 H 69.0367 2.62244 3.01775 0
M  V30 705 H 70.4767 1.91807 3.78135 0
M  V30 706 C 68.9357 0.501543 3.33146 0
M  V30 707 O 69.4657 -0.371342 3.9998 0
M  V30 708 N 67.6717 0.363531 2.88317 0
M  V30 709 H 67.2187 1.07485 2.34104 0
M  V30 710 H 67.1767 -0.474728 3.10795 0
M  V30 711 N 70.9488 -0.749086 1.3866 0
M  V30 712 C 72.1738 -1.54344 1.38538 0
M  V30 713 C 72.5988 -1.88088 -0.0216655 0
M  V30 714 O 71.9568 -1.50899 -1.00494 0
M  V30 715 C 72.0048 -2.8164 2.25192 0
M  V30 716 O 71.1088 -3.7698 1.67212 0
M  V30 717 H 70.4498 -0.466654 0.472367 0
M  V30 718 H 72.9798 -0.925355 1.82478 0
M  V30 719 H 72.9898 -3.30519 2.3921 0
M  V30 720 H 71.6648 -2.56411 3.27454 0
M  V30 721 H 70.2418 -3.35699 1.6236 0
M  V30 722 N 72.4269 -1.23603 -0.977757 0
M  V30 723 C 73.3739 -1.01954 -2.07061 0
M  V30 724 C 74.3439 0.0638697 -1.65977 0
M  V30 725 O 75.5289 -0.0887624 -1.90593 0
M  V30 726 C 72.6689 -0.619658 -3.39491 0
M  V30 727 C 71.7819 -1.77547 -3.93829 0
M  V30 728 C 70.9169 -1.32212 -5.14484 0
M  V30 729 C 69.9559 -2.44852 -5.60994 0
M  V30 730 N 69.0929 -2.00456 -6.72876 0
M  V30 731 H 73.9329 -1.95495 -2.24913 0
M  V30 732 H 71.4699 -0.973861 -1.10247 0
M  V30 733 H 73.4279 -0.368898 -4.15566 0
M  V30 734 H 72.0579 0.278752 -3.21594 0
M  V30 735 H 71.1099 -2.14016 -3.14486 0
M  V30 736 H 72.4219 -2.62219 -4.24314 0
M  V30 737 H 71.5759 -1.02965 -5.97899 0
M  V30 738 H 70.3149 -0.445808 -4.85658 0
M  V30 739 H 69.3199 -2.74871 -4.76157 0
M  V30 740 H 70.5449 -3.33024 -5.91837 0
M  V30 741 H 68.4909 -1.15208 -6.45804 0
M  V30 742 H 68.4079 -2.78687 -7.02759 0
M  V30 743 H 69.6759 -1.7432 -7.59758 0
M  V30 744 N 73.905 1.17692 -1.04816 0
M  V30 745 C 74.852 2.21581 -0.645797 0
M  V30 746 C 75.822 1.62367 0.350159 0
M  V30 747 O 77.007 1.89254 0.242433 0
M  V30 748 C 74.147 3.45092 -0.0227568 0
M  V30 749 C 73.26 4.18613 -1.06709 0
M  V30 750 C 72.395 5.29602 -0.411767 0
M  V30 751 C 71.434 5.94904 -1.44067 0
M  V30 752 N 70.571 6.97414 -0.809781 0
M  V30 753 H 75.411 2.55353 -1.5362 0
M  V30 754 H 72.948 1.25438 -0.768364 0
M  V30 755 H 74.906 4.15679 0.35588 0
M  V30 756 H 73.536 3.11917 0.831122 0
M  V30 757 H 72.588 3.46779 -1.5636 0
M  V30 758 H 73.9 4.63293 -1.84827 0
M  V30 759 H 73.054 6.06696 0.0206623 0
M  V30 760 H 71.793 4.86045 0.401438 0
M  V30 761 H 70.798 5.16544 -1.88316 0
M  V30 762 H 72.023 6.40542 -2.25571 0
M  V30 763 H 69.969 6.55998 -0.0170186 0
M  V30 764 H 69.886 7.40386 -1.52856 0
M  V30 765 H 71.154 7.78463 -0.401999 0
M  V30 766 N 75.3831 0.828654 1.34056 0
M  V30 767 C 76.3151 0.212052 2.28217 0
M  V30 768 C 77.3281 -0.601362 1.51286 0
M  V30 769 O 78.5171 -0.430104 1.73241 0
M  V30 770 C 75.6171 -0.72088 3.31144 0
M  V30 771 C 74.7901 0.0509587 4.3737 0
M  V30 772 C 73.8491 -0.803766 5.20025 0
M  V30 773 O 72.8751 -0.246667 5.68665 0
M  V30 774 N 74.0771 -2.1227 5.40298 0
M  V30 775 H 76.8421 1.02105 2.81771 0
M  V30 776 H 74.4031 0.686153 1.46641 0
M  V30 777 H 76.3951 -1.29742 3.8334 0
M  V30 778 H 74.9651 -1.43061 2.77943 0
M  V30 779 H 74.1851 0.808831 3.85813 0
M  V30 780 H 75.4731 0.582065 5.0546 0
M  V30 781 H 74.8711 -2.59898 5.02464 0
M  V30 782 H 73.4281 -2.64796 5.95589 0
M  V30 783 N 76.8612 -1.46375 0.584142 0
M  V30 784 C 78.0862 -2.07268 0.0740405 0
M  V30 785 C 78.5112 -1.42979 -1.22223 0
M  V30 786 O 77.8692 -0.514092 -1.73859 0
M  V30 787 C 77.9172 -3.60518 -0.0767769 0
M  V30 788 O 77.0212 -3.96533 -1.13292 0
M  V30 789 H 76.3622 -0.660961 0.0634524 0
M  V30 790 H 78.8922 -1.87991 0.807492 0
M  V30 791 H 78.9022 -4.07021 -0.282489 0
M  V30 792 H 77.5772 -4.06702 0.86986 0
M  V30 793 H 76.1542 -3.61738 -0.905553 0
M  V30 794 N 78.3393 -0.321999 -1.54275 0
M  V30 795 C 79.7503 0.166384 -1.85957 0
M  V30 796 C 80.1013 1.51747 -1.24367 0
M  V30 797 O 79.2263 2.09317 -0.549124 0
M  V30 798 C 79.8213 0.308681 -3.37391 0
M  V30 799 C 78.3803 0.741286 -3.69028 0
M  V30 800 C 77.5273 -0.137937 -2.76957 0
M  V30 801 H 80.4783 -0.542335 -1.49146 0
M  V30 802 H 80.4993 1.13984 -3.63026 0
M  V30 803 H 80.0113 -0.674809 -3.82188 0
M  V30 804 H 78.1123 1.73458 -3.29762 0
M  V30 805 H 78.2253 0.546118 -4.75977 0
M  V30 806 H 76.5893 0.386251 -2.51754 0
M  V30 807 H 77.3723 -1.11816 -3.2458 0
M  V30 808 N 79.8174 1.5752 -0.0501392 0
M  V30 809 C 81.2284 1.80271 0.485705 0
M  V30 810 C 81.5794 0.96228 1.70981 0
M  V30 811 O 80.7044 0.178578 2.15662 0
M  V30 812 C 81.2994 3.26957 0.887938 0
M  V30 813 C 79.8584 3.5063 1.36877 0
M  V30 814 C 79.0054 2.75165 0.343468 0
M  V30 815 H 81.9564 1.56281 -0.276028 0
M  V30 816 H 81.9774 3.37821 1.75093 0
M  V30 817 H 81.4894 3.881 -0.0031809 0
M  V30 818 H 79.5904 2.94766 2.27911 0
M  V30 819 H 79.7034 4.59343 1.36164 0
M  V30 820 H 78.0674 2.4127 0.816128 0
M  V30 821 H 78.8504 3.39034 -0.539548 0
M  V30 822 N 81.2955 -0.223234 1.56011 0
M  V30 823 C 82.2425 -1.27664 1.92277 0
M  V30 824 C 83.2125 -1.46659 0.779763 0
M  V30 825 O 84.3975 -1.60256 1.03551 0
M  V30 826 C 81.5375 -2.62234 2.24338 0
M  V30 827 C 80.6505 -2.51051 3.51564 0
M  V30 828 C 79.7855 -3.78133 3.7308 0
M  V30 829 C 78.8245 -3.61665 4.93827 0
M  V30 830 N 77.9615 -4.80693 5.11741 0
M  V30 831 H 82.8015 -0.960358 2.82101 0
M  V30 832 H 80.3385 -0.462901 1.39627 0
M  V30 833 H 82.2965 -3.40596 2.40936 0
M  V30 834 H 80.9265 -2.91961 1.3769 0
M  V30 835 H 79.9785 -1.64132 3.43169 0
M  V30 836 H 81.2905 -2.34803 4.40079 0
M  V30 837 H 80.4445 -4.64938 3.89766 0
M  V30 838 H 79.1835 -3.97304 2.82844 0
M  V30 839 H 78.1885 -2.73244 4.77093 0
M  V30 840 H 79.4135 -3.43966 5.85546 0
M  V30 841 H 77.3595 -5.00181 4.24446 0
M  V30 842 H 77.2765 -4.67165 5.94384 0
M  V30 843 H 78.5445 -5.6893 5.3286 0
M  V30 844 N 82.7736 -1.49793 -0.48987 0
M  V30 845 C 83.7206 -1.67281 -1.59014 0
M  V30 846 C 84.6906 -0.514177 -1.57941 0
M  V30 847 O 85.8756 -0.742533 -1.75759 0
M  V30 848 C 83.0156 -1.75569 -2.97102 0
M  V30 849 C 82.1286 -3.0281 -3.08107 0
M  V30 850 C 81.2636 -3.02008 -4.36995 0
M  V30 851 C 80.3026 -4.23782 -4.41673 0
M  V30 852 N 79.4396 -4.20826 -5.62005 0
M  V30 853 H 84.2796 -2.61224 -1.43409 0
M  V30 854 H 81.8166 -1.29508 -0.697565 0
M  V30 855 H 83.7746 -1.78354 -3.77155 0
M  V30 856 H 82.4046 -0.850827 -3.11385 0
M  V30 857 H 81.4566 -3.09584 -2.21047 0
M  V30 858 H 82.7686 -3.92801 -3.07423 0
M  V30 859 H 81.9226 -3.03418 -5.25378 0
M  V30 860 H 80.6616 -2.09815 -4.4026 0
M  V30 861 H 79.6666 -4.22604 -3.5169 0
M  V30 862 H 80.8916 -5.17181 -4.40115 0
M  V30 863 H 78.8376 -3.31476 -5.66091 0
M  V30 864 H 78.7546 -5.04564 -5.62984 0
M  V30 865 H 80.0226 -4.26355 -6.52565 0
M  V30 866 N 84.2517 0.741722 -1.39055 0
M  V30 867 C 85.6627 1.31966 -1.32068 0
M  V30 868 C 86.0137 1.96192 0.0180797 0
M  V30 869 O 85.1387 1.95861 0.920196 0
M  V30 870 C 85.7337 2.39954 -2.39181 0
M  V30 871 C 84.2927 2.93438 -2.35735 0
M  V30 872 C 83.4397 1.66936 -2.21422 0
M  V30 873 H 86.3907 0.539721 -1.4924 0
M  V30 874 H 86.4117 3.20182 -2.05581 0
M  V30 875 H 85.9237 1.9318 -3.36605 0
M  V30 876 H 84.0247 3.4451 -1.41929 0
M  V30 877 H 84.1377 3.4701 -3.30335 0
M  V30 878 H 82.5017 1.91016 -1.68478 0
M  V30 879 H 83.2847 1.22224 -3.20806 0
M  V30 880 N 85.7298 1.2412 0.971189 0
M  V30 881 C 86.6928 1.03156 2.04674 0
M  V30 882 C 87.6928 -0.00990322 1.60797 0
M  V30 883 O 88.8828 0.230729 1.72665 0
M  V30 884 C 86.0148 0.562765 3.36223 0
M  V30 885 H 87.2078 1.98614 2.24705 0
M  V30 886 H 84.7608 1.06293 1.14593 0
M  V30 887 H 85.4958 -0.395176 3.21883 0
M  V30 888 H 85.2808 1.31441 3.69413 0
M  V30 889 H 86.7708 0.437015 4.15307 0
M  V30 890 N 87.2079 -1.17134 1.05439 0
M  V30 891 C 88.6189 -1.69084 0.791676 0
M  V30 892 C 88.9699 -1.83822 -0.685839 0
M  V30 893 O 88.0949 -1.52757 -1.53278 0
M  V30 894 C 88.6899 -3.07119 1.4305 0
M  V30 895 C 87.2489 -3.56225 1.21577 0
M  V30 896 C 86.3959 -2.32421 1.51247 0
M  V30 897 H 89.3469 -1.01617 1.219 0
M  V30 898 H 89.3679 -3.71087 0.84112 0
M  V30 899 H 88.8799 -2.9636 2.50584 0
M  V30 900 H 86.9809 -3.72257 0.159787 0
M  V30 901 H 87.0939 -4.38837 1.92246 0
M  V30 902 H 85.4579 -2.3701 0.932653 0
M  V30 903 H 86.2409 -2.24268 2.5992 0
M  V30 904 N 88.686 -0.835752 -1.33615 0
M  V30 905 C 89.932 -0.430596 -1.98176 0
M  V30 906 C 90.265 1.00684 -1.66061 0
M  V30 907 O 89.54 1.70339 -0.938877 0
M  V30 908 C 89.823 -0.648065 -3.5422 0
M  V30 909 C 89.676 -2.13255 -3.96033 0
M  V30 910 C 90.995 -0.0922113 -4.40003 0
M  V30 911 H 88.114 -0.157924 -0.719881 0
M  V30 912 H 90.756 -1.05069 -1.58305 0
M  V30 913 H 88.906 -0.120237 -3.88314 0
M  V30 914 H 90.578 -2.725 -3.72211 0
M  V30 915 H 88.821 -2.61823 -3.45878 0
M  V30 916 H 89.492 -2.23547 -5.04708 0
M  V30 917 H 91.968 -0.543343 -4.12537 0
M  V30 918 H 90.844 -0.274083 -5.48215 0
M  V30 919 H 91.105 1.00378 -4.30554 0
M  V30 920 N 90.1641 1.46063 -0.591896 0
M  V30 921 C 91.5751 1.85944 -0.167822 0
M  V30 922 C 91.9261 1.49429 1.27143 0
M  V30 923 O 91.0511 0.913515 1.96173 0
M  V30 924 C 91.6461 3.37489 -0.297794 0
M  V30 925 C 90.2051 3.76332 0.0714732 0
M  V30 926 C 89.3521 2.7006 -0.629509 0
M  V30 927 H 92.3031 1.37087 -0.799555 0
M  V30 928 H 92.3241 3.77532 0.474349 0
M  V30 929 H 91.8361 3.64034 -1.3454 0
M  V30 930 H 89.9371 3.55405 1.11886 0
M  V30 931 H 90.0501 4.78088 -0.311245 0
M  V30 932 H 88.4141 2.54607 -0.0687867 0
M  V30 933 H 89.1971 2.99444 -1.67894 0
M  V30 934 N 91.6422 0.330177 1.54103 0
M  V30 935 C 92.6052 -0.520144 2.2322 0
M  V30 936 C 93.6052 -1.03828 1.22786 0
M  V30 937 O 94.7952 -0.929652 1.4732 0
M  V30 938 C 91.9272 -1.72317 2.94142 0
M  V30 939 H 93.1202 0.0841605 2.99782 0
M  V30 940 H 90.6732 0.0813433 1.56088 0
M  V30 941 H 91.4082 -2.36653 2.21734 0
M  V30 942 H 91.1932 -1.35898 3.67796 0
M  V30 943 H 92.6832 -2.3266 3.46784 0
M  V30 944 N 93.1203 -1.57491 0.0584922 0
M  V30 945 C 94.0303 -2.15448 -0.928414 0
M  V30 946 C 95.0463 -1.11416 -1.3365 0
M  V30 947 O 96.2223 -1.4362 -1.41193 0
M  V30 948 C 93.2873 -2.69393 -2.18239 0
M  V30 949 C 92.3483 -3.88249 -1.83196 0
M  V30 950 C 91.5813 -4.39613 -3.02616 0
M  V30 951 O 91.8043 -3.90023 -4.16219 0
M  V30 952 O 90.7383 -5.31111 -2.83204 0
M  V30 953 H 94.5643 -3.00112 -0.465483 0
M  V30 954 H 92.1493 -1.48499 -0.163826 0
M  V30 955 H 94.0313 -3.04026 -2.91798 0
M  V30 956 H 92.7063 -1.87796 -2.63656 0
M  V30 957 H 91.6133 -3.58492 -1.06931 0
M  V30 958 H 92.9463 -4.71098 -1.42573 0
M  V30 959 N 94.5984 0.214957 -1.56127 0
M  V30 960 C 96.0094 0.781386 -1.69562 0
M  V30 961 C 96.3604 1.84707 -0.66165 0
M  V30 962 O 95.4854 2.156 0.185927 0
M  V30 963 C 96.0804 1.42411 -3.07416 0
M  V30 964 C 94.6394 1.93786 -3.22683 0
M  V30 965 C 93.7864 0.800438 -2.65496 0
M  V30 966 H 96.7374 -0.00980633 -1.58697 0
M  V30 967 H 96.7584 2.29309 -3.0364 0
M  V30 968 H 96.2704 0.64826 -3.82648 0
M  V30 969 H 94.3714 2.74152 -2.52332 0
M  V30 970 H 94.4844 2.1133 -4.29973 0
M  V30 971 H 92.8484 1.2095 -2.2415 0
M  V30 972 H 93.6314 0.0371471 -3.4328 0
M  V30 973 N 96.0765 1.50051 0.48192 0
M  V30 974 C 97.3235 1.60498 1.23477 0
M  V30 975 C 97.6515 0.300331 1.92167 0
M  V30 976 O 96.9065 -0.713094 1.82246 0
M  V30 977 C 97.2055 2.72717 2.30998 0
M  V30 978 C 96.8715 4.13572 1.79636 0
M  V30 979 C 95.5335 4.519 1.65348 0
M  V30 980 C 97.8855 5.01649 1.41412 0
M  V30 981 C 95.2135 5.76057 1.11244 0
M  V30 982 C 97.5655 6.26343 0.887538 0
M  V30 983 C 96.2295 6.63483 0.731207 0
M  V30 984 H 95.4995 0.587303 0.451836 0
M  V30 985 H 98.1465 1.83948 0.532468 0
M  V30 986 H 96.4515 2.43312 3.07094 0
M  V30 987 H 98.1485 2.78006 2.88988 0
M  V30 988 H 94.7385 3.83329 1.91721 0
M  V30 989 H 98.9225 4.72679 1.51289 0
M  V30 990 H 94.1785 6.03516 0.978686 0
M  V30 991 H 98.3525 6.93958 0.582654 0
M  V30 992 H 95.9795 7.59568 0.309806 0
M  V30 993 N 97.5546 -0.734337 1.39446 0
M  V30 994 C 98.8316 -1.48579 1.27215 0
M  V30 995 C 99.2116 -2.1077 -0.117968 0
M  V30 996 O 98.5596 -1.98646 -1.12924 0
M  V30 997 C 98.7696 -2.53667 2.39696 0
M  V30 998 C 100.118 -3.20031 2.79044 0
M  V30 999 O 101.142 -2.6398 2.39151 0
M  V30 1000 O 100.001 -4.21455 3.47905 0
M  V30 1001 H 97.0946 -0.659816 0.49857 0
M  V30 1002 H 99.6406 -0.768106 1.51322 0
M  V30 1003 H 98.4126 -2.06096 3.32626 0
M  V30 1004 H 98.0356 -3.32994 2.17258 0
M  V30 1005 N 99.0327 -1.24633 -0.964593 0
M  V30 1006 C 99.9807 -1.03917 -2.08096 0
M  V30 1007 C 100.975 0.0268581 -1.69379 0
M  V30 1008 O 102.181 -0.127952 -1.79545 0
M  V30 1009 H 98.5557 -0.319044 -0.680966 0
M  V30 1010 H 100.527 -1.98581 -2.22729 0
M  V30 1011 C 99.2757 -0.663983 -3.41301 0
M  V30 1012 H 98.5987 -1.47605 -3.71555 0
M  V30 1013 H 100.039 -0.558663 -4.20303 0
M  V30 1014 C 98.4977 0.629169 -3.30973 0
M  V30 1015 O 99.0277 1.67404 -3.65156 0
M  V30 1016 N 97.2337 0.611057 -2.84103 0
M  V30 1017 H 96.7807 -0.239593 -2.56483 0
M  V30 1018 H 96.7387 1.47647 -2.77575 0
M  V30 1019 N 100.511 1.16574 -1.06058 0
M  V30 1020 C 101.739 1.90952 -0.796552 0
M  V30 1021 C 102.154 1.77302 0.648808 0
M  V30 1022 O 101.511 1.11605 1.44397 0
M  V30 1023 C 101.562 3.41736 -1.17894 0
M  V30 1024 O 101.283 3.54975 -2.56758 0
M  V30 1025 C 102.784 4.33169 -0.942308 0
M  V30 1026 H 100.004 0.605594 -0.288959 0
M  V30 1027 H 102.548 1.47777 -1.41358 0
M  V30 1028 H 100.703 3.82623 -0.606491 0
M  V30 1029 H 101.117 4.4846 -2.72 0
M  V30 1030 H 102.591 5.37439 -1.25952 0
M  V30 1031 H 103.068 4.3903 0.122078 0
M  V30 1032 H 103.674 3.98007 -1.49902 0
M  V30 1033 N 101.989 0.842826 1.3317 0
M  V30 1034 C 103.217 0.454055 2.01856 0
M  V30 1035 C 103.632 -0.94587 1.63397 0
M  V30 1036 O 102.989 -1.61534 0.849302 0
M  V30 1037 C 103.04 0.569715 3.56982 0
M  V30 1038 O 102.761 1.91448 3.94055 0
M  V30 1039 C 104.262 0.178412 4.42941 0
M  V30 1040 H 101.482 0.17979 0.646465 0
M  V30 1041 H 104.026 1.1365 1.70012 0
M  V30 1042 H 102.181 -0.0648587 3.87346 0
M  V30 1043 H 102.595 1.90282 4.88767 0
M  V30 1044 H 104.069 0.310376 5.51127 0
M  V30 1045 H 104.546 -0.880056 4.30293 0
M  V30 1046 H 105.152 0.787579 4.17944 0
M  V30 1047 N 103.467 -1.45747 0.599634 0
M  V30 1048 C 104.697 -2.06369 0.0977132 0
M  V30 1049 C 105.105 -1.44624 -1.21985 0
M  V30 1050 O 104.448 -0.551831 -1.75216 0
M  V30 1051 C 104.51 -3.59284 -0.124673 0
M  V30 1052 C 104.174 -4.43318 1.10987 0
M  V30 1053 C 105.171 -4.78796 2.02609 0
M  V30 1054 C 102.856 -4.84194 1.33647 0
M  V30 1055 C 104.85 -5.53997 3.15224 0
M  V30 1056 C 102.537 -5.5915 2.46565 0
M  V30 1057 C 103.535 -5.93968 3.37182 0
M  V30 1058 O 103.223 -6.67405 4.48136 0
M  V30 1059 H 102.955 -0.673122 0.0623153 0
M  V30 1060 H 105.509 -1.88104 0.824981 0
M  V30 1061 H 103.739 -3.75919 -0.906745 0
M  V30 1062 H 105.428 -4.01775 -0.577201 0
M  V30 1063 H 106.194 -4.47781 1.86325 0
M  V30 1064 H 102.073 -4.56534 0.64016 0
M  V30 1065 H 105.617 -5.81091 3.85978 0
M  V30 1066 H 101.514 -5.89579 2.62805 0
M  V30 1067 H 102.282 -6.85847 4.46717 0
M  V30 1068 N 104.945 -0.338344 -1.53925 0
M  V30 1069 C 105.892 0.520845 -2.24846 0
M  V30 1070 C 106.862 1.09976 -1.24477 0
M  V30 1071 O 108.047 1.13735 -1.53196 0
M  V30 1072 C 105.187 1.6685 -3.02084 0
M  V30 1073 C 104.3 1.11739 -4.17299 0
M  V30 1074 C 103.435 2.23193 -4.82036 0
M  V30 1075 C 102.474 1.65407 -5.89328 0
M  V30 1076 N 101.611 2.70582 -6.47866 0
M  V30 1077 H 106.451 -0.0904881 -2.97863 0
M  V30 1078 H 103.988 -0.0564282 -1.46992 0
M  V30 1079 H 105.946 2.34407 -3.45122 0
M  V30 1080 H 104.576 2.2509 -2.31375 0
M  V30 1081 H 103.628 0.332919 -3.7894 0
M  V30 1082 H 104.94 0.654677 -4.94485 0
M  V30 1083 H 104.094 2.98626 -5.28117 0
M  V30 1084 H 102.833 2.72807 -4.04262 0
M  V30 1085 H 101.838 0.884779 -5.42634 0
M  V30 1086 H 103.063 1.16652 -6.69006 0
M  V30 1087 H 101.009 3.1946 -5.72959 0
M  V30 1088 H 100.926 2.28917 -7.20509 0
M  V30 1089 H 102.194 3.45799 -6.98601 0
M  V30 1090 N 106.423 1.57458 -0.0668435 0
M  V30 1091 C 107.371 2.13639 0.919851 0
M  V30 1092 C 108.365 1.07204 1.31163 0
M  V30 1093 O 109.571 1.25591 1.28945 0
M  V30 1094 H 105.946 0.683048 0.314562 0
M  V30 1095 H 107.917 2.95415 0.421047 0
M  V30 1096 C 106.666 2.70892 2.17975 0
M  V30 1097 H 105.989 3.5246 1.88711 0
M  V30 1098 H 107.429 3.13803 2.85138 0
M  V30 1099 C 105.888 1.65414 2.93496 0
M  V30 1100 O 106.418 1.07619 3.87015 0
M  V30 1101 N 104.624 1.36564 2.56512 0
M  V30 1102 H 104.171 1.83751 1.80536 0
M  V30 1103 H 104.129 0.66223 3.07347 0
M  V30 1104 N 107.901 -0.206675 1.56239 0
M  V30 1105 C 108.831 -1.25909 1.96645 0
M  V30 1106 C 109.812 -1.48097 0.836734 0
M  V30 1107 O 110.997 -1.6003 1.10019 0
M  V30 1108 C 108.127 -2.6058 2.29599 0
M  V30 1109 C 107.081 -2.53024 3.452 0
M  V30 1110 C 106.407 -3.91861 3.63798 0
M  V30 1111 C 107.707 -2.06524 4.79734 0
M  V30 1112 H 109.401 -0.923369 2.84806 0
M  V30 1113 H 106.947 -0.442735 1.37025 0
M  V30 1114 H 108.9 -3.34375 2.56459 0
M  V30 1115 H 107.624 -2.95869 1.38307 0
M  V30 1116 H 106.283 -1.81684 3.18412 0
M  V30 1117 H 105.931 -4.24483 2.69857 0
M  V30 1118 H 105.631 -3.87683 4.4156 0
M  V30 1119 H 107.155 -4.67296 3.93022 0
M  V30 1120 H 108.569 -2.70072 5.05702 0
M  V30 1121 H 106.966 -2.13374 5.60885 0
M  V30 1122 H 108.036 -1.01802 4.74093 0
M  V30 1123 N 109.379 -1.50304 -0.473955 0
M  V30 1124 C 110.311 -1.65109 -1.58971 0
M  V30 1125 C 111.324 -0.532676 -1.53839 0
M  V30 1126 O 112.513 -0.805751 -1.59279 0
M  V30 1127 C 109.613 -1.61684 -2.97845 0
M  V30 1128 C 108.786 -2.8951 -3.27876 0
M  V30 1129 C 107.845 -2.78768 -4.4629 0
M  V30 1130 O 106.871 -3.52722 -4.46739 0
M  V30 1131 N 108.073 -1.9213 -5.47783 0
M  V30 1132 H 110.838 -2.61347 -1.46689 0
M  V30 1133 H 108.399 -1.47732 -0.662324 0
M  V30 1134 H 110.391 -1.52114 -3.75024 0
M  V30 1135 H 108.961 -0.731925 -3.03911 0
M  V30 1136 H 108.181 -3.13228 -2.39336 0
M  V30 1137 H 109.469 -3.74199 -3.4475 0
M  V30 1138 H 108.867 -1.31353 -5.50239 0
M  V30 1139 H 107.424 -1.88466 -6.23958 0
M  V30 1140 N 110.857 0.726932 -1.39834 0
M  V30 1141 C 111.807 1.83232 -1.35683 0
M  V30 1142 C 112.791 1.59155 -0.236295 0
M  V30 1143 O 113.983 1.70522 -0.474488 0
M  V30 1144 C 111.112 3.21246 -1.21062 0
M  V30 1145 C 110.198 3.51125 -2.37849 0
M  V30 1146 N 110.589 3.51889 -3.63329 0
M  V30 1147 C 108.887 3.81527 -2.30982 0
M  V30 1148 C 109.588 3.79791 -4.40606 0
M  V30 1149 N 108.564 3.97971 -3.70297 0
M  V30 1150 H 112.366 1.8214 -2.30656 0
M  V30 1151 H 109.88 0.925545 -1.33444 0
M  V30 1152 H 111.877 4.00387 -1.16171 0
M  V30 1153 H 110.537 3.23572 -0.270458 0
M  V30 1154 H 111.548 3.33008 -3.96643 0
M  V30 1155 H 108.225 3.91411 -1.45272 0
M  V30 1156 H 109.615 3.86783 -5.49408 0
M  V30 1157 N 112.336 1.25143 0.95797 0
M  V30 1158 C 113.286 1.01924 2.0395 0
M  V30 1159 C 114.27 -0.0427175 1.60843 0
M  V30 1160 O 115.462 0.17221 1.7616 0
M  V30 1161 C 112.591 0.636373 3.3735 0
M  V30 1162 C 111.677 1.73492 3.8699 0
M  V30 1163 N 112.068 2.96945 4.0946 0
M  V30 1164 C 110.366 1.61467 4.15746 0
M  V30 1165 C 111.067 3.68228 4.50315 0
M  V30 1166 N 110.043 2.95833 4.56053 0
M  V30 1167 H 113.845 1.95653 2.19311 0
M  V30 1168 H 111.359 1.15413 1.14253 0
M  V30 1169 H 113.356 0.451233 4.14451 0
M  V30 1170 H 112.016 -0.293621 3.2337 0
M  V30 1171 H 113.027 3.33025 3.96629 0
M  V30 1172 H 109.704 0.753394 4.10646 0
M  V30 1173 H 111.094 4.74178 4.76031 0
M  V30 1174 N 113.814 -1.1601 1.06675 0
M  V30 1175 C 115.091 -1.82679 0.699114 0
M  V30 1176 C 115.471 -1.94559 -0.819137 0
M  V30 1177 O 114.819 -1.49169 -1.73092 0
M  V30 1178 C 115.029 -3.19445 1.40555 0
M  V30 1179 C 116.377 -3.95171 1.55323 0
M  V30 1180 O 117.401 -3.28976 1.36577 0
M  V30 1181 O 116.26 -5.13833 1.86112 0
M  V30 1182 H 113.354 -0.788954 0.247951 0
M  V30 1183 H 115.9 -1.23179 1.16726 0
M  V30 1184 H 114.672 -3.05856 2.44065 0
M  V30 1185 H 114.295 -3.86625 0.927733 0
M  V30 1186 N 115.292 -0.849877 -1.32721 0
M  V30 1187 C 116.522 -0.46408 -2.0132 0
M  V30 1188 C 116.93 0.94246 -1.64056 0
M  V30 1189 O 116.273 1.6257 -0.855379 0
M  V30 1190 C 116.335 -0.517887 -3.5575 0
M  V30 1191 C 115.999 -1.88248 -4.16427 0
M  V30 1192 C 116.996 -2.84726 -4.35002 0
M  V30 1193 C 114.681 -2.17832 -4.52609 0
M  V30 1194 C 116.675 -4.08945 -4.8892 0
M  V30 1195 C 114.362 -3.42304 -5.06232 0
M  V30 1196 C 115.36 -4.37677 -5.24335 0
M  V30 1197 O 115.048 -5.59946 -5.76815 0
M  V30 1198 H 114.78 -0.181327 -0.651227 0
M  V30 1199 H 117.334 -1.14713 -1.70382 0
M  V30 1200 H 115.564 0.221997 -3.86062 0
M  V30 1201 H 117.253 -0.148366 -4.05629 0
M  V30 1202 H 118.019 -2.63174 -4.07388 0
M  V30 1203 H 113.898 -1.44385 -4.37806 0
M  V30 1204 H 117.442 -4.83396 -5.02966 0
M  V30 1205 H 113.339 -3.63709 -5.33278 0
M  V30 1206 H 114.107 -5.61838 -5.95214 0
M  V30 1207 N 116.77 1.45427 -0.607355 0
M  V30 1208 C 117.995 2.07124 -0.107006 0
M  V30 1209 C 118.42 1.44906 1.19933 0
M  V30 1210 O 117.778 0.541687 1.73019 0
M  V30 1211 C 117.826 3.60595 0.0194119 0
M  V30 1212 O 116.93 3.98285 1.0697 0
M  V30 1213 H 116.271 0.659868 -0.0739597 0
M  V30 1214 H 118.801 1.86683 -0.837297 0
M  V30 1215 H 118.811 4.07419 0.2177 0
M  V30 1216 H 117.486 4.05266 -0.934453 0
M  V30 1217 H 116.063 3.63133 0.847889 0
M  V30 1218 N 118.248 0.346503 1.53744 0
M  V30 1219 C 119.476 -0.25041 2.05379 0
M  V30 1220 C 119.891 -1.43979 1.22129 0
M  V30 1221 O 119.248 -1.80677 0.257321 0
M  V30 1222 C 119.299 -0.662575 3.55376 0
M  V30 1223 O 119.02 0.479515 4.35468 0
M  V30 1224 C 120.521 -1.31989 4.23195 0
M  V30 1225 H 117.741 -0.0478198 0.669294 0
M  V30 1226 H 120.285 0.499346 1.9831 0
M  V30 1227 H 118.44 -1.36227 3.62658 0
M  V30 1228 H 118.854 0.15037 5.24284 0
M  V30 1229 H 120.328 -1.55902 5.29527 0
M  V30 1230 H 120.805 -2.27436 3.75725 0
M  V30 1231 H 121.411 -0.662154 4.20114 0
M  V30 1232 N 119.726 -1.57421 0.075193 0
M  V30 1233 C 120.956 -1.97659 -0.601203 0
M  V30 1234 C 121.364 -0.952427 -1.63479 0
M  V30 1235 O 120.707 0.0688241 -1.83571 0
M  V30 1236 C 120.769 -3.34218 -1.32434 0
M  V30 1237 C 120.433 -4.5484 -0.443826 0
M  V30 1238 C 121.43 -5.19034 0.299969 0
M  V30 1239 C 119.115 -5.00952 -0.367709 0
M  V30 1240 C 121.109 -6.27695 1.10807 0
M  V30 1241 C 118.796 -6.09484 0.444058 0
M  V30 1242 C 119.794 -6.72719 1.18061 0
M  V30 1243 O 119.482 -7.79161 1.97898 0
M  V30 1244 H 119.214 -0.65494 -0.167422 0
M  V30 1245 H 121.768 -2.04886 0.145157 0
M  V30 1246 H 119.998 -3.23615 -2.11685 0
M  V30 1247 H 121.687 -3.59038 -1.89331 0
M  V30 1248 H 122.453 -4.84351 0.250776 0
M  V30 1249 H 118.332 -4.51509 -0.930638 0
M  V30 1250 H 121.876 -6.76982 1.68347 0
M  V30 1251 H 117.773 -6.43601 0.494803 0
M  V30 1252 H 118.541 -7.96055 1.90367 0
M  V30 1253 N 121.204 0.198386 -1.56346 0
M  V30 1254 C 122.432 0.935572 -1.84539 0
M  V30 1255 C 122.847 1.76989 -0.657281 0
M  V30 1256 O 122.204 1.78626 0.374043 0
M  V30 1257 C 122.255 1.8344 -3.11499 0
M  V30 1258 O 121.976 1.03377 -4.25728 0
M  V30 1259 C 123.477 2.68355 -3.52846 0
M  V30 1260 H 120.697 0.273126 -0.612897 0
M  V30 1261 H 123.241 0.20663 -2.03453 0
M  V30 1262 H 121.396 2.51701 -2.94492 0
M  V30 1263 H 121.81 1.64599 -4.98003 0
M  V30 1264 H 123.284 3.27085 -4.44657 0
M  V30 1265 H 123.761 3.41901 -2.75681 0
M  V30 1266 H 124.367 2.05471 -3.72373 0
M  V30 1267 N 122.682 1.50554 0.465978 0
M  V30 1268 C 123.929 1.61798 1.21768 0
M  V30 1269 C 124.257 0.320696 1.91838 0
M  V30 1270 O 123.512 -0.693724 1.82992 0
M  V30 1271 C 123.811 2.75152 2.28093 0
M  V30 1272 C 123.477 4.15454 1.75239 0
M  V30 1273 C 122.139 4.53628 1.60546 0
M  V30 1274 C 124.491 5.03121 1.36083 0
M  V30 1275 C 121.819 5.77204 1.05128 0
M  V30 1276 C 124.171 6.27249 0.821056 0
M  V30 1277 C 122.835 6.64221 0.660795 0
M  V30 1278 H 122.105 0.592063 0.445582 0
M  V30 1279 H 124.752 1.84503 0.512927 0
M  V30 1280 H 123.057 2.46556 3.04496 0
M  V30 1281 H 124.754 2.81055 2.86023 0
M  V30 1282 H 121.344 3.85341 1.87644 0
M  V30 1283 H 125.528 4.74257 1.46267 0
M  V30 1284 H 120.784 6.0452 0.91462 0
M  V30 1285 H 124.958 6.94537 0.509018 0
M  V30 1286 H 122.585 7.59854 0.229226 0
M  V30 1287 N 124.16 -0.719506 1.40217 0
M  V30 1288 C 125.09 -1.8465 1.42922 0
M  V30 1289 C 126.071 -1.67599 0.29062 0
M  V30 1290 O 127.256 -1.87688 0.498677 0
M  V30 1291 C 124.386 -3.22565 1.28722 0
M  V30 1292 C 123.34 -3.54281 2.40144 0
M  V30 1293 C 122.666 -4.91298 2.11023 0
M  V30 1294 C 123.966 -3.55676 3.82481 0
M  V30 1295 H 125.66 -1.82644 2.37237 0
M  V30 1296 H 123.206 -0.877305 1.1419 0
M  V30 1297 H 125.159 -4.01095 1.29232 0
M  V30 1298 H 123.883 -3.25137 0.308811 0
M  V30 1299 H 122.542 -2.78088 2.38877 0
M  V30 1300 H 122.19 -4.90468 1.11582 0
M  V30 1301 H 121.89 -5.13485 2.8567 0
M  V30 1302 H 123.414 -5.72166 2.13209 0
M  V30 1303 H 124.828 -4.24254 3.85592 0
M  V30 1304 H 123.225 -3.89388 4.56614 0
M  V30 1305 H 124.295 -2.55144 4.12346 0
M  V30 1306 N 125.638 -1.25649 -0.95132 0
M  V30 1307 C 126.915 -1.01361 -1.67288 0
M  V30 1308 C 127.295 0.459135 -2.06046 0
M  V30 1309 O 126.643 1.43723 -1.7764 0
M  V30 1310 C 126.853 -1.95256 -2.89268 0
M  V30 1311 C 128.201 -2.23289 -3.61147 0
M  V30 1312 O 129.225 -1.93041 -2.99355 0
M  V30 1313 O 128.084 -2.74741 -4.72419 0
M  V30 1314 H 125.178 -0.38464 -0.732107 0
M  V30 1315 H 127.724 -1.36817 -1.00395 0
M  V30 1316 H 126.496 -2.94685 -2.57442 0
M  V30 1317 H 126.119 -1.60218 -3.6389 0
M  V30 1318 N 127.117 1.15442 -1.07289 0
M  V30 1319 C 128.047 2.22312 -0.714107 0
M  V30 1320 C 129.028 1.67467 0.298155 0
M  V30 1321 O 130.213 1.93445 0.171048 0
M  V30 1322 C 127.343 3.47124 -0.110448 0
M  V30 1323 C 126.297 4.14926 -1.04979 0
M  V30 1324 C 125.623 5.33807 -0.308924 0
M  V30 1325 C 126.923 4.64762 -2.38314 0
M  V30 1326 H 128.617 2.5258 -1.6076 0
M  V30 1327 H 126.163 1.21404 -0.77441 0
M  V30 1328 H 128.116 4.21124 0.152482 0
M  V30 1329 H 126.84 3.16187 0.81812 0
M  V30 1330 H 125.499 3.42866 -1.29764 0
M  V30 1331 H 125.147 4.99126 0.623084 0
M  V30 1332 H 124.847 5.80113 -0.935036 0
M  V30 1333 H 126.371 6.10576 -0.0537771 0
M  V30 1334 H 127.785 5.30292 -2.1786 0
M  V30 1335 H 126.182 5.21728 -2.96514 0
M  V30 1336 H 127.252 3.80434 -3.00663 0
M  V30 1337 N 128.595 0.856903 1.32268 0
M  V30 1338 C 129.543 0.291987 2.3076 0
M  V30 1339 C 130.537 -0.585857 1.58947 0
M  V30 1340 O 131.743 -0.47341 1.73663 0
M  V30 1341 H 128.118 0.075721 0.748178 0
M  V30 1342 H 130.089 1.13687 2.75895 0
M  V30 1343 C 128.838 -0.502869 3.44044 0
M  V30 1344 H 128.161 0.163328 3.99466 0
M  V30 1345 H 129.601 -0.863691 4.1511 0
M  V30 1346 C 128.06 -1.68898 2.91505 0
M  V30 1347 O 128.59 -2.78811 2.89184 0
M  V30 1348 N 126.796 -1.51679 2.47875 0
M  V30 1349 H 126.343 -0.622666 2.49961 0
M  V30 1350 H 126.301 -2.31184 2.13076 0
M  V30 1351 N 130.073 -1.45103 0.615059 0
M  V30 1352 C 131.003 -2.33339 -0.0865619 0
M  V30 1353 C 131.984 -1.4727 -0.851209 0
M  V30 1354 O 133.169 -1.76026 -0.820281 0
M  V30 1355 C 130.299 -3.30095 -1.07956 0
M  V30 1356 C 129.253 -4.25858 -0.427628 0
M  V30 1357 C 128.579 -5.12361 -1.5294 0
M  V30 1358 C 129.879 -5.18165 0.655944 0
M  V30 1359 H 131.573 -2.92254 0.650224 0
M  V30 1360 H 129.119 -1.40532 0.314138 0
M  V30 1361 H 131.072 -3.90698 -1.57901 0
M  V30 1362 H 129.796 -2.69355 -1.84703 0
M  V30 1363 H 128.455 -3.66564 0.0510292 0
M  V30 1364 H 128.103 -4.47984 -2.28734 0
M  V30 1365 H 127.803 -5.77238 -1.09865 0
M  V30 1366 H 129.327 -5.75833 -2.03098 0
M  V30 1367 H 130.741 -5.72796 0.240257 0
M  V30 1368 H 129.138 -5.91559 1.00888 0
M  V30 1369 H 130.208 -4.60144 1.52957 0
M  V30 1370 N 131.551 -0.354651 -1.53558 0
M  V30 1371 C 132.461 0.50515 -2.29097 0
M  V30 1372 C 133.477 1.10223 -1.34636 0
M  V30 1373 O 134.653 1.11553 -1.67684 0
M  V30 1374 C 131.718 1.63479 -3.05738 0
M  V30 1375 C 130.779 1.06636 -4.15845 0
M  V30 1376 C 130.012 2.14217 -4.88822 0
M  V30 1377 O 130.235 3.35137 -4.61562 0
M  V30 1378 O 129.169 1.77887 -5.75013 0
M  V30 1379 H 132.995 -0.109237 -3.03503 0
M  V30 1380 H 130.58 -0.119357 -1.48922 0
M  V30 1381 H 132.462 2.2918 -3.5363 0
M  V30 1382 H 131.137 2.23478 -2.34178 0
M  V30 1383 H 130.044 0.373565 -3.7223 0
M  V30 1384 H 131.377 0.511081 -4.89539 0
M  V30 1385 N 133.029 1.57378 -0.0835403 0
M  V30 1386 C 133.959 2.1641 0.87686 0
M  V30 1387 C 134.94 1.09429 1.30228 0
M  V30 1388 O 136.125 1.37516 1.37124 0
M  V30 1389 C 133.255 2.73517 2.14022 0
M  V30 1390 C 132.209 3.85769 1.85381 0
M  V30 1391 C 131.535 4.29529 3.18448 0
M  V30 1392 C 132.835 5.09486 1.14984 0
M  V30 1393 H 134.529 2.96914 0.385059 0
M  V30 1394 H 132.075 1.42823 0.18377 0
M  V30 1395 H 134.028 3.13463 2.81636 0
M  V30 1396 H 132.752 1.90252 2.65465 0
M  V30 1397 H 131.411 3.46345 1.20169 0
M  V30 1398 H 131.059 3.43169 3.67755 0
M  V30 1399 H 130.759 5.05204 3.00071 0
M  V30 1400 H 132.283 4.72099 3.8724 0
M  V30 1401 H 133.697 5.46674 1.72687 0
M  V30 1402 H 132.094 5.90515 1.06826 0
M  V30 1403 H 133.164 4.84724 0.130749 0
M  V30 1404 N 134.507 -0.190092 1.56449 0
M  V30 1405 C 135.732 -0.929864 1.85387 0
M  V30 1406 C 136.157 -1.7585 0.667704 0
M  V30 1407 O 135.515 -1.77198 -0.383459 0
M  V30 1408 C 135.563 -1.79773 3.12593 0
M  V30 1409 O 134.667 -2.89713 2.93496 0
M  V30 1410 H 134.008 -0.261574 0.610307 0
M  V30 1411 H 136.538 -0.193896 2.03679 0
M  V30 1412 H 136.548 -2.20139 3.43515 0
M  V30 1413 H 135.223 -1.18892 3.98544 0
M  V30 1414 H 133.8 -2.53065 2.73884 0
M  V30 1415 N 135.985 -1.50799 -0.457987 0
M  V30 1416 C 136.932 -1.70617 -1.5543 0
M  V30 1417 C 137.902 -0.547562 -1.56815 0
M  V30 1418 O 139.087 -0.779647 -1.74144 0
M  V30 1419 C 136.227 -1.81831 -2.93311 0
M  V30 1420 C 135.34 -3.09278 -3.01615 0
M  V30 1421 C 134.475 -3.11209 -4.30491 0
M  V30 1422 C 133.514 -4.33055 -4.32585 0
M  V30 1423 N 132.651 -4.32652 -5.52952 0
M  V30 1424 H 137.491 -2.64207 -1.37836 0
M  V30 1425 H 135.028 -1.30959 -0.669937 0
M  V30 1426 H 136.986 -1.86314 -3.73287 0
M  V30 1427 H 135.616 -0.916685 -3.0951 0
M  V30 1428 H 134.668 -3.14203 -2.1443 0
M  V30 1429 H 135.98 -3.99233 -2.99022 0
M  V30 1430 H 135.134 -3.14494 -5.18824 0
M  V30 1431 H 133.873 -2.19106 -4.35711 0
M  V30 1432 H 132.878 -4.29969 -3.42647 0
M  V30 1433 H 134.103 -5.264 -4.29046 0
M  V30 1434 H 132.049 -3.43409 -5.58933 0
M  V30 1435 H 131.966 -5.16392 -5.52155 0
M  V30 1436 H 133.234 -4.40101 -6.43375 0
M  V30 1437 N 137.463 0.71206 -1.40597 0
M  V30 1438 C 138.71 1.47197 -1.39065 0
M  V30 1439 C 139.038 1.94499 0.00583891 0
M  V30 1440 O 138.293 1.68752 0.99102 0
M  V30 1441 C 138.592 2.71039 -2.32965 0
M  V30 1442 C 138.258 2.42484 -3.80148 0
M  V30 1443 C 136.92 2.34406 -4.20247 0
M  V30 1444 C 139.272 2.18598 -4.73143 0
M  V30 1445 C 136.6 2.00516 -5.51371 0
M  V30 1446 C 138.952 1.8622 -6.0457 0
M  V30 1447 C 137.616 1.76626 -6.43708 0
M  V30 1448 H 136.886 0.538634 -0.508876 0
M  V30 1449 H 139.533 0.815325 -1.73276 0
M  V30 1450 H 137.838 3.41558 -1.91951 0
M  V30 1451 H 139.535 3.29138 -2.29061 0
M  V30 1452 H 136.125 2.49659 -3.4838 0
M  V30 1453 H 140.309 2.23793 -4.42979 0
M  V30 1454 H 135.565 1.91628 -5.80593 0
M  V30 1455 H 139.739 1.66752 -6.76141 0
M  V30 1456 H 137.366 1.50133 -7.45228 0
M  V30 1457 N 138.941 1.26152 0.944643 0
M  V30 1458 C 140.357 1.03189 1.21754 0
M  V30 1459 C 140.557 -0.245112 2.00004 0
M  V30 1460 O 139.613 -0.955176 2.33736 0
M  V30 1461 C 140.926 2.26119 1.98219 0
M  V30 1462 C 142.474 2.30984 2.11224 0
M  V30 1463 C 142.949 3.53597 2.91089 0
M  V30 1464 N 144.44 3.54053 2.98664 0
M  V30 1465 C 145.175 4.45593 3.60881 0
M  V30 1466 N 144.671 5.47416 4.24626 0
M  V30 1467 N 146.464 4.33252 3.58119 0
M  V30 1468 H 138.615 2.08177 0.421437 0
M  V30 1469 H 140.878 0.914723 0.248969 0
M  V30 1470 H 140.584 3.18984 1.48128 0
M  V30 1471 H 140.458 2.3009 2.98895 0
M  V30 1472 H 142.845 1.38635 2.60508 0
M  V30 1473 H 142.926 2.31026 1.09821 0
M  V30 1474 H 142.57 4.46273 2.42493 0
M  V30 1475 H 142.5 3.50802 3.92741 0
M  V30 1476 H 144.991 2.80403 2.53343 0
M  V30 1477 H 145.304 6.13459 4.69987 0
M  V30 1478 H 143.649 5.51278 4.23223 0
M  V30 1479 H 146.84 3.52924 3.0751 0
M  V30 1480 H 147.013 5.04786 4.06319 0
M  V30 1481 N 140.419 -1.14872 1.07899 0
M  V30 1482 C 141.352 -2.18794 0.64841 0
M  V30 1483 C 142.33 -1.59065 -0.337189 0
M  V30 1484 O 143.514 -1.86936 -0.242284 0
M  V30 1485 C 140.641 -3.38667 -0.0470417 0
M  V30 1486 C 139.687 -4.16942 0.897884 0
M  V30 1487 S 140.52 -4.78615 2.40183 0
M  V30 1488 C 141.676 -6.0185 1.71834 0
M  V30 1489 H 141.909 -2.5498 1.52881 0
M  V30 1490 H 139.442 -1.25922 0.893484 0
M  V30 1491 H 141.4 -4.08113 -0.442027 0
M  V30 1492 H 140.061 -3.00814 -0.903861 0
M  V30 1493 H 139.254 -5.02726 0.358096 0
M  V30 1494 H 138.856 -3.53073 1.23352 0
M  V30 1495 H 141.148 -6.69574 1.03328 0
M  V30 1496 H 142.091 -6.60408 2.55473 0
M  V30 1497 H 142.499 -5.5173 1.19392 0
M  V30 1498 N 141.898 -0.863906 -1.31812 0
M  V30 1499 C 143.309 -0.52522 -1.7916 0
M  V30 1500 C 143.66 0.957518 -1.71248 0
M  V30 1501 O 142.785 1.74734 -1.27659 0
M  V30 1502 C 143.38 -0.9466 -3.25307 0
M  V30 1503 C 141.939 -0.659668 -3.70574 0
M  V30 1504 C 141.086 -1.14126 -2.52726 0
M  V30 1505 H 144.037 -1.05022 -1.1898 0
M  V30 1506 H 144.058 -0.266766 -3.79564 0
M  V30 1507 H 143.57 -2.02579 -3.31034 0
M  V30 1508 H 141.671 0.408416 -3.70355 0
M  V30 1509 H 141.784 -1.23245 -4.62977 0
M  V30 1510 H 140.148 -0.561216 -2.4844 0
M  V30 1511 H 140.931 -2.22775 -2.61201 0
M  V30 1512 N 143.376 1.44774 -0.622745 0
M  V30 1513 C 144.308 2.28856 0.125485 0
M  V30 1514 C 145.321 1.40811 0.817069 0
M  V30 1515 O 146.51 1.65044 0.679918 0
M  V30 1516 C 143.61 3.16963 1.19949 0
M  V30 1517 C 142.783 4.33374 0.592064 0
M  V30 1518 C 141.842 5.02577 1.55893 0
M  V30 1519 O 140.868 5.58873 1.07933 0
M  V30 1520 N 142.07 5.03256 2.89334 0
M  V30 1521 H 144.835 2.93713 -0.596068 0
M  V30 1522 H 142.396 1.55129 -0.463303 0
M  V30 1523 H 144.388 3.60123 1.84644 0
M  V30 1524 H 142.958 2.53913 1.82337 0
M  V30 1525 H 142.178 3.93509 -0.233322 0
M  V30 1526 H 143.466 5.08527 0.166738 0
M  V30 1527 H 142.864 4.58836 3.30887 0
M  V30 1528 H 141.421 5.50232 3.49412 0
M  V30 1529 N 144.854 0.36279 1.53368 0
M  V30 1530 C 146.265 -0.117022 1.86333 0
M  V30 1531 C 146.616 -1.48397 1.28347 0
M  V30 1532 O 145.741 -2.07787 0.604428 0
M  V30 1533 C 146.336 -0.21912 3.38091 0
M  V30 1534 C 144.895 -0.643184 3.70864 0
M  V30 1535 C 144.042 0.211318 2.76494 0
M  V30 1536 H 146.993 0.581687 1.47655 0
M  V30 1537 H 147.014 -1.04319 3.6592 0
M  V30 1538 H 146.526 0.775902 3.80265 0
M  V30 1539 H 144.627 -1.64654 3.34245 0
M  V30 1540 H 144.74 -0.41973 4.77258 0
M  V30 1541 H 143.104 -0.319367 2.5269 0
M  V30 1542 H 143.887 1.20383 3.21501 0
M  V30 1543 N 146.332 -1.57332 0.0918853 0
M  V30 1544 C 147.557 -1.98995 -0.584442 0
M  V30 1545 C 147.982 -0.970528 -1.61128 0
M  V30 1546 O 147.34 0.0613904 -1.81196 0
M  V30 1547 C 147.388 -3.39636 -1.21161 0
M  V30 1548 O 146.492 -3.40447 -2.32744 0
M  V30 1549 H 145.833 -0.647165 -0.148572 0
M  V30 1550 H 148.363 -2.03873 0.172347 0
M  V30 1551 H 148.373 -3.7726 -1.55367 0
M  V30 1552 H 147.048 -4.13356 -0.459313 0
M  V30 1553 H 145.625 -3.14614 -2.0018 0
M  V30 1554 N 147.81 0.181792 -1.56548 0
M  V30 1555 C 149.035 0.920019 -1.85877 0
M  V30 1556 C 149.46 1.75494 -0.677021 0
M  V30 1557 O 148.818 1.77399 0.374056 0
M  V30 1558 C 148.866 1.78112 -3.13542 0
M  V30 1559 O 147.97 2.88152 -2.95029 0
M  V30 1560 H 147.311 0.258334 -0.611686 0
M  V30 1561 H 149.841 0.183092 -2.03779 0
M  V30 1562 H 149.851 2.18314 -3.44678 0
M  V30 1563 H 148.526 1.16777 -3.99169 0
M  V30 1564 H 147.103 2.51609 -2.75222 0
M  V30 1565 N 149.288 1.51039 0.449983 0
M  V30 1566 C 150.536 1.62759 1.19808 0
M  V30 1567 C 150.857 0.339981 1.92013 0
M  V30 1568 O 150.127 -0.643606 1.85026 0
M  V30 1569 H 148.707 0.599811 0.445237 0
M  V30 1570 H 151.369 1.87914 0.517138 0
M  V30 1571 H 150.465 2.44911 1.93455 0
M  V30 1572 N 150.766 -0.704594 1.40972 0
M  V30 1573 C 152.182 -1.01406 1.23244 0
M  V30 1574 C 152.382 -2.01169 0.115399 0
M  V30 1575 O 151.438 -2.47021 -0.523147 0
M  V30 1576 C 152.751 -1.54728 2.57836 0
M  V30 1577 C 154.299 -1.66658 2.64942 0
M  V30 1578 C 154.774 -2.23383 3.9983 0
M  V30 1579 N 156.265 -2.30756 4.01629 0
M  V30 1580 C 157 -2.75655 5.02794 0
M  V30 1581 N 156.496 -3.20225 6.14352 0
M  V30 1582 N 158.289 -2.75138 4.90159 0
M  V30 1583 H 150.44 -0.0435285 2.12355 0
M  V30 1584 H 152.703 -0.0818951 0.944456 0
M  V30 1585 H 152.409 -0.888832 3.40283 0
M  V30 1586 H 152.283 -2.53084 2.79693 0
M  V30 1587 H 154.67 -2.31617 1.8286 0
M  V30 1588 H 154.751 -0.668717 2.46904 0
M  V30 1589 H 154.395 -1.59043 4.82357 0
M  V30 1590 H 154.325 -3.23904 4.15203 0
M  V30 1591 H 156.816 -1.99291 3.21079 0
M  V30 1592 H 157.129 -3.53084 6.87424 0
M  V30 1593 H 155.474 -3.18156 6.17901 0
M  V30 1594 H 158.665 -2.39661 4.02095 0
M  V30 1595 H 158.838 -3.09812 5.6914 0
M  V30 1596 N 152.244 -1.26651 -0.937939 0
M  V30 1597 C 153.154 -1.10276 -2.07066 0
M  V30 1598 C 154.17 -0.0354197 -1.73964 0
M  V30 1599 O 155.346 -0.239816 -1.99967 0
M  V30 1600 C 152.411 -0.740887 -3.38691 0
M  V30 1601 C 151.472 -1.88799 -3.85556 0
M  V30 1602 C 150.705 -1.54329 -5.10899 0
M  V30 1603 O 150.928 -0.446494 -5.6865 0
M  V30 1604 O 149.862 -2.37911 -5.52885 0
M  V30 1605 H 153.688 -2.05309 -2.23789 0
M  V30 1606 H 151.273 -1.05743 -1.0554 0
M  V30 1607 H 153.155 -0.55195 -4.1777 0
M  V30 1608 H 151.83 0.180022 -3.23199 0
M  V30 1609 H 150.737 -2.13191 -3.07409 0
M  V30 1610 H 152.07 -2.78874 -4.05574 0
M  V30 1611 N 153.722 1.14298 -1.08507 0
M  V30 1612 C 154.947 1.8976 -0.837001 0
M  V30 1613 C 155.372 1.78097 0.605228 0
M  V30 1614 O 154.73 1.12188 1.4242 0
M  V30 1615 C 154.778 3.37685 -1.26495 0
M  V30 1616 O 153.882 4.10281 -0.417514 0
M  V30 1617 H 153.223 0.590365 -0.303917 0
M  V30 1618 H 155.753 1.44672 -1.44676 0
M  V30 1619 H 155.763 3.88501 -1.24625 0
M  V30 1620 H 154.438 3.45492 -2.31534 0
M  V30 1621 H 153.015 3.69536 -0.499722 0
M  V30 1622 N 155.201 0.870884 1.31352 0
M  V30 1623 C 156.612 0.534714 1.78879 0
M  V30 1624 C 156.963 -0.948423 1.71754 0
M  V30 1625 O 156.088 -1.74055 1.28584 0
M  V30 1626 C 156.683 0.963839 3.24801 0
M  V30 1627 C 155.242 0.679311 3.70219 0
M  V30 1628 C 154.389 1.15465 2.52117 0
M  V30 1629 H 157.34 1.05651 1.18421 0
M  V30 1630 H 157.361 0.286892 3.79417 0
M  V30 1631 H 156.873 2.04332 3.29955 0
M  V30 1632 H 154.974 -0.388769 3.70566 0
M  V30 1633 H 155.087 1.25698 4.62317 0
M  V30 1634 H 153.451 0.574383 2.48139 0
M  V30 1635 H 154.234 2.24157 2.60016 0
M  V30 1636 N 156.679 -1.44442 0.630414 0
M  V30 1637 C 158.095 -1.56832 0.295973 0
M  V30 1638 C 158.295 -1.61806 -1.20088 0
M  V30 1639 O 157.351 -1.5607 -1.9849 0
M  V30 1640 C 158.664 -2.84031 0.987264 0
M  V30 1641 C 160.212 -2.97742 0.96534 0
M  V30 1642 C 160.687 -4.27743 1.63708 0
M  V30 1643 N 162.178 -4.34555 1.60364 0
M  V30 1644 C 162.913 -5.33862 2.09234 0
M  V30 1645 N 162.409 -6.39578 2.66292 0
M  V30 1646 N 164.202 -5.25366 1.99867 0
M  V30 1647 H 156.353 -1.39457 1.60205 0
M  V30 1648 H 158.616 -0.668237 0.672431 0
M  V30 1649 H 158.322 -2.86338 2.04215 0
M  V30 1650 H 158.196 -3.73534 0.524588 0
M  V30 1651 H 160.583 -2.94989 -0.0810639 0
M  V30 1652 H 160.664 -2.09589 1.4665 0
M  V30 1653 H 160.308 -4.31255 2.68293 0
M  V30 1654 H 160.238 -5.14752 1.11076 0
M  V30 1655 H 162.729 -3.58772 1.18705 0
M  V30 1656 H 163.042 -7.11637 3.01317 0
M  V30 1657 H 161.387 -6.40265 2.70343 0
M  V30 1658 H 164.578 -4.41688 1.55013 0
M  V30 1659 H 164.751 -6.02606 2.38265 0
M  V30 1660 N 158.157 -0.370918 -1.53173 0
M  V30 1661 C 159.107 0.489588 -2.22681 0
M  V30 1662 C 160.091 1.04442 -1.22395 0
M  V30 1663 O 161.283 0.973578 -1.47819 0
M  V30 1664 C 158.412 1.626 -3.02351 0
M  V30 1665 C 157.498 1.08379 -4.10018 0
M  V30 1666 N 157.889 0.265004 -5.05105 0
M  V30 1667 C 156.187 1.35809 -4.2482 0
M  V30 1668 C 156.888 -0.0324755 -5.81691 0
M  V30 1669 N 155.864 0.566581 -5.40639 0
M  V30 1670 H 159.666 -0.142729 -2.93553 0
M  V30 1671 H 157.18 -0.179221 -1.61408 0
M  V30 1672 H 159.177 2.2547 -3.50669 0
M  V30 1673 H 157.837 2.26132 -2.33011 0
M  V30 1674 H 158.848 -0.0962352 -5.17811 0
M  V30 1675 H 155.525 1.9958 -3.66707 0
M  V30 1676 H 156.915 -0.69473 -6.68299 0
M  V30 1677 O 159.674 1.59701 -0.240351 0
M  V30 1678 H 160.365 1.90754 0.336524 0
M  V30 END ATOM
M  V30 BEGIN BOND
M  V30 END BOND
M  V30 END CTAB
M  END
$$$$
