drugbank_target|P9WIL5 Pantothenate synthetase (DB01930; DB02596; DB02694; DB03107)
 OpenBabel12092119533D

  0  0  0     0  0            999 V3000
M  V30 BEGIN CTAB
M  V30 COUNTS 4637 4681 0 0 0
M  V30 BEGIN ATOM
M  V30 1 H -0.908 1.98254 -0.117106 0
M  V30 2 N 0 1.576 0 0
M  V30 3 C 0.933 2.03868 1.02534 0
M  V30 4 C 1.911 0.928543 1.3348 0
M  V30 5 O 3.095 1.19667 1.45644 0
M  V30 6 C 0.222 2.43627 2.35294 0
M  V30 7 C -0.732 3.65373 2.2001 0
M  V30 8 S 0.101 5.13292 1.52614 0
M  V30 9 C 1.257 5.56322 2.86805 0
M  V30 10 H 1.49 2.90518 0.631377 0
M  V30 11 H -0.977 1.52953 0.210867 0
M  V30 12 H 0.981 2.67203 3.11629 0
M  V30 13 H -0.358 1.57376 2.7183 0
M  V30 14 H -1.165 3.90944 3.18086 0
M  V30 15 H -1.563 3.418 1.51819 0
M  V30 16 H 0.729 5.58782 3.83104 0
M  V30 17 H 1.672 6.56266 2.65933 0
M  V30 18 H 2.08 4.83886 2.90714 0
M  V30 19 N 1.4781 -0.272755 1.55222 0
M  V30 20 C 2.7061 -1.02255 1.79865 0
M  V30 21 C 3.1211 -1.79924 0.572088 0
M  V30 22 O 2.4781 -1.76638 -0.458842 0
M  V30 23 C 2.5291 -1.98094 3.02392 0
M  V30 24 O 2.2501 -1.23572 4.20311 0
M  V30 25 C 3.7511 -2.84884 3.39641 0
M  V30 26 H 0.9711 -0.302057 0.599168 0
M  V30 27 H 3.5151 -0.303465 2.02236 0
M  V30 28 H 1.6701 -2.65465 2.82147 0
M  V30 29 H 2.0841 -1.88172 4.89583 0
M  V30 30 H 3.5581 -3.47927 4.28545 0
M  V30 31 H 4.0351 -3.54665 2.59055 0
M  V30 32 H 4.6411 -2.23003 3.62146 0
M  V30 33 N 2.9562 -1.48159 -0.537278 0
M  V30 34 C 4.2052 -1.5506 -1.28993 0
M  V30 35 C 4.5182 -0.226211 -1.94288 0
M  V30 36 O 5.7242 -0.173395 -2.70946 0
M  V30 37 C 4.1802 -2.73429 -2.34018 0
M  V30 38 C 3.7882 -4.1248 -1.74825 0
M  V30 39 C 5.5322 -2.89638 -3.10339 0
M  V30 40 C 3.4392 -5.22121 -2.77747 0
M  V30 41 H 2.3692 -0.577231 -0.485098 0
M  V30 42 H 5.0202 -1.74478 -0.568317 0
M  V30 43 H 3.4022 -2.47431 -3.09182 0
M  V30 44 H 4.5762 -4.48466 -1.05899 0
M  V30 45 H 2.8912 -4.01327 -1.11022 0
M  V30 46 H 5.4882 -3.68718 -3.87235 0
M  V30 47 H 5.8312 -1.9882 -3.65754 0
M  V30 48 H 6.3642 -3.15502 -2.42288 0
M  V30 49 H 3.1032 -6.1488 -2.27161 0
M  V30 50 H 2.6232 -4.90631 -3.45024 0
M  V30 51 H 4.3022 -5.49924 -3.4087 0
M  V30 52 N 4.4343 0.785586 -1.36625 0
M  V30 53 C 5.8453 1.36101 -1.27803 0
M  V30 54 C 6.1963 1.96035 0.0804875 0
M  V30 55 O 5.3213 1.92834 0.982042 0
M  V30 56 C 5.9163 2.47442 -2.31426 0
M  V30 57 C 4.4753 3.00789 -2.26281 0
M  V30 58 C 3.6223 1.73896 -2.15999 0
M  V30 59 H 6.5733 0.586928 -1.47448 0
M  V30 60 H 6.5943 3.2656 -1.95291 0
M  V30 61 H 6.1063 2.03791 -3.30289 0
M  V30 62 H 4.2073 3.48851 -1.30896 0
M  V30 63 H 4.3203 3.57343 -3.19128 0
M  V30 64 H 2.6843 1.9628 -1.62316 0
M  V30 65 H 3.4673 1.32368 -3.16755 0
M  V30 66 N 5.9124 1.20967 1.01018 0
M  V30 67 C 6.8754 0.965918 2.07853 0
M  V30 68 C 7.8754 -0.0610545 1.60684 0
M  V30 69 O 9.0654 0.175681 1.73312 0
M  V30 70 C 6.1974 0.455513 3.37843 0
M  V30 71 H 7.3904 1.91365 2.3091 0
M  V30 72 H 4.9434 1.02594 1.17916 0
M  V30 73 H 5.6784 -0.497381 3.20463 0
M  V30 74 H 5.4634 1.19622 3.73407 0
M  V30 75 H 6.9534 0.304667 4.16487 0
M  V30 76 N 7.3905 -1.2043 1.01659 0
M  V30 77 C 8.6375 -1.89797 0.705917 0
M  V30 78 C 8.9655 -1.78848 -0.764439 0
M  V30 79 O 8.2205 -1.16694 -1.57102 0
M  V30 80 C 8.5195 -3.40464 1.08714 0
M  V30 81 C 8.1855 -3.71614 2.5537 0
M  V30 82 C 6.8475 -3.79826 2.95441 0
M  V30 83 C 9.1995 -3.85915 3.50313 0
M  V30 84 C 6.5275 -3.99797 4.29394 0
M  V30 85 C 8.8795 -4.07396 4.83954 0
M  V30 86 C 7.5435 -4.13837 5.23732 0
M  V30 87 H 6.8135 -0.694518 0.258313 0
M  V30 88 H 9.4605 -1.42691 1.27717 0
M  V30 89 H 7.7655 -3.89385 0.434309 0
M  V30 90 H 9.4625 -3.92433 0.824461 0
M  V30 91 H 6.0525 -3.65822 2.23321 0
M  V30 92 H 10.2365 -3.78926 3.20513 0
M  V30 93 H 5.4925 -4.03018 4.59768 0
M  V30 94 H 9.6665 -4.17404 5.57447 0
M  V30 95 H 7.2935 -4.29064 6.27541 0
M  V30 96 N 8.8686 -0.792821 -1.36206 0
M  V30 97 C 9.8186 -0.166598 -2.27391 0
M  V30 98 C 10.8026 0.651479 -1.47121 0
M  V30 99 O 11.9946 0.510994 -1.69463 0
M  V30 100 C 9.1236 0.695033 -3.36191 0
M  V30 101 C 8.2096 -0.132019 -4.23894 0
M  V30 102 N 8.6006 -1.18822 -4.91645 0
M  V30 103 C 6.8986 0.0885952 -4.45912 0
M  V30 104 C 7.5996 -1.69198 -5.56549 0
M  V30 105 N 6.5756 -1.00065 -5.34311 0
M  V30 106 H 10.3776 -0.974947 -2.77258 0
M  V30 107 H 7.8916 -0.632616 -1.49572 0
M  V30 108 H 9.8886 1.1596 -4.00448 0
M  V30 109 H 8.5486 1.50189 -2.87877 0
M  V30 110 H 9.5596 -1.57069 -4.93507 0
M  V30 111 H 6.2366 0.865688 -4.08426 0
M  V30 112 H 7.6266 -2.57395 -6.20643 0
M  V30 113 N 10.3467 1.47872 -0.545128 0
M  V30 114 C 11.7577 1.86384 -0.108581 0
M  V30 115 C 12.1087 1.45309 1.31832 0
M  V30 116 O 11.2337 0.850641 1.9898 0
M  V30 117 C 11.8287 3.38265 -0.190274 0
M  V30 118 C 10.3877 3.75914 0.191164 0
M  V30 119 C 9.5347 2.71926 -0.543273 0
M  V30 120 H 12.4857 1.39561 -0.755537 0
M  V30 121 H 12.5067 3.75831 0.594217 0
M  V30 122 H 12.0187 3.6813 -1.2289 0
M  V30 123 H 10.1197 3.51665 1.23136 0
M  V30 124 H 10.2327 4.78836 -0.158987 0
M  V30 125 H 8.5967 2.54697 0.0122495 0
M  V30 126 H 9.3797 3.04634 -1.58282 0
M  V30 127 N 11.8248 0.280983 1.55075 0
M  V30 128 C 13.0728 -0.333455 1.9933 0
M  V30 129 C 13.3938 -1.55937 1.17085 0
M  V30 130 O 12.6638 -1.94143 0.261805 0
M  V30 131 H 11.2438 -0.126197 0.736263 0
M  V30 132 H 13.9058 0.387678 1.91005 0
M  V30 133 H 13.0018 -0.619292 3.05894 0
M  V30 134 N 13.3029 -1.57598 0.00835791 0
M  V30 135 C 14.2129 -2.12385 -0.996487 0
M  V30 136 C 15.2289 -1.07108 -1.37127 0
M  V30 137 O 16.4049 -1.39055 -1.4569 0
M  V30 138 C 13.4699 -2.62314 -2.26699 0
M  V30 139 C 12.5309 -3.82225 -1.95456 0
M  V30 140 C 11.7639 -4.29763 -3.16449 0
M  V30 141 O 11.9869 -3.76584 -4.28416 0
M  V30 142 O 10.9209 -5.21832 -2.99958 0
M  V30 143 H 14.7469 -2.98479 -0.560725 0
M  V30 144 H 12.3319 -1.47903 -0.210987 0
M  V30 145 H 14.2139 -2.94589 -3.01322 0
M  V30 146 H 12.8889 -1.79313 -2.69497 0
M  V30 147 H 11.7959 -3.54909 -1.18282 0
M  V30 148 H 13.1289 -4.66324 -1.57489 0
M  V30 149 N 14.781 0.264519 -1.55364 0
M  V30 150 C 15.711 1.33121 -1.91836 0
M  V30 151 C 16.692 1.51101 -0.781192 0
M  V30 152 O 17.877 1.64003 -1.04003 0
M  V30 153 C 15.007 2.68921 -2.19769 0
M  V30 154 C 13.961 2.65661 -3.35571 0
M  V30 155 C 13.287 4.05093 -3.49004 0
M  V30 156 C 14.587 2.24187 -4.71739 0
M  V30 157 H 16.281 1.02844 -2.81182 0
M  V30 158 H 13.827 0.493286 -1.35287 0
M  V30 159 H 15.78 3.43663 -2.43872 0
M  V30 160 H 14.504 3.00799 -1.27231 0
M  V30 161 H 13.163 1.93377 -3.1145 0
M  V30 162 H 12.811 4.34206 -2.53917 0
M  V30 163 H 12.511 4.03804 -4.26868 0
M  V30 164 H 14.035 4.81561 -3.75408 0
M  V30 165 H 15.449 2.88654 -4.9533 0
M  V30 166 H 13.846 2.34044 -5.52579 0
M  V30 167 H 14.916 1.19327 -4.69988 0
M  V30 168 N 16.2591 1.48442 0.529413 0
M  V30 169 C 17.2071 1.63452 1.65487 0
M  V30 170 C 18.2011 0.500955 1.61823 0
M  V30 171 O 19.4071 0.679695 1.66674 0
M  V30 172 H 15.7821 0.514905 0.548066 0
M  V30 173 H 17.7531 2.57975 1.49971 0
M  V30 174 C 16.5021 1.69196 3.03756 0
M  V30 175 H 15.8251 2.55784 3.07269 0
M  V30 176 H 17.2651 1.83743 3.82119 0
M  V30 177 C 15.7241 0.430765 3.34135 0
M  V30 178 O 16.2541 -0.4561 3.99102 0
M  V30 179 N 14.4601 0.302293 2.89023 0
M  V30 180 H 14.0071 1.02496 2.36331 0
M  V30 181 H 13.9651 -0.540546 3.09718 0
M  V30 182 N 17.7372 -0.778329 1.37039 0
M  V30 183 C 18.9832 -1.53892 1.32079 0
M  V30 184 C 19.3162 -1.9396 -0.0965386 0
M  V30 185 O 18.5912 -1.63568 -1.05242 0
M  V30 186 C 18.8742 -2.80847 2.25382 0
M  V30 187 C 18.7272 -2.47076 3.75864 0
M  V30 188 C 20.0462 -3.82741 2.1725 0
M  V30 189 H 17.1652 -0.558303 0.48111 0
M  V30 190 H 19.8072 -0.893397 1.67685 0
M  V30 191 H 17.9572 -3.35931 1.95148 0
M  V30 192 H 19.6292 -1.97957 4.16666 0
M  V30 193 H 17.8722 -1.79863 3.94755 0
M  V30 194 H 18.5432 -3.37798 4.36574 0
M  V30 195 H 21.0192 -3.37133 2.43887 0
M  V30 196 H 19.8952 -4.69303 2.84686 0
M  V30 197 H 20.1562 -4.2652 1.16331 0
M  V30 198 N 19.2153 -1.21501 -1.00376 0
M  V30 199 C 20.4453 -1.05746 -1.77486 0
M  V30 200 C 20.8533 0.395655 -1.85017 0
M  V30 201 O 20.1963 1.28626 -1.31152 0
M  V30 202 C 20.2583 -1.58092 -3.22873 0
M  V30 203 C 19.9223 -3.06568 -3.38917 0
M  V30 204 C 20.9193 -4.04106 -3.271 0
M  V30 205 C 18.6043 -3.45799 -3.64319 0
M  V30 206 C 20.5983 -5.38862 -3.40451 0
M  V30 207 C 18.2853 -4.80707 -3.77311 0
M  V30 208 C 19.2833 -5.77047 -3.65384 0
M  V30 209 O 18.9713 -7.09507 -3.77961 0
M  V30 210 H 18.7033 -0.371778 -0.564586 0
M  V30 211 H 21.2573 -1.61319 -1.27143 0
M  V30 212 H 19.4873 -0.969163 -3.74358 0
M  V30 213 H 21.1763 -1.38162 -3.81662 0
M  V30 214 H 21.9423 -3.75141 -3.07399 0
M  V30 215 H 17.8213 -2.71344 -3.72684 0
M  V30 216 H 21.3653 -6.14041 -3.31058 0
M  V30 217 H 17.2623 -5.09357 -3.96517 0
M  V30 218 H 18.0303 -7.16935 -3.94901 0
M  V30 219 N 20.6934 1.19889 -1.02296 0
M  V30 220 C 21.9184 1.9393 -0.735237 0
M  V30 221 C 22.3434 1.74639 0.698782 0
M  V30 222 O 21.7014 1.04481 1.48167 0
M  V30 223 C 21.7494 3.43916 -1.08417 0
M  V30 224 O 20.8534 4.11917 -0.199446 0
M  V30 225 H 20.1944 0.605645 -0.272196 0
M  V30 226 H 22.7244 1.52137 -1.36804 0
M  V30 227 H 22.7344 3.9456 -1.03856 0
M  V30 228 H 21.4094 3.5728 -2.12894 0
M  V30 229 H 19.9864 3.71666 -0.303136 0
M  V30 230 N 22.1715 0.800033 1.35784 0
M  V30 231 C 23.1345 0.211565 2.28221 0
M  V30 232 C 24.1345 -0.59728 1.49296 0
M  V30 233 O 25.3245 -0.416721 1.69142 0
M  V30 234 C 22.4565 -0.705846 3.33513 0
M  V30 235 H 23.6495 1.02677 2.81776 0
M  V30 236 H 21.2025 0.570211 1.45528 0
M  V30 237 H 21.9375 -1.54498 2.85133 0
M  V30 238 H 21.7225 -0.127655 3.91892 0
M  V30 239 H 23.2125 -1.11211 4.02519 0
M  V30 240 N 23.6496 -1.47581 0.552962 0
M  V30 241 C 25.0606 -1.86324 0.118463 0
M  V30 242 C 25.4116 -1.46006 -1.3106 0
M  V30 243 O 24.5366 -0.861182 -1.98526 0
M  V30 244 C 25.1316 -3.3816 0.20821 0
M  V30 245 C 23.6906 -3.7601 -0.171226 0
M  V30 246 C 22.8376 -2.71634 0.557686 0
M  V30 247 H 25.7886 -1.39159 0.762928 0
M  V30 248 H 25.8096 -3.76141 -0.574278 0
M  V30 249 H 25.3216 -3.67473 1.24841 0
M  V30 250 H 23.4226 -3.52313 -1.21269 0
M  V30 251 H 23.5356 -4.78745 0.184379 0
M  V30 252 H 21.8996 -2.547 0.00125792 0
M  V30 253 H 22.6826 -3.0379 1.59896 0
M  V30 254 N 25.1277 -0.289203 -1.54924 0
M  V30 255 C 26.3757 0.322879 -1.99504 0
M  V30 256 C 26.6967 1.55313 -1.1791 0
M  V30 257 O 25.9667 1.94001 -0.272097 0
M  V30 258 H 24.5467 0.122291 -0.736922 0
M  V30 259 H 27.2087 -0.397802 -1.90797 0
M  V30 260 H 26.3047 0.603061 -3.06218 0
M  V30 261 N 26.6058 1.57591 -0.0167156 0
M  V30 262 C 27.8828 1.82547 0.702564 0
M  V30 263 C 28.2628 0.898018 1.91047 0
M  V30 264 O 27.6108 -0.0493456 2.28447 0
M  V30 265 C 27.8208 3.31459 1.09251 0
M  V30 266 C 29.1688 3.97622 1.48937 0
M  V30 267 O 30.1928 3.35881 1.18584 0
M  V30 268 O 29.0518 5.06415 2.05442 0
M  V30 269 H 26.1458 0.752268 0.343544 0
M  V30 270 H 28.6918 1.69644 -0.0434495 0
M  V30 271 H 27.4638 3.9061 0.23227 0
M  V30 272 H 27.0868 3.49422 1.89709 0
M  V30 273 N 28.0839 -0.256276 1.55502 0
M  V30 274 C 29.3299 -0.987079 1.77157 0
M  V30 275 C 29.6629 -1.85327 0.580315 0
M  V30 276 O 28.9379 -1.89874 -0.421686 0
M  V30 277 C 29.2209 -1.85553 3.08613 0
M  V30 278 C 29.0739 -1.01816 4.38125 0
M  V30 279 C 30.3929 -2.8397 3.36228 0
M  V30 280 H 27.5119 -0.357428 0.644526 0
M  V30 281 H 30.1539 -0.258239 1.88237 0
M  V30 282 H 28.3039 -2.47695 2.99298 0
M  V30 283 H 29.9759 -0.416159 4.59419 0
M  V30 284 H 28.2189 -0.322178 4.32602 0
M  V30 285 H 28.8899 -1.65939 5.26468 0
M  V30 286 H 31.3659 -2.31964 3.45445 0
M  V30 287 H 30.2419 -3.41864 4.29442 0
M  V30 288 H 30.5029 -3.59955 2.56681 0
M  V30 289 N 29.562 -1.4872 -0.521534 0
M  V30 290 C 30.525 -1.63379 -1.60748 0
M  V30 291 C 31.525 -0.50661 -1.52611 0
M  V30 292 O 32.715 -0.772601 -1.5613 0
M  V30 293 C 29.847 -1.61192 -3.00383 0
M  V30 294 H 31.04 -2.60217 -1.49087 0
M  V30 295 H 28.593 -1.37444 -0.744235 0
M  V30 296 H 29.328 -0.65863 -3.17541 0
M  V30 297 H 29.113 -2.43032 -3.07698 0
M  V30 298 H 30.603 -1.7466 -3.7932 0
M  V30 299 N 31.0401 0.771051 -1.3745 0
M  V30 300 C 32.3171 1.519 -1.23231 0
M  V30 301 C 32.6971 2.10383 0.173809 0
M  V30 302 O 32.0451 1.95583 1.18151 0
M  V30 303 C 32.2551 2.59933 -2.32886 0
M  V30 304 C 33.6031 3.27316 -2.70461 0
M  V30 305 O 34.6271 2.70228 -2.32068 0
M  V30 306 O 33.4861 4.30531 -3.36608 0
M  V30 307 H 30.5801 0.672803 -0.480901 0
M  V30 308 H 33.1261 0.807957 -1.49232 0
M  V30 309 H 31.8981 2.14842 -3.27045 0
M  V30 310 H 31.5211 3.38637 -2.08353 0
M  V30 311 N 32.5182 1.22032 0.997298 0
M  V30 312 C 33.7642 1.04376 1.73878 0
M  V30 313 C 34.0972 -0.420716 1.89588 0
M  V30 314 O 33.3722 -1.31202 1.43583 0
M  V30 315 C 33.6552 1.75047 3.14691 0
M  V30 316 C 33.5082 3.29062 3.06656 0
M  V30 317 C 34.8272 1.49928 4.13775 0
M  V30 318 H 31.9462 0.380578 0.631133 0
M  V30 319 H 34.5882 1.50312 1.16217 0
M  V30 320 H 32.7382 1.35996 3.63919 0
M  V30 321 H 34.4102 3.7753 2.65083 0
M  V30 322 H 32.6532 3.58967 2.43568 0
M  V30 323 H 33.3242 3.73683 4.06282 0
M  V30 324 H 35.8002 1.83842 3.73285 0
M  V30 325 H 34.6762 2.01878 5.10428 0
M  V30 326 H 34.9372 0.430929 4.39995 0
M  V30 327 N 33.9963 -1.19345 1.0293 0
M  V30 328 C 35.2213 -1.93538 0.745511 0
M  V30 329 C 35.6463 -1.75007 -0.689511 0
M  V30 330 O 35.0043 -1.05265 -1.47611 0
M  V30 331 C 35.0523 -3.43336 1.10239 0
M  V30 332 O 34.1563 -4.11806 0.221289 0
M  V30 333 H 33.4973 -0.604193 0.275404 0
M  V30 334 H 36.0273 -1.5141 1.37609 0
M  V30 335 H 36.0373 -3.94004 1.05947 0
M  V30 336 H 34.7123 -3.56146 2.14786 0
M  V30 337 H 33.2893 -3.715 0.322842 0
M  V30 338 N 35.4744 -0.807222 -1.35358 0
M  V30 339 C 36.8904 -0.491038 -1.51858 0
M  V30 340 C 37.0904 0.987648 -1.75635 0
M  V30 341 O 36.1464 1.77265 -1.79815 0
M  V30 342 C 37.4594 -1.33695 -2.69344 0
M  V30 343 C 39.0074 -1.33246 -2.83222 0
M  V30 344 C 39.4824 -2.1625 -4.03733 0
M  V30 345 N 40.9734 -2.1379 -4.10911 0
M  V30 346 C 41.7084 -2.74772 -5.03277 0
M  V30 347 N 41.2044 -3.44684 -6.0097 0
M  V30 348 N 42.9974 -2.6441 -4.96028 0
M  V30 349 H 35.1484 -1.76485 -1.18181 0
M  V30 350 H 37.4114 -0.751199 -0.578276 0
M  V30 351 H 37.1174 -2.38634 -2.58354 0
M  V30 352 H 36.9914 -0.990618 -3.6396 0
M  V30 353 H 39.3784 -0.290911 -2.93663 0
M  V30 354 H 39.4594 -1.71866 -1.89461 0
M  V30 355 H 39.1034 -3.20445 -3.94052 0
M  V30 356 H 39.0334 -1.74989 -4.96675 0
M  V30 357 H 41.5244 -1.62923 -3.40976 0
M  V30 358 H 41.8374 -3.88501 -6.68047 0
M  V30 359 H 40.1824 -3.48788 -6.01142 0
M  V30 360 H 43.3734 -2.0938 -4.18662 0
M  V30 361 H 43.5464 -3.12225 -5.6782 0
M  V30 362 N 36.9525 1.47285 -0.560781 0
M  V30 363 C 37.9155 2.28535 0.174488 0
M  V30 364 C 38.9155 1.37153 0.839388 0
M  V30 365 O 40.1055 1.59748 0.694702 0
M  V30 366 C 37.2375 3.16934 1.25561 0
M  V30 367 H 38.4305 2.95012 -0.539262 0
M  V30 368 H 35.9835 1.53034 -0.317865 0
M  V30 369 H 36.7185 2.55157 2.00164 0
M  V30 370 H 36.5035 3.8419 0.783604 0
M  V30 371 H 37.9935 3.78143 1.77193 0
M  V30 372 N 38.4306 0.297415 1.54768 0
M  V30 373 C 39.3606 -0.573494 2.26348 0
M  V30 374 C 40.3416 -1.14085 1.26169 0
M  V30 375 O 41.5266 -1.17086 1.54934 0
M  V30 376 C 38.6566 -1.74716 3.00153 0
M  V30 377 C 37.6106 -1.31032 4.07449 0
M  V30 378 C 36.9366 -2.56887 4.68949 0
M  V30 379 C 38.2366 -0.444183 5.20408 0
M  V30 380 H 39.9306 0.0235131 2.99391 0
M  V30 381 H 37.4766 0.0127488 1.43994 0
M  V30 382 H 39.4296 -2.3625 3.48947 0
M  V30 383 H 38.1536 -2.37035 2.24682 0
M  V30 384 H 36.8126 -0.718066 3.59499 0
M  V30 385 H 36.4606 -3.17512 3.90122 0
M  V30 386 H 36.1606 -2.2836 5.41411 0
M  V30 387 H 37.6846 -3.19229 5.20505 0
M  V30 388 H 39.0986 -0.9651 5.65118 0
M  V30 389 H 37.4956 -0.252846 5.99567 0
M  V30 390 H 38.5656 0.531609 4.81977 0
M  V30 391 N 39.9087 -1.5758 0.0250728 0
M  V30 392 C 41.3247 -1.56124 -0.331282 0
M  V30 393 C 41.5247 -1.03029 -1.73169 0
M  V30 394 O 40.5807 -0.675215 -2.43305 0
M  V30 395 C 41.8937 -3.00139 -0.183584 0
M  V30 396 C 43.4417 -3.11946 -0.256654 0
M  V30 397 C 43.9167 -4.57793 -0.137792 0
M  V30 398 N 45.4077 -4.6279 -0.194904 0
M  V30 399 C 46.1427 -5.7326 -0.126655 0
M  V30 400 N 45.6387 -6.928 -0.00755288 0
M  V30 401 N 47.4317 -5.61811 -0.180348 0
M  V30 402 H 39.5827 -1.90424 0.94087 0
M  V30 403 H 41.8457 -0.875761 0.362968 0
M  V30 404 H 41.5517 -3.4292 0.780927 0
M  V30 405 H 41.4257 -3.64899 -0.955448 0
M  V30 406 H 43.8127 -2.69079 -1.21162 0
M  V30 407 H 43.8937 -2.49915 0.545517 0
M  V30 408 H 43.5377 -5.01339 0.813739 0
M  V30 409 H 43.4677 -5.17798 -0.958775 0
M  V30 410 H 45.9587 -3.76807 -0.287267 0
M  V30 411 H 46.2717 -7.72791 0.0379428 0
M  V30 412 H 44.6167 -6.94995 0.0271731 0
M  V30 413 H 47.8077 -4.6731 -0.271767 0
M  V30 414 H 47.9807 -6.47882 -0.123697 0
M  V30 415 N 41.3868 0.248026 -1.55636 0
M  V30 416 C 42.3168 1.31079 -1.93237 0
M  V30 417 C 43.2978 1.50264 -0.797174 0
M  V30 418 O 44.4828 1.62891 -1.05737 0
M  V30 419 C 41.6128 2.66575 -2.22609 0
M  V30 420 C 40.5668 2.62087 -3.3837 0
M  V30 421 C 39.8928 4.01369 -3.53281 0
M  V30 422 C 41.1928 2.19171 -4.7409 0
M  V30 423 H 42.8868 0.998556 -2.82257 0
M  V30 424 H 40.4328 0.47891 -1.35803 0
M  V30 425 H 42.3858 3.41057 -2.47503 0
M  V30 426 H 41.1098 2.99432 -1.30414 0
M  V30 427 H 39.7688 1.90063 -3.13483 0
M  V30 428 H 39.4168 4.31489 -2.58508 0
M  V30 429 H 39.1168 3.99254 -4.31127 0
M  V30 430 H 40.6408 4.77552 -3.80495 0
M  V30 431 H 42.0548 2.83384 -4.98363 0
M  V30 432 H 40.4518 2.2817 -5.5503 0
M  V30 433 H 41.5218 1.14336 -4.71227 0
M  V30 434 N 42.8649 1.48995 0.513639 0
M  V30 435 C 44.0929 1.61531 1.29288 0
M  V30 436 C 44.5079 0.281801 1.86685 0
M  V30 437 O 43.8649 -0.731111 1.67215 0
M  V30 438 C 43.9159 2.67449 2.43215 0
M  V30 439 O 43.6369 3.95626 1.88179 0
M  V30 440 C 45.1379 2.90575 3.34785 0
M  V30 441 H 42.3579 0.544165 0.392588 0
M  V30 442 H 44.9019 1.9494 0.617956 0
M  V30 443 H 43.0569 2.36853 3.0656 0
M  V30 444 H 43.4709 4.53868 2.62876 0
M  V30 445 H 44.9449 3.68449 4.11035 0
M  V30 446 H 45.4219 2.00011 3.91015 0
M  V30 447 H 46.0279 3.22538 2.77218 0
M  V30 448 N 44.343 -0.763751 1.37857 0
M  V30 449 C 45.591 -1.51957 1.33243 0
M  V30 450 C 45.912 -1.94835 -0.0801709 0
M  V30 451 O 45.182 -1.66894 -1.02582 0
M  V30 452 H 43.762 -0.563626 0.49024 0
M  V30 453 H 46.424 -0.908504 1.7243 0
M  V30 454 H 45.52 -2.41523 1.97669 0
M  V30 455 N 45.8211 -1.22559 -0.990812 0
M  V30 456 C 47.2371 -0.985996 -1.255 0
M  V30 457 C 47.4371 0.319173 -1.98956 0
M  V30 458 O 46.4931 1.04127 -2.3003 0
M  V30 459 C 47.8061 -2.18607 -2.06474 0
M  V30 460 C 49.3541 -2.22985 -2.19651 0
M  V30 461 C 49.8291 -3.4255 -3.04012 0
M  V30 462 N 51.3201 -3.42725 -3.11599 0
M  V30 463 C 52.0551 -4.31892 -3.7717 0
M  V30 464 N 51.5511 -5.31279 -4.44651 0
M  V30 465 N 53.3441 -4.19662 -3.73952 0
M  V30 466 H 45.4951 -2.06469 -0.49841 0
M  V30 467 H 47.7581 -0.904853 -0.282747 0
M  V30 468 H 47.4641 -3.13267 -1.59865 0
M  V30 469 H 47.3381 -2.18838 -3.07229 0
M  V30 470 H 49.7251 -1.28871 -2.65474 0
M  V30 471 H 49.8061 -2.26791 -1.18319 0
M  V30 472 H 49.4501 -4.36965 -2.58889 0
M  V30 473 H 49.3801 -3.35984 -4.0549 0
M  V30 474 H 51.8711 -2.70807 -2.63575 0
M  V30 475 H 52.1841 -5.95593 -4.92431 0
M  V30 476 H 50.5291 -5.3519 -4.43392 0
M  V30 477 H 53.7201 -3.41268 -3.20396 0
M  V30 478 H 53.8931 -4.89358 -4.24774 0
M  V30 479 N 47.2992 1.18797 -1.03562 0
M  V30 480 C 48.7152 1.40671 -0.753917 0
M  V30 481 C 48.9152 1.9043 0.658686 0
M  V30 482 O 47.9712 2.08538 1.42366 0
M  V30 483 C 49.2842 2.41192 -1.79574 0
M  V30 484 C 50.8322 2.54928 -1.81606 0
M  V30 485 C 51.3072 3.58709 -2.84766 0
M  V30 486 N 52.7982 3.66212 -2.83625 0
M  V30 487 C 53.5332 4.46225 -3.60098 0
M  V30 488 N 53.0292 5.29888 -4.46308 0
M  V30 489 N 54.8222 4.40939 -3.4861 0
M  V30 490 H 46.9732 0.848221 -1.94728 0
M  V30 491 H 49.2362 0.435081 -0.842264 0
M  V30 492 H 48.9422 2.11669 -2.80872 0
M  V30 493 H 48.8162 3.40467 -1.62365 0
M  V30 494 H 51.2032 2.83771 -0.809817 0
M  V30 495 H 51.2842 1.55784 -2.02891 0
M  V30 496 H 50.9282 3.30607 -3.85566 0
M  V30 497 H 50.8582 4.57519 -2.60737 0
M  V30 498 H 53.3492 3.06466 -2.21105 0
M  V30 499 H 53.6622 5.88078 -5.01382 0
M  V30 500 H 52.0072 5.29326 -4.50377 0
M  V30 501 H 55.1982 3.74624 -2.80668 0
M  V30 502 H 55.3712 5.03056 -4.08459 0
M  V30 503 N 48.7773 0.814389 1.34928 0
M  V30 504 C 50.0233 0.399013 1.98836 0
M  V30 505 C 50.3563 -1.03314 1.64438 0
M  V30 506 O 49.6313 -1.71811 0.911659 0
M  V30 507 C 49.9143 0.591629 3.55207 0
M  V30 508 C 49.7673 2.06928 3.99376 0
M  V30 509 C 51.0863 0.022199 4.40094 0
M  V30 510 H 48.2053 0.146451 0.722303 0
M  V30 511 H 50.8473 1.02537 1.59957 0
M  V30 512 H 48.9973 0.0584441 3.88456 0
M  V30 513 H 50.6693 2.66544 3.76499 0
M  V30 514 H 48.9123 2.56287 3.49999 0
M  V30 515 H 49.5833 2.1549 5.08201 0
M  V30 516 H 52.0593 0.477643 4.13349 0
M  V30 517 H 50.9353 0.186832 5.48582 0
M  V30 518 H 51.1963 -1.07215 4.28902 0
M  V30 519 N 50.2554 -1.46986 0.568584 0
M  V30 520 C 51.1884 -2.27129 -0.220779 0
M  V30 521 C 52.1664 -1.34757 -0.909905 0
M  V30 522 O 53.3504 -1.64152 -0.926622 0
M  V30 523 C 50.4774 -3.12108 -1.31553 0
M  V30 524 C 49.5234 -4.20141 -0.733748 0
M  V30 525 S 50.3564 -5.33783 0.428479 0
M  V30 526 C 51.5124 -6.22327 -0.667811 0
M  V30 527 H 51.7454 -2.93731 0.459267 0
M  V30 528 H 49.2784 -1.5026 0.355154 0
M  V30 529 H 51.2364 -3.61636 -1.94241 0
M  V30 530 H 49.8974 -2.44847 -1.96746 0
M  V30 531 H 49.0904 -4.79373 -1.5562 0
M  V30 532 H 48.6924 -3.73553 -0.182812 0
M  V30 533 H 50.9844 -6.59364 -1.55708 0
M  V30 534 H 51.9274 -7.0801 -0.11258 0
M  V30 535 H 52.3354 -5.5618 -0.965601 0
M  V30 536 N 51.7335 -0.305618 -1.54608 0
M  V30 537 C 52.6635 0.561482 -2.26649 0
M  V30 538 C 53.6445 1.13415 -1.26772 0
M  V30 539 O 54.8295 1.16262 -1.55553 0
M  V30 540 C 51.9595 1.73122 -3.01075 0
M  V30 541 C 50.9135 1.2887 -4.08138 0
M  V30 542 C 50.2395 2.54396 -4.70305 0
M  V30 543 C 51.5395 0.416578 -5.20636 0
M  V30 544 H 53.2335 -0.0393902 -2.99374 0
M  V30 545 H 50.7795 -0.020385 -1.43986 0
M  V30 546 H 52.7325 2.34396 -3.50195 0
M  V30 547 H 51.4565 2.3584 -2.25936 0
M  V30 548 H 50.1155 0.698991 -3.59875 0
M  V30 549 H 49.7635 3.15439 -3.918 0
M  V30 550 H 49.4635 2.25486 -5.42614 0
M  V30 551 H 50.9875 3.16464 -5.2219 0
M  V30 552 H 52.4015 0.935116 -5.65622 0
M  V30 553 H 50.7985 0.221046 -5.99693 0
M  V30 554 H 51.8685 -0.557162 -4.81688 0
M  V30 555 N 53.2116 1.57565 -0.0334293 0
M  V30 556 C 54.4576 1.92262 0.645226 0
M  V30 557 C 54.7906 0.910543 1.71531 0
M  V30 558 O 54.0656 -0.066099 1.94388 0
M  V30 559 C 54.3486 3.37422 1.2577 0
M  V30 560 C 54.2016 4.49369 0.196891 0
M  V30 561 C 55.5206 3.82628 2.17449 0
M  V30 562 H 52.6396 0.699171 0.233085 0
M  V30 563 H 55.2816 1.89779 -0.0915694 0
M  V30 564 H 53.4316 3.39669 1.88566 0
M  V30 565 H 55.1036 4.59254 -0.433962 0
M  V30 566 H 53.3466 4.31168 -0.477137 0
M  V30 567 H 54.0176 5.47978 0.665124 0
M  V30 568 H 56.4936 3.82145 1.64634 0
M  V30 569 H 55.3696 4.84883 2.57254 0
M  V30 570 H 55.6306 3.18376 3.0674 0
M  V30 571 N 54.6897 -0.239769 1.55765 0
M  V30 572 C 56.1007 -0.808263 1.68297 0
M  V30 573 C 56.4517 -1.85736 0.632181 0
M  V30 574 O 55.5767 -2.15277 -0.220204 0
M  V30 575 C 56.1717 -1.47284 3.05111 0
M  V30 576 C 54.7307 -1.98895 3.19559 0
M  V30 577 C 53.8777 -0.842575 2.64189 0
M  V30 578 H 56.8287 -0.0154422 1.58692 0
M  V30 579 H 56.8497 -2.34111 2.99954 0
M  V30 580 H 56.3617 -0.709053 3.81568 0
M  V30 581 H 54.4627 -2.78132 2.47938 0
M  V30 582 H 54.5757 -2.18143 4.26556 0
M  V30 583 H 52.9397 -1.24501 2.22197 0
M  V30 584 H 53.7227 -0.0917552 3.43177 0
M  V30 585 N 56.1678 -1.49265 -0.50573 0
M  V30 586 C 57.3958 -1.62215 -1.28429 0
M  V30 587 C 57.8108 -0.291697 -1.86533 0
M  V30 588 O 57.1678 0.722233 -1.67601 0
M  V30 589 C 57.2188 -2.68735 -2.41793 0
M  V30 590 O 56.9398 -3.96619 -1.86078 0
M  V30 591 C 58.4408 -2.92346 -3.3324 0
M  V30 592 H 55.6608 -0.546239 -0.389697 0
M  V30 593 H 58.2048 -1.95265 -0.607609 0
M  V30 594 H 56.3598 -2.38476 -3.053 0
M  V30 595 H 56.7738 -4.55256 -2.60465 0
M  V30 596 H 58.2478 -3.70623 -4.09075 0
M  V30 597 H 58.7248 -2.02081 -3.89948 0
M  V30 598 H 59.3308 -3.24003 -2.75503 0
M  V30 599 N 57.6459 0.756429 -1.3826 0
M  V30 600 C 58.5789 1.87802 -1.29637 0
M  V30 601 C 59.5569 1.61667 -0.173939 0
M  V30 602 O 60.7409 1.85208 -0.350775 0
M  V30 603 C 57.8679 3.23354 -1.00797 0
M  V30 604 C 56.9139 3.68379 -2.14939 0
M  V30 605 S 57.7469 3.8025 -3.77054 0
M  V30 606 C 58.9029 5.18626 -3.50396 0
M  V30 607 H 59.1359 1.94829 -2.24564 0
M  V30 608 H 56.6689 0.919117 -1.24063 0
M  V30 609 H 58.6269 4.01637 -0.848413 0
M  V30 610 H 57.2879 3.14008 -0.0759369 0
M  V30 611 H 56.4809 4.66693 -1.90299 0
M  V30 612 H 56.0829 2.97242 -2.26988 0
M  V30 613 H 58.3749 6.04289 -3.06334 0
M  V30 614 H 59.3179 5.48286 -4.48094 0
M  V30 615 H 59.7259 4.87289 -2.84973 0
M  V30 616 N 59.124 1.23083 0.984299 0
M  V30 617 C 60.372 1.05848 1.72165 0
M  V30 618 C 60.693 -0.406049 1.90726 0
M  V30 619 O 59.963 -1.29139 1.47309 0
M  V30 620 H 58.543 0.388685 0.637913 0
M  V30 621 H 61.205 1.54736 1.18503 0
M  V30 622 H 60.301 1.54327 2.71274 0
M  V30 623 N 60.6021 -1.18246 1.0419 0
M  V30 624 C 61.5651 -2.20128 0.638452 0
M  V30 625 C 62.5651 -1.57885 -0.304805 0
M  V30 626 O 63.7551 -1.73967 -0.0900369 0
M  V30 627 C 60.8871 -3.4084 -0.0637751 0
M  V30 628 H 62.0801 -2.57336 1.54007 0
M  V30 629 H 59.6331 -1.32152 0.834598 0
M  V30 630 H 60.3681 -3.09166 -0.979136 0
M  V30 631 H 60.1531 -3.8726 0.614198 0
M  V30 632 H 61.6431 -4.16274 -0.332512 0
M  V30 633 N 62.0802 -0.821533 -1.34494 0
M  V30 634 C 63.0102 -0.257138 -2.3208 0
M  V30 635 C 63.9912 0.625645 -1.58176 0
M  V30 636 O 65.1762 0.552811 -1.86166 0
M  V30 637 C 62.3062 0.582958 -3.42372 0
M  V30 638 C 61.2602 -0.202571 -4.2752 0
M  V30 639 C 60.5862 0.760179 -5.29269 0
M  V30 640 C 61.8862 -1.40998 -5.02908 0
M  V30 641 H 63.5802 -1.07247 -2.79532 0
M  V30 642 H 61.1262 -0.517163 -1.34393 0
M  V30 643 H 63.0792 0.987972 -4.09655 0
M  V30 644 H 61.8032 1.43133 -2.93565 0
M  V30 645 H 60.4622 -0.588936 -3.61838 0
M  V30 646 H 60.1102 1.60447 -4.76724 0
M  V30 647 H 59.8102 0.238809 -5.87115 0
M  V30 648 H 61.3342 1.16308 -5.9942 0
M  V30 649 H 62.7482 -1.07905 -5.63054 0
M  V30 650 H 61.1452 -1.86689 -5.70322 0
M  V30 651 H 62.2152 -2.1889 -4.32684 0
M  V30 652 N 63.5583 1.46682 -0.576371 0
M  V30 653 C 64.5083 2.27278 0.181288 0
M  V30 654 C 65.4923 1.35497 0.867721 0
M  V30 655 O 66.6843 1.59717 0.762863 0
M  V30 656 C 63.8133 3.21703 1.19841 0
M  V30 657 C 62.8993 4.20969 0.51442 0
M  V30 658 N 63.2903 5.03999 -0.426407 0
M  V30 659 C 61.5883 4.39373 0.765963 0
M  V30 660 C 62.2893 5.75812 -0.825565 0
M  V30 661 N 61.2653 5.43315 -0.176116 0
M  V30 662 H 65.0673 2.88863 -0.541785 0
M  V30 663 H 62.5813 1.57455 -0.397697 0
M  V30 664 H 64.5783 3.78145 1.75533 0
M  V30 665 H 63.2383 2.61677 1.92238 0
M  V30 666 H 64.2493 5.11659 -0.8016 0
M  V30 667 H 60.9263 3.90502 1.47698 0
M  V30 668 H 62.3163 6.52577 -1.59976 0
M  V30 669 N 65.0364 0.313813 1.54444 0
M  V30 670 C 65.9464 -0.565714 2.27677 0
M  V30 671 C 66.9624 -1.13754 1.31666 0
M  V30 672 O 68.1384 -1.15959 1.64668 0
M  V30 673 C 65.2034 -1.71528 3.01296 0
M  V30 674 C 64.2644 -1.17624 4.12872 0
M  V30 675 C 63.4974 -2.27102 4.8297 0
M  V30 676 O 63.7204 -3.47256 4.52514 0
M  V30 677 O 62.6544 -1.9307 5.70094 0
M  V30 678 H 66.4804 0.0287296 3.03686 0
M  V30 679 H 64.0654 0.0798312 1.49187 0
M  V30 680 H 65.9474 -2.38476 3.4743 0
M  V30 681 H 64.6224 -2.29608 2.2817 0
M  V30 682 H 63.5294 -0.472124 3.71109 0
M  V30 683 H 64.8624 -0.640695 4.88012 0
M  V30 684 N 66.5145 -1.57545 0.0417849 0
M  V30 685 C 67.7625 -1.91937 -0.632829 0
M  V30 686 C 68.0835 -0.919978 -1.71934 0
M  V30 687 O 67.3535 0.0366064 -1.95866 0
M  V30 688 H 65.9335 -0.708493 -0.236742 0
M  V30 689 H 68.5955 -1.9468 0.0925745 0
M  V30 690 H 67.6915 -2.92912 -1.07746 0
M  V30 691 N 67.9926 0.231505 -1.5589 0
M  V30 692 C 68.9426 1.29007 -1.87993 0
M  V30 693 C 69.9266 1.42764 -0.742102 0
M  V30 694 O 71.1186 1.45747 -1.00433 0
M  V30 695 C 68.2476 2.6425 -2.1915 0
M  V30 696 C 67.3336 2.54435 -3.39299 0
M  V30 697 N 67.7246 2.14262 -4.58176 0
M  V30 698 C 66.0226 2.85416 -3.42715 0
M  V30 699 C 66.7236 2.15455 -5.40328 0
M  V30 700 N 65.6996 2.55558 -4.79783 0
M  V30 701 H 69.5016 0.970213 -2.77424 0
M  V30 702 H 67.0156 0.440097 -1.56323 0
M  V30 703 H 69.0126 3.40665 -2.40319 0
M  V30 704 H 67.6726 2.9709 -1.31025 0
M  V30 705 H 68.6836 1.85554 -4.83518 0
M  V30 706 H 65.3606 3.22693 -2.64906 0
M  V30 707 H 66.7506 1.86605 -6.45467 0
M  V30 708 N 69.4707 1.49531 0.497807 0
M  V30 709 C 70.4007 1.6935 1.60757 0
M  V30 710 C 71.3817 0.542218 1.61227 0
M  V30 711 O 72.5667 0.778417 1.77917 0
M  V30 712 C 69.6967 1.76298 2.99226 0
M  V30 713 C 68.6507 2.91248 3.13622 0
M  V30 714 C 67.9767 2.83312 4.53474 0
M  V30 715 C 69.2767 4.3214 2.93346 0
M  V30 716 H 70.9707 2.62263 1.44425 0
M  V30 717 H 68.5167 1.26208 0.693367 0
M  V30 718 H 70.4697 1.88749 3.76765 0
M  V30 719 H 69.1937 0.799871 3.16654 0
M  V30 720 H 67.8527 2.78404 2.38509 0
M  V30 721 H 67.5007 1.84902 4.67782 0
M  V30 722 H 67.2007 3.60465 4.64046 0
M  V30 723 H 68.7247 2.97775 5.33069 0
M  V30 724 H 70.1387 4.45649 3.60652 0
M  V30 725 H 68.5357 5.1054 3.15387 0
M  V30 726 H 69.6057 4.46363 1.89441 0
M  V30 727 N 70.9488 -0.749086 1.3866 0
M  V30 728 C 71.9118 -1.84457 1.36045 0
M  V30 729 C 72.9118 -1.58682 0.260122 0
M  V30 730 O 74.1018 -1.66343 0.517261 0
M  V30 731 C 71.2338 -3.22008 1.11911 0
M  V30 732 H 72.4268 -1.88182 2.33512 0
M  V30 733 H 69.9798 -0.951266 1.24019 0
M  V30 734 H 70.7148 -3.2395 0.150686 0
M  V30 735 H 70.4998 -3.42111 1.91579 0
M  V30 736 H 71.9898 -4.0208 1.12788 0
M  V30 737 N 72.4269 -1.23603 -0.977757 0
M  V30 738 C 73.3569 -1.04401 -2.0886 0
M  V30 739 C 74.3379 0.0399052 -1.70053 0
M  V30 740 O 75.5229 -0.125246 -1.93796 0
M  V30 741 C 72.6529 -0.637269 -3.41403 0
M  V30 742 C 71.6069 -1.66883 -3.94124 0
M  V30 743 C 70.9329 -1.11745 -5.22893 0
M  V30 744 C 72.2329 -3.06247 -4.23096 0
M  V30 745 H 73.9269 -1.97316 -2.25182 0
M  V30 746 H 71.4729 -0.950096 -1.08209 0
M  V30 747 H 73.4259 -0.48998 -4.18542 0
M  V30 748 H 72.1499 0.327557 -3.24953 0
M  V30 749 H 70.8089 -1.80416 -3.19133 0
M  V30 750 H 70.4569 -0.143527 -5.02795 0
M  V30 751 H 70.1569 -1.80672 -5.59134 0
M  V30 752 H 71.6809 -0.982067 -6.02651 0
M  V30 753 H 73.0949 -2.96001 -4.90975 0
M  V30 754 H 71.4919 -3.72436 -4.70544 0
M  V30 755 H 72.5619 -3.55041 -3.30263 0
M  V30 756 N 73.905 1.17692 -1.04816 0
M  V30 757 C 75.151 1.88137 -0.75711 0
M  V30 758 C 75.484 1.80604 0.713841 0
M  V30 759 O 74.759 1.21146 1.52164 0
M  V30 760 C 75.042 3.38318 -1.2334 0
M  V30 761 C 74.895 3.54622 -2.76701 0
M  V30 762 C 76.214 4.32214 -0.829415 0
M  V30 763 H 73.333 0.683163 -0.27651 0
M  V30 764 H 75.975 1.38424 -1.30149 0
M  V30 765 H 74.125 3.80787 -0.770286 0
M  V30 766 H 75.797 3.21194 -3.31107 0
M  V30 767 H 74.04 2.97026 -3.16161 0
M  V30 768 H 74.711 4.60028 -3.05088 0
M  V30 769 H 77.187 3.97565 -1.22805 0
M  V30 770 H 76.063 5.35838 -1.19033 0
M  V30 771 H 76.324 4.41294 0.266891 0
M  V30 772 N 75.3831 0.828654 1.34056 0
M  V30 773 C 76.7991 0.515135 1.51058 0
M  V30 774 C 76.9991 -0.959581 1.77184 0
M  V30 775 O 76.0551 -1.74382 1.82612 0
M  V30 776 C 77.3681 1.37963 2.67183 0
M  V30 777 C 78.9161 1.37735 2.81066 0
M  V30 778 C 79.3911 2.22645 4.00241 0
M  V30 779 N 80.8821 2.203 4.07458 0
M  V30 780 C 81.6171 2.82744 4.98842 0
M  V30 781 N 81.1131 3.54201 5.9541 0
M  V30 782 N 82.9061 2.72268 4.91759 0
M  V30 783 H 75.0571 1.78343 1.15358 0
M  V30 784 H 77.3201 0.760304 0.566252 0
M  V30 785 H 77.0261 2.42714 2.54525 0
M  V30 786 H 76.9001 1.0484 3.62338 0
M  V30 787 H 79.2871 0.337593 2.93163 0
M  V30 788 H 79.3681 1.74859 1.86703 0
M  V30 789 H 79.0121 3.26674 3.88905 0
M  V30 790 H 78.9421 1.82869 4.93829 0
M  V30 791 H 81.4331 1.68327 3.38341 0
M  V30 792 H 81.7461 3.9908 6.61782 0
M  V30 793 H 80.0911 3.58308 5.95517 0
M  V30 794 H 83.2821 2.16014 4.15278 0
M  V30 795 H 83.4551 3.21219 5.62781 0
M  V30 796 N 76.8612 -1.46375 0.584142 0
M  V30 797 C 77.8242 -2.28784 -0.138108 0
M  V30 798 C 78.8242 -1.38471 -0.817462 0
M  V30 799 O 80.0142 -1.60833 -0.669199 0
M  V30 800 C 77.1462 -3.18892 -1.20503 0
M  V30 801 H 78.3392 -2.94117 0.586127 0
M  V30 802 H 75.8922 -1.52509 0.342171 0
M  V30 803 H 76.6272 -2.58309 -1.96079 0
M  V30 804 H 76.4122 -3.85388 -0.722384 0
M  V30 805 H 77.9022 -3.80914 -1.71155 0
M  V30 806 N 78.3393 -0.321999 -1.54275 0
M  V30 807 C 79.3023 0.531975 -2.22941 0
M  V30 808 C 80.3023 1.04478 -1.22234 0
M  V30 809 O 81.4923 0.937452 -1.46825 0
M  V30 810 C 78.6243 1.73874 -2.93224 0
M  V30 811 H 79.8173 -0.0682612 -2.99822 0
M  V30 812 H 77.3703 -0.0730644 -1.56129 0
M  V30 813 H 78.1053 2.37825 -2.20476 0
M  V30 814 H 77.8903 1.37847 -3.6707 0
M  V30 815 H 79.3803 2.34496 -3.45545 0
M  V30 816 N 79.8174 1.5752 -0.0501392 0
M  V30 817 C 80.7644 2.1147 0.924603 0
M  V30 818 C 81.7344 1.02182 1.30951 0
M  V30 819 O 82.9194 1.29723 1.39916 0
M  V30 820 C 80.0594 2.66337 2.19451 0
M  V30 821 C 79.1724 3.89708 1.86418 0
M  V30 822 C 78.3074 4.32893 3.07859 0
M  V30 823 C 77.3464 5.48967 2.70742 0
M  V30 824 N 76.4834 5.87211 3.84874 0
M  V30 825 H 81.3234 2.94465 0.457639 0
M  V30 826 H 78.8604 1.45531 0.214266 0
M  V30 827 H 80.8184 2.96247 2.93758 0
M  V30 828 H 79.4484 1.86141 2.63726 0
M  V30 829 H 78.5004 3.66396 1.02264 0
M  V30 830 H 79.8124 4.74074 1.55096 0
M  V30 831 H 78.9664 4.6435 3.90466 0
M  V30 832 H 77.7054 3.47336 3.42358 0
M  V30 833 H 76.7104 5.17183 1.86551 0
M  V30 834 H 77.9354 6.3624 2.37436 0
M  V30 835 H 75.8814 5.04607 4.19175 0
M  V30 836 H 75.7984 6.66266 3.57247 0
M  V30 837 H 77.0664 6.23282 4.68123 0
M  V30 838 N 81.2955 -0.223234 1.56011 0
M  V30 839 C 82.7115 -0.572856 1.48965 0
M  V30 840 C 82.9115 -1.87225 0.74492 0
M  V30 841 O 81.9675 -2.50899 0.283896 0
M  V30 842 C 83.2805 -0.653646 2.9351 0
M  V30 843 C 84.8285 -0.744386 3.0402 0
M  V30 844 C 85.3035 -0.856535 4.49919 0
M  V30 845 N 86.7945 -0.9208 4.53955 0
M  V30 846 C 87.5295 -1.02726 5.64123 0
M  V30 847 N 87.0255 -1.09777 6.84047 0
M  V30 848 N 88.8185 -1.06226 5.51971 0
M  V30 849 H 80.9695 0.629462 2.02858 0
M  V30 850 H 83.2325 0.220621 0.921971 0
M  V30 851 H 82.9385 0.231518 3.50937 0
M  V30 852 H 82.8125 -1.51781 3.45315 0
M  V30 853 H 85.1995 -1.61999 2.46658 0
M  V30 854 H 85.2805 0.14541 2.55386 0
M  V30 855 H 84.9245 0.0146069 5.07898 0
M  V30 856 H 84.8545 -1.76172 4.96257 0
M  V30 857 H 87.3455 -0.876694 3.6759 0
M  V30 858 H 87.6585 -1.17872 7.63758 0
M  V30 859 H 86.0035 -1.06693 6.86762 0
M  V30 860 H 89.1945 -1.00382 4.5721 0
M  V30 861 H 89.3675 -1.14177 6.37862 0
M  V30 862 N 82.7736 -1.49793 -0.48987 0
M  V30 863 C 84.0196 -1.60078 -1.24511 0
M  V30 864 C 84.3526 -0.291608 -1.91998 0
M  V30 865 O 83.6276 0.705647 -1.81248 0
M  V30 866 C 83.9106 -2.76791 -2.30345 0
M  V30 867 C 83.7636 -4.17535 -1.67286 0
M  V30 868 C 85.0826 -2.89111 -3.31817 0
M  V30 869 H 82.2016 -0.582645 -0.451324 0
M  V30 870 H 84.8436 -1.82117 -0.541612 0
M  V30 871 H 82.9936 -2.5813 -2.90346 0
M  V30 872 H 84.6656 -4.4774 -1.11026 0
M  V30 873 H 82.9086 -4.22665 -0.976577 0
M  V30 874 H 83.5796 -4.95094 -2.44103 0
M  V30 875 H 86.0556 -3.06133 -2.81819 0
M  V30 876 H 84.9316 -3.72433 -4.03219 0
M  V30 877 H 85.1926 -1.9893 -3.94815 0
M  V30 878 N 84.2517 0.741722 -1.39055 0
M  V30 879 C 85.6627 1.31966 -1.32068 0
M  V30 880 C 86.0137 1.96192 0.0180797 0
M  V30 881 O 85.1387 1.95861 0.920196 0
M  V30 882 C 85.7337 2.39954 -2.39181 0
M  V30 883 C 84.2927 2.93438 -2.35735 0
M  V30 884 C 83.4397 1.66936 -2.21422 0
M  V30 885 H 86.3907 0.539721 -1.4924 0
M  V30 886 H 86.4117 3.20182 -2.05581 0
M  V30 887 H 85.9237 1.9318 -3.36605 0
M  V30 888 H 84.0247 3.4451 -1.41929 0
M  V30 889 H 84.1377 3.4701 -3.30335 0
M  V30 890 H 82.5017 1.91016 -1.68478 0
M  V30 891 H 83.2847 1.22224 -3.20806 0
M  V30 892 N 85.7298 1.2412 0.971189 0
M  V30 893 C 86.9778 1.07668 1.71032 0
M  V30 894 C 87.2988 -0.385797 1.91146 0
M  V30 895 O 86.5688 -1.27569 1.4867 0
M  V30 896 H 85.1488 0.395429 0.633755 0
M  V30 897 H 87.8108 1.55984 1.16855 0
M  V30 898 H 86.9068 1.57195 2.69622 0
M  V30 899 N 87.2079 -1.17134 1.05439 0
M  V30 900 C 88.4329 -1.91913 0.786396 0
M  V30 901 C 88.8579 -1.7643 -0.652234 0
M  V30 902 O 88.2159 -1.08372 -1.45345 0
M  V30 903 C 88.2639 -3.40921 1.17497 0
M  V30 904 O 87.3679 -4.11244 0.308589 0
M  V30 905 H 86.7089 -0.598215 0.288158 0
M  V30 906 H 89.2389 -1.48457 1.4079 0
M  V30 907 H 89.2489 -3.91668 1.14281 0
M  V30 908 H 87.9239 -3.5151 2.22292 0
M  V30 909 H 86.5009 -3.70731 0.40157 0
M  V30 910 N 88.686 -0.835752 -1.33615 0
M  V30 911 C 89.932 -0.430596 -1.98176 0
M  V30 912 C 90.265 1.00684 -1.66061 0
M  V30 913 O 89.54 1.70339 -0.938877 0
M  V30 914 C 89.823 -0.648065 -3.5422 0
M  V30 915 C 89.676 -2.13255 -3.96033 0
M  V30 916 C 90.995 -0.0922113 -4.40003 0
M  V30 917 H 88.114 -0.157924 -0.719881 0
M  V30 918 H 90.756 -1.05069 -1.58305 0
M  V30 919 H 88.906 -0.120237 -3.88314 0
M  V30 920 H 90.578 -2.725 -3.72211 0
M  V30 921 H 88.821 -2.61823 -3.45878 0
M  V30 922 H 89.492 -2.23547 -5.04708 0
M  V30 923 H 91.968 -0.543343 -4.12537 0
M  V30 924 H 90.844 -0.274083 -5.48215 0
M  V30 925 H 91.105 1.00378 -4.30554 0
M  V30 926 N 90.1641 1.46063 -0.591896 0
M  V30 927 C 91.4101 2.02638 -0.0811191 0
M  V30 928 C 91.7431 1.4613 1.27905 0
M  V30 929 O 91.0181 0.629908 1.84017 0
M  V30 930 C 91.3011 3.60091 -0.0252436 0
M  V30 931 C 91.1541 4.26965 -1.41496 0
M  V30 932 C 92.4731 4.3496 0.670685 0
M  V30 933 H 89.5921 0.73635 -0.0309524 0
M  V30 934 H 92.2341 1.741 -0.760859 0
M  V30 935 H 90.3841 3.84535 0.553624 0
M  V30 936 H 92.0561 4.13756 -2.0397 0
M  V30 937 H 90.2991 3.85971 -1.98011 0
M  V30 938 H 90.9701 5.35781 -1.32825 0
M  V30 939 H 93.4461 4.15716 0.178825 0
M  V30 940 H 92.3221 5.44686 0.678837 0
M  V30 941 H 92.5831 4.06685 1.73379 0
M  V30 942 N 91.6422 0.330177 1.54103 0
M  V30 943 C 92.8882 -0.270806 2.00984 0
M  V30 944 C 93.2212 -1.51265 1.21789 0
M  V30 945 O 92.4962 -1.92142 0.301927 0
M  V30 946 C 92.7792 -0.598339 3.55094 0
M  V30 947 C 92.6322 0.654674 4.4501 0
M  V30 948 C 93.9512 -1.41334 4.16789 0
M  V30 949 H 91.0702 -0.0969531 0.730595 0
M  V30 950 H 93.7122 0.448066 1.84641 0
M  V30 951 H 91.8622 -1.21078 3.69151 0
M  V30 952 H 93.5342 1.29285 4.42813 0
M  V30 953 H 91.7772 1.28224 4.14416 0
M  V30 954 H 92.4482 0.380944 5.50684 0
M  V30 955 H 94.9242 -0.895597 4.06347 0
M  V30 956 H 93.8002 -1.61127 5.24718 0
M  V30 957 H 94.0612 -2.41146 3.70541 0
M  V30 958 N 93.1203 -1.57491 0.0584922 0
M  V30 959 C 94.3663 -1.93264 -0.614558 0
M  V30 960 C 94.6993 -0.937717 -1.7006 0
M  V30 961 O 93.9743 0.0351652 -1.94468 0
M  V30 962 C 94.2573 -3.3938 -1.20386 0
M  V30 963 C 94.1103 -4.49625 -0.125375 0
M  V30 964 C 95.4293 -3.86039 -2.11334 0
M  V30 965 H 92.5483 -0.702791 -0.221933 0
M  V30 966 H 95.1903 -1.8961 0.12175 0
M  V30 967 H 93.3403 -3.42626 -1.83139 0
M  V30 968 H 95.0123 -4.58506 0.506971 0
M  V30 969 H 93.2553 -4.30354 0.545672 0
M  V30 970 H 93.9263 -5.48967 -0.577861 0
M  V30 971 H 96.4023 -3.84716 -1.58534 0
M  V30 972 H 95.2783 -4.88914 -2.49507 0
M  V30 973 H 95.5393 -3.23215 -3.01636 0
M  V30 974 N 94.5984 0.214957 -1.56127 0
M  V30 975 C 95.8234 0.95924 -1.83884 0
M  V30 976 C 96.2484 1.7689 -0.639644 0
M  V30 977 O 95.6064 1.76566 0.411601 0
M  V30 978 C 95.6544 1.84723 -3.09693 0
M  V30 979 O 94.7584 2.94346 -2.8885 0
M  V30 980 H 94.0994 0.27125 -0.606069 0
M  V30 981 H 96.6294 0.226276 -2.03345 0
M  V30 982 H 96.6394 2.25576 -3.39969 0
M  V30 983 H 95.3144 1.25218 -3.96602 0
M  V30 984 H 93.8914 2.57391 -2.69823 0
M  V30 985 N 96.0765 1.50051 0.48192 0
M  V30 986 C 97.3255 1.59741 1.23149 0
M  V30 987 C 97.6385 0.298163 1.93314 0
M  V30 988 O 98.8445 0.273835 2.70116 0
M  V30 989 C 97.3005 2.81926 2.23708 0
M  V30 990 C 96.9085 4.18685 1.59396 0
M  V30 991 C 98.6525 3.00956 2.99375 0
M  V30 992 C 96.5595 5.3207 2.58178 0
M  V30 993 H 95.4895 0.594838 0.46334 0
M  V30 994 H 98.1405 1.76467 0.503169 0
M  V30 995 H 96.5225 2.58736 2.99786 0
M  V30 996 H 97.6965 4.52088 0.891811 0
M  V30 997 H 96.0115 4.05171 0.960503 0
M  V30 998 H 98.6085 3.82836 3.73283 0
M  V30 999 H 98.9515 2.12258 3.58123 0
M  V30 1000 H 99.4845 3.24277 2.30411 0
M  V30 1001 H 96.2235 6.22888 2.04184 0
M  V30 1002 H 95.7435 5.03098 3.26577 0
M  V30 1003 H 97.4225 5.62196 3.20225 0
M  V30 1004 N 97.5546 -0.734337 1.39446 0
M  V30 1005 C 98.8016 -1.49391 1.36706 0
M  V30 1006 C 99.1296 -1.94465 -0.0367813 0
M  V30 1007 O 98.3846 -1.67154 -1.01774 0
M  V30 1008 C 98.6836 -2.74711 2.28623 0
M  V30 1009 C 98.3496 -2.48501 3.76242 0
M  V30 1010 C 97.0116 -2.41062 4.16464 0
M  V30 1011 C 99.3636 -2.26098 4.69606 0
M  V30 1012 C 96.6916 -2.09262 5.48112 0
M  V30 1013 C 99.0436 -1.95814 6.01531 0
M  V30 1014 C 97.7076 -1.86845 6.40816 0
M  V30 1015 H 96.9776 -0.546661 0.500243 0
M  V30 1016 H 99.6246 -0.842788 1.71957 0
M  V30 1017 H 97.9296 -3.44569 1.86492 0
M  V30 1018 H 99.6266 -3.32741 2.23796 0
M  V30 1019 H 96.2166 -2.55169 3.44364 0
M  V30 1020 H 100.401 -2.30812 4.39363 0
M  V30 1021 H 95.6566 -2.00841 5.77471 0
M  V30 1022 H 99.8306 -1.77488 6.73403 0
M  V30 1023 H 97.4576 -1.6197 7.42745 0
M  V30 1024 N 99.0327 -1.24633 -0.964593 0
M  V30 1025 C 100.279 -1.08949 -1.71049 0
M  V30 1026 C 100.612 0.370302 -1.90637 0
M  V30 1027 O 99.8867 1.27349 -1.47011 0
M  V30 1028 C 100.17 -1.83329 -3.0994 0
M  V30 1029 C 100.023 -3.37077 -2.97824 0
M  V30 1030 C 101.342 -1.60846 -4.09654 0
M  V30 1031 H 98.4607 -0.397178 -0.620821 0
M  V30 1032 H 101.103 -1.5334 -1.12191 0
M  V30 1033 H 99.2527 -1.45597 -3.60186 0
M  V30 1034 H 100.925 -3.84425 -2.5498 0
M  V30 1035 H 99.1677 -3.65298 -2.33965 0
M  V30 1036 H 99.8387 -3.84324 -3.96231 0
M  V30 1037 H 102.315 -1.93674 -3.68279 0
M  V30 1038 H 101.191 -2.1534 -5.04896 0
M  V30 1039 H 101.452 -0.547434 -4.38698 0
M  V30 1040 N 100.511 1.16574 -1.06058 0
M  V30 1041 C 101.459 2.22941 -0.663343 0
M  V30 1042 C 102.453 1.66358 0.319593 0
M  V30 1043 O 103.659 1.7905 0.184713 0
M  V30 1044 H 100.034 0.725907 -0.196376 0
M  V30 1045 H 102.005 2.53736 -1.57037 0
M  V30 1046 C 100.754 3.47642 -0.0632808 0
M  V30 1047 H 100.077 3.91493 -0.810733 0
M  V30 1048 H 101.517 4.2363 0.177177 0
M  V30 1049 C 99.9758 3.1509 1.19248 0
M  V30 1050 O 100.506 3.30673 2.28075 0
M  V30 1051 N 98.7118 2.6924 1.09353 0
M  V30 1052 H 98.2588 2.5676 0.207912 0
M  V30 1053 H 98.2168 2.47833 1.93458 0
M  V30 1054 N 101.989 0.842826 1.3317 0
M  V30 1055 C 103.4 0.496651 1.79973 0
M  V30 1056 C 103.751 -0.984641 1.69703 0
M  V30 1057 O 102.876 -1.76743 1.24863 0
M  V30 1058 C 103.471 0.894727 3.26772 0
M  V30 1059 C 102.03 0.600629 3.71577 0
M  V30 1060 C 101.177 1.10091 2.5451 0
M  V30 1061 H 104.128 1.03116 1.20635 0
M  V30 1062 H 104.149 0.206347 3.7994 0
M  V30 1063 H 103.661 1.97287 3.34215 0
M  V30 1064 H 101.762 -0.467284 3.69658 0
M  V30 1065 H 101.875 1.15863 4.64879 0
M  V30 1066 H 100.239 0.52162 2.49301 0
M  V30 1067 H 101.022 2.18591 2.64713 0
M  V30 1068 N 103.467 -1.45747 0.599634 0
M  V30 1069 C 104.4 -2.27547 -0.172552 0
M  V30 1070 C 105.378 -1.36657 -0.881116 0
M  V30 1071 O 106.562 -1.66081 -0.891595 0
M  V30 1072 C 103.689 -3.14829 -1.24903 0
M  V30 1073 C 102.735 -4.21603 -0.644465 0
M  V30 1074 S 103.568 -5.32754 0.541606 0
M  V30 1075 C 104.724 -6.23604 -0.535656 0
M  V30 1076 H 104.957 -2.92691 0.521468 0
M  V30 1077 H 102.49 -1.49473 0.386947 0
M  V30 1078 H 104.448 -3.65675 -1.86527 0
M  V30 1079 H 103.109 -2.48965 -1.91508 0
M  V30 1080 H 102.302 -4.82566 -1.45417 0
M  V30 1081 H 101.904 -3.73857 -0.103534 0
M  V30 1082 H 104.196 -6.62519 -1.41686 0
M  V30 1083 H 105.139 -7.0809 0.0376246 0
M  V30 1084 H 105.547 -5.58103 -0.84741 0
M  V30 1085 N 104.945 -0.338344 -1.53925 0
M  V30 1086 C 105.877 0.555117 -2.22376 0
M  V30 1087 C 106.89 1.06812 -1.22862 0
M  V30 1088 O 108.079 0.979163 -1.49247 0
M  V30 1089 C 105.179 1.77609 -2.88631 0
M  V30 1090 C 104.352 1.39927 -4.14414 0
M  V30 1091 C 103.411 2.47936 -4.64127 0
M  V30 1092 O 102.437 2.11461 -5.28463 0
M  V30 1093 N 103.639 3.79107 -4.39612 0
M  V30 1094 H 106.404 -0.0310778 -2.99684 0
M  V30 1095 H 103.965 -0.162226 -1.61085 0
M  V30 1096 H 105.957 2.49287 -3.18807 0
M  V30 1097 H 104.527 2.26978 -2.14941 0
M  V30 1098 H 103.747 0.513481 -3.90841 0
M  V30 1099 H 105.035 1.12341 -4.96243 0
M  V30 1100 H 104.433 4.11531 -3.88148 0
M  V30 1101 H 102.99 4.4697 -4.74406 0
M  V30 1102 N 106.423 1.57458 -0.0668435 0
M  V30 1103 C 107.67 1.93301 0.603406 0
M  V30 1104 C 107.998 0.946486 1.69917 0
M  V30 1105 O 107.253 -0.0387021 1.95662 0
M  V30 1106 C 107.552 3.35784 1.22409 0
M  V30 1107 C 107.218 4.50179 0.254955 0
M  V30 1108 C 105.88 4.81199 -0.0116746 0
M  V30 1109 C 108.232 5.19598 -0.408338 0
M  V30 1110 C 105.56 5.78978 -0.94877 0
M  V30 1111 C 107.912 6.18381 -1.33372 0
M  V30 1112 C 106.576 6.47821 -1.60887 0
M  V30 1113 H 105.846 0.707338 0.220802 0
M  V30 1114 H 108.493 1.91012 -0.136665 0
M  V30 1115 H 106.798 3.34515 2.03978 0
M  V30 1116 H 108.495 3.60804 1.74989 0
M  V30 1117 H 105.085 4.25983 0.472954 0
M  V30 1118 H 109.269 4.95832 -0.215456 0
M  V30 1119 H 104.525 6.00115 -1.16925 0
M  V30 1120 H 108.699 6.71277 -1.85367 0
M  V30 1121 H 106.326 7.23399 -2.33661 0
M  V30 1122 N 107.901 -0.206675 1.56239 0
M  V30 1123 C 109.149 -0.927007 1.79586 0
M  V30 1124 C 109.47 -1.8427 0.637929 0
M  V30 1125 O 108.74 -1.92849 -0.344398 0
M  V30 1126 H 107.32 -0.345292 0.662407 0
M  V30 1127 H 109.982 -0.21496 1.93711 0
M  V30 1128 H 109.078 -1.52501 2.72305 0
M  V30 1129 N 109.379 -1.50304 -0.473955 0
M  V30 1130 C 110.342 -1.6841 -1.55469 0
M  V30 1131 C 111.342 -0.554905 -1.50922 0
M  V30 1132 O 112.532 -0.821882 -1.53593 0
M  V30 1133 C 109.664 -1.70667 -2.95102 0
M  V30 1134 H 110.857 -2.64828 -1.40733 0
M  V30 1135 H 108.41 -1.39742 -0.700132 0
M  V30 1136 H 109.145 -0.75932 -3.15285 0
M  V30 1137 H 108.93 -2.52698 -2.9981 0
M  V30 1138 H 110.42 -1.8664 -3.73571 0
M  V30 1139 N 110.857 0.726932 -1.39834 0
M  V30 1140 C 112.105 1.4837 -1.37225 0
M  V30 1141 C 112.426 1.94979 0.0284857 0
M  V30 1142 O 111.696 1.69555 0.981213 0
M  V30 1143 H 110.276 0.55043 -0.505011 0
M  V30 1144 H 112.938 0.862468 -1.74778 0
M  V30 1145 H 112.034 2.36198 -2.04003 0
M  V30 1146 N 112.336 1.25143 0.95797 0
M  V30 1147 C 113.246 1.06968 2.08794 0
M  V30 1148 C 114.262 0.00773911 1.73998 0
M  V30 1149 O 115.438 0.207972 2.00323 0
M  V30 1150 C 112.503 0.68691 3.39827 0
M  V30 1151 C 111.564 1.82641 3.88511 0
M  V30 1152 C 110.797 1.46181 5.1329 0
M  V30 1153 O 111.02 0.355971 5.69288 0
M  V30 1154 O 109.954 2.29085 5.566 0
M  V30 1155 H 113.78 2.01723 2.27027 0
M  V30 1156 H 111.365 1.04051 1.07209 0
M  V30 1157 H 113.247 0.485417 4.18595 0
M  V30 1158 H 111.922 -0.231417 3.22872 0
M  V30 1159 H 110.829 2.08274 3.10762 0
M  V30 1160 H 112.162 2.72386 4.09959 0
M  V30 1161 N 113.814 -1.1601 1.06675 0
M  V30 1162 C 115.091 -1.82679 0.699114 0
M  V30 1163 C 115.471 -1.94559 -0.819137 0
M  V30 1164 O 114.819 -1.49169 -1.73092 0
M  V30 1165 C 115.029 -3.19445 1.40555 0
M  V30 1166 C 116.377 -3.95171 1.55323 0
M  V30 1167 O 117.401 -3.28976 1.36577 0
M  V30 1168 O 116.26 -5.13833 1.86112 0
M  V30 1169 H 113.354 -0.788954 0.247951 0
M  V30 1170 H 115.9 -1.23179 1.16726 0
M  V30 1171 H 114.672 -3.05856 2.44065 0
M  V30 1172 H 114.295 -3.86625 0.927733 0
M  V30 1173 N 115.292 -0.849877 -1.32721 0
M  V30 1174 C 116.222 -0.306308 -2.31482 0
M  V30 1175 C 117.203 0.591952 -1.59468 0
M  V30 1176 O 118.388 0.513199 -1.87296 0
M  V30 1177 C 115.518 0.510204 -3.43532 0
M  V30 1178 C 114.472 -0.293209 -4.26994 0
M  V30 1179 C 113.798 0.647743 -5.30762 0
M  V30 1180 C 115.098 -1.51634 -4.99804 0
M  V30 1181 H 116.792 -1.13153 -2.77195 0
M  V30 1182 H 114.338 -0.545553 -1.33266 0
M  V30 1183 H 116.291 0.900856 -4.11658 0
M  V30 1184 H 115.015 1.36874 -2.96535 0
M  V30 1185 H 113.674 -0.665555 -3.60508 0
M  V30 1186 H 113.322 1.50299 -4.8002 0
M  V30 1187 H 113.022 0.11422 -5.87489 0
M  V30 1188 H 114.546 1.03567 -6.01753 0
M  V30 1189 H 115.96 -1.19824 -5.60638 0
M  V30 1190 H 114.357 -1.98745 -5.66234 0
M  V30 1191 H 115.427 -2.28018 -4.27943 0
M  V30 1192 N 116.77 1.45427 -0.607355 0
M  V30 1193 C 118.047 1.9557 -0.0344566 0
M  V30 1194 C 118.427 1.54979 1.43334 0
M  V30 1195 O 117.775 0.812241 2.13576 0
M  V30 1196 C 117.985 3.48226 -0.232321 0
M  V30 1197 C 119.333 4.2445 -0.113001 0
M  V30 1198 O 120.357 3.55829 -0.162431 0
M  V30 1199 O 119.216 5.465 0.00209442 0
M  V30 1200 H 116.31 0.826222 0.0358667 0
M  V30 1201 H 118.856 1.55594 -0.6774 0
M  V30 1202 H 117.628 3.70739 -1.25174 0
M  V30 1203 H 117.251 3.95092 0.445896 0
M  V30 1204 N 118.248 0.346503 1.53744 0
M  V30 1205 C 119.211 -0.496439 2.23759 0
M  V30 1206 C 120.211 -1.0252 1.2388 0
M  V30 1207 O 121.401 -0.913974 1.48297 0
M  V30 1208 C 118.533 -1.69187 2.95954 0
M  V30 1209 H 119.726 0.115952 2.99676 0
M  V30 1210 H 117.279 0.0978939 1.55993 0
M  V30 1211 H 118.014 -2.34288 2.24231 0
M  V30 1212 H 117.799 -1.31989 3.69217 0
M  V30 1213 H 119.289 -2.28969 3.49232 0
M  V30 1214 N 119.726 -1.57421 0.075193 0
M  V30 1215 C 120.956 -1.97659 -0.601203 0
M  V30 1216 C 121.364 -0.952427 -1.63479 0
M  V30 1217 O 120.707 0.0688241 -1.83571 0
M  V30 1218 C 120.769 -3.34218 -1.32434 0
M  V30 1219 C 120.433 -4.5484 -0.443826 0
M  V30 1220 C 121.43 -5.19034 0.299969 0
M  V30 1221 C 119.115 -5.00952 -0.367709 0
M  V30 1222 C 121.109 -6.27695 1.10807 0
M  V30 1223 C 118.796 -6.09484 0.444058 0
M  V30 1224 C 119.794 -6.72719 1.18061 0
M  V30 1225 O 119.482 -7.79161 1.97898 0
M  V30 1226 H 119.214 -0.65494 -0.167422 0
M  V30 1227 H 121.768 -2.04886 0.145157 0
M  V30 1228 H 119.998 -3.23615 -2.11685 0
M  V30 1229 H 121.687 -3.59038 -1.89331 0
M  V30 1230 H 122.453 -4.84351 0.250776 0
M  V30 1231 H 118.332 -4.51509 -0.930638 0
M  V30 1232 H 121.876 -6.76982 1.68347 0
M  V30 1233 H 117.773 -6.43601 0.494803 0
M  V30 1234 H 118.541 -7.96055 1.90367 0
M  V30 1235 N 121.204 0.198386 -1.56346 0
M  V30 1236 C 122.615 0.763358 -1.70381 0
M  V30 1237 C 122.966 1.83995 -0.681203 0
M  V30 1238 O 122.091 2.15785 0.16305 0
M  V30 1239 C 122.686 1.39143 -3.08909 0
M  V30 1240 C 121.245 1.90352 -3.2472 0
M  V30 1241 C 120.392 0.772233 -2.6633 0
M  V30 1242 H 123.343 -0.0266377 -1.58678 0
M  V30 1243 H 123.364 2.26076 -3.06055 0
M  V30 1244 H 122.876 0.607638 -3.83314 0
M  V30 1245 H 120.977 2.71461 -2.55225 0
M  V30 1246 H 121.09 2.06757 -4.3219 0
M  V30 1247 H 119.454 1.18566 -2.2542 0
M  V30 1248 H 120.237 0.00073556 -3.433 0
M  V30 1249 N 122.682 1.50554 0.465978 0
M  V30 1250 C 124.098 1.38093 0.800154 0
M  V30 1251 C 124.298 0.440988 1.96615 0
M  V30 1252 O 123.354 -0.114499 2.5224 0
M  V30 1253 C 124.667 2.79565 1.10742 0
M  V30 1254 C 126.215 2.88516 1.21357 0
M  V30 1255 C 126.69 4.30833 1.55393 0
M  V30 1256 N 128.181 4.33807 1.62375 0
M  V30 1257 C 128.916 5.40927 1.90225 0
M  V30 1258 N 128.412 6.58247 2.16062 0
M  V30 1259 N 130.205 5.28376 1.9177 0
M  V30 1260 H 122.356 2.10237 -0.302366 0
M  V30 1261 H 124.619 0.945203 -0.0727746 0
M  V30 1262 H 124.325 3.50208 0.323661 0
M  V30 1263 H 124.199 3.17125 2.04234 0
M  V30 1264 H 126.586 2.1809 1.98799 0
M  V30 1265 H 126.667 2.54492 0.258321 0
M  V30 1266 H 126.311 5.01799 0.784889 0
M  V30 1267 H 126.241 4.62347 2.52076 0
M  V30 1268 H 128.732 3.49212 1.44427 0
M  V30 1269 H 129.045 7.3569 2.36601 0
M  V30 1270 H 127.39 6.61413 2.13444 0
M  V30 1271 H 130.581 4.35715 1.71085 0
M  V30 1272 H 130.754 6.11944 2.13139 0
M  V30 1273 N 124.16 -0.719506 1.40217 0
M  V30 1274 C 125.388 -1.50864 1.41589 0
M  V30 1275 C 125.803 -1.88794 0.0145275 0
M  V30 1276 O 125.16 -1.55174 -0.960594 0
M  V30 1277 C 125.211 -2.78646 2.30302 0
M  V30 1278 O 124.932 -2.42321 3.64983 0
M  V30 1279 C 126.433 -3.72569 2.40224 0
M  V30 1280 H 123.653 -0.465709 0.48307 0
M  V30 1281 H 126.197 -0.88785 1.84221 0
M  V30 1282 H 124.352 -3.37019 1.91042 0
M  V30 1283 H 124.766 -3.24514 4.12057 0
M  V30 1284 H 126.24 -4.5908 3.06512 0
M  V30 1285 H 126.717 -4.15403 1.42608 0
M  V30 1286 H 127.323 -3.20109 2.80019 0
M  V30 1287 N 125.638 -1.25649 -0.95132 0
M  V30 1288 C 127.049 -1.09654 -1.51106 0
M  V30 1289 C 127.4 0.326615 -1.93462 0
M  V30 1290 O 126.525 1.21697 -1.78938 0
M  V30 1291 C 127.12 -1.98437 -2.74605 0
M  V30 1292 C 125.679 -1.86618 -3.2688 0
M  V30 1293 C 124.826 -1.9239 -1.99703 0
M  V30 1294 H 127.777 -1.38887 -0.767865 0
M  V30 1295 H 127.798 -1.5263 -3.48546 0
M  V30 1296 H 127.31 -3.02009 -2.43746 0
M  V30 1297 H 125.411 -0.859421 -3.62553 0
M  V30 1298 H 125.524 -2.71607 -3.94673 0
M  V30 1299 H 123.888 -1.36317 -2.15151 0
M  V30 1300 H 124.671 -2.97573 -1.71188 0
M  V30 1301 N 127.117 1.15442 -1.07289 0
M  V30 1302 C 128.394 1.82306 -0.708792 0
M  V30 1303 C 128.774 1.94991 0.808807 0
M  V30 1304 O 128.122 1.50085 1.72298 0
M  V30 1305 C 128.332 3.18695 -1.42247 0
M  V30 1306 C 129.68 3.94341 -1.57417 0
M  V30 1307 O 130.704 3.28247 -1.38319 0
M  V30 1308 O 129.563 5.12839 -1.88834 0
M  V30 1309 H 126.657 0.787628 -0.252132 0
M  V30 1310 H 129.203 1.22559 -1.17377 0
M  V30 1311 H 127.975 3.04557 -2.45684 0
M  V30 1312 H 127.598 3.86128 -0.948223 0
M  V30 1313 N 128.595 0.856903 1.32268 0
M  V30 1314 C 129.872 0.382583 1.91822 0
M  V30 1315 C 130.252 -1.13407 1.78051 0
M  V30 1316 O 129.6 -1.95673 1.18001 0
M  V30 1317 C 129.81 0.849446 3.38505 0
M  V30 1318 C 131.158 0.867936 4.15634 0
M  V30 1319 O 132.182 0.794232 3.47232 0
M  V30 1320 O 131.041 0.972286 5.37781 0
M  V30 1321 H 128.135 0.112014 0.819379 0
M  V30 1322 H 130.681 0.943952 1.41024 0
M  V30 1323 H 129.453 1.89267 3.42482 0
M  V30 1324 H 129.076 0.265652 3.96712 0
M  V30 1325 N 130.073 -1.45103 0.615059 0
M  V30 1326 C 131.35 -1.95549 0.0448276 0
M  V30 1327 C 131.73 -1.55737 -1.4251 0
M  V30 1328 O 131.078 -0.823556 -2.13143 0
M  V30 1329 C 131.288 -3.48098 0.250785 0
M  V30 1330 C 132.636 -4.24384 0.135509 0
M  V30 1331 O 133.66 -3.55738 0.181299 0
M  V30 1332 O 132.519 -5.46493 0.0268878 0
M  V30 1333 H 129.613 -0.8264 -0.0314845 0
M  V30 1334 H 132.159 -1.55232 0.685642 0
M  V30 1335 H 130.931 -3.7007 1.27139 0
M  V30 1336 H 130.554 -3.95323 -0.424937 0
M  V30 1337 N 131.551 -0.354651 -1.53558 0
M  V30 1338 C 132.481 0.489091 -2.2832 0
M  V30 1339 C 133.462 1.09324 -1.30316 0
M  V30 1340 O 134.647 1.11255 -1.59173 0
M  V30 1341 C 131.777 1.63456 -3.0643 0
M  V30 1342 C 130.731 1.1582 -4.12031 0
M  V30 1343 C 130.057 2.39305 -4.7816 0
M  V30 1344 C 131.357 0.250731 -5.21698 0
M  V30 1345 H 133.051 -0.134614 -2.99097 0
M  V30 1346 H 130.597 -0.0661826 -1.43848 0
M  V30 1347 H 132.55 2.23136 -3.57475 0
M  V30 1348 H 131.274 2.28533 -2.33325 0
M  V30 1349 H 129.933 0.584146 -3.61916 0
M  V30 1350 H 129.581 3.02814 -4.01637 0
M  V30 1351 H 129.281 2.08109 -5.49513 0
M  V30 1352 H 130.805 2.99691 -5.31994 0
M  V30 1353 H 132.219 0.754695 -5.68311 0
M  V30 1354 H 130.616 0.0301468 -6.00092 0
M  V30 1355 H 131.686 -0.710125 -4.79672 0
M  V30 1356 N 133.029 1.57378 -0.0835403 0
M  V30 1357 C 133.992 2.12252 0.864959 0
M  V30 1358 C 134.992 1.04916 1.21858 0
M  V30 1359 O 136.182 1.30853 1.14991 0
M  V30 1360 C 133.314 2.63358 2.16461 0
M  V30 1361 H 134.507 2.97371 0.388676 0
M  V30 1362 H 132.06 1.55423 0.165317 0
M  V30 1363 H 132.795 1.81727 2.686 0
M  V30 1364 H 132.58 3.41826 1.92087 0
M  V30 1365 H 134.07 3.05847 2.84337 0
M  V30 1366 N 134.507 -0.190092 1.56449 0
M  V30 1367 C 135.439 -1.25973 1.91477 0
M  V30 1368 C 136.452 -1.41452 0.805931 0
M  V30 1369 O 137.641 -1.41789 1.08435 0
M  V30 1370 C 134.741 -2.63117 2.13594 0
M  V30 1371 C 133.914 -2.69182 3.4476 0
M  V30 1372 C 132.973 -3.87557 3.5593 0
M  V30 1373 O 131.999 -3.74427 4.28711 0
M  V30 1374 N 133.201 -5.03224 2.89388 0
M  V30 1375 H 135.966 -0.962394 2.83828 0
M  V30 1376 H 133.527 -0.379981 1.57378 0
M  V30 1377 H 135.519 -3.40742 2.1835 0
M  V30 1378 H 134.089 -2.85319 1.27719 0
M  V30 1379 H 133.309 -1.77793 3.51828 0
M  V30 1380 H 134.597 -2.70229 4.31107 0
M  V30 1381 H 133.995 -5.16791 2.30094 0
M  V30 1382 H 132.552 -5.78778 2.99764 0
M  V30 1383 N 135.985 -1.50799 -0.457987 0
M  V30 1384 C 136.915 -1.73553 -1.5621 0
M  V30 1385 C 137.896 -0.584774 -1.59732 0
M  V30 1386 O 139.081 -0.825314 -1.7579 0
M  V30 1387 C 136.211 -1.84169 -2.94447 0
M  V30 1388 C 135.165 -2.99461 -3.0579 0
M  V30 1389 C 134.491 -2.95235 -4.45803 0
M  V30 1390 C 135.791 -4.39766 -2.81786 0
M  V30 1391 H 137.485 -2.66 -1.37421 0
M  V30 1392 H 135.031 -1.28002 -0.659662 0
M  V30 1393 H 136.984 -1.98672 -3.71628 0
M  V30 1394 H 135.708 -0.883545 -3.14422 0
M  V30 1395 H 134.367 -2.8463 -2.31044 0
M  V30 1396 H 134.015 -1.97239 -4.62715 0
M  V30 1397 H 133.715 -3.72642 -4.54326 0
M  V30 1398 H 135.239 -3.11803 -5.24987 0
M  V30 1399 H 136.653 -4.55054 -3.4871 0
M  V30 1400 H 135.05 -5.18722 -3.0174 0
M  V30 1401 H 136.12 -4.51229 -1.7754 0
M  V30 1402 N 137.463 0.71206 -1.40597 0
M  V30 1403 C 138.879 1.02058 -1.22704 0
M  V30 1404 C 139.079 2.01228 -0.104729 0
M  V30 1405 O 138.135 2.4674 0.53624 0
M  V30 1406 C 139.448 1.56094 -2.57012 0
M  V30 1407 C 140.996 1.6806 -2.64054 0
M  V30 1408 C 141.471 2.25501 -3.9864 0
M  V30 1409 N 142.962 2.32882 -4.004 0
M  V30 1410 C 143.697 2.78317 -5.01325 0
M  V30 1411 N 143.193 3.23478 -6.12645 0
M  V30 1412 N 144.986 2.77733 -4.88693 0
M  V30 1413 H 137.137 0.0547896 -2.12329 0
M  V30 1414 H 139.4 0.0869027 -0.944008 0
M  V30 1415 H 139.106 0.906865 -3.39807 0
M  V30 1416 H 138.98 2.54564 -2.78347 0
M  V30 1417 H 141.367 2.32583 -1.81629 0
M  V30 1418 H 141.448 0.681802 -2.46546 0
M  V30 1419 H 141.092 1.61598 -4.81506 0
M  V30 1420 H 141.022 3.26102 -4.13479 0
M  V30 1421 H 143.513 2.00991 -3.20017 0
M  V30 1422 H 143.826 3.56725 -6.85542 0
M  V30 1423 H 142.171 3.21429 -6.16205 0
M  V30 1424 H 145.362 2.4179 -4.00818 0
M  V30 1425 H 145.535 3.12826 -5.67489 0
M  V30 1426 N 138.941 1.26152 0.944643 0
M  V30 1427 C 139.904 1.07474 2.0244 0
M  V30 1428 C 140.904 0.0242064 1.60782 0
M  V30 1429 O 142.094 0.267302 1.72137 0
M  V30 1430 C 139.226 0.633956 3.34953 0
M  V30 1431 H 140.419 2.03336 2.20442 0
M  V30 1432 H 137.972 1.087 1.12312 0
M  V30 1433 H 138.707 -0.326811 3.22649 0
M  V30 1434 H 138.492 1.39247 3.66542 0
M  V30 1435 H 139.982 0.52501 4.14287 0
M  V30 1436 N 140.419 -1.14872 1.07899 0
M  V30 1437 C 141.329 -2.2341 0.715915 0
M  V30 1438 C 142.345 -1.71808 -0.275306 0
M  V30 1439 O 143.521 -2.01039 -0.120545 0
M  V30 1440 C 140.586 -3.46474 0.125168 0
M  V30 1441 C 139.647 -4.13039 1.17034 0
M  V30 1442 C 138.88 -5.30229 0.607688 0
M  V30 1443 O 139.103 -5.675 -0.574497 0
M  V30 1444 O 138.037 -5.86444 1.35526 0
M  V30 1445 H 141.863 -2.56808 1.62121 0
M  V30 1446 H 139.448 -1.22702 0.852322 0
M  V30 1447 H 141.33 -4.20917 -0.201729 0
M  V30 1448 H 140.005 -3.14811 -0.753364 0
M  V30 1449 H 138.912 -3.40493 1.54968 0
M  V30 1450 H 140.245 -4.48796 2.02097 0
M  V30 1451 N 141.898 -0.863906 -1.31812 0
M  V30 1452 C 143.146 -0.470904 -1.96537 0
M  V30 1453 C 143.467 0.978771 -1.68657 0
M  V30 1454 O 142.737 1.6853 -0.998717 0
M  V30 1455 H 141.317 -0.171148 -0.72713 0
M  V30 1456 H 143.979 -1.10236 -1.60729 0
M  V30 1457 H 143.075 -0.623616 -3.05806 0
M  V30 1458 N 143.376 1.44774 -0.622745 0
M  V30 1459 C 144.622 2.0242 -0.124083 0
M  V30 1460 C 144.955 1.4881 1.24777 0
M  V30 1461 O 144.23 0.668799 1.8264 0
M  V30 1462 C 144.513 3.59957 -0.101619 0
M  V30 1463 C 144.366 4.23867 -1.50521 0
M  V30 1464 C 145.685 4.36284 0.578272 0
M  V30 1465 H 142.804 0.735528 -0.0465645 0
M  V30 1466 H 145.446 1.72447 -0.797617 0
M  V30 1467 H 143.596 3.85623 0.471934 0
M  V30 1468 H 145.268 4.09336 -2.12701 0
M  V30 1469 H 143.511 3.81684 -2.06154 0
M  V30 1470 H 144.182 5.32843 -1.4416 0
M  V30 1471 H 146.658 4.16001 0.0906057 0
M  V30 1472 H 145.534 5.46004 0.563149 0
M  V30 1473 H 145.795 4.10271 1.64713 0
M  V30 1474 N 144.854 0.36279 1.53368 0
M  V30 1475 C 145.764 -0.492994 2.29362 0
M  V30 1476 C 146.78 -1.09507 1.35219 0
M  V30 1477 O 147.956 -1.10662 1.68273 0
M  V30 1478 C 145.021 -1.61855 3.066 0
M  V30 1479 C 144.082 -1.04429 4.16405 0
M  V30 1480 C 143.315 -2.11621 4.89951 0
M  V30 1481 O 143.538 -3.32684 4.63333 0
M  V30 1482 O 142.472 -1.74835 5.75948 0
M  V30 1483 H 146.298 0.125331 3.03441 0
M  V30 1484 H 143.883 0.127253 1.48857 0
M  V30 1485 H 145.765 -2.27302 3.54841 0
M  V30 1486 H 144.44 -2.22233 2.3536 0
M  V30 1487 H 143.347 -0.353819 3.72423 0
M  V30 1488 H 144.68 -0.485113 4.89804 0
M  V30 1489 N 146.332 -1.57332 0.0918853 0
M  V30 1490 C 147.581 -1.93412 -0.572249 0
M  V30 1491 C 147.894 -0.975515 -1.69538 0
M  V30 1492 O 149.1 -1.22991 -2.42045 0
M  V30 1493 C 147.556 -3.43648 -1.0693 0
M  V30 1494 C 147.164 -4.47994 0.0239049 0
M  V30 1495 C 148.908 -3.88695 -1.70635 0
M  V30 1496 C 146.815 -5.89381 -0.488319 0
M  V30 1497 H 145.745 -0.721939 -0.217532 0
M  V30 1498 H 148.396 -1.82735 0.167369 0
M  V30 1499 H 146.778 -3.49466 -1.8625 0
M  V30 1500 H 147.952 -4.53815 0.799277 0
M  V30 1501 H 146.267 -4.12536 0.565946 0
M  V30 1502 H 148.864 -4.91725 -2.10025 0
M  V30 1503 H 149.207 -3.27166 -2.57426 0
M  V30 1504 H 149.74 -3.85564 -0.979023 0
M  V30 1505 H 146.479 -6.54602 0.342906 0
M  V30 1506 H 145.999 -5.87037 -1.23077 0
M  V30 1507 H 147.678 -6.39863 -0.958317 0
M  V30 1508 N 147.81 0.181792 -1.56548 0
M  V30 1509 C 148.773 1.20894 -1.94724 0
M  V30 1510 C 149.773 1.37738 -0.829747 0
M  V30 1511 O 150.963 1.35323 -1.09697 0
M  V30 1512 C 148.095 2.57593 -2.23291 0
M  V30 1513 H 149.288 0.882275 -2.86629 0
M  V30 1514 H 146.841 0.423838 -1.50444 0
M  V30 1515 H 147.576 2.95291 -1.34067 0
M  V30 1516 H 147.361 2.46735 -3.04736 0
M  V30 1517 H 148.851 3.31637 -2.53785 0
M  V30 1518 N 149.288 1.51039 0.449983 0
M  V30 1519 C 150.535 1.63081 1.20045 0
M  V30 1520 C 150.863 0.341024 1.91487 0
M  V30 1521 O 150.118 -0.674276 1.83717 0
M  V30 1522 C 150.417 2.77556 2.25161 0
M  V30 1523 C 150.083 4.17289 1.70823 0
M  V30 1524 C 148.745 4.55305 1.55725 0
M  V30 1525 C 151.097 5.04536 1.3074 0
M  V30 1526 C 148.425 5.78287 0.989999 0
M  V30 1527 C 150.777 6.28085 0.754482 0
M  V30 1528 C 149.441 6.64885 0.590308 0
M  V30 1529 H 148.711 0.596755 0.439277 0
M  V30 1530 H 151.358 1.85037 0.49333 0
M  V30 1531 H 149.663 2.49771 3.01863 0
M  V30 1532 H 151.36 2.84073 2.83026 0
M  V30 1533 H 147.95 3.8731 1.83546 0
M  V30 1534 H 152.134 4.75782 1.41229 0
M  V30 1535 H 147.39 6.05456 0.850451 0
M  V30 1536 H 151.564 6.95038 0.435324 0
M  V30 1537 H 149.191 7.60055 0.14862 0
M  V30 1538 N 150.766 -0.704594 1.40972 0
M  V30 1539 C 151.994 -1.49354 1.43182 0
M  V30 1540 C 152.409 -1.88768 0.0345508 0
M  V30 1541 O 151.766 -1.56184 -0.944081 0
M  V30 1542 C 151.817 -2.76187 2.33244 0
M  V30 1543 O 151.538 -2.38436 3.67532 0
M  V30 1544 C 153.039 -3.7 2.44162 0
M  V30 1545 H 150.259 -0.460559 0.487982 0
M  V30 1546 H 152.803 -0.868261 1.85153 0
M  V30 1547 H 150.958 -3.34974 1.94606 0
M  V30 1548 H 151.372 -3.20126 4.15475 0
M  V30 1549 H 152.846 -4.55803 3.11364 0
M  V30 1550 H 153.323 -4.13867 1.47006 0
M  V30 1551 H 153.929 -3.17121 2.83398 0
M  V30 1552 N 152.244 -1.26651 -0.937939 0
M  V30 1553 C 153.655 -1.1125 -1.49934 0
M  V30 1554 C 154.006 0.306077 -1.93798 0
M  V30 1555 O 153.131 1.19792 -1.80219 0
M  V30 1556 C 153.726 -2.01339 -2.72485 0
M  V30 1557 C 152.285 -1.90074 -3.24883 0
M  V30 1558 C 151.432 -1.94498 -1.97651 0
M  V30 1559 H 154.383 -1.39693 -0.753091 0
M  V30 1560 H 154.404 -1.56319 -3.46907 0
M  V30 1561 H 153.916 -3.04577 -2.40529 0
M  V30 1562 H 152.017 -0.897827 -3.61621 0
M  V30 1563 H 152.13 -2.75778 -3.9177 0
M  V30 1564 H 150.494 -1.38591 -2.13693 0
M  V30 1565 H 151.277 -2.99372 -1.68022 0
M  V30 1566 N 153.722 1.14298 -1.08507 0
M  V30 1567 C 154.95 1.89219 -0.836876 0
M  V30 1568 C 155.365 1.78638 0.611054 0
M  V30 1569 O 154.722 1.14643 1.41998 0
M  V30 1570 C 154.773 3.39158 -1.25116 0
M  V30 1571 O 154.494 3.49449 -2.64229 0
M  V30 1572 C 155.995 4.31073 -1.03398 0
M  V30 1573 H 153.215 0.599328 -0.301739 0
M  V30 1574 H 155.759 1.44746 -1.44461 0
M  V30 1575 H 153.914 3.81251 -0.687514 0
M  V30 1576 H 154.328 4.42589 -2.81452 0
M  V30 1577 H 155.802 5.34646 -1.37323 0
M  V30 1578 H 156.279 4.3919 0.0289259 0
M  V30 1579 H 156.885 3.94738 -1.58311 0
M  V30 1580 N 155.201 0.870884 1.31352 0
M  V30 1581 C 156.429 0.49677 2.00848 0
M  V30 1582 C 156.844 -0.910998 1.65367 0
M  V30 1583 O 156.201 -1.59696 0.883374 0
M  V30 1584 C 156.252 0.645308 3.55694 0
M  V30 1585 O 155.973 1.99764 3.89905 0
M  V30 1586 C 157.474 0.272326 4.42463 0
M  V30 1587 H 154.694 0.193462 0.642506 0
M  V30 1588 H 157.238 1.1723 1.67563 0
M  V30 1589 H 155.393 0.0173176 3.87396 0
M  V30 1590 H 155.807 2.00607 4.84621 0
M  V30 1591 H 157.281 0.427208 5.50344 0
M  V30 1592 H 157.758 -0.788587 4.32062 0
M  V30 1593 H 158.364 0.876054 4.1618 0
M  V30 1594 N 156.679 -1.44442 0.630414 0
M  V30 1595 C 157.642 -2.29107 -0.0652523 0
M  V30 1596 C 158.642 -1.41002 -0.772995 0
M  V30 1597 O 159.832 -1.62881 -0.617692 0
M  V30 1598 C 156.964 -3.22564 -1.10296 0
M  V30 1599 H 158.157 -2.92103 0.679401 0
M  V30 1600 H 155.71 -1.51343 0.390517 0
M  V30 1601 H 156.445 -2.64416 -1.87762 0
M  V30 1602 H 156.23 -3.87491 -0.59941 0
M  V30 1603 H 157.72 -3.86167 -1.5895 0
M  V30 1604 N 158.157 -0.370918 -1.53173 0
M  V30 1605 C 159.12 0.460778 -2.24521 0
M  V30 1606 C 160.12 1.00536 -1.25496 0
M  V30 1607 O 161.31 0.890266 -1.49733 0
M  V30 1608 C 158.442 1.64457 -2.98608 0
M  V30 1609 H 159.635 -0.163613 -2.99453 0
M  V30 1610 H 157.188 -0.122699 -1.55818 0
M  V30 1611 H 157.923 2.30691 -2.2793 0
M  V30 1612 H 157.708 1.26099 -3.7127 0
M  V30 1613 H 159.198 2.23384 -3.5283 0
M  V30 1614 N 159.635 1.57281 -0.100228 0
M  V30 1615 C 160.568 2.09976 0.893612 0
M  V30 1616 C 161.546 1.01155 1.27304 0
M  V30 1617 O 162.73 1.28687 1.37739 0
M  V30 1618 C 159.857 2.58098 2.19324 0
M  V30 1619 C 158.903 3.78626 1.96328 0
M  V30 1620 S 159.736 5.21959 1.19662 0
M  V30 1621 C 160.892 5.73435 2.50844 0
M  V30 1622 H 161.125 2.93946 0.44534 0
M  V30 1623 H 158.658 1.53985 0.113167 0
M  V30 1624 H 160.616 2.8648 2.94005 0
M  V30 1625 H 159.277 1.74344 2.61272 0
M  V30 1626 H 158.47 4.10382 2.92579 0
M  V30 1627 H 158.072 3.50763 1.29775 0
M  V30 1628 H 160.364 5.82015 3.46792 0
M  V30 1629 H 161.307 6.7185 2.23659 0
M  V30 1630 H 161.715 5.01395 2.59352 0
M  V30 1631 N 161.113 -0.173488 1.56642 0
M  V30 1632 C 162.343 -0.904781 1.85734 0
M  V30 1633 C 162.751 -1.76431 0.68328 0
M  V30 1634 O 162.094 -1.802 -0.356865 0
M  V30 1635 C 162.156 -1.83382 3.09211 0
M  V30 1636 C 161.82 -1.15411 4.42187 0
M  V30 1637 C 162.817 -0.520609 5.17287 0
M  V30 1638 C 160.502 -1.15151 4.88923 0
M  V30 1639 C 162.496 0.106412 6.37311 0
M  V30 1640 C 160.183 -0.520664 6.08878 0
M  V30 1641 C 161.181 0.107196 6.82916 0
M  V30 1642 O 160.869 0.728102 8.00596 0
M  V30 1643 H 160.601 -0.268408 0.62043 0
M  V30 1644 H 163.155 -0.179096 2.04618 0
M  V30 1645 H 161.385 -2.59976 2.86268 0
M  V30 1646 H 163.074 -2.43476 3.24768 0
M  V30 1647 H 163.84 -0.514606 4.82262 0
M  V30 1648 H 159.719 -1.62961 4.31236 0
M  V30 1649 H 163.263 0.597081 6.9504 0
M  V30 1650 H 159.16 -0.524242 6.43368 0
M  V30 1651 H 159.928 0.627138 8.16094 0
M  V30 1652 N 162.591 -1.51276 -0.441967 0
M  V30 1653 C 164.002 -1.56244 -1.02199 0
M  V30 1654 C 164.353 -0.383149 -1.92422 0
M  V30 1655 O 163.478 0.500613 -2.1053 0
M  V30 1656 C 164.073 -2.83162 -1.86024 0
M  V30 1657 C 162.632 -2.90716 -2.39084 0
M  V30 1658 C 161.779 -2.50858 -1.18175 0
M  V30 1659 H 164.73 -1.5712 -0.223416 0
M  V30 1660 H 164.751 -2.66663 -2.71425 0
M  V30 1661 H 164.263 -3.68974 -1.20331 0
M  V30 1662 H 162.364 -2.09323 -3.08244 0
M  V30 1663 H 162.477 -3.94266 -2.72198 0
M  V30 1664 H 160.841 -2.03951 -1.52565 0
M  V30 1665 H 161.624 -3.3901 -0.541001 0
M  V30 1666 N 164.069 0.697108 -1.41344 0
M  V30 1667 C 165.346 1.45154 -1.31109 0
M  V30 1668 C 165.726 2.11009 0.0620449 0
M  V30 1669 O 165.074 2.01571 1.07618 0
M  V30 1670 C 165.284 2.47223 -2.46337 0
M  V30 1671 C 166.632 3.1252 -2.87431 0
M  V30 1672 O 167.656 2.57547 -2.46065 0
M  V30 1673 O 166.515 4.12083 -3.58957 0
M  V30 1674 H 163.609 0.646365 -0.515889 0
M  V30 1675 H 166.155 0.727716 -1.53305 0
M  V30 1676 H 164.927 1.97204 -3.37974 0
M  V30 1677 H 164.55 3.27116 -2.2601 0
M  V30 1678 N 165.547 1.27147 0.931209 0
M  V30 1679 C 166.795 1.13055 1.6752 0
M  V30 1680 C 167.116 -0.324791 1.92276 0
M  V30 1681 O 166.386 -1.22775 1.52654 0
M  V30 1682 H 164.966 0.415391 0.620854 0
M  V30 1683 H 167.628 1.59623 1.11833 0
M  V30 1684 H 166.724 1.65694 2.64485 0
M  V30 1685 N 167.025 -1.13721 1.09112 0
M  V30 1686 C 167.955 -2.21148 0.749385 0
M  V30 1687 C 168.936 -1.6792 -0.271475 0
M  V30 1688 O 170.121 -1.93693 -0.140251 0
M  V30 1689 C 167.251 -3.46905 0.165659 0
M  V30 1690 C 166.205 -4.13203 1.11567 0
M  V30 1691 C 165.531 -5.33248 0.393809 0
M  V30 1692 C 166.831 -4.60912 2.45678 0
M  V30 1693 H 168.525 -2.4999 1.64758 0
M  V30 1694 H 166.071 -1.20156 0.793626 0
M  V30 1695 H 168.024 -4.21313 -0.085466 0
M  V30 1696 H 166.748 -3.17449 -0.767714 0
M  V30 1697 H 165.407 -3.40758 1.35202 0
M  V30 1698 H 165.055 -5.00054 -0.543599 0
M  V30 1699 H 164.755 -5.78552 1.02721 0
M  V30 1700 H 166.279 -6.10413 0.150908 0
M  V30 1701 H 167.693 -5.26759 2.26269 0
M  V30 1702 H 166.09 -5.16944 3.04776 0
M  V30 1703 H 167.16 -3.75603 3.06677 0
M  V30 1704 N 168.503 -0.877838 -1.30888 0
M  V30 1705 C 169.919 -0.570844 -1.49042 0
M  V30 1706 C 170.119 0.893159 -1.80624 0
M  V30 1707 O 169.175 1.67485 -1.88958 0
M  V30 1708 C 170.488 -1.47784 -2.61878 0
M  V30 1709 C 172.036 -1.48071 -2.75761 0
M  V30 1710 C 172.511 -2.37347 -3.91702 0
M  V30 1711 N 174.002 -2.35271 -3.99001 0
M  V30 1712 C 174.737 -3.01063 -4.88004 0
M  V30 1713 N 174.233 -3.76055 -5.81854 0
M  V30 1714 N 176.026 -2.90332 -4.81315 0
M  V30 1715 H 168.177 -1.82502 -1.0866 0
M  V30 1716 H 170.44 -0.780797 -0.537644 0
M  V30 1717 H 170.146 -2.51993 -2.45341 0
M  V30 1718 H 170.02 -1.18215 -3.58197 0
M  V30 1719 H 172.407 -0.446166 -2.91708 0
M  V30 1720 H 172.488 -1.81668 -1.80085 0
M  V30 1721 H 172.132 -3.40883 -3.76512 0
M  V30 1722 H 172.062 -2.01071 -4.86701 0
M  V30 1723 H 174.553 -1.80768 -3.3186 0
M  V30 1724 H 174.866 -4.23366 -6.46514 0
M  V30 1725 H 173.211 -3.80163 -5.81808 0
M  V30 1726 H 176.402 -2.31278 -4.06974 0
M  V30 1727 H 176.575 -3.41885 -5.50471 0
M  V30 1728 N 169.982 1.44106 -0.638065 0
M  V30 1729 C 171.21 2.06336 -0.152615 0
M  V30 1730 C 171.625 1.47731 1.17563 0
M  V30 1731 O 170.982 0.602806 1.72257 0
M  V30 1732 C 171.033 3.61479 -0.0391491 0
M  V30 1733 O 170.754 4.17903 -1.31487 0
M  V30 1734 C 172.255 4.40757 0.474176 0
M  V30 1735 H 169.475 0.665862 -0.0828776 0
M  V30 1736 H 172.019 1.84862 -0.87443 0
M  V30 1737 H 170.174 3.82191 0.633142 0
M  V30 1738 H 170.588 5.11416 -1.16421 0
M  V30 1739 H 172.062 5.49707 0.502562 0
M  V30 1740 H 172.539 4.12697 1.50258 0
M  V30 1741 H 173.145 4.24979 -0.165102 0
M  V30 1742 N 171.46 0.379036 1.52974 0
M  V30 1743 C 172.688 -0.20679 2.05864 0
M  V30 1744 C 173.103 -1.41356 1.25155 0
M  V30 1745 O 172.46 -1.8009 0.295588 0
M  V30 1746 C 172.511 -0.587045 3.56702 0
M  V30 1747 O 172.232 0.571776 4.34353 0
M  V30 1748 C 173.733 -1.22983 4.25899 0
M  V30 1749 H 170.953 -0.0336123 0.670158 0
M  V30 1750 H 173.497 0.541298 1.97206 0
M  V30 1751 H 171.652 -1.28504 3.65466 0
M  V30 1752 H 172.066 0.261544 5.23847 0
M  V30 1753 H 173.54 -1.44635 5.32715 0
M  V30 1754 H 174.017 -2.19416 3.80465 0
M  V30 1755 H 174.623 -0.572892 4.21424 0
M  V30 1756 N 172.938 -1.57226 0.108567 0
M  V30 1757 C 174.184 -1.95121 -0.552761 0
M  V30 1758 C 174.517 -0.991345 -1.66991 0
M  V30 1759 O 173.792 -0.0267211 -1.94482 0
M  V30 1760 C 174.075 -3.43039 -1.09528 0
M  V30 1761 C 173.928 -4.49797 0.0177332 0
M  V30 1762 C 175.247 -3.92567 -1.98945 0
M  V30 1763 H 172.366 -0.709496 -0.199461 0
M  V30 1764 H 175.008 -1.89126 0.182011 0
M  V30 1765 H 173.158 -3.48279 -1.72146 0
M  V30 1766 H 174.83 -4.56661 0.652584 0
M  V30 1767 H 173.073 -4.284 0.682309 0
M  V30 1768 H 173.744 -5.50528 -0.402919 0
M  V30 1769 H 176.22 -3.89565 -1.46214 0
M  V30 1770 H 175.096 -4.96605 -2.33827 0
M  V30 1771 H 175.357 -3.32648 -2.91201 0
M  V30 1772 N 174.416 0.165178 -1.56732 0
M  V30 1773 C 175.348 1.22911 -1.93457 0
M  V30 1774 C 176.361 1.40152 -0.828333 0
M  V30 1775 O 177.55 1.40046 -1.10677 0
M  V30 1776 C 174.65 2.59686 -2.17753 0
M  V30 1777 C 173.823 2.63663 -3.48999 0
M  V30 1778 C 172.882 3.81845 -3.62051 0
M  V30 1779 O 171.908 3.67559 -4.34613 0
M  V30 1780 N 173.11 4.98557 -2.97357 0
M  V30 1781 H 175.875 0.917118 -2.85323 0
M  V30 1782 H 173.436 0.354895 -1.57962 0
M  V30 1783 H 175.428 3.37225 -2.23743 0
M  V30 1784 H 173.998 2.83251 -1.32242 0
M  V30 1785 H 173.218 1.72173 -3.54612 0
M  V30 1786 H 174.506 2.63336 -4.35352 0
M  V30 1787 H 173.904 5.13065 -2.38287 0
M  V30 1788 H 172.461 5.73936 -3.08934 0
M  V30 1789 N 175.894 1.51508 0.433938 0
M  V30 1790 C 177.305 1.56784 1.01369 0
M  V30 1791 C 177.656 0.393349 1.92217 0
M  V30 1792 O 176.781 -0.489441 2.10792 0
M  V30 1793 C 177.376 2.84144 1.8452 0
M  V30 1794 C 175.935 2.9198 2.37539 0
M  V30 1795 C 175.082 2.51482 1.16843 0
M  V30 1796 H 178.033 1.57236 0.215081 0
M  V30 1797 H 178.054 2.68098 2.70007 0
M  V30 1798 H 177.566 3.69607 1.18373 0
M  V30 1799 H 175.667 2.10955 3.0713 0
M  V30 1800 H 175.78 3.95704 2.70103 0
M  V30 1801 H 174.144 2.04758 1.51481 0
M  V30 1802 H 174.927 3.39293 0.523015 0
M  V30 1803 N 177.372 -0.689602 1.41712 0
M  V30 1804 C 178.62 -1.4468 1.4111 0
M  V30 1805 C 178.941 -1.94986 0.0232196 0
M  V30 1806 O 178.211 -1.72097 -0.935913 0
M  V30 1807 H 176.791 -0.536847 0.519427 0
M  V30 1808 H 179.453 -0.815825 1.77004 0
M  V30 1809 H 178.549 -2.30706 2.10193 0
M  V30 1810 N 178.85 -1.27639 -0.924453 0
M  V30 1811 C 180.261 -1.12834 -1.48746 0
M  V30 1812 C 180.612 0.285505 -1.94112 0
M  V30 1813 O 179.737 1.17874 -1.81479 0
M  V30 1814 C 180.332 -2.04217 -2.70334 0
M  V30 1815 C 178.891 -1.93509 -3.22848 0
M  V30 1816 C 178.038 -1.96583 -1.95577 0
M  V30 1817 H 180.989 -1.40484 -0.738233 0
M  V30 1818 H 181.01 -1.59989 -3.4523 0
M  V30 1819 H 180.522 -3.07111 -2.37285 0
M  V30 1820 H 178.623 -0.936131 -3.60649 0
M  V30 1821 H 178.736 -2.79917 -3.88823 0
M  V30 1822 H 177.1 -1.4085 -2.12211 0
M  V30 1823 H 177.883 -3.01137 -1.64837 0
M  V30 1824 N 180.328 1.1314 -1.09713 0
M  V30 1825 C 181.258 2.20748 -0.761102 0
M  V30 1826 C 182.239 1.68061 0.262566 0
M  V30 1827 O 183.424 1.93765 0.129977 0
M  V30 1828 C 180.554 3.46812 -0.184054 0
M  V30 1829 C 179.508 4.12606 -1.13757 0
M  V30 1830 C 178.834 5.33031 -0.422083 0
M  V30 1831 C 180.134 4.59603 -2.48118 0
M  V30 1832 H 181.828 2.49113 -1.66082 0
M  V30 1833 H 179.374 1.19734 -0.799987 0
M  V30 1834 H 181.327 4.21353 0.0631215 0
M  V30 1835 H 180.051 3.17851 0.750868 0
M  V30 1836 H 178.71 3.40036 -1.37007 0
M  V30 1837 H 178.358 5.00335 0.517072 0
M  V30 1838 H 178.058 5.77999 -1.05788 0
M  V30 1839 H 179.582 6.10325 -0.183277 0
M  V30 1840 H 180.996 5.25552 -2.29059 0
M  V30 1841 H 179.393 5.15321 -3.07514 0
M  V30 1842 H 180.463 3.73971 -3.08665 0
M  V30 1843 N 181.806 0.884767 1.30421 0
M  V30 1844 C 182.769 0.356277 2.26414 0
M  V30 1845 C 183.769 -0.501124 1.52792 0
M  V30 1846 O 184.959 -0.30831 1.7145 0
M  V30 1847 C 182.091 -0.492316 3.37326 0
M  V30 1848 H 183.284 1.20389 2.74675 0
M  V30 1849 H 180.837 0.661607 1.41607 0
M  V30 1850 H 181.572 -1.36052 2.94381 0
M  V30 1851 H 181.357 0.121832 3.91911 0
M  V30 1852 H 182.847 -0.853871 4.08777 0
M  V30 1853 N 183.284 -1.43765 0.645699 0
M  V30 1854 C 184.247 -2.29163 -0.0409488 0
M  V30 1855 C 185.247 -1.41813 -0.757996 0
M  V30 1856 O 186.437 -1.63527 -0.600382 0
M  V30 1857 C 183.569 -3.23716 -1.06869 0
M  V30 1858 H 184.762 -2.91366 0.710345 0
M  V30 1859 H 182.315 -1.5092 0.406547 0
M  V30 1860 H 183.05 -2.66393 -1.84947 0
M  V30 1861 H 182.835 -3.88105 -0.558277 0
M  V30 1862 H 184.325 -3.87831 -1.54845 0
M  V30 1863 N 184.763 -0.387143 -1.52771 0
M  V30 1864 C 185.673 0.456442 -2.30117 0
M  V30 1865 C 186.689 1.07342 -1.36944 0
M  V30 1866 O 187.865 1.07971 -1.70013 0
M  V30 1867 C 184.93 1.56957 -3.09136 0
M  V30 1868 C 183.991 0.977916 -4.18014 0
M  V30 1869 C 183.224 2.038 -4.93256 0
M  V30 1870 O 183.447 3.25271 -4.68567 0
M  V30 1871 O 182.381 1.6565 -5.78657 0
M  V30 1872 H 186.207 -0.17359 -3.03203 0
M  V30 1873 H 183.792 -0.150919 -1.48636 0
M  V30 1874 H 185.674 2.21628 -3.58412 0
M  V30 1875 H 184.349 2.18461 -2.38865 0
M  V30 1876 H 183.256 0.294525 -3.72939 0
M  V30 1877 H 184.589 0.407128 -4.90513 0
M  V30 1878 N 186.241 1.57166 -0.116904 0
M  V30 1879 C 187.171 2.18222 0.830759 0
M  V30 1880 C 188.152 1.12167 1.27877 0
M  V30 1881 O 189.337 1.40394 1.34176 0
M  V30 1882 C 186.467 2.77996 2.08172 0
M  V30 1883 C 185.421 3.89614 1.77157 0
M  V30 1884 C 184.747 4.36187 3.09265 0
M  V30 1885 C 186.047 5.1181 1.04151 0
M  V30 1886 H 187.741 2.97664 0.321992 0
M  V30 1887 H 185.287 1.4318 0.153434 0
M  V30 1888 H 187.24 3.19366 2.74924 0
M  V30 1889 H 185.964 1.9584 2.6137 0
M  V30 1890 H 184.623 3.48816 1.12796 0
M  V30 1891 H 184.271 3.50893 3.60393 0
M  V30 1892 H 183.971 5.11455 2.89288 0
M  V30 1893 H 185.495 4.80207 3.77139 0
M  V30 1894 H 186.909 5.50214 1.61052 0
M  V30 1895 H 185.306 5.92648 0.942762 0
M  V30 1896 H 186.376 4.84892 0.0279022 0
M  V30 1897 N 187.719 -0.156864 1.56817 0
M  V30 1898 C 188.629 -1.2136 2.00771 0
M  V30 1899 C 189.645 -1.47598 0.921459 0
M  V30 1900 O 190.821 -1.59462 1.2302 0
M  V30 1901 C 187.886 -2.52943 2.37109 0
M  V30 1902 C 186.947 -2.34439 3.59634 0
M  V30 1903 C 186.18 -3.59748 3.94229 0
M  V30 1904 O 186.403 -4.65526 3.29609 0
M  V30 1905 O 185.337 -3.52998 4.8752 0
M  V30 1906 H 189.163 -0.870468 2.90958 0
M  V30 1907 H 186.748 -0.36484 1.44877 0
M  V30 1908 H 188.63 -3.30538 2.61386 0
M  V30 1909 H 187.305 -2.86806 1.5008 0
M  V30 1910 H 186.212 -1.54828 3.40557 0
M  V30 1911 H 187.545 -2.05496 4.4725 0
M  V30 1912 N 189.197 -1.51736 -0.425897 0
M  V30 1913 C 190.445 -1.64644 -1.17204 0
M  V30 1914 C 190.766 -0.370486 -1.91448 0
M  V30 1915 O 190.036 0.614088 -1.86026 0
M  V30 1916 H 188.616 -0.606819 -0.435638 0
M  V30 1917 H 191.278 -1.88713 -0.487177 0
M  V30 1918 H 190.374 -2.47958 -1.89534 0
M  V30 1919 N 190.675 0.682077 -1.42076 0
M  V30 1920 C 191.923 1.4393 -1.41876 0
M  V30 1921 C 192.244 1.94971 -0.0335599 0
M  V30 1922 O 191.514 1.72591 0.926773 0
M  V30 1923 H 190.094 0.534085 -0.522267 0
M  V30 1924 H 192.756 0.806427 -1.77434 0
M  V30 1925 H 191.852 2.29588 -2.11414 0
M  V30 1926 N 192.153 1.28127 0.917671 0
M  V30 1927 C 193.564 1.13622 1.48145 0
M  V30 1928 C 193.915 -0.275207 1.9426 0
M  V30 1929 O 193.04 -1.1691 1.82102 0
M  V30 1930 C 193.635 2.05648 2.69248 0
M  V30 1931 C 192.194 1.95219 3.21818 0
M  V30 1932 C 191.341 1.97618 1.94532 0
M  V30 1933 H 194.292 1.40874 0.730772 0
M  V30 1934 H 194.313 1.61818 3.44377 0
M  V30 1935 H 193.825 3.08365 2.35653 0
M  V30 1936 H 191.926 0.955244 3.60147 0
M  V30 1937 H 192.039 2.81976 3.87333 0
M  V30 1938 H 190.403 1.41973 2.11461 0
M  V30 1939 H 191.186 3.02007 1.63238 0
M  V30 1940 N 193.631 -1.12557 1.10312 0
M  V30 1941 C 195.047 -1.36036 0.834649 0
M  V30 1942 C 195.247 -1.93946 -0.546539 0
M  V30 1943 O 194.303 -2.16484 -1.29966 0
M  V30 1944 C 195.616 -2.30312 1.9333 0
M  V30 1945 C 197.164 -2.43906 1.9616 0
M  V30 1946 C 197.639 -3.41496 3.05195 0
M  V30 1947 N 199.13 -3.49053 3.04494 0
M  V30 1948 C 199.865 -4.24471 3.85502 0
M  V30 1949 N 199.361 -5.02966 4.76442 0
M  V30 1950 N 201.154 -4.19864 3.73725 0
M  V30 1951 H 193.305 -0.733246 1.99342 0
M  V30 1952 H 195.568 -0.385234 0.866198 0
M  V30 1953 H 195.274 -1.94933 2.92735 0
M  V30 1954 H 195.148 -3.30421 1.81939 0
M  V30 1955 H 197.535 -2.78567 0.973886 0
M  V30 1956 H 197.616 -1.4369 2.11629 0
M  V30 1957 H 197.26 -3.07565 4.04186 0
M  V30 1958 H 197.19 -4.41539 2.86968 0
M  V30 1959 H 199.681 -2.93053 2.38596 0
M  V30 1960 H 199.994 -5.57846 5.34815 0
M  V30 1961 H 198.339 -5.02167 4.80472 0
M  V30 1962 H 201.53 -3.57623 3.02032 0
M  V30 1963 H 201.703 -4.78386 4.37093 0
M  V30 1964 N 195.109 -0.891671 -1.2995 0
M  V30 1965 C 196.52 -0.563104 -1.78006 0
M  V30 1966 C 196.871 0.920978 -1.73241 0
M  V30 1967 O 195.996 1.71987 -1.31337 0
M  V30 1968 C 196.591 -1.01539 -3.23226 0
M  V30 1969 C 195.15 -0.738124 -3.69092 0
M  V30 1970 C 194.297 -1.19461 -2.50249 0
M  V30 1971 H 197.248 -1.07522 -1.16725 0
M  V30 1972 H 197.269 -0.347217 -3.78912 0
M  V30 1973 H 196.781 -2.09555 -3.26662 0
M  V30 1974 H 194.882 0.329766 -3.71138 0
M  V30 1975 H 194.995 -1.33037 -4.60259 0
M  V30 1976 H 193.359 -0.613787 -2.47194 0
M  V30 1977 H 194.142 -2.28265 -2.56417 0
M  V30 1978 N 196.587 1.43421 -0.653314 0
M  V30 1979 C 197.815 2.06163 -0.174491 0
M  V30 1980 C 198.23 1.48969 1.1599 0
M  V30 1981 O 197.587 0.621042 1.71608 0
M  V30 1982 C 197.638 3.61417 -0.0774865 0
M  V30 1983 O 197.359 4.16485 -1.35912 0
M  V30 1984 C 198.86 4.41235 0.427402 0
M  V30 1985 H 196.08 0.664946 -0.0899353 0
M  V30 1986 H 198.624 1.83924 -0.893988 0
M  V30 1987 H 196.779 3.82841 0.59257 0
M  V30 1988 H 197.193 5.10153 -1.21839 0
M  V30 1989 H 198.667 5.5021 0.44423 0
M  V30 1990 H 199.144 4.14268 1.45873 0
M  V30 1991 H 199.75 4.2478 -0.210167 0
M  V30 1992 N 198.065 0.39524 1.52563 0
M  V30 1993 C 199.015 -0.4541 2.23432 0
M  V30 1994 C 199.999 -1.02482 1.24042 0
M  V30 1995 O 201.191 -0.949938 1.49349 0
M  V30 1996 C 198.32 -1.57769 3.049 0
M  V30 1997 C 197.406 -1.01842 4.1169 0
M  V30 1998 N 197.797 -0.184613 5.05463 0
M  V30 1999 C 196.095 -1.29033 4.26927 0
M  V30 2000 C 196.796 0.125013 5.81566 0
M  V30 2001 N 195.772 -0.480498 5.41472 0
M  V30 2002 H 199.574 0.189413 2.93289 0
M  V30 2003 H 197.088 0.204877 1.61102 0
M  V30 2004 H 199.085 -2.19862 3.54212 0
M  V30 2005 H 197.745 -2.22397 2.36579 0
M  V30 2006 H 198.756 0.178602 5.17592 0
M  V30 2007 H 195.433 -1.93721 3.69836 0
M  V30 2008 H 196.823 0.800962 6.67109 0
M  V30 2009 N 199.544 -1.57102 0.125237 0
M  V30 2010 C 200.791 -1.95407 -0.531248 0
M  V30 2011 C 201.119 -1.0089 -1.66287 0
M  V30 2012 O 200.374 -0.0339431 -1.95671 0
M  V30 2013 C 200.673 -3.40096 -1.09862 0
M  V30 2014 C 200.339 -4.50815 -0.0876989 0
M  V30 2015 C 199.001 -4.80824 0.19026 0
M  V30 2016 C 201.353 -5.17724 0.600902 0
M  V30 2017 C 198.681 -5.75058 1.163 0
M  V30 2018 C 201.033 -6.13005 1.56231 0
M  V30 2019 C 199.697 -6.41403 1.8482 0
M  V30 2020 H 198.967 -0.715046 -0.194397 0
M  V30 2021 H 201.614 -1.90373 0.207463 0
M  V30 2022 H 199.919 -3.41855 -1.91422 0
M  V30 2023 H 201.616 -3.6705 -1.61478 0
M  V30 2024 H 198.206 -4.27444 -0.314528 0
M  V30 2025 H 202.39 -4.94691 0.399333 0
M  V30 2026 H 197.646 -5.95362 1.39117 0
M  V30 2027 H 201.82 -6.63934 2.10153 0
M  V30 2028 H 199.447 -7.14229 2.60349 0
M  V30 2029 N 201.022 0.148545 -1.56898 0
M  V30 2030 C 201.985 1.16736 -1.97244 0
M  V30 2031 C 202.985 1.35947 -0.858777 0
M  V30 2032 O 204.175 1.32966 -1.12542 0
M  V30 2033 C 201.307 2.52798 -2.28705 0
M  V30 2034 H 202.5 0.821279 -2.88435 0
M  V30 2035 H 200.053 0.391831 -1.51309 0
M  V30 2036 H 200.788 2.92381 -1.403 0
M  V30 2037 H 200.573 2.40216 -3.09901 0
M  V30 2038 H 202.063 3.26179 -2.60762 0
M  V30 2039 N 202.5 1.5196 0.417844 0
M  V30 2040 C 203.748 1.65263 1.16329 0
M  V30 2041 C 204.069 0.380634 1.91249 0
M  V30 2042 O 203.339 -0.604214 1.86349 0
M  V30 2043 H 201.919 0.60912 0.432414 0
M  V30 2044 H 204.581 1.88969 0.477162 0
M  V30 2045 H 203.677 2.4896 1.88217 0
M  V30 2046 N 203.978 -0.674533 1.42435 0
M  V30 2047 C 205.224 -1.43671 1.43131 0
M  V30 2048 C 205.557 -1.94142 0.0476021 0
M  V30 2049 O 204.832 -1.70924 -0.928188 0
M  V30 2050 C 205.115 -2.63355 2.45594 0
M  V30 2051 C 204.968 -2.18514 3.93156 0
M  V30 2052 C 206.287 -3.65571 2.45043 0
M  V30 2053 H 203.406 -0.521077 0.521198 0
M  V30 2054 H 206.048 -0.766551 1.7385 0
M  V30 2055 H 204.198 -3.2053 2.19528 0
M  V30 2056 H 205.87 -1.66504 4.30202 0
M  V30 2057 H 204.113 -1.50086 4.07009 0
M  V30 2058 H 204.784 -3.04484 4.60428 0
M  V30 2059 H 207.26 -3.18113 2.68223 0
M  V30 2060 H 206.136 -4.46893 3.18713 0
M  V30 2061 H 206.397 -4.16716 1.47649 0
M  V30 2062 N 205.456 -1.28612 -0.910864 0
M  V30 2063 C 206.386 -1.15326 -2.03032 0
M  V30 2064 C 207.367 -0.0502924 -1.70026 0
M  V30 2065 O 208.552 -0.227797 -1.92859 0
M  V30 2066 C 205.682 -0.817343 -3.37545 0
M  V30 2067 C 204.636 -1.8754 -3.84724 0
M  V30 2068 C 203.962 -1.39305 -5.16235 0
M  V30 2069 C 205.262 -3.28244 -4.06267 0
M  V30 2070 H 206.956 -2.08975 -2.14406 0
M  V30 2071 H 204.502 -1.00612 -1.03021 0
M  V30 2072 H 206.455 -0.711151 -4.15356 0
M  V30 2073 H 205.179 0.154846 -3.26233 0
M  V30 2074 H 203.838 -1.97079 -3.09121 0
M  V30 2075 H 203.486 -0.409846 -5.01328 0
M  V30 2076 H 203.186 -2.10057 -5.48771 0
M  V30 2077 H 204.71 -1.30014 -5.96598 0
M  V30 2078 H 206.124 -3.21611 -4.74594 0
M  V30 2079 H 204.521 -3.96855 -4.5014 0
M  V30 2080 H 205.591 -3.72048 -3.10979 0
M  V30 2081 N 206.934 1.1197 -1.10907 0
M  V30 2082 C 208.162 1.87402 -0.876824 0
M  V30 2083 C 208.577 1.79894 0.573025 0
M  V30 2084 O 207.934 1.17629 1.39534 0
M  V30 2085 C 207.985 3.36428 -1.32282 0
M  V30 2086 O 207.706 3.43765 -2.71582 0
M  V30 2087 C 209.207 4.28783 -1.12518 0
M  V30 2088 H 206.427 0.592793 -0.314384 0
M  V30 2089 H 208.971 1.41649 -1.47499 0
M  V30 2090 H 207.126 3.79706 -0.768229 0
M  V30 2091 H 207.54 4.3652 -2.90776 0
M  V30 2092 H 209.014 5.31613 -1.48633 0
M  V30 2093 H 209.491 4.39153 -0.0642394 0
M  V30 2094 H 210.097 3.91291 -1.66648 0
M  V30 2095 N 208.412 0.89855 1.29475 0
M  V30 2096 C 209.658 0.524658 1.95896 0
M  V30 2097 C 209.991 -0.926468 1.70676 0
M  V30 2098 O 209.266 -1.65665 1.01908 0
M  V30 2099 C 209.549 0.81633 3.50725 0
M  V30 2100 C 209.402 2.31907 3.85408 0
M  V30 2101 C 210.721 0.302038 4.39062 0
M  V30 2102 H 207.84 0.19209 0.711527 0
M  V30 2103 H 210.482 1.12502 1.53112 0
M  V30 2104 H 208.632 0.305369 3.87298 0
M  V30 2105 H 210.304 2.89949 3.58786 0
M  V30 2106 H 208.547 2.78027 3.32992 0
M  V30 2107 H 209.218 2.47373 4.93468 0
M  V30 2108 H 211.694 0.739551 4.09475 0
M  V30 2109 H 210.57 0.535331 5.46283 0
M  V30 2110 H 210.831 -0.797216 4.34853 0
M  V30 2111 N 209.89 -1.43072 0.660911 0
M  V30 2112 C 211.136 -2.0202 0.177708 0
M  V30 2113 C 211.469 -1.52066 -1.20787 0
M  V30 2114 O 210.744 -0.716987 -1.80802 0
M  V30 2115 C 211.027 -3.59561 0.197019 0
M  V30 2116 C 210.88 -4.19727 1.61706 0
M  V30 2117 C 212.199 -4.37664 -0.462396 0
M  V30 2118 H 209.318 -0.734034 0.0660494 0
M  V30 2119 H 211.96 -1.70272 0.843058 0
M  V30 2120 H 210.11 -3.86739 -0.369527 0
M  V30 2121 H 211.782 -4.03553 2.23479 0
M  V30 2122 H 210.025 -3.76084 2.16201 0
M  V30 2123 H 210.696 -5.28834 1.58237 0
M  V30 2124 H 213.172 -4.16095 0.0197215 0
M  V30 2125 H 212.048 -5.47305 -0.418188 0
M  V30 2126 H 212.309 -4.14493 -1.53778 0
M  V30 2127 N 211.368 -0.403325 -1.52352 0
M  V30 2128 C 212.298 0.416205 -2.29761 0
M  V30 2129 C 213.279 1.05123 -1.33728 0
M  V30 2130 O 214.464 1.06134 -1.62632 0
M  V30 2131 C 211.594 1.53624 -3.11475 0
M  V30 2132 C 210.548 1.02653 -4.15507 0
M  V30 2133 C 209.874 2.23971 -4.85532 0
M  V30 2134 C 211.174 0.08463 -5.22231 0
M  V30 2135 H 212.868 -0.229701 -2.98518 0
M  V30 2136 H 210.414 -0.111913 -1.43564 0
M  V30 2137 H 212.367 2.1165 -3.64393 0
M  V30 2138 H 211.091 2.20994 -2.40477 0
M  V30 2139 H 209.75 0.46871 -3.63591 0
M  V30 2140 H 209.398 2.89883 -4.11068 0
M  V30 2141 H 209.098 1.90521 -5.55856 0
M  V30 2142 H 210.622 2.82614 -5.41259 0
M  V30 2143 H 212.036 0.573509 -5.70424 0
M  V30 2144 H 210.433 -0.160783 -5.99885 0
M  V30 2145 H 211.503 -0.86237 -4.7717 0
M  V30 2146 N 212.846 1.57033 -0.133567 0
M  V30 2147 C 213.793 2.16074 0.811208 0
M  V30 2148 C 214.763 1.08979 1.2535 0
M  V30 2149 O 215.948 1.36958 1.32843 0
M  V30 2150 C 213.088 2.77595 2.05024 0
M  V30 2151 C 212.201 3.99042 1.65498 0
M  V30 2152 C 211.336 4.48603 2.84479 0
M  V30 2153 C 210.375 5.62547 2.41262 0
M  V30 2154 N 209.512 6.06787 3.53206 0
M  V30 2155 H 214.352 2.96477 0.300906 0
M  V30 2156 H 211.889 1.46462 0.136822 0
M  V30 2157 H 213.847 3.11402 2.77642 0
M  V30 2158 H 212.477 1.99859 2.53488 0
M  V30 2159 H 211.529 3.71302 0.826981 0
M  V30 2160 H 212.841 4.81629 1.29748 0
M  V30 2161 H 211.995 4.84395 3.65303 0
M  V30 2162 H 210.734 3.64995 3.23465 0
M  V30 2163 H 209.739 5.26345 1.58874 0
M  V30 2164 H 210.964 6.47931 2.03377 0
M  V30 2165 H 208.91 5.26117 3.91838 0
M  V30 2166 H 208.827 6.84266 3.21427 0
M  V30 2167 H 210.095 6.4722 4.34427 0
M  V30 2168 N 214.325 -0.140222 1.56975 0
M  V30 2169 C 215.255 -1.17456 2.01808 0
M  V30 2170 C 216.236 -1.44415 0.898794 0
M  V30 2171 O 217.421 -1.5522 1.16707 0
M  V30 2172 C 214.551 -2.50607 2.40444 0
M  V30 2173 C 213.505 -2.38155 3.55621 0
M  V30 2174 C 212.831 -3.76078 3.80091 0
M  V30 2175 C 214.131 -1.85991 4.88062 0
M  V30 2176 H 215.825 -0.801743 2.88466 0
M  V30 2177 H 213.371 -0.38422 1.38779 0
M  V30 2178 H 215.324 -3.23197 2.7041 0
M  V30 2179 H 214.048 -2.89737 1.50732 0
M  V30 2180 H 212.707 -1.68016 3.25832 0
M  V30 2181 H 212.355 -4.12656 2.87618 0
M  V30 2182 H 212.055 -3.68606 4.57606 0
M  V30 2183 H 213.579 -4.50206 4.12488 0
M  V30 2184 H 214.993 -2.4838 5.16701 0
M  V30 2185 H 213.39 -1.89393 5.6943 0
M  V30 2186 H 214.46 -0.816023 4.77984 0
M  V30 2187 N 215.803 -1.52179 -0.40978 0
M  V30 2188 C 216.733 -1.78435 -1.5061 0
M  V30 2189 C 217.714 -0.635295 -1.57791 0
M  V30 2190 O 218.899 -0.880823 -1.73076 0
M  V30 2191 C 216.029 -1.93444 -2.88439 0
M  V30 2192 C 214.983 -3.09038 -2.96108 0
M  V30 2193 C 214.309 -3.09268 -4.36185 0
M  V30 2194 C 215.609 -4.48508 -2.67652 0
M  V30 2195 H 217.303 -2.70237 -1.28889 0
M  V30 2196 H 214.849 -1.30036 -0.618605 0
M  V30 2197 H 216.802 -2.10394 -3.65119 0
M  V30 2198 H 215.526 -0.983129 -3.11452 0
M  V30 2199 H 214.185 -2.91837 -2.21872 0
M  V30 2200 H 213.833 -2.11861 -4.56206 0
M  V30 2201 H 213.533 -3.86907 -4.42241 0
M  V30 2202 H 215.057 -3.28348 -5.14801 0
M  V30 2203 H 216.471 -4.65918 -3.34056 0
M  V30 2204 H 214.868 -5.28059 -2.85085 0
M  V30 2205 H 215.938 -4.56649 -1.63095 0
M  V30 2206 N 217.281 0.66697 -1.42791 0
M  V30 2207 C 218.213 1.7925 -1.42836 0
M  V30 2208 C 219.226 1.59496 -0.326333 0
M  V30 2209 O 220.415 1.6847 -0.589916 0
M  V30 2210 C 217.515 3.16476 -1.21229 0
M  V30 2211 C 216.688 3.63011 -2.44013 0
M  V30 2212 C 215.747 4.78993 -2.17834 0
M  V30 2213 O 214.773 4.89137 -2.91091 0
M  V30 2214 N 215.975 5.68248 -1.18635 0
M  V30 2215 H 218.74 1.79695 -2.39854 0
M  V30 2216 H 216.301 0.850338 -1.37771 0
M  V30 2217 H 218.293 3.91734 -1.01621 0
M  V30 2218 H 216.863 3.10884 -0.32706 0
M  V30 2219 H 216.083 2.78346 -2.79137 0
M  V30 2220 H 217.371 3.90845 -3.25757 0
M  V30 2221 H 216.769 5.62712 -0.580615 0
M  V30 2222 H 215.326 6.43285 -1.05013 0
M  V30 2223 N 218.759 1.29093 0.90403 0
M  V30 2224 C 220.008 1.16187 1.64874 0
M  V30 2225 C 220.321 -0.286742 1.93487 0
M  V30 2226 O 221.527 -0.537062 2.66135 0
M  V30 2227 C 219.983 2.03177 2.97064 0
M  V30 2228 C 219.591 3.52836 2.76062 0
M  V30 2229 C 221.335 1.98984 3.74974 0
M  V30 2230 C 219.242 4.31945 4.03952 0
M  V30 2231 H 218.172 0.431246 0.618501 0
M  V30 2232 H 220.823 1.53699 1.00243 0
M  V30 2233 H 219.205 1.5853 3.62883 0
M  V30 2234 H 220.379 4.05507 2.18863 0
M  V30 2235 H 218.694 3.58656 2.11553 0
M  V30 2236 H 221.291 2.55351 4.69787 0
M  V30 2237 H 221.634 0.968815 4.0487 0
M  V30 2238 H 222.167 2.41652 3.15989 0
M  V30 2239 H 218.906 5.34667 3.79225 0
M  V30 2240 H 218.426 3.84045 4.60727 0
M  V30 2241 H 220.105 4.42379 4.72133 0
M  V30 2242 N 220.237 -1.11381 1.11499 0
M  V30 2243 C 221.483 -1.83403 0.865512 0
M  V30 2244 C 221.816 -1.84459 -0.607329 0
M  V30 2245 O 221.091 -1.29811 -1.44842 0
M  V30 2246 C 221.374 -3.30552 1.42855 0
M  V30 2247 C 221.227 -3.37886 2.96906 0
M  V30 2248 C 222.546 -4.26643 1.08 0
M  V30 2249 H 219.665 -0.665879 0.31587 0
M  V30 2250 H 222.307 -1.30601 1.37998 0
M  V30 2251 H 220.457 -3.75648 0.990985 0
M  V30 2252 H 222.129 -3.01343 3.49271 0
M  V30 2253 H 220.372 -2.78088 3.32941 0
M  V30 2254 H 221.043 -4.41458 3.31389 0
M  V30 2255 H 223.519 -3.89729 1.45775 0
M  V30 2256 H 222.395 -5.27986 1.50072 0
M  V30 2257 H 222.656 -4.42099 -0.00915037 0
M  V30 2258 N 221.715 -0.905404 -1.28997 0
M  V30 2259 C 223.131 -0.60233 -1.47798 0
M  V30 2260 C 223.331 0.854645 -1.82478 0
M  V30 2261 O 222.387 1.63439 -1.92468 0
M  V30 2262 C 223.7 -1.53306 -2.58685 0
M  V30 2263 C 225.248 -1.53887 -2.72558 0
M  V30 2264 C 225.723 -2.45602 -3.86579 0
M  V30 2265 N 227.214 -2.43681 -3.93921 0
M  V30 2266 C 227.949 -3.11347 -4.81509 0
M  V30 2267 N 227.445 -3.88313 -5.73746 0
M  V30 2268 N 229.238 -3.00476 -4.75048 0
M  V30 2269 H 221.389 -1.84765 -1.04764 0
M  V30 2270 H 223.652 -0.792025 -0.520961 0
M  V30 2271 H 223.358 -2.57141 -2.39941 0
M  V30 2272 H 223.232 -1.25787 -3.55609 0
M  V30 2273 H 225.619 -0.507941 -2.90696 0
M  V30 2274 H 225.7 -1.85447 -1.76191 0
M  V30 2275 H 225.344 -3.48792 -3.69197 0
M  V30 2276 H 225.274 -2.11349 -4.82327 0
M  V30 2277 H 227.765 -1.87767 -3.27951 0
M  V30 2278 H 228.078 -4.36985 -6.37389 0
M  V30 2279 H 226.423 -3.92419 -5.73614 0
M  V30 2280 H 229.614 -2.39858 -4.01977 0
M  V30 2281 H 229.787 -3.53485 -5.43095 0
M  V30 2282 N 223.193 1.4272 -0.668489 0
M  V30 2283 C 224.604 1.84793 -0.266151 0
M  V30 2284 C 224.955 1.55959 1.19043 0
M  V30 2285 O 224.08 1.01622 1.91055 0
M  V30 2286 C 224.675 3.35436 -0.476271 0
M  V30 2287 C 223.234 3.76182 -0.128113 0
M  V30 2288 C 222.381 2.66344 -0.771777 0
M  V30 2289 H 225.332 1.32656 -0.871098 0
M  V30 2290 H 225.353 3.79515 0.273561 0
M  V30 2291 H 224.865 3.5639 -1.53647 0
M  V30 2292 H 222.966 3.60836 0.928891 0
M  V30 2293 H 223.079 4.75766 -0.564231 0
M  V30 2294 H 221.443 2.53885 -0.203652 0
M  V30 2295 H 222.226 2.90123 -1.83531 0
M  V30 2296 N 224.671 0.411399 1.52136 0
M  V30 2297 C 225.948 -0.222308 1.94333 0
M  V30 2298 C 226.328 -1.6242 1.34844 0
M  V30 2299 O 225.676 -2.22384 0.525145 0
M  V30 2300 C 225.886 -0.226345 3.48265 0
M  V30 2301 C 227.234 -0.444592 4.22266 0
M  V30 2302 O 228.258 -0.305602 3.54887 0
M  V30 2303 O 227.117 -0.718749 5.41753 0
M  V30 2304 H 224.211 -0.143907 0.814383 0
M  V30 2305 H 226.757 0.467506 1.63133 0
M  V30 2306 H 225.529 0.75475 3.83952 0
M  V30 2307 H 225.152 -0.960163 3.85832 0
M  V30 2308 N 226.149 -1.5696 0.141893 0
M  V30 2309 C 227.565 -1.58151 -0.21456 0
M  V30 2310 C 227.765 -1.1559 -1.65049 0
M  V30 2311 O 226.821 -0.853832 -2.37626 0
M  V30 2312 C 228.134 -3.00674 0.0395576 0
M  V30 2313 C 229.682 -3.1299 -0.0245529 0
M  V30 2314 C 230.157 -4.57554 0.202167 0
M  V30 2315 N 231.648 -4.62961 0.148919 0
M  V30 2316 C 232.383 -5.7262 0.298924 0
M  V30 2317 N 231.879 -6.90947 0.50637 0
M  V30 2318 N 233.672 -5.61601 0.236886 0
M  V30 2319 H 225.823 -1.8292 1.07953 0
M  V30 2320 H 228.086 -0.846425 0.42693 0
M  V30 2321 H 227.792 -3.36183 1.03315 0
M  V30 2322 H 227.666 -3.70981 -0.682143 0
M  V30 2323 H 230.053 -2.77326 -1.00869 0
M  V30 2324 H 230.134 -2.4518 0.729396 0
M  V30 2325 H 229.778 -4.93922 1.18338 0
M  V30 2326 H 229.708 -5.23484 -0.572044 0
M  V30 2327 H 232.199 -3.77899 -0.00697015 0
M  V30 2328 H 232.512 -7.7038 0.611076 0
M  V30 2329 H 230.857 -6.92878 0.542628 0
M  V30 2330 H 234.048 -4.68039 0.0756209 0
M  V30 2331 H 234.221 -6.47015 0.357227 0
M  V30 2332 N 227.627 0.131896 -1.57047 0
M  V30 2333 C 228.873 0.843179 -1.84441 0
M  V30 2334 C 229.206 1.80129 -0.725749 0
M  V30 2335 O 228.481 1.92624 0.269469 0
M  V30 2336 C 228.764 1.60442 -3.22382 0
M  V30 2337 C 228.617 0.666782 -4.4483 0
M  V30 2338 C 229.936 2.56354 -3.5773 0
M  V30 2339 H 227.055 0.305081 -0.670891 0
M  V30 2340 H 229.697 0.107839 -1.89694 0
M  V30 2341 H 227.847 2.23128 -3.18035 0
M  V30 2342 H 229.519 0.0497646 -4.61273 0
M  V30 2343 H 227.762 -0.022609 -4.33794 0
M  V30 2344 H 228.433 1.23579 -5.37989 0
M  V30 2345 H 230.909 2.0378 -3.62785 0
M  V30 2346 H 229.785 3.06657 -4.5525 0
M  V30 2347 H 230.046 3.38419 -2.84473 0
M  V30 2348 N 229.106 1.52395 0.401703 0
M  V30 2349 C 230.353 1.66817 1.14796 0
M  V30 2350 C 230.681 0.401772 1.90305 0
M  V30 2351 O 229.936 -0.615487 1.85769 0
M  V30 2352 C 230.235 2.84578 2.16217 0
M  V30 2353 C 229.901 4.22513 1.5746 0
M  V30 2354 C 228.563 4.60029 1.41161 0
M  V30 2355 C 230.915 5.0844 1.14622 0
M  V30 2356 C 228.243 5.81144 0.80552 0
M  V30 2357 C 230.595 6.30167 0.55428 0
M  V30 2358 C 229.259 6.66426 0.378482 0
M  V30 2359 H 228.529 0.610428 0.420069 0
M  V30 2360 H 231.176 1.86512 0.434212 0
M  V30 2361 H 229.481 2.59248 2.93764 0
M  V30 2362 H 231.178 2.92933 2.73845 0
M  V30 2363 H 227.768 3.92953 1.71132 0
M  V30 2364 H 231.952 4.80034 1.26021 0
M  V30 2365 H 227.208 6.07855 0.657399 0
M  V30 2366 H 231.382 6.96071 0.213983 0
M  V30 2367 H 229.009 7.60143 -0.0932606 0
M  V30 2368 N 230.584 -0.659388 1.43143 0
M  V30 2369 C 231.831 -1.41935 1.44433 0
M  V30 2370 C 232.159 -1.94387 0.0663522 0
M  V30 2371 O 231.414 -1.72314 -0.927706 0
M  V30 2372 C 231.713 -2.62206 2.42864 0
M  V30 2373 C 231.379 -2.28208 3.88886 0
M  V30 2374 C 230.041 -2.18647 4.28657 0
M  V30 2375 C 232.393 -2.00887 4.8093 0
M  V30 2376 C 229.721 -1.79914 5.58433 0
M  V30 2377 C 232.073 -1.63653 6.11065 0
M  V30 2378 C 230.737 -1.52614 6.49819 0
M  V30 2379 H 230.007 -0.519376 0.528517 0
M  V30 2380 H 232.654 -0.750453 1.76183 0
M  V30 2381 H 230.959 -3.34199 2.04495 0
M  V30 2382 H 232.656 -3.2041 2.41119 0
M  V30 2383 H 229.246 -2.36557 3.57406 0
M  V30 2384 H 233.43 -2.07198 4.5098 0
M  V30 2385 H 228.686 -1.69948 5.87305 0
M  V30 2386 H 232.86 -1.41543 6.81864 0
M  V30 2387 H 230.487 -1.22371 7.50286 0
M  V30 2388 N 232.062 -1.29571 -0.897171 0
M  V30 2389 C 233.31 -1.17456 -1.64464 0
M  V30 2390 C 233.631 0.273698 -1.9307 0
M  V30 2391 O 232.901 1.18684 -1.55855 0
M  V30 2392 H 231.481 -0.431706 -0.609622 0
M  V30 2393 H 234.143 -1.62531 -1.07562 0
M  V30 2394 H 233.239 -1.72648 -2.59998 0
M  V30 2395 N 233.54 1.10788 -1.12088 0
M  V30 2396 C 234.45 2.20599 -0.798338 0
M  V30 2397 C 235.466 1.72712 0.21135 0
M  V30 2398 O 236.642 2.01348 0.0458477 0
M  V30 2399 C 233.707 3.45771 -0.253674 0
M  V30 2400 C 232.768 4.08411 -1.32283 0
M  V30 2401 C 232.001 5.27608 -0.80406 0
M  V30 2402 O 232.224 5.69241 0.363478 0
M  V30 2403 O 231.158 5.8101 -1.57198 0
M  V30 2404 H 234.984 2.50614 -1.7154 0
M  V30 2405 H 232.569 1.19454 -0.897275 0
M  V30 2406 H 234.451 4.21376 0.0453691 0
M  V30 2407 H 233.126 3.1739 0.636005 0
M  V30 2408 H 232.033 3.34507 -1.67499 0
M  V30 2409 H 233.366 4.40986 -2.18614 0
M  V30 2410 N 235.018 0.912232 1.28515 0
M  V30 2411 C 235.965 0.397954 2.27343 0
M  V30 2412 C 236.935 -0.526766 1.57526 0
M  V30 2413 O 238.12 -0.449292 1.85435 0
M  V30 2414 C 235.26 -0.357263 3.43246 0
M  V30 2415 C 234.373 0.599788 4.27816 0
M  V30 2416 C 233.508 -0.173725 5.30916 0
M  V30 2417 C 232.547 0.777039 6.07148 0
M  V30 2418 N 231.684 0.0371398 7.0209 0
M  V30 2419 H 236.524 1.24577 2.70711 0
M  V30 2420 H 234.061 0.625612 1.33133 0
M  V30 2421 H 236.019 -0.8113 4.09236 0
M  V30 2422 H 234.649 -1.16943 3.00872 0
M  V30 2423 H 233.701 1.17235 3.61884 0
M  V30 2424 H 235.013 1.32704 4.80823 0
M  V30 2425 H 234.167 -0.688394 6.02782 0
M  V30 2426 H 232.906 -0.934041 4.78672 0
M  V30 2427 H 231.911 1.3031 5.34134 0
M  V30 2428 H 233.136 1.53689 6.61481 0
M  V30 2429 H 231.082 -0.705213 6.52198 0
M  V30 2430 H 230.999 0.704249 7.52713 0
M  V30 2431 H 232.267 -0.457383 7.78157 0
M  V30 2432 N 236.496 -1.42363 0.676048 0
M  V30 2433 C 237.773 -1.95183 0.127726 0
M  V30 2434 C 238.153 -1.61641 -1.35777 0
M  V30 2435 O 237.501 -0.913216 -2.09458 0
M  V30 2436 C 237.711 -3.46721 0.398199 0
M  V30 2437 C 239.059 -4.23427 0.315383 0
M  V30 2438 O 240.083 -3.54649 0.332016 0
M  V30 2439 O 238.942 -5.45888 0.25865 0
M  V30 2440 H 236.036 -0.826992 0.00359427 0
M  V30 2441 H 238.582 -1.52184 0.750864 0
M  V30 2442 H 237.354 -3.64344 1.4272 0
M  V30 2443 H 236.977 -3.96769 -0.256885 0
M  V30 2444 N 237.974 -0.419461 -1.51915 0
M  V30 2445 C 239.204 0.151915 -2.06041 0
M  V30 2446 C 239.612 1.38539 -1.28855 0
M  V30 2447 O 238.955 1.80592 -0.336463 0
M  V30 2448 C 239.017 0.557119 -3.55157 0
M  V30 2449 C 238.681 -0.567054 -4.53468 0
M  V30 2450 C 239.678 -1.43379 -4.99738 0
M  V30 2451 C 237.363 -0.742693 -4.96779 0
M  V30 2452 C 239.357 -2.46102 -5.87973 0
M  V30 2453 C 237.044 -1.77322 -5.84808 0
M  V30 2454 C 238.042 -2.63078 -6.30301 0
M  V30 2455 O 237.73 -3.64364 -7.16585 0
M  V30 2456 H 237.462 0.0193293 -0.675724 0
M  V30 2457 H 240.016 -0.592073 -1.96682 0
M  V30 2458 H 238.246 1.35355 -3.62238 0
M  V30 2459 H 239.935 1.05759 -3.9188 0
M  V30 2460 H 240.701 -1.30954 -4.66986 0
M  V30 2461 H 236.58 -0.0848307 -4.60922 0
M  V30 2462 H 240.124 -3.13071 -6.23404 0
M  V30 2463 H 236.021 -1.89773 -6.16974 0
M  V30 2464 H 236.789 -3.60731 -7.34721 0
M  V30 2465 N 239.452 1.56882 -0.150215 0
M  V30 2466 C 240.384 2.14057 0.819286 0
M  V30 2467 C 241.397 1.09082 1.20851 0
M  V30 2468 O 242.586 1.36347 1.15203 0
M  V30 2469 C 239.686 2.65102 2.11127 0
M  V30 2470 C 238.859 3.94511 1.88891 0
M  V30 2471 C 237.918 4.30834 3.02107 0
M  V30 2472 O 236.944 4.99099 2.73659 0
M  V30 2473 N 238.146 3.90676 4.29363 0
M  V30 2474 H 240.911 2.97871 0.330618 0
M  V30 2475 H 238.472 1.61866 0.0332538 0
M  V30 2476 H 240.464 2.86411 2.85921 0
M  V30 2477 H 239.034 1.85994 2.51247 0
M  V30 2478 H 238.254 3.81795 0.981152 0
M  V30 2479 H 239.542 4.7907 1.71376 0
M  V30 2480 H 238.94 3.35677 4.55343 0
M  V30 2481 H 237.497 4.1703 5.00928 0
M  V30 2482 N 240.93 -0.123565 1.57115 0
M  V30 2483 C 241.862 -1.17739 1.96648 0
M  V30 2484 C 242.875 -1.37906 0.865201 0
M  V30 2485 O 244.064 -1.37062 1.14351 0
M  V30 2486 C 241.164 -2.53821 2.24562 0
M  V30 2487 C 240.337 -2.54317 3.55867 0
M  V30 2488 C 239.396 -3.72112 3.72047 0
M  V30 2489 O 238.422 -3.55907 4.44206 0
M  V30 2490 N 239.624 -4.90498 3.10471 0
M  V30 2491 H 242.389 -0.841147 2.87654 0
M  V30 2492 H 239.95 -0.31289 1.58848 0
M  V30 2493 H 241.942 -3.31175 2.32606 0
M  V30 2494 H 240.512 -2.79645 1.39705 0
M  V30 2495 H 239.732 -1.62711 3.59053 0
M  V30 2496 H 241.02 -2.51701 4.42181 0
M  V30 2497 H 240.418 -5.06567 2.51806 0
M  V30 2498 H 238.975 -5.65544 3.24043 0
M  V30 2499 N 242.408 -1.52605 -0.393616 0
M  V30 2500 C 243.338 -1.80022 -1.48709 0
M  V30 2501 C 244.319 -0.651995 -1.57108 0
M  V30 2502 O 245.504 -0.89913 -1.72132 0
M  V30 2503 C 242.634 -1.96492 -2.86371 0
M  V30 2504 C 241.588 -3.12161 -2.92813 0
M  V30 2505 C 240.914 -3.13877 -4.3288 0
M  V30 2506 C 242.214 -4.51322 -2.6288 0
M  V30 2507 H 243.908 -2.71589 -1.26015 0
M  V30 2508 H 241.454 -1.30684 -0.604778 0
M  V30 2509 H 243.407 -2.14255 -3.62867 0
M  V30 2510 H 242.131 -1.01611 -3.10391 0
M  V30 2511 H 240.79 -2.94173 -2.18764 0
M  V30 2512 H 240.438 -2.16687 -4.53933 0
M  V30 2513 H 240.138 -3.91576 -4.38112 0
M  V30 2514 H 241.662 -3.33789 -5.1129 0
M  V30 2515 H 243.076 -4.69435 -3.29096 0
M  V30 2516 H 241.473 -5.31053 -2.79468 0
M  V30 2517 H 242.543 -4.58353 -1.58242 0
M  V30 2518 N 243.887 0.651787 -1.4349 0
M  V30 2519 C 245.133 1.41376 -1.45398 0
M  V30 2520 C 245.466 1.94041 -0.0784823 0
M  V30 2521 O 244.741 1.72379 0.900878 0
M  V30 2522 C 245.024 2.59414 -2.49752 0
M  V30 2523 C 244.877 2.12232 -3.96582 0
M  V30 2524 C 246.196 3.61626 -2.50827 0
M  V30 2525 H 243.315 0.512719 -0.529422 0
M  V30 2526 H 245.957 0.738796 -1.75048 0
M  V30 2527 H 244.107 3.16997 -2.246 0
M  V30 2528 H 245.779 1.59639 -4.32797 0
M  V30 2529 H 244.022 1.43592 -4.09346 0
M  V30 2530 H 244.693 2.9712 -4.65214 0
M  V30 2531 H 247.169 3.13805 -2.7325 0
M  V30 2532 H 246.045 4.41766 -3.25783 0
M  V30 2533 H 246.306 4.14314 -1.5426 0
M  V30 2534 N 245.365 1.30045 0.890287 0
M  V30 2535 C 246.295 1.18541 2.01172 0
M  V30 2536 C 247.276 0.0773356 1.69924 0
M  V30 2537 O 248.461 0.25845 1.92473 0
M  V30 2538 C 245.591 0.870941 3.36202 0
M  V30 2539 C 244.545 1.93637 3.81692 0
M  V30 2540 C 243.871 1.475 5.13953 0
M  V30 2541 C 245.171 3.34666 4.00994 0
M  V30 2542 H 246.865 2.12359 2.11054 0
M  V30 2543 H 244.411 1.02238 1.01407 0
M  V30 2544 H 246.364 0.777141 4.14172 0
M  V30 2545 H 245.088 -0.102926 3.26438 0
M  V30 2546 H 243.747 2.01972 3.05946 0
M  V30 2547 H 243.395 0.489551 5.00612 0
M  V30 2548 H 243.095 2.1876 5.4536 0
M  V30 2549 H 244.619 1.39489 5.94454 0
M  V30 2550 H 246.033 3.2912 4.69417 0
M  V30 2551 H 244.43 4.03966 4.43769 0
M  V30 2552 H 245.5 3.76949 3.05021 0
M  V30 2553 N 246.843 -1.10192 1.12674 0
M  V30 2554 C 248.092 -1.81573 0.8783 0
M  V30 2555 C 248.405 -1.86249 -0.597557 0
M  V30 2556 O 249.611 -2.5386 -0.962681 0
M  V30 2557 C 248.067 -3.26149 1.52167 0
M  V30 2558 C 247.675 -3.29763 3.03249 0
M  V30 2559 C 249.419 -4.0234 1.3536 0
M  V30 2560 C 247.326 -4.68815 3.60508 0
M  V30 2561 H 246.256 -0.680394 0.324931 0
M  V30 2562 H 248.907 -1.23902 1.35353 0
M  V30 2563 H 247.289 -3.83832 0.974104 0
M  V30 2564 H 248.463 -2.8189 3.6452 0
M  V30 2565 H 246.778 -2.67059 3.19481 0
M  V30 2566 H 249.375 -5.05058 1.75559 0
M  V30 2567 H 249.718 -4.15235 0.297554 0
M  V30 2568 H 250.251 -3.51079 1.87052 0
M  V30 2569 H 246.99 -4.61121 4.65884 0
M  V30 2570 H 246.51 -5.17045 3.04014 0
M  V30 2571 H 248.189 -5.37785 3.59717 0
M  V30 2572 N 248.321 -0.919034 -1.28029 0
M  V30 2573 C 249.737 -0.617972 -1.4715 0
M  V30 2574 C 249.937 0.835242 -1.83374 0
M  V30 2575 O 248.993 1.61388 -1.94191 0
M  V30 2576 C 250.306 -1.56041 -2.57044 0
M  V30 2577 C 251.854 -1.56769 -2.7091 0
M  V30 2578 C 252.329 -2.49688 -3.83953 0
M  V30 2579 N 253.82 -2.47845 -3.91314 0
M  V30 2580 C 254.555 -3.16437 -4.78179 0
M  V30 2581 N 254.051 -3.94376 -5.69596 0
M  V30 2582 N 255.844 -3.05498 -4.71834 0
M  V30 2583 H 247.995 -1.85866 -1.02798 0
M  V30 2584 H 250.258 -0.797506 -0.512531 0
M  V30 2585 H 249.964 -2.59671 -2.372 0
M  V30 2586 H 249.838 -1.29551 -3.54255 0
M  V30 2587 H 252.225 -0.538745 -2.90141 0
M  V30 2588 H 252.306 -1.87305 -1.74214 0
M  V30 2589 H 251.95 -3.52688 -3.65477 0
M  V30 2590 H 251.88 -2.16453 -4.80058 0
M  V30 2591 H 254.371 -1.91234 -3.25941 0
M  V30 2592 H 254.684 -4.43721 -6.32718 0
M  V30 2593 H 253.029 -3.98481 -5.69419 0
M  V30 2594 H 256.22 -2.44108 -3.99411 0
M  V30 2595 H 256.393 -3.59225 -5.39316 0
M  V30 2596 N 249.799 1.42003 -0.683588 0
M  V30 2597 C 250.731 2.29183 0.0283068 0
M  V30 2598 C 251.744 1.4415 0.756611 0
M  V30 2599 O 252.933 1.67779 0.609306 0
M  V30 2600 C 250.033 3.21765 1.06398 0
M  V30 2601 C 249.206 4.35496 0.407723 0
M  V30 2602 C 248.265 5.08737 1.34437 0
M  V30 2603 O 247.291 5.62948 0.841318 0
M  V30 2604 N 248.493 5.15075 2.67728 0
M  V30 2605 H 251.258 2.9092 -0.720105 0
M  V30 2606 H 248.819 1.53025 -0.528682 0
M  V30 2607 H 250.811 3.6763 1.69204 0
M  V30 2608 H 249.381 2.61418 1.71404 0
M  V30 2609 H 248.601 3.92165 -0.400012 0
M  V30 2610 H 249.889 5.08776 -0.0490956 0
M  V30 2611 H 249.287 4.72457 3.11129 0
M  V30 2612 H 247.844 5.64556 3.2576 0
M  V30 2613 N 251.277 0.427512 1.51691 0
M  V30 2614 C 252.207 -0.3796 2.30394 0
M  V30 2615 C 253.188 -1.02982 1.35384 0
M  V30 2616 O 254.373 -1.03534 1.643 0
M  V30 2617 C 251.503 -1.48649 3.1388 0
M  V30 2618 C 250.457 -0.960294 4.17088 0
M  V30 2619 C 249.783 -2.16219 4.89033 0
M  V30 2620 C 251.083 -0.00153679 5.223 0
M  V30 2621 H 252.777 0.277164 2.98114 0
M  V30 2622 H 250.323 0.134739 1.43368 0
M  V30 2623 H 252.276 -2.05826 3.67714 0
M  V30 2624 H 251 -2.1714 2.43962 0
M  V30 2625 H 249.659 -0.410806 3.64291 0
M  V30 2626 H 249.307 -2.83307 4.15628 0
M  V30 2627 H 249.007 -1.81654 5.58816 0
M  V30 2628 H 250.531 -2.73968 5.45687 0
M  V30 2629 H 251.945 -0.482687 5.71264 0
M  V30 2630 H 250.342 0.256199 5.99553 0
M  V30 2631 H 251.412 0.938174 4.75738 0
M  V30 2632 N 252.755 -1.56801 0.158532 0
M  V30 2633 C 254.001 -1.96781 -0.490405 0
M  V30 2634 C 254.334 -1.04397 -1.63753 0
M  V30 2635 O 253.609 -0.0885805 -1.94298 0
M  V30 2636 C 253.892 -3.4635 -0.985594 0
M  V30 2637 C 253.745 -4.49512 0.160824 0
M  V30 2638 C 255.064 -3.98697 -1.86355 0
M  V30 2639 H 252.183 -0.715482 -0.176788 0
M  V30 2640 H 254.825 -1.88451 0.242088 0
M  V30 2641 H 252.975 -3.53579 -1.60978 0
M  V30 2642 H 254.647 -4.54353 0.797537 0
M  V30 2643 H 252.89 -4.26013 0.818256 0
M  V30 2644 H 253.561 -5.51531 -0.227569 0
M  V30 2645 H 256.037 -3.94019 -1.33746 0
M  V30 2646 H 254.913 -5.03792 -2.17909 0
M  V30 2647 H 255.174 -3.41744 -2.8047 0
M  V30 2648 N 254.233 0.115231 -1.57178 0
M  V30 2649 C 255.196 1.12526 -1.99676 0
M  V30 2650 C 256.196 1.34095 -0.88742 0
M  V30 2651 O 257.386 1.30548 -1.15337 0
M  V30 2652 C 254.518 2.4789 -2.34015 0
M  V30 2653 H 255.711 0.759912 -2.90113 0
M  V30 2654 H 253.264 0.359648 -1.52106 0
M  V30 2655 H 253.999 2.89339 -1.4647 0
M  V30 2656 H 253.784 2.33588 -3.14927 0
M  V30 2657 H 255.274 3.20575 -2.67622 0
M  V30 2658 N 255.711 1.52812 0.385517 0
M  V30 2659 C 256.988 1.5861 1.14465 0
M  V30 2660 C 257.368 0.381402 2.07626 0
M  V30 2661 O 256.716 -0.629999 2.19643 0
M  V30 2662 C 256.926 2.92664 1.90128 0
M  V30 2663 C 258.274 3.46526 2.45367 0
M  V30 2664 O 259.298 2.94562 2.0028 0
M  V30 2665 O 258.157 4.37323 3.27736 0
M  V30 2666 H 255.251 0.639855 0.523941 0
M  V30 2667 H 257.797 1.65149 0.390389 0
M  V30 2668 H 256.569 3.71788 1.22022 0
M  V30 2669 H 256.192 2.89527 2.72507 0
M  V30 2670 N 257.189 -0.644168 1.43834 0
M  V30 2671 C 258.436 -1.40395 1.4593 0
M  V30 2672 C 258.764 -1.94305 0.0869658 0
M  V30 2673 O 258.019 -1.73288 -0.909378 0
M  V30 2674 C 258.318 -2.59615 2.45631 0
M  V30 2675 C 257.984 -2.2407 3.91284 0
M  V30 2676 C 256.646 -2.14089 4.30952 0
M  V30 2677 C 258.998 -1.95775 4.83034 0
M  V30 2678 C 256.326 -1.73981 5.6031 0
M  V30 2679 C 258.678 -1.57163 6.12766 0
M  V30 2680 C 257.342 -1.45713 6.51402 0
M  V30 2681 H 256.612 -0.513741 0.533995 0
M  V30 2682 H 259.259 -0.731724 1.76969 0
M  V30 2683 H 257.564 -3.32011 2.08028 0
M  V30 2684 H 259.261 -3.17834 2.44504 0
M  V30 2685 H 255.851 -2.32753 3.59895 0
M  V30 2686 H 260.035 -2.02403 4.53152 0
M  V30 2687 H 255.291 -1.63709 5.89075 0
M  V30 2688 H 259.465 -1.34303 6.83327 0
M  V30 2689 H 257.092 -1.14406 7.51542 0
M  V30 2690 N 258.668 -1.30515 -0.883378 0
M  V30 2691 C 259.616 -1.16941 -2.01066 0
M  V30 2692 C 260.61 -0.0809148 -1.69207 0
M  V30 2693 O 261.816 -0.241877 -1.78367 0
M  V30 2694 H 258.191 -0.361705 -0.659298 0
M  V30 2695 H 260.162 -2.12344 -2.09649 0
M  V30 2696 C 258.911 -0.879694 -3.36388 0
M  V30 2697 H 258.234 -1.70936 -3.61415 0
M  V30 2698 H 259.674 -0.82483 -4.159 0
M  V30 2699 C 258.133 0.417409 -3.34304 0
M  V30 2700 O 258.663 1.43843 -3.75063 0
M  V30 2701 N 256.869 0.429141 -2.87414 0
M  V30 2702 H 256.416 -0.402222 -2.5444 0
M  V30 2703 H 256.374 1.29696 -2.86403 0
M  V30 2704 N 260.146 1.09593 -1.13257 0
M  V30 2705 C 261.076 2.18214 -0.830946 0
M  V30 2706 C 262.057 1.68812 0.208966 0
M  V30 2707 O 263.242 1.9408 0.0682666 0
M  V30 2708 C 260.372 3.46051 -0.294296 0
M  V30 2709 C 259.326 4.08778 -1.26826 0
M  V30 2710 C 258.652 5.31419 -0.591449 0
M  V30 2711 C 259.952 4.51476 -2.62615 0
M  V30 2712 H 261.646 2.43703 -1.73923 0
M  V30 2713 H 259.192 1.17128 -0.837675 0
M  V30 2714 H 261.145 4.2134 -0.0709606 0
M  V30 2715 H 259.869 3.20079 0.649366 0
M  V30 2716 H 258.528 3.35505 -1.47756 0
M  V30 2717 H 258.176 5.01727 0.357633 0
M  V30 2718 H 257.876 5.74341 -1.24123 0
M  V30 2719 H 259.4 6.09433 -0.377355 0
M  V30 2720 H 260.814 5.17999 -2.45663 0
M  V30 2721 H 259.211 5.05277 -3.23752 0
M  V30 2722 H 260.281 3.63962 -3.20406 0
M  V30 2723 N 261.624 0.925811 1.2754 0
M  V30 2724 C 262.901 0.483726 1.89524 0
M  V30 2725 C 263.281 -1.03809 1.83812 0
M  V30 2726 O 262.629 -1.89143 1.28207 0
M  V30 2727 C 262.839 1.02769 3.33526 0
M  V30 2728 C 264.187 1.08703 4.10449 0
M  V30 2729 O 265.211 0.977175 3.42534 0
M  V30 2730 O 264.07 1.25599 5.31871 0
M  V30 2731 H 261.164 0.15529 0.812289 0
M  V30 2732 H 263.71 1.01738 1.35822 0
M  V30 2733 H 262.482 2.07155 3.31967 0
M  V30 2734 H 262.105 0.475567 3.94746 0
M  V30 2735 N 263.102 -1.41638 0.69111 0
M  V30 2736 C 264.348 -2.01598 0.220519 0
M  V30 2737 C 264.681 -1.54594 -1.17535 0
M  V30 2738 O 263.956 -0.755177 -1.79241 0
M  V30 2739 C 264.239 -3.59062 0.273243 0
M  V30 2740 C 264.092 -4.16203 1.70573 0
M  V30 2741 C 265.411 -4.38546 -0.369457 0
M  V30 2742 H 262.53 -0.732468 0.0816045 0
M  V30 2743 H 265.172 -1.68445 0.878986 0
M  V30 2744 H 263.322 -3.87435 -0.287411 0
M  V30 2745 H 264.994 -3.98722 2.31989 0
M  V30 2746 H 263.237 -3.71414 2.2413 0
M  V30 2747 H 263.908 -5.25358 1.69419 0
M  V30 2748 H 266.384 -4.1596 0.107977 0
M  V30 2749 H 265.26 -5.48069 -0.302002 0
M  V30 2750 H 265.521 -4.17662 -1.44951 0
M  V30 2751 N 264.58 -0.43555 -1.51462 0
M  V30 2752 C 265.543 0.365137 -2.26273 0
M  V30 2753 C 266.543 0.951227 -1.29647 0
M  V30 2754 O 267.733 0.825958 -1.53374 0
M  V30 2755 C 264.865 1.51645 -3.05314 0
M  V30 2756 H 266.058 -0.290474 -2.9849 0
M  V30 2757 H 263.611 -0.188676 -1.55157 0
M  V30 2758 H 264.346 2.20816 -2.3751 0
M  V30 2759 H 264.131 1.10238 -3.76284 0
M  V30 2760 H 265.621 2.08218 -3.61987 0
M  V30 2761 N 266.058 1.56714 -0.166846 0
M  V30 2762 C 267.304 1.97039 0.479962 0
M  V30 2763 C 267.637 1.05264 1.63197 0
M  V30 2764 O 266.912 0.0988833 1.94248 0
M  V30 2765 C 267.195 3.46867 0.967212 0
M  V30 2766 C 267.048 4.49421 -0.18466 0
M  V30 2767 C 268.367 3.9968 1.84238 0
M  V30 2768 H 265.486 0.71641 0.172992 0
M  V30 2769 H 268.128 1.8832 -0.252079 0
M  V30 2770 H 266.278 3.54428 1.59101 0
M  V30 2771 H 267.95 4.53924 -0.821621 0
M  V30 2772 H 266.193 4.25573 -0.840837 0
M  V30 2773 H 266.864 5.51644 0.198317 0
M  V30 2774 H 269.34 3.94723 1.31655 0
M  V30 2775 H 268.216 5.04941 2.15234 0
M  V30 2776 H 268.477 3.43226 2.78654 0
M  V30 2777 N 267.536 -0.106894 1.57237 0
M  V30 2778 C 268.782 -0.81373 1.85759 0
M  V30 2779 C 269.115 -1.78952 0.754315 0
M  V30 2780 O 268.39 -1.93029 -0.23879 0
M  V30 2781 C 268.673 -1.55293 3.24894 0
M  V30 2782 C 268.526 -0.595929 4.45835 0
M  V30 2783 C 269.845 -2.5063 3.61763 0
M  V30 2784 H 266.964 -0.294369 0.67566 0
M  V30 2785 H 269.606 -0.0776472 1.89841 0
M  V30 2786 H 267.756 -2.1804 3.21544 0
M  V30 2787 H 269.428 0.0236262 4.61294 0
M  V30 2788 H 267.671 0.0916191 4.33703 0
M  V30 2789 H 268.342 -1.15004 5.39887 0
M  V30 2790 H 270.818 -1.97982 3.65981 0
M  V30 2791 H 269.694 -2.99376 4.60071 0
M  V30 2792 H 269.955 -3.3385 2.89821 0
M  V30 2793 N 269.014 -1.53014 -0.377408 0
M  V30 2794 C 270.262 -1.6829 -1.11906 0
M  V30 2795 C 270.583 -0.431206 -1.90173 0
M  V30 2796 O 269.853 0.554595 -1.87886 0
M  V30 2797 H 268.433 -0.620371 -0.416112 0
M  V30 2798 H 271.095 -1.90167 -0.426893 0
M  V30 2799 H 270.191 -2.53862 -1.8155 0
M  V30 2800 N 270.492 0.636531 -1.44174 0
M  V30 2801 C 271.738 1.39826 -1.4689 0
M  V30 2802 C 272.071 1.93947 -0.0990585 0
M  V30 2803 O 271.346 1.73325 0.882544 0
M  V30 2804 C 271.629 2.56751 -2.5249 0
M  V30 2805 C 271.482 2.08014 -3.98811 0
M  V30 2806 C 272.801 3.58946 -2.54649 0
M  V30 2807 H 269.92 0.507075 -0.53483 0
M  V30 2808 H 272.562 0.720188 -1.75822 0
M  V30 2809 H 270.712 3.14597 -2.2795 0
M  V30 2810 H 272.384 1.5504 -4.34466 0
M  V30 2811 H 270.627 1.39242 -4.10846 0
M  V30 2812 H 271.298 2.92169 -4.68339 0
M  V30 2813 H 273.774 3.1089 -2.76563 0
M  V30 2814 H 272.65 4.38286 -3.3045 0
M  V30 2815 H 272.911 4.12655 -1.58646 0
M  V30 2816 N 271.97 1.30982 0.876444 0
M  V30 2817 C 273.381 1.18277 1.44456 0
M  V30 2818 C 273.732 -0.213265 1.95037 0
M  V30 2819 O 272.857 -1.11057 1.85729 0
M  V30 2820 C 273.452 2.1411 2.62569 0
M  V30 2821 C 272.011 2.05358 3.15444 0
M  V30 2822 C 271.158 2.03706 1.88146 0
M  V30 2823 H 274.109 1.43127 0.685584 0
M  V30 2824 H 274.13 1.72692 3.39054 0
M  V30 2825 H 273.642 3.15706 2.25724 0
M  V30 2826 H 271.743 1.06934 3.56926 0
M  V30 2827 H 271.856 2.94156 3.78166 0
M  V30 2828 H 270.22 1.48629 2.06837 0
M  V30 2829 H 271.003 3.07047 1.53547 0
M  V30 2830 N 273.449 -1.08991 1.13837 0
M  V30 2831 C 274.677 -1.85011 0.926202 0
M  V30 2832 C 275.092 -1.8135 -0.525127 0
M  V30 2833 O 274.449 -1.21287 -1.36366 0
M  V30 2834 C 274.5 -3.32802 1.41155 0
M  V30 2835 O 274.221 -3.36444 2.80601 0
M  V30 2836 C 275.722 -4.25649 1.23847 0
M  V30 2837 H 272.942 -0.584249 0.32999 0
M  V30 2838 H 275.486 -1.37688 1.51202 0
M  V30 2839 H 273.641 -3.77536 0.868631 0
M  V30 2840 H 274.055 -4.28657 3.02248 0
M  V30 2841 H 275.529 -5.27485 1.62675 0
M  V30 2842 H 276.006 -4.38828 0.18065 0
M  V30 2843 H 276.612 -3.86735 1.76964 0
M  V30 2844 N 274.927 -0.932562 -1.27047 0
M  V30 2845 C 276.173 -0.576412 -1.94436 0
M  V30 2846 C 276.506 0.880891 -1.73072 0
M  V30 2847 O 275.781 1.62905 -1.06264 0
M  V30 2848 C 276.064 -0.909031 -3.48437 0
M  V30 2849 C 275.917 -2.42044 -3.79123 0
M  V30 2850 C 277.236 -0.418341 -4.38107 0
M  V30 2851 H 274.355 -0.210888 -0.706184 0
M  V30 2852 H 276.997 -1.16522 -1.50075 0
M  V30 2853 H 275.147 -0.407947 -3.86352 0
M  V30 2854 H 276.819 -2.99359 -3.50973 0
M  V30 2855 H 275.062 -2.86758 -3.25503 0
M  V30 2856 H 275.733 -2.6037 -4.86736 0
M  V30 2857 H 278.209 -0.847856 -4.0737 0
M  V30 2858 H 277.085 -0.679981 -5.44672 0
M  V30 2859 H 277.346 0.681642 -4.36814 0
M  V30 2860 N 276.405 1.4127 -0.698611 0
M  V30 2861 C 277.821 1.55241 -0.370462 0
M  V30 2862 C 278.021 1.67351 1.12231 0
M  V30 2863 O 277.077 1.65363 1.90818 0
M  V30 2864 C 278.39 2.78997 -1.12165 0
M  V30 2865 C 279.938 2.92797 -1.1063 0
M  V30 2866 C 280.413 4.19445 -1.8393 0
M  V30 2867 N 281.904 4.26409 -1.80914 0
M  V30 2868 C 282.639 5.23271 -2.34467 0
M  V30 2869 N 282.135 6.26145 -2.96504 0
M  V30 2870 N 283.928 5.15232 -2.24706 0
M  V30 2871 H 276.079 1.31654 -1.66676 0
M  V30 2872 H 278.342 0.635393 -0.703548 0
M  V30 2873 H 278.048 2.76268 -2.17644 0
M  V30 2874 H 277.922 3.70606 -0.702209 0
M  V30 2875 H 280.309 2.95039 -0.0597713 0
M  V30 2876 H 280.39 2.02353 -1.56483 0
M  V30 2877 H 280.034 4.17964 -2.88563 0
M  V30 2878 H 279.964 5.08866 -1.35509 0
M  V30 2879 H 282.455 3.527 -1.35687 0
M  V30 2880 H 282.768 6.96451 -3.34927 0
M  V30 2881 H 281.113 6.26638 -3.00583 0
M  V30 2882 H 284.304 4.33789 -1.7591 0
M  V30 2883 H 284.477 5.90552 -2.66745 0
M  V30 2884 N 277.883 0.443576 1.51229 0
M  V30 2885 C 278.793 -0.370721 2.31652 0
M  V30 2886 C 279.809 -1.02186 1.40833 0
M  V30 2887 O 280.985 -1.01586 1.73903 0
M  V30 2888 C 278.05 -1.45376 3.14749 0
M  V30 2889 C 277.111 -0.822099 4.21355 0
M  V30 2890 C 276.344 -1.85353 5.0048 0
M  V30 2891 O 276.567 -3.07656 4.80316 0
M  V30 2892 O 275.501 -1.4406 5.84406 0
M  V30 2893 H 279.327 0.286002 3.0235 0
M  V30 2894 H 276.912 0.20598 1.47973 0
M  V30 2895 H 278.794 -2.08173 3.66391 0
M  V30 2896 H 277.469 -2.09445 2.46809 0
M  V30 2897 H 276.376 -0.155909 3.73775 0
M  V30 2898 H 277.709 -0.224797 4.91686 0
M  V30 2899 N 279.361 -1.56624 0.175154 0
M  V30 2900 C 280.324 -2.16934 -0.739738 0
M  V30 2901 C 281.324 -1.11842 -1.15533 0
M  V30 2902 O 282.514 -1.37335 -1.07167 0
M  V30 2903 C 279.646 -2.75531 -2.00738 0
M  V30 2904 H 280.839 -2.99131 -0.214639 0
M  V30 2905 H 278.392 -1.56123 -0.0744197 0
M  V30 2906 H 279.127 -1.97078 -2.57548 0
M  V30 2907 H 278.912 -3.52444 -1.71831 0
M  V30 2908 H 280.402 -3.21904 -2.66021 0
M  V30 2909 N 280.839 0.0985539 -1.57292 0
M  V30 2910 C 282.116 0.834155 -1.76921 0
M  V30 2911 C 282.496 1.97101 -0.755928 0
M  V30 2912 O 281.844 2.27474 0.216245 0
M  V30 2913 C 282.054 1.33194 -3.22584 0
M  V30 2914 C 283.402 1.77611 -3.85668 0
M  V30 2915 O 284.426 1.42825 -3.26312 0
M  V30 2916 O 283.285 2.4192 -4.90038 0
M  V30 2917 H 280.379 0.397628 -0.725135 0
M  V30 2918 H 282.925 0.0807044 -1.69508 0
M  V30 2919 H 281.697 0.517248 -3.87866 0
M  V30 2920 H 281.32 2.1475 -3.34616 0
M  V30 2921 N 282.317 1.53212 0.369288 0
M  V30 2922 C 283.565 1.68881 1.11012 0
M  V30 2923 C 283.886 0.441285 1.89941 0
M  V30 2924 O 283.156 -0.544623 1.88177 0
M  V30 2925 H 281.736 0.622569 0.412816 0
M  V30 2926 H 284.398 1.90391 0.416802 0
M  V30 2927 H 283.494 2.54822 1.80201 0
M  V30 2928 N 283.795 -0.628877 1.44509 0
M  V30 2929 C 284.725 -1.75187 1.54376 0
M  V30 2930 C 285.706 -1.65411 0.396618 0
M  V30 2931 O 286.891 -1.84137 0.617031 0
M  V30 2932 C 284.021 -3.13725 1.48976 0
M  V30 2933 C 282.975 -3.38291 2.62189 0
M  V30 2934 C 282.301 -4.76883 2.41841 0
M  V30 2935 C 283.601 -3.30632 4.04326 0
M  V30 2936 H 285.295 -1.67187 2.48373 0
M  V30 2937 H 282.841 -0.802909 1.19538 0
M  V30 2938 H 284.794 -3.92064 1.54478 0
M  V30 2939 H 283.518 -3.22515 0.514961 0
M  V30 2940 H 282.177 -2.62334 2.56079 0
M  V30 2941 H 281.825 -4.82378 1.42548 0
M  V30 2942 H 281.525 -4.94278 3.17747 0
M  V30 2943 H 283.049 -5.57449 2.49165 0
M  V30 2944 H 284.463 -3.98873 4.11793 0
M  V30 2945 H 282.86 -3.59561 4.80454 0
M  V30 2946 H 283.93 -2.28404 4.27738 0
M  V30 2947 N 285.273 -1.31445 -0.869486 0
M  V30 2948 C 286.236 -1.19094 -1.9583 0
M  V30 2949 C 287.236 -0.117906 -1.60367 0
M  V30 2950 O 288.426 -0.367208 -1.70286 0
M  V30 2951 C 285.558 -0.828165 -3.30688 0
M  V30 2952 H 286.751 -2.15842 -2.08212 0
M  V30 2953 H 284.304 -1.15063 -1.05784 0
M  V30 2954 H 285.039 0.138142 -3.24006 0
M  V30 2955 H 284.824 -1.6038 -3.578 0
M  V30 2956 H 286.314 -0.765658 -4.10521 0
M  V30 2957 N 286.751 1.08385 -1.14413 0
M  V30 2958 C 287.684 2.14642 -0.774871 0
M  V30 2959 C 288.662 1.60761 0.243876 0
M  V30 2960 O 289.846 1.88031 0.132883 0
M  V30 2961 C 286.973 3.38366 -0.150491 0
M  V30 2962 C 286.019 4.10997 -1.13945 0
M  V30 2963 S 286.852 4.63797 -2.67679 0
M  V30 2964 C 288.008 5.90808 -2.06631 0
M  V30 2965 H 288.241 2.45633 -1.67487 0
M  V30 2966 H 285.774 1.20498 -0.96538 0
M  V30 2967 H 287.732 4.09996 0.203334 0
M  V30 2968 H 286.393 3.05572 0.72694 0
M  V30 2969 H 285.586 4.99783 -0.65059 0
M  V30 2970 H 285.188 3.4528 -1.43727 0
M  V30 2971 H 287.48 6.62411 -1.4219 0
M  V30 2972 H 288.423 6.4439 -2.93542 0
M  V30 2973 H 288.831 5.4383 -1.51357 0
M  V30 2974 N 288.23 0.939286 1.26551 0
M  V30 2975 C 289.455 0.602008 1.98471 0
M  V30 2976 C 289.88 -0.815624 1.69497 0
M  V30 2977 O 289.238 -1.54912 0.941905 0
M  V30 2978 C 289.286 0.848407 3.50477 0
M  V30 2979 O 288.39 -0.0804009 4.12322 0
M  V30 2980 H 287.731 0.23049 0.622712 0
M  V30 2981 H 290.261 1.2617 1.61066 0
M  V30 2982 H 290.271 0.768553 4.00696 0
M  V30 2983 H 288.946 1.88171 3.70897 0
M  V30 2984 H 287.523 0.0503508 3.72866 0
M  V30 2985 N 289.708 -1.40897 0.706093 0
M  V30 2986 C 290.933 -2.05895 0.249435 0
M  V30 2987 C 291.358 -1.52823 -1.09666 0
M  V30 2988 O 290.716 -0.659589 -1.68876 0
M  V30 2989 C 290.764 -3.59872 0.22904 0
M  V30 2990 O 289.868 -4.04708 -0.792784 0
M  V30 2991 H 289.209 -0.653206 0.119241 0
M  V30 2992 H 291.739 -1.80471 0.96391 0
M  V30 2993 H 291.749 -4.07951 0.0634791 0
M  V30 2994 H 290.424 -3.97866 1.21141 0
M  V30 2995 H 289.001 -3.68111 -0.59572 0
M  V30 2996 N 291.186 -0.45159 -1.50991 0
M  V30 2997 C 292.602 -0.104647 -1.59257 0
M  V30 2998 C 292.802 1.38728 -1.4614 0
M  V30 2999 O 291.858 2.15866 -1.30989 0
M  V30 3000 C 293.171 -0.637468 -2.93865 0
M  V30 3001 C 294.719 -0.599166 -3.07212 0
M  V30 3002 C 295.194 -1.1092 -4.44366 0
M  V30 3003 N 296.685 -1.06778 -4.50725 0
M  V30 3004 C 297.42 -1.43314 -5.55201 0
M  V30 3005 N 296.916 -1.87204 -6.67028 0
M  V30 3006 N 298.709 -1.3504 -5.45638 0
M  V30 3007 H 290.86 -1.42214 -1.57762 0
M  V30 3008 H 293.123 -0.586921 -0.744465 0
M  V30 3009 H 292.829 -1.68187 -3.08879 0
M  V30 3010 H 292.703 -0.0702139 -3.77135 0
M  V30 3011 H 295.09 0.436277 -2.91857 0
M  V30 3012 H 295.171 -1.20299 -2.25747 0
M  V30 3013 H 294.815 -2.14318 -4.60467 0
M  V30 3014 H 294.745 -0.481773 -5.24392 0
M  V30 3015 H 297.236 -0.745643 -3.70471 0
M  V30 3016 H 297.549 -2.13282 -7.42786 0
M  V30 3017 H 295.894 -1.91142 -6.68199 0
M  V30 3018 H 299.085 -1.00607 -4.57161 0
M  V30 3019 H 299.258 -1.63841 -6.26945 0
M  V30 3020 N 292.664 1.56529 -0.183458 0
M  V30 3021 C 293.612 2.19873 0.758845 0
M  V30 3022 C 294.606 1.16638 1.22849 0
M  V30 3023 O 295.812 1.3481 1.19274 0
M  V30 3024 H 292.187 0.7045 0.263029 0
M  V30 3025 H 294.158 2.97724 0.200755 0
M  V30 3026 C 292.907 2.86314 1.9728 0
M  V30 3027 H 292.23 3.65487 1.62047 0
M  V30 3028 H 293.67 3.3409 2.61075 0
M  V30 3029 C 292.129 1.86729 2.80418 0
M  V30 3030 O 292.659 1.36031 3.77966 0
M  V30 3031 N 290.865 1.55216 2.45675 0
M  V30 3032 H 290.412 1.96636 1.66409 0
M  V30 3033 H 290.37 0.888388 3.01588 0
M  V30 3034 N 294.142 -0.090211 1.57342 0
M  V30 3035 C 295.558 -0.444547 1.53284 0
M  V30 3036 C 295.758 -1.80238 0.900914 0
M  V30 3037 O 294.814 -2.4759 0.495513 0
M  V30 3038 C 296.127 -0.402543 2.97993 0
M  V30 3039 C 297.675 -0.48405 3.09234 0
M  V30 3040 C 298.15 -0.472144 4.5556 0
M  V30 3041 N 299.641 -0.532757 4.60126 0
M  V30 3042 C 300.376 -0.545462 5.708 0
M  V30 3043 N 299.872 -0.514082 6.9089 0
M  V30 3044 N 301.665 -0.59064 5.58988 0
M  V30 3045 H 293.816 0.799121 1.96794 0
M  V30 3046 H 296.079 0.297965 0.899956 0
M  V30 3047 H 295.785 0.528106 3.47712 0
M  V30 3048 H 295.659 -1.21969 3.56936 0
M  V30 3049 H 298.046 -1.40512 2.595 0
M  V30 3050 H 298.127 0.361328 2.53235 0
M  V30 3051 H 297.771 0.445 5.05947 0
M  V30 3052 H 297.701 -1.3348 5.09402 0
M  V30 3053 H 300.192 -0.562006 3.73698 0
M  V30 3054 H 300.505 -0.527195 7.71 0
M  V30 3055 H 298.85 -0.481054 6.93333 0
M  V30 3056 H 302.041 -0.61272 4.64073 0
M  V30 3057 H 302.214 -0.597073 6.45243 0
M  V30 3058 N 295.62 -1.53406 -0.361157 0
M  V30 3059 C 296.85 -1.73465 -1.1222 0
M  V30 3060 C 297.258 -0.465486 -1.83384 0
M  V30 3061 O 296.601 0.571611 -1.7458 0
M  V30 3062 C 296.663 -2.84834 -2.19339 0
M  V30 3063 C 296.327 -4.25038 -1.67903 0
M  V30 3064 C 297.324 -5.07231 -1.14074 0
M  V30 3065 C 295.009 -4.71464 -1.73282 0
M  V30 3066 C 297.003 -6.33942 -0.663068 0
M  V30 3067 C 294.69 -5.98153 -1.25127 0
M  V30 3068 C 295.688 -6.79223 -0.717296 0
M  V30 3069 O 295.376 -8.03533 -0.242865 0
M  V30 3070 H 295.108 -0.583526 -0.341283 0
M  V30 3071 H 297.662 -2.00964 -0.424591 0
M  V30 3072 H 295.892 -2.5282 -2.92607 0
M  V30 3073 H 297.581 -2.9303 -2.80871 0
M  V30 3074 H 298.347 -4.72534 -1.09254 0
M  V30 3075 H 294.226 -4.08432 -2.13786 0
M  V30 3076 H 297.77 -6.97167 -0.245612 0
M  V30 3077 H 293.667 -6.32347 -1.29642 0
M  V30 3078 H 294.435 -8.177 -0.361786 0
M  V30 3079 N 297.098 0.621204 -1.44841 0
M  V30 3080 C 298.028 1.74366 -1.55303 0
M  V30 3081 C 299.009 1.65199 -0.405385 0
M  V30 3082 O 300.194 1.83807 -0.626787 0
M  V30 3083 C 297.324 3.12931 -1.50637 0
M  V30 3084 C 296.278 3.36896 -2.63979 0
M  V30 3085 C 295.604 4.75594 -2.44366 0
M  V30 3086 C 296.904 3.28483 -4.06074 0
M  V30 3087 H 298.598 1.65867 -2.49256 0
M  V30 3088 H 296.144 0.796558 -1.19962 0
M  V30 3089 H 298.097 3.9124 -1.56555 0
M  V30 3090 H 296.821 3.22237 -0.532057 0
M  V30 3091 H 295.48 2.60972 -2.57467 0
M  V30 3092 H 295.128 4.81616 -1.45105 0
M  V30 3093 H 294.828 4.92586 -3.20364 0
M  V30 3094 H 296.352 5.5612 -2.52117 0
M  V30 3095 H 297.766 3.96684 -4.13902 0
M  V30 3096 H 296.163 3.57008 -4.82354 0
M  V30 3097 H 297.233 2.26133 -4.28943 0
M  V30 3098 N 298.576 1.31904 0.862503 0
M  V30 3099 C 299.853 1.12644 1.59908 0
M  V30 3100 C 300.233 -0.316104 2.0872 0
M  V30 3101 O 299.581 -1.31145 1.87118 0
M  V30 3102 C 299.791 2.1472 2.7513 0
M  V30 3103 C 301.139 2.47637 3.44907 0
M  V30 3104 O 302.163 2.13205 2.85346 0
M  V30 3105 O 301.022 3.06632 4.52371 0
M  V30 3106 H 298.116 0.43416 0.703871 0
M  V30 3107 H 300.662 1.43408 0.907314 0
M  V30 3108 H 299.434 3.1172 2.3653 0
M  V30 3109 H 299.057 1.84905 3.51989 0
M  V30 3110 N 300.054 -1.07777 1.14986 0
M  V30 3111 C 301.465 -1.61766 0.932127 0
M  V30 3112 C 301.816 -1.88974 -0.527581 0
M  V30 3113 O 300.941 -1.65198 -1.39781 0
M  V30 3114 C 301.536 -2.93891 1.68563 0
M  V30 3115 C 300.095 -3.44639 1.5133 0
M  V30 3116 C 299.242 -2.18767 1.704 0
M  V30 3117 H 302.193 -0.909201 1.30074 0
M  V30 3118 H 302.214 -3.62623 1.15259 0
M  V30 3119 H 301.726 -2.74057 2.74799 0
M  V30 3120 H 299.827 -3.69564 0.474702 0
M  V30 3121 H 299.94 -4.20966 2.28746 0
M  V30 3122 H 298.304 -2.28253 1.13016 0
M  V30 3123 H 299.087 -2.01433 2.77992 0
M  V30 3124 N 301.532 -0.945985 -1.26051 0
M  V30 3125 C 302.495 -0.463897 -2.24456 0
M  V30 3126 C 303.495 0.427655 -1.55009 0
M  V30 3127 O 304.685 0.226157 -1.72726 0
M  V30 3128 C 301.817 0.330812 -3.39291 0
M  V30 3129 H 303.01 -1.33357 -2.68619 0
M  V30 3130 H 300.563 -0.728416 -1.38289 0
M  V30 3131 H 301.298 1.21852 -3.00537 0
M  V30 3132 H 301.083 -0.308679 -3.90883 0
M  V30 3133 H 302.573 0.657865 -4.12386 0
M  V30 3134 N 303.011 1.40521 -0.713556 0
M  V30 3135 C 303.943 2.29191 -0.0203126 0
M  V30 3136 C 304.956 1.45723 0.725864 0
M  V30 3137 O 306.145 1.69033 0.573581 0
M  V30 3138 C 303.245 3.2395 0.995486 0
M  V30 3139 C 302.418 4.36262 0.315256 0
M  V30 3140 C 301.477 5.11474 1.23616 0
M  V30 3141 O 300.503 5.64606 0.721719 0
M  V30 3142 N 301.705 5.20638 2.56743 0
M  V30 3143 H 304.47 2.89327 -0.781652 0
M  V30 3144 H 302.031 1.51869 -0.561022 0
M  V30 3145 H 304.023 3.71137 1.61368 0
M  V30 3146 H 302.593 2.64995 1.6582 0
M  V30 3147 H 301.813 3.91228 -0.483106 0
M  V30 3148 H 303.101 5.08558 -0.157004 0
M  V30 3149 H 302.499 4.7895 3.01037 0
M  V30 3150 H 301.056 5.71339 3.13712 0
M  V30 3151 N 304.489 0.459591 1.5075 0
M  V30 3152 C 305.905 0.113092 1.59199 0
M  V30 3153 C 306.105 -1.37951 1.46874 0
M  V30 3154 O 305.161 -2.15168 1.32132 0
M  V30 3155 C 306.474 0.653043 2.93523 0
M  V30 3156 C 308.022 0.615449 3.0689 0
M  V30 3157 C 308.497 1.13275 4.43771 0
M  V30 3158 N 309.988 1.09167 4.50152 0
M  V30 3159 C 310.723 1.46256 5.54434 0
M  V30 3160 N 310.219 1.90739 6.66026 0
M  V30 3161 N 312.012 1.37932 5.44914 0
M  V30 3162 H 304.163 1.43049 1.57005 0
M  V30 3163 H 306.426 0.590861 0.741341 0
M  V30 3164 H 306.132 1.69822 3.07983 0
M  V30 3165 H 306.006 0.0902132 3.77092 0
M  V30 3166 H 308.393 -0.420793 2.92084 0
M  V30 3167 H 308.474 1.21495 2.25106 0
M  V30 3168 H 308.118 2.16757 4.59324 0
M  V30 3169 H 308.048 0.509576 5.24129 0
M  V30 3170 H 310.539 0.76528 3.7007 0
M  V30 3171 H 310.852 2.17218 7.41644 0
M  V30 3172 H 309.197 1.94683 6.67176 0
M  V30 3173 H 312.388 1.0303 4.56621 0
M  V30 3174 H 312.561 1.67164 6.26067 0
M  V30 3175 N 305.967 -1.56429 0.191757 0
M  V30 3176 C 306.93 -2.17707 -0.716688 0
M  V30 3177 C 307.93 -1.13061 -1.14341 0
M  V30 3178 O 309.12 -1.38464 -1.05704 0
M  V30 3179 C 306.252 -2.77644 -1.97804 0
M  V30 3180 H 307.445 -2.99342 -0.1829 0
M  V30 3181 H 304.998 -1.56193 -0.0578566 0
M  V30 3182 H 305.733 -1.99799 -2.55443 0
M  V30 3183 H 305.518 -3.54246 -1.68083 0
M  V30 3184 H 307.008 -3.24708 -2.62592 0
M  V30 3185 N 307.445 0.0818655 -1.57387 0
M  V30 3186 C 308.408 1.08265 -2.02018 0
M  V30 3187 C 309.408 1.32183 -0.915664 0
M  V30 3188 O 310.598 1.28073 -1.18081 0
M  V30 3189 C 307.73 2.42871 -2.39221 0
M  V30 3190 H 308.923 0.698204 -2.91659 0
M  V30 3191 H 306.476 0.327303 -1.52835 0
M  V30 3192 H 307.211 2.86167 -1.52575 0
M  V30 3193 H 306.996 2.26855 -3.19811 0
M  V30 3194 H 308.486 3.14826 -2.74362 0
M  V30 3195 N 308.923 1.53595 0.353017 0
M  V30 3196 C 309.886 1.80232 1.41594 0
M  V30 3197 C 310.886 0.673081 1.46035 0
M  V30 3198 O 312.076 0.941335 1.46576 0
M  V30 3199 C 309.208 1.93578 2.80607 0
M  V30 3200 H 310.401 2.75174 1.19244 0
M  V30 3201 H 307.954 1.44864 0.586872 0
M  V30 3202 H 308.689 1.00746 3.08254 0
M  V30 3203 H 308.474 2.75724 2.78781 0
M  V30 3204 H 309.964 2.15735 3.57558 0
M  V30 3205 N 310.401 -0.613514 1.45168 0
M  V30 3206 C 311.647 -1.37471 1.49096 0
M  V30 3207 C 311.98 -1.93765 0.129901 0
M  V30 3208 O 311.255 -1.74707 -0.854858 0
M  V30 3209 C 311.538 -2.52701 2.56542 0
M  V30 3210 C 311.391 -2.01643 4.0207 0
M  V30 3211 C 312.71 -3.54849 2.60327 0
M  V30 3212 H 309.829 -0.498502 0.54283 0
M  V30 3213 H 312.471 -0.692125 1.76945 0
M  V30 3214 H 310.621 -3.10931 2.32926 0
M  V30 3215 H 312.293 -1.48108 4.36877 0
M  V30 3216 H 310.536 -1.32688 4.13009 0
M  V30 3217 H 311.207 -2.84681 4.72928 0
M  V30 3218 H 313.683 -3.0645 2.81474 0
M  V30 3219 H 312.559 -4.32973 3.37381 0
M  V30 3220 H 312.82 -4.10079 1.6519 0
M  V30 3221 N 311.879 -1.3236 -0.855495 0
M  V30 3222 C 312.842 -1.21164 -1.94556 0
M  V30 3223 C 313.842 -0.134908 -1.60233 0
M  V30 3224 O 315.032 -0.385249 -1.69887 0
M  V30 3225 C 312.164 -0.863192 -3.29791 0
M  V30 3226 H 313.357 -2.18038 -2.05911 0
M  V30 3227 H 310.91 -1.16179 -1.04557 0
M  V30 3228 H 311.645 0.103769 -3.24134 0
M  V30 3229 H 311.43 -1.64166 -3.56078 0
M  V30 3230 H 312.92 -0.809156 -4.09686 0
M  V30 3231 N 313.357 1.07166 -1.15556 0
M  V30 3232 C 314.287 2.16403 -0.877046 0
M  V30 3233 C 315.268 1.69217 0.173111 0
M  V30 3234 O 316.453 1.94181 0.027084 0
M  V30 3235 C 313.583 3.45349 -0.367632 0
M  V30 3236 C 312.537 4.05995 -1.35468 0
M  V30 3237 C 311.863 5.30045 -0.704038 0
M  V30 3238 C 313.163 4.45804 -2.72132 0
M  V30 3239 H 314.857 2.39959 -1.79053 0
M  V30 3240 H 312.403 1.15325 -0.862331 0
M  V30 3241 H 314.356 4.21095 -0.160317 0
M  V30 3242 H 313.08 3.21385 0.581326 0
M  V30 3243 H 311.739 3.32296 -1.54839 0
M  V30 3244 H 311.387 5.02373 0.251128 0
M  V30 3245 H 311.087 5.71579 -1.36277 0
M  V30 3246 H 312.611 6.08495 -0.50654 0
M  V30 3247 H 314.025 5.12671 -2.56595 0
M  V30 3248 H 312.422 4.98296 -3.34397 0
M  V30 3249 H 313.492 3.57083 -3.28054 0
M  V30 3250 N 314.835 0.952656 1.25548 0
M  V30 3251 C 316.06 0.623025 1.97821 0
M  V30 3252 C 316.485 -0.7976 1.70352 0
M  V30 3253 O 315.843 -1.53905 0.958283 0
M  V30 3254 C 315.891 0.885532 3.49558 0
M  V30 3255 O 314.995 -0.0366641 4.12384 0
M  V30 3256 H 314.336 0.237082 0.620232 0
M  V30 3257 H 316.866 1.27871 1.59719 0
M  V30 3258 H 316.876 0.811009 3.99858 0
M  V30 3259 H 315.551 1.92094 3.6888 0
M  V30 3260 H 314.128 0.0898954 3.72792 0
M  V30 3261 N 316.313 -1.40141 0.720998 0
M  V30 3262 C 317.276 -2.29058 0.0805834 0
M  V30 3263 C 318.276 -1.45632 -0.681758 0
M  V30 3264 O 319.466 -1.6648 -0.512856 0
M  V30 3265 C 316.598 -3.28925 -0.895593 0
M  V30 3266 H 317.791 -2.87191 0.863793 0
M  V30 3267 H 315.344 -1.48553 0.485975 0
M  V30 3268 H 316.079 -2.75822 -1.70566 0
M  V30 3269 H 315.864 -3.90519 -0.351766 0
M  V30 3270 H 317.354 -3.95494 -1.34069 0
M  V30 3271 N 317.792 -0.46758 -1.50504 0
M  V30 3272 C 318.755 0.317059 -2.26996 0
M  V30 3273 C 319.755 0.923513 -1.31635 0
M  V30 3274 O 320.945 0.793239 -1.55091 0
M  V30 3275 C 318.077 1.45134 -3.08462 0
M  V30 3276 H 319.27 -0.353723 -2.97807 0
M  V30 3277 H 316.823 -0.221545 -1.54722 0
M  V30 3278 H 317.558 2.15728 -2.4214 0
M  V30 3279 H 317.343 1.02232 -3.78538 0
M  V30 3280 H 318.833 2.00493 -3.66323 0
M  V30 3281 N 319.27 1.56325 -0.20005 0
M  V30 3282 C 320.2 2.22318 0.713916 0
M  V30 3283 C 321.181 1.18788 1.21752 0
M  V30 3284 O 322.366 1.47309 1.26545 0
M  V30 3285 C 319.496 2.88639 1.93144 0
M  V30 3286 C 318.45 3.98457 1.56255 0
M  V30 3287 C 317.776 4.51967 2.85709 0
M  V30 3288 C 319.076 5.16612 0.768747 0
M  V30 3289 H 320.77 2.98952 0.163755 0
M  V30 3290 H 318.316 1.43792 0.0773219 0
M  V30 3291 H 320.269 3.33491 2.57608 0
M  V30 3292 H 318.993 2.09419 2.50621 0
M  V30 3293 H 317.652 3.54305 0.941471 0
M  V30 3294 H 317.3 3.69503 3.41287 0
M  V30 3295 H 317 5.26071 2.6177 0
M  V30 3296 H 318.524 4.99523 3.51154 0
M  V30 3297 H 319.938 5.57977 1.3166 0
M  V30 3298 H 318.335 5.96812 0.627286 0
M  V30 3299 H 319.405 4.84358 -0.229168 0
M  V30 3300 N 320.748 -0.0735177 1.57428 0
M  V30 3301 C 321.976 -0.785969 1.9139 0
M  V30 3302 C 322.391 -1.71207 0.795847 0
M  V30 3303 O 321.748 -1.81033 -0.230915 0
M  V30 3304 C 321.799 -1.58107 3.25091 0
M  V30 3305 O 321.52 -0.6922 4.32597 0
M  V30 3306 C 323.021 -2.39467 3.73055 0
M  V30 3307 H 320.241 -0.223558 0.632663 0
M  V30 3308 H 322.785 -0.044302 2.04452 0
M  V30 3309 H 320.94 -2.27503 3.13562 0
M  V30 3310 H 321.354 -1.24504 5.09508 0
M  V30 3311 H 322.828 -2.90716 4.69242 0
M  V30 3312 H 323.305 -3.18913 3.01979 0
M  V30 3313 H 323.911 -1.7523 3.87523 0
M  V30 3314 N 322.226 -1.5378 -0.344866 0
M  V30 3315 C 323.189 -1.80981 -1.40637 0
M  V30 3316 C 324.189 -0.680816 -1.45676 0
M  V30 3317 O 325.379 -0.949095 -1.46075 0
M  V30 3318 C 322.511 -1.95063 -2.79577 0
M  V30 3319 H 323.704 -2.75803 -1.17783 0
M  V30 3320 H 321.257 -1.45173 -0.579181 0
M  V30 3321 H 321.992 -1.02379 -3.07716 0
M  V30 3322 H 321.777 -2.77198 -2.77315 0
M  V30 3323 H 323.267 -2.17629 -3.56409 0
M  V30 3324 N 323.704 0.605807 -1.45491 0
M  V30 3325 C 324.667 1.69836 -1.5391 0
M  V30 3326 C 325.667 1.55261 -0.418424 0
M  V30 3327 O 326.857 1.60296 -0.681965 0
M  V30 3328 C 323.989 3.09117 -1.43734 0
M  V30 3329 H 325.182 1.63738 -2.51257 0
M  V30 3330 H 322.735 0.821689 -1.32959 0
M  V30 3331 H 323.47 3.20791 -0.475788 0
M  V30 3332 H 323.255 3.21104 -2.25021 0
M  V30 3333 H 324.745 3.88696 -1.52661 0
M  V30 3334 N 325.182 1.32811 0.848464 0
M  V30 3335 C 326.145 1.22194 1.9391 0
M  V30 3336 C 327.145 0.143404 1.60159 0
M  V30 3337 O 328.335 0.394253 1.6968 0
M  V30 3338 C 325.467 0.88067 3.29328 0
M  V30 3339 H 326.66 2.19127 2.04752 0
M  V30 3340 H 324.213 1.16731 1.0394 0
M  V30 3341 H 324.948 -0.0865776 3.24184 0
M  V30 3342 H 324.733 1.66052 3.55203 0
M  V30 3343 H 326.223 0.830871 4.09251 0
M  V30 3344 N 326.66 -1.06551 1.16123 0
M  V30 3345 C 327.61 -2.12209 0.833736 0
M  V30 3346 C 328.594 -1.59825 -0.185656 0
M  V30 3347 O 329.786 -1.76994 0.0147906 0
M  V30 3348 C 326.915 -3.41674 0.333697 0
M  V30 3349 C 326.001 -4.00892 1.38372 0
M  V30 3350 N 326.392 -4.34256 2.59337 0
M  V30 3351 C 324.69 -4.28463 1.23836 0
M  V30 3352 C 325.391 -4.81291 3.26701 0
M  V30 3353 N 324.367 -4.80565 2.54083 0
M  V30 3354 H 328.169 -2.35849 1.75364 0
M  V30 3355 H 325.683 -1.24068 1.04789 0
M  V30 3356 H 327.68 -4.16822 0.0806918 0
M  V30 3357 H 326.34 -3.19475 -0.58017 0
M  V30 3358 H 327.351 -4.24687 2.96415 0
M  V30 3359 H 324.028 -4.15721 0.38504 0
M  V30 3360 H 325.418 -5.16332 4.29943 0
M  V30 3361 N 328.138 -0.959301 -1.25041 0
M  V30 3362 C 329.101 -0.487677 -2.23952 0
M  V30 3363 C 330.101 0.41119 -1.55454 0
M  V30 3364 O 331.291 0.207825 -1.72956 0
M  V30 3365 C 328.423 0.294807 -3.39623 0
M  V30 3366 H 329.616 -1.36198 -2.67189 0
M  V30 3367 H 327.169 -0.743042 -1.37508 0
M  V30 3368 H 327.904 1.18658 -3.01813 0
M  V30 3369 H 327.689 -0.35012 -3.90534 0
M  V30 3370 H 329.179 0.614089 -4.1306 0
M  V30 3371 N 329.616 1.39756 -0.72842 0
M  V30 3372 C 330.579 2.29012 -0.0927297 0
M  V30 3373 C 331.579 1.45992 0.674025 0
M  V30 3374 O 332.769 1.66749 0.50402 0
M  V30 3375 C 329.901 3.29396 0.878137 0
M  V30 3376 H 331.094 2.86729 -0.879011 0
M  V30 3377 H 328.647 1.48293 -0.493847 0
M  V30 3378 H 329.382 2.76722 1.69101 0
M  V30 3379 H 329.167 3.907 0.331051 0
M  V30 3380 H 330.657 3.96199 1.3197 0
M  V30 3381 N 331.094 0.475555 1.50254 0
M  V30 3382 C 332.322 -0.0754493 2.06762 0
M  V30 3383 C 332.737 -1.33111 1.33891 0
M  V30 3384 O 332.094 -1.77846 0.40952 0
M  V30 3385 C 332.145 -0.359008 3.59713 0
M  V30 3386 O 331.866 0.846851 4.29837 0
M  V30 3387 C 333.367 -0.956484 4.32858 0
M  V30 3388 H 330.587 0.00907525 0.670939 0
M  V30 3389 H 333.131 0.665618 1.93364 0
M  V30 3390 H 331.286 -1.05001 3.72899 0
M  V30 3391 H 331.7 0.594162 5.21124 0
M  V30 3392 H 333.174 -1.10463 5.40834 0
M  V30 3393 H 333.651 -1.94775 3.93649 0
M  V30 3394 H 334.257 -0.303723 4.24214 0
M  V30 3395 N 332.573 -1.56217 0.208337 0
M  V30 3396 C 333.536 -2.18455 -0.693557 0
M  V30 3397 C 334.536 -1.14268 -1.13135 0
M  V30 3398 O 335.726 -1.39577 -1.0423 0
M  V30 3399 C 332.858 -2.79727 -1.94848 0
M  V30 3400 H 334.051 -2.99519 -0.15114 0
M  V30 3401 H 331.604 -1.56245 -0.041287 0
M  V30 3402 H 332.339 -2.02497 -2.53309 0
M  V30 3403 H 332.124 -3.56009 -1.64316 0
M  V30 3404 H 333.614 -3.27475 -2.59133 0
M  V30 3405 N 334.051 0.0651679 -1.57465 0
M  V30 3406 C 335.299 0.761555 -1.87202 0
M  V30 3407 C 335.62 1.77778 -0.801243 0
M  V30 3408 O 334.89 1.95166 0.16937 0
M  V30 3409 H 333.47 0.284251 -0.690804 0
M  V30 3410 H 336.132 0.0396827 -1.9486 0
M  V30 3411 H 335.228 1.27365 -2.84929 0
M  V30 3412 N 335.529 1.53961 0.336706 0
M  V30 3413 C 336.492 1.81724 1.39675 0
M  V30 3414 C 337.492 0.688532 1.45313 0
M  V30 3415 O 338.682 0.956829 1.45569 0
M  V30 3416 C 335.814 1.96543 2.78538 0
M  V30 3417 H 337.007 2.76424 1.16318 0
M  V30 3418 H 334.56 1.45478 0.571474 0
M  V30 3419 H 335.295 1.0401 3.07168 0
M  V30 3420 H 335.08 2.78665 2.75841 0
M  V30 3421 H 336.57 2.19516 3.5525 0
M  V30 3422 N 337.007 -0.598083 1.45811 0
M  V30 3423 C 337.939 -1.72231 1.51225 0
M  V30 3424 C 338.952 -1.57757 0.402059 0
M  V30 3425 O 340.141 -1.65464 0.669624 0
M  V30 3426 C 337.241 -3.10331 1.3619 0
M  V30 3427 C 336.414 -3.50955 2.61054 0
M  V30 3428 C 335.473 -4.68055 2.40439 0
M  V30 3429 O 334.499 -4.74691 3.14097 0
M  V30 3430 N 335.701 -5.61941 1.45612 0
M  V30 3431 H 338.466 -1.68046 2.48154 0
M  V30 3432 H 336.027 -0.783637 1.41671 0
M  V30 3433 H 338.019 -3.86439 1.20195 0
M  V30 3434 H 336.589 -3.0897 0.475015 0
M  V30 3435 H 335.809 -2.64711 2.92099 0
M  V30 3436 H 337.097 -3.74858 3.44034 0
M  V30 3437 H 336.495 -5.59301 0.848431 0
M  V30 3438 H 335.052 -6.37542 1.35585 0
M  V30 3439 N 338.485 -1.33259 -0.841409 0
M  V30 3440 C 339.448 -1.23221 -1.9326 0
M  V30 3441 C 340.448 -0.151895 -1.60081 0
M  V30 3442 O 341.638 -0.403246 -1.69468 0
M  V30 3443 C 338.77 -0.898123 -3.28856 0
M  V30 3444 H 339.963 -2.2021 -2.03587 0
M  V30 3445 H 337.516 -1.17281 -1.03319 0
M  V30 3446 H 338.251 0.0693841 -3.24226 0
M  V30 3447 H 338.036 -1.67934 -3.54317 0
M  V30 3448 H 339.526 -0.852563 -4.08805 0
M  V30 3449 N 339.963 1.05934 -1.16686 0
M  V30 3450 C 340.926 2.11669 -0.879144 0
M  V30 3451 C 341.926 1.60294 0.127445 0
M  V30 3452 O 343.116 1.7389 -0.103865 0
M  V30 3453 C 340.248 3.39438 -0.315425 0
M  V30 3454 H 341.441 2.38626 -1.81653 0
M  V30 3455 H 338.994 1.22058 -0.976299 0
M  V30 3456 H 339.729 3.18132 0.629468 0
M  V30 3457 H 339.514 3.78034 -1.04079 0
M  V30 3458 H 341.004 4.17391 -0.132189 0
M  V30 3459 N 341.441 0.965919 1.2453 0
M  V30 3460 C 342.371 0.513476 2.27784 0
M  V30 3461 C 343.352 -0.445974 1.6415 0
M  V30 3462 O 344.537 -0.342485 1.91156 0
M  V30 3463 C 341.667 -0.198839 3.4673 0
M  V30 3464 C 340.621 0.676456 4.2262 0
M  V30 3465 C 339.947 -0.167248 5.34438 0
M  V30 3466 C 341.247 1.96017 4.84123 0
M  V30 3467 H 342.941 1.3765 2.65881 0
M  V30 3468 H 340.487 0.663321 1.27813 0
M  V30 3469 H 342.44 -0.526567 4.18097 0
M  V30 3470 H 341.164 -1.0962 3.07654 0
M  V30 3471 H 339.823 0.98743 3.53052 0
M  V30 3472 H 339.471 -1.0647 4.91603 0
M  V30 3473 H 339.171 0.415181 5.86131 0
M  V30 3474 H 340.695 -0.489688 6.08633 0
M  V30 3475 H 342.109 1.69814 5.47573 0
M  V30 3476 H 340.506 2.48918 5.4604 0
M  V30 3477 H 341.576 2.65622 4.05676 0
M  V30 3478 N 342.919 -1.39368 0.735821 0
M  V30 3479 C 344.196 -1.94465 0.210395 0
M  V30 3480 C 344.576 -1.67254 -1.28799 0
M  V30 3481 O 343.924 -1.00123 -2.05396 0
M  V30 3482 C 344.134 -3.4472 0.544897 0
M  V30 3483 C 345.482 -4.21708 0.494689 0
M  V30 3484 O 346.506 -3.52922 0.482136 0
M  V30 3485 O 345.365 -5.44299 0.489947 0
M  V30 3486 H 342.459 -0.826096 0.0386666 0
M  V30 3487 H 345.005 -1.48863 0.814735 0
M  V30 3488 H 343.777 -3.57963 1.58045 0
M  V30 3489 H 343.4 -3.97502 -0.08837 0
M  V30 3490 N 344.397 -0.483516 -1.5 0
M  V30 3491 C 345.36 0.292965 -2.2732 0
M  V30 3492 C 346.36 0.909499 -1.32608 0
M  V30 3493 O 347.55 0.776745 -1.55924 0
M  V30 3494 C 344.682 1.41854 -3.09984 0
M  V30 3495 H 345.875 -0.385289 -2.97415 0
M  V30 3496 H 343.428 -0.237942 -1.54478 0
M  V30 3497 H 344.163 2.13148 -2.44414 0
M  V30 3498 H 343.948 0.982114 -3.79601 0
M  V30 3499 H 345.438 1.96597 -3.68429 0
M  V30 3500 N 345.875 1.56104 -0.216619 0
M  V30 3501 C 346.838 2.18819 0.681962 0
M  V30 3502 C 347.838 1.14866 1.12528 0
M  V30 3503 O 349.028 1.40128 1.03488 0
M  V30 3504 C 346.16 2.80756 1.93362 0
M  V30 3505 H 347.353 2.99595 0.135254 0
M  V30 3506 H 344.906 1.56265 0.0330003 0
M  V30 3507 H 345.641 2.03837 2.52232 0
M  V30 3508 H 345.426 3.56876 1.62426 0
M  V30 3509 H 346.916 3.28844 2.57393 0
M  V30 3510 N 347.353 -0.0568162 1.57498 0
M  V30 3511 C 348.769 -0.411933 1.54192 0
M  V30 3512 C 348.969 -1.78287 0.938942 0
M  V30 3513 O 348.025 -2.46483 0.547919 0
M  V30 3514 C 349.338 -0.339244 2.9878 0
M  V30 3515 C 350.886 -0.418348 3.10192 0
M  V30 3516 C 351.361 -0.375407 4.56459 0
M  V30 3517 N 352.852 -0.435038 4.61153 0
M  V30 3518 C 353.587 -0.424265 5.71828 0
M  V30 3519 N 353.083 -0.367418 6.91825 0
M  V30 3520 N 354.876 -0.471938 5.60115 0
M  V30 3521 H 347.027 0.840684 1.95055 0
M  V30 3522 H 349.29 0.316987 0.893433 0
M  V30 3523 H 348.996 0.601742 3.46514 0
M  V30 3524 H 348.87 -1.14371 3.59443 0
M  V30 3525 H 351.257 -1.34976 2.62422 0
M  V30 3526 H 351.338 0.414962 2.52412 0
M  V30 3527 H 350.982 0.552219 5.04889 0
M  V30 3528 H 350.912 -1.22645 5.12119 0
M  V30 3529 H 353.403 -0.482612 3.74806 0
M  V30 3530 H 353.716 -0.363535 7.71944 0
M  V30 3531 H 352.061 -0.333879 6.94198 0
M  V30 3532 H 355.252 -0.514145 4.65268 0
M  V30 3533 H 355.425 -0.460073 6.46365 0
M  V30 3534 N 348.832 -1.54138 -0.328536 0
M  V30 3535 C 349.795 -1.82462 -1.38709 0
M  V30 3536 C 350.795 -0.696229 -1.44946 0
M  V30 3537 O 351.985 -0.964535 -1.4506 0
M  V30 3538 C 349.117 -1.98018 -2.77492 0
M  V30 3539 H 350.31 -2.77037 -1.14851 0
M  V30 3540 H 347.863 -1.45779 -0.563751 0
M  V30 3541 H 348.598 -1.05637 -3.06613 0
M  V30 3542 H 348.383 -2.80124 -2.74359 0
M  V30 3543 H 349.873 -2.21396 -3.54081 0
M  V30 3544 N 350.31 0.590341 -1.46126 0
M  V30 3545 C 351.556 1.35082 -1.51264 0
M  V30 3546 C 351.889 1.93534 -0.160711 0
M  V30 3547 O 351.164 1.76045 0.826956 0
M  V30 3548 C 351.447 2.48588 -2.6053 0
M  V30 3549 C 351.3 1.95221 -4.05227 0
M  V30 3550 C 352.619 3.50662 -2.6594 0
M  V30 3551 H 349.738 0.489803 -0.550692 0
M  V30 3552 H 352.38 0.663887 -1.78024 0
M  V30 3553 H 350.53 3.07186 -2.37843 0
M  V30 3554 H 352.202 1.41139 -4.39178 0
M  V30 3555 H 350.445 1.26101 -4.15068 0
M  V30 3556 H 351.116 2.77121 -4.77397 0
M  V30 3557 H 353.592 3.01934 -2.86313 0
M  V30 3558 H 352.468 4.27551 -3.44226 0
M  V30 3559 H 352.729 4.07399 -1.71694 0
M  V30 3560 N 351.788 1.33704 0.83433 0
M  V30 3561 C 352.718 1.26967 1.95963 0
M  V30 3562 C 353.699 0.149337 1.69443 0
M  V30 3563 O 354.884 0.339852 1.91203 0
M  V30 3564 C 352.014 1.01275 3.32206 0
M  V30 3565 C 350.968 2.09652 3.73136 0
M  V30 3566 C 350.294 1.69166 5.07235 0
M  V30 3567 C 351.594 3.51372 3.86439 0
M  V30 3568 H 353.288 2.2112 2.01857 0
M  V30 3569 H 350.834 1.06447 0.969793 0
M  V30 3570 H 352.787 0.952106 4.10503 0
M  V30 3571 H 351.511 0.0356203 3.26581 0
M  V30 3572 H 350.17 2.14766 2.97104 0
M  V30 3573 H 349.818 0.701437 4.98085 0
M  V30 3574 H 349.518 2.41694 5.35591 0
M  V30 3575 H 351.042 1.64576 5.88003 0
M  V30 3576 H 352.456 3.48734 4.55036 0
M  V30 3577 H 350.853 4.22425 4.26236 0
M  V30 3578 H 351.923 3.89546 2.88759 0
M  V30 3579 N 353.266 -1.05314 1.17247 0
M  V30 3580 C 354.543 -1.75184 0.87005 0
M  V30 3581 C 354.923 -2.01481 -0.629965 0
M  V30 3582 O 354.271 -1.64988 -1.58086 0
M  V30 3583 C 354.481 -3.04594 1.70363 0
M  V30 3584 C 355.829 -3.78567 1.92281 0
M  V30 3585 O 356.853 -3.14461 1.67311 0
M  V30 3586 O 355.712 -4.93755 2.3424 0
M  V30 3587 H 352.806 -0.761729 0.322021 0
M  V30 3588 H 355.352 -1.11493 1.27935 0
M  V30 3589 H 354.124 -2.81201 2.72106 0
M  V30 3590 H 353.747 -3.76022 1.29202 0
M  V30 3591 N 354.744 -0.972509 -1.24016 0
M  V30 3592 C 355.707 -0.511403 -2.23422 0
M  V30 3593 C 356.707 0.394679 -1.55881 0
M  V30 3594 O 357.897 0.189469 -1.73167 0
M  V30 3595 C 355.029 0.258769 -3.39916 0
M  V30 3596 H 356.222 -1.39024 -2.6573 0
M  V30 3597 H 353.775 -0.757585 -1.36713 0
M  V30 3598 H 354.51 1.1545 -3.03054 0
M  V30 3599 H 354.295 -0.391522 -3.9014 0
M  V30 3600 H 355.785 0.570244 -4.13688 0
M  V30 3601 N 356.222 1.38976 -0.743202 0
M  V30 3602 C 357.185 2.28901 -0.117014 0
M  V30 3603 C 358.185 1.46698 0.658503 0
M  V30 3604 O 359.375 1.67274 0.486305 0
M  V30 3605 C 356.507 3.30309 0.84315 0
M  V30 3606 H 357.7 2.8578 -0.909373 0
M  V30 3607 H 355.253 1.47761 -0.509547 0
M  V30 3608 H 355.988 2.785 1.66157 0
M  V30 3609 H 355.773 3.91029 0.289594 0
M  V30 3610 H 357.263 3.97577 1.2776 0
M  V30 3611 N 357.7 0.491464 1.49741 0
M  V30 3612 C 359.111 0.0413169 1.86654 0
M  V30 3613 C 359.462 -1.36985 1.40462 0
M  V30 3614 O 358.587 -2.01917 0.778354 0
M  V30 3615 C 359.182 0.0682023 3.38731 0
M  V30 3616 C 357.741 -0.32656 3.74981 0
M  V30 3617 C 356.888 0.444888 2.73708 0
M  V30 3618 H 359.839 0.704733 1.42194 0
M  V30 3619 H 359.86 -0.729322 3.73445 0
M  V30 3620 H 359.372 1.09539 3.72321 0
M  V30 3621 H 357.473 -1.35734 3.46997 0
M  V30 3622 H 357.586 -0.013741 4.79098 0
M  V30 3623 H 355.95 -0.104062 2.54487 0
M  V30 3624 H 356.733 1.47197 3.10142 0
M  V30 3625 N 359.178 -1.55987 0.224894 0
M  V30 3626 C 360.426 -1.97998 -0.405099 0
M  V30 3627 C 360.747 -1.11387 -1.60056 0
M  V30 3628 O 360.017 -0.191645 -1.9496 0
M  V30 3629 H 358.597 -0.731235 -0.152658 0
M  V30 3630 H 361.259 -1.92279 0.318567 0
M  V30 3631 H 360.355 -3.03463 -0.729167 0
M  V30 3632 N 360.656 0.0484629 -1.57525 0
M  V30 3633 C 361.902 0.744226 -1.88651 0
M  V30 3634 C 362.235 1.76029 -0.820212 0
M  V30 3635 O 361.51 1.93782 0.166985 0
M  V30 3636 C 361.793 1.43128 -3.30434 0
M  V30 3637 C 361.646 0.43005 -4.47739 0
M  V30 3638 C 362.965 2.37031 -3.70816 0
M  V30 3639 H 360.084 0.269089 -0.68612 0
M  V30 3640 H 362.726 0.00713532 -1.89999 0
M  V30 3641 H 360.876 2.05956 -3.29415 0
M  V30 3642 H 362.548 -0.194816 -4.60888 0
M  V30 3643 H 360.791 -0.252522 -4.33064 0
M  V30 3644 H 361.462 0.948874 -5.43783 0
M  V30 3645 H 363.938 1.84263 -3.73077 0
M  V30 3646 H 362.814 2.82094 -4.70865 0
M  V30 3647 H 363.075 3.22864 -3.02012 0
M  V30 3648 N 362.134 1.5431 0.320358 0
M  V30 3649 C 363.097 1.83195 1.3774 0
M  V30 3650 C 364.097 0.703906 1.44575 0
M  V30 3651 O 365.287 0.972214 1.44546 0
M  V30 3652 C 362.419 1.99487 2.76438 0
M  V30 3653 H 363.612 2.77642 1.1338 0
M  V30 3654 H 361.165 1.46076 0.556012 0
M  V30 3655 H 361.9 1.07262 3.06048 0
M  V30 3656 H 361.685 2.81575 2.7287 0
M  V30 3657 H 363.175 2.23271 3.52902 0
M  V30 3658 N 363.613 -0.582584 1.46437 0
M  V30 3659 C 364.859 -1.34278 1.51978 0
M  V30 3660 C 365.192 -1.93446 0.170973 0
M  V30 3661 O 364.467 -1.76481 -0.817608 0
M  V30 3662 C 364.75 -2.47203 2.61845 0
M  V30 3663 C 364.603 -1.93069 4.06257 0
M  V30 3664 C 365.922 -3.49247 2.67795 0
M  V30 3665 H 363.041 -0.486876 0.553282 0
M  V30 3666 H 365.683 -0.654437 1.78374 0
M  V30 3667 H 363.833 -3.0592 2.39469 0
M  V30 3668 H 365.505 -1.38808 4.3992 0
M  V30 3669 H 363.748 -1.23898 4.1573 0
M  V30 3670 H 364.419 -2.74586 4.7886 0
M  V30 3671 H 366.895 -3.00411 2.8791 0
M  V30 3672 H 365.771 -4.25719 3.46489 0
M  V30 3673 H 366.032 -4.06482 1.73852 0
M  V30 3674 N 365.091 -1.34144 -0.827227 0
M  V30 3675 C 366.368 -1.16844 -1.56865 0
M  V30 3676 C 366.748 0.260654 -2.09485 0
M  V30 3677 O 366.096 1.26138 -1.9053 0
M  V30 3678 C 366.306 -2.21939 -2.6934 0
M  V30 3679 C 367.654 -2.56695 -3.3822 0
M  V30 3680 O 368.678 -2.20695 -2.79593 0
M  V30 3681 O 367.537 -3.18518 -4.44082 0
M  V30 3682 H 364.631 -0.452669 -0.692112 0
M  V30 3683 H 367.177 -1.45763 -0.868973 0
M  V30 3684 H 365.949 -3.17882 -2.28182 0
M  V30 3685 H 365.572 -1.94172 -3.46962 0
M  V30 3686 N 366.569 1.04691 -1.17803 0
M  V30 3687 C 367.799 1.81183 -0.992788 0
M  V30 3688 C 368.207 1.8347 0.462098 0
M  V30 3689 O 367.55 1.2643 1.33271 0
M  V30 3690 C 367.612 3.28363 -1.46349 0
M  V30 3691 C 367.276 3.49749 -2.94151 0
M  V30 3692 C 368.273 3.41456 -3.92051 0
M  V30 3693 C 365.958 3.76548 -3.32441 0
M  V30 3694 C 367.952 3.59656 -5.26238 0
M  V30 3695 C 365.639 3.94396 -4.66792 0
M  V30 3696 C 366.637 3.8595 -5.635 0
M  V30 3697 O 366.325 4.03294 -6.9542 0
M  V30 3698 H 366.057 0.577622 -0.351182 0
M  V30 3699 H 368.611 1.32876 -1.5663 0
M  V30 3700 H 366.841 3.77609 -0.833574 0
M  V30 3701 H 368.53 3.86395 -1.24313 0
M  V30 3702 H 369.296 3.20723 -3.63815 0
M  V30 3703 H 365.175 3.82224 -2.57732 0
M  V30 3704 H 368.719 3.52979 -6.01707 0
M  V30 3705 H 364.616 4.14622 -4.94731 0
M  V30 3706 H 365.384 4.2049 -7.02232 0
M  V30 3707 N 368.047 0.979072 1.23499 0
M  V30 3708 C 368.977 0.537606 2.27227 0
M  V30 3709 C 369.958 -0.428539 1.64613 0
M  V30 3710 O 371.143 -0.322191 1.91509 0
M  V30 3711 C 368.273 -0.162052 3.46922 0
M  V30 3712 C 367.227 0.721242 4.21879 0
M  V30 3713 C 366.553 -0.110555 5.34586 0
M  V30 3714 C 367.853 2.01141 4.82016 0
M  V30 3715 H 369.547 1.40462 2.64406 0
M  V30 3716 H 367.093 0.67684 1.27102 0
M  V30 3717 H 369.046 -0.482192 4.18632 0
M  V30 3718 H 367.77 -1.06351 3.08799 0
M  V30 3719 H 366.429 1.02482 3.51984 0
M  V30 3720 H 366.077 -1.0125 4.92704 0
M  V30 3721 H 365.777 0.477325 5.85658 0
M  V30 3722 H 367.301 -0.425107 6.09118 0
M  V30 3723 H 368.715 1.75612 5.45741 0
M  V30 3724 H 367.112 2.54695 5.43369 0
M  V30 3725 H 368.182 2.69909 4.02836 0
M  V30 3726 N 369.525 -1.3858 0.750561 0
M  V30 3727 C 370.435 -2.34278 0.122825 0
M  V30 3728 C 371.451 -1.59116 -0.704131 0
M  V30 3729 O 372.627 -1.91326 -0.628987 0
M  V30 3730 C 369.692 -3.38221 -0.762086 0
M  V30 3731 C 368.753 -4.29227 0.078896 0
M  V30 3732 C 367.986 -5.28205 -0.763874 0
M  V30 3733 O 368.209 -5.34112 -2.00201 0
M  V30 3734 O 367.143 -6.01618 -0.18428 0
M  V30 3735 H 370.969 -2.89649 0.913088 0
M  V30 3736 H 368.554 -1.40374 0.511417 0
M  V30 3737 H 370.436 -4.01872 -1.26793 0
M  V30 3738 H 369.111 -2.85211 -1.5309 0
M  V30 3739 H 368.018 -3.68747 0.630621 0
M  V30 3740 H 369.351 -4.85484 0.810289 0
M  V30 3741 N 371.003 -0.499398 -1.49478 0
M  V30 3742 C 371.933 0.269244 -2.31943 0
M  V30 3743 C 372.914 0.964054 -1.40143 0
M  V30 3744 O 374.099 0.955767 -1.69052 0
M  V30 3745 C 371.229 1.33504 -3.20615 0
M  V30 3746 C 370.183 0.760202 -4.21195 0
M  V30 3747 C 369.509 1.9264 -4.98792 0
M  V30 3748 C 370.809 -0.247661 -5.21712 0
M  V30 3749 H 372.503 -0.419082 -2.96452 0
M  V30 3750 H 370.049 -0.202988 -1.42562 0
M  V30 3751 H 372.002 1.88048 -3.77115 0
M  V30 3752 H 370.726 2.05253 -2.54045 0
M  V30 3753 H 369.385 0.23653 -3.65836 0
M  V30 3754 H 369.033 2.63154 -4.28671 0
M  V30 3755 H 368.733 1.54785 -5.66847 0
M  V30 3756 H 370.257 2.4762 -5.58137 0
M  V30 3757 H 371.671 0.209579 -5.72917 0
M  V30 3758 H 370.068 -0.541962 -5.97648 0
M  V30 3759 H 371.138 -1.16409 -4.7072 0
M  V30 3760 N 372.481 1.55866 -0.233164 0
M  V30 3761 C 373.897 1.59133 0.121988 0
M  V30 3762 C 374.097 1.25016 1.58029 0
M  V30 3763 O 373.153 0.990922 2.32243 0
M  V30 3764 C 374.466 2.99932 -0.214792 0
M  V30 3765 C 376.014 3.12601 -0.157971 0
M  V30 3766 C 376.489 4.55597 -0.46859 0
M  V30 3767 N 377.98 4.61305 -0.418585 0
M  V30 3768 C 378.715 5.69903 -0.63227 0
M  V30 3769 N 378.211 6.86819 -0.90835 0
M  V30 3770 N 380.004 5.59264 -0.563913 0
M  V30 3771 H 372.155 1.76315 -1.18434 0
M  V30 3772 H 374.418 0.820093 -0.475553 0
M  V30 3773 H 374.124 3.29588 -1.22739 0
M  V30 3774 H 373.998 3.74327 0.464691 0
M  V30 3775 H 376.385 2.82735 0.845283 0
M  V30 3776 H 376.466 2.40511 -0.871102 0
M  V30 3777 H 376.11 4.86182 -1.46934 0
M  V30 3778 H 376.04 5.25928 0.265865 0
M  V30 3779 H 378.531 3.77297 -0.213368 0
M  V30 3780 H 378.844 7.65507 -1.05919 0
M  V30 3781 H 377.189 6.88536 -0.945673 0
M  V30 3782 H 380.38 4.66802 -0.348372 0
M  V30 3783 H 380.553 6.43831 -0.733847 0
M  V30 3784 N 373.959 -0.0401083 1.57549 0
M  V30 3785 C 375.236 -0.767917 1.79896 0
M  V30 3786 C 375.616 -1.9416 0.82856 0
M  V30 3787 O 374.964 -2.2812 -0.131671 0
M  V30 3788 C 375.174 -1.2113 3.27305 0
M  V30 3789 C 376.522 -1.63175 3.91994 0
M  V30 3790 O 377.546 -1.30616 3.31388 0
M  V30 3791 O 376.405 -2.23565 4.98679 0
M  V30 3792 H 373.499 -0.370441 0.739393 0
M  V30 3793 H 376.045 -0.017737 1.69691 0
M  V30 3794 H 374.817 -0.372937 3.89519 0
M  V30 3795 H 374.44 -2.02183 3.42356 0
M  V30 3796 N 375.437 -1.54477 -0.31217 0
M  V30 3797 C 376.686 -1.72438 -1.04633 0
M  V30 3798 C 376.999 -0.511163 -1.88803 0
M  V30 3799 O 378.205 -0.572341 -2.65399 0
M  V30 3800 C 376.661 -3.05043 -1.9099 0
M  V30 3801 C 376.269 -4.33806 -1.11877 0
M  V30 3802 C 378.013 -3.32364 -2.64073 0
M  V30 3803 C 375.92 -5.57467 -1.97445 0
M  V30 3804 H 374.85 -0.642647 -0.394361 0
M  V30 3805 H 377.501 -1.80966 -0.303929 0
M  V30 3806 H 375.883 -2.90451 -2.69173 0
M  V30 3807 H 377.057 -4.59199 -0.383843 0
M  V30 3808 H 375.372 -4.13336 -0.504252 0
M  V30 3809 H 377.969 -4.21951 -3.28423 0
M  V30 3810 H 378.312 -2.50745 -3.32314 0
M  V30 3811 H 378.845 -3.47875 -1.92944 0
M  V30 3812 H 375.584 -6.41722 -1.33692 0
M  V30 3813 H 375.104 -5.36277 -2.6864 0
M  V30 3814 H 376.783 -5.94303 -2.5576 0
M  V30 3815 N 376.915 0.57481 -1.46744 0
M  V30 3816 C 378.163 1.33009 -1.52161 0
M  V30 3817 C 378.484 1.94185 -0.178092 0
M  V30 3818 O 377.754 1.7899 0.796196 0
M  V30 3819 H 376.334 0.493873 -0.560445 0
M  V30 3820 H 378.996 0.672589 -1.82927 0
M  V30 3821 H 378.092 2.13273 -2.27862 0
M  V30 3822 N 378.394 1.34581 0.820102 0
M  V30 3823 C 379.324 1.29038 1.94606 0
M  V30 3824 C 380.305 0.1673 1.69275 0
M  V30 3825 O 381.49 0.360112 1.90832 0
M  V30 3826 C 378.62 1.04793 3.31113 0
M  V30 3827 C 377.574 2.13597 3.70891 0
M  V30 3828 C 376.9 1.74537 5.05412 0
M  V30 3829 C 378.2 3.55451 3.8269 0
M  V30 3830 H 379.894 2.23248 1.99501 0
M  V30 3831 H 377.44 1.0747 0.958449 0
M  V30 3832 H 379.393 0.995592 4.0947 0
M  V30 3833 H 378.117 0.0702565 3.26524 0
M  V30 3834 H 376.776 2.17905 2.9481 0
M  V30 3835 H 376.424 0.754226 4.97313 0
M  V30 3836 H 376.124 2.47361 5.32997 0
M  V30 3837 H 377.648 1.70803 5.86224 0
M  V30 3838 H 379.062 3.5354 4.51312 0
M  V30 3839 H 377.459 4.26922 4.21732 0
M  V30 3840 H 378.529 3.92587 2.84611 0
M  V30 3841 N 379.872 -1.04064 1.18357 0
M  V30 3842 C 381.12 -1.76915 0.977013 0
M  V30 3843 C 381.441 -1.88624 -0.494577 0
M  V30 3844 O 380.711 -1.41125 -1.3587 0
M  V30 3845 H 379.291 -0.65535 0.358504 0
M  V30 3846 H 381.953 -1.25592 1.49039 0
M  V30 3847 H 381.049 -2.78178 1.41504 0
M  V30 3848 N 381.35 -0.985608 -1.22978 0
M  V30 3849 C 382.761 -0.693593 -1.73338 0
M  V30 3850 C 383.112 0.789935 -1.79595 0
M  V30 3851 O 382.237 1.61771 -1.43733 0
M  V30 3852 C 382.832 -1.25235 -3.14804 0
M  V30 3853 C 381.391 -1.00987 -3.626 0
M  V30 3854 C 380.538 -1.37695 -2.40698 0
M  V30 3855 H 383.489 -1.15884 -1.08428 0
M  V30 3856 H 383.51 -0.627329 -3.75293 0
M  V30 3857 H 383.022 -2.33209 -3.10218 0
M  V30 3858 H 381.123 0.0535565 -3.72562 0
M  V30 3859 H 381.236 -1.66812 -4.49122 0
M  V30 3860 H 379.6 -0.795459 -2.4196 0
M  V30 3861 H 380.383 -2.46657 -2.38779 0
M  V30 3862 N 382.828 1.3818 -0.7579 0
M  V30 3863 C 383.761 2.28055 -0.0814093 0
M  V30 3864 C 384.739 1.45603 0.723779 0
M  V30 3865 O 385.923 1.74961 0.701491 0
M  V30 3866 C 383.05 3.2676 0.891394 0
M  V30 3867 C 382.096 4.26153 0.171909 0
M  V30 3868 S 382.929 5.23434 -1.13035 0
M  V30 3869 C 384.085 6.25694 -0.160727 0
M  V30 3870 H 384.318 2.85082 -0.84353 0
M  V30 3871 H 381.851 1.44246 -0.550671 0
M  V30 3872 H 383.809 3.8414 1.44731 0
M  V30 3873 H 382.47 2.68706 1.62652 0
M  V30 3874 H 381.663 4.95738 0.908843 0
M  V30 3875 H 381.265 3.72691 -0.312606 0
M  V30 3876 H 383.557 6.74161 0.671773 0
M  V30 3877 H 384.5 7.03285 -0.824353 0
M  V30 3878 H 384.908 5.64064 0.221892 0
M  V30 3879 N 384.306 0.507319 1.49211 0
M  V30 3880 C 385.717 0.0611118 1.866 0
M  V30 3881 C 386.068 -1.35488 1.41907 0
M  V30 3882 O 385.193 -2.0108 0.799726 0
M  V30 3883 C 385.788 0.104125 3.3864 0
M  V30 3884 C 384.347 -0.28677 3.75306 0
M  V30 3885 C 383.494 0.473893 2.73221 0
M  V30 3886 H 386.445 0.719775 1.41439 0
M  V30 3887 H 386.466 -0.689672 3.74198 0
M  V30 3888 H 385.978 1.13482 3.71138 0
M  V30 3889 H 384.079 -1.32046 3.48417 0
M  V30 3890 H 384.192 0.0370745 4.79086 0
M  V30 3891 H 382.556 -0.0770644 2.54583 0
M  V30 3892 H 383.339 1.50478 3.08563 0
M  V30 3893 N 385.784 -1.5574 0.241426 0
M  V30 3894 C 386.714 -2.24133 -0.654722 0
M  V30 3895 C 387.695 -1.21974 -1.1856 0
M  V30 3896 O 388.88 -1.50612 -1.22595 0
M  V30 3897 C 386.01 -2.93659 -1.85423 0
M  V30 3898 C 384.964 -4.0246 -1.45636 0
M  V30 3899 C 384.29 -4.59383 -2.73626 0
M  V30 3900 C 385.59 -5.18468 -0.631506 0
M  V30 3901 H 387.284 -2.99281 -0.0844353 0
M  V30 3902 H 384.83 -1.43947 -0.0391707 0
M  V30 3903 H 386.783 -3.40203 -2.48676 0
M  V30 3904 H 385.507 -2.15991 -2.44981 0
M  V30 3905 H 384.166 -3.56676 -0.847202 0
M  V30 3906 H 383.814 -3.78422 -3.3137 0
M  V30 3907 H 383.514 -5.32826 -2.4773 0
M  V30 3908 H 385.038 -5.08658 -3.37786 0
M  V30 3909 H 386.452 -5.61272 -1.1682 0
M  V30 3910 H 384.849 -5.98266 -0.468831 0
M  V30 3911 H 385.919 -4.8358 0.357506 0
M  V30 3912 N 387.262 0.0317525 -1.57568 0
M  V30 3913 C 388.21 1.05165 -2.07468 0
M  V30 3914 C 389.204 1.3761 -0.98792 0
M  V30 3915 O 390.41 1.36546 -1.17282 0
M  V30 3916 H 386.785 0.35666 -0.66204 0
M  V30 3917 H 388.756 0.604958 -2.92203 0
M  V30 3918 C 387.505 2.34488 -2.56731 0
M  V30 3919 H 386.828 2.10383 -3.39969 0
M  V30 3920 H 388.268 3.04203 -2.95358 0
M  V30 3921 C 386.727 3.03266 -1.46736 0
M  V30 3922 O 387.257 3.92988 -0.832069 0
M  V30 3923 N 385.463 2.6455 -1.20256 0
M  V30 3924 H 385.01 1.91674 -1.72102 0
M  V30 3925 H 384.968 3.10886 -0.468737 0
M  V30 3926 N 388.74 1.54641 0.303973 0
M  V30 3927 C 389.988 1.73437 1.0375 0
M  V30 3928 C 390.309 0.521449 1.87899 0
M  V30 3929 O 389.579 -0.46432 1.90318 0
M  V30 3930 H 388.159 0.639518 0.386039 0
M  V30 3931 H 390.821 1.91988 0.335675 0
M  V30 3932 H 389.917 2.62235 1.69231 0
M  V30 3933 N 390.218 -0.567019 1.47046 0
M  V30 3934 C 391.443 -1.3551 1.57009 0
M  V30 3935 C 391.868 -1.86841 0.217259 0
M  V30 3936 O 391.226 -1.62435 -0.805268 0
M  V30 3937 C 391.274 -2.50777 2.5912 0
M  V30 3938 O 390.378 -3.52706 2.13711 0
M  V30 3939 H 389.719 -0.402919 0.52778 0
M  V30 3940 H 392.249 -0.686241 1.92748 0
M  V30 3941 H 392.259 -2.97481 2.79229 0
M  V30 3942 H 390.934 -2.12771 3.57353 0
M  V30 3943 H 389.511 -3.12374 2.03659 0
M  V30 3944 N 391.696 -1.35014 -0.812953 0
M  V30 3945 C 392.944 -1.27678 -1.56661 0
M  V30 3946 C 393.265 0.150359 -1.94419 0
M  V30 3947 O 392.535 1.08532 -1.63088 0
M  V30 3948 H 391.115 -0.469602 -0.580933 0
M  V30 3949 H 393.777 -1.69043 -0.970076 0
M  V30 3950 H 392.873 -1.88833 -2.48492 0
M  V30 3951 N 393.175 1.03435 -1.18907 0
M  V30 3952 C 394.591 1.28973 -0.940111 0
M  V30 3953 C 394.791 1.97676 0.390691 0
M  V30 3954 O 393.847 2.26127 1.12352 0
M  V30 3955 C 395.16 2.14221 -2.11021 0
M  V30 3956 C 396.708 2.27547 -2.14922 0
M  V30 3957 C 397.183 3.16164 -3.31367 0
M  V30 3958 N 398.674 3.23752 -3.31269 0
M  V30 3959 C 399.409 3.92495 -4.18014 0
M  V30 3960 N 398.905 4.63515 -5.14904 0
M  V30 3961 N 400.698 3.88838 -4.05908 0
M  V30 3962 H 392.849 0.57252 -2.04538 0
M  V30 3963 H 395.112 0.315184 -0.894071 0
M  V30 3964 H 394.818 1.71054 -3.073 0
M  V30 3965 H 394.692 3.14919 -2.0762 0
M  V30 3966 H 397.079 2.69947 -1.19217 0
M  V30 3967 H 397.16 1.26418 -2.22378 0
M  V30 3968 H 396.804 2.74474 -4.27348 0
M  V30 3969 H 396.734 4.17339 -3.21148 0
M  V30 3970 H 399.225 2.73167 -2.61129 0
M  V30 3971 H 399.538 5.13583 -5.77453 0
M  V30 3972 H 397.883 4.62398 -5.18857 0
M  V30 3973 H 401.074 3.32491 -3.29495 0
M  V30 3974 H 401.247 4.4214 -4.73726 0
M  V30 3975 N 394.653 0.992116 1.22453 0
M  V30 3976 C 395.583 0.561677 2.26644 0
M  V30 3977 C 396.564 -0.411055 1.65059 0
M  V30 3978 O 397.749 -0.301861 1.9184 0
M  V30 3979 C 394.879 -0.125247 3.47074 0
M  V30 3980 C 393.833 0.765948 4.21091 0
M  V30 3981 C 393.159 -0.0538484 5.34673 0
M  V30 3982 C 394.459 2.06242 4.79856 0
M  V30 3983 H 396.153 1.43259 2.62902 0
M  V30 3984 H 393.699 0.690283 1.26377 0
M  V30 3985 H 395.652 -0.437764 4.1912 0
M  V30 3986 H 394.376 -1.03069 3.0991 0
M  V30 3987 H 393.035 1.0621 3.50878 0
M  V30 3988 H 392.683 -0.960188 4.9375 0
M  V30 3989 H 392.383 0.539415 5.85119 0
M  V30 3990 H 393.907 -0.360477 6.09535 0
M  V30 3991 H 395.321 1.8139 5.43848 0
M  V30 3992 H 393.718 2.60444 5.40638 0
M  V30 3993 H 394.788 2.74167 3.99951 0
M  V30 3994 N 396.131 -1.37776 0.765217 0
M  V30 3995 C 397.061 -2.32945 0.160953 0
M  V30 3996 C 398.042 -1.55454 -0.690516 0
M  V30 3997 O 399.227 -1.83721 -0.629318 0
M  V30 3998 C 396.357 -3.39669 -0.724031 0
M  V30 3999 C 395.311 -4.27992 0.0256173 0
M  V30 4000 C 394.637 -5.25673 -0.978383 0
M  V30 4001 C 395.937 -5.08309 1.20082 0
M  V30 4002 H 397.631 -2.83728 0.955969 0
M  V30 4003 H 395.177 -1.36416 0.461149 0
M  V30 4004 H 397.13 -4.05219 -1.15652 0
M  V30 4005 H 395.854 -2.87396 -1.5515 0
M  V30 4006 H 394.513 -3.63964 0.438812 0
M  V30 4007 H 394.161 -4.69682 -1.80022 0
M  V30 4008 H 393.861 -5.85625 -0.481378 0
M  V30 4009 H 395.385 -5.94098 -1.40995 0
M  V30 4010 H 396.799 -5.67034 0.845307 0
M  V30 4011 H 395.196 -5.77554 1.62947 0
M  V30 4012 H 396.266 -4.41365 2.00811 0
M  V30 4013 N 397.609 -0.515225 -1.4894 0
M  V30 4014 C 398.855 0.0242508 -2.02785 0
M  V30 4015 C 399.188 1.35323 -1.39289 0
M  V30 4016 O 398.463 1.87041 -0.533469 0
M  V30 4017 C 398.746 0.16184 -3.59736 0
M  V30 4018 C 398.599 -1.19127 -4.33738 0
M  V30 4019 C 399.918 0.895719 -4.30888 0
M  V30 4020 H 397.037 0.00733914 -0.736963 0
M  V30 4021 H 399.679 -0.669395 -1.77818 0
M  V30 4022 H 397.829 0.752624 -3.8114 0
M  V30 4023 H 399.501 -1.82202 -4.23792 0
M  V30 4024 H 397.744 -1.77695 -3.95736 0
M  V30 4025 H 398.415 -1.04815 -5.41957 0
M  V30 4026 H 400.891 0.394528 -4.14225 0
M  V30 4027 H 399.767 0.960859 -5.40425 0
M  V30 4028 H 400.028 1.9427 -3.97129 0
M  V30 4029 N 399.087 1.5561 -0.249682 0
M  V30 4030 C 400.05 2.20217 0.635394 0
M  V30 4031 C 401.05 1.17227 1.10066 0
M  V30 4032 O 402.24 1.42292 1.00492 0
M  V30 4033 C 399.372 2.84794 1.87363 0
M  V30 4034 H 400.565 2.99814 0.0716752 0
M  V30 4035 H 398.118 1.563 -0.000153234 0
M  V30 4036 H 398.853 2.09142 2.47851 0
M  V30 4037 H 398.638 3.60241 1.5482 0
M  V30 4038 H 400.128 3.3423 2.5036 0
M  V30 4039 N 400.565 -0.0233959 1.57583 0
M  V30 4040 C 401.528 -1.00693 2.05897 0
M  V30 4041 C 402.528 -1.28693 0.964092 0
M  V30 4042 O 403.718 -1.23602 1.22753 0
M  V30 4043 C 400.85 -2.33825 2.4807 0
M  V30 4044 H 402.043 -0.589476 2.9405 0
M  V30 4045 H 399.596 -0.270354 1.53944 0
M  V30 4046 H 400.331 -2.80307 1.6309 0
M  V30 4047 H 400.116 -2.1483 3.2801 0
M  V30 4048 H 401.606 -3.04426 2.85857 0
M  V30 4049 N 402.043 -1.548 -0.295768 0
M  V30 4050 C 403.459 -1.4613 -0.641722 0
M  V30 4051 C 403.659 -0.656771 -1.90496 0
M  V30 4052 O 402.715 -0.166547 -2.5195 0
M  V30 4053 C 404.028 -2.90141 -0.789852 0
M  V30 4054 C 405.576 -3.00216 -0.885396 0
M  V30 4055 C 406.051 -4.45434 -1.06548 0
M  V30 4056 N 407.542 -4.49166 -1.13156 0
M  V30 4057 C 408.277 -5.58717 -1.28929 0
M  V30 4058 N 407.773 -6.78182 -1.41567 0
M  V30 4059 N 409.566 -5.46415 -1.31859 0
M  V30 4060 H 401.717 -2.05574 0.534147 0
M  V30 4061 H 403.98 -0.931259 0.177372 0
M  V30 4062 H 403.686 -3.51635 0.0675598 0
M  V30 4063 H 403.56 -3.37859 -1.67724 0
M  V30 4064 H 405.947 -2.38833 -1.73329 0
M  V30 4065 H 406.028 -2.55787 0.0261185 0
M  V30 4066 H 405.672 -5.07413 -0.222335 0
M  V30 4067 H 405.602 -4.87499 -1.9913 0
M  V30 4068 H 408.093 -3.631 -1.04721 0
M  V30 4069 H 408.406 -7.57428 -1.53372 0
M  V30 4070 H 406.751 -6.81037 -1.38613 0
M  V30 4071 H 409.942 -4.5203 -1.21601 0
M  V30 4072 H 410.115 -6.31841 -1.43808 0
M  V30 4073 N 403.521 0.559213 -1.47345 0
M  V30 4074 C 404.451 1.67622 -1.62558 0
M  V30 4075 C 405.432 1.63331 -0.475087 0
M  V30 4076 O 406.617 1.80983 -0.704182 0
M  V30 4077 C 403.747 3.0626 -1.63774 0
M  V30 4078 C 402.701 3.25397 -2.7803 0
M  V30 4079 C 402.027 4.64801 -2.64318 0
M  V30 4080 C 403.327 3.10965 -4.19641 0
M  V30 4081 H 405.021 1.55146 -2.56067 0
M  V30 4082 H 402.567 0.744961 -1.23233 0
M  V30 4083 H 404.52 3.84247 -1.73008 0
M  V30 4084 H 403.244 3.1969 -0.66825 0
M  V30 4085 H 401.903 2.49817 -2.68304 0
M  V30 4086 H 401.551 4.75028 -1.65401 0
M  V30 4087 H 401.251 4.78555 -3.40968 0
M  V30 4088 H 402.775 5.44926 -2.75478 0
M  V30 4089 H 404.189 3.78772 -4.30354 0
M  V30 4090 H 402.586 3.36229 -4.97062 0
M  V30 4091 H 403.656 2.07736 -4.38148 0
M  V30 4092 N 404.999 1.35443 0.805782 0
M  V30 4093 C 406.247 1.28507 1.55982 0
M  V30 4094 C 406.568 -0.140046 1.94496 0
M  V30 4095 O 405.838 -1.07666 1.63661 0
M  V30 4096 H 404.418 0.472676 0.578434 0
M  V30 4097 H 407.08 1.69555 0.961098 0
M  V30 4098 H 406.176 1.90148 2.47488 0
M  V30 4099 N 406.477 -1.02803 1.19454 0
M  V30 4100 C 407.705 -1.79841 1.02297 0
M  V30 4101 C 408.12 -1.83879 -0.428259 0
M  V30 4102 O 407.477 -1.28345 -1.29745 0
M  V30 4103 C 407.528 -3.24852 1.58598 0
M  V30 4104 O 407.249 -3.21097 2.98041 0
M  V30 4105 C 408.75 -4.18485 1.46236 0
M  V30 4106 H 405.97 -0.565936 0.360496 0
M  V30 4107 H 408.514 -1.2948 1.58288 0
M  V30 4108 H 406.669 -3.72401 1.06753 0
M  V30 4109 H 407.083 -4.12033 3.24545 0
M  V30 4110 H 408.557 -5.18121 1.90407 0
M  V30 4111 H 409.034 -4.37254 0.41301 0
M  V30 4112 H 409.64 -3.76811 1.97215 0
M  V30 4113 N 407.956 -0.998596 -1.21925 0
M  V30 4114 C 409.184 -0.696286 -1.94832 0
M  V30 4115 C 409.599 0.740032 -1.73692 0
M  V30 4116 O 408.956 1.5 -1.03953 0
M  V30 4117 C 409.007 -0.999833 -3.47398 0
M  V30 4118 O 408.728 -2.37972 -3.67833 0
M  V30 4119 C 410.229 -0.716025 -4.37479 0
M  V30 4120 H 407.449 -0.257111 -0.619786 0
M  V30 4121 H 409.993 -1.33491 -1.54921 0
M  V30 4122 H 408.148 -0.406918 -3.85257 0
M  V30 4123 H 408.562 -2.48338 -4.61983 0
M  V30 4124 H 410.036 -0.978642 -5.43256 0
M  V30 4125 H 410.513 0.349968 -4.37803 0
M  V30 4126 H 411.119 -1.29025 -4.05256 0
M  V30 4127 N 409.434 1.37368 -0.772513 0
M  V30 4128 C 410.85 1.53059 -0.452231 0
M  V30 4129 C 411.05 1.73065 1.03203 0
M  V30 4130 O 410.106 1.75245 1.81784 0
M  V30 4131 C 411.419 2.72659 -1.26797 0
M  V30 4132 C 412.967 2.86521 -1.25995 0
M  V30 4133 C 413.442 4.09105 -2.05905 0
M  V30 4134 N 414.933 4.16219 -2.03263 0
M  V30 4135 C 415.668 5.10107 -2.61875 0
M  V30 4136 N 415.164 6.09547 -3.29278 0
M  V30 4137 N 416.957 5.02596 -2.51701 0
M  V30 4138 H 409.108 1.22634 -1.7342 0
M  V30 4139 H 411.371 0.597206 -0.736239 0
M  V30 4140 H 411.077 2.64343 -2.31982 0
M  V30 4141 H 410.951 3.66363 -0.897672 0
M  V30 4142 H 413.338 2.94308 -0.216081 0
M  V30 4143 H 413.419 1.93774 -1.66989 0
M  V30 4144 H 413.063 4.0208 -3.10313 0
M  V30 4145 H 412.993 5.00968 -1.62292 0
M  V30 4146 H 415.484 3.45012 -1.54192 0
M  V30 4147 H 415.797 6.77718 -3.71374 0
M  V30 4148 H 414.142 6.09824 -3.33377 0
M  V30 4149 H 417.333 4.23855 -1.98657 0
M  V30 4150 H 417.506 5.75582 -2.97673 0
M  V30 4151 N 410.912 0.523116 1.48665 0
M  V30 4152 C 411.842 -0.23231 2.32342 0
M  V30 4153 C 412.823 -0.941637 1.41659 0
M  V30 4154 O 414.008 -0.928751 1.70552 0
M  V30 4155 C 411.138 -1.28387 3.22698 0
M  V30 4156 C 410.092 -0.693098 4.22351 0
M  V30 4157 C 409.418 -1.8468 5.01794 0
M  V30 4158 C 410.718 0.33063 5.21252 0
M  V30 4159 H 412.412 0.466192 2.95748 0
M  V30 4160 H 409.958 0.225643 1.42221 0
M  V30 4161 H 411.911 -1.82024 3.80059 0
M  V30 4162 H 410.635 -2.01186 2.57278 0
M  V30 4163 H 409.294 -0.178299 3.66166 0
M  V30 4164 H 408.942 -2.56301 4.32804 0
M  V30 4165 H 408.642 -1.45747 5.69238 0
M  V30 4166 H 410.166 -2.38709 5.62006 0
M  V30 4167 H 411.58 -0.118407 5.73178 0
M  V30 4168 H 409.977 0.636974 5.9671 0
M  V30 4169 H 411.047 1.23883 4.68808 0
M  V30 4170 N 412.39 -1.55475 0.257931 0
M  V30 4171 C 413.32 -2.24815 -0.630912 0
M  V30 4172 C 414.301 -1.23224 -1.17259 0
M  V30 4173 O 415.486 -1.51904 -1.20991 0
M  V30 4174 C 412.616 -2.95609 -1.82298 0
M  V30 4175 C 411.57 -4.03982 -1.41359 0
M  V30 4176 C 410.896 -4.6226 -2.68738 0
M  V30 4177 C 412.196 -5.19109 -0.57648 0
M  V30 4178 H 413.89 -2.99354 -0.0526878 0
M  V30 4179 H 411.436 -1.4398 -0.023901 0
M  V30 4180 H 413.389 -3.42822 -2.45054 0
M  V30 4181 H 412.113 -2.18577 -2.42676 0
M  V30 4182 H 410.772 -3.57555 -0.809324 0
M  V30 4183 H 410.42 -3.81915 -3.27338 0
M  V30 4184 H 410.12 -5.35424 -2.42065 0
M  V30 4185 H 411.644 -5.12212 -3.32372 0
M  V30 4186 H 413.058 -5.62479 -1.10861 0
M  V30 4187 H 411.455 -5.98729 -0.405351 0
M  V30 4188 H 412.525 -4.83174 0.408776 0
M  V30 4189 N 413.868 0.0150385 -1.57593 0
M  V30 4190 C 415.145 0.7392 -1.81094 0
M  V30 4191 C 415.525 1.92817 -0.859344 0
M  V30 4192 O 414.873 2.28301 0.095362 0
M  V30 4193 C 415.083 1.15907 -3.29191 0
M  V30 4194 C 416.431 1.56918 -3.9454 0
M  V30 4195 O 417.455 1.25328 -3.33424 0
M  V30 4196 O 416.314 2.15604 -5.02173 0
M  V30 4197 H 413.408 0.358631 -0.745193 0
M  V30 4198 H 415.954 -0.00926156 -1.69697 0
M  V30 4199 H 414.726 0.310921 -3.90063 0
M  V30 4200 H 414.349 1.96711 -3.45529 0
M  V30 4201 N 415.346 1.54954 0.287554 0
M  V30 4202 C 416.294 1.87606 1.37502 0
M  V30 4203 C 417.288 0.751001 1.51843 0
M  V30 4204 O 418.494 0.935169 1.53801 0
M  V30 4205 H 414.869 0.595231 0.459569 0
M  V30 4206 H 416.84 2.78477 1.07206 0
M  V30 4207 C 415.589 2.15183 2.73115 0
M  V30 4208 H 414.912 3.01234 2.62866 0
M  V30 4209 H 416.352 2.4196 3.48183 0
M  V30 4210 C 414.811 0.954686 3.2309 0
M  V30 4211 O 415.341 0.181949 4.01288 0
M  V30 4212 N 413.547 0.756368 2.80584 0
M  V30 4213 H 413.094 1.38643 2.17108 0
M  V30 4214 H 413.052 -0.0430391 3.14371 0
M  V30 4215 N 416.824 -0.551391 1.4764 0
M  V30 4216 C 418.073 -1.30467 1.53822 0
M  V30 4217 C 418.386 -1.94495 0.207661 0
M  V30 4218 O 419.592 -2.71099 0.147533 0
M  V30 4219 C 418.048 -2.36616 2.71184 0
M  V30 4220 C 417.656 -1.78754 4.10793 0
M  V30 4221 C 419.4 -3.13088 2.86663 0
M  V30 4222 C 417.307 -2.82717 5.19447 0
M  V30 4223 H 416.237 -0.490584 0.572576 0
M  V30 4224 H 418.888 -0.58494 1.73927 0
M  V30 4225 H 417.27 -3.11529 2.4447 0
M  V30 4226 H 418.444 -1.10173 4.47435 0
M  V30 4227 H 416.759 -1.14846 4.00249 0
M  V30 4228 H 419.356 -3.90736 3.65007 0
M  V30 4229 H 419.699 -3.67635 1.95321 0
M  V30 4230 H 420.232 -2.45288 3.13175 0
M  V30 4231 H 416.971 -2.33018 6.12685 0
M  V30 4232 H 416.491 -3.4969 4.87316 0
M  V30 4233 H 418.17 -3.46102 5.46646 0
M  V30 4234 N 418.302 -1.35869 -0.798587 0
M  V30 4235 C 419.265 -1.29307 -1.89242 0
M  V30 4236 C 420.265 -0.202747 -1.59517 0
M  V30 4237 O 421.455 -0.456957 -1.681 0
M  V30 4238 C 418.587 -1.00229 -3.25833 0
M  V30 4239 H 419.78 -2.26576 -1.96478 0
M  V30 4240 H 417.333 -1.20509 -0.995358 0
M  V30 4241 H 418.068 -0.033801 -3.24282 0
M  V30 4242 H 417.853 -1.79121 -3.48795 0
M  V30 4243 H 419.343 -0.98219 -4.05885 0
M  V30 4244 N 419.78 1.02168 -1.19998 0
M  V30 4245 C 421.029 1.75091 -1.0013 0
M  V30 4246 C 421.342 1.89923 0.467835 0
M  V30 4247 O 422.548 2.59888 0.785515 0
M  V30 4248 C 421.004 3.14892 -1.74273 0
M  V30 4249 C 420.612 3.0809 -3.25245 0
M  V30 4250 C 422.356 3.9206 -1.62755 0
M  V30 4251 C 420.263 4.42867 -3.91948 0
M  V30 4252 H 419.193 0.656394 -0.37103 0
M  V30 4253 H 421.844 1.14284 -1.43567 0
M  V30 4254 H 420.226 3.7621 -1.2362 0
M  V30 4255 H 421.4 2.5611 -3.83072 0
M  V30 4256 H 419.715 2.44416 -3.3712 0
M  V30 4257 H 422.312 4.91764 -2.09934 0
M  V30 4258 H 422.655 4.12199 -0.582894 0
M  V30 4259 H 423.188 3.37359 -2.10793 0
M  V30 4260 H 419.927 4.27931 -4.96543 0
M  V30 4261 H 419.447 4.94874 -3.3891 0
M  V30 4262 H 421.126 5.11728 -3.95909 0
M  V30 4263 N 421.258 1.00505 1.21394 0
M  V30 4264 C 422.168 0.574806 2.27449 0
M  V30 4265 C 423.184 -0.382206 1.6975 0
M  V30 4266 O 424.36 -0.246027 1.99892 0
M  V30 4267 C 421.425 -0.0917414 3.46579 0
M  V30 4268 C 420.486 0.909758 4.1955 0
M  V30 4269 C 419.719 0.274924 5.32991 0
M  V30 4270 O 419.942 -0.928254 5.62796 0
M  V30 4271 O 418.876 0.985877 5.93771 0
M  V30 4272 H 422.702 1.45744 2.66444 0
M  V30 4273 H 420.287 0.773923 1.27792 0
M  V30 4274 H 422.169 -0.464551 4.18832 0
M  V30 4275 H 420.844 -0.948755 3.09484 0
M  V30 4276 H 419.751 1.33372 3.49518 0
M  V30 4277 H 421.084 1.73636 4.60555 0
M  V30 4278 N 422.737 -1.36956 0.779787 0
M  V30 4279 C 423.986 -1.98738 0.344405 0
M  V30 4280 C 424.299 -1.62596 -1.08728 0
M  V30 4281 O 425.505 -2.1754 -1.62445 0
M  V30 4282 C 423.961 -3.5544 0.564829 0
M  V30 4283 C 423.569 -4.00514 2.0073 0
M  V30 4284 C 425.313 -4.24059 0.193471 0
M  V30 4285 C 423.22 -5.49957 2.17489 0
M  V30 4286 H 422.15 -0.743561 0.12503 0
M  V30 4287 H 424.801 -1.56381 0.960057 0
M  V30 4288 H 423.183 -3.95817 -0.120397 0
M  V30 4289 H 424.357 -3.71362 2.72814 0
M  V30 4290 H 422.672 -3.44703 2.336 0
M  V30 4291 H 425.269 -5.33874 0.297097 0
M  V30 4292 H 425.612 -4.07378 -0.857263 0
M  V30 4293 H 426.145 -3.89012 0.831556 0
M  V30 4294 H 422.884 -5.71574 3.2091 0
M  V30 4295 H 422.404 -5.80767 1.49899 0
M  V30 4296 H 424.083 -6.16043 1.97738 0
M  V30 4297 N 424.215 -0.530993 -1.48385 0
M  V30 4298 C 425.463 0.00273189 -2.021 0
M  V30 4299 C 425.784 1.34672 -1.41027 0
M  V30 4300 O 425.054 1.8724 -0.576012 0
M  V30 4301 H 423.634 0.00399774 -0.746989 0
M  V30 4302 H 426.296 -0.695054 -1.82085 0
M  V30 4303 H 425.392 0.11031 -3.11905 0
M  V30 4304 N 425.693 1.55336 -0.266172 0
M  V30 4305 C 426.921 2.03801 0.356756 0
M  V30 4306 C 427.336 1.14485 1.50129 0
M  V30 4307 O 426.693 0.163121 1.8177 0
M  V30 4308 C 426.744 3.51455 0.846281 0
M  V30 4309 O 426.465 4.37371 -0.252663 0
M  V30 4310 C 427.966 4.15767 1.53794 0
M  V30 4311 H 425.186 0.665906 0.0825218 0
M  V30 4312 H 427.73 2.00636 -0.39566 0
M  V30 4313 H 425.885 3.55092 1.54881 0
M  V30 4314 H 426.299 5.24358 0.122173 0
M  V30 4315 H 427.773 5.20714 1.83198 0
M  V30 4316 H 428.25 3.63404 2.46646 0
M  V30 4317 H 428.856 4.16107 0.879488 0
M  V30 4318 N 427.171 -0.0066808 1.57599 0
M  V30 4319 C 428.418 -0.69292 1.90276 0
M  V30 4320 C 428.746 -1.74148 0.866192 0
M  V30 4321 O 428.001 -1.95268 -0.129933 0
M  V30 4322 C 428.3 -1.37939 3.29708 0
M  V30 4323 C 427.966 -0.464679 4.48499 0
M  V30 4324 C 426.628 -0.212809 4.80729 0
M  V30 4325 C 428.98 0.16551 5.20937 0
M  V30 4326 C 426.308 0.677653 5.82773 0
M  V30 4327 C 428.66 1.04381 6.23929 0
M  V30 4328 C 427.324 1.30492 6.54621 0
M  V30 4329 H 426.594 -0.253558 0.696268 0
M  V30 4330 H 429.241 0.0474123 1.91441 0
M  V30 4331 H 427.546 -2.1936 3.24636 0
M  V30 4332 H 429.243 -1.9163 3.52249 0
M  V30 4333 H 425.833 -0.671153 4.23313 0
M  V30 4334 H 430.017 -0.0160756 4.96297 0
M  V30 4335 H 425.273 0.88803 6.04917 0
M  V30 4336 H 429.447 1.53851 6.79193 0
M  V30 4337 H 427.074 1.99662 7.33512 0
M  V30 4338 N 428.649 -1.55105 -0.279332 0
M  V30 4339 C 429.612 -1.86783 -1.32834 0
M  V30 4340 C 430.612 -0.74199 -1.42657 0
M  V30 4341 O 431.802 -1.0102 -1.41918 0
M  V30 4342 C 428.934 -2.06746 -2.71052 0
M  V30 4343 H 430.127 -2.8055 -1.05979 0
M  V30 4344 H 427.68 -1.47499 -0.517087 0
M  V30 4345 H 428.415 -1.15339 -3.03097 0
M  V30 4346 H 428.2 -2.88711 -2.65309 0
M  V30 4347 H 429.69 -2.32549 -3.46858 0
M  V30 4348 N 430.127 0.543554 -1.4793 0
M  V30 4349 C 431.375 1.29752 -1.54948 0
M  V30 4350 C 431.696 1.93764 -0.219242 0
M  V30 4351 O 430.966 1.80639 0.75805 0
M  V30 4352 H 429.546 0.481874 -0.570795 0
M  V30 4353 H 432.208 0.633636 -1.84312 0
M  V30 4354 H 431.304 2.08392 -2.32334 0
M  V30 4355 N 431.605 1.3629 0.791371 0
M  V30 4356 C 432.833 1.33562 1.58016 0
M  V30 4357 C 433.248 -0.0835616 1.88615 0
M  V30 4358 O 432.605 -1.0399 1.49974 0
M  V30 4359 C 432.656 2.15517 2.90232 0
M  V30 4360 O 432.377 3.51902 2.60953 0
M  V30 4361 C 433.878 2.20546 3.84544 0
M  V30 4362 H 431.098 0.458226 0.490173 0
M  V30 4363 H 433.642 1.79361 0.982345 0
M  V30 4364 H 431.797 1.73278 3.46487 0
M  V30 4365 H 432.211 3.94644 3.4548 0
M  V30 4366 H 433.685 2.82252 4.74382 0
M  V30 4367 H 434.162 1.20838 4.2225 0
M  V30 4368 H 434.768 2.63013 3.34222 0
M  V30 4369 N 433.083 -1.0153 1.20538 0
M  V30 4370 C 434.36 -1.72327 0.925343 0
M  V30 4371 C 434.74 -2.03383 -0.565547 0
M  V30 4372 O 434.088 -1.69934 -1.52757 0
M  V30 4373 C 434.298 -2.9902 1.79967 0
M  V30 4374 C 435.646 -3.72258 2.04228 0
M  V30 4375 O 436.67 -3.08979 1.77231 0
M  V30 4376 O 435.529 -4.86053 2.4983 0
M  V30 4377 H 432.623 -0.751099 0.346092 0
M  V30 4378 H 435.169 -1.07366 1.31417 0
M  V30 4379 H 433.941 -2.72402 2.80915 0
M  V30 4380 H 433.564 -3.71721 1.41099 0
M  V30 4381 N 434.561 -1.01147 -1.20859 0
M  V30 4382 C 435.977 -0.725422 -1.42161 0
M  V30 4383 C 436.177 0.696919 -1.89064 0
M  V30 4384 O 435.233 1.46539 -2.05627 0
M  V30 4385 C 436.546 -1.74678 -2.44761 0
M  V30 4386 C 438.094 -1.76433 -2.58535 0
M  V30 4387 C 438.569 -2.77481 -3.64374 0
M  V30 4388 N 440.06 -2.76189 -3.71852 0
M  V30 4389 C 440.795 -3.51035 -4.53389 0
M  V30 4390 N 440.291 -4.35541 -5.38773 0
M  V30 4391 N 442.084 -3.39655 -4.47873 0
M  V30 4392 H 434.235 -1.92979 -0.887282 0
M  V30 4393 H 436.498 -0.833327 -0.451962 0
M  V30 4394 H 436.204 -2.76551 -2.17285 0
M  V30 4395 H 436.078 -1.55472 -3.43669 0
M  V30 4396 H 438.465 -0.75248 -2.85345 0
M  V30 4397 H 438.546 -1.99712 -1.5984 0
M  V30 4398 H 438.19 -3.78827 -3.38308 0
M  V30 4399 H 438.12 -2.51466 -4.6268 0
M  V30 4400 H 440.611 -2.14885 -3.10858 0
M  V30 4401 H 440.924 -4.89432 -5.98061 0
M  V30 4402 H 439.269 -4.39621 -5.38292 0
M  V30 4403 H 442.46 -2.73063 -3.80203 0
M  V30 4404 H 442.633 -3.9824 -5.11184 0
M  V30 4405 N 436.039 1.36541 -0.78704 0
M  V30 4406 C 437.45 1.81873 -0.421807 0
M  V30 4407 C 437.801 1.65487 1.05397 0
M  V30 4408 O 436.926 1.17448 1.81755 0
M  V30 4409 C 437.521 3.30192 -0.758841 0
M  V30 4410 C 436.08 3.73743 -0.446468 0
M  V30 4411 C 435.227 2.58844 -0.994728 0
M  V30 4412 H 438.178 1.24796 -0.98039 0
M  V30 4413 H 438.199 3.80468 -0.0490648 0
M  V30 4414 H 437.711 3.42087 -1.83299 0
M  V30 4415 H 435.812 3.6741 0.619739 0
M  V30 4416 H 435.925 4.69272 -0.965415 0
M  V30 4417 H 434.289 2.51245 -0.418087 0
M  V30 4418 H 435.072 2.73525 -2.07458 0
M  V30 4419 N 437.518 0.538854 1.48102 0
M  V30 4420 C 438.795 -0.0568108 1.95517 0
M  V30 4421 C 439.175 -1.50408 1.48124 0
M  V30 4422 O 438.523 -2.17133 0.711727 0
M  V30 4423 C 438.733 0.0696262 3.48931 0
M  V30 4424 C 440.081 -0.0851202 4.24515 0
M  V30 4425 O 441.105 -0.0037347 3.562 0
M  V30 4426 O 439.964 -0.257025 5.45895 0
M  V30 4427 H 437.058 -0.0743695 0.823649 0
M  V30 4428 H 439.604 0.604081 1.58584 0
M  V30 4429 H 438.376 1.07744 3.76174 0
M  V30 4430 H 437.999 -0.629714 3.92582 0
M  V30 4431 N 438.996 -1.55193 0.274407 0
M  V30 4432 C 440.244 -1.99187 -0.341902 0
M  V30 4433 C 440.565 -1.16422 -1.56431 0
M  V30 4434 O 439.835 -0.253573 -1.94252 0
M  V30 4435 H 438.415 -0.735721 -0.129317 0
M  V30 4436 H 441.077 -1.91168 0.379578 0
M  V30 4437 H 440.173 -3.05629 -0.632253 0
M  V30 4438 N 440.474 -0.00167713 -1.576 0
M  V30 4439 C 441.704 0.692754 -1.94639 0
M  V30 4440 C 442.112 1.67744 -0.87513 0
M  V30 4441 O 441.455 1.8305 0.154382 0
M  V30 4442 C 441.517 1.47881 -3.27676 0
M  V30 4443 C 441.181 0.655518 -4.52274 0
M  V30 4444 C 442.178 -0.0575214 -5.19868 0
M  V30 4445 C 439.863 0.600994 -4.98692 0
M  V30 4446 C 441.857 -0.814052 -6.3218 0
M  V30 4447 C 439.544 -0.15926 -6.10892 0
M  V30 4448 C 440.542 -0.865515 -6.77494 0
M  V30 4449 O 440.23 -1.61336 -7.87544 0
M  V30 4450 H 439.962 0.197792 -0.646417 0
M  V30 4451 H 442.516 -0.049423 -2.05341 0
M  V30 4452 H 440.746 2.2655 -3.13388 0
M  V30 4453 H 442.435 2.05874 -3.49816 0
M  V30 4454 H 443.201 -0.0245611 -4.84994 0
M  V30 4455 H 439.08 1.14025 -4.46676 0
M  V30 4456 H 442.624 -1.36584 -6.84098 0
M  V30 4457 H 438.521 -0.194035 -6.45208 0
M  V30 4458 H 439.289 -1.53025 -8.04068 0
M  V30 4459 N 441.952 1.55251 0.271103 0
M  V30 4460 C 443.368 1.47133 0.618393 0
M  V30 4461 C 443.568 0.686994 1.89427 0
M  V30 4462 O 442.624 0.206609 2.51653 0
M  V30 4463 C 443.937 2.91361 0.743593 0
M  V30 4464 C 445.485 3.01587 0.837522 0
M  V30 4465 C 445.96 4.47073 0.994483 0
M  V30 4466 N 447.451 4.50909 1.05996 0
M  V30 4467 C 448.186 5.60698 1.20024 0
M  V30 4468 N 447.682 6.80348 1.30759 0
M  V30 4469 N 449.475 5.48444 1.23149 0
M  V30 4470 H 441.626 2.04698 -0.566784 0
M  V30 4471 H 443.889 0.928319 -0.192165 0
M  V30 4472 H 443.595 3.51483 -0.123493 0
M  V30 4473 H 443.469 3.40484 1.62328 0
M  V30 4474 H 445.856 2.4156 1.69507 0
M  V30 4475 H 445.937 2.55713 -0.0668086 0
M  V30 4476 H 445.581 5.07703 0.141582 0
M  V30 4477 H 445.511 4.90605 1.91349 0
M  V30 4478 H 448.002 3.6472 0.989316 0
M  V30 4479 H 448.315 7.59772 1.41303 0
M  V30 4480 H 446.66 6.83156 1.27761 0
M  V30 4481 H 449.851 4.53907 1.14394 0
M  V30 4482 H 450.024 6.34049 1.33738 0
M  V30 4483 N 443.43 -0.535701 1.48216 0
M  V30 4484 C 444.393 -1.623 1.61838 0
M  V30 4485 C 445.393 -1.53087 0.492024 0
M  V30 4486 O 446.583 -1.5686 0.757668 0
M  V30 4487 C 443.715 -3.01907 1.58319 0
M  V30 4488 H 444.908 -1.51564 2.58783 0
M  V30 4489 H 442.461 -0.757317 1.36727 0
M  V30 4490 H 443.196 -3.18155 0.628299 0
M  V30 4491 H 442.981 -3.10003 2.40085 0
M  V30 4492 H 444.471 -3.80969 1.71033 0
M  V30 4493 N 444.908 -1.36708 -0.784132 0
M  V30 4494 C 446.157 -1.30559 -1.53744 0
M  V30 4495 C 446.47 0.111374 -1.95283 0
M  V30 4496 O 447.676 0.29527 -2.6989 0
M  V30 4497 C 446.132 -2.29098 -2.77565 0
M  V30 4498 C 445.74 -3.76258 -2.43174 0
M  V30 4499 C 447.484 -2.31936 -3.55536 0
M  V30 4500 C 445.391 -4.6656 -3.63422 0
M  V30 4501 H 444.321 -0.48518 -0.577162 0
M  V30 4502 H 446.972 -1.62101 -0.859981 0
M  V30 4503 H 445.354 -1.90557 -3.47137 0
M  V30 4504 H 446.528 -4.23565 -1.81465 0
M  V30 4505 H 444.843 -3.76246 -1.78403 0
M  V30 4506 H 447.44 -2.9661 -4.44889 0
M  V30 4507 H 447.783 -1.3294 -3.94503 0
M  V30 4508 H 448.316 -2.6912 -2.92949 0
M  V30 4509 H 445.055 -5.66638 -3.29547 0
M  V30 4510 H 444.575 -4.23966 -4.24279 0
M  V30 4511 H 446.254 -4.8309 -4.30387 0
M  V30 4512 N 446.386 1.0089 -1.21074 0
M  V30 4513 C 447.316 2.1145 -0.990523 0
M  V30 4514 C 448.297 1.69897 0.0831699 0
M  V30 4515 O 449.482 1.94052 -0.0758853 0
M  V30 4516 C 446.612 3.42914 -0.550177 0
M  V30 4517 C 445.566 3.98244 -1.56799 0
M  V30 4518 C 444.892 5.25568 -0.984013 0
M  V30 4519 C 446.192 4.30752 -2.95381 0
M  V30 4520 H 447.886 2.3013 -1.91521 0
M  V30 4521 H 445.432 1.10592 -0.92225 0
M  V30 4522 H 447.385 4.19653 -0.383305 0
M  V30 4523 H 446.109 3.24014 0.41015 0
M  V30 4524 H 444.768 3.23621 -1.72236 0
M  V30 4525 H 444.416 5.02998 -0.0155216 0
M  V30 4526 H 444.116 5.63551 -1.66384 0
M  V30 4527 H 445.64 6.04955 -0.828378 0
M  V30 4528 H 447.054 4.98349 -2.8341 0
M  V30 4529 H 445.451 4.79869 -3.60341 0
M  V30 4530 H 446.521 3.39192 -3.46521 0
M  V30 4531 N 447.864 1.01787 1.20321 0
M  V30 4532 C 448.774 0.598898 2.26827 0
M  V30 4533 C 449.79 -0.36418 1.70146 0
M  V30 4534 O 450.966 -0.224812 2.00141 0
M  V30 4535 C 448.031 -0.0549769 3.46656 0
M  V30 4536 C 447.092 0.954205 4.18561 0
M  V30 4537 C 446.325 0.331439 5.3267 0
M  V30 4538 O 446.548 -0.86851 5.63749 0
M  V30 4539 O 445.482 1.0488 5.92692 0
M  V30 4540 H 449.308 1.48562 2.64883 0
M  V30 4541 H 446.893 0.787434 1.26964 0
M  V30 4542 H 448.775 -0.420102 4.19301 0
M  V30 4543 H 447.45 -0.915876 3.10473 0
M  V30 4544 H 446.357 1.37072 3.48083 0
M  V30 4545 H 447.69 1.78511 4.58688 0
M  V30 4546 N 449.342 -1.36122 0.79427 0
M  V30 4547 C 450.567 -2.03891 0.379871 0
M  V30 4548 C 450.992 -1.59488 -0.997251 0
M  V30 4549 O 450.35 -0.765652 -1.64339 0
M  V30 4550 C 450.398 -3.57687 0.457442 0
M  V30 4551 O 449.502 -4.08931 -0.5338 0
M  V30 4552 H 448.843 -0.6443 0.160541 0
M  V30 4553 H 451.373 -1.73976 1.07673 0
M  V30 4554 H 451.383 -4.06721 0.322792 0
M  V30 4555 H 450.058 -3.89357 1.46199 0
M  V30 4556 H 448.635 -3.71154 -0.360409 0
M  V30 4557 N 450.82 -0.546701 -1.47814 0
M  V30 4558 C 451.77 0.227042 -2.26867 0
M  V30 4559 C 452.754 0.894844 -1.33721 0
M  V30 4560 O 453.946 0.794887 -1.58147 0
M  V30 4561 C 451.075 1.26299 -3.19223 0
M  V30 4562 C 450.161 0.59913 -4.19847 0
M  V30 4563 N 450.552 -0.324777 -5.04756 0
M  V30 4564 C 448.85 0.854331 -4.37741 0
M  V30 4565 C 449.551 -0.709386 -5.77358 0
M  V30 4566 N 448.527 -0.0666153 -5.43559 0
M  V30 4567 H 452.329 -0.483476 -2.89896 0
M  V30 4568 H 449.843 -0.365893 -1.58224 0
M  V30 4569 H 451.84 1.83116 -3.74532 0
M  V30 4570 H 450.5 1.97471 -2.57751 0
M  V30 4571 H 451.511 -0.698351 -5.1317 0
M  V30 4572 H 448.188 1.55536 -3.87447 0
M  V30 4573 H 449.578 -1.46796 -6.55668 0
M  V30 4574 N 452.299 1.55045 -0.282633 0
M  V30 4575 C 453.545 2.0078 0.325436 0
M  V30 4576 C 453.9 1.1676 1.52921 0
M  V30 4577 O 453.193 0.231475 1.90197 0
M  V30 4578 C 453.387 3.49422 0.750938 0
M  V30 4579 C 453.216 4.47827 -0.410056 0
M  V30 4580 C 451.986 4.97288 -0.896239 0
M  V30 4581 C 454.184 4.98903 -1.24902 0
M  V30 4582 N 452.166 5.79508 -2.02591 0
M  V30 4583 C 453.537 5.78644 -2.22646 0
M  V30 4584 C 455.592 4.81126 -1.2815 0
M  V30 4585 C 454.295 6.42502 -3.23393 0
M  V30 4586 C 456.321 5.45789 -2.27745 0
M  V30 4587 C 455.683 6.25348 -3.24222 0
M  V30 4588 H 451.782 0.77747 0.08405 0
M  V30 4589 H 454.366 1.90369 -0.408368 0
M  V30 4590 H 452.537 3.60159 1.45395 0
M  V30 4591 H 454.269 3.81978 1.33698 0
M  V30 4592 H 451.024 4.71219 -0.474277 0
M  V30 4593 H 451.448 6.25308 -2.59459 0
M  V30 4594 H 456.09 4.19215 -0.549397 0
M  V30 4595 H 453.808 7.03558 -3.97533 0
M  V30 4596 H 457.394 5.33972 -2.31009 0
M  V30 4597 H 456.274 6.74498 -4.00027 0
M  V30 4598 N 453.777 0.010035 1.57597 0
M  V30 4599 C 455.193 -0.346164 1.55801 0
M  V30 4600 C 455.393 -1.74144 1.01371 0
M  V30 4601 O 454.449 -2.43938 0.651968 0
M  V30 4602 C 455.762 -0.212216 2.9995 0
M  V30 4603 C 457.31 -0.286409 3.11687 0
M  V30 4604 C 457.785 -0.18147 4.5764 0
M  V30 4605 N 459.276 -0.239056 4.62583 0
M  V30 4606 C 460.011 -0.181351 5.73113 0
M  V30 4607 N 459.507 -0.073661 6.92761 0
M  V30 4608 N 461.3 -0.233949 5.61613 0
M  V30 4609 H 453.451 0.922657 1.91313 0
M  V30 4610 H 455.714 0.354595 0.879185 0
M  V30 4611 H 455.42 0.748169 3.4365 0
M  V30 4612 H 455.294 -0.990224 3.6397 0
M  V30 4613 H 457.681 -1.23724 2.67911 0
M  V30 4614 H 457.762 0.521645 2.50425 0
M  V30 4615 H 457.406 0.765863 5.02093 0
M  V30 4616 H 457.336 -1.00814 5.1686 0
M  V30 4617 H 459.827 -0.32321 3.76515 0
M  V30 4618 H 460.14 -0.0358003 7.72792 0
M  V30 4619 H 458.485 -0.0391461 6.94989 0
M  V30 4620 H 461.676 -0.316347 4.6703 0
M  V30 4621 H 461.849 -0.185514 6.47734 0
M  V30 4622 N 455.255 -1.55392 -0.262866 0
M  V30 4623 C 456.203 -1.8977 -1.345 0
M  V30 4624 C 457.197 -0.775063 -1.50629 0
M  V30 4625 O 458.403 -0.959519 -1.52293 0
M  V30 4626 H 454.778 -0.602467 -0.450041 0
M  V30 4627 H 456.749 -2.80147 -1.02762 0
M  V30 4628 C 455.498 -2.19501 -2.69657 0
M  V30 4629 H 454.821 -3.05378 -2.5804 0
M  V30 4630 H 456.261 -2.47469 -3.44289 0
M  V30 4631 C 454.72 -1.00597 -3.21531 0
M  V30 4632 O 455.25 -0.245768 -4.00947 0
M  V30 4633 N 453.456 -0.800911 -2.79345 0
M  V30 4634 H 453.003 -1.42079 -2.14875 0
M  V30 4635 H 452.961 -0.00697996 -3.14399 0
M  V30 4636 O 456.772 0.408595 -1.56246 0
M  V30 4637 H 457.463 1.06117 -1.62046 0
M  V30 END ATOM
M  V30 BEGIN BOND
M  V30 END BOND
M  V30 END CTAB
M  END
$$$$
