drugbank_target|Q15722 Leukotriene B4 receptor 1 (DB06248; DB09285; DB12961)
 OpenBabel12092120333D

  0  0  0     0  0            999 V3000
M  V30 BEGIN CTAB
M  V30 COUNTS 5437 5492 0 0 0
M  V30 BEGIN ATOM
M  V30 1 H -0.908 1.98254 -0.117106 0
M  V30 2 N 0 1.576 0 0
M  V30 3 C 0.933 2.03868 1.02534 0
M  V30 4 C 1.911 0.928543 1.3348 0
M  V30 5 O 3.095 1.19667 1.45644 0
M  V30 6 C 0.222 2.43627 2.35294 0
M  V30 7 C -0.732 3.65373 2.2001 0
M  V30 8 S 0.101 5.13292 1.52614 0
M  V30 9 C 1.257 5.56322 2.86805 0
M  V30 10 H 1.49 2.90518 0.631377 0
M  V30 11 H -0.977 1.52953 0.210867 0
M  V30 12 H 0.981 2.67203 3.11629 0
M  V30 13 H -0.358 1.57376 2.7183 0
M  V30 14 H -1.165 3.90944 3.18086 0
M  V30 15 H -1.563 3.418 1.51819 0
M  V30 16 H 0.729 5.58782 3.83104 0
M  V30 17 H 1.672 6.56266 2.65933 0
M  V30 18 H 2.08 4.83886 2.90714 0
M  V30 19 N 1.4781 -0.272755 1.55222 0
M  V30 20 C 2.4261 -1.35705 1.88909 0
M  V30 21 C 3.4201 -1.5112 0.765456 0
M  V30 22 O 4.6261 -1.52901 0.949802 0
M  V30 23 H 1.0011 -0.453868 0.59959 0
M  V30 24 H 2.9721 -1.04544 2.79487 0
M  V30 25 C 1.7211 -2.71049 2.17779 0
M  V30 26 H 1.0441 -2.59979 3.03728 0
M  V30 27 H 2.4841 -3.45858 2.45272 0
M  V30 28 C 0.9431 -3.22165 0.985473 0
M  V30 29 O 1.4731 -4.01096 0.220233 0
M  V30 30 N -0.3209 -2.7985 0.783108 0
M  V30 31 H -0.7739 -2.15775 1.40708 0
M  V30 32 H -0.8159 -3.14397 -0.0130392 0
M  V30 33 N 2.9562 -1.48159 -0.537278 0
M  V30 34 C 4.1842 -1.59454 -1.31841 0
M  V30 35 C 4.5992 -0.252065 -1.8711 0
M  V30 36 O 3.9562 0.757621 -1.66031 0
M  V30 37 C 4.0072 -2.63546 -2.47439 0
M  V30 38 O 3.7282 -3.92583 -1.94449 0
M  V30 39 C 5.2292 -2.85212 -3.39366 0
M  V30 40 H 2.4492 -0.53785 -0.401196 0
M  V30 41 H 4.9932 -1.93932 -0.648891 0
M  V30 42 H 3.1482 -2.31946 -3.1029 0
M  V30 43 H 3.5622 -4.49629 -2.70063 0
M  V30 44 H 5.0362 -3.61863 -4.16844 0
M  V30 45 H 5.5132 -1.93765 -3.94147 0
M  V30 46 H 6.1192 -3.18086 -2.82314 0
M  V30 47 N 4.4343 0.785586 -1.36625 0
M  V30 48 C 5.6623 1.57448 -1.3423 0
M  V30 49 C 6.0773 1.88649 0.0755653 0
M  V30 50 O 5.4343 1.50414 1.03354 0
M  V30 51 C 5.4853 2.89316 -2.16745 0
M  V30 52 O 5.2063 2.59459 -3.53005 0
M  V30 53 C 6.7073 3.83606 -2.22174 0
M  V30 54 H 3.9273 0.488226 -0.4603 0
M  V30 55 H 6.4713 0.974733 -1.79775 0
M  V30 56 H 4.6263 3.4575 -1.74745 0
M  V30 57 H 5.0403 3.43804 -3.96105 0
M  V30 58 H 6.5143 4.73181 -2.8426 0
M  V30 59 H 6.9913 4.21734 -1.22627 0
M  V30 60 H 7.5973 3.33104 -2.64427 0
M  V30 61 N 5.9124 1.20967 1.01018 0
M  V30 62 C 7.1374 1.0503 1.78839 0
M  V30 63 C 7.5624 -0.395752 1.8389 0
M  V30 64 O 6.9204 -1.28529 1.27867 0
M  V30 65 C 6.9684 1.64602 3.2084 0
M  V30 66 O 6.0724 0.887988 4.02726 0
M  V30 67 H 5.4134 0.369987 0.551367 0
M  V30 68 H 7.9434 1.60399 1.27018 0
M  V30 69 H 7.9534 1.68607 3.71532 0
M  V30 70 H 6.6284 2.69841 3.16479 0
M  V30 71 H 5.2054 0.922648 3.61305 0
M  V30 72 N 7.3905 -1.2043 1.01659 0
M  V30 73 C 8.6155 -1.94318 0.724942 0
M  V30 74 C 9.0405 -1.74266 -0.708034 0
M  V30 75 O 8.3985 -1.03694 -1.48719 0
M  V30 76 C 8.4465 -3.44486 1.06591 0
M  V30 77 O 7.5505 -4.12017 0.177599 0
M  V30 78 H 6.8915 -0.60708 0.26898 0
M  V30 79 H 9.4215 -1.52861 1.35995 0
M  V30 80 H 9.4315 -3.95106 1.01762 0
M  V30 81 H 8.1065 -3.58404 2.10997 0
M  V30 82 H 6.6835 -3.71821 0.283421 0
M  V30 83 N 8.8686 -0.792821 -1.36206 0
M  V30 84 C 9.8316 -0.199459 -2.2833 0
M  V30 85 C 10.8316 0.605189 -1.48977 0
M  V30 86 O 12.0216 0.425685 -1.68919 0
M  V30 87 C 9.1536 0.723523 -3.33134 0
M  V30 88 H 10.3466 -1.01181 -2.82316 0
M  V30 89 H 7.8996 -0.562485 -1.45828 0
M  V30 90 H 8.6346 1.56008 -2.84309 0
M  V30 91 H 8.4196 0.148436 -3.91819 0
M  V30 92 H 9.9096 1.13344 -4.01924 0
M  V30 93 N 10.3467 1.47872 -0.545128 0
M  V30 94 C 11.3097 2.28337 0.198717 0
M  V30 95 C 12.3097 1.36255 0.853888 0
M  V30 96 O 13.4997 1.59003 0.711606 0
M  V30 97 C 10.6317 3.15585 1.28915 0
M  V30 98 H 11.8247 2.95567 -0.507941 0
M  V30 99 H 9.3777 1.53362 -0.301616 0
M  V30 100 H 10.1127 2.53019 2.02859 0
M  V30 101 H 9.8977 3.83337 0.824309 0
M  V30 102 H 11.3877 3.76243 1.81194 0
M  V30 103 N 11.8248 0.280983 1.55075 0
M  V30 104 C 13.2358 -0.215629 1.85451 0
M  V30 105 C 13.5868 -1.54991 1.203 0
M  V30 106 O 12.7118 -2.10699 0.493435 0
M  V30 107 C 13.3068 -0.398026 3.36454 0
M  V30 108 C 11.8658 -0.838866 3.66933 0
M  V30 109 C 11.0128 0.064458 2.77225 0
M  V30 110 H 13.9638 0.502601 1.50531 0
M  V30 111 H 13.9848 -1.23569 3.59876 0
M  V30 112 H 13.4968 0.573241 3.83843 0
M  V30 113 H 11.5978 -1.8214 3.25048 0
M  V30 114 H 11.7108 -0.672123 4.74362 0
M  V30 115 H 10.0748 -0.452863 2.50642 0
M  V30 116 H 10.8578 1.03172 3.2743 0
M  V30 117 N 13.3029 -1.57598 0.00835791 0
M  V30 118 C 14.7139 -1.7892 -0.53333 0
M  V30 119 C 15.0649 -0.916609 -1.73473 0
M  V30 120 O 14.1899 -0.121336 -2.1606 0
M  V30 121 C 14.7849 -3.24488 -0.974313 0
M  V30 122 C 13.3439 -3.46878 -1.46125 0
M  V30 123 C 12.4909 -2.74157 -0.416302 0
M  V30 124 H 15.4419 -1.56958 0.234495 0
M  V30 125 H 15.4629 -3.3306 -1.83988 0
M  V30 126 H 14.9749 -3.87972 -0.099718 0
M  V30 127 H 13.0759 -2.8862 -2.35646 0
M  V30 128 H 13.1889 -4.55572 -1.48295 0
M  V30 129 H 11.5529 -2.39022 -0.87981 0
M  V30 130 H 12.3359 -3.40345 0.44947 0
M  V30 131 N 14.781 0.264519 -1.55364 0
M  V30 132 C 16.006 1.01726 -1.80739 0
M  V30 133 C 16.431 1.78836 -0.583044 0
M  V30 134 O 15.789 1.75167 0.467566 0
M  V30 135 C 15.837 1.94482 -3.03659 0
M  V30 136 O 14.941 3.03386 -2.7934 0
M  V30 137 H 14.282 0.290395 -0.597132 0
M  V30 138 H 16.812 0.290854 -2.02522 0
M  V30 139 H 16.822 2.36278 -3.32621 0
M  V30 140 H 15.497 1.37772 -3.92418 0
M  V30 141 H 14.074 2.65844 -2.61498 0
M  V30 142 N 16.2591 1.48442 0.529413 0
M  V30 143 C 17.1891 1.65902 1.64313 0
M  V30 144 C 18.1701 0.507897 1.6234 0
M  V30 145 O 19.3551 0.740503 1.79528 0
M  V30 146 C 16.4851 1.69911 3.02898 0
M  V30 147 C 15.4391 2.8453 3.19729 0
M  V30 148 C 14.7651 2.73629 4.59381 0
M  V30 149 C 16.0651 4.25821 3.02447 0
M  V30 150 H 17.7591 2.5914 1.49955 0
M  V30 151 H 15.3051 1.24709 0.719982 0
M  V30 152 H 17.2581 1.80715 3.80684 0
M  V30 153 H 15.9821 0.732524 3.18279 0
M  V30 154 H 14.6411 2.73283 2.44361 0
M  V30 155 H 14.2891 1.74938 4.71599 0
M  V30 156 H 13.9891 3.50541 4.71588 0
M  V30 157 H 15.5131 2.86401 5.39265 0
M  V30 158 H 16.9271 4.37898 3.70024 0
M  V30 159 H 15.3241 5.03735 3.26146 0
M  V30 160 H 16.3941 4.42244 1.98867 0
M  V30 161 N 17.7372 -0.778329 1.37039 0
M  V30 162 C 18.9852 -1.53361 1.31623 0
M  V30 163 C 19.3062 -1.94739 -0.100831 0
M  V30 164 O 18.5762 -1.65797 -1.04347 0
M  V30 165 H 17.1562 -0.568794 0.484234 0
M  V30 166 H 19.8182 -0.926742 1.71457 0
M  V30 167 H 18.9142 -2.43606 1.95096 0
M  V30 168 N 19.2153 -1.21501 -1.00376 0
M  V30 169 C 20.4613 -1.03452 -1.74429 0
M  V30 170 C 20.7943 0.430764 -1.89362 0
M  V30 171 O 20.0693 1.31962 -1.42886 0
M  V30 172 C 20.3523 -1.73375 -3.15615 0
M  V30 173 C 20.2053 -3.27431 -3.08397 0
M  V30 174 C 21.5243 -1.47732 -4.14564 0
M  V30 175 H 18.6433 -0.377226 -0.633143 0
M  V30 176 H 21.2853 -1.49693 -1.17013 0
M  V30 177 H 19.4353 -1.34064 -3.64636 0
M  V30 178 H 21.1073 -3.76119 -2.67081 0
M  V30 179 H 19.3503 -3.5767 -2.45468 0
M  V30 180 H 20.0213 -3.71524 -4.08258 0
M  V30 181 H 22.4973 -1.8186 -3.74254 0
M  V30 182 H 21.3733 -1.99169 -5.11491 0
M  V30 183 H 21.6343 -0.407589 -4.40217 0
M  V30 184 N 20.6934 1.19889 -1.02296 0
M  V30 185 C 21.6034 2.26571 -0.608508 0
M  V30 186 C 22.6194 1.70299 0.356964 0
M  V30 187 O 23.7954 2.00235 0.216326 0
M  V30 188 C 20.8604 3.46677 0.0402814 0
M  V30 189 C 19.9214 4.18153 -0.97194 0
M  V30 190 C 19.1544 5.32525 -0.354016 0
M  V30 191 O 19.3774 5.64112 0.844604 0
M  V30 192 O 18.3114 5.92242 -1.07391 0
M  V30 193 H 22.1374 2.64251 -1.49684 0
M  V30 194 H 19.7224 1.26629 -0.792809 0
M  V30 195 H 21.6044 4.19475 0.402324 0
M  V30 196 H 20.2794 3.10858 0.902707 0
M  V30 197 H 19.1864 3.47499 -1.38546 0
M  V30 198 H 20.5194 4.57927 -1.80454 0
M  V30 199 N 22.1715 0.800033 1.35784 0
M  V30 200 C 23.4185 0.377342 1.98953 0
M  V30 201 C 23.7465 -1.05378 1.6348 0
M  V30 202 O 23.0015 -1.74459 0.886707 0
M  V30 203 C 23.3005 0.500276 3.53881 0
M  V30 204 C 22.9665 1.89375 4.09204 0
M  V30 205 C 21.6285 2.27499 4.24025 0
M  V30 206 C 23.9805 2.8057 4.39238 0
M  V30 207 C 21.3085 3.562 4.66195 0
M  V30 208 C 23.6605 4.0871 4.82844 0
M  V30 209 C 22.3245 4.46843 4.95871 0
M  V30 210 H 21.5945 0.138079 0.728021 0
M  V30 211 H 24.2415 1.01955 1.62103 0
M  V30 212 H 22.5465 -0.225405 3.91151 0
M  V30 213 H 24.2435 0.154097 4.00704 0
M  V30 214 H 20.8335 1.58753 3.98115 0
M  V30 215 H 25.0175 2.52367 4.27346 0
M  V30 216 H 20.2735 3.85602 4.74469 0
M  V30 217 H 24.4475 4.79481 5.05046 0
M  V30 218 H 22.0745 5.46623 5.28306 0
M  V30 219 N 23.6496 -1.47581 0.552962 0
M  V30 220 C 24.8986 -2.01684 0.0251995 0
M  V30 221 C 25.2116 -1.43317 -1.33115 0
M  V30 222 O 26.4176 -1.89057 -1.94858 0
M  V30 223 C 24.8736 -3.599 -0.00542052 0
M  V30 224 C 24.4816 -4.27257 1.34742 0
M  V30 225 C 26.2256 -4.21768 -0.4808 0
M  V30 226 C 24.1326 -5.77467 1.27614 0
M  V30 227 H 23.0626 -0.753979 0.00565033 0
M  V30 228 H 25.7136 -1.69616 0.70018 0
M  V30 229 H 24.0956 -3.88911 -0.745961 0
M  V30 230 H 25.2696 -4.09893 2.10534 0
M  V30 231 H 23.5846 -3.77358 1.76039 0
M  V30 232 H 26.1816 -5.31838 -0.55246 0
M  V30 233 H 26.5246 -3.88651 -1.49184 0
M  V30 234 H 27.0576 -3.97273 0.204752 0
M  V30 235 H 23.7966 -6.15196 2.26304 0
M  V30 236 H 23.3166 -5.9718 0.55996 0
M  V30 237 H 24.9956 -6.3959 0.976421 0
M  V30 238 N 25.1277 -0.289203 -1.54924 0
M  V30 239 C 26.3527 0.329299 -2.04769 0
M  V30 240 C 26.7777 1.4763 -1.16564 0
M  V30 241 O 26.1357 1.80527 -0.167186 0
M  V30 242 C 26.1837 0.774438 -3.52186 0
M  V30 243 O 25.2877 1.88038 -3.67036 0
M  V30 244 H 24.6287 0.0659259 -0.660719 0
M  V30 245 H 27.1587 -0.42761 -2.00082 0
M  V30 246 H 27.1687 1.06642 -3.93816 0
M  V30 247 H 25.8437 -0.0646707 -4.1585 0
M  V30 248 H 24.4207 1.58985 -3.3731 0
M  V30 249 N 26.6058 1.57591 -0.0167156 0
M  V30 250 C 27.5358 2.12496 0.967858 0
M  V30 251 C 28.5168 1.03807 1.34752 0
M  V30 252 O 29.7018 1.31577 1.42833 0
M  V30 253 C 26.8318 2.64194 2.25431 0
M  V30 254 C 25.7858 3.77559 2.01576 0
M  V30 255 C 25.1118 4.15636 3.36379 0
M  V30 256 C 26.4118 5.04151 1.36489 0
M  V30 257 H 28.1058 2.95013 0.510643 0
M  V30 258 H 25.6518 1.41915 0.244181 0
M  V30 259 H 27.6048 3.01236 2.94678 0
M  V30 260 H 26.3288 1.78821 2.73296 0
M  V30 261 H 24.9878 3.40937 1.34751 0
M  V30 262 H 24.6358 3.27263 3.81979 0
M  V30 263 H 24.3358 4.92022 3.21229 0
M  V30 264 H 25.8598 4.5525 4.06915 0
M  V30 265 H 27.2738 5.38857 1.95718 0
M  V30 266 H 25.6708 5.85453 1.31776 0
M  V30 267 H 26.7408 4.83733 0.336219 0
M  V30 268 N 28.0839 -0.256276 1.55502 0
M  V30 269 C 29.0139 -1.32102 1.92539 0
M  V30 270 C 29.9949 -1.50684 0.789194 0
M  V30 271 O 31.1799 -1.63449 1.04872 0
M  V30 272 C 28.3099 -2.67752 2.21192 0
M  V30 273 C 27.2639 -2.63878 3.36975 0
M  V30 274 C 26.5899 -4.03236 3.51147 0
M  V30 275 C 27.8899 -2.21682 4.72921 0
M  V30 276 H 29.5839 -1.01351 2.81724 0
M  V30 277 H 27.1299 -0.486105 1.35547 0
M  V30 278 H 29.0829 -3.42365 2.45691 0
M  V30 279 H 27.8069 -3.0012 1.28824 0
M  V30 280 H 26.4659 -1.91722 3.12471 0
M  V30 281 H 26.1139 -4.32854 2.56216 0
M  V30 282 H 25.8139 -4.01535 4.29003 0
M  V30 283 H 27.3379 -4.79563 3.77957 0
M  V30 284 H 28.7519 -2.86023 4.96854 0
M  V30 285 H 27.1489 -2.3111 5.53812 0
M  V30 286 H 28.2189 -1.16833 4.70615 0
M  V30 287 N 29.562 -1.4872 -0.521534 0
M  V30 288 C 30.525 -1.63379 -1.60748 0
M  V30 289 C 31.525 -0.50661 -1.52611 0
M  V30 290 O 32.715 -0.772601 -1.5613 0
M  V30 291 C 29.847 -1.61192 -3.00383 0
M  V30 292 H 31.04 -2.60217 -1.49087 0
M  V30 293 H 28.593 -1.37444 -0.744235 0
M  V30 294 H 29.328 -0.65863 -3.17541 0
M  V30 295 H 29.113 -2.43032 -3.07698 0
M  V30 296 H 30.603 -1.7466 -3.7932 0
M  V30 297 N 31.0401 0.771051 -1.3745 0
M  V30 298 C 32.2891 1.52491 -1.3202 0
M  V30 299 C 32.6021 1.9538 0.0927347 0
M  V30 300 O 33.8081 2.70159 0.269503 0
M  V30 301 C 32.2641 2.75366 -2.31736 0
M  V30 302 C 31.8721 2.39573 -3.78562 0
M  V30 303 C 33.6161 3.53307 -2.35318 0
M  V30 304 C 31.5231 3.58954 -4.70007 0
M  V30 305 H 30.4531 0.572506 -0.490666 0
M  V30 306 H 33.1041 0.844474 -1.62914 0
M  V30 307 H 31.4861 3.45303 -1.93861 0
M  V30 308 H 32.6601 1.77415 -4.25277 0
M  V30 309 H 30.9751 1.74805 -3.77932 0
M  V30 310 H 33.5721 4.42039 -3.00842 0
M  V30 311 H 33.9151 3.93217 -1.36698 0
M  V30 312 H 34.4481 2.90367 -2.71904 0
M  V30 313 H 31.1871 3.24125 -5.69757 0
M  V30 314 H 30.7071 4.20214 -4.27996 0
M  V30 315 H 32.3861 4.25758 -4.87175 0
M  V30 316 N 32.5182 1.22032 0.997298 0
M  V30 317 C 33.7672 1.03637 1.73038 0
M  V30 318 C 34.0802 -0.429475 1.90827 0
M  V30 319 O 35.2862 -0.732995 2.61418 0
M  V30 320 C 33.7422 1.80582 3.11317 0
M  V30 321 C 33.3502 3.31387 3.01474 0
M  V30 322 C 35.0942 1.70621 3.88701 0
M  V30 323 C 33.0012 4.00791 4.3488 0
M  V30 324 H 31.9312 0.384179 0.648785 0
M  V30 325 H 34.5822 1.4584 1.11368 0
M  V30 326 H 32.9642 1.31175 3.73643 0
M  V30 327 H 34.1382 3.88155 2.4834 0
M  V30 328 H 32.4532 3.41976 2.37575 0
M  V30 329 H 35.0502 2.19799 4.87434 0
M  V30 330 H 35.3932 0.665823 4.10941 0
M  V30 331 H 35.9262 2.17547 3.33044 0
M  V30 332 H 32.6652 5.05064 4.1784 0
M  V30 333 H 32.1852 3.48811 4.87945 0
M  V30 334 H 33.8642 4.06139 5.03647 0
M  V30 335 N 33.9963 -1.19345 1.0293 0
M  V30 336 C 34.9263 -2.2481 0.631105 0
M  V30 337 C 35.9073 -1.66245 -0.360104 0
M  V30 338 O 37.0923 -1.92677 -0.242726 0
M  V30 339 C 34.2223 -3.47295 -0.0184607 0
M  V30 340 C 33.1763 -4.18536 0.895073 0
M  V30 341 C 32.5023 -5.34586 0.110592 0
M  V30 342 C 33.8023 -4.73287 2.209 0
M  V30 343 H 35.4963 -2.58372 1.51275 0
M  V30 344 H 33.0423 -1.24194 0.728818 0
M  V30 345 H 34.9953 -4.20268 -0.308675 0
M  V30 346 H 33.7193 -3.12933 -0.934907 0
M  V30 347 H 32.3783 -3.47446 1.16949 0
M  V30 348 H 32.0263 -4.96469 -0.807902 0
M  V30 349 H 31.7263 -5.83183 0.719087 0
M  V30 350 H 33.2503 -6.10355 -0.172871 0
M  V30 351 H 34.6643 -5.38013 1.98028 0
M  V30 352 H 33.0613 -5.32373 2.76946 0
M  V30 353 H 34.1313 -3.91331 2.86336 0
M  V30 354 N 35.4744 -0.807222 -1.35358 0
M  V30 355 C 36.4044 -0.232509 -2.3234 0
M  V30 356 C 37.3854 0.642386 -1.57504 0
M  V30 357 O 38.5704 0.572526 -1.85569 0
M  V30 358 C 35.7004 0.619238 -3.41735 0
M  V30 359 C 34.6544 -0.157215 -4.27711 0
M  V30 360 C 33.9804 0.816273 -5.28433 0
M  V30 361 C 35.2804 -1.35656 -5.04376 0
M  V30 362 H 36.9744 -1.04276 -2.80654 0
M  V30 363 H 34.5204 -0.50288 -1.34934 0
M  V30 364 H 36.4734 1.03137 -4.08584 0
M  V30 365 H 35.1974 1.46239 -2.92031 0
M  V30 366 H 33.8564 -0.550525 -3.62443 0
M  V30 367 H 33.5044 1.65494 -4.74996 0
M  V30 368 H 33.2044 0.301067 -5.86828 0
M  V30 369 H 34.7284 1.22659 -5.98153 0
M  V30 370 H 36.1424 -1.01927 -5.64166 0
M  V30 371 H 34.5394 -1.8063 -5.7227 0
M  V30 372 H 35.6094 -2.14288 -4.34981 0
M  V30 373 N 36.9525 1.47285 -0.560781 0
M  V30 374 C 38.1775 2.07359 -0.0410566 0
M  V30 375 C 38.6025 1.41017 1.24483 0
M  V30 376 O 37.9605 0.486368 1.74654 0
M  V30 377 C 38.0085 3.6035 0.134123 0
M  V30 378 O 37.1125 3.94681 1.19587 0
M  V30 379 H 36.4535 0.661887 -0.0529291 0
M  V30 380 H 38.9835 1.89252 -0.777482 0
M  V30 381 H 38.9935 4.0652 0.347207 0
M  V30 382 H 37.6685 4.08034 -0.805047 0
M  V30 383 H 36.2455 3.60251 0.962987 0
M  V30 384 N 38.4306 0.297415 1.54768 0
M  V30 385 C 39.6766 -0.313376 2.00364 0
M  V30 386 C 40.0096 -1.53815 1.18553 0
M  V30 387 O 39.2846 -1.92739 0.261103 0
M  V30 388 C 39.5676 -0.673525 3.53745 0
M  V30 389 C 39.4206 0.560133 4.46299 0
M  V30 390 C 40.7396 -1.50143 4.13697 0
M  V30 391 H 37.8586 -0.112428 0.728374 0
M  V30 392 H 40.5006 0.4088 1.8555 0
M  V30 393 H 38.6506 -1.28881 3.665 0
M  V30 394 H 40.3226 1.19863 4.45455 0
M  V30 395 H 38.5656 1.19405 4.17043 0
M  V30 396 H 39.2366 0.26405 5.51368 0
M  V30 397 H 41.7126 -0.981588 4.04356 0
M  V30 398 H 40.5886 -1.72221 5.21182 0
M  V30 399 H 40.8496 -2.48952 3.65343 0
M  V30 400 N 39.9087 -1.5758 0.0250728 0
M  V30 401 C 40.8717 -2.08896 -0.943139 0
M  V30 402 C 41.8717 -1.00321 -1.25668 0
M  V30 403 O 43.0617 -1.26495 -1.19769 0
M  V30 404 C 40.1937 -2.55143 -2.26086 0
M  V30 405 H 41.3867 -2.95723 -0.498775 0
M  V30 406 H 38.9397 -1.54703 -0.222888 0
M  V30 407 H 39.6747 -1.71633 -2.75159 0
M  V30 408 H 39.4597 -3.34461 -2.04641 0
M  V30 409 H 40.9497 -2.95083 -2.95492 0
M  V30 410 N 41.3868 0.248026 -1.55636 0
M  V30 411 C 42.3168 1.31079 -1.93237 0
M  V30 412 C 43.2978 1.50264 -0.797174 0
M  V30 413 O 44.4828 1.62891 -1.05737 0
M  V30 414 C 41.6128 2.66575 -2.22609 0
M  V30 415 C 40.5668 2.62087 -3.3837 0
M  V30 416 C 39.8928 4.01369 -3.53281 0
M  V30 417 C 41.1928 2.19171 -4.7409 0
M  V30 418 H 42.8868 0.998556 -2.82257 0
M  V30 419 H 40.4328 0.47891 -1.35803 0
M  V30 420 H 42.3858 3.41057 -2.47503 0
M  V30 421 H 41.1098 2.99432 -1.30414 0
M  V30 422 H 39.7688 1.90063 -3.13483 0
M  V30 423 H 39.4168 4.31489 -2.58508 0
M  V30 424 H 39.1168 3.99254 -4.31127 0
M  V30 425 H 40.6408 4.77552 -3.80495 0
M  V30 426 H 42.0548 2.83384 -4.98363 0
M  V30 427 H 40.4518 2.2817 -5.5503 0
M  V30 428 H 41.5218 1.14336 -4.71227 0
M  V30 429 N 42.8649 1.48995 0.513639 0
M  V30 430 C 43.8279 1.64229 1.59879 0
M  V30 431 C 44.8279 0.514696 1.5234 0
M  V30 432 O 46.0179 0.78087 1.55718 0
M  V30 433 C 43.1499 1.62783 2.99524 0
M  V30 434 H 44.3429 2.61004 1.47705 0
M  V30 435 H 41.8959 1.37837 0.736936 0
M  V30 436 H 42.6309 0.675461 3.17188 0
M  V30 437 H 42.4159 2.4466 3.06404 0
M  V30 438 H 43.9059 1.76669 3.78388 0
M  V30 439 N 44.343 -0.763751 1.37857 0
M  V30 440 C 45.589 -1.52483 1.33704 0
M  V30 441 C 45.922 -1.94051 -0.0759612 0
M  V30 442 O 45.197 -1.64675 -1.03501 0
M  V30 443 C 45.48 -2.78441 2.28348 0
M  V30 444 C 45.333 -2.43075 3.78463 0
M  V30 445 C 46.652 -3.80415 2.21298 0
M  V30 446 H 43.771 -0.553169 0.487005 0
M  V30 447 H 46.413 -0.875562 1.68624 0
M  V30 448 H 44.563 -3.33842 1.987 0
M  V30 449 H 46.235 -1.93527 4.18742 0
M  V30 450 H 44.478 -1.75666 3.96641 0
M  V30 451 H 45.149 -3.33149 4.40132 0
M  V30 452 H 47.625 -3.34527 2.47449 0
M  V30 453 H 46.501 -4.66257 2.89647 0
M  V30 454 H 46.762 -4.25262 1.20849 0
M  V30 455 N 45.8211 -1.22559 -0.990812 0
M  V30 456 C 47.0691 -1.04933 -1.72724 0
M  V30 457 C 47.3901 0.416158 -1.90508 0
M  V30 458 O 46.6601 1.29918 -1.46622 0
M  V30 459 H 45.2401 -0.385296 -0.639965 0
M  V30 460 H 47.9021 -1.54105 -1.19322 0
M  V30 461 H 46.9981 -1.52886 -2.72089 0
M  V30 462 N 47.2992 1.18797 -1.03562 0
M  V30 463 C 48.2292 2.24472 -0.643019 0
M  V30 464 C 49.2102 1.66433 0.351283 0
M  V30 465 O 50.3952 1.92803 0.232505 0
M  V30 466 C 47.5252 3.473 4.24935e-05 0
M  V30 467 C 46.4792 4.18055 -0.917257 0
M  V30 468 C 45.8052 5.34519 -0.138941 0
M  V30 469 C 47.1052 4.72109 -2.23407 0
M  V30 470 H 48.7992 2.57566 -1.52643 0
M  V30 471 H 46.3452 1.23806 -0.735394 0
M  V30 472 H 48.2982 4.20426 0.286383 0
M  V30 473 H 47.0222 3.13424 0.918299 0
M  V30 474 H 45.6812 3.46821 -1.1879 0
M  V30 475 H 45.3292 4.96891 0.781562 0
M  V30 476 H 45.0292 5.82794 -0.750005 0
M  V30 477 H 46.5532 6.10438 0.1405 0
M  V30 478 H 47.9672 5.36955 -2.00879 0
M  V30 479 H 46.3642 5.30897 -2.79765 0
M  V30 480 H 47.4342 3.89807 -2.88407 0
M  V30 481 N 48.7773 0.814389 1.34928 0
M  V30 482 C 50.1883 0.458364 1.80986 0
M  V30 483 C 50.5393 -1.02042 1.67577 0
M  V30 484 O 49.6643 -1.79352 1.21086 0
M  V30 485 C 50.2593 0.825212 3.28597 0
M  V30 486 C 48.8183 0.521677 3.72767 0
M  V30 487 C 47.9653 1.04668 2.56788 0
M  V30 488 H 50.9163 1.00533 1.22795 0
M  V30 489 H 50.9373 0.12571 3.80292 0
M  V30 490 H 50.4493 1.90154 3.38324 0
M  V30 491 H 48.5503 -0.545589 3.68584 0
M  V30 492 H 48.6633 1.05977 4.67232 0
M  V30 493 H 47.0273 0.468622 2.50352 0
M  V30 494 H 47.8103 2.12927 2.6929 0
M  V30 495 N 50.2554 -1.46986 0.568584 0
M  V30 496 C 51.5034 -2.02041 0.0487022 0
M  V30 497 C 51.8244 -1.44408 -1.31039 0
M  V30 498 O 51.0944 -0.623477 -1.85714 0
M  V30 499 H 49.6744 -0.746849 0.015014 0
M  V30 500 H 52.3364 -1.80257 0.741168 0
M  V30 501 H 51.4324 -3.12085 -0.0308961 0
M  V30 502 N 51.7335 -0.305618 -1.54608 0
M  V30 503 C 52.6815 0.584119 -2.25146 0
M  V30 504 C 53.6755 1.13326 -1.25911 0
M  V30 505 O 54.8815 1.08337 -1.43747 0
M  V30 506 H 51.2565 0.206983 -0.722954 0
M  V30 507 H 53.2275 -0.033291 -2.98381 0
M  V30 508 C 51.9765 1.74225 -3.009 0
M  V30 509 H 51.2995 1.32892 -3.77067 0
M  V30 510 H 52.7395 2.34077 -3.53531 0
M  V30 511 C 51.1985 2.64914 -2.0814 0
M  V30 512 O 51.7285 3.66137 -1.65246 0
M  V30 513 N 49.9345 2.3275 -1.74 0
M  V30 514 H 49.4815 1.50479 -2.09078 0
M  V30 515 H 49.4395 2.93694 -1.12211 0
M  V30 516 N 53.2116 1.57565 -0.0334293 0
M  V30 517 C 54.4366 1.96689 0.657895 0
M  V30 518 C 54.8616 0.910057 1.64619 0
M  V30 519 O 54.2196 -0.128598 1.80843 0
M  V30 520 C 54.2676 3.34905 1.33683 0
M  V30 521 O 53.3716 3.31574 2.45219 0
M  V30 522 H 52.7126 0.641205 0.172489 0
M  V30 523 H 55.2426 2.04372 -0.0965621 0
M  V30 524 H 55.2526 3.71234 1.69262 0
M  V30 525 H 53.9276 4.11366 0.612411 0
M  V30 526 H 52.5046 3.06968 2.11719 0
M  V30 527 N 54.6897 -0.239769 1.55765 0
M  V30 528 C 55.9367 -0.966801 1.7793 0
M  V30 529 C 56.2647 -1.85046 0.599015 0
M  V30 530 O 55.5197 -1.91197 -0.417395 0
M  V30 531 C 55.8187 -1.852 3.05672 0
M  V30 532 C 55.4847 -1.1231 4.36689 0
M  V30 533 C 54.1467 -0.921689 4.72291 0
M  V30 534 C 56.4987 -0.607019 5.17653 0
M  V30 535 C 53.8267 -0.191996 5.86386 0
M  V30 536 C 56.1787 0.109241 6.32506 0
M  V30 537 C 54.8427 0.322073 6.66723 0
M  V30 538 H 54.1127 -0.353778 0.651093 0
M  V30 539 H 56.7597 -0.23634 1.90036 0
M  V30 540 H 55.0647 -2.64975 2.8861 0
M  V30 541 H 56.7617 -2.41635 3.20021 0
M  V30 542 H 53.3517 -1.29004 4.08725 0
M  V30 543 H 57.5357 -0.750153 4.90598 0
M  V30 544 H 52.7917 -0.0166949 6.11398 0
M  V30 545 H 56.9657 0.516737 6.9448 0
M  V30 546 H 54.5927 0.88944 7.54979 0
M  V30 547 N 56.1678 -1.49265 -0.50573 0
M  V30 548 C 57.4138 -1.58748 -1.26202 0
M  V30 549 C 57.7468 -0.271227 -1.92297 0
M  V30 550 O 57.0218 0.724831 -1.80489 0
M  V30 551 C 57.3048 -2.74332 -2.33268 0
M  V30 552 C 57.1578 -4.15737 -1.71705 0
M  V30 553 C 58.4768 -2.85576 -3.34865 0
M  V30 554 H 55.5958 -0.577826 -0.457478 0
M  V30 555 H 58.2378 -1.81532 -0.560897 0
M  V30 556 H 56.3878 -2.55036 -2.93068 0
M  V30 557 H 58.0598 -4.46537 -1.15769 0
M  V30 558 H 56.3028 -4.21605 -1.02135 0
M  V30 559 H 56.9738 -4.92477 -2.49341 0
M  V30 560 H 59.4498 -3.03127 -2.8505 0
M  V30 561 H 58.3258 -3.68135 -4.07146 0
M  V30 562 H 58.5868 -1.94732 -3.96903 0
M  V30 563 N 57.6459 0.756429 -1.3826 0
M  V30 564 C 58.8919 1.51772 -1.34511 0
M  V30 565 C 59.2249 1.94089 0.0656691 0
M  V30 566 O 58.4999 1.65221 1.02626 0
M  V30 567 C 58.7829 2.77226 -2.29821 0
M  V30 568 C 58.6359 2.41065 -3.79747 0
M  V30 569 C 59.9549 3.79236 -2.23312 0
M  V30 570 H 57.0739 0.550578 -0.489931 0
M  V30 571 H 59.7159 0.866607 -1.69086 0
M  V30 572 H 57.8659 3.32784 -2.00467 0
M  V30 573 H 59.5379 1.91303 -4.19763 0
M  V30 574 H 57.7809 1.7356 -3.97567 0
M  V30 575 H 58.4519 3.3081 -4.41892 0
M  V30 576 H 60.9279 3.3321 -2.49219 0
M  V30 577 H 59.8039 4.64714 -2.92116 0
M  V30 578 H 60.0649 4.24615 -1.23102 0
M  V30 579 N 59.124 1.23083 0.984299 0
M  V30 580 C 60.37 1.07221 1.72845 0
M  V30 581 C 60.725 -0.387453 1.88458 0
M  V30 582 O 60.018 -1.28309 1.42293 0
M  V30 583 C 60.212 1.72673 3.1292 0
M  V30 584 C 60.041 3.24853 3.10967 0
M  V30 585 C 58.811 3.93998 3.16376 0
M  V30 586 C 61.009 4.21674 2.94441 0
M  V30 587 N 58.991 5.33192 3.04268 0
M  V30 588 C 60.362 5.47756 2.90453 0
M  V30 589 C 62.417 4.12457 2.78897 0
M  V30 590 C 61.12 6.6568 2.72512 0
M  V30 591 C 63.146 5.3004 2.62319 0
M  V30 592 C 62.508 6.55046 2.59026 0
M  V30 593 H 58.607 0.44685 0.641755 0
M  V30 594 H 61.191 1.55753 1.16829 0
M  V30 595 H 59.362 1.26679 3.67161 0
M  V30 596 H 61.094 1.49824 3.75945 0
M  V30 597 H 57.849 3.45052 3.24401 0
M  V30 598 H 58.273 6.06157 3.015 0
M  V30 599 H 62.915 3.16588 2.80235 0
M  V30 600 H 60.633 7.61689 2.69919 0
M  V30 601 H 64.219 5.24747 2.5126 0
M  V30 602 H 63.099 7.44498 2.46357 0
M  V30 603 N 60.6021 -1.18246 1.0419 0
M  V30 604 C 61.8271 -1.92736 0.765996 0
M  V30 605 C 62.2521 -1.75728 -0.67091 0
M  V30 606 O 61.6101 -1.06825 -1.46486 0
M  V30 607 C 61.6581 -3.42148 1.13875 0
M  V30 608 O 60.7621 -4.11548 0.264954 0
M  V30 609 H 60.1031 -0.601238 0.281797 0
M  V30 610 H 62.6331 -1.49942 1.39207 0
M  V30 611 H 62.6431 -3.92858 1.1012 0
M  V30 612 H 61.3181 -3.53848 2.18551 0
M  V30 613 H 59.8951 -3.71137 0.362226 0
M  V30 614 N 62.0802 -0.821533 -1.34494 0
M  V30 615 C 63.3292 -0.405355 -1.97585 0
M  V30 616 C 63.6422 1.03677 -1.65863 0
M  V30 617 O 64.8482 1.55679 -2.22433 0
M  V30 618 C 63.3042 -0.673861 -3.53535 0
M  V30 619 C 62.9122 -2.12951 -3.94152 0
M  V30 620 C 64.6562 -0.32378 -4.23263 0
M  V30 621 C 62.5632 -2.34298 -5.43009 0
M  V30 622 H 61.4932 -0.147836 -0.739365 0
M  V30 623 H 64.1442 -1.00769 -1.53355 0
M  V30 624 H 62.5262 -0.00137554 -3.96 0
M  V30 625 H 63.7002 -2.84104 -3.62797 0
M  V30 626 H 62.0152 -2.44089 -3.37356 0
M  V30 627 H 64.6122 -0.461126 -5.32708 0
M  V30 628 H 64.9552 0.731586 -4.09821 0
M  V30 629 H 65.4882 -0.950786 -3.8627 0
M  V30 630 H 62.2272 -3.38335 -5.61435 0
M  V30 631 H 61.7472 -1.67687 -5.75883 0
M  V30 632 H 63.4262 -2.16588 -6.09671 0
M  V30 633 N 63.5583 1.46682 -0.576371 0
M  V30 634 C 64.4883 2.33028 0.148397 0
M  V30 635 C 65.4693 1.44961 0.889956 0
M  V30 636 O 66.6543 1.73789 0.866662 0
M  V30 637 C 63.7843 3.27117 1.1667 0
M  V30 638 C 62.7383 4.24575 0.540386 0
M  V30 639 C 62.0643 5.08126 1.6647 0
M  V30 640 C 63.3643 5.19722 -0.518331 0
M  V30 641 H 65.0583 2.93875 -0.572509 0
M  V30 642 H 62.6043 1.41315 -0.276768 0
M  V30 643 H 64.5573 3.86374 1.68204 0
M  V30 644 H 63.2813 2.64364 1.9178 0
M  V30 645 H 61.9403 3.66571 0.0461769 0
M  V30 646 H 61.5883 4.41762 2.40531 0
M  V30 647 H 61.2883 5.74122 1.25131 0
M  V30 648 H 62.8123 5.70246 2.18293 0
M  V30 649 H 64.2263 5.73232 -0.0883058 0
M  V30 650 H 62.6233 5.94026 -0.851679 0
M  V30 651 H 63.6933 4.64037 -1.40703 0
M  V30 652 N 65.0364 0.313813 1.54444 0
M  V30 653 C 65.9834 -0.55655 2.23989 0
M  V30 654 C 66.9534 -1.11943 1.22711 0
M  V30 655 O 68.1384 -1.16158 1.51367 0
M  V30 656 C 65.2784 -1.71635 2.99392 0
M  V30 657 C 64.3914 -1.18364 4.15468 0
M  V30 658 C 63.5264 -2.30834 4.78424 0
M  V30 659 C 62.5654 -1.74762 5.86622 0
M  V30 660 N 61.7024 -2.80855 6.43479 0
M  V30 661 H 66.5424 0.0430893 2.97969 0
M  V30 662 H 64.0794 0.0330359 1.47063 0
M  V30 663 H 66.0374 -2.39868 3.41349 0
M  V30 664 H 64.6674 -2.28742 2.27765 0
M  V30 665 H 63.7194 -0.393163 3.78363 0
M  V30 666 H 65.0314 -0.733262 4.93381 0
M  V30 667 H 64.1854 -3.0699 5.23299 0
M  V30 668 H 62.9244 -2.79204 3.99871 0
M  V30 669 H 61.9294 -0.970995 5.41158 0
M  V30 670 H 63.1544 -1.2728 6.67066 0
M  V30 671 H 61.1004 -3.28535 5.67804 0
M  V30 672 H 61.0174 -2.40351 7.16776 0
M  V30 673 H 62.2854 -3.5687 6.93011 0
M  V30 674 N 66.5145 -1.57545 0.0417849 0
M  V30 675 C 67.9305 -1.56467 -0.314704 0
M  V30 676 C 68.1305 -1.04859 -1.72066 0
M  V30 677 O 67.1865 -0.700983 -2.42575 0
M  V30 678 C 68.4995 -3.00317 -0.15174 0
M  V30 679 C 70.0475 -3.12201 -0.223553 0
M  V30 680 C 70.5225 -4.57913 -0.0892295 0
M  V30 681 N 72.0135 -4.6297 -0.145808 0
M  V30 682 C 72.7485 -5.73362 -0.0658459 0
M  V30 683 N 72.2445 -6.92769 0.0659282 0
M  V30 684 N 74.0375 -5.6197 -0.12075 0
M  V30 685 H 66.1885 -1.89416 0.961014 0
M  V30 686 H 68.4515 -0.871862 0.372237 0
M  V30 687 H 68.1575 -3.42073 0.817254 0
M  V30 688 H 68.0315 -3.65892 -0.916692 0
M  V30 689 H 70.4185 -2.70349 -1.18301 0
M  V30 690 H 70.4995 -2.49323 0.571994 0
M  V30 691 H 70.1435 -5.00448 0.866867 0
M  V30 692 H 70.0735 -5.18786 -0.903802 0
M  V30 693 H 72.5645 -3.7709 -0.247286 0
M  V30 694 H 72.8775 -7.72707 0.119905 0
M  V30 695 H 71.2225 -6.94927 0.100885 0
M  V30 696 H 74.4135 -4.67572 -0.222187 0
M  V30 697 H 74.5865 -6.47977 -0.0549735 0
M  V30 698 N 67.9926 0.231505 -1.5589 0
M  V30 699 C 68.9256 1.31369 -1.86595 0
M  V30 700 C 69.9036 1.45671 -0.722397 0
M  V30 701 O 71.0876 1.61642 -0.969743 0
M  V30 702 C 68.2146 2.68529 -2.06421 0
M  V30 703 C 67.2606 2.71295 -3.29092 0
M  V30 704 S 68.0936 2.26358 -4.85306 0
M  V30 705 C 69.2496 3.65414 -5.08157 0
M  V30 706 H 69.4826 1.05128 -2.78092 0
M  V30 707 H 67.0156 0.433259 -1.48197 0
M  V30 708 H 68.9736 3.47499 -2.18528 0
M  V30 709 H 67.6346 2.91999 -1.15738 0
M  V30 710 H 66.8276 3.72063 -3.39978 0
M  V30 711 H 66.4296 2.0038 -3.15791 0
M  V30 712 H 68.7216 4.6103 -4.96445 0
M  V30 713 H 69.6646 3.5945 -6.10083 0
M  V30 714 H 70.0726 3.5864 -4.35933 0
M  V30 715 N 69.4707 1.49531 0.497807 0
M  V30 716 C 70.4027 1.62559 1.61578 0
M  V30 717 C 71.4157 0.508134 1.54667 0
M  V30 718 O 72.6047 0.780309 1.60541 0
M  V30 719 C 69.7047 1.56925 3.00379 0
M  V30 720 C 68.8777 2.84257 3.3244 0
M  V30 721 C 67.9367 2.71632 4.50669 0
M  V30 722 O 66.9627 3.4557 4.52294 0
M  V30 723 N 68.1647 1.83391 5.5077 0
M  V30 724 H 70.9297 2.58981 1.50828 0
M  V30 725 H 68.4907 1.4666 0.685743 0
M  V30 726 H 70.4827 1.46129 3.77397 0
M  V30 727 H 69.0527 0.683483 3.05037 0
M  V30 728 H 68.2727 3.09381 2.44289 0
M  V30 729 H 69.5607 3.68666 3.5066 0
M  V30 730 H 68.9587 1.22583 5.52259 0
M  V30 731 H 67.5157 1.78515 6.26878 0
M  V30 732 N 70.9488 -0.749086 1.3866 0
M  V30 733 C 71.8958 -1.86291 1.36251 0
M  V30 734 C 72.8658 -1.64578 0.224347 0
M  V30 735 O 74.0508 -1.86181 0.417279 0
M  V30 736 C 71.1908 -3.23644 1.19786 0
M  V30 737 C 70.3038 -3.57158 2.43027 0
M  V30 738 C 69.4388 -4.83838 2.19258 0
M  V30 739 C 68.4778 -5.10152 3.38247 0
M  V30 740 N 67.6148 -6.28029 3.13884 0
M  V30 741 H 72.4548 -1.87685 2.3147 0
M  V30 742 H 69.9918 -0.917287 1.14997 0
M  V30 743 H 71.9498 -4.0291 1.08254 0
M  V30 744 H 70.5798 -3.21566 0.282031 0
M  V30 745 H 69.6318 -2.72701 2.65214 0
M  V30 746 H 70.9438 -3.7253 3.31697 0
M  V30 747 H 70.0978 -5.71057 2.04888 0
M  V30 748 H 68.8368 -4.70614 1.2796 0
M  V30 749 H 67.8418 -4.21401 3.53131 0
M  V30 750 H 69.0668 -5.25271 4.30427 0
M  V30 751 H 67.0128 -6.1612 2.25238 0
M  V30 752 H 66.9298 -6.43922 3.96106 0
M  V30 753 H 68.1978 -7.18124 3.03179 0
M  V30 754 N 72.4269 -1.23603 -0.977757 0
M  V30 755 C 73.8429 -0.999251 -1.24447 0
M  V30 756 C 74.0429 0.298053 -1.99283 0
M  V30 757 O 73.0989 1.01681 -2.31122 0
M  V30 758 C 74.4119 -2.20784 -2.04144 0
M  V30 759 C 75.9599 -2.25303 -2.17273 0
M  V30 760 C 76.4349 -3.45755 -3.00362 0
M  V30 761 N 77.9259 -3.4601 -3.07947 0
M  V30 762 C 78.6609 -4.35868 -3.72568 0
M  V30 763 N 78.1569 -5.35966 -4.38991 0
M  V30 764 N 79.9499 -4.23605 -3.6948 0
M  V30 765 H 72.1009 -2.06986 -0.476483 0
M  V30 766 H 74.3639 -0.907801 -0.273134 0
M  V30 767 H 74.0699 -3.14945 -1.56533 0
M  V30 768 H 73.9439 -2.22085 -3.04891 0
M  V30 769 H 76.3309 -1.3168 -2.64092 0
M  V30 770 H 76.4119 -2.28033 -1.15907 0
M  V30 771 H 76.0559 -4.39687 -2.5424 0
M  V30 772 H 75.9859 -3.40266 -4.01904 0
M  V30 773 H 78.4769 -2.73588 -2.60688 0
M  V30 774 H 78.7899 -6.00783 -4.86086 0
M  V30 775 H 77.1349 -5.39863 -4.37691 0
M  V30 776 H 80.3259 -3.44647 -3.16759 0
M  V30 777 H 80.4989 -4.93836 -4.1956 0
M  V30 778 N 73.905 1.17692 -1.04816 0
M  V30 779 C 75.13 1.92327 -0.776207 0
M  V30 780 C 75.555 1.76082 0.661581 0
M  V30 781 O 74.913 1.076 1.45917 0
M  V30 782 C 74.961 3.41539 -1.15687 0
M  V30 783 O 74.065 4.11402 -0.286775 0
M  V30 784 H 73.406 0.599735 -0.284981 0
M  V30 785 H 75.936 1.49201 -1.4 0
M  V30 786 H 75.946 3.92269 -1.12202 0
M  V30 787 H 74.621 3.52684 -2.20425 0
M  V30 788 H 73.198 3.70939 -0.381903 0
M  V30 789 N 75.3831 0.828654 1.34056 0
M  V30 790 C 76.6291 0.42008 1.98402 0
M  V30 791 C 76.9621 -1.01564 1.65525 0
M  V30 792 O 76.2371 -1.70834 0.929831 0
M  V30 793 C 76.5201 0.62927 3.54559 0
M  V30 794 C 76.3731 2.11152 3.97159 0
M  V30 795 C 77.6921 0.0688756 4.40046 0
M  V30 796 H 74.8111 0.154104 0.720709 0
M  V30 797 H 77.4531 1.04228 1.5886 0
M  V30 798 H 75.6031 0.0996418 3.88372 0
M  V30 799 H 77.2751 2.70522 3.73651 0
M  V30 800 H 75.5181 2.59985 3.47261 0
M  V30 801 H 76.1891 2.20868 5.05887 0
M  V30 802 H 78.6651 0.521458 4.1282 0
M  V30 803 H 77.5411 0.245006 5.48353 0
M  V30 804 H 77.8021 -1.0266 4.30015 0
M  V30 805 N 76.8612 -1.46375 0.584142 0
M  V30 806 C 78.0892 -2.06761 0.0759296 0
M  V30 807 C 78.5042 -1.43266 -1.22965 0
M  V30 808 O 77.8612 -0.538458 -1.74376 0
M  V30 809 C 77.9122 -3.61375 -0.0950384 0
M  V30 810 O 77.6332 -4.22495 1.15887 0
M  V30 811 C 79.1342 -4.38693 -0.637434 0
M  V30 812 H 76.3542 -0.668479 0.0581075 0
M  V30 813 H 78.8982 -1.8798 0.805218 0
M  V30 814 H 77.0532 -3.79578 -0.774554 0
M  V30 815 H 77.4672 -5.15385 0.973598 0
M  V30 816 H 78.9412 -5.47464 -0.706237 0
M  V30 817 H 79.4182 -4.06836 -1.65472 0
M  V30 818 H 80.0242 -4.25299 0.00725967 0
M  V30 819 N 78.3393 -0.321999 -1.54275 0
M  V30 820 C 79.3023 0.531975 -2.22941 0
M  V30 821 C 80.3023 1.04478 -1.22234 0
M  V30 822 O 81.4923 0.937452 -1.46825 0
M  V30 823 C 78.6243 1.73874 -2.93224 0
M  V30 824 H 79.8173 -0.0682612 -2.99822 0
M  V30 825 H 77.3703 -0.0730644 -1.56129 0
M  V30 826 H 78.1053 2.37825 -2.20476 0
M  V30 827 H 77.8903 1.37847 -3.6707 0
M  V30 828 H 79.3803 2.34496 -3.45545 0
M  V30 829 N 79.8174 1.5752 -0.0501392 0
M  V30 830 C 80.7474 2.14502 0.922566 0
M  V30 831 C 81.7284 1.06642 1.3252 0
M  V30 832 O 82.9134 1.34577 1.4001 0
M  V30 833 C 80.0434 2.68916 2.19776 0
M  V30 834 C 78.9974 3.8175 1.93523 0
M  V30 835 C 78.3234 4.22677 3.27487 0
M  V30 836 C 79.6234 5.06932 1.25765 0
M  V30 837 H 81.3174 2.9603 0.447952 0
M  V30 838 H 78.8634 1.42401 0.214024 0
M  V30 839 H 80.8164 3.07419 2.88222 0
M  V30 840 H 79.5404 1.84578 2.69441 0
M  V30 841 H 78.1994 3.43718 1.27489 0
M  V30 842 H 77.8474 3.35291 3.74952 0
M  V30 843 H 77.5474 4.98725 3.1072 0
M  V30 844 H 79.0714 4.63779 3.97166 0
M  V30 845 H 80.4854 5.42888 1.84244 0
M  V30 846 H 78.8824 5.88116 1.19328 0
M  V30 847 H 79.9524 4.84337 0.233536 0
M  V30 848 N 81.2955 -0.223234 1.56011 0
M  V30 849 C 82.2285 -1.30377 1.87289 0
M  V30 850 C 83.2065 -1.45286 0.730112 0
M  V30 851 O 84.3905 -1.61126 0.978302 0
M  V30 852 C 81.5175 -2.67431 2.07843 0
M  V30 853 C 80.5635 -2.69546 3.30526 0
M  V30 854 S 81.3965 -2.23781 4.865 0
M  V30 855 C 82.5525 -3.62714 5.10088 0
M  V30 856 H 82.7855 -1.03652 2.78646 0
M  V30 857 H 80.3185 -0.425393 1.48424 0
M  V30 858 H 82.2765 -3.46336 2.20368 0
M  V30 859 H 80.9375 -2.91381 1.17285 0
M  V30 860 H 80.1305 -3.70255 3.41947 0
M  V30 861 H 79.7325 -1.98703 3.16849 0
M  V30 862 H 82.0245 -4.58391 4.98883 0
M  V30 863 H 82.9675 -3.5621 6.11981 0
M  V30 864 H 83.3755 -3.56323 4.37829 0
M  V30 865 N 82.7736 -1.49793 -0.48987 0
M  V30 866 C 84.0196 -1.60078 -1.24511 0
M  V30 867 C 84.3526 -0.291608 -1.91998 0
M  V30 868 O 83.6276 0.705647 -1.81248 0
M  V30 869 C 83.9106 -2.76791 -2.30345 0
M  V30 870 C 83.7636 -4.17535 -1.67286 0
M  V30 871 C 85.0826 -2.89111 -3.31817 0
M  V30 872 H 82.2016 -0.582645 -0.451324 0
M  V30 873 H 84.8436 -1.82117 -0.541612 0
M  V30 874 H 82.9936 -2.5813 -2.90346 0
M  V30 875 H 84.6656 -4.4774 -1.11026 0
M  V30 876 H 82.9086 -4.22665 -0.976577 0
M  V30 877 H 83.5796 -4.95094 -2.44103 0
M  V30 878 H 86.0556 -3.06133 -2.81819 0
M  V30 879 H 84.9316 -3.72433 -4.03219 0
M  V30 880 H 85.1926 -1.9893 -3.94815 0
M  V30 881 N 84.2517 0.741722 -1.39055 0
M  V30 882 C 85.1817 1.869 -1.39966 0
M  V30 883 C 86.1627 1.6804 -0.26392 0
M  V30 884 O 87.3477 1.88458 -0.468755 0
M  V30 885 C 84.4777 3.24572 -1.23574 0
M  V30 886 C 83.4317 3.58056 -2.34477 0
M  V30 887 C 82.7577 4.94593 -2.0318 0
M  V30 888 C 84.0577 3.61716 -3.76774 0
M  V30 889 H 85.7517 1.86395 -2.34302 0
M  V30 890 H 83.2977 0.895361 -1.1278 0
M  V30 891 H 85.2507 4.031 -1.22834 0
M  V30 892 H 83.9747 3.25587 -0.257045 0
M  V30 893 H 82.6337 2.81854 -2.34423 0
M  V30 894 H 82.2817 4.92181 -1.03765 0
M  V30 895 H 81.9817 5.17964 -2.77465 0
M  V30 896 H 83.5057 5.75486 -2.04079 0
M  V30 897 H 84.9197 4.30335 -3.78794 0
M  V30 898 H 83.3167 3.96603 -4.50362 0
M  V30 899 H 84.3867 2.61672 -4.08235 0
M  V30 900 N 85.7298 1.2412 0.971189 0
M  V30 901 C 86.6778 1.02812 2.08644 0
M  V30 902 C 87.6718 -0.0358403 1.69362 0
M  V30 903 O 88.8778 0.118429 1.7961 0
M  V30 904 H 85.2528 0.315428 0.682649 0
M  V30 905 H 87.2238 1.97397 2.23779 0
M  V30 906 C 85.9728 0.645874 3.41649 0
M  V30 907 H 85.2958 1.45632 3.72332 0
M  V30 908 H 86.7358 0.536366 4.20594 0
M  V30 909 C 85.1948 -0.646713 3.30635 0
M  V30 910 O 85.7248 -1.69338 3.64263 0
M  V30 911 N 83.9308 -0.626115 2.83775 0
M  V30 912 H 83.4778 0.225988 2.56607 0
M  V30 913 H 83.4358 -1.49117 2.76788 0
M  V30 914 N 87.2079 -1.17134 1.05439 0
M  V30 915 C 88.1379 -2.2342 0.678649 0
M  V30 916 C 89.1189 -1.66971 -0.32476 0
M  V30 917 O 90.3039 -1.93149 -0.201802 0
M  V30 918 C 87.4339 -3.47256 0.0552099 0
M  V30 919 C 86.3879 -4.16543 0.98365 0
M  V30 920 C 85.7139 -5.34231 0.223961 0
M  V30 921 C 87.0139 -4.68495 2.3089 0
M  V30 922 H 88.7079 -2.55105 1.56722 0
M  V30 923 H 86.2539 -1.2262 0.754998 0
M  V30 924 H 88.2069 -4.20828 -0.21946 0
M  V30 925 H 86.9309 -3.14846 -0.868319 0
M  V30 926 H 85.5899 -3.44887 1.24293 0
M  V30 927 H 85.2379 -4.98071 -0.702412 0
M  V30 928 H 84.9379 -5.81527 0.842627 0
M  V30 929 H 86.4619 -6.10585 -0.0433671 0
M  V30 930 H 87.8759 -5.33691 2.09396 0
M  V30 931 H 86.2729 -5.26379 2.88176 0
M  V30 932 H 87.3429 -3.85169 2.94572 0
M  V30 933 N 88.686 -0.835752 -1.33615 0
M  V30 934 C 89.649 -0.272 -2.2758 0
M  V30 935 C 90.649 0.557487 -1.50827 0
M  V30 936 O 91.839 0.37173 -1.70188 0
M  V30 937 C 88.971 0.617173 -3.35267 0
M  V30 938 H 90.164 -1.10111 -2.78954 0
M  V30 939 H 87.717 -0.608594 -1.43965 0
M  V30 940 H 88.452 1.46884 -2.89129 0
M  V30 941 H 88.237 0.0237066 -3.92093 0
M  V30 942 H 89.727 1.005 -4.05326 0
M  V30 943 N 90.1641 1.46063 -0.591896 0
M  V30 944 C 91.0941 2.33172 0.123673 0
M  V30 945 C 92.0751 1.45897 0.87453 0
M  V30 946 O 93.2601 1.74698 0.848181 0
M  V30 947 C 90.3901 3.28336 1.13194 0
M  V30 948 C 89.3441 4.25124 0.495324 0
M  V30 949 C 88.6701 5.09863 1.61071 0
M  V30 950 C 89.9701 5.19143 -0.573425 0
M  V30 951 H 91.6641 2.93252 -0.603646 0
M  V30 952 H 89.2101 1.41014 -0.291741 0
M  V30 953 H 91.1631 3.88137 1.64097 0
M  V30 954 H 89.8871 2.66383 1.88965 0
M  V30 955 H 88.5461 3.66599 0.00729452 0
M  V30 956 H 88.1941 4.44288 2.35832 0
M  V30 957 H 87.8941 5.75417 1.19035 0
M  V30 958 H 89.4181 5.72529 2.12233 0
M  V30 959 H 90.8321 5.73106 -0.1491 0
M  V30 960 H 89.2291 5.93089 -0.914636 0
M  V30 961 H 90.2991 4.62519 -1.45617 0
M  V30 962 N 91.6422 0.330177 1.54103 0
M  V30 963 C 92.6052 -0.520144 2.2322 0
M  V30 964 C 93.6052 -1.03828 1.22786 0
M  V30 965 O 94.7952 -0.929652 1.4732 0
M  V30 966 C 91.9272 -1.72317 2.94142 0
M  V30 967 H 93.1202 0.0841605 2.99782 0
M  V30 968 H 90.6732 0.0813433 1.56088 0
M  V30 969 H 91.4082 -2.36653 2.21734 0
M  V30 970 H 91.1932 -1.35898 3.67796 0
M  V30 971 H 92.6832 -2.3266 3.46784 0
M  V30 972 N 93.1203 -1.57491 0.0584922 0
M  V30 973 C 94.3973 -1.84346 -0.653918 0
M  V30 974 C 94.7773 -0.948355 -1.88599 0
M  V30 975 O 94.1253 -0.0112403 -2.28497 0
M  V30 976 C 94.3353 -3.34239 -1.00425 0
M  V30 977 C 95.6833 -4.01431 -1.38342 0
M  V30 978 O 96.7073 -3.38907 -1.09637 0
M  V30 979 O 95.5663 -5.11683 -1.91943 0
M  V30 980 H 92.6603 -0.761112 -0.323478 0
M  V30 981 H 95.2063 -1.6947 0.0884125 0
M  V30 982 H 93.9783 -3.91089 -0.128625 0
M  V30 983 H 93.6013 -3.54329 -1.80378 0
M  V30 984 N 94.5984 0.214957 -1.56127 0
M  V30 985 C 95.5284 1.2695 -1.95974 0
M  V30 986 C 96.5094 1.48539 -0.828868 0
M  V30 987 O 97.6944 1.60611 -1.09168 0
M  V30 988 C 94.8244 2.61794 -2.28214 0
M  V30 989 C 93.7784 2.54851 -3.43853 0
M  V30 990 C 93.1044 3.93785 -3.61715 0
M  V30 991 C 94.4044 2.09065 -4.78632 0
M  V30 992 H 96.0984 0.93846 -2.84312 0
M  V30 993 H 93.6444 0.449996 -1.36788 0
M  V30 994 H 95.5974 3.35731 -2.54682 0
M  V30 995 H 94.3214 2.96599 -1.36736 0
M  V30 996 H 92.9804 1.8337 -3.17444 0
M  V30 997 H 92.6284 4.25908 -2.67602 0
M  V30 998 H 92.3284 3.90019 -4.39498 0
M  V30 999 H 93.8524 4.69374 -3.90539 0
M  V30 1000 H 95.2664 2.7275 -5.04262 0
M  V30 1001 H 93.6634 2.16346 -5.59745 0
M  V30 1002 H 94.7334 1.04315 -4.73547 0
M  V30 1003 N 96.0765 1.50051 0.48192 0
M  V30 1004 C 97.0395 1.67584 1.5636 0
M  V30 1005 C 98.0395 0.546894 1.51214 0
M  V30 1006 O 99.2295 0.813725 1.54026 0
M  V30 1007 C 96.3615 1.691 2.96003 0
M  V30 1008 H 97.5545 2.64078 1.42136 0
M  V30 1009 H 95.1075 1.39369 0.707533 0
M  V30 1010 H 95.8425 0.742589 3.15684 0
M  V30 1011 H 95.6275 2.51105 3.01146 0
M  V30 1012 H 97.1175 1.84656 3.74556 0
M  V30 1013 N 97.5546 -0.734337 1.39446 0
M  V30 1014 C 98.8006 -1.49613 1.36908 0
M  V30 1015 C 99.1336 -1.94169 -0.0347829 0
M  V30 1016 O 98.4086 -1.66833 -0.999847 0
M  V30 1017 C 98.6916 -2.73534 2.34203 0
M  V30 1018 C 98.5446 -2.34993 3.83534 0
M  V30 1019 C 99.8636 -3.75635 2.29317 0
M  V30 1020 H 96.9826 -0.542714 0.498629 0
M  V30 1021 H 99.6246 -0.839597 1.70443 0
M  V30 1022 H 97.7746 -3.29553 2.05736 0
M  V30 1023 H 99.4466 -1.84601 4.22753 0
M  V30 1024 H 97.6896 -1.67213 4.00278 0
M  V30 1025 H 98.3606 -3.23738 4.47099 0
M  V30 1026 H 100.837 -3.29203 2.54489 0
M  V30 1027 H 99.7126 -4.60008 2.99472 0
M  V30 1028 H 99.9736 -4.22603 1.29842 0
M  V30 1029 N 99.0327 -1.24633 -0.964593 0
M  V30 1030 C 99.9627 -1.06611 -2.07741 0
M  V30 1031 C 100.944 0.0218666 -1.70086 0
M  V30 1032 O 102.129 -0.145793 -1.93652 0
M  V30 1033 C 99.2587 -0.673444 -3.40708 0
M  V30 1034 C 98.2127 -1.71054 -3.92332 0
M  V30 1035 C 97.5387 -1.17285 -5.21678 0
M  V30 1036 C 98.8387 -3.10718 -4.19824 0
M  V30 1037 H 100.533 -1.99693 -2.23076 0
M  V30 1038 H 98.0787 -0.96152 -1.07195 0
M  V30 1039 H 100.032 -0.534345 -4.17998 0
M  V30 1040 H 98.7557 0.293073 -3.25282 0
M  V30 1041 H 97.4147 -1.83791 -3.17201 0
M  V30 1042 H 97.0627 -0.196847 -5.02615 0
M  V30 1043 H 96.7627 -1.86592 -5.57187 0
M  V30 1044 H 98.2867 -1.04593 -6.01575 0
M  V30 1045 H 99.7007 -3.01192 -4.87808 0
M  V30 1046 H 98.0977 -3.77406 -4.66567 0
M  V30 1047 H 99.1677 -3.58524 -3.26479 0
M  V30 1048 N 100.511 1.16574 -1.06058 0
M  V30 1049 C 101.441 2.23057 -0.690488 0
M  V30 1050 C 102.422 1.67141 0.315901 0
M  V30 1051 O 103.607 1.93253 0.191556 0
M  V30 1052 C 100.737 3.47222 -0.073625 0
M  V30 1053 C 99.6908 4.16016 -1.00573 0
M  V30 1054 C 99.0168 5.34104 -0.252289 0
M  V30 1055 C 100.317 4.67264 -2.33371 0
M  V30 1056 H 102.011 2.54271 -1.58072 0
M  V30 1057 H 99.5568 1.22218 -0.76149 0
M  V30 1058 H 101.51 4.20939 0.19714 0
M  V30 1059 H 100.234 3.15302 0.85161 0
M  V30 1060 H 98.8928 3.44223 -1.2612 0
M  V30 1061 H 98.5408 4.98437 0.675988 0
M  V30 1062 H 98.2408 5.81072 -0.873455 0
M  V30 1063 H 99.7648 6.10599 0.0109857 0
M  V30 1064 H 101.179 5.32573 -2.12223 0
M  V30 1065 H 99.5758 5.24843 -2.90963 0
M  V30 1066 H 100.646 3.83602 -2.96611 0
M  V30 1067 N 101.989 0.842826 1.3317 0
M  V30 1068 C 103.217 0.454055 2.01856 0
M  V30 1069 C 103.632 -0.94587 1.63397 0
M  V30 1070 O 102.989 -1.61534 0.849302 0
M  V30 1071 C 103.04 0.569715 3.56982 0
M  V30 1072 O 102.761 1.91448 3.94055 0
M  V30 1073 C 104.262 0.178412 4.42941 0
M  V30 1074 H 101.482 0.17979 0.646465 0
M  V30 1075 H 104.026 1.1365 1.70012 0
M  V30 1076 H 102.181 -0.0648587 3.87346 0
M  V30 1077 H 102.595 1.90282 4.88767 0
M  V30 1078 H 104.069 0.310376 5.51127 0
M  V30 1079 H 104.546 -0.880056 4.30293 0
M  V30 1080 H 105.152 0.787579 4.17944 0
M  V30 1081 N 103.467 -1.45747 0.599634 0
M  V30 1082 C 104.43 -2.28917 -0.113835 0
M  V30 1083 C 105.43 -1.3933 -0.802729 0
M  V30 1084 O 106.62 -1.61534 -0.652103 0
M  V30 1085 C 103.752 -3.20152 -1.17114 0
M  V30 1086 H 104.945 -2.93478 0.617289 0
M  V30 1087 H 102.498 -1.52137 0.358327 0
M  V30 1088 H 103.233 -2.60374 -1.93329 0
M  V30 1089 H 103.018 -3.86133 -0.681468 0
M  V30 1090 H 104.508 -3.82708 -1.67105 0
M  V30 1091 N 104.945 -0.338344 -1.53925 0
M  V30 1092 C 106.356 0.146651 -1.86123 0
M  V30 1093 C 106.707 1.5042 -1.2597 0
M  V30 1094 O 105.832 2.08723 -0.571294 0
M  V30 1095 C 106.427 0.272879 -3.37699 0
M  V30 1096 C 104.986 0.702103 -3.69794 0
M  V30 1097 C 104.133 -0.167304 -2.76795 0
M  V30 1098 H 107.084 -0.558123 -1.48562 0
M  V30 1099 H 107.105 1.10128 -3.64214 0
M  V30 1100 H 106.617 -0.715307 -3.81451 0
M  V30 1101 H 104.718 1.6995 -3.31584 0
M  V30 1102 H 104.831 0.495604 -4.7653 0
M  V30 1103 H 103.195 0.359527 -2.5215 0
M  V30 1104 H 103.978 -1.15253 -3.23375 0
M  V30 1105 N 106.423 1.57458 -0.0668435 0
M  V30 1106 C 107.67 1.93301 0.603406 0
M  V30 1107 C 107.998 0.946486 1.69917 0
M  V30 1108 O 107.253 -0.0387021 1.95662 0
M  V30 1109 C 107.552 3.35784 1.22409 0
M  V30 1110 C 107.218 4.50179 0.254955 0
M  V30 1111 C 105.88 4.81199 -0.0116746 0
M  V30 1112 C 108.232 5.19598 -0.408338 0
M  V30 1113 C 105.56 5.78978 -0.94877 0
M  V30 1114 C 107.912 6.18381 -1.33372 0
M  V30 1115 C 106.576 6.47821 -1.60887 0
M  V30 1116 H 105.846 0.707338 0.220802 0
M  V30 1117 H 108.493 1.91012 -0.136665 0
M  V30 1118 H 106.798 3.34515 2.03978 0
M  V30 1119 H 108.495 3.60804 1.74989 0
M  V30 1120 H 105.085 4.25983 0.472954 0
M  V30 1121 H 109.269 4.95832 -0.215456 0
M  V30 1122 H 104.525 6.00115 -1.16925 0
M  V30 1123 H 108.699 6.71277 -1.85367 0
M  V30 1124 H 106.326 7.23399 -2.33661 0
M  V30 1125 N 107.901 -0.206675 1.56239 0
M  V30 1126 C 109.148 -0.928842 1.79941 0
M  V30 1127 C 109.476 -1.83734 0.638131 0
M  V30 1128 O 108.731 -1.92039 -0.376746 0
M  V30 1129 C 109.03 -1.78675 3.09532 0
M  V30 1130 C 108.696 -1.03022 4.38973 0
M  V30 1131 C 107.358 -0.821302 4.74139 0
M  V30 1132 C 109.71 -0.497081 5.18824 0
M  V30 1133 C 107.038 -0.0675719 5.86661 0
M  V30 1134 C 109.39 0.24338 6.32132 0
M  V30 1135 C 108.054 0.463422 6.65889 0
M  V30 1136 H 107.324 -0.339887 0.658451 0
M  V30 1137 H 109.971 -0.195977 1.90495 0
M  V30 1138 H 108.276 -2.58794 2.94165 0
M  V30 1139 H 109.973 -2.34792 3.25075 0
M  V30 1140 H 106.563 -1.20306 4.11369 0
M  V30 1141 H 110.747 -0.645921 4.92079 0
M  V30 1142 H 106.003 0.112995 6.11296 0
M  V30 1143 H 110.177 0.66393 6.93228 0
M  V30 1144 H 107.804 1.04938 7.52922 0
M  V30 1145 N 109.379 -1.50304 -0.473955 0
M  V30 1146 C 110.309 -1.71886 -1.58042 0
M  V30 1147 C 111.29 -0.567799 -1.60344 0
M  V30 1148 O 112.475 -0.806623 -1.76656 0
M  V30 1149 C 109.605 -1.81036 -2.96384 0
M  V30 1150 C 108.559 -2.962 -3.08949 0
M  V30 1151 C 107.885 -2.9049 -4.48909 0
M  V30 1152 C 109.185 -4.36752 -2.86434 0
M  V30 1153 H 110.879 -2.64527 -1.40234 0
M  V30 1154 H 108.425 -1.27295 -0.673201 0
M  V30 1155 H 110.378 -1.94719 -3.73714 0
M  V30 1156 H 109.102 -0.850147 -3.15341 0
M  V30 1157 H 107.761 -2.82164 -2.3405 0
M  V30 1158 H 107.409 -1.92321 -4.64781 0
M  V30 1159 H 107.109 -3.67802 -4.58253 0
M  V30 1160 H 108.633 -3.06218 -5.28264 0
M  V30 1161 H 110.047 -4.5133 -3.53517 0
M  V30 1162 H 108.444 -5.15493 -3.07225 0
M  V30 1163 H 109.514 -4.49321 -1.82316 0
M  V30 1164 N 110.857 0.726932 -1.39834 0
M  V30 1165 C 111.807 1.83232 -1.35683 0
M  V30 1166 C 112.791 1.59155 -0.236295 0
M  V30 1167 O 113.983 1.70522 -0.474488 0
M  V30 1168 C 111.112 3.21246 -1.21062 0
M  V30 1169 C 110.198 3.51125 -2.37849 0
M  V30 1170 N 110.589 3.51889 -3.63329 0
M  V30 1171 C 108.887 3.81527 -2.30982 0
M  V30 1172 C 109.588 3.79791 -4.40606 0
M  V30 1173 N 108.564 3.97971 -3.70297 0
M  V30 1174 H 112.366 1.8214 -2.30656 0
M  V30 1175 H 109.88 0.925545 -1.33444 0
M  V30 1176 H 111.877 4.00387 -1.16171 0
M  V30 1177 H 110.537 3.23572 -0.270458 0
M  V30 1178 H 111.548 3.33008 -3.96643 0
M  V30 1179 H 108.225 3.91411 -1.45272 0
M  V30 1180 H 109.615 3.86783 -5.49408 0
M  V30 1181 N 112.336 1.25143 0.95797 0
M  V30 1182 C 113.583 1.09692 1.70217 0
M  V30 1183 C 113.911 -0.362654 1.91089 0
M  V30 1184 O 113.166 -1.28386 1.47701 0
M  V30 1185 C 113.465 1.79272 3.09187 0
M  V30 1186 C 113.131 3.29196 3.08125 0
M  V30 1187 C 111.793 3.70096 3.07543 0
M  V30 1188 C 114.145 4.24995 3.0171 0
M  V30 1189 C 111.473 5.05213 2.9829 0
M  V30 1190 C 113.825 5.60132 2.93999 0
M  V30 1191 C 112.489 6.00365 2.9175 0
M  V30 1192 H 111.759 0.401393 0.622868 0
M  V30 1193 H 114.406 1.55372 1.11945 0
M  V30 1194 H 112.711 1.26014 3.70982 0
M  V30 1195 H 114.408 1.64773 3.65583 0
M  V30 1196 H 110.998 2.96651 3.09348 0
M  V30 1197 H 115.182 3.9439 3.01281 0
M  V30 1198 H 110.438 5.35569 2.94916 0
M  V30 1199 H 114.612 6.3406 2.87996 0
M  V30 1200 H 112.239 7.05023 2.84336 0
M  V30 1201 N 113.814 -1.1601 1.06675 0
M  V30 1202 C 114.744 -2.22688 0.702307 0
M  V30 1203 C 115.725 -1.67306 -0.307032 0
M  V30 1204 O 116.91 -1.93352 -0.181305 0
M  V30 1205 C 114.04 -3.47178 0.092038 0
M  V30 1206 C 112.994 -4.15477 1.02777 0
M  V30 1207 C 112.32 -5.33963 0.28061 0
M  V30 1208 C 113.62 -4.66019 2.35846 0
M  V30 1209 H 115.314 -2.53429 1.59419 0
M  V30 1210 H 112.86 -1.21813 0.767961 0
M  V30 1211 H 114.813 -4.21037 -0.174814 0
M  V30 1212 H 113.537 -3.15749 -0.834877 0
M  V30 1213 H 112.196 -3.43549 1.27944 0
M  V30 1214 H 111.844 -4.98788 -0.649545 0
M  V30 1215 H 111.544 -5.806 0.904258 0
M  V30 1216 H 113.068 -6.10596 0.021396 0
M  V30 1217 H 114.482 -5.3144 2.15045 0
M  V30 1218 H 112.879 -5.23293 2.93743 0
M  V30 1219 H 113.949 -3.82023 2.98641 0
M  V30 1220 N 115.292 -0.849877 -1.32721 0
M  V30 1221 C 116.255 -0.296122 -2.27279 0
M  V30 1222 C 117.255 0.541458 -1.5141 0
M  V30 1223 O 118.445 0.353658 -1.70572 0
M  V30 1224 C 115.577 0.581579 -3.35902 0
M  V30 1225 H 116.77 -1.13064 -2.77771 0
M  V30 1226 H 114.323 -0.62383 -1.43311 0
M  V30 1227 H 115.058 1.43809 -2.9067 0
M  V30 1228 H 114.843 -0.0178814 -3.92096 0
M  V30 1229 H 116.333 0.961951 -4.0637 0
M  V30 1230 N 116.77 1.45427 -0.607355 0
M  V30 1231 C 117.702 2.2871 0.149752 0
M  V30 1232 C 118.715 1.39937 0.831958 0
M  V30 1233 O 119.904 1.64313 0.697385 0
M  V30 1234 C 117.004 3.15673 1.23304 0
M  V30 1235 C 116.177 4.32722 0.637996 0
M  V30 1236 C 115.236 5.00895 1.61215 0
M  V30 1237 O 114.262 5.57697 1.13854 0
M  V30 1238 N 115.464 5.00159 2.94655 0
M  V30 1239 H 118.229 2.94328 -0.564882 0
M  V30 1240 H 115.79 1.55612 -0.446823 0
M  V30 1241 H 117.782 3.58144 1.88454 0
M  V30 1242 H 116.352 2.51965 1.8502 0
M  V30 1243 H 115.572 3.93734 -0.191572 0
M  V30 1244 H 116.86 5.08321 0.220665 0
M  V30 1245 H 116.258 4.553 3.35735 0
M  V30 1246 H 114.815 5.46495 3.55228 0
M  V30 1247 N 118.248 0.346503 1.53744 0
M  V30 1248 C 119.496 -0.248612 2.00565 0
M  V30 1249 C 119.817 -1.5083 1.23593 0
M  V30 1250 O 119.087 -1.92858 0.343912 0
M  V30 1251 H 117.667 -0.0948564 0.740953 0
M  V30 1252 H 120.329 0.468341 1.89189 0
M  V30 1253 H 119.425 -0.488994 3.08245 0
M  V30 1254 N 119.726 -1.57421 0.075193 0
M  V30 1255 C 120.954 -1.97946 -0.602076 0
M  V30 1256 C 121.369 -0.953674 -1.62943 0
M  V30 1257 O 120.726 0.0592551 -1.82404 0
M  V30 1258 C 120.777 -3.38546 -1.26762 0
M  V30 1259 O 120.498 -4.37195 -0.281376 0
M  V30 1260 C 121.999 -3.93966 -2.03239 0
M  V30 1261 H 119.219 -0.650918 -0.162931 0
M  V30 1262 H 121.763 -2.03959 0.148601 0
M  V30 1263 H 119.918 -3.33609 -1.96936 0
M  V30 1264 H 120.332 -5.18975 -0.759267 0
M  V30 1265 H 121.806 -4.94555 -2.45193 0
M  V30 1266 H 122.283 -3.30693 -2.8903 0
M  V30 1267 H 122.889 -4.02315 -1.37924 0
M  V30 1268 N 121.204 0.198386 -1.56346 0
M  V30 1269 C 122.45 0.916115 -1.81601 0
M  V30 1270 C 122.805 1.81025 -0.651744 0
M  V30 1271 O 122.098 1.88316 0.353229 0
M  V30 1272 C 122.292 1.77031 -3.10475 0
M  V30 1273 C 122.121 0.960365 -4.39326 0
M  V30 1274 C 120.891 0.646093 -5.01152 0
M  V30 1275 C 123.089 0.314628 -5.13337 0
M  V30 1276 N 121.071 -0.182828 -6.13628 0
M  V30 1277 C 122.442 -0.37664 -6.18855 0
M  V30 1278 C 124.497 0.230019 -4.97368 0
M  V30 1279 C 123.2 -1.14445 -7.10137 0
M  V30 1280 C 125.226 -0.524389 -5.89071 0
M  V30 1281 C 124.588 -1.20412 -6.94032 0
M  V30 1282 H 120.687 0.314732 -0.715868 0
M  V30 1283 H 123.271 0.185102 -1.93818 0
M  V30 1284 H 121.442 2.47295 -2.99499 0
M  V30 1285 H 123.174 2.42727 -3.2383 0
M  V30 1286 H 119.929 0.969724 -4.63566 0
M  V30 1287 H 120.353 -0.586802 -6.74452 0
M  V30 1288 H 124.995 0.741184 -4.16253 0
M  V30 1289 H 122.713 -1.66706 -7.90718 0
M  V30 1290 H 126.299 -0.591167 -5.78789 0
M  V30 1291 H 125.179 -1.77853 -7.63766 0
M  V30 1292 N 122.682 1.50554 0.465978 0
M  V30 1293 C 123.907 1.65838 1.24549 0
M  V30 1294 C 124.332 0.343486 1.84937 0
M  V30 1295 O 123.69 -0.69324 1.67523 0
M  V30 1296 C 123.738 2.75533 2.32624 0
M  V30 1297 O 122.842 2.37142 3.37398 0
M  V30 1298 H 122.183 0.553893 0.366194 0
M  V30 1299 H 124.713 1.96959 0.553927 0
M  V30 1300 H 124.723 2.98763 2.77857 0
M  V30 1301 H 123.398 3.70962 1.88043 0
M  V30 1302 H 121.975 2.24377 2.97841 0
M  V30 1303 N 124.16 -0.719506 1.40217 0
M  V30 1304 C 125.407 -1.47933 1.38283 0
M  V30 1305 C 125.735 -1.94493 -0.0161536 0
M  V30 1306 O 124.99 -1.68224 -0.999956 0
M  V30 1307 C 125.289 -2.72271 2.31524 0
M  V30 1308 C 124.955 -2.44496 3.78857 0
M  V30 1309 C 123.617 -2.36631 4.18998 0
M  V30 1310 C 125.969 -2.21104 4.71977 0
M  V30 1311 C 123.297 -2.03437 5.503 0
M  V30 1312 C 125.649 -1.89423 6.03574 0
M  V30 1313 C 124.313 -1.80038 6.42762 0
M  V30 1314 H 123.583 -0.541325 0.506012 0
M  V30 1315 H 126.23 -0.824502 1.72842 0
M  V30 1316 H 124.535 -3.42572 1.90137 0
M  V30 1317 H 126.232 -3.30348 2.27313 0
M  V30 1318 H 122.822 -2.51503 3.47051 0
M  V30 1319 H 127.006 -2.26139 4.41786 0
M  V30 1320 H 122.262 -1.94705 5.79569 0
M  V30 1321 H 126.436 -1.70336 6.75247 0
M  V30 1322 H 124.063 -1.54083 7.44421 0
M  V30 1323 N 125.638 -1.25649 -0.95132 0
M  V30 1324 C 126.886 -1.10375 -1.69298 0
M  V30 1325 C 127.207 0.355339 -1.91735 0
M  V30 1326 O 126.477 1.25188 -1.50681 0
M  V30 1327 H 125.057 -0.405461 -0.627384 0
M  V30 1328 H 127.719 -1.57823 -1.14358 0
M  V30 1329 H 126.815 -1.61465 -2.67087 0
M  V30 1330 N 127.117 1.15442 -1.07289 0
M  V30 1331 C 128.047 2.22312 -0.714107 0
M  V30 1332 C 129.028 1.67467 0.298155 0
M  V30 1333 O 130.213 1.93445 0.171048 0
M  V30 1334 C 127.343 3.47124 -0.110448 0
M  V30 1335 C 126.297 4.14926 -1.04979 0
M  V30 1336 C 125.623 5.33807 -0.308924 0
M  V30 1337 C 126.923 4.64762 -2.38314 0
M  V30 1338 H 128.617 2.5258 -1.6076 0
M  V30 1339 H 126.163 1.21404 -0.77441 0
M  V30 1340 H 128.116 4.21124 0.152482 0
M  V30 1341 H 126.84 3.16187 0.81812 0
M  V30 1342 H 125.499 3.42866 -1.29764 0
M  V30 1343 H 125.147 4.99126 0.623084 0
M  V30 1344 H 124.847 5.80113 -0.935036 0
M  V30 1345 H 126.371 6.10576 -0.0537771 0
M  V30 1346 H 127.785 5.30292 -2.1786 0
M  V30 1347 H 126.182 5.21728 -2.96514 0
M  V30 1348 H 127.252 3.80434 -3.00663 0
M  V30 1349 N 128.595 0.856903 1.32268 0
M  V30 1350 C 129.558 0.308171 2.27119 0
M  V30 1351 C 130.558 -0.533421 1.51695 0
M  V30 1352 O 131.748 -0.344607 1.70757 0
M  V30 1353 C 128.88 -0.563757 3.36206 0
M  V30 1354 H 130.073 1.14535 2.77167 0
M  V30 1355 H 127.626 0.631421 1.42978 0
M  V30 1356 H 128.361 -1.42266 2.91429 0
M  V30 1357 H 128.146 0.0386749 3.92081 0
M  V30 1358 H 129.636 -0.940386 4.06874 0
M  V30 1359 N 130.073 -1.45103 0.615059 0
M  V30 1360 C 131.321 -2.01784 0.112955 0
M  V30 1361 C 131.642 -1.48504 -1.26378 0
M  V30 1362 O 130.912 -0.682245 -1.83636 0
M  V30 1363 H 129.492 -0.745993 0.0387668 0
M  V30 1364 H 132.154 -1.77808 0.798141 0
M  V30 1365 H 131.25 -3.12025 0.0684069 0
M  V30 1366 N 131.551 -0.354651 -1.53558 0
M  V30 1367 C 132.791 0.238651 -2.03002 0
M  V30 1368 C 133.155 1.46878 -1.23656 0
M  V30 1369 O 134.356 2.13699 -1.63053 0
M  V30 1370 C 132.627 0.534175 -3.53386 0
M  V30 1371 S 134.186 1.10271 -4.24719 0
M  V30 1372 H 131.004 0.0702908 -0.707517 0
M  V30 1373 H 133.606 -0.494987 -1.8913 0
M  V30 1374 H 132.31 -0.368765 -4.0874 0
M  V30 1375 H 131.841 1.29718 -3.71398 0
M  V30 1376 H 133.856 2.38772 -4.34974 0
M  V30 1377 N 133.029 1.57378 -0.0835403 0
M  V30 1378 C 134.445 1.57246 0.273109 0
M  V30 1379 C 134.645 1.09385 1.69225 0
M  V30 1380 O 133.701 0.765051 2.40631 0
M  V30 1381 C 135.014 3.00614 0.0720628 0
M  V30 1382 C 136.562 3.12684 0.1407 0
M  V30 1383 C 137.037 4.57989 -0.0322094 0
M  V30 1384 N 138.528 4.63194 0.0230085 0
M  V30 1385 C 139.263 5.73335 -0.0861941 0
M  V30 1386 N 138.759 6.9235 -0.24958 0
M  V30 1387 N 140.552 5.62093 -0.0282886 0
M  V30 1388 H 132.703 1.86801 -1.0109 0
M  V30 1389 H 134.966 0.861687 -0.395222 0
M  V30 1390 H 134.672 3.39786 -0.907662 0
M  V30 1391 H 134.546 3.68193 0.81936 0
M  V30 1392 H 136.933 2.73391 1.11092 0
M  V30 1393 H 137.014 2.47719 -0.637896 0
M  V30 1394 H 136.658 4.97973 -0.999247 0
M  V30 1395 H 136.588 5.21 0.765937 0
M  V30 1396 H 139.079 3.77613 0.14722 0
M  V30 1397 H 139.392 7.72117 -0.324733 0
M  V30 1398 H 137.737 6.94415 -0.285097 0
M  V30 1399 H 140.928 4.67997 0.0981408 0
M  V30 1400 H 141.101 6.47895 -0.116845 0
M  V30 1401 N 134.507 -0.190092 1.56449 0
M  V30 1402 C 135.437 -1.23816 1.97969 0
M  V30 1403 C 136.418 -1.47201 0.852395 0
M  V30 1404 O 137.603 -1.58854 1.1171 0
M  V30 1405 C 134.733 -2.5813 2.3235 0
M  V30 1406 C 133.687 -2.49348 3.47864 0
M  V30 1407 C 133.013 -3.8798 3.67934 0
M  V30 1408 C 134.313 -2.01424 4.81898 0
M  V30 1409 H 136.007 -0.89311 2.85769 0
M  V30 1410 H 133.553 -0.428177 1.37487 0
M  V30 1411 H 135.506 -3.31637 2.59991 0
M  V30 1412 H 134.23 -2.94386 1.41438 0
M  V30 1413 H 132.889 -1.78297 3.20321 0
M  V30 1414 H 132.537 -4.21597 2.74344 0
M  V30 1415 H 132.237 -3.82978 4.45648 0
M  V30 1416 H 133.761 -4.63101 3.97957 0
M  V30 1417 H 135.175 -2.64693 5.08538 0
M  V30 1418 H 133.572 -2.07413 5.63116 0
M  V30 1419 H 134.642 -0.967677 4.75146 0
M  V30 1420 N 135.985 -1.50799 -0.457987 0
M  V30 1421 C 137.225 -1.64088 -1.21879 0
M  V30 1422 C 137.589 -0.339848 -1.88968 0
M  V30 1423 O 138.79 -0.348301 -2.66534 0
M  V30 1424 C 137.061 -2.79726 -2.2246 0
M  V30 1425 S 138.62 -3.13225 -3.07303 0
M  V30 1426 H 135.438 -0.578314 -0.41361 0
M  V30 1427 H 138.04 -1.88632 -0.513645 0
M  V30 1428 H 136.744 -3.72722 -1.71775 0
M  V30 1429 H 136.275 -2.57308 -2.97584 0
M  V30 1430 H 138.29 -2.58062 -4.23814 0
M  V30 1431 N 137.463 0.71206 -1.40597 0
M  V30 1432 C 138.413 1.81783 -1.37619 0
M  V30 1433 C 139.397 1.58896 -0.253162 0
M  V30 1434 O 140.589 1.70009 -0.492547 0
M  V30 1435 C 137.718 3.19944 -1.24462 0
M  V30 1436 C 136.804 3.48582 -2.4156 0
M  V30 1437 N 137.195 3.48016 -3.67041 0
M  V30 1438 C 135.493 3.79056 -2.35016 0
M  V30 1439 C 136.194 3.75096 -4.44609 0
M  V30 1440 N 135.17 3.94022 -3.74497 0
M  V30 1441 H 138.972 1.79683 -2.32575 0
M  V30 1442 H 136.486 0.91134 -1.34419 0
M  V30 1443 H 138.483 3.99133 -1.20411 0
M  V30 1444 H 137.143 3.23267 -0.304762 0
M  V30 1445 H 138.154 3.28782 -4.00153 0
M  V30 1446 H 134.831 3.89848 -1.49415 0
M  V30 1447 H 136.221 3.80934 -5.53479 0
M  V30 1448 N 138.941 1.26152 0.944643 0
M  V30 1449 C 140.171 1.14094 1.72239 0
M  V30 1450 C 140.579 -0.306931 1.86694 0
M  V30 1451 O 139.922 -1.22222 1.3714 0
M  V30 1452 C 139.984 1.73316 3.14963 0
M  V30 1453 C 139.648 3.2239 3.23904 0
M  V30 1454 C 140.645 4.19252 3.07447 0
M  V30 1455 C 138.33 3.62788 3.47405 0
M  V30 1456 C 140.324 5.54491 3.14353 0
M  V30 1457 C 138.011 4.98162 3.53947 0
M  V30 1458 C 139.009 5.93823 3.37436 0
M  V30 1459 O 138.697 7.26732 3.43679 0
M  V30 1460 H 138.429 0.398292 0.546205 0
M  V30 1461 H 140.983 1.67201 1.19301 0
M  V30 1462 H 139.213 1.14667 3.69308 0
M  V30 1463 H 140.902 1.56214 3.74636 0
M  V30 1464 H 141.668 3.8938 2.8915 0
M  V30 1465 H 137.547 2.88816 3.59313 0
M  V30 1466 H 141.091 6.29137 3.01384 0
M  V30 1467 H 136.988 5.27695 3.71763 0
M  V30 1468 H 137.756 7.3496 3.60245 0
M  V30 1469 N 140.419 -1.14872 1.07899 0
M  V30 1470 C 141.665 -1.86064 0.806725 0
M  V30 1471 C 141.998 -1.82434 -0.665706 0
M  V30 1472 O 141.273 -1.25138 -1.48899 0
M  V30 1473 C 141.556 -3.34929 1.32267 0
M  V30 1474 C 141.409 -3.47161 2.86006 0
M  V30 1475 C 142.728 -4.29863 0.943717 0
M  V30 1476 H 139.847 -0.675591 0.294526 0
M  V30 1477 H 142.489 -1.34925 1.33773 0
M  V30 1478 H 140.639 -3.78611 0.870974 0
M  V30 1479 H 142.311 -3.12302 3.39507 0
M  V30 1480 H 140.554 -2.88539 3.23925 0
M  V30 1481 H 141.225 -4.51777 3.17177 0
M  V30 1482 H 143.701 -3.9417 1.33302 0
M  V30 1483 H 142.577 -5.32494 1.33198 0
M  V30 1484 H 142.838 -4.41846 -0.149796 0
M  V30 1485 N 141.898 -0.863906 -1.31812 0
M  V30 1486 C 143.138 -0.47825 -1.98726 0
M  V30 1487 C 143.502 0.950397 -1.66828 0
M  V30 1488 O 144.703 1.44109 -2.26905 0
M  V30 1489 C 142.974 -0.721134 -3.50049 0
M  V30 1490 S 144.533 -0.434432 -4.36644 0
M  V30 1491 H 141.351 -0.178773 -0.688158 0
M  V30 1492 H 143.953 -1.11862 -1.60334 0
M  V30 1493 H 142.657 -1.75981 -3.70755 0
M  V30 1494 H 142.188 -0.0675315 -3.93342 0
M  V30 1495 H 144.203 0.735786 -4.90714 0
M  V30 1496 N 143.376 1.44774 -0.622745 0
M  V30 1497 C 144.624 2.01721 -0.123655 0
M  V30 1498 C 144.945 1.49172 1.25589 0
M  V30 1499 O 144.215 0.691974 1.83272 0
M  V30 1500 H 142.795 0.745777 -0.0427225 0
M  V30 1501 H 145.457 1.77382 -0.807559 0
M  V30 1502 H 144.553 3.11984 -0.0849534 0
M  V30 1503 N 144.854 0.36279 1.53368 0
M  V30 1504 C 146.1 -0.228113 2.01513 0
M  V30 1505 C 146.433 -1.48648 1.2497 0
M  V30 1506 O 145.708 -1.91459 0.342616 0
M  V30 1507 C 145.991 -0.522884 3.56284 0
M  V30 1508 C 145.844 0.74892 4.43521 0
M  V30 1509 C 147.163 -1.32461 4.19693 0
M  V30 1510 H 144.282 -0.0814343 0.732487 0
M  V30 1511 H 146.924 0.48713 1.83649 0
M  V30 1512 H 145.074 -1.1322 3.71636 0
M  V30 1513 H 146.746 1.38648 4.39971 0
M  V30 1514 H 144.989 1.36986 4.11603 0
M  V30 1515 H 145.66 0.497667 5.49752 0
M  V30 1516 H 148.136 -0.809203 4.08156 0
M  V30 1517 H 147.012 -1.49961 5.28018 0
M  V30 1518 H 147.273 -2.33232 3.75573 0
M  V30 1519 N 146.332 -1.57332 0.0918853 0
M  V30 1520 C 147.557 -1.98995 -0.584442 0
M  V30 1521 C 147.982 -0.970528 -1.61128 0
M  V30 1522 O 147.34 0.0613904 -1.81196 0
M  V30 1523 C 147.388 -3.39636 -1.21161 0
M  V30 1524 O 146.492 -3.40447 -2.32744 0
M  V30 1525 H 145.833 -0.647165 -0.148572 0
M  V30 1526 H 148.363 -2.03873 0.172347 0
M  V30 1527 H 148.373 -3.7726 -1.55367 0
M  V30 1528 H 147.048 -4.13356 -0.459313 0
M  V30 1529 H 145.625 -3.14614 -2.0018 0
M  V30 1530 N 147.81 0.181792 -1.56548 0
M  V30 1531 C 148.743 1.25366 -1.90679 0
M  V30 1532 C 149.721 1.43299 -0.768376 0
M  V30 1533 O 150.905 1.58475 -1.02068 0
M  V30 1534 C 148.032 2.61826 -2.1486 0
M  V30 1535 C 147.078 2.60688 -3.37556 0
M  V30 1536 S 147.911 2.10804 -4.92262 0
M  V30 1537 C 149.067 3.49062 -5.19525 0
M  V30 1538 H 149.3 0.962277 -2.81296 0
M  V30 1539 H 146.833 0.385892 -1.495 0
M  V30 1540 H 148.791 3.40371 -2.29473 0
M  V30 1541 H 147.452 2.88169 -1.24969 0
M  V30 1542 H 146.645 3.61058 -3.51643 0
M  V30 1543 H 146.247 1.90232 -3.22006 0
M  V30 1544 H 148.539 4.45003 -5.10861 0
M  V30 1545 H 149.482 3.39859 -6.2121 0
M  V30 1546 H 149.89 3.4459 -4.47122 0
M  V30 1547 N 149.288 1.51039 0.449983 0
M  V30 1548 C 150.518 1.66627 1.22143 0
M  V30 1549 C 150.926 0.357776 1.85786 0
M  V30 1550 O 150.269 -0.672424 1.70951 0
M  V30 1551 C 150.331 2.71562 2.35573 0
M  V30 1552 C 149.995 4.14526 1.92399 0
M  V30 1553 C 150.992 4.99717 1.43453 0
M  V30 1554 C 148.677 4.60559 2.00475 0
M  V30 1555 C 150.671 6.28998 1.03155 0
M  V30 1556 C 148.358 5.8984 1.59788 0
M  V30 1557 C 149.356 6.73886 1.11208 0
M  V30 1558 O 149.044 8.0075 0.710935 0
M  V30 1559 H 148.776 0.562635 0.374724 0
M  V30 1560 H 151.33 1.98146 0.541036 0
M  V30 1561 H 149.56 2.3533 3.06849 0
M  V30 1562 H 151.249 2.76156 2.97478 0
M  V30 1563 H 152.015 4.65361 1.36618 0
M  V30 1564 H 147.894 3.95273 2.37235 0
M  V30 1565 H 151.438 6.9455 0.651663 0
M  V30 1566 H 147.335 6.23713 1.66289 0
M  V30 1567 H 148.103 8.142 0.837913 0
M  V30 1568 N 150.766 -0.704594 1.40972 0
M  V30 1569 C 151.729 -1.80035 1.41845 0
M  V30 1570 C 152.729 -1.57774 0.310474 0
M  V30 1571 O 153.919 -1.64613 0.56992 0
M  V30 1572 C 151.051 -3.18284 1.22098 0
M  V30 1573 H 152.244 -1.80658 2.3938 0
M  V30 1574 H 149.797 -0.911329 1.26982 0
M  V30 1575 H 150.532 -3.23306 0.253672 0
M  V30 1576 H 150.317 -3.35843 2.02366 0
M  V30 1577 H 151.807 -3.98289 1.25522 0
M  V30 1578 N 152.244 -1.26651 -0.937939 0
M  V30 1579 C 153.469 -1.15279 -1.72411 0
M  V30 1580 C 153.894 0.287866 -1.85884 0
M  V30 1581 O 153.252 1.20855 -1.35143 0
M  V30 1582 C 153.3 -1.83028 -3.10698 0
M  V30 1583 O 152.404 -1.12128 -3.96864 0
M  V30 1584 H 151.745 -0.401504 -0.528858 0
M  V30 1585 H 154.275 -1.67531 -1.1745 0
M  V30 1586 H 154.285 -1.89981 -3.6107 0
M  V30 1587 H 152.96 -2.87833 -3.00208 0
M  V30 1588 H 151.537 -1.13173 -3.55312 0
M  V30 1589 N 153.722 1.14298 -1.08507 0
M  V30 1590 C 154.968 1.85633 -0.816581 0
M  V30 1591 C 155.301 1.82784 0.656021 0
M  V30 1592 O 154.576 1.25926 1.48233 0
M  V30 1593 C 154.859 3.34223 -1.34041 0
M  V30 1594 C 154.712 3.45639 -2.87843 0
M  V30 1595 C 156.031 4.29356 -0.9665 0
M  V30 1596 H 153.15 0.67402 -0.298104 0
M  V30 1597 H 155.792 1.34214 -1.34487 0
M  V30 1598 H 153.942 3.78144 -0.89104 0
M  V30 1599 H 155.614 3.10498 -3.41158 0
M  V30 1600 H 153.857 2.86817 -3.25451 0
M  V30 1601 H 154.528 4.50089 -3.19569 0
M  V30 1602 H 157.004 3.93457 -1.35391 0
M  V30 1603 H 155.88 5.3178 -1.3602 0
M  V30 1604 H 156.141 4.41919 0.126362 0
M  V30 1605 N 155.201 0.870884 1.31352 0
M  V30 1606 C 156.131 0.343096 2.30966 0
M  V30 1607 C 157.112 -0.566507 1.60389 0
M  V30 1608 O 158.297 -0.483336 1.88089 0
M  V30 1609 C 155.427 -0.455487 3.443 0
M  V30 1610 C 154.381 0.361103 4.26474 0
M  V30 1611 C 153.707 -0.563221 5.31725 0
M  V30 1612 C 155.007 1.59566 4.97329 0
M  V30 1613 H 156.701 1.17548 2.75359 0
M  V30 1614 H 154.247 0.566686 1.32381 0
M  V30 1615 H 156.2 -0.83525 4.13039 0
M  V30 1616 H 154.924 -1.32139 2.98675 0
M  V30 1617 H 153.583 0.722825 3.59403 0
M  V30 1618 H 153.231 -1.42643 4.82351 0
M  V30 1619 H 152.931 -0.0207409 5.87596 0
M  V30 1620 H 154.455 -0.939808 6.03324 0
M  V30 1621 H 155.869 1.28728 5.58661 0
M  V30 1622 H 154.266 2.07728 5.63 0
M  V30 1623 H 155.336 2.34798 4.24262 0
M  V30 1624 N 156.679 -1.44442 0.630414 0
M  V30 1625 C 157.609 -2.33418 -0.0618083 0
M  V30 1626 C 158.59 -1.48165 -0.835541 0
M  V30 1627 O 159.775 -1.76886 -0.801564 0
M  V30 1628 C 156.905 -3.31222 -1.04449 0
M  V30 1629 C 155.859 -4.26288 -0.382436 0
M  V30 1630 C 155.185 -5.13954 -1.47497 0
M  V30 1631 C 156.485 -5.1744 0.710865 0
M  V30 1632 H 158.179 -2.91548 0.681184 0
M  V30 1633 H 155.725 -1.40191 0.329026 0
M  V30 1634 H 157.678 -3.92351 -1.53748 0
M  V30 1635 H 156.402 -2.71299 -1.81836 0
M  V30 1636 H 155.061 -3.6649 0.0899054 0
M  V30 1637 H 154.709 -4.50385 -2.2397 0
M  V30 1638 H 154.409 -5.7837 -1.03737 0
M  V30 1639 H 155.933 -5.77955 -1.96979 0
M  V30 1640 H 157.347 -5.72509 0.300996 0
M  V30 1641 H 155.744 -5.90455 1.07156 0
M  V30 1642 H 156.814 -4.58496 1.57829 0
M  V30 1643 N 158.157 -0.370918 -1.53173 0
M  V30 1644 C 159.406 0.218249 -2.00516 0
M  V30 1645 C 159.719 1.49429 -1.26215 0
M  V30 1646 O 160.925 2.16239 -1.64174 0
M  V30 1647 C 159.381 0.43948 -3.57207 0
M  V30 1648 C 158.989 -0.822244 -4.4039 0
M  V30 1649 C 160.733 0.986012 -4.1289 0
M  V30 1650 C 158.64 -0.570304 -5.88644 0
M  V30 1651 H 157.57 0.0853333 -0.749156 0
M  V30 1652 H 160.221 -0.490483 -1.76823 0
M  V30 1653 H 158.603 1.20961 -3.77074 0
M  V30 1654 H 159.777 -1.59557 -4.32294 0
M  V30 1655 H 158.092 -1.29238 -3.95836 0
M  V30 1656 H 160.689 1.18991 -5.21292 0
M  V30 1657 H 161.032 1.94972 -3.6782 0
M  V30 1658 H 161.565 0.27592 -3.96842 0
M  V30 1659 H 158.304 -1.50449 -6.38001 0
M  V30 1660 H 157.824 0.164427 -5.99575 0
M  V30 1661 H 159.503 -0.19784 -6.46697 0
M  V30 1662 N 159.635 1.57281 -0.100228 0
M  V30 1663 C 160.863 1.98879 0.570509 0
M  V30 1664 C 161.278 0.979476 1.61405 0
M  V30 1665 O 160.635 -0.0302288 1.82475 0
M  V30 1666 C 160.686 3.4052 1.2136 0
M  V30 1667 O 160.407 4.37588 0.211786 0
M  V30 1668 C 161.908 3.97149 1.96945 0
M  V30 1669 H 159.128 0.653428 0.152555 0
M  V30 1670 H 161.672 2.03697 -0.18103 0
M  V30 1671 H 159.827 3.367 1.91603 0
M  V30 1672 H 160.241 5.20118 0.676607 0
M  V30 1673 H 161.715 4.98393 2.37294 0
M  V30 1674 H 162.192 3.3525 2.83733 0
M  V30 1675 H 162.798 4.04458 1.31506 0
M  V30 1676 N 161.113 -0.173488 1.56642 0
M  V30 1677 C 162.076 -1.19859 1.95362 0
M  V30 1678 C 163.076 -1.37296 0.83704 0
M  V30 1679 O 164.266 -1.34739 1.10413 0
M  V30 1680 C 161.398 -2.56405 2.24654 0
M  V30 1681 H 162.591 -0.867062 2.87092 0
M  V30 1682 H 160.144 -0.415853 1.50666 0
M  V30 1683 H 160.879 -2.94576 1.35631 0
M  V30 1684 H 160.664 -2.45115 3.06041 0
M  V30 1685 H 162.154 -3.30287 2.5554 0
M  V30 1686 N 162.591 -1.51276 -0.441967 0
M  V30 1687 C 163.524 -1.66933 -1.55591 0
M  V30 1688 C 164.502 -0.516958 -1.54163 0
M  V30 1689 O 165.686 -0.740209 -1.73358 0
M  V30 1690 C 162.813 -1.67866 -2.94174 0
M  V30 1691 C 161.859 -2.89013 -3.13646 0
M  V30 1692 S 162.692 -4.49897 -2.90436 0
M  V30 1693 C 163.848 -4.53568 -4.31308 0
M  V30 1694 H 164.081 -2.61155 -1.42076 0
M  V30 1695 H 161.614 -1.40902 -0.631341 0
M  V30 1696 H 163.572 -1.69089 -3.74058 0
M  V30 1697 H 162.233 -0.748296 -3.05056 0
M  V30 1698 H 161.426 -2.86054 -4.14957 0
M  V30 1699 H 161.028 -2.85509 -2.4158 0
M  V30 1700 H 163.32 -4.28924 -5.24434 0
M  V30 1701 H 164.263 -5.55355 -4.39303 0
M  V30 1702 H 164.671 -3.82943 -4.14747 0
M  V30 1703 N 164.069 0.697108 -1.41344 0
M  V30 1704 C 165.294 1.49096 -1.44171 0
M  V30 1705 C 165.719 1.88038 -0.0481568 0
M  V30 1706 O 165.077 1.54525 0.948243 0
M  V30 1707 C 165.125 2.73088 -2.3549 0
M  V30 1708 O 164.229 3.70514 -1.81088 0
M  V30 1709 H 163.57 0.448801 -0.489361 0
M  V30 1710 H 166.1 0.856992 -1.85787 0
M  V30 1711 H 166.11 3.21413 -2.51312 0
M  V30 1712 H 164.785 2.44081 -3.36745 0
M  V30 1713 H 163.362 3.29441 -1.74708 0
M  V30 1714 N 165.547 1.27147 0.931209 0
M  V30 1715 C 166.477 1.12081 2.04842 0
M  V30 1716 C 167.458 0.0232364 1.70084 0
M  V30 1717 O 168.643 0.197085 1.93197 0
M  V30 1718 C 165.773 0.76354 3.38803 0
M  V30 1719 C 164.727 1.81396 3.87659 0
M  V30 1720 C 164.053 1.31075 5.18385 0
M  V30 1721 C 165.353 3.21739 4.11438 0
M  V30 1722 H 167.047 2.05537 2.17703 0
M  V30 1723 H 164.593 0.989603 1.04608 0
M  V30 1724 H 166.546 0.644982 4.16435 0
M  V30 1725 H 165.27 -0.206727 3.25945 0
M  V30 1726 H 163.929 1.92136 3.12217 0
M  V30 1727 H 163.577 0.330037 5.01916 0
M  V30 1728 H 163.277 2.013 5.52044 0
M  V30 1729 H 164.801 1.20506 5.98591 0
M  V30 1730 H 166.215 3.14019 4.79651 0
M  V30 1731 H 164.612 3.89644 4.56397 0
M  V30 1732 H 165.682 3.67054 3.16859 0
M  V30 1733 N 167.025 -1.13721 1.09112 0
M  V30 1734 C 168.302 -1.81155 0.737706 0
M  V30 1735 C 168.682 -1.96253 -0.777683 0
M  V30 1736 O 168.03 -1.52807 -1.69889 0
M  V30 1737 C 168.24 -3.16392 1.47299 0
M  V30 1738 C 169.588 -3.91787 1.63671 0
M  V30 1739 O 170.612 -3.26005 1.43524 0
M  V30 1740 O 169.471 -5.0977 1.96969 0
M  V30 1741 H 166.565 -0.783518 0.26463 0
M  V30 1742 H 169.111 -1.20676 1.19312 0
M  V30 1743 H 167.883 -3.0061 2.50498 0
M  V30 1744 H 167.506 -3.8457 1.00953 0
M  V30 1745 N 168.503 -0.877838 -1.30888 0
M  V30 1746 C 169.919 -0.570844 -1.49042 0
M  V30 1747 C 170.119 0.893159 -1.80624 0
M  V30 1748 O 169.175 1.67485 -1.88958 0
M  V30 1749 C 170.488 -1.47784 -2.61878 0
M  V30 1750 C 172.036 -1.48071 -2.75761 0
M  V30 1751 C 172.511 -2.37347 -3.91702 0
M  V30 1752 N 174.002 -2.35271 -3.99001 0
M  V30 1753 C 174.737 -3.01063 -4.88004 0
M  V30 1754 N 174.233 -3.76055 -5.81854 0
M  V30 1755 N 176.026 -2.90332 -4.81315 0
M  V30 1756 H 168.177 -1.82502 -1.0866 0
M  V30 1757 H 170.44 -0.780797 -0.537644 0
M  V30 1758 H 170.146 -2.51993 -2.45341 0
M  V30 1759 H 170.02 -1.18215 -3.58197 0
M  V30 1760 H 172.407 -0.446166 -2.91708 0
M  V30 1761 H 172.488 -1.81668 -1.80085 0
M  V30 1762 H 172.132 -3.40883 -3.76512 0
M  V30 1763 H 172.062 -2.01071 -4.86701 0
M  V30 1764 H 174.553 -1.80768 -3.3186 0
M  V30 1765 H 174.866 -4.23366 -6.46514 0
M  V30 1766 H 173.211 -3.80163 -5.81808 0
M  V30 1767 H 176.402 -2.31278 -4.06974 0
M  V30 1768 H 176.575 -3.41885 -5.50471 0
M  V30 1769 N 169.982 1.44106 -0.638065 0
M  V30 1770 C 171.207 2.0685 -0.150916 0
M  V30 1771 C 171.632 1.47417 1.16833 0
M  V30 1772 O 170.99 0.578264 1.71831 0
M  V30 1773 C 171.038 3.60555 -0.05708 0
M  V30 1774 O 170.142 4.00465 0.984972 0
M  V30 1775 H 169.483 0.658151 -0.0879399 0
M  V30 1776 H 172.013 1.84865 -0.876707 0
M  V30 1777 H 172.023 4.07789 0.131232 0
M  V30 1778 H 170.698 4.03193 -1.02021 0
M  V30 1779 H 169.275 3.64849 0.770672 0
M  V30 1780 N 171.46 0.379036 1.52974 0
M  V30 1781 C 172.39 -0.452706 2.29069 0
M  V30 1782 C 173.371 -1.07237 1.32039 0
M  V30 1783 O 174.556 -1.08708 1.60923 0
M  V30 1784 C 171.686 -1.5856 3.08992 0
M  V30 1785 C 170.64 -1.0925 4.13822 0
M  V30 1786 C 169.966 -2.31668 4.81907 0
M  V30 1787 C 171.266 -0.167702 5.22031 0
M  V30 1788 H 172.96 0.182181 2.98845 0
M  V30 1789 H 170.506 0.0890592 1.43724 0
M  V30 1790 H 172.459 -2.1742 3.6098 0
M  V30 1791 H 171.183 -2.24792 2.36931 0
M  V30 1792 H 169.842 -0.526494 3.628 0
M  V30 1793 H 169.49 -2.96386 4.06404 0
M  V30 1794 H 169.19 -1.9934 5.52754 0
M  V30 1795 H 170.714 -2.91189 5.36695 0
M  V30 1796 H 172.128 -0.664186 5.6944 0
M  V30 1797 H 170.525 0.0653265 6.00064 0
M  V30 1798 H 171.595 0.786347 4.78482 0
M  V30 1799 N 172.938 -1.57226 0.108567 0
M  V30 1800 C 173.901 -2.13602 -0.831082 0
M  V30 1801 C 174.901 -1.06841 -1.20173 0
M  V30 1802 O 176.091 -1.32666 -1.12895 0
M  V30 1803 C 173.223 -2.66769 -2.12243 0
M  V30 1804 H 174.416 -2.97951 -0.341317 0
M  V30 1805 H 171.969 -1.55667 -0.14057 0
M  V30 1806 H 172.704 -1.85977 -2.65675 0
M  V30 1807 H 172.489 -3.44839 -1.86625 0
M  V30 1808 H 173.979 -3.10332 -2.79435 0
M  V30 1809 N 174.416 0.165178 -1.56732 0
M  V30 1810 C 175.662 0.882112 -1.82611 0
M  V30 1811 C 175.995 1.81628 -0.687378 0
M  V30 1812 O 175.27 1.92009 0.310267 0
M  V30 1813 C 175.553 1.67245 -3.18906 0
M  V30 1814 C 175.406 0.760987 -4.43316 0
M  V30 1815 C 176.725 2.63884 -3.52212 0
M  V30 1816 H 173.844 0.319242 -0.664269 0
M  V30 1817 H 176.486 0.148052 -1.89422 0
M  V30 1818 H 174.636 2.29824 -3.1323 0
M  V30 1819 H 176.308 0.147596 -4.61064 0
M  V30 1820 H 174.551 0.0694102 -4.33744 0
M  V30 1821 H 175.222 1.34962 -5.35247 0
M  V30 1822 H 177.698 2.11429 -3.58381 0
M  V30 1823 H 176.574 3.16245 -4.48643 0
M  V30 1824 H 176.835 3.44377 -2.77231 0
M  V30 1825 N 175.894 1.51508 0.433938 0
M  V30 1826 C 176.857 1.72473 1.50949 0
M  V30 1827 C 177.857 0.594725 1.49398 0
M  V30 1828 O 179.047 0.862315 1.5136 0
M  V30 1829 C 176.179 1.78431 2.90474 0
M  V30 1830 H 177.372 2.68467 1.33662 0
M  V30 1831 H 174.925 1.41549 0.662836 0
M  V30 1832 H 175.66 0.842645 3.13161 0
M  V30 1833 H 175.445 2.60558 2.93005 0
M  V30 1834 H 176.935 1.96479 3.68491 0
M  V30 1835 N 177.372 -0.689602 1.41712 0
M  V30 1836 C 178.788 -1.00093 1.24312 0
M  V30 1837 C 178.988 -2.01036 0.136729 0
M  V30 1838 O 178.044 -2.47562 -0.496918 0
M  V30 1839 C 179.357 -1.51985 2.59463 0
M  V30 1840 C 180.905 -1.63838 2.66695 0
M  V30 1841 C 181.38 -2.1913 4.02177 0
M  V30 1842 N 182.871 -2.26483 4.04054 0
M  V30 1843 C 183.606 -2.70306 5.0569 0
M  V30 1844 N 183.102 -3.13691 6.17713 0
M  V30 1845 N 184.895 -2.69923 4.9305 0
M  V30 1846 H 177.046 -0.0210029 2.1239 0
M  V30 1847 H 179.309 -0.0718733 0.945272 0
M  V30 1848 H 179.015 -0.85269 3.41207 0
M  V30 1849 H 178.889 -2.50103 2.82362 0
M  V30 1850 H 181.276 -2.29664 1.85306 0
M  V30 1851 H 181.357 -0.642492 2.476 0
M  V30 1852 H 181.001 -1.53918 4.84016 0
M  V30 1853 H 180.931 -3.19482 4.18615 0
M  V30 1854 H 183.422 -1.95874 3.23174 0
M  V30 1855 H 183.735 -3.45773 6.9113 0
M  V30 1856 H 182.08 -3.11585 6.21241 0
M  V30 1857 H 185.271 -2.35382 4.04614 0
M  V30 1858 H 185.444 -3.03758 5.72394 0
M  V30 1859 N 178.85 -1.27639 -0.924453 0
M  V30 1860 C 180.261 -1.12834 -1.48746 0
M  V30 1861 C 180.612 0.285505 -1.94112 0
M  V30 1862 O 179.737 1.17874 -1.81479 0
M  V30 1863 C 180.332 -2.04217 -2.70334 0
M  V30 1864 C 178.891 -1.93509 -3.22848 0
M  V30 1865 C 178.038 -1.96583 -1.95577 0
M  V30 1866 H 180.989 -1.40484 -0.738233 0
M  V30 1867 H 181.01 -1.59989 -3.4523 0
M  V30 1868 H 180.522 -3.07111 -2.37285 0
M  V30 1869 H 178.623 -0.936131 -3.60649 0
M  V30 1870 H 178.736 -2.79917 -3.88823 0
M  V30 1871 H 177.1 -1.4085 -2.12211 0
M  V30 1872 H 177.883 -3.01137 -1.64837 0
M  V30 1873 N 180.328 1.1314 -1.09713 0
M  V30 1874 C 181.575 1.84484 -0.834987 0
M  V30 1875 C 181.903 1.83689 0.639418 0
M  V30 1876 O 181.158 1.2724 1.4869 0
M  V30 1877 C 181.457 3.32167 -1.3191 0
M  V30 1878 C 181.123 3.53139 -2.80363 0
M  V30 1879 C 179.785 3.58571 -3.20905 0
M  V30 1880 C 182.137 3.60866 -3.76065 0
M  V30 1881 C 179.465 3.69267 -4.55916 0
M  V30 1882 C 181.817 3.73089 -5.10869 0
M  V30 1883 C 180.481 3.76775 -5.50996 0
M  V30 1884 H 179.751 0.675073 -0.305544 0
M  V30 1885 H 182.398 1.33554 -1.37243 0
M  V30 1886 H 180.703 3.85469 -0.701517 0
M  V30 1887 H 182.4 3.85821 -1.09284 0
M  V30 1888 H 178.99 3.49569 -2.47991 0
M  V30 1889 H 183.174 3.55946 -3.45855 0
M  V30 1890 H 178.43 3.70388 -4.86438 0
M  V30 1891 H 182.604 3.78011 -5.84877 0
M  V30 1892 H 180.231 3.84815 -6.55608 0
M  V30 1893 N 181.806 0.884767 1.30421 0
M  V30 1894 C 183.052 0.503851 1.96441 0
M  V30 1895 C 183.385 -0.944518 1.69684 0
M  V30 1896 O 182.66 -1.66737 1.00145 0
M  V30 1897 C 182.943 0.779085 3.51571 0
M  V30 1898 C 182.796 2.27807 3.87846 0
M  V30 1899 C 184.115 0.255452 4.39358 0
M  V30 1900 H 181.234 0.184533 0.713524 0
M  V30 1901 H 183.876 1.10872 1.54297 0
M  V30 1902 H 182.026 0.264274 3.876 0
M  V30 1903 H 183.698 2.86127 3.61841 0
M  V30 1904 H 181.941 2.74479 3.35922 0
M  V30 1905 H 182.612 2.42125 4.96064 0
M  V30 1906 H 185.088 0.696079 4.10236 0
M  V30 1907 H 183.964 0.477361 5.4682 0
M  V30 1908 H 184.225 -0.843293 4.33983 0
M  V30 1909 N 183.284 -1.43765 0.645699 0
M  V30 1910 C 184.509 -2.06767 0.161883 0
M  V30 1911 C 184.934 -1.48034 -1.16049 0
M  V30 1912 O 184.292 -0.587369 -1.71522 0
M  V30 1913 C 184.34 -3.60519 0.0762003 0
M  V30 1914 O 183.444 -4.00982 -0.963721 0
M  V30 1915 H 182.785 -0.657675 0.091429 0
M  V30 1916 H 185.315 -1.84397 0.886499 0
M  V30 1917 H 185.325 -4.07853 -0.109604 0
M  V30 1918 H 184 -4.02646 1.04157 0
M  V30 1919 H 182.577 -3.65253 -0.751312 0
M  V30 1920 N 184.763 -0.387143 -1.52771 0
M  V30 1921 C 185.695 0.484089 -2.2403 0
M  V30 1922 C 186.708 1.02849 -1.26198 0
M  V30 1923 O 187.897 0.931186 -1.52286 0
M  V30 1924 C 184.997 1.68337 -2.94136 0
M  V30 1925 C 184.17 1.26672 -4.18656 0
M  V30 1926 C 183.229 2.33045 -4.7178 0
M  V30 1927 O 182.255 1.94541 -5.34923 0
M  V30 1928 N 183.457 3.64929 -4.5145 0
M  V30 1929 H 186.222 -0.126404 -2.99433 0
M  V30 1930 H 183.783 -0.213392 -1.60488 0
M  V30 1931 H 185.775 2.39019 -3.26577 0
M  V30 1932 H 184.345 2.20025 -2.22053 0
M  V30 1933 H 183.565 0.388878 -3.92277 0
M  V30 1934 H 184.853 0.964964 -4.99566 0
M  V30 1935 H 184.251 3.98974 -4.01044 0
M  V30 1936 H 182.808 4.31651 -4.88386 0
M  V30 1937 N 186.241 1.57166 -0.116904 0
M  V30 1938 C 187.188 2.15202 0.83408 0
M  V30 1939 C 188.158 1.07644 1.26499 0
M  V30 1940 O 189.343 1.35541 1.34288 0
M  V30 1941 C 186.483 2.75405 2.07957 0
M  V30 1942 C 185.596 3.97264 1.69721 0
M  V30 1943 C 184.731 4.45561 2.89221 0
M  V30 1944 C 183.77 5.59956 2.47215 0
M  V30 1945 N 182.907 6.03006 3.59622 0
M  V30 1946 H 187.747 2.96141 0.332335 0
M  V30 1947 H 185.284 1.46309 0.152349 0
M  V30 1948 H 187.242 3.08439 2.80929 0
M  V30 1949 H 185.872 1.97159 2.55594 0
M  V30 1950 H 184.924 3.70404 0.866316 0
M  V30 1951 H 186.236 4.80226 1.34849 0
M  V30 1952 H 185.39 4.80493 3.7042 0
M  V30 1953 H 184.129 3.61544 3.27318 0
M  V30 1954 H 183.134 5.2463 1.64448 0
M  V30 1955 H 184.359 6.45738 2.10238 0
M  V30 1956 H 182.305 5.21931 3.97396 0
M  V30 1957 H 182.222 6.80819 3.28667 0
M  V30 1958 H 183.49 6.42576 4.41267 0
M  V30 1959 N 187.719 -0.156864 1.56817 0
M  V30 1960 C 188.649 -1.19589 2.00551 0
M  V30 1961 C 189.63 -1.4536 0.883426 0
M  V30 1962 O 190.815 -1.56449 1.15054 0
M  V30 1963 C 187.945 -2.53143 2.37773 0
M  V30 1964 C 186.899 -2.41913 3.53075 0
M  V30 1965 C 186.225 -3.80088 3.76081 0
M  V30 1966 C 187.525 -1.91157 4.86062 0
M  V30 1967 H 189.219 -0.832293 2.87599 0
M  V30 1968 H 186.765 -0.398918 1.38364 0
M  V30 1969 H 188.718 -3.26047 2.66967 0
M  V30 1970 H 187.442 -2.91319 1.4765 0
M  V30 1971 H 186.101 -1.71462 3.24031 0
M  V30 1972 H 185.749 -4.15683 2.83225 0
M  V30 1973 H 185.449 -3.73439 4.53671 0
M  V30 1974 H 186.973 -4.54556 4.0769 0
M  V30 1975 H 188.387 -2.53846 5.14038 0
M  V30 1976 H 186.784 -1.95422 5.67389 0
M  V30 1977 H 187.854 -0.866673 4.77092 0
M  V30 1978 N 189.197 -1.51736 -0.425897 0
M  V30 1979 C 190.613 -1.40166 -0.76326 0
M  V30 1980 C 190.813 -0.492962 -1.95377 0
M  V30 1981 O 189.869 0.0475815 -2.52455 0
M  V30 1982 C 191.182 -2.82403 -1.03291 0
M  V30 1983 C 192.73 -2.91632 -1.13665 0
M  V30 1984 C 193.205 -4.34801 -1.43916 0
M  V30 1985 N 194.696 -4.3796 -1.50816 0
M  V30 1986 C 195.431 -5.4578 -1.75817 0
M  V30 1987 N 194.927 -6.63744 -1.98534 0
M  V30 1988 N 196.72 -5.33274 -1.77694 0
M  V30 1989 H 188.871 -2.09361 0.358 0
M  V30 1990 H 191.134 -0.942941 0.0978094 0
M  V30 1991 H 190.84 -3.50943 -0.230696 0
M  V30 1992 H 190.714 -3.22428 -1.95754 0
M  V30 1993 H 193.101 -2.23284 -1.92947 0
M  V30 1994 H 193.182 -2.55088 -0.190756 0
M  V30 1995 H 192.826 -5.03703 -0.65157 0
M  V30 1996 H 192.756 -4.68868 -2.39729 0
M  V30 1997 H 195.247 -3.52919 -1.35118 0
M  V30 1998 H 195.56 -7.41704 -2.17013 0
M  V30 1999 H 193.905 -6.66839 -1.95832 0
M  V30 2000 H 197.096 -4.40098 -1.59473 0
M  V30 2001 H 197.269 -6.1738 -1.9684 0
M  V30 2002 N 190.675 0.682077 -1.42076 0
M  V30 2003 C 191.903 1.47057 -1.4554 0
M  V30 2004 C 192.318 1.8869 -0.0645779 0
M  V30 2005 O 191.675 1.57666 0.919115 0
M  V30 2006 C 191.726 2.72442 -2.37609 0
M  V30 2007 O 191.447 2.32559 -3.71279 0
M  V30 2008 C 192.948 3.66069 -2.50017 0
M  V30 2009 H 190.168 0.452737 -0.495248 0
M  V30 2010 H 192.712 0.838695 -1.8651 0
M  V30 2011 H 190.867 3.31835 -1.9991 0
M  V30 2012 H 191.281 3.13475 -4.20516 0
M  V30 2013 H 192.755 4.50792 -3.18576 0
M  V30 2014 H 193.232 4.11476 -1.53572 0
M  V30 2015 H 193.838 3.12572 -2.88407 0
M  V30 2016 N 192.153 1.28127 0.917671 0
M  V30 2017 C 193.1 1.11717 2.0196 0
M  V30 2018 C 194.07 0.0153929 1.66093 0
M  V30 2019 O 195.255 0.179596 1.89953 0
M  V30 2020 C 192.395 0.780927 3.36148 0
M  V30 2021 C 191.508 1.96135 3.84909 0
M  V30 2022 C 190.643 1.56609 5.0759 0
M  V30 2023 C 189.682 2.71339 5.48673 0
M  V30 2024 N 188.819 2.32332 6.62545 0
M  V30 2025 H 193.659 2.06003 2.15329 0
M  V30 2026 H 191.196 1.02535 1.05475 0
M  V30 2027 H 193.154 0.56675 4.13333 0
M  V30 2028 H 191.784 -0.124998 3.22558 0
M  V30 2029 H 190.836 2.28777 3.03916 0
M  V30 2030 H 192.148 2.82165 4.1132 0
M  V30 2031 H 191.302 1.31374 5.92305 0
M  V30 2032 H 190.041 0.677014 4.82978 0
M  V30 2033 H 189.046 2.97276 4.62501 0
M  V30 2034 H 190.271 3.60882 5.75274 0
M  V30 2035 H 188.217 1.45889 6.39572 0
M  V30 2036 H 188.134 3.11899 6.88662 0
M  V30 2037 H 189.402 2.10371 7.50576 0
M  V30 2038 N 193.631 -1.12557 1.10312 0
M  V30 2039 C 194.594 -2.16434 0.75424 0
M  V30 2040 C 195.594 -1.59278 -0.220685 0
M  V30 2041 O 196.784 -1.742 0.00230591 0
M  V30 2042 C 193.916 -3.40699 0.116987 0
M  V30 2043 H 195.109 -2.48811 1.67431 0
M  V30 2044 H 192.662 -1.27542 0.903475 0
M  V30 2045 H 193.397 -3.13921 -0.813877 0
M  V30 2046 H 193.182 -3.83459 0.818613 0
M  V30 2047 H 194.672 -4.17451 -0.111387 0
M  V30 2048 N 195.109 -0.891671 -1.2995 0
M  V30 2049 C 196.042 -0.307994 -2.26112 0
M  V30 2050 C 197.02 0.575262 -1.52084 0
M  V30 2051 O 198.204 0.523864 -1.81074 0
M  V30 2052 C 195.331 0.561734 -3.34009 0
M  V30 2053 C 194.377 -0.253107 -4.25748 0
M  V30 2054 S 195.21 -1.64572 -5.09584 0
M  V30 2055 C 196.366 -0.782699 -6.20987 0
M  V30 2056 H 196.599 -1.12309 -2.75271 0
M  V30 2057 H 194.132 -0.691509 -1.38049 0
M  V30 2058 H 196.09 1.05777 -3.96638 0
M  V30 2059 H 194.751 1.35099 -2.83561 0
M  V30 2060 H 193.944 0.410908 -5.02322 0
M  V30 2061 H 193.546 -0.682004 -3.67729 0
M  V30 2062 H 195.838 -0.00257476 -6.775 0
M  V30 2063 H 196.781 -1.52026 -6.91588 0
M  V30 2064 H 197.189 -0.340638 -5.63471 0
M  V30 2065 N 196.587 1.43421 -0.653314 0
M  V30 2066 C 197.55 2.29182 0.0287951 0
M  V30 2067 C 198.55 1.42213 0.750465 0
M  V30 2068 O 199.74 1.63843 0.591701 0
M  V30 2069 C 196.872 3.24278 1.05151 0
M  V30 2070 H 198.065 2.90985 -0.725786 0
M  V30 2071 H 195.618 1.50702 -0.414545 0
M  V30 2072 H 196.353 2.6737 1.83532 0
M  V30 2073 H 196.138 3.88396 0.537687 0
M  V30 2074 H 197.628 3.88647 1.52786 0
M  V30 2075 N 198.065 0.39524 1.52563 0
M  V30 2076 C 199.481 0.0454682 1.59535 0
M  V30 2077 C 199.681 -1.44056 1.4089 0
M  V30 2078 O 198.737 -2.20579 1.22888 0
M  V30 2079 C 200.05 0.527963 2.96029 0
M  V30 2080 C 201.598 0.484733 3.09224 0
M  V30 2081 C 202.073 0.943512 4.48176 0
M  V30 2082 N 203.564 0.899765 4.54377 0
M  V30 2083 C 204.299 1.22609 5.60138 0
M  V30 2084 N 203.795 1.62319 6.73516 0
M  V30 2085 N 205.588 1.14696 5.50274 0
M  V30 2086 H 197.739 1.36261 1.62931 0
M  V30 2087 H 200.002 0.558887 0.765735 0
M  V30 2088 H 199.708 1.56607 3.14908 0
M  V30 2089 H 199.582 -0.0698056 3.77135 0
M  V30 2090 H 201.969 -0.544298 2.90037 0
M  V30 2091 H 202.05 1.11838 2.30056 0
M  V30 2092 H 201.694 1.9708 4.68104 0
M  V30 2093 H 201.624 0.286817 5.25818 0
M  V30 2094 H 204.115 0.607632 3.72983 0
M  V30 2095 H 204.428 1.85567 7.5019 0
M  V30 2096 H 202.773 1.66211 6.74833 0
M  V30 2097 H 205.964 0.835701 4.6058 0
M  V30 2098 H 206.137 1.40459 6.32594 0
M  V30 2099 N 199.544 -1.57102 0.125237 0
M  V30 2100 C 200.96 -1.57915 -0.231322 0
M  V30 2101 C 201.16 -1.13833 -1.66266 0
M  V30 2102 O 200.216 -0.828581 -2.38518 0
M  V30 2103 C 201.529 -3.00699 0.00766489 0
M  V30 2104 C 203.077 -3.12947 -0.0577483 0
M  V30 2105 C 203.552 -4.57742 0.153626 0
M  V30 2106 N 205.043 -4.63092 0.0998073 0
M  V30 2107 C 205.778 -5.72905 0.238174 0
M  V30 2108 N 205.274 -6.91445 0.433057 0
M  V30 2109 N 207.067 -5.6182 0.177308 0
M  V30 2110 H 199.218 -1.84055 1.06007 0
M  V30 2111 H 201.481 -0.850905 0.417929 0
M  V30 2112 H 201.187 -3.3726 0.997431 0
M  V30 2113 H 201.061 -3.70236 -0.721452 0
M  V30 2114 H 203.448 -2.7624 -1.03804 0
M  V30 2115 H 203.529 -2.4594 0.70335 0
M  V30 2116 H 203.173 -4.95149 1.13092 0
M  V30 2117 H 203.103 -5.22848 -0.627534 0
M  V30 2118 H 205.594 -3.77871 -0.047051 0
M  V30 2119 H 205.907 -7.70985 0.529332 0
M  V30 2120 H 204.252 -6.93415 0.469109 0
M  V30 2121 H 207.443 -4.68093 0.0259748 0
M  V30 2122 H 207.616 -6.47357 0.288582 0
M  V30 2123 N 201.022 0.148545 -1.56898 0
M  V30 2124 C 202.268 0.862694 -1.83536 0
M  V30 2125 C 202.601 1.80889 -0.706604 0
M  V30 2126 O 201.876 1.92328 0.289885 0
M  V30 2127 C 202.159 1.63853 -3.20662 0
M  V30 2128 C 202.012 0.713925 -4.44098 0
M  V30 2129 C 203.331 2.60133 -3.54991 0
M  V30 2130 H 200.45 0.312179 -0.667618 0
M  V30 2131 H 203.092 0.127953 -1.89569 0
M  V30 2132 H 201.242 2.26489 -3.1565 0
M  V30 2133 H 202.914 0.098686 -4.61194 0
M  V30 2134 H 201.157 0.0234019 -4.33794 0
M  V30 2135 H 201.828 1.29278 -5.36648 0
M  V30 2136 H 204.304 2.07616 -3.60603 0
M  V30 2137 H 203.18 3.11468 -4.51972 0
M  V30 2138 H 203.441 3.41417 -2.80868 0
M  V30 2139 N 202.5 1.5196 0.417844 0
M  V30 2140 C 203.43 1.77634 1.51554 0
M  V30 2141 C 204.411 0.626918 1.58126 0
M  V30 2142 O 205.596 0.871632 1.7354 0
M  V30 2143 C 202.726 1.91911 2.8946 0
M  V30 2144 C 201.68 3.07463 2.97743 0
M  V30 2145 C 201.006 3.06951 4.37819 0
M  V30 2146 C 202.306 4.47082 2.70027 0
M  V30 2147 H 204 2.6955 1.3032 0
M  V30 2148 H 201.546 1.29706 0.625492 0
M  V30 2149 H 203.499 2.08455 3.6623 0
M  V30 2150 H 202.223 0.966598 3.11969 0
M  V30 2151 H 200.882 2.90656 2.23416 0
M  V30 2152 H 200.53 2.09438 4.57323 0
M  V30 2153 H 200.23 3.84556 4.44286 0
M  V30 2154 H 201.754 3.25613 5.16535 0
M  V30 2155 H 203.168 4.6414 3.36522 0
M  V30 2156 H 201.565 5.2654 2.87881 0
M  V30 2157 H 202.635 4.55777 1.65514 0
M  V30 2158 N 203.978 -0.674533 1.42435 0
M  V30 2159 C 204.941 -1.76986 1.45632 0
M  V30 2160 C 205.941 -1.5708 0.343871 0
M  V30 2161 O 207.131 -1.63367 0.604709 0
M  V30 2162 C 204.263 -3.15623 1.28822 0
M  V30 2163 H 205.456 -1.75539 2.43158 0
M  V30 2164 H 203.009 -0.884189 1.28887 0
M  V30 2165 H 203.744 -3.22696 0.322193 0
M  V30 2166 H 203.529 -3.31475 2.09444 0
M  V30 2167 H 205.019 -3.95537 1.33942 0
M  V30 2168 N 205.456 -1.28612 -0.910864 0
M  V30 2169 C 206.704 -1.15705 -1.65701 0
M  V30 2170 C 207.025 0.29416 -1.92769 0
M  V30 2171 O 206.295 1.20331 -1.54588 0
M  V30 2172 H 204.875 -0.425216 -0.614167 0
M  V30 2173 H 207.537 -1.61381 -1.0928 0
M  V30 2174 H 206.633 -1.6988 -2.61815 0
M  V30 2175 N 206.934 1.1197 -1.10907 0
M  V30 2176 C 208.183 1.82947 -0.849302 0
M  V30 2177 C 208.496 1.85275 0.627112 0
M  V30 2178 O 209.702 2.52296 1.00295 0
M  V30 2179 C 208.158 3.28529 -1.46959 0
M  V30 2180 C 207.766 3.34546 -2.97965 0
M  V30 2181 C 209.51 4.04443 -1.28942 0
M  V30 2182 C 207.417 4.74491 -3.53004 0
M  V30 2183 H 206.347 0.685477 -0.314065 0
M  V30 2184 H 208.998 1.2604 -1.33365 0
M  V30 2185 H 207.38 3.85333 -0.912917 0
M  V30 2186 H 208.554 2.87654 -3.59989 0
M  V30 2187 H 206.869 2.72108 -3.15192 0
M  V30 2188 H 209.466 5.07787 -1.67502 0
M  V30 2189 H 209.809 4.15656 -0.231456 0
M  V30 2190 H 210.342 3.5401 -1.81443 0
M  V30 2191 H 207.081 4.68474 -4.58489 0
M  V30 2192 H 206.601 5.21816 -2.9575 0
M  V30 2193 H 208.28 5.4344 -3.51115 0
M  V30 2194 N 208.412 0.89855 1.29475 0
M  V30 2195 C 209.658 0.534065 1.96263 0
M  V30 2196 C 210.013 -0.909415 1.69551 0
M  V30 2197 O 209.306 -1.63596 0.997349 0
M  V30 2198 C 209.5 0.761398 3.49195 0
M  V30 2199 C 209.329 2.22542 3.90775 0
M  V30 2200 C 208.099 2.87264 4.15701 0
M  V30 2201 C 210.297 3.20051 4.02581 0
M  V30 2202 N 208.279 4.24121 4.4384 0
M  V30 2203 C 209.65 4.42023 4.34759 0
M  V30 2204 C 211.705 3.15657 3.85052 0
M  V30 2205 C 210.408 5.60161 4.51235 0
M  V30 2206 C 212.434 4.33078 4.02737 0
M  V30 2207 C 211.796 5.5382 4.35273 0
M  V30 2208 H 207.895 0.245013 0.742625 0
M  V30 2209 H 210.479 1.15912 1.56437 0
M  V30 2210 H 208.65 0.165732 3.88046 0
M  V30 2211 H 210.382 0.362462 4.03074 0
M  V30 2212 H 207.137 2.38064 4.09417 0
M  V30 2213 H 207.561 4.94839 4.6202 0
M  V30 2214 H 212.203 2.23396 3.58962 0
M  V30 2215 H 209.921 6.52913 4.76162 0
M  V30 2216 H 213.507 4.31163 3.90628 0
M  V30 2217 H 212.387 6.43166 4.48672 0
M  V30 2218 N 209.89 -1.43072 0.660911 0
M  V30 2219 C 211.136 -2.0202 0.177708 0
M  V30 2220 C 211.469 -1.52066 -1.20787 0
M  V30 2221 O 210.744 -0.716987 -1.80802 0
M  V30 2222 C 211.027 -3.59561 0.197019 0
M  V30 2223 C 210.88 -4.19727 1.61706 0
M  V30 2224 C 212.199 -4.37664 -0.462396 0
M  V30 2225 H 209.318 -0.734034 0.0660494 0
M  V30 2226 H 211.96 -1.70272 0.843058 0
M  V30 2227 H 210.11 -3.86739 -0.369527 0
M  V30 2228 H 211.782 -4.03553 2.23479 0
M  V30 2229 H 210.025 -3.76084 2.16201 0
M  V30 2230 H 210.696 -5.28834 1.58237 0
M  V30 2231 H 213.172 -4.16095 0.0197215 0
M  V30 2232 H 212.048 -5.47305 -0.418188 0
M  V30 2233 H 212.309 -4.14493 -1.53778 0
M  V30 2234 N 211.368 -0.403325 -1.52352 0
M  V30 2235 C 212.298 0.416205 -2.29761 0
M  V30 2236 C 213.279 1.05123 -1.33728 0
M  V30 2237 O 214.464 1.06134 -1.62632 0
M  V30 2238 C 211.594 1.53624 -3.11475 0
M  V30 2239 C 210.548 1.02653 -4.15507 0
M  V30 2240 C 209.874 2.23971 -4.85532 0
M  V30 2241 C 211.174 0.08463 -5.22231 0
M  V30 2242 H 212.868 -0.229701 -2.98518 0
M  V30 2243 H 210.414 -0.111913 -1.43564 0
M  V30 2244 H 212.367 2.1165 -3.64393 0
M  V30 2245 H 211.091 2.20994 -2.40477 0
M  V30 2246 H 209.75 0.46871 -3.63591 0
M  V30 2247 H 209.398 2.89883 -4.11068 0
M  V30 2248 H 209.098 1.90521 -5.55856 0
M  V30 2249 H 210.622 2.82614 -5.41259 0
M  V30 2250 H 212.036 0.573509 -5.70424 0
M  V30 2251 H 210.433 -0.160783 -5.99885 0
M  V30 2252 H 211.503 -0.86237 -4.7717 0
M  V30 2253 N 212.846 1.57033 -0.133567 0
M  V30 2254 C 214.071 2.00475 0.531477 0
M  V30 2255 C 214.496 1.01291 1.58499 0
M  V30 2256 O 213.854 -0.0133279 1.81295 0
M  V30 2257 C 213.902 3.42729 1.12113 0
M  V30 2258 O 213.006 3.46498 2.23636 0
M  V30 2259 H 212.347 0.650876 0.131362 0
M  V30 2260 H 214.877 2.03344 -0.22634 0
M  V30 2261 H 214.887 3.81246 1.4531 0
M  V30 2262 H 213.562 4.14428 0.349557 0
M  V30 2263 H 212.139 3.19811 1.91769 0
M  V30 2264 N 214.325 -0.140222 1.56975 0
M  V30 2265 C 215.572 -0.851687 1.83719 0
M  V30 2266 C 215.9 -1.80862 0.715485 0
M  V30 2267 O 215.155 -1.93464 -0.294956 0
M  V30 2268 C 215.454 -1.65386 3.16832 0
M  V30 2269 C 215.12 -0.843112 4.42947 0
M  V30 2270 C 213.782 -0.619464 4.77196 0
M  V30 2271 C 216.134 -0.276582 5.20466 0
M  V30 2272 C 213.462 0.181312 5.8642 0
M  V30 2273 C 215.814 0.51127 6.30531 0
M  V30 2274 C 214.478 0.745432 6.63325 0
M  V30 2275 H 213.748 -0.311654 0.672274 0
M  V30 2276 H 216.395 -0.115006 1.91154 0
M  V30 2277 H 214.7 -2.46084 3.04877 0
M  V30 2278 H 216.397 -2.20793 3.34741 0
M  V30 2279 H 212.987 -1.0275 4.16101 0
M  V30 2280 H 217.171 -0.436632 4.94376 0
M  V30 2281 H 212.427 0.372165 6.10266 0
M  V30 2282 H 216.601 0.957354 6.89788 0
M  V30 2283 H 214.228 1.36778 7.47794 0
M  V30 2284 N 215.803 -1.52179 -0.40978 0
M  V30 2285 C 216.733 -1.78435 -1.5061 0
M  V30 2286 C 217.714 -0.635295 -1.57791 0
M  V30 2287 O 218.899 -0.880823 -1.73076 0
M  V30 2288 C 216.029 -1.93444 -2.88439 0
M  V30 2289 C 214.983 -3.09038 -2.96108 0
M  V30 2290 C 214.309 -3.09268 -4.36185 0
M  V30 2291 C 215.609 -4.48508 -2.67652 0
M  V30 2292 H 217.303 -2.70237 -1.28889 0
M  V30 2293 H 214.849 -1.30036 -0.618605 0
M  V30 2294 H 216.802 -2.10394 -3.65119 0
M  V30 2295 H 215.526 -0.983129 -3.11452 0
M  V30 2296 H 214.185 -2.91837 -2.21872 0
M  V30 2297 H 213.833 -2.11861 -4.56206 0
M  V30 2298 H 213.533 -3.86907 -4.42241 0
M  V30 2299 H 215.057 -3.28348 -5.14801 0
M  V30 2300 H 216.471 -4.65918 -3.34056 0
M  V30 2301 H 214.868 -5.28059 -2.85085 0
M  V30 2302 H 215.938 -4.56649 -1.63095 0
M  V30 2303 N 217.281 0.66697 -1.42791 0
M  V30 2304 C 218.211 1.79218 -1.49677 0
M  V30 2305 C 219.192 1.66405 -0.352623 0
M  V30 2306 O 220.377 1.85708 -0.567993 0
M  V30 2307 C 217.507 3.17565 -1.40605 0
M  V30 2308 C 216.461 3.45124 -2.53127 0
M  V30 2309 C 215.787 4.83127 -2.29112 0
M  V30 2310 C 217.087 3.41236 -3.95418 0
M  V30 2311 H 218.781 1.73713 -2.43853 0
M  V30 2312 H 216.327 0.83432 -1.17367 0
M  V30 2313 H 218.28 3.96022 -1.44029 0
M  V30 2314 H 217.004 3.23767 -0.429271 0
M  V30 2315 H 215.663 2.69031 -2.49034 0
M  V30 2316 H 215.311 4.85988 -1.29709 0
M  V30 2317 H 215.011 5.02528 -3.04531 0
M  V30 2318 H 216.535 5.63859 -2.34297 0
M  V30 2319 H 217.949 4.09651 -4.01073 0
M  V30 2320 H 216.346 3.72173 -4.70752 0
M  V30 2321 H 217.416 2.39665 -4.21532 0
M  V30 2322 N 218.759 1.29093 0.90403 0
M  V30 2323 C 219.722 1.1386 1.98919 0
M  V30 2324 C 220.722 0.0753457 1.60623 0
M  V30 2325 O 221.912 0.321931 1.71199 0
M  V30 2326 C 219.044 0.740198 3.32767 0
M  V30 2327 H 220.237 2.10246 2.13861 0
M  V30 2328 H 217.79 1.12218 1.08797 0
M  V30 2329 H 218.525 -0.223997 3.23525 0
M  V30 2330 H 218.31 1.50838 3.61926 0
M  V30 2331 H 219.8 0.656546 4.12407 0
M  V30 2332 N 220.237 -1.11381 1.11499 0
M  V30 2333 C 221.465 -1.86934 0.88675 0
M  V30 2334 C 221.88 -1.80195 -0.563476 0
M  V30 2335 O 221.237 -1.18367 -1.38908 0
M  V30 2336 C 221.288 -3.35722 1.34064 0
M  V30 2337 O 221.009 -3.4232 2.73401 0
M  V30 2338 C 222.51 -4.2818 1.14791 0
M  V30 2339 H 219.73 -0.591117 0.317523 0
M  V30 2340 H 222.274 -1.40865 1.48248 0
M  V30 2341 H 220.429 -3.79294 0.788355 0
M  V30 2342 H 220.843 -4.34971 2.93087 0
M  V30 2343 H 222.317 -5.30817 1.5145 0
M  V30 2344 H 222.794 -4.39113 0.0875279 0
M  V30 2345 H 223.4 -3.90402 1.68721 0
M  V30 2346 N 221.715 -0.905404 -1.28997 0
M  V30 2347 C 223.126 -0.581953 -1.77398 0
M  V30 2348 C 223.477 0.902552 -1.74208 0
M  V30 2349 O 222.602 1.70584 -1.33154 0
M  V30 2350 C 223.197 -1.04961 -3.22131 0
M  V30 2351 C 221.756 -0.777229 -3.68288 0
M  V30 2352 C 220.903 -1.22109 -2.48967 0
M  V30 2353 H 223.854 -1.08754 -1.15578 0
M  V30 2354 H 223.875 -0.387387 -3.78523 0
M  V30 2355 H 223.387 -2.13008 -3.24421 0
M  V30 2356 H 221.488 0.290383 -3.71467 0
M  V30 2357 H 221.601 -1.37911 -4.58822 0
M  V30 2358 H 219.965 -0.639971 -2.46529 0
M  V30 2359 H 220.748 -2.30972 -2.53982 0
M  V30 2360 N 223.193 1.4272 -0.668489 0
M  V30 2361 C 224.439 2.01923 -0.188419 0
M  V30 2362 C 224.772 1.52704 1.19979 0
M  V30 2363 O 224.047 0.726566 1.8042 0
M  V30 2364 C 224.33 3.59451 -0.216085 0
M  V30 2365 C 224.183 4.18864 -1.6393 0
M  V30 2366 C 225.502 4.37903 0.439179 0
M  V30 2367 H 222.621 0.733674 -0.0699412 0
M  V30 2368 H 225.263 1.69822 -0.852076 0
M  V30 2369 H 223.413 3.86929 0.349012 0
M  V30 2370 H 225.085 4.02362 -2.25616 0
M  V30 2371 H 223.328 3.74933 -2.18193 0
M  V30 2372 H 223.999 5.27987 -1.61039 0
M  V30 2373 H 226.475 4.16079 -0.0417878 0
M  V30 2374 H 225.351 5.47519 0.389157 0
M  V30 2375 H 225.612 4.15303 1.51577 0
M  V30 2376 N 224.671 0.411399 1.52136 0
M  V30 2377 C 225.601 -0.404015 2.29978 0
M  V30 2378 C 226.582 -1.04412 1.34284 0
M  V30 2379 O 227.767 -1.0527 1.63192 0
M  V30 2380 C 224.897 -1.5197 3.12286 0
M  V30 2381 C 223.851 -1.00448 4.16046 0
M  V30 2382 C 223.177 -2.21393 4.86712 0
M  V30 2383 C 224.477 -0.0569336 5.22269 0
M  V30 2384 H 226.171 0.245529 2.98392 0
M  V30 2385 H 223.717 0.119525 1.43503 0
M  V30 2386 H 225.67 -2.09715 3.6551 0
M  V30 2387 H 224.394 -2.19716 2.41646 0
M  V30 2388 H 223.053 -0.449421 3.63835 0
M  V30 2389 H 222.701 -2.87699 4.12599 0
M  V30 2390 H 222.401 -1.87571 5.56858 0
M  V30 2391 H 223.925 -2.7974 5.4275 0
M  V30 2392 H 225.339 -0.54325 5.7072 0
M  V30 2393 H 223.736 0.192594 5.99791 0
M  V30 2394 H 224.806 0.887663 4.76706 0
M  V30 2395 N 226.149 -1.5696 0.141893 0
M  V30 2396 C 227.112 -2.15316 -0.785587 0
M  V30 2397 C 228.112 -1.09366 -1.1788 0
M  V30 2398 O 229.302 -1.35031 -1.10056 0
M  V30 2399 C 226.434 -2.71211 -2.06537 0
M  V30 2400 H 227.627 -2.98608 -0.278041 0
M  V30 2401 H 225.18 -1.5593 -0.107519 0
M  V30 2402 H 225.915 -1.91571 -2.6167 0
M  V30 2403 H 225.7 -3.4872 -1.79268 0
M  V30 2404 H 227.19 -3.16189 -2.72789 0
M  V30 2405 N 227.627 0.131896 -1.57047 0
M  V30 2406 C 228.857 0.855219 -1.88068 0
M  V30 2407 C 229.265 1.74557 -0.729817 0
M  V30 2408 O 228.608 1.81083 0.308962 0
M  V30 2409 C 228.67 1.75119 -3.13964 0
M  V30 2410 C 228.334 1.03646 -4.45091 0
M  V30 2411 C 229.331 0.383276 -5.18485 0
M  V30 2412 C 227.016 1.02148 -4.91804 0
M  V30 2413 C 229.01 -0.275347 -6.36805 0
M  V30 2414 C 226.697 0.359047 -6.10044 0
M  V30 2415 C 227.695 -0.288222 -6.82392 0
M  V30 2416 O 227.383 -0.94011 -7.98384 0
M  V30 2417 H 227.115 0.251864 -0.627328 0
M  V30 2418 H 229.669 0.124782 -2.05021 0
M  V30 2419 H 227.899 2.52295 -2.9306 0
M  V30 2420 H 229.588 2.3478 -3.31109 0
M  V30 2421 H 230.354 0.386562 -4.83457 0
M  V30 2422 H 226.233 1.5147 -4.35405 0
M  V30 2423 H 229.777 -0.781148 -6.93213 0
M  V30 2424 H 225.674 0.35348 -6.44531 0
M  V30 2425 H 226.442 -0.84329 -8.14144 0
M  V30 2426 N 229.106 1.52395 0.401703 0
M  V30 2427 C 230.522 1.41363 0.740864 0
M  V30 2428 C 230.722 0.523982 1.94568 0
M  V30 2429 O 229.778 -0.00741204 2.52499 0
M  V30 2430 C 231.091 2.84011 0.987847 0
M  V30 2431 C 232.639 2.93404 1.09011 0
M  V30 2432 C 233.114 4.37036 1.3698 0
M  V30 2433 N 234.605 4.40304 1.43829 0
M  V30 2434 C 235.34 5.48508 1.67112 0
M  V30 2435 N 234.836 6.66819 1.87949 0
M  V30 2436 N 236.629 5.36034 1.69187 0
M  V30 2437 H 228.78 2.08765 -0.391262 0
M  V30 2438 H 231.043 0.941265 -0.112798 0
M  V30 2439 H 230.749 3.51265 0.174835 0
M  V30 2440 H 230.623 3.25502 1.906 0
M  V30 2441 H 233.01 2.26325 1.8937 0
M  V30 2442 H 233.091 2.55359 0.15015 0
M  V30 2443 H 232.735 5.04676 0.571353 0
M  V30 2444 H 232.665 4.72623 2.3224 0
M  V30 2445 H 235.156 3.55024 1.29486 0
M  V30 2446 H 235.469 7.45063 2.05185 0
M  V30 2447 H 233.814 6.6987 1.85199 0
M  V30 2448 H 237.005 4.42579 1.52451 0
M  V30 2449 H 237.178 6.20434 1.86993 0
M  V30 2450 N 230.584 -0.659388 1.43143 0
M  V30 2451 C 231.812 -1.44723 1.47861 0
M  V30 2452 C 232.227 -1.88563 0.0945886 0
M  V30 2453 O 231.584 -1.59108 -0.893915 0
M  V30 2454 C 231.635 -2.68627 2.41913 0
M  V30 2455 O 231.356 -2.26623 3.74932 0
M  V30 2456 C 232.857 -3.62045 2.55809 0
M  V30 2457 H 230.077 -0.444801 0.502387 0
M  V30 2458 H 232.621 -0.808916 1.87821 0
M  V30 2459 H 230.776 -3.28613 2.05164 0
M  V30 2460 H 231.19 -3.06745 4.2545 0
M  V30 2461 H 232.664 -4.45666 3.25708 0
M  V30 2462 H 233.141 -4.08981 1.60099 0
M  V30 2463 H 233.747 -3.07944 2.93344 0
M  V30 2464 N 232.062 -1.29571 -0.897171 0
M  V30 2465 C 233.308 -1.17863 -1.65034 0
M  V30 2466 C 233.641 0.268729 -1.92332 0
M  V30 2467 O 232.916 1.19378 -1.53555 0
M  V30 2468 C 233.199 -1.995 -2.99786 0
M  V30 2469 C 233.052 -3.5239 -2.79538 0
M  V30 2470 C 234.371 -1.82335 -4.00552 0
M  V30 2471 H 231.49 -0.429528 -0.598895 0
M  V30 2472 H 234.132 -1.59072 -1.03905 0
M  V30 2473 H 232.282 -1.64485 -3.51962 0
M  V30 2474 H 233.954 -3.97401 -2.34244 0
M  V30 2475 H 232.197 -3.77187 -2.14273 0
M  V30 2476 H 232.868 -4.04787 -3.75302 0
M  V30 2477 H 235.344 -2.12924 -3.57495 0
M  V30 2478 H 234.22 -2.41801 -4.92771 0
M  V30 2479 H 234.481 -0.779209 -4.35179 0
M  V30 2480 N 233.54 1.10788 -1.12088 0
M  V30 2481 C 234.786 1.82942 -0.875226 0
M  V30 2482 C 235.119 1.84779 0.597538 0
M  V30 2483 O 234.394 1.30578 1.44152 0
M  V30 2484 C 234.677 3.29789 -1.44606 0
M  V30 2485 C 234.53 3.36307 -2.98693 0
M  V30 2486 C 235.849 4.26064 -1.10261 0
M  V30 2487 H 232.968 0.664195 -0.319397 0
M  V30 2488 H 235.61 1.29867 -1.38689 0
M  V30 2489 H 233.76 3.75118 -1.01089 0
M  V30 2490 H 235.432 2.99487 -3.50864 0
M  V30 2491 H 233.675 2.76318 -3.34411 0
M  V30 2492 H 234.346 4.39694 -3.33726 0
M  V30 2493 H 236.822 3.88951 -1.4784 0
M  V30 2494 H 235.698 5.27183 -1.52869 0
M  V30 2495 H 235.959 4.42098 -0.0142953 0
M  V30 2496 N 235.018 0.912232 1.28515 0
M  V30 2497 C 236.429 0.591352 1.77087 0
M  V30 2498 C 236.78 -0.8933 1.74684 0
M  V30 2499 O 235.905 -1.69876 1.34056 0
M  V30 2500 C 236.5 1.06668 3.2157 0
M  V30 2501 C 235.059 0.79675 3.67871 0
M  V30 2502 C 234.206 1.23427 2.48316 0
M  V30 2503 H 237.157 1.09365 1.15 0
M  V30 2504 H 237.178 0.407455 3.78312 0
M  V30 2505 H 236.69 2.14726 3.23287 0
M  V30 2506 H 234.791 -0.270679 3.71616 0
M  V30 2507 H 234.904 1.40343 4.58084 0
M  V30 2508 H 233.268 0.653036 2.46186 0
M  V30 2509 H 234.051 2.32316 2.52753 0
M  V30 2510 N 236.496 -1.42363 0.676048 0
M  V30 2511 C 237.742 -2.02336 0.207809 0
M  V30 2512 C 238.097 -1.52506 -1.17302 0
M  V30 2513 O 237.39 -0.718048 -1.77636 0
M  V30 2514 C 237.584 -3.56929 0.183431 0
M  V30 2515 C 237.413 -4.21762 1.56036 0
M  V30 2516 C 236.183 -4.56881 2.15842 0
M  V30 2517 C 238.381 -4.49267 2.50327 0
M  V30 2518 N 236.363 -5.069 3.46303 0
M  V30 2519 C 237.734 -5.00851 3.65443 0
M  V30 2520 C 239.789 -4.31257 2.48841 0
M  V30 2521 C 238.492 -5.36317 4.79329 0
M  V30 2522 C 240.518 -4.678 3.61824 0
M  V30 2523 C 239.88 -5.19537 4.75668 0
M  V30 2524 H 235.979 -0.772583 0.120993 0
M  V30 2525 H 238.563 -1.73203 0.889306 0
M  V30 2526 H 236.734 -3.85576 -0.467483 0
M  V30 2527 H 238.466 -4.03603 -0.297808 0
M  V30 2528 H 235.221 -4.4268 1.68319 0
M  V30 2529 H 235.645 -5.36338 4.13123 0
M  V30 2530 H 240.287 -3.90511 1.62051 0
M  V30 2531 H 238.005 -5.75995 5.66794 0
M  V30 2532 H 241.591 -4.55541 3.61903 0
M  V30 2533 H 240.471 -5.47287 5.61646 0
M  V30 2534 N 237.974 -0.419461 -1.51915 0
M  V30 2535 C 238.921 0.400927 -2.27291 0
M  V30 2536 C 239.891 1.03224 -1.30131 0
M  V30 2537 O 241.076 1.05455 -1.59009 0
M  V30 2538 C 238.216 1.50603 -3.10504 0
M  V30 2539 C 237.329 0.89462 -4.22635 0
M  V30 2540 C 236.464 1.97328 -4.93189 0
M  V30 2541 C 235.503 1.33935 -5.97267 0
M  V30 2542 N 234.64 2.3586 -6.61298 0
M  V30 2543 H 239.48 -0.248251 -2.96964 0
M  V30 2544 H 237.017 -0.134266 -1.46486 0
M  V30 2545 H 238.975 2.15783 -3.57062 0
M  V30 2546 H 237.605 2.12509 -2.42981 0
M  V30 2547 H 236.657 0.131583 -3.80172 0
M  V30 2548 H 237.969 0.391641 -4.9726 0
M  V30 2549 H 237.123 2.70211 -5.43204 0
M  V30 2550 H 235.862 2.50994 -4.18155 0
M  V30 2551 H 234.867 0.595896 -5.46561 0
M  V30 2552 H 236.092 0.810252 -6.74249 0
M  V30 2553 H 234.038 2.88639 -5.89087 0
M  V30 2554 H 233.955 1.90403 -7.3163 0
M  V30 2555 H 235.223 3.08282 -7.15949 0
M  V30 2556 N 239.452 1.56882 -0.150215 0
M  V30 2557 C 240.68 2.00593 0.506948 0
M  V30 2558 C 241.095 1.03033 1.58208 0
M  V30 2559 O 240.452 0.0278396 1.82479 0
M  V30 2560 C 240.503 3.44209 1.10465 0
M  V30 2561 O 240.224 4.3804 0.0724636 0
M  V30 2562 C 241.725 4.03214 1.84211 0
M  V30 2563 H 238.945 0.65795 0.13169 0
M  V30 2564 H 241.489 2.03018 -0.245743 0
M  V30 2565 H 239.644 3.42625 1.80795 0
M  V30 2566 H 240.058 5.22007 0.510793 0
M  V30 2567 H 241.532 5.0569 2.21318 0
M  V30 2568 H 242.009 3.44107 2.72923 0
M  V30 2569 H 242.615 4.08437 1.18572 0
M  V30 2570 N 240.93 -0.123565 1.57115 0
M  V30 2571 C 241.878 -1.17082 2.00984 0
M  V30 2572 C 242.872 -1.43136 0.906009 0
M  V30 2573 O 244.078 -1.43152 1.09121 0
M  V30 2574 H 240.453 -0.394653 0.64012 0
M  V30 2575 H 242.424 -0.774292 2.88179 0
M  V30 2576 C 241.173 -2.49057 2.42623 0
M  V30 2577 H 240.496 -2.29846 3.27125 0
M  V30 2578 H 241.936 -3.20906 2.7712 0
M  V30 2579 C 240.395 -3.11305 1.28805 0
M  V30 2580 O 240.925 -3.97171 0.60153 0
M  V30 2581 N 239.131 -2.71111 1.04628 0
M  V30 2582 H 238.678 -2.01382 1.60634 0
M  V30 2583 H 238.636 -3.1309 0.286685 0
M  V30 2584 N 242.408 -1.52605 -0.393616 0
M  V30 2585 C 243.341 -1.71798 -1.50202 0
M  V30 2586 C 244.319 -0.565743 -1.52441 0
M  V30 2587 O 245.503 -0.794987 -1.70916 0
M  V30 2588 C 242.63 -1.7714 -2.88685 0
M  V30 2589 C 241.676 -2.98845 -3.04292 0
M  V30 2590 S 242.509 -4.58909 -2.75976 0
M  V30 2591 C 243.665 -4.6706 -4.1666 0
M  V30 2592 H 243.898 -2.65542 -1.33696 0
M  V30 2593 H 241.431 -1.42839 -0.586195 0
M  V30 2594 H 243.389 -1.80903 -3.68489 0
M  V30 2595 H 242.05 -0.844969 -3.02521 0
M  V30 2596 H 241.243 -2.99111 -4.05646 0
M  V30 2597 H 240.845 -2.9305 -2.32374 0
M  V30 2598 H 243.137 -4.45391 -5.10523 0
M  V30 2599 H 244.08 -5.6905 -4.21412 0
M  V30 2600 H 244.488 -3.95944 -4.02354 0
M  V30 2601 N 243.887 0.651787 -1.4349 0
M  V30 2602 C 245.112 1.44434 -1.48841 0
M  V30 2603 C 245.537 1.8779 -0.107955 0
M  V30 2604 O 244.895 1.57464 0.898602 0
M  V30 2605 C 244.943 2.65458 -2.44059 0
M  V30 2606 O 244.047 3.64566 -1.92784 0
M  V30 2607 H 243.388 0.433005 -0.503391 0
M  V30 2608 H 245.918 0.797451 -1.88419 0
M  V30 2609 H 245.928 3.13255 -2.6141 0
M  V30 2610 H 244.603 2.33244 -3.4434 0
M  V30 2611 H 243.18 3.23716 -1.851 0
M  V30 2612 N 245.365 1.30045 0.890287 0
M  V30 2613 C 246.295 1.18541 2.01172 0
M  V30 2614 C 247.276 0.0773356 1.69924 0
M  V30 2615 O 248.461 0.25845 1.92473 0
M  V30 2616 C 245.591 0.870941 3.36202 0
M  V30 2617 C 244.545 1.93637 3.81692 0
M  V30 2618 C 243.871 1.475 5.13953 0
M  V30 2619 C 245.171 3.34666 4.00994 0
M  V30 2620 H 246.865 2.12359 2.11054 0
M  V30 2621 H 244.411 1.02238 1.01407 0
M  V30 2622 H 246.364 0.777141 4.14172 0
M  V30 2623 H 245.088 -0.102926 3.26438 0
M  V30 2624 H 243.747 2.01972 3.05946 0
M  V30 2625 H 243.395 0.489551 5.00612 0
M  V30 2626 H 243.095 2.1876 5.4536 0
M  V30 2627 H 244.619 1.39489 5.94454 0
M  V30 2628 H 246.033 3.2912 4.69417 0
M  V30 2629 H 244.43 4.03966 4.43769 0
M  V30 2630 H 245.5 3.76949 3.05021 0
M  V30 2631 N 246.843 -1.10192 1.12674 0
M  V30 2632 C 248.083 -1.83825 0.893736 0
M  V30 2633 C 248.447 -1.83341 -0.570082 0
M  V30 2634 O 249.648 -2.52553 -0.920354 0
M  V30 2635 C 247.919 -3.26405 1.45582 0
M  V30 2636 S 249.478 -4.17136 1.36171 0
M  V30 2637 H 246.296 -0.633732 0.322342 0
M  V30 2638 H 248.898 -1.32581 1.43675 0
M  V30 2639 H 247.602 -3.24329 2.51473 0
M  V30 2640 H 247.133 -3.82721 0.910405 0
M  V30 2641 H 249.148 -4.95069 0.334863 0
M  V30 2642 N 248.321 -0.919034 -1.28029 0
M  V30 2643 C 249.568 -0.554934 -1.94748 0
M  V30 2644 C 249.896 0.90231 -1.72304 0
M  V30 2645 O 249.151 1.65767 -1.04018 0
M  V30 2646 C 249.45 -0.816855 -3.4794 0
M  V30 2647 C 249.116 -2.25448 -3.90492 0
M  V30 2648 C 247.778 -2.64752 -4.01821 0
M  V30 2649 C 250.13 -3.18977 -4.12193 0
M  V30 2650 C 247.458 -3.96727 -4.32232 0
M  V30 2651 C 249.81 -4.50523 -4.44086 0
M  V30 2652 C 248.474 -4.89673 -4.53626 0
M  V30 2653 H 247.744 -0.203065 -0.712633 0
M  V30 2654 H 250.391 -1.16136 -1.52265 0
M  V30 2655 H 248.696 -0.127677 -3.91592 0
M  V30 2656 H 250.393 -0.514238 -3.97689 0
M  V30 2657 H 246.983 -1.93952 -3.82205 0
M  V30 2658 H 251.167 -2.89817 -4.02889 0
M  V30 2659 H 246.423 -4.26754 -4.37825 0
M  V30 2660 H 250.597 -5.23005 -4.59825 0
M  V30 2661 H 248.224 -5.91969 -4.76946 0
M  V30 2662 N 249.799 1.42003 -0.683588 0
M  V30 2663 C 251.21 1.84501 -0.285736 0
M  V30 2664 C 251.561 1.57213 1.17382 0
M  V30 2665 O 250.686 1.03642 1.89966 0
M  V30 2666 C 251.281 3.34912 -0.511821 0
M  V30 2667 C 249.84 3.76025 -0.168005 0
M  V30 2668 C 248.987 2.6551 -0.799983 0
M  V30 2669 H 251.938 1.31724 -0.885119 0
M  V30 2670 H 251.959 3.79784 0.233292 0
M  V30 2671 H 251.471 3.54741 -1.57418 0
M  V30 2672 H 249.572 3.61801 0.890567 0
M  V30 2673 H 249.685 4.75141 -0.614661 0
M  V30 2674 H 248.049 2.53654 -0.230568 0
M  V30 2675 H 248.832 2.8816 -1.86597 0
M  V30 2676 N 251.277 0.427512 1.51691 0
M  V30 2677 C 252.693 0.0792977 1.59403 0
M  V30 2678 C 252.893 -1.41035 1.43914 0
M  V30 2679 O 251.949 -2.17922 1.27539 0
M  V30 2680 C 253.262 0.590636 2.94842 0
M  V30 2681 C 254.81 0.550215 3.08126 0
M  V30 2682 C 255.285 1.03836 4.46074 0
M  V30 2683 N 256.776 0.995943 4.52366 0
M  V30 2684 C 257.511 1.34463 5.57411 0
M  V30 2685 N 257.007 1.76569 6.69922 0
M  V30 2686 N 258.8 1.26343 5.47717 0
M  V30 2687 H 250.951 1.39687 1.60004 0
M  V30 2688 H 253.214 0.575003 0.753708 0
M  V30 2689 H 252.92 1.63251 3.11516 0
M  V30 2690 H 252.794 0.0102061 3.77199 0
M  V30 2691 H 255.181 -0.482654 2.91126 0
M  V30 2692 H 255.262 1.16693 2.27632 0
M  V30 2693 H 254.906 2.06965 4.63819 0
M  V30 2694 H 254.836 0.398286 5.25092 0
M  V30 2695 H 257.327 0.68661 3.7161 0
M  V30 2696 H 257.64 2.01438 7.46085 0
M  V30 2697 H 255.985 1.80488 6.71155 0
M  V30 2698 H 259.176 0.933209 4.58703 0
M  V30 2699 H 259.349 1.53846 6.29472 0
M  V30 2700 N 252.755 -1.56801 0.158532 0
M  V30 2701 C 253.985 -2.00568 -0.495583 0
M  V30 2702 C 254.393 -1.03774 -1.58201 0
M  V30 2703 O 253.736 -0.0285797 -1.83678 0
M  V30 2704 C 253.798 -3.40768 -1.14532 0
M  V30 2705 C 253.462 -4.56553 -0.202101 0
M  V30 2706 C 254.459 -5.16714 0.574675 0
M  V30 2707 C 252.144 -5.02197 -0.101648 0
M  V30 2708 C 254.138 -6.20939 1.43924 0
M  V30 2709 C 251.825 -6.06274 0.766508 0
M  V30 2710 C 252.823 -6.65515 1.53555 0
M  V30 2711 O 252.511 -7.67575 2.38922 0
M  V30 2712 H 252.243 -0.662893 -0.13247 0
M  V30 2713 H 254.797 -2.03829 0.253559 0
M  V30 2714 H 253.027 -3.34381 -1.94233 0
M  V30 2715 H 254.716 -3.6857 -1.70033 0
M  V30 2716 H 255.482 -4.82341 0.507167 0
M  V30 2717 H 251.361 -4.55807 -0.689994 0
M  V30 2718 H 254.905 -6.67107 2.03996 0
M  V30 2719 H 250.802 -6.40073 0.835266 0
M  V30 2720 H 251.57 -7.84844 2.32296 0
M  V30 2721 N 254.233 0.115231 -1.57178 0
M  V30 2722 C 255.644 0.67197 -1.74188 0
M  V30 2723 C 255.995 1.80125 -0.777777 0
M  V30 2724 O 255.12 2.16346 0.0484376 0
M  V30 2725 C 255.715 1.22573 -3.1585 0
M  V30 2726 C 254.274 1.72872 -3.34353 0
M  V30 2727 C 253.421 0.629972 -2.70049 0
M  V30 2728 H 256.372 -0.110712 -1.58313 0
M  V30 2729 H 256.393 2.09535 -3.17609 0
M  V30 2730 H 255.905 0.403598 -3.85996 0
M  V30 2731 H 254.006 2.5755 -2.69256 0
M  V30 2732 H 254.119 1.83557 -4.42542 0
M  V30 2733 H 252.483 1.0645 -2.31388 0
M  V30 2734 H 253.266 -0.181241 -3.42821 0
M  V30 2735 N 255.711 1.52812 0.385517 0
M  V30 2736 C 256.936 1.72207 1.15583 0
M  V30 2737 C 257.361 0.441034 1.82857 0
M  V30 2738 O 256.719 -0.603465 1.70962 0
M  V30 2739 C 256.767 2.87476 2.17692 0
M  V30 2740 O 255.871 2.54693 3.24354 0
M  V30 2741 H 255.212 0.572526 0.336319 0
M  V30 2742 H 257.742 1.99618 0.448744 0
M  V30 2743 H 257.752 3.13072 2.6163 0
M  V30 2744 H 256.427 3.80408 1.68115 0
M  V30 2745 H 255.004 2.3985 2.85529 0
M  V30 2746 N 257.189 -0.644168 1.43834 0
M  V30 2747 C 258.099 -1.78563 1.52159 0
M  V30 2748 C 259.115 -1.69147 0.408069 0
M  V30 2749 O 260.291 -1.90156 0.663524 0
M  V30 2750 C 257.356 -3.14888 1.45073 0
M  V30 2751 C 256.417 -3.36034 2.6717 0
M  V30 2752 C 255.65 -4.65855 2.60413 0
M  V30 2753 O 255.873 -5.45805 1.65689 0
M  V30 2754 O 254.807 -4.88918 3.5106 0
M  V30 2755 H 258.633 -1.74494 2.48567 0
M  V30 2756 H 256.218 -0.80378 1.25935 0
M  V30 2757 H 258.1 -3.96179 1.43597 0
M  V30 2758 H 256.775 -3.19528 0.518037 0
M  V30 2759 H 255.682 -2.54472 2.74217 0
M  V30 2760 H 257.015 -3.36247 3.59442 0
M  V30 2761 N 258.668 -1.30515 -0.883378 0
M  V30 2762 C 259.916 -1.19194 -1.63209 0
M  V30 2763 C 260.237 0.253205 -1.93349 0
M  V30 2764 O 259.507 1.17025 -1.57105 0
M  V30 2765 H 258.087 -0.438148 -0.605009 0
M  V30 2766 H 260.749 -1.63663 -1.05832 0
M  V30 2767 H 259.845 -1.75396 -2.58153 0
M  V30 2768 N 260.146 1.09593 -1.13257 0
M  V30 2769 C 261.096 2.14345 -0.777179 0
M  V30 2770 C 262.08 1.59277 0.227966 0
M  V30 2771 O 263.272 1.76971 0.0321413 0
M  V30 2772 C 260.401 3.42439 -0.242991 0
M  V30 2773 C 259.487 4.04419 -1.27694 0
M  V30 2774 N 259.878 4.40979 -2.47732 0
M  V30 2775 C 258.176 4.31596 -1.12432 0
M  V30 2776 C 258.877 4.89784 -3.13826 0
M  V30 2777 N 257.853 4.87133 -2.41252 0
M  V30 2778 H 261.655 2.40415 -1.69049 0
M  V30 2779 H 259.169 1.26803 -1.01463 0
M  V30 2780 H 261.166 4.16889 0.0298496 0
M  V30 2781 H 259.826 3.17824 0.66467 0
M  V30 2782 H 260.837 4.32396 -2.85051 0
M  V30 2783 H 257.514 4.16595 -0.274684 0
M  V30 2784 H 258.904 5.2755 -4.16102 0
M  V30 2785 N 261.624 0.925811 1.2754 0
M  V30 2786 C 263.04 0.625767 1.46821 0
M  V30 2787 C 263.24 -0.825506 1.83814 0
M  V30 2788 O 262.296 -1.60356 1.95044 0
M  V30 2789 C 263.609 1.57402 2.56213 0
M  V30 2790 C 265.157 1.58204 2.70075 0
M  V30 2791 C 265.632 2.51721 3.82623 0
M  V30 2792 N 267.123 2.49917 3.89994 0
M  V30 2793 C 267.858 3.18968 4.76494 0
M  V30 2794 N 267.354 3.97391 5.67496 0
M  V30 2795 N 269.147 3.07996 4.70208 0
M  V30 2796 H 261.298 1.86409 1.01811 0
M  V30 2797 H 263.561 0.800213 0.508295 0
M  V30 2798 H 263.267 2.60925 2.35819 0
M  V30 2799 H 263.141 1.31428 3.53563 0
M  V30 2800 H 265.528 0.554124 2.89851 0
M  V30 2801 H 265.609 1.88226 1.73218 0
M  V30 2802 H 265.253 3.54622 3.63601 0
M  V30 2803 H 265.183 2.18996 4.78903 0
M  V30 2804 H 267.674 1.9296 3.24923 0
M  V30 2805 H 267.987 4.4707 6.30356 0
M  V30 2806 H 266.332 4.01495 5.67298 0
M  V30 2807 H 269.523 2.46223 3.9811 0
M  V30 2808 H 269.696 3.6208 5.37403 0
M  V30 2809 N 263.102 -1.41638 0.69111 0
M  V30 2810 C 264.065 -2.29178 0.0319786 0
M  V30 2811 C 265.065 -1.44153 -0.712496 0
M  V30 2812 O 266.255 -1.65354 -0.548053 0
M  V30 2813 C 263.387 -3.26952 -0.965161 0
M  V30 2814 H 264.58 -2.88959 0.802681 0
M  V30 2815 H 262.133 -1.4955 0.454356 0
M  V30 2816 H 262.868 -2.72142 -1.76378 0
M  V30 2817 H 262.653 -3.89685 -0.434522 0
M  V30 2818 H 264.143 -3.92561 -1.42428 0
M  V30 2819 N 264.58 -0.43555 -1.51462 0
M  V30 2820 C 265.827 0.131514 -2.02072 0
M  V30 2821 C 266.155 1.42868 -1.31981 0
M  V30 2822 O 265.41 1.91076 -0.422883 0
M  V30 2823 C 265.709 0.39942 -3.55161 0
M  V30 2824 C 265.375 -0.81172 -4.43533 0
M  V30 2825 C 264.037 -1.14387 -4.67407 0
M  V30 2826 C 266.389 -1.61976 -4.95392 0
M  V30 2827 C 263.717 -2.28477 -5.40384 0
M  V30 2828 C 266.069 -2.75164 -5.6962 0
M  V30 2829 C 264.733 -3.08835 -5.91758 0
M  V30 2830 H 264.003 0.0481244 -0.739436 0
M  V30 2831 H 266.65 -0.58238 -1.8243 0
M  V30 2832 H 264.955 1.19519 -3.73125 0
M  V30 2833 H 266.652 0.85157 -3.91854 0
M  V30 2834 H 263.242 -0.542898 -4.25148 0
M  V30 2835 H 267.426 -1.37637 -4.76833 0
M  V30 2836 H 262.682 -2.5488 -5.55739 0
M  V30 2837 H 266.856 -3.38147 -6.08793 0
M  V30 2838 H 264.483 -3.97353 -6.48086 0
M  V30 2839 N 266.058 1.56714 -0.166846 0
M  V30 2840 C 267.008 2.14338 0.777382 0
M  V30 2841 C 267.992 1.07642 1.19591 0
M  V30 2842 O 269.184 1.33775 1.15902 0
M  V30 2843 C 266.313 2.78417 2.00846 0
M  V30 2844 C 265.399 3.92264 1.61212 0
M  V30 2845 N 265.79 4.97268 0.925104 0
M  V30 2846 C 264.088 4.03342 1.90346 0
M  V30 2847 C 264.789 5.77093 0.730627 0
M  V30 2848 N 263.765 5.2854 1.27067 0
M  V30 2849 H 267.567 2.9289 0.243466 0
M  V30 2850 H 265.081 1.62364 0.0339954 0
M  V30 2851 H 267.078 3.18073 2.69509 0
M  V30 2852 H 265.738 2.01344 2.54736 0
M  V30 2853 H 266.749 5.14601 0.583646 0
M  V30 2854 H 263.426 3.37368 2.45946 0
M  V30 2855 H 264.816 6.71638 0.187668 0
M  V30 2856 N 267.536 -0.106894 1.57237 0
M  V30 2857 C 268.466 -1.13148 2.04254 0
M  V30 2858 C 269.447 -1.42476 0.929224 0
M  V30 2859 O 270.632 -1.52709 1.19973 0
M  V30 2860 C 267.762 -2.4545 2.45706 0
M  V30 2861 C 266.716 -2.30558 3.60592 0
M  V30 2862 C 266.042 -3.67931 3.87983 0
M  V30 2863 C 267.342 -1.75597 4.91897 0
M  V30 2864 H 269.036 -0.740374 2.90101 0
M  V30 2865 H 266.582 -0.354696 1.39563 0
M  V30 2866 H 268.535 -3.17389 2.77205 0
M  V30 2867 H 267.259 -2.86475 1.56843 0
M  V30 2868 H 265.918 -1.61067 3.29322 0
M  V30 2869 H 265.566 -4.06462 2.96306 0
M  V30 2870 H 265.266 -3.58817 4.65322 0
M  V30 2871 H 266.79 -4.41356 4.21945 0
M  V30 2872 H 268.204 -2.37364 5.21854 0
M  V30 2873 H 266.601 -1.77272 5.73319 0
M  V30 2874 H 267.671 -0.714451 4.79608 0
M  V30 2875 N 269.014 -1.53014 -0.377408 0
M  V30 2876 C 270.263 -1.67845 -1.11853 0
M  V30 2877 C 270.576 -0.430625 -1.90801 0
M  V30 2878 O 271.782 -0.459261 -2.67587 0
M  V30 2879 C 270.238 -2.96668 -2.03756 0
M  V30 2880 C 269.846 -4.28671 -1.30175 0
M  V30 2881 C 271.59 -3.20865 -2.77932 0
M  V30 2882 C 269.497 -5.48591 -2.20911 0
M  V30 2883 H 268.427 -0.625343 -0.421263 0
M  V30 2884 H 271.078 -1.79514 -0.380409 0
M  V30 2885 H 269.46 -2.78773 -2.8125 0
M  V30 2886 H 270.634 -4.57157 -0.578259 0
M  V30 2887 H 268.949 -4.10825 -0.679108 0
M  V30 2888 H 271.546 -4.07642 -3.46024 0
M  V30 2889 H 271.889 -2.36424 -3.4265 0
M  V30 2890 H 272.422 -3.39379 -2.07525 0
M  V30 2891 H 269.161 -6.35474 -1.6079 0
M  V30 2892 H 268.681 -5.244 -2.91144 0
M  V30 2893 H 270.36 -5.8292 -2.80736 0
M  V30 2894 N 270.492 0.636531 -1.44174 0
M  V30 2895 C 271.739 1.39619 -1.46672 0
M  V30 2896 C 272.067 1.94257 -0.0972691 0
M  V30 2897 O 271.322 1.73768 0.900175 0
M  V30 2898 C 271.621 2.58309 -2.47005 0
M  V30 2899 C 271.287 2.21992 -3.92467 0
M  V30 2900 C 269.949 2.118 -4.32081 0
M  V30 2901 C 272.301 1.9321 -4.84065 0
M  V30 2902 C 269.629 1.71007 -5.61225 0
M  V30 2903 C 271.981 1.53911 -6.13591 0
M  V30 2904 C 270.645 1.42257 -6.52165 0
M  V30 2905 H 269.915 0.510902 -0.536712 0
M  V30 2906 H 272.562 0.722328 -1.77355 0
M  V30 2907 H 270.867 3.30903 -2.09786 0
M  V30 2908 H 272.564 3.16533 -2.46186 0
M  V30 2909 H 269.154 2.30841 -3.61124 0
M  V30 2910 H 273.338 1.99997 -4.54219 0
M  V30 2911 H 268.594 1.60583 -5.89935 0
M  V30 2912 H 272.768 1.30677 -6.8403 0
M  V30 2913 H 270.395 1.10419 -7.52138 0
M  V30 2914 N 271.97 1.30982 0.876444 0
M  V30 2915 C 272.88 1.2003 2.01569 0
M  V30 2916 C 273.896 0.11838 1.73597 0
M  V30 2917 O 275.072 0.33495 1.98595 0
M  V30 2918 C 272.137 0.901637 3.34771 0
M  V30 2919 C 271.198 2.06979 3.76109 0
M  V30 2920 C 270.431 1.78529 5.02954 0
M  V30 2921 O 270.654 0.717296 5.65872 0
M  V30 2922 O 269.588 2.64019 5.40905 0
M  V30 2923 H 273.414 2.15753 2.13739 0
M  V30 2924 H 270.999 1.10658 1.00375 0
M  V30 2925 H 272.881 0.750645 4.1466 0
M  V30 2926 H 271.556 -0.0256141 3.2369 0
M  V30 2927 H 270.463 2.27616 2.96887 0
M  V30 2928 H 271.796 2.97907 3.91807 0
M  V30 2929 N 273.449 -1.08991 1.13837 0
M  V30 2930 C 274.412 -2.13925 0.822715 0
M  V30 2931 C 275.412 -1.599 -0.1699 0
M  V30 2932 O 276.602 -1.74104 0.0577251 0
M  V30 2933 C 273.734 -3.40155 0.225318 0
M  V30 2934 H 274.927 -2.43358 1.75262 0
M  V30 2935 H 272.48 -1.24603 0.943594 0
M  V30 2936 H 273.215 -3.16352 -0.713594 0
M  V30 2937 H 273 -3.80661 0.940193 0
M  V30 2938 H 274.49 -4.17594 0.0214784 0
M  V30 2939 N 274.927 -0.932562 -1.27047 0
M  V30 2940 C 276.173 -0.576412 -1.94436 0
M  V30 2941 C 276.506 0.880891 -1.73072 0
M  V30 2942 O 275.781 1.62905 -1.06264 0
M  V30 2943 C 276.064 -0.909031 -3.48437 0
M  V30 2944 C 275.917 -2.42044 -3.79123 0
M  V30 2945 C 277.236 -0.418341 -4.38107 0
M  V30 2946 H 274.355 -0.210888 -0.706184 0
M  V30 2947 H 276.997 -1.16522 -1.50075 0
M  V30 2948 H 275.147 -0.407947 -3.86352 0
M  V30 2949 H 276.819 -2.99359 -3.50973 0
M  V30 2950 H 275.062 -2.86758 -3.25503 0
M  V30 2951 H 275.733 -2.6037 -4.86736 0
M  V30 2952 H 278.209 -0.847856 -4.0737 0
M  V30 2953 H 277.085 -0.679981 -5.44672 0
M  V30 2954 H 277.346 0.681642 -4.36814 0
M  V30 2955 N 276.405 1.4127 -0.698611 0
M  V30 2956 C 277.633 2.05503 -0.239992 0
M  V30 2957 C 278.048 1.52584 1.11191 0
M  V30 2958 O 277.405 0.675323 1.69545 0
M  V30 2959 C 277.456 3.60987 -0.192429 0
M  V30 2960 O 277.177 4.1195 -1.49094 0
M  V30 2961 C 278.678 4.42371 0.28681 0
M  V30 2962 H 275.898 0.661748 -0.111045 0
M  V30 2963 H 278.442 1.80987 -0.95205 0
M  V30 2964 H 276.597 3.84533 0.470472 0
M  V30 2965 H 277.011 5.06018 -1.38007 0
M  V30 2966 H 278.485 5.51344 0.26896 0
M  V30 2967 H 278.962 4.18699 1.32619 0
M  V30 2968 H 279.568 4.23897 -0.345201 0
M  V30 2969 N 277.883 0.443576 1.51229 0
M  V30 2970 C 279.131 -0.120557 2.0174 0
M  V30 2971 C 279.452 -1.42665 1.32935 0
M  V30 2972 O 278.722 -1.9028 0.465866 0
M  V30 2973 H 277.302 -0.0475426 0.745486 0
M  V30 2974 H 279.964 0.587711 1.85828 0
M  V30 2975 H 279.06 -0.291972 3.10731 0
M  V30 2976 N 279.361 -1.56624 0.175154 0
M  V30 2977 C 280.608 -1.96999 -0.468811 0
M  V30 2978 C 280.936 -1.06129 -1.62994 0
M  V30 2979 O 280.191 -0.0961771 -1.95464 0
M  V30 2980 C 280.49 -3.43419 -0.989864 0
M  V30 2981 C 280.156 -4.50866 0.0557687 0
M  V30 2982 C 278.818 -4.79975 0.343134 0
M  V30 2983 C 281.17 -5.15551 0.765308 0
M  V30 2984 C 278.498 -5.71066 1.34536 0
M  V30 2985 C 280.85 -6.07724 1.75654 0
M  V30 2986 C 279.514 -6.35199 2.05132 0
M  V30 2987 H 278.784 -0.720869 -0.17155 0
M  V30 2988 H 281.431 -1.89616 0.267924 0
M  V30 2989 H 279.736 -3.47772 -1.80449 0
M  V30 2990 H 281.433 -3.72002 -1.49719 0
M  V30 2991 H 278.023 -4.28229 -0.178381 0
M  V30 2992 H 282.207 -4.9317 0.556513 0
M  V30 2993 H 277.463 -5.90635 1.57988 0
M  V30 2994 H 281.637 -6.56912 2.31169 0
M  V30 2995 H 279.264 -7.05584 2.8294 0
M  V30 2996 N 280.839 0.0985539 -1.57292 0
M  V30 2997 C 281.769 1.12064 -2.04851 0
M  V30 2998 C 282.75 1.41981 -0.936767 0
M  V30 2999 O 283.935 1.52071 -1.20781 0
M  V30 3000 C 281.065 2.44144 -2.47004 0
M  V30 3001 C 280.019 2.28643 -3.6181 0
M  V30 3002 C 279.345 3.65869 -3.89929 0
M  V30 3003 C 280.645 1.72986 -4.92822 0
M  V30 3004 H 282.339 0.724979 -2.9049 0
M  V30 3005 H 279.885 0.34729 -1.39749 0
M  V30 3006 H 281.838 3.15914 -2.78884 0
M  V30 3007 H 280.562 2.85639 -1.5836 0
M  V30 3008 H 279.221 1.59318 -3.30172 0
M  V30 3009 H 278.869 4.04885 -2.98458 0
M  V30 3010 H 278.569 3.56344 -4.67218 0
M  V30 3011 H 280.093 4.39112 -4.2428 0
M  V30 3012 H 281.507 2.34593 -5.23105 0
M  V30 3013 H 279.904 1.74229 -5.74251 0
M  V30 3014 H 280.974 0.689007 -4.7998 0
M  V30 3015 N 282.317 1.53212 0.369288 0
M  V30 3016 C 283.247 1.82365 1.45826 0
M  V30 3017 C 284.228 0.676907 1.56051 0
M  V30 3018 O 285.413 0.926401 1.70679 0
M  V30 3019 C 282.543 2.01023 2.83208 0
M  V30 3020 C 281.497 3.1678 2.8781 0
M  V30 3021 C 280.823 3.20724 4.27832 0
M  V30 3022 C 282.123 4.55447 2.55667 0
M  V30 3023 H 283.817 2.73559 1.21678 0
M  V30 3024 H 281.363 1.3163 0.583911 0
M  V30 3025 H 283.316 2.20001 3.59413 0
M  V30 3026 H 282.04 1.06536 3.08736 0
M  V30 3027 H 280.699 2.97616 2.14056 0
M  V30 3028 H 280.347 2.23882 4.50429 0
M  V30 3029 H 280.047 3.98496 4.31827 0
M  V30 3030 H 281.571 3.41881 5.05915 0
M  V30 3031 H 282.985 4.74611 3.21586 0
M  V30 3032 H 281.382 5.35432 2.70984 0
M  V30 3033 H 282.452 4.60812 1.5093 0
M  V30 3034 N 283.795 -0.628877 1.44509 0
M  V30 3035 C 285.206 -1.21054 1.42137 0
M  V30 3036 C 285.557 -1.95715 0.137881 0
M  V30 3037 O 284.682 -2.02554 -0.761645 0
M  V30 3038 C 285.277 -2.20189 2.57493 0
M  V30 3039 C 283.836 -2.73777 2.58308 0
M  V30 3040 C 282.983 -1.48813 2.33987 0
M  V30 3041 H 285.934 -0.41942 1.53057 0
M  V30 3042 H 285.955 -3.02833 2.30375 0
M  V30 3043 H 285.467 -1.6582 3.50892 0
M  V30 3044 H 283.568 -3.32142 1.68856 0
M  V30 3045 H 283.681 -3.19662 3.56865 0
M  V30 3046 H 282.045 -1.77024 1.83124 0
M  V30 3047 H 282.828 -0.963442 3.29504 0
M  V30 3048 N 285.273 -1.31445 -0.869486 0
M  V30 3049 C 286.52 -1.21158 -1.62256 0
M  V30 3050 C 286.848 0.230155 -1.93133 0
M  V30 3051 O 286.103 1.17906 -1.56194 0
M  V30 3052 C 286.402 -2.00145 -2.96102 0
M  V30 3053 C 286.068 -3.4964 -2.84715 0
M  V30 3054 C 284.73 -3.90403 -2.81317 0
M  V30 3055 C 287.082 -4.44769 -2.71716 0
M  V30 3056 C 284.41 -5.24561 -2.62778 0
M  V30 3057 C 286.762 -5.79054 -2.54714 0
M  V30 3058 C 285.426 -6.19037 -2.49699 0
M  V30 3059 H 284.696 -0.443348 -0.593737 0
M  V30 3060 H 287.343 -1.62715 -1.00976 0
M  V30 3061 H 285.648 -1.5127 -3.6142 0
M  V30 3062 H 287.345 -1.89566 -3.53363 0
M  V30 3063 H 283.935 -3.17256 -2.88178 0
M  V30 3064 H 288.119 -4.14208 -2.73397 0
M  V30 3065 H 283.375 -5.54613 -2.57321 0
M  V30 3066 H 287.549 -6.52393 -2.43632 0
M  V30 3067 H 285.176 -7.22935 -2.35093 0
M  V30 3068 N 286.751 1.08385 -1.14413 0
M  V30 3069 C 287.681 2.17321 -0.854044 0
M  V30 3070 C 288.662 1.69024 0.191049 0
M  V30 3071 O 289.847 1.94141 0.0476779 0
M  V30 3072 C 286.977 3.45719 -0.330983 0
M  V30 3073 C 285.931 4.07409 -1.31155 0
M  V30 3074 C 285.257 5.30762 -0.64778 0
M  V30 3075 C 286.557 4.48665 -2.67388 0
M  V30 3076 H 288.251 2.41845 -1.76498 0
M  V30 3077 H 285.797 1.16233 -0.850051 0
M  V30 3078 H 287.75 4.21241 -0.115645 0
M  V30 3079 H 286.474 3.2075 0.615381 0
M  V30 3080 H 285.133 3.33919 -1.51306 0
M  V30 3081 H 284.781 5.02078 0.304398 0
M  V30 3082 H 284.481 5.72992 -1.30207 0
M  V30 3083 H 286.005 6.08998 -0.441972 0
M  V30 3084 H 287.419 5.15364 -2.51143 0
M  V30 3085 H 285.816 5.01814 -3.29093 0
M  V30 3086 H 286.886 3.60543 -3.24248 0
M  V30 3087 N 288.23 0.939286 1.26551 0
M  V30 3088 C 289.193 0.451987 2.24699 0
M  V30 3089 C 290.193 -0.435869 1.5478 0
M  V30 3090 O 291.383 -0.235314 1.72603 0
M  V30 3091 C 288.515 -0.348801 3.39111 0
M  V30 3092 H 289.708 1.3193 2.69322 0
M  V30 3093 H 287.261 0.721072 1.38673 0
M  V30 3094 H 287.996 -1.23444 2.99887 0
M  V30 3095 H 287.781 0.287945 3.91041 0
M  V30 3096 H 289.271 -0.679726 4.12031 0
M  V30 3097 N 289.708 -1.40897 0.706093 0
M  V30 3098 C 290.954 -2.01352 0.241889 0
M  V30 3099 C 291.287 -1.55832 -1.15888 0
M  V30 3100 O 290.562 -0.774145 -1.7843 0
M  V30 3101 C 290.845 -3.58752 0.311311 0
M  V30 3102 C 290.698 -4.1437 1.74978 0
M  V30 3103 C 292.017 -4.38914 -0.322922 0
M  V30 3104 H 289.136 -0.731562 0.0893687 0
M  V30 3105 H 291.778 -1.67504 0.896802 0
M  V30 3106 H 289.928 -3.87718 -0.246302 0
M  V30 3107 H 291.6 -3.96239 2.36205 0
M  V30 3108 H 289.843 -3.69016 2.28057 0
M  V30 3109 H 290.514 -5.23532 1.74981 0
M  V30 3110 H 292.99 -4.15822 0.152089 0
M  V30 3111 H 291.866 -5.48358 -0.243855 0
M  V30 3112 H 292.127 -4.19176 -1.40513 0
M  V30 3113 N 291.186 -0.45159 -1.50991 0
M  V30 3114 C 292.432 0.110237 -2.025 0
M  V30 3115 C 292.765 1.41109 -1.33424 0
M  V30 3116 O 292.04 1.89135 -0.453659 0
M  V30 3117 C 292.323 0.314271 -3.58726 0
M  V30 3118 C 292.176 -1.00623 -4.38401 0
M  V30 3119 C 293.495 1.07767 -4.26702 0
M  V30 3120 H 290.614 0.0385897 -0.735989 0
M  V30 3121 H 293.256 -0.593374 -1.80497 0
M  V30 3122 H 291.406 0.913601 -3.77605 0
M  V30 3123 H 293.078 -1.64064 -4.31139 0
M  V30 3124 H 291.321 -1.6075 -4.02917 0
M  V30 3125 H 291.992 -0.817341 -5.45915 0
M  V30 3126 H 294.468 0.56986 -4.12179 0
M  V30 3127 H 293.344 1.18921 -5.35863 0
M  V30 3128 H 293.605 2.10939 -3.88532 0
M  V30 3129 N 292.664 1.56529 -0.183458 0
M  V30 3130 C 293.627 2.17324 0.728223 0
M  V30 3131 C 294.627 1.12453 1.14939 0
M  V30 3132 O 295.817 1.37902 1.06437 0
M  V30 3133 C 292.949 2.76591 1.99274 0
M  V30 3134 H 294.142 2.99241 0.198772 0
M  V30 3135 H 291.695 1.5616 0.0661391 0
M  V30 3136 H 292.43 1.98441 2.56499 0
M  V30 3137 H 292.215 3.5335 1.69959 0
M  V30 3138 H 293.705 3.23311 2.6431 0
M  V30 3139 N 294.142 -0.090211 1.57342 0
M  V30 3140 C 295.367 -0.810082 1.90925 0
M  V30 3141 C 295.792 -1.71248 0.778187 0
M  V30 3142 O 295.15 -1.79278 -0.269991 0
M  V30 3143 C 295.198 -1.59529 3.23393 0
M  V30 3144 O 294.302 -2.70461 3.11327 0
M  V30 3145 H 293.643 -0.222231 0.625707 0
M  V30 3146 H 296.173 -0.0639716 2.045 0
M  V30 3147 H 296.183 -1.97847 3.5682 0
M  V30 3148 H 294.858 -0.933055 4.05299 0
M  V30 3149 H 293.435 -2.35135 2.89423 0
M  V30 3150 N 295.62 -1.53406 -0.361157 0
M  V30 3151 C 296.85 -1.73465 -1.1222 0
M  V30 3152 C 297.258 -0.465486 -1.83384 0
M  V30 3153 O 296.601 0.571611 -1.7458 0
M  V30 3154 C 296.663 -2.84834 -2.19339 0
M  V30 3155 C 296.327 -4.25038 -1.67903 0
M  V30 3156 C 297.324 -5.07231 -1.14074 0
M  V30 3157 C 295.009 -4.71464 -1.73282 0
M  V30 3158 C 297.003 -6.33942 -0.663068 0
M  V30 3159 C 294.69 -5.98153 -1.25127 0
M  V30 3160 C 295.688 -6.79223 -0.717296 0
M  V30 3161 O 295.376 -8.03533 -0.242865 0
M  V30 3162 H 295.108 -0.583526 -0.341283 0
M  V30 3163 H 297.662 -2.00964 -0.424591 0
M  V30 3164 H 295.892 -2.5282 -2.92607 0
M  V30 3165 H 297.581 -2.9303 -2.80871 0
M  V30 3166 H 298.347 -4.72534 -1.09254 0
M  V30 3167 H 294.226 -4.08432 -2.13786 0
M  V30 3168 H 297.77 -6.97167 -0.245612 0
M  V30 3169 H 293.667 -6.32347 -1.29642 0
M  V30 3170 H 294.435 -8.177 -0.361786 0
M  V30 3171 N 297.098 0.621204 -1.44841 0
M  V30 3172 C 298.323 1.41244 -1.51871 0
M  V30 3173 C 298.748 1.87519 -0.147764 0
M  V30 3174 O 298.106 1.59334 0.865 0
M  V30 3175 C 298.154 2.60221 -2.49634 0
M  V30 3176 O 297.258 3.60395 -2.00473 0
M  V30 3177 H 296.599 0.42223 -0.512463 0
M  V30 3178 H 299.129 0.757305 -1.90069 0
M  V30 3179 H 299.139 3.0764 -2.67996 0
M  V30 3180 H 297.814 2.25887 -3.4921 0
M  V30 3181 H 296.391 3.19717 -1.91925 0
M  V30 3182 N 298.576 1.31904 0.862503 0
M  V30 3183 C 299.853 1.12644 1.59908 0
M  V30 3184 C 300.233 -0.316104 2.0872 0
M  V30 3185 O 299.581 -1.31145 1.87118 0
M  V30 3186 C 299.791 2.1472 2.7513 0
M  V30 3187 C 301.139 2.47637 3.44907 0
M  V30 3188 O 302.163 2.13205 2.85346 0
M  V30 3189 O 301.022 3.06632 4.52371 0
M  V30 3190 H 298.116 0.43416 0.703871 0
M  V30 3191 H 300.662 1.43408 0.907314 0
M  V30 3192 H 299.434 3.1172 2.3653 0
M  V30 3193 H 299.057 1.84905 3.51989 0
M  V30 3194 N 300.054 -1.07777 1.14986 0
M  V30 3195 C 301.303 -1.79669 0.916617 0
M  V30 3196 C 301.616 -1.87474 -0.557917 0
M  V30 3197 O 302.822 -2.55845 -0.908617 0
M  V30 3198 C 301.278 -3.22848 1.59051 0
M  V30 3199 C 300.886 -3.23257 3.10176 0
M  V30 3200 C 302.63 -3.99379 1.43864 0
M  V30 3201 C 300.537 -4.61063 3.70372 0
M  V30 3202 H 299.467 -0.673349 0.33929 0
M  V30 3203 H 302.118 -1.21003 1.37951 0
M  V30 3204 H 300.5 -3.8168 1.0553 0
M  V30 3205 H 301.674 -2.74095 3.70417 0
M  V30 3206 H 299.989 -2.60222 3.25074 0
M  V30 3207 H 302.586 -5.0122 1.86232 0
M  V30 3208 H 302.929 -4.14511 0.385564 0
M  V30 3209 H 303.462 -3.47032 1.94457 0
M  V30 3210 H 300.201 -4.51135 4.7556 0
M  V30 3211 H 299.721 -5.1048 3.14913 0
M  V30 3212 H 301.4 -5.30034 3.71043 0
M  V30 3213 N 301.532 -0.945985 -1.26051 0
M  V30 3214 C 302.78 -0.594941 -1.93145 0
M  V30 3215 C 303.101 0.86953 -1.7454 0
M  V30 3216 O 302.371 1.61838 -1.10387 0
M  V30 3217 H 300.951 -0.217044 -0.714773 0
M  V30 3218 H 303.613 -1.20235 -1.53393 0
M  V30 3219 H 302.709 -0.816835 -3.01221 0
M  V30 3220 N 303.011 1.40521 -0.713556 0
M  V30 3221 C 304.427 1.54839 -0.386907 0
M  V30 3222 C 304.627 1.68532 1.1045 0
M  V30 3223 O 303.683 1.67377 1.89053 0
M  V30 3224 C 304.996 2.77792 -1.15118 0
M  V30 3225 C 306.544 2.91607 -1.13729 0
M  V30 3226 C 307.019 4.1747 -1.88368 0
M  V30 3227 N 308.51 4.24466 -1.85427 0
M  V30 3228 C 309.245 5.20755 -2.40004 0
M  V30 3229 N 308.741 6.22965 -3.03129 0
M  V30 3230 N 310.534 5.1282 -2.30158 0
M  V30 3231 H 302.685 1.29879 -1.68063 0
M  V30 3232 H 304.948 0.627896 -0.710247 0
M  V30 3233 H 304.654 2.73944 -2.20561 0
M  V30 3234 H 304.528 3.6984 -0.741477 0
M  V30 3235 H 306.915 2.94959 -0.0910608 0
M  V30 3236 H 306.996 2.00682 -1.5862 0
M  V30 3237 H 306.64 4.1488 -2.9298 0
M  V30 3238 H 306.57 5.074 -1.40898 0
M  V30 3239 H 309.061 3.51241 -1.3942 0
M  V30 3240 H 309.374 6.92859 -3.42295 0
M  V30 3241 H 307.719 6.23415 -3.07212 0
M  V30 3242 H 310.91 4.31899 -1.80501 0
M  V30 3243 H 311.083 5.87689 -2.72993 0
M  V30 3244 N 304.489 0.459591 1.5075 0
M  V30 3245 C 305.905 0.113092 1.59199 0
M  V30 3246 C 306.105 -1.37951 1.46874 0
M  V30 3247 O 305.161 -2.15168 1.32132 0
M  V30 3248 C 306.474 0.653043 2.93523 0
M  V30 3249 C 308.022 0.615449 3.0689 0
M  V30 3250 C 308.497 1.13275 4.43771 0
M  V30 3251 N 309.988 1.09167 4.50152 0
M  V30 3252 C 310.723 1.46256 5.54434 0
M  V30 3253 N 310.219 1.90739 6.66026 0
M  V30 3254 N 312.012 1.37932 5.44914 0
M  V30 3255 H 304.163 1.43049 1.57005 0
M  V30 3256 H 306.426 0.590861 0.741341 0
M  V30 3257 H 306.132 1.69822 3.07983 0
M  V30 3258 H 306.006 0.0902132 3.77092 0
M  V30 3259 H 308.393 -0.420793 2.92084 0
M  V30 3260 H 308.474 1.21495 2.25106 0
M  V30 3261 H 308.118 2.16757 4.59324 0
M  V30 3262 H 308.048 0.509576 5.24129 0
M  V30 3263 H 310.539 0.76528 3.7007 0
M  V30 3264 H 310.852 2.17218 7.41644 0
M  V30 3265 H 309.197 1.94683 6.67176 0
M  V30 3266 H 312.388 1.0303 4.56621 0
M  V30 3267 H 312.561 1.67164 6.26067 0
M  V30 3268 N 305.967 -1.56429 0.191757 0
M  V30 3269 C 306.897 -2.21937 -0.725696 0
M  V30 3270 C 307.878 -1.1814 -1.2238 0
M  V30 3271 O 309.063 -1.46636 -1.27325 0
M  V30 3272 C 306.193 -2.87611 -1.94672 0
M  V30 3273 C 305.147 -3.97623 -1.58366 0
M  V30 3274 C 304.473 -4.50446 -2.88102 0
M  V30 3275 C 305.773 -5.16197 -0.796133 0
M  V30 3276 H 307.467 -2.98861 -0.179606 0
M  V30 3277 H 305.013 -1.43749 -0.0849464 0
M  V30 3278 H 306.966 -3.3212 -2.59373 0
M  V30 3279 H 305.69 -2.08087 -2.51728 0
M  V30 3280 H 304.349 -3.53801 -0.960247 0
M  V30 3281 H 303.997 -3.67688 -3.43241 0
M  V30 3282 H 303.697 -5.24675 -2.64556 0
M  V30 3283 H 305.221 -4.97654 -3.53798 0
M  V30 3284 H 306.635 -5.57271 -1.34618 0
M  V30 3285 H 305.032 -5.96471 -0.658928 0
M  V30 3286 H 306.102 -4.84473 0.203478 0
M  V30 3287 N 307.445 0.0818655 -1.57387 0
M  V30 3288 C 308.377 1.12484 -1.997 0
M  V30 3289 C 309.39 1.35564 -0.90146 0
M  V30 3290 O 310.579 1.33982 -1.17945 0
M  V30 3291 C 307.679 2.47778 -2.31213 0
M  V30 3292 C 306.852 2.44793 -3.62485 0
M  V30 3293 C 305.911 3.62117 -3.81782 0
M  V30 3294 O 304.937 3.44005 -4.53486 0
M  V30 3295 N 306.139 4.82094 -3.23367 0
M  V30 3296 H 308.904 0.764585 -2.89783 0
M  V30 3297 H 306.465 0.270664 -1.59621 0
M  V30 3298 H 308.457 3.24891 -2.41304 0
M  V30 3299 H 307.027 2.75843 -1.4707 0
M  V30 3300 H 306.247 1.53134 -3.6324 0
M  V30 3301 H 307.535 2.39889 -4.48699 0
M  V30 3302 H 306.933 4.99713 -2.65148 0
M  V30 3303 H 305.49 5.56753 -3.38923 0
M  V30 3304 N 308.923 1.53595 0.353017 0
M  V30 3305 C 309.886 1.80232 1.41594 0
M  V30 3306 C 310.886 0.673081 1.46035 0
M  V30 3307 O 312.076 0.941335 1.46576 0
M  V30 3308 C 309.208 1.93578 2.80607 0
M  V30 3309 H 310.401 2.75174 1.19244 0
M  V30 3310 H 307.954 1.44864 0.586872 0
M  V30 3311 H 308.689 1.00746 3.08254 0
M  V30 3312 H 308.474 2.75724 2.78781 0
M  V30 3313 H 309.964 2.15735 3.57558 0
M  V30 3314 N 310.401 -0.613514 1.45168 0
M  V30 3315 C 311.817 -0.933629 1.29443 0
M  V30 3316 C 312.017 -2.00028 0.243101 0
M  V30 3317 O 311.073 -2.49848 -0.364992 0
M  V30 3318 C 312.386 -1.38018 2.67155 0
M  V30 3319 C 313.934 -1.49471 2.75004 0
M  V30 3320 C 314.409 -1.97503 4.13227 0
M  V30 3321 N 315.9 -2.04746 4.15491 0
M  V30 3322 C 316.635 -2.43121 5.19307 0
M  V30 3323 N 316.131 -2.80506 6.33473 0
M  V30 3324 N 317.924 -2.43408 5.06664 0
M  V30 3325 H 310.075 0.0916097 2.12202 0
M  V30 3326 H 312.338 -0.0216655 0.947752 0
M  V30 3327 H 312.044 -0.670625 3.45247 0
M  V30 3328 H 311.918 -2.34784 2.95222 0
M  V30 3329 H 314.305 -2.19519 1.9722 0
M  V30 3330 H 314.386 -0.510342 2.50657 0
M  V30 3331 H 314.03 -1.28045 4.91495 0
M  V30 3332 H 313.96 -2.96843 4.34962 0
M  V30 3333 H 316.451 -1.78468 3.33103 0
M  V30 3334 H 316.764 -3.08652 7.08487 0
M  V30 3335 H 315.109 -2.78216 6.36884 0
M  V30 3336 H 318.3 -2.13604 4.16523 0
M  V30 3337 H 318.473 -2.72989 5.87691 0
M  V30 3338 N 311.879 -1.3236 -0.855495 0
M  V30 3339 C 313.295 -1.11332 -1.14356 0
M  V30 3340 C 313.495 0.106751 -2.01217 0
M  V30 3341 O 312.551 0.791891 -2.39761 0
M  V30 3342 C 313.864 -2.39237 -1.82171 0
M  V30 3343 C 315.412 -2.44986 -1.9481 0
M  V30 3344 C 315.887 -3.7281 -2.66039 0
M  V30 3345 N 317.378 -3.73787 -2.73565 0
M  V30 3346 C 318.113 -4.69394 -3.29327 0
M  V30 3347 N 317.609 -5.75367 -3.85907 0
M  V30 3348 N 319.402 -4.56893 -3.27423 0
M  V30 3349 H 311.553 -2.10586 -0.277027 0
M  V30 3350 H 313.816 -0.929701 -0.185364 0
M  V30 3351 H 313.522 -3.28431 -1.25802 0
M  V30 3352 H 313.396 -2.50134 -2.82335 0
M  V30 3353 H 315.783 -1.56252 -2.50338 0
M  V30 3354 H 315.864 -2.38043 -0.936448 0
M  V30 3355 H 315.508 -4.61918 -2.11174 0
M  V30 3356 H 315.438 -3.77024 -3.67642 0
M  V30 3357 H 317.929 -2.97189 -2.33424 0
M  V30 3358 H 318.242 -6.44378 -4.26611 0
M  V30 3359 H 316.587 -5.79123 -3.84242 0
M  V30 3360 H 319.778 -3.73269 -2.82467 0
M  V30 3361 H 319.951 -5.31577 -3.7058 0
M  V30 3362 N 313.357 1.07166 -1.15556 0
M  V30 3363 C 314.604 1.79798 -0.931604 0
M  V30 3364 C 314.932 1.8682 0.54115 0
M  V30 3365 O 314.187 1.34942 1.41736 0
M  V30 3366 C 314.486 3.24707 -1.49332 0
M  V30 3367 C 314.152 3.37781 -2.98688 0
M  V30 3368 C 312.814 3.41057 -3.39461 0
M  V30 3369 C 315.166 3.40424 -3.94665 0
M  V30 3370 C 312.494 3.4458 -4.74849 0
M  V30 3371 C 314.846 3.45485 -5.29927 0
M  V30 3372 C 313.51 3.47039 -5.70193 0
M  V30 3373 H 312.78 0.657928 -0.340898 0
M  V30 3374 H 315.427 1.26091 -1.44129 0
M  V30 3375 H 313.732 3.81208 -0.904859 0
M  V30 3376 H 315.429 3.79486 -1.29582 0
M  V30 3377 H 312.019 3.35932 -2.66172 0
M  V30 3378 H 316.203 3.37113 -3.64237 0
M  V30 3379 H 311.459 3.44083 -5.05388 0
M  V30 3380 H 315.633 3.46476 -6.04092 0
M  V30 3381 H 313.26 3.49522 -6.75084 0
M  V30 3382 N 314.835 0.952656 1.25548 0
M  V30 3383 C 316.251 0.656769 1.4546 0
M  V30 3384 C 316.451 -0.78633 1.85524 0
M  V30 3385 O 315.507 -1.56183 1.98402 0
M  V30 3386 C 316.82 1.62801 2.52817 0
M  V30 3387 C 318.368 1.63897 2.66659 0
M  V30 3388 C 318.843 2.5978 3.77198 0
M  V30 3389 N 320.334 2.58133 3.84606 0
M  V30 3390 C 321.069 3.29003 4.69621 0
M  V30 3391 N 320.565 4.09339 5.58939 0
M  V30 3392 N 322.358 3.179 4.63569 0
M  V30 3393 H 314.509 1.88526 0.978344 0
M  V30 3394 H 316.772 0.810815 0.491206 0
M  V30 3395 H 316.478 2.65869 2.30232 0
M  V30 3396 H 316.352 1.38898 3.50695 0
M  V30 3397 H 318.739 0.615481 2.8861 0
M  V30 3398 H 318.82 1.91858 1.69187 0
M  V30 3399 H 318.464 3.62254 3.55997 0
M  V30 3400 H 318.394 2.29105 4.7415 0
M  V30 3401 H 320.885 1.99809 3.20757 0
M  V30 3402 H 321.198 4.6034 6.20731 0
M  V30 3403 H 319.543 4.13438 5.58654 0
M  V30 3404 H 322.734 2.54612 3.92798 0
M  V30 3405 H 322.907 3.73398 5.29602 0
M  V30 3406 N 316.313 -1.40141 0.720998 0
M  V30 3407 C 317.729 -1.54632 0.395113 0
M  V30 3408 C 317.929 -1.69115 -1.09555 0
M  V30 3409 O 316.985 -1.68377 -1.88163 0
M  V30 3410 C 318.298 -2.77177 1.1659 0
M  V30 3411 C 319.846 -2.91 1.15274 0
M  V30 3412 C 320.321 -4.16465 1.90579 0
M  V30 3413 N 321.812 -4.23476 1.87675 0
M  V30 3414 C 322.547 -5.19475 2.42762 0
M  V30 3415 N 322.043 -6.21348 3.06428 0
M  V30 3416 N 323.836 -5.11592 2.32874 0
M  V30 3417 H 315.987 -1.28986 1.68749 0
M  V30 3418 H 318.25 -0.62412 0.713567 0
M  V30 3419 H 317.956 -2.72771 2.22011 0
M  V30 3420 H 317.83 -3.69442 0.76108 0
M  V30 3421 H 320.217 -2.94907 0.106702 0
M  V30 3422 H 320.298 -1.99838 1.59682 0
M  V30 3423 H 319.942 -4.1332 2.95176 0
M  V30 3424 H 319.872 -5.06646 1.43587 0
M  V30 3425 H 322.363 -3.50497 1.41281 0
M  V30 3426 H 322.676 -6.91034 3.45965 0
M  V30 3427 H 321.021 -6.21777 3.10514 0
M  V30 3428 H 324.212 -4.30936 1.82789 0
M  V30 3429 H 324.385 -5.86233 2.76106 0
M  V30 3430 N 317.792 -0.46758 -1.50504 0
M  V30 3431 C 319.017 0.0886943 -2.0721 0
M  V30 3432 C 319.442 1.33057 -1.32956 0
M  V30 3433 O 318.8 1.77354 -0.376197 0
M  V30 3434 C 318.848 0.359202 -3.58806 0
M  V30 3435 O 317.952 1.44034 -3.8643 0
M  V30 3436 H 317.293 -0.0114349 -0.663902 0
M  V30 3437 H 319.823 -0.657613 -1.93744 0
M  V30 3438 H 319.833 0.600742 -4.03553 0
M  V30 3439 H 318.508 -0.548311 -4.1227 0
M  V30 3440 H 317.085 1.18638 -3.53524 0
M  V30 3441 N 319.27 1.56325 -0.20005 0
M  V30 3442 C 320.686 1.58839 0.155716 0
M  V30 3443 C 320.886 1.21636 1.60645 0
M  V30 3444 O 319.942 0.941437 2.34293 0
M  V30 3445 C 321.255 3.0032 -0.151124 0
M  V30 3446 C 322.803 3.12866 -0.0916284 0
M  V30 3447 C 323.278 4.56488 -0.371845 0
M  V30 3448 N 324.769 4.62089 -0.320641 0
M  V30 3449 C 325.504 5.71116 -0.511243 0
M  V30 3450 N 325 6.88592 -0.762461 0
M  V30 3451 N 326.793 5.60335 -0.445157 0
M  V30 3452 H 318.944 1.78788 -1.14668 0
M  V30 3453 H 321.207 0.829996 -0.458051 0
M  V30 3454 H 320.913 3.32117 -1.15721 0
M  V30 3455 H 320.787 3.73257 0.543986 0
M  V30 3456 H 323.174 2.80878 0.905065 0
M  V30 3457 H 323.255 2.42304 -0.81989 0
M  V30 3458 H 322.899 4.89189 -1.36588 0
M  V30 3459 H 322.829 5.25246 0.377362 0
M  V30 3460 H 325.32 3.77665 -0.13329 0
M  V30 3461 H 325.633 7.67581 -0.896576 0
M  V30 3462 H 323.978 6.90387 -0.799412 0
M  V30 3463 H 327.169 4.67436 -0.249278 0
M  V30 3464 H 327.342 6.45243 -0.597116 0
M  V30 3465 N 320.748 -0.0735177 1.57428 0
M  V30 3466 C 322.164 -0.428264 1.53747 0
M  V30 3467 C 322.364 -1.79272 0.91998 0
M  V30 3468 O 321.42 -2.47051 0.521745 0
M  V30 3469 C 322.733 -0.370914 2.98404 0
M  V30 3470 C 324.281 -0.451224 3.0973 0
M  V30 3471 C 324.756 -0.4238 4.56035 0
M  V30 3472 N 326.247 -0.483925 4.60665 0
M  V30 3473 C 326.982 -0.484891 5.71346 0
M  V30 3474 N 326.478 -0.440775 6.91396 0
M  V30 3475 N 328.271 -0.531319 5.59583 0
M  V30 3476 H 320.422 0.819949 1.95935 0
M  V30 3477 H 322.685 0.307493 0.896745 0
M  V30 3478 H 322.391 0.564956 3.47133 0
M  V30 3479 H 322.265 -1.18176 3.5821 0
M  V30 3480 H 324.652 -1.37752 2.60976 0
M  V30 3481 H 324.733 0.388167 2.52838 0
M  V30 3482 H 324.377 0.498638 5.05446 0
M  V30 3483 H 324.307 -1.2807 5.10789 0
M  V30 3484 H 326.798 -0.522338 3.74273 0
M  V30 3485 H 327.111 -0.44539 7.71515 0
M  V30 3486 H 325.456 -0.40749 6.93804 0
M  V30 3487 H 328.647 -0.563464 4.64696 0
M  V30 3488 H 328.82 -0.528603 6.4584 0
M  V30 3489 N 322.226 -1.5378 -0.344866 0
M  V30 3490 C 323.454 -1.74899 -1.10534 0
M  V30 3491 C 323.869 -0.487534 -1.82397 0
M  V30 3492 O 323.226 0.540741 -1.74305 0
M  V30 3493 C 323.277 -2.92822 -2.11984 0
M  V30 3494 O 322.998 -4.14089 -1.43044 0
M  V30 3495 C 324.499 -3.25982 -3.00417 0
M  V30 3496 H 321.719 -0.584426 -0.329678 0
M  V30 3497 H 324.263 -2.006 -0.397474 0
M  V30 3498 H 322.418 -2.69457 -2.78338 0
M  V30 3499 H 322.832 -4.80272 -2.10805 0
M  V30 3500 H 324.306 -4.11848 -3.67539 0
M  V30 3501 H 324.783 -2.42228 -3.66363 0
M  V30 3502 H 325.389 -3.51349 -2.39654 0
M  V30 3503 N 323.704 0.605807 -1.45491 0
M  V30 3504 C 324.952 1.36207 -1.49305 0
M  V30 3505 C 325.273 1.94519 -0.136863 0
M  V30 3506 O 324.543 1.77261 0.833983 0
M  V30 3507 H 323.123 0.50565 -0.549843 0
M  V30 3508 H 325.785 0.711239 -1.81459 0
M  V30 3509 H 324.881 2.18058 -2.23287 0
M  V30 3510 N 325.182 1.32811 0.848464 0
M  V30 3511 C 326.598 1.11937 1.13764 0
M  V30 3512 C 326.798 -0.0960789 2.01271 0
M  V30 3513 O 325.854 -0.779165 2.40178 0
M  V30 3514 C 327.167 2.402 1.809 0
M  V30 3515 C 328.715 2.46016 1.93508 0
M  V30 3516 C 329.19 3.74215 2.64059 0
M  V30 3517 N 330.681 3.75232 2.71579 0
M  V30 3518 C 331.416 4.71134 3.26833 0
M  V30 3519 N 330.912 5.77406 3.8285 0
M  V30 3520 N 332.705 4.58623 3.24995 0
M  V30 3521 H 324.856 2.1073 0.265855 0
M  V30 3522 H 327.119 0.930671 0.180431 0
M  V30 3523 H 326.825 3.29093 1.24058 0
M  V30 3524 H 326.699 2.51628 2.81004 0
M  V30 3525 H 329.086 1.57577 2.49506 0
M  V30 3526 H 329.167 2.38536 0.923811 0
M  V30 3527 H 328.811 4.63031 2.08722 0
M  V30 3528 H 328.741 3.78968 3.65637 0
M  V30 3529 H 331.232 2.98423 2.31845 0
M  V30 3530 H 331.545 6.46632 4.23187 0
M  V30 3531 H 329.89 5.81152 3.81165 0
M  V30 3532 H 333.081 3.74762 2.80484 0
M  V30 3533 H 333.254 5.33535 3.67756 0
M  V30 3534 N 326.66 -1.06551 1.16123 0
M  V30 3535 C 327.59 -2.15935 0.88851 0
M  V30 3536 C 328.571 -1.69306 -0.164135 0
M  V30 3537 O 329.756 -1.94193 -0.0167857 0
M  V30 3538 C 326.886 -3.45149 0.385942 0
M  V30 3539 C 325.84 -4.05271 1.3762 0
M  V30 3540 C 325.166 -5.29664 0.732137 0
M  V30 3541 C 326.466 -4.44355 2.74493 0
M  V30 3542 H 328.16 -2.39006 1.80323 0
M  V30 3543 H 325.706 -1.14866 0.868435 0
M  V30 3544 H 327.659 -4.21004 0.182647 0
M  V30 3545 H 326.383 -3.21689 -0.564274 0
M  V30 3546 H 325.042 -3.3147 1.56599 0
M  V30 3547 H 324.69 -5.02499 -0.224483 0
M  V30 3548 H 324.39 -5.70848 1.39307 0
M  V30 3549 H 325.914 -6.08218 0.538802 0
M  V30 3550 H 327.328 -5.11303 2.59311 0
M  V30 3551 H 325.725 -4.96515 3.37035 0
M  V30 3552 H 326.795 -3.55339 3.29943 0
M  V30 3553 N 328.138 -0.959301 -1.25041 0
M  V30 3554 C 329.384 -0.617525 -1.9317 0
M  V30 3555 C 329.717 0.843981 -1.74902 0
M  V30 3556 O 328.992 1.60615 -1.09696 0
M  V30 3557 C 329.275 -0.982736 -3.46431 0
M  V30 3558 C 329.128 -2.50032 -3.73904 0
M  V30 3559 C 330.447 -0.511176 -4.37121 0
M  V30 3560 H 327.566 -0.22582 -0.701552 0
M  V30 3561 H 330.208 -1.19679 -1.4757 0
M  V30 3562 H 328.358 -0.489806 -3.854 0
M  V30 3563 H 330.03 -3.06737 -3.44544 0
M  V30 3564 H 328.273 -2.93598 -3.19348 0
M  V30 3565 H 328.944 -2.70635 -4.81103 0
M  V30 3566 H 331.42 -0.934075 -4.0548 0
M  V30 3567 H 330.296 -0.795361 -5.43107 0
M  V30 3568 H 330.557 0.588834 -4.38161 0
M  V30 3569 N 329.616 1.39756 -0.72842 0
M  V30 3570 C 330.862 2.00942 -0.273892 0
M  V30 3571 C 331.195 1.57656 1.13394 0
M  V30 3572 O 330.47 0.802434 1.77176 0
M  V30 3573 C 330.753 3.58211 -0.368346 0
M  V30 3574 C 330.606 4.11534 -1.81548 0
M  V30 3575 C 331.925 4.39372 0.253054 0
M  V30 3576 H 329.044 0.730047 -0.100996 0
M  V30 3577 H 331.686 1.66056 -0.923337 0
M  V30 3578 H 329.836 3.88061 0.184588 0
M  V30 3579 H 331.508 3.92431 -2.42478 0
M  V30 3580 H 329.751 3.65341 -2.33898 0
M  V30 3581 H 330.422 5.20682 -1.83288 0
M  V30 3582 H 332.898 4.15527 -0.218224 0
M  V30 3583 H 331.774 5.48677 0.156585 0
M  V30 3584 H 332.035 4.21358 1.33826 0
M  V30 3585 N 331.094 0.475555 1.50254 0
M  V30 3586 C 332.024 -0.30611 2.31485 0
M  V30 3587 C 333.005 -0.986228 1.38591 0
M  V30 3588 O 334.19 -0.982541 1.67511 0
M  V30 3589 C 331.32 -1.38588 3.1845 0
M  V30 3590 C 330.274 -0.827115 4.19932 0
M  V30 3591 C 329.6 -2.00551 4.95665 0
M  V30 3592 C 330.9 0.16463 5.2204 0
M  V30 3593 H 332.594 0.371866 2.97082 0
M  V30 3594 H 330.14 0.180282 1.42867 0
M  V30 3595 H 332.093 -1.94023 3.74076 0
M  V30 3596 H 330.817 -2.09269 2.50747 0
M  V30 3597 H 329.476 -0.294702 3.65414 0
M  V30 3598 H 329.124 -2.6994 4.2443 0
M  V30 3599 H 328.824 -1.63784 5.64313 0
M  V30 3600 H 330.348 -2.56468 5.54127 0
M  V30 3601 H 331.762 -0.300699 5.72511 0
M  V30 3602 H 330.159 0.446813 5.98434 0
M  V30 3603 H 331.229 1.08905 4.72512 0
M  V30 3604 N 332.573 -1.56217 0.208337 0
M  V30 3605 C 333.822 -1.97124 -0.427204 0
M  V30 3606 C 334.135 -1.09859 -1.61835 0
M  V30 3607 O 335.341 -1.40606 -2.32255 0
M  V30 3608 C 333.797 -3.50633 -0.811442 0
M  V30 3609 C 333.405 -4.46582 0.35615 0
M  V30 3610 C 335.149 -4.00282 -1.41332 0
M  V30 3611 C 333.056 -5.91379 -0.0497852 0
M  V30 3612 H 331.986 -0.736086 -0.163381 0
M  V30 3613 H 334.637 -1.8099 0.302456 0
M  V30 3614 H 333.019 -3.62319 -1.59815 0
M  V30 3615 H 334.193 -4.46636 1.1337 0
M  V30 3616 H 332.508 -4.07202 0.870396 0
M  V30 3617 H 335.105 -5.0595 -1.72972 0
M  V30 3618 H 335.448 -3.45359 -2.32449 0
M  V30 3619 H 335.981 -3.91764 -0.690323 0
M  V30 3620 H 332.72 -6.50255 0.827529 0
M  V30 3621 H 332.24 -5.94549 -0.791926 0
M  V30 3622 H 333.919 -6.45209 -0.481042 0
M  V30 3623 N 334.051 0.0651679 -1.57465 0
M  V30 3624 C 335.3 0.761916 -1.86756 0
M  V30 3625 C 335.613 1.78406 -0.801925 0
M  V30 3626 O 336.819 2.53084 -0.982885 0
M  V30 3627 C 335.275 1.40603 -3.31299 0
M  V30 3628 C 334.883 0.422115 -4.46007 0
M  V30 3629 C 336.627 2.08476 -3.69781 0
M  V30 3630 C 334.534 1.07252 -5.81593 0
M  V30 3631 H 333.464 0.288308 -0.696702 0
M  V30 3632 H 336.115 0.015344 -1.83494 0
M  V30 3633 H 334.497 2.20109 -3.29193 0
M  V30 3634 H 335.671 -0.343613 -4.59517 0
M  V30 3635 H 333.986 -0.152527 -4.16121 0
M  V30 3636 H 336.583 2.57925 -4.68379 0
M  V30 3637 H 336.926 2.88712 -2.99919 0
M  V30 3638 H 337.459 1.35792 -3.73905 0
M  V30 3639 H 334.198 0.310342 -6.54765 0
M  V30 3640 H 333.718 1.80895 -5.71872 0
M  V30 3641 H 335.397 1.59043 -6.27148 0
M  V30 3642 N 335.529 1.53961 0.336706 0
M  V30 3643 C 336.459 1.85417 1.41925 0
M  V30 3644 C 337.44 0.709856 1.5458 0
M  V30 3645 O 338.625 0.962396 1.68676 0
M  V30 3646 C 335.755 2.06985 2.78881 0
M  V30 3647 C 334.709 3.22813 2.81026 0
M  V30 3648 C 334.035 3.29727 4.20932 0
M  V30 3649 C 335.335 4.60767 2.45949 0
M  V30 3650 H 337.029 2.76079 1.15848 0
M  V30 3651 H 334.575 1.32839 0.555859 0
M  V30 3652 H 336.528 2.27575 3.54665 0
M  V30 3653 H 335.252 1.13061 3.06406 0
M  V30 3654 H 333.911 3.0209 2.07695 0
M  V30 3655 H 333.559 2.33385 4.45579 0
M  V30 3656 H 333.259 4.07566 4.23277 0
M  V30 3657 H 334.783 3.52536 4.98549 0
M  V30 3658 H 336.197 4.81325 3.11446 0
M  V30 3659 H 334.594 5.4106 2.59566 0
M  V30 3660 H 335.664 4.6391 1.41122 0
M  V30 3661 N 337.007 -0.598083 1.45811 0
M  V30 3662 C 338.235 -1.38322 1.53866 0
M  V30 3663 C 338.65 -1.87992 0.174479 0
M  V30 3664 O 338.007 -1.62756 -0.825627 0
M  V30 3665 C 338.058 -2.58125 2.53089 0
M  V30 3666 O 337.779 -2.10516 3.84206 0
M  V30 3667 C 339.28 -3.50869 2.70935 0
M  V30 3668 H 336.5 -0.423093 0.520801 0
M  V30 3669 H 339.044 -0.728527 1.91083 0
M  V30 3670 H 337.199 -3.19615 2.18917 0
M  V30 3671 H 337.613 -2.88425 4.38077 0
M  V30 3672 H 339.087 -4.31451 3.44317 0
M  V30 3673 H 339.564 -4.01822 1.77301 0
M  V30 3674 H 340.17 -2.95225 3.06141 0
M  V30 3675 N 338.485 -1.33259 -0.841409 0
M  V30 3676 C 339.732 -1.24572 -1.5965 0
M  V30 3677 C 340.06 0.189137 -1.93578 0
M  V30 3678 O 339.315 1.14566 -1.5866 0
M  V30 3679 C 339.614 -2.06381 -2.9179 0
M  V30 3680 C 339.28 -3.556 -2.77235 0
M  V30 3681 C 337.942 -3.96282 -2.72973 0
M  V30 3682 C 340.294 -4.50433 -2.62221 0
M  V30 3683 C 337.622 -5.30017 -2.51592 0
M  V30 3684 C 339.974 -5.84327 -2.42374 0
M  V30 3685 C 338.638 -6.24194 -2.36512 0
M  V30 3686 H 337.908 -0.455842 -0.5842 0
M  V30 3687 H 340.555 -1.6482 -0.975016 0
M  V30 3688 H 338.86 -1.58903 -3.5813 0
M  V30 3689 H 340.557 -1.97019 -3.49263 0
M  V30 3690 H 337.147 -3.23298 -2.81384 0
M  V30 3691 H 341.331 -4.19914 -2.64549 0
M  V30 3692 H 336.587 -5.59947 -2.45499 0
M  V30 3693 H 340.761 -6.57414 -2.29739 0
M  V30 3694 H 338.388 -7.27759 -2.19706 0
M  V30 3695 N 339.963 1.05934 -1.16686 0
M  V30 3696 C 340.926 2.11669 -0.879144 0
M  V30 3697 C 341.926 1.60294 0.127445 0
M  V30 3698 O 343.116 1.7389 -0.103865 0
M  V30 3699 C 340.248 3.39438 -0.315425 0
M  V30 3700 H 341.441 2.38626 -1.81653 0
M  V30 3701 H 338.994 1.22058 -0.976299 0
M  V30 3702 H 339.729 3.18132 0.629468 0
M  V30 3703 H 339.514 3.78034 -1.04079 0
M  V30 3704 H 341.004 4.17391 -0.132189 0
M  V30 3705 N 341.441 0.965919 1.2453 0
M  V30 3706 C 342.404 0.499547 2.2369 0
M  V30 3707 C 343.404 -0.40294 1.5567 0
M  V30 3708 O 344.594 -0.19865 1.73064 0
M  V30 3709 C 341.726 -0.276792 3.39774 0
M  V30 3710 H 342.919 1.37613 2.66463 0
M  V30 3711 H 340.472 0.750324 1.37112 0
M  V30 3712 H 341.207 -1.17055 3.02438 0
M  V30 3713 H 340.992 0.370826 3.90343 0
M  V30 3714 H 342.482 -0.592175 4.1338 0
M  V30 3715 N 342.919 -1.39368 0.735821 0
M  V30 3716 C 344.166 -2.00497 0.284123 0
M  V30 3717 C 344.494 -1.58387 -1.12889 0
M  V30 3718 O 343.749 -0.804359 -1.78406 0
M  V30 3719 C 344.048 -3.5583 0.334651 0
M  V30 3720 C 343.714 -4.17593 1.7008 0
M  V30 3721 C 342.376 -4.34176 2.07472 0
M  V30 3722 C 344.728 -4.51848 2.59775 0
M  V30 3723 C 342.056 -4.82304 3.34065 0
M  V30 3724 C 344.408 -5.01384 3.85741 0
M  V30 3725 C 343.072 -5.16175 4.23225 0
M  V30 3726 H 342.342 -0.73367 0.103968 0
M  V30 3727 H 344.989 -1.66683 0.942825 0
M  V30 3728 H 343.294 -3.89674 -0.407625 0
M  V30 3729 H 344.991 -4.00986 -0.0329927 0
M  V30 3730 H 341.581 -4.05087 1.40008 0
M  V30 3731 H 345.765 -4.38653 2.32157 0
M  V30 3732 H 341.021 -4.91941 3.63049 0
M  V30 3733 H 345.195 -5.26863 4.55399 0
M  V30 3734 H 342.822 -5.5323 5.21384 0
M  V30 3735 N 344.397 -0.483516 -1.5 0
M  V30 3736 C 345.643 0.0593261 -2.03313 0
M  V30 3737 C 345.998 1.36288 -1.35806 0
M  V30 3738 O 345.291 1.85519 -0.478897 0
M  V30 3739 C 345.485 0.286226 -3.56252 0
M  V30 3740 C 345.314 -0.993788 -4.38582 0
M  V30 3741 C 344.084 -1.54064 -4.81241 0
M  V30 3742 C 346.282 -1.89249 -4.78215 0
M  V30 3743 N 344.264 -2.76838 -5.47936 0
M  V30 3744 C 345.635 -2.96606 -5.44449 0
M  V30 3745 C 347.69 -1.90138 -4.60165 0
M  V30 3746 C 346.393 -4.04857 -5.94544 0
M  V30 3747 C 348.419 -2.97353 -5.1121 0
M  V30 3748 C 347.781 -4.03429 -5.77429 0
M  V30 3749 H 343.88 -0.0186322 -0.781778 0
M  V30 3750 H 346.464 -0.654489 -1.8337 0
M  V30 3751 H 344.635 0.969086 -3.76116 0
M  V30 3752 H 346.367 0.824515 -3.96212 0
M  V30 3753 H 343.122 -1.08813 -4.6093 0
M  V30 3754 H 343.546 -3.39221 -5.85882 0
M  V30 3755 H 348.188 -1.09441 -4.0839 0
M  V30 3756 H 345.906 -4.86363 -6.4535 0
M  V30 3757 H 349.492 -2.99039 -4.99066 0
M  V30 3758 H 348.372 -4.85025 -6.16214 0
M  V30 3759 N 345.875 1.56104 -0.216619 0
M  V30 3760 C 346.805 2.23063 0.690296 0
M  V30 3761 C 347.786 1.20072 1.20485 0
M  V30 3762 O 348.971 1.48643 1.24976 0
M  V30 3763 C 346.101 2.90672 1.90072 0
M  V30 3764 C 345.055 4.00092 1.5202 0
M  V30 3765 C 344.381 4.54972 2.80899 0
M  V30 3766 C 345.681 5.17398 0.71391 0
M  V30 3767 H 347.375 2.99109 0.132038 0
M  V30 3768 H 344.921 1.43866 0.0620664 0
M  V30 3769 H 346.874 3.36204 2.54057 0
M  V30 3770 H 345.598 2.12066 2.48386 0
M  V30 3771 H 344.257 3.55283 0.903839 0
M  V30 3772 H 343.905 3.73102 3.37348 0
M  V30 3773 H 343.605 5.28817 2.56176 0
M  V30 3774 H 345.129 5.0322 3.45836 0
M  V30 3775 H 346.543 5.59342 1.25735 0
M  V30 3776 H 344.94 5.97444 0.563951 0
M  V30 3777 H 346.01 4.84088 -0.280527 0
M  V30 3778 N 347.353 -0.0568162 1.57498 0
M  V30 3779 C 348.764 -0.606858 1.76562 0
M  V30 3780 C 349.115 -1.77114 0.844094 0
M  V30 3781 O 348.24 -2.16376 0.0318911 0
M  V30 3782 C 348.835 -1.10766 3.20182 0
M  V30 3783 C 347.394 -1.60344 3.40539 0
M  V30 3784 C 346.541 -0.529311 2.72201 0
M  V30 3785 H 349.492 0.169393 1.57793 0
M  V30 3786 H 349.513 -1.97602 3.25167 0
M  V30 3787 H 349.025 -0.26006 3.87228 0
M  V30 3788 H 347.126 -2.47379 2.78629 0
M  V30 3789 H 347.239 -1.67006 4.4905 0
M  V30 3790 H 345.603 -0.977893 2.35179 0
M  V30 3791 H 346.386 0.308352 3.41912 0
M  V30 3792 N 348.832 -1.54138 -0.328536 0
M  V30 3793 C 350.062 -1.75807 -1.08516 0
M  V30 3794 C 350.47 -0.50428 -1.82356 0
M  V30 3795 O 349.813 0.534451 -1.75754 0
M  V30 3796 C 349.875 -2.89423 -2.13248 0
M  V30 3797 C 349.539 -4.28504 -1.5885 0
M  V30 3798 C 350.536 -5.09536 -1.03289 0
M  V30 3799 C 348.221 -4.75034 -1.63243 0
M  V30 3800 C 350.215 -6.35206 -0.52845 0
M  V30 3801 C 347.902 -6.00672 -1.12411 0
M  V30 3802 C 348.9 -6.80592 -0.573062 0
M  V30 3803 O 348.588 -8.03867 -0.0723692 0
M  V30 3804 H 348.32 -0.590633 -0.328829 0
M  V30 3805 H 350.874 -2.01819 -0.381868 0
M  V30 3806 H 349.104 -2.5897 -2.87178 0
M  V30 3807 H 350.793 -2.98921 -2.74592 0
M  V30 3808 H 351.559 -4.74745 -0.99206 0
M  V30 3809 H 347.438 -4.12875 -2.05074 0
M  V30 3810 H 350.982 -6.97532 -0.0976774 0
M  V30 3811 H 346.879 -6.34955 -1.162 0
M  V30 3812 H 347.647 -8.18283 -0.188258 0
M  V30 3813 N 350.31 0.590341 -1.46126 0
M  V30 3814 C 351.26 1.69466 -1.5253 0
M  V30 3815 C 352.244 1.56179 -0.386917 0
M  V30 3816 O 353.436 1.65223 -0.634858 0
M  V30 3817 C 350.565 3.08245 -1.5113 0
M  V30 3818 C 349.651 3.26856 -2.70233 0
M  V30 3819 N 350.042 3.15657 -3.95214 0
M  V30 3820 C 348.34 3.57775 -2.66296 0
M  V30 3821 C 349.041 3.36066 -4.74799 0
M  V30 3822 N 348.017 3.60865 -4.06543 0
M  V30 3823 H 351.819 1.59326 -2.46966 0
M  V30 3824 H 349.333 0.79414 -1.41659 0
M  V30 3825 H 351.33 3.87492 -1.53804 0
M  V30 3826 H 349.99 3.19521 -0.577636 0
M  V30 3827 H 351.001 2.93686 -4.26578 0
M  V30 3828 H 347.678 3.75782 -1.81918 0
M  V30 3829 H 349.068 3.32655 -5.83772 0
M  V30 3830 N 351.788 1.33704 0.83433 0
M  V30 3831 C 353.034 1.25603 1.59222 0
M  V30 3832 C 353.367 -0.176659 1.93395 0
M  V30 3833 O 352.642 -1.11915 1.59076 0
M  V30 3834 C 352.925 2.13576 2.89926 0
M  V30 3835 C 352.778 3.65326 2.62406 0
M  V30 3836 C 354.097 2.01238 3.91397 0
M  V30 3837 H 351.216 0.457613 0.577719 0
M  V30 3838 H 353.858 1.63848 0.961972 0
M  V30 3839 H 352.008 1.8109 3.43713 0
M  V30 3840 H 353.68 4.08124 2.15017 0
M  V30 3841 H 351.923 3.8698 1.96033 0
M  V30 3842 H 352.594 4.22232 3.55562 0
M  V30 3843 H 355.07 2.29738 3.46929 0
M  V30 3844 H 353.946 2.65036 4.80673 0
M  V30 3845 H 354.207 0.985951 4.30966 0
M  V30 3846 N 353.266 -1.05314 1.17247 0
M  V30 3847 C 354.512 -1.78557 0.961513 0
M  V30 3848 C 354.845 -1.87419 -0.508697 0
M  V30 3849 O 354.12 -1.37307 -1.37757 0
M  V30 3850 C 354.403 -3.22514 1.60176 0
M  V30 3851 C 354.256 -3.21673 3.14399 0
M  V30 3852 C 355.575 -4.20318 1.30463 0
M  V30 3853 H 352.694 -0.6482 0.350723 0
M  V30 3854 H 355.336 -1.23102 1.44727 0
M  V30 3855 H 353.486 -3.69867 1.18871 0
M  V30 3856 H 355.158 -2.82405 3.64753 0
M  V30 3857 H 353.401 -2.60048 3.47214 0
M  V30 3858 H 354.072 -4.23271 3.54324 0
M  V30 3859 H 356.548 -3.81454 1.66229 0
M  V30 3860 H 355.424 -5.19289 1.77848 0
M  V30 3861 H 355.685 -4.41526 0.22521 0
M  V30 3862 N 354.744 -0.972509 -1.24016 0
M  V30 3863 C 355.692 -0.498562 -2.27194 0
M  V30 3864 C 356.686 0.440372 -1.63576 0
M  V30 3865 O 357.892 0.315133 -1.7722 0
M  V30 3866 H 354.267 -0.142775 -0.738322 0
M  V30 3867 H 356.238 -1.38065 -2.64539 0
M  V30 3868 C 354.987 0.191072 -3.47175 0
M  V30 3869 H 354.31 -0.522318 -3.96373 0
M  V30 3870 H 355.75 0.486445 -4.212 0
M  V30 3871 C 354.209 1.41967 -3.05527 0
M  V30 3872 O 354.739 2.51642 -3.13112 0
M  V30 3873 N 352.945 1.28746 -2.60524 0
M  V30 3874 H 352.492 0.395089 -2.54552 0
M  V30 3875 H 352.45 2.11061 -2.33025 0
M  V30 3876 N 356.222 1.38976 -0.743202 0
M  V30 3877 C 357.152 2.33171 -0.123873 0
M  V30 3878 C 358.133 1.54336 0.71516 0
M  V30 3879 O 359.318 1.82696 0.658467 0
M  V30 3880 C 356.448 3.38474 0.777978 0
M  V30 3881 C 355.402 4.27979 0.0424758 0
M  V30 3882 C 354.728 5.2405 1.06189 0
M  V30 3883 C 356.028 5.10155 -1.1198 0
M  V30 3884 H 357.722 2.85213 -0.910709 0
M  V30 3885 H 355.268 1.37133 -0.439388 0
M  V30 3886 H 357.221 4.03328 1.22084 0
M  V30 3887 H 355.945 2.84891 1.59702 0
M  V30 3888 H 354.604 3.64616 -0.380853 0
M  V30 3889 H 354.252 4.66758 1.87472 0
M  V30 3890 H 353.952 5.84785 0.574485 0
M  V30 3891 H 355.476 5.9178 1.50428 0
M  V30 3892 H 356.89 5.68307 -0.75499 0
M  V30 3893 H 355.287 5.80073 -1.53738 0
M  V30 3894 H 356.357 4.44504 -1.93764 0
M  V30 3895 N 357.7 0.491464 1.49741 0
M  V30 3896 C 358.663 -0.280906 2.27472 0
M  V30 3897 C 359.663 -0.902454 1.33088 0
M  V30 3898 O 360.853 -0.768465 1.56334 0
M  V30 3899 C 357.985 -1.40209 3.10732 0
M  V30 3900 H 359.178 0.401056 2.97206 0
M  V30 3901 H 356.731 0.246131 1.5435 0
M  V30 3902 H 357.466 -2.11849 2.45541 0
M  V30 3903 H 357.251 -0.961969 3.80117 0
M  V30 3904 H 358.741 -1.9464 3.69466 0
M  V30 3905 N 359.178 -1.55987 0.224894 0
M  V30 3906 C 360.088 -2.24066 -0.69511 0
M  V30 3907 C 361.104 -1.24939 -1.21104 0
M  V30 3908 O 362.28 -1.5776 -1.25195 0
M  V30 3909 C 359.345 -2.90983 -1.88493 0
M  V30 3910 C 358.406 -4.05462 -1.41064 0
M  V30 3911 C 357.639 -4.69179 -2.54375 0
M  V30 3912 O 357.862 -4.31895 -3.72589 0
M  V30 3913 O 356.796 -5.58108 -2.25386 0
M  V30 3914 H 360.622 -3.03353 -0.145149 0
M  V30 3915 H 358.207 -1.49399 -0.00569476 0
M  V30 3916 H 360.089 -3.33209 -2.57972 0
M  V30 3917 H 358.764 -2.14653 -2.42293 0
M  V30 3918 H 357.671 -3.67798 -0.683774 0
M  V30 3919 H 359.004 -4.83545 -0.918985 0
M  V30 3920 N 360.656 0.0484629 -1.57525 0
M  V30 3921 C 361.619 1.03956 -2.04269 0
M  V30 3922 C 362.619 1.30211 -0.943496 0
M  V30 3923 O 363.809 1.25539 -1.20771 0
M  V30 3924 C 360.941 2.37742 -2.44319 0
M  V30 3925 H 362.134 0.636182 -2.93075 0
M  V30 3926 H 359.687 0.294811 -1.53494 0
M  V30 3927 H 360.422 2.82866 -1.5861 0
M  V30 3928 H 360.207 2.20021 -3.24551 0
M  V30 3929 H 361.697 3.08936 -2.80978 0
M  V30 3930 N 362.134 1.5431 0.320358 0
M  V30 3931 C 363.382 1.72327 1.05583 0
M  V30 3932 C 363.703 0.50149 1.88441 0
M  V30 3933 O 362.973 -0.48448 1.89815 0
M  V30 3934 H 361.553 0.635387 0.3928 0
M  V30 3935 H 364.215 1.91621 0.356019 0
M  V30 3936 H 363.311 2.60426 1.72003 0
M  V30 3937 N 363.613 -0.582584 1.46437 0
M  V30 3938 C 365.029 -0.905962 1.31394 0
M  V30 3939 C 365.229 -1.99468 0.285476 0
M  V30 3940 O 364.285 -2.50566 -0.311914 0
M  V30 3941 C 365.598 -1.3232 2.70022 0
M  V30 3942 C 367.146 -1.43604 2.78113 0
M  V30 3943 C 367.621 -1.88694 4.17323 0
M  V30 3944 N 369.112 -1.95887 4.19741 0
M  V30 3945 C 369.847 -2.32051 5.24347 0
M  V30 3946 N 369.343 -2.67006 6.39281 0
M  V30 3947 N 371.136 -2.32606 5.11713 0
M  V30 3948 H 363.287 0.1366 2.1196 0
M  V30 3949 H 365.55 -0.00155736 0.947999 0
M  V30 3950 H 365.256 -0.597242 3.46592 0
M  V30 3951 H 365.13 -2.28469 3.00136 0
M  V30 3952 H 367.517 -2.15286 2.01832 0
M  V30 3953 H 367.598 -0.457059 2.51684 0
M  V30 3954 H 367.242 -1.1759 4.941 0
M  V30 3955 H 367.172 -2.8755 4.4116 0
M  V30 3956 H 369.663 -1.71362 3.36814 0
M  V30 3957 H 369.976 -2.93554 7.14875 0
M  V30 3958 H 368.321 -2.64644 6.42642 0
M  V30 3959 H 371.512 -2.04721 4.2096 0
M  V30 3960 H 371.685 -2.60462 5.93349 0
M  V30 3961 N 365.091 -1.34144 -0.827227 0
M  V30 3962 C 366.054 -1.25264 -1.91942 0
M  V30 3963 C 367.054 -0.168866 -1.59911 0
M  V30 3964 O 368.244 -0.421198 -1.69031 0
M  V30 3965 C 365.376 -0.932952 -3.27885 0
M  V30 3966 H 366.569 -2.22357 -2.0124 0
M  V30 3967 H 364.122 -1.1837 -1.0207 0
M  V30 3968 H 364.857 0.0349917 -3.24281 0
M  V30 3969 H 364.642 -1.71682 -3.52516 0
M  V30 3970 H 366.132 -0.895874 -4.07877 0
M  V30 3971 N 366.569 1.04691 -1.17803 0
M  V30 3972 C 367.499 2.14494 -0.92275 0
M  V30 3973 C 368.48 1.69546 0.137179 0
M  V30 3974 O 369.665 1.94195 -0.0141108 0
M  V30 3975 C 366.795 3.44491 -0.440803 0
M  V30 3976 C 365.749 4.03031 -1.4405 0
M  V30 3977 C 365.075 5.28432 -0.81631 0
M  V30 3978 C 366.375 4.39932 -2.81527 0
M  V30 3979 H 368.069 2.36107 -1.84103 0
M  V30 3980 H 365.615 1.1347 -0.886599 0
M  V30 3981 H 367.568 4.2066 -0.249602 0
M  V30 3982 H 366.292 3.22546 0.513025 0
M  V30 3983 H 364.951 3.28937 -1.61853 0
M  V30 3984 H 364.599 5.02792 0.144511 0
M  V30 3985 H 364.299 5.68559 -1.48371 0
M  V30 3986 H 365.823 6.07284 -0.635496 0
M  V30 3987 H 367.237 5.07113 -2.67412 0
M  V30 3988 H 365.634 4.9109 -3.44892 0
M  V30 3989 H 366.704 3.50045 -3.35554 0
M  V30 3990 N 368.047 0.979072 1.23499 0
M  V30 3991 C 369.01 0.523244 2.23147 0
M  V30 3992 C 370.01 -0.386406 1.56088 0
M  V30 3993 O 371.2 -0.180283 1.73265 0
M  V30 3994 C 368.332 -0.240739 3.40049 0
M  V30 3995 H 369.525 1.40432 2.64989 0
M  V30 3996 H 367.078 0.764824 1.36309 0
M  V30 3997 H 367.813 -1.13841 3.03662 0
M  V30 3998 H 367.598 0.412207 3.89927 0
M  V30 3999 H 369.088 -0.548297 4.13985 0
M  V30 4000 N 369.525 -1.3858 0.750561 0
M  V30 4001 C 370.773 -1.99789 0.30477 0
M  V30 4002 C 371.094 -1.59874 -1.11649 0
M  V30 4003 O 370.364 -0.85417 -1.76297 0
M  V30 4004 H 368.944 -0.738902 0.109694 0
M  V30 4005 H 371.606 -1.69391 0.963983 0
M  V30 4006 H 370.702 -3.09952 0.365499 0
M  V30 4007 N 371.003 -0.499398 -1.49478 0
M  V30 4008 C 371.935 0.316575 -2.27003 0
M  V30 4009 C 372.948 0.932047 -1.33479 0
M  V30 4010 O 374.137 0.815658 -1.58774 0
M  V30 4011 C 371.237 1.46055 -3.05812 0
M  V30 4012 C 370.41 0.952679 -4.26899 0
M  V30 4013 C 369.469 1.97407 -4.87767 0
M  V30 4014 O 368.495 1.54326 -5.4788 0
M  V30 4015 N 369.697 3.30436 -4.77276 0
M  V30 4016 H 372.462 -0.348168 -2.97671 0
M  V30 4017 H 370.023 -0.33185 -1.58463 0
M  V30 4018 H 372.015 2.14135 -3.43407 0
M  V30 4019 H 370.585 2.02948 -2.37762 0
M  V30 4020 H 369.805 0.0968248 -3.94081 0
M  V30 4021 H 371.093 0.59174 -5.05347 0
M  V30 4022 H 370.491 3.68126 -4.29534 0
M  V30 4023 H 369.048 3.94235 -5.19059 0
M  V30 4024 N 372.481 1.55866 -0.233164 0
M  V30 4025 C 373.444 2.1953 0.658715 0
M  V30 4026 C 374.444 1.16053 1.11303 0
M  V30 4027 O 375.634 1.41218 1.01996 0
M  V30 4028 C 372.766 2.82791 1.90373 0
M  V30 4029 H 373.959 2.99721 0.10347 0
M  V30 4030 H 371.512 1.56291 0.0164245 0
M  V30 4031 H 372.247 2.06501 2.50056 0
M  V30 4032 H 372.032 3.58578 1.58632 0
M  V30 4033 H 373.522 3.31556 2.53891 0
M  V30 4034 N 373.959 -0.0401083 1.57549 0
M  V30 4035 C 374.922 -1.02871 2.04817 0
M  V30 4036 C 375.922 -1.29708 0.950388 0
M  V30 4037 O 377.112 -1.24897 1.21435 0
M  V30 4038 C 374.244 -2.36443 2.45576 0
M  V30 4039 H 375.437 -0.620631 2.93408 0
M  V30 4040 H 372.99 -0.286667 1.53649 0
M  V30 4041 H 373.725 -2.82021 1.60108 0
M  V30 4042 H 373.51 -2.18296 3.25713 0
M  V30 4043 H 375 -3.07441 2.82612 0
M  V30 4044 N 375.437 -1.54477 -0.31217 0
M  V30 4045 C 376.685 -1.72884 -1.04668 0
M  V30 4046 C 377.006 -0.511477 -1.88173 0
M  V30 4047 O 376.276 0.474407 -1.90069 0
M  V30 4048 H 374.856 -0.637461 -0.389425 0
M  V30 4049 H 377.518 -1.91807 -0.345852 0
M  V30 4050 H 376.614 -2.61334 -1.70619 0
M  V30 4051 N 376.915 0.57481 -1.46744 0
M  V30 4052 C 377.845 1.69337 -1.60771 0
M  V30 4053 C 378.826 1.63825 -0.457736 0
M  V30 4054 O 380.011 1.8172 -0.684947 0
M  V30 4055 C 377.141 3.0798 -1.60517 0
M  V30 4056 C 376.095 3.28327 -2.74564 0
M  V30 4057 C 375.421 4.67578 -2.59373 0
M  V30 4058 C 376.721 3.15398 -4.16319 0
M  V30 4059 H 378.415 1.57853 -2.54407 0
M  V30 4060 H 375.961 0.75799 -1.22436 0
M  V30 4061 H 377.914 3.86061 -1.68923 0
M  V30 4062 H 376.638 3.20381 -0.634305 0
M  V30 4063 H 375.297 2.52649 -2.65639 0
M  V30 4064 H 374.945 4.76755 -1.60353 0
M  V30 4065 H 374.645 4.82144 -3.35873 0
M  V30 4066 H 376.169 5.47817 -2.69682 0
M  V30 4067 H 377.583 3.83315 -4.26313 0
M  V30 4068 H 375.98 3.41482 -4.93468 0
M  V30 4069 H 377.05 2.12372 -4.3592 0
M  V30 4070 N 378.394 1.34581 0.820102 0
M  V30 4071 C 379.642 1.26845 1.57336 0
M  V30 4072 C 379.963 -0.160667 1.94337 0
M  V30 4073 O 379.233 -1.09396 1.6251 0
M  V30 4074 H 377.813 0.466514 0.583415 0
M  V30 4075 H 380.475 1.68526 0.979027 0
M  V30 4076 H 379.571 1.87513 2.4949 0
M  V30 4077 N 379.872 -1.04064 1.18357 0
M  V30 4078 C 380.802 -2.14001 0.934113 0
M  V30 4079 C 381.783 -1.69616 -0.128186 0
M  V30 4080 O 382.968 -1.94185 0.0244093 0
M  V30 4081 C 380.098 -3.44253 0.459066 0
M  V30 4082 C 379.052 -4.02261 1.46185 0
M  V30 4083 C 378.378 -5.27992 0.844322 0
M  V30 4084 C 379.678 -4.38432 2.83856 0
M  V30 4085 H 381.372 -2.35127 1.85352 0
M  V30 4086 H 378.918 -1.12998 0.892604 0
M  V30 4087 H 380.871 -4.20522 0.271907 0
M  V30 4088 H 379.595 -3.22813 -0.495912 0
M  V30 4089 H 378.254 -3.28074 1.63595 0
M  V30 4090 H 377.902 -5.02862 -0.117845 0
M  V30 4091 H 377.602 -5.67765 1.51384 0
M  V30 4092 H 379.126 -6.06938 0.667693 0
M  V30 4093 H 380.54 -5.05688 2.70098 0
M  V30 4094 H 378.937 -4.89254 3.47491 0
M  V30 4095 H 380.007 -3.4826 3.37406 0
M  V30 4096 N 381.35 -0.985608 -1.22978 0
M  V30 4097 C 382.596 -0.65836 -1.91816 0
M  V30 4098 C 382.929 0.806692 -1.76653 0
M  V30 4099 O 382.204 1.58252 -1.13078 0
M  V30 4100 C 382.487 -1.056 -3.44268 0
M  V30 4101 C 382.34 -2.57906 -3.68516 0
M  V30 4102 C 383.659 -0.603781 -4.35939 0
M  V30 4103 H 380.778 -0.24065 -0.696604 0
M  V30 4104 H 383.42 -1.22783 -1.44998 0
M  V30 4105 H 381.57 -0.571445 -3.84274 0
M  V30 4106 H 383.242 -3.13976 -3.3796 0
M  V30 4107 H 381.485 -3.00305 -3.13048 0
M  V30 4108 H 382.156 -2.80779 -4.75255 0
M  V30 4109 H 384.632 -1.01987 -4.03408 0
M  V30 4110 H 383.508 -0.910383 -5.41298 0
M  V30 4111 H 383.769 0.495761 -4.39312 0
M  V30 4112 N 382.828 1.3818 -0.7579 0
M  V30 4113 C 384.076 1.99624 -0.315361 0
M  V30 4114 C 384.397 1.60464 1.10799 0
M  V30 4115 O 383.667 0.863507 1.75842 0
M  V30 4116 H 382.247 0.73831 -0.113611 0
M  V30 4117 H 384.909 1.68878 -0.972952 0
M  V30 4118 H 384.005 3.09754 -0.381931 0
M  V30 4119 N 384.306 0.507319 1.49211 0
M  V30 4120 C 385.253 -0.267728 2.29242 0
M  V30 4121 C 386.223 -0.954609 1.35928 0
M  V30 4122 O 387.408 -0.960046 1.64887 0
M  V30 4123 C 384.548 -1.32243 3.18756 0
M  V30 4124 C 383.661 -0.64669 4.27132 0
M  V30 4125 C 382.796 -1.68238 5.03855 0
M  V30 4126 C 381.835 -0.98885 6.0406 0
M  V30 4127 N 380.972 -1.96903 6.73924 0
M  V30 4128 H 385.812 0.420968 2.95012 0
M  V30 4129 H 383.349 0.219443 1.45454 0
M  V30 4130 H 385.307 -1.94599 3.69036 0
M  V30 4131 H 383.937 -1.97981 2.54958 0
M  V30 4132 H 382.989 0.0902926 3.80293 0
M  V30 4133 H 384.301 -0.101058 4.98698 0
M  V30 4134 H 383.455 -2.38081 5.58034 0
M  V30 4135 H 382.194 -2.26187 4.32077 0
M  V30 4136 H 381.199 -0.276222 5.49106 0
M  V30 4137 H 382.424 -0.415767 6.77826 0
M  V30 4138 H 380.37 -2.53803 6.04913 0
M  V30 4139 H 380.287 -1.47423 7.41487 0
M  V30 4140 H 381.555 -2.66015 7.32705 0
M  V30 4141 N 385.784 -1.5574 0.241426 0
M  V30 4142 C 387.2 -1.59196 -0.113548 0
M  V30 4143 C 387.4 -1.25852 -1.57364 0
M  V30 4144 O 386.456 -1.00322 -2.31715 0
M  V30 4145 C 387.769 -2.99814 0.230695 0
M  V30 4146 C 389.317 -3.12513 0.174547 0
M  V30 4147 C 389.792 -4.55342 0.492744 0
M  V30 4148 N 391.283 -4.61076 0.443043 0
M  V30 4149 C 392.018 -5.6956 0.662484 0
M  V30 4150 N 391.514 -6.86328 0.944761 0
M  V30 4151 N 393.307 -5.58957 0.593564 0
M  V30 4152 H 385.458 -1.75685 1.19368 0
M  V30 4153 H 387.721 -0.81756 0.479896 0
M  V30 4154 H 387.427 -3.28932 1.24485 0
M  V30 4155 H 387.301 -3.74568 -0.444833 0
M  V30 4156 H 389.688 -2.83179 -0.830277 0
M  V30 4157 H 389.769 -2.40045 0.883845 0
M  V30 4158 H 389.413 -4.85396 1.4951 0
M  V30 4159 H 389.343 -5.26062 -0.23797 0
M  V30 4160 H 391.834 -3.77179 0.233374 0
M  V30 4161 H 392.147 -7.64935 1.09977 0
M  V30 4162 H 390.492 -6.88025 0.982175 0
M  V30 4163 H 393.683 -4.66611 0.373123 0
M  V30 4164 H 393.856 -6.43433 0.767981 0
M  V30 4165 N 387.262 0.0317525 -1.57568 0
M  V30 4166 C 388.192 1.03274 -2.0942 0
M  V30 4167 C 389.173 1.3788 -0.996143 0
M  V30 4168 O 390.358 1.46811 -1.27122 0
M  V30 4169 C 387.488 2.33448 -2.57137 0
M  V30 4170 C 386.442 2.13091 -3.71182 0
M  V30 4171 C 385.768 3.49001 -4.05095 0
M  V30 4172 C 387.068 1.51928 -4.99715 0
M  V30 4173 H 388.762 0.60112 -2.93303 0
M  V30 4174 H 386.308 0.287705 -1.41097 0
M  V30 4175 H 388.261 3.03802 -2.92032 0
M  V30 4176 H 386.985 2.78665 -1.70333 0
M  V30 4177 H 385.644 1.45171 -3.36632 0
M  V30 4178 H 385.292 3.91862 -3.15362 0
M  V30 4179 H 384.992 3.36207 -4.81911 0
M  V30 4180 H 386.516 4.20721 -4.42522 0
M  V30 4181 H 387.93 2.12196 -5.32584 0
M  V30 4182 H 386.327 1.49716 -5.81124 0
M  V30 4183 H 387.397 0.484811 -4.8247 0
M  V30 4184 N 388.74 1.54641 0.303973 0
M  V30 4185 C 389.965 1.78092 1.06292 0
M  V30 4186 C 390.39 0.537342 1.80262 0
M  V30 4187 O 389.748 -0.511993 1.7392 0
M  V30 4188 C 389.796 2.98612 2.02147 0
M  V30 4189 O 388.9 2.71528 3.10397 0
M  V30 4190 H 388.241 0.589548 0.305497 0
M  V30 4191 H 390.771 2.01716 0.3423 0
M  V30 4192 H 390.781 3.265 2.44667 0
M  V30 4193 H 389.456 3.88785 1.47714 0
M  V30 4194 H 388.033 2.54648 2.72413 0
M  V30 4195 N 390.218 -0.567019 1.47046 0
M  V30 4196 C 391.148 -1.68482 1.61667 0
M  V30 4197 C 392.129 -1.6358 0.466418 0
M  V30 4198 O 393.314 -1.81354 0.694574 0
M  V30 4199 C 390.444 -3.07124 1.62148 0
M  V30 4200 C 389.398 -3.26867 2.76301 0
M  V30 4201 C 388.724 -4.66196 2.61849 0
M  V30 4202 C 390.024 -3.13186 4.17986 0
M  V30 4203 H 391.718 -1.56502 2.5524 0
M  V30 4204 H 389.264 -0.751486 1.22836 0
M  V30 4205 H 391.217 -3.8516 1.70968 0
M  V30 4206 H 389.941 -3.2004 0.651287 0
M  V30 4207 H 388.6 -2.51237 2.66975 0
M  V30 4208 H 388.248 -4.75898 1.62879 0
M  V30 4209 H 387.948 -4.80356 3.38425 0
M  V30 4210 H 389.472 -5.46379 2.72584 0
M  V30 4211 H 390.886 -3.81049 4.2834 0
M  V30 4212 H 389.283 -3.3886 4.95272 0
M  V30 4213 H 390.353 -2.10057 4.3704 0
M  V30 4214 N 391.696 -1.35014 -0.812953 0
M  V30 4215 C 392.659 -1.27292 -1.90602 0
M  V30 4216 C 393.659 -0.185817 -1.59723 0
M  V30 4217 O 394.849 -0.439102 -1.68575 0
M  V30 4218 C 391.981 -0.967676 -3.26877 0
M  V30 4219 H 393.174 -2.24479 -1.9887 0
M  V30 4220 H 390.727 -1.19446 -1.00808 0
M  V30 4221 H 391.462 0.0005954 -3.243 0
M  V30 4222 H 391.247 -1.75412 -3.50675 0
M  V30 4223 H 392.737 -0.939085 -4.06904 0
M  V30 4224 N 393.175 1.03435 -1.18907 0
M  V30 4225 C 394.591 1.28973 -0.940111 0
M  V30 4226 C 394.791 1.97676 0.390691 0
M  V30 4227 O 393.847 2.26127 1.12352 0
M  V30 4228 C 395.16 2.14221 -2.11021 0
M  V30 4229 C 396.708 2.27547 -2.14922 0
M  V30 4230 C 397.183 3.16164 -3.31367 0
M  V30 4231 N 398.674 3.23752 -3.31269 0
M  V30 4232 C 399.409 3.92495 -4.18014 0
M  V30 4233 N 398.905 4.63515 -5.14904 0
M  V30 4234 N 400.698 3.88838 -4.05908 0
M  V30 4235 H 392.849 0.57252 -2.04538 0
M  V30 4236 H 395.112 0.315184 -0.894071 0
M  V30 4237 H 394.818 1.71054 -3.073 0
M  V30 4238 H 394.692 3.14919 -2.0762 0
M  V30 4239 H 397.079 2.69947 -1.19217 0
M  V30 4240 H 397.16 1.26418 -2.22378 0
M  V30 4241 H 396.804 2.74474 -4.27348 0
M  V30 4242 H 396.734 4.17339 -3.21148 0
M  V30 4243 H 399.225 2.73167 -2.61129 0
M  V30 4244 H 399.538 5.13583 -5.77453 0
M  V30 4245 H 397.883 4.62398 -5.18857 0
M  V30 4246 H 401.074 3.32491 -3.29495 0
M  V30 4247 H 401.247 4.4214 -4.73726 0
M  V30 4248 N 394.653 0.992116 1.22453 0
M  V30 4249 C 395.601 0.534644 2.26372 0
M  V30 4250 C 396.595 -0.414293 1.64256 0
M  V30 4251 O 397.801 -0.286899 1.77699 0
M  V30 4252 H 394.176 0.154502 0.735957 0
M  V30 4253 H 396.147 1.42256 2.62309 0
M  V30 4254 C 394.896 -0.135815 3.47435 0
M  V30 4255 H 394.219 0.585311 3.95492 0
M  V30 4256 H 395.659 -0.419374 4.21921 0
M  V30 4257 C 394.118 -1.37089 3.07747 0
M  V30 4258 O 394.648 -2.46629 3.17076 0
M  V30 4259 N 392.854 -1.24585 2.62539 0
M  V30 4260 H 392.401 -0.354542 2.55149 0
M  V30 4261 H 392.359 -2.07327 2.36353 0
M  V30 4262 N 396.131 -1.37776 0.765217 0
M  V30 4263 C 397.377 -2.00145 0.327072 0
M  V30 4264 C 397.71 -1.60607 -1.09175 0
M  V30 4265 O 396.985 -0.849127 -1.74986 0
M  V30 4266 C 397.268 -3.57109 0.46319 0
M  V30 4267 C 397.121 -4.06576 1.92395 0
M  V30 4268 C 398.44 -4.39888 -0.136473 0
M  V30 4269 H 395.559 -0.727113 0.120316 0
M  V30 4270 H 398.201 -1.63549 0.967039 0
M  V30 4271 H 396.351 -3.88414 -0.0816358 0
M  V30 4272 H 398.023 -3.85864 2.52798 0
M  V30 4273 H 396.266 -3.59011 2.43503 0
M  V30 4274 H 396.937 -5.15639 1.97028 0
M  V30 4275 H 399.413 -4.14803 0.328317 0
M  V30 4276 H 398.289 -5.48899 -0.0110582 0
M  V30 4277 H 398.55 -4.24758 -1.22608 0
M  V30 4278 N 397.609 -0.515225 -1.4894 0
M  V30 4279 C 398.539 0.244628 -2.32215 0
M  V30 4280 C 399.52 0.949136 -1.41157 0
M  V30 4281 O 400.705 0.937783 -1.70057 0
M  V30 4282 C 397.835 1.30096 -3.22013 0
M  V30 4283 C 396.789 0.715486 -4.21977 0
M  V30 4284 C 396.115 1.87339 -5.00808 0
M  V30 4285 C 397.415 -0.302982 -5.2142 0
M  V30 4286 H 399.109 -0.450501 -2.95991 0
M  V30 4287 H 396.655 -0.218098 -1.42339 0
M  V30 4288 H 398.608 1.84037 -3.79089 0
M  V30 4289 H 397.332 2.02547 -2.56207 0
M  V30 4290 H 395.991 0.197715 -3.66066 0
M  V30 4291 H 395.639 2.58592 -4.31438 0
M  V30 4292 H 395.339 1.48764 -5.68457 0
M  V30 4293 H 396.863 2.41686 -5.60732 0
M  V30 4294 H 398.277 0.148802 -5.73107 0
M  V30 4295 H 396.674 -0.60532 -5.97039 0
M  V30 4296 H 397.744 -1.21395 -4.69459 0
M  V30 4297 N 399.087 1.5561 -0.249682 0
M  V30 4298 C 400.336 1.98187 0.37479 0
M  V30 4299 C 400.649 1.14111 1.58865 0
M  V30 4300 O 401.855 1.46714 2.28445 0
M  V30 4301 C 400.311 3.52661 0.718192 0
M  V30 4302 C 399.919 4.45481 -0.474428 0
M  V30 4303 C 401.663 4.03888 1.3067 0
M  V30 4304 C 399.57 5.91303 -0.107026 0
M  V30 4305 H 398.5 0.740159 0.143808 0
M  V30 4306 H 401.151 1.80125 -0.350336 0
M  V30 4307 H 399.533 3.66429 1.50152 0
M  V30 4308 H 400.707 4.43473 -1.25172 0
M  V30 4309 H 399.022 4.04751 -0.978052 0
M  V30 4310 H 401.619 5.10358 1.59496 0
M  V30 4311 H 401.962 3.51401 2.23211 0
M  V30 4312 H 402.495 3.93457 0.586211 0
M  V30 4313 H 399.234 6.47833 -0.999642 0
M  V30 4314 H 398.754 5.9644 0.634013 0
M  V30 4315 H 400.433 6.46258 0.309807 0
M  V30 4316 N 400.565 -0.0233959 1.57583 0
M  V30 4317 C 401.528 -1.00693 2.05897 0
M  V30 4318 C 402.528 -1.28693 0.964092 0
M  V30 4319 O 403.718 -1.23602 1.22753 0
M  V30 4320 C 400.85 -2.33825 2.4807 0
M  V30 4321 H 402.043 -0.589476 2.9405 0
M  V30 4322 H 399.596 -0.270354 1.53944 0
M  V30 4323 H 400.331 -2.80307 1.6309 0
M  V30 4324 H 400.116 -2.1483 3.2801 0
M  V30 4325 H 401.606 -3.04426 2.85857 0
M  V30 4326 N 402.043 -1.548 -0.295768 0
M  V30 4327 C 402.973 -1.89115 -1.36959 0
M  V30 4328 C 403.954 -0.75059 -1.52644 0
M  V30 4329 O 405.139 -1.00678 -1.66065 0
M  V30 4330 C 402.269 -2.14307 -2.73295 0
M  V30 4331 C 401.223 -3.30151 -2.72368 0
M  V30 4332 C 400.549 -3.40772 -4.12042 0
M  V30 4333 C 401.849 -4.67126 -2.33646 0
M  V30 4334 H 403.543 -2.79053 -1.08488 0
M  V30 4335 H 401.089 -1.34266 -0.520443 0
M  V30 4336 H 403.042 -2.36898 -3.48507 0
M  V30 4337 H 401.766 -1.21145 -3.03301 0
M  V30 4338 H 400.425 -3.0749 -1.99613 0
M  V30 4339 H 400.073 -2.45117 -4.39234 0
M  V30 4340 H 399.773 -4.18645 -4.12322 0
M  V30 4341 H 401.297 -3.6563 -4.89027 0
M  V30 4342 H 402.711 -4.89414 -2.98575 0
M  V30 4343 H 401.108 -5.47751 -2.45129 0
M  V30 4344 H 402.178 -4.67489 -1.28772 0
M  V30 4345 N 403.521 0.559213 -1.47345 0
M  V30 4346 C 404.484 1.64854 -1.59235 0
M  V30 4347 C 405.484 1.53851 -0.467607 0
M  V30 4348 O 406.674 1.58045 -0.732617 0
M  V30 4349 C 403.806 3.04388 -1.53496 0
M  V30 4350 H 404.999 1.55662 -2.56339 0
M  V30 4351 H 402.552 0.778973 -1.35505 0
M  V30 4352 H 403.287 3.19115 -0.577604 0
M  V30 4353 H 403.072 3.13783 -2.35123 0
M  V30 4354 H 404.562 3.83642 -1.6495 0
M  V30 4355 N 404.999 1.35443 0.805782 0
M  V30 4356 C 406.246 1.28761 1.56291 0
M  V30 4357 C 406.574 -0.137747 1.94012 0
M  V30 4358 O 405.829 -1.1032 1.61642 0
M  V30 4359 C 406.128 2.14045 2.86216 0
M  V30 4360 C 405.794 3.62826 2.67709 0
M  V30 4361 C 404.456 4.0338 2.6237 0
M  V30 4362 C 406.808 4.57227 2.50186 0
M  V30 4363 C 404.136 5.36501 2.37451 0
M  V30 4364 C 406.488 5.90547 2.26797 0
M  V30 4365 C 405.152 6.30245 2.1988 0
M  V30 4366 H 404.422 0.471171 0.571908 0
M  V30 4367 H 407.069 1.67347 0.930974 0
M  V30 4368 H 405.374 1.68342 3.53791 0
M  V30 4369 H 407.071 2.0621 3.43917 0
M  V30 4370 H 403.661 3.30644 2.72713 0
M  V30 4371 H 407.845 4.2678 2.53323 0
M  V30 4372 H 403.101 5.66259 2.30567 0
M  V30 4373 H 407.275 6.63274 2.12228 0
M  V30 4374 H 404.902 7.33328 2.00333 0
M  V30 4375 N 406.477 -1.02803 1.19454 0
M  V30 4376 C 407.407 -2.12999 0.956758 0
M  V30 4377 C 408.388 -1.69743 -0.110188 0
M  V30 4378 O 409.573 -1.94148 0.0450038 0
M  V30 4379 C 406.703 -3.43746 0.495553 0
M  V30 4380 C 405.657 -4.00688 1.50443 0
M  V30 4381 C 404.983 -5.27067 0.900275 0
M  V30 4382 C 406.283 -4.35397 2.8849 0
M  V30 4383 H 407.977 -2.33148 1.87836 0
M  V30 4384 H 405.523 -1.12045 0.904539 0
M  V30 4385 H 407.476 -4.2021 0.316493 0
M  V30 4386 H 406.2 -3.23321 -0.461646 0
M  V30 4387 H 404.859 -3.2632 1.67065 0
M  V30 4388 H 404.507 -5.02959 -0.064503 0
M  V30 4389 H 404.207 -5.66127 1.57397 0
M  V30 4390 H 405.731 -6.06196 0.73203 0
M  V30 4391 H 407.145 -5.02795 2.75446 0
M  V30 4392 H 405.542 -4.85541 3.52661 0
M  V30 4393 H 406.612 -3.44662 3.41081 0
M  V30 4394 N 407.956 -0.998596 -1.21925 0
M  V30 4395 C 409.181 -0.696015 -1.95372 0
M  V30 4396 C 409.606 0.733826 -1.73195 0
M  V30 4397 O 408.964 1.50242 -1.01474 0
M  V30 4398 C 409.012 -1.01466 -3.4603 0
M  V30 4399 O 408.116 -0.116415 -4.12236 0
M  V30 4400 H 407.457 -0.259938 -0.611006 0
M  V30 4401 H 409.987 -1.33711 -1.54863 0
M  V30 4402 H 409.997 -0.958855 -3.96573 0
M  V30 4403 H 408.672 -2.05653 -3.61497 0
M  V30 4404 H 407.249 -0.228193 -3.72201 0
M  V30 4405 N 409.434 1.37368 -0.772513 0
M  V30 4406 C 410.659 2.0447 -0.347386 0
M  V30 4407 C 411.084 1.57882 1.0225 0
M  V30 4408 O 410.442 0.73941 1.65537 0
M  V30 4409 C 410.49 3.58369 -0.400479 0
M  V30 4410 O 409.594 4.0803 0.598789 0
M  V30 4411 H 408.935 0.646773 -0.15027 0
M  V30 4412 H 411.465 1.75667 -1.04892 0
M  V30 4413 H 411.475 4.07183 -0.258045 0
M  V30 4414 H 410.15 3.91633 -1.39986 0
M  V30 4415 H 408.727 3.70534 0.419411 0
M  V30 4416 N 410.912 0.523116 1.48665 0
M  V30 4417 C 412.137 -0.0117284 2.07397 0
M  V30 4418 C 412.562 -1.28031 1.37803 0
M  V30 4419 O 411.92 -1.75836 0.441762 0
M  V30 4420 C 411.968 -0.225786 3.59892 0
M  V30 4421 O 411.072 -1.29592 3.91509 0
M  V30 4422 H 410.413 0.0360673 0.66302 0
M  V30 4423 H 412.943 0.729066 1.9117 0
M  V30 4424 H 412.953 -0.450552 4.05505 0
M  V30 4425 H 411.628 0.700944 4.09951 0
M  V30 4426 H 410.205 -1.05436 3.57684 0
M  V30 4427 N 412.39 -1.55475 0.257931 0
M  V30 4428 C 413.636 -1.99502 -0.364266 0
M  V30 4429 C 413.969 -1.146 -1.56782 0
M  V30 4430 O 413.244 -0.211968 -1.93342 0
M  V30 4431 C 413.527 -3.51917 -0.763333 0
M  V30 4432 C 413.38 -4.4758 0.446371 0
M  V30 4433 C 414.699 -4.09742 -1.60623 0
M  V30 4434 H 411.818 -0.725277 -0.130929 0
M  V30 4435 H 414.46 -1.8653 0.361446 0
M  V30 4436 H 412.61 -3.63101 -1.38166 0
M  V30 4437 H 414.282 -4.48362 1.08487 0
M  V30 4438 H 412.525 -4.19947 1.08753 0
M  V30 4439 H 413.196 -5.51862 0.123645 0
M  V30 4440 H 415.672 -4.01727 -1.08418 0
M  V30 4441 H 414.548 -5.16631 -1.85429 0
M  V30 4442 H 414.809 -3.58889 -2.58169 0
M  V30 4443 N 413.868 0.0150385 -1.57593 0
M  V30 4444 C 414.816 1.02958 -2.08572 0
M  V30 4445 C 415.81 1.36554 -1.00246 0
M  V30 4446 O 417.016 1.35295 -1.18724 0
M  V30 4447 H 413.391 0.349619 -0.665786 0
M  V30 4448 H 415.362 0.573932 -2.92829 0
M  V30 4449 C 414.111 2.31752 -2.59203 0
M  V30 4450 H 413.434 2.06765 -3.42182 0
M  V30 4451 H 414.874 3.01053 -2.98568 0
M  V30 4452 C 413.333 3.01692 -1.49945 0
M  V30 4453 O 413.863 3.92083 -0.873704 0
M  V30 4454 N 412.069 2.6326 -1.23056 0
M  V30 4455 H 411.616 1.89838 -1.74125 0
M  V30 4456 H 411.574 3.10372 -0.501685 0
M  V30 4457 N 415.346 1.54954 0.287554 0
M  V30 4458 C 416.757 1.65732 0.859634 0
M  V30 4459 C 417.108 0.574767 1.87592 0
M  V30 4460 O 416.233 -0.286299 2.14498 0
M  V30 4461 C 416.828 3.00438 1.56597 0
M  V30 4462 C 415.387 3.13292 2.08627 0
M  V30 4463 C 414.534 2.61473 0.923416 0
M  V30 4464 H 417.485 1.5857 0.0642338 0
M  V30 4465 H 417.506 2.92613 2.43224 0
M  V30 4466 H 417.018 3.79207 0.826053 0
M  V30 4467 H 415.119 2.39268 2.85625 0
M  V30 4468 H 415.232 4.19647 2.31157 0
M  V30 4469 H 413.596 2.18264 1.31275 0
M  V30 4470 H 414.379 3.42733 0.197241 0
M  V30 4471 N 416.824 -0.551391 1.4764 0
M  V30 4472 C 418.07 -1.31024 1.54792 0
M  V30 4473 C 418.403 -1.9304 0.211967 0
M  V30 4474 O 417.678 -1.78175 -0.77999 0
M  V30 4475 C 417.961 -2.41593 2.67029 0
M  V30 4476 C 417.814 -1.84408 4.10261 0
M  V30 4477 C 419.133 -3.43488 2.75143 0
M  V30 4478 H 416.252 -0.475031 0.563485 0
M  V30 4479 H 418.894 -0.616454 1.79722 0
M  V30 4480 H 417.044 -3.00772 2.45904 0
M  V30 4481 H 418.716 -1.29445 4.42766 0
M  V30 4482 H 416.959 -1.15051 4.18265 0
M  V30 4483 H 417.63 -2.64367 4.84576 0
M  V30 4484 H 420.106 -2.94236 2.94218 0
M  V30 4485 H 418.982 -4.18274 3.55441 0
M  V30 4486 H 419.243 -4.02703 1.82435 0
M  V30 4487 N 418.302 -1.35869 -0.798587 0
M  V30 4488 C 419.232 -1.32118 -1.92528 0
M  V30 4489 C 420.213 -0.194209 -1.68988 0
M  V30 4490 O 421.398 -0.390426 -1.90235 0
M  V30 4491 C 418.528 -1.10047 -3.29404 0
M  V30 4492 C 417.482 -2.19471 -3.67446 0
M  V30 4493 C 416.808 -1.82555 -5.02571 0
M  V30 4494 C 418.108 -3.61495 -3.76987 0
M  V30 4495 H 419.802 -2.26394 -1.95924 0
M  V30 4496 H 417.348 -1.08981 -0.94123 0
M  V30 4497 H 419.301 -1.06061 -4.07835 0
M  V30 4498 H 418.025 -0.122195 -3.26371 0
M  V30 4499 H 416.684 -2.22568 -2.91306 0
M  V30 4500 H 416.332 -0.833249 -4.9605 0
M  V30 4501 H 416.032 -2.5581 -5.28995 0
M  V30 4502 H 417.556 -1.80108 -5.83432 0
M  V30 4503 H 418.97 -3.60676 -4.4563 0
M  V30 4504 H 417.367 -4.33577 -4.14887 0
M  V30 4505 H 418.437 -3.97065 -2.78329 0
M  V30 4506 N 419.78 1.02168 -1.19998 0
M  V30 4507 C 421.01 1.79036 -1.031 0
M  V30 4508 C 421.418 1.84409 0.423078 0
M  V30 4509 O 420.761 1.29228 1.30559 0
M  V30 4510 C 420.823 3.25185 -1.53281 0
M  V30 4511 C 420.487 3.43431 -3.01503 0
M  V30 4512 C 421.484 3.33063 -3.99206 0
M  V30 4513 C 419.169 3.69412 -3.40353 0
M  V30 4514 C 421.163 3.48413 -5.33748 0
M  V30 4515 C 418.85 3.84406 -4.75053 0
M  V30 4516 C 419.848 3.7391 -5.71559 0
M  V30 4517 O 419.536 3.88452 -7.03818 0
M  V30 4518 H 419.268 0.570043 -0.363355 0
M  V30 4519 H 421.822 1.29524 -1.59414 0
M  V30 4520 H 420.052 3.75756 -0.913483 0
M  V30 4521 H 421.741 3.83671 -1.32481 0
M  V30 4522 H 422.507 3.12934 -3.70537 0
M  V30 4523 H 418.386 3.76671 -2.65782 0
M  V30 4524 H 421.93 3.40137 -6.09059 0
M  V30 4525 H 417.827 4.04035 -5.03415 0
M  V30 4526 H 418.595 4.055 -7.10993 0
M  V30 4527 N 421.258 1.00505 1.21394 0
M  V30 4528 C 422.221 0.570459 2.21987 0
M  V30 4529 C 423.221 -0.353211 1.56873 0
M  V30 4530 O 424.411 -0.14349 1.73608 0
M  V30 4531 C 421.543 -0.168555 3.40483 0
M  V30 4532 H 422.736 1.46021 2.6195 0
M  V30 4533 H 420.289 0.793565 1.34656 0
M  V30 4534 H 421.024 -1.07374 3.06009 0
M  V30 4535 H 420.809 0.494823 3.88965 0
M  V30 4536 H 422.299 -0.460362 4.15055 0
M  V30 4537 N 422.737 -1.36956 0.779787 0
M  V30 4538 C 423.977 -2.01328 0.353043 0
M  V30 4539 C 424.341 -1.60558 -1.05286 0
M  V30 4540 O 425.542 -2.1745 -1.58016 0
M  V30 4541 C 423.813 -3.53874 0.500822 0
M  V30 4542 S 425.372 -4.38506 0.16053 0
M  V30 4543 H 422.19 -0.69799 0.13539 0
M  V30 4544 H 424.792 -1.67016 1.01617 0
M  V30 4545 H 423.496 -3.81034 1.52451 0
M  V30 4546 H 423.027 -3.92994 -0.178574 0
M  V30 4547 H 425.042 -4.85153 -1.04121 0
M  V30 4548 N 424.215 -0.530993 -1.48385 0
M  V30 4549 C 425.178 0.220497 -2.28137 0
M  V30 4550 C 426.178 0.866851 -1.35434 0
M  V30 4551 O 427.368 0.726746 -1.58316 0
M  V30 4552 C 424.5 1.31921 -3.1434 0
M  V30 4553 H 425.693 -0.479714 -2.96038 0
M  V30 4554 H 423.246 -0.286968 -1.53643 0
M  V30 4555 H 423.981 2.05264 -2.51072 0
M  V30 4556 H 423.766 0.86085 -3.82533 0
M  V30 4557 H 425.256 1.84776 -3.74497 0
M  V30 4558 N 425.693 1.55336 -0.266172 0
M  V30 4559 C 426.941 1.99003 0.35246 0
M  V30 4560 C 427.262 1.15591 1.57047 0
M  V30 4561 O 426.532 0.243268 1.94384 0
M  V30 4562 H 425.112 0.735025 0.133217 0
M  V30 4563 H 427.774 1.91367 -0.369434 0
M  V30 4564 H 426.87 3.05289 0.648453 0
M  V30 4565 N 427.171 -0.0066808 1.57599 0
M  V30 4566 C 428.419 -0.691552 1.899 0
M  V30 4567 C 428.74 -1.74682 0.866672 0
M  V30 4568 O 428.01 -1.95661 -0.0968189 0
M  V30 4569 H 426.59 -0.258416 0.700878 0
M  V30 4570 H 429.252 0.0326655 1.94873 0
M  V30 4571 H 428.348 -1.16702 2.8946 0
M  V30 4572 N 428.649 -1.55105 -0.279332 0
M  V30 4573 C 429.897 -1.75066 -1.00977 0
M  V30 4574 C 430.218 -0.551276 -1.87045 0
M  V30 4575 O 429.488 0.433984 -1.91032 0
M  V30 4576 H 428.068 -0.645578 -0.375816 0
M  V30 4577 H 430.73 -1.92497 -0.305089 0
M  V30 4578 H 429.826 -2.64894 -1.65038 0
M  V30 4579 N 430.127 0.543554 -1.4793 0
M  V30 4580 C 431.057 1.65888 -1.64327 0
M  V30 4581 C 432.038 1.62818 -0.492383 0
M  V30 4582 O 433.223 1.80226 -0.723338 0
M  V30 4583 C 430.353 3.04506 -1.67013 0
M  V30 4584 C 429.307 3.2243 -2.81466 0
M  V30 4585 C 428.633 4.61972 -2.69233 0
M  V30 4586 C 429.933 3.06496 -4.22915 0
M  V30 4587 H 431.627 1.52421 -2.57698 0
M  V30 4588 H 429.173 0.731849 -1.24016 0
M  V30 4589 H 431.126 3.82391 -1.77074 0
M  V30 4590 H 429.85 3.18964 -0.70212 0
M  V30 4591 H 428.509 2.46957 -2.70938 0
M  V30 4592 H 428.157 4.73247 -1.7043 0
M  V30 4593 H 427.857 4.74911 -3.46025 0
M  V30 4594 H 429.381 5.41974 -2.81242 0
M  V30 4595 H 430.795 3.74186 -4.34348 0
M  V30 4596 H 429.192 3.30938 -5.006 0
M  V30 4597 H 430.262 2.03077 -4.40327 0
M  V30 4598 N 431.605 1.3629 0.791371 0
M  V30 4599 C 432.535 1.33137 1.91825 0
M  V30 4600 C 433.516 0.203168 1.68882 0
M  V30 4601 O 434.701 0.400509 1.90025 0
M  V30 4602 C 431.831 1.11793 3.28816 0
M  V30 4603 C 430.785 2.21417 3.66277 0
M  V30 4604 C 430.111 1.85218 5.01596 0
M  V30 4605 C 431.411 3.63489 3.75064 0
M  V30 4606 H 433.105 2.2743 1.9472 0
M  V30 4607 H 430.651 1.09479 0.935437 0
M  V30 4608 H 432.604 1.08222 4.07266 0
M  V30 4609 H 431.328 0.139501 3.26302 0
M  V30 4610 H 429.987 2.2411 2.90121 0
M  V30 4611 H 429.635 0.859544 4.95602 0
M  V30 4612 H 429.335 2.58611 5.27631 0
M  V30 4613 H 430.859 1.832 5.82469 0
M  V30 4614 H 432.273 3.63034 4.43711 0
M  V30 4615 H 430.67 4.35771 4.12582 0
M  V30 4616 H 431.74 3.98536 2.76219 0
M  V30 4617 N 433.083 -1.0153 1.20538 0
M  V30 4618 C 434.499 -1.27461 0.96051 0
M  V30 4619 C 434.699 -1.98273 -0.359193 0
M  V30 4620 O 433.755 -2.27886 -1.0874 0
M  V30 4621 C 435.068 -2.10837 2.14402 0
M  V30 4622 C 436.616 -2.24099 2.18515 0
M  V30 4623 C 437.091 -3.10852 3.36355 0
M  V30 4624 N 438.582 -3.18441 3.36377 0
M  V30 4625 C 439.317 -3.85795 4.24205 0
M  V30 4626 N 438.813 -4.55264 5.22213 0
M  V30 4627 N 440.606 -3.82331 4.12043 0
M  V30 4628 H 432.757 -0.539907 2.05423 0
M  V30 4629 H 435.02 -0.30092 0.898972 0
M  V30 4630 H 434.726 -1.66144 3.09983 0
M  V30 4631 H 434.6 -3.11576 2.12604 0
M  V30 4632 H 436.987 -2.68016 1.23497 0
M  V30 4633 H 437.068 -1.22865 2.24361 0
M  V30 4634 H 436.712 -2.6764 4.31661 0
M  V30 4635 H 436.642 -4.12177 3.27746 0
M  V30 4636 H 439.133 -2.68978 2.65442 0
M  V30 4637 H 439.446 -5.04331 5.85551 0
M  V30 4638 H 437.791 -4.54085 5.26148 0
M  V30 4639 H 440.982 -3.27207 3.34743 0
M  V30 4640 H 441.155 -4.34547 4.807 0
M  V30 4641 N 434.561 -1.01147 -1.20859 0
M  V30 4642 C 435.786 -0.716698 -1.94623 0
M  V30 4643 C 436.211 0.715415 -1.73964 0
M  V30 4644 O 435.569 1.49157 -1.03062 0
M  V30 4645 C 435.617 -1.0513 -3.44935 0
M  V30 4646 O 434.721 -0.160131 -4.12089 0
M  V30 4647 H 434.062 -0.266404 -0.608214 0
M  V30 4648 H 436.592 -1.35346 -1.53436 0
M  V30 4649 H 436.602 -1.00086 -3.95533 0
M  V30 4650 H 435.277 -2.09475 -3.59295 0
M  V30 4651 H 433.854 -0.267657 -3.71938 0
M  V30 4652 N 436.039 1.36541 -0.78704 0
M  V30 4653 C 437.002 2.28413 -0.189778 0
M  V30 4654 C 438.002 1.48719 0.611499 0
M  V30 4655 O 439.192 1.68737 0.432842 0
M  V30 4656 C 436.324 3.32824 0.737638 0
M  V30 4657 H 437.517 2.82743 -0.999831 0
M  V30 4658 H 435.07 1.46065 -0.556298 0
M  V30 4659 H 435.805 2.83646 1.57212 0
M  V30 4660 H 435.59 3.91752 0.165044 0
M  V30 4661 H 437.08 4.0144 1.15047 0
M  V30 4662 N 437.518 0.538854 1.48102 0
M  V30 4663 C 438.766 0.00798599 2.02098 0
M  V30 4664 C 439.087 -1.33922 1.41739 0
M  V30 4665 O 438.357 -1.86932 0.585934 0
M  V30 4666 H 436.937 -3.62179e-05 0.747 0
M  V30 4667 H 439.599 0.7047 1.81714 0
M  V30 4668 H 438.695 -0.0937672 3.11959 0
M  V30 4669 N 438.996 -1.55193 0.274407 0
M  V30 4670 C 440.242 -1.99877 -0.343086 0
M  V30 4671 C 440.575 -1.16256 -1.55558 0
M  V30 4672 O 439.85 -0.232462 -1.93106 0
M  V30 4673 C 440.133 -3.52706 -0.725965 0
M  V30 4674 C 439.986 -4.47081 0.493818 0
M  V30 4675 C 441.305 -4.11422 -1.56268 0
M  V30 4676 H 438.424 -0.726625 -0.123229 0
M  V30 4677 H 441.066 -1.86136 0.38121 0
M  V30 4678 H 439.216 -3.64546 -1.34307 0
M  V30 4679 H 440.888 -4.47186 1.13237 0
M  V30 4680 H 439.131 -4.1877 1.13201 0
M  V30 4681 H 439.802 -5.51699 0.18217 0
M  V30 4682 H 442.278 -4.02855 -1.04151 0
M  V30 4683 H 441.154 -5.18568 -1.79939 0
M  V30 4684 H 441.415 -3.61607 -2.54348 0
M  V30 4685 N 440.474 -0.00167713 -1.576 0
M  V30 4686 C 441.722 0.681471 -1.90264 0
M  V30 4687 C 442.043 1.7422 -0.875924 0
M  V30 4688 O 441.313 1.95709 0.0864412 0
M  V30 4689 H 439.893 0.254696 -0.702239 0
M  V30 4690 H 442.555 -0.0429996 -1.94853 0
M  V30 4691 H 441.651 1.15166 -2.90075 0
M  V30 4692 N 441.952 1.55251 0.271103 0
M  V30 4693 C 443.199 1.75946 1.00245 0
M  V30 4694 C 443.527 0.561611 1.86215 0
M  V30 4695 O 442.782 -0.455832 1.90317 0
M  V30 4696 C 443.081 3.01879 1.91321 0
M  V30 4697 C 442.747 4.34337 1.21086 0
M  V30 4698 C 441.409 4.70338 1.01666 0
M  V30 4699 C 443.761 5.16325 0.71119 0
M  V30 4700 C 441.089 5.8588 0.310099 0
M  V30 4701 C 443.441 6.32597 0.0182157 0
M  V30 4702 C 442.105 6.67236 -0.18768 0
M  V30 4703 H 441.375 0.643833 0.366824 0
M  V30 4704 H 444.022 1.89521 0.27458 0
M  V30 4705 H 442.327 2.83212 2.70736 0
M  V30 4706 H 444.024 3.15088 2.48033 0
M  V30 4707 H 440.614 4.06043 1.37213 0
M  V30 4708 H 444.798 4.88987 0.848844 0
M  V30 4709 H 440.054 6.1124 0.139873 0
M  V30 4710 H 444.228 6.9538 -0.376711 0
M  V30 4711 H 441.855 7.56618 -0.73715 0
M  V30 4712 N 443.43 -0.535701 1.48216 0
M  V30 4713 C 444.676 -1.29375 1.56173 0
M  V30 4714 C 445.009 -1.92804 0.232429 0
M  V30 4715 O 444.284 -1.78992 -0.761048 0
M  V30 4716 C 444.567 -2.38747 2.69577 0
M  V30 4717 C 444.42 -1.80046 4.12193 0
M  V30 4718 C 445.739 -3.40551 2.78771 0
M  V30 4719 H 442.858 -0.469027 0.568491 0
M  V30 4720 H 445.5 -0.597358 1.80365 0
M  V30 4721 H 443.65 -2.98147 2.4908 0
M  V30 4722 H 445.322 -1.24742 4.44114 0
M  V30 4723 H 443.565 -1.10609 4.19462 0
M  V30 4724 H 444.236 -2.59212 4.87353 0
M  V30 4725 H 446.712 -2.91099 2.97322 0
M  V30 4726 H 445.588 -4.1448 3.59857 0
M  V30 4727 H 445.849 -4.00746 1.86696 0
M  V30 4728 N 444.908 -1.36708 -0.784132 0
M  V30 4729 C 445.871 -1.31307 -1.87859 0
M  V30 4730 C 446.871 -0.219654 -1.59293 0
M  V30 4731 O 448.061 -0.47476 -1.67606 0
M  V30 4732 C 445.193 -1.03679 -3.24751 0
M  V30 4733 H 446.386 -2.28647 -1.94064 0
M  V30 4734 H 443.939 -1.21558 -0.98252 0
M  V30 4735 H 444.674 -0.0681936 -3.24228 0
M  V30 4736 H 444.459 -1.82811 -3.46876 0
M  V30 4737 H 445.949 -1.02518 -4.04821 0
M  V30 4738 N 446.386 1.0089 -1.21074 0
M  V30 4739 C 447.333 2.09588 -0.966512 0
M  V30 4740 C 448.303 1.65761 0.106089 0
M  V30 4741 O 449.488 1.90758 -0.0402287 0
M  V30 4742 C 446.628 3.40958 -0.533058 0
M  V30 4743 C 445.741 3.9822 -1.67467 0
M  V30 4744 C 444.876 5.17682 -1.19076 0
M  V30 4745 C 443.915 5.67043 -2.30496 0
M  V30 4746 N 443.052 6.77759 -1.83267 0
M  V30 4747 H 447.892 2.29815 -1.89708 0
M  V30 4748 H 445.429 1.12689 -0.945489 0
M  V30 4749 H 447.387 4.1637 -0.263019 0
M  V30 4750 H 446.017 3.20781 0.360505 0
M  V30 4751 H 445.069 3.1983 -2.05944 0
M  V30 4752 H 446.381 4.3085 -2.51336 0
M  V30 4753 H 445.535 6.00326 -0.877151 0
M  V30 4754 H 444.274 4.86635 -0.322066 0
M  V30 4755 H 443.279 4.82999 -2.62664 0
M  V30 4756 H 444.504 6.00121 -3.17855 0
M  V30 4757 H 442.45 6.48527 -0.987356 0
M  V30 4758 H 442.367 7.09624 -2.60711 0
M  V30 4759 H 443.635 7.63949 -1.54928 0
M  V30 4760 N 447.864 1.01787 1.20321 0
M  V30 4761 C 448.794 0.609625 2.25401 0
M  V30 4762 C 449.775 -0.375951 1.65893 0
M  V30 4763 O 450.96 -0.261101 1.92437 0
M  V30 4764 C 448.09 -0.0515995 3.47262 0
M  V30 4765 C 447.044 0.855095 4.19371 0
M  V30 4766 C 446.37 0.0595757 5.34667 0
M  V30 4767 C 447.67 2.16374 4.75373 0
M  V30 4768 H 449.364 1.48803 2.59804 0
M  V30 4769 H 446.91 0.716934 1.24884 0
M  V30 4770 H 448.863 -0.348764 4.19954 0
M  V30 4771 H 447.587 -0.964726 3.12027 0
M  V30 4772 H 446.246 1.13628 3.48546 0
M  V30 4773 H 445.894 -0.85524 4.95676 0
M  V30 4774 H 445.594 0.663406 5.83843 0
M  V30 4775 H 447.118 -0.231105 6.10162 0
M  V30 4776 H 448.532 1.92885 5.39878 0
M  V30 4777 H 446.929 2.71853 5.34991 0
M  V30 4778 H 447.999 2.82589 3.94045 0
M  V30 4779 N 449.342 -1.36122 0.79427 0
M  V30 4780 C 450.272 -2.32551 0.210328 0
M  V30 4781 C 451.253 -1.56884 -0.657386 0
M  V30 4782 O 452.438 -1.85014 -0.590207 0
M  V30 4783 C 449.568 -3.41128 -0.651819 0
M  V30 4784 C 448.522 -4.27842 0.116395 0
M  V30 4785 C 447.848 -5.2763 -0.86666 0
M  V30 4786 C 449.148 -5.05647 1.30837 0
M  V30 4787 H 450.842 -2.81636 1.01594 0
M  V30 4788 H 448.388 -1.35407 0.489981 0
M  V30 4789 H 450.341 -4.07581 -1.07031 0
M  V30 4790 H 449.065 -2.90622 -1.49019 0
M  V30 4791 H 447.724 -3.62952 0.515915 0
M  V30 4792 H 447.372 -4.73395 -1.70019 0
M  V30 4793 H 447.072 -5.86514 -0.35705 0
M  V30 4794 H 448.596 -5.96955 -1.28361 0
M  V30 4795 H 450.01 -5.65113 0.965393 0
M  V30 4796 H 448.407 -5.73967 1.75161 0
M  V30 4797 H 449.477 -4.37006 2.10128 0
M  V30 4798 N 450.82 -0.546701 -1.47814 0
M  V30 4799 C 451.73 0.21026 -2.33656 0
M  V30 4800 C 452.746 0.922413 -1.47538 0
M  V30 4801 O 453.922 0.893652 -1.80488 0
M  V30 4802 C 450.987 1.23348 -3.24016 0
M  V30 4803 C 450.048 0.529883 -4.26017 0
M  V30 4804 C 449.281 1.50435 -5.12059 0
M  V30 4805 O 449.504 2.73837 -5.00369 0
M  V30 4806 O 448.438 1.03459 -5.92942 0
M  V30 4807 H 452.264 -0.493605 -2.99662 0
M  V30 4808 H 449.849 -0.307427 -1.46203 0
M  V30 4809 H 451.731 1.82438 -3.79861 0
M  V30 4810 H 450.406 1.91945 -2.60651 0
M  V30 4811 H 449.313 -0.101948 -3.73961 0
M  V30 4812 H 450.646 -0.11445 -4.92067 0
M  V30 4813 N 452.299 1.55045 -0.282633 0
M  V30 4814 C 453.547 1.99365 0.331334 0
M  V30 4815 C 453.868 1.1725 1.55812 0
M  V30 4816 O 453.138 0.263871 1.94115 0
M  V30 4817 H 451.718 0.736397 0.125414 0
M  V30 4818 H 454.38 1.90964 -0.389711 0
M  V30 4819 H 453.476 3.0596 0.616036 0
M  V30 4820 N 453.777 0.010035 1.57597 0
M  V30 4821 C 455.005 -0.683413 1.95287 0
M  V30 4822 C 455.42 -1.66747 0.885481 0
M  V30 4823 O 454.777 -1.82003 -0.134629 0
M  V30 4824 C 454.828 -1.40652 3.33015 0
M  V30 4825 O 454.549 -0.461916 4.35658 0
M  V30 4826 C 456.05 -2.19356 3.85225 0
M  V30 4827 H 453.27 -0.189708 0.643624 0
M  V30 4828 H 455.814 0.0641359 2.04399 0
M  V30 4829 H 453.969 -2.10562 3.2518 0
M  V30 4830 H 454.383 -0.973215 5.15392 0
M  V30 4831 H 455.857 -2.65433 4.83993 0
M  V30 4832 H 456.334 -3.02457 3.18459 0
M  V30 4833 H 456.94 -1.54442 3.96267 0
M  V30 4834 N 455.255 -1.55392 -0.262866 0
M  V30 4835 C 456.503 -1.76127 -0.991147 0
M  V30 4836 C 456.824 -0.571083 -1.8645 0
M  V30 4837 O 456.094 0.413698 -1.91482 0
M  V30 4838 H 454.674 -0.649528 -0.368948 0
M  V30 4839 H 457.336 -1.9281 -0.284655 0
M  V30 4840 H 456.432 -2.6663 -1.62219 0
M  V30 4841 N 456.733 0.527833 -1.48498 0
M  V30 4842 C 457.958 1.313 -1.60546 0
M  V30 4843 C 458.383 1.86199 -0.26672 0
M  V30 4844 O 457.741 1.64513 0.761918 0
M  V30 4845 C 457.789 2.43818 -2.65678 0
M  V30 4846 O 456.893 3.46916 -2.22987 0
M  V30 4847 H 456.234 0.388784 -0.538277 0
M  V30 4848 H 458.764 0.634896 -1.945 0
M  V30 4849 H 458.774 2.89973 -2.87018 0
M  V30 4850 H 457.449 2.03222 -3.62869 0
M  V30 4851 H 456.026 3.06864 -2.11869 0
M  V30 4852 N 458.211 1.37122 0.776871 0
M  V30 4853 C 459.121 1.34651 1.9211 0
M  V30 4854 C 460.137 0.246824 1.7224 0
M  V30 4855 O 461.313 0.48134 1.95563 0
M  V30 4856 C 458.378 1.14748 3.2716 0
M  V30 4857 C 457.439 2.34308 3.5972 0
M  V30 4858 C 456.672 2.15345 4.88326 0
M  V30 4859 O 456.895 1.13507 5.58992 0
M  V30 4860 O 455.829 3.03414 5.1983 0
M  V30 4861 H 459.655 2.31013 1.97146 0
M  V30 4862 H 457.24 1.17799 0.918901 0
M  V30 4863 H 459.122 1.05616 4.0795 0
M  V30 4864 H 457.797 0.214562 3.22988 0
M  V30 4865 H 456.704 2.49011 2.79185 0
M  V30 4866 H 458.037 3.26149 3.68629 0
M  V30 4867 N 459.689 -1.00246 1.21608 0
M  V30 4868 C 460.652 -2.07233 0.979133 0
M  V30 4869 C 461.652 -1.6072 -0.0508219 0
M  V30 4870 O 462.842 -1.73196 0.186712 0
M  V30 4871 C 459.974 -3.37546 0.477016 0
M  V30 4872 H 461.167 -2.29687 1.92831 0
M  V30 4873 H 458.72 -1.17261 1.03342 0
M  V30 4874 H 459.455 -3.20773 -0.476966 0
M  V30 4875 H 459.24 -3.72638 1.21997 0
M  V30 4876 H 460.73 -4.16285 0.331181 0
M  V30 4877 N 461.167 -1.02423 -1.1978 0
M  V30 4878 C 462.392 -0.7373 -1.93852 0
M  V30 4879 C 462.817 0.696923 -1.74713 0
M  V30 4880 O 462.175 1.48056 -1.04638 0
M  V30 4881 C 462.223 -1.08783 -3.438 0
M  V30 4882 O 461.327 -0.20383 -4.11896 0
M  V30 4883 H 460.668 -0.27284 -0.605355 0
M  V30 4884 H 463.198 -1.36966 -1.51992 0
M  V30 4885 H 463.208 -1.04276 -3.9445 0
M  V30 4886 H 461.883 -2.13274 -3.57053 0
M  V30 4887 H 460.46 -0.307091 -3.71633 0
M  V30 4888 N 462.645 1.35699 -0.801477 0
M  V30 4889 C 463.87 2.03687 -0.390678 0
M  V30 4890 C 464.295 1.60015 0.988778 0
M  V30 4891 O 463.653 0.774357 1.63931 0
M  V30 4892 C 463.701 3.57439 -0.476404 0
M  V30 4893 O 462.805 4.09208 0.512106 0
M  V30 4894 H 462.146 0.64344 -0.163956 0
M  V30 4895 H 464.676 1.73403 -1.08594 0
M  V30 4896 H 464.686 4.06544 -0.344357 0
M  V30 4897 H 463.361 3.88576 -1.48262 0
M  V30 4898 H 461.938 3.7134 0.340721 0
M  V30 4899 N 464.123 0.554532 1.47522 0
M  V30 4900 C 465.351 0.034257 2.06872 0
M  V30 4901 C 465.766 -1.25826 1.40759 0
M  V30 4902 O 465.123 -1.75425 0.503217 0
M  V30 4903 C 465.174 -0.167827 3.6111 0
M  V30 4904 O 464.895 1.07351 4.24744 0
M  V30 4905 C 466.396 -0.72569 4.3732 0
M  V30 4906 H 463.616 0.0446275 0.669514 0
M  V30 4907 H 466.16 0.767181 1.89564 0
M  V30 4908 H 464.315 -0.850872 3.7794 0
M  V30 4909 H 464.729 0.869563 5.17242 0
M  V30 4910 H 466.203 -0.816394 5.45929 0
M  V30 4911 H 466.68 -1.73635 4.0342 0
M  V30 4912 H 467.286 -0.0784292 4.25228 0
M  V30 4913 N 465.601 -1.54893 0.290851 0
M  V30 4914 C 467.017 -1.59476 -0.0628432 0
M  V30 4915 C 467.217 -1.30795 -1.5328 0
M  V30 4916 O 466.273 -1.07644 -2.28406 0
M  V30 4917 C 467.586 -2.98928 0.325962 0
M  V30 4918 C 469.134 -3.11799 0.273882 0
M  V30 4919 C 469.609 -4.53544 0.637359 0
M  V30 4920 N 471.1 -4.59433 0.589507 0
M  V30 4921 C 471.835 -5.67164 0.84335 0
M  V30 4922 N 471.331 -6.82975 1.16263 0
M  V30 4923 N 473.124 -5.56786 0.771091 0
M  V30 4924 H 465.275 -1.71798 1.24896 0
M  V30 4925 H 467.538 -0.801879 0.505663 0
M  V30 4926 H 467.244 -3.24805 1.34887 0
M  V30 4927 H 467.118 -3.75793 -0.325441 0
M  V30 4928 H 469.505 -2.85677 -0.739765 0
M  V30 4929 H 469.586 -2.37112 0.959766 0
M  V30 4930 H 469.23 -4.80394 1.64877 0
M  V30 4931 H 469.16 -5.26553 -0.0704866 0
M  V30 4932 H 471.651 -3.76245 0.353252 0
M  V30 4933 H 471.964 -7.61048 1.34257 0
M  V30 4934 H 470.309 -6.84552 1.20057 0
M  V30 4935 H 473.5 -4.65187 0.521383 0
M  V30 4936 H 473.673 -6.40664 0.972295 0
M  V30 4937 N 467.08 -0.0183926 -1.57589 0
M  V30 4938 C 468.496 0.337897 -1.55982 0
M  V30 4939 C 468.696 1.73604 -1.02294 0
M  V30 4940 O 467.752 2.43589 -0.664895 0
M  V30 4941 C 469.065 0.196305 -3.00059 0
M  V30 4942 C 470.613 0.269875 -3.11834 0
M  V30 4943 C 471.088 0.157197 -4.5773 0
M  V30 4944 N 472.579 0.214521 -4.62703 0
M  V30 4945 C 473.314 0.150955 -5.73201 0
M  V30 4946 N 472.81 0.0369212 -6.9279 0
M  V30 4947 N 474.603 0.204162 -5.61729 0
M  V30 4948 H 466.754 -0.93279 -1.90821 0
M  V30 4949 H 469.017 -0.359253 -0.877292 0
M  V30 4950 H 468.723 -0.766383 -3.43248 0
M  V30 4951 H 468.597 0.970908 -3.6449 0
M  V30 4952 H 470.984 1.22302 -2.68563 0
M  V30 4953 H 471.065 -0.534918 -2.50144 0
M  V30 4954 H 470.709 -0.792479 -5.01679 0
M  V30 4955 H 470.639 0.980717 -5.17387 0
M  V30 4956 H 473.13 0.303238 -3.76681 0
M  V30 4957 H 473.443 -0.00518321 -7.728 0
M  V30 4958 H 471.788 0.0022886 -6.95 0
M  V30 4959 H 474.979 0.291575 -4.67191 0
M  V30 4960 H 475.152 0.15116 -6.47824 0
M  V30 4961 N 468.558 1.5553 0.254621 0
M  V30 4962 C 469.806 1.7665 0.981793 0
M  V30 4963 C 470.127 0.580963 1.86145 0
M  V30 4964 O 469.397 -0.403537 1.91699 0
M  V30 4965 H 467.977 0.651475 0.365498 0
M  V30 4966 H 470.639 1.92958 0.274426 0
M  V30 4967 H 469.735 2.67486 1.60802 0
M  V30 4968 N 470.036 -0.519951 1.48776 0
M  V30 4969 C 471.284 -1.2727 1.56993 0
M  V30 4970 C 471.605 -1.9339 0.25004 0
M  V30 4971 O 470.875 -1.81822 -0.729216 0
M  V30 4972 H 469.455 -0.472732 0.578389 0
M  V30 4973 H 472.117 -0.604234 1.85297 0
M  V30 4974 H 471.213 -2.04669 2.3562 0
M  V30 4975 N 471.514 -1.37532 -0.769588 0
M  V30 4976 C 472.739 -1.36231 -1.56384 0
M  V30 4977 C 473.164 0.0495849 -1.88035 0
M  V30 4978 O 472.522 1.02723 -1.49391 0
M  V30 4979 C 472.57 -2.20986 -2.84952 0
M  V30 4980 O 471.674 -1.61597 -3.79421 0
M  V30 4981 H 471.015 -0.465387 -0.473615 0
M  V30 4982 H 473.545 -1.81085 -0.952342 0
M  V30 4983 H 473.555 -2.34277 -3.34034 0
M  V30 4984 H 472.23 -3.23612 -2.61243 0
M  V30 4985 H 470.807 -1.57359 -3.38072 0
M  V30 4986 N 472.992 0.995999 -1.22138 0
M  V30 4987 C 473.922 2.10387 -1.01289 0
M  V30 4988 C 474.903 1.69975 0.0651454 0
M  V30 4989 O 476.088 1.9396 -0.0964628 0
M  V30 4990 C 473.218 3.42312 -0.586517 0
M  V30 4991 C 472.172 3.96558 -1.61014 0
M  V30 4992 C 471.498 5.24494 -1.0397 0
M  V30 4993 C 472.798 4.27595 -2.99933 0
M  V30 4994 H 474.492 2.28086 -1.93951 0
M  V30 4995 H 472.038 1.09607 -0.933928 0
M  V30 4996 H 473.991 4.19223 -0.427793 0
M  V30 4997 H 472.715 3.24431 0.375761 0
M  V30 4998 H 471.374 3.21776 -1.75658 0
M  V30 4999 H 471.022 5.02953 -0.0688703 0
M  V30 5000 H 470.722 5.61755 -1.72352 0
M  V30 5001 H 472.246 6.04042 -0.892494 0
M  V30 5002 H 473.66 4.95315 -2.8868 0
M  V30 5003 H 472.057 4.76021 -3.6541 0
M  V30 5004 H 473.127 3.35498 -3.50099 0
M  V30 5005 N 474.47 1.03057 1.19235 0
M  V30 5006 C 475.718 0.726581 1.88587 0
M  V30 5007 C 476.039 -0.747227 1.80115 0
M  V30 5008 O 475.309 -1.53849 1.21274 0
M  V30 5009 H 473.889 0.265768 0.698124 0
M  V30 5010 H 476.551 1.30516 1.44746 0
M  V30 5011 H 475.647 1.0224 2.94879 0
M  V30 5012 N 475.948 -1.35272 0.808662 0
M  V30 5013 C 476.88 -2.28507 0.178149 0
M  V30 5014 C 477.893 -1.50377 -0.623754 0
M  V30 5015 O 479.082 -1.72583 -0.455774 0
M  V30 5016 C 476.182 -3.30038 -0.769959 0
M  V30 5017 C 475.355 -4.37398 -0.0139749 0
M  V30 5018 C 474.414 -5.18775 -0.880875 0
M  V30 5019 O 473.44 -5.68236 -0.331059 0
M  V30 5020 N 474.642 -5.37087 -2.20267 0
M  V30 5021 H 477.407 -2.83255 0.979106 0
M  V30 5022 H 474.968 -1.47643 0.664308 0
M  V30 5023 H 476.96 -3.81371 -1.35418 0
M  V30 5024 H 475.53 -2.75789 -1.47171 0
M  V30 5025 H 474.75 -3.86971 0.751468 0
M  V30 5026 H 476.038 -5.06268 0.506965 0
M  V30 5027 H 475.436 -4.9855 -2.67328 0
M  V30 5028 H 473.993 -5.91593 -2.73608 0
M  V30 5029 N 477.426 -0.562348 -1.47226 0
M  V30 5030 C 478.654 -0.0452275 -2.06851 0
M  V30 5031 C 479.069 1.25078 -1.41424 0
M  V30 5032 O 478.426 1.75156 -0.512513 0
M  V30 5033 C 478.477 0.148674 -3.61194 0
M  V30 5034 O 478.198 -1.09602 -4.24169 0
M  V30 5035 C 479.699 0.702488 -4.37699 0
M  V30 5036 H 476.919 -0.0481775 -0.669268 0
M  V30 5037 H 479.463 -0.777223 -1.89155 0
M  V30 5038 H 477.618 0.830817 -3.78386 0
M  V30 5039 H 478.032 -0.896982 -5.16773 0
M  V30 5040 H 479.506 0.78743 -5.46355 0
M  V30 5041 H 479.983 1.71493 -4.04335 0
M  V30 5042 H 480.589 0.0558772 -4.25263 0
M  V30 5043 N 478.904 1.54736 -0.299062 0
M  V30 5044 C 479.867 2.22127 0.565012 0
M  V30 5045 C 480.867 1.20669 1.06281 0
M  V30 5046 O 482.057 1.45417 0.959145 0
M  V30 5047 C 479.189 2.90611 1.78208 0
M  V30 5048 H 480.382 2.99891 -0.0237448 0
M  V30 5049 H 477.935 1.5622 -0.0498788 0
M  V30 5050 H 478.67 2.16921 2.41072 0
M  V30 5051 H 478.455 3.64984 1.43281 0
M  V30 5052 H 479.945 3.42026 2.396 0
M  V30 5053 N 480.382 0.0267497 1.57577 0
M  V30 5054 C 481.798 -0.32962 1.56159 0
M  V30 5055 C 481.998 -1.73059 1.03213 0
M  V30 5056 O 481.054 -2.43233 0.677804 0
M  V30 5057 C 482.367 -0.18039 3.00158 0
M  V30 5058 C 483.915 -0.253334 3.11973 0
M  V30 5059 C 484.39 -0.132921 4.57807 0
M  V30 5060 N 485.881 -0.189979 4.6281 0
M  V30 5061 C 486.616 -0.120554 5.73273 0
M  V30 5062 N 486.112 -0.000180315 6.928 0
M  V30 5063 N 487.905 -0.174369 5.61829 0
M  V30 5064 H 480.056 0.942896 1.90324 0
M  V30 5065 H 482.319 0.3639 0.875375 0
M  V30 5066 H 482.025 0.784576 3.42837 0
M  V30 5067 H 481.899 -0.951565 3.65 0
M  V30 5068 H 484.286 -1.20876 2.69208 0
M  V30 5069 H 484.367 0.548177 2.49857 0
M  V30 5070 H 484.011 0.819073 5.01252 0
M  V30 5071 H 483.941 -0.953264 5.179 0
M  V30 5072 H 486.432 -0.283257 3.76837 0
M  V30 5073 H 486.745 0.0461666 7.72786 0
M  V30 5074 H 485.09 0.034569 6.94991 0
M  V30 5075 H 488.281 -0.266794 4.67339 0
M  V30 5076 H 488.454 -0.116802 6.47895 0
M  V30 5077 N 481.861 -1.55662 -0.24637 0
M  V30 5078 C 483.086 -1.81914 -0.996093 0
M  V30 5079 C 483.511 -0.603875 -1.78143 0
M  V30 5080 O 482.869 0.447091 -1.75701 0
M  V30 5081 C 482.917 -3.05908 -1.90925 0
M  V30 5082 O 482.021 -2.82861 -3.00105 0
M  V30 5083 H 481.362 -0.600481 -0.283406 0
M  V30 5084 H 483.892 -2.02848 -0.267199 0
M  V30 5085 H 483.902 -3.35356 -2.3238 0
M  V30 5086 H 482.577 -3.93999 -1.33183 0
M  V30 5087 H 481.154 -2.64583 -2.62775 0
M  V30 5088 N 483.339 0.512053 -1.4905 0
M  V30 5089 C 484.587 1.26436 -1.57665 0
M  V30 5090 C 484.908 1.93255 -0.260293 0
M  V30 5091 O 484.178 1.82206 0.719564 0
M  V30 5092 H 482.758 0.469658 -0.580888 0
M  V30 5093 H 485.42 0.594398 -1.85615 0
M  V30 5094 H 484.516 2.03417 -2.36702 0
M  V30 5095 N 484.817 1.37938 0.762283 0
M  V30 5096 C 486.228 1.30094 1.33912 0
M  V30 5097 C 486.579 -0.0472026 1.96143 0
M  V30 5098 O 485.704 -0.94917 1.94473 0
M  V30 5099 C 486.299 2.35592 2.43478 0
M  V30 5100 C 484.858 2.31353 2.96905 0
M  V30 5101 C 484.005 2.18919 1.70205 0
M  V30 5102 H 486.956 1.48423 0.561816 0
M  V30 5103 H 486.977 2.00806 3.23199 0
M  V30 5104 H 486.489 3.33701 1.98155 0
M  V30 5105 H 484.59 1.36799 3.46579 0
M  V30 5106 H 484.703 3.25147 3.51875 0
M  V30 5107 H 483.067 1.65624 1.93496 0
M  V30 5108 H 483.85 3.18956 1.26973 0
M  V30 5109 N 486.295 -0.989507 1.22664 0
M  V30 5110 C 487.258 -2.06183 1.00106 0
M  V30 5111 C 488.258 -1.60765 -0.0337726 0
M  V30 5112 O 489.448 -1.72989 0.205072 0
M  V30 5113 C 486.58 -3.37021 0.51279 0
M  V30 5114 H 487.773 -2.27629 1.95256 0
M  V30 5115 H 485.326 -1.16158 1.0458 0
M  V30 5116 H 486.061 -3.21261 -0.442917 0
M  V30 5117 H 485.846 -3.71323 1.25942 0
M  V30 5118 H 487.336 -4.1591 0.375315 0
M  V30 5119 N 487.773 -1.03688 -1.18687 0
M  V30 5120 C 488.736 -0.629115 -2.20397 0
M  V30 5121 C 489.736 0.311495 -1.57754 0
M  V30 5122 O 490.926 0.0974107 -1.73927 0
M  V30 5123 C 488.058 0.0782231 -3.4081 0
M  V30 5124 H 489.251 -1.52915 -2.57987 0
M  V30 5125 H 486.804 -0.828988 -1.32505 0
M  V30 5126 H 487.539 0.992233 -3.08748 0
M  V30 5127 H 487.324 -0.597776 -3.87517 0
M  V30 5128 H 488.814 0.350156 -4.16129 0
M  V30 5129 N 489.251 1.34841 -0.815825 0
M  V30 5130 C 490.181 2.32187 -0.247298 0
M  V30 5131 C 491.162 1.5791 0.632344 0
M  V30 5132 O 492.347 1.8593 0.560698 0
M  V30 5133 C 489.477 3.42122 0.597466 0
M  V30 5134 C 488.431 4.27602 -0.184446 0
M  V30 5135 C 487.757 5.28942 0.782609 0
M  V30 5136 C 489.057 5.03502 -1.38865 0
M  V30 5137 H 490.751 2.79985 -1.06061 0
M  V30 5138 H 488.297 1.34611 -0.511461 0
M  V30 5139 H 490.25 4.09232 1.00533 0
M  V30 5140 H 488.974 2.92956 1.44376 0
M  V30 5141 H 487.633 3.62085 -0.573592 0
M  V30 5142 H 487.281 4.7604 1.62466 0
M  V30 5143 H 486.981 5.87008 0.263695 0
M  V30 5144 H 488.505 5.98922 1.18848 0
M  V30 5145 H 489.919 5.63506 -1.05518 0
M  V30 5146 H 488.316 5.71108 -1.8427 0
M  V30 5147 H 489.386 4.33608 -2.17054 0
M  V30 5148 N 490.729 0.570148 1.46925 0
M  V30 5149 C 491.639 -0.173061 2.33961 0
M  V30 5150 C 492.655 -0.898825 1.48987 0
M  V30 5151 O 493.831 -0.864825 1.81887 0
M  V30 5152 C 490.896 -1.18177 3.25937 0
M  V30 5153 C 489.957 -0.462041 4.26806 0
M  V30 5154 C 489.19 -1.4227 5.14388 0
M  V30 5155 O 489.413 -2.65842 5.04662 0
M  V30 5156 O 488.347 -0.940127 5.94513 0
M  V30 5157 H 492.173 0.541216 2.98839 0
M  V30 5158 H 489.758 0.330647 1.45695 0
M  V30 5159 H 491.64 -1.76372 3.82715 0
M  V30 5160 H 490.315 -1.87774 2.63671 0
M  V30 5161 H 489.222 0.161429 3.73752 0
M  V30 5162 H 490.555 0.192719 4.91823 0
M  V30 5163 N 492.207 -1.54576 0.307264 0
M  V30 5164 C 493.618 -1.8579 -0.184121 0
M  V30 5165 C 493.969 -1.22914 -1.52927 0
M  V30 5166 O 493.094 -0.529126 -2.09831 0
M  V30 5167 C 493.689 -3.37081 -0.340862 0
M  V30 5168 C 492.248 -3.68304 -0.776465 0
M  V30 5169 C 491.395 -2.77076 0.111503 0
M  V30 5170 H 494.346 -1.49656 0.528078 0
M  V30 5171 H 494.367 -3.61922 -1.17443 0
M  V30 5172 H 493.879 -3.82815 0.638309 0
M  V30 5173 H 491.98 -3.28092 -1.76596 0
M  V30 5174 H 492.093 -4.75434 -0.591512 0
M  V30 5175 H 490.457 -2.51374 -0.410256 0
M  V30 5176 H 491.24 -3.25632 1.08714 0
M  V30 5177 N 493.685 -0.035106 -1.57561 0
M  V30 5178 C 494.933 0.64096 -1.91667 0
M  V30 5179 C 495.254 1.72323 -0.912681 0
M  V30 5180 O 494.524 1.95849 0.0449089 0
M  V30 5181 H 493.104 0.239743 -0.707483 0
M  V30 5182 H 495.766 -0.084321 -1.94718 0
M  V30 5183 H 494.862 1.08987 -2.92452 0
M  V30 5184 N 495.163 1.55791 0.238111 0
M  V30 5185 C 496.574 1.68383 0.806472 0
M  V30 5186 C 496.925 0.634157 1.85669 0
M  V30 5187 O 496.05 -0.217913 2.153 0
M  V30 5188 C 496.645 3.05268 1.46959 0
M  V30 5189 C 495.204 3.1977 1.98555 0
M  V30 5190 C 494.351 2.64279 0.839763 0
M  V30 5191 H 497.302 1.58694 0.0137535 0
M  V30 5192 H 497.323 3.00203 2.33792 0
M  V30 5193 H 496.835 3.81643 0.704993 0
M  V30 5194 H 494.936 2.48234 2.77868 0
M  V30 5195 H 495.049 4.26788 2.17689 0
M  V30 5196 H 493.413 2.22329 1.24265 0
M  V30 5197 H 494.196 3.43187 0.0881032 0
M  V30 5198 N 496.642 -0.504142 1.49319 0
M  V30 5199 C 497.867 -1.28729 1.62615 0
M  V30 5200 C 498.292 -1.85752 0.296309 0
M  V30 5201 O 497.65 -1.65704 -0.735649 0
M  V30 5202 C 497.698 -2.39561 2.69524 0
M  V30 5203 O 496.802 -3.43324 2.28478 0
M  V30 5204 H 496.143 -0.380172 0.544395 0
M  V30 5205 H 498.673 -0.603872 1.95485 0
M  V30 5206 H 498.683 -2.8537 2.91595 0
M  V30 5207 H 497.358 -1.97423 3.66056 0
M  V30 5208 H 495.935 -3.03455 2.16725 0
M  V30 5209 N 498.12 -1.38341 -0.754957 0
M  V30 5210 C 499.03 -1.3769 -1.89944 0
M  V30 5211 C 500.046 -0.274194 -1.71826 0
M  V30 5212 O 501.222 -0.512391 -1.94773 0
M  V30 5213 C 498.287 -1.19938 -3.25293 0
M  V30 5214 C 497.348 -2.40001 -3.55946 0
M  V30 5215 C 496.581 -2.23087 -4.84838 0
M  V30 5216 O 496.804 -1.22386 -5.57116 0
M  V30 5217 O 495.738 -3.11646 -5.14937 0
M  V30 5218 H 499.564 -2.3412 -1.93446 0
M  V30 5219 H 497.149 -1.19246 -0.900044 0
M  V30 5220 H 499.031 -1.12093 -4.06218 0
M  V30 5221 H 497.706 -0.265919 -3.22606 0
M  V30 5222 H 496.613 -2.53421 -2.75188 0
M  V30 5223 H 497.946 -3.31973 -3.63394 0
M  V30 5224 N 499.598 0.982988 -1.23187 0
M  V30 5225 C 500.823 1.76455 -1.08988 0
M  V30 5226 C 501.248 1.84726 0.354691 0
M  V30 5227 O 500.606 1.30699 1.25649 0
M  V30 5228 C 500.654 3.17094 -1.71708 0
M  V30 5229 O 499.758 4.00648 -0.977477 0
M  V30 5230 H 499.099 0.542988 -0.382177 0
M  V30 5231 H 501.629 1.23413 -1.63188 0
M  V30 5232 H 501.639 3.67684 -1.76841 0
M  V30 5233 H 500.314 3.10389 -2.76823 0
M  V30 5234 H 498.891 3.59161 -1.0029 0
M  V30 5235 N 501.076 1.04316 1.18135 0
M  V30 5236 C 502.006 0.657299 2.24058 0
M  V30 5237 C 502.987 -0.340678 1.66654 0
M  V30 5238 O 504.172 -0.220223 1.92947 0
M  V30 5239 C 501.302 0.0220715 3.47293 0
M  V30 5240 C 500.256 0.943857 4.17463 0
M  V30 5241 C 499.582 0.172973 5.3442 0
M  V30 5242 C 500.882 2.26409 4.70677 0
M  V30 5243 H 502.576 1.5428 2.56589 0
M  V30 5244 H 500.122 0.743263 1.23335 0
M  V30 5245 H 502.075 -0.259607 4.206 0
M  V30 5246 H 500.799 -0.898323 3.14003 0
M  V30 5247 H 499.458 1.20996 3.46057 0
M  V30 5248 H 499.106 -0.749907 4.97379 0
M  V30 5249 H 498.806 0.787098 5.82304 0
M  V30 5250 H 500.33 -0.101628 6.10515 0
M  V30 5251 H 501.744 2.04294 5.35665 0
M  V30 5252 H 500.141 2.8314 5.29105 0
M  V30 5253 H 501.211 2.90883 3.87962 0
M  V30 5254 N 502.554 -1.34406 0.822964 0
M  V30 5255 C 503.782 -2.02508 0.424039 0
M  V30 5256 C 504.197 -1.61975 -0.970022 0
M  V30 5257 O 503.554 -0.825228 -1.62777 0
M  V30 5258 C 503.605 -3.57789 0.516657 0
M  V30 5259 O 503.326 -3.96853 1.85577 0
M  V30 5260 C 504.827 -4.43157 0.112637 0
M  V30 5261 H 502.047 -0.649063 0.170173 0
M  V30 5262 H 504.591 -1.7168 1.11113 0
M  V30 5263 H 502.746 -3.87207 -0.122353 0
M  V30 5264 H 503.16 -4.91538 1.83005 0
M  V30 5265 H 504.634 -5.51527 0.228526 0
M  V30 5266 H 505.111 -4.28939 -0.943837 0
M  V30 5267 H 505.717 -4.19067 0.725449 0
M  V30 5268 N 504.032 -0.577932 -1.46621 0
M  V30 5269 C 504.995 0.147805 -2.28723 0
M  V30 5270 C 505.995 0.823325 -1.38123 0
M  V30 5271 O 507.185 0.676011 -1.60548 0
M  V30 5272 C 504.317 1.21853 -3.18378 0
M  V30 5273 H 505.51 -0.573654 -2.94362 0
M  V30 5274 H 503.063 -0.335703 -1.52652 0
M  V30 5275 H 503.798 1.97173 -2.57475 0
M  V30 5276 H 503.583 0.738714 -3.85078 0
M  V30 5277 H 505.073 1.72768 -3.80186 0
M  V30 5278 N 505.51 1.54411 -0.315457 0
M  V30 5279 C 506.735 2.05299 0.294496 0
M  V30 5280 C 507.16 1.19052 1.4563 0
M  V30 5281 O 506.518 0.197804 1.80218 0
M  V30 5282 C 506.566 3.5345 0.714549 0
M  V30 5283 O 505.67 3.70175 1.81781 0
M  V30 5284 H 505.011 0.661743 0.0547019 0
M  V30 5285 H 507.541 1.99327 -0.461508 0
M  V30 5286 H 507.551 3.9557 0.999426 0
M  V30 5287 H 506.226 4.1568 -0.135244 0
M  V30 5288 H 504.803 3.3996 1.53236 0
M  V30 5289 N 506.988 0.0434614 1.5754 0
M  V30 5290 C 508.213 -0.645358 1.97104 0
M  V30 5291 C 508.638 -1.64037 0.920521 0
M  V30 5292 O 507.996 -1.80922 -0.11708 0
M  V30 5293 C 508.044 -1.31547 3.35749 0
M  V30 5294 O 507.148 -2.43103 3.33129 0
M  V30 5295 H 506.489 -0.168403 0.64229 0
M  V30 5296 H 509.019 0.109573 2.04306 0
M  V30 5297 H 509.029 -1.66895 3.72304 0
M  V30 5298 H 507.704 -0.586205 4.11748 0
M  V30 5299 H 506.281 -2.0976 3.0831 0
M  V30 5300 N 508.466 -1.55915 -0.229846 0
M  V30 5301 C 509.877 -1.68809 -0.797531 0
M  V30 5302 C 510.228 -0.643995 -1.8533 0
M  V30 5303 O 509.353 0.206492 -2.15413 0
M  V30 5304 C 509.948 -3.06043 -1.45338 0
M  V30 5305 C 508.507 -3.20819 -1.96856 0
M  V30 5306 C 507.654 -2.6472 -0.825736 0
M  V30 5307 H 510.605 -1.58699 -0.00533733 0
M  V30 5308 H 510.626 -3.01438 -2.32196 0
M  V30 5309 H 510.138 -3.82012 -0.684743 0
M  V30 5310 H 508.239 -2.49704 -2.76548 0
M  V30 5311 H 508.352 -4.27937 -2.15423 0
M  V30 5312 H 506.716 -2.22985 -1.23084 0
M  V30 5313 H 507.499 -3.43229 -0.0699019 0
M  V30 5314 N 509.944 0.496216 -1.49584 0
M  V30 5315 C 510.874 1.60576 -1.69521 0
M  V30 5316 C 511.855 1.61169 -0.543933 0
M  V30 5317 O 513.04 1.77834 -0.78031 0
M  V30 5318 C 510.17 2.99038 -1.76616 0
M  V30 5319 C 509.124 3.13312 -2.91581 0
M  V30 5320 C 508.45 4.53172 -2.83794 0
M  V30 5321 C 509.75 2.92886 -4.32452 0
M  V30 5322 H 511.444 1.44146 -2.62416 0
M  V30 5323 H 508.99 0.692024 -1.26282 0
M  V30 5324 H 510.943 3.76564 -1.8915 0
M  V30 5325 H 509.667 3.16568 -0.80324 0
M  V30 5326 H 508.326 2.38213 -2.78658 0
M  V30 5327 H 507.974 4.67585 -1.854 0
M  V30 5328 H 507.674 4.63662 -3.60958 0
M  V30 5329 H 509.198 5.32752 -2.98342 0
M  V30 5330 H 510.612 3.60178 -4.46032 0
M  V30 5331 H 509.009 3.14844 -5.10875 0
M  V30 5332 H 510.079 1.88966 -4.46565 0
M  V30 5333 N 511.423 1.38739 0.74761 0
M  V30 5334 C 512.37 1.36449 1.86146 0
M  V30 5335 C 513.34 0.226098 1.64554 0
M  V30 5336 O 514.525 0.41926 1.86137 0
M  V30 5337 C 511.665 1.2013 3.23516 0
M  V30 5338 C 510.778 2.43407 3.56899 0
M  V30 5339 C 509.913 2.19773 4.83605 0
M  V30 5340 C 508.952 3.3879 5.09792 0
M  V30 5341 N 508.089 3.14553 6.27695 0
M  V30 5342 H 512.929 2.3167 1.87438 0
M  V30 5343 H 510.466 1.15094 0.916063 0
M  V30 5344 H 512.424 1.08683 4.02795 0
M  V30 5345 H 511.054 0.285453 3.21535 0
M  V30 5346 H 510.106 2.65504 2.72418 0
M  V30 5347 H 511.418 3.32094 3.72176 0
M  V30 5348 H 510.572 2.05496 5.70838 0
M  V30 5349 H 509.311 1.28461 4.70478 0
M  V30 5350 H 508.316 3.53579 4.21025 0
M  V30 5351 H 509.541 4.30986 5.24812 0
M  V30 5352 H 507.487 2.25893 6.1588 0
M  V30 5353 H 507.404 3.96791 6.435 0
M  V30 5354 H 508.672 3.03943 7.17801 0
M  V30 5355 N 512.901 -0.976442 1.23707 0
M  V30 5356 C 513.831 -2.08749 1.04624 0
M  V30 5357 C 514.812 -1.70057 -0.0380956 0
M  V30 5358 O 515.997 -1.93782 0.127308 0
M  V30 5359 C 513.127 -3.41335 0.640902 0
M  V30 5360 C 512.081 -3.93947 1.67302 0
M  V30 5361 C 511.407 -5.22774 1.12301 0
M  V30 5362 C 512.707 -4.22769 3.06697 0
M  V30 5363 H 514.401 -2.24972 1.97555 0
M  V30 5364 H 511.947 -1.08108 0.951247 0
M  V30 5365 H 513.9 -4.18489 0.494434 0
M  V30 5366 H 512.624 -3.24988 -0.324099 0
M  V30 5367 H 511.283 -3.18941 1.80755 0
M  V30 5368 H 510.931 -5.0278 0.148877 0
M  V30 5369 H 510.631 -5.58942 1.81267 0
M  V30 5370 H 512.155 -6.02546 0.988479 0
M  V30 5371 H 513.569 -4.90659 2.96524 0
M  V30 5372 H 511.966 -4.70147 3.72937 0
M  V30 5373 H 513.036 -3.29885 3.55392 0
M  V30 5374 N 514.379 -1.04941 -1.1758 0
M  V30 5375 C 515.327 -0.64204 -2.23563 0
M  V30 5376 C 516.321 0.335453 -1.66045 0
M  V30 5377 O 517.527 0.20179 -1.78865 0
M  V30 5378 H 513.902 -0.18944 -0.727748 0
M  V30 5379 H 515.873 -1.54609 -2.55223 0
M  V30 5380 C 514.622 -0.0301051 -3.47687 0
M  V30 5381 H 513.945 -0.773339 -3.92249 0
M  V30 5382 H 515.385 0.217592 -4.23441 0
M  V30 5383 C 513.844 1.2225 -3.13937 0
M  V30 5384 O 514.374 2.3122 -3.28482 0
M  V30 5385 N 512.58 1.11917 -2.68185 0
M  V30 5386 H 512.127 0.232403 -2.5655 0
M  V30 5387 H 512.085 1.95814 -2.45976 0
M  V30 5388 N 515.857 1.33968 -0.830081 0
M  V30 5389 C 516.767 2.33164 -0.259207 0
M  V30 5390 C 517.783 1.62951 0.610164 0
M  V30 5391 O 518.959 1.94668 0.516369 0
M  V30 5392 C 516.024 3.42088 0.563598 0
M  V30 5393 C 515.085 4.28037 -0.329014 0
M  V30 5394 C 514.318 5.3176 0.454616 0
M  V30 5395 O 514.541 5.44876 1.6872 0
M  V30 5396 O 513.475 6.01669 -0.166794 0
M  V30 5397 H 517.301 2.83832 -1.08041 0
M  V30 5398 H 514.886 1.37154 -0.59239 0
M  V30 5399 H 516.768 4.08581 1.03147 0
M  V30 5400 H 515.443 2.93651 1.36201 0
M  V30 5401 H 514.35 3.64443 -0.844538 0
M  V30 5402 H 515.683 4.79934 -1.09196 0
M  V30 5403 N 517.335 0.585699 1.46312 0
M  V30 5404 C 518.265 -0.133556 2.33118 0
M  V30 5405 C 519.246 -0.880707 1.45525 0
M  V30 5406 O 520.431 -0.855579 1.74337 0
M  V30 5407 C 517.561 -1.14585 3.27853 0
M  V30 5408 C 516.515 -0.513341 4.2491 0
M  V30 5409 C 515.841 -1.63231 5.09175 0
M  V30 5410 C 517.141 0.551413 5.19381 0
M  V30 5411 H 518.835 0.59121 2.93505 0
M  V30 5412 H 516.381 0.285761 1.41136 0
M  V30 5413 H 518.334 -1.65741 3.87438 0
M  V30 5414 H 517.058 -1.90093 2.65579 0
M  V30 5415 H 515.717 -0.0228349 3.66593 0
M  V30 5416 H 515.365 -2.37713 4.43285 0
M  V30 5417 H 515.065 -1.21473 5.74907 0
M  V30 5418 H 516.589 -2.14658 5.71624 0
M  V30 5419 H 518.003 0.124804 5.73164 0
M  V30 5420 H 516.4 0.889486 5.93471 0
M  V30 5421 H 517.47 1.43655 4.63132 0
M  V30 5422 N 518.813 -1.54241 0.323641 0
M  V30 5423 C 519.761 -2.25813 -0.557804 0
M  V30 5424 C 520.755 -1.27225 -1.11849 0
M  V30 5425 O 521.961 -1.45001 -1.06652 0
M  V30 5426 H 518.336 -0.72532 -0.198532 0
M  V30 5427 H 520.307 -2.98322 0.0681112 0
M  V30 5428 C 519.056 -3.02913 -1.70701 0
M  V30 5429 H 518.379 -3.78593 -1.28482 0
M  V30 5430 H 519.819 -3.56238 -2.29935 0
M  V30 5431 C 518.278 -2.11217 -2.62467 0
M  V30 5432 O 518.808 -1.69508 -3.64184 0
M  V30 5433 N 517.014 -1.76704 -2.30703 0
M  V30 5434 H 516.561 -2.1082 -1.48029 0
M  V30 5435 H 516.519 -1.15631 -2.92364 0
M  V30 5436 O 520.33 -0.191128 -1.60365 0
M  V30 5437 H 521.021 0.395023 -1.89629 0
M  V30 END ATOM
M  V30 BEGIN BOND
M  V30 END BOND
M  V30 END CTAB
M  END
$$$$
