drugbank_target|P0A6G7 ATP-dependent Clp protease proteolytic subunit (DB07571)
 OpenBabel12092120443D

  0  0  0     0  0            999 V3000
M  V30 BEGIN CTAB
M  V30 COUNTS 3240 3268 0 0 0
M  V30 BEGIN ATOM
M  V30 1 H -0.908 1.98254 -0.117106 0
M  V30 2 N 0 1.576 0 0
M  V30 3 C 0.933 2.03868 1.02534 0
M  V30 4 C 1.911 0.928543 1.3348 0
M  V30 5 O 3.095 1.19667 1.45644 0
M  V30 6 C 0.222 2.43627 2.35294 0
M  V30 7 C -0.732 3.65373 2.2001 0
M  V30 8 S 0.101 5.13292 1.52614 0
M  V30 9 C 1.257 5.56322 2.86805 0
M  V30 10 H 1.49 2.90518 0.631377 0
M  V30 11 H -0.977 1.52953 0.210867 0
M  V30 12 H 0.981 2.67203 3.11629 0
M  V30 13 H -0.358 1.57376 2.7183 0
M  V30 14 H -1.165 3.90944 3.18086 0
M  V30 15 H -1.563 3.418 1.51819 0
M  V30 16 H 0.729 5.58782 3.83104 0
M  V30 17 H 1.672 6.56266 2.65933 0
M  V30 18 H 2.08 4.83886 2.90714 0
M  V30 19 N 1.4781 -0.272755 1.55222 0
M  V30 20 C 2.7031 -1.02683 1.80197 0
M  V30 21 C 3.1281 -1.79142 0.573551 0
M  V30 22 O 2.4861 -1.74917 -0.476849 0
M  V30 23 C 2.5341 -1.9609 3.02624 0
M  V30 24 O 1.6381 -3.04863 2.77727 0
M  V30 25 H 0.9791 -0.293557 0.595584 0
M  V30 26 H 3.5091 -0.30159 2.02365 0
M  V30 27 H 3.5191 -2.38039 3.31363 0
M  V30 28 H 2.1941 -1.39851 3.91682 0
M  V30 29 H 0.7711 -2.67228 2.60084 0
M  V30 30 N 2.9562 -1.48159 -0.537278 0
M  V30 31 C 4.1862 -1.59223 -1.3165 0
M  V30 32 C 4.5942 -0.248849 -1.87556 0
M  V30 33 O 3.9372 0.770949 -1.6674 0
M  V30 34 C 3.9992 -2.57365 -2.51005 0
M  V30 35 C 3.6632 -4.02603 -2.16239 0
M  V30 36 C 4.6602 -4.90503 -1.72344 0
M  V30 37 C 2.3452 -4.48088 -2.26986 0
M  V30 38 C 4.3392 -6.21913 -1.39651 0
M  V30 39 C 2.0262 -5.7952 -1.93906 0
M  V30 40 C 3.0242 -6.66255 -1.50309 0
M  V30 41 O 2.7122 -7.95243 -1.17659 0
M  V30 42 H 2.4442 -0.539831 -0.406889 0
M  V30 43 H 4.9982 -1.94655 -0.655641 0
M  V30 44 H 3.2282 -2.1704 -3.20048 0
M  V30 45 H 4.9172 -2.58342 -3.13072 0
M  V30 46 H 5.6832 -4.56604 -1.63517 0
M  V30 47 H 1.5622 -3.80769 -2.59877 0
M  V30 48 H 5.1062 -6.89569 -1.0555 0
M  V30 49 H 1.0032 -6.12957 -2.02371 0
M  V30 50 H 1.7712 -8.0793 -1.31119 0
M  V30 51 N 4.4343 0.785586 -1.36625 0
M  V30 52 C 5.6593 1.57963 -1.34397 0
M  V30 53 C 6.0843 1.87964 0.071526 0
M  V30 54 O 5.4423 1.48182 1.0446 0
M  V30 55 C 5.4903 2.87511 -2.17646 0
M  V30 56 O 4.5943 3.81281 -1.57158 0
M  V30 57 H 3.9353 0.479014 -0.459828 0
M  V30 58 H 6.4653 0.973411 -1.79961 0
M  V30 59 H 6.4753 3.36745 -2.30362 0
M  V30 60 H 5.1503 2.65002 -3.20541 0
M  V30 61 H 3.7273 3.39885 -1.53403 0
M  V30 62 N 5.9124 1.20967 1.01018 0
M  V30 63 C 7.1604 1.02172 1.74371 0
M  V30 64 C 7.4814 -0.446414 1.89821 0
M  V30 65 O 6.7514 -1.32234 1.44537 0
M  V30 66 H 5.3314 0.375066 0.646014 0
M  V30 67 H 7.9934 1.52187 1.21758 0
M  V30 68 H 7.0894 1.48538 2.74487 0
M  V30 69 N 7.3905 -1.2043 1.01659 0
M  V30 70 C 8.3005 -2.2689 0.596484 0
M  V30 71 C 9.3165 -1.70107 -0.36599 0
M  V30 72 O 10.4925 -2.00117 -0.226942 0
M  V30 73 C 7.5575 -3.4665 -0.0586659 0
M  V30 74 C 6.6185 -4.18662 0.949751 0
M  V30 75 C 5.8515 -5.32705 0.32577 0
M  V30 76 O 6.0745 -5.63656 -0.874509 0
M  V30 77 O 5.0085 -5.92803 1.04249 0
M  V30 78 H 8.8345 -2.65041 1.4828 0
M  V30 79 H 6.4195 -1.27048 0.786082 0
M  V30 80 H 8.3015 -4.19256 -0.424564 0
M  V30 81 H 6.9765 -3.10375 -0.91918 0
M  V30 82 H 5.8835 -3.48229 1.36702 0
M  V30 83 H 7.2165 -4.58878 1.78023 0
M  V30 84 N 8.8686 -0.792821 -1.36206 0
M  V30 85 C 10.2846 -0.474903 -1.52371 0
M  V30 86 C 10.4846 1.00622 -1.74578 0
M  V30 87 O 9.5406 1.79162 -1.77924 0
M  V30 88 C 10.8536 -1.3083 -2.70747 0
M  V30 89 C 12.4016 -1.30234 -2.84619 0
M  V30 90 C 12.8766 -2.11956 -4.06004 0
M  V30 91 N 14.3676 -2.09419 -4.13156 0
M  V30 92 C 15.1026 -2.69419 -5.06163 0
M  V30 93 N 14.5986 -3.3829 -6.04592 0
M  V30 94 N 16.3916 -2.59134 -4.98804 0
M  V30 95 H 8.5426 -1.75222 -1.20046 0
M  V30 96 H 10.8056 -0.745024 -0.586211 0
M  V30 97 H 10.5116 -2.35881 -2.6087 0
M  V30 98 H 10.3856 -0.95196 -3.6499 0
M  V30 99 H 12.7726 -0.259748 -2.93955 0
M  V30 100 H 12.8536 -1.69847 -1.91274 0
M  V30 101 H 12.4976 -3.16248 -3.97429 0
M  V30 102 H 12.4276 -1.69711 -4.98503 0
M  V30 103 H 14.9186 -1.59297 -3.42685 0
M  V30 104 H 15.2316 -3.81394 -6.7213 0
M  V30 105 H 13.5766 -3.42393 -6.04807 0
M  V30 106 H 16.7676 -2.04927 -4.20859 0
M  V30 107 H 16.9406 -3.06185 -5.711 0
M  V30 108 N 10.3467 1.47872 -0.545128 0
M  V30 109 C 11.6237 1.9554 0.0485222 0
M  V30 110 C 12.0037 1.4876 1.49779 0
M  V30 111 O 11.3517 0.720925 2.16829 0
M  V30 112 C 11.5617 3.48898 -0.084417 0
M  V30 113 C 12.9097 4.24547 0.0671239 0
M  V30 114 O 13.9337 3.56198 -0.0113649 0
M  V30 115 O 12.7927 5.45999 0.233882 0
M  V30 116 H 9.8867 0.823957 0.0708773 0
M  V30 117 H 12.4327 1.58327 -0.610798 0
M  V30 118 H 11.2047 3.75714 -1.09337 0
M  V30 119 H 10.8277 3.92845 0.613066 0
M  V30 120 N 11.8248 0.280983 1.55075 0
M  V30 121 C 12.7728 -0.619864 2.24188 0
M  V30 122 C 13.7668 -1.15315 1.24092 0
M  V30 123 O 14.9728 -1.1061 1.42005 0
M  V30 124 H 11.3478 -0.218459 0.719569 0
M  V30 125 H 13.3188 -0.0141831 2.98397 0
M  V30 126 C 12.0678 -1.7899 2.98091 0
M  V30 127 H 11.3908 -1.38874 3.74905 0
M  V30 128 H 12.8308 -2.39672 3.49762 0
M  V30 129 C 11.2898 -2.68192 2.03899 0
M  V30 130 O 11.8198 -3.6872 1.594 0
M  V30 131 N 10.0258 -2.35488 1.70275 0
M  V30 132 H 9.5728 -1.53787 2.06658 0
M  V30 133 H 9.5308 -2.95442 1.07524 0
M  V30 134 N 13.3029 -1.57598 0.00835791 0
M  V30 135 C 14.5499 -1.90928 -0.674732 0
M  V30 136 C 14.8779 -0.88277 -1.73313 0
M  V30 137 O 14.1329 0.111294 -1.95383 0
M  V30 138 C 14.4319 -3.3101 -1.34787 0
M  V30 139 C 14.0979 -4.48922 -0.421861 0
M  V30 140 C 12.7599 -4.8091 -0.166927 0
M  V30 141 C 15.1119 -5.20755 0.215211 0
M  V30 142 C 12.4399 -5.821 0.733232 0
M  V30 143 C 14.7919 -6.22905 1.1033 0
M  V30 144 C 13.4559 -6.53346 1.36733 0
M  V30 145 H 12.7259 -0.698656 -0.246902 0
M  V30 146 H 15.3729 -1.91387 0.0656779 0
M  V30 147 H 13.6779 -3.26714 -2.16253 0
M  V30 148 H 15.3749 -3.54061 -1.8826 0
M  V30 149 H 11.9649 -4.23934 -0.630729 0
M  V30 150 H 16.1489 -4.9629 0.0312829 0
M  V30 151 H 11.4049 -6.04042 0.945712 0
M  V30 152 H 15.5789 -6.77694 1.60325 0
M  V30 153 H 13.2059 -7.31573 2.06652 0
M  V30 154 N 14.781 0.264519 -1.55364 0
M  V30 155 C 15.744 1.31046 -1.88042 0
M  V30 156 C 16.744 1.41943 -0.755569 0
M  V30 157 O 17.934 1.40947 -1.02369 0
M  V30 158 C 15.066 2.69067 -2.09323 0
M  V30 159 H 16.259 1.03297 -2.81549 0
M  V30 160 H 13.812 0.502989 -1.47986 0
M  V30 161 H 14.547 3.01982 -1.18226 0
M  V30 162 H 14.332 2.62542 -2.91229 0
M  V30 163 H 15.822 3.44623 -2.35848 0
M  V30 164 N 16.2591 1.48442 0.529413 0
M  V30 165 C 17.6701 1.5002 1.11134 0
M  V30 166 C 18.0211 0.27031 1.94329 0
M  V30 167 O 17.1461 -0.622507 2.07253 0
M  V30 168 C 17.7411 2.71834 2.02217 0
M  V30 169 C 16.3001 2.76283 2.55627 0
M  V30 170 C 15.4471 2.43542 1.326 0
M  V30 171 H 18.3981 1.5555 0.314641 0
M  V30 172 H 18.4191 2.50384 2.8651 0
M  V30 173 H 17.9311 3.61331 1.41639 0
M  V30 174 H 16.0321 1.90995 3.19924 0
M  V30 175 H 16.1451 3.77725 2.94721 0
M  V30 176 H 14.5091 1.94709 1.64196 0
M  V30 177 H 15.2921 3.3528 0.737734 0
M  V30 178 N 17.7372 -0.778329 1.37039 0
M  V30 179 C 18.6872 -1.88142 1.28789 0
M  V30 180 C 19.6712 -1.59923 0.177063 0
M  V30 181 O 20.8632 -1.72165 0.410873 0
M  V30 182 C 17.9922 -3.25518 1.09055 0
M  V30 183 C 17.0782 -3.5971 2.24654 0
M  V30 184 N 17.4692 -3.65131 3.50018 0
M  V30 185 C 15.7672 -3.89837 2.16663 0
M  V30 186 C 16.4682 -3.95882 4.26207 0
M  V30 187 N 15.4442 -4.11441 3.55271 0
M  V30 188 H 19.2462 -1.90575 2.23737 0
M  V30 189 H 16.7602 -0.974435 1.29917 0
M  V30 190 H 18.7572 -4.04423 1.0123 0
M  V30 191 H 17.4172 -3.24353 0.15018 0
M  V30 192 H 18.4282 -3.475 3.84011 0
M  V30 193 H 15.1052 -3.96533 1.30645 0
M  V30 194 H 16.4952 -4.06907 5.34674 0
M  V30 195 N 19.2153 -1.21501 -1.00376 0
M  V30 196 C 20.1483 -0.918669 -2.08892 0
M  V30 197 C 21.1263 0.134277 -1.62045 0
M  V30 198 O 22.3103 0.00504255 -1.88499 0
M  V30 199 C 19.4373 -0.379645 -3.36566 0
M  V30 200 C 18.4833 -1.41559 -4.02323 0
M  V30 201 S 19.3163 -2.98521 -4.44574 0
M  V30 202 C 20.4723 -2.46228 -5.75433 0
M  V30 203 H 20.7053 -1.83761 -2.33707 0
M  V30 204 H 18.2383 -1.04489 -1.13673 0
M  V30 205 H 20.1963 -0.0752195 -4.10431 0
M  V30 206 H 18.8573 0.518008 -3.09799 0
M  V30 207 H 18.0503 -0.988076 -4.9422 0
M  V30 208 H 17.6523 -1.66815 -3.34737 0
M  V30 209 H 19.9443 -1.86791 -6.51241 0
M  V30 210 H 20.8873 -3.36572 -6.22997 0
M  V30 211 H 21.2953 -1.87894 -5.32312 0
M  V30 212 N 20.6934 1.19889 -1.02296 0
M  V30 213 C 21.6564 2.21116 -0.603351 0
M  V30 214 C 22.6564 1.5738 0.329884 0
M  V30 215 O 23.8464 1.73802 0.117702 0
M  V30 216 C 20.9784 3.40696 0.117992 0
M  V30 217 H 22.1714 2.59754 -1.49893 0
M  V30 218 H 19.7244 1.33463 -0.813468 0
M  V30 219 H 20.4594 3.07569 1.0282 0
M  V30 220 H 20.2444 3.88188 -0.552511 0
M  V30 221 H 21.7344 4.15692 0.398696 0
M  V30 222 N 22.1715 0.800033 1.35784 0
M  V30 223 C 23.1015 0.220184 2.3246 0
M  V30 224 C 24.0825 -0.65073 1.57161 0
M  V30 225 O 25.2675 -0.582359 1.85263 0
M  V30 226 C 22.3975 -0.637353 3.41402 0
M  V30 227 C 21.3515 0.134531 4.27789 0
M  V30 228 C 20.6775 -0.844285 5.27992 0
M  V30 229 C 21.9775 1.32979 5.05088 0
M  V30 230 H 23.6715 1.02787 2.81203 0
M  V30 231 H 21.2175 0.495717 1.35199 0
M  V30 232 H 23.1705 -1.05302 4.08031 0
M  V30 233 H 21.8945 -1.47785 2.91251 0
M  V30 234 H 20.5535 0.531296 3.6273 0
M  V30 235 H 20.2015 -1.68011 4.74111 0
M  V30 236 H 19.9015 -0.332184 5.8666 0
M  V30 237 H 21.4255 -1.2583 5.97494 0
M  V30 238 H 22.8395 0.98934 5.64699 0
M  V30 239 H 21.2365 1.77593 5.7322 0
M  V30 240 H 22.3065 2.11978 4.36111 0
M  V30 241 N 23.6496 -1.47581 0.552962 0
M  V30 242 C 24.8956 -2.02782 0.0273648 0
M  V30 243 C 25.2286 -1.42687 -1.31734 0
M  V30 244 O 24.5036 -0.580897 -1.85623 0
M  V30 245 C 24.7866 -3.60031 -0.0702371 0
M  V30 246 C 24.6396 -4.30566 1.30126 0
M  V30 247 C 25.9586 -4.33028 -0.785771 0
M  V30 248 H 23.0776 -0.736912 0.0114185 0
M  V30 249 H 25.7196 -1.76056 0.714432 0
M  V30 250 H 23.8696 -3.82932 -0.655382 0
M  V30 251 H 25.5416 -4.19018 1.92929 0
M  V30 252 H 23.7846 -3.91086 1.87709 0
M  V30 253 H 24.4556 -5.39114 1.18573 0
M  V30 254 H 26.9316 -4.15095 -0.288982 0
M  V30 255 H 25.8076 -5.42695 -0.823013 0
M  V30 256 H 26.0686 -4.01945 -1.841 0
M  V30 257 N 25.1277 -0.289203 -1.54924 0
M  V30 258 C 26.5387 0.205791 -1.85562 0
M  V30 259 C 26.8897 1.54351 -1.2112 0
M  V30 260 O 26.0147 2.10435 -0.504601 0
M  V30 261 C 26.6097 0.380177 -3.3666 0
M  V30 262 C 25.1687 0.819395 -3.67373 0
M  V30 263 C 24.3157 -0.079159 -2.77187 0
M  V30 264 H 27.2667 -0.510577 -1.50262 0
M  V30 265 H 27.2877 1.21659 -3.60526 0
M  V30 266 H 26.7997 -0.593589 -3.83534 0
M  V30 267 H 24.9007 1.80413 -3.26009 0
M  V30 268 H 25.0137 0.646957 -4.74712 0
M  V30 269 H 23.3777 0.439565 -2.50878 0
M  V30 270 H 24.1607 -1.04906 -3.26878 0
M  V30 271 N 26.6058 1.57591 -0.0167156 0
M  V30 272 C 27.5388 2.04944 1.00366 0
M  V30 273 C 28.5168 0.942648 1.32487 0
M  V30 274 O 29.7008 1.21205 1.44367 0
M  V30 275 C 26.8278 2.46109 2.32697 0
M  V30 276 C 25.8738 3.67686 2.16123 0
M  V30 277 S 26.7068 5.14882 1.47161 0
M  V30 278 C 27.8628 5.59332 2.80888 0
M  V30 279 H 28.0958 2.91172 0.600528 0
M  V30 280 H 25.6288 1.53168 0.194632 0
M  V30 281 H 27.5868 2.70493 3.08778 0
M  V30 282 H 26.2478 1.6025 2.70146 0
M  V30 283 H 25.4408 3.94296 3.13922 0
M  V30 284 H 25.0428 3.43391 1.48185 0
M  V30 285 H 27.3348 5.62814 3.77156 0
M  V30 286 H 28.2778 6.5905 2.58958 0
M  V30 287 H 28.6858 4.86942 2.85565 0
M  V30 288 N 28.0839 -0.256276 1.55502 0
M  V30 289 C 29.3299 -0.987079 1.77157 0
M  V30 290 C 29.6629 -1.85327 0.580315 0
M  V30 291 O 28.9379 -1.89874 -0.421686 0
M  V30 292 C 29.2209 -1.85553 3.08613 0
M  V30 293 C 29.0739 -1.01816 4.38125 0
M  V30 294 C 30.3929 -2.8397 3.36228 0
M  V30 295 H 27.5119 -0.357428 0.644526 0
M  V30 296 H 30.1539 -0.258239 1.88237 0
M  V30 297 H 28.3039 -2.47695 2.99298 0
M  V30 298 H 29.9759 -0.416159 4.59419 0
M  V30 299 H 28.2189 -0.322178 4.32602 0
M  V30 300 H 28.8899 -1.65939 5.26468 0
M  V30 301 H 31.3659 -2.31964 3.45445 0
M  V30 302 H 30.2419 -3.41864 4.29442 0
M  V30 303 H 30.5029 -3.59955 2.56681 0
M  V30 304 N 29.562 -1.4872 -0.521534 0
M  V30 305 C 30.811 -1.56419 -1.27341 0
M  V30 306 C 31.124 -0.246805 -1.94037 0
M  V30 307 O 32.33 -0.202122 -2.70747 0
M  V30 308 C 30.786 -2.75896 -2.31105 0
M  V30 309 C 30.394 -4.14311 -1.70441 0
M  V30 310 C 32.138 -2.92913 -3.07249 0
M  V30 311 C 30.045 -5.25038 -2.72194 0
M  V30 312 H 28.975 -0.582344 -0.478949 0
M  V30 313 H 31.626 -1.75071 -0.549779 0
M  V30 314 H 30.008 -2.50697 -3.06541 0
M  V30 315 H 31.182 -4.49564 -1.01136 0
M  V30 316 H 29.497 -4.02482 -1.06759 0
M  V30 317 H 32.094 -3.72805 -3.83302 0
M  V30 318 H 32.437 -2.02689 -3.63625 0
M  V30 319 H 32.97 -3.18054 -2.38928 0
M  V30 320 H 29.709 -6.17255 -2.20627 0
M  V30 321 H 29.229 -4.94263 -3.39801 0
M  V30 322 H 30.908 -5.53508 -3.35019 0
M  V30 323 N 31.0401 0.771051 -1.3745 0
M  V30 324 C 31.9501 1.91538 -1.35464 0
M  V30 325 C 32.9661 1.72134 -0.254123 0
M  V30 326 O 34.1421 1.95358 -0.489626 0
M  V30 327 C 31.2071 3.26671 -1.16134 0
M  V30 328 C 30.2681 3.58723 -2.35831 0
M  V30 329 C 29.5011 4.87409 -2.17413 0
M  V30 330 O 29.7241 5.58506 -1.15876 0
M  V30 331 O 28.6581 5.18539 -3.05615 0
M  V30 332 H 32.4841 1.96165 -2.31847 0
M  V30 333 H 30.0691 0.9139 -1.18187 0
M  V30 334 H 31.9511 4.07499 -1.07345 0
M  V30 335 H 30.6261 3.22894 -0.228251 0
M  V30 336 H 29.5331 2.78127 -2.50192 0
M  V30 337 H 30.8661 3.67243 -3.27709 0
M  V30 338 N 32.5182 1.22032 0.997298 0
M  V30 339 C 33.4502 0.944263 2.08845 0
M  V30 340 C 34.4632 -0.0754663 1.62625 0
M  V30 341 O 35.6522 0.157994 1.77799 0
M  V30 342 C 32.7522 0.397723 3.36558 0
M  V30 343 C 31.9252 1.47362 4.11829 0
M  V30 344 C 30.9842 0.934951 5.17827 0
M  V30 345 O 30.0102 1.62016 5.45655 0
M  V30 346 N 31.2122 -0.245895 5.79979 0
M  V30 347 H 33.9772 1.88363 2.33109 0
M  V30 348 H 31.5382 1.12661 1.16272 0
M  V30 349 H 33.5302 0.0227771 4.04694 0
M  V30 350 H 32.1002 -0.446646 3.09393 0
M  V30 351 H 31.3202 2.02208 3.38386 0
M  V30 352 H 32.6082 2.19764 4.58891 0
M  V30 353 H 32.0062 -0.819475 5.59733 0
M  V30 354 H 30.5632 -0.562272 6.4937 0
M  V30 355 N 33.9963 -1.19345 1.0293 0
M  V30 356 C 35.2243 -1.92997 0.745644 0
M  V30 357 C 35.6393 -1.75519 -0.695589 0
M  V30 358 O 34.9963 -1.07737 -1.47306 0
M  V30 359 C 35.0473 -3.44741 1.08792 0
M  V30 360 O 34.7683 -3.61658 2.47256 0
M  V30 361 C 36.2693 -4.35515 0.827129 0
M  V30 362 H 33.4893 -0.613042 0.272801 0
M  V30 363 H 36.0333 -1.51473 1.3739 0
M  V30 364 H 34.1883 -3.84097 0.504832 0
M  V30 365 H 34.6023 -4.55514 2.60015 0
M  V30 366 H 36.0763 -5.40589 1.11658 0
M  V30 367 H 36.5533 -4.38552 -0.238436 0
M  V30 368 H 37.1593 -4.01841 1.39297 0
M  V30 369 N 35.4744 -0.807222 -1.35358 0
M  V30 370 C 36.6994 -0.399309 -2.0352 0
M  V30 371 C 37.1244 0.981986 -1.60433 0
M  V30 372 O 36.4824 1.63601 -0.781299 0
M  V30 373 C 36.5304 -0.491552 -3.57234 0
M  V30 374 O 35.6344 0.494754 -4.09421 0
M  V30 375 H 34.9754 -0.166682 -0.642739 0
M  V30 376 H 37.5054 -1.09328 -1.72941 0
M  V30 377 H 37.5154 -0.361588 -4.06395 0
M  V30 378 H 36.1904 -1.49907 -3.87944 0
M  V30 379 H 34.7674 0.324977 -3.71481 0
M  V30 380 N 36.9525 1.47285 -0.560781 0
M  V30 381 C 38.3685 1.58065 -0.22081 0
M  V30 382 C 38.5685 1.55892 1.27671 0
M  V30 383 O 37.6245 1.46422 2.0571 0
M  V30 384 C 38.9375 2.88418 -0.850625 0
M  V30 385 C 40.4855 3.02009 -0.822184 0
M  V30 386 C 40.9605 4.35066 -1.43113 0
M  V30 387 N 42.4515 4.41711 -1.39448 0
M  V30 388 C 43.1865 5.43237 -1.83525 0
M  V30 389 N 42.6825 6.51555 -2.35474 0
M  V30 390 N 44.4755 5.34304 -1.74574 0
M  V30 391 H 36.6265 1.46941 -1.53369 0
M  V30 392 H 38.8895 0.699558 -0.639783 0
M  V30 393 H 38.5955 2.95755 -1.9032 0
M  V30 394 H 38.4695 3.75612 -0.345773 0
M  V30 395 H 40.8565 2.94266 0.221714 0
M  V30 396 H 40.9375 2.16347 -1.36483 0
M  V30 397 H 40.5815 4.43565 -2.47412 0
M  V30 398 H 40.5115 5.19465 -0.863899 0
M  V30 399 H 43.0025 3.64027 -1.01452 0
M  V30 400 H 43.3155 7.25203 -2.67021 0
M  V30 401 H 41.6605 6.52435 -2.39487 0
M  V30 402 H 44.8515 4.48581 -1.33763 0
M  V30 403 H 45.0245 6.13288 -2.09242 0
M  V30 404 N 38.4306 0.297415 1.54768 0
M  V30 405 C 39.6786 -0.312295 1.99673 0
M  V30 406 C 39.9996 -1.54686 1.18732 0
M  V30 407 O 39.2696 -1.93854 0.282382 0
M  V30 408 H 37.8496 -0.118381 0.73756 0
M  V30 409 H 40.5116 0.407915 1.90583 0
M  V30 410 H 39.6076 -0.586813 3.06534 0
M  V30 411 N 39.9087 -1.5758 0.0250728 0
M  V30 412 C 40.8187 -2.1343 -0.973905 0
M  V30 413 C 41.8347 -1.08556 -1.35984 0
M  V30 414 O 43.0107 -1.40592 -1.44207 0
M  V30 415 C 40.0757 -2.64703 -2.23904 0
M  V30 416 C 39.1367 -3.84276 -1.91391 0
M  V30 417 C 38.3697 -4.33095 -3.11873 0
M  V30 418 O 38.5927 -3.81107 -4.24398 0
M  V30 419 O 37.5267 -5.24984 -2.94406 0
M  V30 420 H 41.3527 -2.99057 -0.529036 0
M  V30 421 H 38.9377 -1.48118 -0.195288 0
M  V30 422 H 40.8197 -2.97769 -2.98181 0
M  V30 423 H 39.4947 -1.82161 -2.6758 0
M  V30 424 H 38.4017 -3.56143 -1.14511 0
M  V30 425 H 39.7347 -4.67968 -1.52534 0
M  V30 426 N 41.3868 0.248026 -1.55636 0
M  V30 427 C 42.8028 0.596483 -1.48035 0
M  V30 428 C 43.0028 1.88386 -0.715039 0
M  V30 429 O 42.0588 2.51319 -0.243944 0
M  V30 430 C 43.3718 0.700258 -2.92433 0
M  V30 431 C 44.9198 0.792659 -3.02797 0
M  V30 432 C 45.3948 0.928005 -4.485 0
M  V30 433 N 46.8858 0.992903 -4.52433 0
M  V30 434 C 47.6208 1.11687 -5.62418 0
M  V30 435 N 47.1168 1.20645 -6.82214 0
M  V30 436 N 48.9098 1.14994 -5.50212 0
M  V30 437 H 41.0608 -0.597109 -2.03834 0
M  V30 438 H 43.3238 -0.205925 -0.925364 0
M  V30 439 H 43.0298 -0.175658 -3.51261 0
M  V30 440 H 42.9038 1.57255 -3.42857 0
M  V30 441 H 45.2908 1.65903 -2.4405 0
M  V30 442 H 45.3718 -0.104762 -2.55585 0
M  V30 443 H 45.0158 0.0661971 -5.07857 0
M  V30 444 H 44.9458 1.84045 -4.93391 0
M  V30 445 H 47.4368 0.935064 -3.66149 0
M  V30 446 H 47.7498 1.30008 -7.61786 0
M  V30 447 H 46.0948 1.17605 -6.84977 0
M  V30 448 H 49.2858 1.07643 -4.55555 0
M  V30 449 H 49.4588 1.24311 -6.35965 0
M  V30 450 N 42.8649 1.48995 0.513639 0
M  V30 451 C 44.0899 1.61792 1.29762 0
M  V30 452 C 44.5149 0.284475 1.85936 0
M  V30 453 O 43.8729 -0.746185 1.65232 0
M  V30 454 C 43.9209 2.67993 2.41272 0
M  V30 455 O 43.0249 2.26287 3.44772 0
M  V30 456 H 42.3659 0.541963 0.38363 0
M  V30 457 H 44.8959 1.95097 0.616307 0
M  V30 458 H 44.9059 2.89772 2.87221 0
M  V30 459 H 43.5809 3.64791 1.9975 0
M  V30 460 H 42.1579 2.14788 3.04829 0
M  V30 461 N 44.343 -0.763751 1.37857 0
M  V30 462 C 45.59 -1.52257 1.33506 0
M  V30 463 C 45.918 -1.94343 -0.078022 0
M  V30 464 O 45.173 -1.64958 -1.05297 0
M  V30 465 C 45.472 -2.79499 2.22745 0
M  V30 466 C 45.138 -2.56426 3.70886 0
M  V30 467 C 43.8 -2.49842 4.11257 0
M  V30 468 C 46.152 -2.36008 4.64704 0
M  V30 469 C 43.48 -2.20841 5.43549 0
M  V30 470 C 45.832 -2.0853 5.97242 0
M  V30 471 C 44.496 -2.00396 6.36709 0
M  V30 472 H 43.766 -0.557149 0.488534 0
M  V30 473 H 46.413 -0.879073 1.70131 0
M  V30 474 H 44.718 -3.48447 1.79142 0
M  V30 475 H 46.415 -3.37413 2.16688 0
M  V30 476 H 43.005 -2.62416 3.38874 0
M  V30 477 H 47.189 -2.40079 4.34368 0
M  V30 478 H 42.445 -2.13045 5.73081 0
M  V30 479 H 46.619 -1.91732 6.69486 0
M  V30 480 H 44.246 -1.77688 7.39142 0
M  V30 481 N 45.8211 -1.22559 -0.990812 0
M  V30 482 C 47.0981 -0.959875 -1.70428 0
M  V30 483 C 47.4781 0.524455 -2.04481 0
M  V30 484 O 46.8261 1.49302 -1.72977 0
M  V30 485 C 47.0361 -1.85955 -2.95333 0
M  V30 486 C 48.3841 -2.11687 -3.68068 0
M  V30 487 O 49.4081 -1.8342 -3.05345 0
M  V30 488 O 48.2671 -2.59572 -4.80921 0
M  V30 489 H 45.3611 -0.361154 -0.743974 0
M  V30 490 H 47.9071 -1.33554 -1.04697 0
M  V30 491 H 46.6791 -2.86346 -2.66687 0
M  V30 492 H 46.3021 -1.4856 -3.68803 0
M  V30 493 N 47.2992 1.18797 -1.03562 0
M  V30 494 C 48.5482 1.87978 -0.731235 0
M  V30 495 C 48.8612 1.80911 0.743671 0
M  V30 496 O 50.0672 2.45407 1.16137 0
M  V30 497 C 48.5232 3.3721 -1.25768 0
M  V30 498 C 48.1312 3.52818 -2.76085 0
M  V30 499 C 49.8752 4.11825 -1.0296 0
M  V30 500 C 47.7822 4.9598 -3.22114 0
M  V30 501 H 46.7122 0.704063 -0.269835 0
M  V30 502 H 49.3632 1.34266 -1.25079 0
M  V30 503 H 47.7452 3.90359 -0.666011 0
M  V30 504 H 48.9192 3.09965 -3.40966 0
M  V30 505 H 47.2342 2.91602 -2.97249 0
M  V30 506 H 49.8312 5.17411 -1.34869 0
M  V30 507 H 50.1742 4.16287 0.0333546 0
M  V30 508 H 50.7072 3.64833 -1.58562 0
M  V30 509 H 47.4462 4.96684 -4.27768 0
M  V30 510 H 46.9662 5.39569 -2.61965 0
M  V30 511 H 48.6452 5.6467 -3.15844 0
M  V30 512 N 48.7773 0.814389 1.34928 0
M  V30 513 C 50.0073 0.41054 2.0248 0
M  V30 514 C 50.4153 -0.985625 1.61499 0
M  V30 515 O 49.7583 -1.64781 0.811976 0
M  V30 516 C 49.8203 0.423384 3.56998 0
M  V30 517 C 49.4843 1.77141 4.21272 0
M  V30 518 C 50.4813 2.73093 4.42398 0
M  V30 519 C 48.1663 2.05755 4.58225 0
M  V30 520 C 50.1603 3.95838 4.9959 0
M  V30 521 C 47.8473 3.28762 5.1513 0
M  V30 522 C 48.8453 4.23621 5.35755 0
M  V30 523 O 48.5333 5.44456 5.91458 0
M  V30 524 H 48.2653 0.163997 0.655806 0
M  V30 525 H 50.8193 1.10155 1.73364 0
M  V30 526 H 49.0493 -0.324276 3.85338 0
M  V30 527 H 50.7383 0.0407683 4.0588 0
M  V30 528 H 51.5043 2.5228 4.14222 0
M  V30 529 H 47.3833 1.32727 4.4148 0
M  V30 530 H 50.9273 4.69891 5.15605 0
M  V30 531 H 46.8243 3.49443 5.42734 0
M  V30 532 H 47.5923 5.4586 6.09901 0
M  V30 533 N 50.2554 -1.46986 0.568584 0
M  V30 534 C 51.4804 -2.07335 0.0520528 0
M  V30 535 C 51.9054 -1.41675 -1.23733 0
M  V30 536 O 51.2634 -0.495623 -1.74394 0
M  V30 537 C 51.3114 -3.60417 -0.11501 0
M  V30 538 O 50.4154 -3.95309 -1.17492 0
M  V30 539 H 49.7564 -0.661597 0.0564385 0
M  V30 540 H 52.2864 -1.88837 0.787507 0
M  V30 541 H 52.2964 -4.06698 -0.325644 0
M  V30 542 H 50.9714 -4.07601 0.826675 0
M  V30 543 H 49.5484 -3.60757 -0.943869 0
M  V30 544 N 51.7335 -0.305618 -1.54608 0
M  V30 545 C 53.1495 0.0476228 -1.59529 0
M  V30 546 C 53.3495 1.52025 -1.32252 0
M  V30 547 O 52.4055 2.27368 -1.09818 0
M  V30 548 C 53.7185 -0.354471 -2.98603 0
M  V30 549 C 55.2665 -0.303622 -3.11524 0
M  V30 550 C 55.7415 -0.680608 -4.52915 0
M  V30 551 N 57.2325 -0.63332 -4.5885 0
M  V30 552 C 57.9675 -0.897432 -5.66334 0
M  V30 553 N 57.4635 -1.22775 -6.81834 0
M  V30 554 N 59.2565 -0.824186 -5.56025 0
M  V30 555 H 51.4075 -1.2653 -1.70599 0
M  V30 556 H 53.6705 -0.513291 -0.797017 0
M  V30 557 H 53.3765 -1.3798 -3.23503 0
M  V30 558 H 53.2505 0.289568 -3.76087 0
M  V30 559 H 55.6375 0.712472 -2.8637 0
M  V30 560 H 55.7185 -0.982348 -2.36185 0
M  V30 561 H 55.3625 -1.69453 -4.78799 0
M  V30 562 H 55.2925 0.0202385 -5.26596 0
M  V30 563 H 57.7835 -0.389138 -3.75891 0
M  V30 564 H 58.0965 -1.41513 -7.59733 0
M  V30 565 H 56.4415 -1.26583 -6.83375 0
M  V30 566 H 59.6325 -0.565748 -4.64669 0
M  V30 567 H 59.8055 -1.03338 -6.39707 0
M  V30 568 N 53.2116 1.57565 -0.0334293 0
M  V30 569 C 54.1416 2.13511 0.945265 0
M  V30 570 C 55.1226 1.05231 1.33643 0
M  V30 571 O 56.3076 1.33084 1.41429 0
M  V30 572 C 53.4376 2.6657 2.22616 0
M  V30 573 C 52.3916 3.79676 1.97561 0
M  V30 574 C 51.7176 4.1918 3.31952 0
M  V30 575 C 53.0176 5.0557 1.31135 0
M  V30 576 H 54.7116 2.95538 0.479325 0
M  V30 577 H 52.2576 1.42166 0.229115 0
M  V30 578 H 54.2106 3.04344 2.91466 0
M  V30 579 H 52.9346 1.8171 2.71384 0
M  V30 580 H 51.5936 3.42347 1.31127 0
M  V30 581 H 51.2416 3.31296 3.78487 0
M  V30 582 H 50.9416 4.95402 3.15992 0
M  V30 583 H 52.4656 4.59541 4.02063 0
M  V30 584 H 53.8796 5.40903 1.89992 0
M  V30 585 H 52.2766 5.86818 1.25559 0
M  V30 586 H 53.3466 4.84062 0.284894 0
M  V30 587 N 54.6897 -0.239769 1.55765 0
M  V30 588 C 55.6197 -1.30052 1.9393 0
M  V30 589 C 56.6007 -1.49839 0.805132 0
M  V30 590 O 57.7857 -1.62328 1.06599 0
M  V30 591 C 54.9157 -2.65391 2.2402 0
M  V30 592 C 53.8697 -2.60289 3.39755 0
M  V30 593 C 53.1957 -3.99489 3.55405 0
M  V30 594 C 54.4957 -2.16654 4.75246 0
M  V30 595 H 56.1897 -0.983573 2.82783 0
M  V30 596 H 53.7357 -0.471701 1.36055 0
M  V30 597 H 55.6887 -3.3974 2.49308 0
M  V30 598 H 54.4127 -2.98736 1.32 0
M  V30 599 H 53.0717 -1.88398 3.14487 0
M  V30 600 H 52.7197 -4.30112 2.60793 0
M  V30 601 H 52.4197 -3.96962 4.33238 0
M  V30 602 H 53.9437 -4.75528 3.83022 0
M  V30 603 H 55.3577 -2.80737 4.99859 0
M  V30 604 H 53.7547 -2.25223 5.56232 0
M  V30 605 H 54.8247 -1.11835 4.71827 0
M  V30 606 N 56.1678 -1.49265 -0.50573 0
M  V30 607 C 57.1148 -1.65585 -1.6078 0
M  V30 608 C 58.0848 -0.497396 -1.58478 0
M  V30 609 O 59.2698 -0.72385 -1.76536 0
M  V30 610 C 56.4098 -1.72408 -2.98948 0
M  V30 611 C 55.5228 -2.99525 -3.11301 0
M  V30 612 C 54.6578 -2.97356 -4.40174 0
M  V30 613 C 53.6968 -4.19074 -4.46143 0
M  V30 614 N 52.8338 -4.14841 -5.66437 0
M  V30 615 H 57.6738 -2.59688 -1.46172 0
M  V30 616 H 55.2108 -1.28761 -0.711261 0
M  V30 617 H 57.1688 -1.74344 -3.79025 0
M  V30 618 H 55.7988 -0.817753 -3.1227 0
M  V30 619 H 54.8508 -3.07222 -2.24318 0
M  V30 620 H 56.1628 -3.89518 -3.11572 0
M  V30 621 H 55.3168 -2.97829 -5.28567 0
M  V30 622 H 54.0558 -2.05133 -4.42461 0
M  V30 623 H 53.0608 -4.1885 -3.56153 0
M  V30 624 H 54.2858 -5.12483 -4.45575 0
M  V30 625 H 52.2318 -3.25453 -5.69575 0
M  V30 626 H 52.1488 -4.98564 -5.68304 0
M  V30 627 H 53.4168 -4.1941 -6.57051 0
M  V30 628 N 57.6459 0.756429 -1.3826 0
M  V30 629 C 58.5559 1.9009 -1.37488 0
M  V30 630 C 59.5719 1.71855 -0.272366 0
M  V30 631 O 60.7479 1.94827 -0.510318 0
M  V30 632 C 57.8129 3.25421 -1.19592 0
M  V30 633 C 56.8739 3.56202 -2.39622 0
M  V30 634 C 56.1069 4.85075 -2.2257 0
M  V30 635 O 56.3299 5.57246 -1.21793 0
M  V30 636 O 55.2639 5.15269 -3.11098 0
M  V30 637 H 59.0899 1.93695 -2.33914 0
M  V30 638 H 56.6749 0.901313 -1.1915 0
M  V30 639 H 58.5569 4.06337 -1.11661 0
M  V30 640 H 57.2319 3.22634 -0.262486 0
M  V30 641 H 56.1389 2.75458 -2.53128 0
M  V30 642 H 57.4719 3.63747 -3.31586 0
M  V30 643 N 59.124 1.23083 0.984299 0
M  V30 644 C 60.54 0.992637 1.24975 0
M  V30 645 C 60.74 -0.308618 1.99123 0
M  V30 646 O 59.796 -1.02905 2.30579 0
M  V30 647 C 61.109 2.19698 2.05312 0
M  V30 648 C 62.657 2.24147 2.18465 0
M  V30 649 C 63.132 3.44157 3.02192 0
M  V30 650 N 64.623 3.44372 3.09777 0
M  V30 651 C 65.358 4.33886 3.74874 0
M  V30 652 N 64.854 5.3363 4.41827 0
M  V30 653 N 66.647 4.21639 3.71721 0
M  V30 654 H 58.798 2.06731 0.487453 0
M  V30 655 H 61.061 0.906339 0.277944 0
M  V30 656 H 60.767 3.1411 1.58201 0
M  V30 657 H 60.641 2.20465 3.06064 0
M  V30 658 H 63.028 1.30277 2.64786 0
M  V30 659 H 63.109 2.27415 1.17115 0
M  V30 660 H 62.753 4.38332 2.56568 0
M  V30 661 H 62.683 3.3813 4.03702 0
M  V30 662 H 65.174 2.72201 2.62135 0
M  V30 663 H 65.487 5.98196 4.89266 0
M  V30 664 H 63.832 5.37534 4.40548 0
M  V30 665 H 67.023 3.42962 3.18582 0
M  V30 666 H 67.196 4.91604 4.22173 0
M  V30 667 N 60.6021 -1.18246 1.0419 0
M  V30 668 C 61.8481 -1.88536 0.747122 0
M  V30 669 C 62.1811 -1.80223 -0.723409 0
M  V30 670 O 61.4561 -1.20337 -1.52804 0
M  V30 671 C 61.7391 -3.38968 1.21544 0
M  V30 672 C 61.5921 -3.56084 2.74816 0
M  V30 673 C 62.9111 -4.32648 0.806482 0
M  V30 674 H 60.0301 -0.684619 0.272883 0
M  V30 675 H 62.6721 -1.39113 1.29413 0
M  V30 676 H 60.8221 -3.8119 0.750081 0
M  V30 677 H 62.4941 -3.22946 3.29399 0
M  V30 678 H 60.7371 -2.98699 3.14582 0
M  V30 679 H 61.4081 -4.61639 3.02644 0
M  V30 680 H 63.8841 -3.98211 1.20695 0
M  V30 681 H 62.7601 -5.36462 1.1619 0
M  V30 682 H 63.0211 -4.41146 -0.29029 0
M  V30 683 N 62.0802 -0.821533 -1.34494 0
M  V30 684 C 63.3292 -0.405355 -1.97585 0
M  V30 685 C 63.6422 1.03677 -1.65863 0
M  V30 686 O 64.8482 1.55679 -2.22433 0
M  V30 687 C 63.3042 -0.673861 -3.53535 0
M  V30 688 C 62.9122 -2.12951 -3.94152 0
M  V30 689 C 64.6562 -0.32378 -4.23263 0
M  V30 690 C 62.5632 -2.34298 -5.43009 0
M  V30 691 H 61.4932 -0.147836 -0.739365 0
M  V30 692 H 64.1442 -1.00769 -1.53355 0
M  V30 693 H 62.5262 -0.00137554 -3.96 0
M  V30 694 H 63.7002 -2.84104 -3.62797 0
M  V30 695 H 62.0152 -2.44089 -3.37356 0
M  V30 696 H 64.6122 -0.461126 -5.32708 0
M  V30 697 H 64.9552 0.731586 -4.09821 0
M  V30 698 H 65.4882 -0.950786 -3.8627 0
M  V30 699 H 62.2272 -3.38335 -5.61435 0
M  V30 700 H 61.7472 -1.67687 -5.75883 0
M  V30 701 H 63.4262 -2.16588 -6.09671 0
M  V30 702 N 63.5583 1.46682 -0.576371 0
M  V30 703 C 64.8053 2.02412 -0.0595339 0
M  V30 704 C 65.1333 1.44859 1.29793 0
M  V30 705 O 64.3883 0.601099 1.8624 0
M  V30 706 C 64.6873 3.57345 0.062886 0
M  V30 707 C 64.3533 4.33908 -1.22616 0
M  V30 708 C 63.0153 4.54544 -1.57933 0
M  V30 709 C 65.3673 4.77919 -2.07948 0
M  V30 710 C 62.6953 5.16444 -2.78393 0
M  V30 711 C 65.0473 5.41149 -3.27629 0
M  V30 712 C 63.7113 5.60014 -3.63236 0
M  V30 713 H 62.9813 0.74068 -0.021785 0
M  V30 714 H 65.6283 1.76128 -0.751735 0
M  V30 715 H 63.9333 3.82729 0.838178 0
M  V30 716 H 65.6303 3.98136 0.478439 0
M  V30 717 H 62.2203 4.18138 -0.941202 0
M  V30 718 H 66.4043 4.61738 -1.81967 0
M  V30 719 H 61.6603 5.29242 -3.06126 0
M  V30 720 H 65.8343 5.74211 -3.94023 0
M  V30 721 H 63.4613 6.07748 -4.56669 0
M  V30 722 N 65.0364 0.313813 1.54444 0
M  V30 723 C 65.9664 -0.549454 2.26943 0
M  V30 724 C 66.9474 -1.12741 1.27372 0
M  V30 725 O 68.1324 -1.15436 1.56167 0
M  V30 726 C 65.2624 -1.71523 3.01989 0
M  V30 727 C 64.2164 -1.26703 4.08816 0
M  V30 728 C 63.5424 -2.51898 4.71647 0
M  V30 729 C 64.8424 -0.388962 5.2085 0
M  V30 730 H 66.5364 0.0552661 2.99349 0
M  V30 731 H 64.0824 0.0280207 1.43973 0
M  V30 732 H 66.0354 -2.32535 3.51433 0
M  V30 733 H 64.7594 -2.34639 2.27183 0
M  V30 734 H 63.4184 -0.679896 3.6024 0
M  V30 735 H 63.0664 -3.13356 3.93468 0
M  V30 736 H 62.7664 -2.22605 5.43802 0
M  V30 737 H 64.2904 -3.1369 5.23861 0
M  V30 738 H 65.7044 -0.905107 5.6611 0
M  V30 739 H 64.1014 -0.18924 5.99802 0
M  V30 740 H 65.1714 0.582699 4.81386 0
M  V30 741 N 66.5145 -1.57545 0.0417849 0
M  V30 742 C 67.7425 -1.96624 -0.643928 0
M  V30 743 C 68.1575 -0.918897 -1.64929 0
M  V30 744 O 67.5145 0.0979323 -1.82237 0
M  V30 745 C 67.5655 -3.35781 -1.33914 0
M  V30 746 O 67.2865 -4.365 -0.374048 0
M  V30 747 C 68.7875 -3.89566 -2.1155 0
M  V30 748 H 66.0075 -0.647316 -0.176702 0
M  V30 749 H 68.5515 -2.04229 0.105304 0
M  V30 750 H 66.7065 -3.29357 -2.03968 0
M  V30 751 H 67.1205 -5.17248 -0.869179 0
M  V30 752 H 68.5945 -4.89242 -2.55628 0
M  V30 753 H 69.0715 -3.24488 -2.9598 0
M  V30 754 H 69.6775 -3.99298 -1.46427 0
M  V30 755 N 67.9926 0.231505 -1.5589 0
M  V30 756 C 69.2406 0.955461 -1.78088 0
M  V30 757 C 69.5616 1.85262 -0.608533 0
M  V30 758 O 68.8316 1.92277 0.375035 0
M  V30 759 H 67.4116 0.355787 -0.656829 0
M  V30 760 H 70.0736 0.245751 -1.93344 0
M  V30 761 H 69.1696 1.56814 -2.69844 0
M  V30 762 N 69.4707 1.49531 0.497807 0
M  V30 763 C 70.4027 1.62559 1.61578 0
M  V30 764 C 71.4157 0.508134 1.54667 0
M  V30 765 O 72.6047 0.780309 1.60541 0
M  V30 766 C 69.7047 1.56925 3.00379 0
M  V30 767 C 68.8777 2.84257 3.3244 0
M  V30 768 C 67.9367 2.71632 4.50669 0
M  V30 769 O 66.9627 3.4557 4.52294 0
M  V30 770 N 68.1647 1.83391 5.5077 0
M  V30 771 H 70.9297 2.58981 1.50828 0
M  V30 772 H 68.4907 1.4666 0.685743 0
M  V30 773 H 70.4827 1.46129 3.77397 0
M  V30 774 H 69.0527 0.683483 3.05037 0
M  V30 775 H 68.2727 3.09381 2.44289 0
M  V30 776 H 69.5607 3.68666 3.5066 0
M  V30 777 H 68.9587 1.22583 5.52259 0
M  V30 778 H 67.5157 1.78515 6.26878 0
M  V30 779 N 70.9488 -0.749086 1.3866 0
M  V30 780 C 72.1948 -1.51056 1.35314 0
M  V30 781 C 72.5278 -1.94121 -0.0553751 0
M  V30 782 O 71.8028 -1.65763 -1.01749 0
M  V30 783 C 72.0858 -2.76003 2.31288 0
M  V30 784 C 71.9388 -2.39047 3.8102 0
M  V30 785 C 73.2578 -3.78046 2.2532 0
M  V30 786 H 70.3768 -0.547972 0.492844 0
M  V30 787 H 73.0188 -0.857628 1.69543 0
M  V30 788 H 71.1688 -3.31716 2.02229 0
M  V30 789 H 72.8408 -1.89074 4.20771 0
M  V30 790 H 71.0838 -1.71449 3.98482 0
M  V30 791 H 71.7548 -3.28462 4.4364 0
M  V30 792 H 74.2308 -3.31884 2.50983 0
M  V30 793 H 73.1068 -4.63159 2.94576 0
M  V30 794 H 73.3678 -4.23957 1.25352 0
M  V30 795 N 72.4269 -1.23603 -0.977757 0
M  V30 796 C 73.3369 -1.03632 -2.1047 0
M  V30 797 C 74.3529 0.0199435 -1.73989 0
M  V30 798 O 75.5289 -0.176076 -2.00629 0
M  V30 799 C 72.5939 -0.63276 -3.40877 0
M  V30 800 C 71.6549 -1.76437 -3.91367 0
M  V30 801 C 70.8879 -1.37997 -5.15551 0
M  V30 802 O 71.1109 -0.265357 -5.69782 0
M  V30 803 O 70.0449 -2.20201 -5.60174 0
M  V30 804 H 73.8709 -1.98086 -2.30208 0
M  V30 805 H 71.4559 -1.02332 -1.08851 0
M  V30 806 H 73.3379 -0.418761 -4.19314 0
M  V30 807 H 72.0129 0.282754 -3.22463 0
M  V30 808 H 70.9199 -2.03304 -3.14036 0
M  V30 809 H 72.2529 -2.6583 -4.14241 0
M  V30 810 N 73.905 1.17692 -1.04816 0
M  V30 811 C 75.182 1.83768 -0.669963 0
M  V30 812 C 75.562 1.93232 0.849986 0
M  V30 813 O 74.91 1.46397 1.75443 0
M  V30 814 C 75.12 3.21641 -1.35455 0
M  V30 815 C 76.468 3.97592 -1.49017 0
M  V30 816 O 77.492 3.31107 -1.31326 0
M  V30 817 O 76.351 5.16729 -1.77914 0
M  V30 818 H 73.445 0.792799 -0.235368 0
M  V30 819 H 75.991 1.25021 -1.14751 0
M  V30 820 H 74.763 3.097 -2.39168 0
M  V30 821 H 74.386 3.88052 -0.866107 0
M  V30 822 N 75.3831 0.828654 1.34056 0
M  V30 823 C 76.3331 0.226828 2.26869 0
M  V30 824 C 77.3171 -0.612243 1.48796 0
M  V30 825 O 78.5091 -0.465884 1.70759 0
M  V30 826 C 75.6381 -0.605654 3.37915 0
M  V30 827 C 74.7241 0.244361 4.23395 0
M  V30 828 N 75.1151 1.31815 4.88322 0
M  V30 829 C 73.4131 0.0296616 4.4599 0
M  V30 830 C 74.1141 1.83895 5.51867 0
M  V30 831 N 73.0901 1.14196 5.3147 0
M  V30 832 H 76.8921 1.04811 2.74576 0
M  V30 833 H 74.4061 0.67205 1.47842 0
M  V30 834 H 76.4031 -1.05302 4.03382 0
M  V30 835 H 75.0631 -1.42504 2.91758 0
M  V30 836 H 76.0741 1.70099 4.8917 0
M  V30 837 H 72.7511 -0.757097 4.10578 0
M  V30 838 H 74.1411 2.7376 6.136 0
M  V30 839 N 76.8612 -1.46375 0.584142 0
M  V30 840 C 77.7942 -2.27351 -0.196676 0
M  V30 841 C 78.7722 -1.35715 -0.895561 0
M  V30 842 O 79.9562 -1.65126 -0.90916 0
M  V30 843 C 77.0832 -3.13486 -1.28235 0
M  V30 844 C 76.1292 -4.20896 -0.689145 0
M  V30 845 S 76.9622 -5.33299 0.48507 0
M  V30 846 C 78.1182 -6.23 -0.601767 0
M  V30 847 H 78.3512 -2.93228 0.490395 0
M  V30 848 H 75.8842 -1.49875 0.371071 0
M  V30 849 H 77.8422 -3.63676 -1.90395 0
M  V30 850 H 76.5032 -2.4692 -1.94138 0
M  V30 851 H 75.6962 -4.80997 -1.50527 0
M  V30 852 H 75.2982 -3.73726 -0.143181 0
M  V30 853 H 77.5902 -6.60979 -1.48705 0
M  V30 854 H 78.5332 -7.0809 -0.0374799 0
M  V30 855 H 78.9412 -5.57173 -0.906557 0
M  V30 856 N 78.3393 -0.321999 -1.54275 0
M  V30 857 C 79.3023 0.531975 -2.22941 0
M  V30 858 C 80.3023 1.04478 -1.22234 0
M  V30 859 O 81.4923 0.937452 -1.46825 0
M  V30 860 C 78.6243 1.73874 -2.93224 0
M  V30 861 H 79.8173 -0.0682612 -2.99822 0
M  V30 862 H 77.3703 -0.0730644 -1.56129 0
M  V30 863 H 78.1053 2.37825 -2.20476 0
M  V30 864 H 77.8903 1.37847 -3.6707 0
M  V30 865 H 79.3803 2.34496 -3.45545 0
M  V30 866 N 79.8174 1.5752 -0.0501392 0
M  V30 867 C 80.7654 2.12651 0.942459 0
M  V30 868 C 81.7594 1.05807 1.32292 0
M  V30 869 O 82.9654 1.24217 1.3027 0
M  V30 870 H 79.3404 0.679673 0.321789 0
M  V30 871 H 81.3114 2.94951 0.452356 0
M  V30 872 C 80.0604 2.68565 2.20836 0
M  V30 873 H 79.3834 3.50439 1.92439 0
M  V30 874 H 80.8234 3.10761 2.8845 0
M  V30 875 C 79.2824 1.62291 2.95234 0
M  V30 876 O 79.8124 1.03508 3.88135 0
M  V30 877 N 78.0184 1.33836 2.57946 0
M  V30 878 H 77.5654 1.81826 1.82475 0
M  V30 879 H 77.5234 0.629595 3.08032 0
M  V30 880 N 81.2955 -0.223234 1.56011 0
M  V30 881 C 82.2255 -1.27988 1.95298 0
M  V30 882 C 83.2065 -1.48976 0.820979 0
M  V30 883 O 84.3915 -1.61188 1.08315 0
M  V30 884 C 81.5215 -2.63 2.26822 0
M  V30 885 C 80.4755 -2.56671 3.42497 0
M  V30 886 C 79.8015 -3.95697 3.59622 0
M  V30 887 C 81.1015 -2.11601 4.77517 0
M  V30 888 H 82.7955 -0.953525 2.8381 0
M  V30 889 H 80.3415 -0.457244 1.36548 0
M  V30 890 H 82.2945 -3.37077 2.52898 0
M  V30 891 H 81.0185 -2.9732 1.35161 0
M  V30 892 H 79.6775 -1.85051 3.16467 0
M  V30 893 H 79.3255 -4.27322 2.6534 0
M  V30 894 H 79.0255 -3.92345 4.37424 0
M  V30 895 H 80.5495 -4.71438 3.88044 0
M  V30 896 H 81.9635 -2.7542 5.02809 0
M  V30 897 H 80.3605 -2.19311 5.5859 0
M  V30 898 H 81.4305 -1.06824 4.72987 0
M  V30 899 N 82.7736 -1.49793 -0.48987 0
M  V30 900 C 84.0226 -1.59085 -1.23995 0
M  V30 901 C 84.3356 -0.287907 -1.9347 0
M  V30 902 O 85.5416 -0.259506 -2.70257 0
M  V30 903 C 83.9976 -2.80736 -2.252 0
M  V30 904 C 83.6056 -4.17833 -1.61614 0
M  V30 905 C 85.3496 -2.99364 -3.00967 0
M  V30 906 C 83.2566 -5.30693 -2.60996 0
M  V30 907 H 82.1866 -0.592372 -0.466488 0
M  V30 908 H 84.8376 -1.76197 -0.51252 0
M  V30 909 H 83.2196 -2.57142 -3.01154 0
M  V30 910 H 84.3936 -4.51608 -0.915774 0
M  V30 911 H 82.7086 -4.04656 -0.981977 0
M  V30 912 H 85.3056 -3.80851 -3.75308 0
M  V30 913 H 85.6486 -2.10356 -3.59244 0
M  V30 914 H 86.1816 -3.2305 -2.32128 0
M  V30 915 H 82.9206 -6.21796 -2.07485 0
M  V30 916 H 82.4406 -5.01359 -3.2924 0
M  V30 917 H 84.1196 -5.6049 -3.23202 0
M  V30 918 N 84.2517 0.741722 -1.39055 0
M  V30 919 C 85.4977 1.50336 -1.36113 0
M  V30 920 C 85.8307 1.94148 0.0450796 0
M  V30 921 O 85.1057 1.66301 1.00868 0
M  V30 922 C 85.3887 2.74773 -2.32749 0
M  V30 923 C 85.2417 2.37023 -3.82283 0
M  V30 924 C 86.5607 3.76846 -2.27322 0
M  V30 925 H 83.6797 0.545351 -0.495743 0
M  V30 926 H 86.3217 0.848624 -1.69995 0
M  V30 927 H 84.4717 3.30639 -2.03986 0
M  V30 928 H 86.1437 1.8684 -4.21768 0
M  V30 929 H 84.3867 1.69334 -3.99385 0
M  V30 930 H 85.0577 3.26104 -4.45376 0
M  V30 931 H 87.5337 3.30548 -2.5274 0
M  V30 932 H 86.4097 4.6159 -2.97028 0
M  V30 933 H 86.6707 4.23286 -1.27599 0
M  V30 934 N 85.7298 1.2412 0.971189 0
M  V30 935 C 86.6928 1.03156 2.04674 0
M  V30 936 C 87.6928 -0.00990322 1.60797 0
M  V30 937 O 88.8828 0.230729 1.72665 0
M  V30 938 C 86.0148 0.562765 3.36223 0
M  V30 939 H 87.2078 1.98614 2.24705 0
M  V30 940 H 84.7608 1.06293 1.14593 0
M  V30 941 H 85.4958 -0.395176 3.21883 0
M  V30 942 H 85.2808 1.31441 3.69413 0
M  V30 943 H 86.7708 0.437015 4.15307 0
M  V30 944 N 87.2079 -1.17134 1.05439 0
M  V30 945 C 88.1399 -2.2078 0.615539 0
M  V30 946 C 89.1529 -1.59584 -0.322001 0
M  V30 947 O 90.3419 -1.78133 -0.114344 0
M  V30 948 C 87.4419 -3.38691 -0.118938 0
M  V30 949 C 86.6149 -4.29454 0.829924 0
M  V30 950 C 85.6739 -5.26024 0.136258 0
M  V30 951 O 84.6999 -5.63952 0.77115 0
M  V30 952 N 85.9019 -5.69487 -1.1254 0
M  V30 953 H 88.6669 -2.59052 1.50705 0
M  V30 954 H 86.2279 -1.32058 0.936603 0
M  V30 955 H 88.2199 -4.00329 -0.593179 0
M  V30 956 H 86.7899 -2.98996 -0.91215 0
M  V30 957 H 86.0099 -3.65211 1.48373 0
M  V30 958 H 87.2979 -4.86984 1.47392 0
M  V30 959 H 86.6959 -5.4075 -1.6615 0
M  V30 960 H 85.2529 -6.33257 -1.54366 0
M  V30 961 N 88.686 -0.835752 -1.33615 0
M  V30 962 C 89.619 -0.211815 -2.27215 0
M  V30 963 C 90.597 0.639249 -1.49507 0
M  V30 964 O 91.781 0.600193 -1.78689 0
M  V30 965 C 88.908 0.702893 -3.31326 0
M  V30 966 C 87.954 -0.0723049 -4.26439 0
M  V30 967 S 88.787 -1.42811 -5.16106 0
M  V30 968 C 89.943 -0.518613 -6.23748 0
M  V30 969 H 90.176 -1.00533 -2.79786 0
M  V30 970 H 87.709 -0.632336 -1.40858 0
M  V30 971 H 89.667 1.22505 -3.91794 0
M  V30 972 H 88.328 1.47004 -2.77576 0
M  V30 973 H 87.521 0.62359 -5.00127 0
M  V30 974 H 87.123 -0.525424 -3.70291 0
M  V30 975 H 89.415 0.284778 -6.76901 0
M  V30 976 H 90.358 -1.22556 -6.97413 0
M  V30 977 H 90.766 -0.101344 -5.64409 0
M  V30 978 N 90.1641 1.46063 -0.591896 0
M  V30 979 C 91.0941 2.33172 0.123673 0
M  V30 980 C 92.0751 1.45897 0.87453 0
M  V30 981 O 93.2601 1.74698 0.848181 0
M  V30 982 C 90.3901 3.28336 1.13194 0
M  V30 983 C 89.3441 4.25124 0.495324 0
M  V30 984 C 88.6701 5.09863 1.61071 0
M  V30 985 C 89.9701 5.19143 -0.573425 0
M  V30 986 H 91.6641 2.93252 -0.603646 0
M  V30 987 H 89.2101 1.41014 -0.291741 0
M  V30 988 H 91.1631 3.88137 1.64097 0
M  V30 989 H 89.8871 2.66383 1.88965 0
M  V30 990 H 88.5461 3.66599 0.00729452 0
M  V30 991 H 88.1941 4.44288 2.35832 0
M  V30 992 H 87.8941 5.75417 1.19035 0
M  V30 993 H 89.4181 5.72529 2.12233 0
M  V30 994 H 90.8321 5.73106 -0.1491 0
M  V30 995 H 89.2291 5.93089 -0.914636 0
M  V30 996 H 90.2991 4.62519 -1.45617 0
M  V30 997 N 91.6422 0.330177 1.54103 0
M  V30 998 C 92.8892 -0.270405 2.00686 0
M  V30 999 C 93.2172 -1.51621 1.21825 0
M  V30 1000 O 92.4722 -1.93536 0.29025 0
M  V30 1001 C 92.7712 -0.643134 3.51566 0
M  V30 1002 C 92.4372 0.504251 4.48072 0
M  V30 1003 C 91.0992 0.819163 4.74176 0
M  V30 1004 C 93.4512 1.27465 5.05373 0
M  V30 1005 C 90.7792 1.90708 5.5484 0
M  V30 1006 C 93.1312 2.35271 5.87223 0
M  V30 1007 C 91.7952 2.67336 6.11627 0
M  V30 1008 H 91.0652 -0.0989482 0.734364 0
M  V30 1009 H 93.7122 0.455324 1.86008 0
M  V30 1010 H 92.0172 -1.44938 3.64006 0
M  V30 1011 H 93.7142 -1.11949 3.85056 0
M  V30 1012 H 90.3042 0.248733 4.27878 0
M  V30 1013 H 94.4882 1.04462 4.85182 0
M  V30 1014 H 89.7442 2.15991 5.71977 0
M  V30 1015 H 93.9182 2.95405 6.30641 0
M  V30 1016 H 91.5452 3.51763 6.73919 0
M  V30 1017 N 93.1203 -1.57491 0.0584922 0
M  V30 1018 C 94.0503 -2.14988 -0.911178 0
M  V30 1019 C 95.0313 -1.07343 -1.31952 0
M  V30 1020 O 96.2163 -1.35318 -1.39294 0
M  V30 1021 C 93.3463 -2.70078 -2.18347 0
M  V30 1022 C 92.3003 -3.82771 -1.91495 0
M  V30 1023 C 91.6263 -4.24408 -3.25241 0
M  V30 1024 C 92.9263 -5.07592 -1.23075 0
M  V30 1025 H 94.6203 -2.96263 -0.432246 0
M  V30 1026 H 92.1663 -1.42512 -0.206469 0
M  V30 1027 H 94.1193 -3.08943 -2.86587 0
M  V30 1028 H 92.8433 -1.86005 -2.68458 0
M  V30 1029 H 91.5023 -3.44389 -1.25664 0
M  V30 1030 H 91.1503 -3.37275 -3.73168 0
M  V30 1031 H 90.8503 -5.00366 -3.08071 0
M  V30 1032 H 92.3743 -4.65879 -3.94701 0
M  V30 1033 H 93.7883 -5.43857 -1.81362 0
M  V30 1034 H 92.1853 -5.88741 -1.16207 0
M  V30 1035 H 93.2553 -4.84454 -0.207847 0
M  V30 1036 N 94.5984 0.214957 -1.56127 0
M  V30 1037 C 95.5084 1.28727 -1.96129 0
M  V30 1038 C 96.5244 1.50916 -0.866044 0
M  V30 1039 O 97.7004 1.63918 -1.17016 0
M  V30 1040 C 94.7654 2.61569 -2.27558 0
M  V30 1041 C 93.8264 2.47625 -3.50685 0
M  V30 1042 C 93.0594 3.74132 -3.80606 0
M  V30 1043 O 93.2824 4.77438 -3.12104 0
M  V30 1044 O 92.2164 3.70849 -4.74083 0
M  V30 1045 H 96.0424 0.977855 -2.87527 0
M  V30 1046 H 93.6274 0.418358 -1.43423 0
M  V30 1047 H 95.5094 3.40012 -2.48938 0
M  V30 1048 H 94.1844 2.92178 -1.39332 0
M  V30 1049 H 93.0914 1.67361 -3.34576 0
M  V30 1050 H 94.4244 2.21954 -4.39315 0
M  V30 1051 N 96.0765 1.50051 0.48192 0
M  V30 1052 C 97.0395 1.67584 1.5636 0
M  V30 1053 C 98.0395 0.546894 1.51214 0
M  V30 1054 O 99.2295 0.813725 1.54026 0
M  V30 1055 C 96.3615 1.691 2.96003 0
M  V30 1056 H 97.5545 2.64078 1.42136 0
M  V30 1057 H 95.1075 1.39369 0.707533 0
M  V30 1058 H 95.8425 0.742589 3.15684 0
M  V30 1059 H 95.6275 2.51105 3.01146 0
M  V30 1060 H 97.1175 1.84656 3.74556 0
M  V30 1061 N 97.5546 -0.734337 1.39446 0
M  V30 1062 C 98.4646 -1.87879 1.40495 0
M  V30 1063 C 99.4806 -1.714 0.299672 0
M  V30 1064 O 100.657 -1.93991 0.541249 0
M  V30 1065 C 97.7216 -3.23477 1.24754 0
M  V30 1066 C 96.7826 -3.52344 2.45259 0
M  V30 1067 C 96.0156 -4.81473 2.30259 0
M  V30 1068 O 96.2386 -5.55237 1.30643 0
M  V30 1069 O 95.1726 -5.10254 3.19256 0
M  V30 1070 H 98.9986 -1.89949 2.36966 0
M  V30 1071 H 96.5836 -0.882243 1.20569 0
M  V30 1072 H 98.4656 -4.04509 1.18111 0
M  V30 1073 H 97.1406 -3.22176 0.313781 0
M  V30 1074 H 96.0476 -2.71396 2.57478 0
M  V30 1075 H 97.3806 -3.58426 3.37331 0
M  V30 1076 N 99.0327 -1.24633 -0.964593 0
M  V30 1077 C 99.9807 -1.03917 -2.08096 0
M  V30 1078 C 100.975 0.0268581 -1.69379 0
M  V30 1079 O 102.181 -0.127952 -1.79545 0
M  V30 1080 H 98.5557 -0.319044 -0.680966 0
M  V30 1081 H 100.527 -1.98581 -2.22729 0
M  V30 1082 C 99.2757 -0.663983 -3.41301 0
M  V30 1083 H 98.5987 -1.47605 -3.71555 0
M  V30 1084 H 100.039 -0.558663 -4.20303 0
M  V30 1085 C 98.4977 0.629169 -3.30973 0
M  V30 1086 O 99.0277 1.67404 -3.65156 0
M  V30 1087 N 97.2337 0.611057 -2.84103 0
M  V30 1088 H 96.7807 -0.239593 -2.56483 0
M  V30 1089 H 96.7387 1.47647 -2.77575 0
M  V30 1090 N 100.511 1.16574 -1.06058 0
M  V30 1091 C 101.922 1.68662 -0.800632 0
M  V30 1092 C 102.273 1.84184 0.67608 0
M  V30 1093 O 101.398 1.53568 1.52466 0
M  V30 1094 C 101.993 3.06356 -1.44676 0
M  V30 1095 C 100.552 3.55575 -1.23465 0
M  V30 1096 C 99.6988 2.31616 -1.52477 0
M  V30 1097 H 102.65 1.00969 -1.22438 0
M  V30 1098 H 102.671 3.70636 -0.860788 0
M  V30 1099 H 102.183 2.95027 -2.52152 0
M  V30 1100 H 100.284 3.72167 -0.179527 0
M  V30 1101 H 100.397 4.37812 -1.94571 0
M  V30 1102 H 98.7608 2.36512 -0.945209 0
M  V30 1103 H 99.5438 2.22887 -2.61106 0
M  V30 1104 N 101.989 0.842826 1.3317 0
M  V30 1105 C 102.899 0.281444 2.32906 0
M  V30 1106 C 103.915 -0.594587 1.63526 0
M  V30 1107 O 105.091 -0.49777 1.95152 0
M  V30 1108 C 102.156 -0.530929 3.42611 0
M  V30 1109 C 101.217 0.369843 4.27704 0
M  V30 1110 C 100.45 -0.403853 5.3217 0
M  V30 1111 O 100.673 -1.63513 5.46461 0
M  V30 1112 O 99.6069 0.224199 6.01482 0
M  V30 1113 H 103.433 1.10744 2.82789 0
M  V30 1114 H 101.018 0.60545 1.36582 0
M  V30 1115 H 102.9 -0.992437 4.09547 0
M  V30 1116 H 101.575 -1.33392 2.94938 0
M  V30 1117 H 100.482 0.879275 3.6362 0
M  V30 1118 H 101.815 1.13771 4.78871 0
M  V30 1119 N 103.467 -1.45747 0.599634 0
M  V30 1120 C 104.414 -2.30467 -0.123849 0
M  V30 1121 C 105.384 -1.41632 -0.86774 0
M  V30 1122 O 106.569 -1.70568 -0.855056 0
M  V30 1123 C 103.709 -3.26402 -1.12051 0
M  V30 1124 C 102.822 -4.3034 -0.37832 0
M  V30 1125 C 101.957 -5.13389 -1.364 0
M  V30 1126 C 100.996 -6.09061 -0.609171 0
M  V30 1127 N 100.133 -6.84918 -1.54374 0
M  V30 1128 H 104.973 -2.91802 0.604627 0
M  V30 1129 H 102.51 -1.43797 0.309972 0
M  V30 1130 H 104.468 -3.80482 -1.7114 0
M  V30 1131 H 103.098 -2.66839 -1.8165 0
M  V30 1132 H 102.15 -3.78984 0.327929 0
M  V30 1133 H 103.462 -4.98354 0.210997 0
M  V30 1134 H 102.616 -5.7183 -2.02719 0
M  V30 1135 H 101.355 -4.45376 -1.98725 0
M  V30 1136 H 100.36 -5.49758 0.0676979 0
M  V30 1137 H 101.585 -6.79099 0.00891991 0
M  V30 1138 H 99.531 -6.19601 -2.15478 0
M  V30 1139 H 99.448 -7.49254 -1.00766 0
M  V30 1140 H 100.716 -7.47906 -2.19676 0
M  V30 1141 N 104.945 -0.338344 -1.53925 0
M  V30 1142 C 106.222 0.314774 -1.93051 0
M  V30 1143 C 106.602 1.68669 -1.26941 0
M  V30 1144 O 105.95 2.24636 -0.418445 0
M  V30 1145 C 106.16 0.392249 -3.46789 0
M  V30 1146 C 107.508 0.645554 -4.19664 0
M  V30 1147 O 108.532 0.474575 -3.53024 0
M  V30 1148 O 107.391 0.976408 -5.37707 0
M  V30 1149 H 104.485 0.182598 -0.80659 0
M  V30 1150 H 107.031 -0.389141 -1.65178 0
M  V30 1151 H 105.803 -0.570702 -3.87116 0
M  V30 1152 H 105.426 1.14316 -3.80812 0
M  V30 1153 N 106.423 1.57458 -0.0668435 0
M  V30 1154 C 107.672 1.92477 0.602947 0
M  V30 1155 C 107.985 0.948419 1.71068 0
M  V30 1156 O 109.191 1.19124 2.43971 0
M  V30 1157 C 107.647 3.41903 1.12383 0
M  V30 1158 C 107.255 4.47975 0.04737 0
M  V30 1159 C 108.999 3.85931 1.76797 0
M  V30 1160 C 106.906 5.88529 0.582022 0
M  V30 1161 H 105.836 0.718387 0.22899 0
M  V30 1162 H 108.487 1.82978 -0.138276 0
M  V30 1163 H 106.869 3.46459 1.91787 0
M  V30 1164 H 108.043 4.55029 -0.726978 0
M  V30 1165 H 106.358 4.13384 -0.500243 0
M  V30 1166 H 108.955 4.88322 2.17821 0
M  V30 1167 H 109.298 3.23029 2.62599 0
M  V30 1168 H 109.831 3.83958 1.04024 0
M  V30 1169 H 106.57 6.55065 -0.238721 0
M  V30 1170 H 106.09 5.85004 1.324 0
M  V30 1171 H 107.769 6.38258 1.05999 0
M  V30 1172 N 107.901 -0.206675 1.56239 0
M  V30 1173 C 109.131 -0.943975 1.83773 0
M  V30 1174 C 109.539 -1.77841 0.645703 0
M  V30 1175 O 108.882 -1.79403 -0.395008 0
M  V30 1176 C 108.944 -1.899 3.05251 0
M  V30 1177 C 108.608 -1.24764 4.39639 0
M  V30 1178 C 109.605 -0.630216 5.16066 0
M  V30 1179 C 107.29 -1.25496 4.8637 0
M  V30 1180 C 109.284 -0.0287946 6.37393 0
M  V30 1181 C 106.971 -0.649698 6.07637 0
M  V30 1182 C 107.969 -0.0376845 6.8299 0
M  V30 1183 O 107.657 0.55812 8.0196 0
M  V30 1184 H 107.389 -0.281508 0.614597 0
M  V30 1185 H 109.943 -0.222458 2.04192 0
M  V30 1186 H 108.173 -2.6599 2.80689 0
M  V30 1187 H 109.862 -2.5031 3.1953 0
M  V30 1188 H 110.628 -0.616785 4.81062 0
M  V30 1189 H 106.507 -1.72072 4.27683 0
M  V30 1190 H 110.051 0.449518 6.9615 0
M  V30 1191 H 105.948 -0.660592 6.42111 0
M  V30 1192 H 106.716 0.453891 8.17241 0
M  V30 1193 N 109.379 -1.50304 -0.473955 0
M  V30 1194 C 110.309 -1.71886 -1.58042 0
M  V30 1195 C 111.29 -0.567799 -1.60344 0
M  V30 1196 O 112.475 -0.806623 -1.76656 0
M  V30 1197 C 109.605 -1.81036 -2.96384 0
M  V30 1198 C 108.559 -2.962 -3.08949 0
M  V30 1199 C 107.885 -2.9049 -4.48909 0
M  V30 1200 C 109.185 -4.36752 -2.86434 0
M  V30 1201 H 110.879 -2.64527 -1.40234 0
M  V30 1202 H 108.425 -1.27295 -0.673201 0
M  V30 1203 H 110.378 -1.94719 -3.73714 0
M  V30 1204 H 109.102 -0.850147 -3.15341 0
M  V30 1205 H 107.761 -2.82164 -2.3405 0
M  V30 1206 H 107.409 -1.92321 -4.64781 0
M  V30 1207 H 107.109 -3.67802 -4.58253 0
M  V30 1208 H 108.633 -3.06218 -5.28264 0
M  V30 1209 H 110.047 -4.5133 -3.53517 0
M  V30 1210 H 108.444 -5.15493 -3.07225 0
M  V30 1211 H 109.514 -4.49321 -1.82316 0
M  V30 1212 N 110.857 0.726932 -1.39834 0
M  V30 1213 C 112.087 1.51393 -1.40583 0
M  V30 1214 C 112.495 1.892 -0.000740625 0
M  V30 1215 O 111.838 1.55189 0.982951 0
M  V30 1216 C 111.9 2.82588 -2.22226 0
M  V30 1217 C 111.564 2.67169 -3.70769 0
M  V30 1218 C 112.561 2.3518 -4.63666 0
M  V30 1219 C 110.246 2.83788 -4.14451 0
M  V30 1220 C 112.24 2.20002 -5.98229 0
M  V30 1221 C 109.927 2.68229 -5.49087 0
M  V30 1222 C 110.925 2.36382 -6.4079 0
M  V30 1223 O 110.613 2.2093 -7.72946 0
M  V30 1224 H 110.345 0.474168 -0.48181 0
M  V30 1225 H 112.899 0.905247 -1.84376 0
M  V30 1226 H 111.129 3.45746 -1.73195 0
M  V30 1227 H 112.818 3.44247 -2.15055 0
M  V30 1228 H 113.584 2.21984 -4.31217 0
M  V30 1229 H 109.463 3.07566 -3.43401 0
M  V30 1230 H 113.007 1.95067 -6.69772 0
M  V30 1231 H 108.904 2.81006 -5.81125 0
M  V30 1232 H 109.672 2.35937 -7.83757 0
M  V30 1233 N 112.336 1.25143 0.95797 0
M  V30 1234 C 113.585 1.0909 1.69654 0
M  V30 1235 C 113.898 -0.368548 1.92097 0
M  V30 1236 O 115.104 -0.649455 2.63618 0
M  V30 1237 C 113.56 1.90395 3.05414 0
M  V30 1238 C 113.168 3.4081 2.90779 0
M  V30 1239 C 114.912 1.82901 3.83076 0
M  V30 1240 C 112.819 4.14423 4.21909 0
M  V30 1241 H 111.749 0.404625 0.636235 0
M  V30 1242 H 114.4 1.4931 1.06672 0
M  V30 1243 H 112.782 1.42996 3.69281 0
M  V30 1244 H 113.956 3.95859 2.35865 0
M  V30 1245 H 112.271 3.49361 2.26575 0
M  V30 1246 H 114.868 2.35196 4.80195 0
M  V30 1247 H 115.211 0.796224 4.08615 0
M  V30 1248 H 115.744 2.28033 3.25954 0
M  V30 1249 H 112.483 5.18102 4.01561 0
M  V30 1250 H 112.003 3.64159 4.76601 0
M  V30 1251 H 113.682 4.21956 4.90471 0
M  V30 1252 N 113.814 -1.1601 1.06675 0
M  V30 1253 C 114.762 -2.22586 0.675157 0
M  V30 1254 C 115.756 -1.66525 -0.310766 0
M  V30 1255 O 116.962 -1.79145 -0.175215 0
M  V30 1256 H 113.337 -0.724855 0.200223 0
M  V30 1257 H 115.308 -2.52899 1.58381 0
M  V30 1258 C 114.057 -3.47604 0.0817162 0
M  V30 1259 H 113.38 -3.91058 0.831484 0
M  V30 1260 H 114.82 -4.23718 -0.154708 0
M  V30 1261 C 113.279 -3.15718 -1.17576 0
M  V30 1262 O 113.809 -3.31878 -2.26318 0
M  V30 1263 N 112.015 -2.69816 -1.07923 0
M  V30 1264 H 111.562 -2.56866 -0.194293 0
M  V30 1265 H 111.52 -2.48855 -1.92141 0
M  V30 1266 N 115.292 -0.849877 -1.32721 0
M  V30 1267 C 116.517 -0.463856 -2.02146 0
M  V30 1268 C 116.942 0.930449 -1.63476 0
M  V30 1269 O 116.3 1.61033 -0.832952 0
M  V30 1270 C 116.348 -0.604955 -3.55489 0
M  V30 1271 O 115.452 0.36425 -4.10788 0
M  V30 1272 H 114.793 -0.187046 -0.637111 0
M  V30 1273 H 117.323 -1.14775 -1.69375 0
M  V30 1274 H 117.333 -0.490696 -4.05038 0
M  V30 1275 H 116.008 -1.62174 -3.82978 0
M  V30 1276 H 114.585 0.206628 -3.72327 0
M  V30 1277 N 116.77 1.45427 -0.607355 0
M  V30 1278 C 118.181 1.85756 -0.187535 0
M  V30 1279 C 118.532 1.5077 1.25551 0
M  V30 1280 O 117.657 0.93427 1.95193 0
M  V30 1281 C 118.252 3.37154 -0.333572 0
M  V30 1282 C 116.811 3.76387 0.0315542 0
M  V30 1283 C 115.958 2.69377 -0.658117 0
M  V30 1284 H 118.909 1.36231 -0.81405 0
M  V30 1285 H 118.93 3.78014 0.43428 0
M  V30 1286 H 118.442 3.62586 -1.38393 0
M  V30 1287 H 116.543 3.56571 1.0811 0
M  V30 1288 H 116.656 4.77731 -0.361935 0
M  V30 1289 H 115.02 2.5452 -0.0957873 0
M  V30 1290 H 115.803 2.97646 -1.7106 0
M  V30 1291 N 118.248 0.346503 1.53744 0
M  V30 1292 C 119.496 -0.248612 2.00565 0
M  V30 1293 C 119.817 -1.5083 1.23593 0
M  V30 1294 O 119.087 -1.92858 0.343912 0
M  V30 1295 H 117.667 -0.0948564 0.740953 0
M  V30 1296 H 120.329 0.468341 1.89189 0
M  V30 1297 H 119.425 -0.488994 3.08245 0
M  V30 1298 N 119.726 -1.57421 0.075193 0
M  V30 1299 C 120.974 -1.93236 -0.591974 0
M  V30 1300 C 121.295 -0.956241 -1.69944 0
M  V30 1301 O 120.565 -0.00494792 -1.95899 0
M  V30 1302 H 119.145 -0.713355 -0.22166 0
M  V30 1303 H 121.807 -1.9444 0.133848 0
M  V30 1304 H 120.903 -2.95131 -1.01509 0
M  V30 1305 N 121.204 0.198386 -1.56346 0
M  V30 1306 C 122.45 0.920648 -1.80698 0
M  V30 1307 C 122.783 1.83045 -0.648697 0
M  V30 1308 O 122.058 1.91308 0.350925 0
M  V30 1309 C 122.341 1.73971 -3.15287 0
M  V30 1310 C 122.194 0.85485 -4.41602 0
M  V30 1311 C 123.513 2.71296 -3.46535 0
M  V30 1312 H 120.632 0.333261 -0.657348 0
M  V30 1313 H 123.274 0.188198 -1.89066 0
M  V30 1314 H 121.424 2.36416 -3.08285 0
M  V30 1315 H 123.096 0.245362 -4.60647 0
M  V30 1316 H 121.339 0.161398 -4.335 0
M  V30 1317 H 122.01 1.46286 -5.32264 0
M  V30 1318 H 124.486 2.18983 -3.53816 0
M  V30 1319 H 123.362 3.2569 -4.41834 0
M  V30 1320 H 123.623 3.5018 -2.69864 0
M  V30 1321 N 122.682 1.50554 0.465978 0
M  V30 1322 C 123.931 1.61038 1.21448 0
M  V30 1323 C 124.244 0.31865 1.92987 0
M  V30 1324 O 125.45 0.302469 2.6981 0
M  V30 1325 C 123.906 2.84283 2.20706 0
M  V30 1326 C 123.514 4.20352 1.54946 0
M  V30 1327 C 125.258 3.04115 2.96166 0
M  V30 1328 C 123.165 5.34778 2.5252 0
M  V30 1329 H 122.095 0.599718 0.457005 0
M  V30 1330 H 124.746 1.7699 0.484424 0
M  V30 1331 H 123.128 2.61901 2.97025 0
M  V30 1332 H 124.302 4.53008 0.843811 0
M  V30 1333 H 122.617 4.06167 0.917475 0
M  V30 1334 H 125.214 3.86774 3.69202 0
M  V30 1335 H 125.557 2.16045 3.55852 0
M  V30 1336 H 126.09 3.26702 2.26959 0
M  V30 1337 H 122.829 6.25018 1.97566 0
M  V30 1338 H 122.349 5.06534 3.21222 0
M  V30 1339 H 124.028 5.65561 3.14245 0
M  V30 1340 N 124.16 -0.719506 1.40217 0
M  V30 1341 C 125.388 -1.50864 1.41589 0
M  V30 1342 C 125.803 -1.88794 0.0145275 0
M  V30 1343 O 125.16 -1.55174 -0.960594 0
M  V30 1344 C 125.211 -2.78646 2.30302 0
M  V30 1345 O 124.932 -2.42321 3.64983 0
M  V30 1346 C 126.433 -3.72569 2.40224 0
M  V30 1347 H 123.653 -0.465709 0.48307 0
M  V30 1348 H 126.197 -0.88785 1.84221 0
M  V30 1349 H 124.352 -3.37019 1.91042 0
M  V30 1350 H 124.766 -3.24514 4.12057 0
M  V30 1351 H 126.24 -4.5908 3.06512 0
M  V30 1352 H 126.717 -4.15403 1.42608 0
M  V30 1353 H 127.323 -3.20109 2.80019 0
M  V30 1354 N 125.638 -1.25649 -0.95132 0
M  V30 1355 C 126.601 -1.06399 -2.03007 0
M  V30 1356 C 127.601 -0.0156794 -1.60792 0
M  V30 1357 O 128.791 -0.25817 -1.72276 0
M  V30 1358 C 125.923 -0.616184 -3.35285 0
M  V30 1359 H 127.116 -2.02164 -2.21517 0
M  V30 1360 H 124.669 -1.08103 -1.12887 0
M  V30 1361 H 125.404 0.343917 -3.22471 0
M  V30 1362 H 125.189 -1.37301 -3.67275 0
M  V30 1363 H 126.679 -0.503032 -4.14559 0
M  V30 1364 N 127.117 1.15442 -1.07289 0
M  V30 1365 C 128.365 1.85845 -0.794096 0
M  V30 1366 C 128.686 1.82692 0.681809 0
M  V30 1367 O 127.956 1.26741 1.49377 0
M  V30 1368 H 126.536 0.688089 -0.290763 0
M  V30 1369 H 129.198 1.39947 -1.3565 0
M  V30 1370 H 128.294 2.91001 -1.12804 0
M  V30 1371 N 128.595 0.856903 1.32268 0
M  V30 1372 C 129.528 0.247937 2.26849 0
M  V30 1373 C 130.506 -0.615382 1.50505 0
M  V30 1374 O 131.69 -0.571689 1.79622 0
M  V30 1375 C 128.817 -0.650093 3.32403 0
M  V30 1376 C 127.863 0.140138 4.2627 0
M  V30 1377 S 128.696 1.51004 5.13769 0
M  V30 1378 C 129.852 0.61778 6.22844 0
M  V30 1379 H 130.085 1.04971 2.78152 0
M  V30 1380 H 127.618 0.654665 1.39834 0
M  V30 1381 H 129.576 -1.16256 3.93694 0
M  V30 1382 H 128.237 -1.4257 2.7988 0
M  V30 1383 H 127.43 -0.543945 5.01056 0
M  V30 1384 H 127.032 0.584267 3.69408 0
M  V30 1385 H 129.324 -0.177053 6.77269 0
M  V30 1386 H 130.267 1.33636 6.95375 0
M  V30 1387 H 130.675 0.191124 5.64176 0
M  V30 1388 N 130.073 -1.45103 0.615059 0
M  V30 1389 C 131.298 -2.07064 0.117988 0
M  V30 1390 C 131.723 -1.4554 -1.19163 0
M  V30 1391 O 131.081 -0.550855 -1.72729 0
M  V30 1392 C 131.129 -3.606 -0.000288387 0
M  V30 1393 O 130.233 -3.98847 -1.04856 0
M  V30 1394 H 129.574 -0.659467 0.0774581 0
M  V30 1395 H 132.104 -1.86236 0.847186 0
M  V30 1396 H 132.114 -4.07529 -0.196091 0
M  V30 1397 H 130.789 -4.04765 0.955932 0
M  V30 1398 H 129.366 -3.63577 -0.828619 0
M  V30 1399 N 131.551 -0.354651 -1.53558 0
M  V30 1400 C 132.8 0.239504 -2.00273 0
M  V30 1401 C 133.113 1.50759 -1.24623 0
M  V30 1402 O 134.319 2.17968 -1.61871 0
M  V30 1403 C 132.775 0.477341 -3.5672 0
M  V30 1404 C 132.383 -0.775488 -4.41237 0
M  V30 1405 C 134.127 1.02975 -4.11821 0
M  V30 1406 C 132.034 -0.507838 -5.89216 0
M  V30 1407 H 130.964 0.0932743 -0.748208 0
M  V30 1408 H 133.615 -0.471701 -1.77334 0
M  V30 1409 H 131.997 1.24953 -3.7577 0
M  V30 1410 H 133.171 -1.54963 -4.33962 0
M  V30 1411 H 131.486 -1.25033 -3.97185 0
M  V30 1412 H 134.083 1.24513 -5.2 0
M  V30 1413 H 134.426 1.98862 -3.65731 0
M  V30 1414 H 134.959 0.317994 -3.96527 0
M  V30 1415 H 131.698 -1.43674 -6.39561 0
M  V30 1416 H 131.218 0.228011 -5.99366 0
M  V30 1417 H 132.897 -0.129238 -6.46871 0
M  V30 1418 N 133.029 1.57378 -0.0835403 0
M  V30 1419 C 134.259 1.97975 0.590713 0
M  V30 1420 C 134.667 0.961083 1.62972 0
M  V30 1421 O 134.01 -0.0590879 1.83605 0
M  V30 1422 C 134.072 3.34915 1.3066 0
M  V30 1423 C 133.736 4.55069 0.419698 0
M  V30 1424 C 134.733 5.18868 -0.32749 0
M  V30 1425 C 132.418 5.0114 0.341137 0
M  V30 1426 C 134.412 6.27098 -1.14134 0
M  V30 1427 C 132.099 6.0924 -0.476374 0
M  V30 1428 C 133.097 6.72083 -1.21627 0
M  V30 1429 O 132.785 7.781 -2.02028 0
M  V30 1430 H 132.517 0.655818 0.163947 0
M  V30 1431 H 135.071 2.04807 -0.156021 0
M  V30 1432 H 133.301 3.24733 2.09966 0
M  V30 1433 H 134.99 3.60037 1.87424 0
M  V30 1434 H 135.756 4.84211 -0.276459 0
M  V30 1435 H 131.635 4.51996 0.90668 0
M  V30 1436 H 135.179 6.7608 -1.71935 0
M  V30 1437 H 131.076 6.43329 -0.528927 0
M  V30 1438 H 131.844 7.95034 -1.94586 0
M  V30 1439 N 134.507 -0.190092 1.56449 0
M  V30 1440 C 135.784 -0.935886 1.71757 0
M  V30 1441 C 136.164 -2.01173 0.639726 0
M  V30 1442 O 135.512 -2.25827 -0.348502 0
M  V30 1443 C 135.722 -1.51775 3.1427 0
M  V30 1444 C 137.07 -1.99794 3.74656 0
M  V30 1445 O 138.094 -1.61607 3.1743 0
M  V30 1446 O 136.953 -2.70079 4.751 0
M  V30 1447 H 134.047 -0.439229 0.700719 0
M  V30 1448 H 136.593 -0.179395 1.68749 0
M  V30 1449 H 135.365 -0.742505 3.84191 0
M  V30 1450 H 134.988 -2.33894 3.21527 0
M  V30 1451 N 135.985 -1.50799 -0.457987 0
M  V30 1452 C 137.213 -1.66218 -1.23203 0
M  V30 1453 C 137.628 -0.350894 -1.85511 0
M  V30 1454 O 136.985 0.668546 -1.69814 0
M  V30 1455 C 137.036 -2.76291 -2.33121 0
M  V30 1456 O 136.757 -4.02338 -1.73366 0
M  V30 1457 C 138.258 -3.028 -3.2377 0
M  V30 1458 H 135.478 -0.558361 -0.372121 0
M  V30 1459 H 138.022 -1.97099 -0.545179 0
M  V30 1460 H 136.177 -2.48068 -2.97558 0
M  V30 1461 H 136.591 -4.63312 -2.4585 0
M  V30 1462 H 138.065 -3.8345 -3.97077 0
M  V30 1463 H 138.542 -2.14385 -3.83322 0
M  V30 1464 H 139.148 -3.32604 -2.65056 0
M  V30 1465 N 137.463 0.71206 -1.40597 0
M  V30 1466 C 138.396 1.83582 -1.35546 0
M  V30 1467 C 139.374 1.61032 -0.225284 0
M  V30 1468 O 140.558 1.83998 -0.409519 0
M  V30 1469 C 137.685 3.19983 -1.11034 0
M  V30 1470 C 136.731 3.61355 -2.2655 0
M  V30 1471 S 137.564 3.68062 -3.88961 0
M  V30 1472 C 138.72 5.07216 -3.66719 0
M  V30 1473 H 138.953 1.87586 -2.30648 0
M  V30 1474 H 136.486 0.879182 -1.26924 0
M  V30 1475 H 138.444 3.98734 -0.975761 0
M  V30 1476 H 137.105 3.13608 -0.175798 0
M  V30 1477 H 136.298 4.60403 -2.0505 0
M  V30 1478 H 135.9 2.8987 -2.36329 0
M  V30 1479 H 138.192 5.94238 -3.25404 0
M  V30 1480 H 139.135 5.33753 -4.6531 0
M  V30 1481 H 139.543 4.77976 -3.00332 0
M  V30 1482 N 138.941 1.26152 0.944643 0
M  V30 1483 C 139.873 1.03199 2.04652 0
M  V30 1484 C 140.886 -0.00642356 1.62799 0
M  V30 1485 O 142.075 0.233263 1.76969 0
M  V30 1486 C 139.175 0.540111 3.34568 0
M  V30 1487 C 138.348 1.64697 4.05208 0
M  V30 1488 C 137.407 1.15374 5.13396 0
M  V30 1489 O 136.433 1.85013 5.38293 0
M  V30 1490 N 137.635 0.00031529 5.805 0
M  V30 1491 H 140.4 1.9808 2.2491 0
M  V30 1492 H 137.961 1.17491 1.11389 0
M  V30 1493 H 139.953 0.194401 4.04233 0
M  V30 1494 H 138.523 -0.315021 3.11009 0
M  V30 1495 H 137.743 2.16379 3.29506 0
M  V30 1496 H 139.031 2.3903 4.49157 0
M  V30 1497 H 138.429 -0.581336 5.62705 0
M  V30 1498 H 136.986 -0.286346 6.51171 0
M  V30 1499 N 140.419 -1.14872 1.07899 0
M  V30 1500 C 141.666 -1.85789 0.805532 0
M  V30 1501 C 141.994 -1.82649 -0.668561 0
M  V30 1502 O 141.249 -1.24858 -1.50695 0
M  V30 1503 C 141.548 -3.34223 1.26609 0
M  V30 1504 C 141.214 -3.57555 2.74709 0
M  V30 1505 C 139.876 -3.63631 3.1516 0
M  V30 1506 C 142.228 -3.66803 3.70277 0
M  V30 1507 C 139.556 -3.76473 4.49983 0
M  V30 1508 C 141.908 -3.8117 5.04869 0
M  V30 1509 C 140.572 -3.85494 5.44932 0
M  V30 1510 H 139.842 -0.679849 0.294765 0
M  V30 1511 H 142.489 -1.3572 1.35101 0
M  V30 1512 H 140.794 -3.86536 0.640103 0
M  V30 1513 H 142.491 -3.87511 1.03132 0
M  V30 1514 H 139.081 -3.5347 2.42398 0
M  V30 1515 H 143.265 -3.61404 3.40149 0
M  V30 1516 H 138.521 -3.7808 4.80484 0
M  V30 1517 H 142.695 -3.87268 5.78789 0
M  V30 1518 H 140.322 -3.95197 6.49403 0
M  V30 1519 N 141.898 -0.863906 -1.31812 0
M  V30 1520 C 143.147 -0.46801 -1.96195 0
M  V30 1521 C 143.46 0.983474 -1.69077 0
M  V30 1522 O 144.666 1.48523 -2.27273 0
M  V30 1523 C 143.122 -0.785995 -3.51212 0
M  V30 1524 C 142.73 -2.25383 -3.87178 0
M  V30 1525 C 144.474 -0.458274 -4.22019 0
M  V30 1526 C 142.381 -2.51455 -5.3528 0
M  V30 1527 H 141.311 -0.171283 -0.734287 0
M  V30 1528 H 143.962 -1.05597 -1.50072 0
M  V30 1529 H 142.344 -0.127359 -3.95795 0
M  V30 1530 H 143.518 -2.95502 -3.53575 0
M  V30 1531 H 141.833 -2.54698 -3.2942 0
M  V30 1532 H 144.43 -0.630369 -5.30971 0
M  V30 1533 H 144.773 0.600834 -4.11941 0
M  V30 1534 H 145.306 -1.07319 -3.8305 0
M  V30 1535 H 142.045 -3.56025 -5.50387 0
M  V30 1536 H 141.565 -1.85923 -5.70257 0
M  V30 1537 H 143.244 -2.35874 -6.02472 0
M  V30 1538 N 143.376 1.44774 -0.622745 0
M  V30 1539 C 144.323 2.30635 0.0871679 0
M  V30 1540 C 145.293 1.42994 0.845097 0
M  V30 1541 O 146.478 1.71907 0.827812 0
M  V30 1542 C 143.618 3.28144 1.06844 0
M  V30 1543 C 142.731 4.30888 0.309809 0
M  V30 1544 C 141.866 5.15494 1.28215 0
M  V30 1545 C 140.905 6.09953 0.512198 0
M  V30 1546 N 140.042 6.87287 1.43458 0
M  V30 1547 H 144.882 2.90803 -0.650974 0
M  V30 1548 H 142.419 1.43286 -0.33281 0
M  V30 1549 H 144.377 3.83157 1.65066 0
M  V30 1550 H 143.007 2.69695 1.77382 0
M  V30 1551 H 142.059 3.78414 -0.388181 0
M  V30 1552 H 143.371 4.97955 -0.290254 0
M  V30 1553 H 142.525 5.74983 1.93596 0
M  V30 1554 H 141.264 4.48481 1.91614 0
M  V30 1555 H 140.269 5.49581 -0.155151 0
M  V30 1556 H 141.494 6.78999 -0.116958 0
M  V30 1557 H 139.44 6.2295 2.05594 0
M  V30 1558 H 139.357 7.50763 0.888335 0
M  V30 1559 H 140.625 7.51306 2.07749 0
M  V30 1560 N 144.854 0.36279 1.53368 0
M  V30 1561 C 146.265 -0.117022 1.86333 0
M  V30 1562 C 146.616 -1.48397 1.28347 0
M  V30 1563 O 145.741 -2.07787 0.604428 0
M  V30 1564 C 146.336 -0.21912 3.38091 0
M  V30 1565 C 144.895 -0.643184 3.70864 0
M  V30 1566 C 144.042 0.211318 2.76494 0
M  V30 1567 H 146.993 0.581687 1.47655 0
M  V30 1568 H 147.014 -1.04319 3.6592 0
M  V30 1569 H 146.526 0.775902 3.80265 0
M  V30 1570 H 144.627 -1.64654 3.34245 0
M  V30 1571 H 144.74 -0.41973 4.77258 0
M  V30 1572 H 143.104 -0.319367 2.5269 0
M  V30 1573 H 143.887 1.20383 3.21501 0
M  V30 1574 N 146.332 -1.57332 0.0918853 0
M  V30 1575 C 147.609 -1.85691 -0.614668 0
M  V30 1576 C 147.989 -0.988146 -1.86545 0
M  V30 1577 O 147.337 -0.0597055 -2.28422 0
M  V30 1578 C 147.547 -3.36294 -0.933126 0
M  V30 1579 C 148.895 -4.04275 -1.29796 0
M  V30 1580 O 149.919 -3.41157 -1.02424 0
M  V30 1581 O 148.778 -5.1564 -1.81047 0
M  V30 1582 H 145.872 -0.767802 -0.307261 0
M  V30 1583 H 148.418 -1.69244 0.12434 0
M  V30 1584 H 147.19 -3.91273 -0.0456404 0
M  V30 1585 H 146.813 -3.58076 -1.72822 0
M  V30 1586 N 147.81 0.181792 -1.56548 0
M  V30 1587 C 149.056 0.901431 -1.81665 0
M  V30 1588 C 149.389 1.82347 -0.668075 0
M  V30 1589 O 148.664 1.91669 0.330615 0
M  V30 1590 C 148.947 1.70618 -3.17115 0
M  V30 1591 C 148.8 0.807964 -4.42484 0
M  V30 1592 C 150.119 2.67605 -3.49393 0
M  V30 1593 H 147.238 0.32627 -0.660846 0
M  V30 1594 H 149.88 0.168134 -1.89255 0
M  V30 1595 H 148.03 2.33133 -3.10775 0
M  V30 1596 H 149.702 0.19649 -4.60881 0
M  V30 1597 H 147.945 0.115411 -4.33646 0
M  V30 1598 H 148.616 1.40632 -5.33785 0
M  V30 1599 H 151.092 2.15218 -3.56118 0
M  V30 1600 H 149.968 3.20985 -4.45264 0
M  V30 1601 H 150.229 3.47298 -2.73563 0
M  V30 1602 N 149.288 1.51039 0.449983 0
M  V30 1603 C 150.513 1.6715 1.22783 0
M  V30 1604 C 150.938 0.363081 1.84563 0
M  V30 1605 O 150.296 -0.675433 1.68249 0
M  V30 1606 C 150.344 2.77985 2.29689 0
M  V30 1607 O 149.448 2.40707 3.34864 0
M  V30 1608 H 148.789 0.557746 0.360299 0
M  V30 1609 H 151.319 1.97535 0.533005 0
M  V30 1610 H 151.329 3.01693 2.74673 0
M  V30 1611 H 150.004 3.72935 1.84098 0
M  V30 1612 H 148.581 2.27523 2.95445 0
M  V30 1613 N 150.766 -0.704594 1.40972 0
M  V30 1614 C 151.994 -1.49354 1.43182 0
M  V30 1615 C 152.409 -1.88768 0.0345508 0
M  V30 1616 O 151.766 -1.56184 -0.944081 0
M  V30 1617 C 151.817 -2.76187 2.33244 0
M  V30 1618 O 151.538 -2.38436 3.67532 0
M  V30 1619 C 153.039 -3.7 2.44162 0
M  V30 1620 H 150.259 -0.460559 0.487982 0
M  V30 1621 H 152.803 -0.868261 1.85153 0
M  V30 1622 H 150.958 -3.34974 1.94606 0
M  V30 1623 H 151.372 -3.20126 4.15475 0
M  V30 1624 H 152.846 -4.55803 3.11364 0
M  V30 1625 H 153.323 -4.13867 1.47006 0
M  V30 1626 H 153.929 -3.17121 2.83398 0
M  V30 1627 N 152.244 -1.26651 -0.937939 0
M  V30 1628 C 153.493 -1.11775 -1.67897 0
M  V30 1629 C 153.806 0.33794 -1.92659 0
M  V30 1630 O 155.012 0.607434 -2.64618 0
M  V30 1631 C 153.468 -1.9523 -3.02346 0
M  V30 1632 C 153.076 -3.45393 -2.8532 0
M  V30 1633 C 154.82 -1.88972 -3.80118 0
M  V30 1634 C 152.727 -4.21083 -4.15263 0
M  V30 1635 H 151.657 -0.414696 -0.629717 0
M  V30 1636 H 154.308 -1.50988 -1.04283 0
M  V30 1637 H 152.69 -1.48853 -3.66959 0
M  V30 1638 H 153.864 -3.99561 -2.29537 0
M  V30 1639 H 152.179 -3.52921 -2.20988 0
M  V30 1640 H 154.776 -2.42805 -4.76392 0
M  V30 1641 H 155.119 -0.86113 -4.07296 0
M  V30 1642 H 155.652 -2.33189 -3.22285 0
M  V30 1643 H 152.391 -5.24425 -3.93267 0
M  V30 1644 H 151.911 -3.71695 -4.70747 0
M  V30 1645 H 153.59 -4.29706 -4.83696 0
M  V30 1646 N 153.722 1.14298 -1.08507 0
M  V30 1647 C 154.962 1.87016 -0.824894 0
M  V30 1648 C 155.326 1.81099 0.637735 0
M  V30 1649 O 156.527 2.48963 1.01345 0
M  V30 1650 C 154.798 3.31584 -1.33368 0
M  V30 1651 S 156.357 4.21903 -1.20596 0
M  V30 1652 H 153.175 0.645259 -0.2986 0
M  V30 1653 H 155.777 1.37822 -1.38656 0
M  V30 1654 H 154.481 3.33439 -2.39262 0
M  V30 1655 H 154.012 3.85836 -0.767734 0
M  V30 1656 H 156.027 4.95971 -0.150891 0
M  V30 1657 N 155.201 0.870884 1.31352 0
M  V30 1658 C 156.134 0.271983 2.26573 0
M  V30 1659 C 157.112 -0.599385 1.51149 0
M  V30 1660 O 158.296 -0.552605 1.80218 0
M  V30 1661 C 155.423 -0.614801 3.33073 0
M  V30 1662 C 154.469 0.185342 4.26097 0
M  V30 1663 S 155.302 1.56444 5.12138 0
M  V30 1664 C 156.458 0.683807 6.22153 0
M  V30 1665 H 156.691 1.07916 2.77023 0
M  V30 1666 H 154.224 0.669459 1.39132 0
M  V30 1667 H 156.182 -1.12074 3.94905 0
M  V30 1668 H 154.843 -1.39593 2.81376 0
M  V30 1669 H 154.036 -0.490771 5.01605 0
M  V30 1670 H 153.638 0.623415 3.68768 0
M  V30 1671 H 155.93 -0.10521 6.77418 0
M  V30 1672 H 156.873 1.41004 6.93919 0
M  V30 1673 H 157.281 0.250952 5.63942 0
M  V30 1674 N 156.679 -1.44442 0.630414 0
M  V30 1675 C 157.927 -2.01653 0.134351 0
M  V30 1676 C 158.248 -1.49836 -1.24796 0
M  V30 1677 O 157.518 -0.701684 -1.82902 0
M  V30 1678 H 156.098 -0.74554 0.0466769 0
M  V30 1679 H 158.76 -1.76952 0.816955 0
M  V30 1680 H 157.856 -3.11935 0.101498 0
M  V30 1681 N 158.157 -0.370918 -1.53173 0
M  V30 1682 C 159.089 0.507823 -2.23503 0
M  V30 1683 C 160.102 1.04182 -1.251 0
M  V30 1684 O 161.291 0.947286 -1.5129 0
M  V30 1685 C 158.391 1.71447 -2.92334 0
M  V30 1686 C 157.564 1.31105 -4.17289 0
M  V30 1687 C 156.623 2.38035 -4.69282 0
M  V30 1688 O 155.649 2.00204 -5.32829 0
M  V30 1689 N 156.851 3.69697 -4.47554 0
M  V30 1690 H 159.616 -0.0946382 -2.99551 0
M  V30 1691 H 157.177 -0.196358 -1.60705 0
M  V30 1692 H 159.169 2.42469 -3.24023 0
M  V30 1693 H 157.739 2.22368 -2.19707 0
M  V30 1694 H 156.959 0.430462 -3.91843 0
M  V30 1695 H 158.247 1.0179 -4.98514 0
M  V30 1696 H 157.645 4.03205 -3.9679 0
M  V30 1697 H 156.202 4.36807 -4.8378 0
M  V30 1698 N 159.635 1.57281 -0.100228 0
M  V30 1699 C 160.598 2.13158 0.842398 0
M  V30 1700 C 161.598 1.06202 1.20738 0
M  V30 1701 O 162.788 1.32066 1.13597 0
M  V30 1702 C 159.92 2.65639 2.13655 0
M  V30 1703 H 161.113 2.97766 0.357114 0
M  V30 1704 H 158.666 1.5559 0.148823 0
M  V30 1705 H 159.401 1.84566 2.66657 0
M  V30 1706 H 159.186 3.43844 1.88451 0
M  V30 1707 H 160.676 3.08846 2.81077 0
M  V30 1708 N 161.113 -0.173488 1.56642 0
M  V30 1709 C 162.076 -1.19859 1.95362 0
M  V30 1710 C 163.076 -1.37296 0.83704 0
M  V30 1711 O 164.266 -1.34739 1.10413 0
M  V30 1712 C 161.398 -2.56405 2.24654 0
M  V30 1713 H 162.591 -0.867062 2.87092 0
M  V30 1714 H 160.144 -0.415853 1.50666 0
M  V30 1715 H 160.879 -2.94576 1.35631 0
M  V30 1716 H 160.664 -2.45115 3.06041 0
M  V30 1717 H 162.154 -3.30287 2.5554 0
M  V30 1718 N 162.591 -1.51276 -0.441967 0
M  V30 1719 C 163.816 -1.67799 -1.21895 0
M  V30 1720 C 164.241 -0.372864 -1.84367 0
M  V30 1721 O 163.599 0.666501 -1.68604 0
M  V30 1722 C 163.647 -2.79199 -2.28211 0
M  V30 1723 O 162.751 -2.42479 -3.33583 0
M  V30 1724 H 162.092 -0.559649 -0.357336 0
M  V30 1725 H 164.622 -1.97815 -0.522522 0
M  V30 1726 H 164.632 -3.03146 -2.73069 0
M  V30 1727 H 163.307 -3.73906 -1.82118 0
M  V30 1728 H 161.884 -2.29087 -2.94234 0
M  V30 1729 N 164.069 0.697108 -1.41344 0
M  V30 1730 C 165.002 1.82134 -1.37486 0
M  V30 1731 C 165.98 1.60784 -0.242351 0
M  V30 1732 O 167.164 1.83553 -0.429012 0
M  V30 1733 C 164.291 3.18788 -1.14421 0
M  V30 1734 C 163.337 3.58932 -2.3037 0
M  V30 1735 S 164.17 3.63916 -3.92843 0
M  V30 1736 C 165.326 5.03298 -3.72078 0
M  V30 1737 H 165.559 1.85129 -2.32625 0
M  V30 1738 H 163.092 0.865671 -1.2785 0
M  V30 1739 H 165.05 3.97677 -1.018 0
M  V30 1740 H 163.711 3.13404 -0.20905 0
M  V30 1741 H 162.904 4.58202 -2.09922 0
M  V30 1742 H 162.506 2.87347 -2.39391 0
M  V30 1743 H 164.798 5.90753 -3.31688 0
M  V30 1744 H 165.741 5.28788 -4.70945 0
M  V30 1745 H 166.149 4.74764 -3.05384 0
M  V30 1746 N 165.547 1.27147 0.931209 0
M  V30 1747 C 166.795 1.13055 1.6752 0
M  V30 1748 C 167.116 -0.324791 1.92276 0
M  V30 1749 O 166.386 -1.22775 1.52654 0
M  V30 1750 H 164.966 0.415391 0.620854 0
M  V30 1751 H 167.628 1.59623 1.11833 0
M  V30 1752 H 166.724 1.65694 2.64485 0
M  V30 1753 N 167.025 -1.13721 1.09112 0
M  V30 1754 C 167.988 -2.17222 0.731241 0
M  V30 1755 C 168.988 -1.59035 -0.237566 0
M  V30 1756 O 170.178 -1.74192 -0.0161704 0
M  V30 1757 C 167.31 -3.40804 0.0808443 0
M  V30 1758 H 168.503 -2.50573 1.64783 0
M  V30 1759 H 166.056 -1.28493 0.889897 0
M  V30 1760 H 166.791 -3.1304 -0.847127 0
M  V30 1761 H 166.576 -3.84306 0.777896 0
M  V30 1762 H 168.066 -4.1731 -0.155657 0
M  V30 1763 N 168.503 -0.877838 -1.30888 0
M  V30 1764 C 169.75 -0.492696 -1.96415 0
M  V30 1765 C 170.078 0.956671 -1.69346 0
M  V30 1766 O 169.333 1.68993 -0.986913 0
M  V30 1767 C 169.632 -0.705748 -3.50363 0
M  V30 1768 C 169.298 -2.1291 -3.97467 0
M  V30 1769 C 167.96 -2.51834 -4.1004 0
M  V30 1770 C 170.312 -3.05702 -4.22132 0
M  V30 1771 C 167.64 -3.82775 -4.44635 0
M  V30 1772 C 169.992 -4.36166 -4.58194 0
M  V30 1773 C 168.656 -4.74993 -4.68975 0
M  V30 1774 H 167.926 -0.18029 -0.718733 0
M  V30 1775 H 170.573 -1.11233 -1.55883 0
M  V30 1776 H 168.878 -0.00303058 -3.918 0
M  V30 1777 H 170.575 -0.387456 -3.99124 0
M  V30 1778 H 167.165 -1.81694 -3.88182 0
M  V30 1779 H 171.349 -2.76853 -4.11906 0
M  V30 1780 H 166.605 -4.12609 -4.51181 0
M  V30 1781 H 170.779 -5.08111 -4.76231 0
M  V30 1782 H 168.406 -5.76495 -4.95537 0
M  V30 1783 N 169.982 1.44106 -0.638065 0
M  V30 1784 C 170.912 2.33448 0.0494287 0
M  V30 1785 C 171.893 1.48606 0.827672 0
M  V30 1786 O 173.078 1.77308 0.792173 0
M  V30 1787 C 170.208 3.31771 1.02691 0
M  V30 1788 C 169.162 4.26485 0.359823 0
M  V30 1789 C 168.488 5.14729 1.44769 0
M  V30 1790 C 169.788 5.17056 -0.738296 0
M  V30 1791 H 171.482 2.91183 -0.696636 0
M  V30 1792 H 169.028 1.40014 -0.336456 0
M  V30 1793 H 170.981 3.93161 1.51666 0
M  V30 1794 H 169.705 2.7226 1.80395 0
M  V30 1795 H 168.364 3.66437 -0.10934 0
M  V30 1796 H 168.012 4.51566 2.21578 0
M  V30 1797 H 167.712 5.78913 1.00668 0
M  V30 1798 H 169.236 5.78991 1.93911 0
M  V30 1799 H 170.65 5.72342 -0.331354 0
M  V30 1800 H 169.047 5.89879 -1.10286 0
M  V30 1801 H 170.117 4.57652 -1.60258 0
M  V30 1802 N 171.46 0.379036 1.52974 0
M  V30 1803 C 172.39 -0.452706 2.29069 0
M  V30 1804 C 173.371 -1.07237 1.32039 0
M  V30 1805 O 174.556 -1.08708 1.60923 0
M  V30 1806 C 171.686 -1.5856 3.08992 0
M  V30 1807 C 170.64 -1.0925 4.13822 0
M  V30 1808 C 169.966 -2.31668 4.81907 0
M  V30 1809 C 171.266 -0.167702 5.22031 0
M  V30 1810 H 172.96 0.182181 2.98845 0
M  V30 1811 H 170.506 0.0890592 1.43724 0
M  V30 1812 H 172.459 -2.1742 3.6098 0
M  V30 1813 H 171.183 -2.24792 2.36931 0
M  V30 1814 H 169.842 -0.526494 3.628 0
M  V30 1815 H 169.49 -2.96386 4.06404 0
M  V30 1816 H 169.19 -1.9934 5.52754 0
M  V30 1817 H 170.714 -2.91189 5.36695 0
M  V30 1818 H 172.128 -0.664186 5.6944 0
M  V30 1819 H 170.525 0.0653265 6.00064 0
M  V30 1820 H 171.595 0.786347 4.78482 0
M  V30 1821 N 172.938 -1.57226 0.108567 0
M  V30 1822 C 174.166 -1.99179 -0.559954 0
M  V30 1823 C 174.581 -0.988022 -1.60884 0
M  V30 1824 O 173.938 0.0205512 -1.82488 0
M  V30 1825 C 173.989 -3.41159 -1.19552 0
M  V30 1826 O 173.71 -4.37694 -0.188577 0
M  V30 1827 C 175.211 -3.98188 -1.94837 0
M  V30 1828 H 172.431 -0.654228 -0.149088 0
M  V30 1829 H 174.975 -2.03598 0.19183 0
M  V30 1830 H 173.13 -3.37711 -1.89815 0
M  V30 1831 H 173.544 -5.20469 -0.649014 0
M  V30 1832 H 175.018 -4.99644 -2.34648 0
M  V30 1833 H 175.495 -3.3675 -2.81951 0
M  V30 1834 H 176.101 -4.0515 -1.2936 0
M  V30 1835 N 174.416 0.165178 -1.56732 0
M  V30 1836 C 175.379 1.18822 -1.95995 0
M  V30 1837 C 176.379 1.3685 -0.84431 0
M  V30 1838 O 177.569 1.34152 -1.11126 0
M  V30 1839 C 174.701 2.5521 -2.26011 0
M  V30 1840 H 175.894 0.851825 -2.87548 0
M  V30 1841 H 173.447 0.407857 -1.50885 0
M  V30 1842 H 174.182 2.93852 -1.37191 0
M  V30 1843 H 173.967 2.43489 -3.07336 0
M  V30 1844 H 175.457 3.28927 -2.57288 0
M  V30 1845 N 175.894 1.51508 0.433938 0
M  V30 1846 C 177.142 1.6402 1.18075 0
M  V30 1847 C 177.463 0.360328 1.91642 0
M  V30 1848 O 176.733 -0.623945 1.85698 0
M  V30 1849 H 175.313 0.6045 0.43885 0
M  V30 1850 H 177.975 1.88452 0.497178 0
M  V30 1851 H 177.071 2.46949 1.90847 0
M  V30 1852 N 177.372 -0.689602 1.41712 0
M  V30 1853 C 178.335 -1.78521 1.43746 0
M  V30 1854 C 179.335 -1.57436 0.327191 0
M  V30 1855 O 180.525 -1.64 0.587348 0
M  V30 1856 C 177.657 -3.16971 1.25467 0
M  V30 1857 H 178.85 -1.78108 2.41283 0
M  V30 1858 H 176.403 -0.89781 1.27942 0
M  V30 1859 H 177.138 -3.23019 0.287948 0
M  V30 1860 H 176.923 -3.33678 2.05917 0
M  V30 1861 H 178.413 -3.96935 1.2974 0
M  V30 1862 N 178.85 -1.27639 -0.924453 0
M  V30 1863 C 179.797 -1.10644 -2.0255 0
M  V30 1864 C 180.767 -0.00658438 -1.66099 0
M  V30 1865 O 181.952 -0.16952 -1.90045 0
M  V30 1866 C 179.092 -0.76309 -3.36557 0
M  V30 1867 C 178.205 -1.94091 -3.85944 0
M  V30 1868 C 177.34 -1.53914 -5.08413 0
M  V30 1869 C 176.379 -2.68425 -5.50104 0
M  V30 1870 N 175.516 -2.28815 -6.63768 0
M  V30 1871 H 180.356 -2.04858 -2.16419 0
M  V30 1872 H 177.893 -1.01974 -1.06017 0
M  V30 1873 H 179.851 -0.544822 -4.13627 0
M  V30 1874 H 178.481 0.142102 -3.22487 0
M  V30 1875 H 177.533 -2.27162 -3.05125 0
M  V30 1876 H 178.845 -2.7998 -4.12811 0
M  V30 1877 H 177.999 -1.28231 -5.92994 0
M  V30 1878 H 176.738 -0.651391 -4.8333 0
M  V30 1879 H 175.743 -2.94819 -4.64071 0
M  V30 1880 H 176.968 -3.57826 -5.7718 0
M  V30 1881 H 174.914 -1.42495 -6.40337 0
M  V30 1882 H 174.831 -3.08242 -6.90306 0
M  V30 1883 H 176.099 -2.06387 -7.51681 0
M  V30 1884 N 180.328 1.1314 -1.09713 0
M  V30 1885 C 181.576 1.84119 -0.833338 0
M  V30 1886 C 181.897 1.84097 0.642904 0
M  V30 1887 O 181.167 1.29881 1.46655 0
M  V30 1888 H 179.747 0.681766 -0.305293 0
M  V30 1889 H 182.409 1.37038 -1.38588 0
M  V30 1890 H 181.505 2.88543 -1.18951 0
M  V30 1891 N 181.806 0.884767 1.30421 0
M  V30 1892 C 182.753 0.349642 2.28136 0
M  V30 1893 C 183.723 -0.560061 1.56373 0
M  V30 1894 O 184.908 -0.488524 1.8444 0
M  V30 1895 C 182.048 -0.42999 3.42411 0
M  V30 1896 C 181.161 0.508907 4.28992 0
M  V30 1897 C 180.296 -0.286301 5.30428 0
M  V30 1898 C 179.335 0.648079 6.08659 0
M  V30 1899 N 178.472 -0.111792 7.02011 0
M  V30 1900 H 183.312 1.18807 2.73293 0
M  V30 1901 H 180.849 0.597231 1.3443 0
M  V30 1902 H 182.807 -0.897923 4.07423 0
M  V30 1903 H 181.437 -1.23299 2.98324 0
M  V30 1904 H 180.489 1.09533 3.64289 0
M  V30 1905 H 181.801 1.22475 4.8353 0
M  V30 1906 H 180.955 -0.816098 6.01186 0
M  V30 1907 H 179.694 -1.03536 4.76583 0
M  V30 1908 H 178.699 1.18951 5.36778 0
M  V30 1909 H 179.924 1.39623 6.64592 0
M  V30 1910 H 177.87 -0.843395 6.50556 0
M  V30 1911 H 177.787 0.544429 7.54037 0
M  V30 1912 H 179.055 -0.622339 7.77012 0
M  V30 1913 N 183.284 -1.43765 0.645699 0
M  V30 1914 C 184.7 -1.56509 0.312591 0
M  V30 1915 C 184.9 -1.6307 -1.18365 0
M  V30 1916 O 183.956 -1.58167 -1.96824 0
M  V30 1917 C 185.269 -2.82968 1.01733 0
M  V30 1918 C 186.817 -2.96701 0.996865 0
M  V30 1919 C 187.292 -4.25982 1.68236 0
M  V30 1920 N 188.783 -4.32829 1.64964 0
M  V30 1921 C 189.518 -5.31613 2.14885 0
M  V30 1922 N 189.014 -6.36718 2.73061 0
M  V30 1923 N 190.807 -5.23217 2.05428 0
M  V30 1924 H 182.958 -1.3775 1.61675 0
M  V30 1925 H 185.221 -0.661067 0.679481 0
M  V30 1926 H 184.927 -2.84156 2.0724 0
M  V30 1927 H 184.801 -3.72957 0.564177 0
M  V30 1928 H 187.188 -2.95058 -0.0497719 0
M  V30 1929 H 187.269 -2.08022 1.48865 0
M  V30 1930 H 186.913 -4.28386 2.72852 0
M  V30 1931 H 186.843 -5.13545 1.16529 0
M  V30 1932 H 189.334 -3.57493 1.22503 0
M  V30 1933 H 189.647 -7.08401 3.08848 0
M  V30 1934 H 187.992 -6.37362 2.77118 0
M  V30 1935 H 191.183 -4.40019 1.59689 0
M  V30 1936 H 191.356 -6.00045 2.44643 0
M  V30 1937 N 184.763 -0.387143 -1.52771 0
M  V30 1938 C 186.01 0.195735 -2.01552 0
M  V30 1939 C 186.338 1.46995 -1.27369 0
M  V30 1940 O 185.593 1.92325 -0.361879 0
M  V30 1941 C 185.892 0.512209 -3.53711 0
M  V30 1942 C 185.558 -0.670202 -4.45891 0
M  V30 1943 C 184.22 -0.994586 -4.70809 0
M  V30 1944 C 186.572 -1.46134 -5.00294 0
M  V30 1945 C 183.9 -2.11169 -5.4738 0
M  V30 1946 C 186.252 -2.56903 -5.78086 0
M  V30 1947 C 184.916 -2.89852 -6.01284 0
M  V30 1948 H 184.186 0.0716246 -0.73753 0
M  V30 1949 H 186.833 -0.524046 -1.8419 0
M  V30 1950 H 185.138 1.31329 -3.69134 0
M  V30 1951 H 186.835 0.975804 -3.88946 0
M  V30 1952 H 183.425 -0.407366 -4.2666 0
M  V30 1953 H 187.609 -1.22397 -4.80971 0
M  V30 1954 H 182.865 -2.3707 -5.63567 0
M  V30 1955 H 187.039 -3.18608 -6.19243 0
M  V30 1956 H 184.666 -3.76533 -6.60399 0
M  V30 1957 N 186.241 1.57166 -0.116904 0
M  V30 1958 C 187.481 1.97008 0.544715 0
M  V30 1959 C 187.845 0.998713 1.63981 0
M  V30 1960 O 189.046 1.28644 2.36018 0
M  V30 1961 C 187.317 3.41145 1.06559 0
M  V30 1962 S 188.876 4.02998 1.73603 0
M  V30 1963 H 185.694 0.688587 0.177112 0
M  V30 1964 H 188.296 1.94459 -0.201487 0
M  V30 1965 H 187 4.09592 0.257374 0
M  V30 1966 H 186.531 3.4734 1.84712 0
M  V30 1967 H 188.546 3.93585 3.02168 0
M  V30 1968 N 187.719 -0.156864 1.56817 0
M  V30 1969 C 188.649 -1.19589 2.00551 0
M  V30 1970 C 189.63 -1.4536 0.883426 0
M  V30 1971 O 190.815 -1.56449 1.15054 0
M  V30 1972 C 187.945 -2.53143 2.37773 0
M  V30 1973 C 186.899 -2.41913 3.53075 0
M  V30 1974 C 186.225 -3.80088 3.76081 0
M  V30 1975 C 187.525 -1.91157 4.86062 0
M  V30 1976 H 189.219 -0.832293 2.87599 0
M  V30 1977 H 186.765 -0.398918 1.38364 0
M  V30 1978 H 188.718 -3.26047 2.66967 0
M  V30 1979 H 187.442 -2.91319 1.4765 0
M  V30 1980 H 186.101 -1.71462 3.24031 0
M  V30 1981 H 185.749 -4.15683 2.83225 0
M  V30 1982 H 185.449 -3.73439 4.53671 0
M  V30 1983 H 186.973 -4.54556 4.0769 0
M  V30 1984 H 188.387 -2.53846 5.14038 0
M  V30 1985 H 186.784 -1.95422 5.67389 0
M  V30 1986 H 187.854 -0.866673 4.77092 0
M  V30 1987 N 189.197 -1.51736 -0.425897 0
M  V30 1988 C 190.608 -1.5732 -1.00536 0
M  V30 1989 C 190.959 -0.403537 -1.92005 0
M  V30 1990 O 190.084 0.478256 -2.11049 0
M  V30 1991 C 190.679 -2.85119 -1.8301 0
M  V30 1992 C 189.238 -2.93236 -2.35987 0
M  V30 1993 C 188.385 -2.52098 -1.15508 0
M  V30 1994 H 191.336 -1.57348 -0.206739 0
M  V30 1995 H 191.357 -2.69526 -2.68581 0
M  V30 1996 H 190.869 -3.7023 -1.16411 0
M  V30 1997 H 188.97 -2.12581 -3.06007 0
M  V30 1998 H 189.083 -3.9713 -2.68001 0
M  V30 1999 H 187.447 -2.05558 -1.50393 0
M  V30 2000 H 188.23 -3.39565 -0.505014 0
M  V30 2001 N 190.675 0.682077 -1.42076 0
M  V30 2002 C 191.623 1.81707 -1.45208 0
M  V30 2003 C 192.617 1.66183 -0.328591 0
M  V30 2004 O 193.823 1.7288 -0.501264 0
M  V30 2005 H 190.198 0.599014 -0.454628 0
M  V30 2006 H 192.169 1.76183 -2.40836 0
M  V30 2007 C 190.918 3.19816 -1.36428 0
M  V30 2008 H 190.241 3.32385 -2.22171 0
M  V30 2009 H 191.681 3.99272 -1.42681 0
M  V30 2010 C 190.14 3.36809 -0.078191 0
M  V30 2011 O 190.67 3.92124 0.87188 0
M  V30 2012 N 188.876 2.906 0.00229266 0
M  V30 2013 H 188.423 2.45772 -0.771616 0
M  V30 2014 H 188.381 3.02347 0.862179 0
M  V30 2015 N 192.153 1.28127 0.917671 0
M  V30 2016 C 193.378 1.18007 1.70555 0
M  V30 2017 C 193.803 -0.258257 1.86319 0
M  V30 2018 O 193.161 -1.1869 1.37049 0
M  V30 2019 C 193.209 1.87948 3.07746 0
M  V30 2020 O 192.313 1.18427 3.9503 0
M  V30 2021 H 191.654 0.409867 0.522403 0
M  V30 2022 H 194.184 1.69379 1.1477 0
M  V30 2023 H 194.194 1.95701 3.58001 0
M  V30 2024 H 192.869 2.92573 2.95591 0
M  V30 2025 H 191.446 1.18811 3.53466 0
M  V30 2026 N 193.631 -1.12557 1.10312 0
M  V30 2027 C 195.047 -1.36036 0.834649 0
M  V30 2028 C 195.247 -1.93946 -0.546539 0
M  V30 2029 O 194.303 -2.16484 -1.29966 0
M  V30 2030 C 195.616 -2.30312 1.9333 0
M  V30 2031 C 197.164 -2.43906 1.9616 0
M  V30 2032 C 197.639 -3.41496 3.05195 0
M  V30 2033 N 199.13 -3.49053 3.04494 0
M  V30 2034 C 199.865 -4.24471 3.85502 0
M  V30 2035 N 199.361 -5.02966 4.76442 0
M  V30 2036 N 201.154 -4.19864 3.73725 0
M  V30 2037 H 193.305 -0.733246 1.99342 0
M  V30 2038 H 195.568 -0.385234 0.866198 0
M  V30 2039 H 195.274 -1.94933 2.92735 0
M  V30 2040 H 195.148 -3.30421 1.81939 0
M  V30 2041 H 197.535 -2.78567 0.973886 0
M  V30 2042 H 197.616 -1.4369 2.11629 0
M  V30 2043 H 197.26 -3.07565 4.04186 0
M  V30 2044 H 197.19 -4.41539 2.86968 0
M  V30 2045 H 199.681 -2.93053 2.38596 0
M  V30 2046 H 199.994 -5.57846 5.34815 0
M  V30 2047 H 198.339 -5.02167 4.80472 0
M  V30 2048 H 201.53 -3.57623 3.02032 0
M  V30 2049 H 201.703 -4.78386 4.37093 0
M  V30 2050 N 195.109 -0.891671 -1.2995 0
M  V30 2051 C 196.355 -0.514261 -1.96171 0
M  V30 2052 C 196.688 0.935506 -1.70182 0
M  V30 2053 O 195.963 1.66204 -1.01028 0
M  V30 2054 C 196.246 -0.797719 -3.51153 0
M  V30 2055 C 196.099 -2.2986 -3.86632 0
M  V30 2056 C 197.418 -0.278749 -4.39216 0
M  V30 2057 H 194.537 -0.188314 -0.712535 0
M  V30 2058 H 197.179 -1.11689 -1.53706 0
M  V30 2059 H 195.329 -0.284826 -3.87455 0
M  V30 2060 H 197.001 -2.88042 -3.60319 0
M  V30 2061 H 195.244 -2.76257 -3.34462 0
M  V30 2062 H 195.915 -2.44753 -4.94773 0
M  V30 2063 H 198.391 -0.717825 -4.09862 0
M  V30 2064 H 197.267 -0.506353 -5.46559 0
M  V30 2065 H 197.528 0.820266 -4.34424 0
M  V30 2066 N 196.587 1.43421 -0.653314 0
M  V30 2067 C 197.52 2.2803 0.0879804 0
M  V30 2068 C 198.498 1.39833 0.82979 0
M  V30 2069 O 199.682 1.69275 0.829341 0
M  V30 2070 C 196.809 3.19247 1.13132 0
M  V30 2071 C 195.855 4.23704 0.487546 0
M  V30 2072 S 196.688 5.30377 -0.738961 0
M  V30 2073 C 197.844 6.25162 0.30384 0
M  V30 2074 H 198.077 2.90554 -0.629739 0
M  V30 2075 H 195.61 1.47934 -0.442156 0
M  V30 2076 H 197.568 3.72346 1.72827 0
M  V30 2077 H 196.229 2.55901 1.82136 0
M  V30 2078 H 195.422 4.87631 1.27407 0
M  V30 2079 H 195.024 3.73983 -0.0352915 0
M  V30 2080 H 197.316 6.67321 1.17 0
M  V30 2081 H 198.259 7.07463 -0.300402 0
M  V30 2082 H 198.667 5.60864 0.63969 0
M  V30 2083 N 198.065 0.39524 1.52563 0
M  V30 2084 C 199.314 -0.186321 2.00838 0
M  V30 2085 C 199.627 -1.47402 1.28577 0
M  V30 2086 O 200.833 -2.13599 1.67593 0
M  V30 2087 C 199.289 -0.382595 3.57861 0
M  V30 2088 C 198.897 0.892202 4.39026 0
M  V30 2089 C 200.641 -0.9202 4.14406 0
M  V30 2090 C 198.548 0.66388 5.87662 0
M  V30 2091 H 197.478 -0.0734041 0.750418 0
M  V30 2092 H 200.129 0.518552 1.76021 0
M  V30 2093 H 198.511 -1.14946 3.7895 0
M  V30 2094 H 199.685 1.66414 4.29701 0
M  V30 2095 H 198 1.35519 3.9373 0
M  V30 2096 H 200.597 -1.10683 5.23119 0
M  V30 2097 H 200.94 -1.89096 3.70875 0
M  V30 2098 H 201.473 -0.212751 3.97231 0
M  V30 2099 H 198.212 1.6058 6.35527 0
M  V30 2100 H 197.732 -0.0690193 5.9976 0
M  V30 2101 H 199.411 0.300699 6.46301 0
M  V30 2102 N 199.544 -1.57102 0.125237 0
M  V30 2103 C 200.494 -2.12202 -0.833936 0
M  V30 2104 C 201.478 -1.04433 -1.22403 0
M  V30 2105 O 202.67 -1.30655 -1.19408 0
M  V30 2106 C 199.799 -2.72994 -2.08157 0
M  V30 2107 C 198.885 -3.87852 -1.71556 0
M  V30 2108 N 199.276 -4.9464 -1.05662 0
M  V30 2109 C 197.574 -3.98153 -2.00973 0
M  V30 2110 C 198.275 -5.74953 -0.883376 0
M  V30 2111 N 197.251 -5.24985 -1.41036 0
M  V30 2112 H 201.053 -2.92141 -0.321035 0
M  V30 2113 H 198.567 -1.62217 -0.0770315 0
M  V30 2114 H 200.564 -3.10816 -2.77847 0
M  V30 2115 H 199.224 -1.9452 -2.59985 0
M  V30 2116 H 200.235 -5.12872 -0.719878 0
M  V30 2117 H 196.912 -3.30728 -2.54804 0
M  V30 2118 H 198.302 -6.70904 -0.365675 0
M  V30 2119 N 201.022 0.148545 -1.56898 0
M  V30 2120 C 201.954 1.20852 -1.9475 0
M  V30 2121 C 202.967 1.39265 -0.843152 0
M  V30 2122 O 204.156 1.38864 -1.12156 0
M  V30 2123 C 201.256 2.57362 -2.20495 0
M  V30 2124 C 200.429 2.59947 -3.51776 0
M  V30 2125 C 199.488 3.77984 -3.6608 0
M  V30 2126 O 198.514 3.62929 -4.38487 0
M  V30 2127 N 199.716 4.95375 -3.02629 0
M  V30 2128 H 202.481 0.886804 -2.86279 0
M  V30 2129 H 200.042 0.338121 -1.5833 0
M  V30 2130 H 202.034 3.34833 -2.27307 0
M  V30 2131 H 200.604 2.81832 -1.35238 0
M  V30 2132 H 199.824 1.68403 -3.56419 0
M  V30 2133 H 201.112 2.58704 -4.38121 0
M  V30 2134 H 200.51 5.10509 -2.43715 0
M  V30 2135 H 199.067 5.70627 -3.15004 0
M  V30 2136 N 202.5 1.5196 0.417844 0
M  V30 2137 C 203.911 1.57851 0.997 0
M  V30 2138 C 204.262 0.413714 1.91789 0
M  V30 2139 O 203.387 -0.467057 2.113 0
M  V30 2140 C 203.982 2.86085 1.81496 0
M  V30 2141 C 202.541 2.94483 2.34428 0
M  V30 2142 C 201.688 2.52707 1.14169 0
M  V30 2143 H 204.639 1.57455 0.198392 0
M  V30 2144 H 204.66 2.70947 2.67148 0
M  V30 2145 H 204.172 3.70842 1.14446 0
M  V30 2146 H 202.273 2.142 3.04875 0
M  V30 2147 H 202.386 3.98546 2.65891 0
M  V30 2148 H 200.75 2.06353 1.49301 0
M  V30 2149 H 201.533 3.39828 0.486999 0
M  V30 2150 N 203.978 -0.674533 1.42435 0
M  V30 2151 C 204.908 -1.80009 1.48724 0
M  V30 2152 C 205.889 -1.6659 0.343793 0
M  V30 2153 O 207.074 -1.86007 0.558137 0
M  V30 2154 C 204.204 -3.18306 1.38919 0
M  V30 2155 C 203.158 -3.46461 2.51294 0
M  V30 2156 C 202.484 -4.84335 2.26547 0
M  V30 2157 C 203.784 -3.43328 3.93603 0
M  V30 2158 H 205.478 -1.75004 2.42928 0
M  V30 2159 H 203.024 -0.840533 1.16923 0
M  V30 2160 H 204.977 -3.9678 1.41927 0
M  V30 2161 H 203.701 -3.2399 0.412094 0
M  V30 2162 H 202.36 -2.70348 2.47604 0
M  V30 2163 H 202.008 -4.86669 1.2713 0
M  V30 2164 H 201.708 -5.04136 3.01861 0
M  V30 2165 H 203.232 -5.65094 2.31304 0
M  V30 2166 H 204.646 -4.11772 3.98894 0
M  V30 2167 H 203.043 -3.74664 4.68771 0
M  V30 2168 H 204.113 -2.41897 4.20255 0
M  V30 2169 N 205.456 -1.28612 -0.910864 0
M  V30 2170 C 206.704 -1.15705 -1.65701 0
M  V30 2171 C 207.025 0.29416 -1.92769 0
M  V30 2172 O 206.295 1.20331 -1.54588 0
M  V30 2173 H 204.875 -0.425216 -0.614167 0
M  V30 2174 H 207.537 -1.61381 -1.0928 0
M  V30 2175 H 206.633 -1.6988 -2.61815 0
M  V30 2176 N 206.934 1.1197 -1.10907 0
M  V30 2177 C 208.182 1.83225 -0.852819 0
M  V30 2178 C 208.503 1.84769 0.623341 0
M  V30 2179 O 207.773 1.3143 1.45269 0
M  V30 2180 H 206.353 0.67849 -0.312507 0
M  V30 2181 H 209.015 1.3556 -1.40033 0
M  V30 2182 H 208.111 2.87265 -1.22005 0
M  V30 2183 N 208.412 0.89855 1.29475 0
M  V30 2184 C 209.642 0.538479 1.99459 0
M  V30 2185 C 210.05 -0.880922 1.67441 0
M  V30 2186 O 209.393 -1.59283 0.915127 0
M  V30 2187 C 209.455 0.649564 3.53583 0
M  V30 2188 C 209.119 2.03573 4.09154 0
M  V30 2189 C 210.116 3.00675 4.24135 0
M  V30 2190 C 207.801 2.3448 4.44212 0
M  V30 2191 C 209.795 4.26809 4.73405 0
M  V30 2192 C 207.482 3.60857 4.93179 0
M  V30 2193 C 208.48 4.56836 5.0773 0
M  V30 2194 O 208.168 5.80969 5.55635 0
M  V30 2195 H 207.9 0.205372 0.644048 0
M  V30 2196 H 210.454 1.20958 1.66007 0
M  V30 2197 H 208.684 -0.0785592 3.8662 0
M  V30 2198 H 210.373 0.29881 4.04799 0
M  V30 2199 H 211.139 2.78112 3.97339 0
M  V30 2200 H 207.018 1.60534 4.32145 0
M  V30 2201 H 210.562 5.0173 4.84678 0
M  V30 2202 H 206.459 3.83251 5.19412 0
M  V30 2203 H 207.227 5.83542 5.73952 0
M  V30 2204 N 209.89 -1.43072 0.660911 0
M  V30 2205 C 210.822 -2.29108 -0.0647641 0
M  V30 2206 C 211.835 -1.42928 -0.779448 0
M  V30 2207 O 213.024 -1.66788 -0.635921 0
M  V30 2208 C 210.124 -3.20032 -1.11503 0
M  V30 2209 C 209.297 -4.34792 -0.476955 0
M  V30 2210 C 208.356 -5.06534 -1.42513 0
M  V30 2211 O 207.382 -5.61538 -0.930771 0
M  V30 2212 N 208.584 -5.1075 -2.75889 0
M  V30 2213 H 211.349 -2.92029 0.673731 0
M  V30 2214 H 208.91 -1.53846 0.50427 0
M  V30 2215 H 210.902 -3.64892 -1.75032 0
M  V30 2216 H 209.472 -2.58658 -1.75541 0
M  V30 2217 H 208.692 -3.92752 0.337572 0
M  V30 2218 H 209.98 -5.0879 -0.0318525 0
M  V30 2219 H 209.378 -4.67447 -3.18606 0
M  V30 2220 H 207.935 -5.59302 -3.347 0
M  V30 2221 N 211.368 -0.403325 -1.52352 0
M  V30 2222 C 212.616 0.174003 -2.0135 0
M  V30 2223 C 212.937 1.46139 -1.29106 0
M  V30 2224 O 212.207 1.91448 -0.415253 0
M  V30 2225 H 210.787 0.0672911 -0.743963 0
M  V30 2226 H 213.449 -0.538235 -1.87321 0
M  V30 2227 H 212.545 0.374254 -3.09848 0
M  V30 2228 N 212.846 1.57033 -0.133567 0
M  V30 2229 C 213.778 2.13176 0.841944 0
M  V30 2230 C 214.791 1.07794 1.22001 0
M  V30 2231 O 215.98 1.35117 1.16643 0
M  V30 2232 C 213.08 2.62847 2.13926 0
M  V30 2233 C 212.253 3.92486 1.93064 0
M  V30 2234 C 211.312 4.27605 3.0666 0
M  V30 2235 O 210.338 4.96168 2.78937 0
M  V30 2236 N 211.54 3.861 4.33483 0
M  V30 2237 H 214.305 2.97503 0.362192 0
M  V30 2238 H 211.866 1.61821 0.05042 0
M  V30 2239 H 213.858 2.83363 2.88942 0
M  V30 2240 H 212.428 1.83319 2.53205 0
M  V30 2241 H 211.648 3.80732 1.02159 0
M  V30 2242 H 212.936 4.77225 1.76447 0
M  V30 2243 H 212.334 3.30828 4.58878 0
M  V30 2244 H 210.891 4.11694 5.05323 0
M  V30 2245 N 214.325 -0.140222 1.56975 0
M  V30 2246 C 215.288 -1.15689 1.97861 0
M  V30 2247 C 216.288 -1.3549 0.865974 0
M  V30 2248 O 217.478 -1.32367 1.13246 0
M  V30 2249 C 214.61 -2.51582 2.30042 0
M  V30 2250 H 215.803 -0.805971 2.88867 0
M  V30 2251 H 213.356 -0.383801 1.51515 0
M  V30 2252 H 214.091 -2.91632 1.41849 0
M  V30 2253 H 213.876 -2.38569 3.11171 0
M  V30 2254 H 215.366 -3.24792 2.62488 0
M  V30 2255 N 215.803 -1.52179 -0.40978 0
M  V30 2256 C 217.031 -1.70054 -1.17853 0
M  V30 2257 C 217.446 -0.409735 -1.843 0
M  V30 2258 O 216.803 0.614183 -1.71855 0
M  V30 2259 C 216.854 -2.83568 -2.24213 0
M  V30 2260 O 216.575 -4.0765 -1.60478 0
M  V30 2261 C 218.076 -3.12947 -3.13973 0
M  V30 2262 H 215.296 -0.569917 -0.354169 0
M  V30 2263 H 217.84 -1.98734 -0.482198 0
M  V30 2264 H 215.995 -2.57409 -2.89516 0
M  V30 2265 H 216.409 -4.70899 -2.30986 0
M  V30 2266 H 217.883 -3.95889 -3.84677 0
M  V30 2267 H 218.36 -2.26472 -3.76307 0
M  V30 2268 H 218.966 -3.40868 -2.5434 0
M  V30 2269 N 217.281 0.66697 -1.42791 0
M  V30 2270 C 218.558 1.4234 -1.34159 0
M  V30 2271 C 218.938 2.11093 0.0172729 0
M  V30 2272 O 218.286 2.03808 1.03318 0
M  V30 2273 C 218.496 2.41942 -2.51526 0
M  V30 2274 C 219.844 3.06353 -2.93995 0
M  V30 2275 O 220.868 2.52269 -2.51473 0
M  V30 2276 O 219.727 4.04376 -3.67617 0
M  V30 2277 H 216.821 0.635277 -0.529483 0
M  V30 2278 H 219.367 0.695034 -1.54814 0
M  V30 2279 H 218.139 1.89991 -3.42081 0
M  V30 2280 H 217.762 3.22249 -2.32898 0
M  V30 2281 N 218.759 1.29093 0.90403 0
M  V30 2282 C 220.008 1.16187 1.64874 0
M  V30 2283 C 220.321 -0.286742 1.93487 0
M  V30 2284 O 221.527 -0.537062 2.66135 0
M  V30 2285 C 219.983 2.03177 2.97064 0
M  V30 2286 C 219.591 3.52836 2.76062 0
M  V30 2287 C 221.335 1.98984 3.74974 0
M  V30 2288 C 219.242 4.31945 4.03952 0
M  V30 2289 H 218.172 0.431246 0.618501 0
M  V30 2290 H 220.823 1.53699 1.00243 0
M  V30 2291 H 219.205 1.5853 3.62883 0
M  V30 2292 H 220.379 4.05507 2.18863 0
M  V30 2293 H 218.694 3.58656 2.11553 0
M  V30 2294 H 221.291 2.55351 4.69787 0
M  V30 2295 H 221.634 0.968815 4.0487 0
M  V30 2296 H 222.167 2.41652 3.15989 0
M  V30 2297 H 218.906 5.34667 3.79225 0
M  V30 2298 H 218.426 3.84045 4.60727 0
M  V30 2299 H 220.105 4.42379 4.72133 0
M  V30 2300 N 220.237 -1.11381 1.11499 0
M  V30 2301 C 221.147 -2.21019 0.786628 0
M  V30 2302 C 222.163 -1.72597 -0.220507 0
M  V30 2303 O 223.339 -2.01321 -0.0565251 0
M  V30 2304 C 220.404 -3.459 0.235333 0
M  V30 2305 C 219.465 -4.09107 1.30115 0
M  V30 2306 C 218.698 -5.28027 0.776068 0
M  V30 2307 O 218.921 -5.6904 -0.393661 0
M  V30 2308 O 217.855 -5.81835 1.54114 0
M  V30 2309 H 221.681 -2.51521 1.70209 0
M  V30 2310 H 219.266 -1.19928 0.890928 0
M  V30 2311 H 221.148 -4.21346 -0.067715 0
M  V30 2312 H 219.823 -3.17049 -0.652828 0
M  V30 2313 H 218.73 -3.35391 1.65722 0
M  V30 2314 H 220.063 -4.42139 2.16273 0
M  V30 2315 N 221.715 -0.905404 -1.28997 0
M  V30 2316 C 222.964 -0.530191 -1.94607 0
M  V30 2317 C 223.277 0.929185 -1.72121 0
M  V30 2318 O 224.483 1.41218 -2.31883 0
M  V30 2319 C 222.939 -0.897333 -3.48534 0
M  V30 2320 C 222.547 -2.37587 -3.79811 0
M  V30 2321 C 224.291 -0.592304 -4.20347 0
M  V30 2322 C 222.198 -2.68357 -5.27009 0
M  V30 2323 H 221.128 -0.194558 -0.728466 0
M  V30 2324 H 223.779 -1.10318 -1.46636 0
M  V30 2325 H 222.161 -0.253214 -3.9519 0
M  V30 2326 H 223.335 -3.06602 -3.43994 0
M  V30 2327 H 221.65 -2.6505 -3.2115 0
M  V30 2328 H 224.247 -0.798975 -5.28697 0
M  V30 2329 H 224.59 0.469474 -4.13644 0
M  V30 2330 H 225.123 -1.19452 -3.79442 0
M  V30 2331 H 221.862 -3.73355 -5.38782 0
M  V30 2332 H 221.382 -2.03971 -5.64053 0
M  V30 2333 H 223.061 -2.54922 -5.94663 0
M  V30 2334 N 223.193 1.4272 -0.668489 0
M  V30 2335 C 224.143 2.27971 0.0363806 0
M  V30 2336 C 225.127 1.40741 0.779794 0
M  V30 2337 O 226.319 1.64245 0.659745 0
M  V30 2338 C 223.448 3.28673 0.991398 0
M  V30 2339 C 222.534 4.23388 0.245658 0
M  V30 2340 N 222.925 5.00267 -0.746069 0
M  V30 2341 C 221.223 4.43355 0.484988 0
M  V30 2342 C 221.924 5.69396 -1.19009 0
M  V30 2343 N 220.9 5.41095 -0.521287 0
M  V30 2344 H 224.702 2.84833 -0.724394 0
M  V30 2345 H 222.216 1.54607 -0.497028 0
M  V30 2346 H 224.213 3.88543 1.51129 0
M  V30 2347 H 222.873 2.73373 1.75207 0
M  V30 2348 H 223.884 5.05525 -1.12537 0
M  V30 2349 H 220.561 3.99104 1.22565 0
M  V30 2350 H 221.951 6.41083 -2.01153 0
M  V30 2351 N 224.671 0.411399 1.52136 0
M  V30 2352 C 225.634 -0.401089 2.25663 0
M  V30 2353 C 226.634 -0.971732 1.28117 0
M  V30 2354 O 227.824 -0.850254 1.52041 0
M  V30 2355 C 224.956 -1.56483 3.02863 0
M  V30 2356 H 226.149 0.24295 2.98914 0
M  V30 2357 H 223.702 0.163968 1.55438 0
M  V30 2358 H 224.437 -2.24567 2.33967 0
M  V30 2359 H 224.222 -1.16211 3.74483 0
M  V30 2360 H 225.712 -2.13951 3.58629 0
M  V30 2361 N 226.149 -1.5696 0.141893 0
M  V30 2362 C 227.565 -1.58151 -0.21456 0
M  V30 2363 C 227.765 -1.1559 -1.65049 0
M  V30 2364 O 226.821 -0.853832 -2.37626 0
M  V30 2365 C 228.134 -3.00674 0.0395576 0
M  V30 2366 C 229.682 -3.1299 -0.0245529 0
M  V30 2367 C 230.157 -4.57554 0.202167 0
M  V30 2368 N 231.648 -4.62961 0.148919 0
M  V30 2369 C 232.383 -5.7262 0.298924 0
M  V30 2370 N 231.879 -6.90947 0.50637 0
M  V30 2371 N 233.672 -5.61601 0.236886 0
M  V30 2372 H 225.823 -1.8292 1.07953 0
M  V30 2373 H 228.086 -0.846425 0.42693 0
M  V30 2374 H 227.792 -3.36183 1.03315 0
M  V30 2375 H 227.666 -3.70981 -0.682143 0
M  V30 2376 H 230.053 -2.77326 -1.00869 0
M  V30 2377 H 230.134 -2.4518 0.729396 0
M  V30 2378 H 229.778 -4.93922 1.18338 0
M  V30 2379 H 229.708 -5.23484 -0.572044 0
M  V30 2380 H 232.199 -3.77899 -0.00697015 0
M  V30 2381 H 232.512 -7.7038 0.611076 0
M  V30 2382 H 230.857 -6.92878 0.542628 0
M  V30 2383 H 234.048 -4.68039 0.0756209 0
M  V30 2384 H 234.221 -6.47015 0.357227 0
M  V30 2385 N 227.627 0.131896 -1.57047 0
M  V30 2386 C 228.537 1.1815 -2.02676 0
M  V30 2387 C 229.553 1.46113 -0.944824 0
M  V30 2388 O 230.729 1.57485 -1.25541 0
M  V30 2389 C 227.794 2.49139 -2.41103 0
M  V30 2390 C 226.855 2.28688 -3.63318 0
M  V30 2391 C 226.088 3.53431 -3.99903 0
M  V30 2392 O 226.311 4.60223 -3.36973 0
M  V30 2393 O 225.245 3.45198 -4.93074 0
M  V30 2394 H 229.071 0.824069 -2.92306 0
M  V30 2395 H 226.656 0.341745 -1.45439 0
M  V30 2396 H 228.538 3.26338 -2.66611 0
M  V30 2397 H 227.213 2.84382 -1.54624 0
M  V30 2398 H 226.12 1.4939 -3.42977 0
M  V30 2399 H 227.453 1.98355 -4.50462 0
M  V30 2400 N 229.106 1.52395 0.401703 0
M  V30 2401 C 230.355 1.66044 1.14509 0
M  V30 2402 C 230.668 0.400216 1.91462 0
M  V30 2403 O 231.874 0.416632 2.68284 0
M  V30 2404 C 230.33 2.93388 2.0845 0
M  V30 2405 C 229.938 4.26545 1.36978 0
M  V30 2406 C 231.682 3.16402 2.83001 0
M  V30 2407 C 229.589 5.45007 2.29611 0
M  V30 2408 H 228.519 0.618562 0.431158 0
M  V30 2409 H 231.17 1.78886 0.40892 0
M  V30 2410 H 229.552 2.74263 2.8565 0
M  V30 2411 H 230.726 4.56179 0.650916 0
M  V30 2412 H 229.041 4.09692 0.74438 0
M  V30 2413 H 231.638 4.02085 3.52465 0
M  V30 2414 H 231.981 2.30943 3.46368 0
M  V30 2415 H 232.514 3.36034 2.12898 0
M  V30 2416 H 229.253 6.32835 1.70879 0
M  V30 2417 H 228.773 5.19702 2.9945 0
M  V30 2418 H 230.452 5.7838 2.89974 0
M  V30 2419 N 230.584 -0.659388 1.43143 0
M  V30 2420 C 231.514 -1.78422 1.50625 0
M  V30 2421 C 232.495 -1.66216 0.361443 0
M  V30 2422 O 233.68 -1.85404 0.577834 0
M  V30 2423 C 230.81 -3.16815 1.42287 0
M  V30 2424 C 229.764 -3.43777 2.54954 0
M  V30 2425 C 229.09 -4.81905 2.31671 0
M  V30 2426 C 230.39 -3.39134 3.97222 0
M  V30 2427 H 232.084 -1.72417 2.44771 0
M  V30 2428 H 229.63 -0.828084 1.17808 0
M  V30 2429 H 231.583 -3.95253 1.46127 0
M  V30 2430 H 230.307 -3.23534 0.446435 0
M  V30 2431 H 228.966 -2.67707 2.50457 0
M  V30 2432 H 228.614 -4.85294 1.32284 0
M  V30 2433 H 228.314 -5.00906 3.07192 0
M  V30 2434 H 229.838 -5.62609 2.37284 0
M  V30 2435 H 231.252 -4.07518 4.03239 0
M  V30 2436 H 229.649 -3.69671 4.72719 0
M  V30 2437 H 230.719 -2.37426 4.22797 0
M  V30 2438 N 232.062 -1.29571 -0.897171 0
M  V30 2439 C 233.009 -1.14916 -2.00158 0
M  V30 2440 C 233.979 -0.0418149 -1.66047 0
M  V30 2441 O 235.164 -0.209793 -1.89643 0
M  V30 2442 C 232.304 -0.834307 -3.34863 0
M  V30 2443 C 231.417 -2.02234 -3.8174 0
M  V30 2444 C 230.552 -1.64664 -5.05034 0
M  V30 2445 C 229.591 -2.80033 -5.44286 0
M  V30 2446 N 228.728 -2.42843 -6.58765 0
M  V30 2447 H 233.568 -2.09403 -2.12025 0
M  V30 2448 H 231.105 -1.042 -1.0383 0
M  V30 2449 H 233.063 -0.632436 -4.12379 0
M  V30 2450 H 231.693 0.0736656 -3.22716 0
M  V30 2451 H 230.745 -2.33583 -3.00238 0
M  V30 2452 H 232.057 -2.88673 -4.06779 0
M  V30 2453 H 231.211 -1.4078 -5.9014 0
M  V30 2454 H 229.95 -0.753766 -4.8184 0
M  V30 2455 H 228.955 -3.04596 -4.57713 0
M  V30 2456 H 230.18 -3.69989 -5.6946 0
M  V30 2457 H 228.126 -1.56046 -6.3717 0
M  V30 2458 H 228.043 -3.22815 -6.83613 0
M  V30 2459 H 229.311 -2.22285 -7.47134 0
M  V30 2460 N 233.54 1.10788 -1.12088 0
M  V30 2461 C 234.786 1.82942 -0.875226 0
M  V30 2462 C 235.119 1.84779 0.597538 0
M  V30 2463 O 234.394 1.30578 1.44152 0
M  V30 2464 C 234.677 3.29789 -1.44606 0
M  V30 2465 C 234.53 3.36307 -2.98693 0
M  V30 2466 C 235.849 4.26064 -1.10261 0
M  V30 2467 H 232.968 0.664195 -0.319397 0
M  V30 2468 H 235.61 1.29867 -1.38689 0
M  V30 2469 H 233.76 3.75118 -1.01089 0
M  V30 2470 H 235.432 2.99487 -3.50864 0
M  V30 2471 H 233.675 2.76318 -3.34411 0
M  V30 2472 H 234.346 4.39694 -3.33726 0
M  V30 2473 H 236.822 3.88951 -1.4784 0
M  V30 2474 H 235.698 5.27183 -1.52869 0
M  V30 2475 H 235.959 4.42098 -0.0142953 0
M  V30 2476 N 235.018 0.912232 1.28515 0
M  V30 2477 C 235.965 0.397954 2.27343 0
M  V30 2478 C 236.935 -0.526766 1.57526 0
M  V30 2479 O 238.12 -0.449292 1.85435 0
M  V30 2480 C 235.26 -0.357263 3.43246 0
M  V30 2481 C 234.373 0.599788 4.27816 0
M  V30 2482 C 233.508 -0.173725 5.30916 0
M  V30 2483 C 232.547 0.777039 6.07148 0
M  V30 2484 N 231.684 0.0371398 7.0209 0
M  V30 2485 H 236.524 1.24577 2.70711 0
M  V30 2486 H 234.061 0.625612 1.33133 0
M  V30 2487 H 236.019 -0.8113 4.09236 0
M  V30 2488 H 234.649 -1.16943 3.00872 0
M  V30 2489 H 233.701 1.17235 3.61884 0
M  V30 2490 H 235.013 1.32704 4.80823 0
M  V30 2491 H 234.167 -0.688394 6.02782 0
M  V30 2492 H 232.906 -0.934041 4.78672 0
M  V30 2493 H 231.911 1.3031 5.34134 0
M  V30 2494 H 233.136 1.53689 6.61481 0
M  V30 2495 H 231.082 -0.705213 6.52198 0
M  V30 2496 H 230.999 0.704249 7.52713 0
M  V30 2497 H 232.267 -0.457383 7.78157 0
M  V30 2498 N 236.496 -1.42363 0.676048 0
M  V30 2499 C 237.744 -2.01123 0.198437 0
M  V30 2500 C 238.065 -1.53731 -1.19966 0
M  V30 2501 O 237.335 -0.759518 -1.80577 0
M  V30 2502 H 235.915 -0.743678 0.0703721 0
M  V30 2503 H 238.577 -1.74263 0.872837 0
M  V30 2504 H 237.673 -3.11454 0.200686 0
M  V30 2505 N 237.974 -0.419461 -1.51915 0
M  V30 2506 C 239.39 -0.0708431 -1.59443 0
M  V30 2507 C 239.59 1.41796 -1.43164 0
M  V30 2508 O 238.646 2.18596 -1.26381 0
M  V30 2509 C 239.959 -0.574991 -2.95151 0
M  V30 2510 C 241.507 -0.533867 -3.08413 0
M  V30 2511 C 241.982 -1.01469 -4.46618 0
M  V30 2512 N 243.473 -0.971939 -4.52888 0
M  V30 2513 C 244.208 -1.31505 -5.58116 0
M  V30 2514 N 243.704 -1.73014 -6.70849 0
M  V30 2515 N 245.497 -1.23436 -5.48379 0
M  V30 2516 H 237.648 -1.38836 -1.60743 0
M  V30 2517 H 239.911 -0.570998 -0.756747 0
M  V30 2518 H 239.617 -1.61597 -3.12377 0
M  V30 2519 H 239.491 0.00979777 -3.77199 0
M  V30 2520 H 241.878 0.498086 -2.90866 0
M  V30 2521 H 241.959 -1.15484 -2.28248 0
M  V30 2522 H 241.603 -2.04502 -4.6491 0
M  V30 2523 H 241.533 -0.370433 -5.25295 0
M  V30 2524 H 244.024 -0.666893 -3.71969 0
M  V30 2525 H 244.337 -1.97479 -7.47143 0
M  V30 2526 H 242.682 -1.76926 -6.72103 0
M  V30 2527 H 245.873 -0.908869 -4.59192 0
M  V30 2528 H 246.046 -1.50506 -6.30279 0
M  V30 2529 N 239.452 1.56882 -0.150215 0
M  V30 2530 C 240.385 2.12712 0.826358 0
M  V30 2531 C 241.363 1.05154 1.24022 0
M  V30 2532 O 242.547 1.33004 1.33575 0
M  V30 2533 C 239.674 2.64945 2.11002 0
M  V30 2534 C 238.72 3.8468 1.84183 0
M  V30 2535 S 239.553 5.25502 1.02995 0
M  V30 2536 C 240.709 5.81125 2.32474 0
M  V30 2537 H 240.942 2.95214 0.351598 0
M  V30 2538 H 238.475 1.54267 0.0641211 0
M  V30 2539 H 240.433 2.95689 2.84742 0
M  V30 2540 H 239.094 1.82568 2.55593 0
M  V30 2541 H 238.287 4.19482 2.79375 0
M  V30 2542 H 237.889 3.54714 1.1855 0
M  V30 2543 H 240.181 5.92753 3.281 0
M  V30 2544 H 241.124 6.78625 2.02171 0
M  V30 2545 H 241.532 5.09392 2.43269 0
M  V30 2546 N 240.93 -0.123565 1.57115 0
M  V30 2547 C 241.878 -1.17082 2.00984 0
M  V30 2548 C 242.872 -1.43136 0.906009 0
M  V30 2549 O 244.078 -1.43152 1.09121 0
M  V30 2550 H 240.453 -0.394653 0.64012 0
M  V30 2551 H 242.424 -0.774292 2.88179 0
M  V30 2552 C 241.173 -2.49057 2.42623 0
M  V30 2553 H 240.496 -2.29846 3.27125 0
M  V30 2554 H 241.936 -3.20906 2.7712 0
M  V30 2555 C 240.395 -3.11305 1.28805 0
M  V30 2556 O 240.925 -3.97171 0.60153 0
M  V30 2557 N 239.131 -2.71111 1.04628 0
M  V30 2558 H 238.678 -2.01382 1.60634 0
M  V30 2559 H 238.636 -3.1309 0.286685 0
M  V30 2560 N 242.408 -1.52605 -0.393616 0
M  V30 2561 C 243.318 -1.79971 -1.50492 0
M  V30 2562 C 244.334 -0.686181 -1.59899 0
M  V30 2563 O 245.51 -0.973274 -1.76322 0
M  V30 2564 C 242.575 -1.95867 -2.86072 0
M  V30 2565 C 241.636 -3.19781 -2.86424 0
M  V30 2566 C 240.869 -3.34909 -4.15538 0
M  V30 2567 O 241.092 -2.54948 -5.10253 0
M  V30 2568 O 240.026 -4.28141 -4.23059 0
M  V30 2569 H 243.852 -2.74328 -1.30299 0
M  V30 2570 H 241.437 -1.3764 -0.581005 0
M  V30 2571 H 243.319 -2.08056 -3.66457 0
M  V30 2572 H 241.994 -1.04699 -3.063 0
M  V30 2573 H 240.901 -3.13038 -2.04837 0
M  V30 2574 H 242.234 -4.1078 -2.71147 0
M  V30 2575 N 243.887 0.651787 -1.4349 0
M  V30 2576 C 244.817 1.77621 -1.51569 0
M  V30 2577 C 245.798 1.66022 -0.370253 0
M  V30 2578 O 246.983 1.85095 -0.587658 0
M  V30 2579 C 244.113 3.16056 -1.43966 0
M  V30 2580 C 243.067 3.4242 -2.56774 0
M  V30 2581 C 242.393 4.8067 -2.34223 0
M  V30 2582 C 243.693 3.37023 -3.99015 0
M  V30 2583 H 245.387 1.71117 -2.45681 0
M  V30 2584 H 242.933 0.821825 -1.18246 0
M  V30 2585 H 244.886 3.94472 -1.48221 0
M  V30 2586 H 243.61 3.23293 -0.463586 0
M  V30 2587 H 242.269 2.66375 -2.51873 0
M  V30 2588 H 241.917 4.84585 -1.34856 0
M  V30 2589 H 241.617 4.9927 -3.09844 0
M  V30 2590 H 243.141 5.61342 -2.40265 0
M  V30 2591 H 244.555 4.05374 -4.05395 0
M  V30 2592 H 242.952 3.67159 -4.74673 0
M  V30 2593 H 244.022 2.3518 -4.2405 0
M  V30 2594 N 245.365 1.30045 0.890287 0
M  V30 2595 C 246.298 1.10301 1.99772 0
M  V30 2596 C 247.276 0.0121631 1.62595 0
M  V30 2597 O 248.46 0.16469 1.87779 0
M  V30 2598 C 245.587 0.681125 3.31781 0
M  V30 2599 C 244.633 1.77206 3.87944 0
M  V30 2600 S 245.466 3.37335 4.15891 0
M  V30 2601 C 246.622 2.97036 5.50927 0
M  V30 2602 H 246.855 2.04057 2.16213 0
M  V30 2603 H 244.388 1.14299 1.03804 0
M  V30 2604 H 246.346 0.444439 4.08087 0
M  V30 2605 H 245.007 -0.236981 3.13205 0
M  V30 2606 H 244.2 1.42903 4.83316 0
M  V30 2607 H 243.802 1.96275 3.18358 0
M  V30 2608 H 246.094 2.44666 6.31779 0
M  V30 2609 H 247.037 3.91296 5.90164 0
M  V30 2610 H 247.445 2.35057 5.13233 0
M  V30 2611 N 246.843 -1.10192 1.12674 0
M  V30 2612 C 247.806 -2.14786 0.799979 0
M  V30 2613 C 248.806 -1.59711 -0.18685 0
M  V30 2614 O 249.996 -1.74156 0.0392558 0
M  V30 2615 C 247.128 -3.40374 0.189228 0
M  V30 2616 H 248.321 -2.45203 1.72671 0
M  V30 2617 H 245.874 -1.25597 0.930326 0
M  V30 2618 H 246.609 -3.15577 -0.747107 0
M  V30 2619 H 246.394 -3.81637 0.899766 0
M  V30 2620 H 247.884 -4.17594 -0.0228143 0
M  V30 2621 N 248.321 -0.919034 -1.28029 0
M  V30 2622 C 249.251 -0.428581 -2.29533 0
M  V30 2623 C 250.232 0.50659 -1.62381 0
M  V30 2624 O 251.417 0.413195 -1.89753 0
M  V30 2625 C 248.547 0.327388 -3.45753 0
M  V30 2626 C 247.501 -0.519137 -4.2484 0
M  V30 2627 C 246.827 0.365486 -5.33449 0
M  V30 2628 C 248.127 -1.77914 -4.91064 0
M  V30 2629 H 249.821 -1.27687 -2.70807 0
M  V30 2630 H 247.367 -0.615428 -1.30186 0
M  V30 2631 H 249.32 0.681378 -4.15855 0
M  V30 2632 H 248.044 1.20963 -3.03374 0
M  V30 2633 H 246.703 -0.855717 -3.56473 0
M  V30 2634 H 246.351 1.24642 -4.87312 0
M  V30 2635 H 246.051 -0.197356 -5.87268 0
M  V30 2636 H 247.575 0.715241 -6.06396 0
M  V30 2637 H 248.989 -1.49374 -5.53498 0
M  V30 2638 H 247.386 -2.2848 -5.54903 0
M  V30 2639 H 248.456 -2.50382 -4.15255 0
M  V30 2640 N 249.799 1.42003 -0.683588 0
M  V30 2641 C 250.749 2.27997 0.0121992 0
M  V30 2642 C 251.733 1.4156 0.764822 0
M  V30 2643 O 252.925 1.64935 0.642287 0
M  V30 2644 C 250.054 3.29706 0.956482 0
M  V30 2645 C 249.14 4.23625 0.200739 0
M  V30 2646 N 249.531 4.99448 -0.799087 0
M  V30 2647 C 247.829 4.43845 0.437937 0
M  V30 2648 C 248.53 5.68102 -1.25041 0
M  V30 2649 N 247.506 5.40511 -0.578648 0
M  V30 2650 H 251.308 2.84048 -0.754564 0
M  V30 2651 H 248.822 1.54071 -0.513398 0
M  V30 2652 H 250.819 3.90124 1.47 0
M  V30 2653 H 249.479 2.75216 1.72297 0
M  V30 2654 H 250.49 5.04303 -1.17893 0
M  V30 2655 H 247.167 4.00382 1.18325 0
M  V30 2656 H 248.557 6.38913 -2.07942 0
M  V30 2657 N 251.277 0.427512 1.51691 0
M  V30 2658 C 252.505 -0.141191 2.06418 0
M  V30 2659 C 252.92 -1.37303 1.29589 0
M  V30 2660 O 252.277 -1.79059 0.352732 0
M  V30 2661 C 252.328 -0.473266 3.58389 0
M  V30 2662 O 252.049 0.709673 4.32314 0
M  V30 2663 C 253.55 -1.09371 4.29596 0
M  V30 2664 H 250.77 -0.0122747 0.670888 0
M  V30 2665 H 253.314 0.603764 1.95384 0
M  V30 2666 H 251.469 -1.16812 3.69369 0
M  V30 2667 H 251.883 0.42807 5.2275 0
M  V30 2668 H 253.357 -1.27613 5.37046 0
M  V30 2669 H 253.834 -2.072 3.87253 0
M  V30 2670 H 254.44 -0.43853 4.23033 0
M  V30 2671 N 252.755 -1.56801 0.158532 0
M  V30 2672 C 254.003 -1.96102 -0.488712 0
M  V30 2673 C 254.324 -1.04498 -1.64636 0
M  V30 2674 O 253.594 -0.108783 -1.95598 0
M  V30 2675 H 252.174 -0.724102 -0.183535 0
M  V30 2676 H 254.836 -1.93457 0.236728 0
M  V30 2677 H 253.932 -3.00097 -0.857219 0
M  V30 2678 N 254.233 0.115231 -1.57178 0
M  V30 2679 C 255.165 1.16694 -1.97269 0
M  V30 2680 C 256.178 1.37445 -0.872502 0
M  V30 2681 O 257.367 1.36454 -1.15077 0
M  V30 2682 C 254.467 2.52627 -2.25905 0
M  V30 2683 C 253.64 2.52427 -3.57211 0
M  V30 2684 C 252.699 3.70134 -3.74016 0
M  V30 2685 O 251.725 3.53546 -4.46087 0
M  V30 2686 N 252.927 4.88844 -3.13068 0
M  V30 2687 H 255.692 0.82588 -2.88096 0
M  V30 2688 H 253.253 0.304461 -1.59011 0
M  V30 2689 H 255.245 3.29937 -2.34359 0
M  V30 2690 H 253.815 2.789 -1.41186 0
M  V30 2691 H 253.035 1.60805 -3.5991 0
M  V30 2692 H 254.323 2.49353 -4.43509 0
M  V30 2693 H 253.721 5.05225 -2.54489 0
M  V30 2694 H 252.278 5.63817 -3.27037 0
M  V30 2695 N 255.711 1.52812 0.385517 0
M  V30 2696 C 256.936 1.72207 1.15583 0
M  V30 2697 C 257.361 0.441034 1.82857 0
M  V30 2698 O 256.719 -0.603465 1.70962 0
M  V30 2699 C 256.767 2.87476 2.17692 0
M  V30 2700 O 255.871 2.54693 3.24354 0
M  V30 2701 H 255.212 0.572526 0.336319 0
M  V30 2702 H 257.742 1.99618 0.448744 0
M  V30 2703 H 257.752 3.13072 2.6163 0
M  V30 2704 H 256.427 3.80408 1.68115 0
M  V30 2705 H 255.004 2.3985 2.85529 0
M  V30 2706 N 257.189 -0.644168 1.43834 0
M  V30 2707 C 258.119 -1.76814 1.52509 0
M  V30 2708 C 259.1 -1.65823 0.379052 0
M  V30 2709 O 260.285 -1.84781 0.597466 0
M  V30 2710 C 257.415 -3.15288 1.4564 0
M  V30 2711 C 256.369 -3.41053 2.58586 0
M  V30 2712 C 255.695 -4.79421 2.36769 0
M  V30 2713 C 256.995 -3.34902 4.00797 0
M  V30 2714 H 258.689 -1.69812 2.46586 0
M  V30 2715 H 256.235 -0.815542 1.1868 0
M  V30 2716 H 258.188 -3.93681 1.50311 0
M  V30 2717 H 256.912 -3.23043 0.480725 0
M  V30 2718 H 255.571 -2.65035 2.53282 0
M  V30 2719 H 255.219 -4.83863 1.37424 0
M  V30 2720 H 254.919 -4.9762 3.12487 0
M  V30 2721 H 256.443 -5.6006 2.43238 0
M  V30 2722 H 257.857 -4.03218 4.07539 0
M  V30 2723 H 256.254 -3.64637 4.76613 0
M  V30 2724 H 257.324 -2.32928 4.25291 0
M  V30 2725 N 258.668 -1.30515 -0.883378 0
M  V30 2726 C 259.578 -1.18959 -2.02203 0
M  V30 2727 C 260.594 -0.109172 -1.73657 0
M  V30 2728 O 261.77 -0.324413 -1.9877 0
M  V30 2729 C 258.835 -0.883871 -3.35244 0
M  V30 2730 C 257.896 -2.04982 -3.77201 0
M  V30 2731 C 257.129 -1.75859 -5.03894 0
M  V30 2732 O 257.352 -0.687276 -5.66244 0
M  V30 2733 O 256.286 -2.61146 -5.42297 0
M  V30 2734 H 260.112 -2.14616 -2.1488 0
M  V30 2735 H 257.697 -1.10124 -1.0096 0
M  V30 2736 H 259.579 -0.728644 -4.15053 0
M  V30 2737 H 258.254 0.0427798 -3.23672 0
M  V30 2738 H 257.161 -2.26038 -2.9809 0
M  V30 2739 H 258.494 -2.95825 -3.93381 0
M  V30 2740 N 260.146 1.09593 -1.13257 0
M  V30 2741 C 261.078 2.16015 -0.766167 0
M  V30 2742 C 262.091 1.61423 0.211303 0
M  V30 2743 O 263.28 1.78498 -0.00863946 0
M  V30 2744 C 260.38 3.38706 -0.114662 0
M  V30 2745 C 259.553 4.22717 -1.12379 0
M  V30 2746 C 258.612 5.23835 -0.498301 0
M  V30 2747 O 257.638 5.573 -1.15781 0
M  V30 2748 N 258.84 5.75886 0.730417 0
M  V30 2749 H 261.605 2.48055 -1.68193 0
M  V30 2750 H 259.166 1.25292 -1.02535 0
M  V30 2751 H 261.158 4.03464 0.315991 0
M  V30 2752 H 259.728 3.04569 0.704011 0
M  V30 2753 H 258.948 3.54122 -1.73179 0
M  V30 2754 H 260.236 4.75673 -1.80589 0
M  V30 2755 H 259.634 5.50911 1.28504 0
M  V30 2756 H 258.191 6.42387 1.10376 0
M  V30 2757 N 261.624 0.925811 1.2754 0
M  V30 2758 C 262.873 0.561084 1.93739 0
M  V30 2759 C 263.186 -0.901685 1.73577 0
M  V30 2760 O 264.392 -1.37511 2.34101 0
M  V30 2761 C 262.848 0.952668 3.47062 0
M  V30 2762 C 262.456 2.43599 3.75983 0
M  V30 2763 C 264.2 0.659103 4.19352 0
M  V30 2764 C 262.107 2.76707 5.22673 0
M  V30 2765 H 261.037 0.206122 0.725279 0
M  V30 2766 H 263.688 1.12637 1.44863 0
M  V30 2767 H 262.07 0.316053 3.94737 0
M  V30 2768 H 263.244 3.12035 3.39073 0
M  V30 2769 H 261.559 2.70125 3.16893 0
M  V30 2770 H 264.156 0.882985 5.27359 0
M  V30 2771 H 264.499 -0.403607 4.14339 0
M  V30 2772 H 265.032 1.25473 3.77494 0
M  V30 2773 H 261.771 3.8188 5.32774 0
M  V30 2774 H 261.291 2.12919 5.60737 0
M  V30 2775 H 262.97 2.6435 5.90532 0
M  V30 2776 N 263.102 -1.41638 0.69111 0
M  V30 2777 C 264.012 -2.34588 0.0233487 0
M  V30 2778 C 265.028 -1.55987 -0.770984 0
M  V30 2779 O 266.204 -1.88486 -0.709569 0
M  V30 2780 C 263.269 -3.34684 -0.904851 0
M  V30 2781 C 262.33 -4.29176 -0.103225 0
M  V30 2782 C 261.563 -5.2449 -0.987216 0
M  V30 2783 O 261.786 -5.2514 -2.22674 0
M  V30 2784 O 260.72 -6.00295 -0.439281 0
M  V30 2785 H 264.546 -2.93261 0.789416 0
M  V30 2786 H 262.131 -1.42417 0.45142 0
M  V30 2787 H 264.013 -3.96133 -1.43724 0
M  V30 2788 H 262.688 -2.78461 -1.65049 0
M  V30 2789 H 261.595 -3.71089 0.473655 0
M  V30 2790 H 262.928 -4.88484 0.60365 0
M  V30 2791 N 264.58 -0.43555 -1.51462 0
M  V30 2792 C 265.996 -0.0877501 -1.59359 0
M  V30 2793 C 266.196 1.4027 -1.4466 0
M  V30 2794 O 265.252 2.17243 -1.28693 0
M  V30 2795 C 266.565 -0.606264 -2.94525 0
M  V30 2796 C 268.113 -0.566548 -3.0783 0
M  V30 2797 C 268.588 -1.06201 -4.45517 0
M  V30 2798 N 270.079 -1.01992 -4.51832 0
M  V30 2799 C 270.814 -1.37417 -5.5669 0
M  V30 2800 N 270.31 -1.80119 -6.68976 0
M  V30 2801 N 272.103 -1.29245 -5.47039 0
M  V30 2802 H 264.254 -1.40533 -1.59261 0
M  V30 2803 H 266.517 -0.578992 -0.750648 0
M  V30 2804 H 266.223 -1.64901 -3.10645 0
M  V30 2805 H 266.097 -0.0302097 -3.77188 0
M  V30 2806 H 268.484 0.467208 -2.91378 0
M  V30 2807 H 268.565 -1.17898 -2.2701 0
M  V30 2808 H 268.209 -2.09422 -4.62715 0
M  V30 2809 H 268.139 -0.426127 -5.24873 0
M  V30 2810 H 270.63 -0.706308 -3.71241 0
M  V30 2811 H 270.943 -2.05392 -7.45006 0
M  V30 2812 H 269.288 -1.84044 -6.70189 0
M  V30 2813 H 272.479 -0.957522 -4.58202 0
M  V30 2814 H 272.652 -1.57182 -6.28648 0
M  V30 2815 N 266.058 1.56714 -0.166846 0
M  V30 2816 C 267.335 1.88412 0.525373 0
M  V30 2817 C 267.715 1.07602 1.81618 0
M  V30 2818 O 267.063 0.168621 2.27877 0
M  V30 2819 C 267.273 3.40363 0.771613 0
M  V30 2820 C 268.621 4.10007 1.1036 0
M  V30 2821 O 269.645 3.45655 0.860304 0
M  V30 2822 O 268.504 5.2369 1.56239 0
M  V30 2823 H 265.598 0.781587 0.270278 0
M  V30 2824 H 268.144 1.68458 -0.204946 0
M  V30 2825 H 266.916 3.91046 -0.141093 0
M  V30 2826 H 266.539 3.65914 1.55541 0
M  V30 2827 N 267.536 -0.106894 1.57237 0
M  V30 2828 C 268.764 -0.826389 1.8968 0
M  V30 2829 C 269.179 -1.72856 0.759353 0
M  V30 2830 O 268.536 -1.80503 -0.269263 0
M  V30 2831 C 268.587 -1.64967 3.21665 0
M  V30 2832 O 268.308 -0.783804 4.31031 0
M  V30 2833 C 269.809 -2.47326 3.67892 0
M  V30 2834 H 267.029 -0.236927 0.627779 0
M  V30 2835 H 269.573 -0.0876593 2.04312 0
M  V30 2836 H 267.728 -2.34103 3.08666 0
M  V30 2837 H 268.142 -1.35284 5.06753 0
M  V30 2838 H 269.616 -3.00604 4.6297 0
M  V30 2839 H 270.093 -3.25247 2.95146 0
M  V30 2840 H 270.699 -1.83411 3.83719 0
M  V30 2841 N 269.014 -1.53014 -0.377408 0
M  V30 2842 C 269.924 -1.81557 -1.48574 0
M  V30 2843 C 270.94 -0.703102 -1.59162 0
M  V30 2844 O 272.116 -0.99192 -1.75279 0
M  V30 2845 C 269.181 -1.9889 -2.83978 0
M  V30 2846 C 268.242 -3.22801 -2.83016 0
M  V30 2847 C 267.475 -3.39298 -4.11962 0
M  V30 2848 O 267.698 -2.60345 -5.0752 0
M  V30 2849 O 266.632 -4.32604 -4.18494 0
M  V30 2850 H 270.458 -2.75695 -1.27382 0
M  V30 2851 H 268.043 -1.38248 -0.566373 0
M  V30 2852 H 269.925 -2.11931 -3.6423 0
M  V30 2853 H 268.6 -1.07942 -3.05172 0
M  V30 2854 H 267.507 -3.15193 -2.01505 0
M  V30 2855 H 268.84 -4.13632 -2.66775 0
M  V30 2856 N 270.492 0.636531 -1.44174 0
M  V30 2857 C 271.908 0.954104 -1.27941 0
M  V30 2858 C 272.108 2.0039 -0.211248 0
M  V30 2859 O 271.164 2.49236 0.404695 0
M  V30 2860 C 272.477 1.4225 -2.64925 0
M  V30 2861 C 274.025 1.53827 -2.72592 0
M  V30 2862 C 274.5 2.04053 -4.10032 0
M  V30 2863 N 275.991 2.11331 -4.12182 0
M  V30 2864 C 276.726 2.51352 -5.15374 0
M  V30 2865 N 276.222 2.90549 -6.2893 0
M  V30 2866 N 278.015 2.51438 -5.02728 0
M  V30 2867 H 270.166 -0.0578386 -2.12321 0
M  V30 2868 H 272.429 0.0367406 -0.947288 0
M  V30 2869 H 272.135 0.725466 -3.44136 0
M  V30 2870 H 272.009 2.39451 -2.9145 0
M  V30 2871 H 274.396 2.22628 -1.93702 0
M  V30 2872 H 274.477 0.550154 -2.49814 0
M  V30 2873 H 274.121 1.35848 -4.89395 0
M  V30 2874 H 274.051 3.03726 -4.30184 0
M  V30 2875 H 276.542 1.83745 -3.30222 0
M  V30 2876 H 276.855 3.19884 -7.03487 0
M  V30 2877 H 275.2 2.88313 -6.32377 0
M  V30 2878 H 278.391 2.20203 -4.13072 0
M  V30 2879 H 278.564 2.82304 -5.83274 0
M  V30 2880 N 271.97 1.30982 0.876444 0
M  V30 2881 C 273.247 1.10942 1.61094 0
M  V30 2882 C 273.627 -0.338223 2.08373 0
M  V30 2883 O 272.975 -1.33122 1.85717 0
M  V30 2884 C 273.185 2.11789 2.77392 0
M  V30 2885 C 274.533 2.43965 3.47514 0
M  V30 2886 O 275.557 2.10166 2.87591 0
M  V30 2887 O 274.416 3.01817 4.55597 0
M  V30 2888 H 271.51 0.42667 0.708436 0
M  V30 2889 H 274.056 1.42438 0.922474 0
M  V30 2890 H 272.828 3.09194 2.39823 0
M  V30 2891 H 272.451 1.81161 3.5393 0
M  V30 2892 N 273.449 -1.08991 1.13837 0
M  V30 2893 C 274.865 -1.33312 0.877506 0
M  V30 2894 C 275.065 -1.95587 -0.48456 0
M  V30 2895 O 274.121 -2.20509 -1.23013 0
M  V30 2896 C 275.434 -2.24045 2.0056 0
M  V30 2897 C 276.982 -2.37542 2.03821 0
M  V30 2898 C 277.457 -3.31614 3.15905 0
M  V30 2899 N 278.948 -3.39189 3.15445 0
M  V30 2900 C 279.683 -4.11992 3.98811 0
M  V30 2901 N 279.179 -4.87553 4.92203 0
M  V30 2902 N 280.972 -4.07762 3.86894 0
M  V30 2903 H 273.123 -0.669456 2.01574 0
M  V30 2904 H 275.386 -0.357482 0.878015 0
M  V30 2905 H 275.092 -1.85521 2.98789 0
M  V30 2906 H 274.966 -3.24466 1.92359 0
M  V30 2907 H 277.353 -2.75327 1.06202 0
M  V30 2908 H 277.434 -1.36884 2.16093 0
M  V30 2909 H 277.078 -2.94551 4.13766 0
M  V30 2910 H 277.008 -4.32186 3.0087 0
M  V30 2911 H 279.499 -2.85314 2.47799 0
M  V30 2912 H 279.812 -5.40549 5.52292 0
M  V30 2913 H 278.157 -4.86627 4.96205 0
M  V30 2914 H 281.348 -3.47833 3.13257 0
M  V30 2915 H 281.521 -4.64238 4.52092 0
M  V30 2916 N 274.927 -0.932562 -1.27047 0
M  V30 2917 C 276.174 -0.575559 -1.94148 0
M  V30 2918 C 276.502 0.883984 -1.73251 0
M  V30 2919 O 275.757 1.64655 -1.0577 0
M  V30 2920 C 276.056 -0.853713 -3.47054 0
M  V30 2921 C 275.722 -2.29577 -3.88079 0
M  V30 2922 C 274.384 -2.68999 -3.9899 0
M  V30 2923 C 276.736 -3.23331 -4.08787 0
M  V30 2924 C 274.064 -4.01289 -4.28 0
M  V30 2925 C 276.416 -4.55207 -4.39282 0
M  V30 2926 C 275.08 -4.94457 -4.48407 0
M  V30 2927 H 274.35 -0.210612 -0.710439 0
M  V30 2928 H 276.997 -1.17744 -1.51025 0
M  V30 2929 H 275.302 -0.169204 -3.91434 0
M  V30 2930 H 276.999 -0.55639 -3.97121 0
M  V30 2931 H 273.589 -1.97994 -3.80127 0
M  V30 2932 H 277.773 -2.94074 -3.99793 0
M  V30 2933 H 273.029 -4.31374 -4.33275 0
M  V30 2934 H 277.203 -5.27852 -4.54252 0
M  V30 2935 H 274.83 -5.96994 -4.7064 0
M  V30 2936 N 276.405 1.4127 -0.698611 0
M  V30 2937 C 277.335 2.33447 -0.049629 0
M  V30 2938 C 278.316 1.51982 0.763898 0
M  V30 2939 O 279.501 1.80509 0.716257 0
M  V30 2940 C 276.631 3.35828 0.885267 0
M  V30 2941 C 275.585 4.27627 0.178613 0
M  V30 2942 C 274.911 5.20406 1.22807 0
M  V30 2943 C 276.211 5.13459 -0.956933 0
M  V30 2944 H 277.905 2.87966 -0.81951 0
M  V30 2945 H 275.451 1.38461 -0.395538 0
M  V30 2946 H 277.404 3.9924 1.34854 0
M  V30 2947 H 276.128 2.79666 1.68685 0
M  V30 2948 H 274.787 3.65643 -0.26466 0
M  V30 2949 H 274.435 4.60558 2.02226 0
M  V30 2950 H 274.135 5.82661 0.760239 0
M  V30 2951 H 275.659 5.86695 1.69179 0
M  V30 2952 H 277.073 5.70421 -0.573805 0
M  V30 2953 H 275.47 5.8467 -1.35205 0
M  V30 2954 H 276.54 4.50443 -1.79524 0
M  V30 2955 N 277.883 0.443576 1.51229 0
M  V30 2956 C 279.108 -0.121648 2.07043 0
M  V30 2957 C 279.533 -1.35156 1.30823 0
M  V30 2958 O 278.891 -1.7793 0.347934 0
M  V30 2959 C 278.939 -0.41624 3.5819 0
M  V30 2960 O 278.043 -1.50163 3.8409 0
M  V30 2961 H 277.384 0.000871367 0.663999 0
M  V30 2962 H 279.914 0.626706 1.94765 0
M  V30 2963 H 279.924 -0.664867 4.02546 0
M  V30 2964 H 278.599 0.482653 4.1309 0
M  V30 2965 H 277.176 -1.24248 3.51592 0
M  V30 2966 N 279.361 -1.56624 0.175154 0
M  V30 2967 C 280.324 -2.16934 -0.739738 0
M  V30 2968 C 281.324 -1.11842 -1.15533 0
M  V30 2969 O 282.514 -1.37335 -1.07167 0
M  V30 2970 C 279.646 -2.75531 -2.00738 0
M  V30 2971 H 280.839 -2.99131 -0.214639 0
M  V30 2972 H 278.392 -1.56123 -0.0744197 0
M  V30 2973 H 279.127 -1.97078 -2.57548 0
M  V30 2974 H 278.912 -3.52444 -1.71831 0
M  V30 2975 H 280.402 -3.21904 -2.66021 0
M  V30 2976 N 280.839 0.0985539 -1.57292 0
M  V30 2977 C 282.25 0.653457 -1.74891 0
M  V30 2978 C 282.601 1.7929 -0.796838 0
M  V30 2979 O 281.726 2.16385 0.0254886 0
M  V30 2980 C 282.321 1.19216 -3.17133 0
M  V30 2981 C 280.88 1.69316 -3.36168 0
M  V30 2982 C 280.027 0.601294 -2.70702 0
M  V30 2983 H 282.978 -0.127497 -1.58187 0
M  V30 2984 H 282.999 2.06154 -3.19814 0
M  V30 2985 H 282.511 0.362635 -3.86402 0
M  V30 2986 H 280.612 2.5468 -2.71972 0
M  V30 2987 H 280.725 1.78853 -4.44464 0
M  V30 2988 H 279.089 1.0399 -2.32504 0
M  V30 2989 H 279.872 -0.217592 -3.4261 0
M  V30 2990 N 282.317 1.53212 0.369288 0
M  V30 2991 C 283.227 1.82342 1.47609 0
M  V30 2992 C 284.243 0.711532 1.58787 0
M  V30 2993 O 285.419 1.0012 1.74751 0
M  V30 2994 C 282.484 2.00393 2.8292 0
M  V30 2995 C 281.545 3.24297 2.81301 0
M  V30 2996 C 280.778 3.41478 4.10157 0
M  V30 2997 O 281.001 2.63033 5.06132 0
M  V30 2998 O 279.935 4.34817 4.16194 0
M  V30 2999 H 283.761 2.76366 1.25918 0
M  V30 3000 H 281.346 1.38547 0.559034 0
M  V30 3001 H 283.228 2.13859 3.63101 0
M  V30 3002 H 281.903 1.09559 3.04596 0
M  V30 3003 H 280.81 3.16257 1.99831 0
M  V30 3004 H 282.143 4.15041 2.64578 0
M  V30 3005 N 283.795 -0.628877 1.44509 0
M  V30 3006 C 284.758 -1.72263 1.51188 0
M  V30 3007 C 285.758 -1.55907 0.39367 0
M  V30 3008 O 286.948 -1.61361 0.656377 0
M  V30 3009 C 284.08 -3.11365 1.38798 0
M  V30 3010 H 285.273 -1.67714 2.4862 0
M  V30 3011 H 282.826 -0.842737 1.31634 0
M  V30 3012 H 283.561 -3.21507 0.424693 0
M  V30 3013 H 283.346 -3.24644 2.19884 0
M  V30 3014 H 284.836 -3.91075 1.46458 0
M  V30 3015 N 285.273 -1.31445 -0.869486 0
M  V30 3016 C 286.519 -1.21337 -1.62496 0
M  V30 3017 C 286.852 0.227872 -1.92858 0
M  V30 3018 O 286.127 1.16094 -1.56053 0
M  V30 3019 C 286.41 -2.05814 -2.95487 0
M  V30 3020 C 286.263 -3.5824 -2.72 0
M  V30 3021 C 287.582 -1.9079 -3.96594 0
M  V30 3022 H 284.701 -0.442135 -0.589649 0
M  V30 3023 H 287.343 -1.6124 -1.00507 0
M  V30 3024 H 285.493 -1.71913 -3.48394 0
M  V30 3025 H 287.165 -4.0228 -2.25762 0
M  V30 3026 H 285.408 -3.81647 -2.06224 0
M  V30 3027 H 286.079 -4.12657 -3.66631 0
M  V30 3028 H 288.555 -2.20459 -3.52898 0
M  V30 3029 H 287.431 -2.52199 -4.87531 0
M  V30 3030 H 287.692 -0.871341 -4.33428 0
M  V30 3031 N 286.751 1.08385 -1.14413 0
M  V30 3032 C 287.661 2.18856 -0.844951 0
M  V30 3033 C 288.677 1.73121 0.174668 0
M  V30 3034 O 289.853 2.014 0.00312857 0
M  V30 3035 C 286.918 3.45155 -0.32696 0
M  V30 3036 C 285.979 4.05513 -1.40916 0
M  V30 3037 C 285.212 5.25784 -0.915793 0
M  V30 3038 O 285.435 5.69884 0.242651 0
M  V30 3039 O 284.369 5.77545 -1.69487 0
M  V30 3040 H 288.195 2.46919 -1.76818 0
M  V30 3041 H 285.78 1.17524 -0.922411 0
M  V30 3042 H 287.662 4.21377 -0.0440211 0
M  V30 3043 H 286.337 3.18668 0.568539 0
M  V30 3044 H 285.244 3.30879 -1.74556 0
M  V30 3045 H 286.577 4.3625 -2.27919 0
M  V30 3046 N 288.23 0.939286 1.26551 0
M  V30 3047 C 289.46 0.601663 1.97645 0
M  V30 3048 C 289.868 -0.827206 1.70159 0
M  V30 3049 O 289.211 -1.56291 0.965338 0
M  V30 3050 C 289.273 0.761725 3.51337 0
M  V30 3051 C 288.937 2.16487 4.0247 0
M  V30 3052 C 289.934 3.14016 4.14355 0
M  V30 3053 C 287.619 2.48494 4.36527 0
M  V30 3054 C 289.613 4.41654 4.59587 0
M  V30 3055 C 287.3 3.76364 4.81449 0
M  V30 3056 C 288.298 4.72758 4.92939 0
M  V30 3057 O 287.986 5.98352 5.36871 0
M  V30 3058 H 287.718 0.225758 0.637189 0
M  V30 3059 H 290.272 1.26178 1.62075 0
M  V30 3060 H 288.502 0.0444808 3.86674 0
M  V30 3061 H 290.191 0.427442 4.03643 0
M  V30 3062 H 290.957 2.90613 3.8829 0
M  V30 3063 H 286.836 1.74202 4.26819 0
M  V30 3064 H 290.38 5.16896 4.68471 0
M  V30 3065 H 286.277 3.99582 5.06956 0
M  V30 3066 H 287.045 6.01507 5.55096 0
M  V30 3067 N 289.708 -1.40897 0.706093 0
M  V30 3068 C 290.956 -2.00657 0.241054 0
M  V30 3069 C 291.277 -1.56241 -1.16678 0
M  V30 3070 O 290.547 -0.79765 -1.78926 0
M  V30 3071 H 289.127 -0.742018 0.0861308 0
M  V30 3072 H 291.789 -1.72372 0.909604 0
M  V30 3073 H 290.885 -3.10958 0.266705 0
M  V30 3074 N 291.186 -0.45159 -1.50991 0
M  V30 3075 C 292.116 0.342898 -2.30969 0
M  V30 3076 C 293.097 1.00815 -1.37005 0
M  V30 3077 O 294.282 1.00907 -1.65926 0
M  V30 3078 C 291.412 1.43637 -3.16205 0
M  V30 3079 C 290.366 0.893818 -4.18563 0
M  V30 3080 C 289.692 2.08411 -4.92411 0
M  V30 3081 C 290.992 -0.0815568 -5.22236 0
M  V30 3082 H 292.686 -0.324556 -2.97636 0
M  V30 3083 H 290.232 -0.157531 -1.43136 0
M  V30 3084 H 292.185 1.9995 -3.70942 0
M  V30 3085 H 290.909 2.13232 -2.47386 0
M  V30 3086 H 289.568 0.352798 -3.64898 0
M  V30 3087 H 289.216 2.76658 -4.20082 0
M  V30 3088 H 288.916 1.72741 -5.61636 0
M  V30 3089 H 290.44 2.65251 -5.49976 0
M  V30 3090 H 291.854 0.391742 -5.7196 0
M  V30 3091 H 290.251 -0.351551 -5.99069 0
M  V30 3092 H 291.321 -1.01374 -4.74185 0
M  V30 3093 N 292.664 1.56529 -0.183458 0
M  V30 3094 C 293.91 1.97537 0.459036 0
M  V30 3095 C 294.243 1.06989 1.62071 0
M  V30 3096 O 293.518 0.11948 1.94133 0
M  V30 3097 C 293.801 3.47874 0.930368 0
M  V30 3098 C 293.654 4.492 -0.232317 0
M  V30 3099 C 294.973 4.01612 1.79989 0
M  V30 3100 H 292.092 0.718204 0.165383 0
M  V30 3101 H 294.734 1.88042 -0.272038 0
M  V30 3102 H 292.884 3.56095 1.55333 0
M  V30 3103 H 294.556 4.53027 -0.86972 0
M  V30 3104 H 292.799 4.24657 -0.885928 0
M  V30 3105 H 293.47 5.51823 0.139796 0
M  V30 3106 H 295.946 3.96097 1.27461 0
M  V30 3107 H 294.822 5.07195 2.09867 0
M  V30 3108 H 295.083 3.46163 2.74998 0
M  V30 3109 N 294.142 -0.090211 1.57342 0
M  V30 3110 C 295.419 -0.824761 1.77361 0
M  V30 3111 C 295.799 -1.96698 0.76637 0
M  V30 3112 O 295.147 -2.27586 -0.204179 0
M  V30 3113 C 295.357 -1.31481 3.23286 0
M  V30 3114 C 296.705 -1.75563 3.86604 0
M  V30 3115 O 297.729 -1.41093 3.27065 0
M  V30 3116 O 296.588 -2.39317 4.91314 0
M  V30 3117 H 293.682 -0.393776 0.727234 0
M  V30 3118 H 296.228 -0.0717138 1.69548 0
M  V30 3119 H 295 -0.496671 3.88135 0
M  V30 3120 H 294.623 -2.12973 3.35751 0
M  V30 3121 N 295.62 -1.53406 -0.361157 0
M  V30 3122 C 296.845 -1.74024 -1.12829 0
M  V30 3123 C 297.27 -0.470069 -1.82132 0
M  V30 3124 O 296.628 0.57619 -1.719 0
M  V30 3125 C 296.676 -2.90903 -2.13091 0
M  V30 3126 O 295.78 -2.59821 -3.20261 0
M  V30 3127 H 295.121 -0.577804 -0.327168 0
M  V30 3128 H 297.651 -2.00307 -0.41693 0
M  V30 3129 H 297.661 -3.17194 -2.56616 0
M  V30 3130 H 296.336 -3.83034 -1.62042 0
M  V30 3131 H 294.913 -2.44362 -2.81677 0
M  V30 3132 N 297.098 0.621204 -1.44841 0
M  V30 3133 C 298.347 1.37658 -1.47422 0
M  V30 3134 C 298.66 1.95264 -0.114629 0
M  V30 3135 O 299.866 2.71494 -0.0180199 0
M  V30 3136 C 298.322 2.49285 -2.59586 0
M  V30 3137 C 297.93 1.98149 -4.01797 0
M  V30 3138 C 299.674 3.26409 -2.71399 0
M  V30 3139 C 297.581 3.07178 -5.05367 0
M  V30 3140 H 296.511 0.517344 -0.548517 0
M  V30 3141 H 299.162 0.667257 -1.70938 0
M  V30 3142 H 297.544 3.22839 -2.29328 0
M  V30 3143 H 298.718 1.31395 -4.41669 0
M  V30 3144 H 297.033 1.33812 -3.94314 0
M  V30 3145 H 299.63 4.07706 -3.45948 0
M  V30 3146 H 299.973 3.76535 -1.77559 0
M  V30 3147 H 300.506 2.5995 -3.01116 0
M  V30 3148 H 297.245 2.61985 -6.00869 0
M  V30 3149 H 296.765 3.72542 -4.70077 0
M  V30 3150 H 298.444 3.71789 -5.29511 0
M  V30 3151 N 298.576 1.31904 0.862503 0
M  V30 3152 C 299.506 1.22782 1.98612 0
M  V30 3153 C 300.487 0.113362 1.69722 0
M  V30 3154 O 301.672 0.299218 1.91881 0
M  V30 3155 C 298.802 0.942058 3.34279 0
M  V30 3156 C 297.756 2.0169 3.77499 0
M  V30 3157 C 297.082 1.58369 5.10709 0
M  V30 3158 C 298.382 3.43096 3.93805 0
M  V30 3159 H 300.076 2.16788 2.06502 0
M  V30 3160 H 297.622 1.04366 0.992154 0
M  V30 3161 H 299.575 0.864818 4.1243 0
M  V30 3162 H 298.299 -0.0336603 3.26583 0
M  V30 3163 H 296.958 2.08416 3.01593 0
M  V30 3164 H 296.606 0.595628 4.99461 0
M  V30 3165 H 296.306 2.30279 5.40597 0
M  V30 3166 H 297.83 1.52067 5.91361 0
M  V30 3167 H 299.244 3.39003 4.62331 0
M  V30 3168 H 297.641 4.13288 4.35101 0
M  V30 3169 H 298.711 3.83334 2.96957 0
M  V30 3170 N 300.054 -1.07777 1.14986 0
M  V30 3171 C 301.282 -1.84018 0.945773 0
M  V30 3172 C 301.697 -1.81897 -0.505863 0
M  V30 3173 O 301.054 -1.22726 -1.35072 0
M  V30 3174 C 301.105 -3.31287 1.44677 0
M  V30 3175 O 300.826 -3.33449 2.84154 0
M  V30 3176 C 302.327 -4.24311 1.28355 0
M  V30 3177 H 299.547 -0.580716 0.336169 0
M  V30 3178 H 302.091 -1.36077 1.52654 0
M  V30 3179 H 300.246 -3.76594 0.908625 0
M  V30 3180 H 300.66 -4.25427 3.06777 0
M  V30 3181 H 302.134 -5.2573 1.68261 0
M  V30 3182 H 302.611 -4.38612 0.227184 0
M  V30 3183 H 303.217 -3.84836 1.81056 0
M  V30 3184 N 301.532 -0.945985 -1.26051 0
M  V30 3185 C 302.482 -0.430164 -2.23905 0
M  V30 3186 C 303.466 0.47579 -1.53704 0
M  V30 3187 O 304.658 0.310252 -1.7426 0
M  V30 3188 C 301.787 0.298957 -3.41996 0
M  V30 3189 C 300.873 -0.624566 -4.19476 0
M  V30 3190 N 301.264 -1.75245 -4.74471 0
M  V30 3191 C 299.562 -0.431082 -4.43912 0
M  V30 3192 C 300.263 -2.32834 -5.3307 0
M  V30 3193 N 299.239 -1.61583 -5.1903 0
M  V30 3194 H 303.041 -1.29107 -2.64024 0
M  V30 3195 H 300.555 -0.802428 -1.41191 0
M  V30 3196 H 302.552 0.685565 -4.11225 0
M  V30 3197 H 301.212 1.15657 -3.03403 0
M  V30 3198 H 302.223 -2.13449 -4.71868 0
M  V30 3199 H 298.9 0.384364 -4.15727 0
M  V30 3200 H 300.29 -3.27893 -5.86461 0
M  V30 3201 N 303.011 1.40521 -0.713556 0
M  V30 3202 C 304.427 1.54839 -0.386907 0
M  V30 3203 C 304.627 1.68532 1.1045 0
M  V30 3204 O 303.683 1.67377 1.89053 0
M  V30 3205 C 304.996 2.77792 -1.15118 0
M  V30 3206 C 306.544 2.91607 -1.13729 0
M  V30 3207 C 307.019 4.1747 -1.88368 0
M  V30 3208 N 308.51 4.24466 -1.85427 0
M  V30 3209 C 309.245 5.20755 -2.40004 0
M  V30 3210 N 308.741 6.22965 -3.03129 0
M  V30 3211 N 310.534 5.1282 -2.30158 0
M  V30 3212 H 302.685 1.29879 -1.68063 0
M  V30 3213 H 304.948 0.627896 -0.710247 0
M  V30 3214 H 304.654 2.73944 -2.20561 0
M  V30 3215 H 304.528 3.6984 -0.741477 0
M  V30 3216 H 306.915 2.94959 -0.0910608 0
M  V30 3217 H 306.996 2.00682 -1.5862 0
M  V30 3218 H 306.64 4.1488 -2.9298 0
M  V30 3219 H 306.57 5.074 -1.40898 0
M  V30 3220 H 309.061 3.51241 -1.3942 0
M  V30 3221 H 309.374 6.92859 -3.42295 0
M  V30 3222 H 307.719 6.23415 -3.07212 0
M  V30 3223 H 310.91 4.31899 -1.80501 0
M  V30 3224 H 311.083 5.87689 -2.72993 0
M  V30 3225 N 304.489 0.459591 1.5075 0
M  V30 3226 C 305.437 -0.354678 2.2988 0
M  V30 3227 C 306.431 -1.00086 1.36672 0
M  V30 3228 O 307.637 -0.933277 1.53915 0
M  V30 3229 H 304.012 -0.13321 0.740107 0
M  V30 3230 H 305.983 0.333269 2.96533 0
M  V30 3231 C 304.732 -1.43073 3.169 0
M  V30 3232 H 304.055 -0.942882 3.88523 0
M  V30 3233 H 305.495 -1.97328 3.75284 0
M  V30 3234 C 303.954 -2.42633 2.33732 0
M  V30 3235 O 304.484 -3.47658 2.01238 0
M  V30 3236 N 302.69 -2.14066 1.9653 0
M  V30 3237 H 302.237 -1.28685 2.23155 0
M  V30 3238 H 302.195 -2.80917 1.41185 0
M  V30 3239 O 306.006 -1.58029 0.333053 0
M  V30 3240 H 306.697 -1.92392 -0.224736 0
M  V30 END ATOM
M  V30 BEGIN BOND
M  V30 END BOND
M  V30 END CTAB
M  END
$$$$
