drugbank_target|P37059 Estradiol 17-beta-dehydrogenase 2 (DB00157; DB13952; DB13953; DB13954; DB13955; DB13956)
 OpenBabel12092119223D

  0  0  0     0  0            999 V3000
M  V30 BEGIN CTAB
M  V30 COUNTS 6062 6135 0 0 0
M  V30 BEGIN ATOM
M  V30 1 H -0.908 1.98254 -0.117106 0
M  V30 2 N 0 1.576 0 0
M  V30 3 C 0.933 2.03868 1.02534 0
M  V30 4 C 1.911 0.928543 1.3348 0
M  V30 5 O 3.095 1.19667 1.45644 0
M  V30 6 C 0.222 2.43627 2.35294 0
M  V30 7 C -0.732 3.65373 2.2001 0
M  V30 8 S 0.101 5.13292 1.52614 0
M  V30 9 C 1.257 5.56322 2.86805 0
M  V30 10 H 1.49 2.90518 0.631377 0
M  V30 11 H -0.977 1.52953 0.210867 0
M  V30 12 H 0.981 2.67203 3.11629 0
M  V30 13 H -0.358 1.57376 2.7183 0
M  V30 14 H -1.165 3.90944 3.18086 0
M  V30 15 H -1.563 3.418 1.51819 0
M  V30 16 H 0.729 5.58782 3.83104 0
M  V30 17 H 1.672 6.56266 2.65933 0
M  V30 18 H 2.08 4.83886 2.90714 0
M  V30 19 N 1.4781 -0.272755 1.55222 0
M  V30 20 C 2.7031 -1.02683 1.80197 0
M  V30 21 C 3.1281 -1.79142 0.573551 0
M  V30 22 O 2.4861 -1.74917 -0.476849 0
M  V30 23 C 2.5341 -1.9609 3.02624 0
M  V30 24 O 1.6381 -3.04863 2.77727 0
M  V30 25 H 0.9791 -0.293557 0.595584 0
M  V30 26 H 3.5091 -0.30159 2.02365 0
M  V30 27 H 3.5191 -2.38039 3.31363 0
M  V30 28 H 2.1941 -1.39851 3.91682 0
M  V30 29 H 0.7711 -2.67228 2.60084 0
M  V30 30 N 2.9562 -1.48159 -0.537278 0
M  V30 31 C 4.1842 -1.59454 -1.31841 0
M  V30 32 C 4.5992 -0.252065 -1.8711 0
M  V30 33 O 3.9562 0.757621 -1.66031 0
M  V30 34 C 4.0072 -2.63546 -2.47439 0
M  V30 35 O 3.7282 -3.92583 -1.94449 0
M  V30 36 C 5.2292 -2.85212 -3.39366 0
M  V30 37 H 2.4492 -0.53785 -0.401196 0
M  V30 38 H 4.9932 -1.93932 -0.648891 0
M  V30 39 H 3.1482 -2.31946 -3.1029 0
M  V30 40 H 3.5622 -4.49629 -2.70063 0
M  V30 41 H 5.0362 -3.61863 -4.16844 0
M  V30 42 H 5.5132 -1.93765 -3.94147 0
M  V30 43 H 6.1192 -3.18086 -2.82314 0
M  V30 44 N 4.4343 0.785586 -1.36625 0
M  V30 45 C 5.6813 1.54362 -1.31067 0
M  V30 46 C 6.0093 1.94195 0.10893 0
M  V30 47 O 5.2643 1.63262 1.07908 0
M  V30 48 C 5.5633 2.83007 -2.1827 0
M  V30 49 C 5.2293 2.62294 -3.6676 0
M  V30 50 C 3.8913 2.56353 -4.0723 0
M  V30 51 C 6.2433 2.43371 -4.6089 0
M  V30 52 C 3.5713 2.29461 -5.39967 0
M  V30 53 C 5.9233 2.18005 -5.93849 0
M  V30 54 C 4.5873 2.105 -6.3344 0
M  V30 55 H 3.8573 0.564851 -0.479609 0
M  V30 56 H 6.5043 0.906028 -1.68711 0
M  V30 57 H 4.8093 3.51253 -1.73576 0
M  V30 58 H 6.5063 3.40817 -2.11292 0
M  V30 59 H 3.0963 2.67774 -3.34656 0
M  V30 60 H 7.2803 2.46959 -4.30494 0
M  V30 61 H 2.5363 2.22135 -5.69619 0
M  V30 62 H 6.7103 2.02359 -6.66351 0
M  V30 63 H 4.3373 1.89425 -7.36222 0
M  V30 64 N 5.9124 1.20967 1.01018 0
M  V30 65 C 7.1594 1.02374 1.74716 0
M  V30 66 C 7.4874 -0.443375 1.89379 0
M  V30 67 O 6.7424 -1.34535 1.42123 0
M  V30 68 C 7.0414 1.65997 3.16512 0
M  V30 69 C 6.7074 3.15831 3.2181 0
M  V30 70 C 5.3694 3.56719 3.22963 0
M  V30 71 C 7.7214 4.11816 3.19464 0
M  V30 72 C 5.0494 4.92107 3.19449 0
M  V30 73 C 7.4014 5.47158 3.17491 0
M  V30 74 C 6.0654 5.87451 3.16951 0
M  V30 75 H 5.3354 0.374614 0.639332 0
M  V30 76 H 7.9824 1.50485 1.18434 0
M  V30 77 H 6.2874 1.10166 3.75993 0
M  V30 78 H 7.9844 1.49119 3.72242 0
M  V30 79 H 4.5744 2.83263 3.21652 0
M  V30 80 H 8.7584 3.81257 3.17737 0
M  V30 81 H 4.0144 5.22579 3.17366 0
M  V30 82 H 8.1884 6.21274 3.14629 0
M  V30 83 H 5.8154 6.92329 3.13983 0
M  V30 84 N 7.3905 -1.2043 1.01659 0
M  V30 85 C 8.6155 -1.94318 0.724942 0
M  V30 86 C 9.0405 -1.74266 -0.708034 0
M  V30 87 O 8.3985 -1.03694 -1.48719 0
M  V30 88 C 8.4465 -3.44486 1.06591 0
M  V30 89 O 7.5505 -4.12017 0.177599 0
M  V30 90 H 6.8915 -0.60708 0.26898 0
M  V30 91 H 9.4215 -1.52861 1.35995 0
M  V30 92 H 9.4315 -3.95106 1.01762 0
M  V30 93 H 8.1065 -3.58404 2.10997 0
M  V30 94 H 6.6835 -3.71821 0.283421 0
M  V30 95 N 8.8686 -0.792821 -1.36206 0
M  V30 96 C 10.1456 -0.290627 -1.93429 0
M  V30 97 C 10.5256 1.21773 -1.72437 0
M  V30 98 O 9.8736 2.0108 -1.08531 0
M  V30 99 C 10.0836 -0.686973 -3.42172 0
M  V30 100 C 11.4316 -0.668643 -4.19302 0
M  V30 101 O 12.4556 -0.627658 -3.50626 0
M  V30 102 O 11.3146 -0.714597 -5.41808 0
M  V30 103 H 8.4086 -0.0727927 -0.82379 0
M  V30 104 H 10.9546 -0.875593 -1.45367 0
M  V30 105 H 9.7266 -1.72711 -3.51122 0
M  V30 106 H 9.3496 -0.0760733 -3.97527 0
M  V30 107 N 10.3467 1.47872 -0.545128 0
M  V30 108 C 11.5747 2.06889 -0.021084 0
M  V30 109 C 11.9897 1.39955 1.2672 0
M  V30 110 O 11.3467 0.492036 1.75742 0
M  V30 111 C 11.3977 3.60996 0.190817 0
M  V30 112 O 11.1187 4.25419 -1.04644 0
M  V30 113 C 12.6197 4.36849 0.753521 0
M  V30 114 H 9.8397 0.669785 -0.0403635 0
M  V30 115 H 12.3837 1.90049 -0.755095 0
M  V30 116 H 10.5387 3.77391 0.87492 0
M  V30 117 H 10.9527 5.17785 -0.836611 0
M  V30 118 H 12.4267 5.45399 0.851139 0
M  V30 119 H 12.9037 4.02306 1.762 0
M  V30 120 H 13.5097 4.25169 0.105503 0
M  V30 121 N 11.8248 0.280983 1.55075 0
M  V30 122 C 12.7878 -0.590896 2.21452 0
M  V30 123 C 13.7878 -1.07682 1.19421 0
M  V30 124 O 14.9778 -0.97605 1.44288 0
M  V30 125 C 12.1098 -1.81587 2.88511 0
M  V30 126 H 13.3028 -0.0112554 2.99898 0
M  V30 127 H 10.8558 0.0316438 1.56268 0
M  V30 128 H 11.5908 -2.43587 2.14093 0
M  V30 129 H 11.3758 -1.4753 3.63287 0
M  V30 130 H 12.8658 -2.43575 3.39206 0
M  V30 131 N 13.3029 -1.57598 0.00835791 0
M  V30 132 C 14.5489 -1.92046 -0.670055 0
M  V30 133 C 14.9039 -0.88351 -1.70915 0
M  V30 134 O 14.1969 0.103223 -1.91322 0
M  V30 135 C 14.3909 -3.3101 -1.34787 0
M  V30 136 C 14.2199 -4.48126 -0.375945 0
M  V30 137 C 12.9899 -5.05297 0.0166914 0
M  V30 138 C 15.1879 -5.1303 0.361272 0
M  V30 139 N 13.1699 -6.05931 0.985952 0
M  V30 140 C 14.5409 -6.08571 1.18495 0
M  V30 141 C 16.5959 -4.9609 0.42421 0
M  V30 142 C 15.2989 -6.88996 2.06584 0
M  V30 143 C 17.3249 -5.77107 1.29236 0
M  V30 144 C 16.6869 -6.72248 2.10386 0
M  V30 145 H 12.7859 -0.75096 -0.218136 0
M  V30 146 H 15.3699 -1.94572 0.0706669 0
M  V30 147 H 13.5409 -3.29342 -2.05884 0
M  V30 148 H 15.2729 -3.52864 -1.98164 0
M  V30 149 H 12.0279 -4.72279 -0.353435 0
M  V30 150 H 12.4519 -6.60932 1.4662 0
M  V30 151 H 17.0939 -4.22378 -0.188915 0
M  V30 152 H 14.8119 -7.62028 2.6896 0
M  V30 153 H 18.3979 -5.66038 1.34508 0
M  V30 154 H 17.2779 -7.33846 2.76476 0
M  V30 155 N 14.781 0.264519 -1.55364 0
M  V30 156 C 16.03 0.992812 -1.75574 0
M  V30 157 C 16.343 1.87142 -0.568979 0
M  V30 158 O 17.549 2.63513 -0.653682 0
M  V30 159 C 16.005 1.81519 -3.10771 0
M  V30 160 C 15.613 0.984839 -4.37041 0
M  V30 161 C 17.357 2.53727 -3.40327 0
M  V30 162 C 15.264 1.80209 -5.63275 0
M  V30 163 H 14.194 0.374412 -0.65447 0
M  V30 164 H 16.845 0.248138 -1.81815 0
M  V30 165 H 15.227 2.60115 -2.98591 0
M  V30 166 H 16.401 0.242455 -4.60162 0
M  V30 167 H 14.716 0.37691 -4.14691 0
M  V30 168 H 17.313 3.15292 -4.3185 0
M  V30 169 H 17.656 3.24447 -2.60845 0
M  V30 170 H 18.189 1.82156 -3.53644 0
M  V30 171 H 14.928 1.13896 -6.45529 0
M  V30 172 H 14.448 2.52022 -5.44284 0
M  V30 173 H 16.127 2.37364 -6.01887 0
M  V30 174 N 16.2591 1.48442 0.529413 0
M  V30 175 C 17.4991 1.58086 1.29569 0
M  V30 176 C 17.8631 0.249302 1.90375 0
M  V30 177 O 19.0641 0.220738 2.67892 0
M  V30 178 C 17.3351 2.68793 2.35552 0
M  V30 179 S 18.8941 2.98207 3.21898 0
M  V30 180 H 15.7121 0.557922 0.440732 0
M  V30 181 H 18.3141 1.85966 0.603059 0
M  V30 182 H 17.0181 3.64102 1.89363 0
M  V30 183 H 16.5491 2.42817 3.09522 0
M  V30 184 H 18.5641 2.37548 4.35644 0
M  V30 185 N 17.7372 -0.778329 1.37039 0
M  V30 186 C 18.6672 -1.90546 1.34962 0
M  V30 187 C 19.6482 -1.68681 0.219274 0
M  V30 188 O 20.8332 -1.89634 0.418624 0
M  V30 189 C 17.9632 -3.27734 1.14925 0
M  V30 190 C 16.9172 -3.64147 2.24902 0
M  V30 191 C 16.2432 -4.99806 1.89996 0
M  V30 192 C 17.5432 -3.71579 3.67051 0
M  V30 193 H 19.2372 -1.92541 2.29277 0
M  V30 194 H 16.7832 -0.924948 1.10366 0
M  V30 195 H 18.7362 -4.06215 1.12104 0
M  V30 196 H 17.4602 -3.26154 0.170631 0
M  V30 197 H 16.1192 -2.8797 2.26868 0
M  V30 198 H 15.7672 -4.94759 0.906796 0
M  V30 199 H 15.4672 -5.25139 2.63634 0
M  V30 200 H 16.9912 -5.80694 1.88749 0
M  V30 201 H 18.4052 -4.40227 3.67251 0
M  V30 202 H 16.8022 -4.08405 4.39688 0
M  V30 203 H 17.8722 -2.72404 4.01154 0
M  V30 204 N 19.2153 -1.21501 -1.00376 0
M  V30 205 C 20.1783 -0.976927 -2.07337 0
M  V30 206 C 21.1783 0.0525322 -1.60714 0
M  V30 207 O 22.3683 -0.184869 -1.73216 0
M  V30 208 C 19.5003 -0.473423 -3.37597 0
M  V30 209 H 20.6933 -1.92587 -2.29892 0
M  V30 210 H 18.2463 -1.03217 -1.17371 0
M  V30 211 H 18.9813 0.480379 -3.20722 0
M  V30 212 H 18.7663 -1.216 -3.72768 0
M  V30 213 H 20.2563 -0.32675 -4.1632 0
M  V30 214 N 20.6934 1.19889 -1.02296 0
M  V30 215 C 21.9394 1.89701 -0.717033 0
M  V30 216 C 22.2724 1.7905 0.751989 0
M  V30 217 O 21.5474 1.17891 1.547 0
M  V30 218 C 21.8304 3.40858 -1.16136 0
M  V30 219 C 21.6834 3.60411 -2.69117 0
M  V30 220 C 23.0024 4.33876 -0.737549 0
M  V30 221 H 20.1214 0.688874 -0.261957 0
M  V30 222 H 22.7634 1.41154 -1.27183 0
M  V30 223 H 20.9134 3.82335 -0.689342 0
M  V30 224 H 22.5854 3.28145 -3.2422 0
M  V30 225 H 20.8284 3.03665 -3.0979 0
M  V30 226 H 21.4994 4.66396 -2.95261 0
M  V30 227 H 23.9754 4.00081 -1.14344 0
M  V30 228 H 22.8514 5.38242 -1.0764 0
M  V30 229 H 23.1124 4.40628 0.360436 0
M  V30 230 N 22.1715 0.800033 1.35784 0
M  V30 231 C 23.5825 0.439142 1.81462 0
M  V30 232 C 23.9335 -1.03813 1.66485 0
M  V30 233 O 23.0585 -1.80626 1.19177 0
M  V30 234 C 23.6535 0.790314 3.29453 0
M  V30 235 C 22.2125 0.482111 3.733 0
M  V30 236 C 21.3595 1.01938 2.57883 0
M  V30 237 H 24.3105 0.992254 1.23855 0
M  V30 238 H 24.3315 0.0853677 3.80404 0
M  V30 239 H 23.8435 1.86554 3.40322 0
M  V30 240 H 21.9445 -0.584652 3.67984 0
M  V30 241 H 22.0575 1.01015 4.6833 0
M  V30 242 H 20.4215 0.442043 2.50835 0
M  V30 243 H 21.2045 2.10059 2.71533 0
M  V30 244 N 23.6496 -1.47581 0.552962 0
M  V30 245 C 24.8776 -2.06875 0.0320556 0
M  V30 246 C 25.2926 -1.40625 -1.25976 0
M  V30 247 O 24.6496 -0.501349 -1.75479 0
M  V30 248 C 24.7006 -3.61092 -0.17167 0
M  V30 249 O 24.4216 -4.24858 1.06899 0
M  V30 250 C 25.9226 -4.37242 -0.730344 0
M  V30 251 H 23.1426 -0.669561 0.043915 0
M  V30 252 H 25.6866 -1.89646 0.765163 0
M  V30 253 H 23.8416 -3.7785 -0.854894 0
M  V30 254 H 24.2556 -5.17334 0.864059 0
M  V30 255 H 25.7296 -5.45842 -0.822203 0
M  V30 256 H 26.2066 -4.03235 -1.74064 0
M  V30 257 H 26.8126 -4.25219 -0.0829543 0
M  V30 258 N 25.1277 -0.289203 -1.54924 0
M  V30 259 C 26.3737 0.323998 -2.00195 0
M  V30 260 C 26.7067 1.54441 -1.17735 0
M  V30 261 O 25.9817 1.92875 -0.250878 0
M  V30 262 C 26.2647 0.692276 -3.53383 0
M  V30 263 C 26.1177 -0.536457 -4.46589 0
M  V30 264 C 27.4367 1.52335 -4.12895 0
M  V30 265 H 24.5557 0.116289 -0.727768 0
M  V30 266 H 27.1977 -0.398954 -1.85764 0
M  V30 267 H 25.3477 1.30822 -3.65811 0
M  V30 268 H 27.0197 -1.17499 -4.46085 0
M  V30 269 H 25.2627 -1.17192 -4.1767 0
M  V30 270 H 25.9337 -0.234806 -5.515 0
M  V30 271 H 28.4097 1.00302 -4.0383 0
M  V30 272 H 27.2857 1.74982 -5.20262 0
M  V30 273 H 27.5467 2.50886 -3.64018 0
M  V30 274 N 26.6058 1.57591 -0.0167156 0
M  V30 275 C 27.5358 2.12496 0.967858 0
M  V30 276 C 28.5168 1.03807 1.34752 0
M  V30 277 O 29.7018 1.31577 1.42833 0
M  V30 278 C 26.8318 2.64194 2.25431 0
M  V30 279 C 25.7858 3.77559 2.01576 0
M  V30 280 C 25.1118 4.15636 3.36379 0
M  V30 281 C 26.4118 5.04151 1.36489 0
M  V30 282 H 28.1058 2.95013 0.510643 0
M  V30 283 H 25.6518 1.41915 0.244181 0
M  V30 284 H 27.6048 3.01236 2.94678 0
M  V30 285 H 26.3288 1.78821 2.73296 0
M  V30 286 H 24.9878 3.40937 1.34751 0
M  V30 287 H 24.6358 3.27263 3.81979 0
M  V30 288 H 24.3358 4.92022 3.21229 0
M  V30 289 H 25.8598 4.5525 4.06915 0
M  V30 290 H 27.2738 5.38857 1.95718 0
M  V30 291 H 25.6708 5.85453 1.31776 0
M  V30 292 H 26.7408 4.83733 0.336219 0
M  V30 293 N 28.0839 -0.256276 1.55502 0
M  V30 294 C 29.3239 -0.993081 1.78654 0
M  V30 295 C 29.6879 -1.8288 0.584724 0
M  V30 296 O 30.8889 -2.59665 0.694822 0
M  V30 297 C 29.1599 -1.83856 3.06483 0
M  V30 298 S 30.7189 -2.63573 3.5082 0
M  V30 299 H 27.5369 -0.334199 0.62756 0
M  V30 300 H 30.1389 -0.26184 1.93739 0
M  V30 301 H 28.8429 -1.21414 3.92029 0
M  V30 302 H 28.3739 -2.61271 2.94111 0
M  V30 303 H 30.3889 -3.86312 3.11412 0
M  V30 304 N 29.562 -1.4872 -0.521534 0
M  V30 305 C 30.81 -1.56857 -1.27437 0
M  V30 306 C 31.131 -0.247982 -1.93417 0
M  V30 307 O 30.401 0.731151 -1.81744 0
M  V30 308 H 28.981 -0.577885 -0.473347 0
M  V30 309 H 31.643 -1.85233 -0.606205 0
M  V30 310 H 30.739 -2.35402 -2.0492 0
M  V30 311 N 31.0401 0.771051 -1.3745 0
M  V30 312 C 32.2681 1.56015 -1.35893 0
M  V30 313 C 32.6831 1.88718 0.0555523 0
M  V30 314 O 32.0401 1.51502 1.01752 0
M  V30 315 C 32.0911 2.87001 -2.19801 0
M  V30 316 O 31.8121 2.557 -3.55738 0
M  V30 317 C 33.3131 3.81228 -2.26231 0
M  V30 318 H 30.5331 0.483317 -0.465453 0
M  V30 319 H 33.0771 0.955611 -1.80799 0
M  V30 320 H 31.2321 3.43877 -1.78402 0
M  V30 321 H 31.6461 3.39584 -3.99729 0
M  V30 322 H 33.1201 4.70139 -2.89263 0
M  V30 323 H 33.5971 4.20409 -1.27093 0
M  V30 324 H 34.2031 3.30281 -2.67945 0
M  V30 325 N 32.5182 1.22032 0.997298 0
M  V30 326 C 33.7642 1.04376 1.73878 0
M  V30 327 C 34.0972 -0.420716 1.89588 0
M  V30 328 O 33.3722 -1.31202 1.43583 0
M  V30 329 C 33.6552 1.75047 3.14691 0
M  V30 330 C 33.5082 3.29062 3.06656 0
M  V30 331 C 34.8272 1.49928 4.13775 0
M  V30 332 H 31.9462 0.380578 0.631133 0
M  V30 333 H 34.5882 1.50312 1.16217 0
M  V30 334 H 32.7382 1.35996 3.63919 0
M  V30 335 H 34.4102 3.7753 2.65083 0
M  V30 336 H 32.6532 3.58967 2.43568 0
M  V30 337 H 33.3242 3.73683 4.06282 0
M  V30 338 H 35.8002 1.83842 3.73285 0
M  V30 339 H 34.6762 2.01878 5.10428 0
M  V30 340 H 34.9372 0.430929 4.39995 0
M  V30 341 N 33.9963 -1.19345 1.0293 0
M  V30 342 C 35.2433 -1.89038 0.726008 0
M  V30 343 C 35.5713 -1.79649 -0.745427 0
M  V30 344 O 34.8263 -1.18354 -1.55855 0
M  V30 345 C 35.1253 -3.39292 1.12319 0
M  V30 346 C 34.7913 -3.68885 2.59297 0
M  V30 347 C 33.4533 -3.76671 2.99453 0
M  V30 348 C 35.8053 -3.82178 3.54386 0
M  V30 349 C 33.1333 -3.9522 4.33611 0
M  V30 350 C 35.4853 -4.0224 4.88248 0
M  V30 351 C 34.1493 -4.08259 5.28092 0
M  V30 352 H 33.4193 -0.691739 0.265665 0
M  V30 353 H 36.0663 -1.41328 1.29223 0
M  V30 354 H 34.3713 -3.88903 0.475584 0
M  V30 355 H 36.0683 -3.91536 0.866037 0
M  V30 356 H 32.6583 -3.63433 2.27189 0
M  V30 357 H 36.8423 -3.75505 3.24514 0
M  V30 358 H 32.0983 -3.98119 4.64016 0
M  V30 359 H 36.2723 -4.11468 5.61843 0
M  V30 360 H 33.8993 -4.22384 6.32057 0
M  V30 361 N 35.4744 -0.807222 -1.35358 0
M  V30 362 C 36.7144 -0.393534 -2.00576 0
M  V30 363 C 37.0784 1.0203 -1.62647 0
M  V30 364 O 38.2794 1.53603 -2.20589 0
M  V30 365 C 36.5504 -0.572017 -3.52793 0
M  V30 366 S 38.1094 -0.248845 -4.38094 0
M  V30 367 H 34.9274 -0.149425 -0.695121 0
M  V30 368 H 37.5294 -1.04961 -1.64935 0
M  V30 369 H 36.2334 -1.60097 -3.77885 0
M  V30 370 H 35.7644 0.099359 -3.93275 0
M  V30 371 H 37.7794 0.943253 -4.87152 0
M  V30 372 N 36.9525 1.47285 -0.560781 0
M  V30 373 C 37.8995 2.30058 0.18491 0
M  V30 374 C 38.8695 1.39281 0.904986 0
M  V30 375 O 40.0545 1.68241 0.899979 0
M  V30 376 C 37.1945 3.23317 1.20666 0
M  V30 377 C 36.3075 4.29186 0.492285 0
M  V30 378 C 35.4425 5.09592 1.49964 0
M  V30 379 C 34.4815 6.07232 0.770439 0
M  V30 380 N 33.6185 6.80584 1.72479 0
M  V30 381 H 38.4585 2.93302 -0.527048 0
M  V30 382 H 35.9955 1.44568 -0.271738 0
M  V30 383 H 37.9535 3.75811 1.81168 0
M  V30 384 H 36.5835 2.61929 1.88661 0
M  V30 385 H 35.6355 3.7972 -0.227333 0
M  V30 386 H 36.9475 4.98738 -0.0787929 0
M  V30 387 H 36.1015 5.66254 2.17809 0
M  V30 388 H 34.8405 4.3995 2.10464 0
M  V30 389 H 33.8455 5.49745 0.0780846 0
M  V30 390 H 35.0705 6.78884 0.171134 0
M  V30 391 H 33.0165 6.1367 2.3183 0
M  V30 392 H 32.9335 7.46319 1.20596 0
M  V30 393 H 34.2015 7.41818 2.39428 0
M  V30 394 N 38.4306 0.297415 1.54768 0
M  V30 395 C 39.6606 -0.315165 2.04182 0
M  V30 396 C 40.0686 -1.4834 1.17439 0
M  V30 397 O 39.4116 -1.82695 0.191891 0
M  V30 398 C 39.4736 -0.837583 3.49607 0
M  V30 399 C 39.1376 0.204912 4.5654 0
M  V30 400 C 40.1346 1.03214 5.09552 0
M  V30 401 C 37.8196 0.345578 5.0111 0
M  V30 402 C 39.8136 1.986 6.05671 0
M  V30 403 C 37.5006 1.30289 5.97049 0
M  V30 404 C 38.4986 2.12159 6.49213 0
M  V30 405 O 38.1866 3.06268 7.43273 0
M  V30 406 H 37.9186 -0.0729646 0.672051 0
M  V30 407 H 40.4726 0.433907 2.00765 0
M  V30 408 H 38.7026 -1.63712 3.50336 0
M  V30 409 H 40.3916 -1.36566 3.82236 0
M  V30 410 H 41.1576 0.934312 4.75916 0
M  V30 411 H 37.0366 -0.28171 4.60138 0
M  V30 412 H 40.5806 2.62542 6.46311 0
M  V30 413 H 36.4776 1.40145 6.30103 0
M  V30 414 H 37.2456 3.01205 7.61064 0
M  V30 415 N 39.9087 -1.5758 0.0250728 0
M  V30 416 C 40.8557 -2.09973 -0.958129 0
M  V30 417 C 41.8257 -1.00085 -1.3256 0
M  V30 418 O 43.0107 -1.27481 -1.41962 0
M  V30 419 C 40.1507 -2.62812 -2.2366 0
M  V30 420 C 39.2637 -3.86693 -1.92594 0
M  V30 421 C 38.3987 -4.27941 -3.14707 0
M  V30 422 C 37.4377 -5.44591 -2.79442 0
M  V30 423 N 36.5747 -5.81014 -3.94167 0
M  V30 424 H 41.4147 -2.937 -0.504428 0
M  V30 425 H 38.9517 -1.45172 -0.237392 0
M  V30 426 H 40.9097 -2.91536 -2.98434 0
M  V30 427 H 39.5397 -1.81922 -2.66654 0
M  V30 428 H 38.5917 -3.64723 -1.0808 0
M  V30 429 H 39.9037 -4.71547 -1.62619 0
M  V30 430 H 39.0577 -4.58079 -3.97804 0
M  V30 431 H 37.7967 -3.41845 -3.4784 0
M  V30 432 H 36.8017 -5.1415 -1.94755 0
M  V30 433 H 38.0267 -6.32382 -2.47528 0
M  V30 434 H 35.9727 -4.97874 -4.2715 0
M  V30 435 H 35.8897 -6.60498 -3.67801 0
M  V30 436 H 37.1577 -6.15756 -4.7798 0
M  V30 437 N 41.3868 0.248026 -1.55636 0
M  V30 438 C 42.3338 1.30707 -1.90222 0
M  V30 439 C 43.3038 1.47881 -0.756332 0
M  V30 440 O 44.4888 1.61883 -1.00988 0
M  V30 441 C 41.6288 2.65769 -2.20138 0
M  V30 442 C 40.7418 2.56612 -3.47526 0
M  V30 443 C 39.8768 3.8402 -3.67017 0
M  V30 444 C 38.9158 3.69476 -4.8801 0
M  V30 445 N 38.0528 4.88774 -5.04029 0
M  V30 446 H 42.8928 1.00512 -2.80538 0
M  V30 447 H 40.4298 0.485055 -1.38873 0
M  V30 448 H 42.3878 3.44386 -2.35487 0
M  V30 449 H 41.0178 2.94115 -1.33027 0
M  V30 450 H 40.0698 1.69571 -3.40514 0
M  V30 451 H 41.3818 2.41774 -4.36287 0
M  V30 452 H 40.5358 4.7108 -3.8232 0
M  V30 453 H 39.2748 4.01754 -2.76487 0
M  V30 454 H 38.2798 2.80799 -4.72686 0
M  V30 455 H 39.5048 3.53238 -5.8 0
M  V30 456 H 37.4508 5.0687 -4.16435 0
M  V30 457 H 37.3678 4.76562 -5.86877 0
M  V30 458 H 38.6358 5.77335 -5.23741 0
M  V30 459 N 42.8649 1.48995 0.513639 0
M  V30 460 C 44.0899 1.61792 1.29762 0
M  V30 461 C 44.5149 0.284475 1.85936 0
M  V30 462 O 43.8729 -0.746185 1.65232 0
M  V30 463 C 43.9209 2.67993 2.41272 0
M  V30 464 O 43.0249 2.26287 3.44772 0
M  V30 465 H 42.3659 0.541963 0.38363 0
M  V30 466 H 44.8959 1.95097 0.616307 0
M  V30 467 H 44.9059 2.89772 2.87221 0
M  V30 468 H 43.5809 3.64791 1.9975 0
M  V30 469 H 42.1579 2.14788 3.04829 0
M  V30 470 N 44.343 -0.763751 1.37857 0
M  V30 471 C 45.568 -1.55805 1.36893 0
M  V30 472 C 45.993 -1.88054 -0.0416135 0
M  V30 473 O 45.351 -1.49825 -1.02089 0
M  V30 474 C 45.399 -2.84012 2.22192 0
M  V30 475 O 44.503 -3.78732 1.63204 0
M  V30 476 H 43.844 -0.471638 0.46739 0
M  V30 477 H 46.374 -0.944657 1.81487 0
M  V30 478 H 46.384 -3.33037 2.35691 0
M  V30 479 H 45.059 -2.59869 3.24716 0
M  V30 480 H 43.636 -3.37402 1.58791 0
M  V30 481 N 45.8211 -1.22559 -0.990812 0
M  V30 482 C 47.0691 -1.04933 -1.72724 0
M  V30 483 C 47.3901 0.416158 -1.90508 0
M  V30 484 O 46.6601 1.29918 -1.46622 0
M  V30 485 H 45.2401 -0.385296 -0.639965 0
M  V30 486 H 47.9021 -1.54105 -1.19322 0
M  V30 487 H 46.9981 -1.52886 -2.72089 0
M  V30 488 N 47.2992 1.18797 -1.03562 0
M  V30 489 C 48.2312 2.21731 -0.580337 0
M  V30 490 C 49.2442 1.59051 0.347349 0
M  V30 491 O 50.4332 1.77929 0.142669 0
M  V30 492 C 47.5332 3.38459 0.172805 0
M  V30 493 C 46.7062 4.3072 -0.761496 0
M  V30 494 C 45.7652 5.26174 -0.0525547 0
M  V30 495 O 44.7912 5.65108 -0.681333 0
M  V30 496 N 45.9932 5.67624 1.21586 0
M  V30 497 H 48.7582 2.61417 -1.46565 0
M  V30 498 H 46.3192 1.33531 -0.915476 0
M  V30 499 H 48.3112 3.99335 0.656793 0
M  V30 500 H 46.8812 2.97507 0.959602 0
M  V30 501 H 46.1012 3.67525 -1.42544 0
M  V30 502 H 47.3892 4.89267 -1.39626 0
M  V30 503 H 46.7872 5.38038 1.74732 0
M  V30 504 H 45.3442 6.30721 1.64421 0
M  V30 505 N 48.7773 0.814389 1.34928 0
M  V30 506 C 49.7073 0.244827 2.32213 0
M  V30 507 C 50.6883 -0.634024 1.57842 0
M  V30 508 O 51.8733 -0.562676 1.8587 0
M  V30 509 C 49.0033 -0.601106 3.42058 0
M  V30 510 C 47.9573 0.179896 4.27622 0
M  V30 511 C 47.2833 -0.788237 5.28858 0
M  V30 512 C 48.5833 1.38329 5.03649 0
M  V30 513 H 50.2773 1.05763 2.80097 0
M  V30 514 H 47.8233 0.510029 1.34665 0
M  V30 515 H 49.7763 -1.00968 4.09125 0
M  V30 516 H 48.5003 -1.44688 2.92802 0
M  V30 517 H 47.1593 0.569739 3.62146 0
M  V30 518 H 46.8073 -1.62973 4.75866 0
M  V30 519 H 46.5073 -0.269942 5.8698 0
M  V30 520 H 48.0313 -1.19485 5.98795 0
M  V30 521 H 49.4453 1.04918 5.63618 0
M  V30 522 H 47.8423 1.83662 5.71304 0
M  V30 523 H 48.9123 2.16592 4.33839 0
M  V30 524 N 50.2554 -1.46986 0.568584 0
M  V30 525 C 51.5014 -2.0332 0.0571487 0
M  V30 526 C 51.8564 -1.43384 -1.28291 0
M  V30 527 O 51.1494 -0.584304 -1.82473 0
M  V30 528 C 51.3434 -3.57306 -0.081836 0
M  V30 529 C 51.1724 -4.32174 1.24321 0
M  V30 530 C 49.9424 -4.71633 1.81358 0
M  V30 531 C 52.1404 -4.66598 2.16312 0
M  V30 532 N 50.1224 -5.31191 3.07748 0
M  V30 533 C 51.4934 -5.26578 3.27285 0
M  V30 534 C 53.5484 -4.48527 2.16166 0
M  V30 535 C 52.2514 -5.70395 4.38226 0
M  V30 536 C 54.2774 -4.93351 3.26127 0
M  V30 537 C 53.6394 -5.5339 4.3582 0
M  V30 538 H 49.7384 -0.77943 0.063351 0
M  V30 539 H 52.3224 -1.79323 0.758378 0
M  V30 540 H 50.4934 -3.81046 -0.752207 0
M  V30 541 H 52.2254 -4.00282 -0.59637 0
M  V30 542 H 48.9804 -4.53946 1.35019 0
M  V30 543 H 49.4044 -5.65505 3.72201 0
M  V30 544 H 54.0464 -4.01456 1.32638 0
M  V30 545 H 51.7644 -6.16452 5.22506 0
M  V30 546 H 55.3504 -4.81131 3.27115 0
M  V30 547 H 54.2304 -5.87441 5.19503 0
M  V30 548 N 51.7335 -0.305618 -1.54608 0
M  V30 549 C 52.9585 0.307562 -2.05107 0
M  V30 550 C 53.3835 1.46385 -1.18123 0
M  V30 551 O 52.7415 1.8034 -0.186324 0
M  V30 552 C 52.7895 0.73704 -3.52987 0
M  V30 553 O 51.8935 1.84134 -3.6901 0
M  V30 554 H 51.2345 0.0589143 -0.661381 0
M  V30 555 H 53.7645 -0.448807 -1.99617 0
M  V30 556 H 53.7745 1.02459 -3.94925 0
M  V30 557 H 52.4495 -0.108773 -4.15758 0
M  V30 558 H 51.0265 1.55398 -3.38978 0
M  V30 559 N 53.2116 1.57565 -0.0334293 0
M  V30 560 C 54.4576 1.93088 0.639417 0
M  V30 561 C 54.8126 0.910589 1.69488 0
M  V30 562 O 54.1056 -0.0727725 1.91462 0
M  V30 563 C 54.2996 3.33112 1.29504 0
M  V30 564 C 54.1286 4.48667 0.304604 0
M  V30 565 C 52.8986 5.05207 -0.0970777 0
M  V30 566 C 55.0966 5.1239 -0.442845 0
M  V30 567 N 53.0786 6.04286 -1.08223 0
M  V30 568 C 54.4496 6.06609 -1.28161 0
M  V30 569 C 56.5046 4.95352 -0.50308 0
M  V30 570 C 55.2076 6.85622 -2.17519 0
M  V30 571 C 57.2336 5.74978 -1.38401 0
M  V30 572 C 56.5956 6.68816 -2.21054 0
M  V30 573 H 52.6946 0.754335 0.206161 0
M  V30 574 H 55.2786 1.94435 -0.101613 0
M  V30 575 H 53.4496 3.32576 2.00618 0
M  V30 576 H 55.1816 3.55972 1.92525 0
M  V30 577 H 51.9366 4.72782 0.278255 0
M  V30 578 H 52.3606 6.58516 -1.57117 0
M  V30 579 H 57.0026 4.22625 0.121694 0
M  V30 580 H 54.7206 7.57652 -2.81049 0
M  V30 581 H 58.3066 5.63826 -1.43496 0
M  V30 582 H 57.1866 7.29355 -2.88116 0
M  V30 583 N 54.6897 -0.239769 1.55765 0
M  V30 584 C 55.6227 -1.32356 1.85895 0
M  V30 585 C 56.6007 -1.46053 0.714662 0
M  V30 586 O 57.7847 -1.62154 0.961157 0
M  V30 587 C 54.9117 -2.6962 2.04994 0
M  V30 588 C 53.9577 -2.73036 3.27648 0
M  V30 589 S 54.7907 -2.28929 4.84099 0
M  V30 590 C 55.9467 -3.68103 5.06212 0
M  V30 591 H 56.1797 -1.06601 2.77531 0
M  V30 592 H 53.7127 -0.441112 1.47965 0
M  V30 593 H 55.6707 -3.48653 2.16682 0
M  V30 594 H 54.3317 -2.92609 1.14188 0
M  V30 595 H 53.5247 -3.7386 3.38 0
M  V30 596 H 53.1267 -2.02052 3.14723 0
M  V30 597 H 55.4187 -4.63656 4.93993 0
M  V30 598 H 56.3617 -3.6268 6.08168 0
M  V30 599 H 56.7697 -3.60947 4.34025 0
M  V30 600 N 56.1678 -1.49265 -0.50573 0
M  V30 601 C 57.4138 -1.58748 -1.26202 0
M  V30 602 C 57.7468 -0.271227 -1.92297 0
M  V30 603 O 57.0218 0.724831 -1.80489 0
M  V30 604 C 57.3048 -2.74332 -2.33268 0
M  V30 605 C 57.1578 -4.15737 -1.71705 0
M  V30 606 C 58.4768 -2.85576 -3.34865 0
M  V30 607 H 55.5958 -0.577826 -0.457478 0
M  V30 608 H 58.2378 -1.81532 -0.560897 0
M  V30 609 H 56.3878 -2.55036 -2.93068 0
M  V30 610 H 58.0598 -4.46537 -1.15769 0
M  V30 611 H 56.3028 -4.21605 -1.02135 0
M  V30 612 H 56.9738 -4.92477 -2.49341 0
M  V30 613 H 59.4498 -3.03127 -2.8505 0
M  V30 614 H 58.3258 -3.68135 -4.07146 0
M  V30 615 H 58.5868 -1.94732 -3.96903 0
M  V30 616 N 57.6459 0.756429 -1.3826 0
M  V30 617 C 58.8859 1.52833 -1.35725 0
M  V30 618 C 59.2499 1.91926 0.0534106 0
M  V30 619 O 60.4509 2.68028 0.203613 0
M  V30 620 C 58.7219 2.74919 -2.28373 0
M  V30 621 S 60.2809 3.64817 -2.43832 0
M  V30 622 H 57.0989 0.523043 -0.481608 0
M  V30 623 H 59.7009 0.888212 -1.74158 0
M  V30 624 H 58.4049 2.44304 -3.29763 0
M  V30 625 H 57.9359 3.43878 -1.91079 0
M  V30 626 H 59.9509 4.676 -1.66027 0
M  V30 627 N 59.124 1.23083 0.984299 0
M  V30 628 C 60.054 1.03292 2.09411 0
M  V30 629 C 61.035 -0.048923 1.7003 0
M  V30 630 O 62.22 0.114967 1.93859 0
M  V30 631 C 59.35 0.619155 3.41736 0
M  V30 632 C 58.304 1.64791 3.95004 0
M  V30 633 C 57.63 1.0897 5.23478 0
M  V30 634 C 58.93 3.03999 4.24714 0
M  V30 635 H 60.624 1.96119 2.26225 0
M  V30 636 H 58.17 0.944344 1.08711 0
M  V30 637 H 60.123 0.467777 4.18796 0
M  V30 638 H 58.847 -0.344786 3.24775 0
M  V30 639 H 57.506 1.78721 3.20085 0
M  V30 640 H 57.154 0.11686 5.02864 0
M  V30 641 H 56.854 1.77704 5.60085 0
M  V30 642 H 58.378 0.950093 6.03163 0
M  V30 643 H 59.792 2.93393 4.92538 0
M  V30 644 H 58.189 3.69936 4.72512 0
M  V30 645 H 59.259 3.53285 3.32142 0
M  V30 646 N 60.6021 -1.18246 1.0419 0
M  V30 647 C 61.5651 -2.20128 0.638452 0
M  V30 648 C 62.5651 -1.57885 -0.304805 0
M  V30 649 O 63.7551 -1.73967 -0.0900369 0
M  V30 650 C 60.8871 -3.4084 -0.0637751 0
M  V30 651 H 62.0801 -2.57336 1.54007 0
M  V30 652 H 59.6331 -1.32152 0.834598 0
M  V30 653 H 60.3681 -3.09166 -0.979136 0
M  V30 654 H 60.1531 -3.8726 0.614198 0
M  V30 655 H 61.6431 -4.16274 -0.332512 0
M  V30 656 N 62.0802 -0.821533 -1.34494 0
M  V30 657 C 63.3282 -0.408139 -1.97936 0
M  V30 658 C 63.6492 1.03193 -1.65457 0
M  V30 659 O 62.9192 1.71622 -0.944595 0
M  V30 660 H 61.4992 -0.147928 -0.732206 0
M  V30 661 H 64.1612 -1.05067 -1.64155 0
M  V30 662 H 63.2572 -0.52601 -3.07635 0
M  V30 663 N 63.5583 1.46682 -0.576371 0
M  V30 664 C 64.4883 2.33028 0.148397 0
M  V30 665 C 65.4693 1.44961 0.889956 0
M  V30 666 O 66.6543 1.73789 0.866662 0
M  V30 667 C 63.7843 3.27117 1.1667 0
M  V30 668 C 62.7383 4.24575 0.540386 0
M  V30 669 C 62.0643 5.08126 1.6647 0
M  V30 670 C 63.3643 5.19722 -0.518331 0
M  V30 671 H 65.0583 2.93875 -0.572509 0
M  V30 672 H 62.6043 1.41315 -0.276768 0
M  V30 673 H 64.5573 3.86374 1.68204 0
M  V30 674 H 63.2813 2.64364 1.9178 0
M  V30 675 H 61.9403 3.66571 0.0461769 0
M  V30 676 H 61.5883 4.41762 2.40531 0
M  V30 677 H 61.2883 5.74122 1.25131 0
M  V30 678 H 62.8123 5.70246 2.18293 0
M  V30 679 H 64.2263 5.73232 -0.0883058 0
M  V30 680 H 62.6233 5.94026 -0.851679 0
M  V30 681 H 63.6933 4.64037 -1.40703 0
M  V30 682 N 65.0364 0.313813 1.54444 0
M  V30 683 C 66.2764 -0.292389 2.02298 0
M  V30 684 C 66.6404 -1.50105 1.19719 0
M  V30 685 O 67.8414 -2.17947 1.5733 0
M  V30 686 C 66.1124 -0.627682 3.51845 0
M  V30 687 S 67.6714 -1.21493 4.21646 0
M  V30 688 H 64.4894 -0.0890247 0.705405 0
M  V30 689 H 67.0914 0.444668 1.90376 0
M  V30 690 H 65.7954 0.260265 4.09574 0
M  V30 691 H 65.3264 -1.39519 3.67829 0
M  V30 692 H 67.3414 -2.5022 4.28491 0
M  V30 693 N 66.5145 -1.57545 0.0417849 0
M  V30 694 C 67.4775 -2.09885 -0.92093 0
M  V30 695 C 68.4775 -1.01648 -1.24596 0
M  V30 696 O 69.6675 -1.27759 -1.1842 0
M  V30 697 C 66.7995 -2.57527 -2.23367 0
M  V30 698 H 67.9925 -2.96236 -0.467382 0
M  V30 699 H 65.5455 -1.5493 -0.206467 0
M  V30 700 H 66.2805 -1.74542 -2.73323 0
M  V30 701 H 66.0655 -3.36613 -2.01083 0
M  V30 702 H 67.5555 -2.98201 -2.92346 0
M  V30 703 N 67.9926 0.231505 -1.5589 0
M  V30 704 C 69.2386 0.95877 -1.78705 0
M  V30 705 C 69.5716 1.8438 -0.609725 0
M  V30 706 O 68.8466 1.90521 0.391426 0
M  V30 707 C 69.1296 1.8062 -3.11526 0
M  V30 708 C 68.9826 0.948328 -4.39689 0
M  V30 709 C 70.3016 2.78585 -3.40703 0
M  V30 710 H 67.4206 0.347129 -0.650131 0
M  V30 711 H 70.0626 0.228259 -1.88624 0
M  V30 712 H 68.2126 2.42902 -3.03201 0
M  V30 713 H 69.8846 0.343016 -4.60023 0
M  V30 714 H 68.1276 0.253314 -4.3306 0
M  V30 715 H 68.7986 1.57543 -5.29041 0
M  V30 716 H 71.2746 2.26439 -3.49091 0
M  V30 717 H 70.1506 3.34988 -4.34826 0
M  V30 718 H 70.4116 3.55825 -2.62375 0
M  V30 719 N 69.4707 1.49531 0.497807 0
M  V30 720 C 70.7107 1.60799 1.26187 0
M  V30 721 C 71.0747 0.289627 1.89803 0
M  V30 722 O 72.2757 0.277512 2.67364 0
M  V30 723 C 70.5467 2.73729 2.29798 0
M  V30 724 S 72.1057 3.04968 3.155 0
M  V30 725 H 68.9237 0.567145 0.428798 0
M  V30 726 H 71.5257 1.87204 0.563477 0
M  V30 727 H 70.2297 3.68036 1.81597 0
M  V30 728 H 69.7607 2.49328 3.04301 0
M  V30 729 H 71.7757 2.46735 4.30507 0
M  V30 730 N 70.9488 -0.749086 1.3866 0
M  V30 731 C 71.8788 -1.8764 1.38973 0
M  V30 732 C 72.8598 -1.68178 0.255004 0
M  V30 733 O 74.0448 -1.88704 0.458754 0
M  V30 734 C 71.1748 -3.25222 1.21851 0
M  V30 735 C 70.1288 -3.59295 2.32575 0
M  V30 736 C 69.4548 -4.95663 2.00555 0
M  V30 737 C 70.7548 -3.63709 3.7485 0
M  V30 738 H 72.4488 -1.87635 2.3331 0
M  V30 739 H 69.9948 -0.901329 1.12303 0
M  V30 740 H 71.9478 -4.03746 1.20695 0
M  V30 741 H 70.6718 -3.25719 0.239775 0
M  V30 742 H 69.3308 -2.83093 2.32925 0
M  V30 743 H 68.9788 -4.92724 1.01154 0
M  V30 744 H 68.6788 -5.19429 2.74714 0
M  V30 745 H 70.2028 -5.7656 2.01024 0
M  V30 746 H 71.6168 -4.32338 3.76506 0
M  V30 747 H 70.0138 -3.98986 4.48252 0
M  V30 748 H 71.0838 -2.63834 4.06841 0
M  V30 749 N 72.4269 -1.23603 -0.977757 0
M  V30 750 C 73.3569 -1.04401 -2.0886 0
M  V30 751 C 74.3379 0.0399052 -1.70053 0
M  V30 752 O 75.5229 -0.125246 -1.93796 0
M  V30 753 C 72.6529 -0.637269 -3.41403 0
M  V30 754 C 71.6069 -1.66883 -3.94124 0
M  V30 755 C 70.9329 -1.11745 -5.22893 0
M  V30 756 C 72.2329 -3.06247 -4.23096 0
M  V30 757 H 73.9269 -1.97316 -2.25182 0
M  V30 758 H 71.4729 -0.950096 -1.08209 0
M  V30 759 H 73.4259 -0.48998 -4.18542 0
M  V30 760 H 72.1499 0.327557 -3.24953 0
M  V30 761 H 70.8089 -1.80416 -3.19133 0
M  V30 762 H 70.4569 -0.143527 -5.02795 0
M  V30 763 H 70.1569 -1.80672 -5.59134 0
M  V30 764 H 71.6809 -0.982067 -6.02651 0
M  V30 765 H 73.0949 -2.96001 -4.90975 0
M  V30 766 H 71.4919 -3.72436 -4.70544 0
M  V30 767 H 72.5619 -3.55041 -3.30263 0
M  V30 768 N 73.905 1.17692 -1.04816 0
M  V30 769 C 75.154 1.87192 -0.751132 0
M  V30 770 C 75.467 1.8169 0.724441 0
M  V30 771 O 76.673 2.46625 1.13527 0
M  V30 772 C 75.129 3.35857 -1.29338 0
M  V30 773 C 74.737 3.4987 -2.79812 0
M  V30 774 C 76.481 4.10709 -1.07322 0
M  V30 775 C 74.388 4.92536 -3.27356 0
M  V30 776 H 73.318 0.701162 -0.277288 0
M  V30 777 H 75.969 1.32932 -1.26496 0
M  V30 778 H 74.351 3.89631 -0.707376 0
M  V30 779 H 75.525 3.06332 -3.44235 0
M  V30 780 H 73.84 2.88433 -3.00325 0
M  V30 781 H 76.437 5.15952 -1.4035 0
M  V30 782 H 76.78 4.16299 -0.0108001 0
M  V30 783 H 77.313 3.6313 -1.62423 0
M  V30 784 H 74.052 4.92119 -4.33012 0
M  V30 785 H 73.572 5.3676 -2.67673 0
M  V30 786 H 75.251 5.61288 -3.21815 0
M  V30 787 N 75.3831 0.828654 1.34056 0
M  V30 788 C 76.3131 0.269443 2.3194 0
M  V30 789 C 77.2941 -0.617247 1.58506 0
M  V30 790 O 78.4791 -0.542931 1.86456 0
M  V30 791 C 75.6091 -0.564793 3.42677 0
M  V30 792 C 74.5631 0.225241 4.27407 0
M  V30 793 C 73.8891 -0.7321 5.29664 0
M  V30 794 C 75.1891 1.43663 5.02154 0
M  V30 795 H 76.8831 1.08728 2.7896 0
M  V30 796 H 74.4291 0.524283 1.34117 0
M  V30 797 H 76.3821 -0.966233 4.10173 0
M  V30 798 H 75.1061 -1.41574 2.9432 0
M  V30 799 H 73.7651 0.608117 3.61521 0
M  V30 800 H 73.4131 -1.57916 4.77568 0
M  V30 801 H 73.1131 -0.20767 5.87233 0
M  V30 802 H 74.6371 -1.13128 6.00029 0
M  V30 803 H 76.0511 1.1089 5.62473 0
M  V30 804 H 74.4481 1.89711 5.69324 0
M  V30 805 H 75.5181 2.21181 4.31517 0
M  V30 806 N 76.8612 -1.46375 0.584142 0
M  V30 807 C 78.0862 -2.07268 0.0740405 0
M  V30 808 C 78.5112 -1.42979 -1.22223 0
M  V30 809 O 77.8692 -0.514092 -1.73859 0
M  V30 810 C 77.9172 -3.60518 -0.0767769 0
M  V30 811 O 77.0212 -3.96533 -1.13292 0
M  V30 812 H 76.3622 -0.660961 0.0634524 0
M  V30 813 H 78.8922 -1.87991 0.807492 0
M  V30 814 H 78.9022 -4.07021 -0.282489 0
M  V30 815 H 77.5772 -4.06702 0.86986 0
M  V30 816 H 76.1542 -3.61738 -0.905553 0
M  V30 817 N 78.3393 -0.321999 -1.54275 0
M  V30 818 C 79.7503 0.166384 -1.85957 0
M  V30 819 C 80.1013 1.51747 -1.24367 0
M  V30 820 O 79.2263 2.09317 -0.549124 0
M  V30 821 C 79.8213 0.308681 -3.37391 0
M  V30 822 C 78.3803 0.741286 -3.69028 0
M  V30 823 C 77.5273 -0.137937 -2.76957 0
M  V30 824 H 80.4783 -0.542335 -1.49146 0
M  V30 825 H 80.4993 1.13984 -3.63026 0
M  V30 826 H 80.0113 -0.674809 -3.82188 0
M  V30 827 H 78.1123 1.73458 -3.29762 0
M  V30 828 H 78.2253 0.546118 -4.75977 0
M  V30 829 H 76.5893 0.386251 -2.51754 0
M  V30 830 H 77.3723 -1.11816 -3.2458 0
M  V30 831 N 79.8174 1.5752 -0.0501392 0
M  V30 832 C 81.0644 1.9265 0.623874 0
M  V30 833 C 81.3924 0.928411 1.70912 0
M  V30 834 O 80.6474 -0.0594525 1.9561 0
M  V30 835 C 80.9464 3.34467 1.25963 0
M  V30 836 C 80.6124 4.49883 0.302689 0
M  V30 837 C 79.2744 4.81184 0.0393636 0
M  V30 838 C 81.6264 5.20002 -0.353205 0
M  V30 839 C 78.9544 5.79951 -0.887308 0
M  V30 840 C 81.3064 6.1976 -1.26806 0
M  V30 841 C 79.9704 6.49491 -1.54007 0
M  V30 842 H 79.2404 0.704957 0.228292 0
M  V30 843 H 81.8874 1.91146 -0.116398 0
M  V30 844 H 80.1924 3.32333 2.07514 0
M  V30 845 H 81.8894 3.58928 1.78806 0
M  V30 846 H 78.4794 4.25457 0.518109 0
M  V30 847 H 82.6634 4.96033 -0.162854 0
M  V30 848 H 77.9194 6.01322 -1.10553 0
M  V30 849 H 82.0934 6.73205 -1.78236 0
M  V30 850 H 79.7204 7.25837 -2.25976 0
M  V30 851 N 81.2955 -0.223234 1.56011 0
M  V30 852 C 82.5415 -0.944891 1.8012 0
M  V30 853 C 82.8965 -1.82039 0.622862 0
M  V30 854 O 82.1895 -1.8773 -0.383143 0
M  V30 855 C 82.3835 -1.81948 3.0762 0
M  V30 856 C 82.2125 -1.03014 4.37742 0
M  V30 857 C 80.9825 -0.72574 5.00061 0
M  V30 858 C 83.1805 -0.396256 5.12771 0
M  V30 859 N 81.1625 0.0851816 6.13841 0
M  V30 860 C 82.5335 0.278137 6.19376 0
M  V30 861 C 84.5885 -0.309117 4.9694 0
M  V30 862 C 83.2915 1.03133 7.11868 0
M  V30 863 C 85.3175 0.430607 5.8983 0
M  V30 864 C 84.6795 1.09355 6.9586 0
M  V30 865 H 80.7785 -0.326081 0.710771 0
M  V30 866 H 83.3625 -0.215914 1.93499 0
M  V30 867 H 81.5335 -2.52029 2.95527 0
M  V30 868 H 83.2655 -2.47848 3.19927 0
M  V30 869 H 80.0205 -1.04335 4.61964 0
M  V30 870 H 80.4445 0.479428 6.753 0
M  V30 871 H 85.0865 -0.807313 4.15021 0
M  V30 872 H 82.8045 1.54105 7.9327 0
M  V30 873 H 86.3905 0.499012 5.79656 0
M  V30 874 H 85.2705 1.65679 7.66499 0
M  V30 875 N 82.7736 -1.49793 -0.48987 0
M  V30 876 C 84.0216 -1.59525 -1.24081 0
M  V30 877 C 84.3426 -0.288953 -1.92847 0
M  V30 878 O 83.6126 0.692436 -1.83254 0
M  V30 879 H 82.1926 -0.587796 -0.460983 0
M  V30 880 H 84.8546 -1.86477 -0.566778 0
M  V30 881 H 83.9506 -2.39696 -1.99881 0
M  V30 882 N 84.2517 0.741722 -1.39055 0
M  V30 883 C 85.1817 1.869 -1.39966 0
M  V30 884 C 86.1627 1.6804 -0.26392 0
M  V30 885 O 87.3477 1.88458 -0.468755 0
M  V30 886 C 84.4777 3.24572 -1.23574 0
M  V30 887 C 83.4317 3.58056 -2.34477 0
M  V30 888 C 82.7577 4.94593 -2.0318 0
M  V30 889 C 84.0577 3.61716 -3.76774 0
M  V30 890 H 85.7517 1.86395 -2.34302 0
M  V30 891 H 83.2977 0.895361 -1.1278 0
M  V30 892 H 85.2507 4.031 -1.22834 0
M  V30 893 H 83.9747 3.25587 -0.257045 0
M  V30 894 H 82.6337 2.81854 -2.34423 0
M  V30 895 H 82.2817 4.92181 -1.03765 0
M  V30 896 H 81.9817 5.17964 -2.77465 0
M  V30 897 H 83.5057 5.75486 -2.04079 0
M  V30 898 H 84.9197 4.30335 -3.78794 0
M  V30 899 H 83.3167 3.96603 -4.50362 0
M  V30 900 H 84.3867 2.61672 -4.08235 0
M  V30 901 N 85.7298 1.2412 0.971189 0
M  V30 902 C 86.9788 1.07284 1.70801 0
M  V30 903 C 87.2918 -0.388902 1.91695 0
M  V30 904 O 88.4978 -0.677379 2.62914 0
M  V30 905 C 86.9538 1.87145 3.07416 0
M  V30 906 C 86.5618 3.37707 2.94377 0
M  V30 907 C 88.3058 1.78828 3.84995 0
M  V30 908 C 86.2128 4.09925 4.26281 0
M  V30 909 H 85.1428 0.397854 0.64049 0
M  V30 910 H 87.7938 1.4817 1.0825 0
M  V30 911 H 86.1758 1.39071 3.70777 0
M  V30 912 H 87.3498 3.93335 2.4005 0
M  V30 913 H 85.6648 3.46938 2.30267 0
M  V30 914 H 88.2618 2.30089 4.82662 0
M  V30 915 H 88.6048 0.75284 4.09436 0
M  V30 916 H 89.1378 2.24563 3.28354 0
M  V30 917 H 85.8768 5.13813 4.07033 0
M  V30 918 H 85.3968 3.59083 4.80437 0
M  V30 919 H 87.0758 4.1673 4.94919 0
M  V30 920 N 87.2079 -1.17134 1.05439 0
M  V30 921 C 88.1379 -2.2342 0.678649 0
M  V30 922 C 89.1189 -1.66971 -0.32476 0
M  V30 923 O 90.3039 -1.93149 -0.201802 0
M  V30 924 C 87.4339 -3.47256 0.0552099 0
M  V30 925 C 86.3879 -4.16543 0.98365 0
M  V30 926 C 85.7139 -5.34231 0.223961 0
M  V30 927 C 87.0139 -4.68495 2.3089 0
M  V30 928 H 88.7079 -2.55105 1.56722 0
M  V30 929 H 86.2539 -1.2262 0.754998 0
M  V30 930 H 88.2069 -4.20828 -0.21946 0
M  V30 931 H 86.9309 -3.14846 -0.868319 0
M  V30 932 H 85.5899 -3.44887 1.24293 0
M  V30 933 H 85.2379 -4.98071 -0.702412 0
M  V30 934 H 84.9379 -5.81527 0.842627 0
M  V30 935 H 86.4619 -6.10585 -0.0433671 0
M  V30 936 H 87.8759 -5.33691 2.09396 0
M  V30 937 H 86.2729 -5.26379 2.88176 0
M  V30 938 H 87.3429 -3.85169 2.94572 0
M  V30 939 N 88.686 -0.835752 -1.33615 0
M  V30 940 C 89.933 -0.429959 -1.97883 0
M  V30 941 C 90.261 1.01006 -1.66217 0
M  V30 942 O 89.516 1.72047 -0.93265 0
M  V30 943 C 89.815 -0.593925 -3.52431 0
M  V30 944 C 89.481 -2.00158 -4.04039 0
M  V30 945 C 88.143 -2.38662 -4.17844 0
M  V30 946 C 90.495 -2.92117 -4.31644 0
M  V30 947 C 87.823 -3.68435 -4.56588 0
M  V30 948 C 90.175 -4.21368 -4.71838 0
M  V30 949 C 88.839 -4.59833 -4.83849 0
M  V30 950 H 88.109 -0.157333 -0.724104 0
M  V30 951 H 90.756 -1.06217 -1.59343 0
M  V30 952 H 89.061 0.121619 -3.91611 0
M  V30 953 H 90.758 -0.260282 -4.00154 0
M  V30 954 H 87.348 -1.69252 -3.93766 0
M  V30 955 H 91.532 -2.63608 -4.20505 0
M  V30 956 H 86.788 -3.98046 -4.64079 0
M  V30 957 H 90.962 -4.92703 -4.92155 0
M  V30 958 H 88.589 -5.60438 -5.13627 0
M  V30 959 N 90.1641 1.46063 -0.591896 0
M  V30 960 C 91.3891 2.07226 -0.0850314 0
M  V30 961 C 91.8141 1.43625 1.21463 0
M  V30 962 O 91.1721 0.523305 1.73583 0
M  V30 963 C 91.2201 3.60554 0.0576567 0
M  V30 964 O 90.3241 3.97128 1.11188 0
M  V30 965 H 89.6651 0.660615 -0.0669568 0
M  V30 966 H 92.1951 1.8756 -0.81745 0
M  V30 967 H 92.2051 4.07165 0.2609 0
M  V30 968 H 90.8801 4.06235 -0.891416 0
M  V30 969 H 89.4571 3.62213 0.886356 0
M  V30 970 N 91.6422 0.330177 1.54103 0
M  V30 971 C 92.8882 -0.270806 2.00984 0
M  V30 972 C 93.2212 -1.51265 1.21789 0
M  V30 973 O 92.4962 -1.92142 0.301927 0
M  V30 974 C 92.7792 -0.598339 3.55094 0
M  V30 975 C 92.6322 0.654674 4.4501 0
M  V30 976 C 93.9512 -1.41334 4.16789 0
M  V30 977 H 91.0702 -0.0969531 0.730595 0
M  V30 978 H 93.7122 0.448066 1.84641 0
M  V30 979 H 91.8622 -1.21078 3.69151 0
M  V30 980 H 93.5342 1.29285 4.42813 0
M  V30 981 H 91.7772 1.28224 4.14416 0
M  V30 982 H 92.4482 0.380944 5.50684 0
M  V30 983 H 94.9242 -0.895597 4.06347 0
M  V30 984 H 93.8002 -1.61127 5.24718 0
M  V30 985 H 94.0612 -2.41146 3.70541 0
M  V30 986 N 93.1203 -1.57491 0.0584922 0
M  V30 987 C 94.3453 -1.97711 -0.62652 0
M  V30 988 C 94.7703 -0.936132 -1.63151 0
M  V30 989 O 94.1283 0.099811 -1.81025 0
M  V30 990 C 94.1763 -3.36989 -1.28338 0
M  V30 991 O 93.2803 -3.35433 -2.39913 0
M  V30 992 H 92.6213 -0.643868 -0.162266 0
M  V30 993 H 95.1513 -2.04193 0.129064 0
M  V30 994 H 95.1613 -3.73879 -1.63335 0
M  V30 995 H 93.8363 -4.12289 -0.546889 0
M  V30 996 H 92.4133 -3.10298 -2.06809 0
M  V30 997 N 94.5984 0.214957 -1.56127 0
M  V30 998 C 95.8384 0.945364 -1.81224 0
M  V30 999 C 96.2024 1.81265 -0.633005 0
M  V30 1000 O 97.4034 2.57731 -0.763423 0
M  V30 1001 C 95.6744 1.75665 -3.1125 0
M  V30 1002 S 97.2334 2.54179 -3.57685 0
M  V30 1003 H 94.0514 0.317443 -0.6362 0
M  V30 1004 H 96.6534 0.210381 -1.94365 0
M  V30 1005 H 95.3574 1.10977 -3.9511 0
M  V30 1006 H 94.8884 2.53381 -3.00934 0
M  V30 1007 H 96.9034 3.7792 -3.21545 0
M  V30 1008 N 96.0765 1.50051 0.48192 0
M  V30 1009 C 97.3235 1.60498 1.23477 0
M  V30 1010 C 97.6515 0.300331 1.92167 0
M  V30 1011 O 96.9065 -0.713094 1.82246 0
M  V30 1012 C 97.2055 2.72717 2.30998 0
M  V30 1013 C 96.8715 4.13572 1.79636 0
M  V30 1014 C 95.5335 4.519 1.65348 0
M  V30 1015 C 97.8855 5.01649 1.41412 0
M  V30 1016 C 95.2135 5.76057 1.11244 0
M  V30 1017 C 97.5655 6.26343 0.887538 0
M  V30 1018 C 96.2295 6.63483 0.731207 0
M  V30 1019 H 95.4995 0.587303 0.451836 0
M  V30 1020 H 98.1465 1.83948 0.532468 0
M  V30 1021 H 96.4515 2.43312 3.07094 0
M  V30 1022 H 98.1485 2.78006 2.88988 0
M  V30 1023 H 94.7385 3.83329 1.91721 0
M  V30 1024 H 98.9225 4.72679 1.51289 0
M  V30 1025 H 94.1785 6.03516 0.978686 0
M  V30 1026 H 98.3525 6.93958 0.582654 0
M  V30 1027 H 95.9795 7.59568 0.309806 0
M  V30 1028 N 97.5546 -0.734337 1.39446 0
M  V30 1029 C 98.4846 -1.86155 1.40955 0
M  V30 1030 C 99.4656 -1.67898 0.272827 0
M  V30 1031 O 100.651 -1.88207 0.478743 0
M  V30 1032 C 97.7806 -3.23912 1.25294 0
M  V30 1033 C 96.7346 -3.56808 2.36373 0
M  V30 1034 C 96.0606 -4.93508 2.058 0
M  V30 1035 C 97.3606 -3.59713 3.78687 0
M  V30 1036 H 99.0546 -1.8515 2.35287 0
M  V30 1037 H 96.6006 -0.889367 1.13253 0
M  V30 1038 H 98.5536 -4.02443 1.2497 0
M  V30 1039 H 97.2776 -3.25446 0.274308 0
M  V30 1040 H 95.9366 -2.80606 2.35914 0
M  V30 1041 H 95.5846 -4.91623 1.06374 0
M  V30 1042 H 95.2846 -5.16486 2.80208 0
M  V30 1043 H 96.8086 -5.74396 2.07128 0
M  V30 1044 H 98.2226 -4.2832 3.81071 0
M  V30 1045 H 96.6196 -3.94209 4.52459 0
M  V30 1046 H 97.6896 -2.59504 4.09617 0
M  V30 1047 N 99.0327 -1.24633 -0.964593 0
M  V30 1048 C 99.9657 -0.984662 -2.05863 0
M  V30 1049 C 100.944 0.0826554 -1.6239 0
M  V30 1050 O 102.128 -0.0549296 -1.8842 0
M  V30 1051 C 99.2547 -0.486529 -3.35187 0
M  V30 1052 C 98.3007 -1.54286 -3.97615 0
M  V30 1053 S 99.1337 -3.12513 -4.34851 0
M  V30 1054 C 100.29 -2.6441 -5.67308 0
M  V30 1055 H 100.523 -1.91104 -2.27743 0
M  V30 1056 H 98.0557 -1.08052 -1.10291 0
M  V30 1057 H 100.014 -0.205757 -4.09984 0
M  V30 1058 H 98.6747 0.419186 -3.1129 0
M  V30 1059 H 97.8677 -1.14481 -4.90826 0
M  V30 1060 H 97.4697 -1.7738 -3.2926 0
M  V30 1061 H 99.7617 -2.07416 -6.44969 0
M  V30 1062 H 100.705 -3.56222 -6.11973 0
M  V30 1063 H 101.113 -2.04734 -5.26065 0
M  V30 1064 N 100.511 1.16574 -1.06058 0
M  V30 1065 C 101.741 1.90675 -0.795397 0
M  V30 1066 C 102.149 1.77547 0.653735 0
M  V30 1067 O 101.492 1.11611 1.45907 0
M  V30 1068 C 101.554 3.42011 -1.10764 0
M  V30 1069 C 101.218 3.78924 -2.55471 0
M  V30 1070 C 102.215 3.81042 -3.53699 0
M  V30 1071 C 99.8998 4.09626 -2.90708 0
M  V30 1072 C 101.894 4.13346 -4.85205 0
M  V30 1073 C 99.5808 4.41597 -4.22416 0
M  V30 1074 C 100.579 4.43436 -5.19474 0
M  V30 1075 O 100.267 4.74649 -6.48817 0
M  V30 1076 H 99.9988 0.611554 -0.288058 0
M  V30 1077 H 102.553 1.48711 -1.41683 0
M  V30 1078 H 100.783 3.84312 -0.429128 0
M  V30 1079 H 102.472 3.97384 -0.827077 0
M  V30 1080 H 103.238 3.57437 -3.27817 0
M  V30 1081 H 99.1168 4.07361 -2.15819 0
M  V30 1082 H 102.661 4.14696 -5.60957 0
M  V30 1083 H 98.5578 4.64667 -4.48056 0
M  V30 1084 H 99.3258 4.9247 -6.5377 0
M  V30 1085 N 101.989 0.842826 1.3317 0
M  V30 1086 C 103.217 0.454055 2.01856 0
M  V30 1087 C 103.632 -0.94587 1.63397 0
M  V30 1088 O 102.989 -1.61534 0.849302 0
M  V30 1089 C 103.04 0.569715 3.56982 0
M  V30 1090 O 102.761 1.91448 3.94055 0
M  V30 1091 C 104.262 0.178412 4.42941 0
M  V30 1092 H 101.482 0.17979 0.646465 0
M  V30 1093 H 104.026 1.1365 1.70012 0
M  V30 1094 H 102.181 -0.0648587 3.87346 0
M  V30 1095 H 102.595 1.90282 4.88767 0
M  V30 1096 H 104.069 0.310376 5.51127 0
M  V30 1097 H 104.546 -0.880056 4.30293 0
M  V30 1098 H 105.152 0.787579 4.17944 0
M  V30 1099 N 103.467 -1.45747 0.599634 0
M  V30 1100 C 104.697 -2.06369 0.0977132 0
M  V30 1101 C 105.105 -1.44624 -1.21985 0
M  V30 1102 O 104.448 -0.551831 -1.75216 0
M  V30 1103 C 104.51 -3.59284 -0.124673 0
M  V30 1104 C 104.174 -4.43318 1.10987 0
M  V30 1105 C 105.171 -4.78796 2.02609 0
M  V30 1106 C 102.856 -4.84194 1.33647 0
M  V30 1107 C 104.85 -5.53997 3.15224 0
M  V30 1108 C 102.537 -5.5915 2.46565 0
M  V30 1109 C 103.535 -5.93968 3.37182 0
M  V30 1110 O 103.223 -6.67405 4.48136 0
M  V30 1111 H 102.955 -0.673122 0.0623153 0
M  V30 1112 H 105.509 -1.88104 0.824981 0
M  V30 1113 H 103.739 -3.75919 -0.906745 0
M  V30 1114 H 105.428 -4.01775 -0.577201 0
M  V30 1115 H 106.194 -4.47781 1.86325 0
M  V30 1116 H 102.073 -4.56534 0.64016 0
M  V30 1117 H 105.617 -5.81091 3.85978 0
M  V30 1118 H 101.514 -5.89579 2.62805 0
M  V30 1119 H 102.282 -6.85847 4.46717 0
M  V30 1120 N 104.945 -0.338344 -1.53925 0
M  V30 1121 C 105.875 0.51328 -2.27789 0
M  V30 1122 C 106.856 1.107 -1.29149 0
M  V30 1123 O 108.041 1.12937 -1.57984 0
M  V30 1124 C 105.171 1.66697 -3.04679 0
M  V30 1125 C 104.125 1.20183 -4.1078 0
M  V30 1126 C 103.451 2.44363 -4.75595 0
M  V30 1127 C 104.751 0.30605 -5.21403 0
M  V30 1128 H 106.445 -0.102883 -2.99223 0
M  V30 1129 H 103.991 -0.0509219 -1.4391 0
M  V30 1130 H 105.944 2.26915 -3.55088 0
M  V30 1131 H 104.668 2.30995 -2.30887 0
M  V30 1132 H 103.327 0.622499 -3.61276 0
M  V30 1133 H 102.975 3.07057 -3.98403 0
M  V30 1134 H 102.675 2.13925 -5.47275 0
M  V30 1135 H 104.199 3.05317 -5.28786 0
M  V30 1136 H 105.613 0.814929 -5.67478 0
M  V30 1137 H 104.01 0.0937929 -6.00027 0
M  V30 1138 H 105.08 -0.65921 -4.80398 0
M  V30 1139 N 106.423 1.57458 -0.0668435 0
M  V30 1140 C 107.648 1.9804 0.616027 0
M  V30 1141 C 108.073 0.944771 1.62652 0
M  V30 1142 O 107.431 -0.0902094 1.81075 0
M  V30 1143 C 107.479 3.37665 1.26549 0
M  V30 1144 O 106.583 3.36701 2.38131 0
M  V30 1145 H 105.924 0.644719 0.158849 0
M  V30 1146 H 108.454 2.04121 -0.139891 0
M  V30 1147 H 108.464 3.7474 1.6135 0
M  V30 1148 H 107.139 4.12573 0.525016 0
M  V30 1149 H 105.716 3.1139 2.0516 0
M  V30 1150 N 107.901 -0.206675 1.56239 0
M  V30 1151 C 109.149 -0.927007 1.79586 0
M  V30 1152 C 109.47 -1.8427 0.637929 0
M  V30 1153 O 108.74 -1.92849 -0.344398 0
M  V30 1154 H 107.32 -0.345292 0.662407 0
M  V30 1155 H 109.982 -0.21496 1.93711 0
M  V30 1156 H 109.078 -1.52501 2.72305 0
M  V30 1157 N 109.379 -1.50304 -0.473955 0
M  V30 1158 C 110.311 -1.65109 -1.58971 0
M  V30 1159 C 111.324 -0.532676 -1.53839 0
M  V30 1160 O 112.513 -0.805751 -1.59279 0
M  V30 1161 C 109.613 -1.61684 -2.97845 0
M  V30 1162 C 108.786 -2.8951 -3.27876 0
M  V30 1163 C 107.845 -2.78768 -4.4629 0
M  V30 1164 O 106.871 -3.52722 -4.46739 0
M  V30 1165 N 108.073 -1.9213 -5.47783 0
M  V30 1166 H 110.838 -2.61347 -1.46689 0
M  V30 1167 H 108.399 -1.47732 -0.662324 0
M  V30 1168 H 110.391 -1.52114 -3.75024 0
M  V30 1169 H 108.961 -0.731925 -3.03911 0
M  V30 1170 H 108.181 -3.13228 -2.39336 0
M  V30 1171 H 109.469 -3.74199 -3.4475 0
M  V30 1172 H 108.867 -1.31353 -5.50239 0
M  V30 1173 H 107.424 -1.88466 -6.23958 0
M  V30 1174 N 110.857 0.726932 -1.39834 0
M  V30 1175 C 111.767 1.87131 -1.41489 0
M  V30 1176 C 112.783 1.71239 -0.308757 0
M  V30 1177 O 113.959 1.93701 -0.551529 0
M  V30 1178 C 111.024 3.22811 -1.26468 0
M  V30 1179 C 110.085 3.51039 -2.47124 0
M  V30 1180 C 109.318 4.80245 -2.3281 0
M  V30 1181 O 109.541 5.54537 -1.33585 0
M  V30 1182 O 108.475 5.08554 -3.21957 0
M  V30 1183 H 112.301 1.8869 -2.3797 0
M  V30 1184 H 109.886 0.875837 -1.21035 0
M  V30 1185 H 111.768 4.03877 -1.20255 0
M  V30 1186 H 110.443 3.22005 -0.330862 0
M  V30 1187 H 109.35 2.70027 -2.58914 0
M  V30 1188 H 110.683 3.56632 -3.39227 0
M  V30 1189 N 112.336 1.25143 0.95797 0
M  V30 1190 C 113.266 1.07711 2.07173 0
M  V30 1191 C 114.247 -0.0128462 1.70095 0
M  V30 1192 O 115.432 0.156061 1.93572 0
M  V30 1193 C 112.562 0.691503 3.40346 0
M  V30 1194 C 111.516 1.73132 3.9142 0
M  V30 1195 C 110.842 1.20049 5.21049 0
M  V30 1196 C 112.142 3.1294 4.1817 0
M  V30 1197 H 113.836 2.00873 2.22014 0
M  V30 1198 H 111.382 0.967191 1.06684 0
M  V30 1199 H 113.335 0.556505 4.17709 0
M  V30 1200 H 112.059 -0.275819 3.25433 0
M  V30 1201 H 110.718 1.8547 3.16222 0
M  V30 1202 H 110.366 0.223499 5.02503 0
M  V30 1203 H 110.066 1.89545 5.56189 0
M  V30 1204 H 111.59 1.07782 6.01012 0
M  V30 1205 H 113.004 3.03775 4.86203 0
M  V30 1206 H 111.401 3.79875 4.64559 0
M  V30 1207 H 112.471 3.6025 3.24573 0
M  V30 1208 N 113.814 -1.1601 1.06675 0
M  V30 1209 C 114.744 -2.22688 0.702307 0
M  V30 1210 C 115.725 -1.67306 -0.307032 0
M  V30 1211 O 116.91 -1.93352 -0.181305 0
M  V30 1212 C 114.04 -3.47178 0.092038 0
M  V30 1213 C 112.994 -4.15477 1.02777 0
M  V30 1214 C 112.32 -5.33963 0.28061 0
M  V30 1215 C 113.62 -4.66019 2.35846 0
M  V30 1216 H 115.314 -2.53429 1.59419 0
M  V30 1217 H 112.86 -1.21813 0.767961 0
M  V30 1218 H 114.813 -4.21037 -0.174814 0
M  V30 1219 H 113.537 -3.15749 -0.834877 0
M  V30 1220 H 112.196 -3.43549 1.27944 0
M  V30 1221 H 111.844 -4.98788 -0.649545 0
M  V30 1222 H 111.544 -5.806 0.904258 0
M  V30 1223 H 113.068 -6.10596 0.021396 0
M  V30 1224 H 114.482 -5.3144 2.15045 0
M  V30 1225 H 112.879 -5.23293 2.93743 0
M  V30 1226 H 113.949 -3.82023 2.98641 0
M  V30 1227 N 115.292 -0.849877 -1.32721 0
M  V30 1228 C 116.703 -0.506188 -1.79707 0
M  V30 1229 C 117.054 0.975627 -1.70223 0
M  V30 1230 O 116.179 1.76078 -1.25799 0
M  V30 1231 C 116.774 -0.912044 -3.26293 0
M  V30 1232 C 115.333 -0.620326 -3.71253 0
M  V30 1233 C 114.48 -1.11439 -2.53922 0
M  V30 1234 H 117.431 -1.03754 -1.20087 0
M  V30 1235 H 117.452 -0.226493 -3.79825 0
M  V30 1236 H 116.964 -1.99057 -3.33164 0
M  V30 1237 H 115.065 0.447674 -3.69901 0
M  V30 1238 H 115.178 -1.18327 -4.64258 0
M  V30 1239 H 113.542 -0.534834 -2.49021 0
M  V30 1240 H 114.325 -2.19992 -2.6355 0
M  V30 1241 N 116.77 1.45427 -0.607355 0
M  V30 1242 C 118.016 2.0254 -0.102607 0
M  V30 1243 C 118.349 1.47478 1.26348 0
M  V30 1244 O 117.624 0.64939 1.83339 0
M  V30 1245 C 117.907 3.60044 -0.0634347 0
M  V30 1246 C 117.76 4.2544 -1.46017 0
M  V30 1247 C 119.079 4.35646 0.624514 0
M  V30 1248 H 116.198 0.73598 -0.0387607 0
M  V30 1249 H 118.84 1.73284 -0.779282 0
M  V30 1250 H 116.99 3.85101 0.512808 0
M  V30 1251 H 118.662 4.11569 -2.08347 0
M  V30 1252 H 116.905 3.83849 -2.02094 0
M  V30 1253 H 117.576 5.34342 -1.385 0
M  V30 1254 H 120.052 4.15882 0.134723 0
M  V30 1255 H 118.928 5.45376 0.621028 0
M  V30 1256 H 119.189 4.08501 1.69055 0
M  V30 1257 N 118.248 0.346503 1.53744 0
M  V30 1258 C 119.525 -0.304532 1.93215 0
M  V30 1259 C 119.905 -1.67993 1.27834 0
M  V30 1260 O 119.253 -2.24411 0.430352 0
M  V30 1261 C 119.463 -0.373852 3.46992 0
M  V30 1262 C 120.811 -0.62329 4.2 0
M  V30 1263 O 121.835 -0.455847 3.53271 0
M  V30 1264 O 120.694 -0.947879 5.38217 0
M  V30 1265 H 117.788 -0.178318 0.807547 0
M  V30 1266 H 120.334 0.397895 1.64969 0
M  V30 1267 H 119.106 0.591224 3.86808 0
M  V30 1268 H 118.729 -1.12294 3.81413 0
M  V30 1269 N 119.726 -1.57421 0.075193 0
M  V30 1270 C 120.658 -2.09904 -0.920483 0
M  V30 1271 C 121.671 -1.03191 -1.25918 0
M  V30 1272 O 122.86 -1.30695 -1.21577 0
M  V30 1273 C 119.96 -2.54726 -2.23534 0
M  V30 1274 C 119.133 -3.8505 -2.07498 0
M  V30 1275 C 118.192 -4.15929 -3.22319 0
M  V30 1276 O 117.218 -4.85474 -2.9716 0
M  V30 1277 N 118.42 -3.69745 -4.47514 0
M  V30 1278 H 121.185 -2.95954 -0.472359 0
M  V30 1279 H 118.746 -1.61523 -0.110444 0
M  V30 1280 H 120.738 -2.72443 -2.9926 0
M  V30 1281 H 119.308 -1.73795 -2.59835 0
M  V30 1282 H 118.528 -3.76679 -1.16219 0
M  V30 1283 H 119.816 -4.70348 -1.94038 0
M  V30 1284 H 119.214 -3.13569 -4.7084 0
M  V30 1285 H 117.771 -3.92655 -5.20255 0
M  V30 1286 N 121.204 0.198386 -1.56346 0
M  V30 1287 C 122.151 1.24589 -1.94284 0
M  V30 1288 C 123.121 1.454 -0.802997 0
M  V30 1289 O 124.306 1.58588 -1.06087 0
M  V30 1290 C 121.446 2.58631 -2.28482 0
M  V30 1291 C 120.559 2.45426 -3.55514 0
M  V30 1292 C 119.694 3.7215 -3.79049 0
M  V30 1293 C 118.733 3.53763 -4.99518 0
M  V30 1294 N 117.87 4.72491 -5.19323 0
M  V30 1295 H 122.71 0.915356 -2.83593 0
M  V30 1296 H 120.247 0.440629 -1.40346 0
M  V30 1297 H 122.205 3.3672 -2.46324 0
M  V30 1298 H 120.835 2.89734 -1.42317 0
M  V30 1299 H 119.887 1.58652 -3.45737 0
M  V30 1300 H 121.199 2.27772 -4.43758 0
M  V30 1301 H 120.353 4.58679 -3.97113 0
M  V30 1302 H 119.092 3.92754 -2.89129 0
M  V30 1303 H 118.097 2.65619 -4.8138 0
M  V30 1304 H 119.322 3.34607 -5.90944 0
M  V30 1305 H 117.268 4.93365 -4.3235 0
M  V30 1306 H 117.185 4.5765 -6.01741 0
M  V30 1307 H 118.453 5.6038 -5.41843 0
M  V30 1308 N 122.682 1.50554 0.465978 0
M  V30 1309 C 123.645 1.69233 1.54574 0
M  V30 1310 C 124.645 0.562901 1.50626 0
M  V30 1311 O 125.835 0.830016 1.53155 0
M  V30 1312 C 122.967 1.7223 2.94193 0
M  V30 1313 H 124.16 2.65571 1.39327 0
M  V30 1314 H 121.713 1.40111 0.692711 0
M  V30 1315 H 122.448 0.77603 3.14878 0
M  V30 1316 H 122.233 2.54285 2.98466 0
M  V30 1317 H 123.723 1.88618 3.72576 0
M  V30 1318 N 124.16 -0.719506 1.40217 0
M  V30 1319 C 125.406 -1.48152 1.38488 0
M  V30 1320 C 125.739 -1.94195 -0.0141867 0
M  V30 1321 O 125.014 -1.67884 -0.982096 0
M  V30 1322 C 125.297 -2.71035 2.37091 0
M  V30 1323 C 125.15 -2.30912 3.86005 0
M  V30 1324 C 126.469 -3.73182 2.33288 0
M  V30 1325 H 123.588 -0.537395 0.504357 0
M  V30 1326 H 126.23 -0.821472 1.71324 0
M  V30 1327 H 124.38 -3.27352 2.0922 0
M  V30 1328 H 126.052 -1.80107 4.24687 0
M  V30 1329 H 124.295 -1.62958 4.02029 0
M  V30 1330 H 124.966 -3.18978 4.50508 0
M  V30 1331 H 127.442 -3.26485 2.57966 0
M  V30 1332 H 126.318 -4.56806 3.04334 0
M  V30 1333 H 126.579 -4.21202 1.34317 0
M  V30 1334 N 125.638 -1.25649 -0.95132 0
M  V30 1335 C 126.568 -1.08808 -2.06599 0
M  V30 1336 C 127.549 0.00382547 -1.701 0
M  V30 1337 O 128.734 -0.166325 -1.93486 0
M  V30 1338 C 125.864 -0.709542 -3.39975 0
M  V30 1339 C 124.818 -1.75206 -3.90496 0
M  V30 1340 C 124.144 -1.22811 -5.20405 0
M  V30 1341 C 125.444 -3.15153 -4.16504 0
M  V30 1342 H 127.138 -2.02048 -2.20946 0
M  V30 1343 H 124.684 -0.972835 -1.06169 0
M  V30 1344 H 126.637 -0.578649 -4.17408 0
M  V30 1345 H 125.361 0.258556 -3.25575 0
M  V30 1346 H 124.02 -1.87145 -3.15234 0
M  V30 1347 H 123.668 -0.250145 -5.02378 0
M  V30 1348 H 123.368 -1.92492 -5.55176 0
M  V30 1349 H 124.892 -1.10968 -6.00432 0
M  V30 1350 H 126.306 -3.06349 -4.84586 0
M  V30 1351 H 124.703 -3.82333 -4.62538 0
M  V30 1352 H 125.773 -3.61966 -3.22658 0
M  V30 1353 N 127.117 1.15442 -1.07289 0
M  V30 1354 C 128.363 1.86489 -0.796846 0
M  V30 1355 C 128.696 1.82078 0.675371 0
M  V30 1356 O 127.971 1.24346 1.4956 0
M  V30 1357 C 128.254 3.35626 -1.30489 0
M  V30 1358 C 128.107 3.48673 -2.84161 0
M  V30 1359 C 129.426 4.30357 -0.920907 0
M  V30 1360 H 126.545 0.677144 -0.290939 0
M  V30 1361 H 129.187 1.35633 -1.33056 0
M  V30 1362 H 127.337 3.79068 -0.850883 0
M  V30 1363 H 129.009 3.14099 -3.37846 0
M  V30 1364 H 127.252 2.90253 -3.22391 0
M  V30 1365 H 127.923 4.53453 -3.14777 0
M  V30 1366 H 130.399 3.94871 -1.3121 0
M  V30 1367 H 129.275 5.33193 -1.30372 0
M  V30 1368 H 129.536 4.4176 0.173226 0
M  V30 1369 N 128.595 0.856903 1.32268 0
M  V30 1370 C 129.823 0.475439 2.01363 0
M  V30 1371 C 130.238 -0.928486 1.64392 0
M  V30 1372 O 129.595 -1.60624 0.866387 0
M  V30 1373 C 129.646 0.607545 3.56358 0
M  V30 1374 O 129.367 1.95617 3.92002 0
M  V30 1375 C 130.868 0.225382 4.42727 0
M  V30 1376 H 128.088 0.186636 0.644521 0
M  V30 1377 H 130.632 1.15446 1.68797 0
M  V30 1378 H 128.787 -0.0237719 3.87393 0
M  V30 1379 H 129.201 1.95455 4.86721 0
M  V30 1380 H 130.675 0.368813 5.50767 0
M  V30 1381 H 131.152 -0.834369 4.31202 0
M  V30 1382 H 131.758 0.831864 4.17085 0
M  V30 1383 N 130.073 -1.45103 0.615059 0
M  V30 1384 C 131.321 -2.01784 0.112955 0
M  V30 1385 C 131.642 -1.48504 -1.26378 0
M  V30 1386 O 130.912 -0.682245 -1.83636 0
M  V30 1387 H 129.492 -0.745993 0.0387668 0
M  V30 1388 H 132.154 -1.77808 0.798141 0
M  V30 1389 H 131.25 -3.12025 0.0684069 0
M  V30 1390 N 131.551 -0.354651 -1.53558 0
M  V30 1391 C 132.799 0.237972 -2.00694 0
M  V30 1392 C 133.12 1.50173 -1.24391 0
M  V30 1393 O 132.39 1.92673 -0.354135 0
M  V30 1394 H 130.97 0.0909256 -0.741446 0
M  V30 1395 H 133.632 -0.478368 -1.88938 0
M  V30 1396 H 132.728 0.47264 -3.085 0
M  V30 1397 N 133.029 1.57378 -0.0835403 0
M  V30 1398 C 134.306 1.85363 0.624507 0
M  V30 1399 C 134.686 0.978239 1.87066 0
M  V30 1400 O 134.034 0.0475908 2.2845 0
M  V30 1401 C 134.244 3.35795 0.950947 0
M  V30 1402 C 135.592 4.03581 1.31939 0
M  V30 1403 O 136.616 3.40609 1.04232 0
M  V30 1404 O 135.475 5.14672 1.83779 0
M  V30 1405 H 132.569 0.766162 0.311329 0
M  V30 1406 H 135.115 1.69307 -0.115362 0
M  V30 1407 H 133.887 3.91244 0.0663899 0
M  V30 1408 H 133.51 3.57154 1.74719 0
M  V30 1409 N 134.507 -0.190092 1.56449 0
M  V30 1410 C 135.747 -0.916414 1.82705 0
M  V30 1411 C 136.111 -1.80235 0.661763 0
M  V30 1412 O 137.312 -2.56484 0.80433 0
M  V30 1413 C 135.583 -1.70691 3.14005 0
M  V30 1414 S 137.142 -2.48457 3.61683 0
M  V30 1415 H 133.96 -0.307281 0.64117 0
M  V30 1416 H 136.562 -0.179433 1.94675 0
M  V30 1417 H 135.266 -1.04677 3.96826 0
M  V30 1418 H 134.797 -2.48562 3.04927 0
M  V30 1419 H 136.812 -3.72756 3.27517 0
M  V30 1420 N 135.985 -1.50799 -0.457987 0
M  V30 1421 C 137.233 -1.62121 -1.2067 0
M  V30 1422 C 137.554 -0.329793 -1.92191 0
M  V30 1423 O 136.824 0.653409 -1.84682 0
M  V30 1424 H 135.404 -0.597441 -0.448411 0
M  V30 1425 H 138.066 -1.87637 -0.527096 0
M  V30 1426 H 137.162 -2.43882 -1.94751 0
M  V30 1427 N 137.463 0.71206 -1.40597 0
M  V30 1428 C 138.393 1.83889 -1.43899 0
M  V30 1429 C 139.374 1.67442 -0.299504 0
M  V30 1430 O 140.559 1.87421 -0.508624 0
M  V30 1431 C 137.689 3.21877 -1.30431 0
M  V30 1432 C 136.643 3.53002 -2.42019 0
M  V30 1433 C 135.969 4.90172 -2.13626 0
M  V30 1434 C 137.269 3.53643 -3.84362 0
M  V30 1435 H 138.963 1.81383 -2.38203 0
M  V30 1436 H 136.509 0.871237 -1.14654 0
M  V30 1437 H 138.462 4.00404 -1.31357 0
M  V30 1438 H 137.186 3.24968 -0.326049 0
M  V30 1439 H 135.845 2.76818 -2.40349 0
M  V30 1440 H 135.493 4.89869 -1.14182 0
M  V30 1441 H 135.193 5.11962 -2.88389 0
M  V30 1442 H 136.717 5.71028 -2.1624 0
M  V30 1443 H 138.131 4.22203 -3.87837 0
M  V30 1444 H 136.528 3.86961 -4.58673 0
M  V30 1445 H 137.598 2.52954 -4.13693 0
M  V30 1446 N 138.941 1.26152 0.944643 0
M  V30 1447 C 140.189 1.11271 1.6871 0
M  V30 1448 C 140.51 -0.345166 1.91921 0
M  V30 1449 O 139.78 -1.24387 1.51343 0
M  V30 1450 H 138.36 0.408783 0.625224 0
M  V30 1451 H 141.022 1.58427 1.1352 0
M  V30 1452 H 140.118 1.62879 2.66227 0
M  V30 1453 N 140.419 -1.14872 1.07899 0
M  V30 1454 C 141.369 -2.17809 0.674027 0
M  V30 1455 C 142.353 -1.58008 -0.303699 0
M  V30 1456 O 143.545 -1.76616 -0.11654 0
M  V30 1457 C 140.674 -3.43208 0.0793318 0
M  V30 1458 C 139.76 -4.10051 1.08253 0
M  V30 1459 N 140.151 -4.52296 2.2641 0
M  V30 1460 C 138.449 -4.36469 0.917124 0
M  V30 1461 C 139.15 -5.04199 2.901 0
M  V30 1462 N 138.126 -4.98088 2.17736 0
M  V30 1463 H 141.928 -2.48207 1.57386 0
M  V30 1464 H 139.442 -1.315 0.952976 0
M  V30 1465 H 141.439 -4.16272 -0.228719 0
M  V30 1466 H 140.099 -3.14291 -0.815551 0
M  V30 1467 H 141.11 -4.45504 2.64096 0
M  V30 1468 H 137.787 -4.17432 0.0756078 0
M  V30 1469 H 139.177 -5.46802 3.90458 0
M  V30 1470 N 141.898 -0.863906 -1.31812 0
M  V30 1471 C 142.861 -0.320212 -2.26952 0
M  V30 1472 C 143.861 0.525369 -1.51975 0
M  V30 1473 O 145.051 0.335547 -1.70938 0
M  V30 1474 C 142.183 0.545919 -3.365 0
M  V30 1475 H 143.376 -1.16004 -2.76556 0
M  V30 1476 H 140.929 -0.638995 -1.42641 0
M  V30 1477 H 141.664 1.40718 -2.92179 0
M  V30 1478 H 141.449 -0.0594674 -3.92055 0
M  V30 1479 H 142.939 0.918796 -4.07367 0
M  V30 1480 N 143.376 1.44774 -0.622745 0
M  V30 1481 C 144.306 2.33382 0.0741861 0
M  V30 1482 C 145.287 1.47719 0.843387 0
M  V30 1483 O 146.472 1.76458 0.810934 0
M  V30 1484 C 143.602 3.30663 1.06204 0
M  V30 1485 C 142.556 4.26079 0.405037 0
M  V30 1486 C 141.882 5.13165 1.5022 0
M  V30 1487 C 143.182 5.1781 -0.683414 0
M  V30 1488 H 144.876 2.91905 -0.665713 0
M  V30 1489 H 142.422 1.40363 -0.321587 0
M  V30 1490 H 144.375 3.9153 1.55827 0
M  V30 1491 H 143.099 2.70331 1.83272 0
M  V30 1492 H 141.758 3.66532 -0.0704683 0
M  V30 1493 H 141.406 4.49191 2.26355 0
M  V30 1494 H 141.106 5.77812 1.06803 0
M  V30 1495 H 142.63 5.76902 2.00041 0
M  V30 1496 H 144.044 5.72661 -0.270631 0
M  V30 1497 H 142.441 5.91015 -1.04023 0
M  V30 1498 H 143.511 4.59326 -1.55395 0
M  V30 1499 N 144.854 0.36279 1.53368 0
M  V30 1500 C 146.094 -0.227882 2.03126 0
M  V30 1501 C 146.458 -1.4622 1.24434 0
M  V30 1502 O 147.659 -2.12831 1.64184 0
M  V30 1503 C 145.93 -0.515427 3.53664 0
M  V30 1504 S 147.489 -1.08017 4.25297 0
M  V30 1505 H 144.307 -0.0665377 0.70788 0
M  V30 1506 H 146.909 0.50501 1.88865 0
M  V30 1507 H 145.613 0.390436 4.08539 0
M  V30 1508 H 145.144 -1.27747 3.72081 0
M  V30 1509 H 147.159 -2.36462 4.36234 0
M  V30 1510 N 146.332 -1.57332 0.0918853 0
M  V30 1511 C 147.279 -2.13847 -0.868211 0
M  V30 1512 C 148.249 -1.05618 -1.28196 0
M  V30 1513 O 149.434 -1.33387 -1.36427 0
M  V30 1514 C 146.574 -2.72062 -2.12312 0
M  V30 1515 C 145.687 -3.94514 -1.7602 0
M  V30 1516 C 144.822 -4.40903 -2.96273 0
M  V30 1517 C 143.861 -5.55953 -2.56092 0
M  V30 1518 N 142.998 -5.97209 -3.69169 0
M  V30 1519 H 147.838 -2.95575 -0.379406 0
M  V30 1520 H 145.375 -1.46048 -0.175606 0
M  V30 1521 H 147.333 -3.03931 -2.858 0
M  V30 1522 H 145.963 -1.93068 -2.58698 0
M  V30 1523 H 145.015 -3.68979 -0.925135 0
M  V30 1524 H 146.327 -4.7802 -1.42472 0
M  V30 1525 H 145.481 -4.74539 -3.78018 0
M  V30 1526 H 144.22 -3.56291 -3.33029 0
M  V30 1527 H 143.225 -5.21948 -1.72773 0
M  V30 1528 H 144.45 -6.42311 -2.20484 0
M  V30 1529 H 142.396 -5.15543 -4.05649 0
M  V30 1530 H 142.313 -6.75504 -3.39456 0
M  V30 1531 H 143.581 -6.35475 -4.51434 0
M  V30 1532 N 147.81 0.181792 -1.56548 0
M  V30 1533 C 149.04 0.914618 -1.85252 0
M  V30 1534 C 149.448 1.76791 -0.673914 0
M  V30 1535 O 148.791 1.80009 0.366416 0
M  V30 1536 C 148.853 1.85019 -3.08234 0
M  V30 1537 C 148.517 1.17754 -4.41569 0
M  V30 1538 C 149.514 0.548035 -5.17003 0
M  V30 1539 C 147.199 1.17742 -4.88305 0
M  V30 1540 C 149.193 -0.0726128 -6.37359 0
M  V30 1541 C 146.88 0.552946 -6.08593 0
M  V30 1542 C 147.878 -0.070978 -6.82963 0
M  V30 1543 O 147.566 -0.685635 -8.00971 0
M  V30 1544 H 147.298 0.271695 -0.618998 0
M  V30 1545 H 149.852 0.189944 -2.0452 0
M  V30 1546 H 148.082 2.61491 -2.84885 0
M  V30 1547 H 149.771 2.45195 -3.23472 0
M  V30 1548 H 150.537 0.540174 -4.81982 0
M  V30 1549 H 146.416 1.65246 -4.30366 0
M  V30 1550 H 149.96 -0.560213 -6.95347 0
M  V30 1551 H 145.857 0.558354 -6.43081 0
M  V30 1552 H 146.625 -0.58385 -8.16415 0
M  V30 1553 N 149.288 1.51039 0.449983 0
M  V30 1554 C 150.218 1.74379 1.55288 0
M  V30 1555 C 151.199 0.593236 1.5942 0
M  V30 1556 O 152.384 0.834625 1.7535 0
M  V30 1557 C 149.514 1.85728 2.93466 0
M  V30 1558 C 148.468 3.01078 3.04197 0
M  V30 1559 C 147.794 2.97595 4.44231 0
M  V30 1560 C 149.094 4.41254 2.7945 0
M  V30 1561 H 150.788 2.66725 1.36008 0
M  V30 1562 H 148.334 1.2835 0.652864 0
M  V30 1563 H 150.287 2.0064 3.70569 0
M  V30 1564 H 149.011 0.900207 3.13949 0
M  V30 1565 H 147.67 2.85851 2.29531 0
M  V30 1566 H 147.318 1.99691 4.61663 0
M  V30 1567 H 147.018 3.75046 4.52343 0
M  V30 1568 H 148.542 3.14583 5.23326 0
M  V30 1569 H 149.956 4.56897 3.46292 0
M  V30 1570 H 148.353 5.20315 2.98985 0
M  V30 1571 H 149.423 4.52164 1.75144 0
M  V30 1572 N 150.766 -0.704594 1.40972 0
M  V30 1573 C 152.043 -1.45847 1.30338 0
M  V30 1574 C 152.423 -2.10973 -0.0732344 0
M  V30 1575 O 151.771 -2.00997 -1.08685 0
M  V30 1576 C 151.981 -2.48525 2.45023 0
M  V30 1577 C 153.329 -3.1404 2.8577 0
M  V30 1578 O 154.353 -2.58848 2.44696 0
M  V30 1579 O 153.212 -4.13981 3.56766 0
M  V30 1580 H 150.306 -0.649092 0.512454 0
M  V30 1581 H 152.852 -0.735836 1.52917 0
M  V30 1582 H 151.624 -1.98994 3.36923 0
M  V30 1583 H 151.247 -3.2831 2.24272 0
M  V30 1584 N 152.244 -1.26651 -0.937939 0
M  V30 1585 C 153.154 -1.10276 -2.07066 0
M  V30 1586 C 154.17 -0.0354197 -1.73964 0
M  V30 1587 O 155.346 -0.239816 -1.99967 0
M  V30 1588 C 152.411 -0.740887 -3.38691 0
M  V30 1589 C 151.472 -1.88799 -3.85556 0
M  V30 1590 C 150.705 -1.54329 -5.10899 0
M  V30 1591 O 150.928 -0.446494 -5.6865 0
M  V30 1592 O 149.862 -2.37911 -5.52885 0
M  V30 1593 H 153.688 -2.05309 -2.23789 0
M  V30 1594 H 151.273 -1.05743 -1.0554 0
M  V30 1595 H 153.155 -0.55195 -4.1777 0
M  V30 1596 H 151.83 0.180022 -3.23199 0
M  V30 1597 H 150.737 -2.13191 -3.07409 0
M  V30 1598 H 152.07 -2.78874 -4.05574 0
M  V30 1599 N 153.722 1.14298 -1.08507 0
M  V30 1600 C 154.652 2.21542 -0.737646 0
M  V30 1601 C 155.633 1.67773 0.280377 0
M  V30 1602 O 156.818 1.93616 0.150521 0
M  V30 1603 C 153.948 3.46988 -0.147259 0
M  V30 1604 C 152.902 4.13789 -1.09374 0
M  V30 1605 C 152.228 5.33449 -0.365524 0
M  V30 1606 C 153.528 4.62208 -2.4323 0
M  V30 1607 H 155.222 2.5086 -1.6343 0
M  V30 1608 H 152.768 1.20576 -0.787243 0
M  V30 1609 H 154.721 4.21262 0.107808 0
M  V30 1610 H 153.445 3.17037 0.784538 0
M  V30 1611 H 152.104 3.4147 -1.33393 0
M  V30 1612 H 151.752 4.99759 0.57011 0
M  V30 1613 H 151.452 5.79088 -0.996512 0
M  V30 1614 H 152.976 6.10485 -0.118534 0
M  V30 1615 H 154.39 5.27952 -2.23472 0
M  V30 1616 H 152.787 5.18553 -3.02031 0
M  V30 1617 H 153.857 3.77224 -3.04681 0
M  V30 1618 N 155.201 0.870884 1.31352 0
M  V30 1619 C 156.449 0.48132 1.96285 0
M  V30 1620 C 156.77 -0.969813 1.69173 0
M  V30 1621 O 156.04 -1.67998 1.00764 0
M  V30 1622 H 154.62 0.175002 0.726212 0
M  V30 1623 H 157.282 1.11087 1.60143 0
M  V30 1624 H 156.378 0.639825 3.05471 0
M  V30 1625 N 156.679 -1.44442 0.630414 0
M  V30 1626 C 157.926 -2.02052 0.134617 0
M  V30 1627 C 158.254 -1.49576 -1.24327 0
M  V30 1628 O 157.509 -0.669806 -1.83881 0
M  V30 1629 C 157.808 -3.57332 0.0697835 0
M  V30 1630 C 157.474 -4.29058 1.38635 0
M  V30 1631 C 156.136 -4.4837 1.74694 0
M  V30 1632 C 158.488 -4.69872 2.25543 0
M  V30 1633 C 155.816 -5.05756 2.97369 0
M  V30 1634 C 158.168 -5.28616 3.47487 0
M  V30 1635 C 156.832 -5.46147 3.8377 0
M  V30 1636 H 156.102 -0.739361 0.0492598 0
M  V30 1637 H 158.749 -1.73217 0.816586 0
M  V30 1638 H 157.054 -3.85577 -0.695553 0
M  V30 1639 H 158.751 -3.99637 -0.330344 0
M  V30 1640 H 155.341 -4.14357 1.09574 0
M  V30 1641 H 159.525 -4.54666 1.98979 0
M  V30 1642 H 154.781 -5.17515 3.25558 0
M  V30 1643 H 158.955 -5.59192 4.15063 0
M  V30 1644 H 156.582 -5.9038 4.7891 0
M  V30 1645 N 158.157 -0.370918 -1.53173 0
M  V30 1646 C 159.385 0.217704 -2.05751 0
M  V30 1647 C 159.8 1.42018 -1.24404 0
M  V30 1648 O 159.157 1.80245 -0.286033 0
M  V30 1649 C 159.208 0.605954 -3.56385 0
M  V30 1650 O 158.929 -0.548734 -4.3465 0
M  V30 1651 C 160.43 1.2524 -4.25241 0
M  V30 1652 H 157.65 0.0371659 -0.66997 0
M  V30 1653 H 160.194 -0.530832 -1.9749 0
M  V30 1654 H 158.349 1.3044 -3.6478 0
M  V30 1655 H 158.763 -0.23376 -5.23979 0
M  V30 1656 H 160.237 1.47458 -5.3194 0
M  V30 1657 H 160.714 2.2143 -3.79296 0
M  V30 1658 H 161.32 0.595233 -4.21114 0
M  V30 1659 N 159.635 1.57281 -0.100228 0
M  V30 1660 C 160.881 1.94826 0.563101 0
M  V30 1661 C 161.214 0.982475 1.67514 0
M  V30 1662 O 160.489 0.0164069 1.94493 0
M  V30 1663 C 160.772 3.42453 1.11346 0
M  V30 1664 C 160.625 4.498 0.00612081 0
M  V30 1665 C 161.944 3.91506 2.01024 0
M  V30 1666 H 159.063 0.708428 0.203221 0
M  V30 1667 H 161.705 1.8922 -0.171979 0
M  V30 1668 H 159.855 3.47361 1.7399 0
M  V30 1669 H 161.527 4.57 -0.628357 0
M  V30 1670 H 159.77 4.28756 -0.659581 0
M  V30 1671 H 160.441 5.50306 0.432109 0
M  V30 1672 H 162.917 3.88784 1.48278 0
M  V30 1673 H 161.793 4.95358 2.36457 0
M  V30 1674 H 162.054 3.31099 2.92961 0
M  V30 1675 N 161.113 -0.173488 1.56642 0
M  V30 1676 C 162.36 -0.890465 1.81871 0
M  V30 1677 C 162.688 -1.82339 0.67696 0
M  V30 1678 O 161.943 -1.92795 -0.335926 0
M  V30 1679 C 162.242 -1.72069 3.13252 0
M  V30 1680 C 161.908 -0.936878 4.41059 0
M  V30 1681 C 160.57 -0.720545 4.75775 0
M  V30 1682 C 162.922 -0.386919 5.19762 0
M  V30 1683 C 160.25 0.0568829 5.86672 0
M  V30 1684 C 162.602 0.37741 6.31473 0
M  V30 1685 C 161.266 0.604563 6.64757 0
M  V30 1686 H 160.536 -0.325844 0.665512 0
M  V30 1687 H 163.183 -0.155527 1.90867 0
M  V30 1688 H 161.488 -2.52496 2.99588 0
M  V30 1689 H 163.185 -2.27844 3.29982 0
M  V30 1690 H 159.775 -1.11553 4.13828 0
M  V30 1691 H 163.959 -0.541398 4.93338 0
M  V30 1692 H 159.215 0.242635 6.10918 0
M  V30 1693 H 163.389 0.810825 6.91664 0
M  V30 1694 H 161.016 1.20885 7.50527 0
M  V30 1695 N 162.591 -1.51276 -0.441967 0
M  V30 1696 C 163.554 -1.7167 -1.51862 0
M  V30 1697 C 164.554 -0.586793 -1.49711 0
M  V30 1698 O 165.744 -0.854276 -1.51815 0
M  V30 1699 C 162.876 -1.76889 -2.91416 0
M  V30 1700 H 164.069 -2.67754 -1.35084 0
M  V30 1701 H 161.622 -1.41196 -0.670333 0
M  V30 1702 H 162.357 -0.826026 -3.13604 0
M  V30 1703 H 162.142 -2.59001 -2.94382 0
M  V30 1704 H 163.632 -1.94522 -3.69528 0
M  V30 1705 N 164.069 0.697108 -1.41344 0
M  V30 1706 C 165.317 1.45426 -1.40341 0
M  V30 1707 C 165.638 1.94996 -0.0128787 0
M  V30 1708 O 164.908 1.71599 0.945027 0
M  V30 1709 H 163.488 0.539594 -0.516573 0
M  V30 1710 H 166.15 0.825201 -1.76569 0
M  V30 1711 H 165.246 2.31817 -2.08967 0
M  V30 1712 N 165.547 1.27147 0.931209 0
M  V30 1713 C 166.793 1.13446 1.68101 0
M  V30 1714 C 167.126 -0.319628 1.91552 0
M  V30 1715 O 166.401 -1.23407 1.50336 0
M  V30 1716 C 166.684 1.91482 3.0497 0
M  V30 1717 C 166.537 3.44855 2.88782 0
M  V30 1718 C 167.856 1.71651 4.05246 0
M  V30 1719 H 164.975 0.413498 0.610072 0
M  V30 1720 H 167.617 1.56261 1.08086 0
M  V30 1721 H 165.767 1.55095 3.56199 0
M  V30 1722 H 167.439 3.9105 2.44698 0
M  V30 1723 H 165.682 3.71373 2.24198 0
M  V30 1724 H 166.353 3.94694 3.85902 0
M  V30 1725 H 168.829 2.0337 3.63015 0
M  V30 1726 H 167.705 2.28651 4.99009 0
M  V30 1727 H 167.966 0.663555 4.37092 0
M  V30 1728 N 167.025 -1.13721 1.09112 0
M  V30 1729 C 167.955 -2.21148 0.749385 0
M  V30 1730 C 168.936 -1.6792 -0.271475 0
M  V30 1731 O 170.121 -1.93693 -0.140251 0
M  V30 1732 C 167.251 -3.46905 0.165659 0
M  V30 1733 C 166.205 -4.13203 1.11567 0
M  V30 1734 C 165.531 -5.33248 0.393809 0
M  V30 1735 C 166.831 -4.60912 2.45678 0
M  V30 1736 H 168.525 -2.4999 1.64758 0
M  V30 1737 H 166.071 -1.20156 0.793626 0
M  V30 1738 H 168.024 -4.21313 -0.085466 0
M  V30 1739 H 166.748 -3.17449 -0.767714 0
M  V30 1740 H 165.407 -3.40758 1.35202 0
M  V30 1741 H 165.055 -5.00054 -0.543599 0
M  V30 1742 H 164.755 -5.78552 1.02721 0
M  V30 1743 H 166.279 -6.10413 0.150908 0
M  V30 1744 H 167.693 -5.26759 2.26269 0
M  V30 1745 H 166.09 -5.16944 3.04776 0
M  V30 1746 H 167.16 -3.75603 3.06677 0
M  V30 1747 N 168.503 -0.877838 -1.30888 0
M  V30 1748 C 169.451 -0.328662 -2.30266 0
M  V30 1749 C 170.445 0.560496 -1.59859 0
M  V30 1750 O 171.651 0.445722 -1.74394 0
M  V30 1751 H 168.026 -0.0876142 -0.746879 0
M  V30 1752 H 169.997 -1.18061 -2.74051 0
M  V30 1753 C 168.746 0.448071 -3.44801 0
M  V30 1754 H 168.069 -0.226859 -3.99156 0
M  V30 1755 H 169.509 0.797541 -4.16432 0
M  V30 1756 C 167.968 1.64239 -2.94155 0
M  V30 1757 O 168.498 2.74175 -2.93583 0
M  V30 1758 N 166.704 1.47716 -2.50256 0
M  V30 1759 H 166.251 0.582821 -2.5092 0
M  V30 1760 H 166.209 2.27765 -2.16727 0
M  V30 1761 N 169.982 1.44106 -0.638065 0
M  V30 1762 C 170.892 2.34513 0.0637334 0
M  V30 1763 C 171.908 1.53018 0.828346 0
M  V30 1764 O 173.084 1.85723 0.779036 0
M  V30 1765 C 170.149 3.31095 1.02844 0
M  V30 1766 C 169.21 4.28497 0.26244 0
M  V30 1767 C 168.443 5.20465 1.1812 0
M  V30 1768 O 168.666 5.16514 2.42011 0
M  V30 1769 O 167.6 5.98251 0.661774 0
M  V30 1770 H 171.426 2.95989 -0.68003 0
M  V30 1771 H 169.011 1.43994 -0.398252 0
M  V30 1772 H 170.893 3.90526 1.58327 0
M  V30 1773 H 169.568 2.72144 1.7527 0
M  V30 1774 H 168.475 3.72592 -0.335602 0
M  V30 1775 H 169.808 4.90388 -0.421936 0
M  V30 1776 N 171.46 0.379036 1.52974 0
M  V30 1777 C 172.408 -0.476033 2.27677 0
M  V30 1778 C 173.402 -1.0719 1.31174 0
M  V30 1779 O 174.608 -1.01355 1.48752 0
M  V30 1780 H 170.983 -0.172255 0.732006 0
M  V30 1781 H 172.954 0.175615 2.97883 0
M  V30 1782 C 171.703 -1.5967 3.0887 0
M  V30 1783 H 171.026 -1.1475 3.82978 0
M  V30 1784 H 172.466 -2.16943 3.64296 0
M  V30 1785 C 170.925 -2.54682 2.20542 0
M  V30 1786 O 171.455 -3.57836 1.82527 0
M  V30 1787 N 169.661 -2.24183 1.84907 0
M  V30 1788 H 169.208 -1.40333 2.1602 0
M  V30 1789 H 169.166 -2.88006 1.26096 0
M  V30 1790 N 172.938 -1.57226 0.108567 0
M  V30 1791 C 174.186 -1.94448 -0.550853 0
M  V30 1792 C 174.507 -0.992074 -1.67878 0
M  V30 1793 O 173.777 -0.0465 -1.95845 0
M  V30 1794 H 172.357 -0.717897 -0.206479 0
M  V30 1795 H 175.019 -1.94112 0.175062 0
M  V30 1796 H 174.115 -2.97218 -0.952259 0
M  V30 1797 N 174.416 0.165178 -1.56732 0
M  V30 1798 C 175.827 0.727046 -1.71962 0
M  V30 1799 C 176.178 1.82508 -0.720078 0
M  V30 1800 O 175.303 2.16082 0.117242 0
M  V30 1801 C 175.898 1.32559 -3.11791 0
M  V30 1802 C 174.457 1.83422 -3.28684 0
M  V30 1803 C 173.604 0.715567 -2.67908 0
M  V30 1804 H 176.555 -0.0602896 -1.58585 0
M  V30 1805 H 176.576 2.19533 -3.10782 0
M  V30 1806 H 176.088 0.526195 -3.84516 0
M  V30 1807 H 174.189 2.65986 -2.60926 0
M  V30 1808 H 174.302 1.97543 -4.36478 0
M  V30 1809 H 172.666 1.13758 -2.27884 0
M  V30 1810 H 173.449 -0.0720836 -3.43224 0
M  V30 1811 N 175.894 1.51508 0.433938 0
M  V30 1812 C 177.142 1.6402 1.18075 0
M  V30 1813 C 177.463 0.360328 1.91642 0
M  V30 1814 O 176.733 -0.623945 1.85698 0
M  V30 1815 H 175.313 0.6045 0.43885 0
M  V30 1816 H 177.975 1.88452 0.497178 0
M  V30 1817 H 177.071 2.46949 1.90847 0
M  V30 1818 N 177.372 -0.689602 1.41712 0
M  V30 1819 C 178.335 -1.78521 1.43746 0
M  V30 1820 C 179.335 -1.57436 0.327191 0
M  V30 1821 O 180.525 -1.64 0.587348 0
M  V30 1822 C 177.657 -3.16971 1.25467 0
M  V30 1823 H 178.85 -1.78108 2.41283 0
M  V30 1824 H 176.403 -0.89781 1.27942 0
M  V30 1825 H 177.138 -3.23019 0.287948 0
M  V30 1826 H 176.923 -3.33678 2.05917 0
M  V30 1827 H 178.413 -3.96935 1.2974 0
M  V30 1828 N 178.85 -1.27639 -0.924453 0
M  V30 1829 C 179.76 -1.12466 -2.05885 0
M  V30 1830 C 180.776 -0.053869 -1.73917 0
M  V30 1831 O 181.952 -0.261012 -1.99702 0
M  V30 1832 C 179.017 -0.776768 -3.37886 0
M  V30 1833 C 178.078 -1.92878 -3.83532 0
M  V30 1834 C 177.311 -1.59739 -5.09234 0
M  V30 1835 O 177.534 -0.506782 -5.68144 0
M  V30 1836 O 176.468 -2.43761 -5.50331 0
M  V30 1837 H 180.294 -2.07671 -2.21599 0
M  V30 1838 H 177.879 -1.06857 -1.04413 0
M  V30 1839 H 179.761 -0.596229 -4.17161 0
M  V30 1840 H 178.436 0.145732 -3.23372 0
M  V30 1841 H 177.343 -2.1644 -3.0513 0
M  V30 1842 H 178.676 -2.8316 -4.02593 0
M  V30 1843 N 180.328 1.1314 -1.09713 0
M  V30 1844 C 181.238 2.22242 -0.751367 0
M  V30 1845 C 182.254 1.72224 0.247938 0
M  V30 1846 O 183.43 2.01205 0.0885463 0
M  V30 1847 C 180.495 3.46231 -0.180274 0
M  V30 1848 C 179.556 4.11125 -1.2359 0
M  V30 1849 C 178.789 5.29195 -0.691966 0
M  V30 1850 O 179.012 5.68342 0.48414 0
M  V30 1851 O 177.946 5.84214 -1.44838 0
M  V30 1852 H 181.772 2.54197 -1.66186 0
M  V30 1853 H 179.357 1.21331 -0.871735 0
M  V30 1854 H 181.239 4.21185 0.134739 0
M  V30 1855 H 179.914 3.1597 0.703185 0
M  V30 1856 H 178.821 3.37985 -1.60366 0
M  V30 1857 H 180.154 4.45524 -2.09211 0
M  V30 1858 N 181.806 0.884767 1.30421 0
M  V30 1859 C 182.736 0.367574 2.30589 0
M  V30 1860 C 183.717 -0.549464 1.60981 0
M  V30 1861 O 184.902 -0.46336 1.88591 0
M  V30 1862 C 182.032 -0.418944 3.44764 0
M  V30 1863 C 180.986 0.406316 4.26067 0
M  V30 1864 C 180.312 -0.506793 5.32293 0
M  V30 1865 C 181.612 1.64832 4.95608 0
M  V30 1866 H 183.306 1.20462 2.74097 0
M  V30 1867 H 180.852 0.580695 1.31772 0
M  V30 1868 H 182.805 -0.791395 4.13902 0
M  V30 1869 H 181.529 -1.28964 3.0006 0
M  V30 1870 H 180.188 0.760903 3.58617 0
M  V30 1871 H 179.836 -1.37519 4.83836 0
M  V30 1872 H 179.536 0.0415828 5.87585 0
M  V30 1873 H 181.06 -0.875764 6.04287 0
M  V30 1874 H 182.474 1.34646 5.57264 0
M  V30 1875 H 180.871 2.13688 5.60765 0
M  V30 1876 H 181.941 2.39284 4.21748 0
M  V30 1877 N 183.284 -1.43765 0.645699 0
M  V30 1878 C 184.7 -1.56509 0.312591 0
M  V30 1879 C 184.9 -1.6307 -1.18365 0
M  V30 1880 O 183.956 -1.58167 -1.96824 0
M  V30 1881 C 185.269 -2.82968 1.01733 0
M  V30 1882 C 186.817 -2.96701 0.996865 0
M  V30 1883 C 187.292 -4.25982 1.68236 0
M  V30 1884 N 188.783 -4.32829 1.64964 0
M  V30 1885 C 189.518 -5.31613 2.14885 0
M  V30 1886 N 189.014 -6.36718 2.73061 0
M  V30 1887 N 190.807 -5.23217 2.05428 0
M  V30 1888 H 182.958 -1.3775 1.61675 0
M  V30 1889 H 185.221 -0.661067 0.679481 0
M  V30 1890 H 184.927 -2.84156 2.0724 0
M  V30 1891 H 184.801 -3.72957 0.564177 0
M  V30 1892 H 187.188 -2.95058 -0.0497719 0
M  V30 1893 H 187.269 -2.08022 1.48865 0
M  V30 1894 H 186.913 -4.28386 2.72852 0
M  V30 1895 H 186.843 -5.13545 1.16529 0
M  V30 1896 H 189.334 -3.57493 1.22503 0
M  V30 1897 H 189.647 -7.08401 3.08848 0
M  V30 1898 H 187.992 -6.37362 2.77118 0
M  V30 1899 H 191.183 -4.40019 1.59689 0
M  V30 1900 H 191.356 -6.00045 2.44643 0
M  V30 1901 N 184.763 -0.387143 -1.52771 0
M  V30 1902 C 186.179 -0.037007 -1.59557 0
M  V30 1903 C 186.379 1.44801 -1.40124 0
M  V30 1904 O 185.435 2.21227 -1.21716 0
M  V30 1905 C 186.748 -0.512256 -2.96305 0
M  V30 1906 C 188.296 -0.468328 -3.09476 0
M  V30 1907 C 188.771 -0.919731 -4.4867 0
M  V30 1908 N 190.262 -0.875656 -4.54848 0
M  V30 1909 C 190.997 -1.19637 -5.6078 0
M  V30 1910 N 190.493 -1.58745 -6.74368 0
M  V30 1911 N 192.286 -1.11776 -5.50874 0
M  V30 1912 H 184.437 -1.35395 -1.63652 0
M  V30 1913 H 186.7 -0.554818 -0.768688 0
M  V30 1914 H 186.406 -1.54935 -3.15734 0
M  V30 1915 H 186.28 0.089805 -3.77093 0
M  V30 1916 H 188.667 0.559671 -2.89744 0
M  V30 1917 H 188.748 -1.10616 -2.30646 0
M  V30 1918 H 188.392 -1.94595 -4.69143 0
M  V30 1919 H 188.322 -0.258927 -5.25963 0
M  V30 1920 H 190.813 -0.587843 -3.733 0
M  V30 1921 H 191.126 -1.81586 -7.51163 0
M  V30 1922 H 189.471 -1.6263 -6.75705 0
M  V30 1923 H 192.662 -0.811264 -4.61016 0
M  V30 1924 H 192.835 -1.37103 -6.3333 0
M  V30 1925 N 186.241 1.57166 -0.116904 0
M  V30 1926 C 187.469 1.99473 0.549383 0
M  V30 1927 C 187.884 0.996541 1.60357 0
M  V30 1928 O 187.241 -0.0108731 1.82497 0
M  V30 1929 C 187.292 3.41788 1.17741 0
M  V30 1930 O 187.013 4.37788 0.165362 0
M  V30 1931 C 188.514 3.99216 1.92722 0
M  V30 1932 H 185.734 0.655009 0.145616 0
M  V30 1933 H 188.278 2.03494 -0.202625 0
M  V30 1934 H 186.433 3.38713 1.88021 0
M  V30 1935 H 186.847 5.20806 0.621403 0
M  V30 1936 H 188.321 5.00882 2.31995 0
M  V30 1937 H 188.798 3.3824 2.80161 0
M  V30 1938 H 189.404 4.0583 1.27209 0
M  V30 1939 N 187.719 -0.156864 1.56817 0
M  V30 1940 C 188.959 -0.877453 1.84608 0
M  V30 1941 C 189.323 -1.78791 0.699845 0
M  V30 1942 O 190.524 -2.5472 0.858553 0
M  V30 1943 C 188.795 -1.63992 3.17555 0
M  V30 1944 S 190.354 -2.40729 3.66872 0
M  V30 1945 H 187.172 -0.293612 0.647544 0
M  V30 1946 H 189.774 -0.138099 1.95012 0
M  V30 1947 H 188.478 -0.962363 3.98957 0
M  V30 1948 H 188.009 -2.42038 3.10131 0
M  V30 1949 H 190.024 -3.65725 3.3535 0
M  V30 1950 N 189.197 -1.51736 -0.425897 0
M  V30 1951 C 190.422 -1.69082 -1.20108 0
M  V30 1952 C 190.847 -0.392398 -1.83962 0
M  V30 1953 O 190.205 0.64858 -1.69302 0
M  V30 1954 C 190.253 -2.81604 -2.25237 0
M  V30 1955 O 189.357 -2.46004 -3.30992 0
M  V30 1956 H 188.698 -0.563408 -0.35138 0
M  V30 1957 H 191.228 -1.98358 -0.501512 0
M  V30 1958 H 191.238 -3.06025 -2.69838 0
M  V30 1959 H 189.913 -3.75817 -1.78142 0
M  V30 1960 H 188.49 -2.32195 -2.91787 0
M  V30 1961 N 190.675 0.682077 -1.42076 0
M  V30 1962 C 192.086 1.26246 -1.37546 0
M  V30 1963 C 192.437 1.96092 -0.0651481 0
M  V30 1964 O 191.562 1.99587 0.836297 0
M  V30 1965 C 192.157 2.29594 -2.49143 0
M  V30 1966 C 190.716 2.83175 -2.47969 0
M  V30 1967 C 189.863 1.57395 -2.28303 0
M  V30 1968 H 192.814 0.475937 -1.51395 0
M  V30 1969 H 192.835 3.11175 -2.18976 0
M  V30 1970 H 192.347 1.78729 -3.44496 0
M  V30 1971 H 190.448 3.3818 -1.56413 0
M  V30 1972 H 190.561 3.32687 -3.44755 0
M  V30 1973 H 188.925 1.83699 -1.76428 0
M  V30 1974 H 189.708 1.08507 -3.25701 0
M  V30 1975 N 192.153 1.28127 0.917671 0
M  V30 1976 C 193.569 1.05749 1.19538 0
M  V30 1977 C 193.769 -0.202633 2.00479 0
M  V30 1978 O 192.825 -0.905382 2.3571 0
M  V30 1979 C 194.138 2.30273 1.93378 0
M  V30 1980 C 195.686 2.35412 2.06277 0
M  V30 1981 C 196.161 3.59692 2.83524 0
M  V30 1982 N 197.652 3.60309 2.91087 0
M  V30 1983 C 198.387 4.53147 3.51348 0
M  V30 1984 N 197.883 5.563 4.12919 0
M  V30 1985 N 199.676 4.40751 3.48849 0
M  V30 1986 H 191.827 2.09024 0.377184 0
M  V30 1987 H 194.09 0.919798 0.22951 0
M  V30 1988 H 193.796 3.22055 1.41328 0
M  V30 1989 H 193.67 2.36378 2.93947 0
M  V30 1990 H 196.057 1.4413 2.57508 0
M  V30 1991 H 196.138 2.33304 1.04895 0
M  V30 1992 H 195.782 4.51316 2.32973 0
M  V30 1993 H 195.712 3.59054 3.85211 0
M  V30 1994 H 198.203 2.85714 2.47338 0
M  V30 1995 H 198.516 6.2329 4.56869 0
M  V30 1996 H 196.861 5.60131 4.11435 0
M  V30 1997 H 200.052 3.59367 2.99955 0
M  V30 1998 H 200.225 5.13291 3.9552 0
M  V30 1999 N 193.631 -1.12557 1.10312 0
M  V30 2000 C 194.561 -2.20341 0.772798 0
M  V30 2001 C 195.542 -1.68198 -0.25365 0
M  V30 2002 O 196.727 -1.93831 -0.119699 0
M  V30 2003 C 193.857 -3.46709 0.202443 0
M  V30 2004 C 192.811 -4.11996 1.15943 0
M  V30 2005 C 192.137 -5.328 0.450345 0
M  V30 2006 C 193.437 -4.5828 2.50552 0
M  V30 2007 H 195.131 -2.48229 1.674 0
M  V30 2008 H 192.677 -1.19308 0.806326 0
M  V30 2009 H 194.63 -4.2138 -0.0407752 0
M  V30 2010 H 193.354 -3.18245 -0.734001 0
M  V30 2011 H 192.013 -3.39305 1.38808 0
M  V30 2012 H 191.661 -5.00602 -0.490531 0
M  V30 2013 H 191.361 -5.7743 1.08851 0
M  V30 2014 H 192.885 -6.10219 0.215642 0
M  V30 2015 H 194.299 -5.2433 2.31843 0
M  V30 2016 H 192.696 -5.13683 3.10242 0
M  V30 2017 H 193.766 -3.72329 3.10643 0
M  V30 2018 N 195.109 -0.891671 -1.2995 0
M  V30 2019 C 196.334 -0.527932 -2.00568 0
M  V30 2020 C 196.759 0.877969 -1.66353 0
M  V30 2021 O 196.117 1.58301 -0.883762 0
M  V30 2022 C 196.165 -0.717745 -3.53385 0
M  V30 2023 O 195.269 0.233376 -4.11739 0
M  V30 2024 H 194.61 -0.20722 -0.630837 0
M  V30 2025 H 197.14 -1.20105 -1.65638 0
M  V30 2026 H 197.15 -0.619307 -4.03272 0
M  V30 2027 H 195.825 -1.74276 -3.77625 0
M  V30 2028 H 194.402 0.0880706 -3.72796 0
M  V30 2029 N 196.587 1.43421 -0.653314 0
M  V30 2030 C 197.833 2.02111 -0.166992 0
M  V30 2031 C 198.166 1.51423 1.21592 0
M  V30 2032 O 197.441 0.707389 1.8118 0
M  V30 2033 C 197.724 3.5966 -0.177948 0
M  V30 2034 C 197.577 4.20579 -1.59478 0
M  V30 2035 C 198.896 4.37413 0.4856 0
M  V30 2036 H 196.015 0.734374 -0.0621557 0
M  V30 2037 H 198.657 1.70717 -0.834016 0
M  V30 2038 H 196.807 3.86537 0.390032 0
M  V30 2039 H 198.479 4.04732 -2.21336 0
M  V30 2040 H 196.722 3.77226 -2.14204 0
M  V30 2041 H 197.393 5.29665 -1.5543 0
M  V30 2042 H 199.869 4.161 0.00234528 0
M  V30 2043 H 198.745 5.47075 0.447207 0
M  V30 2044 H 199.006 4.13672 1.55974 0
M  V30 2045 N 198.065 0.39524 1.52563 0
M  V30 2046 C 198.995 -0.428384 2.29537 0
M  V30 2047 C 199.976 -1.05831 1.33169 0
M  V30 2048 O 201.161 -1.06995 1.62067 0
M  V30 2049 C 198.291 -1.55274 3.10656 0
M  V30 2050 C 197.245 -1.04855 4.14957 0
M  V30 2051 C 196.571 -2.26543 4.84337 0
M  V30 2052 C 197.871 -0.112324 5.22179 0
M  V30 2053 H 199.565 0.213867 2.98635 0
M  V30 2054 H 197.111 0.104298 1.43622 0
M  V30 2055 H 199.064 -2.1358 3.63265 0
M  V30 2056 H 197.788 -2.22266 2.39302 0
M  V30 2057 H 196.447 -0.487985 3.63338 0
M  V30 2058 H 196.095 -2.92059 4.09525 0
M  V30 2059 H 195.795 -1.93466 5.54837 0
M  V30 2060 H 197.319 -2.85481 5.39753 0
M  V30 2061 H 198.733 -0.603752 5.70112 0
M  V30 2062 H 197.13 0.128968 5.99961 0
M  V30 2063 H 198.2 0.837052 4.77621 0
M  V30 2064 N 199.544 -1.57102 0.125237 0
M  V30 2065 C 200.476 -2.12726 -0.853237 0
M  V30 2066 C 201.489 -1.07145 -1.22571 0
M  V30 2067 O 202.678 -1.34497 -1.17358 0
M  V30 2068 C 199.778 -2.61709 -2.15317 0
M  V30 2069 C 198.951 -3.91456 -1.95143 0
M  V30 2070 C 198.01 -4.25973 -3.08923 0
M  V30 2071 O 197.036 -4.94682 -2.81564 0
M  V30 2072 N 198.238 -3.83795 -4.35524 0
M  V30 2073 H 201.003 -2.97307 -0.377964 0
M  V30 2074 H 198.564 -1.61792 -0.0590011 0
M  V30 2075 H 200.556 -2.81826 -2.90441 0
M  V30 2076 H 199.126 -1.81974 -2.54174 0
M  V30 2077 H 198.346 -3.80185 -1.04177 0
M  V30 2078 H 199.634 -4.76283 -1.78976 0
M  V30 2079 H 199.032 -3.2839 -4.60626 0
M  V30 2080 H 197.589 -4.09008 -5.07499 0
M  V30 2081 N 201.022 0.148545 -1.56898 0
M  V30 2082 C 201.955 1.21293 -1.93296 0
M  V30 2083 C 202.933 1.41637 -0.798599 0
M  V30 2084 O 204.117 1.56275 -1.05406 0
M  V30 2085 C 201.244 2.5721 -2.20365 0
M  V30 2086 C 200.29 2.53469 -3.4301 0
M  V30 2087 S 201.123 2.00315 -4.96623 0
M  V30 2088 C 202.279 3.37964 -5.26812 0
M  V30 2089 H 202.512 0.902393 -2.83274 0
M  V30 2090 H 200.045 0.354094 -1.50285 0
M  V30 2091 H 202.003 3.35427 -2.36641 0
M  V30 2092 H 200.664 2.85454 -1.31054 0
M  V30 2093 H 199.857 3.53518 -3.59223 0
M  V30 2094 H 199.459 1.83359 -3.25968 0
M  V30 2095 H 201.751 4.34066 -5.20185 0
M  V30 2096 H 202.694 3.26606 -6.28279 0
M  V30 2097 H 203.102 3.35028 -4.54331 0
M  V30 2098 N 202.5 1.5196 0.417844 0
M  V30 2099 C 203.777 1.56146 1.17803 0
M  V30 2100 C 204.157 0.337275 2.08388 0
M  V30 2101 O 203.505 -0.676447 2.18258 0
M  V30 2102 C 203.715 2.88566 1.96293 0
M  V30 2103 C 205.063 3.41244 2.52662 0
M  V30 2104 O 206.087 2.90247 2.06483 0
M  V30 2105 O 204.946 4.30273 3.36938 0
M  V30 2106 H 202.04 0.628598 0.537395 0
M  V30 2107 H 204.586 1.64283 0.425331 0
M  V30 2108 H 203.358 3.69116 1.2988 0
M  V30 2109 H 202.981 2.83681 2.78587 0
M  V30 2110 N 203.978 -0.674533 1.42435 0
M  V30 2111 C 205.227 -1.43034 1.42212 0
M  V30 2112 C 205.54 -1.95555 0.0420788 0
M  V30 2113 O 206.746 -2.71374 -0.0827558 0
M  V30 2114 C 205.202 -2.58748 2.50155 0
M  V30 2115 C 204.81 -2.12925 3.94166 0
M  V30 2116 C 206.554 -3.36257 2.59098 0
M  V30 2117 C 204.461 -3.25723 4.93618 0
M  V30 2118 H 203.391 -0.537345 0.528939 0
M  V30 2119 H 206.042 -0.73024 1.68344 0
M  V30 2120 H 204.424 -3.31128 2.17188 0
M  V30 2121 H 205.598 -1.47697 4.36488 0
M  V30 2122 H 203.913 -1.48354 3.89076 0
M  V30 2123 H 206.51 -4.20264 3.30578 0
M  V30 2124 H 206.853 -3.82866 1.63461 0
M  V30 2125 H 207.386 -2.70947 2.9126 0
M  V30 2126 H 204.125 -2.84105 5.90732 0
M  V30 2127 H 203.645 -3.89732 4.55926 0
M  V30 2128 H 205.324 -3.91186 5.15347 0
M  V30 2129 N 205.456 -1.28612 -0.910864 0
M  V30 2130 C 206.684 -1.18792 -1.69399 0
M  V30 2131 C 207.099 0.253039 -1.87097 0
M  V30 2132 O 206.456 1.17071 -1.40003 0
M  V30 2133 C 206.507 -1.88511 -3.08457 0
M  V30 2134 O 206.228 -3.26979 -2.91576 0
M  V30 2135 C 207.729 -1.85029 -4.02839 0
M  V30 2136 H 204.949 -0.412233 -0.529438 0
M  V30 2137 H 207.493 -1.69788 -1.13984 0
M  V30 2138 H 205.648 -1.41379 -3.60681 0
M  V30 2139 H 206.062 -3.61936 -3.79608 0
M  V30 2140 H 207.536 -2.38395 -4.97867 0
M  V30 2141 H 208.013 -0.823303 -4.31414 0
M  V30 2142 H 208.619 -2.31853 -3.56545 0
M  V30 2143 N 206.934 1.1197 -1.10907 0
M  V30 2144 C 207.881 2.17846 -0.762345 0
M  V30 2145 C 208.851 1.63995 0.263599 0
M  V30 2146 O 210.036 1.90273 0.141773 0
M  V30 2147 C 207.176 3.44487 -0.205651 0
M  V30 2148 C 206.289 4.12369 -1.28748 0
M  V30 2149 C 205.424 5.26674 -0.691919 0
M  V30 2150 C 204.463 5.86431 -1.75399 0
M  V30 2151 N 203.6 6.92142 -1.17833 0
M  V30 2152 H 208.44 2.46851 -1.6694 0
M  V30 2153 H 205.977 1.21188 -0.833776 0
M  V30 2154 H 207.935 4.16981 0.135037 0
M  V30 2155 H 206.565 3.15884 0.664613 0
M  V30 2156 H 205.617 3.38003 -1.74522 0
M  V30 2157 H 206.929 4.52844 -2.09125 0
M  V30 2158 H 206.083 6.05953 -0.300963 0
M  V30 2159 H 204.822 4.8749 0.143232 0
M  V30 2160 H 203.827 5.05835 -2.15432 0
M  V30 2161 H 205.052 6.27685 -2.59208 0
M  V30 2162 H 202.998 6.54985 -0.364725 0
M  V30 2163 H 202.915 7.31242 -1.91887 0
M  V30 2164 H 204.183 7.75237 -0.81408 0
M  V30 2165 N 208.412 0.89855 1.29475 0
M  V30 2166 C 209.823 0.572537 1.77705 0
M  V30 2167 C 210.174 -0.911778 1.73727 0
M  V30 2168 O 209.299 -1.71288 1.32247 0
M  V30 2169 C 209.894 1.03252 3.22683 0
M  V30 2170 C 208.453 0.757687 3.68695 0
M  V30 2171 C 207.6 1.20787 2.49612 0
M  V30 2172 H 210.551 1.08139 1.16153 0
M  V30 2173 H 210.572 0.367307 3.78723 0
M  V30 2174 H 210.084 2.11285 3.25546 0
M  V30 2175 H 208.185 -0.310079 3.71308 0
M  V30 2176 H 208.298 1.35476 4.59547 0
M  V30 2177 H 206.662 0.626888 2.46865 0
M  V30 2178 H 207.445 2.29622 2.55203 0
M  V30 2179 N 209.89 -1.43072 0.660911 0
M  V30 2180 C 211.136 -2.0202 0.177708 0
M  V30 2181 C 211.469 -1.52066 -1.20787 0
M  V30 2182 O 210.744 -0.716987 -1.80802 0
M  V30 2183 C 211.027 -3.59561 0.197019 0
M  V30 2184 C 210.88 -4.19727 1.61706 0
M  V30 2185 C 212.199 -4.37664 -0.462396 0
M  V30 2186 H 209.318 -0.734034 0.0660494 0
M  V30 2187 H 211.96 -1.70272 0.843058 0
M  V30 2188 H 210.11 -3.86739 -0.369527 0
M  V30 2189 H 211.782 -4.03553 2.23479 0
M  V30 2190 H 210.025 -3.76084 2.16201 0
M  V30 2191 H 210.696 -5.28834 1.58237 0
M  V30 2192 H 213.172 -4.16095 0.0197215 0
M  V30 2193 H 212.048 -5.47305 -0.418188 0
M  V30 2194 H 212.309 -4.14493 -1.53778 0
M  V30 2195 N 211.368 -0.403325 -1.52352 0
M  V30 2196 C 212.3 0.4603 -2.2453 0
M  V30 2197 C 213.313 1.01505 -1.27282 0
M  V30 2198 O 214.502 0.914982 -1.53266 0
M  V30 2199 C 211.602 1.65208 -2.95905 0
M  V30 2200 C 210.775 1.22224 -4.19976 0
M  V30 2201 C 209.834 2.28028 -4.74226 0
M  V30 2202 O 208.86 1.88857 -5.36956 0
M  V30 2203 N 210.062 3.6012 -4.55295 0
M  V30 2204 H 212.827 -0.158156 -2.99282 0
M  V30 2205 H 210.388 -0.230402 -1.60252 0
M  V30 2206 H 212.38 2.35541 -3.29093 0
M  V30 2207 H 210.95 2.17658 -2.24374 0
M  V30 2208 H 210.17 0.34725 -3.92668 0
M  V30 2209 H 211.458 0.911924 -5.00561 0
M  V30 2210 H 210.856 3.94698 -4.05253 0
M  V30 2211 H 209.413 4.26447 -4.92936 0
M  V30 2212 N 212.846 1.57033 -0.133567 0
M  V30 2213 C 214.095 1.94861 0.520768 0
M  V30 2214 C 214.408 1.02012 1.66892 0
M  V30 2215 O 215.614 1.29365 2.38699 0
M  V30 2216 C 214.07 3.46362 0.977809 0
M  V30 2217 C 213.678 4.47773 -0.142674 0
M  V30 2218 C 215.422 3.93083 1.60269 0
M  V30 2219 C 213.329 5.90468 0.331883 0
M  V30 2220 H 212.259 0.727453 0.198315 0
M  V30 2221 H 214.91 1.82227 -0.215759 0
M  V30 2222 H 213.292 3.54282 1.7692 0
M  V30 2223 H 214.466 4.51536 -0.919317 0
M  V30 2224 H 212.781 4.10891 -0.675124 0
M  V30 2225 H 215.378 4.97121 1.96914 0
M  V30 2226 H 215.721 3.33876 2.48662 0
M  V30 2227 H 216.254 3.88025 0.876453 0
M  V30 2228 H 212.993 6.53463 -0.516341 0
M  V30 2229 H 212.513 5.90094 1.07469 0
M  V30 2230 H 214.192 6.42179 0.788332 0
M  V30 2231 N 214.325 -0.140222 1.56975 0
M  V30 2232 C 215.272 -1.17292 1.98774 0
M  V30 2233 C 216.242 -1.4232 0.856408 0
M  V30 2234 O 217.427 -1.54541 1.119 0
M  V30 2235 C 214.567 -2.49973 2.37923 0
M  V30 2236 C 213.68 -2.32062 3.64378 0
M  V30 2237 C 212.815 -3.57825 3.926 0
M  V30 2238 C 211.854 -3.3498 5.12303 0
M  V30 2239 N 210.991 -4.52891 5.36502 0
M  V30 2240 H 215.831 -0.809472 2.86795 0
M  V30 2241 H 213.368 -0.388237 1.41884 0
M  V30 2242 H 215.326 -3.27346 2.58652 0
M  V30 2243 H 213.956 -2.84252 1.52972 0
M  V30 2244 H 213.008 -1.45711 3.51387 0
M  V30 2245 H 214.32 -2.11145 4.51906 0
M  V30 2246 H 213.474 -4.43624 4.13863 0
M  V30 2247 H 212.213 -3.81753 3.03506 0
M  V30 2248 H 211.218 -2.4757 4.90906 0
M  V30 2249 H 212.443 -3.12444 6.02956 0
M  V30 2250 H 210.389 -4.76979 4.50363 0
M  V30 2251 H 210.306 -4.35001 6.18312 0
M  V30 2252 H 211.574 -5.39884 5.62268 0
M  V30 2253 N 215.803 -1.52179 -0.40978 0
M  V30 2254 C 217.08 -1.56769 -1.16974 0
M  V30 2255 C 217.46 -0.348322 -2.08206 0
M  V30 2256 O 216.808 0.664862 -2.18613 0
M  V30 2257 C 217.018 -2.89603 -1.9476 0
M  V30 2258 C 218.366 -3.42579 -2.50849 0
M  V30 2259 O 219.39 -2.91338 -2.04941 0
M  V30 2260 O 218.249 -4.32054 -3.34652 0
M  V30 2261 H 215.343 -0.631439 -0.534054 0
M  V30 2262 H 217.889 -1.64507 -0.416613 0
M  V30 2263 H 216.661 -3.698 -1.27921 0
M  V30 2264 H 216.284 -2.85155 -2.77079 0
M  V30 2265 N 217.281 0.66697 -1.42791 0
M  V30 2266 C 218.244 1.76211 -1.46568 0
M  V30 2267 C 219.244 1.56896 -0.352196 0
M  V30 2268 O 220.434 1.63044 -0.613364 0
M  V30 2269 C 217.566 3.14935 -1.30494 0
M  V30 2270 H 218.759 1.74247 -2.44086 0
M  V30 2271 H 216.312 0.877342 -1.29354 0
M  V30 2272 H 217.047 3.2252 -0.339301 0
M  V30 2273 H 216.832 3.30359 -2.11199 0
M  V30 2274 H 218.322 3.94821 -1.36038 0
M  V30 2275 N 218.759 1.29093 0.90403 0
M  V30 2276 C 219.989 1.19516 1.68522 0
M  V30 2277 C 220.397 -0.24738 1.87576 0
M  V30 2278 O 219.74 -1.17798 1.40959 0
M  V30 2279 C 219.802 1.83249 3.0929 0
M  V30 2280 C 219.466 3.32531 3.13484 0
M  V30 2281 C 220.463 4.28821 2.93953 0
M  V30 2282 C 218.148 3.73656 3.35688 0
M  V30 2283 C 220.142 5.64212 2.96553 0
M  V30 2284 C 217.829 5.0917 3.37919 0
M  V30 2285 C 218.827 6.04258 3.18373 0
M  V30 2286 O 218.515 7.37298 3.20385 0
M  V30 2287 H 218.247 0.415467 0.533257 0
M  V30 2288 H 220.801 1.70912 1.13922 0
M  V30 2289 H 219.031 1.26358 3.65473 0
M  V30 2290 H 220.72 1.68054 3.69476 0
M  V30 2291 H 221.486 3.98382 2.76616 0
M  V30 2292 H 217.365 3.00101 3.49943 0
M  V30 2293 H 220.909 6.38407 2.81216 0
M  V30 2294 H 216.806 5.39256 3.54787 0
M  V30 2295 H 217.574 7.46048 3.36681 0
M  V30 2296 N 220.237 -1.11381 1.11499 0
M  V30 2297 C 221.462 -1.87475 0.887019 0
M  V30 2298 C 221.887 -1.79639 -0.557796 0
M  V30 2299 O 221.245 -1.15924 -1.39396 0
M  V30 2300 C 221.293 -3.34213 1.35403 0
M  V30 2301 O 220.397 -4.0903 0.526146 0
M  V30 2302 H 219.738 -0.582099 0.319463 0
M  V30 2303 H 222.268 -1.40785 1.48461 0
M  V30 2304 H 222.278 -3.8506 1.34881 0
M  V30 2305 H 220.953 -3.39232 2.40612 0
M  V30 2306 H 219.53 -3.68082 0.597522 0
M  V30 2307 N 221.715 -0.905404 -1.28997 0
M  V30 2308 C 222.662 -0.385892 -2.27551 0
M  V30 2309 C 223.632 0.535113 -1.57244 0
M  V30 2310 O 224.817 0.459119 -1.85194 0
M  V30 2311 C 221.957 0.375461 -3.43051 0
M  V30 2312 C 221.07 -0.577092 -4.28128 0
M  V30 2313 C 220.205 0.201879 -5.30816 0
M  V30 2314 C 219.244 -0.744829 -6.07551 0
M  V30 2315 N 218.381 9.42587e-05 -7.021 0
M  V30 2316 H 223.221 -1.23139 -2.71368 0
M  V30 2317 H 220.758 -0.618542 -1.33463 0
M  V30 2318 H 222.716 0.832992 -4.088 0
M  V30 2319 H 221.346 1.18537 -3.00248 0
M  V30 2320 H 220.398 -1.15315 -3.62501 0
M  V30 2321 H 221.71 -1.30152 -4.8152 0
M  V30 2322 H 220.864 0.720351 -6.02408 0
M  V30 2323 H 219.603 0.959413 -4.7817 0
M  V30 2324 H 218.608 -1.27475 -5.34818 0
M  V30 2325 H 219.833 -1.50178 -6.62286 0
M  V30 2326 H 217.779 0.739791 -6.51815 0
M  V30 2327 H 217.696 -0.664321 -7.53076 0
M  V30 2328 H 218.964 0.498644 -7.77903 0
M  V30 2329 N 223.193 1.4272 -0.668489 0
M  V30 2330 C 224.439 2.01923 -0.188419 0
M  V30 2331 C 224.772 1.52704 1.19979 0
M  V30 2332 O 224.047 0.726566 1.8042 0
M  V30 2333 C 224.33 3.59451 -0.216085 0
M  V30 2334 C 224.183 4.18864 -1.6393 0
M  V30 2335 C 225.502 4.37903 0.439179 0
M  V30 2336 H 222.621 0.733674 -0.0699412 0
M  V30 2337 H 225.263 1.69822 -0.852076 0
M  V30 2338 H 223.413 3.86929 0.349012 0
M  V30 2339 H 225.085 4.02362 -2.25616 0
M  V30 2340 H 223.328 3.74933 -2.18193 0
M  V30 2341 H 223.999 5.27987 -1.61039 0
M  V30 2342 H 226.475 4.16079 -0.0417878 0
M  V30 2343 H 225.351 5.47519 0.389157 0
M  V30 2344 H 225.612 4.15303 1.51577 0
M  V30 2345 N 224.671 0.411399 1.52136 0
M  V30 2346 C 225.634 -0.401089 2.25663 0
M  V30 2347 C 226.634 -0.971732 1.28117 0
M  V30 2348 O 227.824 -0.850254 1.52041 0
M  V30 2349 C 224.956 -1.56483 3.02863 0
M  V30 2350 H 226.149 0.24295 2.98914 0
M  V30 2351 H 223.702 0.163968 1.55438 0
M  V30 2352 H 224.437 -2.24567 2.33967 0
M  V30 2353 H 224.222 -1.16211 3.74483 0
M  V30 2354 H 225.712 -2.13951 3.58629 0
M  V30 2355 N 226.149 -1.5696 0.141893 0
M  V30 2356 C 227.112 -2.15316 -0.785587 0
M  V30 2357 C 228.112 -1.09366 -1.1788 0
M  V30 2358 O 229.302 -1.35031 -1.10056 0
M  V30 2359 C 226.434 -2.71211 -2.06537 0
M  V30 2360 H 227.627 -2.98608 -0.278041 0
M  V30 2361 H 225.18 -1.5593 -0.107519 0
M  V30 2362 H 225.915 -1.91571 -2.6167 0
M  V30 2363 H 225.7 -3.4872 -1.79268 0
M  V30 2364 H 227.19 -3.16189 -2.72789 0
M  V30 2365 N 227.627 0.131896 -1.57047 0
M  V30 2366 C 228.56 1.19236 -1.94571 0
M  V30 2367 C 229.538 1.40782 -0.813576 0
M  V30 2368 O 230.722 1.55148 -1.07058 0
M  V30 2369 C 227.849 2.54858 -2.23081 0
M  V30 2370 C 226.895 2.49817 -3.45679 0
M  V30 2371 S 227.728 1.95036 -4.98719 0
M  V30 2372 C 228.884 3.32357 -5.30367 0
M  V30 2373 H 229.117 0.872297 -2.84215 0
M  V30 2374 H 226.65 0.338134 -1.50652 0
M  V30 2375 H 228.608 3.32898 -2.40185 0
M  V30 2376 H 227.269 2.84047 -1.34074 0
M  V30 2377 H 226.462 3.49688 -3.62952 0
M  V30 2378 H 226.064 1.79892 -3.27895 0
M  V30 2379 H 228.356 4.28525 -5.2476 0
M  V30 2380 H 229.299 3.19923 -6.31708 0
M  V30 2381 H 229.707 3.3019 -4.57859 0
M  V30 2382 N 229.106 1.52395 0.401703 0
M  V30 2383 C 230.036 1.79231 1.49661 0
M  V30 2384 C 231.017 0.643654 1.57452 0
M  V30 2385 O 232.202 0.889989 1.72606 0
M  V30 2386 C 229.332 1.94971 2.87409 0
M  V30 2387 C 228.286 3.10604 2.94465 0
M  V30 2388 C 227.612 3.11577 4.34538 0
M  V30 2389 C 228.912 4.49921 2.6527 0
M  V30 2390 H 230.606 2.70917 1.27454 0
M  V30 2391 H 228.152 1.30362 0.6117 0
M  V30 2392 H 230.105 2.12328 3.63999 0
M  V30 2393 H 228.829 0.999632 3.10926 0
M  V30 2394 H 227.488 2.93009 2.20321 0
M  V30 2395 H 227.136 2.14277 4.55076 0
M  V30 2396 H 226.836 3.89247 4.40183 0
M  V30 2397 H 228.36 3.31073 5.13053 0
M  V30 2398 H 229.774 4.67683 3.31581 0
M  V30 2399 H 228.171 5.29564 2.82281 0
M  V30 2400 H 229.241 4.57507 1.60671 0
M  V30 2401 N 230.584 -0.659388 1.43143 0
M  V30 2402 C 231.516 -1.7849 1.43784 0
M  V30 2403 C 232.529 -1.5932 0.334787 0
M  V30 2404 O 233.718 -1.68155 0.598842 0
M  V30 2405 C 230.818 -3.15828 1.22906 0
M  V30 2406 C 229.991 -3.61711 2.45934 0
M  V30 2407 C 229.05 -4.77831 2.20371 0
M  V30 2408 O 228.076 -4.87586 2.93681 0
M  V30 2409 N 229.278 -5.67611 1.21647 0
M  V30 2410 H 232.043 -1.7842 2.40803 0
M  V30 2411 H 229.604 -0.84302 1.3822 0
M  V30 2412 H 231.596 -3.91189 1.03697 0
M  V30 2413 H 230.166 -3.10707 0.343542 0
M  V30 2414 H 229.386 -2.76861 2.80609 0
M  V30 2415 H 230.674 -3.89112 3.27825 0
M  V30 2416 H 230.072 -5.62397 0.610449 0
M  V30 2417 H 228.629 -6.42719 1.08423 0
M  V30 2418 N 232.062 -1.29571 -0.897171 0
M  V30 2419 C 233.339 -1.08365 -1.62839 0
M  V30 2420 C 233.719 0.371331 -2.07808 0
M  V30 2421 O 233.067 1.3606 -1.83576 0
M  V30 2422 C 233.277 -2.0735 -2.80726 0
M  V30 2423 C 234.625 -2.38406 -3.51351 0
M  V30 2424 O 235.649 -2.05564 -2.90898 0
M  V30 2425 O 234.508 -2.9453 -4.60341 0
M  V30 2426 H 231.602 -0.415345 -0.715134 0
M  V30 2427 H 234.148 -1.40952 -0.945018 0
M  V30 2428 H 232.92 -3.05339 -2.44711 0
M  V30 2429 H 232.543 -1.75507 -3.56767 0
M  V30 2430 N 233.54 1.10788 -1.12088 0
M  V30 2431 C 234.956 1.34691 -0.856186 0
M  V30 2432 C 235.156 1.94791 0.515615 0
M  V30 2433 O 234.212 2.18524 1.26505 0
M  V30 2434 C 235.525 2.27208 -1.9697 0
M  V30 2435 C 237.073 2.40755 -2.00016 0
M  V30 2436 C 237.548 3.36598 -3.1059 0
M  V30 2437 N 239.039 3.44164 -3.10008 0
M  V30 2438 C 239.774 4.18284 -3.92206 0
M  V30 2439 N 239.27 4.95322 -4.84384 0
M  V30 2440 N 241.063 4.13865 -3.80357 0
M  V30 2441 H 233.214 0.70144 -2.00483 0
M  V30 2442 H 235.477 0.371405 -0.872217 0
M  V30 2443 H 235.183 1.90251 -2.958 0
M  V30 2444 H 235.057 3.27485 -1.87172 0
M  V30 2445 H 237.444 2.76982 -1.01808 0
M  V30 2446 H 237.525 1.40305 -2.13888 0
M  V30 2447 H 237.169 3.01096 -4.09028 0
M  V30 2448 H 237.099 4.36918 -2.93956 0
M  V30 2449 H 239.59 2.8922 -2.43228 0
M  V30 2450 H 239.903 5.49267 -5.43623 0
M  V30 2451 H 238.248 4.94459 -4.884 0
M  V30 2452 H 241.439 3.52773 -3.07683 0
M  V30 2453 H 241.612 4.71372 -4.44649 0
M  V30 2454 N 235.018 0.912232 1.28515 0
M  V30 2455 C 236.266 0.543523 1.94654 0
M  V30 2456 C 236.587 -0.9155 1.72173 0
M  V30 2457 O 235.857 -1.64708 1.06058 0
M  V30 2458 H 234.437 0.198017 0.720277 0
M  V30 2459 H 237.099 1.16126 1.56527 0
M  V30 2460 H 236.195 0.736684 3.03281 0
M  V30 2461 N 236.496 -1.42363 0.676048 0
M  V30 2462 C 237.426 -2.33497 0.0124832 0
M  V30 2463 C 238.407 -1.50748 -0.787981 0
M  V30 2464 O 239.592 -1.79346 -0.744884 0
M  V30 2465 C 236.722 -3.34377 -0.938582 0
M  V30 2466 C 235.676 -4.27289 -0.246622 0
M  V30 2467 C 235.002 -5.18386 -1.31071 0
M  V30 2468 C 236.302 -5.14916 0.875125 0
M  V30 2469 H 237.996 -2.89233 0.773593 0
M  V30 2470 H 235.542 -1.39073 0.37346 0
M  V30 2471 H 237.495 -3.97044 -1.41188 0
M  V30 2472 H 236.219 -2.76947 -1.73113 0
M  V30 2473 H 234.878 -3.66018 0.206456 0
M  V30 2474 H 234.526 -4.57282 -2.09528 0
M  V30 2475 H 234.226 -5.81378 -0.852839 0
M  V30 2476 H 235.75 -5.83929 -1.78492 0
M  V30 2477 H 237.164 -5.71262 0.482983 0
M  V30 2478 H 235.561 -5.86747 1.25887 0
M  V30 2479 H 236.631 -4.53242 1.72335 0
M  V30 2480 N 237.974 -0.419461 -1.51915 0
M  V30 2481 C 239.22 0.145505 -2.02879 0
M  V30 2482 C 239.575 1.41926 -1.29903 0
M  V30 2483 O 238.868 1.87383 -0.399782 0
M  V30 2484 C 239.062 0.437067 -3.54717 0
M  V30 2485 C 238.891 -0.806877 -4.42402 0
M  V30 2486 C 237.661 -1.33514 -4.87342 0
M  V30 2487 C 239.859 -1.68796 -4.85811 0
M  V30 2488 N 237.841 -2.53349 -5.59185 0
M  V30 2489 C 239.212 -2.73247 -5.56539 0
M  V30 2490 C 241.267 -1.70449 -4.67816 0
M  V30 2491 C 239.97 -3.79276 -6.11181 0
M  V30 2492 C 241.996 -2.75403 -5.23361 0
M  V30 2493 C 241.358 -3.78575 -5.9402 0
M  V30 2494 H 237.457 0.0145424 -0.781865 0
M  V30 2495 H 240.041 -0.576126 -1.85981 0
M  V30 2496 H 238.212 1.12774 -3.71667 0
M  V30 2497 H 239.944 0.99182 -3.92358 0
M  V30 2498 H 236.699 -0.891657 -4.65131 0
M  V30 2499 H 237.123 -3.14066 -5.99743 0
M  V30 2500 H 241.765 -0.920209 -4.12664 0
M  V30 2501 H 239.483 -4.58554 -6.65397 0
M  V30 2502 H 243.069 -2.77603 -5.113 0
M  V30 2503 H 241.949 -4.58453 -6.36231 0
M  V30 2504 N 239.452 1.56882 -0.150215 0
M  V30 2505 C 240.415 2.1573 0.774157 0
M  V30 2506 C 241.415 1.0999 1.17298 0
M  V30 2507 O 242.605 1.35613 1.09338 0
M  V30 2508 C 239.737 2.72302 2.05096 0
M  V30 2509 H 240.93 2.98752 0.262201 0
M  V30 2510 H 238.483 1.55985 0.099248 0
M  V30 2511 H 239.218 1.92956 2.6065 0
M  V30 2512 H 239.003 3.49665 1.77416 0
M  V30 2513 H 240.493 3.17632 2.71109 0
M  V30 2514 N 240.93 -0.123565 1.57115 0
M  V30 2515 C 242.176 -0.833386 1.84885 0
M  V30 2516 C 242.509 -1.79742 0.735292 0
M  V30 2517 O 241.784 -1.92764 -0.25925 0
M  V30 2518 C 242.067 -1.5873 3.23228 0
M  V30 2519 C 241.92 -0.643183 4.45178 0
M  V30 2520 C 243.239 -2.54453 3.59085 0
M  V30 2521 H 240.358 -0.301518 0.6725 0
M  V30 2522 H 243 -0.097778 1.89748 0
M  V30 2523 H 241.15 -2.21438 3.19214 0
M  V30 2524 H 242.822 -0.0253015 4.61293 0
M  V30 2525 H 241.065 0.0456139 4.33776 0
M  V30 2526 H 241.736 -1.20724 5.38637 0
M  V30 2527 H 244.212 -2.01853 3.63861 0
M  V30 2528 H 243.088 -3.04238 4.5687 0
M  V30 2529 H 243.349 -3.36906 2.86264 0
M  V30 2530 N 242.408 -1.52605 -0.393616 0
M  V30 2531 C 243.657 -1.66649 -1.13627 0
M  V30 2532 C 243.97 -0.410364 -1.91247 0
M  V30 2533 O 245.176 -0.430854 -2.68059 0
M  V30 2534 C 243.632 -2.9449 -2.06891 0
M  V30 2535 C 243.24 -4.27266 -1.34714 0
M  V30 2536 C 244.984 -3.17899 -2.81319 0
M  V30 2537 C 242.891 -5.46217 -2.26717 0
M  V30 2538 H 241.821 -0.62084 -0.427871 0
M  V30 2539 H 244.472 -1.791 -0.399428 0
M  V30 2540 H 242.854 -2.75774 -2.84191 0
M  V30 2541 H 244.028 -4.56518 -0.626714 0
M  V30 2542 H 242.343 -4.10081 -0.722643 0
M  V30 2543 H 244.94 -4.03949 -3.50328 0
M  V30 2544 H 245.283 -2.32777 -3.45139 0
M  V30 2545 H 245.816 -3.37159 -2.11113 0
M  V30 2546 H 242.555 -6.33733 -1.67521 0
M  V30 2547 H 242.075 -5.21283 -2.96689 0
M  V30 2548 H 243.754 -5.7991 -2.86903 0
M  V30 2549 N 243.887 0.651787 -1.4349 0
M  V30 2550 C 244.835 1.78586 -1.49029 0
M  V30 2551 C 245.829 1.65448 -0.363767 0
M  V30 2552 O 247.035 1.71777 -0.537821 0
M  V30 2553 H 243.41 0.589236 -0.467231 0
M  V30 2554 H 245.381 1.71035 -2.44519 0
M  V30 2555 C 244.13 3.16851 -1.43181 0
M  V30 2556 H 243.453 3.27598 -2.29171 0
M  V30 2557 H 244.893 3.96156 -1.51118 0
M  V30 2558 C 243.352 3.36568 -0.149616 0
M  V30 2559 O 243.882 3.93885 0.788509 0
M  V30 2560 N 242.088 2.90539 -0.0593484 0
M  V30 2561 H 241.635 2.4408 -0.823575 0
M  V30 2562 H 241.593 3.04108 0.797853 0
M  V30 2563 N 245.365 1.30045 0.890287 0
M  V30 2564 C 246.313 1.15873 2.01683 0
M  V30 2565 C 247.307 0.0719403 1.69247 0
M  V30 2566 O 248.513 0.232414 1.78493 0
M  V30 2567 H 244.888 0.358203 0.661207 0
M  V30 2568 H 246.859 2.11229 2.10772 0
M  V30 2569 C 245.608 0.861842 3.36849 0
M  V30 2570 H 244.931 1.69016 3.62317 0
M  V30 2571 H 246.371 0.802762 4.16331 0
M  V30 2572 C 244.83 -0.435132 3.34078 0
M  V30 2573 O 245.36 -1.4583 3.74295 0
M  V30 2574 N 243.566 -0.444377 2.87182 0
M  V30 2575 H 243.113 0.388723 2.5465 0
M  V30 2576 H 243.071 -1.31213 2.85711 0
M  V30 2577 N 246.843 -1.10192 1.12674 0
M  V30 2578 C 247.806 -2.14786 0.799979 0
M  V30 2579 C 248.806 -1.59711 -0.18685 0
M  V30 2580 O 249.996 -1.74156 0.0392558 0
M  V30 2581 C 247.128 -3.40374 0.189228 0
M  V30 2582 H 248.321 -2.45203 1.72671 0
M  V30 2583 H 245.874 -1.25597 0.930326 0
M  V30 2584 H 246.609 -3.15577 -0.747107 0
M  V30 2585 H 246.394 -3.81637 0.899766 0
M  V30 2586 H 247.884 -4.17594 -0.0228143 0
M  V30 2587 N 248.321 -0.919034 -1.28029 0
M  V30 2588 C 249.569 -0.553838 -1.94363 0
M  V30 2589 C 249.89 0.906357 -1.72656 0
M  V30 2590 O 249.16 1.64143 -1.0693 0
M  V30 2591 H 247.74 -0.201834 -0.719216 0
M  V30 2592 H 250.402 -1.16954 -1.55909 0
M  V30 2593 H 249.498 -0.752758 -3.02886 0
M  V30 2594 N 249.799 1.42003 -0.683588 0
M  V30 2595 C 251.045 2.01712 -0.209825 0
M  V30 2596 C 251.378 1.53968 1.18353 0
M  V30 2597 O 250.653 0.745661 1.79639 0
M  V30 2598 C 250.936 3.59202 -0.254197 0
M  V30 2599 C 250.789 4.17102 -1.68363 0
M  V30 2600 C 252.108 4.38344 0.392709 0
M  V30 2601 H 249.227 0.732891 -0.0777189 0
M  V30 2602 H 251.869 1.68909 -0.87004 0
M  V30 2603 H 250.019 3.87278 0.307954 0
M  V30 2604 H 251.691 3.99946 -2.29871 0
M  V30 2605 H 249.934 3.72597 -2.22157 0
M  V30 2606 H 250.605 5.26249 -1.6663 0
M  V30 2607 H 253.081 4.16011 -0.0859162 0
M  V30 2608 H 251.957 5.47901 0.331063 0
M  V30 2609 H 252.218 4.16887 1.47164 0
M  V30 2610 N 251.277 0.427512 1.51691 0
M  V30 2611 C 252.207 -0.3796 2.30394 0
M  V30 2612 C 253.188 -1.02982 1.35384 0
M  V30 2613 O 254.373 -1.03534 1.643 0
M  V30 2614 C 251.503 -1.48649 3.1388 0
M  V30 2615 C 250.457 -0.960294 4.17088 0
M  V30 2616 C 249.783 -2.16219 4.89033 0
M  V30 2617 C 251.083 -0.00153679 5.223 0
M  V30 2618 H 252.777 0.277164 2.98114 0
M  V30 2619 H 250.323 0.134739 1.43368 0
M  V30 2620 H 252.276 -2.05826 3.67714 0
M  V30 2621 H 251 -2.1714 2.43962 0
M  V30 2622 H 249.659 -0.410806 3.64291 0
M  V30 2623 H 249.307 -2.83307 4.15628 0
M  V30 2624 H 249.007 -1.81654 5.58816 0
M  V30 2625 H 250.531 -2.73968 5.45687 0
M  V30 2626 H 251.945 -0.482687 5.71264 0
M  V30 2627 H 250.342 0.256199 5.99553 0
M  V30 2628 H 251.412 0.938174 4.75738 0
M  V30 2629 N 252.755 -1.56801 0.158532 0
M  V30 2630 C 254.003 -1.96102 -0.488712 0
M  V30 2631 C 254.324 -1.04498 -1.64636 0
M  V30 2632 O 253.594 -0.108783 -1.95598 0
M  V30 2633 H 252.174 -0.724102 -0.183535 0
M  V30 2634 H 254.836 -1.93457 0.236728 0
M  V30 2635 H 253.932 -3.00097 -0.857219 0
M  V30 2636 N 254.233 0.115231 -1.57178 0
M  V30 2637 C 255.48 0.822351 -1.8505 0
M  V30 2638 C 255.808 1.79701 -0.744168 0
M  V30 2639 O 255.063 1.93909 0.26414 0
M  V30 2640 C 255.362 1.60324 -3.19423 0
M  V30 2641 C 255.028 0.772536 -4.44233 0
M  V30 2642 C 253.69 0.543468 -4.78121 0
M  V30 2643 C 256.042 0.193746 -5.2084 0
M  V30 2644 C 253.37 -0.274583 -5.86057 0
M  V30 2645 C 255.722 -0.611517 -6.29637 0
M  V30 2646 C 254.386 -0.850867 -6.62055 0
M  V30 2647 H 253.656 0.30092 -0.677147 0
M  V30 2648 H 256.303 0.0845802 -1.91313 0
M  V30 2649 H 254.608 2.41203 -3.08753 0
M  V30 2650 H 256.305 2.1544 -3.38211 0
M  V30 2651 H 252.895 0.96117 -4.17683 0
M  V30 2652 H 257.079 0.357926 -4.95008 0
M  V30 2653 H 252.335 -0.469206 -6.09597 0
M  V30 2654 H 256.509 -1.06697 -6.88178 0
M  V30 2655 H 254.136 -1.48657 -7.45523 0
M  V30 2656 N 255.711 1.52812 0.385517 0
M  V30 2657 C 257.122 1.5993 0.963293 0
M  V30 2658 C 257.473 0.454302 1.90868 0
M  V30 2659 O 256.598 -0.422132 2.12243 0
M  V30 2660 C 257.193 2.89871 1.75387 0
M  V30 2661 C 255.752 2.99389 2.28129 0
M  V30 2662 C 254.899 2.55071 1.08783 0
M  V30 2663 H 257.85 1.5784 0.164948 0
M  V30 2664 H 257.871 2.76553 2.61341 0
M  V30 2665 H 257.383 3.73186 1.06554 0
M  V30 2666 H 255.484 2.20619 3.00263 0
M  V30 2667 H 255.597 4.04096 2.57377 0
M  V30 2668 H 253.961 2.09473 1.4489 0
M  V30 2669 H 254.744 3.40785 0.414807 0
M  V30 2670 N 257.189 -0.644168 1.43834 0
M  V30 2671 C 258.417 -1.43147 1.49387 0
M  V30 2672 C 258.832 -1.88452 0.114583 0
M  V30 2673 O 258.189 -1.60047 -0.876989 0
M  V30 2674 C 258.24 -2.66046 2.44748 0
M  V30 2675 O 257.961 -2.22633 3.77314 0
M  V30 2676 C 259.462 -3.59311 2.59635 0
M  V30 2677 H 256.682 -0.439447 0.507077 0
M  V30 2678 H 259.226 -0.78895 1.88669 0
M  V30 2679 H 257.381 -3.26418 2.08638 0
M  V30 2680 H 257.795 -3.02216 4.28679 0
M  V30 2681 H 259.269 -4.42187 3.30416 0
M  V30 2682 H 259.746 -4.07259 1.64427 0
M  V30 2683 H 260.352 -3.04816 2.96593 0
M  V30 2684 N 258.668 -1.30515 -0.883378 0
M  V30 2685 C 259.945 -1.10086 -1.6168 0
M  V30 2686 C 260.325 0.349269 -2.08191 0
M  V30 2687 O 259.673 1.34105 -1.85008 0
M  V30 2688 C 259.883 -2.10315 -2.78511 0
M  V30 2689 C 261.231 -2.42119 -3.48803 0
M  V30 2690 O 262.255 -2.08638 -2.88702 0
M  V30 2691 O 261.114 -2.99396 -4.57192 0
M  V30 2692 H 258.208 -0.422907 -0.710689 0
M  V30 2693 H 260.754 -1.41947 -0.930015 0
M  V30 2694 H 259.526 -3.07917 -2.41459 0
M  V30 2695 H 259.149 -1.79282 -3.54886 0
M  V30 2696 N 260.146 1.09593 -1.13257 0
M  V30 2697 C 261.394 1.81375 -0.891492 0
M  V30 2698 C 261.715 1.86049 0.584009 0
M  V30 2699 O 260.985 1.34481 1.42449 0
M  V30 2700 H 259.565 0.671708 -0.326828 0
M  V30 2701 H 262.227 1.3256 -1.42877 0
M  V30 2702 H 261.323 2.84612 -1.28071 0
M  V30 2703 N 261.624 0.925811 1.2754 0
M  V30 2704 C 262.534 0.428993 2.30644 0
M  V30 2705 C 263.55 -0.489387 1.66976 0
M  V30 2706 O 264.726 -0.372653 1.97922 0
M  V30 2707 C 261.791 -0.311967 3.45294 0
M  V30 2708 C 260.852 0.641098 4.24486 0
M  V30 2709 C 260.085 -0.0645955 5.33661 0
M  V30 2710 O 260.308 -1.28429 5.55754 0
M  V30 2711 O 259.242 0.606265 5.98839 0
M  V30 2712 H 263.068 1.28504 2.75173 0
M  V30 2713 H 260.653 0.691086 1.32455 0
M  V30 2714 H 262.535 -0.729972 4.15029 0
M  V30 2715 H 261.21 -1.14365 3.02824 0
M  V30 2716 H 260.117 1.10874 3.57292 0
M  V30 2717 H 261.45 1.43995 4.70666 0
M  V30 2718 N 263.102 -1.41638 0.69111 0
M  V30 2719 C 264.032 -2.3347 0.037248 0
M  V30 2720 C 265.013 -1.51575 -0.771947 0
M  V30 2721 O 266.198 -1.80126 -0.72582 0
M  V30 2722 C 263.328 -3.35354 -0.903064 0
M  V30 2723 C 262.282 -4.27526 -0.201288 0
M  V30 2724 C 261.608 -5.19747 -1.25565 0
M  V30 2725 C 262.908 -5.13959 0.929689 0
M  V30 2726 H 264.602 -2.88397 0.804227 0
M  V30 2727 H 262.148 -1.38669 0.388189 0
M  V30 2728 H 264.101 -3.98519 -1.36969 0
M  V30 2729 H 262.825 -2.78767 -1.70166 0
M  V30 2730 H 261.484 -3.65779 0.245265 0
M  V30 2731 H 261.132 -4.59479 -2.04666 0
M  V30 2732 H 260.832 -5.8225 -0.791128 0
M  V30 2733 H 262.356 -5.85789 -1.72288 0
M  V30 2734 H 263.77 -5.70718 0.543546 0
M  V30 2735 H 262.167 -5.85379 1.32103 0
M  V30 2736 H 263.237 -4.51389 1.77133 0
M  V30 2737 N 264.58 -0.43555 -1.51462 0
M  V30 2738 C 265.51 0.367376 -2.30592 0
M  V30 2739 C 266.491 1.02263 -1.35928 0
M  V30 2740 O 267.676 1.02661 -1.64847 0
M  V30 2741 C 264.806 1.46983 -3.14664 0
M  V30 2742 C 263.76 0.938161 -4.17591 0
M  V30 2743 C 263.086 2.13622 -4.90173 0
M  V30 2744 C 264.386 -0.0261621 -5.22293 0
M  V30 2745 H 266.08 -0.292969 -2.97963 0
M  V30 2746 H 263.626 -0.14234 -1.43295 0
M  V30 2747 H 265.579 2.03873 -3.688 0
M  V30 2748 H 264.303 2.15843 -2.4511 0
M  V30 2749 H 262.962 0.391481 -3.64504 0
M  V30 2750 H 262.61 2.81098 -4.17124 0
M  V30 2751 H 262.31 1.78688 -5.59772 0
M  V30 2752 H 263.834 2.7107 -5.47132 0
M  V30 2753 H 265.248 0.452384 -5.71512 0
M  V30 2754 H 263.645 -0.287992 -5.99409 0
M  V30 2755 H 264.715 -0.963391 -4.75233 0
M  V30 2756 N 266.058 1.56714 -0.166846 0
M  V30 2757 C 266.988 2.20754 0.760913 0
M  V30 2758 C 267.969 1.16178 1.24244 0
M  V30 2759 O 269.154 1.44592 1.29641 0
M  V30 2760 C 266.284 2.84478 1.99223 0
M  V30 2761 C 265.238 3.95053 1.64672 0
M  V30 2762 C 264.564 4.45805 2.95232 0
M  V30 2763 C 265.864 5.14865 0.878155 0
M  V30 2764 H 267.558 2.98537 0.22713 0
M  V30 2765 H 265.104 1.43596 0.107805 0
M  V30 2766 H 267.057 3.27951 2.64624 0
M  V30 2767 H 265.781 2.04056 2.55007 0
M  V30 2768 H 264.44 3.52228 1.01641 0
M  V30 2769 H 264.088 3.62181 3.49047 0
M  V30 2770 H 263.788 5.204 2.7287 0
M  V30 2771 H 265.312 4.91962 3.6167 0
M  V30 2772 H 266.726 5.55059 1.43466 0
M  V30 2773 H 265.123 5.95348 0.753738 0
M  V30 2774 H 266.193 4.84735 -0.126377 0
M  V30 2775 N 267.536 -0.106894 1.57237 0
M  V30 2776 C 268.469 -1.16125 1.96444 0
M  V30 2777 C 269.447 -1.3947 0.835871 0
M  V30 2778 O 270.631 -1.53425 1.09513 0
M  V30 2779 C 267.758 -2.51277 2.27107 0
M  V30 2780 C 266.804 -2.44285 3.4961 0
M  V30 2781 S 267.637 -1.87077 5.01759 0
M  V30 2782 C 268.793 -3.23877 5.35588 0
M  V30 2783 H 269.026 -0.826971 2.85567 0
M  V30 2784 H 266.559 -0.314124 1.51171 0
M  V30 2785 H 268.517 -3.29035 2.45451 0
M  V30 2786 H 267.178 -2.81879 1.38576 0
M  V30 2787 H 266.371 -3.4387 3.68469 0
M  V30 2788 H 265.973 -1.74652 3.30715 0
M  V30 2789 H 268.265 -4.20122 5.31511 0
M  V30 2790 H 269.208 -3.09833 6.36717 0
M  V30 2791 H 269.616 -3.22864 4.63054 0
M  V30 2792 N 269.014 -1.53014 -0.377408 0
M  V30 2793 C 270.242 -1.72515 -1.14219 0
M  V30 2794 C 270.657 -0.448735 -1.8339 0
M  V30 2795 O 270.014 0.577592 -1.73119 0
M  V30 2796 C 270.065 -2.8826 -2.18148 0
M  V30 2797 O 269.786 -4.10962 -1.51795 0
M  V30 2798 C 271.287 -3.19536 -3.07264 0
M  V30 2799 H 268.507 -0.577301 -0.342001 0
M  V30 2800 H 271.051 -1.99712 -0.439935 0
M  V30 2801 H 269.206 -2.63492 -2.83991 0
M  V30 2802 H 269.62 -4.75693 -2.20945 0
M  V30 2803 H 271.094 -4.03959 -3.76193 0
M  V30 2804 H 271.571 -2.34403 -3.71419 0
M  V30 2805 H 272.177 -3.46186 -2.47053 0
M  V30 2806 N 270.492 0.636531 -1.44174 0
M  V30 2807 C 271.769 1.39463 -1.37148 0
M  V30 2808 C 272.149 2.11082 -0.027507 0
M  V30 2809 O 271.497 2.05954 0.989716 0
M  V30 2810 C 271.707 2.36552 -2.56601 0
M  V30 2811 C 273.055 3.00048 -3.00427 0
M  V30 2812 O 274.079 2.46878 -2.56767 0
M  V30 2813 O 272.938 3.96488 -3.76111 0
M  V30 2814 H 270.032 0.623903 -0.542839 0
M  V30 2815 H 272.578 0.662039 -1.56253 0
M  V30 2816 H 271.35 1.82692 -3.46034 0
M  V30 2817 H 270.973 3.17236 -2.39681 0
M  V30 2818 N 271.97 1.30982 0.876444 0
M  V30 2819 C 273.2 1.23063 1.65949 0
M  V30 2820 C 273.608 -0.207537 1.88058 0
M  V30 2821 O 272.951 -1.14781 1.43426 0
M  V30 2822 C 273.013 1.89768 3.05333 0
M  V30 2823 C 272.677 3.39106 3.0636 0
M  V30 2824 C 273.674 4.3496 2.84791 0
M  V30 2825 C 271.359 3.80693 3.27686 0
M  V30 2826 C 273.353 5.70375 2.84519 0
M  V30 2827 C 271.04 5.16223 3.27043 0
M  V30 2828 C 272.038 6.10875 3.05485 0
M  V30 2829 O 271.726 7.43928 3.04674 0
M  V30 2830 H 271.458 0.426685 0.524324 0
M  V30 2831 H 274.012 1.7329 1.10271 0
M  V30 2832 H 272.242 1.34082 3.6271 0
M  V30 2833 H 273.931 1.75853 3.65829 0
M  V30 2834 H 274.697 4.0416 2.68103 0
M  V30 2835 H 270.576 3.07457 3.43499 0
M  V30 2836 H 274.12 6.44228 2.67611 0
M  V30 2837 H 270.017 5.4666 3.43269 0
M  V30 2838 H 270.785 7.53022 3.2078 0
M  V30 2839 N 273.449 -1.08991 1.13837 0
M  V30 2840 C 274.396 -2.15748 0.819835 0
M  V30 2841 C 275.366 -1.64636 -0.220026 0
M  V30 2842 O 276.551 -1.90582 -0.0912757 0
M  V30 2843 C 273.691 -3.4382 0.296913 0
M  V30 2844 C 272.804 -4.0881 1.39636 0
M  V30 2845 C 271.939 -5.24655 0.831314 0
M  V30 2846 C 270.978 -5.81575 1.90886 0
M  V30 2847 N 270.115 -6.88774 1.36142 0
M  V30 2848 H 274.955 -2.42338 1.73426 0
M  V30 2849 H 272.492 -1.18935 0.865613 0
M  V30 2850 H 274.45 -4.17193 -0.0244339 0
M  V30 2851 H 273.08 -3.17535 -0.580628 0
M  V30 2852 H 272.132 -3.33258 1.83422 0
M  V30 2853 H 273.444 -4.47141 2.21058 0
M  V30 2854 H 272.598 -6.04942 0.461515 0
M  V30 2855 H 271.337 -4.87698 -0.013932 0
M  V30 2856 H 270.342 -4.99946 2.28767 0
M  V30 2857 H 271.567 -6.20592 2.75758 0
M  V30 2858 H 269.513 -6.53788 0.538254 0
M  V30 2859 H 269.43 -7.25898 2.11208 0
M  V30 2860 H 270.698 -7.72806 1.01933 0
M  V30 2861 N 274.927 -0.932562 -1.27047 0
M  V30 2862 C 275.859 -0.392734 -2.2581 0
M  V30 2863 C 276.872 0.479241 -1.55586 0
M  V30 2864 O 278.061 0.291078 -1.76111 0
M  V30 2865 C 275.161 0.455456 -3.35826 0
M  V30 2866 C 274.334 -0.398355 -4.35582 0
M  V30 2867 C 273.393 0.387985 -5.24768 0
M  V30 2868 O 272.419 -0.206003 -5.68827 0
M  V30 2869 N 273.621 1.68664 -5.55457 0
M  V30 2870 H 276.386 -1.24173 -2.72766 0
M  V30 2871 H 273.947 -0.800511 -1.40725 0
M  V30 2872 H 275.939 0.988692 -3.92437 0
M  V30 2873 H 274.509 1.20522 -2.88432 0
M  V30 2874 H 273.729 -1.11286 -3.78165 0
M  V30 2875 H 275.017 -0.981889 -4.99236 0
M  V30 2876 H 274.415 2.19147 -5.21528 0
M  V30 2877 H 272.972 2.1663 -6.14748 0
M  V30 2878 N 276.405 1.4127 -0.698611 0
M  V30 2879 C 277.645 2.03044 -0.235062 0
M  V30 2880 C 278.009 1.54146 1.14468 0
M  V30 2881 O 279.21 2.07867 1.70425 0
M  V30 2882 C 277.481 3.56192 -0.293651 0
M  V30 2883 S 279.04 4.38696 0.0954053 0
M  V30 2884 H 275.858 0.704697 -0.0944648 0
M  V30 2885 H 278.46 1.72656 -0.917064 0
M  V30 2886 H 277.164 3.89274 -1.29977 0
M  V30 2887 H 276.695 3.91285 0.407397 0
M  V30 2888 H 278.71 4.78257 1.3223 0
M  V30 2889 N 277.883 0.443576 1.51229 0
M  V30 2890 C 278.816 -0.410089 2.24485 0
M  V30 2891 C 279.794 -1.01949 1.26669 0
M  V30 2892 O 280.978 -1.06075 1.55821 0
M  V30 2893 C 278.105 -1.57211 3.00004 0
M  V30 2894 C 277.151 -1.08279 4.12526 0
M  V30 2895 S 277.984 -0.0197476 5.35496 0
M  V30 2896 C 279.14 -1.18629 6.14555 0
M  V30 2897 H 279.373 0.211832 2.96544 0
M  V30 2898 H 276.906 0.228156 1.52705 0
M  V30 2899 H 278.864 -2.23825 3.44111 0
M  V30 2900 H 277.525 -2.16547 2.27522 0
M  V30 2901 H 276.718 -1.95193 4.64667 0
M  V30 2902 H 276.32 -0.494797 3.70713 0
M  V30 2903 H 278.612 -2.10344 6.4402 0
M  V30 2904 H 279.555 -0.70472 7.04584 0
M  V30 2905 H 279.963 -1.42768 5.46148 0
M  V30 2906 N 279.361 -1.56624 0.175154 0
M  V30 2907 C 280.324 -2.16934 -0.739738 0
M  V30 2908 C 281.324 -1.11842 -1.15533 0
M  V30 2909 O 282.514 -1.37335 -1.07167 0
M  V30 2910 C 279.646 -2.75531 -2.00738 0
M  V30 2911 H 280.839 -2.99131 -0.214639 0
M  V30 2912 H 278.392 -1.56123 -0.0744197 0
M  V30 2913 H 279.127 -1.97078 -2.57548 0
M  V30 2914 H 278.912 -3.52444 -1.71831 0
M  V30 2915 H 280.402 -3.21904 -2.66021 0
M  V30 2916 N 280.839 0.0985539 -1.57292 0
M  V30 2917 C 282.085 0.803867 -1.86188 0
M  V30 2918 C 282.418 1.78549 -0.763794 0
M  V30 2919 O 281.693 1.93153 0.22855 0
M  V30 2920 C 281.976 1.53568 -3.25713 0
M  V30 2921 C 281.829 0.572277 -4.46145 0
M  V30 2922 C 283.148 2.48708 -3.63087 0
M  V30 2923 H 280.267 0.290781 -0.677211 0
M  V30 2924 H 282.909 0.0675783 -1.8988 0
M  V30 2925 H 281.059 2.16332 -3.22696 0
M  V30 2926 H 282.731 -0.0480894 -4.61275 0
M  V30 2927 H 280.974 -0.114618 -4.33649 0
M  V30 2928 H 281.645 1.12139 -5.40489 0
M  V30 2929 H 284.121 1.96039 -3.67026 0
M  V30 2930 H 282.997 2.96932 -4.61652 0
M  V30 2931 H 283.258 3.32309 -2.91588 0
M  V30 2932 N 282.317 1.53212 0.369288 0
M  V30 2933 C 283.265 1.80054 1.47253 0
M  V30 2934 C 284.259 0.669456 1.55611 0
M  V30 2935 O 285.465 0.852328 1.58541 0
M  V30 2936 H 281.84 0.570034 0.490475 0
M  V30 2937 H 283.811 2.72403 1.21817 0
M  V30 2938 C 282.56 2.00403 2.84137 0
M  V30 2939 H 281.883 2.86876 2.78464 0
M  V30 2940 H 283.323 2.23164 3.60519 0
M  V30 2941 C 281.782 0.782081 3.27697 0
M  V30 2942 O 282.312 -0.0310205 4.01688 0
M  V30 2943 N 280.518 0.606573 2.84199 0
M  V30 2944 H 280.065 1.26939 2.24152 0
M  V30 2945 H 280.023 -0.20962 3.137 0
M  V30 2946 N 283.795 -0.628877 1.44509 0
M  V30 2947 C 285.042 -1.38839 1.47411 0
M  V30 2948 C 285.37 -1.94202 0.10757 0
M  V30 2949 O 284.625 -1.74243 -0.890947 0
M  V30 2950 C 284.924 -2.56995 2.48371 0
M  V30 2951 C 284.59 -2.19908 3.93639 0
M  V30 2952 C 283.252 -2.09506 4.33198 0
M  V30 2953 C 285.604 -1.9064 4.85083 0
M  V30 2954 C 282.932 -1.68028 5.62124 0
M  V30 2955 C 285.284 -1.50655 6.14399 0
M  V30 2956 C 283.948 -1.38796 6.5291 0
M  V30 2957 H 283.218 -0.508048 0.539414 0
M  V30 2958 H 285.865 -0.712913 1.77735 0
M  V30 2959 H 284.17 -3.29786 2.11538 0
M  V30 2960 H 285.867 -3.15223 2.47861 0
M  V30 2961 H 282.457 -2.28922 3.62343 0
M  V30 2962 H 286.641 -1.97585 4.55273 0
M  V30 2963 H 281.897 -1.57452 5.90778 0
M  V30 2964 H 286.071 -1.27048 6.84713 0
M  V30 2965 H 283.698 -1.06429 7.52713 0
M  V30 2966 N 285.273 -1.31445 -0.869486 0
M  V30 2967 C 286.52 -1.21158 -1.62256 0
M  V30 2968 C 286.848 0.230155 -1.93133 0
M  V30 2969 O 286.103 1.17906 -1.56194 0
M  V30 2970 C 286.402 -2.00145 -2.96102 0
M  V30 2971 C 286.068 -3.4964 -2.84715 0
M  V30 2972 C 284.73 -3.90403 -2.81317 0
M  V30 2973 C 287.082 -4.44769 -2.71716 0
M  V30 2974 C 284.41 -5.24561 -2.62778 0
M  V30 2975 C 286.762 -5.79054 -2.54714 0
M  V30 2976 C 285.426 -6.19037 -2.49699 0
M  V30 2977 H 284.696 -0.443348 -0.593737 0
M  V30 2978 H 287.343 -1.62715 -1.00976 0
M  V30 2979 H 285.648 -1.5127 -3.6142 0
M  V30 2980 H 287.345 -1.89566 -3.53363 0
M  V30 2981 H 283.935 -3.17256 -2.88178 0
M  V30 2982 H 288.119 -4.14208 -2.73397 0
M  V30 2983 H 283.375 -5.54613 -2.57321 0
M  V30 2984 H 287.549 -6.52393 -2.43632 0
M  V30 2985 H 285.176 -7.22935 -2.35093 0
M  V30 2986 N 286.751 1.08385 -1.14413 0
M  V30 2987 C 287.999 1.80419 -0.910679 0
M  V30 2988 C 288.32 1.86658 0.564243 0
M  V30 2989 O 287.59 1.35985 1.41014 0
M  V30 2990 H 286.17 0.668204 -0.333934 0
M  V30 2991 H 288.832 1.31037 -1.44275 0
M  V30 2992 H 287.928 2.83238 -1.31082 0
M  V30 2993 N 288.23 0.939286 1.26551 0
M  V30 2994 C 289.458 0.602536 1.97932 0
M  V30 2995 C 289.873 -0.82206 1.69964 0
M  V30 2996 O 289.23 -1.54789 0.966784 0
M  V30 2997 C 289.281 0.832946 3.51773 0
M  V30 2998 O 289.002 2.20151 3.78768 0
M  V30 2999 C 290.503 0.506483 4.40397 0
M  V30 3000 H 287.723 0.227248 0.631347 0
M  V30 3001 H 290.267 1.25948 1.61113 0
M  V30 3002 H 288.422 0.222644 3.8676 0
M  V30 3003 H 288.836 2.26013 4.73306 0
M  V30 3004 H 290.31 0.718333 5.47306 0
M  V30 3005 H 290.787 -0.558451 4.35635 0
M  V30 3006 H 291.393 1.09543 4.10951 0
M  V30 3007 N 289.708 -1.40897 0.706093 0
M  V30 3008 C 290.954 -2.01352 0.241889 0
M  V30 3009 C 291.287 -1.55832 -1.15888 0
M  V30 3010 O 290.562 -0.774145 -1.7843 0
M  V30 3011 C 290.845 -3.58752 0.311311 0
M  V30 3012 C 290.698 -4.1437 1.74978 0
M  V30 3013 C 292.017 -4.38914 -0.322922 0
M  V30 3014 H 289.136 -0.731562 0.0893687 0
M  V30 3015 H 291.778 -1.67504 0.896802 0
M  V30 3016 H 289.928 -3.87718 -0.246302 0
M  V30 3017 H 291.6 -3.96239 2.36205 0
M  V30 3018 H 289.843 -3.69016 2.28057 0
M  V30 3019 H 290.514 -5.23532 1.74981 0
M  V30 3020 H 292.99 -4.15822 0.152089 0
M  V30 3021 H 291.866 -5.48358 -0.243855 0
M  V30 3022 H 292.127 -4.19176 -1.40513 0
M  V30 3023 N 291.186 -0.45159 -1.50991 0
M  V30 3024 C 292.096 0.358431 -2.31846 0
M  V30 3025 C 293.112 1.01438 -1.41373 0
M  V30 3026 O 294.288 1.00663 -1.74439 0
M  V30 3027 C 291.353 1.43704 -3.15515 0
M  V30 3028 C 290.414 0.799742 -4.21785 0
M  V30 3029 C 289.647 1.82696 -5.01456 0
M  V30 3030 O 289.87 3.05105 -4.81941 0
M  V30 3031 O 288.804 1.40958 -5.85162 0
M  V30 3032 H 292.63 -0.302032 -3.02194 0
M  V30 3033 H 290.215 -0.213825 -1.47862 0
M  V30 3034 H 292.097 2.06227 -3.67489 0
M  V30 3035 H 290.772 2.08133 -2.47916 0
M  V30 3036 H 289.679 0.136084 -3.73852 0
M  V30 3037 H 291.012 0.198718 -4.91799 0
M  V30 3038 N 292.664 1.56529 -0.183458 0
M  V30 3039 C 293.91 1.97537 0.459036 0
M  V30 3040 C 294.243 1.06989 1.62071 0
M  V30 3041 O 293.518 0.11948 1.94133 0
M  V30 3042 C 293.801 3.47874 0.930368 0
M  V30 3043 C 293.654 4.492 -0.232317 0
M  V30 3044 C 294.973 4.01612 1.79989 0
M  V30 3045 H 292.092 0.718204 0.165383 0
M  V30 3046 H 294.734 1.88042 -0.272038 0
M  V30 3047 H 292.884 3.56095 1.55333 0
M  V30 3048 H 294.556 4.53027 -0.86972 0
M  V30 3049 H 292.799 4.24657 -0.885928 0
M  V30 3050 H 293.47 5.51823 0.139796 0
M  V30 3051 H 295.946 3.96097 1.27461 0
M  V30 3052 H 294.822 5.07195 2.09867 0
M  V30 3053 H 295.083 3.46163 2.74998 0
M  V30 3054 N 294.142 -0.090211 1.57342 0
M  V30 3055 C 295.37 -0.806224 1.90546 0
M  V30 3056 C 295.785 -1.72041 0.777644 0
M  V30 3057 O 295.142 -1.80778 -0.250103 0
M  V30 3058 C 295.193 -1.61546 3.23396 0
M  V30 3059 O 294.914 -0.738043 4.31839 0
M  V30 3060 C 296.415 -2.4341 3.70495 0
M  V30 3061 H 293.635 -0.230256 0.630257 0
M  V30 3062 H 296.179 -0.0659843 2.04394 0
M  V30 3063 H 294.334 -2.30816 3.11131 0
M  V30 3064 H 294.748 -1.29901 5.08159 0
M  V30 3065 H 296.222 -2.95676 4.66133 0
M  V30 3066 H 296.699 -3.22098 2.98579 0
M  V30 3067 H 297.305 -1.79331 3.85643 0
M  V30 3068 N 295.62 -1.53406 -0.361157 0
M  V30 3069 C 296.567 -1.80156 -1.44265 0
M  V30 3070 C 297.537 -0.646183 -1.53015 0
M  V30 3071 O 298.722 -0.888818 -1.68833 0
M  V30 3072 C 295.862 -2.00116 -2.81154 0
M  V30 3073 C 294.975 -3.27833 -2.81335 0
M  V30 3074 C 294.11 -3.37957 -4.09828 0
M  V30 3075 C 293.149 -4.59689 -4.04168 0
M  V30 3076 N 292.286 -4.66942 -5.24318 0
M  V30 3077 H 297.126 -2.72438 -1.20754 0
M  V30 3078 H 294.663 -1.34954 -0.585296 0
M  V30 3079 H 296.621 -2.09677 -3.60682 0
M  V30 3080 H 295.251 -1.11167 -3.03054 0
M  V30 3081 H 294.303 -3.27204 -1.94014 0
M  V30 3082 H 295.615 -4.17442 -2.73027 0
M  V30 3083 H 294.769 -3.46853 -4.97773 0
M  V30 3084 H 293.508 -2.46372 -4.20894 0
M  V30 3085 H 292.513 -4.50889 -3.14609 0
M  V30 3086 H 293.738 -5.5262 -3.947 0
M  V30 3087 H 291.684 -3.7826 -5.35962 0
M  V30 3088 H 291.601 -5.50462 -5.18197 0
M  V30 3089 H 292.869 -4.80127 -6.14084 0
M  V30 3090 N 297.098 0.621204 -1.44841 0
M  V30 3091 C 298.326 1.40752 -1.51646 0
M  V30 3092 C 298.741 1.88246 -0.144549 0
M  V30 3093 O 298.098 1.61422 0.851416 0
M  V30 3094 C 298.149 2.62119 -2.4895 0
M  V30 3095 O 297.87 2.16602 -3.80808 0
M  V30 3096 C 299.371 3.55135 -2.65319 0
M  V30 3097 H 296.591 0.431325 -0.514004 0
M  V30 3098 H 299.135 0.758835 -1.899 0
M  V30 3099 H 297.29 3.23058 -2.13805 0
M  V30 3100 H 297.704 2.95358 -4.33433 0
M  V30 3101 H 299.178 4.36874 -3.37409 0
M  V30 3102 H 299.655 4.04592 -1.70886 0
M  V30 3103 H 300.261 3.00058 -3.01405 0
M  V30 3104 N 298.576 1.31904 0.862503 0
M  V30 3105 C 299.823 1.22017 1.61611 0
M  V30 3106 C 300.151 -0.21991 1.93253 0
M  V30 3107 O 299.406 -1.17076 1.56817 0
M  V30 3108 C 299.705 2.01713 2.95037 0
M  V30 3109 C 299.371 3.51145 2.82857 0
M  V30 3110 C 298.033 3.91889 2.79243 0
M  V30 3111 C 300.385 4.46204 2.69353 0
M  V30 3112 C 297.713 5.25947 2.59993 0
M  V30 3113 C 300.065 5.80397 2.5164 0
M  V30 3114 C 298.729 6.20352 2.46413 0
M  V30 3115 H 297.999 0.44649 0.591378 0
M  V30 3116 H 300.646 1.63248 1.00111 0
M  V30 3117 H 298.951 1.53185 3.60613 0
M  V30 3118 H 300.648 1.91437 3.52353 0
M  V30 3119 H 297.238 3.1878 2.86491 0
M  V30 3120 H 301.422 4.15652 2.71196 0
M  V30 3121 H 296.678 5.5597 2.54376 0
M  V30 3122 H 300.852 6.53676 2.40169 0
M  V30 3123 H 298.479 7.24172 2.31256 0
M  V30 3124 N 300.054 -1.07777 1.14986 0
M  V30 3125 C 300.984 -2.16865 0.865557 0
M  V30 3126 C 301.965 -1.69123 -0.182083 0
M  V30 3127 O 303.15 -1.94164 -0.0373815 0
M  V30 3128 C 300.28 -3.45539 0.349313 0
M  V30 3129 C 299.234 -4.06708 1.33313 0
M  V30 3130 C 298.56 -5.30411 0.675918 0
M  V30 3131 C 299.86 -4.47241 2.69764 0
M  V30 3132 H 301.554 -2.40905 1.77778 0
M  V30 3133 H 299.1 -1.15781 0.856203 0
M  V30 3134 H 301.053 -4.21174 0.137983 0
M  V30 3135 H 299.777 -3.21072 -0.598362 0
M  V30 3136 H 298.436 -3.33112 1.53075 0
M  V30 3137 H 298.084 -5.02232 -0.277767 0
M  V30 3138 H 297.784 -5.72293 1.33244 0
M  V30 3139 H 299.308 -6.08755 0.474262 0
M  V30 3140 H 300.722 -5.14025 2.53873 0
M  V30 3141 H 299.119 -5.00062 3.3175 0
M  V30 3142 H 300.189 -3.58818 3.26156 0
M  V30 3143 N 301.532 -0.945985 -1.26051 0
M  V30 3144 C 302.943 -0.638096 -1.75457 0
M  V30 3145 C 303.294 0.846672 -1.76991 0
M  V30 3146 O 302.419 1.66262 -1.38513 0
M  V30 3147 C 303.014 -1.15157 -3.18629 0
M  V30 3148 C 301.573 -0.894004 -3.65629 0
M  V30 3149 C 300.72 -1.29967 -2.44957 0
M  V30 3150 H 303.671 -1.12376 -1.1206 0
M  V30 3151 H 303.692 -0.507615 -3.77099 0
M  V30 3152 H 303.204 -2.23222 -3.1748 0
M  V30 3153 H 301.305 0.172057 -3.72203 0
M  V30 3154 H 301.418 -1.52439 -4.54202 0
M  V30 3155 H 299.782 -0.718078 -2.44368 0
M  V30 3156 H 300.565 -2.38935 -2.46505 0
M  V30 3157 N 303.011 1.40521 -0.713556 0
M  V30 3158 C 303.941 2.33381 -0.0743864 0
M  V30 3159 C 304.922 1.52784 0.747735 0
M  V30 3160 O 306.107 1.81258 0.697071 0
M  V30 3161 C 303.237 3.36748 0.849598 0
M  V30 3162 C 302.191 4.27793 0.133247 0
M  V30 3163 C 301.517 5.21679 1.17281 0
M  V30 3164 C 302.817 5.12415 -1.01134 0
M  V30 3165 H 304.511 2.87081 -0.850007 0
M  V30 3166 H 302.057 1.38034 -0.410201 0
M  V30 3167 H 304.01 4.00648 1.30612 0
M  V30 3168 H 302.734 2.81439 1.65709 0
M  V30 3169 H 301.393 3.65342 -0.303426 0
M  V30 3170 H 301.041 4.62677 1.9733 0
M  V30 3171 H 300.741 5.83435 0.698397 0
M  V30 3172 H 302.265 5.88456 1.62947 0
M  V30 3173 H 303.679 5.69781 -0.634274 0
M  V30 3174 H 302.076 5.83203 -1.41399 0
M  V30 3175 H 303.146 4.48514 -1.84292 0
M  V30 3176 N 304.489 0.459591 1.5075 0
M  V30 3177 C 305.419 -0.330644 2.31147 0
M  V30 3178 C 306.4 -1.00087 1.37538 0
M  V30 3179 O 307.585 -1.00025 1.66459 0
M  V30 3180 C 304.715 -1.41958 3.16962 0
M  V30 3181 C 303.669 -0.871608 4.19031 0
M  V30 3182 C 302.995 -2.05797 4.9351 0
M  V30 3183 C 304.295 0.109251 5.22186 0
M  V30 3184 H 305.989 0.340336 2.97459 0
M  V30 3185 H 303.535 0.165119 1.4305 0
M  V30 3186 H 305.488 -1.9798 3.71997 0
M  V30 3187 H 304.212 -2.11917 2.48513 0
M  V30 3188 H 302.871 -0.333442 3.6508 0
M  V30 3189 H 302.519 -2.74427 4.21544 0
M  V30 3190 H 302.219 -1.6976 5.62544 0
M  V30 3191 H 303.743 -2.62331 5.51375 0
M  V30 3192 H 305.157 -0.361405 5.7216 0
M  V30 3193 H 303.554 0.383316 5.98875 0
M  V30 3194 H 304.624 1.03887 4.73641 0
M  V30 3195 N 305.967 -1.56429 0.191757 0
M  V30 3196 C 307.383 -1.58754 -0.164137 0
M  V30 3197 C 307.583 -1.20782 -1.61288 0
M  V30 3198 O 306.639 -0.928999 -2.34789 0
M  V30 3199 C 307.952 -3.00396 0.135195 0
M  V30 3200 C 309.5 -3.1291 0.0750351 0
M  V30 3201 C 309.975 -4.56679 0.347632 0
M  V30 3202 N 311.466 -4.62252 0.296131 0
M  V30 3203 C 312.201 -5.71379 0.480948 0
M  V30 3204 N 311.697 -6.88986 0.725933 0
M  V30 3205 N 313.49 -5.60563 0.415435 0
M  V30 3206 H 305.641 -1.79393 1.13718 0
M  V30 3207 H 307.904 -0.832414 0.453643 0
M  V30 3208 H 307.61 -3.32726 1.13958 0
M  V30 3209 H 307.484 -3.72963 -0.563773 0
M  V30 3210 H 309.871 -2.80394 -0.919948 0
M  V30 3211 H 309.952 -2.42736 0.807029 0
M  V30 3212 H 309.596 -4.89907 1.33992 0
M  V30 3213 H 309.526 -5.25039 -0.405212 0
M  V30 3214 H 312.017 -3.7773 0.113259 0
M  V30 3215 H 312.33 -7.68046 0.855857 0
M  V30 3216 H 310.675 -6.90801 0.762788 0
M  V30 3217 H 313.866 -4.67561 0.224486 0
M  V30 3218 H 314.039 -6.45551 0.562889 0
M  V30 3219 N 307.445 0.0818655 -1.57387 0
M  V30 3220 C 308.392 1.09834 -2.0299 0
M  V30 3221 C 309.362 1.39043 -0.908639 0
M  V30 3222 O 310.547 1.50282 -1.17559 0
M  V30 3223 C 307.687 2.40971 -2.47037 0
M  V30 3224 C 306.8 2.18379 -3.7274 0
M  V30 3225 C 305.935 3.43008 -4.0561 0
M  V30 3226 C 304.974 3.15736 -5.24383 0
M  V30 3227 N 304.111 4.32667 -5.52941 0
M  V30 3228 H 308.951 0.702472 -2.89602 0
M  V30 3229 H 306.488 0.33531 -1.43227 0
M  V30 3230 H 308.446 3.1752 -2.70623 0
M  V30 3231 H 307.076 2.78379 -1.63417 0
M  V30 3232 H 306.128 1.32569 -3.56552 0
M  V30 3233 H 307.44 1.94227 -4.59431 0
M  V30 3234 H 306.594 4.27958 -4.30043 0
M  V30 3235 H 305.333 3.70225 -3.17466 0
M  V30 3236 H 304.338 2.2918 -4.99757 0
M  V30 3237 H 305.563 2.8985 -6.14136 0
M  V30 3238 H 303.509 4.59935 -4.67756 0
M  V30 3239 H 303.426 4.11753 -6.34031 0
M  V30 3240 H 304.694 5.18644 -5.81918 0
M  V30 3241 N 308.923 1.53595 0.353017 0
M  V30 3242 C 310.148 1.7462 1.11904 0
M  V30 3243 C 310.573 0.479721 1.8188 0
M  V30 3244 O 309.931 -0.567066 1.72204 0
M  V30 3245 C 309.979 2.92029 2.11545 0
M  V30 3246 O 309.083 2.61516 3.18878 0
M  V30 3247 H 308.424 0.579531 0.324099 0
M  V30 3248 H 310.954 2.00525 0.406301 0
M  V30 3249 H 310.964 3.18551 2.5493 0
M  V30 3250 H 309.639 3.83888 1.60008 0
M  V30 3251 H 308.216 2.45852 2.80377 0
M  V30 3252 N 310.401 -0.613514 1.45168 0
M  V30 3253 C 311.348 -1.72456 1.53387 0
M  V30 3254 C 312.318 -1.6169 0.380191 0
M  V30 3255 O 313.503 -1.81356 0.592836 0
M  V30 3256 C 310.643 -3.10753 1.50088 0
M  V30 3257 C 309.756 -3.32368 2.75963 0
M  V30 3258 C 308.891 -4.60737 2.64376 0
M  V30 3259 C 307.93 -4.7559 3.85332 0
M  V30 3260 N 307.067 -5.95253 3.72315 0
M  V30 3261 H 311.907 -1.64768 2.48305 0
M  V30 3262 H 309.444 -0.803503 1.23216 0
M  V30 3263 H 311.402 -3.90758 1.46164 0
M  V30 3264 H 310.032 -3.17413 0.587243 0
M  V30 3265 H 309.084 -2.4618 2.89999 0
M  V30 3266 H 310.396 -3.39218 3.65695 0
M  V30 3267 H 309.55 -5.48928 2.58385 0
M  V30 3268 H 308.289 -4.56275 1.72233 0
M  V30 3269 H 307.294 -3.85824 3.91688 0
M  V30 3270 H 308.519 -4.81854 4.78533 0
M  V30 3271 H 306.465 -5.91847 2.82937 0
M  V30 3272 H 306.382 -6.03236 4.55677 0
M  V30 3273 H 307.65 -6.85958 3.70246 0
M  V30 3274 N 311.879 -1.3236 -0.855495 0
M  V30 3275 C 313.127 -1.22629 -1.60644 0
M  V30 3276 C 313.448 0.212136 -1.93843 0
M  V30 3277 O 312.718 1.13666 -1.59552 0
M  V30 3278 H 311.298 -0.450882 -0.595579 0
M  V30 3279 H 313.96 -1.65871 -1.02337 0
M  V30 3280 H 313.056 -1.80832 -2.54374 0
M  V30 3281 N 313.357 1.07166 -1.15556 0
M  V30 3282 C 314.773 1.31899 -0.898603 0
M  V30 3283 C 314.973 1.96333 0.453383 0
M  V30 3284 O 314.029 2.22438 1.19489 0
M  V30 3285 C 315.342 2.20826 -2.04099 0
M  V30 3286 C 316.89 2.34269 -2.07574 0
M  V30 3287 C 317.365 3.26546 -3.21141 0
M  V30 3288 N 318.856 3.34127 -3.20801 0
M  V30 3289 C 319.591 4.05595 -4.05315 0
M  V30 3290 N 319.087 4.79661 -4.99897 0
M  V30 3291 N 320.88 4.01555 -3.93332 0
M  V30 3292 H 313.031 0.637302 -2.02613 0
M  V30 3293 H 315.294 0.343468 -0.883591 0
M  V30 3294 H 315 1.80744 -3.01703 0
M  V30 3295 H 314.874 3.21364 -1.97496 0
M  V30 3296 H 317.261 2.73603 -1.10568 0
M  V30 3297 H 317.342 1.33429 -2.18244 0
M  V30 3298 H 316.986 2.87931 -4.184 0
M  V30 3299 H 316.916 4.27345 -3.07708 0
M  V30 3300 H 319.407 2.81336 -2.52306 0
M  V30 3301 H 319.72 5.31694 -5.60822 0
M  V30 3302 H 318.065 4.78671 -5.03884 0
M  V30 3303 H 321.256 3.42806 -3.18751 0
M  V30 3304 H 321.429 4.56987 -4.5942 0
M  V30 3305 N 314.835 0.952656 1.25548 0
M  V30 3306 C 315.765 0.489287 2.28316 0
M  V30 3307 C 316.746 -0.463359 1.63667 0
M  V30 3308 O 317.931 -0.36274 1.90782 0
M  V30 3309 C 315.061 -0.235603 3.465 0
M  V30 3310 C 314.015 0.631593 4.23314 0
M  V30 3311 C 313.341 -0.223923 5.34231 0
M  V30 3312 C 314.641 1.90871 4.86174 0
M  V30 3313 H 316.335 1.34822 2.67326 0
M  V30 3314 H 313.881 0.649728 1.28509 0
M  V30 3315 H 315.834 -0.570882 4.17515 0
M  V30 3316 H 314.558 -1.12877 3.06474 0
M  V30 3317 H 313.217 0.949929 3.54079 0
M  V30 3318 H 312.865 -1.11678 4.90446 0
M  V30 3319 H 312.565 0.35299 5.86539 0
M  V30 3320 H 314.089 -0.554214 6.0808 0
M  V30 3321 H 315.503 1.63997 5.49343 0
M  V30 3322 H 313.9 2.43112 5.4865 0
M  V30 3323 H 314.97 2.61304 4.08471 0
M  V30 3324 N 316.313 -1.40141 0.720998 0
M  V30 3325 C 317.559 -2.01084 0.263231 0
M  V30 3326 C 317.892 -1.57052 -1.14229 0
M  V30 3327 O 317.167 -0.793027 -1.77599 0
M  V30 3328 C 317.45 -3.58401 0.349344 0
M  V30 3329 C 317.303 -4.12491 1.79363 0
M  V30 3330 C 318.622 -4.39231 -0.276351 0
M  V30 3331 H 315.741 -0.730572 0.0971228 0
M  V30 3332 H 318.383 -1.66543 0.914518 0
M  V30 3333 H 316.533 -3.87958 -0.205165 0
M  V30 3334 H 318.205 -3.93711 2.40394 0
M  V30 3335 H 316.448 -3.66576 2.31958 0
M  V30 3336 H 317.119 -5.21646 1.80524 0
M  V30 3337 H 319.595 -4.15637 0.196184 0
M  V30 3338 H 318.471 -5.48586 -0.185681 0
M  V30 3339 H 318.732 -4.20643 -1.36059 0
M  V30 3340 N 317.792 -0.46758 -1.50504 0
M  V30 3341 C 318.74 0.342482 -2.30065 0
M  V30 3342 C 319.734 0.993596 -1.37201 0
M  V30 3343 O 320.94 0.925102 -1.54408 0
M  V30 3344 H 317.315 0.129283 -0.740803 0
M  V30 3345 H 319.286 -0.34899 -2.96352 0
M  V30 3346 C 318.035 1.4139 -3.17654 0
M  V30 3347 H 317.358 0.922264 -3.89017 0
M  V30 3348 H 318.798 1.95335 -3.76325 0
M  V30 3349 C 317.257 2.4139 -2.35016 0
M  V30 3350 O 317.787 3.46586 -2.03079 0
M  V30 3351 N 315.993 2.13021 -1.97662 0
M  V30 3352 H 315.54 1.27499 -2.23834 0
M  V30 3353 H 315.498 2.80164 -1.42673 0
M  V30 3354 N 319.27 1.56325 -0.20005 0
M  V30 3355 C 320.516 1.98012 0.438059 0
M  V30 3356 C 320.849 1.08702 1.60927 0
M  V30 3357 O 320.124 0.140064 1.93995 0
M  V30 3358 C 320.407 3.48841 0.893419 0
M  V30 3359 C 320.26 4.48928 -0.279947 0
M  V30 3360 C 321.579 4.03498 1.75719 0
M  V30 3361 H 318.698 0.719918 0.157757 0
M  V30 3362 H 321.34 1.87743 -0.291968 0
M  V30 3363 H 319.49 3.57723 1.51547 0
M  V30 3364 H 321.162 4.52079 -0.91772 0
M  V30 3365 H 319.405 4.23694 -0.930919 0
M  V30 3366 H 320.076 5.5194 0.0812601 0
M  V30 3367 H 322.552 3.97427 1.23253 0
M  V30 3368 H 321.428 5.09393 2.04476 0
M  V30 3369 H 321.689 3.4906 2.71311 0
M  V30 3370 N 320.748 -0.0735177 1.57428 0
M  V30 3371 C 321.973 -0.789787 1.91774 0
M  V30 3372 C 322.398 -1.70413 0.796306 0
M  V30 3373 O 321.756 -1.79555 -0.250961 0
M  V30 3374 C 321.804 -1.5609 3.25067 0
M  V30 3375 O 320.908 -2.67144 3.14178 0
M  V30 3376 H 320.249 -0.215582 0.628029 0
M  V30 3377 H 322.779 -0.0422781 2.04556 0
M  V30 3378 H 322.789 -1.94052 3.58898 0
M  V30 3379 H 321.464 -0.890015 4.06265 0
M  V30 3380 H 320.041 -2.32052 2.91901 0
M  V30 3381 N 322.226 -1.5378 -0.344866 0
M  V30 3382 C 323.451 -1.75211 -1.10977 0
M  V30 3383 C 323.876 -0.48936 -1.81623 0
M  V30 3384 O 323.234 0.557925 -1.72502 0
M  V30 3385 C 323.282 -2.93147 -2.09993 0
M  V30 3386 O 322.386 -2.63203 -3.17487 0
M  V30 3387 H 321.727 -0.581241 -0.321021 0
M  V30 3388 H 324.257 -2.00738 -0.395661 0
M  V30 3389 H 324.267 -3.19898 -2.53237 0
M  V30 3390 H 322.942 -3.84731 -1.5797 0
M  V30 3391 H 321.519 -2.47336 -2.79069 0
M  V30 3392 N 323.704 0.605807 -1.45491 0
M  V30 3393 C 324.637 1.73022 -1.48791 0
M  V30 3394 C 325.615 1.58917 -0.344112 0
M  V30 3395 O 326.799 1.80453 -0.544876 0
M  V30 3396 C 323.926 3.10865 -1.34463 0
M  V30 3397 C 322.972 3.43554 -2.5273 0
M  V30 3398 S 323.805 3.38196 -4.15191 0
M  V30 3399 C 324.961 4.78616 -4.03333 0
M  V30 3400 H 325.194 1.69961 -2.43928 0
M  V30 3401 H 322.727 0.782611 -1.33096 0
M  V30 3402 H 324.685 3.90398 -1.26884 0
M  V30 3403 H 323.346 3.1144 -0.40794 0
M  V30 3404 H 322.539 4.43924 -2.38637 0
M  V30 3405 H 322.141 2.71541 -2.5718 0
M  V30 3406 H 324.433 5.68463 -3.68587 0
M  V30 3407 H 325.376 4.97767 -5.03621 0
M  V30 3408 H 325.784 4.54381 -3.34959 0
M  V30 3409 N 325.182 1.32811 0.848464 0
M  V30 3410 C 326.43 1.23479 1.59991 0
M  V30 3411 C 326.751 -0.201853 1.93952 0
M  V30 3412 O 326.021 -1.12818 1.60153 0
M  V30 3413 H 324.601 0.454034 0.593179 0
M  V30 3414 H 327.263 1.66412 1.01455 0
M  V30 3415 H 326.359 1.82178 2.53412 0
M  V30 3416 N 326.66 -1.06551 1.16123 0
M  V30 3417 C 327.908 -1.78947 0.939267 0
M  V30 3418 C 328.229 -1.87532 -0.534476 0
M  V30 3419 O 327.499 -1.38211 -1.38833 0
M  V30 3420 H 326.079 -0.662807 0.344523 0
M  V30 3421 H 328.741 -1.28725 1.46342 0
M  V30 3422 H 327.837 -2.81117 1.35572 0
M  V30 3423 N 328.138 -0.959301 -1.25041 0
M  V30 3424 C 329.386 -0.615393 -1.92503 0
M  V30 3425 C 329.707 0.850969 -1.75452 0
M  V30 3426 O 328.977 1.60658 -1.12098 0
M  V30 3427 H 327.557 -0.224613 -0.712431 0
M  V30 3428 H 330.219 -1.21855 -1.5211 0
M  V30 3429 H 329.315 -0.848738 -3.00338 0
M  V30 3430 N 329.616 1.39756 -0.72842 0
M  V30 3431 C 330.579 2.29012 -0.0927297 0
M  V30 3432 C 331.579 1.45992 0.674025 0
M  V30 3433 O 332.769 1.66749 0.50402 0
M  V30 3434 C 329.901 3.29396 0.878137 0
M  V30 3435 H 331.094 2.86729 -0.879011 0
M  V30 3436 H 328.647 1.48293 -0.493847 0
M  V30 3437 H 329.382 2.76722 1.69101 0
M  V30 3438 H 329.167 3.907 0.331051 0
M  V30 3439 H 330.657 3.96199 1.3197 0
M  V30 3440 N 331.094 0.475555 1.50254 0
M  V30 3441 C 332.505 0.0215174 1.86688 0
M  V30 3442 C 332.856 -1.38467 1.39001 0
M  V30 3443 O 331.981 -2.02732 0.756894 0
M  V30 3444 C 332.576 0.0322715 3.38785 0
M  V30 3445 C 331.135 -0.366314 3.74613 0
M  V30 3446 C 330.282 0.415832 2.74164 0
M  V30 3447 H 333.233 0.689612 1.42934 0
M  V30 3448 H 333.254 -0.76889 3.7265 0
M  V30 3449 H 332.766 1.05584 3.73462 0
M  V30 3450 H 330.867 -1.39406 3.45538 0
M  V30 3451 H 330.98 -0.064555 4.79057 0
M  V30 3452 H 329.344 -0.131048 2.54363 0
M  V30 3453 H 330.127 1.43899 3.11686 0
M  V30 3454 N 332.573 -1.56217 0.208337 0
M  V30 3455 C 333.506 -2.15633 -0.746842 0
M  V30 3456 C 334.484 -1.09685 -1.20034 0
M  V30 3457 O 335.668 -1.3787 -1.28547 0
M  V30 3458 C 332.795 -2.72594 -2.01023 0
M  V30 3459 C 331.841 -3.91251 -1.69779 0
M  V30 3460 S 332.674 -5.28962 -0.834209 0
M  V30 3461 C 333.83 -5.89353 -2.10745 0
M  V30 3462 H 334.063 -2.96315 -0.241789 0
M  V30 3463 H 331.596 -1.54398 -0.00682183 0
M  V30 3464 H 333.554 -3.06053 -2.73572 0
M  V30 3465 H 332.215 -1.91929 -2.48641 0
M  V30 3466 H 331.408 -4.29562 -2.63614 0
M  V30 3467 H 331.01 -3.58869 -1.05303 0
M  V30 3468 H 333.302 -6.04522 -3.05875 0
M  V30 3469 H 334.245 -6.85661 -1.76845 0
M  V30 3470 H 334.653 -5.1807 -2.24196 0
M  V30 3471 N 334.051 0.0651679 -1.57465 0
M  V30 3472 C 334.961 1.09448 -2.07505 0
M  V30 3473 C 335.977 1.41974 -1.00595 0
M  V30 3474 O 337.153 1.52018 -1.32107 0
M  V30 3475 C 334.218 2.38689 -2.51453 0
M  V30 3476 C 333.279 2.13073 -3.72691 0
M  V30 3477 C 332.512 3.36152 -4.14533 0
M  V30 3478 O 332.735 4.45517 -3.56189 0
M  V30 3479 O 331.669 3.23974 -5.07272 0
M  V30 3480 H 335.495 0.69935 -2.95538 0
M  V30 3481 H 333.08 0.279752 -1.46757 0
M  V30 3482 H 334.962 3.14736 -2.80212 0
M  V30 3483 H 333.637 2.77568 -1.66546 0
M  V30 3484 H 332.544 1.34709 -3.49005 0
M  V30 3485 H 333.877 1.79071 -4.5847 0
M  V30 3486 N 335.529 1.53961 0.336706 0
M  V30 3487 C 336.945 1.44378 0.680241 0
M  V30 3488 C 337.145 0.606034 1.9217 0
M  V30 3489 O 336.201 0.099688 2.52303 0
M  V30 3490 C 337.514 2.87945 0.8665 0
M  V30 3491 C 339.062 2.97763 0.964682 0
M  V30 3492 C 339.537 4.42453 1.18321 0
M  V30 3493 N 341.028 4.46008 1.25025 0
M  V30 3494 C 341.763 5.55102 1.43697 0
M  V30 3495 N 341.259 6.7419 1.59498 0
M  V30 3496 N 343.052 5.42727 1.463 0
M  V30 3497 H 335.203 2.06918 -0.479455 0
M  V30 3498 H 337.466 0.935634 -0.152619 0
M  V30 3499 H 337.172 3.51691 0.0256937 0
M  V30 3500 H 337.046 3.33293 1.76623 0
M  V30 3501 H 339.433 2.34153 1.796 0
M  V30 3502 H 339.514 2.55766 0.041708 0
M  V30 3503 H 339.158 5.06645 0.356788 0
M  V30 3504 H 339.088 4.82048 2.11985 0
M  V30 3505 H 341.579 3.60196 1.14312 0
M  V30 3506 H 341.892 7.53095 1.734 0
M  V30 3507 H 340.237 6.77123 1.56621 0
M  V30 3508 H 343.428 4.48647 1.33543 0
M  V30 3509 H 343.601 6.27806 1.6051 0
M  V30 3510 N 337.007 -0.598083 1.45811 0
M  V30 3511 C 337.937 -1.71873 1.58057 0
M  V30 3512 C 338.918 -1.64533 0.431615 0
M  V30 3513 O 340.103 -1.82787 0.65595 0
M  V30 3514 C 337.233 -3.10495 1.55597 0
M  V30 3515 C 336.187 -3.32654 2.69305 0
M  V30 3516 C 335.513 -4.71646 2.51902 0
M  V30 3517 C 336.813 -3.21981 4.11248 0
M  V30 3518 H 338.507 -1.61881 2.51863 0
M  V30 3519 H 336.053 -0.777372 1.21214 0
M  V30 3520 H 338.006 -3.88699 1.6276 0
M  V30 3521 H 336.73 -3.2135 0.583255 0
M  V30 3522 H 335.389 -2.56843 2.61586 0
M  V30 3523 H 335.037 -4.79246 1.52748 0
M  V30 3524 H 334.737 -4.87426 3.2816 0
M  V30 3525 H 336.261 -5.52038 2.60933 0
M  V30 3526 H 337.675 -3.90049 4.20161 0
M  V30 3527 H 336.072 -3.49289 4.87972 0
M  V30 3528 H 337.142 -2.1928 4.32486 0
M  V30 3529 N 338.485 -1.33259 -0.841409 0
M  V30 3530 C 339.448 -1.23221 -1.9326 0
M  V30 3531 C 340.448 -0.151895 -1.60081 0
M  V30 3532 O 341.638 -0.403246 -1.69468 0
M  V30 3533 C 338.77 -0.898123 -3.28856 0
M  V30 3534 H 339.963 -2.2021 -2.03587 0
M  V30 3535 H 337.516 -1.17281 -1.03319 0
M  V30 3536 H 338.251 0.0693841 -3.24226 0
M  V30 3537 H 338.036 -1.67934 -3.54317 0
M  V30 3538 H 339.526 -0.852563 -4.08805 0
M  V30 3539 N 339.963 1.05934 -1.16686 0
M  V30 3540 C 341.188 1.83029 -0.975455 0
M  V30 3541 C 341.613 1.82096 0.471452 0
M  V30 3542 O 340.971 1.22443 1.33706 0
M  V30 3543 C 341.019 3.27372 -1.51195 0
M  V30 3544 O 340.123 4.06054 -0.720701 0
M  V30 3545 H 339.464 0.566194 -0.346872 0
M  V30 3546 H 341.994 1.33541 -1.55009 0
M  V30 3547 H 342.004 3.78186 -1.53099 0
M  V30 3548 H 340.679 3.27366 -2.56523 0
M  V30 3549 H 339.256 3.64812 -0.772458 0
M  V30 3550 N 341.441 0.965919 1.2453 0
M  V30 3551 C 342.671 0.643451 1.96324 0
M  V30 3552 C 343.079 -0.790927 1.71875 0
M  V30 3553 O 342.422 -1.54208 0.998273 0
M  V30 3554 C 342.484 0.836078 3.49643 0
M  V30 3555 C 342.148 2.24975 3.97788 0
M  V30 3556 C 343.145 3.22735 4.07601 0
M  V30 3557 C 340.83 2.57697 4.31158 0
M  V30 3558 C 342.824 4.51303 4.50116 0
M  V30 3559 C 340.511 3.86492 4.73357 0
M  V30 3560 C 341.509 4.83107 4.828 0
M  V30 3561 O 341.197 6.09605 5.24058 0
M  V30 3562 H 340.929 0.239223 0.632257 0
M  V30 3563 H 343.483 1.29587 1.59362 0
M  V30 3564 H 341.713 0.12649 3.86493 0
M  V30 3565 H 343.402 0.512965 4.02646 0
M  V30 3566 H 344.168 2.98783 3.82039 0
M  V30 3567 H 340.047 1.83216 4.23028 0
M  V30 3568 H 343.591 5.26716 4.57401 0
M  V30 3569 H 339.488 4.10245 4.98366 0
M  V30 3570 H 340.256 6.13146 5.42213 0
M  V30 3571 N 342.919 -1.39368 0.735821 0
M  V30 3572 C 344.167 -2.00101 0.283562 0
M  V30 3573 C 344.488 -1.5868 -1.13338 0
M  V30 3574 O 343.758 -0.835423 -1.77193 0
M  V30 3575 H 342.338 -0.740024 0.101851 0
M  V30 3576 H 345 -1.70404 0.945962 0
M  V30 3577 H 344.096 -3.10323 0.332604 0
M  V30 3578 N 344.397 -0.483516 -1.5 0
M  V30 3579 C 345.622 0.0667119 -2.07293 0
M  V30 3580 C 346.047 1.3164 -1.3436 0
M  V30 3581 O 345.405 1.76945 -0.394987 0
M  V30 3582 C 345.453 0.321126 -3.59167 0
M  V30 3583 O 344.557 1.39927 -3.87936 0
M  V30 3584 H 343.898 -0.0184758 -0.663743 0
M  V30 3585 H 346.428 -0.678125 -1.93035 0
M  V30 3586 H 346.438 0.557906 -4.04168 0
M  V30 3587 H 345.113 -0.592007 -4.11665 0
M  V30 3588 H 343.69 1.14882 -3.54763 0
M  V30 3589 N 345.875 1.56104 -0.216619 0
M  V30 3590 C 347.1 2.0301 0.424462 0
M  V30 3591 C 347.525 1.0955 1.52907 0
M  V30 3592 O 346.883 0.0827914 1.81111 0
M  V30 3593 C 346.931 3.4819 0.937883 0
M  V30 3594 O 346.035 3.57865 2.04955 0
M  V30 3595 H 345.376 0.656925 0.0966755 0
M  V30 3596 H 347.906 2.01859 -0.33381 0
M  V30 3597 H 347.916 3.88413 1.24897 0
M  V30 3598 H 346.591 4.15699 0.129387 0
M  V30 3599 H 345.168 3.29527 1.74546 0
M  V30 3600 N 347.353 -0.0568162 1.57498 0
M  V30 3601 C 348.3 -1.06591 2.04712 0
M  V30 3602 C 349.27 -1.3758 0.930644 0
M  V30 3603 O 350.455 -1.48392 1.19935 0
M  V30 3604 C 347.595 -2.3701 2.50839 0
M  V30 3605 C 346.708 -2.12421 3.76167 0
M  V30 3606 C 345.843 -3.36511 4.11015 0
M  V30 3607 C 344.882 -3.07353 5.2934 0
M  V30 3608 N 344.019 -4.23816 5.59754 0
M  V30 3609 H 348.859 -0.65631 2.90683 0
M  V30 3610 H 346.396 -0.312481 1.43743 0
M  V30 3611 H 348.354 -3.13175 2.7564 0
M  V30 3612 H 346.984 -2.75744 1.67825 0
M  V30 3613 H 346.036 -1.2688 3.58616 0
M  V30 3614 H 347.348 -1.86894 4.62463 0
M  V30 3615 H 346.502 -4.21062 4.36797 0
M  V30 3616 H 345.241 -3.65128 3.23315 0
M  V30 3617 H 344.246 -2.212 5.03339 0
M  V30 3618 H 345.471 -2.80043 6.1867 0
M  V30 3619 H 343.417 -4.52436 4.75014 0
M  V30 3620 H 343.334 -4.01614 6.40501 0
M  V30 3621 H 344.602 -5.0932 5.90096 0
M  V30 3622 N 348.832 -1.54138 -0.328536 0
M  V30 3623 C 349.795 -1.82462 -1.38709 0
M  V30 3624 C 350.795 -0.696229 -1.44946 0
M  V30 3625 O 351.985 -0.964535 -1.4506 0
M  V30 3626 C 349.117 -1.98018 -2.77492 0
M  V30 3627 H 350.31 -2.77037 -1.14851 0
M  V30 3628 H 347.863 -1.45779 -0.563751 0
M  V30 3629 H 348.598 -1.05637 -3.06613 0
M  V30 3630 H 348.383 -2.80124 -2.74359 0
M  V30 3631 H 349.873 -2.21396 -3.54081 0
M  V30 3632 N 350.31 0.590341 -1.46126 0
M  V30 3633 C 351.273 1.68194 -1.55703 0
M  V30 3634 C 352.273 1.54808 -0.434868 0
M  V30 3635 O 353.463 1.59564 -0.698928 0
M  V30 3636 C 350.595 3.07575 -1.47005 0
M  V30 3637 H 351.788 1.61064 -2.52979 0
M  V30 3638 H 349.341 0.807541 -1.33823 0
M  V30 3639 H 350.076 3.20268 -0.509785 0
M  V30 3640 H 349.861 3.187 -2.28414 0
M  V30 3641 H 351.351 3.87055 -1.56776 0
M  V30 3642 N 351.788 1.33704 0.83433 0
M  V30 3643 C 353.034 1.25603 1.59222 0
M  V30 3644 C 353.367 -0.176659 1.93395 0
M  V30 3645 O 352.642 -1.11915 1.59076 0
M  V30 3646 C 352.925 2.13576 2.89926 0
M  V30 3647 C 352.778 3.65326 2.62406 0
M  V30 3648 C 354.097 2.01238 3.91397 0
M  V30 3649 H 351.216 0.457613 0.577719 0
M  V30 3650 H 353.858 1.63848 0.961972 0
M  V30 3651 H 352.008 1.8109 3.43713 0
M  V30 3652 H 353.68 4.08124 2.15017 0
M  V30 3653 H 351.923 3.8698 1.96033 0
M  V30 3654 H 352.594 4.22232 3.55562 0
M  V30 3655 H 355.07 2.29738 3.46929 0
M  V30 3656 H 353.946 2.65036 4.80673 0
M  V30 3657 H 354.207 0.985951 4.30966 0
M  V30 3658 N 353.266 -1.05314 1.17247 0
M  V30 3659 C 354.494 -1.81971 0.984593 0
M  V30 3660 C 354.909 -1.82929 -0.467166 0
M  V30 3661 O 354.266 -1.25564 -1.32438 0
M  V30 3662 C 354.317 -3.28143 1.51672 0
M  V30 3663 O 354.038 -3.27347 2.91163 0
M  V30 3664 C 355.539 -4.21493 1.37326 0
M  V30 3665 H 352.759 -0.573455 0.348411 0
M  V30 3666 H 355.303 -1.32808 1.55506 0
M  V30 3667 H 353.458 -3.74582 0.988302 0
M  V30 3668 H 353.872 -4.18824 3.15732 0
M  V30 3669 H 355.346 -5.22043 1.79375 0
M  V30 3670 H 355.823 -4.38031 0.320169 0
M  V30 3671 H 356.429 -3.80909 1.89178 0
M  V30 3672 N 354.744 -0.972509 -1.24016 0
M  V30 3673 C 355.677 -0.45117 -2.23696 0
M  V30 3674 C 356.655 0.477378 -1.55434 0
M  V30 3675 O 357.839 0.407647 -1.84039 0
M  V30 3676 C 354.966 0.34818 -3.36906 0
M  V30 3677 C 354.012 -0.523355 -4.23277 0
M  V30 3678 S 354.845 -1.96647 -4.98087 0
M  V30 3679 C 356.001 -1.17604 -6.14752 0
M  V30 3680 H 356.234 -1.29588 -2.67571 0
M  V30 3681 H 353.767 -0.777903 -1.33372 0
M  V30 3682 H 355.725 0.803387 -4.02562 0
M  V30 3683 H 354.386 1.16792 -2.91579 0
M  V30 3684 H 353.579 0.0906181 -5.03919 0
M  V30 3685 H 353.181 -0.914485 -3.62647 0
M  V30 3686 H 355.473 -0.433434 -6.76112 0
M  V30 3687 H 356.416 -1.95701 -6.8052 0
M  V30 3688 H 356.824 -0.698295 -5.60164 0
M  V30 3689 N 356.222 1.38976 -0.743202 0
M  V30 3690 C 357.469 2.00343 -0.294752 0
M  V30 3691 C 357.797 1.58983 1.12047 0
M  V30 3692 O 357.052 0.813809 1.77977 0
M  V30 3693 C 357.351 3.55647 -0.353517 0
M  V30 3694 C 357.017 4.16685 -1.72292 0
M  V30 3695 C 355.679 4.3307 -2.09771 0
M  V30 3696 C 358.031 4.50464 -2.62168 0
M  V30 3697 C 355.359 4.80526 -3.36618 0
M  V30 3698 C 357.711 4.99332 -3.88395 0
M  V30 3699 C 356.375 5.13924 -4.25956 0
M  V30 3700 H 355.645 0.733108 -0.107857 0
M  V30 3701 H 358.292 1.6618 -0.951651 0
M  V30 3702 H 356.597 3.89884 0.386954 0
M  V30 3703 H 358.294 4.00998 0.0117269 0
M  V30 3704 H 354.884 4.04339 -1.42155 0
M  V30 3705 H 359.068 4.37416 -2.3448 0
M  V30 3706 H 354.324 4.90008 -3.65653 0
M  V30 3707 H 358.498 5.2444 -4.58187 0
M  V30 3708 H 356.125 5.50457 -5.2431 0
M  V30 3709 N 357.7 0.491464 1.49741 0
M  V30 3710 C 358.925 -0.0557177 2.07325 0
M  V30 3711 C 359.35 -1.30925 1.35056 0
M  V30 3712 O 358.708 -1.76733 0.404365 0
M  V30 3713 C 358.756 -0.302074 3.59333 0
M  V30 3714 O 357.86 -1.37868 3.88672 0
M  V30 3715 H 357.201 0.0219956 0.663636 0
M  V30 3716 H 359.731 0.688352 1.92673 0
M  V30 3717 H 359.741 -0.536464 4.04458 0
M  V30 3718 H 358.416 0.61383 4.11345 0
M  V30 3719 H 356.993 -1.12999 3.55367 0
M  V30 3720 N 359.178 -1.55987 0.224894 0
M  V30 3721 C 360.403 -2.03232 -0.41369 0
M  V30 3722 C 360.828 -1.10359 -1.52323 0
M  V30 3723 O 360.186 -0.092395 -1.81064 0
M  V30 3724 C 360.234 -3.48682 -0.919405 0
M  V30 3725 O 359.338 -3.58947 -2.03054 0
M  V30 3726 H 358.679 -0.657428 -0.0931903 0
M  V30 3727 H 361.209 -2.01679 0.34451 0
M  V30 3728 H 361.219 -3.8907 -1.22835 0
M  V30 3729 H 359.894 -4.15761 -0.107339 0
M  V30 3730 H 358.471 -3.30448 -1.72796 0
M  V30 3731 N 360.656 0.0484629 -1.57525 0
M  V30 3732 C 361.902 0.744226 -1.88651 0
M  V30 3733 C 362.235 1.76029 -0.820212 0
M  V30 3734 O 361.51 1.93782 0.166985 0
M  V30 3735 C 361.793 1.43128 -3.30434 0
M  V30 3736 C 361.646 0.43005 -4.47739 0
M  V30 3737 C 362.965 2.37031 -3.70816 0
M  V30 3738 H 360.084 0.269089 -0.68612 0
M  V30 3739 H 362.726 0.00713532 -1.89999 0
M  V30 3740 H 360.876 2.05956 -3.29415 0
M  V30 3741 H 362.548 -0.194816 -4.60888 0
M  V30 3742 H 360.791 -0.252522 -4.33064 0
M  V30 3743 H 361.462 0.948874 -5.43783 0
M  V30 3744 H 363.938 1.84263 -3.73077 0
M  V30 3745 H 362.814 2.82094 -4.70865 0
M  V30 3746 H 363.075 3.22864 -3.02012 0
M  V30 3747 N 362.134 1.5431 0.320358 0
M  V30 3748 C 363.067 1.78769 1.41834 0
M  V30 3749 C 364.045 0.63783 1.49568 0
M  V30 3750 O 365.229 0.875628 1.66928 0
M  V30 3751 C 362.356 1.90712 2.79905 0
M  V30 3752 C 361.402 3.13023 2.89687 0
M  V30 3753 S 362.235 4.71554 2.53766 0
M  V30 3754 C 363.391 4.86408 3.93902 0
M  V30 3755 H 363.624 2.71619 1.20874 0
M  V30 3756 H 361.157 1.45474 0.517377 0
M  V30 3757 H 363.115 1.98279 3.59438 0
M  V30 3758 H 361.776 0.988343 2.98145 0
M  V30 3759 H 360.969 3.18124 3.90913 0
M  V30 3760 H 360.571 3.03803 2.18128 0
M  V30 3761 H 362.863 4.69241 4.88691 0
M  V30 3762 H 363.806 5.88508 3.93782 0
M  V30 3763 H 364.214 4.14689 3.83005 0
M  V30 3764 N 363.613 -0.582584 1.46437 0
M  V30 3765 C 365.029 -0.905962 1.31394 0
M  V30 3766 C 365.229 -1.99468 0.285476 0
M  V30 3767 O 364.285 -2.50566 -0.311914 0
M  V30 3768 C 365.598 -1.3232 2.70022 0
M  V30 3769 C 367.146 -1.43604 2.78113 0
M  V30 3770 C 367.621 -1.88694 4.17323 0
M  V30 3771 N 369.112 -1.95887 4.19741 0
M  V30 3772 C 369.847 -2.32051 5.24347 0
M  V30 3773 N 369.343 -2.67006 6.39281 0
M  V30 3774 N 371.136 -2.32606 5.11713 0
M  V30 3775 H 363.287 0.1366 2.1196 0
M  V30 3776 H 365.55 -0.00155736 0.947999 0
M  V30 3777 H 365.256 -0.597242 3.46592 0
M  V30 3778 H 365.13 -2.28469 3.00136 0
M  V30 3779 H 367.517 -2.15286 2.01832 0
M  V30 3780 H 367.598 -0.457059 2.51684 0
M  V30 3781 H 367.242 -1.1759 4.941 0
M  V30 3782 H 367.172 -2.8755 4.4116 0
M  V30 3783 H 369.663 -1.71362 3.36814 0
M  V30 3784 H 369.976 -2.93554 7.14875 0
M  V30 3785 H 368.321 -2.64644 6.42642 0
M  V30 3786 H 371.512 -2.04721 4.2096 0
M  V30 3787 H 371.685 -2.60462 5.93349 0
M  V30 3788 N 365.091 -1.34144 -0.827227 0
M  V30 3789 C 366.021 -1.28005 -1.95287 0
M  V30 3790 C 367.002 -0.158321 -1.69362 0
M  V30 3791 O 368.187 -0.349987 -1.9102 0
M  V30 3792 C 365.317 -1.03036 -3.31664 0
M  V30 3793 C 364.271 -2.11628 -3.72019 0
M  V30 3794 C 363.597 -1.71854 -5.0633 0
M  V30 3795 C 364.897 -3.53417 -3.8457 0
M  V30 3796 H 366.591 -2.22187 -2.00682 0
M  V30 3797 H 364.137 -1.0696 -0.964135 0
M  V30 3798 H 366.09 -0.973863 -4.09993 0
M  V30 3799 H 364.814 -0.0529391 -3.26557 0
M  V30 3800 H 363.473 -2.16339 -2.95961 0
M  V30 3801 H 363.121 -0.727841 -4.97706 0
M  V30 3802 H 362.821 -2.44531 -5.34302 0
M  V30 3803 H 364.345 -1.67692 -5.87122 0
M  V30 3804 H 365.759 -3.51142 -4.5318 0
M  V30 3805 H 364.156 -4.24679 -4.2399 0
M  V30 3806 H 365.226 -3.91072 -2.86689 0
M  V30 3807 N 366.569 1.04691 -1.17803 0
M  V30 3808 C 367.479 2.16057 -0.914151 0
M  V30 3809 C 368.495 1.73589 0.119503 0
M  V30 3810 O 369.671 2.01308 -0.0609468 0
M  V30 3811 C 366.736 3.4394 -0.436603 0
M  V30 3812 C 365.797 4.00825 -1.53746 0
M  V30 3813 C 365.03 5.22604 -1.0826 0
M  V30 3814 O 365.253 5.70367 0.0612244 0
M  V30 3815 O 364.187 5.7186 -1.87775 0
M  V30 3816 H 368.013 2.41169 -1.84584 0
M  V30 3817 H 365.598 1.1453 -0.959334 0
M  V30 3818 H 367.48 4.21024 -0.178057 0
M  V30 3819 H 366.155 3.20316 0.466869 0
M  V30 3820 H 365.062 3.25158 -1.84995 0
M  V30 3821 H 366.395 4.28778 -2.41683 0
M  V30 3822 N 368.047 0.979072 1.23499 0
M  V30 3823 C 368.977 0.537606 2.27227 0
M  V30 3824 C 369.958 -0.428539 1.64613 0
M  V30 3825 O 371.143 -0.322191 1.91509 0
M  V30 3826 C 368.273 -0.162052 3.46922 0
M  V30 3827 C 367.227 0.721242 4.21879 0
M  V30 3828 C 366.553 -0.110555 5.34586 0
M  V30 3829 C 367.853 2.01141 4.82016 0
M  V30 3830 H 369.547 1.40462 2.64406 0
M  V30 3831 H 367.093 0.67684 1.27102 0
M  V30 3832 H 369.046 -0.482192 4.18632 0
M  V30 3833 H 367.77 -1.06351 3.08799 0
M  V30 3834 H 366.429 1.02482 3.51984 0
M  V30 3835 H 366.077 -1.0125 4.92704 0
M  V30 3836 H 365.777 0.477325 5.85658 0
M  V30 3837 H 367.301 -0.425107 6.09118 0
M  V30 3838 H 368.715 1.75612 5.45741 0
M  V30 3839 H 367.112 2.54695 5.43369 0
M  V30 3840 H 368.182 2.69909 4.02836 0
M  V30 3841 N 369.525 -1.3858 0.750561 0
M  V30 3842 C 370.75 -2.04997 0.314812 0
M  V30 3843 C 371.175 -1.56235 -1.04749 0
M  V30 3844 O 370.533 -0.712981 -1.66692 0
M  V30 3845 C 370.581 -3.58961 0.343415 0
M  V30 3846 O 369.685 -4.07025 -0.663628 0
M  V30 3847 H 369.026 -0.649081 0.139962 0
M  V30 3848 H 371.556 -1.77313 1.02084 0
M  V30 3849 H 371.566 -4.07542 0.193233 0
M  V30 3850 H 370.241 -3.93811 1.33738 0
M  V30 3851 H 368.818 -3.6982 -0.478307 0
M  V30 3852 N 371.003 -0.499398 -1.49478 0
M  V30 3853 C 371.95 0.279881 -2.29097 0
M  V30 3854 C 372.92 0.961805 -1.3542 0
M  V30 3855 O 374.105 0.968777 -1.64376 0
M  V30 3856 C 371.245 1.33932 -3.18051 0
M  V30 3857 C 370.358 0.669333 -4.26783 0
M  V30 3858 C 369.493 1.70907 -5.02955 0
M  V30 3859 C 368.532 1.02087 -6.03527 0
M  V30 3860 N 367.669 2.00474 -6.7287 0
M  V30 3861 H 372.509 -0.405317 -2.95231 0
M  V30 3862 H 370.046 -0.211726 -1.45568 0
M  V30 3863 H 372.004 1.96553 -3.67998 0
M  V30 3864 H 370.634 1.9933 -2.53904 0
M  V30 3865 H 369.686 -0.0701234 -3.80335 0
M  V30 3866 H 370.998 0.127503 -4.98637 0
M  V30 3867 H 370.152 2.41037 -5.56764 0
M  V30 3868 H 368.891 2.28476 -4.30871 0
M  V30 3869 H 367.896 0.305338 -5.48951 0
M  V30 3870 H 369.121 0.451708 -6.77596 0
M  V30 3871 H 367.067 2.57007 -6.03559 0
M  V30 3872 H 366.984 1.51353 -7.40694 0
M  V30 3873 H 368.252 2.69897 -7.31284 0
M  V30 3874 N 372.481 1.55866 -0.233164 0
M  V30 3875 C 373.727 1.99643 0.389148 0
M  V30 3876 C 374.082 1.11836 1.56558 0
M  V30 3877 O 373.375 0.170848 1.90837 0
M  V30 3878 C 373.569 3.46856 0.861724 0
M  V30 3879 C 373.398 4.48904 -0.267376 0
M  V30 3880 C 372.168 4.99888 -0.737577 0
M  V30 3881 C 374.366 5.02624 -1.08966 0
M  V30 3882 N 372.348 5.8566 -1.84052 0
M  V30 3883 C 373.719 5.85434 -2.04125 0
M  V30 3884 C 375.774 4.84959 -1.12779 0
M  V30 3885 C 374.477 6.52466 -3.02789 0
M  V30 3886 C 376.503 5.52759 -2.10266 0
M  V30 3887 C 375.865 6.35346 -3.04162 0
M  V30 3888 H 371.964 0.774402 0.108742 0
M  V30 3889 H 374.548 1.91572 -0.347596 0
M  V30 3890 H 372.719 3.55352 1.5678 0
M  V30 3891 H 374.451 3.77531 1.45783 0
M  V30 3892 H 371.206 4.7249 -0.324122 0
M  V30 3893 H 371.63 6.33246 -2.39434 0
M  V30 3894 H 376.272 4.20751 -0.415749 0
M  V30 3895 H 373.99 7.15849 -3.74948 0
M  V30 3896 H 377.576 5.41051 -2.13905 0
M  V30 3897 H 376.456 6.86883 -3.78366 0
M  V30 3898 N 373.959 -0.0401083 1.57549 0
M  V30 3899 C 375.207 -0.731677 1.8839 0
M  V30 3900 C 375.528 -1.76481 0.829425 0
M  V30 3901 O 374.798 -1.95411 -0.1383 0
M  V30 3902 H 373.378 -0.273225 0.695239 0
M  V30 3903 H 376.04 -0.00867725 1.94898 0
M  V30 3904 H 375.136 -1.22816 2.86919 0
M  V30 3905 N 375.437 -1.54477 -0.31217 0
M  V30 3906 C 376.686 -1.72438 -1.04633 0
M  V30 3907 C 376.999 -0.511163 -1.88803 0
M  V30 3908 O 378.205 -0.572341 -2.65399 0
M  V30 3909 C 376.661 -3.05043 -1.9099 0
M  V30 3910 C 376.269 -4.33806 -1.11877 0
M  V30 3911 C 378.013 -3.32364 -2.64073 0
M  V30 3912 C 375.92 -5.57467 -1.97445 0
M  V30 3913 H 374.85 -0.642647 -0.394361 0
M  V30 3914 H 377.501 -1.80966 -0.303929 0
M  V30 3915 H 375.883 -2.90451 -2.69173 0
M  V30 3916 H 377.057 -4.59199 -0.383843 0
M  V30 3917 H 375.372 -4.13336 -0.504252 0
M  V30 3918 H 377.969 -4.21951 -3.28423 0
M  V30 3919 H 378.312 -2.50745 -3.32314 0
M  V30 3920 H 378.845 -3.47875 -1.92944 0
M  V30 3921 H 375.584 -6.41722 -1.33692 0
M  V30 3922 H 375.104 -5.36277 -2.6864 0
M  V30 3923 H 376.783 -5.94303 -2.5576 0
M  V30 3924 N 376.915 0.57481 -1.46744 0
M  V30 3925 C 377.862 1.68329 -1.57905 0
M  V30 3926 C 378.832 1.60625 -0.422927 0
M  V30 3927 O 380.017 1.79721 -0.640711 0
M  V30 3928 C 377.157 3.06665 -1.58274 0
M  V30 3929 C 376.27 3.24935 -2.84678 0
M  V30 3930 C 375.405 4.53566 -2.76499 0
M  V30 3931 C 374.444 4.65207 -3.97806 0
M  V30 3932 N 373.581 5.85172 -3.87967 0
M  V30 3933 H 378.421 1.58127 -2.52587 0
M  V30 3934 H 375.958 0.770552 -1.25303 0
M  V30 3935 H 377.916 3.86745 -1.56473 0
M  V30 3936 H 376.546 3.15745 -0.671194 0
M  V30 3937 H 375.598 2.38405 -2.96424 0
M  V30 3938 H 376.91 3.29403 -3.7456 0
M  V30 3939 H 376.064 5.41885 -2.72848 0
M  V30 3940 H 374.803 4.51548 -1.8427 0
M  V30 3941 H 373.808 3.75304 -4.0178 0
M  V30 3942 H 375.033 4.68997 -4.9114 0
M  V30 3943 H 372.979 5.84137 -2.98529 0
M  V30 3944 H 372.896 5.90943 -4.71511 0
M  V30 3945 H 374.164 6.759 -3.88303 0
M  V30 3946 N 378.394 1.34581 0.820102 0
M  V30 3947 C 379.64 1.27285 1.57881 0
M  V30 3948 C 379.973 -0.156137 1.93571 0
M  V30 3949 O 379.248 -1.10222 1.60254 0
M  V30 3950 C 379.531 2.16639 2.87645 0
M  V30 3951 C 379.384 3.68088 2.58517 0
M  V30 3952 C 380.703 2.05378 3.8924 0
M  V30 3953 H 377.822 0.463714 0.572833 0
M  V30 3954 H 380.464 1.64859 0.944539 0
M  V30 3955 H 378.614 1.84725 3.41773 0
M  V30 3956 H 380.286 4.10382 2.10676 0
M  V30 3957 H 378.529 3.89038 1.91917 0
M  V30 3958 H 379.2 4.2598 3.51063 0
M  V30 3959 H 381.676 2.33404 3.44473 0
M  V30 3960 H 380.552 2.7012 4.77835 0
M  V30 3961 H 380.813 1.0316 4.29896 0
M  V30 3962 N 379.872 -1.04064 1.18357 0
M  V30 3963 C 380.835 -2.10243 0.912707 0
M  V30 3964 C 381.835 -1.60477 -0.101928 0
M  V30 3965 O 383.025 -1.73703 0.131517 0
M  V30 3966 C 380.157 -3.38893 0.369387 0
M  V30 3967 H 381.35 -2.35706 1.85426 0
M  V30 3968 H 378.903 -1.20489 0.995594 0
M  V30 3969 H 379.638 -3.19094 -0.578776 0
M  V30 3970 H 379.423 -3.76331 1.1008 0
M  V30 3971 H 380.913 -4.17128 0.198575 0
M  V30 3972 N 381.35 -0.985608 -1.22978 0
M  V30 3973 C 382.575 -0.675254 -1.961 0
M  V30 3974 C 383 0.752154 -1.72407 0
M  V30 3975 O 382.358 1.5131 -0.998751 0
M  V30 3976 C 382.406 -0.977899 -3.47087 0
M  V30 3977 O 381.51 -0.072685 -4.12336 0
M  V30 3978 H 380.851 -0.253443 -0.613728 0
M  V30 3979 H 383.381 -1.32061 -1.56272 0
M  V30 3980 H 383.391 -0.916739 -3.97567 0
M  V30 3981 H 382.066 -2.01807 -3.63657 0
M  V30 3982 H 380.643 -0.188703 -3.72422 0
M  V30 3983 N 382.828 1.3818 -0.7579 0
M  V30 3984 C 384.077 1.99261 -0.312744 0
M  V30 3985 C 384.39 1.60846 1.11301 0
M  V30 3986 O 385.596 2.14929 1.65885 0
M  V30 3987 C 384.052 3.56294 -0.50821 0
M  V30 3988 C 383.66 4.03657 -1.94333 0
M  V30 3989 C 385.404 4.24313 -0.125982 0
M  V30 3990 C 383.311 5.53347 -2.08712 0
M  V30 3991 H 382.241 0.745456 -0.113185 0
M  V30 3992 H 384.892 1.57889 -0.935056 0
M  V30 3993 H 383.274 3.95575 0.183353 0
M  V30 3994 H 384.448 3.75655 -2.66871 0
M  V30 3995 H 382.763 3.48376 -2.28086 0
M  V30 3996 H 385.36 5.34279 -0.212125 0
M  V30 3997 H 385.703 4.05962 0.921964 0
M  V30 3998 H 386.236 3.90285 -0.769563 0
M  V30 3999 H 382.975 5.76607 -3.11777 0
M  V30 4000 H 382.495 5.83078 -1.4064 0
M  V30 4001 H 384.174 6.19111 -1.87912 0
M  V30 4002 N 384.306 0.507319 1.49211 0
M  V30 4003 C 385.238 -0.304532 2.27168 0
M  V30 4004 C 386.251 -0.924956 1.33972 0
M  V30 4005 O 387.44 -0.807227 1.59205 0
M  V30 4006 C 384.54 -1.44431 3.06583 0
M  V30 4007 C 383.713 -0.930026 4.27398 0
M  V30 4008 C 382.772 -1.94817 4.88807 0
M  V30 4009 O 381.798 -1.51418 5.4869 0
M  V30 4010 N 383 -3.279 4.79022 0
M  V30 4011 H 385.765 0.36395 2.97482 0
M  V30 4012 H 383.326 0.340249 1.58284 0
M  V30 4013 H 385.318 -2.12311 3.44537 0
M  V30 4014 H 383.888 -2.01684 2.38835 0
M  V30 4015 H 383.108 -0.0759244 3.94127 0
M  V30 4016 H 384.396 -0.564932 5.05654 0
M  V30 4017 H 383.794 -3.65843 4.3148 0
M  V30 4018 H 382.351 -3.91476 5.21142 0
M  V30 4019 N 385.784 -1.5574 0.241426 0
M  V30 4020 C 387.195 -1.84842 -0.262755 0
M  V30 4021 C 387.546 -1.16317 -1.58003 0
M  V30 4022 O 386.671 -0.439653 -2.11887 0
M  V30 4023 C 387.266 -3.35332 -0.483523 0
M  V30 4024 C 385.825 -3.6468 -0.931977 0
M  V30 4025 C 384.972 -2.77299 -0.0061151 0
M  V30 4026 H 387.923 -1.51761 0.464129 0
M  V30 4027 H 387.944 -3.56615 -1.32688 0
M  V30 4028 H 387.456 -3.85178 0.47537 0
M  V30 4029 H 385.557 -3.20307 -1.90353 0
M  V30 4030 H 385.67 -4.72498 -0.792628 0
M  V30 4031 H 384.034 -2.49408 -0.516503 0
M  V30 4032 H 384.817 -3.2995 0.948052 0
M  V30 4033 N 387.262 0.0317525 -1.57568 0
M  V30 4034 C 388.51 0.721676 -1.88776 0
M  V30 4035 C 388.831 1.76039 -0.838772 0
M  V30 4036 O 388.101 1.95482 0.127935 0
M  V30 4037 H 386.681 0.269534 -0.696678 0
M  V30 4038 H 389.343 -0.00165879 -1.949 0
M  V30 4039 H 388.439 1.21293 -2.87566 0
M  V30 4040 N 388.74 1.54641 0.303973 0
M  V30 4041 C 389.988 1.73437 1.0375 0
M  V30 4042 C 390.309 0.521449 1.87899 0
M  V30 4043 O 389.579 -0.46432 1.90318 0
M  V30 4044 H 388.159 0.639518 0.386039 0
M  V30 4045 H 390.821 1.91988 0.335675 0
M  V30 4046 H 389.917 2.62235 1.69231 0
M  V30 4047 N 390.218 -0.567019 1.47046 0
M  V30 4048 C 391.465 -1.32462 1.53167 0
M  V30 4049 C 391.793 -1.93571 0.189841 0
M  V30 4050 O 391.048 -1.77865 -0.816243 0
M  V30 4051 C 391.347 -2.4623 2.59047 0
M  V30 4052 C 391.013 -2.03014 4.02612 0
M  V30 4053 C 389.675 -1.90944 4.41694 0
M  V30 4054 C 392.027 -1.69895 4.92732 0
M  V30 4055 C 389.355 -1.44035 5.68745 0
M  V30 4056 C 391.707 -1.2446 6.20236 0
M  V30 4057 C 390.371 -1.10979 6.5821 0
M  V30 4058 H 389.641 -0.484713 0.560477 0
M  V30 4059 H 392.288 -0.636888 1.80599 0
M  V30 4060 H 390.593 -3.20517 2.25335 0
M  V30 4061 H 392.29 -3.04427 2.61008 0
M  V30 4062 H 388.88 -2.13348 3.71726 0
M  V30 4063 H 393.064 -1.78098 4.63244 0
M  V30 4064 H 388.32 -1.32254 5.96925 0
M  V30 4065 H 392.494 -0.978924 6.89485 0
M  V30 4066 H 390.121 -0.744078 7.5655 0
M  V30 4067 N 391.696 -1.35014 -0.812953 0
M  V30 4068 C 392.626 -1.30069 -1.93919 0
M  V30 4069 C 393.607 -0.176275 -1.69184 0
M  V30 4070 O 394.792 -0.370227 -1.90638 0
M  V30 4071 C 391.922 -1.06547 -3.30552 0
M  V30 4072 C 390.876 -2.15561 -3.69753 0
M  V30 4073 C 390.202 -1.77214 -5.04479 0
M  V30 4074 C 391.502 -3.57476 -3.808 0
M  V30 4075 H 393.196 -2.24303 -1.98314 0
M  V30 4076 H 390.742 -1.07977 -0.952736 0
M  V30 4077 H 392.695 -1.01729 -4.08937 0
M  V30 4078 H 391.419 -0.0875719 -3.26483 0
M  V30 4079 H 390.078 -2.19466 -2.9365 0
M  V30 4080 H 389.726 -0.780589 -4.96906 0
M  V30 4081 H 389.426 -2.50184 -5.31678 0
M  V30 4082 H 390.95 -1.7391 -5.8531 0
M  V30 4083 H 392.364 -3.55929 -4.4943 0
M  V30 4084 H 390.761 -4.29152 -4.19462 0
M  V30 4085 H 391.831 -3.94091 -2.82525 0
M  V30 4086 N 393.175 1.03435 -1.18907 0
M  V30 4087 C 394.403 1.80381 -1.01342 0
M  V30 4088 C 394.818 1.83649 0.438005 0
M  V30 4089 O 394.175 1.27655 1.30424 0
M  V30 4090 C 394.226 3.25689 -1.56873 0
M  V30 4091 O 393.947 3.22673 -2.96334 0
M  V30 4092 C 395.448 4.19255 -1.44014 0
M  V30 4093 H 392.668 0.56784 -0.35749 0
M  V30 4094 H 395.212 1.30317 -1.576 0
M  V30 4095 H 393.367 3.72962 -1.04777 0
M  V30 4096 H 393.781 4.13748 -3.22355 0
M  V30 4097 H 395.255 5.19123 -1.87657 0
M  V30 4098 H 395.732 4.37467 -0.389815 0
M  V30 4099 H 396.338 3.77851 -1.95214 0
M  V30 4100 N 394.653 0.992116 1.22453 0
M  V30 4101 C 395.601 0.534644 2.26372 0
M  V30 4102 C 396.595 -0.414293 1.64256 0
M  V30 4103 O 397.801 -0.286899 1.77699 0
M  V30 4104 H 394.176 0.154502 0.735957 0
M  V30 4105 H 396.147 1.42256 2.62309 0
M  V30 4106 C 394.896 -0.135815 3.47435 0
M  V30 4107 H 394.219 0.585311 3.95492 0
M  V30 4108 H 395.659 -0.419374 4.21921 0
M  V30 4109 C 394.118 -1.37089 3.07747 0
M  V30 4110 O 394.648 -2.46629 3.17076 0
M  V30 4111 N 392.854 -1.24585 2.62539 0
M  V30 4112 H 392.401 -0.354542 2.55149 0
M  V30 4113 H 392.359 -2.07327 2.36353 0
M  V30 4114 N 396.131 -1.37776 0.765217 0
M  V30 4115 C 397.38 -1.99092 0.323307 0
M  V30 4116 C 397.693 -1.61434 -1.10446 0
M  V30 4117 O 398.899 -2.15805 -1.64743 0
M  V30 4118 C 397.355 -3.56019 0.527098 0
M  V30 4119 C 396.963 -4.0262 1.96471 0
M  V30 4120 C 398.707 -4.2424 0.148483 0
M  V30 4121 C 396.614 -5.52233 2.11644 0
M  V30 4122 H 395.544 -0.744846 0.117137 0
M  V30 4123 H 398.195 -1.57391 0.943417 0
M  V30 4124 H 396.577 -3.95667 -0.162372 0
M  V30 4125 H 397.751 -3.74234 2.68859 0
M  V30 4126 H 396.066 -3.47161 2.29931 0
M  V30 4127 H 398.663 -5.34159 0.240456 0
M  V30 4128 H 399.006 -4.06446 -0.900422 0
M  V30 4129 H 399.539 -3.89872 0.79025 0
M  V30 4130 H 396.278 -5.74945 3.1483 0
M  V30 4131 H 395.798 -5.82324 1.4373 0
M  V30 4132 H 397.477 -6.18106 1.91193 0
M  V30 4133 N 397.609 -0.515225 -1.4894 0
M  V30 4134 C 398.572 0.244681 -2.2789 0
M  V30 4135 C 399.572 0.881166 -1.34507 0
M  V30 4136 O 400.762 0.743497 -1.57537 0
M  V30 4137 C 397.894 1.35247 -3.12923 0
M  V30 4138 H 399.087 -0.448289 -2.96531 0
M  V30 4139 H 396.64 -0.270656 -1.53939 0
M  V30 4140 H 397.375 2.07916 -2.48881 0
M  V30 4141 H 397.16 0.901374 -3.81599 0
M  V30 4142 H 398.65 1.88737 -3.72516 0
M  V30 4143 N 399.087 1.5561 -0.249682 0
M  V30 4144 C 400.335 1.98618 0.373548 0
M  V30 4145 C 400.656 1.13919 1.58264 0
M  V30 4146 O 399.926 0.222637 1.94631 0
M  V30 4147 H 398.506 0.733571 0.141006 0
M  V30 4148 H 401.168 1.91748 -0.349117 0
M  V30 4149 H 400.264 3.04584 0.680796 0
M  V30 4150 N 400.565 -0.0233959 1.57583 0
M  V30 4151 C 401.793 -0.724682 1.93794 0
M  V30 4152 C 402.208 -1.68588 0.849912 0
M  V30 4153 O 401.565 -1.81676 -0.173204 0
M  V30 4154 C 401.616 -1.47684 3.29957 0
M  V30 4155 O 401.337 -0.554222 4.3458 0
M  V30 4156 C 402.838 -2.27477 3.80485 0
M  V30 4157 H 400.058 -0.203317 0.639455 0
M  V30 4158 H 402.602 0.0207653 2.04489 0
M  V30 4159 H 400.757 -2.17412 3.20641 0
M  V30 4160 H 401.171 -1.08232 5.13212 0
M  V30 4161 H 402.645 -2.7564 4.78254 0
M  V30 4162 H 403.122 -3.09144 3.11972 0
M  V30 4163 H 403.728 -1.62813 3.92902 0
M  V30 4164 N 402.043 -1.548 -0.295768 0
M  V30 4165 C 403.268 -1.78653 -1.05346 0
M  V30 4166 C 403.693 -0.546894 -1.79974 0
M  V30 4167 O 403.051 0.502763 -1.7419 0
M  V30 4168 C 403.099 -2.99679 -2.00561 0
M  V30 4169 O 402.203 -2.7317 -3.08953 0
M  V30 4170 H 401.544 -0.59116 -0.302367 0
M  V30 4171 H 404.074 -2.01895 -0.331598 0
M  V30 4172 H 404.084 -3.27793 -2.42932 0
M  V30 4173 H 402.759 -3.89562 -1.4565 0
M  V30 4174 H 401.336 -2.56089 -2.71059 0
M  V30 4175 N 403.521 0.559213 -1.47345 0
M  V30 4176 C 404.798 1.31997 -1.44348 0
M  V30 4177 C 405.178 2.1064 -0.139358 0
M  V30 4178 O 404.526 2.1091 0.879153 0
M  V30 4179 C 404.736 2.22618 -2.68779 0
M  V30 4180 C 406.084 2.83701 -3.1591 0
M  V30 4181 O 407.108 2.32921 -2.69493 0
M  V30 4182 O 405.967 3.75993 -3.966 0
M  V30 4183 H 403.061 0.594251 -0.575147 0
M  V30 4184 H 405.607 0.578282 -1.59543 0
M  V30 4185 H 404.379 1.64093 -3.55231 0
M  V30 4186 H 404.002 3.04085 -2.5616 0
M  V30 4187 N 404.999 1.35443 0.805782 0
M  V30 4188 C 405.946 1.28431 1.91766 0
M  V30 4189 C 406.916 0.156102 1.65365 0
M  V30 4190 O 408.101 0.339936 1.87747 0
M  V30 4191 C 405.241 1.06301 3.2832 0
M  V30 4192 C 404.354 2.2805 3.66902 0
M  V30 4193 C 403.489 1.99064 4.92491 0
M  V30 4194 C 402.528 3.16863 5.23703 0
M  V30 4195 N 401.665 2.87647 6.40471 0
M  V30 4196 H 406.505 2.23511 1.97096 0
M  V30 4197 H 404.042 1.11105 0.964054 0
M  V30 4198 H 406 0.915012 4.07042 0
M  V30 4199 H 404.63 0.148822 3.22457 0
M  V30 4200 H 403.682 2.53711 2.83434 0
M  V30 4201 H 404.994 3.1601 3.85927 0
M  V30 4202 H 404.148 1.81099 5.7904 0
M  V30 4203 H 402.887 1.0839 4.75503 0
M  V30 4204 H 401.892 3.35404 4.35642 0
M  V30 4205 H 403.117 4.08339 5.4262 0
M  V30 4206 H 401.063 1.99568 6.24907 0
M  V30 4207 H 400.98 3.69141 6.59751 0
M  V30 4208 H 402.248 2.73226 7.30047 0
M  V30 4209 N 406.477 -1.02803 1.19454 0
M  V30 4210 C 407.723 -1.76598 1.0092 0
M  V30 4211 C 408.078 -1.86939 -0.455142 0
M  V30 4212 O 407.371 -1.37575 -1.33355 0
M  V30 4213 C 407.565 -3.18941 1.6128 0
M  V30 4214 C 407.394 -3.22476 3.13431 0
M  V30 4215 C 406.164 -3.30375 3.82336 0
M  V30 4216 C 408.362 -3.09451 4.10785 0
M  V30 4217 N 406.344 -3.23292 5.21877 0
M  V30 4218 C 407.715 -3.10012 5.36929 0
M  V30 4219 C 409.77 -2.93585 4.02135 0
M  V30 4220 C 408.473 -2.96334 6.55423 0
M  V30 4221 C 410.499 -2.81256 5.20239 0
M  V30 4222 C 409.861 -2.82472 6.45282 0
M  V30 4223 H 405.96 -0.657447 0.423424 0
M  V30 4224 H 408.544 -1.22369 1.5144 0
M  V30 4225 H 406.715 -3.71489 1.1336 0
M  V30 4226 H 408.447 -3.81102 1.36173 0
M  V30 4227 H 405.202 -3.3663 3.33132 0
M  V30 4228 H 405.626 -3.23156 5.94894 0
M  V30 4229 H 410.268 -2.91466 3.0628 0
M  V30 4230 H 407.986 -2.97203 7.51463 0
M  V30 4231 H 411.572 -2.70014 5.15348 0
M  V30 4232 H 410.452 -2.73036 7.35133 0
M  V30 4233 N 407.956 -0.998596 -1.21925 0
M  V30 4234 C 408.866 -0.562736 -2.27751 0
M  V30 4235 C 409.882 0.391203 -1.69545 0
M  V30 4236 O 411.058 0.256625 -1.99758 0
M  V30 4237 C 408.123 0.11012 -3.46525 0
M  V30 4238 C 407.184 -0.887495 -4.20026 0
M  V30 4239 C 406.417 -0.246654 -5.3313 0
M  V30 4240 O 406.64 0.958088 -5.62296 0
M  V30 4241 O 405.574 -0.954374 -5.94286 0
M  V30 4242 H 409.4 -1.44329 -2.67213 0
M  V30 4243 H 406.985 -0.767135 -1.28201 0
M  V30 4244 H 408.867 0.486756 -4.18579 0
M  V30 4245 H 407.542 0.965154 -3.08976 0
M  V30 4246 H 406.449 -1.31517 -3.5022 0
M  V30 4247 H 407.782 -1.71191 -4.6147 0
M  V30 4248 N 409.434 1.37368 -0.772513 0
M  V30 4249 C 410.381 2.30262 -0.157488 0
M  V30 4250 C 411.351 1.51137 0.688965 0
M  V30 4251 O 412.536 1.79704 0.641168 0
M  V30 4252 C 409.676 3.37611 0.715045 0
M  V30 4253 C 408.789 4.31746 -0.148098 0
M  V30 4254 C 407.924 5.26171 0.729213 0
M  V30 4255 C 406.963 6.11948 -0.136418 0
M  V30 4256 N 406.1 6.98613 0.698914 0
M  V30 4257 H 410.94 2.82277 -0.955179 0
M  V30 4258 H 408.477 1.38957 -0.482631 0
M  V30 4259 H 410.435 3.98479 1.23575 0
M  V30 4260 H 409.065 2.86959 1.47833 0
M  V30 4261 H 408.117 3.72178 -0.786613 0
M  V30 4262 H 409.429 4.92084 -0.81579 0
M  V30 4263 H 408.583 5.92247 1.31637 0
M  V30 4264 H 407.322 4.66246 1.43059 0
M  V30 4265 H 406.327 5.4485 -0.736102 0
M  V30 4266 H 407.552 6.73945 -0.835134 0
M  V30 4267 H 405.498 6.41215 1.38489 0
M  V30 4268 H 405.415 7.55948 0.0885358 0
M  V30 4269 H 406.683 7.69077 1.27044 0
M  V30 4270 N 410.912 0.523116 1.48665 0
M  V30 4271 C 411.842 -0.23231 2.32342 0
M  V30 4272 C 412.823 -0.941637 1.41659 0
M  V30 4273 O 414.008 -0.928751 1.70552 0
M  V30 4274 C 411.138 -1.28387 3.22698 0
M  V30 4275 C 410.092 -0.693098 4.22351 0
M  V30 4276 C 409.418 -1.8468 5.01794 0
M  V30 4277 C 410.718 0.33063 5.21252 0
M  V30 4278 H 412.412 0.466192 2.95748 0
M  V30 4279 H 409.958 0.225643 1.42221 0
M  V30 4280 H 411.911 -1.82024 3.80059 0
M  V30 4281 H 410.635 -2.01186 2.57278 0
M  V30 4282 H 409.294 -0.178299 3.66166 0
M  V30 4283 H 408.942 -2.56301 4.32804 0
M  V30 4284 H 408.642 -1.45747 5.69238 0
M  V30 4285 H 410.166 -2.38709 5.62006 0
M  V30 4286 H 411.58 -0.118407 5.73178 0
M  V30 4287 H 409.977 0.636974 5.9671 0
M  V30 4288 H 411.047 1.23883 4.68808 0
M  V30 4289 N 412.39 -1.55475 0.257931 0
M  V30 4290 C 413.3 -2.2549 -0.647425 0
M  V30 4291 C 414.316 -1.2748 -1.18427 0
M  V30 4292 O 415.492 -1.6038 -1.2182 0
M  V30 4293 C 412.557 -2.94916 -1.82278 0
M  V30 4294 C 411.618 -4.08363 -1.32432 0
M  V30 4295 C 410.851 -4.74469 -2.44366 0
M  V30 4296 O 411.074 -4.39701 -3.63344 0
M  V30 4297 O 410.008 -5.62763 -2.13497 0
M  V30 4298 H 413.834 -3.03593 -0.0807707 0
M  V30 4299 H 411.419 -1.49377 0.0259962 0
M  V30 4300 H 413.301 -3.38606 -2.50846 0
M  V30 4301 H 411.976 -2.19744 -2.37685 0
M  V30 4302 H 410.883 -3.69166 -0.605605 0
M  V30 4303 H 412.216 -4.85385 -0.816211 0
M  V30 4304 N 413.868 0.0150385 -1.57593 0
M  V30 4305 C 414.815 1.01126 -2.07466 0
M  V30 4306 C 415.785 1.35064 -0.966794 0
M  V30 4307 O 416.97 1.4516 -1.23827 0
M  V30 4308 C 414.11 2.30276 -2.57035 0
M  V30 4309 C 413.223 2.02373 -3.81666 0
M  V30 4310 C 412.358 3.25496 -4.19793 0
M  V30 4311 C 411.397 2.93211 -5.37303 0
M  V30 4312 N 410.534 4.08826 -5.70794 0
M  V30 4313 H 415.374 0.57901 -2.92321 0
M  V30 4314 H 412.911 0.27426 -1.44521 0
M  V30 4315 H 414.869 3.05757 -2.83846 0
M  V30 4316 H 413.499 2.71197 -1.75077 0
M  V30 4317 H 412.551 1.17327 -3.61854 0
M  V30 4318 H 413.863 1.74567 -4.67256 0
M  V30 4319 H 413.017 4.09333 -4.47807 0
M  V30 4320 H 411.756 3.56428 -3.32882 0
M  V30 4321 H 410.761 2.07777 -5.09027 0
M  V30 4322 H 411.986 2.63542 -6.25877 0
M  V30 4323 H 409.932 4.39682 -4.86842 0
M  V30 4324 H 409.849 3.84491 -6.50924 0
M  V30 4325 H 411.117 4.93496 -6.03392 0
M  V30 4326 N 415.346 1.54954 0.287554 0
M  V30 4327 C 416.623 1.65569 1.04146 0
M  V30 4328 C 417.003 0.512672 2.0478 0
M  V30 4329 O 416.351 -0.489038 2.23205 0
M  V30 4330 C 416.561 3.04163 1.71131 0
M  V30 4331 C 417.909 3.61429 2.22832 0
M  V30 4332 O 418.933 3.06702 1.81141 0
M  V30 4333 O 417.792 4.57281 2.9926 0
M  V30 4334 H 414.886 0.671881 0.482188 0
M  V30 4335 H 417.432 1.67297 0.28457 0
M  V30 4336 H 416.204 3.78796 0.981303 0
M  V30 4337 H 415.827 3.06271 2.53543 0
M  V30 4338 N 416.824 -0.551391 1.4764 0
M  V30 4339 C 418.073 -1.30467 1.53822 0
M  V30 4340 C 418.386 -1.94495 0.207661 0
M  V30 4341 O 419.592 -2.71099 0.147533 0
M  V30 4342 C 418.048 -2.36616 2.71184 0
M  V30 4343 C 417.656 -1.78754 4.10793 0
M  V30 4344 C 419.4 -3.13088 2.86663 0
M  V30 4345 C 417.307 -2.82717 5.19447 0
M  V30 4346 H 416.237 -0.490584 0.572576 0
M  V30 4347 H 418.888 -0.58494 1.73927 0
M  V30 4348 H 417.27 -3.11529 2.4447 0
M  V30 4349 H 418.444 -1.10173 4.47435 0
M  V30 4350 H 416.759 -1.14846 4.00249 0
M  V30 4351 H 419.356 -3.90736 3.65007 0
M  V30 4352 H 419.699 -3.67635 1.95321 0
M  V30 4353 H 420.232 -2.45288 3.13175 0
M  V30 4354 H 416.971 -2.33018 6.12685 0
M  V30 4355 H 416.491 -3.4969 4.87316 0
M  V30 4356 H 418.17 -3.46102 5.46646 0
M  V30 4357 N 418.302 -1.35869 -0.798587 0
M  V30 4358 C 419.232 -1.32118 -1.92528 0
M  V30 4359 C 420.213 -0.194209 -1.68988 0
M  V30 4360 O 421.398 -0.390426 -1.90235 0
M  V30 4361 C 418.528 -1.10047 -3.29404 0
M  V30 4362 C 417.482 -2.19471 -3.67446 0
M  V30 4363 C 416.808 -1.82555 -5.02571 0
M  V30 4364 C 418.108 -3.61495 -3.76987 0
M  V30 4365 H 419.802 -2.26394 -1.95924 0
M  V30 4366 H 417.348 -1.08981 -0.94123 0
M  V30 4367 H 419.301 -1.06061 -4.07835 0
M  V30 4368 H 418.025 -0.122195 -3.26371 0
M  V30 4369 H 416.684 -2.22568 -2.91306 0
M  V30 4370 H 416.332 -0.833249 -4.9605 0
M  V30 4371 H 416.032 -2.5581 -5.28995 0
M  V30 4372 H 417.556 -1.80108 -5.83432 0
M  V30 4373 H 418.97 -3.60676 -4.4563 0
M  V30 4374 H 417.367 -4.33577 -4.14887 0
M  V30 4375 H 418.437 -3.97065 -2.78329 0
M  V30 4376 N 419.78 1.02168 -1.19998 0
M  V30 4377 C 421.057 1.72816 -0.916191 0
M  V30 4378 C 421.437 2.03081 0.576325 0
M  V30 4379 O 420.785 1.69122 1.53656 0
M  V30 4380 C 420.995 2.9997 -1.78378 0
M  V30 4381 C 422.343 3.73336 -2.02251 0
M  V30 4382 O 423.367 3.09914 -1.75589 0
M  V30 4383 O 422.226 4.87371 -2.47249 0
M  V30 4384 H 419.32 0.752924 -0.342103 0
M  V30 4385 H 421.866 1.08062 -1.30846 0
M  V30 4386 H 420.638 2.73888 -2.79466 0
M  V30 4387 H 420.261 3.72464 -1.39126 0
M  V30 4388 N 421.258 1.00505 1.21394 0
M  V30 4389 C 422.208 0.536503 2.21598 0
M  V30 4390 C 423.192 -0.401914 1.55799 0
M  V30 4391 O 424.384 -0.226757 1.75541 0
M  V30 4392 C 421.513 -0.135446 3.43033 0
M  V30 4393 C 420.599 0.823992 4.16018 0
M  V30 4394 N 420.99 1.97683 4.6557 0
M  V30 4395 C 419.288 0.642387 4.4135 0
M  V30 4396 C 419.989 2.58003 5.21354 0
M  V30 4397 N 418.965 1.86162 5.1073 0
M  V30 4398 H 422.767 1.41557 2.57563 0
M  V30 4399 H 420.281 0.868878 1.37202 0
M  V30 4400 H 422.278 -0.488584 4.14027 0
M  V30 4401 H 420.938 -1.01049 3.08576 0
M  V30 4402 H 421.949 2.3572 4.61147 0
M  V30 4403 H 418.626 -0.185578 4.17087 0
M  V30 4404 H 420.016 3.555 5.70149 0
M  V30 4405 N 422.737 -1.36956 0.779787 0
M  V30 4406 C 423.667 -2.32761 0.185651 0
M  V30 4407 C 424.648 -1.56177 -0.673989 0
M  V30 4408 O 425.833 -1.84378 -0.609797 0
M  V30 4409 C 422.963 -3.40418 -0.687964 0
M  V30 4410 C 421.917 -4.27941 0.0710102 0
M  V30 4411 C 421.243 -5.26681 -0.922573 0
M  V30 4412 C 422.543 -5.07006 1.25467 0
M  V30 4413 H 424.237 -2.82698 0.986008 0
M  V30 4414 H 421.783 -1.3592 0.475592 0
M  V30 4415 H 423.736 -4.06423 -1.11348 0
M  V30 4416 H 422.46 -2.89025 -1.52093 0
M  V30 4417 H 421.119 -3.63478 0.47739 0
M  V30 4418 H 420.767 -4.71565 -1.7503 0
M  V30 4419 H 420.467 -5.86103 -0.419237 0
M  V30 4420 H 421.991 -5.9556 -1.34686 0
M  V30 4421 H 423.405 -5.66105 0.905401 0
M  V30 4422 H 421.802 -5.75793 1.69063 0
M  V30 4423 H 422.872 -4.3921 2.05481 0
M  V30 4424 N 424.215 -0.530993 -1.48385 0
M  V30 4425 C 425.626 -0.0907905 -1.86479 0
M  V30 4426 C 425.977 1.33213 -1.44044 0
M  V30 4427 O 425.102 1.99783 -0.831615 0
M  V30 4428 C 425.697 -0.157987 -3.38431 0
M  V30 4429 C 424.256 0.227026 -3.75715 0
M  V30 4430 C 423.403 -0.5173 -2.72432 0
M  V30 4431 H 426.354 -0.742186 -1.40276 0
M  V30 4432 H 426.375 0.630053 -3.75247 0
M  V30 4433 H 425.887 -1.19372 -3.69286 0
M  V30 4434 H 423.988 1.26486 -3.50474 0
M  V30 4435 H 424.101 -0.113288 -4.78966 0
M  V30 4436 H 422.465 0.0365527 -2.54674 0
M  V30 4437 H 423.248 -1.55368 -3.0613 0
M  V30 4438 N 425.693 1.55336 -0.266172 0
M  V30 4439 C 426.656 2.20878 0.612001 0
M  V30 4440 C 427.656 1.18388 1.08816 0
M  V30 4441 O 428.846 1.4335 0.989774 0
M  V30 4442 C 425.978 2.86765 1.84332 0
M  V30 4443 H 427.171 2.99873 0.0398718 0
M  V30 4444 H 424.724 1.56291 -0.0167309 0
M  V30 4445 H 425.459 2.11759 2.45619 0
M  V30 4446 H 425.244 3.61862 1.5099 0
M  V30 4447 H 426.734 3.36867 2.46801 0
M  V30 4448 N 427.171 -0.0066808 1.57599 0
M  V30 4449 C 428.081 -1.01671 2.11424 0
M  V30 4450 C 429.097 -1.38143 1.05795 0
M  V30 4451 O 430.273 -1.47011 1.37658 0
M  V30 4452 C 427.338 -2.29192 2.60139 0
M  V30 4453 C 426.399 -1.99094 3.80342 0
M  V30 4454 C 425.632 -3.20535 4.26724 0
M  V30 4455 O 425.855 -4.3199 3.72479 0
M  V30 4456 O 424.789 -3.04924 5.18946 0
M  V30 4457 H 428.615 -0.589181 2.9793 0
M  V30 4458 H 426.2 -0.225091 1.47695 0
M  V30 4459 H 428.082 -3.0412 2.917 0
M  V30 4460 H 426.757 -2.71195 1.76733 0
M  V30 4461 H 425.664 -1.21663 3.53764 0
M  V30 4462 H 426.997 -1.61931 4.648 0
M  V30 4463 N 428.649 -1.55105 -0.279332 0
M  V30 4464 C 429.895 -1.75672 -1.01327 0
M  V30 4465 C 430.228 -0.552739 -1.86168 0
M  V30 4466 O 429.503 0.449827 -1.89227 0
M  V30 4467 C 429.786 -3.05825 -1.90114 0
M  V30 4468 C 429.639 -4.36565 -1.08309 0
M  V30 4469 C 430.958 -3.31975 -2.8893 0
M  V30 4470 H 428.077 -0.639149 -0.366957 0
M  V30 4471 H 430.719 -1.87833 -0.286154 0
M  V30 4472 H 428.869 -2.95588 -2.52111 0
M  V30 4473 H 430.541 -4.58751 -0.484314 0
M  V30 4474 H 428.784 -4.32076 -0.386362 0
M  V30 4475 H 429.455 -5.23946 -1.73737 0
M  V30 4476 H 431.931 -3.41963 -2.37067 0
M  V30 4477 H 430.807 -4.2432 -3.48201 0
M  V30 4478 H 431.068 -2.51309 -3.63725 0
M  V30 4479 N 430.127 0.543554 -1.4793 0
M  V30 4480 C 431.059 1.665 -1.57513 0
M  V30 4481 C 432.072 1.56156 -0.460333 0
M  V30 4482 O 433.261 1.62865 -0.730573 0
M  V30 4483 C 430.361 3.05063 -1.47614 0
M  V30 4484 C 429.534 3.41024 -2.739 0
M  V30 4485 C 428.593 4.58809 -2.57645 0
M  V30 4486 O 427.619 4.62707 -3.31498 0
M  V30 4487 N 428.821 5.56149 -1.66368 0
M  V30 4488 H 431.586 1.5872 -2.5422 0
M  V30 4489 H 429.147 0.730517 -1.44482 0
M  V30 4490 H 431.139 3.81712 -1.34455 0
M  V30 4491 H 429.709 3.06994 -0.589359 0
M  V30 4492 H 428.929 2.53687 -3.01723 0
M  V30 4493 H 430.217 3.61831 -3.57709 0
M  V30 4494 H 429.615 5.55767 -1.05543 0
M  V30 4495 H 428.172 6.32071 -1.59154 0
M  V30 4496 N 431.605 1.3629 0.791371 0
M  V30 4497 C 432.515 1.32606 1.93527 0
M  V30 4498 C 433.531 0.228541 1.72493 0
M  V30 4499 O 434.707 0.460571 1.96063 0
M  V30 4500 C 431.772 1.11271 3.28359 0
M  V30 4501 C 430.833 2.3048 3.62185 0
M  V30 4502 C 430.066 2.10154 4.90583 0
M  V30 4503 O 430.289 1.07572 5.60165 0
M  V30 4504 O 429.223 2.97884 5.23019 0
M  V30 4505 H 433.049 2.28909 1.99585 0
M  V30 4506 H 430.634 1.16818 0.931344 0
M  V30 4507 H 432.516 1.01283 4.09047 0
M  V30 4508 H 431.191 0.180292 3.23198 0
M  V30 4509 H 430.098 2.46036 2.81811 0
M  V30 4510 H 431.431 3.22221 3.72068 0
M  V30 4511 N 433.083 -1.0153 1.20538 0
M  V30 4512 C 434.36 -1.72327 0.925343 0
M  V30 4513 C 434.74 -2.03383 -0.565547 0
M  V30 4514 O 434.088 -1.69934 -1.52757 0
M  V30 4515 C 434.298 -2.9902 1.79967 0
M  V30 4516 C 435.646 -3.72258 2.04228 0
M  V30 4517 O 436.67 -3.08979 1.77231 0
M  V30 4518 O 435.529 -4.86053 2.4983 0
M  V30 4519 H 432.623 -0.751099 0.346092 0
M  V30 4520 H 435.169 -1.07366 1.31417 0
M  V30 4521 H 433.941 -2.72402 2.80915 0
M  V30 4522 H 433.564 -3.71721 1.41099 0
M  V30 4523 N 434.561 -1.01147 -1.20859 0
M  V30 4524 C 435.791 -0.715872 -1.93801 0
M  V30 4525 C 436.199 0.726592 -1.74692 0
M  V30 4526 O 435.542 1.50397 -1.05482 0
M  V30 4527 C 435.604 -0.965269 -3.46299 0
M  V30 4528 C 435.268 -2.39584 -3.89164 0
M  V30 4529 C 436.265 -3.3764 -3.95342 0
M  V30 4530 C 433.95 -2.73522 -4.21297 0
M  V30 4531 C 435.944 -4.67698 -4.33056 0
M  V30 4532 C 433.631 -4.03794 -4.58687 0
M  V30 4533 C 434.629 -5.00693 -4.64538 0
M  V30 4534 O 434.317 -6.28635 -5.01072 0
M  V30 4535 H 434.049 -0.262524 -0.622942 0
M  V30 4536 H 436.603 -1.35413 -1.54443 0
M  V30 4537 H 434.833 -0.269847 -3.85757 0
M  V30 4538 H 436.522 -0.662051 -4.00464 0
M  V30 4539 H 437.288 -3.12757 -3.70686 0
M  V30 4540 H 433.167 -1.9879 -4.15937 0
M  V30 4541 H 436.711 -5.4333 -4.37537 0
M  V30 4542 H 432.608 -4.28459 -4.82797 0
M  V30 4543 H 433.376 -6.32847 -5.19083 0
M  V30 4544 N 436.039 1.36541 -0.78704 0
M  V30 4545 C 437.287 1.98911 -0.357633 0
M  V30 4546 C 437.608 1.62778 1.07371 0
M  V30 4547 O 436.878 0.900612 1.73971 0
M  V30 4548 H 435.458 0.735734 -0.129246 0
M  V30 4549 H 438.12 1.66776 -1.00855 0
M  V30 4550 H 437.216 3.08874 -0.447549 0
M  V30 4551 N 437.518 0.538854 1.48102 0
M  V30 4552 C 438.45 -0.256278 2.27763 0
M  V30 4553 C 439.463 -0.89633 1.35904 0
M  V30 4554 O 440.652 -0.773275 1.60881 0
M  V30 4555 C 437.752 -1.37896 3.09577 0
M  V30 4556 C 436.925 -0.839159 4.29275 0
M  V30 4557 C 435.984 -1.84405 4.9283 0
M  V30 4558 O 435.01 -1.39746 5.51779 0
M  V30 4559 N 436.212 -3.17666 4.85869 0
M  V30 4560 H 438.977 0.426968 2.96643 0
M  V30 4561 H 436.538 0.373747 1.57527 0
M  V30 4562 H 438.53 -2.04955 3.48963 0
M  V30 4563 H 437.1 -1.96572 2.4306 0
M  V30 4564 H 436.32 0.00769287 3.94199 0
M  V30 4565 H 437.608 -0.457548 5.06739 0
M  V30 4566 H 437.006 -3.56609 4.39143 0
M  V30 4567 H 435.563 -3.80334 5.29329 0
M  V30 4568 N 438.996 -1.55193 0.274407 0
M  V30 4569 C 440.273 -1.91584 -0.394331 0
M  V30 4570 C 440.653 -1.19858 -1.73774 0
M  V30 4571 O 440.001 -0.3252 -2.26174 0
M  V30 4572 C 440.211 -3.4487 -0.535311 0
M  V30 4573 C 441.559 -4.16636 -0.818534 0
M  V30 4574 O 442.583 -3.5076 -0.620146 0
M  V30 4575 O 441.442 -5.33209 -1.19792 0
M  V30 4576 H 438.536 -0.798349 -0.215794 0
M  V30 4577 H 441.082 -1.66646 0.320507 0
M  V30 4578 H 439.854 -3.89145 0.410141 0
M  V30 4579 H 439.477 -3.75759 -1.29964 0
M  V30 4580 N 440.474 -0.00167713 -1.576 0
M  V30 4581 C 441.704 0.692754 -1.94639 0
M  V30 4582 C 442.112 1.67744 -0.87513 0
M  V30 4583 O 441.455 1.8305 0.154382 0
M  V30 4584 C 441.517 1.47881 -3.27676 0
M  V30 4585 C 441.181 0.655518 -4.52274 0
M  V30 4586 C 442.178 -0.0575214 -5.19868 0
M  V30 4587 C 439.863 0.600994 -4.98692 0
M  V30 4588 C 441.857 -0.814052 -6.3218 0
M  V30 4589 C 439.544 -0.15926 -6.10892 0
M  V30 4590 C 440.542 -0.865515 -6.77494 0
M  V30 4591 O 440.23 -1.61336 -7.87544 0
M  V30 4592 H 439.962 0.197792 -0.646417 0
M  V30 4593 H 442.516 -0.049423 -2.05341 0
M  V30 4594 H 440.746 2.2655 -3.13388 0
M  V30 4595 H 442.435 2.05874 -3.49816 0
M  V30 4596 H 443.201 -0.0245611 -4.84994 0
M  V30 4597 H 439.08 1.14025 -4.46676 0
M  V30 4598 H 442.624 -1.36584 -6.84098 0
M  V30 4599 H 438.521 -0.194035 -6.45208 0
M  V30 4600 H 439.289 -1.53025 -8.04068 0
M  V30 4601 N 441.952 1.55251 0.271103 0
M  V30 4602 C 443.201 1.75151 1.00025 0
M  V30 4603 C 443.514 0.561041 1.87381 0
M  V30 4604 O 444.72 0.642506 2.63788 0
M  V30 4605 C 443.176 3.09999 1.82835 0
M  V30 4606 C 442.784 4.3662 1.00336 0
M  V30 4607 C 444.528 3.39249 2.55168 0
M  V30 4608 C 442.435 5.62506 1.82595 0
M  V30 4609 H 441.365 0.652877 0.377183 0
M  V30 4610 H 444.016 1.81708 0.255843 0
M  V30 4611 H 442.398 2.97485 2.61378 0
M  V30 4612 H 443.572 4.60055 0.261959 0
M  V30 4613 H 441.887 4.14527 0.394486 0
M  V30 4614 H 444.484 4.3051 3.1712 0
M  V30 4615 H 444.827 2.59467 3.2555 0
M  V30 4616 H 445.36 3.52869 1.83653 0
M  V30 4617 H 442.099 6.45041 1.16631 0
M  V30 4618 H 441.619 5.43211 2.54327 0
M  V30 4619 H 443.298 6.00875 2.39913 0
M  V30 4620 N 443.43 -0.535701 1.48216 0
M  V30 4621 C 444.36 -1.65014 1.65204 0
M  V30 4622 C 445.341 -1.62554 0.501011 0
M  V30 4623 O 446.526 -1.7984 0.732886 0
M  V30 4624 C 443.656 -3.03616 1.68626 0
M  V30 4625 C 442.61 -3.20932 2.83172 0
M  V30 4626 C 441.936 -4.60537 2.71679 0
M  V30 4627 C 443.236 -3.04249 4.24535 0
M  V30 4628 H 444.93 -1.51053 2.58502 0
M  V30 4629 H 442.476 -0.725262 1.24402 0
M  V30 4630 H 444.429 -3.81446 1.79099 0
M  V30 4631 H 443.153 -3.18587 0.719026 0
M  V30 4632 H 441.812 -2.45517 2.72244 0
M  V30 4633 H 441.46 -4.72336 1.72937 0
M  V30 4634 H 441.16 -4.73069 3.48538 0
M  V30 4635 H 442.684 -5.40475 2.84112 0
M  V30 4636 H 444.098 -3.71877 4.36326 0
M  V30 4637 H 442.495 -3.28278 5.02348 0
M  V30 4638 H 443.565 -2.00739 4.41397 0
M  V30 4639 N 444.908 -1.36708 -0.784132 0
M  V30 4640 C 445.871 -1.31307 -1.87859 0
M  V30 4641 C 446.871 -0.219654 -1.59293 0
M  V30 4642 O 448.061 -0.47476 -1.67606 0
M  V30 4643 C 445.193 -1.03679 -3.24751 0
M  V30 4644 H 446.386 -2.28647 -1.94064 0
M  V30 4645 H 443.939 -1.21558 -0.98252 0
M  V30 4646 H 444.674 -0.0681936 -3.24228 0
M  V30 4647 H 444.459 -1.82811 -3.46876 0
M  V30 4648 H 445.949 -1.02518 -4.04821 0
M  V30 4649 N 446.386 1.0089 -1.21074 0
M  V30 4650 C 447.318 2.09737 -0.924291 0
M  V30 4651 C 448.331 1.62546 0.0909809 0
M  V30 4652 O 449.52 1.77942 -0.141021 0
M  V30 4653 C 446.62 3.36922 -0.36559 0
M  V30 4654 C 445.793 4.13216 -1.43426 0
M  V30 4655 C 444.852 5.18696 -0.885496 0
M  V30 4656 O 443.878 5.47176 -1.56801 0
M  V30 4657 N 445.08 5.79718 0.301227 0
M  V30 4658 H 447.845 2.34895 -1.8613 0
M  V30 4659 H 445.406 1.17341 -1.11546 0
M  V30 4660 H 447.398 4.04697 0.0158407 0
M  V30 4661 H 445.968 3.08952 0.476149 0
M  V30 4662 H 445.188 3.40301 -1.9897 0
M  V30 4663 H 446.476 4.60967 -2.15376 0
M  V30 4664 H 445.874 5.58926 0.872849 0
M  V30 4665 H 444.431 6.48804 0.624211 0
M  V30 4666 N 447.864 1.01787 1.20321 0
M  V30 4667 C 449.28 0.732951 1.41774 0
M  V30 4668 C 449.48 -0.686883 1.89431 0
M  V30 4669 O 448.536 -1.45446 2.06402 0
M  V30 4670 C 449.849 1.75973 2.43832 0
M  V30 4671 C 451.397 1.77802 2.57596 0
M  V30 4672 C 451.872 2.7941 3.62897 0
M  V30 4673 N 453.363 2.78157 3.70382 0
M  V30 4674 C 454.098 3.53434 4.51521 0
M  V30 4675 N 453.594 4.38392 5.36455 0
M  V30 4676 N 455.387 3.42026 4.46066 0
M  V30 4677 H 447.538 1.93447 0.877035 0
M  V30 4678 H 449.801 0.835712 0.447536 0
M  V30 4679 H 449.507 2.77699 2.15815 0
M  V30 4680 H 449.381 1.57292 3.4284 0
M  V30 4681 H 451.768 0.767602 2.84942 0
M  V30 4682 H 451.849 2.00557 1.58779 0
M  V30 4683 H 451.493 3.80616 3.36295 0
M  V30 4684 H 451.423 2.53916 4.61339 0
M  V30 4685 H 453.914 2.16531 3.09714 0
M  V30 4686 H 454.227 4.92596 5.95457 0
M  V30 4687 H 452.572 4.4247 5.35953 0
M  V30 4688 H 455.763 2.75075 3.78749 0
M  V30 4689 H 455.936 4.00946 5.09064 0
M  V30 4690 N 449.342 -1.36122 0.79427 0
M  V30 4691 C 450.29 -2.31871 0.184023 0
M  V30 4692 C 451.284 -1.56041 -0.659365 0
M  V30 4693 O 452.49 -1.71266 -0.553906 0
M  V30 4694 H 448.865 -0.750896 0.0407373 0
M  V30 4695 H 450.836 -2.80898 1.00693 0
M  V30 4696 C 449.585 -3.41324 -0.662813 0
M  V30 4697 H 448.908 -3.99793 -0.0231944 0
M  V30 4698 H 450.348 -4.10629 -1.05639 0
M  V30 4699 C 448.807 -2.83308 -1.82313 0
M  V30 4700 O 449.337 -2.75863 -2.91997 0
M  V30 4701 N 447.543 -2.40529 -1.63077 0
M  V30 4702 H 447.09 -2.46785 -0.738591 0
M  V30 4703 H 447.048 -2.02059 -2.40872 0
M  V30 4704 N 450.82 -0.546701 -1.47814 0
M  V30 4705 C 452.067 -0.0187407 -2.02491 0
M  V30 4706 C 452.395 1.32685 -1.42215 0
M  V30 4707 O 451.65 1.87413 -0.563454 0
M  V30 4708 C 451.949 0.134869 -3.57145 0
M  V30 4709 C 451.615 -1.13849 -4.3629 0
M  V30 4710 C 450.277 -1.48743 -4.57634 0
M  V30 4711 C 452.629 -1.98277 -4.82012 0
M  V30 4712 C 449.957 -2.67932 -5.21948 0
M  V30 4713 C 452.309 -3.16659 -5.4764 0
M  V30 4714 C 450.973 -3.51879 -5.67219 0
M  V30 4715 H 450.243 -0.0068577 -0.740968 0
M  V30 4716 H 452.89 -0.716097 -1.77607 0
M  V30 4717 H 451.195 0.915118 -3.80963 0
M  V30 4718 H 452.892 0.558556 -3.97091 0
M  V30 4719 H 449.482 -0.856767 -4.19949 0
M  V30 4720 H 453.666 -1.72628 -4.6531 0
M  V30 4721 H 448.922 -2.95401 -5.35302 0
M  V30 4722 H 453.096 -3.82374 -5.82033 0
M  V30 4723 H 450.723 -4.44331 -6.16825 0
M  V30 4724 N 452.299 1.55045 -0.282633 0
M  V30 4725 C 453.229 2.2579 0.595066 0
M  V30 4726 C 454.21 1.25074 1.15284 0
M  V30 4727 O 455.395 1.5381 1.18559 0
M  V30 4728 C 452.525 2.98472 1.77572 0
M  V30 4729 C 451.479 4.0618 1.34914 0
M  V30 4730 C 450.805 4.66477 2.6135 0
M  V30 4731 C 452.105 5.1996 0.493821 0
M  V30 4732 H 453.799 2.994 0.00505653 0
M  V30 4733 H 451.345 1.44 0.000992001 0
M  V30 4734 H 453.298 3.46677 2.39568 0
M  V30 4735 H 452.022 2.2241 2.39168 0
M  V30 4736 H 450.681 3.58797 0.752338 0
M  V30 4737 H 450.329 3.87074 3.2122 0
M  V30 4738 H 450.029 5.39207 2.33516 0
M  V30 4739 H 451.553 5.17435 3.24181 0
M  V30 4740 H 452.967 5.64172 1.01898 0
M  V30 4741 H 451.364 5.99299 0.310047 0
M  V30 4742 H 452.434 4.82462 -0.485593 0
M  V30 4743 N 453.777 0.010035 1.57597 0
M  V30 4744 C 454.707 -0.976857 2.12084 0
M  V30 4745 C 455.688 -1.35191 1.03235 0
M  V30 4746 O 456.873 -1.43389 1.3097 0
M  V30 4747 C 454.003 -2.26548 2.63236 0
M  V30 4748 C 452.957 -2.03175 3.76701 0
M  V30 4749 C 452.283 -3.38138 4.14206 0
M  V30 4750 C 453.583 -1.38625 5.03568 0
M  V30 4751 H 455.277 -0.523145 2.94794 0
M  V30 4752 H 452.823 -0.250195 1.4181 0
M  V30 4753 H 454.776 -2.95952 2.99984 0
M  V30 4754 H 453.5 -2.74051 1.77661 0
M  V30 4755 H 452.159 -1.36195 3.40362 0
M  V30 4756 H 451.807 -3.83363 3.25641 0
M  V30 4757 H 451.507 -3.23312 4.90656 0
M  V30 4758 H 453.031 -4.08841 4.53521 0
M  V30 4759 H 454.445 -1.98 5.38023 0
M  V30 4760 H 452.842 -1.34256 5.84889 0
M  V30 4761 H 453.912 -0.356722 4.83586 0
M  V30 4762 N 455.255 -1.55392 -0.262866 0
M  V30 4763 C 456.185 -1.91978 -1.32917 0
M  V30 4764 C 457.166 -0.7828 -1.51017 0
M  V30 4765 O 458.351 -1.04178 -1.63892 0
M  V30 4766 C 455.481 -2.20055 -2.68687 0
M  V30 4767 C 454.435 -3.35854 -2.65304 0
M  V30 4768 C 453.761 -3.49435 -4.04721 0
M  V30 4769 C 455.061 -4.71977 -2.23685 0
M  V30 4770 H 456.755 -2.81292 -1.02544 0
M  V30 4771 H 454.301 -1.3534 -0.491846 0
M  V30 4772 H 456.254 -2.44237 -3.43404 0
M  V30 4773 H 454.978 -1.27551 -3.00663 0
M  V30 4774 H 453.637 -3.11655 -1.93045 0
M  V30 4775 H 453.285 -2.54379 -4.33936 0
M  V30 4776 H 452.985 -4.27297 -4.0335 0
M  V30 4777 H 454.509 -3.7592 -4.81161 0
M  V30 4778 H 455.923 -4.95637 -2.88127 0
M  V30 4779 H 454.32 -5.52828 -2.33456 0
M  V30 4780 H 455.39 -4.70115 -1.18827 0
M  V30 4781 N 456.733 0.527833 -1.48498 0
M  V30 4782 C 457.982 1.28003 -1.55878 0
M  V30 4783 C 458.295 1.9414 -0.238577 0
M  V30 4784 O 459.501 2.7083 -0.190643 0
M  V30 4785 C 457.957 2.32272 -2.74914 0
M  V30 4786 C 457.565 1.72196 -4.13585 0
M  V30 4787 C 459.309 3.08488 -2.91608 0
M  V30 4788 C 457.216 2.74417 -5.23879 0
M  V30 4789 H 456.146 0.481413 -0.580308 0
M  V30 4790 H 458.797 0.557195 -1.74836 0
M  V30 4791 H 457.179 3.07601 -2.49395 0
M  V30 4792 H 458.353 1.03041 -4.49132 0
M  V30 4793 H 456.668 1.08464 -4.02025 0
M  V30 4794 H 459.265 3.84879 -3.71177 0
M  V30 4795 H 459.608 3.64481 -2.01145 0
M  V30 4796 H 460.141 2.40274 -3.17038 0
M  V30 4797 H 456.88 2.23242 -6.16314 0
M  V30 4798 H 456.4 3.41893 -4.92818 0
M  V30 4799 H 458.079 3.37362 -5.52083 0
M  V30 4800 N 458.211 1.37122 0.776871 0
M  V30 4801 C 459.159 1.32549 1.91138 0
M  V30 4802 C 460.153 0.215119 1.68029 0
M  V30 4803 O 461.359 0.382852 1.75881 0
M  V30 4804 H 457.734 0.412952 0.62847 0
M  V30 4805 H 459.705 2.28332 1.92112 0
M  V30 4806 C 458.454 1.14422 3.28333 0
M  V30 4807 H 457.777 1.99115 3.46689 0
M  V30 4808 H 459.217 1.15272 4.0803 0
M  V30 4809 C 457.676 -0.150434 3.36564 0
M  V30 4810 O 458.206 -1.13584 3.85307 0
M  V30 4811 N 456.412 -0.19939 2.89915 0
M  V30 4812 H 455.959 0.603142 2.5044 0
M  V30 4813 H 455.917 -1.06526 2.95803 0
M  V30 4814 N 459.689 -1.00246 1.21608 0
M  V30 4815 C 460.914 -1.78167 1.06167 0
M  V30 4816 C 461.339 -1.84138 -0.384035 0
M  V30 4817 O 460.697 -1.28683 -1.27712 0
M  V30 4818 C 460.745 -3.19786 1.66642 0
M  V30 4819 O 459.849 -4.02153 0.913613 0
M  V30 4820 H 459.19 -0.549 0.37349 0
M  V30 4821 H 461.72 -1.25994 1.61204 0
M  V30 4822 H 461.73 -3.70451 1.70969 0
M  V30 4823 H 460.405 -3.14754 2.7185 0
M  V30 4824 H 458.982 -3.60711 0.945635 0
M  V30 4825 N 461.167 -1.02423 -1.1978 0
M  V30 4826 C 462.097 -0.62157 -2.25075 0
M  V30 4827 C 463.078 0.367148 -1.6609 0
M  V30 4828 O 464.263 0.250892 -1.92573 0
M  V30 4829 C 461.393 0.0331826 -3.47284 0
M  V30 4830 C 460.347 -0.877323 -4.18912 0
M  V30 4831 C 459.673 -0.0879296 -5.34628 0
M  V30 4832 C 460.973 -2.18892 -4.74219 0
M  V30 4833 H 462.667 -1.50179 -2.59011 0
M  V30 4834 H 460.213 -0.723547 -1.24502 0
M  V30 4835 H 462.166 0.326488 -4.20133 0
M  V30 4836 H 460.89 0.948164 -3.12534 0
M  V30 4837 H 459.549 -1.15475 -3.47938 0
M  V30 4838 H 459.197 0.828941 -4.96123 0
M  V30 4839 H 458.897 -0.694359 -5.83483 0
M  V30 4840 H 460.421 0.198743 -6.10276 0
M  V30 4841 H 461.835 -1.95746 -5.38847 0
M  V30 4842 H 460.232 -2.74686 -5.33542 0
M  V30 4843 H 461.302 -2.84674 -3.92541 0
M  V30 4844 N 462.645 1.35699 -0.801477 0
M  V30 4845 C 463.608 2.28199 -0.213994 0
M  V30 4846 C 464.608 1.49359 0.595691 0
M  V30 4847 O 465.798 1.69186 0.414921 0
M  V30 4848 C 462.93 3.33587 0.702297 0
M  V30 4849 H 464.123 2.81666 -1.02976 0
M  V30 4850 H 461.676 1.45467 -0.571759 0
M  V30 4851 H 462.411 2.85297 1.54195 0
M  V30 4852 H 462.196 3.91906 0.123484 0
M  V30 4853 H 463.686 4.02638 1.10783 0
M  V30 4854 N 464.123 0.554532 1.47522 0
M  V30 4855 C 465.348 0.0322661 2.07375 0
M  V30 4856 C 465.773 -1.25079 1.40488 0
M  V30 4857 O 465.131 -1.74859 0.47896 0
M  V30 4858 C 465.179 -0.149397 3.6029 0
M  V30 4859 O 464.283 -1.21259 3.9417 0
M  V30 4860 H 463.624 0.0501228 0.662106 0
M  V30 4861 H 466.154 0.769452 1.8958 0
M  V30 4862 H 466.164 -0.364437 4.06369 0
M  V30 4863 H 464.839 0.787743 4.08372 0
M  V30 4864 H 463.416 -0.97825 3.5984 0
M  V30 4865 N 465.601 -1.54893 0.290851 0
M  V30 4866 C 466.548 -2.23138 -0.58974 0
M  V30 4867 C 467.518 -1.21036 -1.13752 0
M  V30 4868 O 468.703 -1.49626 -1.18392 0
M  V30 4869 C 465.843 -2.96811 -1.76061 0
M  V30 4870 C 464.956 -4.13665 -1.24519 0
M  V30 4871 C 464.091 -4.74944 -2.3791 0
M  V30 4872 C 463.13 -5.83963 -1.83451 0
M  V30 4873 N 462.267 -6.39239 -2.90376 0
M  V30 4874 H 467.107 -2.98 -0.00114915 0
M  V30 4875 H 464.644 -1.47096 0.0112006 0
M  V30 4876 H 466.602 -3.37751 -2.44909 0
M  V30 4877 H 465.232 -2.24344 -2.32098 0
M  V30 4878 H 464.284 -3.77737 -0.449288 0
M  V30 4879 H 465.596 -4.92238 -0.806424 0
M  V30 4880 H 464.75 -5.18684 -3.14724 0
M  V30 4881 H 463.489 -3.95682 -2.85109 0
M  V30 4882 H 462.494 -5.39657 -1.05122 0
M  V30 4883 H 463.719 -6.65103 -1.37169 0
M  V30 4884 H 461.665 -5.62864 -3.36927 0
M  V30 4885 H 461.582 -7.13129 -2.50965 0
M  V30 4886 H 462.85 -6.87637 -3.67118 0
M  V30 4887 N 467.08 -0.0183926 -1.57589 0
M  V30 4888 C 468.357 0.700621 -1.82622 0
M  V30 4889 C 468.737 1.90951 -0.90005 0
M  V30 4890 O 468.085 2.28452 0.0469145 0
M  V30 4891 C 468.295 1.08899 -3.31575 0
M  V30 4892 C 469.643 1.48514 -3.9778 0
M  V30 4893 O 470.667 1.18227 -3.36007 0
M  V30 4894 O 469.526 2.04903 -5.06633 0
M  V30 4895 H 466.62 0.342743 -0.752633 0
M  V30 4896 H 469.166 -0.0452548 -1.6964 0
M  V30 4897 H 467.938 0.228113 -3.90635 0
M  V30 4898 H 467.561 1.89338 -3.49624 0
M  V30 4899 N 468.558 1.5553 0.254621 0
M  V30 4900 C 469.805 1.77 0.983736 0
M  V30 4901 C 470.133 0.58133 1.85609 0
M  V30 4902 O 469.388 -0.435621 1.9079 0
M  V30 4903 C 469.687 3.03891 1.88109 0
M  V30 4904 C 469.353 4.35597 1.16472 0
M  V30 4905 C 468.015 4.7139 0.966714 0
M  V30 4906 C 470.367 5.1705 0.656387 0
M  V30 4907 C 467.695 5.86176 0.247942 0
M  V30 4908 C 470.047 6.32581 -0.0488807 0
M  V30 4909 C 468.711 6.67 -0.258438 0
M  V30 4910 H 467.981 0.647688 0.359974 0
M  V30 4911 H 470.628 1.89802 0.254463 0
M  V30 4912 H 468.933 2.86068 2.67717 0
M  V30 4913 H 470.63 3.17701 2.44677 0
M  V30 4914 H 467.22 4.07475 1.32899 0
M  V30 4915 H 471.404 4.8986 0.796933 0
M  V30 4916 H 466.66 6.11354 0.075035 0
M  V30 4917 H 470.834 6.94942 -0.450444 0
M  V30 4918 H 468.461 7.55793 -0.817358 0
M  V30 4919 N 470.036 -0.519951 1.48776 0
M  V30 4920 C 471.261 -1.30447 1.6124 0
M  V30 4921 C 471.686 -1.86055 0.276591 0
M  V30 4922 O 471.044 -1.64915 -0.753183 0
M  V30 4923 C 471.092 -2.42406 2.66967 0
M  V30 4924 O 470.196 -3.45728 2.24824 0
M  V30 4925 H 469.537 -0.385924 0.540332 0
M  V30 4926 H 472.067 -0.624572 1.94834 0
M  V30 4927 H 472.077 -2.88447 2.88552 0
M  V30 4928 H 470.752 -2.01294 3.63941 0
M  V30 4929 H 469.329 -3.05737 2.13494 0
M  V30 4930 N 471.514 -1.37532 -0.769588 0
M  V30 4931 C 472.925 -1.29382 -1.346 0
M  V30 4932 C 473.276 0.0576039 -1.96115 0
M  V30 4933 O 472.401 0.95947 -1.93967 0
M  V30 4934 C 472.996 -2.34298 -2.44724 0
M  V30 4935 C 471.555 -2.29776 -2.98128 0
M  V30 4936 C 470.702 -2.18013 -1.71364 0
M  V30 4937 H 473.653 -1.48123 -0.56968 0
M  V30 4938 H 473.674 -1.99089 -3.24259 0
M  V30 4939 H 473.186 -3.32645 -1.99922 0
M  V30 4940 H 471.287 -1.34959 -3.47299 0
M  V30 4941 H 471.4 -3.23276 -3.53595 0
M  V30 4942 H 469.764 -1.64595 -1.94372 0
M  V30 4943 H 470.547 -3.18278 -1.28662 0
M  V30 4944 N 472.992 0.995999 -1.22138 0
M  V30 4945 C 474.238 1.73767 -1.04561 0
M  V30 4946 C 474.571 1.89633 0.418698 0
M  V30 4947 O 473.846 1.43723 1.3105 0
M  V30 4948 C 474.129 3.14505 -1.75382 0
M  V30 4949 C 473.982 3.06306 -3.29388 0
M  V30 4950 C 475.301 4.13615 -1.50369 0
M  V30 4951 H 472.42 0.630728 -0.38125 0
M  V30 4952 H 475.062 1.16057 -1.50435 0
M  V30 4953 H 473.212 3.63775 -1.36383 0
M  V30 4954 H 474.884 2.64681 -3.77812 0
M  V30 4955 H 473.127 2.43186 -3.59226 0
M  V30 4956 H 473.798 4.05884 -3.74116 0
M  V30 4957 H 476.274 3.73089 -1.84239 0
M  V30 4958 H 475.15 5.10212 -2.02421 0
M  V30 4959 H 475.411 4.39949 -0.435611 0
M  V30 4960 N 474.47 1.03057 1.19235 0
M  V30 4961 C 475.4 0.633497 2.24742 0
M  V30 4962 C 476.381 -0.358335 1.66283 0
M  V30 4963 O 477.566 -0.240676 1.92703 0
M  V30 4964 C 474.696 -0.0147648 3.47297 0
M  V30 4965 C 473.65 0.899527 4.18441 0
M  V30 4966 C 472.976 0.116281 5.34574 0
M  V30 4967 C 474.276 2.21404 4.73051 0
M  V30 4968 H 475.97 1.5155 2.58211 0
M  V30 4969 H 473.516 0.73014 1.24117 0
M  V30 4970 H 475.469 -0.304202 4.20301 0
M  V30 4971 H 474.193 -0.931577 3.13032 0
M  V30 4972 H 472.852 1.17319 3.47321 0
M  V30 4973 H 472.5 -0.802619 4.96555 0
M  V30 4974 H 472.2 0.725293 5.83107 0
M  V30 4975 H 473.724 -0.166376 6.10373 0
M  V30 4976 H 475.138 1.98601 5.37802 0
M  V30 4977 H 473.535 2.77512 5.32078 0
M  V30 4978 H 474.605 2.86752 3.91026 0
M  V30 4979 N 475.948 -1.35272 0.808662 0
M  V30 4980 C 477.364 -1.51806 0.492653 0
M  V30 4981 C 477.564 -1.7574 -0.985778 0
M  V30 4982 O 476.62 -1.80003 -1.77074 0
M  V30 4983 C 477.933 -2.69202 1.33981 0
M  V30 4984 C 479.481 -2.8308 1.33547 0
M  V30 4985 C 479.956 -4.03502 2.16679 0
M  V30 4986 N 481.447 -4.10684 2.14227 0
M  V30 4987 C 482.182 -5.02984 2.75308 0
M  V30 4988 N 481.678 -6.00603 3.45323 0
M  V30 4989 N 483.471 -4.95746 2.64938 0
M  V30 4990 H 475.622 -1.17993 1.76611 0
M  V30 4991 H 477.885 -0.577476 0.751814 0
M  V30 4992 H 477.591 -2.581 2.38909 0
M  V30 4993 H 477.465 -3.63854 0.994491 0
M  V30 4994 H 479.852 -2.93631 0.294036 0
M  V30 4995 H 479.933 -1.89278 1.72068 0
M  V30 4996 H 479.577 -3.93711 3.20864 0
M  V30 4997 H 479.507 -4.96489 1.75517 0
M  V30 4998 H 481.998 -3.40802 1.63285 0
M  V30 4999 H 482.311 -6.67633 3.89212 0
M  V30 5000 H 480.656 -6.0077 3.49428 0
M  V30 5001 H 483.847 -4.18439 2.09825 0
M  V30 5002 H 484.02 -5.67487 3.12829 0
M  V30 5003 N 477.426 -0.562348 -1.47226 0
M  V30 5004 C 478.703 0.0256985 -1.95583 0
M  V30 5005 C 479.083 1.48032 -1.50498 0
M  V30 5006 O 478.431 2.15973 -0.746181 0
M  V30 5007 C 478.641 -0.125129 -3.48776 0
M  V30 5008 C 479.989 0.0175728 -4.24596 0
M  V30 5009 O 481.013 -0.0529341 -3.56161 0
M  V30 5010 O 479.872 0.170145 -5.46235 0
M  V30 5011 H 476.966 0.0612565 -0.824728 0
M  V30 5012 H 479.512 -0.629233 -1.57603 0
M  V30 5013 H 478.284 -1.13715 -3.74412 0
M  V30 5014 H 477.907 0.567178 -3.93534 0
M  V30 5015 N 478.904 1.54736 -0.299062 0
M  V30 5016 C 480.153 1.99279 0.311549 0
M  V30 5017 C 480.466 1.19107 1.55154 0
M  V30 5018 O 481.672 1.53908 2.23662 0
M  V30 5019 C 480.128 3.54768 0.605632 0
M  V30 5020 C 479.736 4.43746 -0.615914 0
M  V30 5021 C 481.48 4.07841 1.17754 0
M  V30 5022 C 479.387 5.90663 -0.29509 0
M  V30 5023 H 478.317 0.744359 0.120187 0
M  V30 5024 H 480.968 1.78919 -0.407464 0
M  V30 5025 H 479.35 3.71021 1.38419 0
M  V30 5026 H 480.524 4.39267 -1.39218 0
M  V30 5027 H 478.839 4.01434 -1.10633 0
M  V30 5028 H 481.436 5.15174 1.43179 0
M  V30 5029 H 481.779 3.58324 2.11918 0
M  V30 5030 H 482.312 3.95123 0.460739 0
M  V30 5031 H 479.051 6.44325 -1.20524 0
M  V30 5032 H 478.571 5.98155 0.44394 0
M  V30 5033 H 480.25 6.46916 0.104048 0
M  V30 5034 N 480.382 0.0267497 1.57577 0
M  V30 5035 C 481.314 -0.984594 2.06974 0
M  V30 5036 C 482.327 -1.29032 0.992705 0
M  V30 5037 O 483.516 -1.25539 1.26895 0
M  V30 5038 C 480.616 -2.31262 2.47732 0
M  V30 5039 C 479.789 -2.1924 3.78487 0
M  V30 5040 C 478.848 -3.34956 4.05821 0
M  V30 5041 O 477.874 -3.11948 4.76106 0
M  V30 5042 N 479.076 -4.58672 3.55809 0
M  V30 5043 H 481.841 -0.563143 2.94362 0
M  V30 5044 H 479.402 -0.160061 1.61107 0
M  V30 5045 H 481.394 -3.07496 2.63112 0
M  V30 5046 H 479.964 -2.65056 1.65723 0
M  V30 5047 H 479.184 -1.27747 3.72927 0
M  V30 5048 H 480.472 -2.08409 4.64158 0
M  V30 5049 H 479.87 -4.8026 2.98942 0
M  V30 5050 H 478.427 -5.32083 3.76472 0
M  V30 5051 N 481.861 -1.55662 -0.24637 0
M  V30 5052 C 482.811 -1.86753 -1.30795 0
M  V30 5053 C 483.795 -0.728445 -1.43466 0
M  V30 5054 O 484.987 -0.99038 -1.46699 0
M  V30 5055 C 482.116 -2.16618 -2.66329 0
M  V30 5056 C 481.202 -3.36855 -2.57661 0
M  V30 5057 N 481.593 -4.56111 -2.18624 0
M  V30 5058 C 479.891 -3.39976 -2.88673 0
M  V30 5059 C 480.592 -5.38247 -2.20601 0
M  V30 5060 N 479.568 -4.77322 -2.60124 0
M  V30 5061 H 483.37 -2.76486 -0.996642 0
M  V30 5062 H 480.884 -1.55896 -0.454994 0
M  V30 5063 H 482.881 -2.37057 -3.42942 0
M  V30 5064 H 481.541 -1.28185 -2.98327 0
M  V30 5065 H 482.552 -4.81726 -1.9016 0
M  V30 5066 H 479.229 -2.61815 -3.25206 0
M  V30 5067 H 480.619 -6.43657 -1.92756 0
M  V30 5068 N 483.339 0.512053 -1.4905 0
M  V30 5069 C 484.302 1.59704 -1.64399 0
M  V30 5070 C 485.302 1.52285 -0.516317 0
M  V30 5071 O 486.492 1.55635 -0.782527 0
M  V30 5072 C 483.624 2.9935 -1.63102 0
M  V30 5073 H 484.817 1.47428 -2.61161 0
M  V30 5074 H 482.37 0.735469 -1.37915 0
M  V30 5075 H 483.105 3.17116 -0.678836 0
M  V30 5076 H 482.89 3.06144 -2.44986 0
M  V30 5077 H 484.38 3.782 -1.77072 0
M  V30 5078 N 484.817 1.37938 0.762283 0
M  V30 5079 C 486.066 1.32989 1.51647 0
M  V30 5080 C 486.379 -0.0802922 1.95435 0
M  V30 5081 O 487.585 -0.252295 2.70325 0
M  V30 5082 C 486.041 2.33485 2.73885 0
M  V30 5083 C 485.649 3.80079 2.37157 0
M  V30 5084 C 487.393 2.37563 3.51801 0
M  V30 5085 C 485.3 4.72283 3.55954 0
M  V30 5086 H 484.23 0.494301 0.56937 0
M  V30 5087 H 486.881 1.63448 0.834083 0
M  V30 5088 H 485.263 1.96056 3.44061 0
M  V30 5089 H 486.437 4.26398 1.74704 0
M  V30 5090 H 484.752 3.79037 1.72395 0
M  V30 5091 H 487.349 3.0365 4.40114 0
M  V30 5092 H 487.692 1.39199 3.92338 0
M  V30 5093 H 488.225 2.73747 2.8863 0
M  V30 5094 H 484.964 5.7181 3.2049 0
M  V30 5095 H 484.484 4.30663 4.1748 0
M  V30 5096 H 486.163 4.89876 4.22647 0
M  V30 5097 N 486.295 -0.989507 1.22664 0
M  V30 5098 C 487.225 -2.09847 1.02404 0
M  V30 5099 C 488.206 -1.70007 -0.0561303 0
M  V30 5100 O 489.391 -1.93906 0.106748 0
M  V30 5101 C 486.521 -3.41996 0.604663 0
M  V30 5102 C 485.475 -3.95699 1.63115 0
M  V30 5103 C 484.801 -5.23936 1.0675 0
M  V30 5104 C 486.101 -4.25999 3.02196 0
M  V30 5105 H 487.795 -2.27054 1.95158 0
M  V30 5106 H 485.341 -1.09111 0.939727 0
M  V30 5107 H 487.294 -4.1899 0.45002 0
M  V30 5108 H 486.018 -3.24626 -0.35855 0
M  V30 5109 H 484.677 -3.2084 1.77362 0
M  V30 5110 H 484.325 -5.02909 0.0955422 0
M  V30 5111 H 484.025 -5.60833 1.75328 0
M  V30 5112 H 485.549 -6.0356 0.924516 0
M  V30 5113 H 486.963 -4.93777 2.91303 0
M  V30 5114 H 485.36 -4.74076 3.67929 0
M  V30 5115 H 486.43 -3.33636 3.51873 0
M  V30 5116 N 487.773 -1.03688 -1.18687 0
M  V30 5117 C 488.736 -0.629115 -2.20397 0
M  V30 5118 C 489.736 0.311495 -1.57754 0
M  V30 5119 O 490.926 0.0974107 -1.73927 0
M  V30 5120 C 488.058 0.0782231 -3.4081 0
M  V30 5121 H 489.251 -1.52915 -2.57987 0
M  V30 5122 H 486.804 -0.828988 -1.32505 0
M  V30 5123 H 487.539 0.992233 -3.08748 0
M  V30 5124 H 487.324 -0.597776 -3.87517 0
M  V30 5125 H 488.814 0.350156 -4.16129 0
M  V30 5126 N 489.251 1.34841 -0.815825 0
M  V30 5127 C 490.198 2.29644 -0.230664 0
M  V30 5128 C 491.168 1.53253 0.640533 0
M  V30 5129 O 492.353 1.81653 0.583672 0
M  V30 5130 C 489.493 3.39715 0.607275 0
M  V30 5131 C 488.606 4.31056 -0.28538 0
M  V30 5132 C 487.741 5.28225 0.561446 0
M  V30 5133 C 486.78 6.11204 -0.331035 0
M  V30 5134 N 485.917 7.00483 0.476302 0
M  V30 5135 H 490.757 2.79095 -1.0445 0
M  V30 5136 H 488.294 1.37351 -0.526595 0
M  V30 5137 H 490.252 4.02208 1.10835 0
M  V30 5138 H 488.882 2.91517 1.38629 0
M  V30 5139 H 487.934 3.69487 -0.904621 0
M  V30 5140 H 489.246 4.89239 -0.97193 0
M  V30 5141 H 488.4 5.96135 1.12728 0
M  V30 5142 H 487.139 4.70562 1.28153 0
M  V30 5143 H 486.144 5.42232 -0.909069 0
M  V30 5144 H 487.369 6.70947 -1.04912 0
M  V30 5145 H 485.315 6.45296 1.18019 0
M  V30 5146 H 485.232 7.55847 -0.152008 0
M  V30 5147 H 486.5 7.7273 1.02512 0
M  V30 5148 N 490.729 0.570148 1.46925 0
M  V30 5149 C 491.954 0.0542592 2.07329 0
M  V30 5150 C 492.379 -1.23582 1.41806 0
M  V30 5151 O 491.737 -1.74341 0.497479 0
M  V30 5152 C 491.785 -0.111175 3.60429 0
M  V30 5153 O 490.889 -1.17071 3.95434 0
M  V30 5154 H 490.23 0.0571425 0.661537 0
M  V30 5155 H 492.76 0.789516 1.88753 0
M  V30 5156 H 492.77 -0.321315 4.06733 0
M  V30 5157 H 491.445 0.831012 4.07513 0
M  V30 5158 H 490.022 -0.940029 3.60857 0
M  V30 5159 N 492.207 -1.54576 0.307264 0
M  V30 5160 C 493.618 -1.8579 -0.184121 0
M  V30 5161 C 493.969 -1.22914 -1.52927 0
M  V30 5162 O 493.094 -0.529126 -2.09831 0
M  V30 5163 C 493.689 -3.37081 -0.340862 0
M  V30 5164 C 492.248 -3.68304 -0.776465 0
M  V30 5165 C 491.395 -2.77076 0.111503 0
M  V30 5166 H 494.346 -1.49656 0.528078 0
M  V30 5167 H 494.367 -3.61922 -1.17443 0
M  V30 5168 H 493.879 -3.82815 0.638309 0
M  V30 5169 H 491.98 -3.28092 -1.76596 0
M  V30 5170 H 492.093 -4.75434 -0.591512 0
M  V30 5171 H 490.457 -2.51374 -0.410256 0
M  V30 5172 H 491.24 -3.25632 1.08714 0
M  V30 5173 N 493.685 -0.035106 -1.57561 0
M  V30 5174 C 494.932 0.642229 -1.92046 0
M  V30 5175 C 495.26 1.7179 -0.91206 0
M  V30 5176 O 494.515 1.95544 0.0781153 0
M  V30 5177 C 494.814 1.29149 -3.3325 0
M  V30 5178 C 494.48 0.345604 -4.49574 0
M  V30 5179 C 493.142 0.0852775 -4.81124 0
M  V30 5180 C 495.494 -0.303569 -5.20315 0
M  V30 5181 C 492.822 -0.831927 -5.80772 0
M  V30 5182 C 495.174 -1.20886 -6.20942 0
M  V30 5183 C 493.838 -1.47802 -6.50931 0
M  V30 5184 H 493.108 0.235008 -0.702746 0
M  V30 5185 H 495.755 -0.0981529 -1.91248 0
M  V30 5186 H 494.06 2.10676 -3.30337 0
M  V30 5187 H 495.757 1.82223 -3.57205 0
M  V30 5188 H 492.347 0.558683 -4.24943 0
M  V30 5189 H 496.531 -0.115515 -4.96166 0
M  V30 5190 H 491.787 -1.0481 -6.02349 0
M  V30 5191 H 495.961 -1.71804 -6.74875 0
M  V30 5192 H 493.588 -2.19039 -7.2796 0
M  V30 5193 N 495.163 1.55791 0.238111 0
M  V30 5194 C 496.126 1.90239 1.27835 0
M  V30 5195 C 497.126 0.779552 1.4064 0
M  V30 5196 O 498.316 1.04747 1.3919 0
M  V30 5197 C 495.448 2.13859 2.65475 0
M  V30 5198 H 496.641 2.83262 0.985034 0
M  V30 5199 H 494.194 1.48818 0.477799 0
M  V30 5200 H 494.929 1.23334 2.99932 0
M  V30 5201 H 494.714 2.95643 2.57561 0
M  V30 5202 H 496.204 2.41664 3.40571 0
M  V30 5203 N 496.642 -0.504142 1.49319 0
M  V30 5204 C 497.872 -1.28071 1.62116 0
M  V30 5205 C 498.28 -1.86955 0.290566 0
M  V30 5206 O 497.623 -1.68415 -0.733616 0
M  V30 5207 C 497.685 -2.4521 2.62893 0
M  V30 5208 C 497.349 -2.07218 4.0732 0
M  V30 5209 C 498.346 -1.61375 4.94221 0
M  V30 5210 C 496.031 -2.16949 4.53033 0
M  V30 5211 C 498.025 -1.25763 6.2487 0
M  V30 5212 C 495.712 -1.80949 5.83696 0
M  V30 5213 C 496.71 -1.3543 6.69438 0
M  V30 5214 O 496.398 -0.99915 7.97667 0
M  V30 5215 H 496.13 -0.394763 0.54876 0
M  V30 5216 H 498.684 -0.612118 1.96067 0
M  V30 5217 H 496.914 -3.15134 2.24115 0
M  V30 5218 H 498.603 -3.0724 2.65252 0
M  V30 5219 H 499.369 -1.53306 4.60133 0
M  V30 5220 H 495.248 -2.5133 3.86463 0
M  V30 5221 H 498.792 -0.901631 6.91749 0
M  V30 5222 H 494.689 -1.88667 6.17313 0
M  V30 5223 H 495.457 -1.13089 8.1065 0
M  V30 5224 N 498.12 -1.38341 -0.754957 0
M  V30 5225 C 499.35 -1.37504 -1.54195 0
M  V30 5226 C 499.758 0.0373787 -1.89163 0
M  V30 5227 O 499.101 1.01402 -1.53178 0
M  V30 5228 C 499.163 -2.16488 -2.87008 0
M  V30 5229 C 498.827 -3.65311 -2.74585 0
M  V30 5230 C 499.824 -4.58834 -2.44474 0
M  V30 5231 C 497.509 -4.08649 -2.9208 0
M  V30 5232 C 499.503 -5.93675 -2.32011 0
M  V30 5233 C 497.19 -5.43571 -2.79237 0
M  V30 5234 C 498.188 -6.35898 -2.49245 0
M  V30 5235 O 497.876 -7.68338 -2.36458 0
M  V30 5236 H 497.608 -0.472159 -0.483779 0
M  V30 5237 H 500.162 -1.82515 -0.94221 0
M  V30 5238 H 498.392 -1.66194 -3.49166 0
M  V30 5239 H 500.081 -2.08076 -3.4851 0
M  V30 5240 H 500.847 -4.26657 -2.30627 0
M  V30 5241 H 496.726 -3.37134 -3.14422 0
M  V30 5242 H 500.27 -6.65706 -2.08522 0
M  V30 5243 H 496.167 -5.75345 -2.92657 0
M  V30 5244 H 496.935 -7.78845 -2.5168 0
M  V30 5245 N 499.598 0.982988 -1.23187 0
M  V30 5246 C 500.826 1.75921 -1.08901 0
M  V30 5247 C 501.241 1.85341 0.359719 0
M  V30 5248 O 500.598 1.33072 1.24892 0
M  V30 5249 C 500.649 3.18742 -1.70545 0
M  V30 5250 O 500.37 3.09814 -3.09753 0
M  V30 5251 C 501.871 4.1277 -1.61667 0
M  V30 5252 H 499.091 0.552166 -0.381252 0
M  V30 5253 H 501.635 1.23516 -1.62985 0
M  V30 5254 H 499.79 3.68182 -1.20501 0
M  V30 5255 H 500.204 3.99703 -3.39614 0
M  V30 5256 H 501.678 5.10697 -2.09506 0
M  V30 5257 H 502.155 4.3542 -0.575009 0
M  V30 5258 H 502.761 3.69232 -2.11064 0
M  V30 5259 N 501.076 1.04316 1.18135 0
M  V30 5260 C 502.487 0.775505 1.69832 0
M  V30 5261 C 502.838 -0.703348 1.8316 0
M  V30 5262 O 501.963 -1.54729 1.51287 0
M  V30 5263 C 502.558 1.40112 3.0847 0
M  V30 5264 C 501.117 1.18172 3.57368 0
M  V30 5265 C 500.264 1.49022 2.33854 0
M  V30 5266 H 503.215 1.20925 1.02775 0
M  V30 5267 H 503.236 0.805672 3.71873 0
M  V30 5268 H 502.748 2.47744 2.98738 0
M  V30 5269 H 500.849 0.124258 3.72393 0
M  V30 5270 H 500.962 1.8805 4.40652 0
M  V30 5271 H 499.326 0.909995 2.37889 0
M  V30 5272 H 500.109 2.57768 2.26738 0
M  V30 5273 N 502.554 -1.34406 0.822964 0
M  V30 5274 C 503.802 -1.97892 0.410245 0
M  V30 5275 C 504.123 -1.65567 -1.03017 0
M  V30 5276 O 503.393 -0.94642 -1.71522 0
M  V30 5277 H 501.973 -0.732049 0.148707 0
M  V30 5278 H 504.635 -1.64043 1.05242 0
M  V30 5279 H 503.731 -3.07579 0.529284 0
M  V30 5280 N 504.032 -0.577932 -1.46621 0
M  V30 5281 C 504.979 0.158048 -2.30258 0
M  V30 5282 C 505.949 0.888669 -1.40328 0
M  V30 5283 O 507.134 0.880283 -1.6928 0
M  V30 5284 C 504.274 1.16884 -3.24703 0
M  V30 5285 C 503.387 0.442163 -4.29731 0
M  V30 5286 C 502.522 1.44007 -5.11308 0
M  V30 5287 C 501.561 0.69952 -6.0809 0
M  V30 5288 N 500.698 1.64525 -6.82551 0
M  V30 5289 H 505.538 -0.561242 -2.92667 0
M  V30 5290 H 503.075 -0.288591 -1.44241 0
M  V30 5291 H 505.033 1.7677 -3.779 0
M  V30 5292 H 503.663 1.85591 -2.64113 0
M  V30 5293 H 502.715 -0.271632 -3.79429 0
M  V30 5294 H 504.027 -0.136992 -4.98612 0
M  V30 5295 H 503.181 2.11186 -5.68758 0
M  V30 5296 H 501.92 2.05315 -4.42377 0
M  V30 5297 H 500.925 0.0139217 -5.49798 0
M  V30 5298 H 502.15 0.091894 -6.79038 0
M  V30 5299 H 500.096 2.24653 -6.16334 0
M  V30 5300 H 500.013 1.11878 -7.47676 0
M  V30 5301 H 501.281 2.30754 -7.44562 0
M  V30 5302 N 505.51 1.54411 -0.315457 0
M  V30 5303 C 506.758 2.00023 0.288971 0
M  V30 5304 C 507.079 1.20529 1.5329 0
M  V30 5305 O 506.349 0.304986 1.93511 0
M  V30 5306 H 504.929 0.738891 0.109766 0
M  V30 5307 H 507.591 1.90094 -0.430129 0
M  V30 5308 H 506.687 3.07198 0.550999 0
M  V30 5309 N 506.988 0.0434614 1.5754 0
M  V30 5310 C 507.951 -0.918696 2.09982 0
M  V30 5311 C 508.951 -1.24488 1.01781 0
M  V30 5312 O 510.141 -1.18284 1.27885 0
M  V30 5313 C 507.273 -2.23093 2.57764 0
M  V30 5314 H 508.466 -0.464229 2.96285 0
M  V30 5315 H 506.019 -0.204818 1.54952 0
M  V30 5316 H 506.754 -2.73137 1.74832 0
M  V30 5317 H 506.539 -2.00724 3.36827 0
M  V30 5318 H 508.029 -2.92028 2.98512 0
M  V30 5319 N 508.466 -1.55915 -0.229846 0
M  V30 5320 C 509.696 -1.82352 -0.971152 0
M  V30 5321 C 510.104 -0.619231 -1.7878 0
M  V30 5322 O 509.447 0.421597 -1.78797 0
M  V30 5323 C 509.509 -3.02399 -1.9441 0
M  V30 5324 C 509.173 -4.37739 -1.31277 0
M  V30 5325 C 510.17 -5.15074 -0.706757 0
M  V30 5326 C 507.855 -4.84454 -1.32702 0
M  V30 5327 C 509.849 -6.37281 -0.123413 0
M  V30 5328 C 507.536 -6.06605 -0.739831 0
M  V30 5329 C 508.534 -6.82858 -0.139071 0
M  V30 5330 O 508.222 -8.027 0.439007 0
M  V30 5331 H 507.954 -0.61035 -0.290601 0
M  V30 5332 H 510.508 -2.03839 -0.252746 0
M  V30 5333 H 508.738 -2.76709 -2.70128 0
M  V30 5334 H 510.427 -3.15779 -2.55026 0
M  V30 5335 H 511.193 -4.80093 -0.688131 0
M  V30 5336 H 507.072 -4.25081 -1.78402 0
M  V30 5337 H 510.616 -6.96741 0.346124 0
M  V30 5338 H 506.513 -6.4106 -0.755841 0
M  V30 5339 H 507.281 -8.17824 0.332521 0
M  V30 5340 N 509.944 0.496216 -1.49584 0
M  V30 5341 C 510.874 1.60576 -1.69521 0
M  V30 5342 C 511.855 1.61169 -0.543933 0
M  V30 5343 O 513.04 1.77834 -0.78031 0
M  V30 5344 C 510.17 2.99038 -1.76616 0
M  V30 5345 C 509.124 3.13312 -2.91581 0
M  V30 5346 C 508.45 4.53172 -2.83794 0
M  V30 5347 C 509.75 2.92886 -4.32452 0
M  V30 5348 H 511.444 1.44146 -2.62416 0
M  V30 5349 H 508.99 0.692024 -1.26282 0
M  V30 5350 H 510.943 3.76564 -1.8915 0
M  V30 5351 H 509.667 3.16568 -0.80324 0
M  V30 5352 H 508.326 2.38213 -2.78658 0
M  V30 5353 H 507.974 4.67585 -1.854 0
M  V30 5354 H 507.674 4.63662 -3.60958 0
M  V30 5355 H 509.198 5.32752 -2.98342 0
M  V30 5356 H 510.612 3.60178 -4.46032 0
M  V30 5357 H 509.009 3.14844 -5.10875 0
M  V30 5358 H 510.079 1.88966 -4.46565 0
M  V30 5359 N 511.423 1.38739 0.74761 0
M  V30 5360 C 512.669 1.3648 1.50814 0
M  V30 5361 C 513.024 -0.0431982 1.92351 0
M  V30 5362 O 512.317 -1.0071 1.62997 0
M  V30 5363 C 512.511 2.25992 2.7688 0
M  V30 5364 C 512.34 3.75354 2.47668 0
M  V30 5365 C 511.11 4.44348 2.40589 0
M  V30 5366 C 513.308 4.67642 2.14046 0
M  V30 5367 N 511.29 5.79114 2.03715 0
M  V30 5368 C 512.661 5.90965 1.87512 0
M  V30 5369 C 514.716 4.55787 2.00407 0
M  V30 5370 C 513.419 7.03759 1.48714 0
M  V30 5371 C 515.445 5.68491 1.63011 0
M  V30 5372 C 514.807 6.90879 1.37353 0
M  V30 5373 H 510.906 0.554695 0.551214 0
M  V30 5374 H 513.49 1.7418 0.870033 0
M  V30 5375 H 511.661 1.9047 3.3849 0
M  V30 5376 H 513.393 2.14815 3.42982 0
M  V30 5377 H 510.148 3.97634 2.57262 0
M  V30 5378 H 510.572 6.504 1.87906 0
M  V30 5379 H 515.214 3.61712 2.18916 0
M  V30 5380 H 512.932 7.97746 1.28945 0
M  V30 5381 H 516.518 5.613 1.53081 0
M  V30 5382 H 515.398 7.76609 1.08848 0
M  V30 5383 N 512.901 -0.976442 1.23707 0
M  V30 5384 C 514.15 -1.71254 1.06559 0
M  V30 5385 C 514.463 -1.91528 -0.397024 0
M  V30 5386 O 515.669 -2.62625 -0.688518 0
M  V30 5387 C 514.125 -3.08207 1.8584 0
M  V30 5388 C 513.733 -2.95806 3.36456 0
M  V30 5389 C 515.477 -3.85749 1.77194 0
M  V30 5390 C 513.384 -4.28015 4.08114 0
M  V30 5391 H 512.314 -0.642171 0.395136 0
M  V30 5392 H 514.965 -1.08877 1.4771 0
M  V30 5393 H 513.347 -3.71363 1.37498 0
M  V30 5394 H 514.521 -2.41716 3.92314 0
M  V30 5395 H 512.836 -2.31736 3.45959 0
M  V30 5396 H 515.433 -4.83633 2.28041 0
M  V30 5397 H 515.776 -4.09752 0.735477 0
M  V30 5398 H 516.309 -3.29303 2.23169 0
M  V30 5399 H 513.048 -4.09208 5.12083 0
M  V30 5400 H 512.568 -4.81955 3.57043 0
M  V30 5401 H 514.247 -4.96681 4.14629 0
M  V30 5402 N 514.379 -1.04941 -1.1758 0
M  V30 5403 C 515.619 -0.766996 -1.89464 0
M  V30 5404 C 515.983 0.693123 -1.79053 0
M  V30 5405 O 517.184 1.08953 -2.45729 0
M  V30 5406 C 515.455 -1.23108 -3.35528 0
M  V30 5407 S 517.014 -1.07565 -4.25412 0
M  V30 5408 H 513.832 -0.278616 -0.654136 0
M  V30 5409 H 516.434 -1.34352 -1.4202 0
M  V30 5410 H 515.138 -2.28896 -3.40639 0
M  V30 5411 H 514.669 -0.648724 -3.88014 0
M  V30 5412 H 516.684 0.00169467 -4.962 0
M  V30 5413 N 515.857 1.33968 -0.830081 0
M  V30 5414 C 516.787 2.31911 -0.271911 0
M  V30 5415 C 517.768 1.58571 0.61556 0
M  V30 5416 O 518.953 1.86514 0.540946 0
M  V30 5417 C 516.083 3.42737 0.561146 0
M  V30 5418 C 515.037 4.27383 -0.229789 0
M  V30 5419 C 514.363 5.29742 0.726463 0
M  V30 5420 C 515.663 5.02 -1.44197 0
M  V30 5421 H 517.357 2.78844 -1.09025 0
M  V30 5422 H 514.903 1.34061 -0.52571 0
M  V30 5423 H 516.856 4.10276 0.961867 0
M  V30 5424 H 515.58 2.94471 1.41261 0
M  V30 5425 H 514.239 3.61456 -0.611964 0
M  V30 5426 H 513.887 4.77736 1.57408 0
M  V30 5427 H 513.587 5.87255 0.20142 0
M  V30 5428 H 515.111 6.00149 1.12489 0
M  V30 5429 H 516.525 5.62355 -1.11488 0
M  V30 5430 H 514.922 5.69122 -1.90317 0
M  V30 5431 H 515.992 4.31281 -2.2164 0
M  V30 5432 N 517.335 0.585699 1.46312 0
M  V30 5433 C 518.298 -0.135673 2.28798 0
M  V30 5434 C 519.298 -0.815988 1.38558 0
M  V30 5435 O 520.488 -0.667487 1.60904 0
M  V30 5436 C 517.62 -1.20163 3.1902 0
M  V30 5437 H 518.813 0.589257 2.94054 0
M  V30 5438 H 516.366 0.343794 1.52472 0
M  V30 5439 H 517.101 -1.95804 2.58517 0
M  V30 5440 H 516.886 -0.718282 3.85465 0
M  V30 5441 H 518.376 -1.70749 3.81096 0
M  V30 5442 N 518.813 -1.54241 0.323641 0
M  V30 5443 C 519.763 -2.21071 -0.557833 0
M  V30 5444 C 520.747 -1.19126 -1.08157 0
M  V30 5445 O 521.939 -1.44755 -1.01857 0
M  V30 5446 C 519.068 -2.97208 -1.71821 0
M  V30 5447 C 518.154 -4.06491 -1.20936 0
M  V30 5448 N 518.545 -5.04052 -0.420202 0
M  V30 5449 C 516.843 -4.20443 -1.48808 0
M  V30 5450 C 517.544 -5.81516 -0.146413 0
M  V30 5451 N 516.52 -5.38641 -0.732562 0
M  V30 5452 H 520.322 -2.93853 0.0523921 0
M  V30 5453 H 517.836 -1.61883 0.129502 0
M  V30 5454 H 519.833 -3.4357 -2.36146 0
M  V30 5455 H 518.493 -2.25947 -2.33191 0
M  V30 5456 H 519.504 -5.17862 -0.0630401 0
M  V30 5457 H 516.181 -3.60396 -2.10762 0
M  V30 5458 H 517.571 -6.70119 0.488895 0
M  V30 5459 N 520.291 -0.0518155 -1.57515 0
M  V30 5460 C 521.521 0.63048 -1.96745 0
M  V30 5461 C 521.929 1.64875 -0.928054 0
M  V30 5462 O 521.272 1.83449 0.0960678 0
M  V30 5463 C 521.334 1.37381 -3.32215 0
M  V30 5464 C 520.998 0.511298 -4.54131 0
M  V30 5465 C 521.995 -0.222884 -5.19422 0
M  V30 5466 C 519.68 0.442035 -5.00351 0
M  V30 5467 C 521.674 -1.01476 -6.2927 0
M  V30 5468 C 519.361 -0.35353 -6.10077 0
M  V30 5469 C 520.359 -1.08062 -6.74397 0
M  V30 5470 O 520.047 -1.8631 -7.82013 0
M  V30 5471 H 519.779 0.177126 -0.652382 0
M  V30 5472 H 522.333 -0.114726 -2.05079 0
M  V30 5473 H 520.563 2.16466 -3.20436 0
M  V30 5474 H 522.252 1.9464 -3.56188 0
M  V30 5475 H 523.018 -0.178846 -4.8467 0
M  V30 5476 H 518.897 0.997562 -4.50077 0
M  V30 5477 H 522.441 -1.58279 -6.79407 0
M  V30 5478 H 518.338 -0.399205 -6.44264 0
M  V30 5479 H 519.106 -1.78528 -7.98793 0
M  V30 5480 N 521.769 1.56035 0.221574 0
M  V30 5481 C 522.699 1.95434 1.2778 0
M  V30 5482 C 523.68 0.822564 1.48889 0
M  V30 5483 O 524.865 1.08486 1.61072 0
M  V30 5484 C 521.995 2.27102 2.62759 0
M  V30 5485 C 520.949 3.4277 2.56306 0
M  V30 5486 C 520.275 3.60043 3.95314 0
M  V30 5487 C 521.575 4.77742 2.11093 0
M  V30 5488 H 523.269 2.83912 0.950504 0
M  V30 5489 H 520.815 1.36596 0.455791 0
M  V30 5490 H 522.768 2.53256 3.36807 0
M  V30 5491 H 521.492 1.35478 2.97176 0
M  V30 5492 H 520.151 3.16664 1.84715 0
M  V30 5493 H 519.799 2.65794 4.27039 0
M  V30 5494 H 519.499 4.37841 3.91879 0
M  V30 5495 H 521.023 3.88545 4.71025 0
M  V30 5496 H 522.437 5.03102 2.74885 0
M  V30 5497 H 520.834 5.58823 2.18716 0
M  V30 5498 H 521.904 4.731 1.06321 0
M  V30 5499 N 523.247 -0.488276 1.49845 0
M  V30 5500 C 524.658 -1.06955 1.53028 0
M  V30 5501 C 525.009 -1.9351 0.323797 0
M  V30 5502 O 524.134 -2.08891 -0.565116 0
M  V30 5503 C 524.729 -1.94643 2.77307 0
M  V30 5504 C 523.288 -2.4791 2.83227 0
M  V30 5505 C 522.435 -1.25833 2.47106 0
M  V30 5506 H 525.386 -0.271626 1.56358 0
M  V30 5507 H 525.407 -2.79496 2.5819 0
M  V30 5508 H 524.919 -1.31621 3.65099 0
M  V30 5509 H 523.02 -3.14535 1.99745 0
M  V30 5510 H 523.133 -2.84193 3.85709 0
M  V30 5511 H 521.497 -1.58764 1.99163 0
M  V30 5512 H 522.28 -0.644993 3.37186 0
M  V30 5513 N 524.725 -1.39134 -0.740242 0
M  V30 5514 C 525.974 -1.35384 -1.49512 0
M  V30 5515 C 526.287 0.04919 -1.95538 0
M  V30 5516 O 527.493 0.209257 -2.70692 0
M  V30 5517 C 525.949 -2.37812 -2.70136 0
M  V30 5518 C 525.557 -3.83804 -2.31081 0
M  V30 5519 C 527.301 -2.4313 -3.47977 0
M  V30 5520 C 525.208 -4.77886 -3.48395 0
M  V30 5521 H 524.138 -0.503297 -0.561434 0
M  V30 5522 H 526.789 -1.64754 -0.807974 0
M  V30 5523 H 525.171 -2.01505 -3.40899 0
M  V30 5524 H 526.345 -4.29123 -1.67898 0
M  V30 5525 H 524.66 -3.81732 -1.66343 0
M  V30 5526 H 527.257 -3.10614 -4.35228 0
M  V30 5527 H 527.6 -1.45423 -3.90074 0
M  V30 5528 H 528.133 -2.78304 -2.84239 0
M  V30 5529 H 524.872 -5.76836 -3.11353 0
M  V30 5530 H 524.392 -4.3725 -4.10576 0
M  V30 5531 H 526.071 -4.96538 -4.148 0
M  V30 5532 N 526.204 0.969867 -1.24223 0
M  V30 5533 C 527.452 1.70918 -1.0785 0
M  V30 5534 C 527.773 1.91186 0.383763 0
M  V30 5535 O 527.043 1.48806 1.27411 0
M  V30 5536 H 525.623 0.633334 -0.396103 0
M  V30 5537 H 528.285 1.16689 -1.56108 0
M  V30 5538 H 527.381 2.69455 -1.57482 0
M  V30 5539 N 527.682 1.05563 1.17022 0
M  V30 5540 C 528.931 0.763036 1.8671 0
M  V30 5541 C 529.244 -0.712857 1.82147 0
M  V30 5542 O 530.45 -1.11955 2.47343 0
M  V30 5543 C 528.906 1.31474 3.35026 0
M  V30 5544 C 528.514 2.82034 3.48081 0
M  V30 5545 C 530.258 1.09935 4.10018 0
M  V30 5546 C 528.165 3.30486 4.90442 0
M  V30 5547 H 527.095 0.281747 0.699382 0
M  V30 5548 H 529.746 1.2734 1.32124 0
M  V30 5549 H 528.128 0.732171 3.89173 0
M  V30 5550 H 529.302 3.46178 3.04133 0
M  V30 5551 H 527.617 3.02156 2.86515 0
M  V30 5552 H 530.214 1.43632 5.15048 0
M  V30 5553 H 530.557 0.0373072 4.16283 0
M  V30 5554 H 531.09 1.64732 3.62089 0
M  V30 5555 H 527.829 4.36137 4.89352 0
M  V30 5556 H 527.349 2.71086 5.35044 0
M  V30 5557 H 529.028 3.25382 5.59227 0
M  V30 5558 N 529.16 -1.33526 0.837174 0
M  V30 5559 C 530.39 -2.01754 0.444848 0
M  V30 5560 C 530.798 -1.63149 -0.958072 0
M  V30 5561 O 530.141 -0.839827 -1.63379 0
M  V30 5562 C 530.203 -3.56228 0.483917 0
M  V30 5563 C 529.867 -4.18205 1.84265 0
M  V30 5564 C 530.864 -4.37699 2.80563 0
M  V30 5565 C 528.549 -4.54667 2.13503 0
M  V30 5566 C 530.543 -4.928 4.04261 0
M  V30 5567 C 528.23 -5.09475 3.37458 0
M  V30 5568 C 529.228 -5.28488 4.32654 0
M  V30 5569 O 528.916 -5.82132 5.54417 0
M  V30 5570 H 528.648 -0.652928 0.175104 0
M  V30 5571 H 531.202 -1.71469 1.13082 0
M  V30 5572 H 529.432 -3.85833 -0.258826 0
M  V30 5573 H 531.121 -4.05752 0.109653 0
M  V30 5574 H 531.887 -4.0988 2.59274 0
M  V30 5575 H 527.766 -4.39164 1.40201 0
M  V30 5576 H 531.31 -5.07555 4.78574 0
M  V30 5577 H 527.207 -5.36725 3.58604 0
M  V30 5578 H 527.975 -6.00548 5.56133 0
M  V30 5579 N 530.638 -0.59345 -1.46 0
M  V30 5580 C 531.915 -0.0157933 -1.95594 0
M  V30 5581 C 532.295 1.44807 -1.53604 0
M  V30 5582 O 531.643 2.14342 -0.791824 0
M  V30 5583 C 531.853 -0.199081 -3.48432 0
M  V30 5584 C 533.201 -0.0724943 -4.24538 0
M  V30 5585 O 534.225 -0.128469 -3.55968 0
M  V30 5586 O 533.084 0.0542426 -5.46473 0
M  V30 5587 H 530.178 0.043749 -0.825842 0
M  V30 5588 H 532.724 -0.662522 -1.56233 0
M  V30 5589 H 531.496 -1.21631 -3.71916 0
M  V30 5590 H 531.119 0.483576 -3.94648 0
M  V30 5591 N 532.116 1.54067 -0.331816 0
M  V30 5592 C 533.346 2.04833 0.269605 0
M  V30 5593 C 533.754 1.20714 1.45687 0
M  V30 5594 O 533.097 0.232539 1.82222 0
M  V30 5595 C 533.159 3.51386 0.759499 0
M  V30 5596 C 532.823 4.55971 -0.306557 0
M  V30 5597 C 533.82 5.07126 -1.14538 0
M  V30 5598 C 531.505 5.00216 -0.457116 0
M  V30 5599 C 533.499 6.01096 -2.12042 0
M  V30 5600 C 531.186 5.93999 -1.43556 0
M  V30 5601 C 532.184 6.44326 -2.26568 0
M  V30 5602 O 531.872 7.36267 -3.22749 0
M  V30 5603 H 531.604 0.673509 0.0579763 0
M  V30 5604 H 534.158 1.99748 -0.478521 0
M  V30 5605 H 532.388 3.53896 1.55867 0
M  V30 5606 H 534.077 3.85184 1.28017 0
M  V30 5607 H 534.843 4.73716 -1.04009 0
M  V30 5608 H 530.722 4.60652 0.179142 0
M  V30 5609 H 534.266 6.40302 -2.76873 0
M  V30 5610 H 530.163 6.26825 -1.54146 0
M  V30 5611 H 530.931 7.54165 -3.18083 0
M  V30 5612 N 533.594 0.0601682 1.57485 0
M  V30 5613 C 534.841 -0.611594 1.93043 0
M  V30 5614 C 535.169 -1.70317 0.939274 0
M  V30 5615 O 534.424 -1.95644 -0.046996 0
M  V30 5616 C 534.723 -1.23831 3.35262 0
M  V30 5617 C 534.389 -0.274037 4.50066 0
M  V30 5618 C 533.051 -0.00872394 4.81199 0
M  V30 5619 C 535.403 0.386308 5.19766 0
M  V30 5620 C 532.731 0.924218 5.79375 0
M  V30 5621 C 535.083 1.3075 6.1894 0
M  V30 5622 C 533.747 1.58139 6.48497 0
M  V30 5623 H 533.017 -0.223798 0.706396 0
M  V30 5624 H 535.664 0.128566 1.91068 0
M  V30 5625 H 533.969 -2.05394 3.33647 0
M  V30 5626 H 535.666 -1.76517 3.60059 0
M  V30 5627 H 532.256 -0.491008 4.25778 0
M  V30 5628 H 536.44 0.194436 4.95919 0
M  V30 5629 H 531.696 1.1438 6.00606 0
M  V30 5630 H 535.87 1.82519 6.72056 0
M  V30 5631 H 533.497 2.30593 7.24383 0
M  V30 5632 N 535.072 -1.5615 -0.213296 0
M  V30 5633 C 536.035 -1.92249 -1.24792 0
M  V30 5634 C 537.035 -0.801828 -1.39382 0
M  V30 5635 O 538.225 -1.06948 -1.37506 0
M  V30 5636 C 535.357 -2.18056 -2.62039 0
M  V30 5637 H 536.55 -2.84793 -0.939845 0
M  V30 5638 H 534.103 -1.49559 -0.454062 0
M  V30 5639 H 534.838 -1.2809 -2.97932 0
M  V30 5640 H 534.623 -2.99703 -2.52825 0
M  V30 5641 H 536.113 -2.47051 -3.36683 0
M  V30 5642 N 536.55 0.480323 -1.50102 0
M  V30 5643 C 537.497 1.57946 -1.6829 0
M  V30 5644 C 538.467 1.57611 -0.524223 0
M  V30 5645 O 539.652 1.75282 -0.753709 0
M  V30 5646 C 536.792 2.95978 -1.77457 0
M  V30 5647 C 535.905 3.06173 -3.04766 0
M  V30 5648 C 535.04 4.35063 -3.04784 0
M  V30 5649 C 534.079 4.38966 -4.26586 0
M  V30 5650 N 533.216 5.59314 -4.24396 0
M  V30 5651 H 538.056 1.41743 -2.62131 0
M  V30 5652 H 535.593 0.689304 -1.2995 0
M  V30 5653 H 537.551 3.76011 -1.80752 0
M  V30 5654 H 536.181 3.10837 -0.870637 0
M  V30 5655 H 535.233 2.19071 -3.10986 0
M  V30 5656 H 536.545 3.04916 -3.9475 0
M  V30 5657 H 535.699 5.23436 -3.06757 0
M  V30 5658 H 534.438 4.38915 -2.12614 0
M  V30 5659 H 533.443 3.48992 -4.24835 0
M  V30 5660 H 534.668 4.36813 -5.19972 0
M  V30 5661 H 532.614 5.63969 -3.35074 0
M  V30 5662 H 532.531 5.5976 -5.08138 0
M  V30 5663 H 533.799 6.49837 -4.30502 0
M  V30 5664 N 538.028 1.39524 0.732853 0
M  V30 5665 C 539.444 1.21176 1.03868 0
M  V30 5666 C 539.644 0.0748448 2.01361 0
M  V30 5667 O 538.7 -0.57281 2.45917 0
M  V30 5668 C 540.013 2.54667 1.59892 0
M  V30 5669 C 541.561 2.6153 1.71962 0
M  V30 5670 C 542.036 3.95248 2.31394 0
M  V30 5671 N 543.527 3.96899 2.38801 0
M  V30 5672 C 544.262 4.97138 2.85729 0
M  V30 5673 N 543.758 6.07775 3.32537 0
M  V30 5674 N 545.551 4.84516 2.84957 0
M  V30 5675 H 537.702 2.12225 0.086304 0
M  V30 5676 H 539.965 0.942614 0.100907 0
M  V30 5677 H 539.671 3.38423 0.95721 0
M  V30 5678 H 539.545 2.74538 2.58668 0
M  V30 5679 H 541.932 1.78156 2.35254 0
M  V30 5680 H 542.013 2.45507 0.718327 0
M  V30 5681 H 541.657 4.79054 1.68729 0
M  V30 5682 H 541.587 4.08593 3.32204 0
M  V30 5683 H 544.078 3.16998 2.05719 0
M  V30 5684 H 544.391 6.8017 3.66862 0
M  V30 5685 H 542.736 6.11366 3.30541 0
M  V30 5686 H 545.927 3.97185 2.47713 0
M  V30 5687 H 546.1 5.62783 3.21215 0
M  V30 5688 N 539.506 -0.963266 1.24736 0
M  V30 5689 C 540.456 -2.0438 1.01058 0
M  V30 5690 C 541.44 -1.60824 -0.0495354 0
M  V30 5691 O 542.632 -1.76232 0.164741 0
M  V30 5692 C 539.761 -3.37617 0.622067 0
M  V30 5693 C 538.847 -3.87722 1.7185 0
M  V30 5694 N 539.238 -4.10715 2.95207 0
M  V30 5695 C 537.536 -4.16426 1.59703 0
M  V30 5696 C 538.237 -4.51872 3.66315 0
M  V30 5697 N 537.213 -4.57302 2.93897 0
M  V30 5698 H 541.015 -2.20138 1.94721 0
M  V30 5699 H 538.529 -1.14741 1.14927 0
M  V30 5700 H 540.526 -4.14638 0.43366 0
M  V30 5701 H 539.186 -3.23242 -0.307327 0
M  V30 5702 H 540.197 -3.98037 3.31341 0
M  V30 5703 H 536.874 -4.10962 0.73598 0
M  V30 5704 H 538.264 -4.78037 4.72155 0
M  V30 5705 N 540.985 -1.06182 -1.16461 0
M  V30 5706 C 542.232 -0.777863 -1.86964 0
M  V30 5707 C 542.56 0.695602 -1.81636 0
M  V30 5708 O 541.815 1.52532 -1.22607 0
M  V30 5709 C 542.114 -1.21633 -3.36066 0
M  V30 5710 C 541.78 -2.69371 -3.61594 0
M  V30 5711 C 540.442 -3.09727 -3.6827 0
M  V30 5712 C 542.794 -3.64791 -3.7226 0
M  V30 5713 C 540.122 -4.44345 -3.83112 0
M  V30 5714 C 542.474 -4.99155 -3.88623 0
M  V30 5715 C 541.138 -5.39149 -3.93541 0
M  V30 5716 H 540.408 -0.28464 -0.68415 0
M  V30 5717 H 543.055 -1.33071 -1.37711 0
M  V30 5718 H 541.36 -0.582651 -3.87443 0
M  V30 5719 H 543.057 -0.973682 -3.88999 0
M  V30 5720 H 539.647 -2.37124 -3.57029 0
M  V30 5721 H 543.831 -3.34746 -3.66413 0
M  V30 5722 H 539.087 -4.74819 -3.85172 0
M  V30 5723 H 543.261 -5.72976 -3.95817 0
M  V30 5724 H 540.888 -6.43464 -4.04794 0
M  V30 5725 N 542.463 1.3308 -0.844243 0
M  V30 5726 C 543.711 1.97215 -0.441676 0
M  V30 5727 C 544.032 1.67185 1.0037 0
M  V30 5728 O 543.302 0.973588 1.69994 0
M  V30 5729 H 541.882 0.72959 -0.160335 0
M  V30 5730 H 544.544 1.62348 -1.07838 0
M  V30 5731 H 543.64 3.06698 -0.57815 0
M  V30 5732 N 543.941 0.601185 1.45683 0
M  V30 5733 C 544.873 -0.159446 2.28645 0
M  V30 5734 C 545.886 -0.837882 1.39583 0
M  V30 5735 O 547.075 -0.704344 1.64016 0
M  V30 5736 C 544.175 -1.24641 3.15147 0
M  V30 5737 C 543.348 -0.656334 4.32448 0
M  V30 5738 C 542.407 -1.63337 5.00208 0
M  V30 5739 O 541.433 -1.16217 5.57209 0
M  V30 5740 N 542.635 -2.96773 4.98905 0
M  V30 5741 H 545.4 0.5524 2.94565 0
M  V30 5742 H 542.961 0.440223 1.558 0
M  V30 5743 H 544.953 -1.8997 3.57342 0
M  V30 5744 H 543.523 -1.86087 2.51178 0
M  V30 5745 H 542.743 0.174879 3.93812 0
M  V30 5746 H 544.031 -0.242211 5.08223 0
M  V30 5747 H 543.429 -3.37662 4.53873 0
M  V30 5748 H 541.986 -3.57541 5.44984 0
M  V30 5749 N 545.419 -1.53889 0.339982 0
M  V30 5750 C 546.696 -1.93084 -0.312719 0
M  V30 5751 C 547.076 -1.2712 -1.68534 0
M  V30 5752 O 546.424 -0.420835 -2.24591 0
M  V30 5753 C 546.634 -3.4683 -0.388558 0
M  V30 5754 C 547.982 -4.19732 -0.641088 0
M  V30 5755 O 549.006 -3.53075 -0.470818 0
M  V30 5756 O 547.865 -5.3781 -0.970685 0
M  V30 5757 H 544.959 -0.806784 -0.18174 0
M  V30 5758 H 547.505 -1.65137 0.390898 0
M  V30 5759 H 546.277 -3.87055 0.574821 0
M  V30 5760 H 545.9 -3.80933 -1.1391 0
M  V30 5761 N 546.897 -0.0685191 -1.57451 0
M  V30 5762 C 547.844 0.899861 -2.12535 0
M  V30 5763 C 548.814 1.29749 -1.03703 0
M  V30 5764 O 549.999 1.38392 -1.31348 0
M  V30 5765 C 547.139 2.16328 -2.6888 0
M  V30 5766 C 546.252 1.81857 -3.91857 0
M  V30 5767 C 545.387 3.02786 -4.36457 0
M  V30 5768 C 544.426 2.64317 -5.5209 0
M  V30 5769 N 543.563 3.77994 -5.91663 0
M  V30 5770 H 548.403 0.423243 -2.94979 0
M  V30 5771 H 545.94 0.197268 -1.45771 0
M  V30 5772 H 547.898 2.90281 -2.99655 0
M  V30 5773 H 546.528 2.61536 -1.89206 0
M  V30 5774 H 545.58 0.979808 -3.67565 0
M  V30 5775 H 546.892 1.49553 -4.75852 0
M  V30 5776 H 546.046 3.85021 -4.68875 0
M  V30 5777 H 544.785 3.38281 -3.51308 0
M  V30 5778 H 543.79 1.80503 -5.19325 0
M  V30 5779 H 545.015 2.29995 -6.38967 0
M  V30 5780 H 542.961 4.13258 -5.09464 0
M  V30 5781 H 542.878 3.49447 -6.7039 0
M  V30 5782 H 544.146 4.60818 -6.28703 0
M  V30 5783 N 548.375 1.56261 0.205012 0
M  V30 5784 C 549.786 1.70056 0.770574 0
M  V30 5785 C 550.137 0.673398 1.84282 0
M  V30 5786 O 549.262 -0.172196 2.15714 0
M  V30 5787 C 549.857 3.08316 1.40451 0
M  V30 5788 C 548.416 3.2391 1.91727 0
M  V30 5789 C 547.563 2.66001 0.783516 0
M  V30 5790 H 550.514 1.58688 -0.019911 0
M  V30 5791 H 550.535 3.05094 2.27371 0
M  V30 5792 H 550.047 3.83053 0.623882 0
M  V30 5793 H 548.148 2.54072 2.7254 0
M  V30 5794 H 548.261 4.3131 2.08588 0
M  V30 5795 H 546.625 2.24915 1.19521 0
M  V30 5796 H 547.408 3.43297 0.0152883 0
M  V30 5797 N 549.853 -0.472356 1.50355 0
M  V30 5798 C 550.786 -1.58923 1.63764 0
M  V30 5799 C 551.764 -1.55173 0.485793 0
M  V30 5800 O 552.948 -1.74815 0.705132 0
M  V30 5801 C 550.075 -2.97497 1.61905 0
M  V30 5802 C 549.121 -3.19405 2.82635 0
M  V30 5803 S 549.954 -2.99441 4.43954 0
M  V30 5804 C 551.11 -4.40359 4.44786 0
M  V30 5805 H 551.343 -1.47309 2.58239 0
M  V30 5806 H 548.876 -0.659601 1.39602 0
M  V30 5807 H 550.834 -3.77389 1.61518 0
M  V30 5808 H 549.495 -3.06502 0.686683 0
M  V30 5809 H 548.688 -4.20636 2.77636 0
M  V30 5810 H 548.29 -2.47283 2.80583 0
M  V30 5811 H 550.582 -5.32969 4.1827 0
M  V30 5812 H 551.525 -4.50403 5.46391 0
M  V30 5813 H 551.933 -4.22378 3.74509 0
M  V30 5814 N 551.331 -1.39911 -0.725443 0
M  V30 5815 C 552.742 -1.33599 -1.30415 0
M  V30 5816 C 553.093 -0.00481792 -1.96199 0
M  V30 5817 O 552.218 0.897275 -1.96921 0
M  V30 5818 C 552.813 -2.41965 -2.37146 0
M  V30 5819 C 551.372 -2.39144 -2.90667 0
M  V30 5820 C 550.519 -2.23355 -1.64341 0
M  V30 5821 H 553.47 -1.4986 -0.522267 0
M  V30 5822 H 553.491 -2.09304 -3.17761 0
M  V30 5823 H 553.003 -3.38837 -1.89238 0
M  V30 5824 H 551.104 -1.4594 -3.4283 0
M  V30 5825 H 551.217 -3.34362 -3.43131 0
M  V30 5826 H 549.581 -1.70696 -1.89037 0
M  V30 5827 H 550.364 -3.2221 -1.18471 0
M  V30 5828 N 552.809 0.956637 -1.25245 0
M  V30 5829 C 554.225 1.22733 -1.02023 0
M  V30 5830 C 554.425 1.99761 0.264186 0
M  V30 5831 O 553.481 2.32814 0.977436 0
M  V30 5832 C 554.794 2.00367 -2.24217 0
M  V30 5833 C 556.342 2.13418 -2.28958 0
M  V30 5834 C 556.817 2.9445 -3.50803 0
M  V30 5835 N 558.308 3.02029 -3.51187 0
M  V30 5836 C 559.043 3.65116 -4.42129 0
M  V30 5837 N 558.539 4.2983 -5.43339 0
M  V30 5838 N 560.332 3.62237 -4.29815 0
M  V30 5839 H 552.483 0.441282 -2.07765 0
M  V30 5840 H 554.746 0.257686 -0.912306 0
M  V30 5841 H 554.452 1.51165 -3.17556 0
M  V30 5842 H 554.326 3.01077 -2.27228 0
M  V30 5843 H 556.713 2.61819 -1.36143 0
M  V30 5844 H 556.794 1.1202 -2.29968 0
M  V30 5845 H 556.438 2.46741 -4.43939 0
M  V30 5846 H 556.368 3.9607 -3.47039 0
M  V30 5847 H 558.859 2.56007 -2.77973 0
M  V30 5848 H 559.172 4.75819 -6.08947 0
M  V30 5849 H 557.517 4.28465 -5.47214 0
M  V30 5850 H 560.708 3.10863 -3.49974 0
M  V30 5851 H 560.881 4.11117 -5.00886 0
M  V30 5852 N 554.287 1.06798 1.15896 0
M  V30 5853 C 555.25 0.687328 2.18651 0
M  V30 5854 C 556.25 -0.269559 1.58524 0
M  V30 5855 O 557.44 -0.0512627 1.74125 0
M  V30 5856 C 554.572 0.0121642 3.40898 0
M  V30 5857 H 555.765 1.59701 2.53842 0
M  V30 5858 H 553.318 0.863828 1.3026 0
M  V30 5859 H 554.053 -0.910025 3.1127 0
M  V30 5860 H 553.838 0.700309 3.85795 0
M  V30 5861 H 555.328 -0.239703 4.16911 0
M  V30 5862 N 555.766 -1.3263 0.851289 0
M  V30 5863 C 556.696 -2.31449 0.308771 0
M  V30 5864 C 557.677 -1.59531 -0.590255 0
M  V30 5865 O 558.862 -1.87351 -0.511205 0
M  V30 5866 C 555.992 -3.43586 -0.506548 0
M  V30 5867 C 554.946 -4.26963 0.297753 0
M  V30 5868 C 554.272 -5.30831 -0.642094 0
M  V30 5869 C 555.572 -4.99643 1.52166 0
M  V30 5870 H 557.266 -2.77074 1.13447 0
M  V30 5871 H 554.812 -1.33207 0.546971 0
M  V30 5872 H 556.765 -4.11754 -0.896474 0
M  V30 5873 H 555.489 -2.96681 -1.36558 0
M  V30 5874 H 554.148 -3.60437 0.669391 0
M  V30 5875 H 553.796 -4.8018 -1.49788 0
M  V30 5876 H 553.496 -5.87501 -0.107968 0
M  V30 5877 H 555.02 -6.01862 -1.02927 0
M  V30 5878 H 556.434 -5.6051 1.20421 0
M  V30 5879 H 554.831 -5.66022 1.99347 0
M  V30 5880 H 555.901 -4.27701 2.28474 0
M  V30 5881 N 557.244 -0.608902 -1.45362 0
M  V30 5882 C 558.66 -0.272659 -1.57254 0
M  V30 5883 C 558.86 1.22477 -1.60005 0
M  V30 5884 O 557.916 2.00785 -1.53106 0
M  V30 5885 C 559.229 -0.944991 -2.85465 0
M  V30 5886 C 560.777 -0.921033 -2.99142 0
M  V30 5887 C 561.252 -1.5734 -4.30126 0
M  V30 5888 N 562.743 -1.53895 -4.36887 0
M  V30 5889 C 563.478 -2.01286 -5.36909 0
M  V30 5890 N 562.974 -2.56768 -6.43461 0
M  V30 5891 N 564.767 -1.92046 -5.28275 0
M  V30 5892 H 556.918 -1.58117 -1.4182 0
M  V30 5893 H 559.181 -0.662437 -0.678146 0
M  V30 5894 H 558.887 -1.99941 -2.89338 0
M  V30 5895 H 558.761 -0.469079 -3.74272 0
M  V30 5896 H 561.148 0.124846 -2.94836 0
M  V30 5897 H 561.229 -1.43522 -2.11743 0
M  V30 5898 H 560.873 -2.61862 -4.35191 0
M  V30 5899 H 560.803 -1.03422 -5.16344 0
M  V30 5900 H 563.294 -1.13366 -3.60495 0
M  V30 5901 H 563.607 -2.9072 -7.16032 0
M  V30 5902 H 561.952 -2.60808 -6.44208 0
M  V30 5903 H 565.143 -1.48439 -4.43941 0
M  V30 5904 H 565.316 -2.29293 -6.06077 0
M  V30 5905 N 558.722 1.53707 -0.348139 0
M  V30 5906 C 559.655 2.21481 0.549667 0
M  V30 5907 C 560.633 1.20046 1.09671 0
M  V30 5908 O 561.817 1.48883 1.15612 0
M  V30 5909 C 558.944 2.89585 1.75664 0
M  V30 5910 C 557.99 4.04948 1.33864 0
M  V30 5911 S 558.823 5.34325 0.354577 0
M  V30 5912 C 559.979 6.05934 1.56828 0
M  V30 5913 H 560.212 2.97289 -0.0259755 0
M  V30 5914 H 557.745 1.53833 -0.132216 0
M  V30 5915 H 559.703 3.29441 2.44906 0
M  V30 5916 H 558.364 2.13535 2.30351 0
M  V30 5917 H 557.557 4.51552 2.23868 0
M  V30 5918 H 557.159 3.66893 0.725651 0
M  V30 5919 H 559.451 6.29606 2.50205 0
M  V30 5920 H 560.394 6.98799 1.14395 0
M  V30 5921 H 560.802 5.36151 1.76642 0
M  V30 5922 N 560.2 0.0768682 1.57412 0
M  V30 5923 C 561.611 -0.455037 1.8107 0
M  V30 5924 C 561.962 -1.69323 0.991162 0
M  V30 5925 O 561.087 -2.15328 0.215156 0
M  V30 5926 C 561.682 -0.832316 3.28417 0
M  V30 5927 C 560.241 -1.30906 3.52903 0
M  V30 5928 C 559.388 -0.296714 2.75708 0
M  V30 5929 H 562.339 0.302514 1.5579 0
M  V30 5930 H 562.36 -1.69333 3.40744 0
M  V30 5931 H 561.872 0.0690532 3.88039 0
M  V30 5932 H 559.973 -2.22875 2.98592 0
M  V30 5933 H 560.086 -1.28348 4.61588 0
M  V30 5934 H 558.45 -0.775059 2.42621 0
M  V30 5935 H 559.233 0.597015 3.38069 0
M  V30 5936 N 561.678 -1.56367 -0.196722 0
M  V30 5937 C 562.626 -1.95304 -1.2633 0
M  V30 5938 C 563.62 -0.838252 -1.47206 0
M  V30 5939 O 564.826 -1.02325 -1.48087 0
M  V30 5940 H 561.201 -0.621013 -0.424083 0
M  V30 5941 H 563.172 -2.84254 -0.907879 0
M  V30 5942 C 561.921 -2.3074 -2.60104 0
M  V30 5943 H 561.244 -3.16047 -2.44856 0
M  V30 5944 H 562.684 -2.61849 -3.33484 0
M  V30 5945 C 561.143 -1.14143 -3.16975 0
M  V30 5946 O 561.673 -0.415602 -3.99544 0
M  V30 5947 N 559.879 -0.91867 -2.75697 0
M  V30 5948 H 559.426 -1.51065 -2.08656 0
M  V30 5949 H 559.384 -0.140321 -3.14087 0
M  V30 5950 N 563.156 0.464375 -1.50603 0
M  V30 5951 C 564.386 1.23727 -1.65454 0
M  V30 5952 C 564.794 1.86119 -0.340032 0
M  V30 5953 O 564.137 1.70301 0.688706 0
M  V30 5954 C 564.199 2.38153 -2.69301 0
M  V30 5955 C 563.863 1.96345 -4.12671 0
M  V30 5956 C 564.86 1.48215 -4.98326 0
M  V30 5957 C 562.545 2.04861 -4.58625 0
M  V30 5958 C 564.539 1.09152 -6.27985 0
M  V30 5959 C 562.226 1.65409 -5.88288 0
M  V30 5960 C 563.224 1.17634 -6.72794 0
M  V30 5961 O 562.912 0.787312 -8.00035 0
M  V30 5962 H 562.644 0.380075 -0.559034 0
M  V30 5963 H 565.198 0.559919 -1.97621 0
M  V30 5964 H 563.428 3.09081 -2.32392 0
M  V30 5965 H 565.117 3.00099 -2.73304 0
M  V30 5966 H 565.883 1.41052 -4.64036 0
M  V30 5967 H 561.762 2.40996 -3.92991 0
M  V30 5968 H 565.306 0.717909 -6.93896 0
M  V30 5969 H 561.203 1.72233 -6.22098 0
M  V30 5970 H 561.971 0.915567 -8.13363 0
M  V30 5971 N 564.634 1.40294 0.718013 0
M  V30 5972 C 565.581 1.40367 1.8321 0
M  V30 5973 C 566.551 0.260952 1.64037 0
M  V30 5974 O 567.736 0.458648 1.85205 0
M  V30 5975 C 564.876 1.26965 3.20895 0
M  V30 5976 C 563.989 2.50922 3.51656 0
M  V30 5977 C 563.124 2.29981 4.78834 0
M  V30 5978 C 562.163 3.49527 5.02491 0
M  V30 5979 N 561.3 3.27796 6.20882 0
M  V30 5980 H 566.14 2.35593 1.82482 0
M  V30 5981 H 563.677 1.17012 0.891444 0
M  V30 5982 H 565.635 1.17202 4.00399 0
M  V30 5983 H 564.265 0.353591 3.20858 0
M  V30 5984 H 563.317 2.71223 2.66725 0
M  V30 5985 H 564.629 3.39913 3.65048 0
M  V30 5986 H 563.783 2.17558 5.66351 0
M  V30 5987 H 562.522 1.38411 4.67647 0
M  V30 5988 H 561.527 3.6243 4.1343 0
M  V30 5989 H 562.752 4.42021 5.15553 0
M  V30 5990 H 560.698 2.38906 6.1095 0
M  V30 5991 H 560.615 4.10351 6.34939 0
M  V30 5992 H 561.883 3.19101 7.11193 0
M  V30 5993 N 566.112 -0.949982 1.2575 0
M  V30 5994 C 567.059 -2.04738 1.06541 0
M  V30 5995 C 568.029 -1.66078 -0.0268818 0
M  V30 5996 O 569.214 -1.90348 0.131196 0
M  V30 5997 C 566.354 -3.38027 0.695127 0
M  V30 5998 C 565.467 -3.89776 1.86276 0
M  V30 5999 C 564.602 -5.11411 1.4364 0
M  V30 6000 C 563.641 -5.554 2.57287 0
M  V30 6001 N 562.778 -6.68244 2.15395 0
M  V30 6002 H 567.618 -2.20502 2.00457 0
M  V30 6003 H 565.155 -1.0805 0.998178 0
M  V30 6004 H 567.113 -4.14641 0.461375 0
M  V30 6005 H 565.743 -3.22135 -0.207046 0
M  V30 6006 H 564.795 -3.0964 2.20969 0
M  V30 6007 H 566.107 -4.18368 2.71606 0
M  V30 6008 H 565.261 -5.95457 1.16257 0
M  V30 6009 H 564 -4.84545 0.553879 0
M  V30 6010 H 563.005 -4.69916 2.85409 0
M  V30 6011 H 564.23 -5.84272 3.46125 0
M  V30 6012 H 562.176 -6.43078 1.29565 0
M  V30 6013 H 562.093 -6.96377 2.94272 0
M  V30 6014 H 563.361 -7.55687 1.91201 0
M  V30 6015 N 567.59 -1.07411 -1.15328 0
M  V30 6016 C 568.537 -0.694995 -2.20087 0
M  V30 6017 C 569.507 0.313904 -1.63107 0
M  V30 6018 O 570.692 0.200216 -1.89747 0
M  V30 6019 C 567.832 -0.0996218 -3.44956 0
M  V30 6020 C 566.945 -1.16007 -4.16133 0
M  V30 6021 C 566.08 -0.529636 -5.28553 0
M  V30 6022 C 565.119 -1.57283 -5.91548 0
M  V30 6023 N 564.256 -0.964932 -6.95438 0
M  V30 6024 H 569.096 -1.5927 -2.51867 0
M  V30 6025 H 566.633 -0.796115 -1.23695 0
M  V30 6026 H 568.591 0.263197 -4.16369 0
M  V30 6027 H 567.221 0.761435 -3.13691 0
M  V30 6028 H 566.273 -1.64045 -3.4321 0
M  V30 6029 H 567.585 -1.95101 -4.59061 0
M  V30 6030 H 566.739 -0.114487 -6.06592 0
M  V30 6031 H 565.478 0.29307 -4.86819 0
M  V30 6032 H 564.483 -1.99775 -5.12221 0
M  V30 6033 H 565.708 -2.39783 -6.35359 0
M  V30 6034 H 563.654 -0.16314 -6.55797 0
M  V30 6035 H 563.571 -1.69311 -7.36797 0
M  V30 6036 H 564.839 -0.575305 -7.77374 0
M  V30 6037 N 569.068 1.32177 -0.85831 0
M  V30 6038 C 570.031 2.27086 -0.310588 0
M  V30 6039 C 571.031 1.51751 0.531806 0
M  V30 6040 O 572.221 1.70794 0.34279 0
M  V30 6041 C 569.353 3.36266 0.560179 0
M  V30 6042 H 570.546 2.77045 -1.1483 0
M  V30 6043 H 568.099 1.42911 -0.632942 0
M  V30 6044 H 568.834 2.9158 1.41956 0
M  V30 6045 H 568.619 3.92077 -0.0428473 0
M  V30 6046 H 570.109 4.06974 0.936056 0
M  V30 6047 N 570.547 0.616602 1.45037 0
M  V30 6048 C 571.775 0.121968 2.0654 0
M  V30 6049 C 572.19 -1.19743 1.45969 0
M  V30 6050 O 571.547 -1.73133 0.577168 0
M  V30 6051 C 571.598 -0.0145171 3.61497 0
M  V30 6052 O 571.319 1.25269 4.19809 0
M  V30 6053 C 572.82 -0.539555 4.40004 0
M  V30 6054 H 570.04 0.0729837 0.667019 0
M  V30 6055 H 572.584 0.846891 1.8614 0
M  V30 6056 H 570.739 -0.689809 3.81209 0
M  V30 6057 H 571.153 1.08816 5.13088 0
M  V30 6058 H 572.627 -0.584112 5.48901 0
M  V30 6059 H 573.104 -1.56368 4.10421 0
M  V30 6060 H 573.71 0.101995 4.25178 0
M  V30 6061 O 572.064 -1.53615 0.498481 0
M  V30 6062 H 572.755 -1.9369 -0.0197948 0
M  V30 END ATOM
M  V30 BEGIN BOND
M  V30 END BOND
M  V30 END CTAB
M  END
$$$$
