drugbank_target|P10768 S-formylglutathione hydrolase (DB00143)
 OpenBabel12092120083D

  0  0  0     0  0            999 V3000
M  V30 BEGIN CTAB
M  V30 COUNTS 4365 4430 0 0 0
M  V30 BEGIN ATOM
M  V30 1 H -0.908 1.98254 -0.117106 0
M  V30 2 N 0 1.576 0 0
M  V30 3 C 0.933 2.03868 1.02534 0
M  V30 4 C 1.911 0.928543 1.3348 0
M  V30 5 O 3.095 1.19667 1.45644 0
M  V30 6 C 0.222 2.43627 2.35294 0
M  V30 7 C -0.732 3.65373 2.2001 0
M  V30 8 S 0.101 5.13292 1.52614 0
M  V30 9 C 1.257 5.56322 2.86805 0
M  V30 10 H 1.49 2.90518 0.631377 0
M  V30 11 H -0.977 1.52953 0.210867 0
M  V30 12 H 0.981 2.67203 3.11629 0
M  V30 13 H -0.358 1.57376 2.7183 0
M  V30 14 H -1.165 3.90944 3.18086 0
M  V30 15 H -1.563 3.418 1.51819 0
M  V30 16 H 0.729 5.58782 3.83104 0
M  V30 17 H 1.672 6.56266 2.65933 0
M  V30 18 H 2.08 4.83886 2.90714 0
M  V30 19 N 1.4781 -0.272755 1.55222 0
M  V30 20 C 2.4411 -1.32041 1.87344 0
M  V30 21 C 3.4411 -1.42342 0.74803 0
M  V30 22 O 4.6311 -1.41488 1.0162 0
M  V30 23 C 1.7631 -2.70173 2.07893 0
M  V30 24 H 2.9561 -1.04789 2.80997 0
M  V30 25 H 0.5091 -0.51083 1.47717 0
M  V30 26 H 1.2441 -3.02605 1.16622 0
M  V30 27 H 1.0291 -2.64082 2.89833 0
M  V30 28 H 2.5191 -3.45869 2.34017 0
M  V30 29 N 2.9562 -1.48159 -0.537278 0
M  V30 30 C 3.8862 -1.65029 -1.6519 0
M  V30 31 C 4.8672 -0.499281 -1.62607 0
M  V30 32 O 6.0522 -0.730972 -1.79918 0
M  V30 33 C 3.1822 -1.68303 -3.03795 0
M  V30 34 C 2.1362 -2.8283 -3.21234 0
M  V30 35 C 1.4622 -2.71189 -4.60826 0
M  V30 36 C 2.7622 -4.24211 -3.04701 0
M  V30 37 H 4.4562 -2.58341 -1.51328 0
M  V30 38 H 2.0022 -1.24325 -0.726585 0
M  V30 39 H 3.9552 -1.78693 -3.81637 0
M  V30 40 H 2.6792 -0.715635 -3.18663 0
M  V30 41 H 1.3382 -2.71983 -2.45807 0
M  V30 42 H 0.9862 -1.72435 -4.7252 0
M  V30 43 H 0.6862 -3.48035 -4.7344 0
M  V30 44 H 2.2102 -2.83537 -5.40777 0
M  V30 45 H 3.6242 -4.3593 -3.72341 0
M  V30 46 H 2.0212 -5.01998 -3.28813 0
M  V30 47 H 3.0912 -4.41184 -2.01209 0
M  V30 48 N 4.4343 0.785586 -1.36625 0
M  V30 49 C 5.3813 1.89838 -1.31264 0
M  V30 50 C 6.3513 1.65115 -0.180633 0
M  V30 51 O 7.5363 1.87222 -0.36777 0
M  V30 52 C 4.6763 3.26706 -1.11163 0
M  V30 53 C 3.7893 3.63476 -2.33472 0
M  V30 54 C 2.9243 4.89481 -2.06353 0
M  V30 55 C 1.9633 5.18941 -3.24602 0
M  V30 56 N 1.1003 6.36131 -2.97123 0
M  V30 57 H 5.9403 1.93756 -2.26413 0
M  V30 58 H 3.4773 0.947454 -1.12524 0
M  V30 59 H 5.4353 4.05639 -0.975337 0
M  V30 60 H 4.0653 3.222 -0.196674 0
M  V30 61 H 3.1173 2.79636 -2.57891 0
M  V30 62 H 4.4293 3.81193 -3.21704 0
M  V30 63 H 3.5833 5.76288 -1.89675 0
M  V30 64 H 2.3223 4.73841 -1.15437 0
M  V30 65 H 1.3273 4.30615 -3.41834 0
M  V30 66 H 2.5523 5.36498 -4.16349 0
M  V30 67 H 0.4983 6.21875 -2.08823 0
M  V30 68 H 0.4153 6.54198 -3.78894 0
M  V30 69 H 1.6833 7.2591 -2.84033 0
M  V30 70 N 5.9124 1.20967 1.01018 0
M  V30 71 C 6.8444 0.922059 2.09835 0
M  V30 72 C 7.8574 -0.0927106 1.62536 0
M  V30 73 O 9.0464 0.139127 1.77957 0
M  V30 74 C 6.1464 0.362004 3.36961 0
M  V30 75 C 5.3194 1.42986 4.13369 0
M  V30 76 C 4.3784 0.879976 5.1879 0
M  V30 77 O 3.4044 1.56219 5.47343 0
M  V30 78 N 4.6064 -0.307396 5.79686 0
M  V30 79 H 7.3714 1.8588 2.35093 0
M  V30 80 H 4.9324 1.11422 1.1746 0
M  V30 81 H 6.9244 -0.0201474 4.04695 0
M  V30 82 H 5.4944 -0.479437 3.08902 0
M  V30 83 H 4.7144 1.98608 3.40512 0
M  V30 84 H 6.0024 2.14885 4.61196 0
M  V30 85 H 5.4004 -0.878796 5.58832 0
M  V30 86 H 3.9574 -0.631115 6.48737 0
M  V30 87 N 7.3905 -1.2043 1.01659 0
M  V30 88 C 8.6395 -1.89118 0.701237 0
M  V30 89 C 8.9525 -1.79705 -0.772358 0
M  V30 90 O 10.1585 -2.43528 -1.20026 0
M  V30 91 C 8.6145 -3.39168 1.20388 0
M  V30 92 C 8.2225 -3.57166 2.70438 0
M  V30 93 C 9.9665 -4.1341 0.963953 0
M  V30 94 C 7.8735 -5.01042 3.14183 0
M  V30 95 H 6.8035 -0.708267 0.2586 0
M  V30 96 H 9.4545 -1.36239 1.22927 0
M  V30 97 H 7.8365 -3.91369 0.603824 0
M  V30 98 H 9.0105 -3.15351 3.35992 0
M  V30 99 H 7.3255 -2.96294 2.92572 0
M  V30 100 H 9.9225 -5.19491 1.26621 0
M  V30 101 H 10.2655 -4.16181 -0.099578 0
M  V30 102 H 10.7985 -3.67309 1.52738 0
M  V30 103 H 7.5375 -5.03426 4.19812 0
M  V30 104 H 7.0575 -5.43668 2.53348 0
M  V30 105 H 8.7365 -5.69623 3.0682 0
M  V30 106 N 8.8686 -0.792821 -1.36206 0
M  V30 107 C 10.0936 -0.377701 -2.03932 0
M  V30 108 C 10.5186 0.998947 -1.59382 0
M  V30 109 O 9.8766 1.64421 -0.763903 0
M  V30 110 C 9.9246 -0.453635 -3.57735 0
M  V30 111 O 9.0286 0.538151 -4.08874 0
M  V30 112 H 8.3696 -0.159855 -0.644471 0
M  V30 113 H 10.8996 -1.07488 -1.7409 0
M  V30 114 H 10.9096 -0.318464 -4.06755 0
M  V30 115 H 9.5846 -1.45784 -3.89512 0
M  V30 116 H 8.1616 0.364359 -3.71116 0
M  V30 117 N 10.3467 1.47872 -0.545128 0
M  V30 118 C 11.5717 2.07391 -0.0190611 0
M  V30 119 C 11.9967 1.39688 1.25971 0
M  V30 120 O 11.3547 0.467816 1.7516 0
M  V30 121 C 11.4027 3.60188 0.172335 0
M  V30 122 O 10.5067 3.9339 1.23766 0
M  V30 123 H 9.8477 0.662411 -0.0459059 0
M  V30 124 H 12.3777 1.90066 -0.757365 0
M  V30 125 H 12.3877 4.06129 0.390305 0
M  V30 126 H 11.0627 4.08865 -0.761725 0
M  V30 127 H 9.6397 3.5921 1.00114 0
M  V30 128 N 11.8248 0.280983 1.55075 0
M  V30 129 C 12.7728 -0.619864 2.24188 0
M  V30 130 C 13.7668 -1.15315 1.24092 0
M  V30 131 O 14.9728 -1.1061 1.42005 0
M  V30 132 H 11.3478 -0.218459 0.719569 0
M  V30 133 H 13.3188 -0.0141831 2.98397 0
M  V30 134 C 12.0678 -1.7899 2.98091 0
M  V30 135 H 11.3908 -1.38874 3.74905 0
M  V30 136 H 12.8308 -2.39672 3.49762 0
M  V30 137 C 11.2898 -2.68192 2.03899 0
M  V30 138 O 11.8198 -3.6872 1.594 0
M  V30 139 N 10.0258 -2.35488 1.70275 0
M  V30 140 H 9.5728 -1.53787 2.06658 0
M  V30 141 H 9.5308 -2.95442 1.07524 0
M  V30 142 N 13.3029 -1.57598 0.00835791 0
M  V30 143 C 14.2499 -2.08945 -0.980346 0
M  V30 144 C 15.2199 -0.986738 -1.33614 0
M  V30 145 O 16.4049 -1.25968 -1.43306 0
M  V30 146 C 13.5449 -2.60425 -2.26435 0
M  V30 147 C 12.6579 -3.84628 -1.96685 0
M  V30 148 C 11.7929 -4.24579 -3.19228 0
M  V30 149 C 10.8319 -5.41596 -2.85202 0
M  V30 150 N 9.9689 -5.768 -4.00307 0
M  V30 151 H 14.8089 -2.93148 -0.535551 0
M  V30 152 H 12.3459 -1.44912 -0.252776 0
M  V30 153 H 14.3039 -2.88354 -3.01509 0
M  V30 154 H 12.9339 -1.79083 -2.68568 0
M  V30 155 H 11.9859 -3.63556 -1.11942 0
M  V30 156 H 13.2979 -4.69796 -1.67611 0
M  V30 157 H 12.4519 -4.53834 -4.02641 0
M  V30 158 H 11.1909 -3.38137 -3.51447 0
M  V30 159 H 10.1959 -5.12056 -2.00198 0
M  V30 160 H 11.4209 -6.29721 -2.54222 0
M  V30 161 H 9.3669 -4.93316 -4.32407 0
M  V30 162 H 9.2839 -6.5656 -3.74786 0
M  V30 163 H 10.5519 -6.10652 -4.84484 0
M  V30 164 N 14.781 0.264519 -1.55364 0
M  V30 165 C 16.021 1.00254 -1.78125 0
M  V30 166 C 16.385 1.83187 -0.575017 0
M  V30 167 O 17.586 2.60029 -0.681042 0
M  V30 168 C 15.857 1.85478 -3.05504 0
M  V30 169 S 17.416 2.6543 -3.49417 0
M  V30 170 H 14.234 0.337522 -0.625779 0
M  V30 171 H 16.836 0.272111 -1.93597 0
M  V30 172 H 15.54 1.23491 -3.9138 0
M  V30 173 H 15.071 2.62827 -2.92721 0
M  V30 174 H 17.086 3.87958 -3.09359 0
M  V30 175 N 16.2591 1.48442 0.529413 0
M  V30 176 C 17.5061 1.56488 1.28521 0
M  V30 177 C 17.8341 0.239042 1.93025 0
M  V30 178 O 17.0891 -0.770713 1.79885 0
M  V30 179 C 17.3881 2.6523 2.39558 0
M  V30 180 C 17.0541 4.07648 1.92702 0
M  V30 181 C 15.7161 4.46411 1.79641 0
M  V30 182 C 18.0681 4.96896 1.573 0
M  V30 183 C 15.3961 5.72226 1.29514 0
M  V30 184 C 17.7481 6.23202 1.08636 0
M  V30 185 C 16.4121 6.60821 0.941919 0
M  V30 186 H 15.6821 0.572631 0.470292 0
M  V30 187 H 18.3291 1.82161 0.59072 0
M  V30 188 H 16.6341 2.33419 3.14679 0
M  V30 189 H 18.3311 2.68671 2.97686 0
M  V30 190 H 14.9211 3.77036 2.03819 0
M  V30 191 H 19.1051 4.67626 1.66251 0
M  V30 192 H 14.3611 6.00097 1.17019 0
M  V30 193 H 18.5351 6.91753 0.803136 0
M  V30 194 H 16.1621 7.58198 0.5513 0
M  V30 195 N 17.7372 -0.778329 1.37039 0
M  V30 196 C 18.9852 -1.53361 1.31623 0
M  V30 197 C 19.3062 -1.94739 -0.100831 0
M  V30 198 O 18.5762 -1.65797 -1.04347 0
M  V30 199 H 17.1562 -0.568794 0.484234 0
M  V30 200 H 19.8182 -0.926742 1.71457 0
M  V30 201 H 18.9142 -2.43606 1.95096 0
M  V30 202 N 19.2153 -1.21501 -1.00376 0
M  V30 203 C 20.4633 -1.03095 -1.73827 0
M  V30 204 C 20.7843 0.436341 -1.90055 0
M  V30 205 O 20.0543 1.31466 -1.45236 0
M  V30 206 H 18.6343 -0.378487 -0.644016 0
M  V30 207 H 21.2963 -1.52831 -1.20949 0
M  V30 208 H 20.3923 -1.49991 -2.73695 0
M  V30 209 N 20.6934 1.19889 -1.02296 0
M  V30 210 C 21.6234 2.25141 -0.619174 0
M  V30 211 C 22.6044 1.66051 0.368915 0
M  V30 212 O 23.7894 1.92546 0.252941 0
M  V30 213 C 20.9194 3.4728 0.0368783 0
M  V30 214 C 19.8734 4.19005 -0.872865 0
M  V30 215 C 19.1994 5.34637 -0.0822402 0
M  V30 216 C 20.4994 4.74452 -2.18387 0
M  V30 217 H 22.1934 2.59171 -1.49903 0
M  V30 218 H 19.7394 1.24579 -0.722222 0
M  V30 219 H 21.6924 4.20098 0.330958 0
M  V30 220 H 20.4164 3.12433 0.95149 0
M  V30 221 H 19.0754 3.48061 -1.15105 0
M  V30 222 H 18.7234 4.96034 0.83422 0
M  V30 223 H 18.4234 5.83557 -0.688149 0
M  V30 224 H 19.9474 6.10255 0.205238 0
M  V30 225 H 21.3614 5.39055 -1.95172 0
M  V30 226 H 19.7584 5.33834 -2.74119 0
M  V30 227 H 20.8284 3.92844 -2.84257 0
M  V30 228 N 22.1715 0.800033 1.35784 0
M  V30 229 C 23.1035 0.163596 2.28615 0
M  V30 230 C 24.1165 -0.633317 1.49976 0
M  V30 231 O 25.3055 -0.466754 1.72289 0
M  V30 232 C 22.4055 -0.790958 3.29541 0
M  V30 233 C 21.5785 -0.0418255 4.3738 0
M  V30 234 C 20.6375 -0.91389 5.18203 0
M  V30 235 O 19.6635 -0.367234 5.68014 0
M  V30 236 N 20.8655 -2.23682 5.35674 0
M  V30 237 H 23.6305 0.96105 2.83873 0
M  V30 238 H 21.1915 0.654894 1.48063 0
M  V30 239 H 23.1835 -1.37844 3.80501 0
M  V30 240 H 21.7535 -1.48925 2.74846 0
M  V30 241 H 20.9735 0.726813 3.87442 0
M  V30 242 H 22.2615 0.474719 5.06581 0
M  V30 243 H 21.6595 -2.70497 4.96838 0
M  V30 244 H 20.2165 -2.77369 5.89839 0
M  V30 245 N 23.6496 -1.47581 0.552962 0
M  V30 246 C 24.5966 -2.29957 -0.197108 0
M  V30 247 C 25.5666 -1.38799 -0.912359 0
M  V30 248 O 26.7516 -1.67761 -0.908888 0
M  V30 249 C 23.8916 -3.22672 -1.22379 0
M  V30 250 C 23.0046 -4.28919 -0.515038 0
M  V30 251 C 22.1396 -5.0879 -1.52664 0
M  V30 252 C 21.1786 -6.06815 -0.802631 0
M  V30 253 N 20.3156 -6.7966 -1.76086 0
M  V30 254 H 25.1556 -2.93578 0.511486 0
M  V30 255 H 22.6926 -1.4471 0.264067 0
M  V30 256 H 24.6506 -3.74845 -1.83159 0
M  V30 257 H 23.2806 -2.60925 -1.90047 0
M  V30 258 H 22.3326 -3.79835 0.207192 0
M  V30 259 H 23.6446 -4.98773 0.0523425 0
M  V30 260 H 22.7986 -5.65091 -2.20809 0
M  V30 261 H 21.5376 -4.38828 -2.12794 0
M  V30 262 H 20.5426 -5.49695 -0.107238 0
M  V30 263 H 21.7676 -6.78784 -0.207135 0
M  V30 264 H 19.7136 -6.12432 -2.35081 0
M  V30 265 H 19.6306 -7.45669 -1.24552 0
M  V30 266 H 20.8986 -7.40538 -2.43359 0
M  V30 267 N 25.1277 -0.289203 -1.54924 0
M  V30 268 C 26.3737 0.323998 -2.00195 0
M  V30 269 C 26.7067 1.54441 -1.17735 0
M  V30 270 O 25.9817 1.92875 -0.250878 0
M  V30 271 C 26.2647 0.692276 -3.53383 0
M  V30 272 C 26.1177 -0.536457 -4.46589 0
M  V30 273 C 27.4367 1.52335 -4.12895 0
M  V30 274 H 24.5557 0.116289 -0.727768 0
M  V30 275 H 27.1977 -0.398954 -1.85764 0
M  V30 276 H 25.3477 1.30822 -3.65811 0
M  V30 277 H 27.0197 -1.17499 -4.46085 0
M  V30 278 H 25.2627 -1.17192 -4.1767 0
M  V30 279 H 25.9337 -0.234806 -5.515 0
M  V30 280 H 28.4097 1.00302 -4.0383 0
M  V30 281 H 27.2857 1.74982 -5.20262 0
M  V30 282 H 27.5467 2.50886 -3.64018 0
M  V30 283 N 26.6058 1.57591 -0.0167156 0
M  V30 284 C 27.8528 1.91283 0.664597 0
M  V30 285 C 28.1808 0.891949 1.72842 0
M  V30 286 O 27.4358 -0.100931 1.9544 0
M  V30 287 C 27.7348 3.3172 1.33029 0
M  V30 288 C 27.4008 4.4914 0.398047 0
M  V30 289 C 26.0628 4.80992 0.141421 0
M  V30 290 C 28.4148 5.20634 -0.242825 0
M  V30 291 C 25.7428 5.81703 -0.764092 0
M  V30 292 C 28.0948 6.22311 -1.13632 0
M  V30 293 C 26.7588 6.52611 -1.40196 0
M  V30 294 H 26.0288 0.699956 0.243193 0
M  V30 295 H 28.6758 1.9135 -0.0758267 0
M  V30 296 H 26.9808 3.27856 2.14517 0
M  V30 297 H 28.6778 3.55055 1.86379 0
M  V30 298 H 25.2678 4.24262 0.608238 0
M  V30 299 H 29.4518 4.96267 -0.0576019 0
M  V30 300 H 24.7078 6.03532 -0.977732 0
M  V30 301 H 28.8818 6.76834 -1.63917 0
M  V30 302 H 26.5088 7.30467 -2.10529 0
M  V30 303 N 28.0839 -0.256276 1.55502 0
M  V30 304 C 28.9939 -1.33882 1.92647 0
M  V30 305 C 30.0099 -1.53159 0.825727 0
M  V30 306 O 31.1859 -1.66963 1.12629 0
M  V30 307 C 28.2509 -2.6751 2.20543 0
M  V30 308 C 27.3119 -2.56836 3.43997 0
M  V30 309 C 26.5449 -3.84092 3.70553 0
M  V30 310 O 26.7679 -4.85545 2.99336 0
M  V30 311 O 25.7019 -3.83288 4.64084 0
M  V30 312 H 29.5279 -1.05374 2.84833 0
M  V30 313 H 27.1129 -0.456237 1.42263 0
M  V30 314 H 28.9949 -3.46492 2.39835 0
M  V30 315 H 27.6699 -2.9577 1.31536 0
M  V30 316 H 26.5769 -1.76172 3.30021 0
M  V30 317 H 27.9099 -2.33523 4.33275 0
M  V30 318 N 29.562 -1.4872 -0.521534 0
M  V30 319 C 30.512 -1.60269 -1.62166 0
M  V30 320 C 31.496 -0.45935 -1.54204 0
M  V30 321 O 32.688 -0.711241 -1.62081 0
M  V30 322 C 29.817 -1.65344 -3.00859 0
M  V30 323 C 28.903 -2.85187 -3.13894 0
M  V30 324 N 29.294 -4.09509 -2.96877 0
M  V30 325 C 27.592 -2.82695 -3.44963 0
M  V30 326 C 28.293 -4.89959 -3.13552 0
M  V30 327 N 27.269 -4.22934 -3.41508 0
M  V30 328 H 31.071 -2.5413 -1.47632 0
M  V30 329 H 28.585 -1.45209 -0.727194 0
M  V30 330 H 30.582 -1.71713 -3.79895 0
M  V30 331 H 29.242 -0.726058 -3.16478 0
M  V30 332 H 30.253 -4.39814 -2.73467 0
M  V30 333 H 26.93 -1.99249 -3.66887 0
M  V30 334 H 28.32 -5.98654 -3.05061 0
M  V30 335 N 31.0401 0.771051 -1.3745 0
M  V30 336 C 32.3171 1.519 -1.23231 0
M  V30 337 C 32.6971 2.10383 0.173809 0
M  V30 338 O 32.0451 1.95583 1.18151 0
M  V30 339 C 32.2551 2.59933 -2.32886 0
M  V30 340 C 33.6031 3.27316 -2.70461 0
M  V30 341 O 34.6271 2.70228 -2.32068 0
M  V30 342 O 33.4861 4.30531 -3.36608 0
M  V30 343 H 30.5801 0.672803 -0.480901 0
M  V30 344 H 33.1261 0.807957 -1.49232 0
M  V30 345 H 31.8981 2.14842 -3.27045 0
M  V30 346 H 31.5211 3.38637 -2.08353 0
M  V30 347 N 32.5182 1.22032 0.997298 0
M  V30 348 C 33.7432 1.06921 1.77715 0
M  V30 349 C 34.1682 -0.376226 1.84299 0
M  V30 350 O 33.5262 -1.27165 1.29223 0
M  V30 351 C 33.5742 1.67996 3.19076 0
M  V30 352 O 32.6782 0.930653 4.01762 0
M  V30 353 H 32.0192 0.375814 0.547412 0
M  V30 354 H 34.5492 1.61737 1.25309 0
M  V30 355 H 34.5592 1.72538 3.69723 0
M  V30 356 H 33.2342 2.73182 3.13599 0
M  V30 357 H 31.8112 0.960917 3.60307 0
M  V30 358 N 33.9963 -1.19345 1.0293 0
M  V30 359 C 35.2423 -1.89318 0.727083 0
M  V30 360 C 35.5753 -1.79446 -0.742483 0
M  V30 361 O 34.8503 -1.1871 -1.54072 0
M  V30 362 C 35.1333 -3.40238 1.17942 0
M  V30 363 C 34.9863 -3.58979 2.71024 0
M  V30 364 C 36.3053 -4.33479 0.760548 0
M  V30 365 H 33.4243 -0.687475 0.265606 0
M  V30 366 H 36.0663 -1.40477 1.2793 0
M  V30 367 H 34.2163 -3.81964 0.709608 0
M  V30 368 H 35.8883 -3.26421 3.25955 0
M  V30 369 H 34.1313 -3.02018 3.11396 0
M  V30 370 H 34.8023 -4.64823 2.9773 0
M  V30 371 H 37.2783 -3.99469 1.16464 0
M  V30 372 H 36.1543 -5.37664 1.10493 0
M  V30 373 H 36.4153 -4.40813 -0.337063 0
M  V30 374 N 35.4744 -0.807222 -1.35358 0
M  V30 375 C 36.3844 -0.219594 -2.3357 0
M  V30 376 C 37.4004 0.637734 -1.61892 0
M  V30 377 O 38.5764 0.549336 -1.93763 0
M  V30 378 C 35.6414 0.62158 -3.41083 0
M  V30 379 C 34.7024 -0.256315 -4.28534 0
M  V30 380 C 33.9354 0.544807 -5.30912 0
M  V30 381 O 34.1584 1.77944 -5.41934 0
M  V30 382 O 33.0924 -0.0646478 -6.01865 0
M  V30 383 H 36.9184 -1.03208 -2.85625 0
M  V30 384 H 34.5034 -0.569025 -1.38139 0
M  V30 385 H 36.3854 1.10067 -4.06772 0
M  V30 386 H 35.0604 1.41165 -2.91297 0
M  V30 387 H 33.9674 -0.782559 -3.65823 0
M  V30 388 H 35.3004 -1.01034 -4.81719 0
M  V30 389 N 36.9525 1.47285 -0.560781 0
M  V30 390 C 37.8825 2.32857 0.173105 0
M  V30 391 C 38.8635 1.44009 0.905281 0
M  V30 392 O 40.0485 1.7286 0.885046 0
M  V30 393 C 37.1785 3.25861 1.20133 0
M  V30 394 C 36.1325 4.23978 0.585388 0
M  V30 395 C 35.4585 5.06332 1.7185 0
M  V30 396 C 36.7585 5.20242 -0.463178 0
M  V30 397 H 38.4525 2.94466 -0.541307 0
M  V30 398 H 35.9985 1.41601 -0.261764 0
M  V30 399 H 37.9515 3.84569 1.72293 0
M  V30 400 H 36.6755 2.62315 1.94573 0
M  V30 401 H 35.3345 3.66501 0.085054 0
M  V30 402 H 34.9825 4.39186 2.45203 0
M  V30 403 H 34.6825 5.72762 1.31213 0
M  V30 404 H 36.2065 5.67899 2.24329 0
M  V30 405 H 37.6205 5.73293 -0.027502 0
M  V30 406 H 36.0175 5.94896 -0.788627 0
M  V30 407 H 37.0875 4.65504 -1.35773 0
M  V30 408 N 38.4306 0.297415 1.54768 0
M  V30 409 C 39.3786 -0.596051 2.24833 0
M  V30 410 C 40.3726 -1.13992 1.25308 0
M  V30 411 O 41.5786 -1.09098 1.4317 0
M  V30 412 H 37.9536 -0.210814 0.721846 0
M  V30 413 H 39.9246 0.0174667 2.98395 0
M  V30 414 C 38.6736 -1.75818 2.99972 0
M  V30 415 H 37.9966 -1.3489 3.76357 0
M  V30 416 H 39.4366 -2.35949 3.52284 0
M  V30 417 C 37.8956 -2.66014 2.06732 0
M  V30 418 O 38.4256 -3.67009 1.63302 0
M  V30 419 N 36.6316 -2.33669 1.72763 0
M  V30 420 H 36.1786 -1.51586 2.08277 0
M  V30 421 H 36.1366 -2.94285 1.10652 0
M  V30 422 N 39.9087 -1.5758 0.0250728 0
M  V30 423 C 41.1487 -1.93497 -0.65865 0
M  V30 424 C 41.5127 -0.901409 -1.69525 0
M  V30 425 O 42.7137 -1.14664 -2.43116 0
M  V30 426 C 40.9847 -3.34352 -1.26267 0
M  V30 427 S 42.5437 -3.92191 -1.96803 0
M  V30 428 H 39.3617 -0.67709 -0.216958 0
M  V30 429 H 41.9637 -1.95303 0.0877692 0
M  V30 430 H 40.6677 -4.07395 -0.495741 0
M  V30 431 H 40.1987 -3.3598 -2.04648 0
M  V30 432 H 42.2137 -3.75298 -3.24601 0
M  V30 433 N 41.3868 0.248026 -1.55636 0
M  V30 434 C 42.3338 1.30707 -1.90222 0
M  V30 435 C 43.3038 1.47881 -0.756332 0
M  V30 436 O 44.4888 1.61883 -1.00988 0
M  V30 437 C 41.6288 2.65769 -2.20138 0
M  V30 438 C 40.7418 2.56612 -3.47526 0
M  V30 439 C 39.8768 3.8402 -3.67017 0
M  V30 440 C 38.9158 3.69476 -4.8801 0
M  V30 441 N 38.0528 4.88774 -5.04029 0
M  V30 442 H 42.8928 1.00512 -2.80538 0
M  V30 443 H 40.4298 0.485055 -1.38873 0
M  V30 444 H 42.3878 3.44386 -2.35487 0
M  V30 445 H 41.0178 2.94115 -1.33027 0
M  V30 446 H 40.0698 1.69571 -3.40514 0
M  V30 447 H 41.3818 2.41774 -4.36287 0
M  V30 448 H 40.5358 4.7108 -3.8232 0
M  V30 449 H 39.2748 4.01754 -2.76487 0
M  V30 450 H 38.2798 2.80799 -4.72686 0
M  V30 451 H 39.5048 3.53238 -5.8 0
M  V30 452 H 37.4508 5.0687 -4.16435 0
M  V30 453 H 37.3678 4.76562 -5.86877 0
M  V30 454 H 38.6358 5.77335 -5.23741 0
M  V30 455 N 42.8649 1.48995 0.513639 0
M  V30 456 C 43.7979 1.59319 1.63379 0
M  V30 457 C 44.7759 0.442816 1.56454 0
M  V30 458 O 45.9599 0.656655 1.76693 0
M  V30 459 C 43.0869 1.5364 3.01848 0
M  V30 460 C 42.1329 2.7372 3.27078 0
M  V30 461 S 42.9659 4.35528 3.1157 0
M  V30 462 C 44.1219 4.32473 4.52458 0
M  V30 463 H 44.3549 2.54079 1.54374 0
M  V30 464 H 41.8879 1.3773 0.697849 0
M  V30 465 H 43.8459 1.51049 3.81699 0
M  V30 466 H 42.5069 0.601898 3.08279 0
M  V30 467 H 41.6999 2.6593 4.28132 0
M  V30 468 H 41.3019 2.73657 2.54927 0
M  V30 469 H 43.5939 4.03414 5.44301 0
M  V30 470 H 44.5369 5.33762 4.65299 0
M  V30 471 H 44.9449 3.62718 4.32546 0
M  V30 472 N 44.343 -0.763751 1.37857 0
M  V30 473 C 45.29 -1.87726 1.34267 0
M  V30 474 C 46.26 -1.64807 0.206879 0
M  V30 475 O 47.445 -1.86613 0.397508 0
M  V30 476 C 44.585 -3.24896 1.16346 0
M  V30 477 C 43.698 -3.59716 2.39225 0
M  V30 478 C 42.833 -4.86137 2.14114 0
M  V30 479 C 41.872 -5.13711 3.32817 0
M  V30 480 N 41.009 -6.31323 3.07206 0
M  V30 481 H 45.849 -1.90129 2.29466 0
M  V30 482 H 43.386 -0.929433 1.14017 0
M  V30 483 H 45.344 -4.04036 1.03975 0
M  V30 484 H 43.974 -3.21847 0.247909 0
M  V30 485 H 43.026 -2.75498 2.62307 0
M  V30 486 H 44.338 -3.76027 3.27728 0
M  V30 487 H 43.492 -5.73198 1.9882 0
M  V30 488 H 42.231 -4.71945 1.22961 0
M  V30 489 H 41.236 -4.25123 3.48641 0
M  V30 490 H 42.461 -5.29807 4.24832 0
M  V30 491 H 40.407 -6.18474 2.1869 0
M  V30 492 H 40.324 -6.48087 3.89254 0
M  V30 493 H 41.592 -7.213 2.95546 0
M  V30 494 N 45.8211 -1.22559 -0.990812 0
M  V30 495 C 47.0681 -1.05141 -1.73065 0
M  V30 496 C 47.3961 0.413191 -1.9006 0
M  V30 497 O 46.6511 1.32257 -1.44245 0
M  V30 498 C 46.9501 -1.71011 -3.13831 0
M  V30 499 C 46.6161 -3.20911 -3.16745 0
M  V30 500 C 45.2781 -3.61812 -3.17247 0
M  V30 501 C 47.6301 -4.16846 -3.12872 0
M  V30 502 C 44.9581 -4.97127 -3.1158 0
M  V30 503 C 47.3101 -5.5214 -3.08746 0
M  V30 504 C 45.9741 -5.92419 -3.07565 0
M  V30 505 H 45.2441 -0.384738 -0.633291 0
M  V30 506 H 47.8911 -1.5235 -1.16025 0
M  V30 507 H 46.1961 -1.16133 -3.74193 0
M  V30 508 H 47.8931 -1.55023 -3.69823 0
M  V30 509 H 44.4831 -2.88344 -3.17105 0
M  V30 510 H 48.6671 -3.86263 -3.11632 0
M  V30 511 H 43.9231 -5.27562 -3.09012 0
M  V30 512 H 48.0971 -6.26201 -3.04705 0
M  V30 513 H 45.7241 -6.97236 -3.02929 0
M  V30 514 N 47.2992 1.18797 -1.03562 0
M  V30 515 C 48.2622 2.20464 -0.626769 0
M  V30 516 C 49.2622 1.57721 0.313173 0
M  V30 517 O 50.4522 1.73917 0.0992615 0
M  V30 518 C 47.5842 3.40802 0.0818498 0
M  V30 519 H 48.7772 2.58149 -1.5264 0
M  V30 520 H 46.3302 1.32593 -0.827578 0
M  V30 521 H 47.0652 3.08642 0.995518 0
M  V30 522 H 46.8502 3.8758 -0.593652 0
M  V30 523 H 48.3402 4.16092 0.354584 0
M  V30 524 N 48.7773 0.814389 1.34928 0
M  V30 525 C 50.0233 0.399013 1.98836 0
M  V30 526 C 50.3563 -1.03314 1.64438 0
M  V30 527 O 49.6313 -1.71811 0.911659 0
M  V30 528 C 49.9143 0.591629 3.55207 0
M  V30 529 C 49.7673 2.06928 3.99376 0
M  V30 530 C 51.0863 0.022199 4.40094 0
M  V30 531 H 48.2053 0.146451 0.722303 0
M  V30 532 H 50.8473 1.02537 1.59957 0
M  V30 533 H 48.9973 0.0584441 3.88456 0
M  V30 534 H 50.6693 2.66544 3.76499 0
M  V30 535 H 48.9123 2.56287 3.49999 0
M  V30 536 H 49.5833 2.1549 5.08201 0
M  V30 537 H 52.0593 0.477643 4.13349 0
M  V30 538 H 50.9353 0.186832 5.48582 0
M  V30 539 H 51.1963 -1.07215 4.28902 0
M  V30 540 N 50.2554 -1.46986 0.568584 0
M  V30 541 C 51.4854 -2.0653 0.0539173 0
M  V30 542 C 51.8934 -1.42004 -1.25026 0
M  V30 543 O 51.2364 -0.514541 -1.76347 0
M  V30 544 C 51.2984 -3.58938 -0.200854 0
M  V30 545 C 50.9624 -4.45572 1.01559 0
M  V30 546 C 51.9594 -4.82986 1.92407 0
M  V30 547 C 49.6444 -4.8692 1.23346 0
M  V30 548 C 51.6384 -5.60559 3.03402 0
M  V30 549 C 49.3254 -5.64255 2.34649 0
M  V30 550 C 50.3234 -6.00986 3.24507 0
M  V30 551 O 50.0114 -6.76761 4.33878 0
M  V30 552 H 49.7434 -0.674292 0.0480234 0
M  V30 553 H 52.2974 -1.89812 0.784896 0
M  V30 554 H 50.5274 -3.73911 -0.986279 0
M  V30 555 H 52.2164 -4.0046 -0.662294 0
M  V30 556 H 52.9824 -4.51633 1.76785 0
M  V30 557 H 48.8614 -4.57789 0.543178 0
M  V30 558 H 52.4054 -5.89147 3.73565 0
M  V30 559 H 48.3024 -5.95021 2.5024 0
M  V30 560 H 49.0704 -6.95168 4.32068 0
M  V30 561 N 51.7335 -0.305618 -1.54608 0
M  V30 562 C 52.6635 0.561482 -2.26649 0
M  V30 563 C 53.6445 1.13415 -1.26772 0
M  V30 564 O 54.8295 1.16262 -1.55553 0
M  V30 565 C 51.9595 1.73122 -3.01075 0
M  V30 566 C 50.9135 1.2887 -4.08138 0
M  V30 567 C 50.2395 2.54396 -4.70305 0
M  V30 568 C 51.5395 0.416578 -5.20636 0
M  V30 569 H 53.2335 -0.0393902 -2.99374 0
M  V30 570 H 50.7795 -0.020385 -1.43986 0
M  V30 571 H 52.7325 2.34396 -3.50195 0
M  V30 572 H 51.4565 2.3584 -2.25936 0
M  V30 573 H 50.1155 0.698991 -3.59875 0
M  V30 574 H 49.7635 3.15439 -3.918 0
M  V30 575 H 49.4635 2.25486 -5.42614 0
M  V30 576 H 50.9875 3.16464 -5.2219 0
M  V30 577 H 52.4015 0.935116 -5.65622 0
M  V30 578 H 50.7985 0.221046 -5.99693 0
M  V30 579 H 51.8685 -0.557162 -4.81688 0
M  V30 580 N 53.2116 1.57565 -0.0334293 0
M  V30 581 C 54.6226 1.79746 0.504798 0
M  V30 582 C 54.9736 0.944091 1.71992 0
M  V30 583 O 54.0986 0.155694 2.15839 0
M  V30 584 C 54.6936 3.25997 0.922567 0
M  V30 585 C 53.2526 3.49159 1.40588 0
M  V30 586 C 52.3996 2.74785 0.372633 0
M  V30 587 H 55.3506 1.56565 -0.259436 0
M  V30 588 H 55.3716 3.35945 1.78666 0
M  V30 589 H 54.8836 3.88081 0.0379825 0
M  V30 590 H 52.9846 2.92332 2.31025 0
M  V30 591 H 53.0976 4.57873 1.41028 0
M  V30 592 H 51.4616 2.40391 0.841672 0
M  V30 593 H 52.2446 3.39587 -0.503559 0
M  V30 594 N 54.6897 -0.239769 1.55765 0
M  V30 595 C 56.1007 -0.808263 1.68297 0
M  V30 596 C 56.4517 -1.85736 0.632181 0
M  V30 597 O 55.5767 -2.15277 -0.220204 0
M  V30 598 C 56.1717 -1.47284 3.05111 0
M  V30 599 C 54.7307 -1.98895 3.19559 0
M  V30 600 C 53.8777 -0.842575 2.64189 0
M  V30 601 H 56.8287 -0.0154422 1.58692 0
M  V30 602 H 56.8497 -2.34111 2.99954 0
M  V30 603 H 56.3617 -0.709053 3.81568 0
M  V30 604 H 54.4627 -2.78132 2.47938 0
M  V30 605 H 54.5757 -2.18143 4.26556 0
M  V30 606 H 52.9397 -1.24501 2.22197 0
M  V30 607 H 53.7227 -0.0917552 3.43177 0
M  V30 608 N 56.1678 -1.49265 -0.50573 0
M  V30 609 C 57.1148 -1.65585 -1.6078 0
M  V30 610 C 58.0848 -0.497396 -1.58478 0
M  V30 611 O 59.2698 -0.72385 -1.76536 0
M  V30 612 C 56.4098 -1.72408 -2.98948 0
M  V30 613 C 55.5228 -2.99525 -3.11301 0
M  V30 614 C 54.6578 -2.97356 -4.40174 0
M  V30 615 C 53.6968 -4.19074 -4.46143 0
M  V30 616 N 52.8338 -4.14841 -5.66437 0
M  V30 617 H 57.6738 -2.59688 -1.46172 0
M  V30 618 H 55.2108 -1.28761 -0.711261 0
M  V30 619 H 57.1688 -1.74344 -3.79025 0
M  V30 620 H 55.7988 -0.817753 -3.1227 0
M  V30 621 H 54.8508 -3.07222 -2.24318 0
M  V30 622 H 56.1628 -3.89518 -3.11572 0
M  V30 623 H 55.3168 -2.97829 -5.28567 0
M  V30 624 H 54.0558 -2.05133 -4.42461 0
M  V30 625 H 53.0608 -4.1885 -3.56153 0
M  V30 626 H 54.2858 -5.12483 -4.45575 0
M  V30 627 H 52.2318 -3.25453 -5.69575 0
M  V30 628 H 52.1488 -4.98564 -5.68304 0
M  V30 629 H 53.4168 -4.1941 -6.57051 0
M  V30 630 N 57.6459 0.756429 -1.3826 0
M  V30 631 C 58.6089 1.85176 -1.35065 0
M  V30 632 C 59.6089 1.58818 -0.251703 0
M  V30 633 O 60.7989 1.66615 -0.508433 0
M  V30 634 C 57.9309 3.22596 -1.10201 0
M  V30 635 H 59.1239 1.89417 -2.3251 0
M  V30 636 H 56.6769 0.95783 -1.23512 0
M  V30 637 H 57.4119 3.24025 -0.133504 0
M  V30 638 H 57.1969 3.43122 -1.89762 0
M  V30 639 H 58.6869 4.02673 -1.10654 0
M  V30 640 N 59.124 1.23083 0.984299 0
M  V30 641 C 60.034 1.02515 2.11016 0
M  V30 642 C 61.05 -0.0291702 1.73976 0
M  V30 643 O 62.226 0.165434 2.00719 0
M  V30 644 C 59.291 0.614673 3.41208 0
M  V30 645 C 58.352 1.74359 3.92297 0
M  V30 646 C 57.585 1.35261 5.16275 0
M  V30 647 O 57.808 0.235136 5.69915 0
M  V30 648 O 56.742 2.17227 5.61334 0
M  V30 649 H 60.568 1.96862 2.31255 0
M  V30 650 H 58.153 1.01753 1.09392 0
M  V30 651 H 60.035 0.396518 4.1953 0
M  V30 652 H 58.71 -0.299851 3.22308 0
M  V30 653 H 57.617 2.01635 3.1511 0
M  V30 654 H 58.95 2.63629 4.15645 0
M  V30 655 N 60.6021 -1.18246 1.0419 0
M  V30 656 C 61.8301 -1.92195 0.766072 0
M  V30 657 C 62.2451 -1.76247 -0.676933 0
M  V30 658 O 61.6021 -1.09293 -1.46155 0
M  V30 659 C 61.6531 -3.43568 1.12442 0
M  V30 660 O 61.3741 -3.59015 2.51078 0
M  V30 661 C 62.8751 -4.34613 0.873275 0
M  V30 662 H 60.0951 -0.610114 0.279288 0
M  V30 663 H 62.6391 -1.50007 1.38989 0
M  V30 664 H 60.7941 -3.8354 0.545542 0
M  V30 665 H 61.2081 -4.5273 2.64831 0
M  V30 666 H 62.6821 -5.39374 1.17385 0
M  V30 667 H 63.1591 -4.38781 -0.191909 0
M  V30 668 H 63.7651 -4.00341 1.43551 0
M  V30 669 N 62.0802 -0.821533 -1.34494 0
M  V30 670 C 63.3282 -0.408139 -1.97936 0
M  V30 671 C 63.6492 1.03193 -1.65457 0
M  V30 672 O 62.9192 1.71622 -0.944595 0
M  V30 673 H 61.4992 -0.147928 -0.732206 0
M  V30 674 H 64.1612 -1.05067 -1.64155 0
M  V30 675 H 63.2572 -0.52601 -3.07635 0
M  V30 676 N 63.5583 1.46682 -0.576371 0
M  V30 677 C 64.5053 2.30241 0.160499 0
M  V30 678 C 65.4753 1.40233 0.890162 0
M  V30 679 O 66.6603 1.69186 0.882084 0
M  V30 680 C 63.8003 3.24578 1.1723 0
M  V30 681 C 62.9133 4.29684 0.446736 0
M  V30 682 C 62.0483 5.11154 1.44551 0
M  V30 683 C 61.0873 6.08015 0.70599 0
M  V30 684 N 60.2243 6.82376 1.65251 0
M  V30 685 H 65.0643 2.92727 -0.558127 0
M  V30 686 H 62.6013 1.44272 -0.287056 0
M  V30 687 H 64.5593 3.77711 1.77172 0
M  V30 688 H 63.1893 2.63916 1.85872 0
M  V30 689 H 62.2413 3.79458 -0.267594 0
M  V30 690 H 63.5533 4.98626 -0.131686 0
M  V30 691 H 62.7073 5.68533 2.11791 0
M  V30 692 H 61.4463 4.42158 2.05786 0
M  V30 693 H 60.4513 5.49796 0.0197725 0
M  V30 694 H 61.6763 6.79028 0.09912 0
M  V30 695 H 59.6223 6.16094 2.25308 0
M  V30 696 H 59.5393 7.47556 1.12673 0
M  V30 697 H 60.8073 7.44316 2.31546 0
M  V30 698 N 65.0364 0.313813 1.54444 0
M  V30 699 C 66.2764 -0.292389 2.02298 0
M  V30 700 C 66.6404 -1.50105 1.19719 0
M  V30 701 O 67.8414 -2.17947 1.5733 0
M  V30 702 C 66.1124 -0.627682 3.51845 0
M  V30 703 S 67.6714 -1.21493 4.21646 0
M  V30 704 H 64.4894 -0.0890247 0.705405 0
M  V30 705 H 67.0914 0.444668 1.90376 0
M  V30 706 H 65.7954 0.260265 4.09574 0
M  V30 707 H 65.3264 -1.39519 3.67829 0
M  V30 708 H 67.3414 -2.5022 4.28491 0
M  V30 709 N 66.5145 -1.57545 0.0417849 0
M  V30 710 C 67.9255 -1.80011 -0.495259 0
M  V30 711 C 68.2765 -0.953199 -1.71489 0
M  V30 712 O 67.4015 -0.167138 -2.15754 0
M  V30 713 C 67.9965 -3.26482 -0.905265 0
M  V30 714 C 66.5555 -3.499 -1.38734 0
M  V30 715 C 65.7025 -2.74979 -0.358056 0
M  V30 716 H 68.6535 -1.56425 0.267736 0
M  V30 717 H 68.6745 -3.36887 -1.76882 0
M  V30 718 H 68.1865 -3.88096 -0.017401 0
M  V30 719 H 66.2875 -2.93553 -2.29471 0
M  V30 720 H 66.4005 -4.58615 -1.38598 0
M  V30 721 H 64.7645 -2.40834 -0.828912 0
M  V30 722 H 65.5475 -3.39315 0.521561 0
M  V30 723 N 67.9926 0.231505 -1.5589 0
M  V30 724 C 68.9556 1.27028 -1.90779 0
M  V30 725 C 69.9556 1.40308 -0.785507 0
M  V30 726 O 71.1456 1.38744 -1.05336 0
M  V30 727 C 68.2776 2.64566 -2.14983 0
M  V30 728 H 69.4706 0.973017 -2.83677 0
M  V30 729 H 67.0236 0.471486 -1.49019 0
M  V30 730 H 67.7586 2.99406 -1.24604 0
M  V30 731 H 67.5436 2.56305 -2.96732 0
M  V30 732 H 69.0336 3.39543 -2.43105 0
M  V30 733 N 69.4707 1.49531 0.497807 0
M  V30 734 C 70.4007 1.6935 1.60757 0
M  V30 735 C 71.3817 0.542218 1.61227 0
M  V30 736 O 72.5667 0.778417 1.77917 0
M  V30 737 C 69.6967 1.76298 2.99226 0
M  V30 738 C 68.6507 2.91248 3.13622 0
M  V30 739 C 67.9767 2.83312 4.53474 0
M  V30 740 C 69.2767 4.3214 2.93346 0
M  V30 741 H 70.9707 2.62263 1.44425 0
M  V30 742 H 68.5167 1.26208 0.693367 0
M  V30 743 H 70.4697 1.88749 3.76765 0
M  V30 744 H 69.1937 0.799871 3.16654 0
M  V30 745 H 67.8527 2.78404 2.38509 0
M  V30 746 H 67.5007 1.84902 4.67782 0
M  V30 747 H 67.2007 3.60465 4.64046 0
M  V30 748 H 68.7247 2.97775 5.33069 0
M  V30 749 H 70.1387 4.45649 3.60652 0
M  V30 750 H 68.5357 5.1054 3.15387 0
M  V30 751 H 69.6057 4.46363 1.89441 0
M  V30 752 N 70.9488 -0.749086 1.3866 0
M  V30 753 C 72.1788 -1.53611 1.38157 0
M  V30 754 C 72.5868 -1.89177 -0.0293595 0
M  V30 755 O 71.9298 -1.53606 -1.00752 0
M  V30 756 C 71.9918 -2.86087 2.17702 0
M  V30 757 C 71.6558 -2.73034 3.66472 0
M  V30 758 C 72.6528 -2.42526 4.59866 0
M  V30 759 C 70.3378 -2.90345 4.09884 0
M  V30 760 C 72.3318 -2.29492 5.94653 0
M  V30 761 C 70.0188 -2.7693 5.4475 0
M  V30 762 C 71.0168 -2.46547 6.36949 0
M  V30 763 O 70.7048 -2.33199 7.69333 0
M  V30 764 H 70.4368 -0.481773 0.474205 0
M  V30 765 H 72.9908 -0.934465 1.82912 0
M  V30 766 H 71.2208 -3.48458 1.67672 0
M  V30 767 H 72.9098 -3.47625 2.09551 0
M  V30 768 H 73.6758 -2.28816 4.27631 0
M  V30 769 H 69.5548 -3.1299 3.38464 0
M  V30 770 H 73.0988 -2.05698 6.66584 0
M  V30 771 H 68.9958 -2.90215 5.76581 0
M  V30 772 H 69.7638 -2.48376 7.79905 0
M  V30 773 N 72.4269 -1.23603 -0.977757 0
M  V30 774 C 73.6729 -1.08136 -1.72274 0
M  V30 775 C 74.0279 0.377453 -1.88661 0
M  V30 776 O 73.3209 1.27552 -1.42972 0
M  V30 777 C 73.5149 -1.7433 -3.11999 0
M  V30 778 C 73.3439 -3.26498 -3.0924 0
M  V30 779 C 72.1139 -3.9567 -3.14282 0
M  V30 780 C 74.3119 -4.2323 -2.92201 0
M  V30 781 N 72.2939 -5.34799 -3.01436 0
M  V30 782 C 73.6649 -5.49289 -2.87544 0
M  V30 783 C 75.7199 -4.13931 -2.76705 0
M  V30 784 C 74.4229 -6.67116 -2.68978 0
M  V30 785 C 76.4489 -5.31424 -2.59504 0
M  V30 786 C 75.8109 -6.5641 -2.55548 0
M  V30 787 H 71.9099 -0.450247 -0.639376 0
M  V30 788 H 74.4939 -1.5637 -1.16002 0
M  V30 789 H 72.6649 -1.28624 -3.66484 0
M  V30 790 H 74.3969 -1.51815 -3.75146 0
M  V30 791 H 71.1519 -3.46767 -3.22567 0
M  V30 792 H 71.5759 -6.07748 -2.98281 0
M  V30 793 H 76.2179 -3.1807 -2.78552 0
M  V30 794 H 73.9359 -7.63109 -2.65876 0
M  V30 795 H 77.5219 -5.26072 -2.48474 0
M  V30 796 H 76.4019 -7.45795 -2.42405 0
M  V30 797 N 73.905 1.17692 -1.04816 0
M  V30 798 C 74.835 2.23777 -0.666791 0
M  V30 799 C 75.816 1.66796 0.33361 0
M  V30 800 O 77.001 1.93039 0.212042 0
M  V30 801 C 74.131 3.47281 -0.0367933 0
M  V30 802 C 73.085 4.17059 -0.961546 0
M  V30 803 C 72.411 5.34342 -0.195626 0
M  V30 804 C 73.711 4.69713 -2.28402 0
M  V30 805 H 75.405 2.55933 -1.55367 0
M  V30 806 H 72.951 1.23019 -0.748484 0
M  V30 807 H 74.904 4.20706 0.241775 0
M  V30 808 H 73.628 3.14381 0.885004 0
M  V30 809 H 72.287 3.45541 -1.22462 0
M  V30 810 H 71.935 4.97692 0.728816 0
M  V30 811 H 71.635 5.81966 -0.811775 0
M  V30 812 H 73.159 6.10553 0.0757473 0
M  V30 813 H 74.573 5.34794 -2.06563 0
M  V30 814 H 72.97 5.279 -2.8538 0
M  V30 815 H 74.04 3.86726 -2.92525 0
M  V30 816 N 75.3831 0.828654 1.34056 0
M  V30 817 C 76.6081 0.431637 2.02859 0
M  V30 818 C 77.0331 -0.956339 1.61975 0
M  V30 819 O 76.3911 -1.62338 0.807228 0
M  V30 820 C 76.4391 0.548323 3.56407 0
M  V30 821 O 75.5431 -0.429556 4.10157 0
M  V30 822 H 74.8841 0.176886 0.640006 0
M  V30 823 H 77.4141 1.12066 1.71179 0
M  V30 824 H 77.4241 0.426196 4.05768 0
M  V30 825 H 76.0991 1.5606 3.8551 0
M  V30 826 H 74.6761 -0.265836 3.71951 0
M  V30 827 N 76.8612 -1.46375 0.584142 0
M  V30 828 C 78.1092 -2.01978 0.0701287 0
M  V30 829 C 78.4302 -1.4579 -1.295 0
M  V30 830 O 77.7002 -0.64314 -1.85042 0
M  V30 831 H 76.2802 -0.746648 0.0229345 0
M  V30 832 H 78.9422 -1.79461 0.760245 0
M  V30 833 H 78.0382 -3.121 0.0022064 0
M  V30 834 N 78.3393 -0.321999 -1.54275 0
M  V30 835 C 79.2693 0.537411 -2.27231 0
M  V30 836 C 80.2503 1.12064 -1.27968 0
M  V30 837 O 81.4353 1.14606 -1.56777 0
M  V30 838 C 78.5653 1.69919 -3.02894 0
M  V30 839 C 77.5193 1.24534 -4.09482 0
M  V30 840 C 76.8453 2.49394 -4.72977 0
M  V30 841 C 78.1453 0.361335 -5.21049 0
M  V30 842 H 79.8393 -0.0711406 -2.99315 0
M  V30 843 H 77.3853 -0.0356555 -1.43956 0
M  V30 844 H 79.3383 2.30668 -3.52662 0
M  V30 845 H 78.0623 2.33431 -2.28424 0
M  V30 846 H 76.7213 0.660782 -3.60596 0
M  V30 847 H 76.3693 3.11265 -3.95124 0
M  V30 848 H 76.0693 2.19718 -5.44975 0
M  V30 849 H 77.5933 3.10908 -5.25517 0
M  V30 850 H 79.0073 0.875072 -5.66582 0
M  V30 851 H 77.4043 0.157428 -5.99893 0
M  V30 852 H 78.4743 -0.60822 -4.8107 0
M  V30 853 N 79.8174 1.5752 -0.0501392 0
M  V30 854 C 81.0454 1.96963 0.633492 0
M  V30 855 C 81.4604 0.927631 1.6444 0
M  V30 856 O 80.8174 -0.0882665 1.82286 0
M  V30 857 C 80.8684 3.36487 1.32132 0
M  V30 858 O 80.5894 4.36693 0.350894 0
M  V30 859 C 82.0904 3.90682 2.09481 0
M  V30 860 H 79.3104 0.648244 0.173266 0
M  V30 861 H 81.8544 2.0417 -0.116134 0
M  V30 862 H 80.0094 3.30434 2.02218 0
M  V30 863 H 80.4234 5.17702 0.841735 0
M  V30 864 H 81.8974 4.90591 2.5303 0
M  V30 865 H 82.3744 3.26053 2.94255 0
M  V30 866 H 82.9804 4.00069 1.44307 0
M  V30 867 N 81.2955 -0.223234 1.56011 0
M  V30 868 C 82.5355 -0.954962 1.8072 0
M  V30 869 C 82.8995 -1.81598 0.623384 0
M  V30 870 O 84.1005 -2.58132 0.749745 0
M  V30 871 C 82.3715 -1.77313 3.10314 0
M  V30 872 S 83.9305 -2.56073 3.56332 0
M  V30 873 H 80.7485 -0.320812 0.634508 0
M  V30 874 H 83.3505 -0.220686 1.9425 0
M  V30 875 H 82.0545 -1.13071 3.94516 0
M  V30 876 H 81.5855 -2.54974 2.99586 0
M  V30 877 H 83.6005 -3.79619 3.19536 0
M  V30 878 N 82.7736 -1.49793 -0.48987 0
M  V30 879 C 84.0016 -1.63568 -1.26701 0
M  V30 880 C 84.4166 -0.311465 -1.86213 0
M  V30 881 O 83.7736 0.704416 -1.68357 0
M  V30 882 C 83.8246 -2.71284 -2.38929 0
M  V30 883 O 83.5456 -3.9857 -1.81861 0
M  V30 884 C 85.0466 -2.95864 -3.3012 0
M  V30 885 H 82.2666 -0.550342 -0.383881 0
M  V30 886 H 84.8106 -1.95898 -0.586864 0
M  V30 887 H 82.9656 -2.417 -3.02753 0
M  V30 888 H 83.3796 -4.57993 -2.55622 0
M  V30 889 H 84.8536 -3.74941 -4.05121 0
M  V30 890 H 85.3306 -2.06206 -3.87783 0
M  V30 891 H 85.9366 -3.26907 -2.72051 0
M  V30 892 N 84.2517 0.741722 -1.39055 0
M  V30 893 C 85.1617 1.88621 -1.39496 0
M  V30 894 C 86.1777 1.71557 -0.290578 0
M  V30 895 O 87.3537 1.94275 -0.530954 0
M  V30 896 C 84.4187 3.24134 -1.23037 0
M  V30 897 C 83.4797 3.5364 -2.43387 0
M  V30 898 C 82.7127 4.82687 -2.27703 0
M  V30 899 O 82.9357 5.55922 -1.27696 0
M  V30 900 O 81.8697 5.1194 -3.16545 0
M  V30 901 H 85.6957 1.91203 -2.35956 0
M  V30 902 H 83.2807 0.888625 -1.20099 0
M  V30 903 H 85.1627 4.0513 -1.15964 0
M  V30 904 H 83.8377 3.22337 -0.296691 0
M  V30 905 H 82.7447 2.72758 -2.56035 0
M  V30 906 H 84.0777 3.60209 -3.35425 0
M  V30 907 N 85.7298 1.2412 0.971189 0
M  V30 908 C 86.6618 0.988349 2.06795 0
M  V30 909 C 87.6748 -0.0409541 1.62748 0
M  V30 910 O 88.8638 0.195673 1.77424 0
M  V30 911 C 85.9638 0.469023 3.35639 0
M  V30 912 C 85.1368 1.56065 4.08611 0
M  V30 913 C 84.1958 1.04458 5.15728 0
M  V30 914 O 83.2218 1.73553 5.42096 0
M  V30 915 N 84.4238 -0.122817 5.8037 0
M  V30 916 H 87.1888 1.93265 2.29061 0
M  V30 917 H 84.7498 1.15102 1.13856 0
M  V30 918 H 86.7418 0.108613 4.04554 0
M  V30 919 H 85.3118 -0.380919 3.1027 0
M  V30 920 H 84.5318 2.09341 3.34021 0
M  V30 921 H 85.8198 2.29449 4.54126 0
M  V30 922 H 85.2178 -0.700563 5.61345 0
M  V30 923 H 83.7748 -0.424404 6.50417 0
M  V30 924 N 87.2079 -1.17134 1.05439 0
M  V30 925 C 88.1559 -2.23289 0.651511 0
M  V30 926 C 89.1499 -1.66186 -0.328411 0
M  V30 927 O 90.3559 -1.78949 -0.194206 0
M  V30 928 H 86.7309 -0.726938 0.192523 0
M  V30 929 H 88.7019 -2.54565 1.55689 0
M  V30 930 C 87.4509 -3.47671 0.0448436 0
M  V30 931 H 86.7739 -3.91918 0.78996 0
M  V30 932 H 88.2139 -4.2353 -0.19964 0
M  V30 933 C 86.6729 -3.14453 -1.20918 0
M  V30 934 O 87.2029 -3.29459 -2.29825 0
M  V30 935 N 85.4089 -2.68657 -1.10779 0
M  V30 936 H 84.9559 -2.56646 -0.221526 0
M  V30 937 H 84.9139 -2.46804 -1.9477 0
M  V30 938 N 88.686 -0.835752 -1.33615 0
M  V30 939 C 89.933 -0.429959 -1.97883 0
M  V30 940 C 90.261 1.01006 -1.66217 0
M  V30 941 O 89.516 1.72047 -0.93265 0
M  V30 942 C 89.815 -0.593925 -3.52431 0
M  V30 943 C 89.481 -2.00158 -4.04039 0
M  V30 944 C 88.143 -2.38662 -4.17844 0
M  V30 945 C 90.495 -2.92117 -4.31644 0
M  V30 946 C 87.823 -3.68435 -4.56588 0
M  V30 947 C 90.175 -4.21368 -4.71838 0
M  V30 948 C 88.839 -4.59833 -4.83849 0
M  V30 949 H 88.109 -0.157333 -0.724104 0
M  V30 950 H 90.756 -1.06217 -1.59343 0
M  V30 951 H 89.061 0.121619 -3.91611 0
M  V30 952 H 90.758 -0.260282 -4.00154 0
M  V30 953 H 87.348 -1.69252 -3.93766 0
M  V30 954 H 91.532 -2.63608 -4.20505 0
M  V30 955 H 86.788 -3.98046 -4.64079 0
M  V30 956 H 90.962 -4.92703 -4.92155 0
M  V30 957 H 88.589 -5.60438 -5.13627 0
M  V30 958 N 90.1641 1.46063 -0.591896 0
M  V30 959 C 91.4131 2.01547 -0.0786637 0
M  V30 960 C 91.7261 1.46796 1.29268 0
M  V30 961 O 92.9321 1.94157 1.89777 0
M  V30 962 C 91.3881 3.59787 -0.0900024 0
M  V30 963 C 90.9961 4.23534 -1.46023 0
M  V30 964 C 92.7401 4.22895 0.368806 0
M  V30 965 C 90.6471 5.73881 -1.4288 0
M  V30 966 H 89.5771 0.753564 -0.0256388 0
M  V30 967 H 92.2281 1.677 -0.744905 0
M  V30 968 H 90.6101 3.90752 0.642586 0
M  V30 969 H 91.7841 4.04167 -2.21328 0
M  V30 970 H 90.0991 3.72558 -1.85982 0
M  V30 971 H 92.6961 5.33116 0.411258 0
M  V30 972 H 93.0391 3.9247 1.38827 0
M  V30 973 H 93.5721 3.9659 -0.31001 0
M  V30 974 H 90.3111 6.0898 -2.42536 0
M  V30 975 H 89.8311 5.95486 -0.718095 0
M  V30 976 H 91.5101 6.36776 -1.14565 0
M  V30 977 N 91.6422 0.330177 1.54103 0
M  V30 978 C 92.8672 -0.274893 2.0557 0
M  V30 979 C 93.2922 -1.44487 1.20437 0
M  V30 980 O 92.6502 -1.80021 0.214991 0
M  V30 981 C 92.6982 -0.68079 3.54115 0
M  V30 982 O 91.8022 -1.7824 3.71893 0
M  V30 983 H 91.1432 -0.0483849 0.662235 0
M  V30 984 H 93.6732 0.480508 1.98878 0
M  V30 985 H 93.6832 -0.961635 3.96505 0
M  V30 986 H 92.3582 0.174903 4.15532 0
M  V30 987 H 90.9352 -1.49985 3.41407 0
M  V30 988 N 93.1203 -1.57491 0.0584922 0
M  V30 989 C 94.0673 -2.11958 -0.913376 0
M  V30 990 C 95.0373 -1.02875 -1.30407 0
M  V30 991 O 96.2223 -1.30464 -1.39226 0
M  V30 992 C 93.3623 -2.67497 -2.18035 0
M  V30 993 C 92.4753 -3.90691 -1.84349 0
M  V30 994 C 91.6103 -4.3452 -3.05559 0
M  V30 995 C 90.6493 -5.50395 -2.67827 0
M  V30 996 N 89.7863 -5.89244 -3.81754 0
M  V30 997 H 94.6263 -2.94704 -0.442017 0
M  V30 998 H 92.1633 -1.45643 -0.206545 0
M  V30 999 H 94.1213 -2.978 -2.92183 0
M  V30 1000 H 92.7513 -1.87537 -2.62735 0
M  V30 1001 H 91.8033 -3.66934 -1.00319 0
M  V30 1002 H 93.1153 -4.7489 -1.5258 0
M  V30 1003 H 92.2693 -4.66414 -3.87998 0
M  V30 1004 H 91.0083 -3.49147 -3.40511 0
M  V30 1005 H 90.0133 -5.18165 -1.83806 0
M  V30 1006 H 91.2383 -6.3749 -2.34059 0
M  V30 1007 H 89.1843 -5.06823 -4.16493 0
M  V30 1008 H 89.1013 -6.68151 -3.53708 0
M  V30 1009 H 90.3693 -6.25756 -4.64811 0
M  V30 1010 N 94.5984 0.214957 -1.56127 0
M  V30 1011 C 95.8234 0.95924 -1.83884 0
M  V30 1012 C 96.2484 1.7689 -0.639644 0
M  V30 1013 O 95.6064 1.76566 0.411601 0
M  V30 1014 C 95.6544 1.84723 -3.09693 0
M  V30 1015 O 94.7584 2.94346 -2.8885 0
M  V30 1016 H 94.0994 0.27125 -0.606069 0
M  V30 1017 H 96.6294 0.226276 -2.03345 0
M  V30 1018 H 96.6394 2.25576 -3.39969 0
M  V30 1019 H 95.3144 1.25218 -3.96602 0
M  V30 1020 H 93.8914 2.57391 -2.69823 0
M  V30 1021 N 96.0765 1.50051 0.48192 0
M  V30 1022 C 97.3245 1.60181 1.23234 0
M  V30 1023 C 97.6455 0.299176 1.92691 0
M  V30 1024 O 96.9155 -0.682708 1.83619 0
M  V30 1025 H 95.4955 0.590232 0.457859 0
M  V30 1026 H 98.1575 1.86775 0.556881 0
M  V30 1027 H 97.2535 2.40753 1.98607 0
M  V30 1028 N 97.5546 -0.734337 1.39446 0
M  V30 1029 C 98.7846 -1.52137 1.39778 0
M  V30 1030 C 99.1926 -1.89198 -0.00929312 0
M  V30 1031 O 98.5356 -1.54666 -0.991168 0
M  V30 1032 C 98.5976 -2.83762 2.20724 0
M  V30 1033 C 98.2616 -2.69131 3.69347 0
M  V30 1034 C 99.2586 -2.37635 4.62413 0
M  V30 1035 C 96.9436 -2.85982 4.1294 0
M  V30 1036 C 98.9376 -2.23172 5.97054 0
M  V30 1037 C 96.6246 -2.71137 5.47657 0
M  V30 1038 C 97.6226 -2.39777 6.39528 0
M  V30 1039 O 97.3106 -2.25026 7.71763 0
M  V30 1040 H 97.0426 -0.476717 0.479288 0
M  V30 1041 H 99.5966 -0.915012 1.83893 0
M  V30 1042 H 97.8266 -3.4666 1.71359 0
M  V30 1043 H 99.5156 -3.45383 2.13226 0
M  V30 1044 H 100.282 -2.24267 4.30034 0
M  V30 1045 H 96.1606 -3.09383 3.41765 0
M  V30 1046 H 99.7046 -1.98617 6.68728 0
M  V30 1047 H 95.6016 -2.84083 5.79626 0
M  V30 1048 H 96.3696 -2.40091 7.82495 0
M  V30 1049 N 99.0327 -1.24633 -0.964593 0
M  V30 1050 C 99.9827 -1.00841 -2.04487 0
M  V30 1051 C 100.967 0.0512468 -1.60818 0
M  V30 1052 O 102.159 -0.162865 -1.76249 0
M  V30 1053 C 99.2877 -0.618474 -3.37683 0
M  V30 1054 C 98.3737 -1.71437 -3.87905 0
M  V30 1055 N 98.7647 -2.9477 -4.11029 0
M  V30 1056 C 97.0627 -1.5926 -4.16596 0
M  V30 1057 C 97.7637 -3.65834 -4.52261 0
M  V30 1058 N 96.7397 -2.9341 -4.57615 0
M  V30 1059 H 100.542 -1.94487 -2.20345 0
M  V30 1060 H 98.0557 -1.14805 -1.14863 0
M  V30 1061 H 100.053 -0.429247 -4.14684 0
M  V30 1062 H 98.7127 0.310766 -3.23209 0
M  V30 1063 H 99.7237 -3.30917 -3.9839 0
M  V30 1064 H 96.4007 -0.731606 -4.1104 0
M  V30 1065 H 97.7907 -4.71646 -4.78539 0
M  V30 1066 N 100.511 1.16574 -1.06058 0
M  V30 1067 C 101.443 2.2045 -0.627239 0
M  V30 1068 C 102.456 1.59752 0.313534 0
M  V30 1069 O 103.645 1.78192 0.104896 0
M  V30 1070 C 100.745 3.3875 0.100974 0
M  V30 1071 C 99.9178 4.29008 -0.852687 0
M  V30 1072 C 98.9768 5.25944 -0.164152 0
M  V30 1073 O 98.0028 5.63535 -0.801047 0
M  V30 1074 N 99.2048 5.70075 1.09518 0
M  V30 1075 H 101.97 2.58249 -1.52077 0
M  V30 1076 H 99.5308 1.3156 -0.943594 0
M  V30 1077 H 101.523 4.00638 0.57194 0
M  V30 1078 H 100.093 2.99476 0.89628 0
M  V30 1079 H 99.3128 3.64419 -1.50308 0
M  V30 1080 H 100.601 4.86195 -1.49972 0
M  V30 1081 H 99.9988 5.41624 1.6328 0
M  V30 1082 H 98.5558 6.34067 1.51006 0
M  V30 1083 N 101.989 0.842826 1.3317 0
M  V30 1084 C 103.214 0.453129 2.02389 0
M  V30 1085 C 103.639 -0.939105 1.6298 0
M  V30 1086 O 102.997 -1.61472 0.8244 0
M  V30 1087 C 103.045 0.586094 3.55805 0
M  V30 1088 O 102.149 -0.386029 4.10589 0
M  V30 1089 H 101.49 0.183664 0.638094 0
M  V30 1090 H 104.02 1.13875 1.69981 0
M  V30 1091 H 104.03 0.469209 4.05293 0
M  V30 1092 H 102.705 1.6014 3.83833 0
M  V30 1093 H 101.282 -0.226371 3.72212 0
M  V30 1094 N 103.467 -1.45747 0.599634 0
M  V30 1095 C 104.43 -2.28917 -0.113835 0
M  V30 1096 C 105.43 -1.3933 -0.802729 0
M  V30 1097 O 106.62 -1.61534 -0.652103 0
M  V30 1098 C 103.752 -3.20152 -1.17114 0
M  V30 1099 H 104.945 -2.93478 0.617289 0
M  V30 1100 H 102.498 -1.52137 0.358327 0
M  V30 1101 H 103.233 -2.60374 -1.93329 0
M  V30 1102 H 103.018 -3.86133 -0.681468 0
M  V30 1103 H 104.508 -3.82708 -1.67105 0
M  V30 1104 N 104.945 -0.338344 -1.53925 0
M  V30 1105 C 106.17 0.263987 -2.05713 0
M  V30 1106 C 106.595 1.43847 -1.21201 0
M  V30 1107 O 105.953 1.79904 -0.224535 0
M  V30 1108 C 106.001 0.662 -3.54471 0
M  V30 1109 O 105.105 1.76265 -3.72833 0
M  V30 1110 H 104.446 0.0448722 -0.662482 0
M  V30 1111 H 106.976 -0.491048 -1.9862 0
M  V30 1112 H 106.986 0.940594 -3.9701 0
M  V30 1113 H 105.661 -0.196937 -4.15433 0
M  V30 1114 H 104.238 1.48173 -3.42198 0
M  V30 1115 N 106.423 1.57458 -0.0668435 0
M  V30 1116 C 107.333 2.15937 0.916975 0
M  V30 1117 C 108.349 1.12123 1.33058 0
M  V30 1118 O 109.525 1.44366 1.40429 0
M  V30 1119 C 106.59 2.70547 2.16807 0
M  V30 1120 C 105.651 3.89215 1.81135 0
M  V30 1121 C 104.884 4.41211 3.0028 0
M  V30 1122 O 105.107 3.92225 4.14144 0
M  V30 1123 O 104.041 5.32605 2.80384 0
M  V30 1124 H 107.867 3.00354 0.449561 0
M  V30 1125 H 105.452 1.48584 0.155949 0
M  V30 1126 H 107.334 3.0557 2.90181 0
M  V30 1127 H 106.009 1.89192 2.62656 0
M  V30 1128 H 104.916 3.59054 1.05028 0
M  V30 1129 H 106.249 4.71848 1.40073 0
M  V30 1130 N 107.901 -0.206675 1.56239 0
M  V30 1131 C 108.851 -1.26 1.90021 0
M  V30 1132 C 109.835 -1.41566 0.764721 0
M  V30 1133 O 111.027 -1.44131 1.02739 0
M  V30 1134 C 108.156 -2.6073 2.23326 0
M  V30 1135 C 107.242 -2.49005 3.43304 0
M  V30 1136 N 107.633 -2.06946 4.61527 0
M  V30 1137 C 105.931 -2.79927 3.47213 0
M  V30 1138 C 106.632 -2.06832 5.43687 0
M  V30 1139 N 105.608 -2.47892 4.83788 0
M  V30 1140 H 109.41 -0.925955 2.78932 0
M  V30 1141 H 106.924 -0.415172 1.57003 0
M  V30 1142 H 108.921 -3.36798 2.45708 0
M  V30 1143 H 107.581 -2.94968 1.35735 0
M  V30 1144 H 108.592 -1.77839 4.86409 0
M  V30 1145 H 105.269 -3.18438 2.70006 0
M  V30 1146 H 106.659 -1.76312 6.48354 0
M  V30 1147 N 109.379 -1.50304 -0.473955 0
M  V30 1148 C 110.627 -1.60832 -1.22382 0
M  V30 1149 C 110.948 -0.30939 -1.9253 0
M  V30 1150 O 110.218 0.67296 -1.83978 0
M  V30 1151 H 108.798 -0.592652 -0.454723 0
M  V30 1152 H 111.46 -1.87068 -0.546968 0
M  V30 1153 H 110.556 -2.41803 -1.97327 0
M  V30 1154 N 110.857 0.726932 -1.39834 0
M  V30 1155 C 111.787 1.85405 -1.41941 0
M  V30 1156 C 112.768 1.67751 -0.281728 0
M  V30 1157 O 113.953 1.8795 -0.488717 0
M  V30 1158 C 111.083 3.23243 -1.2701 0
M  V30 1159 C 110.037 3.55549 -2.38262 0
M  V30 1160 C 109.363 4.9241 -2.08415 0
M  V30 1161 C 110.663 3.577 -3.80589 0
M  V30 1162 H 112.357 1.83899 -2.36266 0
M  V30 1163 H 109.903 0.883349 -1.13723 0
M  V30 1164 H 111.856 4.01775 -1.27103 0
M  V30 1165 H 110.58 3.25296 -0.291564 0
M  V30 1166 H 109.239 2.79351 -2.37399 0
M  V30 1167 H 108.887 4.91052 -1.0898 0
M  V30 1168 H 108.587 5.14992 -2.82943 0
M  V30 1169 H 110.111 5.73289 -2.10171 0
M  V30 1170 H 111.525 4.26293 -3.83337 0
M  V30 1171 H 109.922 3.91804 -4.54543 0
M  V30 1172 H 110.992 2.57328 -4.10987 0
M  V30 1173 N 112.336 1.25143 0.95797 0
M  V30 1174 C 113.582 1.09855 1.70469 0
M  V30 1175 C 113.915 -0.360187 1.90831 0
M  V30 1176 O 113.19 -1.26568 1.47685 0
M  V30 1177 C 113.473 1.8497 3.08963 0
M  V30 1178 C 113.326 3.38652 2.96032 0
M  V30 1179 C 114.645 1.63016 4.08795 0
M  V30 1180 H 111.764 0.400465 0.618706 0
M  V30 1181 H 114.406 1.53933 1.11376 0
M  V30 1182 H 112.556 1.47505 3.59409 0
M  V30 1183 H 114.228 3.85772 2.52938 0
M  V30 1184 H 112.471 3.66534 2.32025 0
M  V30 1185 H 113.142 3.8642 3.94187 0
M  V30 1186 H 115.618 1.95625 3.67247 0
M  V30 1187 H 114.494 2.18015 5.03747 0
M  V30 1188 H 114.755 0.570692 4.38401 0
M  V30 1189 N 113.814 -1.1601 1.06675 0
M  V30 1190 C 115.06 -1.86909 0.786945 0
M  V30 1191 C 115.393 -1.81717 -0.685018 0
M  V30 1192 O 114.668 -1.23551 -1.50218 0
M  V30 1193 C 114.951 -3.36313 1.28707 0
M  V30 1194 C 114.804 -3.50175 2.82308 0
M  V30 1195 C 116.123 -4.3084 0.898071 0
M  V30 1196 H 113.242 -0.678677 0.287343 0
M  V30 1197 H 115.884 -1.36336 1.32334 0
M  V30 1198 H 114.034 -3.79513 0.830768 0
M  V30 1199 H 115.706 -3.15886 3.36175 0
M  V30 1200 H 113.949 -2.91959 3.20847 0
M  V30 1201 H 114.62 -4.55116 3.12368 0
M  V30 1202 H 117.096 -3.95561 1.29114 0
M  V30 1203 H 115.972 -5.33876 1.27543 0
M  V30 1204 H 116.233 -4.41662 -0.196651 0
M  V30 1205 N 115.292 -0.849877 -1.32721 0
M  V30 1206 C 116.541 -0.447175 -1.96681 0
M  V30 1207 C 116.854 1.00135 -1.68025 0
M  V30 1208 O 118.06 1.50926 -2.25685 0
M  V30 1209 C 116.516 -0.7487 -3.52026 0
M  V30 1210 C 116.124 -2.21264 -3.89546 0
M  V30 1211 C 117.868 -0.413487 -4.22481 0
M  V30 1212 C 115.775 -2.45763 -5.37917 0
M  V30 1213 H 114.705 -0.163486 -0.736063 0
M  V30 1214 H 117.356 -1.03999 -1.51183 0
M  V30 1215 H 115.738 -0.0853727 -3.95908 0
M  V30 1216 H 116.912 -2.91736 -3.56689 0
M  V30 1217 H 115.227 -2.5119 -3.32103 0
M  V30 1218 H 117.824 -0.574017 -5.3161 0
M  V30 1219 H 118.167 0.644492 -4.11281 0
M  V30 1220 H 118.7 -1.03251 -3.84167 0
M  V30 1221 H 115.439 -3.50168 -5.54132 0
M  V30 1222 H 114.959 -1.79864 -5.72197 0
M  V30 1223 H 116.638 -2.29471 -6.0494 0
M  V30 1224 N 116.77 1.45427 -0.607355 0
M  V30 1225 C 117.733 2.28974 0.101693 0
M  V30 1226 C 118.733 1.39754 0.795329 0
M  V30 1227 O 119.923 1.61878 0.643527 0
M  V30 1228 C 117.055 3.20768 1.15414 0
M  V30 1229 H 118.248 2.93147 -0.632844 0
M  V30 1230 H 115.801 1.51945 -0.366391 0
M  V30 1231 H 116.536 2.61395 1.91945 0
M  V30 1232 H 116.321 3.86489 0.66098 0
M  V30 1233 H 117.811 3.83589 1.65073 0
M  V30 1234 N 118.248 0.346503 1.53744 0
M  V30 1235 C 119.659 -0.136779 1.86198 0
M  V30 1236 C 120.01 -1.49749 1.26766 0
M  V30 1237 O 119.135 -2.08417 0.582355 0
M  V30 1238 C 119.73 -0.254966 3.37839 0
M  V30 1239 C 118.289 -0.682482 3.70161 0
M  V30 1240 C 117.436 0.181981 2.76702 0
M  V30 1241 H 120.387 0.565994 1.48264 0
M  V30 1242 H 120.408 -1.08195 3.64793 0
M  V30 1243 H 119.92 0.735526 3.81066 0
M  V30 1244 H 118.021 -1.68189 3.3248 0
M  V30 1245 H 118.134 -0.470326 4.76786 0
M  V30 1246 H 116.498 -0.34615 2.52337 0
M  V30 1247 H 117.281 1.16966 3.2276 0
M  V30 1248 N 119.726 -1.57421 0.075193 0
M  V30 1249 C 121.003 -1.85029 -0.634329 0
M  V30 1250 C 121.383 -0.968305 -1.87582 0
M  V30 1251 O 120.731 -0.0354749 -2.28472 0
M  V30 1252 C 120.941 -3.35286 -0.968742 0
M  V30 1253 C 122.289 -4.02875 -1.34077 0
M  V30 1254 O 123.313 -3.40051 -1.06037 0
M  V30 1255 O 122.172 -5.13691 -1.86506 0
M  V30 1256 H 119.266 -0.7645 -0.315387 0
M  V30 1257 H 121.812 -1.69366 0.106382 0
M  V30 1258 H 120.584 -3.91203 -0.0871376 0
M  V30 1259 H 120.207 -3.56223 -1.7661 0
M  V30 1260 N 121.204 0.198386 -1.56346 0
M  V30 1261 C 122.432 0.935572 -1.84539 0
M  V30 1262 C 122.847 1.76989 -0.657281 0
M  V30 1263 O 122.204 1.78626 0.374043 0
M  V30 1264 C 122.255 1.8344 -3.11499 0
M  V30 1265 O 121.976 1.03377 -4.25728 0
M  V30 1266 C 123.477 2.68355 -3.52846 0
M  V30 1267 H 120.697 0.273126 -0.612897 0
M  V30 1268 H 123.241 0.20663 -2.03453 0
M  V30 1269 H 121.396 2.51701 -2.94492 0
M  V30 1270 H 121.81 1.64599 -4.98003 0
M  V30 1271 H 123.284 3.27085 -4.44657 0
M  V30 1272 H 123.761 3.41901 -2.75681 0
M  V30 1273 H 124.367 2.05471 -3.72373 0
M  V30 1274 N 122.682 1.50554 0.465978 0
M  V30 1275 C 123.907 1.65838 1.24549 0
M  V30 1276 C 124.332 0.343486 1.84937 0
M  V30 1277 O 123.69 -0.69324 1.67523 0
M  V30 1278 C 123.738 2.75533 2.32624 0
M  V30 1279 O 122.842 2.37142 3.37398 0
M  V30 1280 H 122.183 0.553893 0.366194 0
M  V30 1281 H 124.713 1.96959 0.553927 0
M  V30 1282 H 124.723 2.98763 2.77857 0
M  V30 1283 H 123.398 3.70962 1.88043 0
M  V30 1284 H 121.975 2.24377 2.97841 0
M  V30 1285 N 124.16 -0.719506 1.40217 0
M  V30 1286 C 125.571 -1.29848 1.34151 0
M  V30 1287 C 125.922 -1.96196 0.0131349 0
M  V30 1288 O 125.047 -1.973 -0.88892 0
M  V30 1289 C 125.642 -2.36118 2.42968 0
M  V30 1290 C 124.201 -2.8965 2.40374 0
M  V30 1291 C 123.348 -1.63393 2.24049 0
M  V30 1292 H 126.299 -0.51591 1.5008 0
M  V30 1293 H 126.32 -3.16871 2.10649 0
M  V30 1294 H 125.832 -1.878 3.39636 0
M  V30 1295 H 123.933 -3.42208 1.47392 0
M  V30 1296 H 124.046 -3.4171 3.35814 0
M  V30 1297 H 122.41 -1.88312 1.71495 0
M  V30 1298 H 123.193 -1.17104 3.2271 0
M  V30 1299 N 125.638 -1.25649 -0.95132 0
M  V30 1300 C 127.054 -1.02542 -1.223 0
M  V30 1301 C 127.254 0.255715 -1.99871 0
M  V30 1302 O 126.31 0.967558 -2.33226 0
M  V30 1303 C 127.623 -2.25065 -1.99415 0
M  V30 1304 C 129.171 -2.29861 -2.12446 0
M  V30 1305 C 129.646 -3.52048 -2.92961 0
M  V30 1306 N 131.137 -3.52465 -3.00538 0
M  V30 1307 C 131.872 -4.43672 -3.63239 0
M  V30 1308 N 131.368 -5.45157 -4.27523 0
M  V30 1309 N 133.161 -4.31346 -3.60412 0
M  V30 1310 H 125.312 -2.07951 -0.432471 0
M  V30 1311 H 127.575 -0.91339 -0.253816 0
M  V30 1312 H 127.281 -3.18194 -1.49817 0
M  V30 1313 H 127.155 -2.28502 -3.00111 0
M  V30 1314 H 129.542 -1.37252 -2.61239 0
M  V30 1315 H 129.623 -2.3044 -1.11044 0
M  V30 1316 H 129.267 -4.44981 -2.44856 0
M  V30 1317 H 129.197 -3.48715 -3.94596 0
M  V30 1318 H 131.688 -2.79056 -2.54826 0
M  V30 1319 H 132.001 -6.10958 -4.73234 0
M  V30 1320 H 130.346 -5.49025 -4.26141 0
M  V30 1321 H 133.537 -3.51288 -3.09377 0
M  V30 1322 H 133.71 -5.02624 -4.0899 0
M  V30 1323 N 127.117 1.15442 -1.07289 0
M  V30 1324 C 128.365 1.85845 -0.794096 0
M  V30 1325 C 128.686 1.82692 0.681809 0
M  V30 1326 O 127.956 1.26741 1.49377 0
M  V30 1327 H 126.536 0.688089 -0.290763 0
M  V30 1328 H 129.198 1.39947 -1.3565 0
M  V30 1329 H 128.294 2.91001 -1.12804 0
M  V30 1330 N 128.595 0.856903 1.32268 0
M  V30 1331 C 129.835 0.467705 1.98977 0
M  V30 1332 C 130.199 -0.959231 1.66321 0
M  V30 1333 O 131.4 -1.4531 2.26138 0
M  V30 1334 C 129.671 0.70256 3.50427 0
M  V30 1335 S 131.23 0.411269 4.36868 0
M  V30 1336 H 128.048 0.175121 0.689096 0
M  V30 1337 H 130.65 1.1101 1.60925 0
M  V30 1338 H 129.354 1.74012 3.71683 0
M  V30 1339 H 128.885 0.0466707 3.93372 0
M  V30 1340 H 130.9 -0.761799 4.90317 0
M  V30 1341 N 130.073 -1.45103 0.615059 0
M  V30 1342 C 131.021 -2.32331 -0.111791 0
M  V30 1343 C 132.015 -1.46409 -0.852102 0
M  V30 1344 O 133.221 -1.62849 -0.766821 0
M  V30 1345 H 129.596 -0.749993 -0.0549072 0
M  V30 1346 H 131.567 -2.91407 0.642225 0
M  V30 1347 C 130.316 -3.3015 -1.09071 0
M  V30 1348 H 129.639 -3.96265 -0.530485 0
M  V30 1349 H 131.079 -3.93898 -1.56908 0
M  V30 1350 C 129.538 -2.57875 -2.168 0
M  V30 1351 O 130.068 -2.36567 -3.24652 0
M  V30 1352 N 128.274 -2.17884 -1.92289 0
M  V30 1353 H 127.821 -2.35413 -1.04587 0
M  V30 1354 H 127.779 -1.6985 -2.64572 0
M  V30 1355 N 131.551 -0.354651 -1.53558 0
M  V30 1356 C 132.8 0.239504 -2.00273 0
M  V30 1357 C 133.113 1.50759 -1.24623 0
M  V30 1358 O 134.319 2.17968 -1.61871 0
M  V30 1359 C 132.775 0.477341 -3.5672 0
M  V30 1360 C 132.383 -0.775488 -4.41237 0
M  V30 1361 C 134.127 1.02975 -4.11821 0
M  V30 1362 C 132.034 -0.507838 -5.89216 0
M  V30 1363 H 130.964 0.0932743 -0.748208 0
M  V30 1364 H 133.615 -0.471701 -1.77334 0
M  V30 1365 H 131.997 1.24953 -3.7577 0
M  V30 1366 H 133.171 -1.54963 -4.33962 0
M  V30 1367 H 131.486 -1.25033 -3.97185 0
M  V30 1368 H 134.083 1.24513 -5.2 0
M  V30 1369 H 134.426 1.98862 -3.65731 0
M  V30 1370 H 134.959 0.317994 -3.96527 0
M  V30 1371 H 131.698 -1.43674 -6.39561 0
M  V30 1372 H 131.218 0.228011 -5.99366 0
M  V30 1373 H 132.897 -0.129238 -6.46871 0
M  V30 1374 N 133.029 1.57378 -0.0835403 0
M  V30 1375 C 133.976 2.13384 0.879539 0
M  V30 1376 C 134.946 1.04936 1.28754 0
M  V30 1377 O 136.131 1.32662 1.37133 0
M  V30 1378 C 133.271 2.70932 2.13752 0
M  V30 1379 C 132.384 3.93575 1.7811 0
M  V30 1380 C 131.519 4.39326 2.98607 0
M  V30 1381 C 130.558 5.54587 2.59037 0
M  V30 1382 N 129.695 5.95243 3.72331 0
M  V30 1383 H 134.535 2.9537 0.395076 0
M  V30 1384 H 132.072 1.45953 0.183349 0
M  V30 1385 H 134.03 3.02411 2.87408 0
M  V30 1386 H 132.66 1.91693 2.59718 0
M  V30 1387 H 131.712 3.68483 0.94469 0
M  V30 1388 H 133.024 4.77258 1.45005 0
M  V30 1389 H 132.178 4.72528 3.80529 0
M  V30 1390 H 130.917 3.5452 3.34913 0
M  V30 1391 H 129.922 5.21024 1.75539 0
M  V30 1392 H 131.147 6.41133 2.23887 0
M  V30 1393 H 129.093 5.13385 4.08378 0
M  V30 1394 H 129.01 6.73694 3.43034 0
M  V30 1395 H 130.278 6.33072 4.54797 0
M  V30 1396 N 134.507 -0.190092 1.56449 0
M  V30 1397 C 135.755 -0.907908 1.80559 0
M  V30 1398 C 136.076 -1.83583 0.657438 0
M  V30 1399 O 135.346 -1.93203 -0.323924 0
M  V30 1400 H 133.926 -0.338247 0.666032 0
M  V30 1401 H 136.588 -0.194403 1.93928 0
M  V30 1402 H 135.684 -1.49604 2.73907 0
M  V30 1403 N 135.985 -1.50799 -0.457987 0
M  V30 1404 C 136.895 -1.73426 -1.57989 0
M  V30 1405 C 137.911 -0.617745 -1.62665 0
M  V30 1406 O 139.087 -0.897614 -1.80291 0
M  V30 1407 C 136.152 -1.83557 -2.94122 0
M  V30 1408 C 135.213 -3.07345 -2.99729 0
M  V30 1409 C 134.446 -3.16983 -4.29368 0
M  V30 1410 O 134.669 -2.33077 -5.20607 0
M  V30 1411 O 133.603 -4.09812 -4.40837 0
M  V30 1412 H 137.429 -2.68555 -1.41817 0
M  V30 1413 H 135.014 -1.35052 -0.638859 0
M  V30 1414 H 136.896 -1.92326 -3.74952 0
M  V30 1415 H 135.571 -0.916137 -3.10465 0
M  V30 1416 H 134.478 -3.04068 -2.1793 0
M  V30 1417 H 135.811 -3.9891 -2.88326 0
M  V30 1418 N 137.463 0.71206 -1.40597 0
M  V30 1419 C 138.74 1.46536 -1.29563 0
M  V30 1420 C 139.12 2.10931 0.0844217 0
M  V30 1421 O 138.468 2.00418 1.0975 0
M  V30 1422 C 138.678 2.49821 -2.43701 0
M  V30 1423 C 140.026 3.15551 -2.841 0
M  V30 1424 O 141.05 2.60142 -2.4332 0
M  V30 1425 O 139.909 4.15867 -3.54566 0
M  V30 1426 H 137.003 0.651801 -0.509004 0
M  V30 1427 H 139.549 0.743935 -1.52524 0
M  V30 1428 H 138.321 2.00778 -3.35863 0
M  V30 1429 H 137.944 3.29495 -2.22528 0
M  V30 1430 N 138.941 1.26152 0.944643 0
M  V30 1431 C 139.851 1.09176 2.07648 0
M  V30 1432 C 140.867 0.0261935 1.7398 0
M  V30 1433 O 142.043 0.229208 2.00091 0
M  V30 1434 C 139.108 0.722915 3.39079 0
M  V30 1435 C 138.169 1.86752 3.86552 0
M  V30 1436 C 137.402 1.51617 5.11711 0
M  V30 1437 O 137.625 0.416331 5.68879 0
M  V30 1438 O 136.559 2.34975 5.54139 0
M  V30 1439 H 140.385 2.0412 2.24875 0
M  V30 1440 H 137.97 1.05182 1.061 0
M  V30 1441 H 139.852 0.529787 4.18056 0
M  V30 1442 H 138.527 -0.197159 3.23099 0
M  V30 1443 H 137.434 2.11558 3.08535 0
M  V30 1444 H 138.767 2.76719 4.07047 0
M  V30 1445 N 140.419 -1.14872 1.07899 0
M  V30 1446 C 141.644 -1.90202 0.826926 0
M  V30 1447 C 142.069 -1.77774 -0.614664 0
M  V30 1448 O 141.427 -1.11431 -1.43013 0
M  V30 1449 C 141.475 -3.38352 1.24702 0
M  V30 1450 O 140.579 -4.10497 0.39575 0
M  V30 1451 H 139.92 -0.591968 0.300782 0
M  V30 1452 H 142.45 -1.45437 1.43907 0
M  V30 1453 H 142.46 -3.89156 1.22563 0
M  V30 1454 H 141.135 -3.46715 2.29698 0
M  V30 1455 H 139.712 -3.69796 0.480117 0
M  V30 1456 N 141.898 -0.863906 -1.31812 0
M  V30 1457 C 143.144 -0.481841 -1.9761 0
M  V30 1458 C 143.499 0.954048 -1.6708 0
M  V30 1459 O 142.792 1.66182 -0.953624 0
M  V30 1460 C 142.986 -0.668547 -3.51091 0
M  V30 1461 C 142.815 -2.12103 -3.96538 0
M  V30 1462 C 141.585 -2.76141 -4.23171 0
M  V30 1463 C 143.783 -3.09265 -4.10925 0
M  V30 1464 N 141.765 -4.12205 -4.54929 0
M  V30 1465 C 143.136 -4.30341 -4.46326 0
M  V30 1466 C 145.191 -3.05337 -3.93286 0
M  V30 1467 C 143.894 -5.48 -4.65928 0
M  V30 1468 C 145.92 -4.22248 -4.14078 0
M  V30 1469 C 145.282 -5.42085 -4.49804 0
M  V30 1470 H 141.381 -0.225238 -0.74886 0
M  V30 1471 H 143.965 -1.11723 -1.59455 0
M  V30 1472 H 142.136 -0.0627898 -3.88349 0
M  V30 1473 H 143.868 -0.255467 -4.03893 0
M  V30 1474 H 140.623 -2.27125 -4.15585 0
M  V30 1475 H 141.047 -4.82416 -4.74978 0
M  V30 1476 H 145.689 -2.138 -3.64759 0
M  V30 1477 H 143.407 -6.40059 -4.93305 0
M  V30 1478 H 146.993 -4.20654 -4.01922 0
M  V30 1479 H 145.873 -6.31044 -4.65567 0
M  V30 1480 N 143.376 1.44774 -0.622745 0
M  V30 1481 C 144.653 1.95522 -0.0551974 0
M  V30 1482 C 145.033 1.5649 1.41683 0
M  V30 1483 O 144.381 0.834848 2.12703 0
M  V30 1484 C 144.591 3.4796 -0.269242 0
M  V30 1485 C 145.939 4.24306 -0.158014 0
M  V30 1486 O 146.963 3.55637 -0.200162 0
M  V30 1487 O 145.822 5.46471 -0.0558693 0
M  V30 1488 H 142.916 0.826556 0.0271015 0
M  V30 1489 H 145.462 1.54866 -0.693864 0
M  V30 1490 H 144.234 3.6939 -1.29099 0
M  V30 1491 H 143.857 3.95543 0.403966 0
M  V30 1492 N 144.854 0.36279 1.53368 0
M  V30 1493 C 146.101 -0.227776 2.01215 0
M  V30 1494 C 146.429 -1.49003 1.25014 0
M  V30 1495 O 145.684 -1.92876 0.331236 0
M  V30 1496 C 145.983 -0.568417 3.52851 0
M  V30 1497 C 145.649 0.59918 4.46901 0
M  V30 1498 C 144.311 0.919559 4.72332 0
M  V30 1499 C 146.663 1.38156 5.02556 0
M  V30 1500 C 143.991 2.02434 5.5067 0
M  V30 1501 C 146.343 2.47674 5.821 0
M  V30 1502 C 145.007 2.8025 6.05819 0
M  V30 1503 H 144.277 -0.083349 0.736297 0
M  V30 1504 H 146.924 0.494677 1.85001 0
M  V30 1505 H 145.229 -1.37185 3.66998 0
M  V30 1506 H 146.926 -1.03756 3.87344 0
M  V30 1507 H 143.516 0.339437 4.27254 0
M  V30 1508 H 147.7 1.14729 4.82857 0
M  V30 1509 H 142.956 2.28075 5.67267 0
M  V30 1510 H 147.13 3.08716 6.24234 0
M  V30 1511 H 144.757 3.65979 6.66306 0
M  V30 1512 N 146.332 -1.57332 0.0918853 0
M  V30 1513 C 147.58 -1.93853 -0.571446 0
M  V30 1514 C 147.901 -0.974212 -1.6892 0
M  V30 1515 O 147.171 -0.0257254 -1.95883 0
M  V30 1516 H 145.751 -0.715666 -0.214082 0
M  V30 1517 H 148.413 -1.94287 0.154464 0
M  V30 1518 H 147.509 -2.96191 -0.983729 0
M  V30 1519 N 147.81 0.181792 -1.56548 0
M  V30 1520 C 149.038 0.915947 -1.85521 0
M  V30 1521 C 149.453 1.76282 -0.676016 0
M  V30 1522 O 148.81 1.79012 0.355077 0
M  V30 1523 C 148.861 1.80126 -3.13427 0
M  V30 1524 O 148.582 0.988562 -4.26801 0
M  V30 1525 C 150.083 2.64597 -3.55673 0
M  V30 1526 H 147.303 0.26661 -0.61576 0
M  V30 1527 H 149.847 0.185039 -2.03661 0
M  V30 1528 H 148.002 2.48563 -2.97145 0
M  V30 1529 H 148.416 1.59308 -4.99721 0
M  V30 1530 H 149.89 3.2235 -4.48101 0
M  V30 1531 H 150.367 3.38958 -2.79292 0
M  V30 1532 H 150.973 2.0151 -3.74532 0
M  V30 1533 N 149.288 1.51039 0.449983 0
M  V30 1534 C 150.536 1.62759 1.19808 0
M  V30 1535 C 150.857 0.339981 1.92013 0
M  V30 1536 O 150.127 -0.643606 1.85026 0
M  V30 1537 H 148.707 0.599811 0.445237 0
M  V30 1538 H 151.369 1.87914 0.517138 0
M  V30 1539 H 150.465 2.44911 1.93455 0
M  V30 1540 N 150.766 -0.704594 1.40972 0
M  V30 1541 C 151.729 -1.80035 1.41845 0
M  V30 1542 C 152.729 -1.57774 0.310474 0
M  V30 1543 O 153.919 -1.64613 0.56992 0
M  V30 1544 C 151.051 -3.18284 1.22098 0
M  V30 1545 H 152.244 -1.80658 2.3938 0
M  V30 1546 H 149.797 -0.911329 1.26982 0
M  V30 1547 H 150.532 -3.23306 0.253672 0
M  V30 1548 H 150.317 -3.35843 2.02366 0
M  V30 1549 H 151.807 -3.98289 1.25522 0
M  V30 1550 N 152.244 -1.26651 -0.937939 0
M  V30 1551 C 153.492 -1.12165 -1.68118 0
M  V30 1552 C 153.813 0.334983 -1.92101 0
M  V30 1553 O 153.083 1.23583 -1.52 0
M  V30 1554 H 151.663 -0.412093 -0.623048 0
M  V30 1555 H 154.325 -1.59027 -1.12678 0
M  V30 1556 H 153.421 -1.64289 -2.6536 0
M  V30 1557 N 153.722 1.14298 -1.08507 0
M  V30 1558 C 154.969 1.85359 -0.815373 0
M  V30 1559 C 155.297 1.83001 0.658865 0
M  V30 1560 O 154.552 1.25655 1.50031 0
M  V30 1561 C 154.851 3.33547 -1.28379 0
M  V30 1562 C 154.517 3.56093 -2.76602 0
M  V30 1563 C 153.179 3.61955 -3.17084 0
M  V30 1564 C 155.531 3.64834 -3.72217 0
M  V30 1565 C 152.859 3.74082 -4.51973 0
M  V30 1566 C 155.211 3.78487 -5.06883 0
M  V30 1567 C 153.875 3.82598 -5.46969 0
M  V30 1568 H 153.145 0.678276 -0.298366 0
M  V30 1569 H 155.792 1.35002 -1.35819 0
M  V30 1570 H 154.097 3.86191 -0.660593 0
M  V30 1571 H 155.794 3.86959 -1.05186 0
M  V30 1572 H 152.384 3.52179 -2.4427 0
M  V30 1573 H 156.568 3.59595 -3.42061 0
M  V30 1574 H 151.824 3.75527 -4.82483 0
M  V30 1575 H 155.998 3.84193 -5.80834 0
M  V30 1576 H 153.625 3.91747 -6.51489 0
M  V30 1577 N 155.201 0.870884 1.31352 0
M  V30 1578 C 156.431 0.496049 2.00557 0
M  V30 1579 C 156.839 -0.916241 1.65534 0
M  V30 1580 O 156.182 -1.61188 0.881134 0
M  V30 1581 C 156.244 0.574418 3.54881 0
M  V30 1582 C 155.908 1.94849 4.1338 0
M  V30 1583 C 156.905 2.91611 4.30417 0
M  V30 1584 C 154.59 2.25005 4.49086 0
M  V30 1585 C 156.584 4.16672 4.82352 0
M  V30 1586 C 154.271 3.50315 5.00722 0
M  V30 1587 C 155.269 4.45964 5.17306 0
M  V30 1588 O 154.957 5.69052 5.67833 0
M  V30 1589 H 154.689 0.191664 0.64826 0
M  V30 1590 H 157.243 1.17409 1.68536 0
M  V30 1591 H 155.473 -0.160549 3.86367 0
M  V30 1592 H 157.162 0.212879 4.05341 0
M  V30 1593 H 157.928 2.69622 4.03149 0
M  V30 1594 H 153.807 1.51332 4.35453 0
M  V30 1595 H 157.351 4.91336 4.95211 0
M  V30 1596 H 153.248 3.72147 5.27424 0
M  V30 1597 H 154.016 5.71236 5.86201 0
M  V30 1598 N 156.679 -1.44442 0.630414 0
M  V30 1599 C 157.925 -2.02351 0.134816 0
M  V30 1600 C 158.258 -1.4947 -1.23986 0
M  V30 1601 O 157.533 -0.678475 -1.82283 0
M  V30 1602 C 157.816 -3.59898 0.120707 0
M  V30 1603 C 157.669 -4.23063 1.52767 0
M  V30 1604 C 158.988 -4.36585 -0.555127 0
M  V30 1605 H 156.107 -0.73527 0.0504646 0
M  V30 1606 H 158.749 -1.72022 0.806751 0
M  V30 1607 H 156.899 -3.85868 -0.451477 0
M  V30 1608 H 158.571 -4.08202 2.14869 0
M  V30 1609 H 156.814 -3.80586 2.08175 0
M  V30 1610 H 157.485 -5.32071 1.46984 0
M  V30 1611 H 159.961 -4.16044 -0.0685429 0
M  V30 1612 H 158.837 -5.46294 -0.534185 0
M  V30 1613 H 159.098 -4.11138 -1.62535 0
M  V30 1614 N 158.157 -0.370918 -1.53173 0
M  V30 1615 C 159.434 0.273754 -1.93675 0
M  V30 1616 C 159.814 1.65938 -1.3049 0
M  V30 1617 O 159.162 2.23698 -0.465999 0
M  V30 1618 C 159.372 0.318602 -3.47543 0
M  V30 1619 C 160.72 0.556392 -4.20939 0
M  V30 1620 O 161.744 0.399587 -3.53952 0
M  V30 1621 O 160.603 0.862133 -5.39657 0
M  V30 1622 H 157.697 0.165448 -0.810281 0
M  V30 1623 H 160.243 -0.42409 -1.64315 0
M  V30 1624 H 159.015 -0.652687 -3.85818 0
M  V30 1625 H 158.638 1.06212 -3.83151 0
M  V30 1626 N 159.635 1.57281 -0.100228 0
M  V30 1627 C 160.598 2.13158 0.842398 0
M  V30 1628 C 161.598 1.06202 1.20738 0
M  V30 1629 O 162.788 1.32066 1.13597 0
M  V30 1630 C 159.92 2.65639 2.13655 0
M  V30 1631 H 161.113 2.97766 0.357114 0
M  V30 1632 H 158.666 1.5559 0.148823 0
M  V30 1633 H 159.401 1.84566 2.66657 0
M  V30 1634 H 159.186 3.43844 1.88451 0
M  V30 1635 H 160.676 3.08846 2.81077 0
M  V30 1636 N 161.113 -0.173488 1.56642 0
M  V30 1637 C 162.341 -0.906095 1.86004 0
M  V30 1638 C 162.756 -1.75921 0.685355 0
M  V30 1639 O 162.113 -1.79198 -0.345578 0
M  V30 1640 C 162.164 -1.78462 3.14378 0
M  V30 1641 O 161.885 -0.965914 4.27319 0
M  V30 1642 C 163.386 -2.62707 3.57071 0
M  V30 1643 H 160.606 -0.263341 0.617165 0
M  V30 1644 H 163.15 -0.174236 2.03756 0
M  V30 1645 H 161.305 -2.46984 2.98459 0
M  V30 1646 H 161.719 -1.56655 5.00559 0
M  V30 1647 H 163.193 -3.19969 4.49804 0
M  V30 1648 H 163.67 -3.37472 2.81086 0
M  V30 1649 H 164.276 -1.99521 3.75595 0
M  V30 1650 N 162.591 -1.51276 -0.441967 0
M  V30 1651 C 163.501 -1.75092 -1.56141 0
M  V30 1652 C 164.517 -0.634963 -1.62001 0
M  V30 1653 O 165.693 -0.916686 -1.79329 0
M  V30 1654 C 162.758 -1.86666 -2.92158 0
M  V30 1655 C 161.819 -3.10506 -2.96453 0
M  V30 1656 C 161.052 -3.21519 -4.25982 0
M  V30 1657 O 161.275 -2.38586 -5.18105 0
M  V30 1658 O 160.209 -4.14465 -4.36466 0
M  V30 1659 H 164.035 -2.70044 -1.38961 0
M  V30 1660 H 161.62 -1.35722 -0.624499 0
M  V30 1661 H 163.502 -1.96292 -3.72891 0
M  V30 1662 H 162.177 -0.949014 -3.09476 0
M  V30 1663 H 161.084 -3.06363 -2.14692 0
M  V30 1664 H 162.417 -4.01945 -2.84079 0
M  V30 1665 N 164.069 0.697108 -1.41344 0
M  V30 1666 C 165.346 1.45154 -1.31109 0
M  V30 1667 C 165.726 2.11009 0.0620449 0
M  V30 1668 O 165.074 2.01571 1.07618 0
M  V30 1669 C 165.284 2.47223 -2.46337 0
M  V30 1670 C 166.632 3.1252 -2.87431 0
M  V30 1671 O 167.656 2.57547 -2.46065 0
M  V30 1672 O 166.515 4.12083 -3.58957 0
M  V30 1673 H 163.609 0.646365 -0.515889 0
M  V30 1674 H 166.155 0.727716 -1.53305 0
M  V30 1675 H 164.927 1.97204 -3.37974 0
M  V30 1676 H 164.55 3.27116 -2.2601 0
M  V30 1677 N 165.547 1.27147 0.931209 0
M  V30 1678 C 166.958 1.12044 1.49342 0
M  V30 1679 C 167.309 -0.295795 1.93957 0
M  V30 1680 O 166.434 -1.18835 1.80852 0
M  V30 1681 C 167.029 2.02781 2.71414 0
M  V30 1682 C 165.588 1.91794 3.2387 0
M  V30 1683 C 164.735 1.95543 1.96617 0
M  V30 1684 H 167.686 1.40091 0.745672 0
M  V30 1685 H 167.707 1.58156 3.46074 0
M  V30 1686 H 167.219 3.05848 2.38911 0
M  V30 1687 H 165.32 0.916992 3.6114 0
M  V30 1688 H 165.433 2.77852 3.90302 0
M  V30 1689 H 163.797 1.39722 2.12955 0
M  V30 1690 H 164.58 3.00259 1.66432 0
M  V30 1691 N 167.025 -1.13721 1.09112 0
M  V30 1692 C 168.271 -1.85413 0.836283 0
M  V30 1693 C 168.626 -1.8175 -0.631249 0
M  V30 1694 O 167.919 -1.24238 -1.45861 0
M  V30 1695 C 168.113 -3.32861 1.30146 0
M  V30 1696 C 167.942 -3.50882 2.81268 0
M  V30 1697 C 166.712 -3.65312 3.49106 0
M  V30 1698 C 168.91 -3.47196 3.7942 0
M  V30 1699 N 166.892 -3.71563 4.88686 0
M  V30 1700 C 168.263 -3.59777 5.04936 0
M  V30 1701 C 170.318 -3.30577 3.72321 0
M  V30 1702 C 169.021 -3.57455 6.24194 0
M  V30 1703 C 171.047 -3.29562 4.91063 0
M  V30 1704 C 170.409 -3.42691 6.15421 0
M  V30 1705 H 166.508 -0.694812 0.358832 0
M  V30 1706 H 169.092 -1.36246 1.39087 0
M  V30 1707 H 167.263 -3.80602 0.774361 0
M  V30 1708 H 168.995 -3.92346 0.99229 0
M  V30 1709 H 165.75 -3.6685 2.9953 0
M  V30 1710 H 166.174 -3.78387 5.61384 0
M  V30 1711 H 170.816 -3.19332 2.77105 0
M  V30 1712 H 168.534 -3.67475 7.19714 0
M  V30 1713 H 172.12 -3.17905 4.87266 0
M  V30 1714 H 171 -3.41862 7.05762 0
M  V30 1715 N 168.503 -0.877838 -1.30888 0
M  V30 1716 C 169.45 -0.337538 -2.28318 0
M  V30 1717 C 170.42 0.568346 -1.56074 0
M  V30 1718 O 171.605 0.498298 -1.84178 0
M  V30 1719 C 168.745 0.448142 -3.42178 0
M  V30 1720 C 167.858 -0.48615 -4.29256 0
M  V30 1721 C 166.993 0.314427 -5.30269 0
M  V30 1722 C 166.032 -0.615791 -6.08995 0
M  V30 1723 N 165.169 0.14902 -7.01942 0
M  V30 1724 H 170.009 -1.17356 -2.73919 0
M  V30 1725 H 167.546 -0.590094 -1.34745 0
M  V30 1726 H 169.504 0.919517 -4.06941 0
M  V30 1727 H 168.134 1.24879 -2.97666 0
M  V30 1728 H 167.186 -1.076 -3.64865 0
M  V30 1729 H 168.498 -1.19909 -4.84173 0
M  V30 1730 H 167.652 0.847969 -6.00745 0
M  V30 1731 H 166.391 1.06062 -4.76027 0
M  V30 1732 H 165.396 -1.16102 -5.37401 0
M  V30 1733 H 166.621 -1.36097 -6.65323 0
M  V30 1734 H 164.567 0.877884 -6.50099 0
M  V30 1735 H 164.484 -0.504433 -7.54315 0
M  V30 1736 H 165.752 0.663537 -7.76671 0
M  V30 1737 N 169.982 1.44106 -0.638065 0
M  V30 1738 C 171.21 2.06336 -0.152615 0
M  V30 1739 C 171.625 1.47731 1.17563 0
M  V30 1740 O 170.982 0.602806 1.72257 0
M  V30 1741 C 171.033 3.61479 -0.0391491 0
M  V30 1742 O 170.754 4.17903 -1.31487 0
M  V30 1743 C 172.255 4.40757 0.474176 0
M  V30 1744 H 169.475 0.665862 -0.0828776 0
M  V30 1745 H 172.019 1.84862 -0.87443 0
M  V30 1746 H 170.174 3.82191 0.633142 0
M  V30 1747 H 170.588 5.11416 -1.16421 0
M  V30 1748 H 172.062 5.49707 0.502562 0
M  V30 1749 H 172.539 4.12697 1.50258 0
M  V30 1750 H 173.145 4.24979 -0.165102 0
M  V30 1751 N 171.46 0.379036 1.52974 0
M  V30 1752 C 172.408 -0.476033 2.27677 0
M  V30 1753 C 173.402 -1.0719 1.31174 0
M  V30 1754 O 174.608 -1.01355 1.48752 0
M  V30 1755 H 170.983 -0.172255 0.732006 0
M  V30 1756 H 172.954 0.175615 2.97883 0
M  V30 1757 C 171.703 -1.5967 3.0887 0
M  V30 1758 H 171.026 -1.1475 3.82978 0
M  V30 1759 H 172.466 -2.16943 3.64296 0
M  V30 1760 C 170.925 -2.54682 2.20542 0
M  V30 1761 O 171.455 -3.57836 1.82527 0
M  V30 1762 N 169.661 -2.24183 1.84907 0
M  V30 1763 H 169.208 -1.40333 2.1602 0
M  V30 1764 H 169.166 -2.88006 1.26096 0
M  V30 1765 N 172.938 -1.57226 0.108567 0
M  V30 1766 C 174.168 -1.9889 -0.559142 0
M  V30 1767 C 174.576 -0.986889 -1.61422 0
M  V30 1768 O 173.919 0.0298705 -1.83676 0
M  V30 1769 C 173.981 -3.36952 -1.25315 0
M  V30 1770 C 173.645 -4.55679 -0.347248 0
M  V30 1771 C 174.642 -5.18281 0.409996 0
M  V30 1772 C 172.327 -5.0162 -0.261367 0
M  V30 1773 C 174.321 -6.25203 1.24096 0
M  V30 1774 C 172.008 -6.08405 0.573238 0
M  V30 1775 C 173.006 -6.70063 1.32304 0
M  V30 1776 O 172.694 -7.74788 2.14381 0
M  V30 1777 H 172.426 -0.658343 -0.153492 0
M  V30 1778 H 174.98 -2.04532 0.188584 0
M  V30 1779 H 173.21 -3.28032 -2.04773 0
M  V30 1780 H 174.899 -3.62974 -1.81673 0
M  V30 1781 H 175.665 -4.8371 0.353457 0
M  V30 1782 H 171.544 -4.53381 -0.834656 0
M  V30 1783 H 175.088 -6.73259 1.82669 0
M  V30 1784 H 170.985 -6.42406 0.631208 0
M  V30 1785 H 171.753 -7.91837 2.07209 0
M  V30 1786 N 174.416 0.165178 -1.56732 0
M  V30 1787 C 175.832 0.517174 -1.50988 0
M  V30 1788 C 176.032 1.84331 -0.813894 0
M  V30 1789 O 175.088 2.49672 -0.37682 0
M  V30 1790 C 176.401 0.544261 -2.95733 0
M  V30 1791 C 177.949 0.631039 -3.06573 0
M  V30 1792 C 178.424 0.68896 -4.52788 0
M  V30 1793 N 179.915 0.751683 -4.5706 0
M  V30 1794 C 180.65 0.817177 -5.67547 0
M  V30 1795 N 180.146 0.843129 -6.8765 0
M  V30 1796 N 181.939 0.856668 -5.55534 0
M  V30 1797 H 174.09 -0.704318 -2.00382 0
M  V30 1798 H 176.353 -0.254687 -0.913148 0
M  V30 1799 H 176.059 -0.361607 -3.49836 0
M  V30 1800 H 175.933 1.3886 -3.5071 0
M  V30 1801 H 178.32 1.52733 -2.52501 0
M  V30 1802 H 178.401 -0.240095 -2.54671 0
M  V30 1803 H 178.045 -0.2031 -5.07494 0
M  V30 1804 H 177.975 1.57633 -5.02454 0
M  V30 1805 H 180.466 0.739661 -3.70591 0
M  V30 1806 H 180.779 0.894448 -7.67606 0
M  V30 1807 H 179.124 0.811304 -6.90248 0
M  V30 1808 H 182.315 0.833437 -4.60621 0
M  V30 1809 H 182.488 0.904247 -6.4166 0
M  V30 1810 N 175.894 1.51508 0.433938 0
M  V30 1811 C 176.827 1.67756 1.54704 0
M  V30 1812 C 177.805 0.525127 1.53887 0
M  V30 1813 O 178.989 0.749393 1.72963 0
M  V30 1814 C 176.116 1.69424 2.9328 0
M  V30 1815 C 175.162 2.90673 3.12108 0
M  V30 1816 S 175.995 4.51431 2.88046 0
M  V30 1817 C 177.151 4.55849 4.28897 0
M  V30 1818 H 177.384 2.61904 1.40689 0
M  V30 1819 H 174.917 1.41235 0.62386 0
M  V30 1820 H 176.875 1.7107 3.73156 0
M  V30 1821 H 175.536 0.764464 3.04655 0
M  V30 1822 H 174.729 2.88251 4.13434 0
M  V30 1823 H 174.331 2.86786 2.40062 0
M  V30 1824 H 176.623 4.31699 5.22152 0
M  V30 1825 H 177.566 5.57676 4.36351 0
M  V30 1826 H 177.974 3.85137 4.12711 0
M  V30 1827 N 177.372 -0.689602 1.41712 0
M  V30 1828 C 178.602 -1.47613 1.44548 0
M  V30 1829 C 179.01 -1.89132 0.0509034 0
M  V30 1830 O 178.353 -1.57741 -0.94146 0
M  V30 1831 C 178.415 -2.76596 2.2964 0
M  V30 1832 C 178.079 -2.57245 3.77722 0
M  V30 1833 C 179.076 -2.22804 4.69739 0
M  V30 1834 C 176.761 -2.727 4.2183 0
M  V30 1835 C 178.755 -2.04064 6.03851 0
M  V30 1836 C 176.442 -2.53576 5.56006 0
M  V30 1837 C 177.44 -2.1931 6.46832 0
M  V30 1838 O 177.128 -2.00359 7.78532 0
M  V30 1839 H 176.86 -0.461227 0.494212 0
M  V30 1840 H 179.414 -0.856045 1.86711 0
M  V30 1841 H 177.644 -3.41033 1.82301 0
M  V30 1842 H 179.333 -3.38424 2.24107 0
M  V30 1843 H 180.099 -2.10473 4.36951 0
M  V30 1844 H 175.978 -2.98353 3.51435 0
M  V30 1845 H 179.522 -1.77241 6.74708 0
M  V30 1846 H 175.419 -2.65499 5.88371 0
M  V30 1847 H 176.187 -2.15075 7.89737 0
M  V30 1848 N 178.85 -1.27639 -0.924453 0
M  V30 1849 C 180.075 -1.17101 -1.71179 0
M  V30 1850 C 180.5 0.268134 -1.86179 0
M  V30 1851 O 179.858 1.19415 -1.36418 0
M  V30 1852 C 179.906 -1.86313 -3.08739 0
M  V30 1853 O 179.01 -1.16331 -3.95652 0
M  V30 1854 H 178.351 -0.407091 -0.524569 0
M  V30 1855 H 180.881 -1.68767 -1.15666 0
M  V30 1856 H 180.891 -1.938 -3.59034 0
M  V30 1857 H 179.566 -2.91001 -2.97138 0
M  V30 1858 H 178.143 -1.16935 -3.54091 0
M  V30 1859 N 180.328 1.1314 -1.09713 0
M  V30 1860 C 181.558 1.88048 -0.855656 0
M  V30 1861 C 181.966 1.79537 0.596919 0
M  V30 1862 O 181.309 1.16196 1.42282 0
M  V30 1863 C 181.371 3.38314 -1.21589 0
M  V30 1864 C 181.035 3.70605 -2.67397 0
M  V30 1865 C 182.032 3.69596 -3.65643 0
M  V30 1866 C 179.717 4.0017 -3.03593 0
M  V30 1867 C 181.711 3.977 -4.9811 0
M  V30 1868 C 179.398 4.27935 -4.36251 0
M  V30 1869 C 180.396 4.26685 -5.33318 0
M  V30 1870 O 180.084 4.53767 -6.63589 0
M  V30 1871 H 179.816 0.60208 -0.307368 0
M  V30 1872 H 182.37 1.44128 -1.46343 0
M  V30 1873 H 180.6 3.82752 -0.551177 0
M  V30 1874 H 182.289 3.94552 -0.953083 0
M  V30 1875 H 183.055 3.46826 -3.39023 0
M  V30 1876 H 178.934 4.00289 -2.2867 0
M  V30 1877 H 182.478 3.9664 -5.73866 0
M  V30 1878 H 178.375 4.50178 -4.62613 0
M  V30 1879 H 179.143 4.71422 -6.69107 0
M  V30 1880 N 181.806 0.884767 1.30421 0
M  V30 1881 C 183.052 0.503851 1.96441 0
M  V30 1882 C 183.385 -0.944518 1.69684 0
M  V30 1883 O 182.66 -1.66737 1.00145 0
M  V30 1884 C 182.943 0.779085 3.51571 0
M  V30 1885 C 182.796 2.27807 3.87846 0
M  V30 1886 C 184.115 0.255452 4.39358 0
M  V30 1887 H 181.234 0.184533 0.713524 0
M  V30 1888 H 183.876 1.10872 1.54297 0
M  V30 1889 H 182.026 0.264274 3.876 0
M  V30 1890 H 183.698 2.86127 3.61841 0
M  V30 1891 H 181.941 2.74479 3.35922 0
M  V30 1892 H 182.612 2.42125 4.96064 0
M  V30 1893 H 185.088 0.696079 4.10236 0
M  V30 1894 H 183.964 0.477361 5.4682 0
M  V30 1895 H 184.225 -0.843293 4.33983 0
M  V30 1896 N 183.284 -1.43765 0.645699 0
M  V30 1897 C 184.512 -2.06253 0.163556 0
M  V30 1898 C 184.927 -1.48352 -1.16778 0
M  V30 1899 O 184.284 -0.611932 -1.71935 0
M  V30 1900 C 184.335 -3.61453 0.0583186 0
M  V30 1901 O 184.056 -4.172 1.33702 0
M  V30 1902 C 185.557 -4.41002 -0.450795 0
M  V30 1903 H 182.777 -0.665413 0.0864077 0
M  V30 1904 H 185.321 -1.84396 0.884222 0
M  V30 1905 H 183.476 -3.82522 -0.612865 0
M  V30 1906 H 183.89 -5.10791 1.19131 0
M  V30 1907 H 185.364 -5.49966 -0.473403 0
M  V30 1908 H 185.841 -4.13488 -1.48068 0
M  V30 1909 H 186.447 -4.24886 0.187637 0
M  V30 1910 N 184.763 -0.387143 -1.52771 0
M  V30 1911 C 185.673 0.456442 -2.30117 0
M  V30 1912 C 186.689 1.07342 -1.36944 0
M  V30 1913 O 187.865 1.07971 -1.70013 0
M  V30 1914 C 184.93 1.56957 -3.09136 0
M  V30 1915 C 183.991 0.977916 -4.18014 0
M  V30 1916 C 183.224 2.038 -4.93256 0
M  V30 1917 O 183.447 3.25271 -4.68567 0
M  V30 1918 O 182.381 1.6565 -5.78657 0
M  V30 1919 H 186.207 -0.17359 -3.03203 0
M  V30 1920 H 183.792 -0.150919 -1.48636 0
M  V30 1921 H 185.674 2.21628 -3.58412 0
M  V30 1922 H 184.349 2.18461 -2.38865 0
M  V30 1923 H 183.256 0.294525 -3.72939 0
M  V30 1924 H 184.589 0.407128 -4.90513 0
M  V30 1925 N 186.241 1.57166 -0.116904 0
M  V30 1926 C 187.151 2.18745 0.847812 0
M  V30 1927 C 188.167 1.163 1.29423 0
M  V30 1928 O 189.343 1.48761 1.35765 0
M  V30 1929 C 186.408 2.77307 2.0809 0
M  V30 1930 C 185.469 3.94781 1.68661 0
M  V30 1931 C 184.702 4.50541 2.86091 0
M  V30 1932 O 184.925 4.05202 4.01456 0
M  V30 1933 O 183.859 5.41256 2.63298 0
M  V30 1934 H 187.685 3.01632 0.353778 0
M  V30 1935 H 185.27 1.49005 0.108599 0
M  V30 1936 H 187.152 3.14647 2.80313 0
M  V30 1937 H 185.827 1.97452 2.56504 0
M  V30 1938 H 184.734 3.62214 0.935518 0
M  V30 1939 H 186.067 4.76065 1.24991 0
M  V30 1940 N 187.719 -0.156864 1.56817 0
M  V30 1941 C 188.649 -1.19589 2.00551 0
M  V30 1942 C 189.63 -1.4536 0.883426 0
M  V30 1943 O 190.815 -1.56449 1.15054 0
M  V30 1944 C 187.945 -2.53143 2.37773 0
M  V30 1945 C 186.899 -2.41913 3.53075 0
M  V30 1946 C 186.225 -3.80088 3.76081 0
M  V30 1947 C 187.525 -1.91157 4.86062 0
M  V30 1948 H 189.219 -0.832293 2.87599 0
M  V30 1949 H 186.765 -0.398918 1.38364 0
M  V30 1950 H 188.718 -3.26047 2.66967 0
M  V30 1951 H 187.442 -2.91319 1.4765 0
M  V30 1952 H 186.101 -1.71462 3.24031 0
M  V30 1953 H 185.749 -4.15683 2.83225 0
M  V30 1954 H 185.449 -3.73439 4.53671 0
M  V30 1955 H 186.973 -4.54556 4.0769 0
M  V30 1956 H 188.387 -2.53846 5.14038 0
M  V30 1957 H 186.784 -1.95422 5.67389 0
M  V30 1958 H 187.854 -0.866673 4.77092 0
M  V30 1959 N 189.197 -1.51736 -0.425897 0
M  V30 1960 C 190.608 -1.5732 -1.00536 0
M  V30 1961 C 190.959 -0.403537 -1.92005 0
M  V30 1962 O 190.084 0.478256 -2.11049 0
M  V30 1963 C 190.679 -2.85119 -1.8301 0
M  V30 1964 C 189.238 -2.93236 -2.35987 0
M  V30 1965 C 188.385 -2.52098 -1.15508 0
M  V30 1966 H 191.336 -1.57348 -0.206739 0
M  V30 1967 H 191.357 -2.69526 -2.68581 0
M  V30 1968 H 190.869 -3.7023 -1.16411 0
M  V30 1969 H 188.97 -2.12581 -3.06007 0
M  V30 1970 H 189.083 -3.9713 -2.68001 0
M  V30 1971 H 187.447 -2.05558 -1.50393 0
M  V30 1972 H 188.23 -3.39565 -0.505014 0
M  V30 1973 N 190.675 0.682077 -1.42076 0
M  V30 1974 C 191.607 1.80755 -1.40926 0
M  V30 1975 C 192.62 1.59833 -0.309398 0
M  V30 1976 O 193.809 1.69087 -0.572014 0
M  V30 1977 C 190.909 3.17744 -1.17865 0
M  V30 1978 C 190.082 3.65578 -2.40149 0
M  V30 1979 C 189.141 4.81277 -2.12742 0
M  V30 1980 O 188.167 4.92197 -2.85887 0
M  V30 1981 N 189.369 5.69474 -1.12602 0
M  V30 1982 H 192.134 1.82229 -2.37935 0
M  V30 1983 H 189.695 0.864903 -1.36861 0
M  V30 1984 H 191.687 3.9279 -0.9746 0
M  V30 1985 H 190.257 3.11214 -0.294068 0
M  V30 1986 H 189.477 2.81291 -2.76169 0
M  V30 1987 H 190.765 3.94278 -3.21593 0
M  V30 1988 H 190.163 5.63297 -0.520899 0
M  V30 1989 H 188.72 6.44363 -0.981842 0
M  V30 1990 N 192.153 1.28127 0.917671 0
M  V30 1991 C 193.083 1.14248 2.03641 0
M  V30 1992 C 194.064 0.0412748 1.7005 0
M  V30 1993 O 195.249 0.217566 1.92977 0
M  V30 1994 C 192.379 0.799431 3.37974 0
M  V30 1995 C 191.333 1.85497 3.85713 0
M  V30 1996 C 190.659 1.36565 5.16966 0
M  V30 1997 C 191.959 3.26085 4.08002 0
M  V30 1998 H 193.653 2.07835 2.15511 0
M  V30 1999 H 191.199 1.00064 1.03553 0
M  V30 2000 H 193.152 0.689114 4.15727 0
M  V30 2001 H 191.876 -0.172145 3.26146 0
M  V30 2002 H 190.535 1.95437 3.10161 0
M  V30 2003 H 190.183 0.383253 5.01538 0
M  V30 2004 H 189.883 2.07143 5.49878 0
M  V30 2005 H 191.407 1.26848 5.97279 0
M  V30 2006 H 192.821 3.19089 4.76293 0
M  V30 2007 H 191.218 3.94462 4.52238 0
M  V30 2008 H 192.288 3.70394 3.12948 0
M  V30 2009 N 193.631 -1.12557 1.10312 0
M  V30 2010 C 194.88 -1.83395 0.839588 0
M  V30 2011 C 195.193 -1.84939 -0.636929 0
M  V30 2012 O 196.399 -2.51761 -1.01631 0
M  V30 2013 C 194.855 -3.29303 1.45215 0
M  V30 2014 C 194.463 -3.36122 2.96186 0
M  V30 2015 C 196.207 -4.05121 1.26796 0
M  V30 2016 C 194.114 -4.76357 3.50483 0
M  V30 2017 H 193.044 -0.687133 0.310425 0
M  V30 2018 H 195.695 -1.26746 1.32694 0
M  V30 2019 H 194.077 -3.85812 0.892469 0
M  V30 2020 H 195.251 -2.89559 3.58458 0
M  V30 2021 H 193.566 -2.73776 3.13745 0
M  V30 2022 H 196.163 -5.08668 1.64806 0
M  V30 2023 H 196.506 -4.15773 0.209409 0
M  V30 2024 H 197.039 -3.54967 1.79563 0
M  V30 2025 H 193.778 -4.70899 4.55998 0
M  V30 2026 H 193.298 -5.23377 2.92978 0
M  V30 2027 H 194.977 -5.45294 3.48228 0
M  V30 2028 N 195.109 -0.891671 -1.2995 0
M  V30 2029 C 196.057 -0.353066 -2.29905 0
M  V30 2030 C 197.051 0.543509 -1.60444 0
M  V30 2031 O 198.257 0.4272 -1.74857 0
M  V30 2032 H 194.632 -0.095531 -0.745907 0
M  V30 2033 H 196.603 -1.20961 -2.72784 0
M  V30 2034 C 195.352 0.411475 -3.45257 0
M  V30 2035 H 194.675 -0.269182 -3.98893 0
M  V30 2036 H 196.115 0.753328 -4.17254 0
M  V30 2037 C 194.574 1.6111 -2.9588 0
M  V30 2038 O 195.104 2.71045 -2.96475 0
M  V30 2039 N 193.31 1.45054 -2.51809 0
M  V30 2040 H 192.857 0.556175 -2.51524 0
M  V30 2041 H 192.815 2.25453 -2.1913 0
M  V30 2042 N 196.587 1.43421 -0.653314 0
M  V30 2043 C 197.55 2.29182 0.0287951 0
M  V30 2044 C 198.55 1.42213 0.750465 0
M  V30 2045 O 199.74 1.63843 0.591701 0
M  V30 2046 C 196.872 3.24278 1.05151 0
M  V30 2047 H 198.065 2.90985 -0.725786 0
M  V30 2048 H 195.618 1.50702 -0.414545 0
M  V30 2049 H 196.353 2.6737 1.83532 0
M  V30 2050 H 196.138 3.88396 0.537687 0
M  V30 2051 H 197.628 3.88647 1.52786 0
M  V30 2052 N 198.065 0.39524 1.52563 0
M  V30 2053 C 199.013 -0.451859 2.28169 0
M  V30 2054 C 200.007 -1.05792 1.32304 0
M  V30 2055 O 201.213 -0.997718 1.49818 0
M  V30 2056 H 197.588 -0.164481 0.733792 0
M  V30 2057 H 199.559 0.207199 2.9768 0
M  V30 2058 C 198.308 -1.56385 3.10546 0
M  V30 2059 H 197.631 -1.10682 3.84174 0
M  V30 2060 H 199.071 -2.13067 3.66577 0
M  V30 2061 C 197.53 -2.52328 2.23231 0
M  V30 2062 O 198.06 -3.5588 1.86312 0
M  V30 2063 N 196.266 -2.22209 1.87274 0
M  V30 2064 H 195.813 -1.38033 2.17496 0
M  V30 2065 H 195.771 -2.86652 1.29143 0
M  V30 2066 N 199.544 -1.57102 0.125237 0
M  V30 2067 C 200.791 -1.95407 -0.531248 0
M  V30 2068 C 201.119 -1.0089 -1.66287 0
M  V30 2069 O 200.374 -0.0339431 -1.95671 0
M  V30 2070 C 200.673 -3.40096 -1.09862 0
M  V30 2071 C 200.339 -4.50815 -0.0876989 0
M  V30 2072 C 199.001 -4.80824 0.19026 0
M  V30 2073 C 201.353 -5.17724 0.600902 0
M  V30 2074 C 198.681 -5.75058 1.163 0
M  V30 2075 C 201.033 -6.13005 1.56231 0
M  V30 2076 C 199.697 -6.41403 1.8482 0
M  V30 2077 H 198.967 -0.715046 -0.194397 0
M  V30 2078 H 201.614 -1.90373 0.207463 0
M  V30 2079 H 199.919 -3.41855 -1.91422 0
M  V30 2080 H 201.616 -3.6705 -1.61478 0
M  V30 2081 H 198.206 -4.27444 -0.314528 0
M  V30 2082 H 202.39 -4.94691 0.399333 0
M  V30 2083 H 197.646 -5.95362 1.39117 0
M  V30 2084 H 201.82 -6.63934 2.10153 0
M  V30 2085 H 199.447 -7.14229 2.60349 0
M  V30 2086 N 201.022 0.148545 -1.56898 0
M  V30 2087 C 202.433 0.708766 -1.72723 0
M  V30 2088 C 202.784 1.81734 -0.739395 0
M  V30 2089 O 201.909 2.16194 0.0943169 0
M  V30 2090 C 202.504 1.29245 -3.13179 0
M  V30 2091 C 201.063 1.79925 -3.30611 0
M  V30 2092 C 200.21 0.687111 -2.68652 0
M  V30 2093 H 203.161 -0.0771063 -1.58513 0
M  V30 2094 H 203.182 2.16224 -3.13093 0
M  V30 2095 H 202.694 0.485382 -3.85053 0
M  V30 2096 H 200.795 2.63203 -2.63732 0
M  V30 2097 H 200.908 1.92903 -4.38549 0
M  V30 2098 H 199.272 1.11335 -2.29078 0
M  V30 2099 H 200.055 -0.108483 -3.43129 0
M  V30 2100 N 202.5 1.5196 0.417844 0
M  V30 2101 C 203.746 1.65836 1.16732 0
M  V30 2102 C 204.079 0.382881 1.90388 0
M  V30 2103 O 203.354 -0.618368 1.84408 0
M  V30 2104 C 203.637 2.87466 2.16876 0
M  V30 2105 C 203.49 4.25041 1.47174 0
M  V30 2106 C 204.809 3.04613 3.17646 0
M  V30 2107 H 201.928 0.603515 0.423011 0
M  V30 2108 H 204.57 1.84494 0.454105 0
M  V30 2109 H 202.72 2.71689 2.777 0
M  V30 2110 H 204.392 4.52527 0.895376 0
M  V30 2111 H 202.635 4.26843 0.773806 0
M  V30 2112 H 203.306 5.06176 2.20204 0
M  V30 2113 H 205.782 3.1923 2.66892 0
M  V30 2114 H 204.658 3.91247 3.8499 0
M  V30 2115 H 204.919 2.17541 3.84874 0
M  V30 2116 N 203.978 -0.674533 1.42435 0
M  V30 2117 C 205.255 -1.4305 1.33402 0
M  V30 2118 C 205.635 -2.11081 -0.0284674 0
M  V30 2119 O 204.983 -2.03257 -1.04397 0
M  V30 2120 C 205.193 -2.43272 2.50239 0
M  V30 2121 C 206.541 -3.07907 2.92367 0
M  V30 2122 O 207.565 -2.53599 2.50132 0
M  V30 2123 O 206.424 -4.0632 3.65467 0
M  V30 2124 H 203.518 -0.638076 0.526106 0
M  V30 2125 H 206.064 -0.703235 1.54443 0
M  V30 2126 H 204.836 -1.91803 3.41068 0
M  V30 2127 H 204.459 -3.23479 2.31186 0
M  V30 2128 N 205.456 -1.28612 -0.910864 0
M  V30 2129 C 206.867 -1.14406 -1.47541 0
M  V30 2130 C 207.218 0.264901 -1.94403 0
M  V30 2131 O 206.343 1.15942 -1.82719 0
M  V30 2132 C 206.938 -2.07073 -2.68153 0
M  V30 2133 C 205.497 -1.96923 -3.20778 0
M  V30 2134 C 204.644 -1.98646 -1.93481 0
M  V30 2135 H 207.595 -1.41259 -0.723291 0
M  V30 2136 H 207.616 -1.63642 -3.43514 0
M  V30 2137 H 207.128 -3.09611 -2.34015 0
M  V30 2138 H 205.229 -0.97433 -3.59635 0
M  V30 2139 H 205.342 -2.84026 -3.85832 0
M  V30 2140 H 203.706 -1.43093 -2.10705 0
M  V30 2141 H 204.489 -3.02868 -1.61634 0
M  V30 2142 N 206.934 1.1197 -1.10907 0
M  V30 2143 C 207.866 2.17592 -0.720175 0
M  V30 2144 C 208.879 1.60938 0.245495 0
M  V30 2145 O 210.068 1.78476 0.0292245 0
M  V30 2146 C 207.168 3.38873 -0.0427917 0
M  V30 2147 C 206.341 4.25006 -1.03388 0
M  V30 2148 C 205.4 5.24774 -0.387075 0
M  V30 2149 O 204.426 5.59631 -1.03934 0
M  V30 2150 N 205.628 5.74208 0.852407 0
M  V30 2151 H 208.393 2.51567 -1.62893 0
M  V30 2152 H 205.954 1.27439 -0.998543 0
M  V30 2153 H 207.946 4.02703 0.401501 0
M  V30 2154 H 206.516 3.03007 0.768456 0
M  V30 2155 H 205.736 3.57716 -1.65629 0
M  V30 2156 H 207.024 4.79397 -1.70458 0
M  V30 2157 H 206.422 5.48062 1.40161 0
M  V30 2158 H 204.979 6.39901 1.23977 0
M  V30 2159 N 208.412 0.89855 1.29475 0
M  V30 2160 C 209.828 0.594483 1.48115 0
M  V30 2161 C 210.028 -0.86431 1.82022 0
M  V30 2162 O 209.084 -1.64457 1.91599 0
M  V30 2163 C 210.397 1.51932 2.59494 0
M  V30 2164 C 211.945 1.5244 2.7337 0
M  V30 2165 C 212.42 2.43548 3.87877 0
M  V30 2166 N 213.911 2.41589 3.95208 0
M  V30 2167 C 214.646 3.08789 4.83153 0
M  V30 2168 N 214.142 3.85265 5.75798 0
M  V30 2169 N 215.935 2.97952 4.76635 0
M  V30 2170 H 208.086 1.84207 1.05742 0
M  V30 2171 H 210.349 0.789251 0.525154 0
M  V30 2172 H 210.055 2.55865 2.41301 0
M  V30 2173 H 209.929 1.23899 3.56271 0
M  V30 2174 H 212.316 0.492518 2.90961 0
M  V30 2175 H 212.397 1.8451 1.77172 0
M  V30 2176 H 212.041 3.46829 3.71041 0
M  V30 2177 H 211.971 2.08788 4.83441 0
M  V30 2178 H 214.462 1.86025 3.28943 0
M  V30 2179 H 214.775 4.33598 6.39697 0
M  V30 2180 H 213.12 3.89371 5.75687 0
M  V30 2181 H 216.311 2.37723 4.03244 0
M  V30 2182 H 216.484 3.50599 5.44962 0
M  V30 2183 N 209.89 -1.43072 0.660911 0
M  V30 2184 C 210.823 -2.28074 -0.0758862 0
M  V30 2185 C 211.801 -1.40271 -0.822362 0
M  V30 2186 O 212.985 -1.69713 -0.820352 0
M  V30 2187 C 210.112 -3.19843 -1.11437 0
M  V30 2188 C 209.158 -4.23957 -0.465069 0
M  V30 2189 S 209.991 -5.29978 0.767078 0
M  V30 2190 C 211.147 -6.25314 -0.270682 0
M  V30 2191 H 211.38 -2.90216 0.645139 0
M  V30 2192 H 208.913 -1.47697 0.449995 0
M  V30 2193 H 210.871 -3.73257 -1.70849 0
M  V30 2194 H 209.532 -2.56863 -1.80776 0
M  V30 2195 H 208.725 -4.88299 -1.24819 0
M  V30 2196 H 208.327 -3.73959 0.0551242 0
M  V30 2197 H 210.619 -6.67932 -1.13459 0
M  V30 2198 H 211.562 -7.07293 0.337916 0
M  V30 2199 H 211.97 -5.61195 -0.609937 0
M  V30 2200 N 211.368 -0.403325 -1.52352 0
M  V30 2201 C 212.593 0.176499 -2.06648 0
M  V30 2202 C 213.018 1.38577 -1.27193 0
M  V30 2203 O 212.376 1.7879 -0.300637 0
M  V30 2204 C 212.424 0.511061 -3.5696 0
M  V30 2205 O 211.528 1.60294 -3.79973 0
M  V30 2206 H 210.869 0.0167337 -0.663789 0
M  V30 2207 H 213.399 -0.574848 -1.96359 0
M  V30 2208 H 213.409 0.771362 -4.00642 0
M  V30 2209 H 212.084 -0.37296 -4.14224 0
M  V30 2210 H 210.661 1.33526 -3.48174 0
M  V30 2211 N 212.846 1.57033 -0.133567 0
M  V30 2212 C 214.095 1.94861 0.520768 0
M  V30 2213 C 214.408 1.02012 1.66892 0
M  V30 2214 O 215.614 1.29365 2.38699 0
M  V30 2215 C 214.07 3.46362 0.977809 0
M  V30 2216 C 213.678 4.47773 -0.142674 0
M  V30 2217 C 215.422 3.93083 1.60269 0
M  V30 2218 C 213.329 5.90468 0.331883 0
M  V30 2219 H 212.259 0.727453 0.198315 0
M  V30 2220 H 214.91 1.82227 -0.215759 0
M  V30 2221 H 213.292 3.54282 1.7692 0
M  V30 2222 H 214.466 4.51536 -0.919317 0
M  V30 2223 H 212.781 4.10891 -0.675124 0
M  V30 2224 H 215.378 4.97121 1.96914 0
M  V30 2225 H 215.721 3.33876 2.48662 0
M  V30 2226 H 216.254 3.88025 0.876453 0
M  V30 2227 H 212.993 6.53463 -0.516341 0
M  V30 2228 H 212.513 5.90094 1.07469 0
M  V30 2229 H 214.192 6.42179 0.788332 0
M  V30 2230 N 214.325 -0.140222 1.56975 0
M  V30 2231 C 215.572 -0.851687 1.83719 0
M  V30 2232 C 215.9 -1.80862 0.715485 0
M  V30 2233 O 215.155 -1.93464 -0.294956 0
M  V30 2234 C 215.454 -1.65386 3.16832 0
M  V30 2235 C 215.12 -0.843112 4.42947 0
M  V30 2236 C 213.782 -0.619464 4.77196 0
M  V30 2237 C 216.134 -0.276582 5.20466 0
M  V30 2238 C 213.462 0.181312 5.8642 0
M  V30 2239 C 215.814 0.51127 6.30531 0
M  V30 2240 C 214.478 0.745432 6.63325 0
M  V30 2241 H 213.748 -0.311654 0.672274 0
M  V30 2242 H 216.395 -0.115006 1.91154 0
M  V30 2243 H 214.7 -2.46084 3.04877 0
M  V30 2244 H 216.397 -2.20793 3.34741 0
M  V30 2245 H 212.987 -1.0275 4.16101 0
M  V30 2246 H 217.171 -0.436632 4.94376 0
M  V30 2247 H 212.427 0.372165 6.10266 0
M  V30 2248 H 216.601 0.957354 6.89788 0
M  V30 2249 H 214.228 1.36778 7.47794 0
M  V30 2250 N 215.803 -1.52179 -0.40978 0
M  V30 2251 C 217.051 -1.65878 -1.15451 0
M  V30 2252 C 217.372 -0.390771 -1.91044 0
M  V30 2253 O 216.642 0.594323 -1.86667 0
M  V30 2254 H 215.222 -0.611405 -0.429177 0
M  V30 2255 H 217.884 -1.89219 -0.467134 0
M  V30 2256 H 216.98 -2.49954 -1.86894 0
M  V30 2257 N 217.281 0.66697 -1.42791 0
M  V30 2258 C 218.231 1.77313 -1.43332 0
M  V30 2259 C 219.215 1.5801 -0.303586 0
M  V30 2260 O 220.407 1.68356 -0.546385 0
M  V30 2261 C 217.536 3.15822 -1.34578 0
M  V30 2262 C 216.622 3.40721 -2.52528 0
M  V30 2263 N 217.013 3.36162 -3.77927 0
M  V30 2264 C 215.311 3.71387 -2.46956 0
M  V30 2265 C 216.012 3.60762 -4.56318 0
M  V30 2266 N 214.988 3.81908 -3.86843 0
M  V30 2267 H 218.79 1.72193 -2.38174 0
M  V30 2268 H 216.304 0.868114 -1.3725 0
M  V30 2269 H 218.301 3.951 -1.33048 0
M  V30 2270 H 216.961 3.22133 -0.407453 0
M  V30 2271 H 217.972 3.15885 -4.10411 0
M  V30 2272 H 214.649 3.84897 -1.61743 0
M  V30 2273 H 216.039 3.63132 -5.65318 0
M  V30 2274 N 218.759 1.29093 0.90403 0
M  V30 2275 C 219.984 1.19809 1.69294 0
M  V30 2276 C 220.409 -0.238481 1.86582 0
M  V30 2277 O 219.767 -1.1723 1.383 0
M  V30 2278 C 219.815 1.91202 3.05736 0
M  V30 2279 O 218.919 1.22611 3.93752 0
M  V30 2280 H 218.26 0.415385 0.518027 0
M  V30 2281 H 220.79 1.70586 1.12967 0
M  V30 2282 H 220.8 1.99487 3.55906 0
M  V30 2283 H 219.475 2.95692 2.92471 0
M  V30 2284 H 218.052 1.22554 3.52186 0
M  V30 2285 N 220.237 -1.11381 1.11499 0
M  V30 2286 C 221.17 -2.16621 0.71769 0
M  V30 2287 C 222.148 -1.60058 -0.286413 0
M  V30 2288 O 223.332 -1.87613 -0.182689 0
M  V30 2289 C 220.459 -3.38646 0.0607265 0
M  V30 2290 C 219.505 -4.13874 1.03008 0
M  V30 2291 S 220.338 -4.70731 2.55289 0
M  V30 2292 C 221.494 -5.96079 1.90895 0
M  V30 2293 H 221.727 -2.49987 1.60915 0
M  V30 2294 H 219.26 -1.23015 0.933092 0
M  V30 2295 H 221.218 -4.09313 -0.311965 0
M  V30 2296 H 219.879 -3.03537 -0.807702 0
M  V30 2297 H 219.072 -5.01333 0.517853 0
M  V30 2298 H 218.674 -3.4897 1.34522 0
M  V30 2299 H 220.966 -6.65948 1.24577 0
M  V30 2300 H 221.909 -6.51946 2.76354 0
M  V30 2301 H 222.317 -5.47652 1.36885 0
M  V30 2302 N 221.715 -0.905404 -1.28997 0
M  V30 2303 C 222.963 -0.533192 -1.9494 0
M  V30 2304 C 223.284 0.924618 -1.71685 0
M  V30 2305 O 222.554 1.65268 -1.05183 0
M  V30 2306 H 221.134 -0.194194 -0.721317 0
M  V30 2307 H 223.796 -1.15294 -1.57141 0
M  V30 2308 H 222.892 -0.72059 -3.03667 0
M  V30 2309 N 223.193 1.4272 -0.668489 0
M  V30 2310 C 224.441 2.01226 -0.187769 0
M  V30 2311 C 224.762 1.53092 1.2078 0
M  V30 2312 O 224.032 0.74993 1.80977 0
M  V30 2313 H 222.612 0.744041 -0.0664272 0
M  V30 2314 H 225.274 1.74723 -0.863583 0
M  V30 2315 H 224.37 3.11556 -0.184166 0
M  V30 2316 N 224.671 0.411399 1.52136 0
M  V30 2317 C 225.621 -0.430376 2.23901 0
M  V30 2318 C 226.605 -1.0116 1.25121 0
M  V30 2319 O 227.797 -0.934044 1.50348 0
M  V30 2320 C 224.926 -1.54527 3.06556 0
M  V30 2321 C 224.012 -0.9747 4.12747 0
M  V30 2322 N 224.403 -0.130991 5.0563 0
M  V30 2323 C 222.701 -1.24497 4.28271 0
M  V30 2324 C 223.402 0.186689 5.814 0
M  V30 2325 N 222.378 -0.42304 5.41951 0
M  V30 2326 H 226.18 0.220509 2.93072 0
M  V30 2327 H 223.694 0.221952 1.60876 0
M  V30 2328 H 225.691 -2.16093 3.56524 0
M  V30 2329 H 224.351 -2.19875 2.38925 0
M  V30 2330 H 225.362 0.23349 5.17373 0
M  V30 2331 H 222.039 -1.89787 3.7187 0
M  V30 2332 H 223.429 0.871673 6.66222 0
M  V30 2333 N 226.149 -1.5696 0.141893 0
M  V30 2334 C 227.397 -1.95573 -0.509484 0
M  V30 2335 C 227.718 -1.02746 -1.65736 0
M  V30 2336 O 226.988 -0.0880311 -1.95702 0
M  V30 2337 H 225.568 -0.722115 -0.191205 0
M  V30 2338 H 228.23 -1.93697 0.216196 0
M  V30 2339 H 227.326 -2.99171 -0.889 0
M  V30 2340 N 227.627 0.131896 -1.57047 0
M  V30 2341 C 228.59 1.14638 -1.98471 0
M  V30 2342 C 229.59 1.35029 -0.873148 0
M  V30 2343 O 230.78 1.31764 -1.13946 0
M  V30 2344 C 227.912 2.50358 -2.31373 0
M  V30 2345 H 229.105 0.79064 -2.8929 0
M  V30 2346 H 226.658 0.375761 -1.51716 0
M  V30 2347 H 227.393 2.90876 -1.43393 0
M  V30 2348 H 227.178 2.36915 -3.12432 0
M  V30 2349 H 228.668 3.23395 -2.64207 0
M  V30 2350 N 229.106 1.52395 0.401703 0
M  V30 2351 C 230.036 1.79231 1.49661 0
M  V30 2352 C 231.017 0.643654 1.57452 0
M  V30 2353 O 232.202 0.889989 1.72606 0
M  V30 2354 C 229.332 1.94971 2.87409 0
M  V30 2355 C 228.286 3.10604 2.94465 0
M  V30 2356 C 227.612 3.11577 4.34538 0
M  V30 2357 C 228.912 4.49921 2.6527 0
M  V30 2358 H 230.606 2.70917 1.27454 0
M  V30 2359 H 228.152 1.30362 0.6117 0
M  V30 2360 H 230.105 2.12328 3.63999 0
M  V30 2361 H 228.829 0.999632 3.10926 0
M  V30 2362 H 227.488 2.93009 2.20321 0
M  V30 2363 H 227.136 2.14277 4.55076 0
M  V30 2364 H 226.836 3.89247 4.40183 0
M  V30 2365 H 228.36 3.31073 5.13053 0
M  V30 2366 H 229.774 4.67683 3.31581 0
M  V30 2367 H 228.171 5.29564 2.82281 0
M  V30 2368 H 229.241 4.57507 1.60671 0
M  V30 2369 N 230.584 -0.659388 1.43143 0
M  V30 2370 C 231.833 -1.41518 1.43721 0
M  V30 2371 C 232.146 -1.95499 0.0628176 0
M  V30 2372 O 233.352 -2.71446 -0.0539683 0
M  V30 2373 C 231.808 -2.5608 2.52885 0
M  V30 2374 C 231.416 -2.08733 3.96402 0
M  V30 2375 C 233.16 -3.3349 2.62649 0
M  V30 2376 C 231.067 -3.20469 4.97045 0
M  V30 2377 H 229.997 -0.531705 0.534608 0
M  V30 2378 H 232.648 -0.712343 1.69109 0
M  V30 2379 H 231.03 -3.28805 2.20688 0
M  V30 2380 H 232.204 -1.43059 4.3803 0
M  V30 2381 H 230.519 -1.44219 3.90627 0
M  V30 2382 H 233.116 -4.16734 3.35017 0
M  V30 2383 H 233.459 -3.8111 1.67513 0
M  V30 2384 H 233.992 -2.67842 2.94118 0
M  V30 2385 H 230.731 -2.77824 5.93712 0
M  V30 2386 H 230.251 -3.84874 4.60034 0
M  V30 2387 H 231.93 -3.85698 5.19467 0
M  V30 2388 N 232.062 -1.29571 -0.897171 0
M  V30 2389 C 233.302 -1.18959 -1.66217 0
M  V30 2390 C 233.666 0.254271 -1.90309 0
M  V30 2391 O 234.867 0.483407 -2.64417 0
M  V30 2392 C 233.138 -1.98302 -2.9734 0
M  V30 2393 S 234.697 -2.04253 -3.88364 0
M  V30 2394 H 231.515 -0.424137 -0.570639 0
M  V30 2395 H 234.117 -1.6389 -1.06585 0
M  V30 2396 H 232.821 -3.02342 -2.77521 0
M  V30 2397 H 232.352 -1.53986 -3.62011 0
M  V30 2398 H 234.367 -1.16105 -4.82425 0
M  V30 2399 N 233.54 1.10788 -1.12088 0
M  V30 2400 C 234.503 2.15207 -0.788577 0
M  V30 2401 C 235.503 1.59609 0.195317 0
M  V30 2402 O 236.693 1.74174 -0.0300193 0
M  V30 2403 C 233.825 3.4047 -0.171174 0
M  V30 2404 H 235.018 2.46116 -1.71368 0
M  V30 2405 H 232.571 1.26089 -0.923652 0
M  V30 2406 H 233.306 3.15176 0.763832 0
M  V30 2407 H 233.091 3.82109 -0.879514 0
M  V30 2408 H 234.581 4.17576 0.04496 0
M  V30 2409 N 235.018 0.912232 1.28515 0
M  V30 2410 C 235.948 0.416403 2.29757 0
M  V30 2411 C 236.929 -0.515194 1.6211 0
M  V30 2412 O 238.114 -0.423253 1.89532 0
M  V30 2413 C 235.244 -0.34572 3.45575 0
M  V30 2414 C 234.198 0.496599 4.25109 0
M  V30 2415 C 233.524 -0.393771 5.33248 0
M  V30 2416 C 234.824 1.75307 4.92001 0
M  V30 2417 H 236.518 1.26249 2.7148 0
M  V30 2418 H 234.064 0.608515 1.30511 0
M  V30 2419 H 236.017 -0.703422 4.15488 0
M  V30 2420 H 234.741 -1.2257 3.02728 0
M  V30 2421 H 233.4 0.8368 3.56922 0
M  V30 2422 H 233.048 -1.27225 4.86644 0
M  V30 2423 H 232.748 0.166209 5.87365 0
M  V30 2424 H 234.272 -0.747389 6.06009 0
M  V30 2425 H 235.686 1.46437 5.54283 0
M  V30 2426 H 234.083 2.25534 5.56106 0
M  V30 2427 H 235.153 2.48176 4.16577 0
M  V30 2428 N 236.496 -1.42363 0.676048 0
M  V30 2429 C 237.443 -2.308 -0.00150904 0
M  V30 2430 C 238.413 -1.46032 -0.791444 0
M  V30 2431 O 239.598 -1.74861 -0.76344 0
M  V30 2432 C 236.738 -3.31883 -0.945919 0
M  V30 2433 C 235.851 -4.31741 -0.149675 0
M  V30 2434 C 234.986 -5.19898 -1.08995 0
M  V30 2435 C 234.025 -6.11434 -0.285465 0
M  V30 2436 N 233.162 -6.92138 -1.17851 0
M  V30 2437 H 238.002 -2.88187 0.758455 0
M  V30 2438 H 235.539 -1.41952 0.38576 0
M  V30 2439 H 237.497 -3.89019 -1.50731 0
M  V30 2440 H 236.127 -2.76093 -1.6725 0
M  V30 2441 H 235.179 -3.76713 0.528359 0
M  V30 2442 H 236.491 -4.96534 0.474866 0
M  V30 2443 H 235.645 -5.81772 -1.72123 0
M  V30 2444 H 234.384 -4.55284 -1.74837 0
M  V30 2445 H 233.389 -5.48627 0.359018 0
M  V30 2446 H 234.614 -6.78097 0.368883 0
M  V30 2447 H 232.56 -6.30152 -1.82332 0
M  V30 2448 H 232.477 -7.53542 -0.609082 0
M  V30 2449 H 233.745 -7.58499 -1.79722 0
M  V30 2450 N 237.974 -0.419461 -1.51915 0
M  V30 2451 C 238.922 0.415502 -2.28859 0
M  V30 2452 C 239.916 1.03674 -1.3397 0
M  V30 2453 O 241.122 0.973757 -1.51387 0
M  V30 2454 H 237.497 0.152786 -0.736315 0
M  V30 2455 H 239.468 -0.254531 -2.97312 0
M  V30 2456 C 238.217 1.51425 -3.12995 0
M  V30 2457 H 237.54 1.04556 -3.85886 0
M  V30 2458 H 238.98 2.07208 -3.6992 0
M  V30 2459 C 237.439 2.48745 -2.27217 0
M  V30 2460 O 237.969 3.52871 -1.9195 0
M  V30 2461 N 236.175 2.19202 -1.90785 0
M  V30 2462 H 235.722 1.34556 -2.19664 0
M  V30 2463 H 235.68 2.84561 -1.33687 0
M  V30 2464 N 239.452 1.56882 -0.150215 0
M  V30 2465 C 240.863 1.82995 0.370076 0
M  V30 2466 C 241.214 1.06907 1.64515 0
M  V30 2467 O 240.339 0.315369 2.1409 0
M  V30 2468 C 240.934 3.31942 0.678208 0
M  V30 2469 C 239.493 3.58625 1.14301 0
M  V30 2470 C 238.64 2.76792 0.167778 0
M  V30 2471 H 241.591 1.54209 -0.374858 0
M  V30 2472 H 241.612 3.48272 1.53254 0
M  V30 2473 H 241.124 3.87294 -0.249991 0
M  V30 2474 H 239.225 3.08664 2.08704 0
M  V30 2475 H 239.338 4.67073 1.06676 0
M  V30 2476 H 237.702 2.45972 0.661037 0
M  V30 2477 H 238.485 3.34916 -0.754069 0
M  V30 2478 N 240.93 -0.123565 1.57115 0
M  V30 2479 C 242.178 -0.83051 1.84247 0
M  V30 2480 C 242.499 -1.80629 0.73471 0
M  V30 2481 O 241.769 -1.94403 -0.241688 0
M  V30 2482 H 240.349 -0.309694 0.679778 0
M  V30 2483 H 243.011 -0.111976 1.94578 0
M  V30 2484 H 242.107 -1.37852 2.80006 0
M  V30 2485 N 242.408 -1.52605 -0.393616 0
M  V30 2486 C 243.355 -1.77055 -1.48054 0
M  V30 2487 C 244.325 -0.61358 -1.54352 0
M  V30 2488 O 245.51 -0.852806 -1.70681 0
M  V30 2489 C 242.65 -1.94108 -2.85335 0
M  V30 2490 C 241.763 -3.21792 -2.88226 0
M  V30 2491 C 240.898 -3.29188 -4.16904 0
M  V30 2492 C 239.937 -4.51013 -4.13828 0
M  V30 2493 N 239.074 -4.55716 -5.34105 0
M  V30 2494 H 243.914 -2.69815 -1.26506 0
M  V30 2495 H 241.451 -1.33683 -0.61379 0
M  V30 2496 H 243.409 -2.01979 -3.65049 0
M  V30 2497 H 242.039 -1.04713 -3.05344 0
M  V30 2498 H 241.091 -3.23015 -2.00911 0
M  V30 2499 H 242.403 -4.11557 -2.8182 0
M  V30 2500 H 241.557 -3.36216 -5.05018 0
M  V30 2501 H 240.296 -2.37389 -4.26026 0
M  V30 2502 H 239.301 -4.44115 -3.24102 0
M  V30 2503 H 240.526 -5.44123 -4.06333 0
M  V30 2504 H 238.472 -3.66807 -5.43865 0
M  V30 2505 H 238.389 -5.39346 -5.29756 0
M  V30 2506 H 239.657 -4.66993 -6.2413 0
M  V30 2507 N 243.887 0.651787 -1.4349 0
M  V30 2508 C 245.117 1.43728 -1.48411 0
M  V30 2509 C 245.525 1.8893 -0.10103 0
M  V30 2510 O 244.868 1.60182 0.899307 0
M  V30 2511 C 244.93 2.70411 -2.36893 0
M  V30 2512 C 244.594 2.4714 -3.8441 0
M  V30 2513 C 245.591 2.10271 -4.75481 0
M  V30 2514 C 243.276 2.6142 -4.28912 0
M  V30 2515 C 245.27 1.87982 -6.0905 0
M  V30 2516 C 242.957 2.38746 -5.62533 0
M  V30 2517 C 243.955 2.02083 -6.5242 0
M  V30 2518 O 243.643 1.79647 -7.8357 0
M  V30 2519 H 243.375 0.447962 -0.506267 0
M  V30 2520 H 245.929 0.80624 -1.88915 0
M  V30 2521 H 244.159 3.36079 -1.91278 0
M  V30 2522 H 245.848 3.32364 -2.33 0
M  V30 2523 H 246.614 1.98814 -4.42378 0
M  V30 2524 H 242.493 2.88931 -3.59222 0
M  V30 2525 H 246.037 1.5929 -6.7917 0
M  V30 2526 H 241.934 2.49806 -5.95203 0
M  V30 2527 H 242.702 1.9406 -7.95162 0
M  V30 2528 N 245.365 1.30045 0.890287 0
M  V30 2529 C 246.312 1.15976 1.99545 0
M  V30 2530 C 247.282 0.0506202 1.66023 0
M  V30 2531 O 248.467 0.219847 1.89529 0
M  V30 2532 C 245.607 0.852054 3.34416 0
M  V30 2533 C 244.72 2.04255 3.80662 0
M  V30 2534 C 243.855 1.6734 5.04154 0
M  V30 2535 C 242.894 2.82916 5.42794 0
M  V30 2536 N 242.031 2.46333 6.57468 0
M  V30 2537 H 246.871 2.10524 2.10911 0
M  V30 2538 H 244.408 1.04749 1.03276 0
M  V30 2539 H 246.366 0.654296 4.12037 0
M  V30 2540 H 244.996 -0.0565502 3.2275 0
M  V30 2541 H 244.048 2.35172 2.98995 0
M  V30 2542 H 245.36 2.90826 4.05242 0
M  V30 2543 H 244.514 1.43908 5.89386 0
M  V30 2544 H 243.253 0.779308 4.81433 0
M  V30 2545 H 242.258 3.0702 4.56091 0
M  V30 2546 H 243.483 3.73004 5.6749 0
M  V30 2547 H 241.429 1.59423 6.36334 0
M  V30 2548 H 241.346 3.26436 6.81891 0
M  V30 2549 H 242.614 2.26244 7.45945 0
M  V30 2550 N 246.843 -1.10192 1.12674 0
M  V30 2551 C 248.068 -1.86523 0.906853 0
M  V30 2552 C 248.493 -1.80221 -0.538711 0
M  V30 2553 O 247.851 -1.17396 -1.38158 0
M  V30 2554 C 247.899 -3.32758 1.3894 0
M  V30 2555 O 247.003 -4.08449 0.5695 0
M  V30 2556 H 246.344 -0.578678 0.325619 0
M  V30 2557 H 248.874 -1.39203 1.49946 0
M  V30 2558 H 248.884 -3.83608 1.38958 0
M  V30 2559 H 247.559 -3.36661 2.44197 0
M  V30 2560 H 246.136 -3.67427 0.636528 0
M  V30 2561 N 248.321 -0.919034 -1.28029 0
M  V30 2562 C 249.567 -0.555757 -1.95036 0
M  V30 2563 C 249.9 0.899198 -1.72128 0
M  V30 2564 O 249.175 1.64023 -1.04531 0
M  V30 2565 C 249.458 -0.872024 -3.49382 0
M  V30 2566 C 249.311 -2.3801 -3.81669 0
M  V30 2567 C 250.63 -0.37185 -4.38526 0
M  V30 2568 H 247.749 -0.203386 -0.708381 0
M  V30 2569 H 250.391 -1.14924 -1.51303 0
M  V30 2570 H 248.541 -0.366946 -3.86763 0
M  V30 2571 H 250.213 -2.9562 -3.54128 0
M  V30 2572 H 248.456 -2.83289 -3.28526 0
M  V30 2573 H 249.127 -2.55192 -4.8947 0
M  V30 2574 H 251.603 -0.804602 -4.08247 0
M  V30 2575 H 250.479 -0.622173 -5.45362 0
M  V30 2576 H 250.74 0.727934 -4.36066 0
M  V30 2577 N 249.799 1.42003 -0.683588 0
M  V30 2578 C 251.024 2.06265 -0.216647 0
M  V30 2579 C 251.449 1.51059 1.12083 0
M  V30 2580 O 250.807 0.632638 1.69904 0
M  V30 2581 C 250.855 3.60191 -0.171759 0
M  V30 2582 O 249.959 4.03396 0.857069 0
M  V30 2583 H 249.3 0.65502 -0.108834 0
M  V30 2584 H 251.83 1.81982 -0.935077 0
M  V30 2585 H 251.84 4.08 0.0014303 0
M  V30 2586 H 250.515 3.99743 -1.14796 0
M  V30 2587 H 249.092 3.67117 0.654208 0
M  V30 2588 N 251.277 0.427512 1.51691 0
M  V30 2589 C 252.24 -0.377132 2.26076 0
M  V30 2590 C 253.24 -0.958089 1.29141 0
M  V30 2591 O 254.43 -0.83408 1.52934 0
M  V30 2592 C 251.562 -1.53262 3.04506 0
M  V30 2593 H 252.755 0.27464 2.9864 0
M  V30 2594 H 250.308 0.180445 1.55255 0
M  V30 2595 H 251.043 -2.22072 2.36335 0
M  V30 2596 H 250.828 -1.12232 3.75694 0
M  V30 2597 H 252.318 -2.10135 3.60878 0
M  V30 2598 N 252.755 -1.56801 0.158532 0
M  V30 2599 C 254.002 -1.9649 -0.489679 0
M  V30 2600 C 254.33 -1.04394 -1.6411 0
M  V30 2601 O 253.585 -0.0754401 -1.95555 0
M  V30 2602 C 253.884 -3.4235 -1.02623 0
M  V30 2603 C 253.55 -4.50899 0.00794526 0
M  V30 2604 C 252.212 -4.80312 0.292207 0
M  V30 2605 C 254.564 -5.16333 0.710584 0
M  V30 2606 C 251.892 -5.72461 1.28472 0
M  V30 2607 C 254.244 -6.09553 1.69199 0
M  V30 2608 C 252.908 -6.37339 1.98383 0
M  V30 2609 H 252.178 -0.719009 -0.179186 0
M  V30 2610 H 254.825 -1.8989 0.247798 0
M  V30 2611 H 253.13 -3.45838 -1.84128 0
M  V30 2612 H 254.827 -3.70393 -1.53656 0
M  V30 2613 H 251.417 -4.28015 -0.22379 0
M  V30 2614 H 255.601 -4.93732 0.504174 0
M  V30 2615 H 250.857 -5.92278 1.51714 0
M  V30 2616 H 255.031 -6.59327 2.24189 0
M  V30 2617 H 252.658 -7.08546 2.7544 0
M  V30 2618 N 254.233 0.115231 -1.57178 0
M  V30 2619 C 255.196 1.12526 -1.99676 0
M  V30 2620 C 256.196 1.34095 -0.88742 0
M  V30 2621 O 257.386 1.30548 -1.15337 0
M  V30 2622 C 254.518 2.4789 -2.34015 0
M  V30 2623 H 255.711 0.759912 -2.90113 0
M  V30 2624 H 253.264 0.359648 -1.52106 0
M  V30 2625 H 253.999 2.89339 -1.4647 0
M  V30 2626 H 253.784 2.33588 -3.14927 0
M  V30 2627 H 255.274 3.20575 -2.67622 0
M  V30 2628 N 255.711 1.52812 0.385517 0
M  V30 2629 C 257.122 1.5993 0.963293 0
M  V30 2630 C 257.473 0.454302 1.90868 0
M  V30 2631 O 256.598 -0.422132 2.12243 0
M  V30 2632 C 257.193 2.89871 1.75387 0
M  V30 2633 C 255.752 2.99389 2.28129 0
M  V30 2634 C 254.899 2.55071 1.08783 0
M  V30 2635 H 257.85 1.5784 0.164948 0
M  V30 2636 H 257.871 2.76553 2.61341 0
M  V30 2637 H 257.383 3.73186 1.06554 0
M  V30 2638 H 255.484 2.20619 3.00263 0
M  V30 2639 H 255.597 4.04096 2.57377 0
M  V30 2640 H 253.961 2.09473 1.4489 0
M  V30 2641 H 254.744 3.40785 0.414807 0
M  V30 2642 N 257.189 -0.644168 1.43834 0
M  V30 2643 C 258.438 -1.39985 1.45214 0
M  V30 2644 C 258.751 -1.95421 0.0835494 0
M  V30 2645 O 259.957 -2.71488 -0.0251748 0
M  V30 2646 C 258.413 -2.53384 2.55587 0
M  V30 2647 C 258.021 -2.04517 3.98594 0
M  V30 2648 C 259.765 -3.30685 2.66172 0
M  V30 2649 C 257.672 -3.1518 5.00416 0
M  V30 2650 H 256.602 -0.526005 0.540218 0
M  V30 2651 H 259.253 -0.694367 1.69855 0
M  V30 2652 H 257.635 -3.26446 2.24163 0
M  V30 2653 H 258.809 -1.38405 4.39523 0
M  V30 2654 H 257.124 -1.40068 3.92135 0
M  V30 2655 H 259.721 -4.13158 3.39418 0
M  V30 2656 H 260.064 -3.79312 1.71546 0
M  V30 2657 H 260.597 -2.64708 2.96942 0
M  V30 2658 H 257.336 -2.71511 5.96625 0
M  V30 2659 H 256.856 -3.79974 4.64091 0
M  V30 2660 H 258.535 -3.80166 5.23529 0
M  V30 2661 N 258.668 -1.30515 -0.883378 0
M  V30 2662 C 259.908 -1.20716 -1.64946 0
M  V30 2663 C 260.272 0.234072 -1.90568 0
M  V30 2664 O 261.473 0.455335 -2.64915 0
M  V30 2665 C 259.744 -2.01444 -2.9522 0
M  V30 2666 S 261.303 -2.0836 -3.86175 0
M  V30 2667 H 258.121 -0.430165 -0.566109 0
M  V30 2668 H 260.723 -1.65011 -1.04841 0
M  V30 2669 H 259.427 -3.05268 -2.74298 0
M  V30 2670 H 258.958 -1.57817 -3.60357 0
M  V30 2671 H 260.973 -1.21215 -4.81167 0
M  V30 2672 N 260.146 1.09593 -1.13257 0
M  V30 2673 C 261.094 2.18271 -0.803783 0
M  V30 2674 C 262.088 1.68054 0.213148 0
M  V30 2675 O 263.294 1.79862 0.0704699 0
M  V30 2676 H 259.669 0.711949 -0.242143 0
M  V30 2677 H 261.64 2.43235 -1.72856 0
M  V30 2678 C 260.389 3.46536 -0.28424 0
M  V30 2679 H 259.712 3.85545 -1.05807 0
M  V30 2680 H 261.152 4.23899 -0.0925945 0
M  V30 2681 C 259.611 3.22036 0.989684 0
M  V30 2682 O 260.141 3.44509 2.06584 0
M  V30 2683 N 258.347 2.7565 0.920086 0
M  V30 2684 H 257.894 2.57562 0.0442019 0
M  V30 2685 H 257.852 2.59635 1.77306 0
M  V30 2686 N 261.624 0.925811 1.2754 0
M  V30 2687 C 263.035 0.610102 1.7645 0
M  V30 2688 C 263.386 -0.874723 1.75622 0
M  V30 2689 O 262.511 -1.68444 1.35851 0
M  V30 2690 C 263.106 1.10073 3.20421 0
M  V30 2691 C 261.665 0.835723 3.67005 0
M  V30 2692 C 260.812 1.26054 2.46993 0
M  V30 2693 H 263.763 1.10579 1.13833 0
M  V30 2694 H 263.784 0.447557 3.77859 0
M  V30 2695 H 263.296 2.18143 3.20991 0
M  V30 2696 H 261.397 -0.231249 3.71882 0
M  V30 2697 H 261.51 1.45193 4.56569 0
M  V30 2698 H 259.874 0.679111 2.45479 0
M  V30 2699 H 260.657 2.34984 2.50275 0
M  V30 2700 N 263.102 -1.41638 0.69111 0
M  V30 2701 C 264.348 -2.01598 0.220519 0
M  V30 2702 C 264.681 -1.54594 -1.17535 0
M  V30 2703 O 263.956 -0.755177 -1.79241 0
M  V30 2704 C 264.239 -3.59062 0.273243 0
M  V30 2705 C 264.092 -4.16203 1.70573 0
M  V30 2706 C 265.411 -4.38546 -0.369457 0
M  V30 2707 H 262.53 -0.732468 0.0816045 0
M  V30 2708 H 265.172 -1.68445 0.878986 0
M  V30 2709 H 263.322 -3.87435 -0.287411 0
M  V30 2710 H 264.994 -3.98722 2.31989 0
M  V30 2711 H 263.237 -3.71414 2.2413 0
M  V30 2712 H 263.908 -5.25358 1.69419 0
M  V30 2713 H 266.384 -4.1596 0.107977 0
M  V30 2714 H 265.26 -5.48069 -0.302002 0
M  V30 2715 H 265.521 -4.17662 -1.44951 0
M  V30 2716 N 264.58 -0.43555 -1.51462 0
M  V30 2717 C 265.51 0.367376 -2.30592 0
M  V30 2718 C 266.491 1.02263 -1.35928 0
M  V30 2719 O 267.676 1.02661 -1.64847 0
M  V30 2720 C 264.806 1.46983 -3.14664 0
M  V30 2721 C 263.76 0.938161 -4.17591 0
M  V30 2722 C 263.086 2.13622 -4.90173 0
M  V30 2723 C 264.386 -0.0261621 -5.22293 0
M  V30 2724 H 266.08 -0.292969 -2.97963 0
M  V30 2725 H 263.626 -0.14234 -1.43295 0
M  V30 2726 H 265.579 2.03873 -3.688 0
M  V30 2727 H 264.303 2.15843 -2.4511 0
M  V30 2728 H 262.962 0.391481 -3.64504 0
M  V30 2729 H 262.61 2.81098 -4.17124 0
M  V30 2730 H 262.31 1.78688 -5.59772 0
M  V30 2731 H 263.834 2.7107 -5.47132 0
M  V30 2732 H 265.248 0.452384 -5.71512 0
M  V30 2733 H 263.645 -0.287992 -5.99409 0
M  V30 2734 H 264.715 -0.963391 -4.75233 0
M  V30 2735 N 266.058 1.56714 -0.166846 0
M  V30 2736 C 267.298 1.98641 0.481763 0
M  V30 2737 C 267.662 1.05038 1.6072 0
M  V30 2738 O 268.863 1.36087 2.31805 0
M  V30 2739 C 267.134 3.44362 0.956517 0
M  V30 2740 S 268.693 4.08317 1.60694 0
M  V30 2741 H 265.511 0.693873 0.155116 0
M  V30 2742 H 268.113 1.93719 -0.263251 0
M  V30 2743 H 266.817 4.10204 0.126936 0
M  V30 2744 H 266.348 3.53041 1.73568 0
M  V30 2745 H 268.363 4.02999 2.89494 0
M  V30 2746 N 267.536 -0.106894 1.57237 0
M  V30 2747 C 268.947 -0.662723 1.74542 0
M  V30 2748 C 269.298 -1.7971 0.787319 0
M  V30 2749 O 268.423 -2.16368 -0.0369636 0
M  V30 2750 C 269.018 -1.20896 3.16496 0
M  V30 2751 C 267.577 -1.71096 3.35266 0
M  V30 2752 C 266.724 -0.615642 2.7038 0
M  V30 2753 H 269.675 0.119106 1.58252 0
M  V30 2754 H 269.696 -2.07847 3.18716 0
M  V30 2755 H 269.208 -0.383122 3.86204 0
M  V30 2756 H 267.309 -2.56119 2.70618 0
M  V30 2757 H 267.422 -1.81208 4.43509 0
M  V30 2758 H 265.786 -1.05222 2.31949 0
M  V30 2759 H 266.569 0.199419 3.4272 0
M  V30 2760 N 269.014 -1.53014 -0.377408 0
M  V30 2761 C 270.26 -1.69821 -1.11948 0
M  V30 2762 C 270.615 -0.438581 -1.87335 0
M  V30 2763 O 269.908 0.568094 -1.82984 0
M  V30 2764 C 270.102 -2.87982 -2.11663 0
M  V30 2765 C 269.931 -4.25315 -1.46072 0
M  V30 2766 C 268.701 -4.90354 -1.21986 0
M  V30 2767 C 270.899 -5.06281 -0.904664 0
M  V30 2768 N 268.881 -6.11641 -0.526215 0
M  V30 2769 C 270.252 -6.19069 -0.339726 0
M  V30 2770 C 272.307 -4.91395 -0.8022 0
M  V30 2771 C 271.01 -7.18598 0.317669 0
M  V30 2772 C 273.036 -5.91187 -0.158606 0
M  V30 2773 C 272.398 -7.03289 0.39551 0
M  V30 2774 H 268.497 -0.674785 -0.395207 0
M  V30 2775 H 271.081 -1.90389 -0.407437 0
M  V30 2776 H 269.252 -2.68974 -2.80192 0
M  V30 2777 H 270.984 -2.93669 -2.78461 0
M  V30 2778 H 267.739 -4.49286 -1.49798 0
M  V30 2779 H 268.163 -6.76719 -0.195098 0
M  V30 2780 H 272.805 -4.04925 -1.21639 0
M  V30 2781 H 270.523 -8.04669 0.743836 0
M  V30 2782 H 274.109 -5.81744 -0.0804138 0
M  V30 2783 H 272.989 -7.79183 0.885648 0
M  V30 2784 N 270.492 0.636531 -1.44174 0
M  V30 2785 C 271.74 1.39343 -1.46383 0
M  V30 2786 C 272.061 1.94766 -0.0955715 0
M  V30 2787 O 271.331 1.75452 0.871395 0
M  V30 2788 H 269.911 0.517199 -0.538994 0
M  V30 2789 H 272.573 0.74957 -1.7991 0
M  V30 2790 H 271.669 2.22746 -2.18611 0
M  V30 2791 N 271.97 1.30982 0.876444 0
M  V30 2792 C 272.917 1.18085 1.98304 0
M  V30 2793 C 273.887 0.0682263 1.6596 0
M  V30 2794 O 275.072 0.239937 1.89285 0
M  V30 2795 C 272.212 0.887475 3.33493 0
M  V30 2796 C 271.325 2.08281 3.78475 0
M  V30 2797 C 270.46 1.72678 5.0235 0
M  V30 2798 C 269.499 2.88657 5.39762 0
M  V30 2799 N 268.636 2.53292 6.54819 0
M  V30 2800 H 273.476 2.1275 2.08666 0
M  V30 2801 H 271.013 1.05839 1.02159 0
M  V30 2802 H 272.971 0.697961 4.1132 0
M  V30 2803 H 271.601 -0.022315 3.22792 0
M  V30 2804 H 270.653 2.3833 2.96484 0
M  V30 2805 H 271.965 2.95108 4.02135 0
M  V30 2806 H 271.119 1.50151 5.87826 0
M  V30 2807 H 269.858 0.830327 4.8058 0
M  V30 2808 H 268.863 3.1184 4.52809 0
M  V30 2809 H 270.088 3.79002 5.63502 0
M  V30 2810 H 268.034 1.66163 6.34607 0
M  V30 2811 H 267.951 3.3365 6.7839 0
M  V30 2812 H 269.219 2.34143 7.43503 0
M  V30 2813 N 273.449 -1.08991 1.13837 0
M  V30 2814 C 274.396 -2.15748 0.819835 0
M  V30 2815 C 275.366 -1.64636 -0.220026 0
M  V30 2816 O 276.551 -1.90582 -0.0912757 0
M  V30 2817 C 273.691 -3.4382 0.296913 0
M  V30 2818 C 272.804 -4.0881 1.39636 0
M  V30 2819 C 271.939 -5.24655 0.831314 0
M  V30 2820 C 270.978 -5.81575 1.90886 0
M  V30 2821 N 270.115 -6.88774 1.36142 0
M  V30 2822 H 274.955 -2.42338 1.73426 0
M  V30 2823 H 272.492 -1.18935 0.865613 0
M  V30 2824 H 274.45 -4.17193 -0.0244339 0
M  V30 2825 H 273.08 -3.17535 -0.580628 0
M  V30 2826 H 272.132 -3.33258 1.83422 0
M  V30 2827 H 273.444 -4.47141 2.21058 0
M  V30 2828 H 272.598 -6.04942 0.461515 0
M  V30 2829 H 271.337 -4.87698 -0.013932 0
M  V30 2830 H 270.342 -4.99946 2.28767 0
M  V30 2831 H 271.567 -6.20592 2.75758 0
M  V30 2832 H 269.513 -6.53788 0.538254 0
M  V30 2833 H 269.43 -7.25898 2.11208 0
M  V30 2834 H 270.698 -7.72806 1.01933 0
M  V30 2835 N 274.927 -0.932562 -1.27047 0
M  V30 2836 C 275.89 -0.440064 -2.24936 0
M  V30 2837 C 276.89 0.444071 -1.54547 0
M  V30 2838 O 278.08 0.244465 -1.72476 0
M  V30 2839 C 275.212 0.36678 -3.38921 0
M  V30 2840 H 276.405 -1.305 -2.70018 0
M  V30 2841 H 273.958 -0.713707 -1.39054 0
M  V30 2842 H 274.693 1.25033 -2.99228 0
M  V30 2843 H 274.478 -0.267204 -3.91188 0
M  V30 2844 H 275.968 0.701567 -4.11665 0
M  V30 2845 N 276.405 1.4127 -0.698611 0
M  V30 2846 C 277.652 2.0118 -0.230865 0
M  V30 2847 C 277.98 1.55338 1.17049 0
M  V30 2848 O 277.235 0.756775 1.80475 0
M  V30 2849 C 277.534 3.56592 -0.240192 0
M  V30 2850 C 277.2 4.21955 -1.58948 0
M  V30 2851 C 275.862 4.39524 -1.95887 0
M  V30 2852 C 278.214 4.58576 -2.47704 0
M  V30 2853 C 275.542 4.90992 -3.2116 0
M  V30 2854 C 277.894 5.11435 -3.72313 0
M  V30 2855 C 276.558 5.27215 -4.0939 0
M  V30 2856 H 275.828 0.736169 -0.0844796 0
M  V30 2857 H 278.475 1.69124 -0.8983 0
M  V30 2858 H 276.78 3.88456 0.510797 0
M  V30 2859 H 278.477 4.00758 0.139296 0
M  V30 2860 H 275.067 4.08657 -1.29219 0
M  V30 2861 H 279.251 4.44654 -2.20445 0
M  V30 2862 H 274.507 5.01393 -3.49878 0
M  V30 2863 H 278.681 5.38752 -4.4127 0
M  V30 2864 H 276.308 5.66859 -5.06533 0
M  V30 2865 N 277.883 0.443576 1.51229 0
M  V30 2866 C 279.108 -0.121648 2.07043 0
M  V30 2867 C 279.533 -1.35156 1.30823 0
M  V30 2868 O 278.891 -1.7793 0.347934 0
M  V30 2869 C 278.939 -0.41624 3.5819 0
M  V30 2870 O 278.043 -1.50163 3.8409 0
M  V30 2871 H 277.384 0.000871367 0.663999 0
M  V30 2872 H 279.914 0.626706 1.94765 0
M  V30 2873 H 279.924 -0.664867 4.02546 0
M  V30 2874 H 278.599 0.482653 4.1309 0
M  V30 2875 H 277.176 -1.24248 3.51592 0
M  V30 2876 N 279.361 -1.56624 0.175154 0
M  V30 2877 C 280.609 -1.96609 -0.467885 0
M  V30 2878 C 280.93 -1.06238 -1.63519 0
M  V30 2879 O 280.2 -0.129523 -1.95471 0
M  V30 2880 H 278.78 -0.726008 -0.175845 0
M  V30 2881 H 281.442 -1.93195 0.257234 0
M  V30 2882 H 280.538 -3.00989 -0.825342 0
M  V30 2883 N 280.839 0.0985539 -1.57292 0
M  V30 2884 C 282.069 0.815135 -1.8984 0
M  V30 2885 C 282.477 1.7297 -0.766679 0
M  V30 2886 O 281.82 1.81698 0.270483 0
M  V30 2887 C 281.882 1.6842 -3.17608 0
M  V30 2888 C 281.546 0.94182 -4.4719 0
M  V30 2889 C 282.543 0.273212 -5.19182 0
M  V30 2890 C 280.228 0.916927 -4.9386 0
M  V30 2891 C 282.222 -0.410361 -6.36078 0
M  V30 2892 C 279.909 0.229567 -6.10669 0
M  V30 2893 C 280.907 -0.432902 -6.81627 0
M  V30 2894 O 280.595 -1.10925 -7.9621 0
M  V30 2895 H 280.327 0.238501 -0.632529 0
M  V30 2896 H 282.881 0.0812659 -2.05239 0
M  V30 2897 H 281.111 2.46022 -2.98345 0
M  V30 2898 H 282.8 2.27704 -3.36015 0
M  V30 2899 H 283.566 0.283927 -4.84168 0
M  V30 2900 H 279.445 1.42201 -4.3852 0
M  V30 2901 H 282.989 -0.928013 -6.914 0
M  V30 2902 H 278.886 0.216686 -6.45136 0
M  V30 2903 H 279.654 -1.01579 -8.12172 0
M  V30 2904 N 282.317 1.53212 0.369288 0
M  V30 2905 C 283.247 1.82365 1.45826 0
M  V30 2906 C 284.228 0.676907 1.56051 0
M  V30 2907 O 285.413 0.926401 1.70679 0
M  V30 2908 C 282.543 2.01023 2.83208 0
M  V30 2909 C 281.497 3.1678 2.8781 0
M  V30 2910 C 280.823 3.20724 4.27832 0
M  V30 2911 C 282.123 4.55447 2.55667 0
M  V30 2912 H 283.817 2.73559 1.21678 0
M  V30 2913 H 281.363 1.3163 0.583911 0
M  V30 2914 H 283.316 2.20001 3.59413 0
M  V30 2915 H 282.04 1.06536 3.08736 0
M  V30 2916 H 280.699 2.97616 2.14056 0
M  V30 2917 H 280.347 2.23882 4.50429 0
M  V30 2918 H 280.047 3.98496 4.31827 0
M  V30 2919 H 281.571 3.41881 5.05915 0
M  V30 2920 H 282.985 4.74611 3.21586 0
M  V30 2921 H 281.382 5.35432 2.70984 0
M  V30 2922 H 282.452 4.60812 1.5093 0
M  V30 2923 N 283.795 -0.628877 1.44509 0
M  V30 2924 C 285.043 -1.38565 1.4712 0
M  V30 2925 C 285.364 -1.94712 0.105899 0
M  V30 2926 O 284.634 -1.75912 -0.862079 0
M  V30 2927 H 283.214 -0.514333 0.541729 0
M  V30 2928 H 285.876 -0.740018 1.80305 0
M  V30 2929 H 284.972 -2.21583 2.19789 0
M  V30 2930 N 285.273 -1.31445 -0.869486 0
M  V30 2931 C 286.501 -1.24122 -1.65534 0
M  V30 2932 C 286.916 0.193387 -1.87807 0
M  V30 2933 O 286.273 1.12557 -1.43656 0
M  V30 2934 C 286.324 -1.98229 -3.02304 0
M  V30 2935 O 286.045 -3.3609 -2.81026 0
M  V30 2936 C 287.546 -1.97751 -3.96749 0
M  V30 2937 H 284.766 -0.428868 -0.516055 0
M  V30 2938 H 287.31 -1.73328 -1.08525 0
M  V30 2939 H 285.465 -1.52782 -3.56001 0
M  V30 2940 H 285.879 -3.7383 -3.67902 0
M  V30 2941 H 287.353 -2.54114 -4.90031 0
M  V30 2942 H 287.83 -0.960137 -4.28577 0
M  V30 2943 H 288.436 -2.43079 -3.48988 0
M  V30 2944 N 286.751 1.08385 -1.14413 0
M  V30 2945 C 288.028 1.77429 -0.823297 0
M  V30 2946 C 288.408 1.9974 0.683163 0
M  V30 2947 O 287.756 1.60739 1.62405 0
M  V30 2948 C 287.966 3.09004 -1.62227 0
M  V30 2949 C 289.314 3.83532 -1.82177 0
M  V30 2950 O 290.338 3.18786 -1.58915 0
M  V30 2951 O 289.197 4.99792 -2.21067 0
M  V30 2952 H 286.291 0.769999 -0.301712 0
M  V30 2953 H 288.837 1.14846 -1.24934 0
M  V30 2954 H 287.609 2.88316 -2.64555 0
M  V30 2955 H 287.232 3.79316 -1.19187 0
M  V30 2956 N 288.23 0.939286 1.26551 0
M  V30 2957 C 289.162 0.404704 2.25599 0
M  V30 2958 C 290.175 -0.470983 1.55838 0
M  V30 2959 O 291.364 -0.281734 1.76263 0
M  V30 2960 C 288.464 -0.43764 3.36062 0
M  V30 2961 C 287.637 0.421449 4.35365 0
M  V30 2962 C 286.696 -0.36015 5.24966 0
M  V30 2963 O 285.722 0.236167 5.6871 0
M  V30 2964 N 286.924 -1.65715 5.56344 0
M  V30 2965 H 289.689 1.25618 2.72103 0
M  V30 2966 H 287.25 0.807963 1.40298 0
M  V30 2967 H 289.242 -0.967866 3.92956 0
M  V30 2968 H 287.812 -1.18991 2.89067 0
M  V30 2969 H 287.032 1.1329 3.7757 0
M  V30 2970 H 288.32 1.00835 4.98708 0
M  V30 2971 H 287.718 -2.16378 5.22682 0
M  V30 2972 H 286.275 -2.13366 6.15888 0
M  V30 2973 N 289.708 -1.40897 0.706093 0
M  V30 2974 C 290.933 -2.05895 0.249435 0
M  V30 2975 C 291.358 -1.52823 -1.09666 0
M  V30 2976 O 290.716 -0.659589 -1.68876 0
M  V30 2977 C 290.764 -3.59872 0.22904 0
M  V30 2978 O 289.868 -4.04708 -0.792784 0
M  V30 2979 H 289.209 -0.653206 0.119241 0
M  V30 2980 H 291.739 -1.80471 0.96391 0
M  V30 2981 H 291.749 -4.07951 0.0634791 0
M  V30 2982 H 290.424 -3.97866 1.21141 0
M  V30 2983 H 289.001 -3.68111 -0.59572 0
M  V30 2984 N 291.186 -0.45159 -1.50991 0
M  V30 2985 C 292.133 0.352625 -2.2809 0
M  V30 2986 C 293.103 1.0044 -1.32291 0
M  V30 2987 O 294.288 1.02058 -1.6121 0
M  V30 2988 C 291.428 1.43983 -3.13629 0
M  V30 2989 C 290.541 0.804772 -4.24438 0
M  V30 2990 C 289.676 1.86822 -4.97263 0
M  V30 2991 C 288.715 1.21236 -5.99973 0
M  V30 2992 N 287.852 2.2178 -6.66152 0
M  V30 2993 H 292.692 -0.311186 -2.96371 0
M  V30 2994 H 290.229 -0.165308 -1.46168 0
M  V30 2995 H 292.187 2.08161 -3.61559 0
M  V30 2996 H 290.817 2.07307 -2.47434 0
M  V30 2997 H 289.869 0.0509129 -3.80366 0
M  V30 2998 H 291.181 0.286076 -4.97979 0
M  V30 2999 H 290.335 2.58628 -5.48813 0
M  V30 3000 H 289.074 2.42068 -4.23385 0
M  V30 3001 H 288.079 0.479828 -5.47702 0
M  V30 3002 H 289.304 0.667051 -6.75816 0
M  V30 3003 H 287.25 2.76079 -5.95077 0
M  V30 3004 H 287.167 1.74841 -7.35504 0
M  V30 3005 H 288.435 2.93026 -7.22327 0
M  V30 3006 N 292.664 1.56529 -0.183458 0
M  V30 3007 C 293.91 1.98304 0.452466 0
M  V30 3008 C 294.265 1.06799 1.60037 0
M  V30 3009 O 293.558 0.110049 1.91284 0
M  V30 3010 C 293.752 3.43939 0.971637 0
M  V30 3011 C 293.581 4.49528 -0.124425 0
M  V30 3012 C 292.351 5.01981 -0.578168 0
M  V30 3013 C 294.549 5.05836 -0.929207 0
M  V30 3014 N 292.531 5.91219 -1.65327 0
M  V30 3015 C 293.902 5.91632 -1.85396 0
M  V30 3016 C 295.957 4.88302 -0.972929 0
M  V30 3017 C 294.66 6.61768 -2.81878 0
M  V30 3018 C 296.686 5.59168 -1.92574 0
M  V30 3019 C 296.048 6.44701 -2.83795 0
M  V30 3020 H 292.147 0.770551 0.133324 0
M  V30 3021 H 294.731 1.92581 -0.286473 0
M  V30 3022 H 292.902 3.50184 1.68006 0
M  V30 3023 H 294.634 3.72702 1.5772 0
M  V30 3024 H 291.389 4.73282 -0.173639 0
M  V30 3025 H 291.813 6.40543 -2.19167 0
M  V30 3026 H 296.455 4.21861 -0.28168 0
M  V30 3027 H 294.173 7.27415 -3.51984 0
M  V30 3028 H 297.759 5.47582 -1.96583 0
M  V30 3029 H 296.639 6.98573 -3.56322 0
M  V30 3030 N 294.142 -0.090211 1.57342 0
M  V30 3031 C 295.089 -1.10909 2.02405 0
M  V30 3032 C 296.059 -1.39523 0.901252 0
M  V30 3033 O 297.244 -1.50903 1.1676 0
M  V30 3034 C 294.384 -2.42277 2.45755 0
M  V30 3035 C 293.497 -2.20352 3.71576 0
M  V30 3036 C 292.632 -3.45154 4.03785 0
M  V30 3037 C 291.671 -3.18512 5.22701 0
M  V30 3038 N 290.808 -4.35593 5.50639 0
M  V30 3039 H 295.648 -0.71782 2.89225 0
M  V30 3040 H 293.185 -0.342901 1.43048 0
M  V30 3041 H 295.143 -3.18951 2.68935 0
M  V30 3042 H 293.773 -2.79242 1.61938 0
M  V30 3043 H 292.825 -1.34458 3.55844 0
M  V30 3044 H 294.137 -1.96661 4.58395 0
M  V30 3045 H 293.291 -4.30233 4.27767 0
M  V30 3046 H 292.03 -3.71904 3.15498 0
M  V30 3047 H 291.035 -2.31827 4.98534 0
M  V30 3048 H 292.26 -2.93103 6.12591 0
M  V30 3049 H 290.206 -4.6241 4.6531 0
M  V30 3050 H 290.123 -4.1511 6.31838 0
M  V30 3051 H 291.391 -5.21723 5.7916 0
M  V30 3052 N 295.62 -1.53406 -0.361157 0
M  V30 3053 C 296.583 -1.79479 -1.42548 0
M  V30 3054 C 297.583 -0.665327 -1.4639 0
M  V30 3055 O 298.773 -0.933549 -1.47073 0
M  V30 3056 C 295.905 -1.92087 -2.8163 0
M  V30 3057 H 297.098 -2.74538 -1.20701 0
M  V30 3058 H 294.651 -1.4455 -0.594546 0
M  V30 3059 H 295.386 -0.991099 -3.08784 0
M  V30 3060 H 295.171 -2.74241 -2.80239 0
M  V30 3061 H 296.661 -2.13836 -3.58697 0
M  V30 3062 N 297.098 0.621204 -1.44841 0
M  V30 3063 C 298.328 1.40548 -1.51426 0
M  V30 3064 C 298.736 1.88673 -0.141083 0
M  V30 3065 O 298.079 1.62053 0.865128 0
M  V30 3066 C 298.141 2.65325 -2.42576 0
M  V30 3067 C 297.805 2.3893 -3.89566 0
M  V30 3068 C 298.802 2.00138 -4.79834 0
M  V30 3069 C 296.487 2.52263 -4.3436 0
M  V30 3070 C 298.481 1.75021 -6.129 0
M  V30 3071 C 296.168 2.2676 -5.67471 0
M  V30 3072 C 297.166 1.88199 -6.56559 0
M  V30 3073 O 296.854 1.62986 -7.87204 0
M  V30 3074 H 296.586 0.437122 -0.515655 0
M  V30 3075 H 299.14 0.765987 -1.90583 0
M  V30 3076 H 297.37 3.31947 -1.98364 0
M  V30 3077 H 299.059 3.27347 -2.39998 0
M  V30 3078 H 299.825 1.89386 -4.46495 0
M  V30 3079 H 295.704 2.81246 -3.65269 0
M  V30 3080 H 299.248 1.44848 -6.82396 0
M  V30 3081 H 295.145 2.37125 -6.00368 0
M  V30 3082 H 295.913 1.7715 -7.991 0
M  V30 3083 N 298.576 1.31904 0.862503 0
M  V30 3084 C 299.853 1.12644 1.59908 0
M  V30 3085 C 300.233 -0.316104 2.0872 0
M  V30 3086 O 299.581 -1.31145 1.87118 0
M  V30 3087 C 299.791 2.1472 2.7513 0
M  V30 3088 C 301.139 2.47637 3.44907 0
M  V30 3089 O 302.163 2.13205 2.85346 0
M  V30 3090 O 301.022 3.06632 4.52371 0
M  V30 3091 H 298.116 0.43416 0.703871 0
M  V30 3092 H 300.662 1.43408 0.907314 0
M  V30 3093 H 299.434 3.1172 2.3653 0
M  V30 3094 H 299.057 1.84905 3.51989 0
M  V30 3095 N 300.054 -1.07777 1.14986 0
M  V30 3096 C 301.017 -2.13041 0.845358 0
M  V30 3097 C 302.017 -1.60071 -0.152931 0
M  V30 3098 O 303.207 -1.74033 0.0761879 0
M  V30 3099 C 300.339 -3.39896 0.261383 0
M  V30 3100 H 301.532 -2.41485 1.77834 0
M  V30 3101 H 299.085 -1.23595 0.956757 0
M  V30 3102 H 299.82 -3.17091 -0.68 0
M  V30 3103 H 299.605 -3.79642 0.980514 0
M  V30 3104 H 301.095 -4.17548 0.0657687 0
M  V30 3105 N 301.532 -0.945985 -1.26051 0
M  V30 3106 C 302.76 -0.613025 -1.9761 0
M  V30 3107 C 303.175 0.813035 -1.70397 0
M  V30 3108 O 302.532 1.54274 -0.974979 0
M  V30 3109 C 302.583 -0.85159 -3.51326 0
M  V30 3110 O 302.304 -2.22157 -3.77595 0
M  V30 3111 C 303.805 -0.529831 -4.40122 0
M  V30 3112 H 301.025 -0.230593 -0.630133 0
M  V30 3113 H 303.569 -1.268 -1.60443 0
M  V30 3114 H 301.724 -0.243151 -3.86636 0
M  V30 3115 H 302.138 -2.2852 -4.721 0
M  V30 3116 H 303.612 -0.747348 -5.46917 0
M  V30 3117 H 304.089 0.535341 -4.35925 0
M  V30 3118 H 304.695 -1.11721 -4.10364 0
M  V30 3119 N 303.011 1.40521 -0.713556 0
M  V30 3120 C 303.961 2.27971 -0.036165 0
M  V30 3121 C 304.945 1.43151 0.734623 0
M  V30 3122 O 306.137 1.66261 0.607158 0
M  V30 3123 C 303.266 3.31661 0.886331 0
M  V30 3124 C 302.352 4.23955 0.110836 0
M  V30 3125 N 302.743 4.97641 -0.904847 0
M  V30 3126 C 301.041 4.44674 0.343692 0
M  V30 3127 C 301.742 5.65322 -1.37064 0
M  V30 3128 N 300.718 5.39162 -0.693168 0
M  V30 3129 H 304.52 2.82384 -0.814645 0
M  V30 3130 H 302.034 1.52948 -0.545963 0
M  V30 3131 H 304.031 3.93154 1.38692 0
M  V30 3132 H 302.691 2.78808 1.66421 0
M  V30 3133 H 303.702 5.01689 -1.28563 0
M  V30 3134 H 300.379 4.02801 1.09805 0
M  V30 3135 H 301.769 6.34359 -2.21447 0
M  V30 3136 N 304.489 0.459591 1.5075 0
M  V30 3137 C 305.419 -0.330644 2.31147 0
M  V30 3138 C 306.4 -1.00087 1.37538 0
M  V30 3139 O 307.585 -1.00025 1.66459 0
M  V30 3140 C 304.715 -1.41958 3.16962 0
M  V30 3141 C 303.669 -0.871608 4.19031 0
M  V30 3142 C 302.995 -2.05797 4.9351 0
M  V30 3143 C 304.295 0.109251 5.22186 0
M  V30 3144 H 305.989 0.340336 2.97459 0
M  V30 3145 H 303.535 0.165119 1.4305 0
M  V30 3146 H 305.488 -1.9798 3.71997 0
M  V30 3147 H 304.212 -2.11917 2.48513 0
M  V30 3148 H 302.871 -0.333442 3.6508 0
M  V30 3149 H 302.519 -2.74427 4.21544 0
M  V30 3150 H 302.219 -1.6976 5.62544 0
M  V30 3151 H 303.743 -2.62331 5.51375 0
M  V30 3152 H 305.157 -0.361405 5.7216 0
M  V30 3153 H 303.554 0.383316 5.98875 0
M  V30 3154 H 304.624 1.03887 4.73641 0
M  V30 3155 N 305.967 -1.56429 0.191757 0
M  V30 3156 C 307.213 -1.97777 -0.448554 0
M  V30 3157 C 307.546 -1.07847 -1.61501 0
M  V30 3158 O 306.821 -0.129774 -1.94067 0
M  V30 3159 C 307.104 -3.48362 -0.911906 0
M  V30 3160 C 306.957 -4.4907 0.256136 0
M  V30 3161 C 308.276 -4.02561 -1.77857 0
M  V30 3162 H 305.395 -0.719071 -0.161572 0
M  V30 3163 H 308.037 -1.87896 0.282007 0
M  V30 3164 H 306.187 -3.56914 -1.53442 0
M  V30 3165 H 307.859 -4.5256 0.893733 0
M  V30 3166 H 306.102 -4.24181 0.908436 0
M  V30 3167 H 306.773 -5.51889 -0.11053 0
M  V30 3168 H 309.249 -3.96767 -1.25359 0
M  V30 3169 H 308.125 -5.08301 -2.07174 0
M  V30 3170 H 308.386 -3.47616 -2.73158 0
M  V30 3171 N 307.445 0.0818655 -1.57387 0
M  V30 3172 C 308.392 1.09834 -2.0299 0
M  V30 3173 C 309.362 1.39043 -0.908639 0
M  V30 3174 O 310.547 1.50282 -1.17559 0
M  V30 3175 C 307.687 2.40971 -2.47037 0
M  V30 3176 C 306.8 2.18379 -3.7274 0
M  V30 3177 C 305.935 3.43008 -4.0561 0
M  V30 3178 C 304.974 3.15736 -5.24383 0
M  V30 3179 N 304.111 4.32667 -5.52941 0
M  V30 3180 H 308.951 0.702472 -2.89602 0
M  V30 3181 H 306.488 0.33531 -1.43227 0
M  V30 3182 H 308.446 3.1752 -2.70623 0
M  V30 3183 H 307.076 2.78379 -1.63417 0
M  V30 3184 H 306.128 1.32569 -3.56552 0
M  V30 3185 H 307.44 1.94227 -4.59431 0
M  V30 3186 H 306.594 4.27958 -4.30043 0
M  V30 3187 H 305.333 3.70225 -3.17466 0
M  V30 3188 H 304.338 2.2918 -4.99757 0
M  V30 3189 H 305.563 2.8985 -6.14136 0
M  V30 3190 H 303.509 4.59935 -4.67756 0
M  V30 3191 H 303.426 4.11753 -6.34031 0
M  V30 3192 H 304.694 5.18644 -5.81918 0
M  V30 3193 N 308.923 1.53595 0.353017 0
M  V30 3194 C 310.148 1.7462 1.11904 0
M  V30 3195 C 310.573 0.479721 1.8188 0
M  V30 3196 O 309.931 -0.567066 1.72204 0
M  V30 3197 C 309.979 2.92029 2.11545 0
M  V30 3198 O 309.083 2.61516 3.18878 0
M  V30 3199 H 308.424 0.579531 0.324099 0
M  V30 3200 H 310.954 2.00525 0.406301 0
M  V30 3201 H 310.964 3.18551 2.5493 0
M  V30 3202 H 309.639 3.83888 1.60008 0
M  V30 3203 H 308.216 2.45852 2.80377 0
M  V30 3204 N 310.401 -0.613514 1.45168 0
M  V30 3205 C 311.631 -1.39743 1.52169 0
M  V30 3206 C 312.039 -1.88596 0.151086 0
M  V30 3207 O 311.382 -1.6251 -0.856521 0
M  V30 3208 C 311.444 -2.64035 2.43979 0
M  V30 3209 C 311.108 -2.36861 3.90827 0
M  V30 3210 C 312.105 -1.97591 4.80889 0
M  V30 3211 C 309.79 -2.49956 4.35692 0
M  V30 3212 C 311.784 -1.71768 6.1382 0
M  V30 3213 C 309.471 -2.23747 5.68665 0
M  V30 3214 C 310.469 -1.84714 6.57548 0
M  V30 3215 O 310.157 -1.58809 7.88058 0
M  V30 3216 H 309.889 -0.434382 0.517966 0
M  V30 3217 H 312.443 -0.75587 1.90986 0
M  V30 3218 H 310.673 -3.3089 2.00122 0
M  V30 3219 H 312.362 -3.26069 2.41731 0
M  V30 3220 H 313.128 -1.87015 4.47493 0
M  V30 3221 H 309.007 -2.79305 3.66756 0
M  V30 3222 H 312.551 -1.41227 6.83155 0
M  V30 3223 H 308.448 -2.33938 6.01617 0
M  V30 3224 H 309.216 -1.7291 8.00028 0
M  V30 3225 N 311.879 -1.3236 -0.855495 0
M  V30 3226 C 313.29 -1.2056 -1.42556 0
M  V30 3227 C 313.641 0.182209 -1.95352 0
M  V30 3228 O 312.766 1.08088 -1.87472 0
M  V30 3229 C 313.361 -2.1826 -2.59129 0
M  V30 3230 C 311.92 -2.10351 -3.12137 0
M  V30 3231 C 311.067 -2.06674 -1.84882 0
M  V30 3232 H 314.018 -1.442 -0.662727 0
M  V30 3233 H 314.039 -1.78064 -3.36264 0
M  V30 3234 H 313.551 -3.19257 -2.20673 0
M  V30 3235 H 311.652 -1.12599 -3.55179 0
M  V30 3236 H 311.765 -3.00135 -3.73438 0
M  V30 3237 H 310.129 -1.51901 -2.04446 0
M  V30 3238 H 310.912 -3.09451 -1.48643 0
M  V30 3239 N 313.357 1.07166 -1.15556 0
M  V30 3240 C 314.605 1.79443 -0.929764 0
M  V30 3241 C 314.926 1.87246 0.544414 0
M  V30 3242 O 314.196 1.37473 1.39564 0
M  V30 3243 H 312.776 0.664625 -0.341003 0
M  V30 3244 H 315.438 1.29499 -1.45657 0
M  V30 3245 H 314.534 2.81832 -1.34079 0
M  V30 3246 N 314.835 0.952656 1.25548 0
M  V30 3247 C 316.06 0.623025 1.97821 0
M  V30 3248 C 316.485 -0.7976 1.70352 0
M  V30 3249 O 315.843 -1.53905 0.958283 0
M  V30 3250 C 315.891 0.885532 3.49558 0
M  V30 3251 O 314.995 -0.0366641 4.12384 0
M  V30 3252 H 314.336 0.237082 0.620232 0
M  V30 3253 H 316.866 1.27871 1.59719 0
M  V30 3254 H 316.876 0.811009 3.99858 0
M  V30 3255 H 315.551 1.92094 3.6888 0
M  V30 3256 H 314.128 0.0898954 3.72792 0
M  V30 3257 N 316.313 -1.40141 0.720998 0
M  V30 3258 C 317.245 -2.29177 0.0324669 0
M  V30 3259 C 318.258 -1.46105 -0.718126 0
M  V30 3260 O 319.447 -1.69335 -0.564608 0
M  V30 3261 C 316.547 -3.24473 -0.978292 0
M  V30 3262 C 315.72 -4.36423 -0.292115 0
M  V30 3263 C 314.779 -5.12122 -1.20901 0
M  V30 3264 O 313.805 -5.64981 -0.691766 0
M  V30 3265 N 315.007 -5.21992 -2.53978 0
M  V30 3266 H 317.772 -2.88909 0.796984 0
M  V30 3267 H 315.333 -1.51569 0.569068 0
M  V30 3268 H 317.325 -3.71987 -1.59398 0
M  V30 3269 H 315.895 -2.65871 -1.64413 0
M  V30 3270 H 315.115 -3.90967 0.503847 0
M  V30 3271 H 316.403 -5.08467 0.183971 0
M  V30 3272 H 315.801 -4.8054 -2.98493 0
M  V30 3273 H 314.358 -5.72995 -3.10677 0
M  V30 3274 N 317.792 -0.46758 -1.50504 0
M  V30 3275 C 318.722 0.318381 -2.31319 0
M  V30 3276 C 319.703 0.993564 -1.38066 0
M  V30 3277 O 320.888 0.991411 -1.66987 0
M  V30 3278 C 318.018 1.40275 -3.17711 0
M  V30 3279 C 316.972 0.849373 -4.19487 0
M  V30 3280 C 316.298 2.03177 -4.94594 0
M  V30 3281 C 317.598 -0.136942 -5.2212 0
M  V30 3282 H 319.292 -0.356106 -2.97275 0
M  V30 3283 H 316.838 -0.172703 -1.42961 0
M  V30 3284 H 318.791 1.96004 -3.73042 0
M  V30 3285 H 317.515 2.10596 -2.49634 0
M  V30 3286 H 316.174 0.314076 -3.65252 0
M  V30 3287 H 315.822 2.72187 -4.22993 0
M  V30 3288 H 315.522 1.66774 -5.63436 0
M  V30 3289 H 317.046 2.59403 -5.52759 0
M  V30 3290 H 318.46 0.331056 -5.72343 0
M  V30 3291 H 316.857 -0.41507 -5.98663 0
M  V30 3292 H 317.927 -1.06398 -4.73083 0
M  V30 3293 N 319.27 1.56325 -0.20005 0
M  V30 3294 C 320.547 1.89484 0.48529 0
M  V30 3295 C 320.927 1.1143 1.79294 0
M  V30 3296 O 320.275 0.216919 2.27468 0
M  V30 3297 C 320.485 3.41923 0.699243 0
M  V30 3298 C 321.833 4.12256 1.01638 0
M  V30 3299 O 322.857 3.47402 0.786792 0
M  V30 3300 O 321.716 5.26887 1.45095 0
M  V30 3301 H 318.81 0.787144 0.253639 0
M  V30 3302 H 321.356 1.67985 -0.240633 0
M  V30 3303 H 320.128 3.90658 -0.224008 0
M  V30 3304 H 319.751 3.69131 1.47744 0
M  V30 3305 N 320.748 -0.0735177 1.57428 0
M  V30 3306 C 321.997 -0.771809 1.86349 0
M  V30 3307 C 322.31 -1.78828 0.792452 0
M  V30 3308 O 323.516 -2.53602 0.96945 0
M  V30 3309 C 321.972 -1.42358 3.30548 0
M  V30 3310 C 321.58 -0.445761 4.45777 0
M  V30 3311 C 323.324 -2.10434 3.6867 0
M  V30 3312 C 321.231 -1.10335 5.81016 0
M  V30 3313 H 320.161 -0.291999 0.695164 0
M  V30 3314 H 322.812 -0.0250749 1.83483 0
M  V30 3315 H 321.194 -2.21852 3.28021 0
M  V30 3316 H 322.368 0.319239 4.59693 0
M  V30 3317 H 320.683 0.130457 4.16196 0
M  V30 3318 H 323.28 -2.60405 4.67004 0
M  V30 3319 H 323.623 -2.90298 2.98383 0
M  V30 3320 H 324.156 -1.37773 3.7318 0
M  V30 3321 H 320.895 -0.345061 6.54591 0
M  V30 3322 H 320.415 -1.83925 5.70904 0
M  V30 3323 H 322.094 -1.62367 6.26295 0
M  V30 3324 N 322.226 -1.5378 -0.344866 0
M  V30 3325 C 323.156 -1.84662 -1.42906 0
M  V30 3326 C 324.137 -0.701648 -1.54955 0
M  V30 3327 O 325.322 -0.953438 -1.69184 0
M  V30 3328 C 322.452 -2.05503 -2.79974 0
M  V30 3329 C 321.406 -3.21318 -2.82734 0
M  V30 3330 C 320.732 -3.2749 -4.22675 0
M  V30 3331 C 322.032 -4.59456 -2.48389 0
M  V30 3332 H 323.726 -2.75461 -1.17311 0
M  V30 3333 H 321.272 -1.32542 -0.562896 0
M  V30 3334 H 323.225 -2.25691 -3.55867 0
M  V30 3335 H 321.949 -1.11434 -3.07002 0
M  V30 3336 H 320.608 -3.00984 -2.09294 0
M  V30 3337 H 320.256 -2.31019 -4.4681 0
M  V30 3338 H 319.956 -4.05316 -4.25433 0
M  V30 3339 H 321.48 -3.49887 -5.00412 0
M  V30 3340 H 322.894 -4.79667 -3.13995 0
M  V30 3341 H 321.291 -5.39675 -2.62432 0
M  V30 3342 H 322.361 -4.63155 -1.4358 0
M  V30 3343 N 323.704 0.605807 -1.45491 0
M  V30 3344 C 324.953 1.36086 -1.48874 0
M  V30 3345 C 325.266 1.95131 -0.135333 0
M  V30 3346 O 326.472 2.7146 -0.0468144 0
M  V30 3347 C 324.928 2.46518 -2.62215 0
M  V30 3348 C 324.536 1.93877 -4.03876 0
M  V30 3349 C 326.28 3.23512 -2.74846 0
M  V30 3350 C 324.187 3.01801 -5.08596 0
M  V30 3351 H 323.117 0.511497 -0.553974 0
M  V30 3352 H 325.768 0.649089 -1.71636 0
M  V30 3353 H 324.15 3.20388 -2.32739 0
M  V30 3354 H 325.324 1.26704 -4.43038 0
M  V30 3355 H 323.639 1.29622 -3.95711 0
M  V30 3356 H 326.236 4.04013 -3.50253 0
M  V30 3357 H 326.579 3.74631 -1.81542 0
M  V30 3358 H 327.112 2.56742 -3.03856 0
M  V30 3359 H 323.851 2.55597 -6.03614 0
M  V30 3360 H 323.371 3.67535 -4.74002 0
M  V30 3361 H 325.05 3.66152 -5.33424 0
M  V30 3362 N 325.182 1.32811 0.848464 0
M  V30 3363 C 326.459 1.14334 1.58704 0
M  V30 3364 C 326.839 -0.293948 2.09043 0
M  V30 3365 O 326.187 -1.29153 1.88499 0
M  V30 3366 C 326.397 2.17626 2.72837 0
M  V30 3367 C 327.745 2.51282 3.42261 0
M  V30 3368 O 328.769 2.16219 2.83068 0
M  V30 3369 O 327.628 3.11413 4.49093 0
M  V30 3370 H 324.722 0.441601 0.699226 0
M  V30 3371 H 327.268 1.44362 0.892053 0
M  V30 3372 H 326.04 3.14211 2.3321 0
M  V30 3373 H 325.663 1.88628 3.50008 0
M  V30 3374 N 326.66 -1.06551 1.16123 0
M  V30 3375 C 327.592 -2.13908 0.823171 0
M  V30 3376 C 328.605 -1.61926 -0.16843 0
M  V30 3377 O 329.794 -1.78412 0.055962 0
M  V30 3378 C 326.894 -3.38283 0.204424 0
M  V30 3379 C 326.067 -4.19589 1.23548 0
M  V30 3380 C 325.126 -5.2233 0.637011 0
M  V30 3381 O 324.152 -5.54034 1.30516 0
M  V30 3382 N 325.354 -5.77621 -0.577474 0
M  V30 3383 H 328.119 -2.43508 1.74711 0
M  V30 3384 H 325.68 -1.2253 1.05821 0
M  V30 3385 H 327.672 -4.0416 -0.208909 0
M  V30 3386 H 326.242 -3.06329 -0.623012 0
M  V30 3387 H 325.462 -3.49406 1.82507 0
M  V30 3388 H 326.75 -4.70718 1.93137 0
M  V30 3389 H 326.148 -5.54125 -1.13853 0
M  V30 3390 H 324.705 -6.45087 -0.933053 0
M  V30 3391 N 328.138 -0.959301 -1.25041 0
M  V30 3392 C 329.386 -0.615393 -1.92503 0
M  V30 3393 C 329.707 0.850969 -1.75452 0
M  V30 3394 O 328.977 1.60658 -1.12098 0
M  V30 3395 H 327.557 -0.224613 -0.712431 0
M  V30 3396 H 330.219 -1.21855 -1.5211 0
M  V30 3397 H 329.315 -0.848738 -3.00338 0
M  V30 3398 N 329.616 1.39756 -0.72842 0
M  V30 3399 C 330.563 2.30647 -0.0841519 0
M  V30 3400 C 331.533 1.48869 0.7367 0
M  V30 3401 O 332.718 1.77574 0.698015 0
M  V30 3402 C 329.858 3.35165 0.822091 0
M  V30 3403 C 328.971 4.31999 -0.0106663 0
M  V30 3404 C 328.106 5.23585 0.896241 0
M  V30 3405 C 327.145 6.12072 0.0583381 0
M  V30 3406 N 326.282 6.96035 0.920818 0
M  V30 3407 H 331.122 2.85173 -0.864891 0
M  V30 3408 H 328.659 1.40422 -0.438179 0
M  V30 3409 H 330.617 3.94345 1.36189 0
M  V30 3410 H 329.247 2.8211 1.56888 0
M  V30 3411 H 328.299 3.74492 -0.66781 0
M  V30 3412 H 329.611 4.9443 -0.658825 0
M  V30 3413 H 328.765 5.87759 1.50412 0
M  V30 3414 H 327.504 4.61459 1.57819 0
M  V30 3415 H 326.509 5.46916 -0.562389 0
M  V30 3416 H 327.734 6.76261 -0.6203 0
M  V30 3417 H 325.68 6.36485 1.58818 0
M  V30 3418 H 325.597 7.55284 0.32899 0
M  V30 3419 H 326.865 7.64646 1.51447 0
M  V30 3420 N 331.094 0.475555 1.50254 0
M  V30 3421 C 332.371 -0.139685 1.95101 0
M  V30 3422 C 332.751 -1.56555 1.41611 0
M  V30 3423 O 332.099 -2.19956 0.618993 0
M  V30 3424 C 332.309 -0.0784298 3.48912 0
M  V30 3425 C 333.657 -0.265095 4.23772 0
M  V30 3426 O 334.681 -0.154808 3.55863 0
M  V30 3427 O 333.54 -0.488327 5.44314 0
M  V30 3428 H 330.634 -0.109236 0.819754 0
M  V30 3429 H 333.18 0.536276 1.61004 0
M  V30 3430 H 331.952 0.916918 3.80405 0
M  V30 3431 H 331.575 -0.795655 3.89558 0
M  V30 3432 N 332.573 -1.56217 0.208337 0
M  V30 3433 C 333.85 -1.89739 -0.475234 0
M  V30 3434 C 334.23 -1.1238 -1.78701 0
M  V30 3435 O 333.578 -0.228979 -2.2735 0
M  V30 3436 C 333.788 -3.42289 -0.681101 0
M  V30 3437 C 335.136 -4.12789 -0.994507 0
M  V30 3438 O 336.16 -3.47814 -0.768357 0
M  V30 3439 O 335.019 -5.27649 -1.42299 0
M  V30 3440 H 332.113 -0.788478 -0.249461 0
M  V30 3441 H 334.659 -1.67855 0.249538 0
M  V30 3442 H 333.431 -3.90534 0.244722 0
M  V30 3443 H 333.054 -3.69909 -1.45785 0
M  V30 3444 N 334.051 0.0651679 -1.57465 0
M  V30 3445 C 334.983 1.10359 -2.00882 0
M  V30 3446 C 335.996 1.346 -0.915788 0
M  V30 3447 O 337.185 1.32723 -1.1936 0
M  V30 3448 C 334.285 2.45312 -2.33828 0
M  V30 3449 C 333.458 2.40934 -3.65061 0
M  V30 3450 C 332.517 3.58047 -3.85602 0
M  V30 3451 O 331.543 3.39175 -4.57109 0
M  V30 3452 N 332.745 4.78637 -3.28462 0
M  V30 3453 H 335.51 0.733807 -2.90578 0
M  V30 3454 H 333.071 0.253719 -1.599 0
M  V30 3455 H 335.063 3.22314 -2.44737 0
M  V30 3456 H 333.633 2.74267 -1.49988 0
M  V30 3457 H 332.853 1.49273 -3.64844 0
M  V30 3458 H 334.141 2.35117 -4.51218 0
M  V30 3459 H 333.539 4.96872 -2.70433 0
M  V30 3460 H 332.096 5.53127 -3.44809 0
M  V30 3461 N 335.529 1.53961 0.336706 0
M  V30 3462 C 336.776 1.71536 1.07618 0
M  V30 3463 C 337.104 0.482125 1.8843 0
M  V30 3464 O 336.359 -0.536142 1.88213 0
M  V30 3465 C 336.658 2.93493 2.03953 0
M  V30 3466 C 336.324 4.28811 1.39399 0
M  V30 3467 C 334.986 4.65602 1.21523 0
M  V30 3468 C 337.338 5.12844 0.929541 0
M  V30 3469 C 334.666 5.84037 0.558312 0
M  V30 3470 C 337.018 6.31951 0.286505 0
M  V30 3471 C 335.682 6.67432 0.0954869 0
M  V30 3472 H 334.952 0.627696 0.393801 0
M  V30 3473 H 337.599 1.88186 0.354715 0
M  V30 3474 H 335.904 2.71475 2.82504 0
M  V30 3475 H 337.601 3.04285 2.61174 0
M  V30 3476 H 334.191 3.99858 1.54311 0
M  V30 3477 H 338.375 4.84947 1.05548 0
M  V30 3478 H 333.631 6.10097 0.398995 0
M  V30 3479 H 337.805 6.96352 -0.0814376 0
M  V30 3480 H 335.432 7.59063 -0.415579 0
M  V30 3481 N 337.007 -0.598083 1.45811 0
M  V30 3482 C 337.937 -1.71873 1.58057 0
M  V30 3483 C 338.918 -1.64533 0.431615 0
M  V30 3484 O 340.103 -1.82787 0.65595 0
M  V30 3485 C 337.233 -3.10495 1.55597 0
M  V30 3486 C 336.187 -3.32654 2.69305 0
M  V30 3487 C 335.513 -4.71646 2.51902 0
M  V30 3488 C 336.813 -3.21981 4.11248 0
M  V30 3489 H 338.507 -1.61881 2.51863 0
M  V30 3490 H 336.053 -0.777372 1.21214 0
M  V30 3491 H 338.006 -3.88699 1.6276 0
M  V30 3492 H 336.73 -3.2135 0.583255 0
M  V30 3493 H 335.389 -2.56843 2.61586 0
M  V30 3494 H 335.037 -4.79246 1.52748 0
M  V30 3495 H 334.737 -4.87426 3.2816 0
M  V30 3496 H 336.261 -5.52038 2.60933 0
M  V30 3497 H 337.675 -3.90049 4.20161 0
M  V30 3498 H 336.072 -3.49289 4.87972 0
M  V30 3499 H 337.142 -2.1928 4.32486 0
M  V30 3500 N 338.485 -1.33259 -0.841409 0
M  V30 3501 C 339.415 -1.25926 -1.96634 0
M  V30 3502 C 340.396 -0.140349 -1.6952 0
M  V30 3503 O 341.581 -0.329707 -1.91381 0
M  V30 3504 C 338.711 -0.99512 -3.32738 0
M  V30 3505 C 337.665 -2.0767 -3.74242 0
M  V30 3506 C 336.991 -1.66474 -5.08125 0
M  V30 3507 C 338.291 -3.49318 -3.88297 0
M  V30 3508 H 339.985 -2.20046 -2.03027 0
M  V30 3509 H 337.531 -1.05931 -0.975425 0
M  V30 3510 H 339.484 -0.930323 -4.11002 0
M  V30 3511 H 338.208 -0.0183004 -3.26595 0
M  V30 3512 H 336.867 -2.13187 -2.98239 0
M  V30 3513 H 336.515 -0.675012 -4.9845 0
M  V30 3514 H 336.215 -2.3885 -5.36865 0
M  V30 3515 H 337.739 -1.61455 -5.88867 0
M  V30 3516 H 339.153 -3.46316 -4.56879 0
M  V30 3517 H 337.55 -4.20158 -4.28471 0
M  V30 3518 H 338.62 -3.8801 -2.9082 0
M  V30 3519 N 339.963 1.05934 -1.16686 0
M  V30 3520 C 341.24 1.75643 -0.860747 0
M  V30 3521 C 341.62 2.01144 0.640641 0
M  V30 3522 O 340.968 1.64147 1.58959 0
M  V30 3523 C 341.178 3.05493 -1.68745 0
M  V30 3524 C 342.526 3.79581 -1.90271 0
M  V30 3525 O 343.55 3.15344 -1.65641 0
M  V30 3526 O 342.409 4.9499 -2.31618 0
M  V30 3527 H 339.503 0.763426 -0.317977 0
M  V30 3528 H 342.049 1.1217 -1.27342 0
M  V30 3529 H 340.821 2.8264 -2.70611 0
M  V30 3530 H 340.444 3.76702 -1.27206 0
M  V30 3531 N 341.441 0.965919 1.2453 0
M  V30 3532 C 342.689 0.625593 1.92174 0
M  V30 3533 C 343.01 -0.841652 1.75901 0
M  V30 3534 O 342.28 -1.60061 1.12948 0
M  V30 3535 H 340.86 0.228388 0.71123 0
M  V30 3536 H 343.522 1.2266 1.51461 0
M  V30 3537 H 342.618 0.864653 2.99884 0
M  V30 3538 N 342.919 -1.39368 0.735821 0
M  V30 3539 C 343.851 -2.2913 0.0567723 0
M  V30 3540 C 344.864 -1.46859 -0.702589 0
M  V30 3541 O 346.053 -1.69925 -0.546616 0
M  V30 3542 C 343.153 -3.25492 -0.943823 0
M  V30 3543 C 342.326 -4.36709 -0.24581 0
M  V30 3544 C 341.385 -5.13376 -1.15463 0
M  V30 3545 O 340.411 -5.65683 -0.631803 0
M  V30 3546 N 341.613 -5.24656 -2.48427 0
M  V30 3547 H 344.378 -2.88047 0.827582 0
M  V30 3548 H 341.939 -1.50957 0.585112 0
M  V30 3549 H 343.931 -3.73657 -1.55443 0
M  V30 3550 H 342.501 -2.676 -1.61583 0
M  V30 3551 H 341.721 -3.9041 0.545286 0
M  V30 3552 H 343.009 -5.08244 0.237891 0
M  V30 3553 H 342.407 -4.83679 -2.93379 0
M  V30 3554 H 340.964 -5.76258 -3.04582 0
M  V30 3555 N 344.397 -0.483516 -1.5 0
M  V30 3556 C 345.327 0.293829 -2.31644 0
M  V30 3557 C 346.308 0.978864 -1.39112 0
M  V30 3558 O 347.493 0.973644 -1.68029 0
M  V30 3559 C 344.623 1.36897 -3.19181 0
M  V30 3560 C 343.577 0.804833 -4.20365 0
M  V30 3561 C 342.903 1.9792 -4.96721 0
M  V30 3562 C 344.203 -0.192313 -5.21946 0
M  V30 3563 H 345.897 -0.387616 -2.9688 0
M  V30 3564 H 343.443 -0.187856 -1.42769 0
M  V30 3565 H 345.396 1.92037 -3.751 0
M  V30 3566 H 344.12 2.07936 -2.51853 0
M  V30 3567 H 342.779 0.275319 -3.65565 0
M  V30 3568 H 342.427 2.67686 -4.25856 0
M  V30 3569 H 342.127 1.60789 -5.65173 0
M  V30 3570 H 343.651 2.53526 -5.55479 0
M  V30 3571 H 345.065 0.270333 -5.72662 0
M  V30 3572 H 343.462 -0.478543 -5.98189 0
M  V30 3573 H 344.532 -1.11409 -4.71928 0
M  V30 3574 N 345.875 1.56104 -0.216619 0
M  V30 3575 C 346.805 2.23063 0.690296 0
M  V30 3576 C 347.786 1.20072 1.20485 0
M  V30 3577 O 348.971 1.48643 1.24976 0
M  V30 3578 C 346.101 2.90672 1.90072 0
M  V30 3579 C 345.055 4.00092 1.5202 0
M  V30 3580 C 344.381 4.54972 2.80899 0
M  V30 3581 C 345.681 5.17398 0.71391 0
M  V30 3582 H 347.375 2.99109 0.132038 0
M  V30 3583 H 344.921 1.43866 0.0620664 0
M  V30 3584 H 346.874 3.36204 2.54057 0
M  V30 3585 H 345.598 2.12066 2.48386 0
M  V30 3586 H 344.257 3.55283 0.903839 0
M  V30 3587 H 343.905 3.73102 3.37348 0
M  V30 3588 H 343.605 5.28817 2.56176 0
M  V30 3589 H 345.129 5.0322 3.45836 0
M  V30 3590 H 346.543 5.59342 1.25735 0
M  V30 3591 H 344.94 5.97444 0.563951 0
M  V30 3592 H 346.01 4.84088 -0.280527 0
M  V30 3593 N 347.353 -0.0568162 1.57498 0
M  V30 3594 C 348.764 -0.606858 1.76562 0
M  V30 3595 C 349.115 -1.77114 0.844094 0
M  V30 3596 O 348.24 -2.16376 0.0318911 0
M  V30 3597 C 348.835 -1.10766 3.20182 0
M  V30 3598 C 347.394 -1.60344 3.40539 0
M  V30 3599 C 346.541 -0.529311 2.72201 0
M  V30 3600 H 349.492 0.169393 1.57793 0
M  V30 3601 H 349.513 -1.97602 3.25167 0
M  V30 3602 H 349.025 -0.26006 3.87228 0
M  V30 3603 H 347.126 -2.47379 2.78629 0
M  V30 3604 H 347.239 -1.67006 4.4905 0
M  V30 3605 H 345.603 -0.977893 2.35179 0
M  V30 3606 H 346.386 0.308352 3.41912 0
M  V30 3607 N 348.832 -1.54138 -0.328536 0
M  V30 3608 C 350.109 -1.62749 -1.08499 0
M  V30 3609 C 350.489 -0.458198 -2.06067 0
M  V30 3610 O 349.837 0.548046 -2.2183 0
M  V30 3611 C 350.047 -2.99519 -1.79135 0
M  V30 3612 C 351.395 -3.55394 -2.32337 0
M  V30 3613 O 352.419 -3.01792 -1.89209 0
M  V30 3614 O 351.278 -4.49186 -3.11279 0
M  V30 3615 H 348.372 -0.65886 -0.499832 0
M  V30 3616 H 350.918 -1.66484 -0.328826 0
M  V30 3617 H 349.69 -3.76061 -1.08139 0
M  V30 3618 H 349.313 -2.99441 -2.61574 0
M  V30 3619 N 350.31 0.590341 -1.46126 0
M  V30 3620 C 351.258 1.72105 -1.5647 0
M  V30 3621 C 352.252 1.63756 -0.433612 0
M  V30 3622 O 353.458 1.69342 -0.610194 0
M  V30 3623 H 349.833 0.568889 -0.491802 0
M  V30 3624 H 351.804 1.6051 -2.51553 0
M  V30 3625 C 350.553 3.10493 -1.56491 0
M  V30 3626 H 349.876 3.17583 -2.4286 0
M  V30 3627 H 351.316 3.8939 -1.67785 0
M  V30 3628 C 349.775 3.3563 -0.292231 0
M  V30 3629 O 350.305 3.96875 0.620739 0
M  V30 3630 N 348.511 2.90026 -0.182523 0
M  V30 3631 H 348.058 2.40367 -0.926356 0
M  V30 3632 H 348.016 3.07218 0.668152 0
M  V30 3633 N 351.788 1.33704 0.83433 0
M  V30 3634 C 353.035 1.25417 1.58987 0
M  V30 3635 C 353.363 -0.178869 1.93676 0
M  V30 3636 O 352.618 -1.13723 1.59265 0
M  V30 3637 C 352.917 2.07926 2.90692 0
M  V30 3638 C 352.583 3.57066 2.75345 0
M  V30 3639 C 351.245 3.97724 2.70867 0
M  V30 3640 C 353.597 4.51817 2.59828 0
M  V30 3641 C 350.925 5.31344 2.48778 0
M  V30 3642 C 353.277 5.85604 2.39272 0
M  V30 3643 C 351.941 6.25439 2.33199 0
M  V30 3644 H 351.211 0.458934 0.581774 0
M  V30 3645 H 353.858 1.65335 0.966261 0
M  V30 3646 H 352.163 1.608 3.57282 0
M  V30 3647 H 353.86 1.98868 3.48213 0
M  V30 3648 H 350.45 3.24785 2.79665 0
M  V30 3649 H 354.634 4.21311 2.62319 0
M  V30 3650 H 349.89 5.61241 2.42526 0
M  V30 3651 H 354.064 6.58623 2.2625 0
M  V30 3652 H 351.691 7.28914 2.15843 0
M  V30 3653 N 353.266 -1.05314 1.17247 0
M  V30 3654 C 354.515 -1.77685 0.954521 0
M  V30 3655 C 354.828 -1.88616 -0.518025 0
M  V30 3656 O 356.034 -2.57714 -0.854144 0
M  V30 3657 C 354.49 -3.19402 1.65863 0
M  V30 3658 C 354.098 -3.16605 3.16963 0
M  V30 3659 C 355.842 -3.96237 1.52303 0
M  V30 3660 C 353.749 -4.53103 3.80068 0
M  V30 3661 H 352.679 -0.666 0.353496 0
M  V30 3662 H 355.33 -1.1805 1.40486 0
M  V30 3663 H 353.712 -3.79355 1.13602 0
M  V30 3664 H 354.886 -2.66176 3.76148 0
M  V30 3665 H 353.201 -2.53268 3.30521 0
M  V30 3666 H 355.798 -4.97157 1.96822 0
M  V30 3667 H 356.141 -4.136 0.473401 0
M  V30 3668 H 356.674 -3.42829 2.01775 0
M  V30 3669 H 353.413 -4.40946 4.85023 0
M  V30 3670 H 352.933 -5.03686 3.2567 0
M  V30 3671 H 354.612 -5.22045 3.82202 0
M  V30 3672 N 354.744 -0.972509 -1.24016 0
M  V30 3673 C 355.707 -0.511403 -2.23422 0
M  V30 3674 C 356.707 0.394679 -1.55881 0
M  V30 3675 O 357.897 0.189469 -1.73167 0
M  V30 3676 C 355.029 0.258769 -3.39916 0
M  V30 3677 H 356.222 -1.39024 -2.6573 0
M  V30 3678 H 353.775 -0.757585 -1.36713 0
M  V30 3679 H 354.51 1.1545 -3.03054 0
M  V30 3680 H 354.295 -0.391522 -3.9014 0
M  V30 3681 H 355.785 0.570244 -4.13688 0
M  V30 3682 N 356.222 1.38976 -0.743202 0
M  V30 3683 C 357.185 2.28901 -0.117014 0
M  V30 3684 C 358.185 1.46698 0.658503 0
M  V30 3685 O 359.375 1.67274 0.486305 0
M  V30 3686 C 356.507 3.30309 0.84315 0
M  V30 3687 H 357.7 2.8578 -0.909373 0
M  V30 3688 H 355.253 1.47761 -0.509547 0
M  V30 3689 H 355.988 2.785 1.66157 0
M  V30 3690 H 355.773 3.91029 0.289594 0
M  V30 3691 H 357.263 3.97577 1.2776 0
M  V30 3692 N 357.7 0.491464 1.49741 0
M  V30 3693 C 358.94 -0.0549118 2.04326 0
M  V30 3694 C 359.304 -1.35148 1.36378 0
M  V30 3695 O 360.505 -1.9815 1.81631 0
M  V30 3696 C 358.776 -0.213841 3.5676 0
M  V30 3697 S 360.335 -0.715839 4.32922 0
M  V30 3698 H 357.153 -0.00630513 0.710972 0
M  V30 3699 H 359.755 0.663257 1.83905 0
M  V30 3700 H 358.459 0.73527 4.0376 0
M  V30 3701 H 357.99 -0.957529 3.81569 0
M  V30 3702 H 360.005 -1.9864 4.54705 0
M  V30 3703 N 359.178 -1.55987 0.224894 0
M  V30 3704 C 360.406 -2.02784 -0.410665 0
M  V30 3705 C 360.821 -1.10464 -1.53112 0
M  V30 3706 O 360.178 -0.114871 -1.82138 0
M  V30 3707 C 360.229 -3.49087 -0.939165 0
M  V30 3708 O 359.95 -4.37887 0.136614 0
M  V30 3709 C 361.451 -4.11543 -1.64763 0
M  V30 3710 H 358.671 -0.663484 -0.100148 0
M  V30 3711 H 361.215 -2.01614 0.342326 0
M  V30 3712 H 359.37 -3.50861 -1.64242 0
M  V30 3713 H 359.784 -5.23849 -0.261155 0
M  V30 3714 H 361.258 -5.15673 -1.96939 0
M  V30 3715 H 361.735 -3.56736 -2.56195 0
M  V30 3716 H 362.341 -4.13629 -0.989503 0
M  V30 3717 N 360.656 0.0484629 -1.57525 0
M  V30 3718 C 361.566 1.07241 -2.08654 0
M  V30 3719 C 362.582 1.409 -1.02095 0
M  V30 3720 O 363.758 1.50609 -1.33712 0
M  V30 3721 C 360.823 2.36008 -2.5397 0
M  V30 3722 C 359.884 2.09108 -3.7493 0
M  V30 3723 C 359.117 3.31736 -4.18075 0
M  V30 3724 O 359.34 4.41714 -3.60895 0
M  V30 3725 O 358.274 3.18576 -5.10679 0
M  V30 3726 H 362.1 0.667965 -2.96263 0
M  V30 3727 H 359.685 0.26417 -1.47046 0
M  V30 3728 H 361.567 3.11747 -2.83535 0
M  V30 3729 H 360.242 2.75786 -1.69481 0
M  V30 3730 H 359.149 1.31 -3.50414 0
M  V30 3731 H 360.482 1.74198 -4.60343 0
M  V30 3732 N 362.134 1.5431 0.320358 0
M  V30 3733 C 363.081 1.83918 1.39438 0
M  V30 3734 C 364.051 0.686525 1.51248 0
M  V30 3735 O 365.236 0.933269 1.66417 0
M  V30 3736 C 362.376 2.075 2.75749 0
M  V30 3737 C 361.489 3.35177 2.72544 0
M  V30 3738 C 360.624 3.48704 4.00723 0
M  V30 3739 C 359.663 4.70244 3.91838 0
M  V30 3740 N 358.8 4.80679 5.11754 0
M  V30 3741 H 363.64 2.75544 1.13489 0
M  V30 3742 H 361.177 1.36459 0.549309 0
M  V30 3743 H 363.135 2.19166 3.54996 0
M  V30 3744 H 361.765 1.19163 3 0
M  V30 3745 H 360.817 3.32233 1.85271 0
M  V30 3746 H 362.129 4.24534 2.61863 0
M  V30 3747 H 361.283 3.59928 4.88402 0
M  V30 3748 H 360.022 2.57445 4.14214 0
M  V30 3749 H 359.027 4.59072 3.02544 0
M  V30 3750 H 360.252 5.6289 3.7991 0
M  V30 3751 H 358.198 3.92337 5.25745 0
M  V30 3752 H 358.115 5.64007 5.0342 0
M  V30 3753 H 359.383 4.96239 6.01138 0
M  V30 3754 N 363.613 -0.582584 1.46437 0
M  V30 3755 C 364.56 -1.69164 1.5701 0
M  V30 3756 C 365.53 -1.60847 0.414403 0
M  V30 3757 O 366.715 -1.80058 0.631171 0
M  V30 3758 C 363.855 -3.075 1.56646 0
M  V30 3759 C 362.968 -3.2644 2.82951 0
M  V30 3760 C 362.103 -4.55026 2.7409 0
M  V30 3761 C 361.142 -4.6731 3.95333 0
M  V30 3762 N 360.279 -5.87221 3.84858 0
M  V30 3763 H 365.119 -1.59464 2.51744 0
M  V30 3764 H 362.656 -0.777186 1.24893 0
M  V30 3765 H 364.614 -3.8757 1.5442 0
M  V30 3766 H 363.244 -3.16096 0.654439 0
M  V30 3767 H 362.296 -2.39974 2.95155 0
M  V30 3768 H 363.608 -3.31385 3.72808 0
M  V30 3769 H 362.762 -5.43324 2.6997 0
M  V30 3770 H 361.501 -4.52519 1.81873 0
M  V30 3771 H 360.506 -3.77429 3.99784 0
M  V30 3772 H 361.731 -4.71595 4.88646 0
M  V30 3773 H 359.677 -5.85712 2.95427 0
M  V30 3774 H 359.594 -5.93435 4.6837 0
M  V30 3775 H 360.862 -6.7795 3.84713 0
M  V30 3776 N 365.091 -1.34144 -0.827227 0
M  V30 3777 C 366.34 -1.25602 -1.5782 0
M  V30 3778 C 366.653 0.173445 -1.94829 0
M  V30 3779 O 367.859 0.380984 -2.68814 0
M  V30 3780 C 366.315 -2.20151 -2.84713 0
M  V30 3781 C 365.923 -3.68331 -2.55021 0
M  V30 3782 C 367.667 -2.20508 -3.62735 0
M  V30 3783 C 365.574 -4.54762 -3.78082 0
M  V30 3784 H 364.504 -0.466573 -0.592306 0
M  V30 3785 H 367.155 -1.59283 -0.911116 0
M  V30 3786 H 365.537 -1.79417 -3.53023 0
M  V30 3787 H 366.711 -4.17577 -1.94849 0
M  V30 3788 H 365.026 -3.7038 -1.90283 0
M  V30 3789 H 367.623 -2.82306 -4.54101 0
M  V30 3790 H 367.966 -1.20322 -3.98533 0
M  V30 3791 H 368.499 -2.59664 -3.01362 0
M  V30 3792 H 365.238 -5.55867 -3.47407 0
M  V30 3793 H 364.758 -4.10254 -4.37552 0
M  V30 3794 H 366.437 -4.69153 -4.45538 0
M  V30 3795 N 366.569 1.04691 -1.17803 0
M  V30 3796 C 367.98 1.59238 -0.974689 0
M  V30 3797 C 368.331 1.90306 0.477292 0
M  V30 3798 O 367.456 1.68846 1.35352 0
M  V30 3799 C 368.051 2.89318 -1.76296 0
M  V30 3800 C 366.61 3.40506 -1.60414 0
M  V30 3801 C 365.757 2.14172 -1.76141 0
M  V30 3802 H 368.708 0.874395 -1.32439 0
M  V30 3803 H 368.729 3.5944 -1.24833 0
M  V30 3804 H 368.241 2.66675 -2.81968 0
M  V30 3805 H 366.342 3.68175 -0.572519 0
M  V30 3806 H 366.455 4.14753 -2.39827 0
M  V30 3807 H 364.819 2.25176 -1.19028 0
M  V30 3808 H 365.602 1.93992 -2.83235 0
M  V30 3809 N 368.047 0.979072 1.23499 0
M  V30 3810 C 369.293 0.648178 1.92163 0
M  V30 3811 C 369.626 -0.816049 1.76222 0
M  V30 3812 O 368.901 -1.58849 1.12237 0
M  V30 3813 C 369.184 1.03773 3.44824 0
M  V30 3814 C 369.037 2.55948 3.69879 0
M  V30 3815 C 370.356 0.580653 4.36253 0
M  V30 3816 H 367.475 0.236952 0.69787 0
M  V30 3817 H 370.117 1.22012 1.45647 0
M  V30 3818 H 368.267 0.551058 3.84572 0
M  V30 3819 H 369.939 3.12179 3.3962 0
M  V30 3820 H 368.182 2.98641 3.14636 0
M  V30 3821 H 368.853 2.78255 4.76737 0
M  V30 3822 H 371.329 0.998465 4.03943 0
M  V30 3823 H 370.205 0.881663 5.41773 0
M  V30 3824 H 370.466 -0.519052 4.39042 0
M  V30 3825 N 369.525 -1.3858 0.750561 0
M  V30 3826 C 370.771 -2.00481 0.305825 0
M  V30 3827 C 371.104 -1.5944 -1.10872 0
M  V30 3828 O 370.379 -0.83052 -1.75877 0
M  V30 3829 C 370.662 -3.5758 0.425287 0
M  V30 3830 C 370.515 -4.08594 1.88072 0
M  V30 3831 C 371.834 -4.39719 -0.183122 0
M  V30 3832 H 368.953 -0.728348 0.112598 0
M  V30 3833 H 371.595 -1.64566 0.949638 0
M  V30 3834 H 369.745 -3.88306 -0.122828 0
M  V30 3835 H 371.417 -3.88523 2.48691 0
M  V30 3836 H 369.66 -3.61574 2.39681 0
M  V30 3837 H 370.331 -5.177 1.91548 0
M  V30 3838 H 372.807 -4.15128 0.284303 0
M  V30 3839 H 371.683 -5.48856 -0.0692757 0
M  V30 3840 H 371.944 -4.23434 -1.27106 0
M  V30 3841 N 371.003 -0.499398 -1.49478 0
M  V30 3842 C 372.25 0.0456899 -2.02448 0
M  V30 3843 C 372.578 1.37142 -1.37921 0
M  V30 3844 O 371.833 1.89111 -0.503544 0
M  V30 3845 C 372.132 0.248424 -3.56536 0
M  V30 3846 C 371.798 -0.999107 -4.39692 0
M  V30 3847 C 370.46 -1.34108 -4.62135 0
M  V30 3848 C 372.812 -1.82842 -4.88076 0
M  V30 3849 C 370.14 -2.51191 -5.30208 0
M  V30 3850 C 372.492 -2.99076 -5.57437 0
M  V30 3851 C 371.156 -3.33655 -5.78127 0
M  V30 3852 H 370.426 0.0167191 -0.740811 0
M  V30 3853 H 373.073 -0.65923 -1.79795 0
M  V30 3854 H 371.378 1.03586 -3.77859 0
M  V30 3855 H 373.075 0.684605 -3.95113 0
M  V30 3856 H 369.665 -0.722729 -4.22463 0
M  V30 3857 H 373.849 -1.57737 -4.70566 0
M  V30 3858 H 369.105 -2.78221 -5.44429 0
M  V30 3859 H 373.279 -3.63664 -5.93904 0
M  V30 3860 H 370.906 -4.24483 -6.30649 0
M  V30 3861 N 372.481 1.55866 -0.233164 0
M  V30 3862 C 373.897 1.59133 0.121988 0
M  V30 3863 C 374.097 1.25016 1.58029 0
M  V30 3864 O 373.153 0.990922 2.32243 0
M  V30 3865 C 374.466 2.99932 -0.214792 0
M  V30 3866 C 376.014 3.12601 -0.157971 0
M  V30 3867 C 376.489 4.55597 -0.46859 0
M  V30 3868 N 377.98 4.61305 -0.418585 0
M  V30 3869 C 378.715 5.69903 -0.63227 0
M  V30 3870 N 378.211 6.86819 -0.90835 0
M  V30 3871 N 380.004 5.59264 -0.563913 0
M  V30 3872 H 372.155 1.76315 -1.18434 0
M  V30 3873 H 374.418 0.820093 -0.475553 0
M  V30 3874 H 374.124 3.29588 -1.22739 0
M  V30 3875 H 373.998 3.74327 0.464691 0
M  V30 3876 H 376.385 2.82735 0.845283 0
M  V30 3877 H 376.466 2.40511 -0.871102 0
M  V30 3878 H 376.11 4.86182 -1.46934 0
M  V30 3879 H 376.04 5.25928 0.265865 0
M  V30 3880 H 378.531 3.77297 -0.213368 0
M  V30 3881 H 378.844 7.65507 -1.05919 0
M  V30 3882 H 377.189 6.88536 -0.945673 0
M  V30 3883 H 380.38 4.66802 -0.348372 0
M  V30 3884 H 380.553 6.43831 -0.733847 0
M  V30 3885 N 373.959 -0.0401083 1.57549 0
M  V30 3886 C 374.889 -1.04384 2.08869 0
M  V30 3887 C 375.87 -1.38407 0.988817 0
M  V30 3888 O 377.055 -1.47483 1.26342 0
M  V30 3889 C 374.185 -2.34808 2.55895 0
M  V30 3890 C 373.139 -2.15057 3.70047 0
M  V30 3891 C 372.465 -3.51145 4.03239 0
M  V30 3892 C 373.765 -1.54576 4.98902 0
M  V30 3893 H 375.459 -0.616666 2.92981 0
M  V30 3894 H 373.005 -0.295184 1.40942 0
M  V30 3895 H 374.958 -3.05346 2.90417 0
M  V30 3896 H 373.682 -2.79565 1.68853 0
M  V30 3897 H 372.341 -1.46954 3.35857 0
M  V30 3898 H 371.989 -3.93529 3.13279 0
M  V30 3899 H 371.689 -3.38758 4.80122 0
M  V30 3900 H 373.213 -4.23062 4.40285 0
M  V30 3901 H 374.627 -2.15017 5.31451 0
M  V30 3902 H 373.024 -1.52796 5.80322 0
M  V30 3903 H 374.094 -0.51039 4.82206 0
M  V30 3904 N 375.437 -1.54477 -0.31217 0
M  V30 3905 C 376.369 -1.81011 -1.40598 0
M  V30 3906 C 377.382 -0.692546 -1.47335 0
M  V30 3907 O 378.571 -0.969847 -1.49854 0
M  V30 3908 C 375.671 -1.92307 -2.79054 0
M  V30 3909 C 374.844 -3.22594 -2.95384 0
M  V30 3910 C 373.903 -3.24448 -4.1427 0
M  V30 3911 O 372.929 -3.98035 -4.06887 0
M  V30 3912 N 374.131 -2.49042 -5.24365 0
M  V30 3913 H 376.896 -2.75408 -1.18196 0
M  V30 3914 H 374.457 -1.53914 -0.502202 0
M  V30 3915 H 376.449 -1.90962 -3.56813 0
M  V30 3916 H 375.019 -1.04955 -2.94454 0
M  V30 3917 H 374.239 -3.36806 -2.04831 0
M  V30 3918 H 375.527 -4.08593 -3.03198 0
M  V30 3919 H 374.925 -1.88867 -5.33241 0
M  V30 3920 H 373.482 -2.53463 -6.005 0
M  V30 3921 N 376.915 0.57481 -1.46744 0
M  V30 3922 C 377.825 1.711 -1.60505 0
M  V30 3923 C 378.841 1.67008 -0.488307 0
M  V30 3924 O 380.017 1.86774 -0.753495 0
M  V30 3925 C 377.082 3.07608 -1.59932 0
M  V30 3926 C 376.143 3.22904 -2.82898 0
M  V30 3927 C 375.376 4.529 -2.82343 0
M  V30 3928 O 375.599 5.37278 -1.91542 0
M  V30 3929 O 374.533 4.71611 -3.73987 0
M  V30 3930 H 378.359 1.62436 -2.56609 0
M  V30 3931 H 375.944 0.742779 -1.29627 0
M  V30 3932 H 377.826 3.88877 -1.62336 0
M  V30 3933 H 376.501 3.16692 -0.669898 0
M  V30 3934 H 375.408 2.41099 -2.86046 0
M  V30 3935 H 376.741 3.18715 -3.75076 0
M  V30 3936 N 378.394 1.34581 0.820102 0
M  V30 3937 C 379.642 1.26845 1.57336 0
M  V30 3938 C 379.963 -0.160667 1.94337 0
M  V30 3939 O 379.233 -1.09396 1.6251 0
M  V30 3940 H 377.813 0.466514 0.583415 0
M  V30 3941 H 380.475 1.68526 0.979027 0
M  V30 3942 H 379.571 1.87513 2.4949 0
M  V30 3943 N 379.872 -1.04064 1.18357 0
M  V30 3944 C 381.102 -1.80654 1.00238 0
M  V30 3945 C 381.51 -1.83713 -0.452362 0
M  V30 3946 O 380.853 -1.27135 -1.32599 0
M  V30 3947 C 380.915 -3.27582 1.48088 0
M  V30 3948 C 380.579 -3.48184 2.96002 0
M  V30 3949 C 381.576 -3.39372 3.93856 0
M  V30 3950 C 379.261 -3.7478 3.34433 0
M  V30 3951 C 381.255 -3.5686 5.28138 0
M  V30 3952 C 378.942 -3.91915 4.68877 0
M  V30 3953 C 379.94 -3.82956 5.65539 0
M  V30 3954 O 379.628 -3.996 6.97549 0
M  V30 3955 H 379.36 -0.575751 0.354241 0
M  V30 3956 H 381.914 -1.32044 1.57333 0
M  V30 3957 H 380.144 -3.77161 0.853588 0
M  V30 3958 H 381.833 -3.8573 1.2636 0
M  V30 3959 H 382.599 -3.18789 3.65511 0
M  V30 3960 H 378.478 -3.80852 2.59756 0
M  V30 3961 H 382.022 -3.49783 6.03571 0
M  V30 3962 H 377.919 -4.11992 4.96923 0
M  V30 3963 H 378.687 -4.1676 7.04452 0
M  V30 3964 N 381.35 -0.985608 -1.22978 0
M  V30 3965 C 382.627 -0.573599 -1.87001 0
M  V30 3966 C 383.007 0.949213 -1.88555 0
M  V30 3967 O 382.355 1.82811 -1.37086 0
M  V30 3968 C 382.565 -1.18564 -3.28243 0
M  V30 3969 C 383.913 -1.28163 -4.04796 0
M  V30 3970 O 384.937 -1.13949 -3.37482 0
M  V30 3971 O 383.796 -1.50832 -5.25273 0
M  V30 3972 H 380.89 -0.193868 -0.803955 0
M  V30 3973 H 383.436 -1.08102 -1.30813 0
M  V30 3974 H 382.208 -2.22758 -3.21706 0
M  V30 3975 H 381.831 -0.663363 -3.92027 0
M  V30 3976 N 382.828 1.3818 -0.7579 0
M  V30 3977 C 383.778 2.27741 -0.108674 0
M  V30 3978 C 384.762 1.45415 0.688709 0
M  V30 3979 O 385.954 1.68108 0.553956 0
M  V30 3980 C 383.083 3.34313 0.780367 0
M  V30 3981 C 382.169 4.24093 -0.0240977 0
M  V30 3982 N 382.56 4.9451 -1.06271 0
M  V30 3983 C 380.858 4.45542 0.202049 0
M  V30 3984 C 381.559 5.60675 -1.54979 0
M  V30 3985 N 380.535 5.36684 -0.864348 0
M  V30 3986 H 384.337 2.79649 -0.904071 0
M  V30 3987 H 381.851 1.51133 -0.594346 0
M  V30 3988 H 383.848 3.97368 1.26114 0
M  V30 3989 H 382.508 2.83962 1.57467 0
M  V30 3990 H 383.519 4.97345 -1.44459 0
M  V30 3991 H 380.196 4.06091 0.96935 0
M  V30 3992 H 381.586 6.26992 -2.41517 0
M  V30 3993 N 384.306 0.507319 1.49211 0
M  V30 3994 C 385.531 -0.033725 2.07373 0
M  V30 3995 C 385.956 -1.29485 1.36437 0
M  V30 3996 O 385.314 -1.76294 0.423087 0
M  V30 3997 C 385.362 -0.263945 3.59633 0
M  V30 3998 O 384.466 -1.33737 3.90113 0
M  V30 3999 H 383.807 0.0290331 0.663365 0
M  V30 4000 H 386.337 0.708749 1.91932 0
M  V30 4001 H 386.347 -0.493536 4.05004 0
M  V30 4002 H 385.022 0.657424 4.10671 0
M  V30 4003 H 383.599 -1.09224 3.56545 0
M  V30 4004 N 385.784 -1.5574 0.241426 0
M  V30 4005 C 387.014 -2.02913 -0.38857 0
M  V30 4006 C 387.422 -1.12014 -1.52478 0
M  V30 4007 O 386.765 -0.125903 -1.83268 0
M  V30 4008 C 386.827 -3.4636 -0.963075 0
M  V30 4009 C 386.491 -4.56982 0.0401916 0
M  V30 4010 C 387.488 -5.12941 0.847766 0
M  V30 4011 C 385.173 -5.0203 0.164699 0
M  V30 4012 C 387.167 -6.12437 1.76636 0
M  V30 4013 C 384.854 -6.01358 1.0868 0
M  V30 4014 C 385.852 -6.5644 1.88616 0
M  V30 4015 O 385.54 -7.53831 2.79273 0
M  V30 4016 H 385.272 -0.668983 -0.0971452 0
M  V30 4017 H 387.826 -2.02198 0.361248 0
M  V30 4018 H 386.056 -3.44206 -1.76235 0
M  V30 4019 H 387.745 -3.77065 -1.50257 0
M  V30 4020 H 388.511 -4.78974 0.762133 0
M  V30 4021 H 384.39 -4.58824 -0.447411 0
M  V30 4022 H 387.934 -6.55355 2.39071 0
M  V30 4023 H 383.831 -6.34746 1.17338 0
M  V30 4024 H 384.599 -7.71428 2.73572 0
M  V30 4025 N 387.262 0.0317525 -1.57568 0
M  V30 4026 C 388.492 0.733884 -1.93126 0
M  V30 4027 C 388.9 1.69563 -0.839352 0
M  V30 4028 O 388.243 1.82681 0.193175 0
M  V30 4029 C 388.305 1.54798 -3.24465 0
M  V30 4030 C 387.969 0.751304 -4.50782 0
M  V30 4031 C 388.966 0.0527632 -5.19873 0
M  V30 4032 C 386.651 0.706639 -4.97305 0
M  V30 4033 C 388.645 -0.679774 -6.33765 0
M  V30 4034 C 386.332 -0.0296449 -6.11093 0
M  V30 4035 C 387.33 -0.721614 -6.79177 0
M  V30 4036 O 387.018 -1.44595 -7.90789 0
M  V30 4037 H 386.75 0.211459 -0.642076 0
M  V30 4038 H 389.304 -0.00585615 -2.05399 0
M  V30 4039 H 387.534 2.33147 -3.08512 0
M  V30 4040 H 389.223 2.13247 -3.4537 0
M  V30 4041 H 389.989 0.0783188 -4.84937 0
M  V30 4042 H 385.868 1.23474 -4.44157 0
M  V30 4043 H 389.412 -1.22042 -6.86842 0
M  V30 4044 H 385.309 -0.0571331 -6.45475 0
M  V30 4045 H 386.077 -1.35935 -8.07133 0
M  V30 4046 N 388.74 1.54641 0.303973 0
M  V30 4047 C 389.987 1.7378 1.03955 0
M  V30 4048 C 390.315 0.521986 1.87365 0
M  V30 4049 O 389.57 -0.496099 1.89308 0
M  V30 4050 C 389.869 2.97753 1.97681 0
M  V30 4051 C 389.535 4.31671 1.30271 0
M  V30 4052 C 388.197 4.68075 1.11619 0
M  V30 4053 C 390.549 5.147 0.82055 0
M  V30 4054 C 387.877 5.8509 0.434304 0
M  V30 4055 C 390.229 6.32416 0.152395 0
M  V30 4056 C 388.893 6.67484 -0.0461067 0
M  V30 4057 H 388.163 0.635908 0.380398 0
M  V30 4058 H 390.81 1.88896 0.314718 0
M  V30 4059 H 389.115 2.77406 2.76682 0
M  V30 4060 H 390.812 3.09756 2.54661 0
M  V30 4061 H 387.402 4.03041 1.45795 0
M  V30 4062 H 391.586 4.87077 0.952374 0
M  V30 4063 H 386.842 6.10806 0.269495 0
M  V30 4064 H 391.016 6.96023 -0.229126 0
M  V30 4065 H 388.643 7.58011 -0.576494 0
M  V30 4066 N 390.218 -0.567019 1.47046 0
M  V30 4067 C 391.467 -1.32091 1.5243 0
M  V30 4068 C 391.78 -1.94704 0.187021 0
M  V30 4069 O 392.986 -2.7124 0.118771 0
M  V30 4070 C 391.442 -2.39479 2.68659 0
M  V30 4071 C 391.05 -1.831 4.08874 0
M  V30 4072 C 392.794 -3.16111 2.83327 0
M  V30 4073 C 390.701 -2.8821 5.16419 0
M  V30 4074 H 389.631 -0.496629 0.56734 0
M  V30 4075 H 392.282 -0.603354 1.73297 0
M  V30 4076 H 390.664 -3.14105 2.41152 0
M  V30 4077 H 391.838 -1.14913 4.46242 0
M  V30 4078 H 390.153 -1.19085 3.99008 0
M  V30 4079 H 392.75 -3.94585 3.60842 0
M  V30 4080 H 393.093 -3.69686 1.91411 0
M  V30 4081 H 393.626 -2.48595 3.10556 0
M  V30 4082 H 390.365 -2.39504 6.10179 0
M  V30 4083 H 389.885 -3.54839 4.8358 0
M  V30 4084 H 391.564 -3.51881 5.42945 0
M  V30 4085 N 391.696 -1.35014 -0.812953 0
M  V30 4086 C 392.659 -1.27292 -1.90602 0
M  V30 4087 C 393.659 -0.185817 -1.59723 0
M  V30 4088 O 394.849 -0.439102 -1.68575 0
M  V30 4089 C 391.981 -0.967676 -3.26877 0
M  V30 4090 H 393.174 -2.24479 -1.9887 0
M  V30 4091 H 390.727 -1.19446 -1.00808 0
M  V30 4092 H 391.462 0.0005954 -3.243 0
M  V30 4093 H 391.247 -1.75412 -3.50675 0
M  V30 4094 H 392.737 -0.939085 -4.06904 0
M  V30 4095 N 393.175 1.03435 -1.18907 0
M  V30 4096 C 394.403 1.80381 -1.01342 0
M  V30 4097 C 394.818 1.83649 0.438005 0
M  V30 4098 O 394.175 1.27655 1.30424 0
M  V30 4099 C 394.226 3.25689 -1.56873 0
M  V30 4100 O 393.947 3.22673 -2.96334 0
M  V30 4101 C 395.448 4.19255 -1.44014 0
M  V30 4102 H 392.668 0.56784 -0.35749 0
M  V30 4103 H 395.212 1.30317 -1.576 0
M  V30 4104 H 393.367 3.72962 -1.04777 0
M  V30 4105 H 393.781 4.13748 -3.22355 0
M  V30 4106 H 395.255 5.19123 -1.87657 0
M  V30 4107 H 395.732 4.37467 -0.389815 0
M  V30 4108 H 396.338 3.77851 -1.95214 0
M  V30 4109 N 394.653 0.992116 1.22453 0
M  V30 4110 C 395.9 0.667534 1.91181 0
M  V30 4111 C 396.228 -0.800317 1.77271 0
M  V30 4112 O 395.483 -1.59421 1.13505 0
M  V30 4113 C 395.782 1.01832 3.42586 0
M  V30 4114 C 395.448 2.47831 3.76684 0
M  V30 4115 C 394.11 2.87729 3.85701 0
M  V30 4116 C 396.462 3.42466 3.92895 0
M  V30 4117 C 393.79 4.21252 4.08367 0
M  V30 4118 C 396.142 4.75648 4.17064 0
M  V30 4119 C 394.806 5.15288 4.24305 0
M  V30 4120 H 394.076 0.244268 0.699581 0
M  V30 4121 H 396.723 1.24816 1.45235 0
M  V30 4122 H 395.028 0.355769 3.90181 0
M  V30 4123 H 396.725 0.745228 3.94014 0
M  V30 4124 H 393.315 2.15905 3.70247 0
M  V30 4125 H 397.499 3.12814 3.85307 0
M  V30 4126 H 392.755 4.51554 4.122 0
M  V30 4127 H 396.929 5.48924 4.2855 0
M  V30 4128 H 394.556 6.18769 4.41621 0
M  V30 4129 N 396.131 -1.37776 0.765217 0
M  V30 4130 C 397.38 -1.99092 0.323307 0
M  V30 4131 C 397.693 -1.61434 -1.10446 0
M  V30 4132 O 398.899 -2.15805 -1.64743 0
M  V30 4133 C 397.355 -3.56019 0.527098 0
M  V30 4134 C 396.963 -4.0262 1.96471 0
M  V30 4135 C 398.707 -4.2424 0.148483 0
M  V30 4136 C 396.614 -5.52233 2.11644 0
M  V30 4137 H 395.544 -0.744846 0.117137 0
M  V30 4138 H 398.195 -1.57391 0.943417 0
M  V30 4139 H 396.577 -3.95667 -0.162372 0
M  V30 4140 H 397.751 -3.74234 2.68859 0
M  V30 4141 H 396.066 -3.47161 2.29931 0
M  V30 4142 H 398.663 -5.34159 0.240456 0
M  V30 4143 H 399.006 -4.06446 -0.900422 0
M  V30 4144 H 399.539 -3.89872 0.79025 0
M  V30 4145 H 396.278 -5.74945 3.1483 0
M  V30 4146 H 395.798 -5.82324 1.4373 0
M  V30 4147 H 397.477 -6.18106 1.91193 0
M  V30 4148 N 397.609 -0.515225 -1.4894 0
M  V30 4149 C 398.837 0.0206034 -2.0689 0
M  V30 4150 C 399.252 1.29514 -1.37374 0
M  V30 4151 O 398.609 1.76698 -0.456529 0
M  V30 4152 C 398.66 0.26351 -3.60538 0
M  V30 4153 O 398.381 -0.960517 -4.27441 0
M  V30 4154 C 399.882 0.841383 -4.35242 0
M  V30 4155 H 397.102 -0.0268608 -0.670462 0
M  V30 4156 H 399.646 -0.716651 -1.91532 0
M  V30 4157 H 397.801 0.950777 -3.75552 0
M  V30 4158 H 398.215 -0.73212 -5.19365 0
M  V30 4159 H 399.689 0.96085 -5.43573 0
M  V30 4160 H 400.166 1.8427 -3.98674 0
M  V30 4161 H 400.772 0.191143 -4.2487 0
M  V30 4162 N 399.087 1.5561 -0.249682 0
M  V30 4163 C 400.364 1.90932 0.424761 0
M  V30 4164 C 400.744 1.17078 1.75658 0
M  V30 4165 O 400.092 0.289176 2.26663 0
M  V30 4166 C 400.302 3.43975 0.590109 0
M  V30 4167 C 401.65 4.15281 0.884714 0
M  V30 4168 O 402.674 3.49729 0.67587 0
M  V30 4169 O 401.533 5.31236 1.28259 0
M  V30 4170 H 398.627 0.794815 0.228468 0
M  V30 4171 H 401.173 1.67135 -0.293954 0
M  V30 4172 H 399.945 3.89748 -0.34818 0
M  V30 4173 H 399.568 3.73644 1.35926 0
M  V30 4174 N 400.565 -0.0233959 1.57583 0
M  V30 4175 C 401.515 -1.03023 2.03397 0
M  V30 4176 C 402.499 -1.31701 0.924315 0
M  V30 4177 O 403.691 -1.31191 1.18819 0
M  V30 4178 C 400.82 -2.32961 2.52159 0
M  V30 4179 C 399.906 -2.07349 3.69956 0
M  V30 4180 N 400.297 -1.51814 4.82479 0
M  V30 4181 C 398.595 -2.37606 3.77438 0
M  V30 4182 C 399.296 -1.42136 5.64068 0
M  V30 4183 N 398.272 -1.89891 5.09355 0
M  V30 4184 H 402.074 -0.594962 2.87815 0
M  V30 4185 H 399.588 -0.229586 1.60769 0
M  V30 4186 H 401.585 -3.05906 2.83244 0
M  V30 4187 H 400.245 -2.77162 1.69149 0
M  V30 4188 H 401.256 -1.20008 5.03804 0
M  V30 4189 H 397.933 -2.84842 3.05239 0
M  V30 4190 H 399.323 -0.996405 6.64471 0
M  V30 4191 N 402.043 -1.548 -0.295768 0
M  V30 4192 C 403.292 -1.73538 -1.02798 0
M  V30 4193 C 403.605 -0.531159 -1.8825 0
M  V30 4194 O 404.811 -0.600458 -2.64777 0
M  V30 4195 C 403.267 -3.07051 -1.87744 0
M  V30 4196 C 402.875 -4.34968 -1.07269 0
M  V30 4197 C 404.619 -3.35146 -2.60533 0
M  V30 4198 C 402.526 -5.5953 -1.91521 0
M  V30 4199 H 401.456 -0.646794 -0.387522 0
M  V30 4200 H 404.107 -1.81278 -0.284718 0
M  V30 4201 H 402.489 -2.93289 -2.66078 0
M  V30 4202 H 403.663 -4.5958 -0.335117 0
M  V30 4203 H 401.978 -4.13847 -0.460384 0
M  V30 4204 H 404.575 -4.2541 -3.23929 0
M  V30 4205 H 404.918 -2.54255 -3.29636 0
M  V30 4206 H 405.451 -3.49902 -1.89244 0
M  V30 4207 H 402.19 -6.43103 -1.26878 0
M  V30 4208 H 401.71 -5.39096 -2.62937 0
M  V30 4209 H 403.389 -5.96982 -2.49442 0
M  V30 4210 N 403.521 0.559213 -1.47345 0
M  V30 4211 C 404.937 0.884943 -1.32819 0
M  V30 4212 C 405.137 1.98988 -0.317173 0
M  V30 4213 O 404.193 2.51031 0.272011 0
M  V30 4214 C 405.506 1.28007 -2.72093 0
M  V30 4215 C 407.054 1.39161 -2.80363 0
M  V30 4216 C 407.529 1.82031 -4.20272 0
M  V30 4217 N 409.02 1.89185 -4.22804 0
M  V30 4218 C 409.755 2.2368 -5.27973 0
M  V30 4219 N 409.251 2.56802 -6.43447 0
M  V30 4220 N 411.044 2.24436 -5.15349 0
M  V30 4221 H 403.195 -0.170304 -2.11716 0
M  V30 4222 H 405.458 -0.0135247 -0.947904 0
M  V30 4223 H 405.164 0.542027 -3.47498 0
M  V30 4224 H 405.038 2.23665 -3.03733 0
M  V30 4225 H 407.425 2.12048 -2.05231 0
M  V30 4226 H 407.506 0.41696 -2.52379 0
M  V30 4227 H 407.15 1.09715 -4.95908 0
M  V30 4228 H 407.08 2.80495 -4.45679 0
M  V30 4229 H 409.571 1.65982 -3.39497 0
M  V30 4230 H 409.884 2.82144 -7.19454 0
M  V30 4231 H 408.229 2.54387 -6.46771 0
M  V30 4232 H 411.42 1.97998 -4.24163 0
M  V30 4233 H 411.593 2.50989 -5.97418 0
M  V30 4234 N 404.999 1.35443 0.805782 0
M  V30 4235 C 405.949 1.24972 1.90699 0
M  V30 4236 C 406.933 0.144806 1.60247 0
M  V30 4237 O 408.125 0.376102 1.72958 0
M  V30 4238 C 405.254 1.02475 3.27649 0
M  V30 4239 C 404.34 2.17361 3.64164 0
M  V30 4240 N 404.731 3.42591 3.72109 0
M  V30 4241 C 403.029 2.08765 3.94123 0
M  V30 4242 C 403.73 4.18144 4.04389 0
M  V30 4243 N 402.706 3.4691 4.18515 0
M  V30 4244 H 406.508 2.19852 1.95044 0
M  V30 4245 H 404.022 1.27928 1.00041 0
M  V30 4246 H 406.019 0.930617 4.06381 0
M  V30 4247 H 404.679 0.0848009 3.24589 0
M  V30 4248 H 405.69 3.76932 3.55166 0
M  V30 4249 H 402.367 1.22629 3.99084 0
M  V30 4250 H 403.757 5.26367 4.17597 0
M  V30 4251 N 406.477 -1.02803 1.19454 0
M  V30 4252 C 407.427 -2.0945 0.900827 0
M  V30 4253 C 408.411 -1.60335 -0.134715 0
M  V30 4254 O 409.603 -1.76857 0.0710924 0
M  V30 4255 C 406.732 -3.4044 0.442229 0
M  V30 4256 C 405.818 -3.96286 1.51056 0
M  V30 4257 N 406.209 -4.25785 2.73021 0
M  V30 4258 C 404.507 -4.24307 1.37404 0
M  V30 4259 C 405.208 -4.70654 3.41848 0
M  V30 4260 N 404.184 -4.72238 2.69243 0
M  V30 4261 H 407.986 -2.3015 1.82779 0
M  V30 4262 H 405.5 -1.20672 1.08683 0
M  V30 4263 H 407.497 -4.16354 0.21326 0
M  V30 4264 H 406.157 -3.21159 -0.478238 0
M  V30 4265 H 407.168 -4.15041 3.09776 0
M  V30 4266 H 403.845 -4.14285 0.517103 0
M  V30 4267 H 405.235 -5.02392 4.46152 0
M  V30 4268 N 407.956 -0.998596 -1.21925 0
M  V30 4269 C 408.919 -0.558679 -2.22287 0
M  V30 4270 C 409.919 0.361525 -1.56683 0
M  V30 4271 O 411.109 0.152695 -1.73529 0
M  V30 4272 C 408.241 0.18661 -3.40389 0
M  V30 4273 H 409.434 -1.4463 -2.62721 0
M  V30 4274 H 406.987 -0.786413 -1.35075 0
M  V30 4275 H 407.722 1.08996 -3.05435 0
M  V30 4276 H 407.507 -0.474188 -3.89222 0
M  V30 4277 H 408.997 0.482367 -4.14805 0
M  V30 4278 N 409.434 1.37368 -0.772513 0
M  V30 4279 C 410.381 2.30262 -0.157488 0
M  V30 4280 C 411.351 1.51137 0.688965 0
M  V30 4281 O 412.536 1.79704 0.641168 0
M  V30 4282 C 409.676 3.37611 0.715045 0
M  V30 4283 C 408.789 4.31746 -0.148098 0
M  V30 4284 C 407.924 5.26171 0.729213 0
M  V30 4285 C 406.963 6.11948 -0.136418 0
M  V30 4286 N 406.1 6.98613 0.698914 0
M  V30 4287 H 410.94 2.82277 -0.955179 0
M  V30 4288 H 408.477 1.38957 -0.482631 0
M  V30 4289 H 410.435 3.98479 1.23575 0
M  V30 4290 H 409.065 2.86959 1.47833 0
M  V30 4291 H 408.117 3.72178 -0.786613 0
M  V30 4292 H 409.429 4.92084 -0.81579 0
M  V30 4293 H 408.583 5.92247 1.31637 0
M  V30 4294 H 407.322 4.66246 1.43059 0
M  V30 4295 H 406.327 5.4485 -0.736102 0
M  V30 4296 H 407.552 6.73945 -0.835134 0
M  V30 4297 H 405.498 6.41215 1.38489 0
M  V30 4298 H 405.415 7.55948 0.0885358 0
M  V30 4299 H 406.683 7.69077 1.27044 0
M  V30 4300 N 410.912 0.523116 1.48665 0
M  V30 4301 C 412.142 -0.00961724 2.06598 0
M  V30 4302 C 412.55 -1.29333 1.38093 0
M  V30 4303 O 411.893 -1.77846 0.46007 0
M  V30 4304 C 411.955 -0.311135 3.58151 0
M  V30 4305 C 411.619 0.878092 4.48485 0
M  V30 4306 C 412.616 1.77464 4.88674 0
M  V30 4307 C 410.301 1.08315 4.90483 0
M  V30 4308 C 412.295 2.86021 5.69623 0
M  V30 4309 C 409.982 2.17187 5.71203 0
M  V30 4310 C 410.98 3.05873 6.10681 0
M  V30 4311 O 410.668 4.12862 6.89783 0
M  V30 4312 H 410.4 0.0272658 0.67545 0
M  V30 4313 H 412.954 0.726156 1.92136 0
M  V30 4314 H 411.184 -1.10079 3.70701 0
M  V30 4315 H 412.873 -0.785125 3.98234 0
M  V30 4316 H 413.639 1.62813 4.56855 0
M  V30 4317 H 409.518 0.402149 4.59243 0
M  V30 4318 H 413.062 3.55272 6.00356 0
M  V30 4319 H 408.959 2.31824 6.02435 0
M  V30 4320 H 409.727 4.10487 7.08126 0
M  V30 4321 N 412.39 -1.55475 0.257931 0
M  V30 4322 C 413.32 -2.24815 -0.630912 0
M  V30 4323 C 414.301 -1.23224 -1.17259 0
M  V30 4324 O 415.486 -1.51904 -1.20991 0
M  V30 4325 C 412.616 -2.95609 -1.82298 0
M  V30 4326 C 411.57 -4.03982 -1.41359 0
M  V30 4327 C 410.896 -4.6226 -2.68738 0
M  V30 4328 C 412.196 -5.19109 -0.57648 0
M  V30 4329 H 413.89 -2.99354 -0.0526878 0
M  V30 4330 H 411.436 -1.4398 -0.023901 0
M  V30 4331 H 413.389 -3.42822 -2.45054 0
M  V30 4332 H 412.113 -2.18577 -2.42676 0
M  V30 4333 H 410.772 -3.57555 -0.809324 0
M  V30 4334 H 410.42 -3.81915 -3.27338 0
M  V30 4335 H 410.12 -5.35424 -2.42065 0
M  V30 4336 H 411.644 -5.12212 -3.32372 0
M  V30 4337 H 413.058 -5.62479 -1.10861 0
M  V30 4338 H 411.455 -5.98729 -0.405351 0
M  V30 4339 H 412.525 -4.83174 0.408776 0
M  V30 4340 N 413.868 0.0150385 -1.57593 0
M  V30 4341 C 414.816 1.02958 -2.08572 0
M  V30 4342 C 415.81 1.36554 -1.00246 0
M  V30 4343 O 417.016 1.35295 -1.18724 0
M  V30 4344 H 413.391 0.349619 -0.665786 0
M  V30 4345 H 415.362 0.573932 -2.92829 0
M  V30 4346 C 414.111 2.31752 -2.59203 0
M  V30 4347 H 413.434 2.06765 -3.42182 0
M  V30 4348 H 414.874 3.01053 -2.98568 0
M  V30 4349 C 413.333 3.01692 -1.49945 0
M  V30 4350 O 413.863 3.92083 -0.873704 0
M  V30 4351 N 412.069 2.6326 -1.23056 0
M  V30 4352 H 411.616 1.89838 -1.74125 0
M  V30 4353 H 411.574 3.10372 -0.501685 0
M  V30 4354 N 415.346 1.54954 0.287554 0
M  V30 4355 C 416.309 1.86076 1.33823 0
M  V30 4356 C 417.309 0.734414 1.43049 0
M  V30 4357 O 418.499 1.00266 1.42452 0
M  V30 4358 C 415.631 2.05305 2.72144 0
M  V30 4359 H 416.824 2.79984 1.07465 0
M  V30 4360 H 414.377 1.47223 0.524902 0
M  V30 4361 H 415.112 1.1373 3.03704 0
M  V30 4362 H 414.897 2.873 2.66836 0
M  V30 4363 H 416.387 2.30706 3.48087 0
M  V30 4364 O 416.863 -0.433401 1.55576 0
M  V30 4365 H 417.554 -1.08681 1.60337 0
M  V30 END ATOM
M  V30 BEGIN BOND
M  V30 END BOND
M  V30 END CTAB
M  END
$$$$
