drugbank_target|P43876 Shikimate dehydrogenase (NADP(+)) (DB02363)
 OpenBabel12092119543D

  0  0  0     0  0            999 V3000
M  V30 BEGIN CTAB
M  V30 COUNTS 4193 4232 0 0 0
M  V30 BEGIN ATOM
M  V30 1 H -0.908 1.98254 -0.117106 0
M  V30 2 N 0 1.576 0 0
M  V30 3 C 0.933 2.03868 1.02534 0
M  V30 4 C 1.911 0.928543 1.3348 0
M  V30 5 O 3.095 1.19667 1.45644 0
M  V30 6 C 0.222 2.43627 2.35294 0
M  V30 7 C -0.732 3.65373 2.2001 0
M  V30 8 S 0.101 5.13292 1.52614 0
M  V30 9 C 1.257 5.56322 2.86805 0
M  V30 10 H 1.49 2.90518 0.631377 0
M  V30 11 H -0.977 1.52953 0.210867 0
M  V30 12 H 0.981 2.67203 3.11629 0
M  V30 13 H -0.358 1.57376 2.7183 0
M  V30 14 H -1.165 3.90944 3.18086 0
M  V30 15 H -1.563 3.418 1.51819 0
M  V30 16 H 0.729 5.58782 3.83104 0
M  V30 17 H 1.672 6.56266 2.65933 0
M  V30 18 H 2.08 4.83886 2.90714 0
M  V30 19 N 1.4781 -0.272755 1.55222 0
M  V30 20 C 2.7551 -1.02562 1.66555 0
M  V30 21 C 3.1351 -2.04282 0.532189 0
M  V30 22 O 2.4831 -2.23662 -0.467717 0
M  V30 23 C 2.6931 -1.6822 3.05782 0
M  V30 24 C 4.0411 -2.19373 3.63539 0
M  V30 25 O 5.0651 -1.78206 3.08417 0
M  V30 26 O 3.9241 -2.94883 4.60115 0
M  V30 27 H 1.0181 -0.475755 0.676451 0
M  V30 28 H 3.5641 -0.268593 1.67561 0
M  V30 29 H 2.3361 -0.945112 3.79715 0
M  V30 30 H 1.9591 -2.50609 3.08676 0
M  V30 31 N 2.9562 -1.48159 -0.537278 0
M  V30 32 C 3.8862 -1.65029 -1.6519 0
M  V30 33 C 4.8672 -0.499281 -1.62607 0
M  V30 34 O 6.0522 -0.730972 -1.79918 0
M  V30 35 C 3.1822 -1.68303 -3.03795 0
M  V30 36 C 2.1362 -2.8283 -3.21234 0
M  V30 37 C 1.4622 -2.71189 -4.60826 0
M  V30 38 C 2.7622 -4.24211 -3.04701 0
M  V30 39 H 4.4562 -2.58341 -1.51328 0
M  V30 40 H 2.0022 -1.24325 -0.726585 0
M  V30 41 H 3.9552 -1.78693 -3.81637 0
M  V30 42 H 2.6792 -0.715635 -3.18663 0
M  V30 43 H 1.3382 -2.71983 -2.45807 0
M  V30 44 H 0.9862 -1.72435 -4.7252 0
M  V30 45 H 0.6862 -3.48035 -4.7344 0
M  V30 46 H 2.2102 -2.83537 -5.40777 0
M  V30 47 H 3.6242 -4.3593 -3.72341 0
M  V30 48 H 2.0212 -5.01998 -3.28813 0
M  V30 49 H 3.0912 -4.41184 -2.01209 0
M  V30 50 N 4.4343 0.785586 -1.36625 0
M  V30 51 C 5.6643 1.5722 -1.34036 0
M  V30 52 C 6.0723 1.89033 0.0795062 0
M  V30 53 O 5.4153 1.50881 1.04789 0
M  V30 54 C 5.4773 2.91759 -2.10041 0
M  V30 55 C 5.1413 2.82654 -3.59104 0
M  V30 56 C 6.1383 2.54634 -4.53274 0
M  V30 57 C 3.8233 3.01111 -4.02042 0
M  V30 58 C 5.8173 2.45177 -5.88359 0
M  V30 59 C 3.5043 2.91276 -5.37216 0
M  V30 60 C 4.5023 2.63348 -6.30188 0
M  V30 61 O 4.1903 2.53514 -7.6288 0
M  V30 62 H 3.9223 0.494177 -0.461265 0
M  V30 63 H 6.4763 0.982632 -1.8037 0
M  V30 64 H 4.7063 3.52781 -1.58375 0
M  V30 65 H 6.3953 3.53059 -2.00261 0
M  V30 66 H 7.1613 2.40073 -4.21414 0
M  V30 67 H 3.0403 3.21854 -3.30047 0
M  V30 68 H 6.5843 2.23299 -6.60896 0
M  V30 69 H 2.4813 3.054 -5.68684 0
M  V30 70 H 3.2493 2.68967 -7.73045 0
M  V30 71 N 5.9124 1.20967 1.01018 0
M  V30 72 C 6.8754 0.965918 2.07853 0
M  V30 73 C 7.8754 -0.0610545 1.60684 0
M  V30 74 O 9.0654 0.175681 1.73312 0
M  V30 75 C 6.1974 0.455513 3.37843 0
M  V30 76 H 7.3904 1.91365 2.3091 0
M  V30 77 H 4.9434 1.02594 1.17916 0
M  V30 78 H 5.6784 -0.497381 3.20463 0
M  V30 79 H 5.4634 1.19622 3.73407 0
M  V30 80 H 6.9534 0.304667 4.16487 0
M  V30 81 N 7.3905 -1.2043 1.01659 0
M  V30 82 C 8.6365 -1.90079 0.706963 0
M  V30 83 C 8.9695 -1.78648 -0.761474 0
M  V30 84 O 8.2445 -1.17069 -1.55323 0
M  V30 85 C 8.5275 -3.41469 1.14327 0
M  V30 86 C 8.3805 -3.61833 2.67201 0
M  V30 87 C 9.6995 -4.34261 0.714529 0
M  V30 88 H 6.8185 -0.690254 0.2583 0
M  V30 89 H 9.4605 -1.41826 1.26433 0
M  V30 90 H 7.6105 -3.82696 0.669056 0
M  V30 91 H 9.2825 -3.2986 3.22475 0
M  V30 92 H 7.5255 -3.05304 3.08175 0
M  V30 93 H 8.1965 -4.67955 2.92783 0
M  V30 94 H 10.6725 -4.00682 1.12221 0
M  V30 95 H 9.5485 -5.38806 1.04784 0
M  V30 96 H 9.8095 -4.40431 -0.383799 0
M  V30 97 N 8.8686 -0.792821 -1.36206 0
M  V30 98 C 10.1146 -0.376415 -1.99887 0
M  V30 99 C 10.4696 1.04127 -1.61788 0
M  V30 100 O 9.7626 1.71004 -0.864193 0
M  V30 101 C 9.9566 -0.481501 -3.54142 0
M  V30 102 C 9.7856 -1.90786 -4.07223 0
M  V30 103 C 8.5556 -2.53322 -4.37214 0
M  V30 104 C 10.7536 -2.87048 -4.26741 0
M  V30 105 N 8.7356 -3.8751 -4.7614 0
M  V30 106 C 10.1066 -4.06077 -4.6851 0
M  V30 107 C 12.1616 -2.8406 -4.08918 0
M  V30 108 C 10.8646 -5.22532 -4.94321 0
M  V30 109 C 12.8906 -3.99705 -4.35878 0
M  V30 110 C 12.2526 -5.1748 -4.77906 0
M  V30 111 H 8.3516 -0.185226 -0.759747 0
M  V30 112 H 10.9356 -1.03114 -1.65153 0
M  V30 113 H 9.1066 0.143154 -3.88136 0
M  V30 114 H 10.8386 -0.0410128 -4.04679 0
M  V30 115 H 7.5936 -2.04777 -4.2704 0
M  V30 116 H 8.0176 -4.5656 -4.99882 0
M  V30 117 H 12.6596 -1.94165 -3.75579 0
M  V30 118 H 10.3776 -6.1301 -5.2654 0
M  V30 119 H 13.9636 -3.98758 -4.23655 0
M  V30 120 H 12.8436 -6.05478 -4.98363 0
M  V30 121 N 10.3467 1.47872 -0.545128 0
M  V30 122 C 11.5947 2.02093 -0.016553 0
M  V30 123 C 11.9157 1.42305 1.3332 0
M  V30 124 O 11.1857 0.593853 1.86682 0
M  V30 125 H 9.7657 0.746993 -0.00313038 0
M  V30 126 H 12.4277 1.81414 -0.712397 0
M  V30 127 H 11.5237 3.11996 0.0805422 0
M  V30 128 N 11.8248 0.280983 1.55075 0
M  V30 129 C 12.7728 -0.619864 2.24188 0
M  V30 130 C 13.7668 -1.15315 1.24092 0
M  V30 131 O 14.9728 -1.1061 1.42005 0
M  V30 132 H 11.3478 -0.218459 0.719569 0
M  V30 133 H 13.3188 -0.0141831 2.98397 0
M  V30 134 C 12.0678 -1.7899 2.98091 0
M  V30 135 H 11.3908 -1.38874 3.74905 0
M  V30 136 H 12.8308 -2.39672 3.49762 0
M  V30 137 C 11.2898 -2.68192 2.03899 0
M  V30 138 O 11.8198 -3.6872 1.594 0
M  V30 139 N 10.0258 -2.35488 1.70275 0
M  V30 140 H 9.5728 -1.53787 2.06658 0
M  V30 141 H 9.5308 -2.95442 1.07524 0
M  V30 142 N 13.3029 -1.57598 0.00835791 0
M  V30 143 C 14.7139 -1.7892 -0.53333 0
M  V30 144 C 15.0649 -0.916609 -1.73473 0
M  V30 145 O 14.1899 -0.121336 -2.1606 0
M  V30 146 C 14.7849 -3.24488 -0.974313 0
M  V30 147 C 13.3439 -3.46878 -1.46125 0
M  V30 148 C 12.4909 -2.74157 -0.416302 0
M  V30 149 H 15.4419 -1.56958 0.234495 0
M  V30 150 H 15.4629 -3.3306 -1.83988 0
M  V30 151 H 14.9749 -3.87972 -0.099718 0
M  V30 152 H 13.0759 -2.8862 -2.35646 0
M  V30 153 H 13.1889 -4.55572 -1.48295 0
M  V30 154 H 11.5529 -2.39022 -0.87981 0
M  V30 155 H 12.3359 -3.40345 0.44947 0
M  V30 156 N 14.781 0.264519 -1.55364 0
M  V30 157 C 16.03 0.992812 -1.75574 0
M  V30 158 C 16.343 1.87142 -0.568979 0
M  V30 159 O 17.549 2.63513 -0.653682 0
M  V30 160 C 16.005 1.81519 -3.10771 0
M  V30 161 C 15.613 0.984839 -4.37041 0
M  V30 162 C 17.357 2.53727 -3.40327 0
M  V30 163 C 15.264 1.80209 -5.63275 0
M  V30 164 H 14.194 0.374412 -0.65447 0
M  V30 165 H 16.845 0.248138 -1.81815 0
M  V30 166 H 15.227 2.60115 -2.98591 0
M  V30 167 H 16.401 0.242455 -4.60162 0
M  V30 168 H 14.716 0.37691 -4.14691 0
M  V30 169 H 17.313 3.15292 -4.3185 0
M  V30 170 H 17.656 3.24447 -2.60845 0
M  V30 171 H 18.189 1.82156 -3.53644 0
M  V30 172 H 14.928 1.13896 -6.45529 0
M  V30 173 H 14.448 2.52022 -5.44284 0
M  V30 174 H 16.127 2.37364 -6.01887 0
M  V30 175 N 16.2591 1.48442 0.529413 0
M  V30 176 C 17.2221 1.62524 1.61612 0
M  V30 177 C 18.2221 0.498509 1.52877 0
M  V30 178 O 19.4121 0.76431 1.56537 0
M  V30 179 C 16.5441 1.59597 3.01233 0
M  V30 180 H 17.7371 2.59423 1.50465 0
M  V30 181 H 15.2901 1.37047 0.751514 0
M  V30 182 H 16.0251 0.641781 3.17886 0
M  V30 183 H 15.8101 2.41397 3.08982 0
M  V30 184 H 17.3001 1.72646 3.80241 0
M  V30 185 N 17.7372 -0.778329 1.37039 0
M  V30 186 C 18.6692 -1.90034 1.2814 0
M  V30 187 C 19.6822 -1.61585 0.198558 0
M  V30 188 O 20.8712 -1.72625 0.454175 0
M  V30 189 C 17.9712 -3.25108 0.956968 0
M  V30 190 C 17.1442 -3.81253 2.14394 0
M  V30 191 C 16.2032 -4.94789 1.79082 0
M  V30 192 O 15.2292 -5.10721 2.51301 0
M  V30 193 N 16.4312 -5.75878 0.731043 0
M  V30 194 H 19.1962 -1.98186 2.24816 0
M  V30 195 H 16.7572 -0.957129 1.30578 0
M  V30 196 H 18.7492 -3.9857 0.701701 0
M  V30 197 H 17.3192 -3.125 0.0789812 0
M  V30 198 H 16.5392 -2.99647 2.56135 0
M  V30 199 H 17.8272 -4.15495 2.93668 0
M  V30 200 H 17.2252 -5.65547 0.131618 0
M  V30 201 H 15.7822 -6.49596 0.535622 0
M  V30 202 N 19.2153 -1.21501 -1.00376 0
M  V30 203 C 20.4403 -1.05977 -1.78279 0
M  V30 204 C 20.8653 0.385994 -1.84097 0
M  V30 205 O 20.2233 1.27849 -1.28547 0
M  V30 206 C 20.2713 -1.66302 -3.19963 0
M  V30 207 O 19.3753 -0.909333 -4.0225 0
M  V30 208 H 18.7163 -0.372906 -0.549397 0
M  V30 209 H 21.2463 -1.6107 -1.26165 0
M  V30 210 H 21.2563 -1.70574 -3.70632 0
M  V30 211 H 19.9313 -2.71515 -3.15043 0
M  V30 212 H 18.5083 -0.941795 -3.60811 0
M  V30 213 N 20.6934 1.19889 -1.02296 0
M  V30 214 C 21.6404 2.22901 -0.598651 0
M  V30 215 C 22.6104 1.61588 0.384521 0
M  V30 216 O 23.7954 1.88697 0.282522 0
M  V30 217 C 20.9354 3.45063 0.0504476 0
M  V30 218 C 20.0484 4.20783 -0.978053 0
M  V30 219 C 19.1834 5.30356 -0.299338 0
M  V30 220 C 18.2224 5.97826 -1.31416 0
M  V30 221 N 17.3594 6.98975 -0.661667 0
M  V30 222 H 22.1994 2.58554 -1.48169 0
M  V30 223 H 19.7364 1.27039 -0.741584 0
M  V30 224 H 21.6944 4.14831 0.443971 0
M  V30 225 H 20.3244 3.10084 0.897097 0
M  V30 226 H 19.3764 3.50018 -1.48969 0
M  V30 227 H 20.6884 4.67109 -1.74958 0
M  V30 228 H 19.8424 6.06516 0.149347 0
M  V30 229 H 18.5814 4.85084 0.504445 0
M  V30 230 H 17.5864 5.20422 -1.77317 0
M  V30 231 H 18.8114 6.45183 -2.11933 0
M  V30 232 H 16.7574 6.55886 0.122132 0
M  V30 233 H 16.6744 7.43461 -1.37117 0
M  V30 234 H 17.9424 7.7914 -0.236785 0
M  V30 235 N 22.1715 0.800033 1.35784 0
M  V30 236 C 23.3965 0.388511 2.03729 0
M  V30 237 C 23.8215 -0.990481 1.5991 0
M  V30 238 O 23.1795 -1.64013 0.772612 0
M  V30 239 C 23.2275 0.4726 3.5749 0
M  V30 240 O 22.3315 -0.51646 4.09153 0
M  V30 241 H 21.6725 0.163271 0.643614 0
M  V30 242 H 24.2025 1.0841 1.73518 0
M  V30 243 H 24.2125 0.34003 4.06581 0
M  V30 244 H 22.8875 1.47848 3.88734 0
M  V30 245 H 21.4645 -0.344673 3.71304 0
M  V30 246 N 23.6496 -1.47581 0.552962 0
M  V30 247 C 25.0606 -1.86324 0.118463 0
M  V30 248 C 25.4116 -1.46006 -1.3106 0
M  V30 249 O 24.5366 -0.861182 -1.98526 0
M  V30 250 C 25.1316 -3.3816 0.20821 0
M  V30 251 C 23.6906 -3.7601 -0.171226 0
M  V30 252 C 22.8376 -2.71634 0.557686 0
M  V30 253 H 25.7886 -1.39159 0.762928 0
M  V30 254 H 25.8096 -3.76141 -0.574278 0
M  V30 255 H 25.3216 -3.67473 1.24841 0
M  V30 256 H 23.4226 -3.52313 -1.21269 0
M  V30 257 H 23.5356 -4.78745 0.184379 0
M  V30 258 H 21.8996 -2.547 0.00125792 0
M  V30 259 H 22.6826 -3.0379 1.59896 0
M  V30 260 N 25.1277 -0.289203 -1.54924 0
M  V30 261 C 26.0577 0.58549 -2.2604 0
M  V30 262 C 27.0387 1.14753 -1.25562 0
M  V30 263 O 28.2237 1.17906 -1.54311 0
M  V30 264 C 25.3537 1.76305 -2.99222 0
M  V30 265 C 24.3077 1.33191 -4.06748 0
M  V30 266 C 23.6337 2.5937 -4.6758 0
M  V30 267 C 24.9337 0.471775 -5.20165 0
M  V30 268 H 26.6277 -0.00763532 -2.99399 0
M  V30 269 H 24.1737 -0.00511229 -1.43999 0
M  V30 270 H 26.1267 2.38097 -3.47689 0
M  V30 271 H 24.8507 2.38223 -2.23422 0
M  V30 272 H 23.5097 0.737121 -3.59113 0
M  V30 273 H 23.1577 3.19576 -3.88433 0
M  V30 274 H 22.8577 2.31228 -5.40192 0
M  V30 275 H 24.3817 3.21985 -5.18804 0
M  V30 276 H 25.7957 0.995056 -5.64599 0
M  V30 277 H 24.1927 0.284639 -5.99425 0
M  V30 278 H 25.2627 -0.506041 -4.82252 0
M  V30 279 N 26.6058 1.57591 -0.0167156 0
M  V30 280 C 27.8548 1.90461 0.663877 0
M  V30 281 C 28.1678 0.893515 1.73999 0
M  V30 282 O 29.3738 1.11302 2.47637 0
M  V30 283 C 27.8298 3.38155 1.23204 0
M  V30 284 C 27.4378 4.47597 0.189866 0
M  V30 285 C 29.1818 3.80111 1.88986 0
M  V30 286 C 27.0888 5.86379 0.768964 0
M  V30 287 H 26.0188 0.710738 0.251729 0
M  V30 288 H 28.6698 1.83326 -0.0799926 0
M  V30 289 H 27.0518 3.40182 2.02712 0
M  V30 290 H 28.2258 4.57112 -0.581846 0
M  V30 291 H 26.5408 4.14766 -0.368475 0
M  V30 292 H 29.1378 4.81145 2.33247 0
M  V30 293 H 29.4808 3.14511 2.72743 0
M  V30 294 H 30.0138 3.80454 1.16187 0
M  V30 295 H 26.7528 6.55493 -0.0301957 0
M  V30 296 H 26.2728 5.80496 1.50945 0
M  V30 297 H 27.9518 6.34563 1.26251 0
M  V30 298 N 28.0839 -0.256276 1.55502 0
M  V30 299 C 29.0159 -1.33981 1.85962 0
M  V30 300 C 30.0289 -1.44743 0.745212 0
M  V30 301 O 31.2179 -1.4626 1.02324 0
M  V30 302 C 28.3179 -2.7194 2.02242 0
M  V30 303 C 27.4909 -2.83562 3.33033 0
M  V30 304 C 26.5499 -4.02304 3.39172 0
M  V30 305 O 25.5759 -3.92273 4.12444 0
M  V30 306 N 26.7779 -5.15045 2.67784 0
M  V30 307 H 29.5429 -1.08191 2.7949 0
M  V30 308 H 27.1039 -0.446388 1.55624 0
M  V30 309 H 29.0959 -3.49697 2.03701 0
M  V30 310 H 27.6659 -2.90479 1.15502 0
M  V30 311 H 26.8859 -1.92555 3.43971 0
M  V30 312 H 28.1739 -2.88271 4.19258 0
M  V30 313 H 27.5719 -5.26085 2.07968 0
M  V30 314 H 26.1289 -5.90972 2.74947 0
M  V30 315 N 29.562 -1.4872 -0.521534 0
M  V30 316 C 30.51 -1.64328 -1.64618 0
M  V30 317 C 31.504 -0.50953 -1.61555 0
M  V30 318 O 32.71 -0.688525 -1.66311 0
M  V30 319 H 29.085 -0.517805 -0.545328 0
M  V30 320 H 31.056 -2.58767 -1.48601 0
M  V30 321 C 29.805 -1.70805 -3.02855 0
M  V30 322 H 29.128 -2.5741 -3.05909 0
M  V30 323 H 30.568 -1.85766 -3.81139 0
M  V30 324 C 29.027 -0.448479 -3.33902 0
M  V30 325 O 29.557 0.434928 -3.99339 0
M  V30 326 N 27.763 -0.317616 -2.88859 0
M  V30 327 H 27.31 -1.03748 -2.35784 0
M  V30 328 H 27.268 0.524113 -3.10001 0
M  V30 329 N 31.0401 0.771051 -1.3745 0
M  V30 330 C 31.9871 1.88435 -1.3327 0
M  V30 331 C 32.9571 1.64914 -0.198136 0
M  V30 332 O 34.1421 1.86821 -0.387606 0
M  V30 333 C 31.2821 3.25509 -1.14622 0
M  V30 334 C 30.3951 3.60979 -2.37314 0
M  V30 335 C 29.5301 4.87265 -2.11533 0
M  V30 336 C 28.5691 5.15469 -3.30088 0
M  V30 337 N 27.7061 6.32944 -3.03853 0
M  V30 338 H 32.5461 1.91344 -2.28455 0
M  V30 339 H 30.0831 0.935466 -1.13523 0
M  V30 340 H 32.0411 4.04582 -1.01831 0
M  V30 341 H 30.6711 3.21974 -0.230837 0
M  V30 342 H 29.7231 2.76885 -2.60842 0
M  V30 343 H 31.0351 3.77759 -3.25729 0
M  V30 344 H 30.1891 5.74244 -1.95777 0
M  V30 345 H 28.9281 4.7259 -1.20457 0
M  V30 346 H 27.9331 4.26966 -3.46382 0
M  V30 347 H 29.1581 5.32052 -4.22016 0
M  V30 348 H 27.1041 6.19625 -2.15407 0
M  V30 349 H 27.0211 6.50143 -3.85812 0
M  V30 350 H 28.2891 7.22857 -2.91716 0
M  V30 351 N 32.5182 1.22032 0.997298 0
M  V30 352 C 33.4482 1.01065 2.10495 0
M  V30 353 C 34.4292 -0.0669542 1.69968 0
M  V30 354 O 35.6142 0.0943987 1.9397 0
M  V30 355 C 32.7442 0.582874 3.42374 0
M  V30 356 C 31.6982 1.60592 3.96729 0
M  V30 357 C 31.0242 1.03412 5.24605 0
M  V30 358 C 32.3242 2.99478 4.27914 0
M  V30 359 H 34.0182 1.93708 2.28292 0
M  V30 360 H 31.5642 0.932761 1.09707 0
M  V30 361 H 33.5172 0.423332 4.19268 0
M  V30 362 H 32.2412 -0.379213 3.24391 0
M  V30 363 H 30.9002 1.75316 3.21963 0
M  V30 364 H 30.5482 0.063518 5.0296 0
M  V30 365 H 30.2482 1.71754 5.61938 0
M  V30 366 H 31.7722 0.886066 6.04137 0
M  V30 367 H 33.1862 2.88153 4.95622 0
M  V30 368 H 31.5832 3.64903 4.76409 0
M  V30 369 H 32.6532 3.49742 3.3587 0
M  V30 370 N 33.9963 -1.19345 1.0293 0
M  V30 371 C 34.9593 -2.20793 0.615069 0
M  V30 372 C 35.9593 -1.57553 -0.321533 0
M  V30 373 O 37.1493 -1.73862 -0.108483 0
M  V30 374 C 34.2813 -3.40754 -0.0999222 0
M  V30 375 H 35.4743 -2.58955 1.51269 0
M  V30 376 H 33.0273 -1.3303 0.820534 0
M  V30 377 H 33.7623 -3.0811 -1.01187 0
M  V30 378 H 33.5473 -3.87889 0.57309 0
M  V30 379 H 35.0373 -4.15898 -0.376645 0
M  V30 380 N 35.4744 -0.807222 -1.35358 0
M  V30 381 C 36.4374 -0.223665 -2.28106 0
M  V30 382 C 37.4374 0.589354 -1.4961 0
M  V30 383 O 38.6274 0.407745 -1.69361 0
M  V30 384 C 35.7594 0.688149 -3.33882 0
M  V30 385 H 36.9524 -1.04169 -2.81227 0
M  V30 386 H 34.5054 -0.577921 -1.45223 0
M  V30 387 H 35.2404 1.52984 -2.85948 0
M  V30 388 H 35.0254 0.10687 -3.91954 0
M  V30 389 H 36.5154 1.09075 -4.03104 0
M  V30 390 N 36.9525 1.47285 -0.560781 0
M  V30 391 C 37.8845 2.28118 0.222438 0
M  V30 392 C 38.8975 1.37219 0.876056 0
M  V30 393 O 40.0865 1.62011 0.749307 0
M  V30 394 C 37.1865 3.1159 1.33285 0
M  V30 395 C 36.3595 4.30473 0.77534 0
M  V30 396 C 35.4185 4.95513 1.77069 0
M  V30 397 O 34.4445 5.53792 1.31539 0
M  V30 398 N 35.6465 4.90531 3.10418 0
M  V30 399 H 38.4115 2.95976 -0.470958 0
M  V30 400 H 35.9725 1.56955 -0.39709 0
M  V30 401 H 37.9645 3.51967 1.99752 0
M  V30 402 H 36.5345 2.45951 1.92943 0
M  V30 403 H 35.7545 3.94144 -0.0662113 0
M  V30 404 H 37.0425 5.07362 0.382272 0
M  V30 405 H 36.4405 4.44389 3.5005 0
M  V30 406 H 34.9975 5.34917 3.72434 0
M  V30 407 N 38.4306 0.297415 1.54768 0
M  V30 408 C 39.6586 -0.315623 2.04478 0
M  V30 409 C 40.0736 -1.47792 1.17486 0
M  V30 410 O 39.4306 -1.81404 0.19971 0
M  V30 411 C 39.4816 -0.7753 3.53088 0
M  V30 412 O 39.2026 0.340732 4.36773 0
M  V30 413 C 40.7036 -1.45386 4.18781 0
M  V30 414 H 37.9236 -0.0690887 0.667434 0
M  V30 415 H 40.4676 0.436003 1.99798 0
M  V30 416 H 38.6226 -1.47696 3.58141 0
M  V30 417 H 39.0366 -0.0165035 5.24497 0
M  V30 418 H 40.5106 -1.72669 5.24299 0
M  V30 419 H 40.9876 -2.39275 3.68299 0
M  V30 420 H 41.5936 -0.795475 4.17795 0
M  V30 421 N 39.9087 -1.5758 0.0250728 0
M  V30 422 C 40.8587 -2.06468 -0.967201 0
M  V30 423 C 41.8427 -0.964376 -1.28797 0
M  V30 424 O 43.0347 -1.22797 -1.27475 0
M  V30 425 C 40.1637 -2.59203 -2.25097 0
M  V30 426 C 39.2497 -3.76157 -1.95874 0
M  V30 427 N 39.6407 -4.86919 -1.36905 0
M  V30 428 C 37.9387 -3.84566 -2.25887 0
M  V30 429 C 38.6397 -5.68172 -1.24724 0
M  V30 430 N 37.6157 -5.14953 -1.74138 0
M  V30 431 H 41.4177 -2.89508 -0.506176 0
M  V30 432 H 38.9317 -1.61399 -0.18004 0
M  V30 433 H 40.9287 -2.92517 -2.97052 0
M  V30 434 H 39.5887 -1.77592 -2.71829 0
M  V30 435 H 40.5997 -5.07256 -1.04459 0
M  V30 436 H 37.2767 -3.13854 -2.75321 0
M  V30 437 H 38.6667 -6.67221 -0.791605 0
M  V30 438 N 41.3868 0.248026 -1.55636 0
M  V30 439 C 42.3188 1.32993 -1.8667 0
M  V30 440 C 43.3318 1.44345 -0.752877 0
M  V30 441 O 44.5208 1.45715 -1.03098 0
M  V30 442 C 41.6208 2.70863 -2.03682 0
M  V30 443 C 40.7938 2.81792 -3.34532 0
M  V30 444 C 39.8528 4.005 -3.41301 0
M  V30 445 O 38.8788 3.9008 -4.14519 0
M  V30 446 N 40.0808 5.13618 -2.70512 0
M  V30 447 H 42.8458 1.06707 -2.8006 0
M  V30 448 H 40.4068 0.438129 -1.55859 0
M  V30 449 H 42.3988 3.48612 -2.05553 0
M  V30 450 H 40.9688 2.89862 -1.17041 0
M  V30 451 H 40.1888 1.90729 -3.44987 0
M  V30 452 H 41.4768 2.86043 -4.20781 0
M  V30 453 H 40.8748 5.24975 -2.10755 0
M  V30 454 H 39.4318 5.89505 -2.78077 0
M  V30 455 N 42.8649 1.48995 0.513639 0
M  V30 456 C 44.0929 1.61531 1.29288 0
M  V30 457 C 44.5079 0.281801 1.86685 0
M  V30 458 O 43.8649 -0.731111 1.67215 0
M  V30 459 C 43.9159 2.67449 2.43215 0
M  V30 460 O 43.6369 3.95626 1.88179 0
M  V30 461 C 45.1379 2.90575 3.34785 0
M  V30 462 H 42.3579 0.544165 0.392588 0
M  V30 463 H 44.9019 1.9494 0.617956 0
M  V30 464 H 43.0569 2.36853 3.0656 0
M  V30 465 H 43.4709 4.53868 2.62876 0
M  V30 466 H 44.9449 3.68449 4.11035 0
M  V30 467 H 45.4219 2.00011 3.91015 0
M  V30 468 H 46.0279 3.22538 2.77218 0
M  V30 469 N 44.343 -0.763751 1.37857 0
M  V30 470 C 45.276 -1.88486 1.28639 0
M  V30 471 C 46.254 -1.61757 0.165363 0
M  V30 472 O 47.438 -1.85391 0.340948 0
M  V30 473 C 44.565 -3.23884 0.990811 0
M  V30 474 C 43.611 -3.69514 2.12983 0
M  V30 475 S 44.444 -3.82244 3.75033 0
M  V30 476 C 45.6 -5.20477 3.47641 0
M  V30 477 H 45.833 -1.96017 2.23527 0
M  V30 478 H 43.366 -0.925684 1.23574 0
M  V30 479 H 45.324 -4.02081 0.827101 0
M  V30 480 H 43.985 -3.14044 0.0592832 0
M  V30 481 H 43.178 -4.67696 1.87821 0
M  V30 482 H 42.78 -2.98441 2.25408 0
M  V30 483 H 45.072 -6.05905 3.03125 0
M  V30 484 H 46.015 -5.50655 4.4518 0
M  V30 485 H 46.423 -4.88793 2.82385 0
M  V30 486 N 45.8211 -1.22559 -0.990812 0
M  V30 487 C 46.7311 -1.01394 -2.11557 0
M  V30 488 C 47.7471 0.0383962 -1.73958 0
M  V30 489 O 48.9231 -0.154787 -2.00804 0
M  V30 490 C 45.9881 -0.596569 -3.41529 0
M  V30 491 C 45.0491 -1.72276 -3.93217 0
M  V30 492 C 44.2821 -1.32521 -5.16985 0
M  V30 493 O 44.5051 -0.204909 -5.70032 0
M  V30 494 O 43.4391 -2.14247 -5.62478 0
M  V30 495 H 47.2651 -1.95633 -2.32296 0
M  V30 496 H 44.8501 -1.01172 -1.0993 0
M  V30 497 H 46.7321 -0.374263 -4.19735 0
M  V30 498 H 45.4071 0.316939 -3.22145 0
M  V30 499 H 44.3141 -1.99961 -3.16174 0
M  V30 500 H 45.6471 -2.61421 -4.17037 0
M  V30 501 N 47.2992 1.18797 -1.03562 0
M  V30 502 C 48.5292 1.92319 -0.754773 0
M  V30 503 C 48.9372 1.7612 0.691248 0
M  V30 504 O 48.2802 1.08491 1.48241 0
M  V30 505 C 48.3422 3.44284 -1.03484 0
M  V30 506 C 48.0062 3.84258 -2.47376 0
M  V30 507 C 49.0032 3.88459 -3.45537 0
M  V30 508 C 46.6882 4.15701 -2.81954 0
M  V30 509 C 48.6822 4.23545 -4.76328 0
M  V30 510 C 46.3692 4.50458 -4.12954 0
M  V30 511 C 47.3672 4.54356 -5.09951 0
M  V30 512 O 47.0552 4.88305 -6.38603 0
M  V30 513 H 46.7872 0.617527 -0.275021 0
M  V30 514 H 49.3412 1.51683 -1.38497 0
M  V30 515 H 47.5712 3.85135 -0.347513 0
M  V30 516 H 49.2602 3.99049 -0.7426 0
M  V30 517 H 50.0262 3.6431 -3.20162 0
M  V30 518 H 45.9052 4.11847 -2.0713 0
M  V30 519 H 49.4492 4.26502 -5.52035 0
M  V30 520 H 45.3462 4.74067 -4.38099 0
M  V30 521 H 46.1142 5.06227 -6.43177 0
M  V30 522 N 48.7773 0.814389 1.34928 0
M  V30 523 C 50.0263 0.394871 1.97797 0
M  V30 524 C 50.3393 -1.04555 1.65311 0
M  V30 525 O 51.5453 -1.56856 2.21604 0
M  V30 526 C 50.0013 0.655103 3.53888 0
M  V30 527 C 49.6093 2.10858 3.95276 0
M  V30 528 C 51.3533 0.301329 4.23429 0
M  V30 529 C 49.2603 2.31415 5.44244 0
M  V30 530 H 48.1903 0.143913 0.740139 0
M  V30 531 H 50.8413 0.999544 1.53888 0
M  V30 532 H 49.2233 -0.0196253 3.95995 0
M  V30 533 H 50.3973 2.82176 3.64298 0
M  V30 534 H 48.7123 2.42297 3.38646 0
M  V30 535 H 51.3093 0.432869 5.32945 0
M  V30 536 H 51.6523 -0.75331 4.09428 0
M  V30 537 H 52.1853 0.930288 3.86769 0
M  V30 538 H 48.9243 3.35353 5.63222 0
M  V30 539 H 48.4443 1.6463 5.76764 0
M  V30 540 H 50.1233 2.13352 6.10811 0
M  V30 541 N 50.2554 -1.46986 0.568584 0
M  V30 542 C 51.2184 -2.28624 -0.162366 0
M  V30 543 C 52.2184 -1.37596 -0.832103 0
M  V30 544 O 53.4084 -1.60115 -0.68622 0
M  V30 545 C 50.5404 -3.17596 -1.23878 0
M  V30 546 H 51.7334 -2.94722 0.554899 0
M  V30 547 H 49.2864 -1.52863 0.325976 0
M  V30 548 H 50.0214 -2.56214 -1.98808 0
M  V30 549 H 49.8064 -3.846 -0.763219 0
M  V30 550 H 51.2964 -3.79078 -1.75185 0
M  V30 551 N 51.7335 -0.305618 -1.54608 0
M  V30 552 C 52.6805 0.568421 -2.23691 0
M  V30 553 C 53.6505 1.12592 -1.22116 0
M  V30 554 O 54.8355 1.16959 -1.50749 0
M  V30 555 C 51.9755 1.7322 -2.98477 0
M  V30 556 C 51.0885 1.20566 -4.14835 0
M  V30 557 C 50.2235 2.33368 -4.77193 0
M  V30 558 C 49.2625 1.7787 -5.85686 0
M  V30 559 N 48.3995 2.84263 -6.4198 0
M  V30 560 H 53.2395 -0.0272867 -2.97988 0
M  V30 561 H 50.7765 -0.0252363 -1.47078 0
M  V30 562 H 52.7345 2.41675 -3.40072 0
M  V30 563 H 51.3645 2.29947 -2.26548 0
M  V30 564 H 50.4165 0.413223 -3.78149 0
M  V30 565 H 51.7285 0.759417 -4.92985 0
M  V30 566 H 50.8825 3.09761 -5.21664 0
M  V30 567 H 49.6215 2.8132 -3.98385 0
M  V30 568 H 48.6265 0.99968 -5.40635 0
M  V30 569 H 49.8515 1.30816 -6.66381 0
M  V30 570 H 47.7975 3.31541 -5.66053 0
M  V30 571 H 47.7145 2.44149 -7.15491 0
M  V30 572 H 48.9825 3.6054 -6.91109 0
M  V30 573 N 53.2116 1.57565 -0.0334293 0
M  V30 574 C 54.1416 2.13511 0.945265 0
M  V30 575 C 55.1226 1.05231 1.33643 0
M  V30 576 O 56.3076 1.33084 1.41429 0
M  V30 577 C 53.4376 2.6657 2.22616 0
M  V30 578 C 52.3916 3.79676 1.97561 0
M  V30 579 C 51.7176 4.1918 3.31952 0
M  V30 580 C 53.0176 5.0557 1.31135 0
M  V30 581 H 54.7116 2.95538 0.479325 0
M  V30 582 H 52.2576 1.42166 0.229115 0
M  V30 583 H 54.2106 3.04344 2.91466 0
M  V30 584 H 52.9346 1.8171 2.71384 0
M  V30 585 H 51.5936 3.42347 1.31127 0
M  V30 586 H 51.2416 3.31296 3.78487 0
M  V30 587 H 50.9416 4.95402 3.15992 0
M  V30 588 H 52.4656 4.59541 4.02063 0
M  V30 589 H 53.8796 5.40903 1.89992 0
M  V30 590 H 52.2766 5.86818 1.25559 0
M  V30 591 H 53.3466 4.84062 0.284894 0
M  V30 592 N 54.6897 -0.239769 1.55765 0
M  V30 593 C 55.9377 -0.964892 1.77579 0
M  V30 594 C 56.2587 -1.85582 0.598699 0
M  V30 595 O 55.5287 -1.92075 -0.385226 0
M  V30 596 H 54.1087 -0.359265 0.654933 0
M  V30 597 H 56.7707 -0.256001 1.93211 0
M  V30 598 H 55.8667 -1.58243 2.69009 0
M  V30 599 N 56.1678 -1.49265 -0.50573 0
M  V30 600 C 57.4448 -1.49012 -1.26707 0
M  V30 601 C 57.8248 -0.215205 -2.1 0
M  V30 602 O 57.1728 0.802547 -2.13943 0
M  V30 603 C 57.3828 -2.7663 -2.12783 0
M  V30 604 C 58.7308 -3.25932 -2.72127 0
M  V30 605 O 59.7548 -2.77715 -2.23054 0
M  V30 606 O 58.6138 -4.09897 -3.61451 0
M  V30 607 H 55.7078 -0.596197 -0.57313 0
M  V30 608 H 58.2538 -1.61524 -0.52039 0
M  V30 609 H 57.0258 -3.60916 -1.5118 0
M  V30 610 H 56.6488 -2.66956 -2.94653 0
M  V30 611 N 57.6459 0.756429 -1.3826 0
M  V30 612 C 58.5759 1.88374 -1.37976 0
M  V30 613 C 59.5569 1.68311 -0.246082 0
M  V30 614 O 60.7419 1.88944 -0.44874 0
M  V30 615 C 57.8719 3.25864 -1.20125 0
M  V30 616 C 56.8259 3.60523 -2.30666 0
M  V30 617 C 56.1519 4.9672 -1.97923 0
M  V30 618 C 57.4519 3.65692 -3.72916 0
M  V30 619 H 59.1459 1.88869 -2.32312 0
M  V30 620 H 56.6919 0.907272 -1.11824 0
M  V30 621 H 58.6449 4.0438 -1.18552 0
M  V30 622 H 57.3689 3.25841 -0.222498 0
M  V30 623 H 56.0279 2.84324 -2.3142 0
M  V30 624 H 55.6759 4.93253 -0.985393 0
M  V30 625 H 55.3759 5.20878 -2.71955 0
M  V30 626 H 56.8999 5.77618 -1.97964 0
M  V30 627 H 58.3139 4.34328 -3.74208 0
M  V30 628 H 56.7109 4.01358 -4.4613 0
M  V30 629 H 57.7809 2.65987 -4.05436 0
M  V30 630 N 59.124 1.23083 0.984299 0
M  V30 631 C 60.401 0.9689 1.69917 0
M  V30 632 C 60.781 -0.513604 2.04757 0
M  V30 633 O 60.129 -1.48383 1.73767 0
M  V30 634 C 60.339 1.87518 2.94343 0
M  V30 635 C 61.687 2.13636 3.6694 0
M  V30 636 O 62.711 1.85036 3.04368 0
M  V30 637 O 61.57 2.62119 4.79537 0
M  V30 638 H 58.664 0.365095 0.742048 0
M  V30 639 H 61.21 1.34107 1.03987 0
M  V30 640 H 59.982 2.87756 2.65164 0
M  V30 641 H 59.605 1.50514 3.6801 0
M  V30 642 N 60.6021 -1.18246 1.0419 0
M  V30 643 C 61.5651 -2.20128 0.638452 0
M  V30 644 C 62.5651 -1.57885 -0.304805 0
M  V30 645 O 63.7551 -1.73967 -0.0900369 0
M  V30 646 C 60.8871 -3.4084 -0.0637751 0
M  V30 647 H 62.0801 -2.57336 1.54007 0
M  V30 648 H 59.6331 -1.32152 0.834598 0
M  V30 649 H 60.3681 -3.09166 -0.979136 0
M  V30 650 H 60.1531 -3.8726 0.614198 0
M  V30 651 H 61.6431 -4.16274 -0.332512 0
M  V30 652 N 62.0802 -0.821533 -1.34494 0
M  V30 653 C 63.3272 -0.408946 -1.98328 0
M  V30 654 C 63.6552 1.02764 -1.65136 0
M  V30 655 O 62.9102 1.73026 -0.914349 0
M  V30 656 C 63.2092 -0.556512 -3.53041 0
M  V30 657 C 62.8752 -1.95861 -4.0614 0
M  V30 658 C 61.5372 -2.34217 -4.20352 0
M  V30 659 C 63.8892 -2.87523 -4.34718 0
M  V30 660 C 61.2172 -3.63572 -4.6047 0
M  V30 661 C 63.5692 -4.1634 -4.76281 0
M  V30 662 C 62.2332 -4.54675 -4.88699 0
M  V30 663 H 61.5032 -0.149644 -0.725732 0
M  V30 664 H 64.1502 -1.04521 -1.6046 0
M  V30 665 H 62.4552 0.163148 -3.9146 0
M  V30 666 H 64.1522 -0.217826 -4.00408 0
M  V30 667 H 60.7422 -1.65066 -3.95539 0
M  V30 668 H 64.9262 -2.59133 -4.23277 0
M  V30 669 H 60.1822 -3.93101 -4.68275 0
M  V30 670 H 64.3562 -4.87455 -4.97354 0
M  V30 671 H 61.9832 -5.54959 -5.19542 0
M  V30 672 N 63.5583 1.46682 -0.576371 0
M  V30 673 C 64.4683 2.34032 0.163141 0
M  V30 674 C 65.4843 1.49367 0.892501 0
M  V30 675 O 66.6603 1.82252 0.857106 0
M  V30 676 C 63.7253 3.26435 1.16795 0
M  V30 677 C 62.7863 4.26998 0.443944 0
M  V30 678 C 62.0193 5.14986 1.40088 0
M  V30 679 O 62.2423 5.05785 2.637 0
M  V30 680 O 61.1763 5.94906 0.914917 0
M  V30 681 H 65.0023 2.98607 -0.55388 0
M  V30 682 H 62.5873 1.45554 -0.336821 0
M  V30 683 H 64.4693 3.83459 1.74748 0
M  V30 684 H 63.1443 2.64465 1.86655 0
M  V30 685 H 62.0513 3.7368 -0.177271 0
M  V30 686 H 63.3843 4.91736 -0.213566 0
M  V30 687 N 65.0364 0.313813 1.54444 0
M  V30 688 C 65.9684 -0.590425 2.21465 0
M  V30 689 C 66.9814 -1.08753 1.21147 0
M  V30 690 O 68.1704 -1.00278 1.4767 0
M  V30 691 C 65.2704 -1.82179 2.85769 0
M  V30 692 C 64.4434 -1.46502 4.12136 0
M  V30 693 C 63.5024 -2.55288 4.60124 0
M  V30 694 O 62.5284 -2.19842 5.25032 0
M  V30 695 N 63.7304 -3.86053 4.33525 0
M  V30 696 H 66.4954 -0.0166033 2.99695 0
M  V30 697 H 64.0564 0.136578 1.61323 0
M  V30 698 H 66.0484 -2.54328 3.14801 0
M  V30 699 H 64.6184 -2.30369 2.11303 0
M  V30 700 H 63.8384 -0.575595 3.89975 0
M  V30 701 H 65.1264 -1.20221 4.94393 0
M  V30 702 H 64.5244 -4.17654 3.81552 0
M  V30 703 H 63.0814 -4.54461 4.67235 0
M  V30 704 N 66.5145 -1.57545 0.0417849 0
M  V30 705 C 67.4465 -2.07904 -0.964799 0
M  V30 706 C 68.4595 -1.00497 -1.28079 0
M  V30 707 O 69.6485 -1.28087 -1.24322 0
M  V30 708 C 66.7485 -2.49928 -2.28887 0
M  V30 709 C 65.9215 -3.80562 -2.15619 0
M  V30 710 C 64.9805 -4.08999 -3.31069 0
M  V30 711 O 64.0065 -4.79061 -3.0739 0
M  V30 712 N 65.2085 -3.6017 -4.55256 0
M  V30 713 H 67.9735 -2.94886 -0.535029 0
M  V30 714 H 65.5345 -1.61252 -0.144681 0
M  V30 715 H 67.5265 -2.66034 -3.04972 0
M  V30 716 H 66.0965 -1.68245 -2.63463 0
M  V30 717 H 65.3165 -3.74129 -1.24183 0
M  V30 718 H 66.6045 -4.66126 -2.03971 0
M  V30 719 H 66.0025 -3.03512 -4.77386 0
M  V30 720 H 64.5595 -3.81532 -5.28466 0
M  V30 721 N 67.9926 0.231505 -1.5589 0
M  V30 722 C 68.9226 1.29022 -1.94617 0
M  V30 723 C 69.9036 1.4941 -0.813067 0
M  V30 724 O 71.0886 1.6176 -1.07459 0
M  V30 725 C 68.2186 2.64199 -2.25424 0
M  V30 726 C 67.1726 2.58484 -3.41131 0
M  V30 727 C 66.4986 3.97599 -3.57518 0
M  V30 728 C 67.7986 2.1413 -4.76388 0
M  V30 729 H 69.4926 0.968563 -2.83301 0
M  V30 730 H 67.0386 0.464479 -1.36303 0
M  V30 731 H 68.9916 3.38413 -2.51107 0
M  V30 732 H 67.7156 2.98032 -1.33583 0
M  V30 733 H 66.3746 1.86727 -3.15481 0
M  V30 734 H 66.0226 4.28723 -2.6307 0
M  V30 735 H 65.7226 3.94659 -4.35337 0
M  V30 736 H 67.2466 4.7349 -3.85538 0
M  V30 737 H 68.6606 2.78083 -5.01341 0
M  V30 738 H 67.0576 2.2227 -5.57419 0
M  V30 739 H 68.1276 1.09331 -4.72414 0
M  V30 740 N 69.4707 1.49531 0.497807 0
M  V30 741 C 70.4007 1.6935 1.60757 0
M  V30 742 C 71.3817 0.542218 1.61227 0
M  V30 743 O 72.5667 0.778417 1.77917 0
M  V30 744 C 69.6967 1.76298 2.99226 0
M  V30 745 C 68.6507 2.91248 3.13622 0
M  V30 746 C 67.9767 2.83312 4.53474 0
M  V30 747 C 69.2767 4.3214 2.93346 0
M  V30 748 H 70.9707 2.62263 1.44425 0
M  V30 749 H 68.5167 1.26208 0.693367 0
M  V30 750 H 70.4697 1.88749 3.76765 0
M  V30 751 H 69.1937 0.799871 3.16654 0
M  V30 752 H 67.8527 2.78404 2.38509 0
M  V30 753 H 67.5007 1.84902 4.67782 0
M  V30 754 H 67.2007 3.60465 4.64046 0
M  V30 755 H 68.7247 2.97775 5.33069 0
M  V30 756 H 70.1387 4.45649 3.60652 0
M  V30 757 H 68.5357 5.1054 3.15387 0
M  V30 758 H 69.6057 4.46363 1.89441 0
M  V30 759 N 70.9488 -0.749086 1.3866 0
M  V30 760 C 71.9118 -1.84457 1.36045 0
M  V30 761 C 72.9118 -1.58682 0.260122 0
M  V30 762 O 74.1018 -1.66343 0.517261 0
M  V30 763 C 71.2338 -3.22008 1.11911 0
M  V30 764 H 72.4268 -1.88182 2.33512 0
M  V30 765 H 69.9798 -0.951266 1.24019 0
M  V30 766 H 70.7148 -3.2395 0.150686 0
M  V30 767 H 70.4998 -3.42111 1.91579 0
M  V30 768 H 71.9898 -4.0208 1.12788 0
M  V30 769 N 72.4269 -1.23603 -0.977757 0
M  V30 770 C 73.6739 -1.06971 -1.71941 0
M  V30 771 C 74.0019 0.393009 -1.90488 0
M  V30 772 O 73.2569 1.30719 -1.4564 0
M  V30 773 C 73.5559 -1.7433 -3.11999 0
M  V30 774 C 73.2219 -3.24252 -3.13323 0
M  V30 775 C 71.8839 -3.65156 -3.13392 0
M  V30 776 C 74.2359 -4.20141 -3.08433 0
M  V30 777 C 71.5639 -5.00403 -3.0629 0
M  V30 778 C 73.9159 -5.55384 -3.02873 0
M  V30 779 C 72.5799 -5.95647 -3.01265 0
M  V30 780 H 71.8499 -0.391433 -0.629175 0
M  V30 781 H 74.4969 -1.53572 -1.14403 0
M  V30 782 H 72.8019 -1.20096 -3.7294 0
M  V30 783 H 74.4989 -1.58936 -3.68158 0
M  V30 784 H 71.0889 -2.91692 -3.14029 0
M  V30 785 H 75.2729 -3.89547 -3.07517 0
M  V30 786 H 70.5289 -5.3081 -3.03399 0
M  V30 787 H 74.7029 -6.29398 -2.98046 0
M  V30 788 H 72.3299 -7.0041 -2.95516 0
M  V30 789 N 73.905 1.17692 -1.04816 0
M  V30 790 C 75.152 1.87859 -0.75599 0
M  V30 791 C 75.48 1.80812 0.716752 0
M  V30 792 O 74.735 1.20819 1.53952 0
M  V30 793 C 75.034 3.37462 -1.17703 0
M  V30 794 C 74.7 3.64713 -2.65133 0
M  V30 795 C 73.362 3.71859 -3.05408 0
M  V30 796 C 75.714 3.76492 -3.60421 0
M  V30 797 C 73.042 3.88271 -4.39843 0
M  V30 798 C 75.394 3.94421 -4.94585 0
M  V30 799 C 74.058 3.99806 -5.3452 0
M  V30 800 H 73.328 0.687425 -0.276636 0
M  V30 801 H 75.975 1.39255 -1.31455 0
M  V30 802 H 74.28 3.88097 -0.537395 0
M  V30 803 H 75.977 3.90109 -0.928218 0
M  V30 804 H 72.567 3.59772 -2.32942 0
M  V30 805 H 76.751 3.70295 -3.30447 0
M  V30 806 H 72.007 3.90687 -4.70291 0
M  V30 807 H 76.181 4.02477 -5.68318 0
M  V30 808 H 73.808 4.12276 -6.38696 0
M  V30 809 N 75.3831 0.828654 1.34056 0
M  V30 810 C 76.2931 0.256725 2.33191 0
M  V30 811 C 77.3091 -0.611898 1.62886 0
M  V30 812 O 78.4851 -0.51844 1.94613 0
M  V30 813 C 75.5501 -0.567238 3.42028 0
M  V30 814 C 74.6111 0.324458 4.28072 0
M  V30 815 C 73.8441 -0.460274 5.31712 0
M  V30 816 O 74.0671 -1.693 5.44696 0
M  V30 817 O 73.0011 0.160391 6.01686 0
M  V30 818 H 76.8271 1.07739 2.83947 0
M  V30 819 H 74.4121 0.59093 1.37217 0
M  V30 820 H 76.2941 -1.03582 4.08471 0
M  V30 821 H 74.9691 -1.36513 2.93506 0
M  V30 822 H 73.8761 0.840659 3.64532 0
M  V30 823 H 75.2091 1.08685 4.8005 0
M  V30 824 N 76.8612 -1.46375 0.584142 0
M  V30 825 C 77.7712 -2.34115 -0.150728 0
M  V30 826 C 78.7872 -1.49838 -0.884567 0
M  V30 827 O 79.9632 -1.82704 -0.847429 0
M  V30 828 C 77.0282 -3.2705 -1.15062 0
M  V30 829 C 76.0892 -4.27228 -0.421293 0
M  V30 830 C 75.3222 -5.15722 -1.37355 0
M  V30 831 O 75.5452 -5.07176 -2.61014 0
M  V30 832 O 74.4792 -5.95383 -0.883355 0
M  V30 833 H 78.3052 -2.98309 0.569708 0
M  V30 834 H 75.8902 -1.45373 0.344535 0
M  V30 835 H 77.7722 -3.84381 -1.72712 0
M  V30 836 H 76.4472 -2.65451 -1.8525 0
M  V30 837 H 75.3542 -3.7358 0.197085 0
M  V30 838 H 76.6872 -4.91616 0.239641 0
M  V30 839 N 78.3393 -0.321999 -1.54275 0
M  V30 840 C 79.5873 0.280489 -2.00144 0
M  V30 841 C 79.9083 1.52777 -1.21178 0
M  V30 842 O 79.1783 1.9338 -0.313187 0
M  V30 843 H 77.7583 0.106632 -0.73935 0
M  V30 844 H 80.4203 -0.438184 -1.8991 0
M  V30 845 H 79.5163 0.537972 -3.07428 0
M  V30 846 N 79.8174 1.5752 -0.0501392 0
M  V30 847 C 80.7804 2.1037 0.909786 0
M  V30 848 C 81.7804 1.02308 1.24056 0
M  V30 849 O 82.9704 1.28385 1.17741 0
M  V30 850 C 80.1024 2.58708 2.21998 0
M  V30 851 H 81.2954 2.96479 0.451665 0
M  V30 852 H 78.8484 1.55038 0.198248 0
M  V30 853 H 79.5834 1.75989 2.72394 0
M  V30 854 H 79.3684 3.37675 1.99295 0
M  V30 855 H 80.8584 2.99747 2.9076 0
M  V30 856 N 81.2955 -0.223234 1.56011 0
M  V30 857 C 82.2425 -1.27664 1.92277 0
M  V30 858 C 83.2125 -1.46659 0.779763 0
M  V30 859 O 84.3975 -1.60256 1.03551 0
M  V30 860 C 81.5375 -2.62234 2.24338 0
M  V30 861 C 80.6505 -2.51051 3.51564 0
M  V30 862 C 79.7855 -3.78133 3.7308 0
M  V30 863 C 78.8245 -3.61665 4.93827 0
M  V30 864 N 77.9615 -4.80693 5.11741 0
M  V30 865 H 82.8015 -0.960358 2.82101 0
M  V30 866 H 80.3385 -0.462901 1.39627 0
M  V30 867 H 82.2965 -3.40596 2.40936 0
M  V30 868 H 80.9265 -2.91961 1.3769 0
M  V30 869 H 79.9785 -1.64132 3.43169 0
M  V30 870 H 81.2905 -2.34803 4.40079 0
M  V30 871 H 80.4445 -4.64938 3.89766 0
M  V30 872 H 79.1835 -3.97304 2.82844 0
M  V30 873 H 78.1885 -2.73244 4.77093 0
M  V30 874 H 79.4135 -3.43966 5.85546 0
M  V30 875 H 77.3595 -5.00181 4.24446 0
M  V30 876 H 77.2765 -4.67165 5.94384 0
M  V30 877 H 78.5445 -5.6893 5.3286 0
M  V30 878 N 82.7736 -1.49793 -0.48987 0
M  V30 879 C 84.0216 -1.59525 -1.24081 0
M  V30 880 C 84.3426 -0.288953 -1.92847 0
M  V30 881 O 83.6126 0.692436 -1.83254 0
M  V30 882 H 82.1926 -0.587796 -0.460983 0
M  V30 883 H 84.8546 -1.86477 -0.566778 0
M  V30 884 H 83.9506 -2.39696 -1.99881 0
M  V30 885 N 84.2517 0.741722 -1.39055 0
M  V30 886 C 85.4917 1.51385 -1.37338 0
M  V30 887 C 85.8557 1.91972 0.0330513 0
M  V30 888 O 87.0567 2.68229 0.175174 0
M  V30 889 C 85.3277 2.72481 -2.31276 0
M  V30 890 S 86.8867 3.62211 -2.47687 0
M  V30 891 H 83.7047 0.517906 -0.487129 0
M  V30 892 H 86.3067 0.86969 -1.7509 0
M  V30 893 H 85.0107 2.40793 -3.32336 0
M  V30 894 H 84.5417 3.41832 -1.94716 0
M  V30 895 H 86.5567 4.65812 -1.70978 0
M  V30 896 N 85.7298 1.2412 0.971189 0
M  V30 897 C 86.6778 1.02812 2.08644 0
M  V30 898 C 87.6718 -0.0358403 1.69362 0
M  V30 899 O 88.8778 0.118429 1.7961 0
M  V30 900 H 85.2528 0.315428 0.682649 0
M  V30 901 H 87.2238 1.97397 2.23779 0
M  V30 902 C 85.9728 0.645874 3.41649 0
M  V30 903 H 85.2958 1.45632 3.72332 0
M  V30 904 H 86.7358 0.536366 4.20594 0
M  V30 905 C 85.1948 -0.646713 3.30635 0
M  V30 906 O 85.7248 -1.69338 3.64263 0
M  V30 907 N 83.9308 -0.626115 2.83775 0
M  V30 908 H 83.4778 0.225988 2.56607 0
M  V30 909 H 83.4358 -1.49117 2.76788 0
M  V30 910 N 87.2079 -1.17134 1.05439 0
M  V30 911 C 88.4569 -1.86791 0.761049 0
M  V30 912 C 88.7699 -1.82072 -0.714795 0
M  V30 913 O 89.9759 -2.47223 -1.12218 0
M  V30 914 C 88.4319 -3.35166 1.31117 0
M  V30 915 C 88.0399 -3.48381 2.81664 0
M  V30 916 C 89.7839 -4.10134 1.09499 0
M  V30 917 C 87.6909 -4.90793 3.29964 0
M  V30 918 H 86.6209 -0.699681 0.281002 0
M  V30 919 H 89.2719 -1.3226 1.27199 0
M  V30 920 H 87.6539 -3.8925 0.72803 0
M  V30 921 H 88.8279 -3.04502 3.45855 0
M  V30 922 H 87.1429 -2.86836 3.01851 0
M  V30 923 H 89.7399 -5.152 1.43084 0
M  V30 924 H 90.0829 -4.16287 0.0328772 0
M  V30 925 H 90.6159 -3.62264 1.64346 0
M  V30 926 H 87.3549 -4.89816 4.35616 0
M  V30 927 H 86.8749 -5.35333 2.70516 0
M  V30 928 H 88.5539 -5.59573 3.24787 0
M  V30 929 N 88.686 -0.835752 -1.33615 0
M  V30 930 C 89.914 -0.443344 -2.02094 0
M  V30 931 C 90.329 0.954522 -1.62894 0
M  V30 932 O 89.686 1.61982 -0.840723 0
M  V30 933 C 89.737 -0.550775 -3.5728 0
M  V30 934 O 89.458 -1.89356 -3.95065 0
M  V30 935 C 90.959 -0.154919 -4.43029 0
M  V30 936 H 88.179 -0.176359 -0.647409 0
M  V30 937 H 90.723 -1.12746 -1.70612 0
M  V30 938 H 88.878 0.0853997 -3.87306 0
M  V30 939 H 89.292 -1.87687 -4.89769 0
M  V30 940 H 90.766 -0.281144 -5.51284 0
M  V30 941 H 91.243 0.902863 -4.2982 0
M  V30 942 H 91.849 -0.765404 -4.18356 0
M  V30 943 N 90.1641 1.46063 -0.591896 0
M  V30 944 C 91.3891 2.07226 -0.0850314 0
M  V30 945 C 91.8141 1.43625 1.21463 0
M  V30 946 O 91.1721 0.523305 1.73583 0
M  V30 947 C 91.2201 3.60554 0.0576567 0
M  V30 948 O 90.3241 3.97128 1.11188 0
M  V30 949 H 89.6651 0.660615 -0.0669568 0
M  V30 950 H 92.1951 1.8756 -0.81745 0
M  V30 951 H 92.2051 4.07165 0.2609 0
M  V30 952 H 90.8801 4.06235 -0.891416 0
M  V30 953 H 89.4571 3.62213 0.886356 0
M  V30 954 N 91.6422 0.330177 1.54103 0
M  V30 955 C 93.0532 -0.15652 1.86043 0
M  V30 956 C 93.4042 -1.51086 1.2517 0
M  V30 957 O 92.5292 -2.09023 0.560217 0
M  V30 958 C 93.1242 -0.290784 3.3755 0
M  V30 959 C 91.6832 -0.721705 3.69416 0
M  V30 960 C 90.8302 0.152622 2.7688 0
M  V30 961 H 93.7812 0.550237 1.48856 0
M  V30 962 H 93.8022 -1.12058 3.63625 0
M  V30 963 H 93.3142 0.695068 3.81825 0
M  V30 964 H 91.4152 -1.71706 3.30678 0
M  V30 965 H 91.5282 -0.520869 4.7626 0
M  V30 966 H 89.8922 -0.372894 2.51956 0
M  V30 967 H 90.6752 1.13536 3.23982 0
M  V30 968 N 93.1203 -1.57491 0.0584922 0
M  V30 969 C 94.3673 -1.92978 -0.613648 0
M  V30 970 C 94.6953 -0.937461 -1.70417 0
M  V30 971 O 93.9503 0.049078 -1.95638 0
M  V30 972 C 94.2493 -3.3513 -1.24188 0
M  V30 973 C 93.9153 -4.50037 -0.278826 0
M  V30 974 C 92.5773 -4.81198 -0.0138447 0
M  V30 975 C 94.9293 -5.19807 0.380777 0
M  V30 976 C 92.2573 -5.79473 0.918052 0
M  V30 977 C 94.6093 -6.19079 1.30091 0
M  V30 978 C 93.2733 -6.48665 1.57449 0
M  V30 979 H 92.5433 -0.706157 -0.22455 0
M  V30 980 H 95.1903 -1.91082 0.126533 0
M  V30 981 H 93.4953 -3.33429 -2.05749 0
M  V30 982 H 95.1923 -3.59871 -1.769 0
M  V30 983 H 91.7823 -4.25726 -0.495539 0
M  V30 984 H 95.9663 -4.95939 0.189158 0
M  V30 985 H 91.2223 -6.00727 1.1374 0
M  V30 986 H 95.3963 -6.7225 1.81804 0
M  V30 987 H 93.0233 -7.24628 2.29822 0
M  V30 988 N 94.5984 0.214957 -1.56127 0
M  V30 989 C 95.5454 1.26642 -1.92952 0
M  V30 990 C 96.5154 1.46244 -0.78753 0
M  V30 991 O 97.7004 1.59704 -1.04399 0
M  V30 992 C 94.8404 2.6104 -2.25726 0
M  V30 993 C 93.9534 2.49183 -3.52891 0
M  V30 994 C 93.0884 3.76149 -3.7508 0
M  V30 995 C 92.1274 3.59041 -4.95738 0
M  V30 996 N 91.2644 4.77972 -5.14283 0
M  V30 997 H 96.1044 0.945384 -2.82607 0
M  V30 998 H 93.6414 0.455489 -1.3987 0
M  V30 999 H 95.5994 3.39313 -2.42739 0
M  V30 1000 H 94.2294 2.91227 -1.39236 0
M  V30 1001 H 93.2814 1.6231 -3.44034 0
M  V30 1002 H 94.5934 2.32466 -4.41318 0
M  V30 1003 H 93.7474 4.62865 -3.92226 0
M  V30 1004 H 92.4864 3.95799 -2.84947 0
M  V30 1005 H 91.4914 2.7071 -4.78535 0
M  V30 1006 H 92.7164 3.40856 -5.87362 0
M  V30 1007 H 90.6624 4.97923 -4.27093 0
M  V30 1008 H 90.5794 4.64006 -5.96853 0
M  V30 1009 H 91.8474 5.66096 -5.35869 0
M  V30 1010 N 96.0765 1.50051 0.48192 0
M  V30 1011 C 96.9865 1.7089 1.60728 0
M  V30 1012 C 98.0025 0.591788 1.63627 0
M  V30 1013 O 99.1785 0.868817 1.81696 0
M  V30 1014 C 96.2435 1.78855 2.97005 0
M  V30 1015 C 95.3045 3.02537 3.04581 0
M  V30 1016 C 94.5375 3.10112 4.34357 0
M  V30 1017 O 94.7605 2.24765 5.24249 0
M  V30 1018 O 93.6945 4.02747 4.47301 0
M  V30 1019 H 97.5205 2.66264 1.46072 0
M  V30 1020 H 95.1055 1.34018 0.660264 0
M  V30 1021 H 96.9875 1.86336 3.77964 0
M  V30 1022 H 95.6625 0.866628 3.11883 0
M  V30 1023 H 94.5695 3.00563 2.22739 0
M  V30 1024 H 95.9025 3.94272 2.94636 0
M  V30 1025 N 97.5546 -0.734337 1.39446 0
M  V30 1026 C 98.9706 -1.03997 1.21065 0
M  V30 1027 C 99.1706 -2.01369 0.0727019 0
M  V30 1028 O 98.2266 -2.45856 -0.575426 0
M  V30 1029 C 99.5396 -1.60163 2.54496 0
M  V30 1030 C 101.088 -1.7224 2.61347 0
M  V30 1031 C 101.563 -2.31814 3.95002 0
M  V30 1032 N 103.054 -2.39223 3.96644 0
M  V30 1033 C 103.789 -2.86258 4.96834 0
M  V30 1034 N 103.285 -3.33184 6.07421 0
M  V30 1035 N 105.078 -2.85473 4.84213 0
M  V30 1036 H 97.2286 -0.0885624 2.12215 0
M  V30 1037 H 99.4916 -0.10191 0.942506 0
M  V30 1038 H 99.1976 -0.960811 3.38321 0
M  V30 1039 H 99.0716 -2.5896 2.74262 0
M  V30 1040 H 101.459 -2.35443 1.77906 0
M  V30 1041 H 101.54 -0.720939 2.4543 0
M  V30 1042 H 101.184 -1.69238 4.78875 0
M  V30 1043 H 101.114 -3.32638 4.08239 0
M  V30 1044 H 103.605 -2.06057 3.16779 0
M  V30 1045 H 103.918 -3.67586 6.7978 0
M  V30 1046 H 102.263 -3.31191 6.11013 0
M  V30 1047 H 105.454 -2.48136 3.96921 0
M  V30 1048 H 105.627 -3.21814 5.62441 0
M  V30 1049 N 99.0327 -1.24633 -0.964593 0
M  V30 1050 C 99.9957 -1.0424 -2.04124 0
M  V30 1051 C 100.996 0.00137563 -1.608 0
M  V30 1052 O 102.186 -0.239883 -1.7254 0
M  V30 1053 C 99.3177 -0.580588 -3.3592 0
M  V30 1054 H 100.511 -1.99803 -2.23649 0
M  V30 1055 H 98.0637 -1.06899 -1.14027 0
M  V30 1056 H 98.7987 0.3781 -3.22088 0
M  V30 1057 H 98.5837 -1.33398 -3.6871 0
M  V30 1058 H 100.074 -0.459034 -4.15069 0
M  V30 1059 N 100.511 1.16574 -1.06058 0
M  V30 1060 C 101.741 1.90675 -0.795397 0
M  V30 1061 C 102.149 1.77547 0.653735 0
M  V30 1062 O 101.492 1.11611 1.45907 0
M  V30 1063 C 101.554 3.42011 -1.10764 0
M  V30 1064 C 101.218 3.78924 -2.55471 0
M  V30 1065 C 102.215 3.81042 -3.53699 0
M  V30 1066 C 99.8998 4.09626 -2.90708 0
M  V30 1067 C 101.894 4.13346 -4.85205 0
M  V30 1068 C 99.5808 4.41597 -4.22416 0
M  V30 1069 C 100.579 4.43436 -5.19474 0
M  V30 1070 O 100.267 4.74649 -6.48817 0
M  V30 1071 H 99.9988 0.611554 -0.288058 0
M  V30 1072 H 102.553 1.48711 -1.41683 0
M  V30 1073 H 100.783 3.84312 -0.429128 0
M  V30 1074 H 102.472 3.97384 -0.827077 0
M  V30 1075 H 103.238 3.57437 -3.27817 0
M  V30 1076 H 99.1168 4.07361 -2.15819 0
M  V30 1077 H 102.661 4.14696 -5.60957 0
M  V30 1078 H 98.5578 4.64667 -4.48056 0
M  V30 1079 H 99.3258 4.9247 -6.5377 0
M  V30 1080 N 101.989 0.842826 1.3317 0
M  V30 1081 C 102.921 0.236245 2.27979 0
M  V30 1082 C 103.934 -0.585282 1.51915 0
M  V30 1083 O 105.123 -0.411705 1.73687 0
M  V30 1084 C 102.223 -0.685717 3.3189 0
M  V30 1085 C 101.396 0.0973448 4.37292 0
M  V30 1086 C 100.455 -0.748565 5.20848 0
M  V30 1087 O 99.4809 -0.186339 5.68895 0
M  V30 1088 N 100.683 -2.06527 5.42519 0
M  V30 1089 H 103.448 1.05088 2.80672 0
M  V30 1090 H 101.009 0.701667 1.45905 0
M  V30 1091 H 103.001 -1.25669 3.84694 0
M  V30 1092 H 101.571 -1.40105 2.79445 0
M  V30 1093 H 100.791 0.849706 3.84933 0
M  V30 1094 H 102.079 0.635643 5.04814 0
M  V30 1095 H 101.477 -2.54554 5.05192 0
M  V30 1096 H 100.034 -2.58464 5.98364 0
M  V30 1097 N 103.467 -1.45747 0.599634 0
M  V30 1098 C 104.397 -2.33235 -0.111306 0
M  V30 1099 C 105.378 -1.46359 -0.866781 0
M  V30 1100 O 106.563 -1.75146 -0.838904 0
M  V30 1101 C 103.693 -3.28932 -1.11451 0
M  V30 1102 C 102.647 -4.25381 -0.472772 0
M  V30 1103 C 101.973 -5.1071 -1.58365 0
M  V30 1104 C 103.273 -5.18831 0.600948 0
M  V30 1105 H 104.967 -2.92927 0.61919 0
M  V30 1106 H 102.513 -1.40857 0.299215 0
M  V30 1107 H 104.466 -3.89002 -1.62036 0
M  V30 1108 H 103.19 -2.67381 -1.8755 0
M  V30 1109 H 101.849 -3.66598 0.0121472 0
M  V30 1110 H 101.497 -4.45533 -2.33473 0
M  V30 1111 H 101.197 -5.7604 -1.15982 0
M  V30 1112 H 102.721 -5.73647 -2.09194 0
M  V30 1113 H 104.135 -5.73019 0.179491 0
M  V30 1114 H 102.532 -5.92595 0.946076 0
M  V30 1115 H 103.602 -4.6174 1.48068 0
M  V30 1116 N 104.945 -0.338344 -1.53925 0
M  V30 1117 C 105.908 0.508299 -2.23493 0
M  V30 1118 C 106.908 1.03175 -1.23335 0
M  V30 1119 O 108.098 0.921826 -1.47811 0
M  V30 1120 C 105.23 1.70754 -2.95052 0
M  V30 1121 H 106.423 -0.100058 -2.99733 0
M  V30 1122 H 103.976 -0.0896198 -1.56043 0
M  V30 1123 H 104.711 2.35474 -2.22986 0
M  V30 1124 H 104.496 1.33946 -3.68512 0
M  V30 1125 H 105.986 2.30818 -3.48013 0
M  V30 1126 N 106.423 1.57458 -0.0668435 0
M  V30 1127 C 107.7 1.8469 0.644132 0
M  V30 1128 C 108.08 0.958343 1.88093 0
M  V30 1129 O 107.428 0.0233579 2.28488 0
M  V30 1130 C 107.638 3.34767 0.986509 0
M  V30 1131 C 108.986 4.02159 1.36212 0
M  V30 1132 O 110.01 3.39484 1.07839 0
M  V30 1133 O 108.869 5.12694 1.89227 0
M  V30 1134 H 105.963 0.762816 0.319437 0
M  V30 1135 H 108.509 1.6942 -0.0973986 0
M  V30 1136 H 107.281 3.91151 0.107883 0
M  V30 1137 H 106.904 3.55281 1.78497 0
M  V30 1138 N 107.901 -0.206675 1.56239 0
M  V30 1139 C 108.811 -1.27686 1.96808 0
M  V30 1140 C 109.827 -1.50455 0.874035 0
M  V30 1141 O 111.003 -1.63295 1.17884 0
M  V30 1142 C 108.068 -2.60358 2.28942 0
M  V30 1143 C 107.129 -2.45762 3.51994 0
M  V30 1144 C 106.362 -3.72108 3.82585 0
M  V30 1145 O 106.585 -4.75776 3.14631 0
M  V30 1146 O 105.519 -3.6833 4.76043 0
M  V30 1147 H 109.345 -0.962593 2.88041 0
M  V30 1148 H 106.93 -0.410746 1.43643 0
M  V30 1149 H 108.812 -3.38687 2.50737 0
M  V30 1150 H 107.487 -2.91435 1.4088 0
M  V30 1151 H 106.394 -1.65584 3.35459 0
M  V30 1152 H 107.727 -2.19621 4.40486 0
M  V30 1153 N 109.379 -1.50304 -0.473955 0
M  V30 1154 C 110.609 -1.64663 -1.24778 0
M  V30 1155 C 111.017 -0.328174 -1.86332 0
M  V30 1156 O 110.36 0.699536 -1.69859 0
M  V30 1157 C 110.422 -2.6778 -2.39863 0
M  V30 1158 C 110.086 -4.11413 -1.98969 0
M  V30 1159 C 111.083 -4.97372 -1.51385 0
M  V30 1160 C 108.768 -4.57312 -2.07777 0
M  V30 1161 C 110.762 -6.27277 -1.13148 0
M  V30 1162 C 108.449 -5.87223 -1.69152 0
M  V30 1163 C 109.447 -6.72031 -1.21915 0
M  V30 1164 O 109.135 -7.99518 -0.838237 0
M  V30 1165 H 108.867 -0.556602 -0.383627 0
M  V30 1166 H 111.421 -1.9726 -0.572491 0
M  V30 1167 H 109.651 -2.30419 -3.10554 0
M  V30 1168 H 111.34 -2.71388 -3.01833 0
M  V30 1169 H 112.106 -4.63128 -1.44004 0
M  V30 1170 H 107.985 -3.91449 -2.43493 0
M  V30 1171 H 111.529 -6.93425 -0.762077 0
M  V30 1172 H 107.426 -6.20989 -1.76191 0
M  V30 1173 H 108.194 -8.12764 -0.967339 0
M  V30 1174 N 110.857 0.726932 -1.39834 0
M  V30 1175 C 112.082 1.52121 -1.40976 0
M  V30 1176 C 112.507 1.88098 -0.00826029 0
M  V30 1177 O 111.865 1.52479 0.980807 0
M  V30 1178 C 111.913 2.78021 -2.29644 0
M  V30 1179 O 111.017 3.74272 -1.73188 0
M  V30 1180 H 110.358 0.45908 -0.479731 0
M  V30 1181 H 112.888 0.896207 -1.83927 0
M  V30 1182 H 112.898 3.26671 -2.44438 0
M  V30 1183 H 111.573 2.51169 -3.31492 0
M  V30 1184 H 110.15 3.33073 -1.6768 0
M  V30 1185 N 112.336 1.25143 0.95797 0
M  V30 1186 C 113.268 1.01023 2.05735 0
M  V30 1187 C 114.281 -0.0236902 1.62783 0
M  V30 1188 O 115.47 0.21448 1.77207 0
M  V30 1189 C 112.57 0.504595 3.35122 0
M  V30 1190 C 111.743 1.6039 4.06932 0
M  V30 1191 C 110.802 1.09922 5.14591 0
M  V30 1192 O 109.828 1.79293 5.40225 0
M  V30 1193 N 111.03 -0.0612545 5.80468 0
M  V30 1194 H 113.795 1.95683 2.26998 0
M  V30 1195 H 111.356 1.16303 1.12629 0
M  V30 1196 H 113.348 0.151516 4.04416 0
M  V30 1197 H 111.918 -0.347989 3.10657 0
M  V30 1198 H 111.138 2.12872 3.31782 0
M  V30 1199 H 112.426 2.34252 4.51667 0
M  V30 1200 H 111.824 -0.640985 5.62057 0
M  V30 1201 H 110.381 -0.355395 6.5083 0
M  V30 1202 N 113.814 -1.1601 1.06675 0
M  V30 1203 C 115.23 -1.38622 0.790948 0
M  V30 1204 C 115.43 -1.92109 -0.607965 0
M  V30 1205 O 114.486 -2.12239 -1.36787 0
M  V30 1206 C 115.799 -2.36347 1.85905 0
M  V30 1207 C 117.347 -2.50023 1.88301 0
M  V30 1208 C 117.822 -3.51033 2.94176 0
M  V30 1209 N 119.313 -3.58563 2.93235 0
M  V30 1210 C 120.048 -4.36521 3.71803 0
M  V30 1211 N 119.544 -5.17869 4.602 0
M  V30 1212 N 121.337 -4.31541 3.60178 0
M  V30 1213 H 113.488 -0.796294 1.96908 0
M  V30 1214 H 115.751 -0.412597 0.853503 0
M  V30 1215 H 115.457 -2.04147 2.86386 0
M  V30 1216 H 115.331 -3.36042 1.71334 0
M  V30 1217 H 117.718 -2.81524 0.884769 0
M  V30 1218 H 117.799 -1.5035 2.06951 0
M  V30 1219 H 117.443 -3.20268 3.94196 0
M  V30 1220 H 117.373 -4.50445 2.72776 0
M  V30 1221 H 119.864 -3.00496 2.29152 0
M  V30 1222 H 120.177 -5.74578 5.16797 0
M  V30 1223 H 118.522 -5.17199 4.64253 0
M  V30 1224 H 121.713 -3.67051 2.90502 0
M  V30 1225 H 121.886 -4.9205 4.21653 0
M  V30 1226 N 115.292 -0.849877 -1.32721 0
M  V30 1227 C 116.255 -0.296122 -2.27279 0
M  V30 1228 C 117.255 0.541458 -1.5141 0
M  V30 1229 O 118.445 0.353658 -1.70572 0
M  V30 1230 C 115.577 0.581579 -3.35902 0
M  V30 1231 H 116.77 -1.13064 -2.77771 0
M  V30 1232 H 114.323 -0.62383 -1.43311 0
M  V30 1233 H 115.058 1.43809 -2.9067 0
M  V30 1234 H 114.843 -0.0178814 -3.92096 0
M  V30 1235 H 116.333 0.961951 -4.0637 0
M  V30 1236 N 116.77 1.45427 -0.607355 0
M  V30 1237 C 117.717 2.3053 0.111625 0
M  V30 1238 C 118.687 1.4209 0.860216 0
M  V30 1239 O 119.872 1.71019 0.845998 0
M  V30 1240 C 117.012 3.26992 1.10319 0
M  V30 1241 C 116.125 4.30535 0.355493 0
M  V30 1242 C 115.26 5.14105 1.33676 0
M  V30 1243 C 114.299 6.09376 0.576862 0
M  V30 1244 N 113.436 6.85727 1.5074 0
M  V30 1245 H 118.276 2.91477 -0.620093 0
M  V30 1246 H 115.813 1.43631 -0.317594 0
M  V30 1247 H 117.771 3.81385 1.6912 0
M  V30 1248 H 116.401 2.67799 1.80232 0
M  V30 1249 H 115.453 3.78805 -0.348023 0
M  V30 1250 H 116.765 4.98235 -0.237423 0
M  V30 1251 H 115.919 5.72897 1.99684 0
M  V30 1252 H 114.658 4.46423 1.9636 0
M  V30 1253 H 113.663 5.49715 -0.0968519 0
M  V30 1254 H 114.888 6.79085 -0.0449341 0
M  V30 1255 H 112.834 6.20735 2.12189 0
M  V30 1256 H 112.751 7.49778 0.967913 0
M  V30 1257 H 114.019 7.4906 2.15706 0
M  V30 1258 N 118.248 0.346503 1.53744 0
M  V30 1259 C 119.178 -0.501193 2.28058 0
M  V30 1260 C 120.159 -1.10014 1.29734 0
M  V30 1261 O 121.344 -1.12097 1.58581 0
M  V30 1262 C 118.474 -1.65078 3.05559 0
M  V30 1263 C 117.428 -1.18003 4.11411 0
M  V30 1264 C 116.754 -2.41837 4.76884 0
M  V30 1265 C 118.054 -0.278394 5.21558 0
M  V30 1266 H 119.748 0.11875 2.99164 0
M  V30 1267 H 117.294 0.0585531 1.43881 0
M  V30 1268 H 119.247 -2.25028 3.56287 0
M  V30 1269 H 117.971 -2.29767 2.32109 0
M  V30 1270 H 116.63 -0.603331 3.61601 0
M  V30 1271 H 116.278 -3.0494 4.00026 0
M  V30 1272 H 115.978 -2.1102 5.48402 0
M  V30 1273 H 117.502 -3.02508 5.30397 0
M  V30 1274 H 118.916 -0.784823 5.67903 0
M  V30 1275 H 117.313 -0.0619707 6.00068 0
M  V30 1276 H 118.383 0.684677 4.80042 0
M  V30 1277 N 119.726 -1.57421 0.075193 0
M  V30 1278 C 120.689 -2.11791 -0.876203 0
M  V30 1279 C 121.689 -1.04268 -1.22412 0
M  V30 1280 O 122.879 -1.30242 -1.15684 0
M  V30 1281 C 120.011 -2.62207 -2.17854 0
M  V30 1282 H 121.204 -2.9716 -0.40444 0
M  V30 1283 H 118.757 -1.55333 -0.173557 0
M  V30 1284 H 119.492 -1.803 -2.6956 0
M  V30 1285 H 119.277 -3.40802 -1.93897 0
M  V30 1286 H 120.767 -3.04335 -2.85955 0
M  V30 1287 N 121.204 0.198386 -1.56346 0
M  V30 1288 C 122.114 1.2664 -1.97483 0
M  V30 1289 C 123.13 1.49989 -0.882002 0
M  V30 1290 O 124.306 1.62668 -1.18748 0
M  V30 1291 C 121.371 2.59141 -2.30319 0
M  V30 1292 C 120.432 2.43892 -3.53292 0
M  V30 1293 C 119.665 3.70074 -3.84553 0
M  V30 1294 O 119.888 4.74101 -3.1715 0
M  V30 1295 O 118.822 3.658 -4.7799 0
M  V30 1296 H 122.648 0.947304 -2.88548 0
M  V30 1297 H 120.233 0.403123 -1.43859 0
M  V30 1298 H 122.115 3.37352 -2.5253 0
M  V30 1299 H 120.79 2.90684 -1.42423 0
M  V30 1300 H 119.697 1.63803 -3.36332 0
M  V30 1301 H 121.03 2.17282 -4.41644 0
M  V30 1302 N 122.682 1.50554 0.465978 0
M  V30 1303 C 123.645 1.69233 1.54574 0
M  V30 1304 C 124.645 0.562901 1.50626 0
M  V30 1305 O 125.835 0.830016 1.53155 0
M  V30 1306 C 122.967 1.7223 2.94193 0
M  V30 1307 H 124.16 2.65571 1.39327 0
M  V30 1308 H 121.713 1.40111 0.692711 0
M  V30 1309 H 122.448 0.77603 3.14878 0
M  V30 1310 H 122.233 2.54285 2.98466 0
M  V30 1311 H 123.723 1.88618 3.72576 0
M  V30 1312 N 124.16 -0.719506 1.40217 0
M  V30 1313 C 125.4 -1.49181 1.39729 0
M  V30 1314 C 125.764 -1.92 -0.00250614 0
M  V30 1315 O 126.965 -2.68473 -0.132479 0
M  V30 1316 C 125.236 -2.68767 2.35582 0
M  V30 1317 S 126.795 -3.58224 2.53418 0
M  V30 1318 H 123.613 -0.510091 0.495307 0
M  V30 1319 H 126.215 -0.841724 1.76452 0
M  V30 1320 H 124.919 -2.35475 3.36124 0
M  V30 1321 H 124.45 -3.38691 2.0013 0
M  V30 1322 H 126.465 -4.63033 1.78367 0
M  V30 1323 N 125.638 -1.25649 -0.95132 0
M  V30 1324 C 126.586 -1.06118 -2.06982 0
M  V30 1325 C 127.58 0.00889169 -1.69398 0
M  V30 1326 O 128.786 -0.146988 -1.79399 0
M  V30 1327 H 125.161 -0.326248 -0.677544 0
M  V30 1328 H 127.132 -2.00932 -2.2061 0
M  V30 1329 C 125.881 -0.700145 -3.40578 0
M  V30 1330 H 125.204 -1.51537 -3.69968 0
M  V30 1331 H 126.644 -0.603211 -4.19687 0
M  V30 1332 C 125.103 0.59403 -3.31622 0
M  V30 1333 O 125.633 1.63522 -3.66911 0
M  V30 1334 N 123.839 0.58089 -2.84735 0
M  V30 1335 H 123.386 -0.266783 -2.56215 0
M  V30 1336 H 123.344 1.44695 -2.79125 0
M  V30 1337 N 127.117 1.15442 -1.07289 0
M  V30 1338 C 128.345 1.90096 -0.81676 0
M  V30 1339 C 128.76 1.7798 0.629966 0
M  V30 1340 O 128.117 1.1313 1.43206 0
M  V30 1341 C 128.168 3.40466 -1.21512 0
M  V30 1342 O 127.889 3.52232 -2.60508 0
M  V30 1343 C 129.39 4.32145 -0.988198 0
M  V30 1344 H 126.61 0.602495 -0.295366 0
M  V30 1345 H 129.154 1.4627 -1.42918 0
M  V30 1346 H 127.309 3.81958 -0.647039 0
M  V30 1347 H 127.723 4.45549 -2.76742 0
M  V30 1348 H 129.197 5.36072 -1.31645 0
M  V30 1349 H 129.674 4.39135 0.0755063 0
M  V30 1350 H 130.28 3.96395 -1.54115 0
M  V30 1351 N 128.595 0.856903 1.32268 0
M  V30 1352 C 129.525 0.31858 2.31316 0
M  V30 1353 C 130.506 -0.583487 1.59779 0
M  V30 1354 O 131.691 -0.503259 1.87566 0
M  V30 1355 C 128.821 -0.491979 3.43798 0
M  V30 1356 C 127.775 0.315849 4.26833 0
M  V30 1357 C 127.101 -0.619586 5.31098 0
M  V30 1358 C 128.401 1.54282 4.98993 0
M  V30 1359 H 130.095 1.14621 2.76591 0
M  V30 1360 H 127.641 0.552613 1.32974 0
M  V30 1361 H 129.594 -0.879012 4.1213 0
M  V30 1362 H 128.318 -1.35299 2.97257 0
M  V30 1363 H 126.977 0.684664 3.6015 0
M  V30 1364 H 126.625 -1.47751 4.8081 0
M  V30 1365 H 126.325 -0.0830621 5.87541 0
M  V30 1366 H 127.849 -1.00375 6.02293 0
M  V30 1367 H 129.263 1.22796 5.59995 0
M  V30 1368 H 127.66 2.01745 5.65172 0
M  V30 1369 H 128.73 2.30285 4.26728 0
M  V30 1370 N 130.073 -1.45103 0.615059 0
M  V30 1371 C 131.02 -2.30586 -0.0993978 0
M  V30 1372 C 131.99 -1.42544 -0.852669 0
M  V30 1373 O 133.175 -1.71465 -0.836917 0
M  V30 1374 C 130.315 -3.27572 -1.08583 0
M  V30 1375 C 129.428 -4.30717 -0.332656 0
M  V30 1376 C 128.563 -5.14807 -1.30947 0
M  V30 1377 C 127.602 -6.09673 -0.544538 0
M  V30 1378 N 126.739 -6.86517 -1.47101 0
M  V30 1379 H 131.579 -2.91144 0.635542 0
M  V30 1380 H 129.116 -1.4346 0.325206 0
M  V30 1381 H 131.074 -3.82276 -1.67095 0
M  V30 1382 H 129.704 -2.68751 -1.78809 0
M  V30 1383 H 128.756 -3.78615 0.368107 0
M  V30 1384 H 130.068 -4.98102 0.263842 0
M  V30 1385 H 129.222 -5.73948 -1.96643 0
M  V30 1386 H 127.961 -4.47458 -1.9399 0
M  V30 1387 H 126.966 -5.49656 0.126003 0
M  V30 1388 H 128.191 -6.79052 0.080947 0
M  V30 1389 H 126.137 -6.21851 -2.08895 0
M  V30 1390 H 126.054 -7.50281 -0.928137 0
M  V30 1391 H 127.322 -7.50194 -2.11731 0
M  V30 1392 N 131.551 -0.354651 -1.53558 0
M  V30 1393 C 132.498 0.496968 -2.25386 0
M  V30 1394 C 133.468 1.0865 -1.25636 0
M  V30 1395 O 134.653 1.12104 -1.54394 0
M  V30 1396 C 131.793 1.63637 -3.03837 0
M  V30 1397 C 130.906 1.07307 -4.18461 0
M  V30 1398 C 130.041 2.18068 -4.84376 0
M  V30 1399 C 129.08 1.59147 -5.91049 0
M  V30 1400 N 128.217 2.63695 -6.50699 0
M  V30 1401 H 133.057 -0.122075 -2.9775 0
M  V30 1402 H 130.594 -0.0720154 -1.46924 0
M  V30 1403 H 132.552 2.30734 -3.47589 0
M  V30 1404 H 131.182 2.22623 -2.33749 0
M  V30 1405 H 130.234 0.292708 -3.79272 0
M  V30 1406 H 131.546 0.602193 -4.95152 0
M  V30 1407 H 130.7 2.93007 -5.31255 0
M  V30 1408 H 129.439 2.68504 -4.07133 0
M  V30 1409 H 128.444 0.827175 -5.43542 0
M  V30 1410 H 129.669 1.09549 -6.70206 0
M  V30 1411 H 127.615 3.13365 -5.76315 0
M  V30 1412 H 127.532 2.21263 -7.22896 0
M  V30 1413 H 128.8 3.3837 -7.02229 0
M  V30 1414 N 133.029 1.57378 -0.0835403 0
M  V30 1415 C 133.959 2.1641 0.87686 0
M  V30 1416 C 134.94 1.09429 1.30228 0
M  V30 1417 O 136.125 1.37516 1.37124 0
M  V30 1418 C 133.255 2.73517 2.14022 0
M  V30 1419 C 132.209 3.85769 1.85381 0
M  V30 1420 C 131.535 4.29529 3.18448 0
M  V30 1421 C 132.835 5.09486 1.14984 0
M  V30 1422 H 134.529 2.96914 0.385059 0
M  V30 1423 H 132.075 1.42823 0.18377 0
M  V30 1424 H 134.028 3.13463 2.81636 0
M  V30 1425 H 132.752 1.90252 2.65465 0
M  V30 1426 H 131.411 3.46345 1.20169 0
M  V30 1427 H 131.059 3.43169 3.67755 0
M  V30 1428 H 130.759 5.05204 3.00071 0
M  V30 1429 H 132.283 4.72099 3.8724 0
M  V30 1430 H 133.697 5.46674 1.72687 0
M  V30 1431 H 132.094 5.90515 1.06826 0
M  V30 1432 H 133.164 4.84724 0.130749 0
M  V30 1433 N 134.507 -0.190092 1.56449 0
M  V30 1434 C 135.784 -0.935886 1.71757 0
M  V30 1435 C 136.164 -2.01173 0.639726 0
M  V30 1436 O 135.512 -2.25827 -0.348502 0
M  V30 1437 C 135.722 -1.51775 3.1427 0
M  V30 1438 C 137.07 -1.99794 3.74656 0
M  V30 1439 O 138.094 -1.61607 3.1743 0
M  V30 1440 O 136.953 -2.70079 4.751 0
M  V30 1441 H 134.047 -0.439229 0.700719 0
M  V30 1442 H 136.593 -0.179395 1.68749 0
M  V30 1443 H 135.365 -0.742505 3.84191 0
M  V30 1444 H 134.988 -2.33894 3.21527 0
M  V30 1445 N 135.985 -1.50799 -0.457987 0
M  V30 1446 C 137.262 -1.52968 -1.21902 0
M  V30 1447 C 137.642 -0.281906 -2.09209 0
M  V30 1448 O 136.99 0.734076 -2.16388 0
M  V30 1449 C 137.2 -2.8326 -2.03875 0
M  V30 1450 C 138.548 -3.34425 -2.6162 0
M  V30 1451 O 139.572 -2.8467 -2.14106 0
M  V30 1452 O 138.431 -4.21188 -3.48228 0
M  V30 1453 H 135.525 -0.614129 -0.553873 0
M  V30 1454 H 138.071 -1.63098 -0.468739 0
M  V30 1455 H 136.843 -3.65543 -1.39621 0
M  V30 1456 H 136.466 -2.76195 -2.8601 0
M  V30 1457 N 137.463 0.71206 -1.40597 0
M  V30 1458 C 138.711 1.46907 -1.38791 0
M  V30 1459 C 139.032 1.94998 0.00780391 0
M  V30 1460 O 138.302 1.70587 0.963174 0
M  V30 1461 H 136.882 0.545043 -0.51082 0
M  V30 1462 H 139.544 0.843882 -1.75683 0
M  V30 1463 H 138.64 2.34021 -2.06496 0
M  V30 1464 N 138.941 1.26152 0.944643 0
M  V30 1465 C 139.888 1.07408 2.04285 0
M  V30 1466 C 140.858 -0.0198413 1.66088 0
M  V30 1467 O 142.043 0.139264 1.90291 0
M  V30 1468 C 139.183 0.70945 3.37729 0
M  V30 1469 C 138.296 1.87926 3.88983 0
M  V30 1470 C 137.431 1.45807 5.10797 0
M  V30 1471 C 136.47 2.5964 5.54305 0
M  V30 1472 N 135.607 2.18226 6.67324 0
M  V30 1473 H 140.447 2.01389 2.1965 0
M  V30 1474 H 137.984 1.00275 1.07626 0
M  V30 1475 H 139.942 0.478948 4.14442 0
M  V30 1476 H 138.572 -0.193389 3.2222 0
M  V30 1477 H 137.624 2.22279 3.08701 0
M  V30 1478 H 138.936 2.73377 4.17213 0
M  V30 1479 H 138.09 1.18781 5.94959 0
M  V30 1480 H 136.829 0.574414 4.84305 0
M  V30 1481 H 135.834 2.87399 4.68702 0
M  V30 1482 H 137.059 3.48599 5.828 0
M  V30 1483 H 135.005 1.3229 6.42523 0
M  V30 1484 H 134.922 2.97221 6.95123 0
M  V30 1485 H 136.19 1.94403 7.54869 0
M  V30 1486 N 140.419 -1.14872 1.07899 0
M  V30 1487 C 141.349 -2.2193 0.725887 0
M  V30 1488 C 142.33 -1.67622 -0.28927 0
M  V30 1489 O 143.515 -1.93533 -0.160787 0
M  V30 1490 C 140.645 -3.47061 0.128856 0
M  V30 1491 C 139.599 -4.14363 1.07178 0
M  V30 1492 C 138.925 -5.33636 0.337229 0
M  V30 1493 C 140.225 -4.63492 2.40775 0
M  V30 1494 H 141.919 -2.51724 1.62097 0
M  V30 1495 H 139.465 -1.20991 0.780838 0
M  V30 1496 H 141.418 -4.21199 -0.130147 0
M  V30 1497 H 140.142 -3.16617 -0.80134 0
M  V30 1498 H 138.801 -3.42173 1.3158 0
M  V30 1499 H 138.449 -4.99449 -0.596606 0
M  V30 1500 H 138.149 -5.79609 0.965788 0
M  V30 1501 H 139.673 -6.10539 0.0861567 0
M  V30 1502 H 141.087 -5.2913 2.20669 0
M  V30 1503 H 139.484 -5.20148 2.99276 0
M  V30 1504 H 140.554 -3.78834 3.02676 0
M  V30 1505 N 141.898 -0.863906 -1.31812 0
M  V30 1506 C 143.128 -0.485406 -2.00817 0
M  V30 1507 C 143.536 0.925007 -1.65046 0
M  V30 1508 O 142.879 1.61653 -0.872574 0
M  V30 1509 C 142.941 -0.555589 -3.55181 0
M  V30 1510 C 142.605 -1.92654 -4.14407 0
M  V30 1511 C 143.602 -2.89324 -4.31958 0
M  V30 1512 C 141.287 -2.2262 -4.50273 0
M  V30 1513 C 143.281 -4.14108 -4.84555 0
M  V30 1514 C 140.968 -3.47654 -5.02573 0
M  V30 1515 C 141.966 -4.43214 -5.19664 0
M  V30 1516 O 141.654 -5.66033 -5.70843 0
M  V30 1517 H 141.386 -0.188224 -0.649267 0
M  V30 1518 H 143.94 -1.16514 -1.69156 0
M  V30 1519 H 142.17 0.181037 -3.86276 0
M  V30 1520 H 143.859 -0.19138 -4.05449 0
M  V30 1521 H 144.625 -2.6748 -4.04573 0
M  V30 1522 H 140.504 -1.4902 -4.3625 0
M  V30 1523 H 144.048 -4.88703 -4.9781 0
M  V30 1524 H 139.945 -3.69345 -5.29391 0
M  V30 1525 H 140.713 -5.6812 -5.89222 0
M  V30 1526 N 143.376 1.44774 -0.622745 0
M  V30 1527 C 144.339 2.29069 0.0774015 0
M  V30 1528 C 145.339 1.4059 0.780461 0
M  V30 1529 O 146.529 1.62551 0.626322 0
M  V30 1530 C 143.661 3.21974 1.12006 0
M  V30 1531 H 144.854 2.92459 -0.663901 0
M  V30 1532 H 142.407 1.51548 -0.382486 0
M  V30 1533 H 143.142 2.63417 1.89162 0
M  V30 1534 H 142.927 3.87168 0.619951 0
M  V30 1535 H 144.417 3.85318 1.60995 0
M  V30 1536 N 144.854 0.36279 1.53368 0
M  V30 1537 C 146.131 -0.284021 1.93527 0
M  V30 1538 C 146.511 -1.66628 1.29608 0
M  V30 1539 O 145.859 -2.23942 0.45413 0
M  V30 1540 C 146.069 -0.337028 3.47369 0
M  V30 1541 C 147.417 -0.578708 4.20638 0
M  V30 1542 O 148.441 -0.418352 3.53735 0
M  V30 1543 O 147.3 -0.89074 5.39192 0
M  V30 1544 H 144.394 -0.169743 0.809393 0
M  V30 1545 H 146.94 0.41537 1.64538 0
M  V30 1546 H 145.712 0.632217 3.86159 0
M  V30 1547 H 145.335 -1.08243 3.82582 0
M  V30 1548 N 146.332 -1.57332 0.0918853 0
M  V30 1549 C 147.28 -2.15075 -0.885747 0
M  V30 1550 C 148.274 -1.09277 -1.29441 0
M  V30 1551 O 149.48 -1.27627 -1.26931 0
M  V30 1552 H 145.855 -0.687966 -0.303656 0
M  V30 1553 H 147.826 -2.96047 -0.373995 0
M  V30 1554 C 146.575 -2.74325 -2.13638 0
M  V30 1555 H 145.898 -3.55418 -1.8308 0
M  V30 1556 H 147.338 -3.183 -2.80109 0
M  V30 1557 C 145.797 -1.70062 -2.90827 0
M  V30 1558 O 146.327 -1.13763 -3.85254 0
M  V30 1559 N 144.533 -1.40628 -2.54307 0
M  V30 1560 H 144.08 -1.866 -1.7759 0
M  V30 1561 H 144.038 -0.711043 -3.06254 0
M  V30 1562 N 147.81 0.181792 -1.56548 0
M  V30 1563 C 149.038 0.915947 -1.85521 0
M  V30 1564 C 149.453 1.76282 -0.676016 0
M  V30 1565 O 148.81 1.79012 0.355077 0
M  V30 1566 C 148.861 1.80126 -3.13427 0
M  V30 1567 O 148.582 0.988562 -4.26801 0
M  V30 1568 C 150.083 2.64597 -3.55673 0
M  V30 1569 H 147.303 0.26661 -0.61576 0
M  V30 1570 H 149.847 0.185039 -2.03661 0
M  V30 1571 H 148.002 2.48563 -2.97145 0
M  V30 1572 H 148.416 1.59308 -4.99721 0
M  V30 1573 H 149.89 3.2235 -4.48101 0
M  V30 1574 H 150.367 3.38958 -2.79292 0
M  V30 1575 H 150.973 2.0151 -3.74532 0
M  V30 1576 N 149.288 1.51039 0.449983 0
M  V30 1577 C 150.565 1.53612 1.21089 0
M  V30 1578 C 150.945 0.292997 2.09057 0
M  V30 1579 O 150.293 -0.72259 2.16774 0
M  V30 1580 C 150.503 2.84337 2.0237 0
M  V30 1581 C 151.851 3.35807 2.59843 0
M  V30 1582 O 152.875 2.85802 2.12593 0
M  V30 1583 O 151.734 4.23029 3.45989 0
M  V30 1584 H 148.828 0.617057 0.550608 0
M  V30 1585 H 151.374 1.63344 0.460082 0
M  V30 1586 H 150.146 3.66278 1.37681 0
M  V30 1587 H 149.769 2.77708 2.84542 0
M  V30 1588 N 150.766 -0.704594 1.40972 0
M  V30 1589 C 152.014 -1.46169 1.39568 0
M  V30 1590 C 152.335 -1.95 0.00253745 0
M  V30 1591 O 151.605 -1.71095 -0.954114 0
M  V30 1592 H 150.185 -0.542326 0.513704 0
M  V30 1593 H 152.847 -0.834553 1.76128 0
M  V30 1594 H 151.943 -2.32922 2.07735 0
M  V30 1595 N 152.244 -1.26651 -0.937939 0
M  V30 1596 C 153.493 -1.11775 -1.67897 0
M  V30 1597 C 153.806 0.33794 -1.92659 0
M  V30 1598 O 155.012 0.607434 -2.64618 0
M  V30 1599 C 153.468 -1.9523 -3.02346 0
M  V30 1600 C 153.076 -3.45393 -2.8532 0
M  V30 1601 C 154.82 -1.88972 -3.80118 0
M  V30 1602 C 152.727 -4.21083 -4.15263 0
M  V30 1603 H 151.657 -0.414696 -0.629717 0
M  V30 1604 H 154.308 -1.50988 -1.04283 0
M  V30 1605 H 152.69 -1.48853 -3.66959 0
M  V30 1606 H 153.864 -3.99561 -2.29537 0
M  V30 1607 H 152.179 -3.52921 -2.20988 0
M  V30 1608 H 154.776 -2.42805 -4.76392 0
M  V30 1609 H 155.119 -0.86113 -4.07296 0
M  V30 1610 H 155.652 -2.33189 -3.22285 0
M  V30 1611 H 152.391 -5.24425 -3.93267 0
M  V30 1612 H 151.911 -3.71695 -4.70747 0
M  V30 1613 H 153.59 -4.29706 -4.83696 0
M  V30 1614 N 153.722 1.14298 -1.08507 0
M  V30 1615 C 154.97 1.84993 -0.813763 0
M  V30 1616 C 155.291 1.83405 0.662393 0
M  V30 1617 O 154.561 1.28319 1.48024 0
M  V30 1618 H 153.141 0.684966 -0.298045 0
M  V30 1619 H 155.803 1.385 -1.37126 0
M  V30 1620 H 154.899 2.89788 -1.15884 0
M  V30 1621 N 155.201 0.870884 1.31352 0
M  V30 1622 C 156.131 0.343096 2.30966 0
M  V30 1623 C 157.112 -0.566507 1.60389 0
M  V30 1624 O 158.297 -0.483336 1.88089 0
M  V30 1625 C 155.427 -0.455487 3.443 0
M  V30 1626 C 154.381 0.361103 4.26474 0
M  V30 1627 C 153.707 -0.563221 5.31725 0
M  V30 1628 C 155.007 1.59566 4.97329 0
M  V30 1629 H 156.701 1.17548 2.75359 0
M  V30 1630 H 154.247 0.566686 1.32381 0
M  V30 1631 H 156.2 -0.83525 4.13039 0
M  V30 1632 H 154.924 -1.32139 2.98675 0
M  V30 1633 H 153.583 0.722825 3.59403 0
M  V30 1634 H 153.231 -1.42643 4.82351 0
M  V30 1635 H 152.931 -0.0207409 5.87596 0
M  V30 1636 H 154.455 -0.939808 6.03324 0
M  V30 1637 H 155.869 1.28728 5.58661 0
M  V30 1638 H 154.266 2.07728 5.63 0
M  V30 1639 H 155.336 2.34798 4.24262 0
M  V30 1640 N 156.679 -1.44442 0.630414 0
M  V30 1641 C 157.925 -2.02351 0.134816 0
M  V30 1642 C 158.258 -1.4947 -1.23986 0
M  V30 1643 O 157.533 -0.678475 -1.82283 0
M  V30 1644 C 157.816 -3.59898 0.120707 0
M  V30 1645 C 157.669 -4.23063 1.52767 0
M  V30 1646 C 158.988 -4.36585 -0.555127 0
M  V30 1647 H 156.107 -0.73527 0.0504646 0
M  V30 1648 H 158.749 -1.72022 0.806751 0
M  V30 1649 H 156.899 -3.85868 -0.451477 0
M  V30 1650 H 158.571 -4.08202 2.14869 0
M  V30 1651 H 156.814 -3.80586 2.08175 0
M  V30 1652 H 157.485 -5.32071 1.46984 0
M  V30 1653 H 159.961 -4.16044 -0.0685429 0
M  V30 1654 H 158.837 -5.46294 -0.534185 0
M  V30 1655 H 159.098 -4.11138 -1.62535 0
M  V30 1656 N 158.157 -0.370918 -1.53173 0
M  V30 1657 C 159.385 0.217704 -2.05751 0
M  V30 1658 C 159.8 1.42018 -1.24404 0
M  V30 1659 O 159.157 1.80245 -0.286033 0
M  V30 1660 C 159.208 0.605954 -3.56385 0
M  V30 1661 O 158.929 -0.548734 -4.3465 0
M  V30 1662 C 160.43 1.2524 -4.25241 0
M  V30 1663 H 157.65 0.0371659 -0.66997 0
M  V30 1664 H 160.194 -0.530832 -1.9749 0
M  V30 1665 H 158.349 1.3044 -3.6478 0
M  V30 1666 H 158.763 -0.23376 -5.23979 0
M  V30 1667 H 160.237 1.47458 -5.3194 0
M  V30 1668 H 160.714 2.2143 -3.79296 0
M  V30 1669 H 161.32 0.595233 -4.21114 0
M  V30 1670 N 159.635 1.57281 -0.100228 0
M  V30 1671 C 160.912 1.86014 0.604812 0
M  V30 1672 C 161.292 0.998025 1.86018 0
M  V30 1673 O 160.64 0.0718184 2.28387 0
M  V30 1674 C 160.85 3.36784 0.915278 0
M  V30 1675 C 162.198 4.04957 1.27651 0
M  V30 1676 O 163.222 3.41695 1.00613 0
M  V30 1677 O 162.081 5.16593 1.7831 0
M  V30 1678 H 159.175 0.76942 0.303185 0
M  V30 1679 H 161.721 1.69176 -0.133313 0
M  V30 1680 H 160.493 3.91292 0.0248896 0
M  V30 1681 H 160.116 3.58987 1.70921 0
M  V30 1682 N 161.113 -0.173488 1.56642 0
M  V30 1683 C 162.043 -1.2171 1.99271 0
M  V30 1684 C 163.024 -1.46289 0.867959 0
M  V30 1685 O 164.209 -1.5766 1.13388 0
M  V30 1686 C 161.339 -2.55651 2.35074 0
M  V30 1687 C 160.293 -2.45645 3.50489 0
M  V30 1688 C 159.619 -3.84056 3.72028 0
M  V30 1689 C 160.919 -1.96302 4.84007 0
M  V30 1690 H 162.613 -0.86275 2.867 0
M  V30 1691 H 160.159 -0.413571 1.37933 0
M  V30 1692 H 162.112 -3.2886 2.63494 0
M  V30 1693 H 160.836 -2.92869 1.44552 0
M  V30 1694 H 159.495 -1.7489 3.22194 0
M  V30 1695 H 159.143 -4.18664 2.788 0
M  V30 1696 H 158.843 -3.7823 4.49684 0
M  V30 1697 H 160.367 -4.58854 4.02846 0
M  V30 1698 H 161.781 -2.59284 5.11317 0
M  V30 1699 H 160.178 -2.01429 5.65284 0
M  V30 1700 H 161.248 -0.917226 4.76146 0
M  V30 1701 N 162.591 -1.51276 -0.441967 0
M  V30 1702 C 163.523 -1.68444 -1.55433 0
M  V30 1703 C 164.536 -0.565187 -1.52674 0
M  V30 1704 O 165.725 -0.839356 -1.57534 0
M  V30 1705 C 162.825 -1.67966 -2.94348 0
M  V30 1706 C 161.998 -2.964 -3.21661 0
M  V30 1707 C 161.057 -2.88171 -4.40277 0
M  V30 1708 O 160.083 -3.62119 -4.39157 0
M  V30 1709 N 161.285 -2.03706 -5.43584 0
M  V30 1710 H 164.05 -2.644 -1.41112 0
M  V30 1711 H 161.611 -1.49104 -0.630838 0
M  V30 1712 H 163.603 -1.60035 -3.71713 0
M  V30 1713 H 162.173 -0.796225 -3.0229 0
M  V30 1714 H 161.393 -3.18234 -2.32638 0
M  V30 1715 H 162.681 -3.81427 -3.36736 0
M  V30 1716 H 162.079 -1.42995 -5.47329 0
M  V30 1717 H 160.636 -2.01658 -6.1982 0
M  V30 1718 N 164.069 0.697108 -1.41344 0
M  V30 1719 C 165.485 1.00751 -1.2378 0
M  V30 1720 C 165.685 2.01105 -0.126066 0
M  V30 1721 O 164.741 2.47295 0.51004 0
M  V30 1722 C 166.054 1.53359 -2.58653 0
M  V30 1723 C 167.602 1.6525 -2.65822 0
M  V30 1724 C 168.077 2.2126 -4.01009 0
M  V30 1725 N 169.568 2.28622 -4.02847 0
M  V30 1726 C 170.303 2.72984 -5.04249 0
M  V30 1727 N 169.799 3.16962 -6.16041 0
M  V30 1728 N 171.592 2.72534 -4.91611 0
M  V30 1729 H 163.743 0.0322662 -2.12375 0
M  V30 1730 H 166.006 0.0768853 -0.944877 0
M  V30 1731 H 165.712 0.870773 -3.4075 0
M  V30 1732 H 165.586 2.51597 -2.81032 0
M  V30 1733 H 167.973 2.30644 -1.84086 0
M  V30 1734 H 168.054 0.655614 -2.47256 0
M  V30 1735 H 167.698 1.56482 -4.83193 0
M  V30 1736 H 167.628 3.21698 -4.16915 0
M  V30 1737 H 170.119 1.97585 -3.22131 0
M  V30 1738 H 170.432 3.49434 -6.89287 0
M  V30 1739 H 168.777 3.14875 -6.1958 0
M  V30 1740 H 171.968 2.37525 -4.0336 0
M  V30 1741 H 172.141 3.06789 -5.70775 0
M  V30 1742 N 165.547 1.27147 0.931209 0
M  V30 1743 C 166.477 1.12081 2.04842 0
M  V30 1744 C 167.458 0.0232364 1.70084 0
M  V30 1745 O 168.643 0.197085 1.93197 0
M  V30 1746 C 165.773 0.76354 3.38803 0
M  V30 1747 C 164.727 1.81396 3.87659 0
M  V30 1748 C 164.053 1.31075 5.18385 0
M  V30 1749 C 165.353 3.21739 4.11438 0
M  V30 1750 H 167.047 2.05537 2.17703 0
M  V30 1751 H 164.593 0.989603 1.04608 0
M  V30 1752 H 166.546 0.644982 4.16435 0
M  V30 1753 H 165.27 -0.206727 3.25945 0
M  V30 1754 H 163.929 1.92136 3.12217 0
M  V30 1755 H 163.577 0.330037 5.01916 0
M  V30 1756 H 163.277 2.013 5.52044 0
M  V30 1757 H 164.801 1.20506 5.98591 0
M  V30 1758 H 166.215 3.14019 4.79651 0
M  V30 1759 H 164.612 3.89644 4.56397 0
M  V30 1760 H 165.682 3.67054 3.16859 0
M  V30 1761 N 167.025 -1.13721 1.09112 0
M  V30 1762 C 167.973 -2.21103 0.722219 0
M  V30 1763 C 168.967 -1.67147 -0.275374 0
M  V30 1764 O 170.173 -1.79477 -0.137176 0
M  V30 1765 H 166.548 -0.720445 0.215553 0
M  V30 1766 H 168.519 -2.49483 1.63709 0
M  V30 1767 C 167.268 -3.47352 0.15543 0
M  V30 1768 H 166.591 -3.89206 0.914246 0
M  V30 1769 H 168.031 -4.2395 -0.0647967 0
M  V30 1770 C 166.49 -3.1814 -1.10852 0
M  V30 1771 O 167.02 -3.36604 -2.19227 0
M  V30 1772 N 165.226 -2.72045 -1.02176 0
M  V30 1773 H 164.773 -2.57221 -0.139764 0
M  V30 1774 H 164.731 -2.52875 -1.8682 0
M  V30 1775 N 168.503 -0.877838 -1.30888 0
M  V30 1776 C 169.749 -0.502773 -1.97088 0
M  V30 1777 C 170.104 0.936274 -1.68082 0
M  V30 1778 O 169.397 1.65162 -0.971196 0
M  V30 1779 C 169.591 -0.705748 -3.50363 0
M  V30 1780 C 169.42 -2.16297 -3.94266 0
M  V30 1781 C 168.19 -2.80614 -4.20219 0
M  V30 1782 C 170.388 -3.13606 -4.07622 0
M  V30 1783 N 168.37 -4.17007 -4.50532 0
M  V30 1784 C 169.741 -4.35051 -4.41736 0
M  V30 1785 C 171.796 -3.09491 -3.90026 0
M  V30 1786 C 170.499 -5.52911 -4.60089 0
M  V30 1787 C 172.525 -4.26616 -4.09576 0
M  V30 1788 C 171.887 -5.46825 -4.44029 0
M  V30 1789 H 167.986 -0.233168 -0.746429 0
M  V30 1790 H 170.57 -1.13408 -1.58261 0
M  V30 1791 H 168.741 -0.103976 -3.88261 0
M  V30 1792 H 170.473 -0.298291 -4.03599 0
M  V30 1793 H 167.228 -2.3152 -4.13153 0
M  V30 1794 H 167.652 -4.87426 -4.69834 0
M  V30 1795 H 172.294 -2.17657 -3.62471 0
M  V30 1796 H 170.012 -6.45255 -4.86489 0
M  V30 1797 H 173.598 -4.24894 -3.97438 0
M  V30 1798 H 172.478 -6.35947 -4.58848 0
M  V30 1799 N 169.982 1.44106 -0.638065 0
M  V30 1800 C 170.912 2.33448 0.0494287 0
M  V30 1801 C 171.893 1.48606 0.827672 0
M  V30 1802 O 173.078 1.77308 0.792173 0
M  V30 1803 C 170.208 3.31771 1.02691 0
M  V30 1804 C 169.162 4.26485 0.359823 0
M  V30 1805 C 168.488 5.14729 1.44769 0
M  V30 1806 C 169.788 5.17056 -0.738296 0
M  V30 1807 H 171.482 2.91183 -0.696636 0
M  V30 1808 H 169.028 1.40014 -0.336456 0
M  V30 1809 H 170.981 3.93161 1.51666 0
M  V30 1810 H 169.705 2.7226 1.80395 0
M  V30 1811 H 168.364 3.66437 -0.10934 0
M  V30 1812 H 168.012 4.51566 2.21578 0
M  V30 1813 H 167.712 5.78913 1.00668 0
M  V30 1814 H 169.236 5.78991 1.93911 0
M  V30 1815 H 170.65 5.72342 -0.331354 0
M  V30 1816 H 169.047 5.89879 -1.10286 0
M  V30 1817 H 170.117 4.57652 -1.60258 0
M  V30 1818 N 171.46 0.379036 1.52974 0
M  V30 1819 C 172.876 0.0285448 1.59574 0
M  V30 1820 C 173.076 -1.45542 1.39355 0
M  V30 1821 O 172.132 -2.2187 1.20541 0
M  V30 1822 C 173.445 0.496535 2.96572 0
M  V30 1823 C 174.993 0.451909 3.0972 0
M  V30 1824 C 175.468 0.895924 4.49152 0
M  V30 1825 N 176.959 0.851522 4.55306 0
M  V30 1826 C 177.694 1.16661 5.61407 0
M  V30 1827 N 177.19 1.55166 6.752 0
M  V30 1828 N 178.983 1.08853 5.51459 0
M  V30 1829 H 171.134 1.34525 1.64367 0
M  V30 1830 H 173.397 0.550733 0.771619 0
M  V30 1831 H 173.103 1.53258 3.16552 0
M  V30 1832 H 172.977 -0.109802 3.7704 0
M  V30 1833 H 175.364 -0.575029 2.89443 0
M  V30 1834 H 175.445 1.09392 2.3123 0
M  V30 1835 H 175.089 1.92104 4.70168 0
M  V30 1836 H 175.019 0.23103 5.26093 0
M  V30 1837 H 177.51 0.568038 3.73606 0
M  V30 1838 H 177.823 1.776 7.52116 0
M  V30 1839 H 176.168 1.59044 6.76557 0
M  V30 1840 H 179.359 0.786803 4.6144 0
M  V30 1841 H 179.532 1.33742 6.34048 0
M  V30 1842 N 172.938 -1.57226 0.108567 0
M  V30 1843 C 174.349 -1.8195 -0.418464 0
M  V30 1844 C 174.7 -1.02508 -1.67292 0
M  V30 1845 O 173.825 -0.258496 -2.14851 0
M  V30 1846 C 174.42 -3.30028 -0.765979 0
M  V30 1847 C 172.979 -3.55469 -1.23769 0
M  V30 1848 C 172.126 -2.7625 -0.241106 0
M  V30 1849 H 175.077 -1.55149 0.33384 0
M  V30 1850 H 175.098 -3.44086 -1.62434 0
M  V30 1851 H 174.61 -3.87821 0.147219 0
M  V30 1852 H 172.711 -3.03022 -2.16814 0
M  V30 1853 H 172.824 -4.6408 -1.19022 0
M  V30 1854 H 171.188 -2.44133 -0.72602 0
M  V30 1855 H 171.971 -3.36797 0.665007 0
M  V30 1856 N 174.416 0.165178 -1.56732 0
M  V30 1857 C 175.364 1.22369 -1.97809 0
M  V30 1858 C 176.358 1.45488 -0.867741 0
M  V30 1859 O 177.564 1.45995 -1.05288 0
M  V30 1860 H 173.939 0.411486 -0.629431 0
M  V30 1861 H 175.91 0.850425 -2.86025 0
M  V30 1862 C 174.659 2.55403 -2.35934 0
M  V30 1863 H 173.982 2.38438 -3.20916 0
M  V30 1864 H 175.422 3.2814 -2.68514 0
M  V30 1865 C 173.881 3.14611 -1.20506 0
M  V30 1866 O 174.411 3.98626 -0.496016 0
M  V30 1867 N 172.617 2.7379 -0.97403 0
M  V30 1868 H 172.164 2.0557 -1.55238 0
M  V30 1869 H 172.122 3.1374 -0.203573 0
M  V30 1870 N 175.894 1.51508 0.433938 0
M  V30 1871 C 176.826 1.69266 1.54537 0
M  V30 1872 C 177.839 0.573276 1.52373 0
M  V30 1873 O 179.028 0.847698 1.57087 0
M  V30 1874 C 176.128 1.69524 2.93453 0
M  V30 1875 C 175.301 2.98101 3.20085 0
M  V30 1876 C 174.36 2.90502 4.38742 0
M  V30 1877 O 173.386 3.64442 4.3723 0
M  V30 1878 N 174.588 2.06586 5.42496 0
M  V30 1879 H 177.353 2.65145 1.39708 0
M  V30 1880 H 174.914 1.49437 0.622922 0
M  V30 1881 H 176.906 1.62004 3.70859 0
M  V30 1882 H 175.476 0.812245 3.01863 0
M  V30 1883 H 174.696 3.19464 2.30947 0
M  V30 1884 H 175.984 3.83207 3.34708 0
M  V30 1885 H 175.382 1.45896 5.46563 0
M  V30 1886 H 173.939 2.04943 6.18742 0
M  V30 1887 N 177.372 -0.689602 1.41712 0
M  V30 1888 C 178.322 -1.79571 1.40493 0
M  V30 1889 C 179.306 -1.58473 0.278409 0
M  V30 1890 O 180.498 -1.69204 0.519532 0
M  V30 1891 C 177.627 -3.17923 1.29536 0
M  V30 1892 C 176.713 -3.44695 2.47075 0
M  V30 1893 N 177.104 -3.42132 3.72531 0
M  V30 1894 C 175.402 -3.75269 2.41017 0
M  V30 1895 C 176.103 -3.67976 4.50521 0
M  V30 1896 N 175.079 -3.88014 3.80718 0
M  V30 1897 H 178.881 -1.75961 2.35404 0
M  V30 1898 H 176.395 -0.889839 1.35851 0
M  V30 1899 H 178.392 -3.97167 1.26745 0
M  V30 1900 H 177.052 -3.22741 0.356153 0
M  V30 1901 H 178.063 -3.22375 4.05333 0
M  V30 1902 H 174.74 -3.87421 1.55599 0
M  V30 1903 H 176.13 -3.7208 5.59469 0
M  V30 1904 N 178.85 -1.27639 -0.924453 0
M  V30 1905 C 180.096 -1.14336 -1.67497 0
M  V30 1906 C 180.429 0.309465 -1.91718 0
M  V30 1907 O 179.704 1.22608 -1.50989 0
M  V30 1908 C 179.987 -1.93096 -3.0395 0
M  V30 1909 C 179.84 -3.46381 -2.8695 0
M  V30 1910 C 181.159 -1.73798 -4.0433 0
M  V30 1911 H 178.278 -0.416728 -0.607871 0
M  V30 1912 H 180.92 -1.56832 -1.07256 0
M  V30 1913 H 179.07 -1.56982 -3.55372 0
M  V30 1914 H 180.742 -3.92343 -2.42621 0
M  V30 1915 H 178.985 -3.72557 -2.22225 0
M  V30 1916 H 179.656 -3.96735 -3.83804 0
M  V30 1917 H 182.132 -2.05293 -3.61931 0
M  V30 1918 H 181.008 -2.31294 -4.97789 0
M  V30 1919 H 181.269 -0.686725 -4.36734 0
M  V30 1920 N 180.328 1.1314 -1.09713 0
M  V30 1921 C 181.258 2.20748 -0.761102 0
M  V30 1922 C 182.239 1.68061 0.262566 0
M  V30 1923 O 183.424 1.93765 0.129977 0
M  V30 1924 C 180.554 3.46812 -0.184054 0
M  V30 1925 C 179.508 4.12606 -1.13757 0
M  V30 1926 C 178.834 5.33031 -0.422083 0
M  V30 1927 C 180.134 4.59603 -2.48118 0
M  V30 1928 H 181.828 2.49113 -1.66082 0
M  V30 1929 H 179.374 1.19734 -0.799987 0
M  V30 1930 H 181.327 4.21353 0.0631215 0
M  V30 1931 H 180.051 3.17851 0.750868 0
M  V30 1932 H 178.71 3.40036 -1.37007 0
M  V30 1933 H 178.358 5.00335 0.517072 0
M  V30 1934 H 178.058 5.77999 -1.05788 0
M  V30 1935 H 179.582 6.10325 -0.183277 0
M  V30 1936 H 180.996 5.25552 -2.29059 0
M  V30 1937 H 179.393 5.15321 -3.07514 0
M  V30 1938 H 180.463 3.73971 -3.08665 0
M  V30 1939 N 181.806 0.884767 1.30421 0
M  V30 1940 C 183.055 0.499164 1.95426 0
M  V30 1941 C 183.368 -0.95645 1.70621 0
M  V30 1942 O 184.574 -1.44889 2.29607 0
M  V30 1943 C 183.03 0.84177 3.49917 0
M  V30 1944 C 182.638 2.31514 3.83543 0
M  V30 1945 C 184.382 0.525355 4.21237 0
M  V30 1946 C 182.289 2.59939 5.31212 0
M  V30 1947 H 181.219 0.182944 0.73147 0
M  V30 1948 H 183.87 1.07971 1.48373 0
M  V30 1949 H 182.252 0.190311 3.95542 0
M  V30 1950 H 183.426 3.0109 3.48829 0
M  V30 1951 H 181.741 2.59907 3.25326 0
M  V30 1952 H 184.338 0.714762 5.29901 0
M  V30 1953 H 184.681 -0.535222 4.12845 0
M  V30 1954 H 185.214 1.134 3.81294 0
M  V30 1955 H 181.953 3.64736 5.44654 0
M  V30 1956 H 181.473 1.94972 5.67227 0
M  V30 1957 H 183.152 2.45429 5.98643 0
M  V30 1958 N 183.284 -1.43765 0.645699 0
M  V30 1959 C 184.214 -2.33471 -0.0370477 0
M  V30 1960 C 185.195 -1.49042 -0.819779 0
M  V30 1961 O 186.38 -1.77726 -0.782758 0
M  V30 1962 C 183.51 -3.32311 -1.0093 0
M  V30 1963 C 182.464 -4.2667 -0.337201 0
M  V30 1964 C 181.79 -5.1549 -1.42037 0
M  V30 1965 C 183.09 -5.16657 0.765706 0
M  V30 1966 H 184.784 -2.90809 0.712069 0
M  V30 1967 H 182.33 -1.39834 0.343876 0
M  V30 1968 H 184.283 -3.9396 -1.49578 0
M  V30 1969 H 183.007 -2.73213 -1.78948 0
M  V30 1970 H 181.666 -3.66374 0.128771 0
M  V30 1971 H 181.314 -4.52735 -2.1918 0
M  V30 1972 H 181.014 -5.79438 -0.975966 0
M  V30 1973 H 182.538 -5.80012 -1.90838 0
M  V30 1974 H 183.952 -5.72158 0.361702 0
M  V30 1975 H 182.349 -5.89286 1.13413 0
M  V30 1976 H 183.419 -4.56796 1.62683 0
M  V30 1977 N 184.763 -0.387143 -1.52771 0
M  V30 1978 C 186.011 0.195349 -2.01154 0
M  V30 1979 C 186.332 1.475 -1.27549 0
M  V30 1980 O 185.602 1.91878 -0.394924 0
M  V30 1981 H 184.182 0.075178 -0.743207 0
M  V30 1982 H 186.844 -0.518337 -1.87881 0
M  V30 1983 H 185.94 0.407096 -3.09434 0
M  V30 1984 N 186.241 1.57166 -0.116904 0
M  V30 1985 C 187.204 2.14039 0.819742 0
M  V30 1986 C 188.204 1.07477 1.19605 0
M  V30 1987 O 189.394 1.33263 1.1219 0
M  V30 1988 C 186.526 2.67891 2.10826 0
M  V30 1989 H 187.719 2.98128 0.325511 0
M  V30 1990 H 185.272 1.55739 0.132312 0
M  V30 1991 H 186.007 1.87384 2.64685 0
M  V30 1992 H 185.792 3.45823 1.84793 0
M  V30 1993 H 187.282 3.11809 2.77785 0
M  V30 1994 N 187.719 -0.156864 1.56817 0
M  V30 1995 C 188.967 -0.869404 1.82444 0
M  V30 1996 C 189.288 -1.82147 0.69623 0
M  V30 1997 O 188.558 -1.93847 -0.28287 0
M  V30 1998 H 187.138 -0.324043 0.673056 0
M  V30 1999 H 189.8 -0.153224 1.94297 0
M  V30 2000 H 188.896 -1.43761 2.77019 0
M  V30 2001 N 189.197 -1.51736 -0.425897 0
M  V30 2002 C 190.445 -1.64644 -1.17204 0
M  V30 2003 C 190.766 -0.370486 -1.91448 0
M  V30 2004 O 190.036 0.614088 -1.86026 0
M  V30 2005 H 188.616 -0.606819 -0.435638 0
M  V30 2006 H 191.278 -1.88713 -0.487177 0
M  V30 2007 H 190.374 -2.47958 -1.89534 0
M  V30 2008 N 190.675 0.682077 -1.42076 0
M  V30 2009 C 191.638 1.77756 -1.44691 0
M  V30 2010 C 192.638 1.5726 -0.335535 0
M  V30 2011 O 193.828 1.63686 -0.596037 0
M  V30 2012 C 190.96 3.16301 -1.27146 0
M  V30 2013 H 192.153 1.76826 -2.42224 0
M  V30 2014 H 189.706 0.891012 -1.28416 0
M  V30 2015 H 190.441 3.22862 -0.305075 0
M  V30 2016 H 190.226 3.32581 -2.07683 0
M  V30 2017 H 191.716 3.96241 -1.31843 0
M  V30 2018 N 192.153 1.28127 0.917671 0
M  V30 2019 C 193.381 1.17892 1.70026 0
M  V30 2020 C 193.796 -0.262958 1.8696 0
M  V30 2021 O 193.153 -1.17811 1.3938 0
M  V30 2022 C 193.204 1.86872 3.09453 0
M  V30 2023 O 192.925 3.25428 2.93306 0
M  V30 2024 C 194.426 1.8289 4.03815 0
M  V30 2025 H 191.646 0.40942 0.531617 0
M  V30 2026 H 194.19 1.69181 1.14883 0
M  V30 2027 H 192.345 1.39464 3.61426 0
M  V30 2028 H 192.759 3.59918 3.81523 0
M  V30 2029 H 194.233 2.35751 4.99125 0
M  V30 2030 H 194.71 0.800412 4.31845 0
M  V30 2031 H 195.316 2.29959 3.57769 0
M  V30 2032 N 193.631 -1.12557 1.10312 0
M  V30 2033 C 194.578 -2.18247 0.750781 0
M  V30 2034 C 195.548 -1.63853 -0.272293 0
M  V30 2035 O 196.733 -1.90195 -0.151862 0
M  V30 2036 C 193.873 -3.44591 0.187379 0
M  V30 2037 C 192.986 -4.13046 1.2656 0
M  V30 2038 C 192.121 -5.27034 0.663978 0
M  V30 2039 C 191.16 -5.87353 1.72287 0
M  V30 2040 N 190.297 -6.92757 1.1416 0
M  V30 2041 H 195.137 -2.47732 1.65628 0
M  V30 2042 H 192.674 -1.21629 0.827337 0
M  V30 2043 H 194.632 -4.16904 -0.157148 0
M  V30 2044 H 193.262 -3.15527 -0.681355 0
M  V30 2045 H 192.314 -3.38924 1.72727 0
M  V30 2046 H 193.626 -4.53947 2.06721 0
M  V30 2047 H 192.78 -6.06104 0.268824 0
M  V30 2048 H 191.519 -4.87407 -0.169082 0
M  V30 2049 H 190.524 -5.06971 2.12746 0
M  V30 2050 H 191.749 -6.29051 2.55875 0
M  V30 2051 H 189.695 -6.5517 0.329984 0
M  V30 2052 H 189.612 -7.3225 1.88007 0
M  V30 2053 H 190.88 -7.75658 0.772956 0
M  V30 2054 N 195.109 -0.891671 -1.2995 0
M  V30 2055 C 196.357 -0.512486 -1.95494 0
M  V30 2056 C 196.678 0.942776 -1.70695 0
M  V30 2057 O 195.948 1.66374 -1.03424 0
M  V30 2058 H 194.528 -0.186533 -0.723336 0
M  V30 2059 H 197.19 -1.13621 -1.58355 0
M  V30 2060 H 196.286 -0.688342 -3.04415 0
M  V30 2061 N 196.587 1.43421 -0.653314 0
M  V30 2062 C 197.833 2.02111 -0.166992 0
M  V30 2063 C 198.166 1.51423 1.21592 0
M  V30 2064 O 197.441 0.707389 1.8118 0
M  V30 2065 C 197.724 3.5966 -0.177948 0
M  V30 2066 C 197.577 4.20579 -1.59478 0
M  V30 2067 C 198.896 4.37413 0.4856 0
M  V30 2068 H 196.015 0.734374 -0.0621557 0
M  V30 2069 H 198.657 1.70717 -0.834016 0
M  V30 2070 H 196.807 3.86537 0.390032 0
M  V30 2071 H 198.479 4.04732 -2.21336 0
M  V30 2072 H 196.722 3.77226 -2.14204 0
M  V30 2073 H 197.393 5.29665 -1.5543 0
M  V30 2074 H 199.869 4.161 0.00234528 0
M  V30 2075 H 198.745 5.47075 0.447207 0
M  V30 2076 H 199.006 4.13672 1.55974 0
M  V30 2077 N 198.065 0.39524 1.52563 0
M  V30 2078 C 198.995 -0.428384 2.29537 0
M  V30 2079 C 199.976 -1.05831 1.33169 0
M  V30 2080 O 201.161 -1.06995 1.62067 0
M  V30 2081 C 198.291 -1.55274 3.10656 0
M  V30 2082 C 197.245 -1.04855 4.14957 0
M  V30 2083 C 196.571 -2.26543 4.84337 0
M  V30 2084 C 197.871 -0.112324 5.22179 0
M  V30 2085 H 199.565 0.213867 2.98635 0
M  V30 2086 H 197.111 0.104298 1.43622 0
M  V30 2087 H 199.064 -2.1358 3.63265 0
M  V30 2088 H 197.788 -2.22266 2.39302 0
M  V30 2089 H 196.447 -0.487985 3.63338 0
M  V30 2090 H 196.095 -2.92059 4.09525 0
M  V30 2091 H 195.795 -1.93466 5.54837 0
M  V30 2092 H 197.319 -2.85481 5.39753 0
M  V30 2093 H 198.733 -0.603752 5.70112 0
M  V30 2094 H 197.13 0.128968 5.99961 0
M  V30 2095 H 198.2 0.837052 4.77621 0
M  V30 2096 N 199.544 -1.57102 0.125237 0
M  V30 2097 C 200.474 -2.18659 -0.819174 0
M  V30 2098 C 201.455 -1.12843 -1.27281 0
M  V30 2099 O 202.64 -1.41104 -1.33429 0
M  V30 2100 C 199.77 -2.79096 -2.06695 0
M  V30 2101 C 198.724 -3.90548 -1.75088 0
M  V30 2102 C 198.05 -4.37821 -3.06948 0
M  V30 2103 C 199.35 -5.12356 -1.01435 0
M  V30 2104 H 201.044 -2.9783 -0.306202 0
M  V30 2105 H 198.59 -1.4326 -0.145839 0
M  V30 2106 H 200.543 -3.2082 -2.73226 0
M  V30 2107 H 199.267 -1.97223 -2.60328 0
M  V30 2108 H 197.926 -3.49409 -1.10944 0
M  V30 2109 H 197.574 -3.52799 -3.58527 0
M  V30 2110 H 197.274 -5.12982 -2.86571 0
M  V30 2111 H 198.798 -4.822 -3.74587 0
M  V30 2112 H 200.212 -5.5106 -1.58132 0
M  V30 2113 H 198.609 -5.9314 -0.911319 0
M  V30 2114 H 199.679 -4.849 -0.00218681 0
M  V30 2115 N 201.022 0.148545 -1.56898 0
M  V30 2116 C 202.433 0.708766 -1.72723 0
M  V30 2117 C 202.784 1.81734 -0.739395 0
M  V30 2118 O 201.909 2.16194 0.0943169 0
M  V30 2119 C 202.504 1.29245 -3.13179 0
M  V30 2120 C 201.063 1.79925 -3.30611 0
M  V30 2121 C 200.21 0.687111 -2.68652 0
M  V30 2122 H 203.161 -0.0771063 -1.58513 0
M  V30 2123 H 203.182 2.16224 -3.13093 0
M  V30 2124 H 202.694 0.485382 -3.85053 0
M  V30 2125 H 200.795 2.63203 -2.63732 0
M  V30 2126 H 200.908 1.92903 -4.38549 0
M  V30 2127 H 199.272 1.11335 -2.29078 0
M  V30 2128 H 200.055 -0.108483 -3.43129 0
M  V30 2129 N 202.5 1.5196 0.417844 0
M  V30 2130 C 203.43 1.77634 1.51554 0
M  V30 2131 C 204.411 0.626918 1.58126 0
M  V30 2132 O 205.596 0.871632 1.7354 0
M  V30 2133 C 202.726 1.91911 2.8946 0
M  V30 2134 C 201.68 3.07463 2.97743 0
M  V30 2135 C 201.006 3.06951 4.37819 0
M  V30 2136 C 202.306 4.47082 2.70027 0
M  V30 2137 H 204 2.6955 1.3032 0
M  V30 2138 H 201.546 1.29706 0.625492 0
M  V30 2139 H 203.499 2.08455 3.6623 0
M  V30 2140 H 202.223 0.966598 3.11969 0
M  V30 2141 H 200.882 2.90656 2.23416 0
M  V30 2142 H 200.53 2.09438 4.57323 0
M  V30 2143 H 200.23 3.84556 4.44286 0
M  V30 2144 H 201.754 3.25613 5.16535 0
M  V30 2145 H 203.168 4.6414 3.36522 0
M  V30 2146 H 201.565 5.2654 2.87881 0
M  V30 2147 H 202.635 4.55777 1.65514 0
M  V30 2148 N 203.978 -0.674533 1.42435 0
M  V30 2149 C 204.908 -1.80009 1.48724 0
M  V30 2150 C 205.889 -1.6659 0.343793 0
M  V30 2151 O 207.074 -1.86007 0.558137 0
M  V30 2152 C 204.204 -3.18306 1.38919 0
M  V30 2153 C 203.158 -3.46461 2.51294 0
M  V30 2154 C 202.484 -4.84335 2.26547 0
M  V30 2155 C 203.784 -3.43328 3.93603 0
M  V30 2156 H 205.478 -1.75004 2.42928 0
M  V30 2157 H 203.024 -0.840533 1.16923 0
M  V30 2158 H 204.977 -3.9678 1.41927 0
M  V30 2159 H 203.701 -3.2399 0.412094 0
M  V30 2160 H 202.36 -2.70348 2.47604 0
M  V30 2161 H 202.008 -4.86669 1.2713 0
M  V30 2162 H 201.708 -5.04136 3.01861 0
M  V30 2163 H 203.232 -5.65094 2.31304 0
M  V30 2164 H 204.646 -4.11772 3.98894 0
M  V30 2165 H 203.043 -3.74664 4.68771 0
M  V30 2166 H 204.113 -2.41897 4.20255 0
M  V30 2167 N 205.456 -1.28612 -0.910864 0
M  V30 2168 C 206.388 -1.08589 -2.01844 0
M  V30 2169 C 207.401 -0.0367419 -1.62759 0
M  V30 2170 O 208.59 -0.280101 -1.76289 0
M  V30 2171 C 205.69 -0.628626 -3.33019 0
M  V30 2172 C 204.863 -1.75382 -4.00699 0
M  V30 2173 C 203.922 -1.28945 -5.10156 0
M  V30 2174 O 202.948 -1.9922 -5.33198 0
M  V30 2175 N 204.15 -0.154224 -5.80295 0
M  V30 2176 H 206.915 -2.03973 -2.19579 0
M  V30 2177 H 204.476 -1.20403 -1.08234 0
M  V30 2178 H 206.468 -0.301508 -4.03575 0
M  V30 2179 H 205.038 0.232451 -3.11735 0
M  V30 2180 H 204.258 -2.25039 -3.23653 0
M  V30 2181 H 205.546 -2.50854 -4.42662 0
M  V30 2182 H 204.944 0.43194 -5.64049 0
M  V30 2183 H 203.501 0.113599 -6.51701 0
M  V30 2184 N 206.934 1.1197 -1.10907 0
M  V30 2185 C 207.897 2.16031 -0.765707 0
M  V30 2186 C 208.897 1.59393 0.212235 0
M  V30 2187 O 210.087 1.74196 -0.0115441 0
M  V30 2188 C 207.219 3.40632 -0.135053 0
M  V30 2189 H 208.412 2.47919 -1.68748 0
M  V30 2190 H 205.965 1.27061 -0.910226 0
M  V30 2191 H 206.7 3.14348 0.797218 0
M  V30 2192 H 206.485 3.8302 -0.838937 0
M  V30 2193 H 207.975 4.17505 0.0892469 0
M  V30 2194 N 208.412 0.89855 1.29475 0
M  V30 2195 C 209.344 0.332726 2.26772 0
M  V30 2196 C 210.357 -0.520323 1.54261 0
M  V30 2197 O 211.546 -0.337668 1.75277 0
M  V30 2198 C 208.646 -0.544334 3.345 0
M  V30 2199 C 207.819 0.282728 4.36485 0
M  V30 2200 C 206.878 -0.526982 5.23555 0
M  V30 2201 O 205.904 0.0551165 5.69173 0
M  V30 2202 N 207.106 -1.83331 5.5079 0
M  V30 2203 H 209.871 1.16897 2.75962 0
M  V30 2204 H 207.432 0.762919 1.42798 0
M  V30 2205 H 209.424 -1.09239 3.89678 0
M  V30 2206 H 207.994 -1.28127 2.85136 0
M  V30 2207 H 207.214 1.01221 3.80983 0
M  V30 2208 H 208.502 0.84918 5.01664 0
M  V30 2209 H 207.9 -2.32898 5.15534 0
M  V30 2210 H 206.457 -2.32852 6.08788 0
M  V30 2211 N 209.89 -1.43072 0.660911 0
M  V30 2212 C 210.822 -2.29108 -0.0647641 0
M  V30 2213 C 211.835 -1.42928 -0.779448 0
M  V30 2214 O 213.024 -1.66788 -0.635921 0
M  V30 2215 C 210.124 -3.20032 -1.11503 0
M  V30 2216 C 209.297 -4.34792 -0.476955 0
M  V30 2217 C 208.356 -5.06534 -1.42513 0
M  V30 2218 O 207.382 -5.61538 -0.930771 0
M  V30 2219 N 208.584 -5.1075 -2.75889 0
M  V30 2220 H 211.349 -2.92029 0.673731 0
M  V30 2221 H 208.91 -1.53846 0.50427 0
M  V30 2222 H 210.902 -3.64892 -1.75032 0
M  V30 2223 H 209.472 -2.58658 -1.75541 0
M  V30 2224 H 208.692 -3.92752 0.337572 0
M  V30 2225 H 209.98 -5.0879 -0.0318525 0
M  V30 2226 H 209.378 -4.67447 -3.18606 0
M  V30 2227 H 207.935 -5.59302 -3.347 0
M  V30 2228 N 211.368 -0.403325 -1.52352 0
M  V30 2229 C 212.316 0.439752 -2.28405 0
M  V30 2230 C 213.31 1.05089 -1.32863 0
M  V30 2231 O 214.516 0.989759 -1.50345 0
M  V30 2232 H 210.891 0.160587 -0.734653 0
M  V30 2233 H 212.862 -0.222983 -2.97566 0
M  V30 2234 C 211.611 1.54736 -3.11371 0
M  V30 2235 H 210.934 1.08643 -3.84755 0
M  V30 2236 H 212.374 2.1112 -3.67701 0
M  V30 2237 C 210.833 2.51141 -2.24566 0
M  V30 2238 O 211.363 3.54887 -1.88196 0
M  V30 2239 N 209.569 2.21213 -1.8845 0
M  V30 2240 H 209.116 1.36878 -2.18225 0
M  V30 2241 H 209.074 2.85963 -1.30662 0
M  V30 2242 N 212.846 1.57033 -0.133567 0
M  V30 2243 C 214.095 1.94861 0.520768 0
M  V30 2244 C 214.408 1.02012 1.66892 0
M  V30 2245 O 215.614 1.29365 2.38699 0
M  V30 2246 C 214.07 3.46362 0.977809 0
M  V30 2247 C 213.678 4.47773 -0.142674 0
M  V30 2248 C 215.422 3.93083 1.60269 0
M  V30 2249 C 213.329 5.90468 0.331883 0
M  V30 2250 H 212.259 0.727453 0.198315 0
M  V30 2251 H 214.91 1.82227 -0.215759 0
M  V30 2252 H 213.292 3.54282 1.7692 0
M  V30 2253 H 214.466 4.51536 -0.919317 0
M  V30 2254 H 212.781 4.10891 -0.675124 0
M  V30 2255 H 215.378 4.97121 1.96914 0
M  V30 2256 H 215.721 3.33876 2.48662 0
M  V30 2257 H 216.254 3.88025 0.876453 0
M  V30 2258 H 212.993 6.53463 -0.516341 0
M  V30 2259 H 212.513 5.90094 1.07469 0
M  V30 2260 H 214.192 6.42179 0.788332 0
M  V30 2261 N 214.325 -0.140222 1.56975 0
M  V30 2262 C 215.571 -0.852949 1.83991 0
M  V30 2263 C 215.904 -1.80512 0.716187 0
M  V30 2264 O 215.179 -1.92479 -0.279681 0
M  V30 2265 C 215.462 -1.6215 3.21527 0
M  V30 2266 C 215.315 -0.690363 4.4447 0
M  V30 2267 C 216.634 -2.58247 3.56366 0
M  V30 2268 H 213.753 -0.308634 0.669264 0
M  V30 2269 H 216.395 -0.117898 1.89634 0
M  V30 2270 H 214.545 -2.24812 3.16847 0
M  V30 2271 H 216.217 -0.0742264 4.6124 0
M  V30 2272 H 214.46 -0.000396433 4.338 0
M  V30 2273 H 215.131 -1.2643 5.37326 0
M  V30 2274 H 217.607 -2.05701 3.61699 0
M  V30 2275 H 216.483 -3.09067 4.53617 0
M  V30 2276 H 216.744 -3.39923 2.82674 0
M  V30 2277 N 215.803 -1.52179 -0.40978 0
M  V30 2278 C 216.733 -1.78435 -1.5061 0
M  V30 2279 C 217.714 -0.635295 -1.57791 0
M  V30 2280 O 218.899 -0.880823 -1.73076 0
M  V30 2281 C 216.029 -1.93444 -2.88439 0
M  V30 2282 C 214.983 -3.09038 -2.96108 0
M  V30 2283 C 214.309 -3.09268 -4.36185 0
M  V30 2284 C 215.609 -4.48508 -2.67652 0
M  V30 2285 H 217.303 -2.70237 -1.28889 0
M  V30 2286 H 214.849 -1.30036 -0.618605 0
M  V30 2287 H 216.802 -2.10394 -3.65119 0
M  V30 2288 H 215.526 -0.983129 -3.11452 0
M  V30 2289 H 214.185 -2.91837 -2.21872 0
M  V30 2290 H 213.833 -2.11861 -4.56206 0
M  V30 2291 H 213.533 -3.86907 -4.42241 0
M  V30 2292 H 215.057 -3.28348 -5.14801 0
M  V30 2293 H 216.471 -4.65918 -3.34056 0
M  V30 2294 H 214.868 -5.28059 -2.85085 0
M  V30 2295 H 215.938 -4.56649 -1.63095 0
M  V30 2296 N 217.281 0.66697 -1.42791 0
M  V30 2297 C 218.244 1.76211 -1.46568 0
M  V30 2298 C 219.244 1.56896 -0.352196 0
M  V30 2299 O 220.434 1.63044 -0.613364 0
M  V30 2300 C 217.566 3.14935 -1.30494 0
M  V30 2301 H 218.759 1.74247 -2.44086 0
M  V30 2302 H 216.312 0.877342 -1.29354 0
M  V30 2303 H 217.047 3.2252 -0.339301 0
M  V30 2304 H 216.832 3.30359 -2.11199 0
M  V30 2305 H 218.322 3.94821 -1.36038 0
M  V30 2306 N 218.759 1.29093 0.90403 0
M  V30 2307 C 219.707 1.13727 2.02901 0
M  V30 2308 C 220.701 0.0539853 1.69314 0
M  V30 2309 O 221.907 0.213469 1.7873 0
M  V30 2310 H 218.282 0.35117 0.664969 0
M  V30 2311 H 220.253 2.08982 2.13001 0
M  V30 2312 C 219.002 0.826066 3.37745 0
M  V30 2313 H 218.325 1.65164 3.64089 0
M  V30 2314 H 219.765 0.758559 4.17159 0
M  V30 2315 C 218.224 -0.470541 3.33598 0
M  V30 2316 O 218.754 -1.49792 3.72727 0
M  V30 2317 N 216.96 -0.474812 2.86695 0
M  V30 2318 H 216.507 0.361692 2.55048 0
M  V30 2319 H 216.465 -1.34236 2.84303 0
M  V30 2320 N 220.237 -1.11381 1.11499 0
M  V30 2321 C 221.653 -1.35143 0.849031 0
M  V30 2322 C 221.853 -1.94515 -0.525938 0
M  V30 2323 O 220.909 -2.1785 -1.27662 0
M  V30 2324 C 222.222 -2.28249 1.95762 0
M  V30 2325 C 223.77 -2.41812 1.98736 0
M  V30 2326 C 224.245 -3.3824 3.088 0
M  V30 2327 N 225.736 -3.45803 3.08179 0
M  V30 2328 C 226.471 -4.20358 3.89982 0
M  V30 2329 N 225.967 -4.97884 4.8175 0
M  V30 2330 N 227.76 -4.15877 3.78157 0
M  V30 2331 H 219.911 -0.712062 2.00109 0
M  V30 2332 H 222.174 -0.376025 0.870235 0
M  V30 2333 H 221.88 -1.91817 2.94787 0
M  V30 2334 H 221.754 -3.28473 1.85433 0
M  V30 2335 H 224.141 -2.77518 1.00338 0
M  V30 2336 H 224.222 -1.41437 2.13141 0
M  V30 2337 H 223.866 -3.03261 4.07425 0
M  V30 2338 H 223.796 -4.38471 2.91635 0
M  V30 2339 H 226.287 -2.90506 2.41691 0
M  V30 2340 H 226.6 -5.52142 5.40702 0
M  V30 2341 H 224.945 -4.97043 4.85771 0
M  V30 2342 H 228.136 -3.544 3.05808 0
M  V30 2343 H 228.309 -4.73723 4.42143 0
M  V30 2344 N 221.715 -0.905404 -1.28997 0
M  V30 2345 C 222.943 -0.549846 -1.9946 0
M  V30 2346 C 223.358 0.866834 -1.67724 0
M  V30 2347 O 222.715 1.57298 -0.925404 0
M  V30 2348 C 222.766 -0.739387 -3.53858 0
M  V30 2349 O 222.487 -2.10031 -3.84472 0
M  V30 2350 C 223.988 -0.389541 -4.41585 0
M  V30 2351 H 221.208 -0.210429 -0.637151 0
M  V30 2352 H 223.752 -1.21632 -1.64396 0
M  V30 2353 H 221.907 -0.120023 -3.87214 0
M  V30 2354 H 222.321 -2.13385 -4.79132 0
M  V30 2355 H 223.795 -0.572972 -5.49018 0
M  V30 2356 H 224.272 0.673756 -4.34001 0
M  V30 2357 H 224.878 -0.986089 -4.1371 0
M  V30 2358 N 223.193 1.4272 -0.668489 0
M  V30 2359 C 224.44 2.01624 -0.18814 0
M  V30 2360 C 224.768 1.5282 1.20317 0
M  V30 2361 O 224.023 0.718323 1.8204 0
M  V30 2362 C 224.322 3.57021 -0.164499 0
M  V30 2363 C 223.988 4.25232 -1.49962 0
M  V30 2364 C 222.65 4.4358 -1.8652 0
M  V30 2365 C 225.002 4.63727 -2.37921 0
M  V30 2366 C 222.33 4.97694 -3.10674 0
M  V30 2367 C 224.682 5.19218 -3.6138 0
M  V30 2368 C 223.346 5.3578 -3.98115 0
M  V30 2369 H 222.616 0.737795 -0.0688454 0
M  V30 2370 H 225.263 1.70991 -0.862225 0
M  V30 2371 H 223.568 3.87285 0.593079 0
M  V30 2372 H 225.265 4.00372 0.224271 0
M  V30 2373 H 221.855 4.11306 -1.20522 0
M  V30 2374 H 226.039 4.4923 -2.10964 0
M  V30 2375 H 221.295 5.08702 -3.39164 0
M  V30 2376 H 225.469 5.4799 -4.29743 0
M  V30 2377 H 223.096 5.77475 -4.94395 0
M  V30 2378 N 224.671 0.411399 1.52136 0
M  V30 2379 C 225.896 -0.165538 2.06738 0
M  V30 2380 C 226.321 -1.379 1.27926 0
M  V30 2381 O 225.679 -1.78628 0.310114 0
M  V30 2382 C 225.727 -0.492124 3.57226 0
M  V30 2383 O 224.831 -1.58276 3.80818 0
M  V30 2384 H 224.172 -0.0132132 0.663869 0
M  V30 2385 H 226.702 0.585253 1.96051 0
M  V30 2386 H 226.712 -0.750104 4.01045 0
M  V30 2387 H 225.387 0.394922 4.14021 0
M  V30 2388 H 223.964 -1.31677 3.48877 0
M  V30 2389 N 226.149 -1.5696 0.141893 0
M  V30 2390 C 227.096 -2.16501 -0.799737 0
M  V30 2391 C 228.066 -1.09643 -1.24771 0
M  V30 2392 O 229.251 -1.3766 -1.32115 0
M  V30 2393 C 226.391 -2.78679 -2.03549 0
M  V30 2394 C 225.504 -3.99914 -1.6338 0
M  V30 2395 C 224.639 -4.50106 -2.82096 0
M  V30 2396 C 223.678 -5.63819 -2.38275 0
M  V30 2397 N 222.815 -6.08651 -3.49983 0
M  V30 2398 H 227.655 -2.96632 -0.285179 0
M  V30 2399 H 225.192 -1.46533 -0.129053 0
M  V30 2400 H 227.15 -3.1287 -2.75986 0
M  V30 2401 H 225.78 -2.012 -2.52425 0
M  V30 2402 H 224.832 -3.71735 -0.807279 0
M  V30 2403 H 226.144 -4.82311 -1.27192 0
M  V30 2404 H 225.298 -4.86325 -3.62729 0
M  V30 2405 H 224.037 -3.66706 -3.21525 0
M  V30 2406 H 223.042 -5.2718 -1.56081 0
M  V30 2407 H 224.267 -6.49 -1.99938 0
M  V30 2408 H 222.213 -5.28188 -3.89042 0
M  V30 2409 H 222.13 -6.85961 -3.17794 0
M  V30 2410 H 223.398 -6.49515 -4.30988 0
M  V30 2411 N 227.627 0.131896 -1.57047 0
M  V30 2412 C 228.855 0.856461 -1.88341 0
M  V30 2413 C 229.27 1.74042 -0.731757 0
M  V30 2414 O 228.627 1.80051 0.297945 0
M  V30 2415 C 228.678 1.70064 -3.18999 0
M  V30 2416 O 228.399 0.852278 -4.2973 0
M  V30 2417 C 229.9 2.53148 -3.63911 0
M  V30 2418 H 227.12 0.246885 -0.62393 0
M  V30 2419 H 229.664 0.120152 -2.04147 0
M  V30 2420 H 227.819 2.38984 -3.04902 0
M  V30 2421 H 228.233 1.43329 -5.04537 0
M  V30 2422 H 229.707 3.07931 -4.58129 0
M  V30 2423 H 230.184 3.29901 -2.89935 0
M  V30 2424 H 230.79 1.89492 -3.80753 0
M  V30 2425 N 229.106 1.52395 0.401703 0
M  V30 2426 C 230.053 1.76268 1.48991 0
M  V30 2427 C 231.023 0.605386 1.54675 0
M  V30 2428 O 232.208 0.843742 1.7113 0
M  V30 2429 C 229.348 1.92592 2.86361 0
M  V30 2430 C 228.461 3.20259 2.89928 0
M  V30 2431 C 227.596 3.26972 4.18644 0
M  V30 2432 C 226.635 4.48812 4.16214 0
M  V30 2433 N 225.772 4.52877 5.36514 0
M  V30 2434 H 230.612 2.6914 1.27935 0
M  V30 2435 H 228.149 1.33355 0.620871 0
M  V30 2436 H 230.107 2.0004 3.66115 0
M  V30 2437 H 228.737 1.03093 3.05895 0
M  V30 2438 H 227.789 3.21945 2.02621 0
M  V30 2439 H 229.101 4.10056 2.83999 0
M  V30 2440 H 228.255 3.33533 5.06794 0
M  V30 2441 H 226.994 2.35126 4.27278 0
M  V30 2442 H 225.999 4.4239 3.26453 0
M  V30 2443 H 227.224 5.41961 4.09213 0
M  V30 2444 H 225.17 3.63917 5.45802 0
M  V30 2445 H 225.087 5.36529 5.32609 0
M  V30 2446 H 226.355 4.63676 6.26597 0
M  V30 2447 N 230.584 -0.659388 1.43143 0
M  V30 2448 C 231.494 -1.80167 1.50256 0
M  V30 2449 C 232.51 -1.69571 0.390106 0
M  V30 2450 O 233.686 -1.90849 0.643319 0
M  V30 2451 C 230.751 -3.16409 1.41725 0
M  V30 2452 C 229.812 -3.38848 2.63591 0
M  V30 2453 C 229.045 -4.68591 2.55458 0
M  V30 2454 O 229.268 -5.47532 1.59891 0
M  V30 2455 O 228.202 -4.92614 3.45854 0
M  V30 2456 H 232.028 -1.77121 2.46702 0
M  V30 2457 H 229.613 -0.817092 1.25076 0
M  V30 2458 H 231.495 -3.9768 1.39387 0
M  V30 2459 H 230.17 -3.20059 0.484118 0
M  V30 2460 H 229.077 -2.57366 2.71502 0
M  V30 2461 H 230.41 -3.4004 3.55856 0
M  V30 2462 N 232.062 -1.29571 -0.897171 0
M  V30 2463 C 232.992 -1.17473 -2.01798 0
M  V30 2464 C 233.973 -0.068323 -1.69963 0
M  V30 2465 O 235.158 -0.248239 -1.92607 0
M  V30 2466 C 232.288 -0.853099 -3.36659 0
M  V30 2467 C 231.242 -1.9161 -3.82713 0
M  V30 2468 C 230.568 -1.44773 -5.14728 0
M  V30 2469 C 231.868 -3.32535 -4.02763 0
M  V30 2470 H 233.562 -2.11237 -2.12177 0
M  V30 2471 H 231.108 -1.01699 -1.01948 0
M  V30 2472 H 233.061 -0.755165 -4.14578 0
M  V30 2473 H 231.785 0.120236 -3.26379 0
M  V30 2474 H 230.444 -2.00346 -3.07013 0
M  V30 2475 H 230.092 -0.462995 -5.00865 0
M  V30 2476 H 229.792 -2.15865 -5.46513 0
M  V30 2477 H 231.316 -1.36334 -5.95185 0
M  V30 2478 H 232.73 -3.26626 -4.71156 0
M  V30 2479 H 231.127 -4.01607 -4.45905 0
M  V30 2480 H 232.197 -3.75326 -3.07016 0
M  V30 2481 N 233.54 1.10788 -1.12088 0
M  V30 2482 C 234.503 2.15207 -0.788577 0
M  V30 2483 C 235.503 1.59609 0.195317 0
M  V30 2484 O 236.693 1.74174 -0.0300193 0
M  V30 2485 C 233.825 3.4047 -0.171174 0
M  V30 2486 H 235.018 2.46116 -1.71368 0
M  V30 2487 H 232.571 1.26089 -0.923652 0
M  V30 2488 H 233.306 3.15176 0.763832 0
M  V30 2489 H 233.091 3.82109 -0.879514 0
M  V30 2490 H 234.581 4.17576 0.04496 0
M  V30 2491 N 235.018 0.912232 1.28515 0
M  V30 2492 C 235.928 0.404506 2.31086 0
M  V30 2493 C 236.944 -0.50707 1.66448 0
M  V30 2494 O 238.12 -0.393624 1.97516 0
M  V30 2495 C 235.185 -0.348572 3.44943 0
M  V30 2496 C 234.246 0.59604 4.25142 0
M  V30 2497 C 233.479 -0.121194 5.33562 0
M  V30 2498 O 233.702 -1.34317 5.5436 0
M  V30 2499 O 232.636 0.542716 5.99448 0
M  V30 2500 H 236.462 1.25579 2.76521 0
M  V30 2501 H 234.047 0.676998 1.33181 0
M  V30 2502 H 235.929 -0.77395 4.14232 0
M  V30 2503 H 234.604 -1.17571 3.01594 0
M  V30 2504 H 233.511 1.07079 3.58448 0
M  V30 2505 H 234.844 1.38995 4.72167 0
M  V30 2506 N 236.496 -1.42363 0.676048 0
M  V30 2507 C 237.912 -1.55811 0.345718 0
M  V30 2508 C 238.112 -1.65544 -1.14879 0
M  V30 2509 O 237.168 -1.62306 -1.93424 0
M  V30 2510 C 238.481 -2.80746 1.07713 0
M  V30 2511 C 240.029 -2.9452 1.05958 0
M  V30 2512 C 240.504 -4.22318 1.77233 0
M  V30 2513 N 241.995 -4.29233 1.74108 0
M  V30 2514 C 242.73 -5.26935 2.26113 0
M  V30 2515 N 242.226 -6.30783 2.86505 0
M  V30 2516 N 244.019 -5.18741 2.1648 0
M  V30 2517 H 236.17 -1.34289 1.6456 0
M  V30 2518 H 238.433 -0.646506 0.69335 0
M  V30 2519 H 238.139 -2.79696 2.13221 0
M  V30 2520 H 238.013 -3.71676 0.64316 0
M  V30 2521 H 240.4 -2.95097 0.0128255 0
M  V30 2522 H 240.481 -2.04817 1.53244 0
M  V30 2523 H 240.125 -4.22502 2.81877 0
M  V30 2524 H 240.055 -5.10958 1.27396 0
M  V30 2525 H 242.546 -3.54814 1.30059 0
M  V30 2526 H 242.859 -7.01691 3.23805 0
M  V30 2527 H 241.204 -6.31341 2.90575 0
M  V30 2528 H 244.395 -4.36533 1.68987 0
M  V30 2529 H 244.568 -5.94721 2.57316 0
M  V30 2530 N 237.974 -0.419461 -1.51915 0
M  V30 2531 C 239.221 0.152939 -2.01922 0
M  V30 2532 C 239.549 1.4426 -1.30458 0
M  V30 2533 O 238.804 1.91514 -0.402593 0
M  V30 2534 C 239.103 0.437067 -3.54717 0
M  V30 2535 C 238.769 -0.764632 -4.44369 0
M  V30 2536 C 237.431 -1.09423 -4.68594 0
M  V30 2537 C 239.783 -1.56713 -4.97082 0
M  V30 2538 C 237.111 -2.22732 -5.42777 0
M  V30 2539 C 239.463 -2.69107 -5.72507 0
M  V30 2540 C 238.127 -3.02541 -5.95 0
M  V30 2541 H 237.397 0.0559644 -0.738884 0
M  V30 2542 H 240.044 -0.562998 -1.83037 0
M  V30 2543 H 238.349 1.23469 -3.71837 0
M  V30 2544 H 240.046 0.893083 -3.90928 0
M  V30 2545 H 236.636 -0.497775 -4.257 0
M  V30 2546 H 240.82 -1.32571 -4.78266 0
M  V30 2547 H 236.076 -2.48971 -5.58411 0
M  V30 2548 H 240.25 -3.31671 -6.12346 0
M  V30 2549 H 237.877 -3.90457 -6.52264 0
M  V30 2550 N 239.452 1.56882 -0.150215 0
M  V30 2551 C 240.384 2.14057 0.819286 0
M  V30 2552 C 241.397 1.09082 1.20851 0
M  V30 2553 O 242.586 1.36347 1.15203 0
M  V30 2554 C 239.686 2.65102 2.11127 0
M  V30 2555 C 238.859 3.94511 1.88891 0
M  V30 2556 C 237.918 4.30834 3.02107 0
M  V30 2557 O 236.944 4.99099 2.73659 0
M  V30 2558 N 238.146 3.90676 4.29363 0
M  V30 2559 H 240.911 2.97871 0.330618 0
M  V30 2560 H 238.472 1.61866 0.0332538 0
M  V30 2561 H 240.464 2.86411 2.85921 0
M  V30 2562 H 239.034 1.85994 2.51247 0
M  V30 2563 H 238.254 3.81795 0.981152 0
M  V30 2564 H 239.542 4.7907 1.71376 0
M  V30 2565 H 238.94 3.35677 4.55343 0
M  V30 2566 H 237.497 4.1703 5.00928 0
M  V30 2567 N 240.93 -0.123565 1.57115 0
M  V30 2568 C 242.341 -0.681198 1.73829 0
M  V30 2569 C 242.692 -1.80535 0.768214 0
M  V30 2570 O 241.817 -2.16317 -0.0599103 0
M  V30 2571 C 242.412 -1.24246 3.15196 0
M  V30 2572 C 240.971 -1.74643 3.33432 0
M  V30 2573 C 240.118 -0.644284 2.69711 0
M  V30 2574 H 243.069 0.102315 1.5837 0
M  V30 2575 H 243.09 -2.11216 3.16493 0
M  V30 2576 H 242.602 -0.424062 3.85776 0
M  V30 2577 H 240.703 -2.58974 2.67886 0
M  V30 2578 H 240.816 -1.85902 4.41562 0
M  V30 2579 H 239.18 -1.07676 2.3082 0
M  V30 2580 H 239.963 0.163058 3.42913 0
M  V30 2581 N 242.408 -1.52605 -0.393616 0
M  V30 2582 C 243.638 -1.71046 -1.15874 0
M  V30 2583 C 244.046 -0.426483 -1.84331 0
M  V30 2584 O 243.389 0.608513 -1.73329 0
M  V30 2585 C 243.451 -2.80118 -2.25332 0
M  V30 2586 C 243.115 -4.21381 -1.76881 0
M  V30 2587 C 244.112 -5.04697 -1.24808 0
M  V30 2588 C 241.797 -4.67683 -1.83244 0
M  V30 2589 C 243.791 -6.32393 -0.797387 0
M  V30 2590 C 241.478 -5.95364 -1.37787 0
M  V30 2591 C 242.476 -6.77549 -0.861208 0
M  V30 2592 O 242.164 -8.02837 -0.413252 0
M  V30 2593 H 241.896 -0.576155 -0.353583 0
M  V30 2594 H 244.45 -2.00018 -0.467123 0
M  V30 2595 H 242.68 -2.46557 -2.97904 0
M  V30 2596 H 244.369 -2.87006 -2.87023 0
M  V30 2597 H 245.135 -4.70111 -1.19252 0
M  V30 2598 H 241.014 -4.03805 -2.22401 0
M  V30 2599 H 244.558 -6.9649 -0.393437 0
M  V30 2600 H 240.455 -6.29455 -1.43026 0
M  V30 2601 H 241.223 -8.16749 -0.53515 0
M  V30 2602 N 243.887 0.651787 -1.4349 0
M  V30 2603 C 245.135 1.40888 -1.44897 0
M  V30 2604 C 245.456 1.94856 -0.0749086 0
M  V30 2605 O 244.726 1.74518 0.889956 0
M  V30 2606 H 243.306 0.522887 -0.533478 0
M  V30 2607 H 245.968 0.768609 -1.79104 0
M  V30 2608 H 245.064 2.25052 -2.16236 0
M  V30 2609 N 245.365 1.30045 0.890287 0
M  V30 2610 C 246.313 1.15873 2.01683 0
M  V30 2611 C 247.307 0.0719403 1.69247 0
M  V30 2612 O 248.513 0.232414 1.78493 0
M  V30 2613 H 244.888 0.358203 0.661207 0
M  V30 2614 H 246.859 2.11229 2.10772 0
M  V30 2615 C 245.608 0.861842 3.36849 0
M  V30 2616 H 244.931 1.69016 3.62317 0
M  V30 2617 H 246.371 0.802762 4.16331 0
M  V30 2618 C 244.83 -0.435132 3.34078 0
M  V30 2619 O 245.36 -1.4583 3.74295 0
M  V30 2620 N 243.566 -0.444377 2.87182 0
M  V30 2621 H 243.113 0.388723 2.5465 0
M  V30 2622 H 243.071 -1.31213 2.85711 0
M  V30 2623 N 246.843 -1.10192 1.12674 0
M  V30 2624 C 248.092 -1.81573 0.8783 0
M  V30 2625 C 248.405 -1.86249 -0.597557 0
M  V30 2626 O 249.611 -2.5386 -0.962681 0
M  V30 2627 C 248.067 -3.26149 1.52167 0
M  V30 2628 C 247.675 -3.29763 3.03249 0
M  V30 2629 C 249.419 -4.0234 1.3536 0
M  V30 2630 C 247.326 -4.68815 3.60508 0
M  V30 2631 H 246.256 -0.680394 0.324931 0
M  V30 2632 H 248.907 -1.23902 1.35353 0
M  V30 2633 H 247.289 -3.83832 0.974104 0
M  V30 2634 H 248.463 -2.8189 3.6452 0
M  V30 2635 H 246.778 -2.67059 3.19481 0
M  V30 2636 H 249.375 -5.05058 1.75559 0
M  V30 2637 H 249.718 -4.15235 0.297554 0
M  V30 2638 H 250.251 -3.51079 1.87052 0
M  V30 2639 H 246.99 -4.61121 4.65884 0
M  V30 2640 H 246.51 -5.17045 3.04014 0
M  V30 2641 H 248.189 -5.37785 3.59717 0
M  V30 2642 N 248.321 -0.919034 -1.28029 0
M  V30 2643 C 249.253 -0.368762 -2.26214 0
M  V30 2644 C 250.266 0.495716 -1.55069 0
M  V30 2645 O 251.455 0.30974 -1.75792 0
M  V30 2646 C 248.555 0.491049 -3.35324 0
M  V30 2647 C 247.728 -0.352133 -4.3598 0
M  V30 2648 C 246.787 0.443622 -5.24327 0
M  V30 2649 O 245.813 -0.14566 -5.69014 0
M  V30 2650 N 247.015 1.74545 -5.53637 0
M  V30 2651 H 249.78 -1.21273 -2.74068 0
M  V30 2652 H 247.341 -0.785541 -1.41566 0
M  V30 2653 H 249.333 1.03026 -3.91366 0
M  V30 2654 H 247.903 1.23574 -2.87138 0
M  V30 2655 H 247.123 -1.07269 -3.79324 0
M  V30 2656 H 248.411 -0.928883 -5.00249 0
M  V30 2657 H 247.809 2.24666 -5.19174 0
M  V30 2658 H 246.366 2.23138 -6.12416 0
M  V30 2659 N 249.799 1.42003 -0.683588 0
M  V30 2660 C 250.762 2.29191 -0.0198243 0
M  V30 2661 C 251.762 1.43773 0.72013 0
M  V30 2662 O 252.952 1.65061 0.556815 0
M  V30 2663 C 250.084 3.26435 0.982487 0
M  V30 2664 H 251.277 2.8938 -0.787345 0
M  V30 2665 H 248.83 1.49789 -0.446418 0
M  V30 2666 H 249.565 2.71203 1.77819 0
M  V30 2667 H 249.35 3.89449 0.455182 0
M  V30 2668 H 250.84 3.918 1.44508 0
M  V30 2669 N 251.277 0.427512 1.51691 0
M  V30 2670 C 252.523 -0.142439 2.02299 0
M  V30 2671 C 252.856 -1.43214 1.31162 0
M  V30 2672 O 252.131 -1.89833 0.423511 0
M  V30 2673 C 252.414 -0.371301 3.58181 0
M  V30 2674 C 252.267 0.936358 4.39946 0
M  V30 2675 C 253.586 -1.14542 4.24933 0
M  V30 2676 H 250.705 -0.0502937 0.735282 0
M  V30 2677 H 253.347 0.564584 1.81418 0
M  V30 2678 H 251.497 -0.973559 3.76104 0
M  V30 2679 H 253.169 1.57184 4.33694 0
M  V30 2680 H 251.412 1.5432 4.05423 0
M  V30 2681 H 252.083 0.730388 5.47147 0
M  V30 2682 H 254.559 -0.635362 4.11221 0
M  V30 2683 H 253.435 -1.27431 5.33903 0
M  V30 2684 H 253.696 -2.17093 3.85127 0
M  V30 2685 N 252.755 -1.56801 0.158532 0
M  V30 2686 C 253.98 -2.01295 -0.499516 0
M  V30 2687 C 254.405 -1.03799 -1.56867 0
M  V30 2688 O 253.763 -0.0155162 -1.81293 0
M  V30 2689 C 253.811 -3.44469 -1.06647 0
M  V30 2690 O 252.915 -3.50012 -2.18095 0
M  V30 2691 H 252.256 -0.652884 -0.12099 0
M  V30 2692 H 254.786 -2.02958 0.258661 0
M  V30 2693 H 254.796 -3.8351 -1.39227 0
M  V30 2694 H 253.471 -4.14932 -0.283581 0
M  V30 2695 H 252.048 -3.22822 -1.86656 0
M  V30 2696 N 254.233 0.115231 -1.57178 0
M  V30 2697 C 255.166 1.17166 -1.95825 0
M  V30 2698 C 256.144 1.39912 -0.828463 0
M  V30 2699 O 257.328 1.54004 -1.08697 0
M  V30 2700 C 254.455 2.52478 -2.25771 0
M  V30 2701 C 253.501 2.46136 -3.48309 0
M  V30 2702 S 254.334 1.89736 -5.0076 0
M  V30 2703 C 255.49 3.26713 -5.33863 0
M  V30 2704 H 255.723 0.842103 -2.85124 0
M  V30 2705 H 253.256 0.322136 -1.51002 0
M  V30 2706 H 255.214 3.30332 -2.43702 0
M  V30 2707 H 253.875 2.82609 -1.37079 0
M  V30 2708 H 253.068 3.45819 -3.66641 0
M  V30 2709 H 252.67 1.76404 -3.29784 0
M  V30 2710 H 254.962 4.22935 -5.29275 0
M  V30 2711 H 255.905 3.13205 -6.35065 0
M  V30 2712 H 256.313 3.25316 -4.61335 0
M  V30 2713 N 255.711 1.52812 0.385517 0
M  V30 2714 C 256.988 1.5861 1.14465 0
M  V30 2715 C 257.368 0.381402 2.07626 0
M  V30 2716 O 256.716 -0.629999 2.19643 0
M  V30 2717 C 256.926 2.92664 1.90128 0
M  V30 2718 C 258.274 3.46526 2.45367 0
M  V30 2719 O 259.298 2.94562 2.0028 0
M  V30 2720 O 258.157 4.37323 3.27736 0
M  V30 2721 H 255.251 0.639855 0.523941 0
M  V30 2722 H 257.797 1.65149 0.390389 0
M  V30 2723 H 256.569 3.71788 1.22022 0
M  V30 2724 H 256.192 2.89527 2.72507 0
M  V30 2725 N 257.189 -0.644168 1.43834 0
M  V30 2726 C 258.414 -1.43642 1.49605 0
M  V30 2727 C 258.839 -1.8773 0.117913 0
M  V30 2728 O 258.197 -1.57938 -0.890239 0
M  V30 2729 C 258.245 -2.6416 2.45463 0
M  V30 2730 O 257.349 -3.63538 1.94714 0
M  V30 2731 H 256.69 -0.430329 0.50568 0
M  V30 2732 H 259.22 -0.787448 1.8884 0
M  V30 2733 H 259.23 -3.11864 2.63068 0
M  V30 2734 H 257.905 -2.31414 3.45572 0
M  V30 2735 H 256.482 -3.2273 1.86814 0
M  V30 2736 N 258.668 -1.30515 -0.883378 0
M  V30 2737 C 259.917 -1.18795 -1.63005 0
M  V30 2738 C 260.23 0.255923 -1.93919 0
M  V30 2739 O 261.436 0.494654 -2.66956 0
M  V30 2740 C 259.892 -2.07878 -2.93794 0
M  V30 2741 C 259.5 -3.57184 -2.70414 0
M  V30 2742 C 261.244 -2.04924 -3.71761 0
M  V30 2743 C 259.151 -4.38317 -3.97029 0
M  V30 2744 H 258.081 -0.441031 -0.611562 0
M  V30 2745 H 260.732 -1.55275 -0.977854 0
M  V30 2746 H 259.114 -1.64283 -3.60315 0
M  V30 2747 H 260.288 -4.08937 -2.12384 0
M  V30 2748 H 258.603 -3.61976 -2.0582 0
M  V30 2749 H 261.2 -2.62792 -4.65665 0
M  V30 2750 H 261.543 -1.0331 -4.03277 0
M  V30 2751 H 262.076 -2.46649 -3.12104 0
M  V30 2752 H 258.815 -5.40632 -3.70671 0
M  V30 2753 H 258.335 -3.91326 -4.54559 0
M  V30 2754 H 260.014 -4.49834 -4.65036 0
M  V30 2755 N 260.146 1.09593 -1.13257 0
M  V30 2756 C 261.557 1.63229 -0.906274 0
M  V30 2757 C 261.908 1.8811 0.557578 0
M  V30 2758 O 261.033 1.62953 1.42391 0
M  V30 2759 C 261.628 2.96535 -1.63867 0
M  V30 2760 C 260.187 3.47003 -1.45828 0
M  V30 2761 C 259.334 2.2145 -1.66898 0
M  V30 2762 H 262.285 0.92978 -1.28611 0
M  V30 2763 H 262.306 3.64411 -1.09476 0
M  V30 2764 H 261.818 2.78394 -2.70404 0
M  V30 2765 H 259.919 3.70272 -0.415848 0
M  V30 2766 H 260.032 4.24551 -2.2202 0
M  V30 2767 H 258.396 2.30022 -1.09371 0
M  V30 2768 H 259.179 2.0583 -2.74752 0
M  V30 2769 N 261.624 0.925811 1.2754 0
M  V30 2770 C 262.554 0.440748 2.29303 0
M  V30 2771 C 263.535 -0.497971 1.62648 0
M  V30 2772 O 264.72 -0.403126 1.8997 0
M  V30 2773 C 261.85 -0.309048 3.45922 0
M  V30 2774 C 260.804 0.54166 4.24559 0
M  V30 2775 C 260.13 -0.337191 5.33636 0
M  V30 2776 C 261.43 1.80516 4.90114 0
M  V30 2777 H 263.124 1.29121 2.70126 0
M  V30 2778 H 260.67 0.622323 1.29858 0
M  V30 2779 H 262.623 -0.659315 4.1621 0
M  V30 2780 H 261.347 -1.19352 3.04011 0
M  V30 2781 H 260.006 0.874609 3.56014 0
M  V30 2782 H 259.654 -1.22056 4.87966 0
M  V30 2783 H 259.354 0.228497 5.87156 0
M  V30 2784 H 260.878 -0.683072 6.06767 0
M  V30 2785 H 262.292 1.52307 5.52698 0
M  V30 2786 H 260.689 2.3142 5.53683 0
M  V30 2787 H 261.759 2.52581 4.13921 0
M  V30 2788 N 263.102 -1.41638 0.69111 0
M  V30 2789 C 264.034 -2.29194 -0.0161523 0
M  V30 2790 C 265.047 -1.44549 -0.748955 0
M  V30 2791 O 266.236 -1.681 -0.6004 0
M  V30 2792 C 263.336 -3.22325 -1.0469 0
M  V30 2793 C 262.509 -4.35706 -0.384621 0
M  V30 2794 C 261.568 -5.09443 -1.31737 0
M  V30 2795 O 260.594 -5.63386 -0.811451 0
M  V30 2796 N 261.796 -5.16487 -2.64993 0
M  V30 2797 H 264.561 -2.90534 0.735523 0
M  V30 2798 H 262.122 -1.52742 0.53679 0
M  V30 2799 H 264.114 -3.68522 -1.67252 0
M  V30 2800 H 262.684 -2.62323 -1.70015 0
M  V30 2801 H 261.904 -3.91948 0.420804 0
M  V30 2802 H 263.192 -5.08743 0.0760765 0
M  V30 2803 H 262.59 -4.741 -3.08619 0
M  V30 2804 H 261.147 -5.66276 -3.22761 0
M  V30 2805 N 264.58 -0.43555 -1.51462 0
M  V30 2806 C 265.808 0.130242 -2.0649 0
M  V30 2807 C 266.223 1.36614 -1.30315 0
M  V30 2808 O 265.58 1.78869 -0.362223 0
M  V30 2809 C 265.631 0.454253 -3.58635 0
M  V30 2810 O 265.352 -0.73259 -4.31931 0
M  V30 2811 C 266.853 1.07091 -4.3017 0
M  V30 2812 H 264.073 0.00871669 -0.670943 0
M  V30 2813 H 266.617 -0.614117 -1.95061 0
M  V30 2814 H 264.772 1.14851 -3.69984 0
M  V30 2815 H 265.186 -0.455787 -5.22516 0
M  V30 2816 H 266.66 1.24764 -5.37716 0
M  V30 2817 H 267.137 2.05144 -3.88346 0
M  V30 2818 H 267.743 0.416089 -4.2326 0
M  V30 2819 N 266.058 1.56714 -0.166846 0
M  V30 2820 C 267.288 2.00828 0.48494 0
M  V30 2821 C 267.696 1.04612 1.57648 0
M  V30 2822 O 267.039 0.0383201 1.8366 0
M  V30 2823 C 267.101 3.4137 1.12723 0
M  V30 2824 C 266.765 4.56654 0.177886 0
M  V30 2825 C 267.762 5.16402 -0.60207 0
M  V30 2826 C 265.447 5.02244 0.0750139 0
M  V30 2827 C 267.441 6.20167 -1.47215 0
M  V30 2828 C 265.128 6.05859 -0.798649 0
M  V30 2829 C 266.126 6.64691 -1.57082 0
M  V30 2830 O 265.814 7.66297 -2.42989 0
M  V30 2831 H 265.546 0.663587 0.128953 0
M  V30 2832 H 268.1 2.03692 -0.264365 0
M  V30 2833 H 266.33 3.35406 1.92457 0
M  V30 2834 H 268.019 3.69466 1.68076 0
M  V30 2835 H 268.785 4.82065 -0.53274 0
M  V30 2836 H 264.664 4.56167 0.665812 0
M  V30 2837 H 268.208 6.66016 -2.07531 0
M  V30 2838 H 264.105 6.39621 -0.869199 0
M  V30 2839 H 264.873 7.83601 -2.36455 0
M  V30 2840 N 267.536 -0.106894 1.57237 0
M  V30 2841 C 268.813 -0.843526 1.76477 0
M  V30 2842 C 269.193 -1.97499 0.745464 0
M  V30 2843 O 268.541 -2.27357 -0.228306 0
M  V30 2844 C 268.751 -1.34903 3.21873 0
M  V30 2845 C 270.099 -1.79654 3.8472 0
M  V30 2846 O 271.123 -1.44554 3.2555 0
M  V30 2847 O 269.982 -2.44515 4.88748 0
M  V30 2848 H 267.076 -0.401468 0.723016 0
M  V30 2849 H 269.622 -0.0896927 1.69463 0
M  V30 2850 H 268.394 -0.53781 3.87586 0
M  V30 2851 H 268.017 -2.16522 3.33473 0
M  V30 2852 N 269.014 -1.53014 -0.377408 0
M  V30 2853 C 269.944 -1.81589 -1.46791 0
M  V30 2854 C 270.925 -0.668622 -1.56408 0
M  V30 2855 O 272.11 -0.917337 -1.71168 0
M  V30 2856 C 269.24 -1.99519 -2.8427 0
M  V30 2857 C 268.194 -3.15249 -2.89486 0
M  V30 2858 C 267.52 -3.18451 -4.29527 0
M  V30 2859 C 268.82 -4.54084 -2.58079 0
M  V30 2860 H 270.514 -2.7291 -1.23127 0
M  V30 2861 H 268.06 -1.31319 -0.590883 0
M  V30 2862 H 270.013 -2.18092 -3.60575 0
M  V30 2863 H 268.737 -1.04897 -3.09296 0
M  V30 2864 H 267.396 -2.96477 -2.15631 0
M  V30 2865 H 267.044 -2.2149 -4.5161 0
M  V30 2866 H 266.744 -3.962 -4.33934 0
M  V30 2867 H 268.268 -3.39193 -5.07721 0
M  V30 2868 H 269.682 -4.72899 -3.24098 0
M  V30 2869 H 268.079 -5.33987 -2.7382 0
M  V30 2870 H 269.149 -4.60006 -1.53372 0
M  V30 2871 N 270.492 0.636531 -1.44174 0
M  V30 2872 C 271.738 1.39826 -1.4689 0
M  V30 2873 C 272.071 1.93947 -0.0990585 0
M  V30 2874 O 271.346 1.73325 0.882544 0
M  V30 2875 C 271.629 2.56751 -2.5249 0
M  V30 2876 C 271.482 2.08014 -3.98811 0
M  V30 2877 C 272.801 3.58946 -2.54649 0
M  V30 2878 H 269.92 0.507075 -0.53483 0
M  V30 2879 H 272.562 0.720188 -1.75822 0
M  V30 2880 H 270.712 3.14597 -2.2795 0
M  V30 2881 H 272.384 1.5504 -4.34466 0
M  V30 2882 H 270.627 1.39242 -4.10846 0
M  V30 2883 H 271.298 2.92169 -4.68339 0
M  V30 2884 H 273.774 3.1089 -2.76563 0
M  V30 2885 H 272.65 4.38286 -3.3045 0
M  V30 2886 H 272.911 4.12655 -1.58646 0
M  V30 2887 N 271.97 1.30982 0.876444 0
M  V30 2888 C 273.219 1.19658 1.62373 0
M  V30 2889 C 273.532 -0.245636 1.94052 0
M  V30 2890 O 274.738 -0.48049 2.67214 0
M  V30 2891 C 273.194 2.09433 2.92687 0
M  V30 2892 C 272.802 3.58613 2.68516 0
M  V30 2893 C 274.546 2.06893 3.70669 0
M  V30 2894 C 272.453 4.40416 3.94699 0
M  V30 2895 H 271.383 0.444268 0.609214 0
M  V30 2896 H 274.034 1.55791 0.969605 0
M  V30 2897 H 272.416 1.66191 3.59439 0
M  V30 2898 H 273.59 4.10058 2.10212 0
M  V30 2899 H 271.905 3.63063 2.03898 0
M  V30 2900 H 274.502 2.65258 4.64265 0
M  V30 2901 H 274.845 1.05448 4.02724 0
M  V30 2902 H 275.378 2.48301 3.10792 0
M  V30 2903 H 272.117 5.42591 3.67798 0
M  V30 2904 H 271.637 3.93731 4.52477 0
M  V30 2905 H 273.316 4.52294 4.62644 0
M  V30 2906 N 273.449 -1.08991 1.13837 0
M  V30 2907 C 274.397 -2.17841 0.815347 0
M  V30 2908 C 275.391 -1.68164 -0.204233 0
M  V30 2909 O 276.597 -1.79897 -0.0609304 0
M  V30 2910 H 272.972 -0.710654 0.245915 0
M  V30 2911 H 274.943 -2.42315 1.74143 0
M  V30 2912 C 273.692 -3.46381 0.302614 0
M  V30 2913 H 273.015 -3.84979 1.0785 0
M  V30 2914 H 274.455 -4.23844 0.115074 0
M  V30 2915 C 272.914 -3.22556 -0.972591 0
M  V30 2916 O 273.444 -3.45599 -2.04754 0
M  V30 2917 N 271.65 -2.76134 -0.905455 0
M  V30 2918 H 271.197 -2.57582 -0.0305421 0
M  V30 2919 H 271.155 -2.60571 -1.75926 0
M  V30 2920 N 274.927 -0.932562 -1.27047 0
M  V30 2921 C 275.89 -0.440064 -2.24936 0
M  V30 2922 C 276.89 0.444071 -1.54547 0
M  V30 2923 O 278.08 0.244465 -1.72476 0
M  V30 2924 C 275.212 0.36678 -3.38921 0
M  V30 2925 H 276.405 -1.305 -2.70018 0
M  V30 2926 H 273.958 -0.713707 -1.39054 0
M  V30 2927 H 274.693 1.25033 -2.99228 0
M  V30 2928 H 274.478 -0.267204 -3.91188 0
M  V30 2929 H 275.968 0.701567 -4.11665 0
M  V30 2930 N 276.405 1.4127 -0.698611 0
M  V30 2931 C 277.633 2.05503 -0.239992 0
M  V30 2932 C 278.048 1.52584 1.11191 0
M  V30 2933 O 277.405 0.675323 1.69545 0
M  V30 2934 C 277.456 3.60987 -0.192429 0
M  V30 2935 O 277.177 4.1195 -1.49094 0
M  V30 2936 C 278.678 4.42371 0.28681 0
M  V30 2937 H 275.898 0.661748 -0.111045 0
M  V30 2938 H 278.442 1.80987 -0.95205 0
M  V30 2939 H 276.597 3.84533 0.470472 0
M  V30 2940 H 277.011 5.06018 -1.38007 0
M  V30 2941 H 278.485 5.51344 0.26896 0
M  V30 2942 H 278.962 4.18699 1.32619 0
M  V30 2943 H 279.568 4.23897 -0.345201 0
M  V30 2944 N 277.883 0.443576 1.51229 0
M  V30 2945 C 279.108 -0.121648 2.07043 0
M  V30 2946 C 279.533 -1.35156 1.30823 0
M  V30 2947 O 278.891 -1.7793 0.347934 0
M  V30 2948 C 278.939 -0.41624 3.5819 0
M  V30 2949 O 278.043 -1.50163 3.8409 0
M  V30 2950 H 277.384 0.000871367 0.663999 0
M  V30 2951 H 279.914 0.626706 1.94765 0
M  V30 2952 H 279.924 -0.664867 4.02546 0
M  V30 2953 H 278.599 0.482653 4.1309 0
M  V30 2954 H 277.176 -1.24248 3.51592 0
M  V30 2955 N 279.361 -1.56624 0.175154 0
M  V30 2956 C 280.324 -2.16934 -0.739738 0
M  V30 2957 C 281.324 -1.11842 -1.15533 0
M  V30 2958 O 282.514 -1.37335 -1.07167 0
M  V30 2959 C 279.646 -2.75531 -2.00738 0
M  V30 2960 H 280.839 -2.99131 -0.214639 0
M  V30 2961 H 278.392 -1.56123 -0.0744197 0
M  V30 2962 H 279.127 -1.97078 -2.57548 0
M  V30 2963 H 278.912 -3.52444 -1.71831 0
M  V30 2964 H 280.402 -3.21904 -2.66021 0
M  V30 2965 N 280.839 0.0985539 -1.57292 0
M  V30 2966 C 282.087 0.801092 -1.85545 0
M  V30 2967 C 282.408 1.79438 -0.763353 0
M  V30 2968 O 281.678 1.94763 0.21073 0
M  V30 2969 H 280.258 0.29884 -0.684619 0
M  V30 2970 H 282.92 0.0810064 -1.94732 0
M  V30 2971 H 282.016 1.3338 -2.82163 0
M  V30 2972 N 282.317 1.53212 0.369288 0
M  V30 2973 C 283.247 1.82365 1.45826 0
M  V30 2974 C 284.228 0.676907 1.56051 0
M  V30 2975 O 285.413 0.926401 1.70679 0
M  V30 2976 C 282.543 2.01023 2.83208 0
M  V30 2977 C 281.497 3.1678 2.8781 0
M  V30 2978 C 280.823 3.20724 4.27832 0
M  V30 2979 C 282.123 4.55447 2.55667 0
M  V30 2980 H 283.817 2.73559 1.21678 0
M  V30 2981 H 281.363 1.3163 0.583911 0
M  V30 2982 H 283.316 2.20001 3.59413 0
M  V30 2983 H 282.04 1.06536 3.08736 0
M  V30 2984 H 280.699 2.97616 2.14056 0
M  V30 2985 H 280.347 2.23882 4.50429 0
M  V30 2986 H 280.047 3.98496 4.31827 0
M  V30 2987 H 281.571 3.41881 5.05915 0
M  V30 2988 H 282.985 4.74611 3.21586 0
M  V30 2989 H 281.382 5.35432 2.70984 0
M  V30 2990 H 282.452 4.60812 1.5093 0
M  V30 2991 N 283.795 -0.628877 1.44509 0
M  V30 2992 C 285.02 -1.42048 1.5112 0
M  V30 2993 C 285.445 -1.87594 0.137818 0
M  V30 2994 O 284.803 -1.58873 -0.873437 0
M  V30 2995 C 284.851 -2.61541 2.48251 0
M  V30 2996 O 283.955 -3.61453 1.98559 0
M  V30 2997 H 283.296 -0.424942 0.510216 0
M  V30 2998 H 285.826 -0.767374 1.89664 0
M  V30 2999 H 285.836 -3.09057 2.66361 0
M  V30 3000 H 284.511 -2.27736 3.48007 0
M  V30 3001 H 283.088 -3.20731 1.90227 0
M  V30 3002 N 285.273 -1.31445 -0.869486 0
M  V30 3003 C 286.521 -1.20918 -1.61936 0
M  V30 3004 C 286.842 0.232683 -1.93607 0
M  V30 3005 O 286.112 1.15352 -1.58338 0
M  V30 3006 H 284.692 -0.44454 -0.600328 0
M  V30 3007 H 287.354 -1.64776 -1.0409 0
M  V30 3008 H 286.45 -1.78124 -2.56278 0
M  V30 3009 N 286.751 1.08385 -1.14413 0
M  V30 3010 C 287.999 1.80419 -0.910679 0
M  V30 3011 C 288.32 1.86658 0.564243 0
M  V30 3012 O 287.59 1.35985 1.41014 0
M  V30 3013 H 286.17 0.668204 -0.333934 0
M  V30 3014 H 288.832 1.31037 -1.44275 0
M  V30 3015 H 287.928 2.83238 -1.31082 0
M  V30 3016 N 288.23 0.939286 1.26551 0
M  V30 3017 C 289.458 0.602536 1.97932 0
M  V30 3018 C 289.873 -0.82206 1.69964 0
M  V30 3019 O 289.23 -1.54789 0.966784 0
M  V30 3020 C 289.281 0.832946 3.51773 0
M  V30 3021 O 289.002 2.20151 3.78768 0
M  V30 3022 C 290.503 0.506483 4.40397 0
M  V30 3023 H 287.723 0.227248 0.631347 0
M  V30 3024 H 290.267 1.25948 1.61113 0
M  V30 3025 H 288.422 0.222644 3.8676 0
M  V30 3026 H 288.836 2.26013 4.73306 0
M  V30 3027 H 290.31 0.718333 5.47306 0
M  V30 3028 H 290.787 -0.558451 4.35635 0
M  V30 3029 H 291.393 1.09543 4.10951 0
M  V30 3030 N 289.708 -1.40897 0.706093 0
M  V30 3031 C 290.671 -2.29131 0.0562841 0
M  V30 3032 C 291.671 -1.44901 -0.697166 0
M  V30 3033 O 292.861 -1.65926 -0.530484 0
M  V30 3034 C 289.993 -3.27957 -0.93043 0
M  V30 3035 H 291.186 -2.88091 0.833284 0
M  V30 3036 H 288.739 -1.4906 0.470192 0
M  V30 3037 H 289.474 -2.73997 -1.73482 0
M  V30 3038 H 289.259 -3.90124 -0.393166 0
M  V30 3039 H 290.749 -3.94049 -1.38256 0
M  V30 3040 N 291.186 -0.45159 -1.50991 0
M  V30 3041 C 292.411 0.110667 -2.07105 0
M  V30 3042 C 292.836 1.3446 -1.31538 0
M  V30 3043 O 292.194 1.77743 -0.357365 0
M  V30 3044 C 292.242 0.397238 -3.58405 0
M  V30 3045 O 291.346 1.48124 -3.84881 0
M  V30 3046 H 290.687 -0.00439271 -0.663985 0
M  V30 3047 H 293.217 -0.637026 -1.9443 0
M  V30 3048 H 293.227 0.64351 -4.02893 0
M  V30 3049 H 291.902 -0.504553 -4.12828 0
M  V30 3050 H 290.479 1.22381 -3.52246 0
M  V30 3051 N 292.664 1.56529 -0.183458 0
M  V30 3052 C 293.91 1.97537 0.459036 0
M  V30 3053 C 294.243 1.06989 1.62071 0
M  V30 3054 O 293.518 0.11948 1.94133 0
M  V30 3055 C 293.801 3.47874 0.930368 0
M  V30 3056 C 293.654 4.492 -0.232317 0
M  V30 3057 C 294.973 4.01612 1.79989 0
M  V30 3058 H 292.092 0.718204 0.165383 0
M  V30 3059 H 294.734 1.88042 -0.272038 0
M  V30 3060 H 292.884 3.56095 1.55333 0
M  V30 3061 H 294.556 4.53027 -0.86972 0
M  V30 3062 H 292.799 4.24657 -0.885928 0
M  V30 3063 H 293.47 5.51823 0.139796 0
M  V30 3064 H 295.946 3.96097 1.27461 0
M  V30 3065 H 294.822 5.07195 2.09867 0
M  V30 3066 H 295.083 3.46163 2.74998 0
M  V30 3067 N 294.142 -0.090211 1.57342 0
M  V30 3068 C 295.419 -0.824761 1.77361 0
M  V30 3069 C 295.799 -1.96698 0.76637 0
M  V30 3070 O 295.147 -2.27586 -0.204179 0
M  V30 3071 C 295.357 -1.31481 3.23286 0
M  V30 3072 C 296.705 -1.75563 3.86604 0
M  V30 3073 O 297.729 -1.41093 3.27065 0
M  V30 3074 O 296.588 -2.39317 4.91314 0
M  V30 3075 H 293.682 -0.393776 0.727234 0
M  V30 3076 H 296.228 -0.0717138 1.69548 0
M  V30 3077 H 295 -0.496671 3.88135 0
M  V30 3078 H 294.623 -2.12973 3.35751 0
M  V30 3079 N 295.62 -1.53406 -0.361157 0
M  V30 3080 C 296.583 -1.79479 -1.42548 0
M  V30 3081 C 297.583 -0.665327 -1.4639 0
M  V30 3082 O 298.773 -0.933549 -1.47073 0
M  V30 3083 C 295.905 -1.92087 -2.8163 0
M  V30 3084 H 297.098 -2.74538 -1.20701 0
M  V30 3085 H 294.651 -1.4455 -0.594546 0
M  V30 3086 H 295.386 -0.991099 -3.08784 0
M  V30 3087 H 295.171 -2.74241 -2.80239 0
M  V30 3088 H 296.661 -2.13836 -3.58697 0
M  V30 3089 N 297.098 0.621204 -1.44841 0
M  V30 3090 C 298.008 1.7612 -1.5498 0
M  V30 3091 C 299.024 1.68477 -0.434927 0
M  V30 3092 O 300.2 1.89076 -0.693693 0
M  V30 3093 C 297.265 3.1254 -1.50065 0
M  V30 3094 C 296.326 3.31741 -2.72482 0
M  V30 3095 C 295.559 4.61653 -2.67792 0
M  V30 3096 O 295.782 5.431 -1.74352 0
M  V30 3097 O 294.716 4.83271 -3.58794 0
M  V30 3098 H 298.542 1.70518 -2.51311 0
M  V30 3099 H 296.127 0.783643 -1.27198 0
M  V30 3100 H 298.009 3.93844 -1.49882 0
M  V30 3101 H 296.684 3.18663 -0.568806 0
M  V30 3102 H 295.591 2.50077 -2.7823 0
M  V30 3103 H 296.924 3.30486 -3.64746 0
M  V30 3104 N 298.576 1.31904 0.862503 0
M  V30 3105 C 299.825 1.21373 1.61094 0
M  V30 3106 C 300.138 -0.22504 1.94301 0
M  V30 3107 O 301.344 -0.452121 2.67709 0
M  V30 3108 C 299.8 2.12525 2.9045 0
M  V30 3109 C 299.408 3.61441 2.64697 0
M  V30 3110 C 301.152 2.10813 3.68454 0
M  V30 3111 C 299.059 4.44578 3.90006 0
M  V30 3112 H 297.989 0.450705 0.604468 0
M  V30 3113 H 300.64 1.56811 0.953027 0
M  V30 3114 H 299.022 1.69994 3.57656 0
M  V30 3115 H 300.196 4.12264 2.05851 0
M  V30 3116 H 298.511 3.65205 2.00036 0
M  V30 3117 H 301.108 2.70167 4.61426 0
M  V30 3118 H 301.451 1.09713 4.01583 0
M  V30 3119 H 301.984 2.51583 3.08141 0
M  V30 3120 H 298.723 5.46461 3.62023 0
M  V30 3121 H 298.243 3.98508 4.48276 0
M  V30 3122 H 299.922 4.57176 4.5782 0
M  V30 3123 N 300.054 -1.07777 1.14986 0
M  V30 3124 C 300.984 -2.16865 0.865557 0
M  V30 3125 C 301.965 -1.69123 -0.182083 0
M  V30 3126 O 303.15 -1.94164 -0.0373815 0
M  V30 3127 C 300.28 -3.45539 0.349313 0
M  V30 3128 C 299.234 -4.06708 1.33313 0
M  V30 3129 C 298.56 -5.30411 0.675918 0
M  V30 3130 C 299.86 -4.47241 2.69764 0
M  V30 3131 H 301.554 -2.40905 1.77778 0
M  V30 3132 H 299.1 -1.15781 0.856203 0
M  V30 3133 H 301.053 -4.21174 0.137983 0
M  V30 3134 H 299.777 -3.21072 -0.598362 0
M  V30 3135 H 298.436 -3.33112 1.53075 0
M  V30 3136 H 298.084 -5.02232 -0.277767 0
M  V30 3137 H 297.784 -5.72293 1.33244 0
M  V30 3138 H 299.308 -6.08755 0.474262 0
M  V30 3139 H 300.722 -5.14025 2.53873 0
M  V30 3140 H 299.119 -5.00062 3.3175 0
M  V30 3141 H 300.189 -3.58818 3.26156 0
M  V30 3142 N 301.532 -0.945985 -1.26051 0
M  V30 3143 C 302.479 -0.45809 -2.26208 0
M  V30 3144 C 303.449 0.484816 -1.58867 0
M  V30 3145 O 304.634 0.399969 -1.86561 0
M  V30 3146 C 301.774 0.266131 -3.44072 0
M  V30 3147 C 300.887 -0.713005 -4.26075 0
M  V30 3148 C 300.022 0.0329013 -5.3119 0
M  V30 3149 C 299.061 -0.93774 -6.04874 0
M  V30 3150 N 298.198 -0.223274 -7.01745 0
M  V30 3151 H 303.038 -1.3171 -2.67313 0
M  V30 3152 H 300.575 -0.66069 -1.31428 0
M  V30 3153 H 302.533 0.702514 -4.11243 0
M  V30 3154 H 301.163 1.08925 -3.03867 0
M  V30 3155 H 300.215 -1.26789 -3.58648 0
M  V30 3156 H 301.527 -1.45406 -4.77136 0
M  V30 3157 H 300.681 0.528335 -6.04395 0
M  V30 3158 H 299.42 0.806801 -4.8098 0
M  V30 3159 H 298.425 -1.44425 -5.30492 0
M  V30 3160 H 299.65 -1.71172 -6.57173 0
M  V30 3161 H 297.596 0.532046 -6.53839 0
M  V30 3162 H 297.513 -0.90357 -7.50581 0
M  V30 3163 H 298.781 0.250907 -7.79096 0
M  V30 3164 N 303.011 1.40521 -0.713556 0
M  V30 3165 C 303.941 2.33381 -0.0743864 0
M  V30 3166 C 304.922 1.52784 0.747735 0
M  V30 3167 O 306.107 1.81258 0.697071 0
M  V30 3168 C 303.237 3.36748 0.849598 0
M  V30 3169 C 302.191 4.27793 0.133247 0
M  V30 3170 C 301.517 5.21679 1.17281 0
M  V30 3171 C 302.817 5.12415 -1.01134 0
M  V30 3172 H 304.511 2.87081 -0.850007 0
M  V30 3173 H 302.057 1.38034 -0.410201 0
M  V30 3174 H 304.01 4.00648 1.30612 0
M  V30 3175 H 302.734 2.81439 1.65709 0
M  V30 3176 H 301.393 3.65342 -0.303426 0
M  V30 3177 H 301.041 4.62677 1.9733 0
M  V30 3178 H 300.741 5.83435 0.698397 0
M  V30 3179 H 302.265 5.88456 1.62947 0
M  V30 3180 H 303.679 5.69781 -0.634274 0
M  V30 3181 H 302.076 5.83203 -1.41399 0
M  V30 3182 H 303.146 4.48514 -1.84292 0
M  V30 3183 N 304.489 0.459591 1.5075 0
M  V30 3184 C 305.737 -0.0991532 2.01857 0
M  V30 3185 C 306.058 -1.41247 1.34441 0
M  V30 3186 O 305.328 -1.89775 0.486022 0
M  V30 3187 H 303.908 -0.039633 0.745948 0
M  V30 3188 H 306.57 0.607387 1.85194 0
M  V30 3189 H 305.666 -0.258998 3.11023 0
M  V30 3190 N 305.967 -1.56429 0.191757 0
M  V30 3191 C 307.192 -2.02309 -0.456706 0
M  V30 3192 C 307.617 -1.07103 -1.5463 0
M  V30 3193 O 306.975 -0.0539677 -1.8122 0
M  V30 3194 C 307.023 -3.46654 -0.993159 0
M  V30 3195 O 306.127 -3.54559 -2.10622 0
M  V30 3196 H 305.468 -0.655303 -0.107114 0
M  V30 3197 H 307.998 -2.02364 0.301653 0
M  V30 3198 H 308.008 -3.86377 -1.31061 0
M  V30 3199 H 306.683 -4.1544 -0.195504 0
M  V30 3200 H 305.26 -3.26708 -1.79767 0
M  V30 3201 N 307.445 0.0818655 -1.57387 0
M  V30 3202 C 308.408 1.08265 -2.02018 0
M  V30 3203 C 309.408 1.32183 -0.915664 0
M  V30 3204 O 310.598 1.28073 -1.18081 0
M  V30 3205 C 307.73 2.42871 -2.39221 0
M  V30 3206 H 308.923 0.698204 -2.91659 0
M  V30 3207 H 306.476 0.327303 -1.52835 0
M  V30 3208 H 307.211 2.86167 -1.52575 0
M  V30 3209 H 306.996 2.26855 -3.19811 0
M  V30 3210 H 308.486 3.14826 -2.74362 0
M  V30 3211 N 308.923 1.53595 0.353017 0
M  V30 3212 C 310.17 1.70385 1.09431 0
M  V30 3213 C 310.498 0.462113 1.88931 0
M  V30 3214 O 309.753 -0.556074 1.87633 0
M  V30 3215 C 310.052 2.91313 2.07054 0
M  V30 3216 C 309.718 4.27308 1.43939 0
M  V30 3217 C 308.38 4.64287 1.26454 0
M  V30 3218 C 310.732 5.11829 0.983883 0
M  V30 3219 C 308.06 5.83412 0.620226 0
M  V30 3220 C 310.412 6.31611 0.353516 0
M  V30 3221 C 309.076 6.67293 0.166272 0
M  V30 3222 H 308.346 0.623484 0.400436 0
M  V30 3223 H 310.993 1.87799 0.374655 0
M  V30 3224 H 309.298 2.68463 2.85368 0
M  V30 3225 H 310.995 3.01497 2.64387 0
M  V30 3226 H 307.585 3.98198 1.58543 0
M  V30 3227 H 311.769 4.838 1.10685 0
M  V30 3228 H 307.025 6.09639 0.463681 0
M  V30 3229 H 311.199 6.964 -0.00757555 0
M  V30 3230 H 308.826 7.59461 -0.335047 0
M  V30 3231 N 310.401 -0.613514 1.45168 0
M  V30 3232 C 311.631 -1.39743 1.52169 0
M  V30 3233 C 312.039 -1.88596 0.151086 0
M  V30 3234 O 311.382 -1.6251 -0.856521 0
M  V30 3235 C 311.444 -2.64035 2.43979 0
M  V30 3236 C 311.108 -2.36861 3.90827 0
M  V30 3237 C 312.105 -1.97591 4.80889 0
M  V30 3238 C 309.79 -2.49956 4.35692 0
M  V30 3239 C 311.784 -1.71768 6.1382 0
M  V30 3240 C 309.471 -2.23747 5.68665 0
M  V30 3241 C 310.469 -1.84714 6.57548 0
M  V30 3242 O 310.157 -1.58809 7.88058 0
M  V30 3243 H 309.889 -0.434382 0.517966 0
M  V30 3244 H 312.443 -0.75587 1.90986 0
M  V30 3245 H 310.673 -3.3089 2.00122 0
M  V30 3246 H 312.362 -3.26069 2.41731 0
M  V30 3247 H 313.128 -1.87015 4.47493 0
M  V30 3248 H 309.007 -2.79305 3.66756 0
M  V30 3249 H 312.551 -1.41227 6.83155 0
M  V30 3250 H 308.448 -2.33938 6.01617 0
M  V30 3251 H 309.216 -1.7291 8.00028 0
M  V30 3252 N 311.879 -1.3236 -0.855495 0
M  V30 3253 C 313.156 -1.13491 -1.59309 0
M  V30 3254 C 313.536 0.30503 -2.08885 0
M  V30 3255 O 312.884 1.30151 -1.87811 0
M  V30 3256 C 313.094 -2.16176 -2.73987 0
M  V30 3257 C 314.442 -2.49463 -3.43589 0
M  V30 3258 O 315.466 -2.14715 -2.84211 0
M  V30 3259 O 314.325 -3.09027 -4.50738 0
M  V30 3260 H 311.419 -0.437887 -0.701559 0
M  V30 3261 H 313.965 -1.43887 -0.899696 0
M  V30 3262 H 312.737 -3.1297 -2.34873 0
M  V30 3263 H 312.36 -1.86769 -3.51003 0
M  V30 3264 N 313.357 1.07166 -1.15556 0
M  V30 3265 C 314.29 2.13808 -0.797593 0
M  V30 3266 C 315.268 1.6101 0.226812 0
M  V30 3267 O 316.452 1.88161 0.112932 0
M  V30 3268 C 313.579 3.38187 -0.186371 0
M  V30 3269 C 312.625 4.09766 -1.18297 0
M  V30 3270 S 313.458 4.60932 -2.72584 0
M  V30 3271 C 314.614 5.88583 -2.12886 0
M  V30 3272 H 314.847 2.43843 -1.70083 0
M  V30 3273 H 312.38 1.19467 -0.978106 0
M  V30 3274 H 314.338 4.10189 0.159837 0
M  V30 3275 H 312.999 3.06326 0.694489 0
M  V30 3276 H 312.192 4.99065 -0.703562 0
M  V30 3277 H 311.794 3.43736 -1.47381 0
M  V30 3278 H 314.086 6.60866 -1.49208 0
M  V30 3279 H 315.029 6.41241 -3.0036 0
M  V30 3280 H 315.437 5.42194 -1.57116 0
M  V30 3281 N 314.835 0.952656 1.25548 0
M  V30 3282 C 315.767 0.428609 2.25157 0
M  V30 3283 C 316.78 -0.454428 1.56329 0
M  V30 3284 O 317.969 -0.263023 1.76552 0
M  V30 3285 C 315.069 -0.401972 3.36508 0
M  V30 3286 C 314.242 0.467601 4.34893 0
M  V30 3287 C 313.301 -0.30445 5.25319 0
M  V30 3288 O 312.327 0.296473 5.68427 0
M  V30 3289 N 313.529 -1.59805 5.5807 0
M  V30 3290 H 316.294 1.28497 2.70756 0
M  V30 3291 H 313.855 0.822798 1.39433 0
M  V30 3292 H 315.847 -0.926134 3.9396 0
M  V30 3293 H 314.417 -1.15918 2.90313 0
M  V30 3294 H 313.637 1.17288 3.76347 0
M  V30 3295 H 314.925 1.06119 4.97611 0
M  V30 3296 H 314.323 -2.10823 5.24948 0
M  V30 3297 H 312.88 -2.06822 6.18116 0
M  V30 3298 N 316.313 -1.40141 0.720998 0
M  V30 3299 C 317.543 -2.04798 0.27226 0
M  V30 3300 C 317.951 -1.54442 -1.09289 0
M  V30 3301 O 317.294 -0.698342 -1.69908 0
M  V30 3302 C 317.356 -3.59048 0.18027 0
M  V30 3303 C 317.02 -4.32317 1.48159 0
M  V30 3304 C 318.017 -4.59902 2.42458 0
M  V30 3305 C 315.702 -4.71125 1.74202 0
M  V30 3306 C 317.696 -5.25288 3.61042 0
M  V30 3307 C 315.383 -5.36242 2.93066 0
M  V30 3308 C 316.381 -5.63254 3.86308 0
M  V30 3309 O 316.069 -6.27024 5.03086 0
M  V30 3310 H 315.801 -0.665419 0.119139 0
M  V30 3311 H 318.355 -1.80436 0.981432 0
M  V30 3312 H 316.585 -3.82251 -0.58489 0
M  V30 3313 H 318.274 -4.05221 -0.234618 0
M  V30 3314 H 319.04 -4.30379 2.23604 0
M  V30 3315 H 314.919 -4.49466 1.02477 0
M  V30 3316 H 318.463 -5.46289 4.33837 0
M  V30 3317 H 314.36 -5.65185 3.11826 0
M  V30 3318 H 315.128 -6.4552 5.03235 0
M  V30 3319 N 317.792 -0.46758 -1.50504 0
M  V30 3320 C 318.755 0.317059 -2.26996 0
M  V30 3321 C 319.755 0.923513 -1.31635 0
M  V30 3322 O 320.945 0.793239 -1.55091 0
M  V30 3323 C 318.077 1.45134 -3.08462 0
M  V30 3324 H 319.27 -0.353723 -2.97807 0
M  V30 3325 H 316.823 -0.221545 -1.54722 0
M  V30 3326 H 317.558 2.15728 -2.4214 0
M  V30 3327 H 317.343 1.02232 -3.78538 0
M  V30 3328 H 318.833 2.00493 -3.66323 0
M  V30 3329 N 319.27 1.56325 -0.20005 0
M  V30 3330 C 320.217 2.1932 0.718833 0
M  V30 3331 C 321.187 1.14198 1.20615 0
M  V30 3332 O 322.372 1.42469 1.26914 0
M  V30 3333 C 319.512 2.86041 1.93066 0
M  V30 3334 C 318.625 4.05702 1.48425 0
M  V30 3335 C 317.76 4.60266 2.65196 0
M  V30 3336 C 316.799 5.72273 2.17185 0
M  V30 3337 N 315.936 6.21221 3.27152 0
M  V30 3338 H 320.776 2.97486 0.17489 0
M  V30 3339 H 318.313 1.46911 0.0745794 0
M  V30 3340 H 320.271 3.22897 2.64184 0
M  V30 3341 H 318.901 2.1043 2.44783 0
M  V30 3342 H 317.953 3.74475 0.668755 0
M  V30 3343 H 319.265 4.86699 1.09204 0
M  V30 3344 H 318.419 4.99453 3.4443 0
M  V30 3345 H 317.158 3.78386 3.07693 0
M  V30 3346 H 316.163 5.3261 1.36407 0
M  V30 3347 H 317.388 6.55974 1.75713 0
M  V30 3348 H 315.334 5.42263 3.69171 0
M  V30 3349 H 315.251 6.97284 2.92116 0
M  V30 3350 H 316.519 6.65063 4.06585 0
M  V30 3351 N 320.748 -0.0735177 1.57428 0
M  V30 3352 C 321.996 -0.771472 1.86796 0
M  V30 3353 C 322.317 -1.78201 0.791804 0
M  V30 3354 O 321.587 -1.95074 -0.179718 0
M  V30 3355 H 320.167 -0.28791 0.689287 0
M  V30 3356 H 322.829 -0.0500161 1.94836 0
M  V30 3357 H 321.925 -1.28874 2.8425 0
M  V30 3358 N 322.226 -1.5378 -0.344866 0
M  V30 3359 C 323.454 -1.74899 -1.10534 0
M  V30 3360 C 323.869 -0.487534 -1.82397 0
M  V30 3361 O 323.226 0.540741 -1.74305 0
M  V30 3362 C 323.277 -2.92822 -2.11984 0
M  V30 3363 O 322.998 -4.14089 -1.43044 0
M  V30 3364 C 324.499 -3.25982 -3.00417 0
M  V30 3365 H 321.719 -0.584426 -0.329678 0
M  V30 3366 H 324.263 -2.006 -0.397474 0
M  V30 3367 H 322.418 -2.69457 -2.78338 0
M  V30 3368 H 322.832 -4.80272 -2.10805 0
M  V30 3369 H 324.306 -4.11848 -3.67539 0
M  V30 3370 H 324.783 -2.42228 -3.66363 0
M  V30 3371 H 325.389 -3.51349 -2.39654 0
M  V30 3372 N 323.704 0.605807 -1.45491 0
M  V30 3373 C 324.981 1.36522 -1.40075 0
M  V30 3374 C 325.361 2.10976 -0.0722744 0
M  V30 3375 O 324.709 2.08007 0.945808 0
M  V30 3376 C 324.919 2.31056 -2.61561 0
M  V30 3377 C 326.267 2.93608 -3.06724 0
M  V30 3378 O 327.291 2.41376 -2.61946 0
M  V30 3379 O 326.15 3.88421 -3.84437 0
M  V30 3380 H 323.244 0.612248 -0.555951 0
M  V30 3381 H 325.79 0.628747 -1.57623 0
M  V30 3382 H 324.562 1.75311 -3.49831 0
M  V30 3383 H 324.185 3.12081 -2.46356 0
M  V30 3384 N 325.182 1.32811 0.848464 0
M  V30 3385 C 326.41 1.26739 1.63538 0
M  V30 3386 C 326.825 -0.163484 1.88091 0
M  V30 3387 O 326.182 -1.10258 1.45429 0
M  V30 3388 C 326.233 2.03013 2.99112 0
M  V30 3389 O 325.954 3.40518 2.75643 0
M  V30 3390 C 327.455 2.04038 3.93552 0
M  V30 3391 H 324.675 0.437024 0.509167 0
M  V30 3392 H 327.219 1.75033 1.05753 0
M  V30 3393 H 325.374 1.58426 3.53525 0
M  V30 3394 H 325.788 3.79635 3.61908 0
M  V30 3395 H 327.262 2.61877 4.85926 0
M  V30 3396 H 327.739 1.0282 4.26995 0
M  V30 3397 H 328.345 2.486 3.45077 0
M  V30 3398 N 326.66 -1.06551 1.16123 0
M  V30 3399 C 328.071 -1.60768 0.949232 0
M  V30 3400 C 328.422 -1.89523 -0.507508 0
M  V30 3401 O 327.547 -1.66671 -1.38021 0
M  V30 3402 C 328.142 -2.92086 1.71671 0
M  V30 3403 C 326.701 -3.43015 1.54977 0
M  V30 3404 C 325.848 -2.16947 1.72711 0
M  V30 3405 H 328.799 -0.895354 1.31031 0
M  V30 3406 H 328.82 -3.6138 1.19099 0
M  V30 3407 H 328.332 -2.71127 2.7769 0
M  V30 3408 H 326.433 -3.69039 0.513873 0
M  V30 3409 H 326.546 -4.18516 2.33198 0
M  V30 3410 H 324.91 -2.27041 1.15431 0
M  V30 3411 H 325.693 -1.98473 2.80113 0
M  V30 3412 N 328.138 -0.959301 -1.25041 0
M  V30 3413 C 329.385 -0.616611 -1.92884 0
M  V30 3414 C 329.713 0.847036 -1.75087 0
M  V30 3415 O 328.968 1.62374 -1.09239 0
M  V30 3416 C 329.267 -0.927136 -3.45165 0
M  V30 3417 C 328.933 -2.37757 -3.83122 0
M  V30 3418 C 327.595 -2.77402 -3.93194 0
M  V30 3419 C 329.947 -3.31929 -4.01836 0
M  V30 3420 C 327.275 -4.10277 -4.19392 0
M  V30 3421 C 329.627 -4.64423 -4.29528 0
M  V30 3422 C 328.291 -5.03857 -4.37818 0
M  V30 3423 H 327.561 -0.225634 -0.705812 0
M  V30 3424 H 330.208 -1.20921 -1.48493 0
M  V30 3425 H 328.513 -0.252195 -3.90987 0
M  V30 3426 H 330.21 -0.6405 -3.95852 0
M  V30 3427 H 326.8 -2.06013 -3.75841 0
M  V30 3428 H 330.984 -3.02488 -3.93465 0
M  V30 3429 H 326.24 -4.40467 -4.24027 0
M  V30 3430 H 330.414 -5.37369 -4.42953 0
M  V30 3431 H 328.041 -6.06843 -4.57871 0
M  V30 3432 N 329.616 1.39756 -0.72842 0
M  V30 3433 C 330.865 1.99879 -0.270407 0
M  V30 3434 C 331.178 1.58449 1.14688 0
M  V30 3435 O 332.384 2.11362 1.70407 0
M  V30 3436 C 330.84 3.57292 -0.43252 0
M  V30 3437 C 330.448 4.07688 -1.85727 0
M  V30 3438 C 332.192 4.24485 -0.0359507 0
M  V30 3439 C 330.099 5.5765 -1.96928 0
M  V30 3440 H 329.029 0.747689 -0.0973472 0
M  V30 3441 H 331.68 1.59837 -0.901355 0
M  V30 3442 H 330.062 3.95097 0.267219 0
M  V30 3443 H 331.236 3.81231 -2.58843 0
M  V30 3444 H 329.551 3.53135 -2.20646 0
M  V30 3445 H 332.148 5.34609 -0.0987484 0
M  V30 3446 H 332.491 4.03915 1.00787 0
M  V30 3447 H 333.024 3.9183 -0.686604 0
M  V30 3448 H 329.763 5.8309 -2.99476 0
M  V30 3449 H 329.283 5.8593 -1.28241 0
M  V30 3450 H 330.962 6.22957 -1.74737 0
M  V30 3451 N 331.094 0.475555 1.50254 0
M  V30 3452 C 332.057 -0.305016 2.27161 0
M  V30 3453 C 333.057 -0.916519 1.32123 0
M  V30 3454 O 334.247 -0.785003 1.5551 0
M  V30 3455 C 331.379 -1.43496 3.09227 0
M  V30 3456 H 332.572 0.369511 2.97615 0
M  V30 3457 H 330.125 0.229747 1.54602 0
M  V30 3458 H 330.86 -2.14441 2.43281 0
M  V30 3459 H 330.645 -1.00223 3.79075 0
M  V30 3460 H 332.135 -1.98548 3.67381 0
M  V30 3461 N 332.573 -1.56217 0.208337 0
M  V30 3462 C 333.503 -2.22694 -0.702116 0
M  V30 3463 C 334.484 -1.19432 -1.2112 0
M  V30 3464 O 335.669 -1.47978 -1.25762 0
M  V30 3465 C 332.799 -2.8966 -1.9161 0
M  V30 3466 C 331.753 -3.9928 -1.5414 0
M  V30 3467 C 331.079 -4.53476 -2.83308 0
M  V30 3468 C 332.379 -5.17012 -0.741339 0
M  V30 3469 H 334.073 -2.99034 -0.147898 0
M  V30 3470 H 331.619 -1.43831 -0.0696951 0
M  V30 3471 H 333.572 -3.34852 -2.55836 0
M  V30 3472 H 332.296 -2.10746 -2.49507 0
M  V30 3473 H 330.955 -3.54799 -0.922668 0
M  V30 3474 H 330.603 -3.71308 -3.39322 0
M  V30 3475 H 330.303 -5.27451 -2.58976 0
M  V30 3476 H 331.827 -5.01378 -3.485 0
M  V30 3477 H 333.241 -5.58667 -1.28699 0
M  V30 3478 H 331.638 -5.97137 -0.595627 0
M  V30 3479 H 332.708 -4.8423 0.254851 0
M  V30 3480 N 334.051 0.0651679 -1.57465 0
M  V30 3481 C 335.291 0.768329 -1.8941 0
M  V30 3482 C 335.655 1.74406 -0.802894 0
M  V30 3483 O 336.856 2.49281 -1.0056 0
M  V30 3484 C 335.127 1.45199 -3.26576 0
M  V30 3485 S 336.686 2.1893 -3.80283 0
M  V30 3486 H 333.504 0.255359 -0.663561 0
M  V30 3487 H 336.106 0.024167 -1.95485 0
M  V30 3488 H 334.81 0.728123 -4.03889 0
M  V30 3489 H 334.341 2.23545 -3.23715 0
M  V30 3490 H 336.356 3.45551 -3.56102 0
M  V30 3491 N 335.529 1.53961 0.336706 0
M  V30 3492 C 336.476 1.82428 1.41381 0
M  V30 3493 C 337.446 0.670444 1.51968 0
M  V30 3494 O 338.631 0.915565 1.67398 0
M  V30 3495 C 335.771 2.04564 2.77934 0
M  V30 3496 C 334.884 3.32267 2.76084 0
M  V30 3497 C 334.019 3.44434 4.04399 0
M  V30 3498 C 333.058 4.66061 3.96804 0
M  V30 3499 N 332.195 4.75224 5.16823 0
M  V30 3500 H 337.035 2.74324 1.16405 0
M  V30 3501 H 334.572 1.35869 0.563752 0
M  V30 3502 H 336.53 2.15388 3.57301 0
M  V30 3503 H 335.16 1.15974 3.01247 0
M  V30 3504 H 334.212 3.3025 1.88784 0
M  V30 3505 H 335.524 4.21733 2.66351 0
M  V30 3506 H 334.678 3.54728 4.92192 0
M  V30 3507 H 333.417 2.53037 4.16921 0
M  V30 3508 H 332.422 4.55838 3.07396 0
M  V30 3509 H 333.647 5.58829 3.85858 0
M  V30 3510 H 331.593 3.86739 5.29876 0
M  V30 3511 H 331.51 5.58636 5.09374 0
M  V30 3512 H 332.778 4.89835 6.06367 0
M  V30 3513 N 337.007 -0.598083 1.45811 0
M  V30 3514 C 338.232 -1.3881 1.54099 0
M  V30 3515 C 338.657 -1.8726 0.177578 0
M  V30 3516 O 338.015 -1.6069 -0.839541 0
M  V30 3517 C 338.063 -2.56217 2.53743 0
M  V30 3518 O 337.167 -3.5716 2.06182 0
M  V30 3519 H 336.508 -0.414024 0.519115 0
M  V30 3520 H 339.038 -0.726971 1.91249 0
M  V30 3521 H 339.048 -3.03337 2.72856 0
M  V30 3522 H 337.723 -2.20303 3.5276 0
M  V30 3523 H 336.3 -3.16624 1.96987 0
M  V30 3524 N 338.485 -1.33259 -0.841409 0
M  V30 3525 C 339.415 -1.25926 -1.96634 0
M  V30 3526 C 340.396 -0.140349 -1.6952 0
M  V30 3527 O 341.581 -0.329707 -1.91381 0
M  V30 3528 C 338.711 -0.99512 -3.32738 0
M  V30 3529 C 337.665 -2.0767 -3.74242 0
M  V30 3530 C 336.991 -1.66474 -5.08125 0
M  V30 3531 C 338.291 -3.49318 -3.88297 0
M  V30 3532 H 339.985 -2.20046 -2.03027 0
M  V30 3533 H 337.531 -1.05931 -0.975425 0
M  V30 3534 H 339.484 -0.930323 -4.11002 0
M  V30 3535 H 338.208 -0.0183004 -3.26595 0
M  V30 3536 H 336.867 -2.13187 -2.98239 0
M  V30 3537 H 336.515 -0.675012 -4.9845 0
M  V30 3538 H 336.215 -2.3885 -5.36865 0
M  V30 3539 H 337.739 -1.61455 -5.88867 0
M  V30 3540 H 339.153 -3.46316 -4.56879 0
M  V30 3541 H 337.55 -4.20158 -4.28471 0
M  V30 3542 H 338.62 -3.8801 -2.9082 0
M  V30 3543 N 339.963 1.05934 -1.16686 0
M  V30 3544 C 341.211 1.78447 -0.948744 0
M  V30 3545 C 341.532 1.87813 0.524523 0
M  V30 3546 O 340.802 1.38945 1.38098 0
M  V30 3547 H 339.382 0.660971 -0.348033 0
M  V30 3548 H 342.044 1.27947 -1.47022 0
M  V30 3549 H 341.14 2.80394 -1.37061 0
M  V30 3550 N 341.441 0.965919 1.2453 0
M  V30 3551 C 342.371 0.513476 2.27784 0
M  V30 3552 C 343.352 -0.445974 1.6415 0
M  V30 3553 O 344.537 -0.342485 1.91156 0
M  V30 3554 C 341.667 -0.198839 3.4673 0
M  V30 3555 C 340.621 0.676456 4.2262 0
M  V30 3556 C 339.947 -0.167248 5.34438 0
M  V30 3557 C 341.247 1.96017 4.84123 0
M  V30 3558 H 342.941 1.3765 2.65881 0
M  V30 3559 H 340.487 0.663321 1.27813 0
M  V30 3560 H 342.44 -0.526567 4.18097 0
M  V30 3561 H 341.164 -1.0962 3.07654 0
M  V30 3562 H 339.823 0.98743 3.53052 0
M  V30 3563 H 339.471 -1.0647 4.91603 0
M  V30 3564 H 339.171 0.415181 5.86131 0
M  V30 3565 H 340.695 -0.489688 6.08633 0
M  V30 3566 H 342.109 1.69814 5.47573 0
M  V30 3567 H 340.506 2.48918 5.4604 0
M  V30 3568 H 341.576 2.65622 4.05676 0
M  V30 3569 N 342.919 -1.39368 0.735821 0
M  V30 3570 C 344.147 -2.04795 0.294393 0
M  V30 3571 C 344.562 -1.55478 -1.07107 0
M  V30 3572 O 343.919 -0.720038 -1.67695 0
M  V30 3573 C 343.97 -3.6035 0.288071 0
M  V30 3574 O 343.691 -4.07852 1.59963 0
M  V30 3575 C 345.192 -4.42976 -0.169422 0
M  V30 3576 H 342.412 -0.658571 0.128551 0
M  V30 3577 H 344.956 -1.78399 0.999701 0
M  V30 3578 H 343.111 -3.85645 -0.368355 0
M  V30 3579 H 343.525 -5.02181 1.51375 0
M  V30 3580 H 344.999 -5.51864 -0.122687 0
M  V30 3581 H 345.476 -4.22068 -1.21472 0
M  V30 3582 H 346.082 -4.22832 0.457469 0
M  V30 3583 N 344.397 -0.483516 -1.5 0
M  V30 3584 C 345.345 0.318061 -2.30415 0
M  V30 3585 C 346.339 0.978988 -1.38247 0
M  V30 3586 O 347.545 0.908673 -1.55381 0
M  V30 3587 H 343.92 0.121419 -0.742133 0
M  V30 3588 H 345.891 -0.380403 -2.95965 0
M  V30 3589 C 344.64 1.38013 -3.19136 0
M  V30 3590 H 343.963 0.880952 -3.89973 0
M  V30 3591 H 345.403 1.91332 -3.78375 0
M  V30 3592 C 343.862 2.38884 -2.37563 0
M  V30 3593 O 344.392 3.44412 -2.06744 0
M  V30 3594 N 342.598 2.10912 -1.99911 0
M  V30 3595 H 342.145 1.25118 -2.25174 0
M  V30 3596 H 342.103 2.78635 -1.45636 0
M  V30 3597 N 345.875 1.56104 -0.216619 0
M  V30 3598 C 347.121 1.98466 0.417033 0
M  V30 3599 C 347.454 1.10403 1.59765 0
M  V30 3600 O 346.729 0.160632 1.93836 0
M  V30 3601 C 347.012 3.49769 0.85637 0
M  V30 3602 C 346.865 4.48606 -0.327546 0
M  V30 3603 C 348.184 4.05339 1.7143 0
M  V30 3604 H 345.303 0.721551 0.150112 0
M  V30 3605 H 347.945 1.87423 -0.311864 0
M  V30 3606 H 346.095 3.5931 1.47745 0
M  V30 3607 H 347.767 4.5108 -0.965618 0
M  V30 3608 H 346.01 4.22682 -0.975805 0
M  V30 3609 H 346.681 5.51995 0.0227149 0
M  V30 3610 H 349.157 3.98712 1.19031 0
M  V30 3611 H 348.033 5.11533 1.99061 0
M  V30 3612 H 348.294 3.51918 2.67593 0
M  V30 3613 N 347.353 -0.0568162 1.57498 0
M  V30 3614 C 348.578 -0.769402 1.92601 0
M  V30 3615 C 349.003 -1.69559 0.814336 0
M  V30 3616 O 348.361 -1.79811 -0.231903 0
M  V30 3617 C 348.409 -1.52634 3.26704 0
M  V30 3618 O 347.513 -2.63797 3.16994 0
M  V30 3619 H 346.854 -0.208909 0.63028 0
M  V30 3620 H 349.384 -0.0205798 2.0459 0
M  V30 3621 H 349.394 -1.90234 3.60936 0
M  V30 3622 H 348.069 -0.846875 4.07186 0
M  V30 3623 H 346.646 -2.28943 2.94346 0
M  V30 3624 N 348.832 -1.54138 -0.328536 0
M  V30 3625 C 350.109 -1.62749 -1.08499 0
M  V30 3626 C 350.489 -0.458198 -2.06067 0
M  V30 3627 O 349.837 0.548046 -2.2183 0
M  V30 3628 C 350.047 -2.99519 -1.79135 0
M  V30 3629 C 351.395 -3.55394 -2.32337 0
M  V30 3630 O 352.419 -3.01792 -1.89209 0
M  V30 3631 O 351.278 -4.49186 -3.11279 0
M  V30 3632 H 348.372 -0.65886 -0.499832 0
M  V30 3633 H 350.918 -1.66484 -0.328826 0
M  V30 3634 H 349.69 -3.76061 -1.08139 0
M  V30 3635 H 349.313 -2.99441 -2.61574 0
M  V30 3636 N 350.31 0.590341 -1.46126 0
M  V30 3637 C 351.558 1.34616 -1.50742 0
M  V30 3638 C 351.879 1.94363 -0.157486 0
M  V30 3639 O 351.149 1.78136 0.815136 0
M  V30 3640 H 349.729 0.499789 -0.555175 0
M  V30 3641 H 352.391 0.691953 -1.82203 0
M  V30 3642 H 351.487 2.15678 -2.25587 0
M  V30 3643 N 351.788 1.33704 0.83433 0
M  V30 3644 C 353.035 1.25417 1.58987 0
M  V30 3645 C 353.363 -0.178869 1.93676 0
M  V30 3646 O 352.618 -1.13723 1.59265 0
M  V30 3647 C 352.917 2.07926 2.90692 0
M  V30 3648 C 352.583 3.57066 2.75345 0
M  V30 3649 C 351.245 3.97724 2.70867 0
M  V30 3650 C 353.597 4.51817 2.59828 0
M  V30 3651 C 350.925 5.31344 2.48778 0
M  V30 3652 C 353.277 5.85604 2.39272 0
M  V30 3653 C 351.941 6.25439 2.33199 0
M  V30 3654 H 351.211 0.458934 0.581774 0
M  V30 3655 H 353.858 1.65335 0.966261 0
M  V30 3656 H 352.163 1.608 3.57282 0
M  V30 3657 H 353.86 1.98868 3.48213 0
M  V30 3658 H 350.45 3.24785 2.79665 0
M  V30 3659 H 354.634 4.21311 2.62319 0
M  V30 3660 H 349.89 5.61241 2.42526 0
M  V30 3661 H 354.064 6.58623 2.2625 0
M  V30 3662 H 351.691 7.28914 2.15843 0
M  V30 3663 N 353.266 -1.05314 1.17247 0
M  V30 3664 C 354.514 -1.77941 0.958194 0
M  V30 3665 C 354.835 -1.88089 -0.514556 0
M  V30 3666 O 354.105 -1.39676 -1.37359 0
M  V30 3667 H 352.685 -0.659116 0.351533 0
M  V30 3668 H 355.347 -1.27166 1.47699 0
M  V30 3669 H 354.443 -2.79663 1.38546 0
M  V30 3670 N 354.744 -0.972509 -1.24016 0
M  V30 3671 C 355.677 -0.45117 -2.23696 0
M  V30 3672 C 356.655 0.477378 -1.55434 0
M  V30 3673 O 357.839 0.407647 -1.84039 0
M  V30 3674 C 354.966 0.34818 -3.36906 0
M  V30 3675 C 354.012 -0.523355 -4.23277 0
M  V30 3676 S 354.845 -1.96647 -4.98087 0
M  V30 3677 C 356.001 -1.17604 -6.14752 0
M  V30 3678 H 356.234 -1.29588 -2.67571 0
M  V30 3679 H 353.767 -0.777903 -1.33372 0
M  V30 3680 H 355.725 0.803387 -4.02562 0
M  V30 3681 H 354.386 1.16792 -2.91579 0
M  V30 3682 H 353.579 0.0906181 -5.03919 0
M  V30 3683 H 353.181 -0.914485 -3.62647 0
M  V30 3684 H 355.473 -0.433434 -6.76112 0
M  V30 3685 H 356.416 -1.95701 -6.8052 0
M  V30 3686 H 356.824 -0.698295 -5.60164 0
M  V30 3687 N 356.222 1.38976 -0.743202 0
M  V30 3688 C 357.152 2.33171 -0.123873 0
M  V30 3689 C 358.133 1.54336 0.71516 0
M  V30 3690 O 359.318 1.82696 0.658467 0
M  V30 3691 C 356.448 3.38474 0.777978 0
M  V30 3692 C 355.402 4.27979 0.0424758 0
M  V30 3693 C 354.728 5.2405 1.06189 0
M  V30 3694 C 356.028 5.10155 -1.1198 0
M  V30 3695 H 357.722 2.85213 -0.910709 0
M  V30 3696 H 355.268 1.37133 -0.439388 0
M  V30 3697 H 357.221 4.03328 1.22084 0
M  V30 3698 H 355.945 2.84891 1.59702 0
M  V30 3699 H 354.604 3.64616 -0.380853 0
M  V30 3700 H 354.252 4.66758 1.87472 0
M  V30 3701 H 353.952 5.84785 0.574485 0
M  V30 3702 H 355.476 5.9178 1.50428 0
M  V30 3703 H 356.89 5.68307 -0.75499 0
M  V30 3704 H 355.287 5.80073 -1.53738 0
M  V30 3705 H 356.357 4.44504 -1.93764 0
M  V30 3706 N 357.7 0.491464 1.49741 0
M  V30 3707 C 358.946 -0.0565092 2.02721 0
M  V30 3708 C 359.279 -1.37522 1.37118 0
M  V30 3709 O 358.554 -1.87866 0.503645 0
M  V30 3710 C 358.837 -0.219051 3.59433 0
M  V30 3711 C 358.69 1.12211 4.35579 0
M  V30 3712 C 360.009 -0.964157 4.29409 0
M  V30 3713 H 357.128 -0.0190627 0.736753 0
M  V30 3714 H 359.77 0.641021 1.7886 0
M  V30 3715 H 357.92 -0.813165 3.79895 0
M  V30 3716 H 359.592 1.75437 4.26637 0
M  V30 3717 H 357.835 1.71377 3.98513 0
M  V30 3718 H 358.506 0.961794 5.43556 0
M  V30 3719 H 360.982 -0.460378 4.13545 0
M  V30 3720 H 359.858 -1.04671 5.38828 0
M  V30 3721 H 360.119 -2.00563 3.93988 0
M  V30 3722 N 359.178 -1.55987 0.224894 0
M  V30 3723 C 360.141 -2.19178 -0.670348 0
M  V30 3724 C 361.141 -1.15461 -1.11917 0
M  V30 3725 O 362.331 -1.40675 -1.02743 0
M  V30 3726 C 359.463 -2.81777 -1.9187 0
M  V30 3727 H 360.656 -2.99662 -0.119364 0
M  V30 3728 H 358.209 -1.5628 -0.0247128 0
M  V30 3729 H 358.944 -2.05172 -2.51147 0
M  V30 3730 H 358.729 -3.57732 -1.60531 0
M  V30 3731 H 360.219 -3.30205 -2.55645 0
M  V30 3732 N 360.656 0.0484629 -1.57525 0
M  V30 3733 C 361.588 1.08222 -2.02041 0
M  V30 3734 C 362.601 1.33621 -0.930012 0
M  V30 3735 O 363.79 1.3145 -1.20761 0
M  V30 3736 C 360.89 2.42818 -2.36416 0
M  V30 3737 C 360.063 2.37049 -3.67596 0
M  V30 3738 C 359.122 3.53937 -3.89378 0
M  V30 3739 O 358.148 3.34308 -4.60681 0
M  V30 3740 N 359.35 4.75126 -3.3352 0
M  V30 3741 H 362.115 0.702946 -2.9134 0
M  V30 3742 H 359.676 0.236745 -1.6016 0
M  V30 3743 H 361.668 3.197 -2.48141 0
M  V30 3744 H 360.238 2.72661 -1.52888 0
M  V30 3745 H 359.458 1.45395 -3.66407 0
M  V30 3746 H 360.746 2.30318 -4.53686 0
M  V30 3747 H 360.144 4.93976 -2.75688 0
M  V30 3748 H 358.701 5.49439 -3.50656 0
M  V30 3749 N 362.134 1.5431 0.320358 0
M  V30 3750 C 363.097 1.83195 1.3774 0
M  V30 3751 C 364.097 0.703906 1.44575 0
M  V30 3752 O 365.287 0.972214 1.44546 0
M  V30 3753 C 362.419 1.99487 2.76438 0
M  V30 3754 H 363.612 2.77642 1.1338 0
M  V30 3755 H 361.165 1.46076 0.556012 0
M  V30 3756 H 361.9 1.07262 3.06048 0
M  V30 3757 H 361.685 2.81575 2.7287 0
M  V30 3758 H 363.175 2.23271 3.52902 0
M  V30 3759 N 363.613 -0.582584 1.46437 0
M  V30 3760 C 364.576 -1.67366 1.56592 0
M  V30 3761 C 365.576 -1.54575 0.443072 0
M  V30 3762 O 366.766 -1.59191 0.707381 0
M  V30 3763 C 363.898 -3.06791 1.48634 0
M  V30 3764 H 365.091 -1.5972 2.5383 0
M  V30 3765 H 362.644 -0.800432 1.34249 0
M  V30 3766 H 363.379 -3.19993 0.526763 0
M  V30 3767 H 363.164 -3.17484 2.30101 0
M  V30 3768 H 364.654 -3.86218 1.58826 0
M  V30 3769 N 365.091 -1.34144 -0.827227 0
M  V30 3770 C 366.041 -1.21923 -1.92663 0
M  V30 3771 C 367.025 -0.119294 -1.60457 0
M  V30 3772 O 368.217 -0.348539 -1.73534 0
M  V30 3773 C 365.346 -0.972492 -3.29238 0
M  V30 3774 C 364.432 -2.1154 -3.67576 0
M  V30 3775 N 364.823 -3.36627 -3.77512 0
M  V30 3776 C 363.121 -2.02468 -3.97395 0
M  V30 3777 C 363.822 -4.11658 -4.1099 0
M  V30 3778 N 362.798 -3.40207 -4.23981 0
M  V30 3779 H 366.6 -2.16721 -1.98517 0
M  V30 3780 H 364.114 -1.2632 -1.02064 0
M  V30 3781 H 366.111 -0.865847 -4.0781 0
M  V30 3782 H 364.771 -0.0331509 -3.24683 0
M  V30 3783 H 365.782 -3.71234 -3.61118 0
M  V30 3784 H 362.459 -1.16265 -4.00985 0
M  V30 3785 H 363.849 -5.19657 -4.25918 0
M  V30 3786 N 366.569 1.04691 -1.17803 0
M  V30 3787 C 367.794 1.81984 -0.994813 0
M  V30 3788 C 368.219 1.82586 0.452112 0
M  V30 3789 O 367.577 1.23854 1.324 0
M  V30 3790 C 367.625 3.2575 -1.54659 0
M  V30 3791 O 366.729 4.05267 -0.763728 0
M  V30 3792 H 366.07 0.562483 -0.352857 0
M  V30 3793 H 368.6 1.3189 -1.56417 0
M  V30 3794 H 368.61 3.76541 -1.57102 0
M  V30 3795 H 367.285 3.24627 -2.59981 0
M  V30 3796 H 365.862 3.63972 -0.811108 0
M  V30 3797 N 368.047 0.979072 1.23499 0
M  V30 3798 C 369.294 0.647219 1.91878 0
M  V30 3799 C 369.622 -0.819074 1.76413 0
M  V30 3800 O 368.877 -1.60616 1.11808 0
M  V30 3801 C 369.176 0.981932 3.43646 0
M  V30 3802 C 368.842 2.43822 3.79291 0
M  V30 3803 C 367.504 2.83622 3.88731 0
M  V30 3804 C 369.856 3.3828 3.96505 0
M  V30 3805 C 367.184 4.16897 4.12812 0
M  V30 3806 C 369.536 4.71197 4.22085 0
M  V30 3807 C 368.2 5.10758 4.29747 0
M  V30 3808 H 367.47 0.236834 0.702133 0
M  V30 3809 H 370.117 1.23268 1.46551 0
M  V30 3810 H 368.422 0.314365 3.90537 0
M  V30 3811 H 370.119 0.703395 3.94783 0
M  V30 3812 H 366.709 2.11966 3.72516 0
M  V30 3813 H 370.893 3.0871 3.88603 0
M  V30 3814 H 366.149 4.47157 4.16966 0
M  V30 3815 H 370.323 5.44348 4.34348 0
M  V30 3816 H 367.95 6.1405 4.48159 0
M  V30 3817 N 369.525 -1.3858 0.750561 0
M  V30 3818 C 370.475 -2.27795 0.0965949 0
M  V30 3819 C 371.459 -1.45048 -0.696411 0
M  V30 3820 O 372.651 -1.67812 -0.562863 0
M  V30 3821 C 369.78 -3.33894 -0.798085 0
M  V30 3822 C 368.866 -4.241 0.0016067 0
M  V30 3823 N 369.257 -4.95067 1.03647 0
M  V30 3824 C 367.555 -4.45429 -0.225674 0
M  V30 3825 C 368.256 -5.61489 1.52004 0
M  V30 3826 N 367.232 -5.37135 0.835874 0
M  V30 3827 H 371.034 -2.80125 0.889228 0
M  V30 3828 H 368.548 -1.51446 0.586323 0
M  V30 3829 H 370.545 -3.96693 -1.28219 0
M  V30 3830 H 369.205 -2.83123 -1.5897 0
M  V30 3831 H 370.216 -4.98104 1.41819 0
M  V30 3832 H 366.893 -4.05571 -0.990872 0
M  V30 3833 H 368.283 -6.28264 2.38188 0
M  V30 3834 N 371.003 -0.499398 -1.49478 0
M  V30 3835 C 371.933 0.269244 -2.31943 0
M  V30 3836 C 372.914 0.964054 -1.40143 0
M  V30 3837 O 374.099 0.955767 -1.69052 0
M  V30 3838 C 371.229 1.33504 -3.20615 0
M  V30 3839 C 370.183 0.760202 -4.21195 0
M  V30 3840 C 369.509 1.9264 -4.98792 0
M  V30 3841 C 370.809 -0.247661 -5.21712 0
M  V30 3842 H 372.503 -0.419082 -2.96452 0
M  V30 3843 H 370.049 -0.202988 -1.42562 0
M  V30 3844 H 372.002 1.88048 -3.77115 0
M  V30 3845 H 370.726 2.05253 -2.54045 0
M  V30 3846 H 369.385 0.23653 -3.65836 0
M  V30 3847 H 369.033 2.63154 -4.28671 0
M  V30 3848 H 368.733 1.54785 -5.66847 0
M  V30 3849 H 370.257 2.4762 -5.58137 0
M  V30 3850 H 371.671 0.209579 -5.72917 0
M  V30 3851 H 370.068 -0.541962 -5.97648 0
M  V30 3852 H 371.138 -1.16409 -4.7072 0
M  V30 3853 N 372.481 1.55866 -0.233164 0
M  V30 3854 C 373.727 1.99643 0.389148 0
M  V30 3855 C 374.082 1.11836 1.56558 0
M  V30 3856 O 373.375 0.170848 1.90837 0
M  V30 3857 C 373.569 3.46856 0.861724 0
M  V30 3858 C 373.398 4.48904 -0.267376 0
M  V30 3859 C 372.168 4.99888 -0.737577 0
M  V30 3860 C 374.366 5.02624 -1.08966 0
M  V30 3861 N 372.348 5.8566 -1.84052 0
M  V30 3862 C 373.719 5.85434 -2.04125 0
M  V30 3863 C 375.774 4.84959 -1.12779 0
M  V30 3864 C 374.477 6.52466 -3.02789 0
M  V30 3865 C 376.503 5.52759 -2.10266 0
M  V30 3866 C 375.865 6.35346 -3.04162 0
M  V30 3867 H 371.964 0.774402 0.108742 0
M  V30 3868 H 374.548 1.91572 -0.347596 0
M  V30 3869 H 372.719 3.55352 1.5678 0
M  V30 3870 H 374.451 3.77531 1.45783 0
M  V30 3871 H 371.206 4.7249 -0.324122 0
M  V30 3872 H 371.63 6.33246 -2.39434 0
M  V30 3873 H 376.272 4.20751 -0.415749 0
M  V30 3874 H 373.99 7.15849 -3.74948 0
M  V30 3875 H 377.576 5.41051 -2.13905 0
M  V30 3876 H 376.456 6.86883 -3.78366 0
M  V30 3877 N 373.959 -0.0401083 1.57549 0
M  V30 3878 C 375.375 -0.395556 1.54621 0
M  V30 3879 C 375.575 -1.77281 0.957799 0
M  V30 3880 O 374.631 -2.45888 0.574031 0
M  V30 3881 C 375.944 -0.307535 2.99123 0
M  V30 3882 C 377.492 -0.385425 3.10618 0
M  V30 3883 C 377.967 -0.326973 4.56831 0
M  V30 3884 N 379.458 -0.386102 4.61588 0
M  V30 3885 C 380.193 -0.363591 5.72246 0
M  V30 3886 N 379.689 -0.29402 6.92176 0
M  V30 3887 N 381.482 -0.412503 5.60584 0
M  V30 3888 H 373.633 0.861325 1.94152 0
M  V30 3889 H 375.896 0.326445 0.890021 0
M  V30 3890 H 375.602 0.638461 3.45856 0
M  V30 3891 H 375.476 -1.10552 3.60636 0
M  V30 3892 H 377.863 -1.32185 2.63839 0
M  V30 3893 H 377.944 0.44171 2.51957 0
M  V30 3894 H 377.588 0.605738 5.04275 0
M  V30 3895 H 377.518 -1.17207 5.13391 0
M  V30 3896 H 380.009 -0.442832 3.75296 0
M  V30 3897 H 380.322 -0.28164 7.72287 0
M  V30 3898 H 378.667 -0.260232 6.94513 0
M  V30 3899 H 381.858 -0.464769 4.65787 0
M  V30 3900 H 382.031 -0.391492 6.46816 0
M  V30 3901 N 375.437 -1.54477 -0.31217 0
M  V30 3902 C 376.685 -1.72884 -1.04668 0
M  V30 3903 C 377.006 -0.511477 -1.88173 0
M  V30 3904 O 376.276 0.474407 -1.90069 0
M  V30 3905 H 374.856 -0.637461 -0.389425 0
M  V30 3906 H 377.518 -1.91807 -0.345852 0
M  V30 3907 H 376.614 -2.61334 -1.70619 0
M  V30 3908 N 376.915 0.57481 -1.46744 0
M  V30 3909 C 378.161 1.3347 -1.52688 0
M  V30 3910 C 378.494 1.93353 -0.181229 0
M  V30 3911 O 377.769 1.76912 0.808237 0
M  V30 3912 C 378.052 2.45811 -2.63152 0
M  V30 3913 C 377.905 1.90912 -4.07275 0
M  V30 3914 C 379.224 3.47822 -2.69644 0
M  V30 3915 H 376.343 0.483935 -0.555856 0
M  V30 3916 H 378.985 0.644968 -1.78718 0
M  V30 3917 H 377.135 3.04646 -2.41088 0
M  V30 3918 H 378.807 1.36473 -4.4065 0
M  V30 3919 H 377.05 1.21691 -4.16382 0
M  V30 3920 H 377.721 2.72042 -4.80309 0
M  V30 3921 H 380.197 2.9888 -2.895 0
M  V30 3922 H 379.073 4.23876 -3.48742 0
M  V30 3923 H 379.334 4.05555 -1.76005 0
M  V30 3924 N 378.394 1.34581 0.820102 0
M  V30 3925 C 379.327 1.20735 1.93644 0
M  V30 3926 C 380.305 0.0983343 1.62302 0
M  V30 3927 O 381.489 0.263997 1.86642 0
M  V30 3928 C 378.616 0.856037 3.27704 0
M  V30 3929 C 377.662 1.97521 3.78005 0
M  V30 3930 S 378.495 3.58906 3.97425 0
M  V30 3931 C 379.651 3.25822 5.34407 0
M  V30 3932 H 379.884 2.15231 2.05093 0
M  V30 3933 H 377.417 1.1964 0.97599 0
M  V30 3934 H 379.375 0.660133 4.05157 0
M  V30 3935 H 378.036 -0.0706253 3.14021 0
M  V30 3936 H 377.229 1.68321 4.75062 0
M  V30 3937 H 376.831 2.12875 3.07507 0
M  V30 3938 H 379.123 2.77812 6.17922 0
M  V30 3939 H 380.066 4.22029 5.68592 0
M  V30 3940 H 380.474 2.61932 5.00052 0
M  V30 3941 N 379.872 -1.04064 1.18357 0
M  V30 3942 C 381.283 -1.58719 0.98312 0
M  V30 3943 C 381.634 -1.90556 -0.467193 0
M  V30 3944 O 380.759 -1.69561 -1.34454 0
M  V30 3945 C 381.354 -2.88379 1.77828 0
M  V30 3946 C 379.913 -3.3965 1.62218 0
M  V30 3947 C 379.06 -2.13235 1.77274 0
M  V30 3948 H 382.011 -0.867359 1.32901 0
M  V30 3949 H 382.032 -3.58773 1.26737 0
M  V30 3950 H 381.544 -2.65176 2.83379 0
M  V30 3951 H 379.645 -3.67866 0.592036 0
M  V30 3952 H 379.758 -4.13475 2.42023 0
M  V30 3953 H 378.122 -2.24542 1.20221 0
M  V30 3954 H 378.905 -1.92487 2.8426 0
M  V30 3955 N 381.35 -0.985608 -1.22978 0
M  V30 3956 C 382.627 -0.573599 -1.87001 0
M  V30 3957 C 383.007 0.949213 -1.88555 0
M  V30 3958 O 382.355 1.82811 -1.37086 0
M  V30 3959 C 382.565 -1.18564 -3.28243 0
M  V30 3960 C 383.913 -1.28163 -4.04796 0
M  V30 3961 O 384.937 -1.13949 -3.37482 0
M  V30 3962 O 383.796 -1.50832 -5.25273 0
M  V30 3963 H 380.89 -0.193868 -0.803955 0
M  V30 3964 H 383.436 -1.08102 -1.30813 0
M  V30 3965 H 382.208 -2.22758 -3.21706 0
M  V30 3966 H 381.831 -0.663363 -3.92027 0
M  V30 3967 N 382.828 1.3818 -0.7579 0
M  V30 3968 C 384.075 2.00019 -0.315985 0
M  V30 3969 C 384.403 1.60163 1.10355 0
M  V30 3970 O 383.658 0.83264 1.77103 0
M  V30 3971 C 383.957 3.55252 -0.391218 0
M  V30 3972 C 383.623 4.14834 -1.76702 0
M  V30 3973 C 382.285 4.30821 -2.14353 0
M  V30 3974 C 384.637 4.47658 -2.66931 0
M  V30 3975 C 381.965 4.76928 -3.41696 0
M  V30 3976 C 384.317 4.95184 -3.93669 0
M  V30 3977 C 382.981 5.09377 -4.31383 0
M  V30 3978 H 382.251 0.731923 -0.115627 0
M  V30 3979 H 384.898 1.65161 -0.969223 0
M  V30 3980 H 383.203 3.90273 0.34558 0
M  V30 3981 H 384.9 4.00988 -0.030805 0
M  V30 3982 H 381.49 4.02808 -1.46435 0
M  V30 3983 H 385.674 4.34904 -2.39106 0
M  V30 3984 H 380.93 4.86103 -3.70829 0
M  V30 3985 H 385.104 5.19551 -4.63724 0
M  V30 3986 H 382.731 5.44865 -5.30119 0
M  V30 3987 N 384.306 0.507319 1.49211 0
M  V30 3988 C 385.552 -0.0350047 2.0277 0
M  V30 3989 C 385.885 -1.3606 1.38569 0
M  V30 3990 O 385.16 -1.87321 0.523542 0
M  V30 3991 C 385.443 -0.180916 3.59645 0
M  V30 3992 C 385.296 1.16825 4.34364 0
M  V30 3993 C 386.615 -0.918558 4.30407 0
M  V30 3994 H 383.734 -0.0112473 0.736914 0
M  V30 3995 H 386.376 0.659956 1.7817 0
M  V30 3996 H 384.526 -0.772826 3.80736 0
M  V30 3997 H 386.198 1.79952 4.24753 0
M  V30 3998 H 384.441 1.75594 3.96673 0
M  V30 3999 H 385.112 1.01939 5.42506 0
M  V30 4000 H 387.588 -0.41649 4.1401 0
M  V30 4001 H 386.464 -0.989505 5.39907 0
M  V30 4002 H 386.725 -1.96373 3.96093 0
M  V30 4003 N 385.784 -1.5574 0.241426 0
M  V30 4004 C 387.009 -2.0366 -0.392111 0
M  V30 4005 C 387.434 -1.11969 -1.51144 0
M  V30 4006 O 386.792 -0.111594 -1.80956 0
M  V30 4007 C 386.84 -3.49638 -0.882371 0
M  V30 4008 O 385.944 -3.6108 -1.99235 0
M  V30 4009 H 385.285 -0.658379 -0.0862122 0
M  V30 4010 H 387.815 -2.01302 0.365881 0
M  V30 4011 H 387.825 -3.90351 -1.18702 0
M  V30 4012 H 386.5 -4.15852 -0.0632361 0
M  V30 4013 H 385.077 -3.32262 -1.69282 0
M  V30 4014 N 387.262 0.0317525 -1.57568 0
M  V30 4015 C 388.508 0.724175 -1.8943 0
M  V30 4016 C 388.841 1.75149 -0.838836 0
M  V30 4017 O 388.116 1.93948 0.146422 0
M  V30 4018 C 388.399 1.39615 -3.31933 0
M  V30 4019 C 388.252 0.382537 -4.4817 0
M  V30 4020 C 389.571 2.33084 -3.73309 0
M  V30 4021 H 386.69 0.261797 -0.688935 0
M  V30 4022 H 389.332 -0.013017 -1.89996 0
M  V30 4023 H 387.482 2.02451 -3.31581 0
M  V30 4024 H 389.154 -0.243689 -4.60656 0
M  V30 4025 H 387.397 -0.29844 -4.32772 0
M  V30 4026 H 388.068 0.891145 -5.44759 0
M  V30 4027 H 390.544 1.80295 -3.7501 0
M  V30 4028 H 389.42 2.77084 -4.73831 0
M  V30 4029 H 389.681 3.19643 -3.05419 0
M  V30 4030 N 388.74 1.54641 0.303973 0
M  V30 4031 C 389.97 1.77511 1.05705 0
M  V30 4032 C 390.378 0.533228 1.81531 0
M  V30 4033 O 389.721 -0.506423 1.76582 0
M  V30 4034 C 389.783 2.92779 2.08617 0
M  V30 4035 C 389.447 4.30977 1.52013 0
M  V30 4036 C 390.444 5.11115 0.9517 0
M  V30 4037 C 388.129 4.77571 1.55665 0
M  V30 4038 C 390.123 6.35966 0.427327 0
M  V30 4039 C 387.81 6.02384 1.02841 0
M  V30 4040 C 388.808 6.81417 0.464713 0
M  V30 4041 O 388.496 8.03881 -0.0555283 0
M  V30 4042 H 388.228 0.59579 0.319391 0
M  V30 4043 H 390.782 2.02401 0.349712 0
M  V30 4044 H 389.012 2.63506 2.83022 0
M  V30 4045 H 390.701 3.03252 2.69802 0
M  V30 4046 H 391.467 4.76264 0.916407 0
M  V30 4047 H 387.346 4.16085 1.9848 0
M  V30 4048 H 390.89 6.97599 -0.0133062 0
M  V30 4049 H 386.787 6.36723 1.06084 0
M  V30 4050 H 387.555 8.18479 0.0580522 0
M  V30 4051 N 390.218 -0.567019 1.47046 0
M  V30 4052 C 391.128 -1.70247 1.6141 0
M  V30 4053 C 392.144 -1.66746 0.497157 0
M  V30 4054 O 393.32 -1.86371 0.763389 0
M  V30 4055 C 390.385 -3.06756 1.61561 0
M  V30 4056 C 389.446 -3.21399 2.84607 0
M  V30 4057 C 388.679 -4.51396 2.84741 0
M  V30 4058 O 388.902 -5.36255 1.94388 0
M  V30 4059 O 387.836 -4.69621 3.76483 0
M  V30 4060 H 391.662 -1.61073 2.57467 0
M  V30 4061 H 389.247 -0.735894 1.30019 0
M  V30 4062 H 391.129 -3.8801 1.64396 0
M  V30 4063 H 389.804 -3.16333 0.686684 0
M  V30 4064 H 388.711 -2.39579 2.8732 0
M  V30 4065 H 390.044 -3.16721 3.76761 0
M  V30 4066 N 391.696 -1.35014 -0.812953 0
M  V30 4067 C 392.628 -1.23262 -1.93233 0
M  V30 4068 C 393.641 -0.157371 -1.62038 0
M  V30 4069 O 394.83 -0.410096 -1.73725 0
M  V30 4070 C 391.93 -0.87392 -3.27438 0
M  V30 4071 C 391.103 -2.04622 -3.86586 0
M  V30 4072 C 390.162 -1.66432 -4.99186 0
M  V30 4073 O 389.188 -2.38222 -5.16951 0
M  V30 4074 N 390.39 -0.584248 -5.77552 0
M  V30 4075 H 393.155 -2.19699 -2.03844 0
M  V30 4076 H 390.716 -1.281 -0.99005 0
M  V30 4077 H 392.708 -0.600039 -4.00227 0
M  V30 4078 H 391.278 0.00057392 -3.126 0
M  V30 4079 H 390.498 -2.48427 -3.06068 0
M  V30 4080 H 391.786 -2.82999 -4.22835 0
M  V30 4081 H 391.184 0.0123526 -5.65699 0
M  V30 4082 H 389.741 -0.37013 -6.50748 0
M  V30 4083 N 393.175 1.03435 -1.18907 0
M  V30 4084 C 394.105 2.13503 -0.945448 0
M  V30 4085 C 395.086 1.69682 0.119189 0
M  V30 4086 O 396.271 1.94169 -0.034707 0
M  V30 4087 C 393.401 3.44004 -0.477316 0
M  V30 4088 C 392.355 4.0148 -1.48316 0
M  V30 4089 C 391.681 5.27537 -0.872311 0
M  V30 4090 C 392.981 4.36921 -2.86177 0
M  V30 4091 H 394.675 2.34141 -1.86597 0
M  V30 4092 H 392.221 1.12523 -0.898584 0
M  V30 4093 H 394.174 4.20372 -0.294204 0
M  V30 4094 H 392.898 3.23072 0.478786 0
M  V30 4095 H 391.557 3.27201 -1.65332 0
M  V30 4096 H 391.205 5.02917 0.0911752 0
M  V30 4097 H 390.905 5.66954 -1.54393 0
M  V30 4098 H 392.429 6.06576 -0.699871 0
M  V30 4099 H 393.843 5.04248 -2.72776 0
M  V30 4100 H 392.24 4.87405 -3.50081 0
M  V30 4101 H 393.31 3.46466 -3.39248 0
M  V30 4102 N 394.653 0.992116 1.22453 0
M  V30 4103 C 395.6 0.541731 2.24352 0
M  V30 4104 C 396.57 -0.425519 1.60557 0
M  V30 4105 O 397.755 -0.330453 1.87917 0
M  V30 4106 C 394.895 -0.138248 3.44823 0
M  V30 4107 C 394.008 0.870649 4.23136 0
M  V30 4108 C 393.143 0.164269 5.30946 0
M  V30 4109 C 392.182 1.16159 6.00977 0
M  V30 4110 N 391.319 0.483568 7.00433 0
M  V30 4111 H 396.159 1.41541 2.62241 0
M  V30 4112 H 393.696 0.709013 1.28885 0
M  V30 4113 H 395.654 -0.5494 4.13567 0
M  V30 4114 H 394.284 -0.975721 3.077 0
M  V30 4115 H 393.336 1.40013 3.53696 0
M  V30 4116 H 394.648 1.63014 4.7141 0
M  V30 4117 H 393.802 -0.303653 6.0594 0
M  V30 4118 H 392.541 -0.627733 4.83643 0
M  V30 4119 H 391.546 1.64015 5.24766 0
M  V30 4120 H 392.771 1.95445 6.50368 0
M  V30 4121 H 390.717 -0.289012 6.55363 0
M  V30 4122 H 390.634 1.18152 7.4671 0
M  V30 4123 H 391.902 0.0384219 7.79491 0
M  V30 4124 N 396.131 -1.37776 0.765217 0
M  V30 4125 C 397.078 -2.30342 0.145274 0
M  V30 4126 C 398.048 -1.5077 -0.696971 0
M  V30 4127 O 399.233 -1.79362 -0.650689 0
M  V30 4128 C 396.373 -3.37227 -0.732939 0
M  V30 4129 C 395.486 -4.31819 0.125199 0
M  V30 4130 C 394.621 -5.25777 -0.757107 0
M  V30 4131 C 393.66 -6.12012 0.103963 0
M  V30 4132 N 392.797 -6.98232 -0.735953 0
M  V30 4133 H 397.637 -2.8278 0.940195 0
M  V30 4134 H 395.174 -1.39211 0.475255 0
M  V30 4135 H 397.132 -3.97818 -1.25686 0
M  V30 4136 H 395.762 -2.86171 -1.49353 0
M  V30 4137 H 394.814 -3.7259 0.766865 0
M  V30 4138 H 396.126 -4.92509 0.789683 0
M  V30 4139 H 395.28 -5.91541 -1.34776 0
M  V30 4140 H 394.019 -4.65481 -1.45529 0
M  V30 4141 H 393.024 -5.45233 0.707197 0
M  V30 4142 H 394.249 -6.74379 0.799381 0
M  V30 4143 H 392.195 -6.40472 -1.41887 0
M  V30 4144 H 392.112 -7.55891 -0.128624 0
M  V30 4145 H 393.38 -7.68393 -1.31121 0
M  V30 4146 N 397.609 -0.515225 -1.4894 0
M  V30 4147 C 398.572 0.244681 -2.2789 0
M  V30 4148 C 399.572 0.881166 -1.34507 0
M  V30 4149 O 400.762 0.743497 -1.57537 0
M  V30 4150 C 397.894 1.35247 -3.12923 0
M  V30 4151 H 399.087 -0.448289 -2.96531 0
M  V30 4152 H 396.64 -0.270656 -1.53939 0
M  V30 4153 H 397.375 2.07916 -2.48881 0
M  V30 4154 H 397.16 0.901374 -3.81599 0
M  V30 4155 H 398.65 1.88737 -3.72516 0
M  V30 4156 N 399.087 1.5561 -0.249682 0
M  V30 4157 C 400.02 2.17537 0.689408 0
M  V30 4158 C 400.998 1.12829 1.17083 0
M  V30 4159 O 402.182 1.41229 1.24846 0
M  V30 4160 C 399.309 2.77828 1.93725 0
M  V30 4161 C 398.355 3.95615 1.59346 0
M  V30 4162 S 399.188 5.30988 0.69367 0
M  V30 4163 C 400.344 5.94734 1.95046 0
M  V30 4164 H 400.577 2.96852 0.163142 0
M  V30 4165 H 398.11 1.54362 -0.0341166 0
M  V30 4166 H 400.068 3.13199 2.65361 0
M  V30 4167 H 398.729 1.98454 2.43465 0
M  V30 4168 H 397.922 4.364 2.52132 0
M  V30 4169 H 397.524 3.61535 0.957512 0
M  V30 4170 H 399.816 6.12419 2.89739 0
M  V30 4171 H 400.759 6.90109 1.58604 0
M  V30 4172 H 401.167 5.23832 2.10381 0
M  V30 4173 N 400.565 -0.0233959 1.57583 0
M  V30 4174 C 401.495 -1.02162 2.09965 0
M  V30 4175 C 402.476 -1.3735 1.00344 0
M  V30 4176 O 403.661 -1.46135 1.27899 0
M  V30 4177 C 400.791 -2.32081 2.58371 0
M  V30 4178 C 399.745 -2.1112 3.72307 0
M  V30 4179 C 399.071 -3.46848 4.06941 0
M  V30 4180 C 400.371 -1.49276 5.00514 0
M  V30 4181 H 402.065 -0.585557 2.93618 0
M  V30 4182 H 399.611 -0.280218 1.41247 0
M  V30 4183 H 401.564 -3.02249 2.93639 0
M  V30 4184 H 400.288 -2.77758 1.71808 0
M  V30 4185 H 398.947 -1.43384 3.37397 0
M  V30 4186 H 398.595 -3.90184 3.17436 0
M  V30 4187 H 398.295 -3.33646 4.83688 0
M  V30 4188 H 399.819 -4.18369 4.44747 0
M  V30 4189 H 401.233 -2.09368 5.33702 0
M  V30 4190 H 399.63 -1.46632 5.8191 0
M  V30 4191 H 400.7 -0.459217 4.82721 0
M  V30 4192 O 402.082 -1.60643 -0.16613 0
M  V30 4193 H 402.773 -1.76304 -0.80228 0
M  V30 END ATOM
M  V30 BEGIN BOND
M  V30 END BOND
M  V30 END CTAB
M  END
$$$$
