drugbank_target|P19835 Bile salt-activated lipase (DB04348)
 OpenBabel12092120543D

  0  0  0     0  0            999 V3000
M  V30 BEGIN CTAB
M  V30 COUNTS 11062 11242 0 0 0
M  V30 BEGIN ATOM
M  V30 1 H -0.908 1.98254 -0.117106 0
M  V30 2 N 0 1.576 0 0
M  V30 3 C 0.933 2.03868 1.02534 0
M  V30 4 C 1.911 0.928543 1.3348 0
M  V30 5 O 3.095 1.19667 1.45644 0
M  V30 6 C 0.222 2.43627 2.35294 0
M  V30 7 C -0.732 3.65373 2.2001 0
M  V30 8 S 0.101 5.13292 1.52614 0
M  V30 9 C 1.257 5.56322 2.86805 0
M  V30 10 H 1.49 2.90518 0.631377 0
M  V30 11 H -0.977 1.52953 0.210867 0
M  V30 12 H 0.981 2.67203 3.11629 0
M  V30 13 H -0.358 1.57376 2.7183 0
M  V30 14 H -1.165 3.90944 3.18086 0
M  V30 15 H -1.563 3.418 1.51819 0
M  V30 16 H 0.729 5.58782 3.83104 0
M  V30 17 H 1.672 6.56266 2.65933 0
M  V30 18 H 2.08 4.83886 2.90714 0
M  V30 19 N 1.4781 -0.272755 1.55222 0
M  V30 20 C 2.7261 -1.00234 1.75492 0
M  V30 21 C 3.0471 -1.8681 0.5592 0
M  V30 22 O 2.3171 -1.91215 -0.425882 0
M  V30 23 H 0.8971 -0.373076 0.647166 0
M  V30 24 H 3.5591 -0.296926 1.92625 0
M  V30 25 H 2.6551 -1.63913 2.65592 0
M  V30 26 N 2.9562 -1.48159 -0.537278 0
M  V30 27 C 4.3722 -1.34118 -0.865129 0
M  V30 28 C 4.5722 -0.346678 -1.98495 0
M  V30 29 O 3.6282 0.234715 -2.51407 0
M  V30 30 C 4.9412 -2.73963 -1.23954 0
M  V30 31 C 6.4892 -2.82397 -1.34984 0
M  V30 32 C 6.9642 -4.22928 -1.75772 0
M  V30 33 N 8.4552 -4.25566 -1.82887 0
M  V30 34 C 9.1902 -5.31235 -2.15817 0
M  V30 35 N 8.6862 -6.47189 -2.47222 0
M  V30 36 N 10.4792 -5.18624 -2.16761 0
M  V30 37 H 2.6302 -2.1144 0.201715 0
M  V30 38 H 4.8932 -0.947598 0.0275949 0
M  V30 39 H 4.5992 -3.48264 -0.490381 0
M  V30 40 H 4.4732 -3.0702 -2.19132 0
M  V30 41 H 6.8602 -2.08356 -2.08978 0
M  V30 42 H 6.9412 -2.5297 -0.379448 0
M  V30 43 H 6.5852 -4.97482 -1.02341 0
M  V30 44 H 6.5152 -4.49794 -2.73848 0
M  V30 45 H 9.0062 -3.41924 -1.60924 0
M  V30 46 H 9.3192 -7.23564 -2.71433 0
M  V30 47 H 7.6642 -6.50476 -2.44757 0
M  V30 48 H 10.8552 -4.27056 -1.91679 0
M  V30 49 H 11.0282 -6.01078 -2.42093 0
M  V30 50 N 4.4343 0.785586 -1.36625 0
M  V30 51 C 5.3643 1.91259 -1.33949 0
M  V30 52 C 6.3453 1.68795 -0.210325 0
M  V30 53 O 7.5303 1.89854 -0.408561 0
M  V30 54 C 4.6603 3.28339 -1.13186 0
M  V30 55 C 3.6143 3.65335 -2.22967 0
M  V30 56 C 2.9403 5.00806 -1.87342 0
M  V30 57 C 4.2403 3.7352 -3.65075 0
M  V30 58 H 5.9343 1.93755 -2.28253 0
M  V30 59 H 3.4803 0.930788 -1.09874 0
M  V30 60 H 5.4333 4.06804 -1.09948 0
M  V30 61 H 4.1573 3.2624 -0.153332 0
M  V30 62 H 2.8163 2.89169 -2.25337 0
M  V30 63 H 2.4643 4.95233 -0.880545 0
M  V30 64 H 2.1643 5.26529 -2.60846 0
M  V30 65 H 3.6883 5.81687 -1.85667 0
M  V30 66 H 5.1023 4.42168 -3.64911 0
M  V30 67 H 3.4993 4.10731 -4.37516 0
M  V30 68 H 4.5693 2.74527 -3.99703 0
M  V30 69 N 5.9124 1.20967 1.01018 0
M  V30 70 C 6.8444 0.922059 2.09835 0
M  V30 71 C 7.8574 -0.0927106 1.62536 0
M  V30 72 O 9.0464 0.139127 1.77957 0
M  V30 73 C 6.1464 0.362004 3.36961 0
M  V30 74 C 5.3194 1.42986 4.13369 0
M  V30 75 C 4.3784 0.879976 5.1879 0
M  V30 76 O 3.4044 1.56219 5.47343 0
M  V30 77 N 4.6064 -0.307396 5.79686 0
M  V30 78 H 7.3714 1.8588 2.35093 0
M  V30 79 H 4.9324 1.11422 1.1746 0
M  V30 80 H 6.9244 -0.0201474 4.04695 0
M  V30 81 H 5.4944 -0.479437 3.08902 0
M  V30 82 H 4.7144 1.98608 3.40512 0
M  V30 83 H 6.0024 2.14885 4.61196 0
M  V30 84 H 5.4004 -0.878796 5.58832 0
M  V30 85 H 3.9574 -0.631115 6.48737 0
M  V30 86 N 7.3905 -1.2043 1.01659 0
M  V30 87 C 8.3205 -2.25466 0.607226 0
M  V30 88 C 9.3015 -1.65853 -0.377716 0
M  V30 89 O 10.4865 -1.92409 -0.263149 0
M  V30 90 C 7.6165 -3.47256 -0.0552949 0
M  V30 91 C 6.5705 -4.19462 0.850632 0
M  V30 92 C 5.8965 -5.34673 0.0538859 0
M  V30 93 C 7.1965 -4.75603 2.15868 0
M  V30 94 H 8.8905 -2.59962 1.48526 0
M  V30 95 H 6.4365 -1.2496 0.715605 0
M  V30 96 H 8.3895 -4.19917 -0.353233 0
M  V30 97 H 7.1135 -3.11924 -0.968045 0
M  V30 98 H 5.7725 -3.48667 1.13257 0
M  V30 99 H 5.4205 -4.95585 -0.860514 0
M  V30 100 H 5.1205 -5.83913 0.657192 0
M  V30 101 H 6.6445 -6.10138 -0.237598 0
M  V30 102 H 8.0585 -5.40083 1.92311 0
M  V30 103 H 6.4555 -5.3528 2.71284 0
M  V30 104 H 7.5255 -3.94346 2.82169 0
M  V30 105 N 8.8686 -0.792821 -1.36206 0
M  V30 106 C 10.1146 -0.36733 -1.99446 0
M  V30 107 C 10.4476 1.05917 -1.62774 0
M  V30 108 O 9.7226 1.7324 -0.88421 0
M  V30 109 C 10.0056 -0.535044 -3.56103 0
M  V30 110 C 9.8586 -2.00548 -4.02617 0
M  V30 111 C 11.1776 0.0478191 -4.40074 0
M  V30 112 H 8.2966 -0.134941 -0.724541 0
M  V30 113 H 10.9386 -0.999794 -1.61568 0
M  V30 114 H 9.0886 0.00336329 -3.885 0
M  V30 115 H 10.7606 -2.60521 -3.80692 0
M  V30 116 H 9.0036 -2.50686 -3.54032 0
M  V30 117 H 9.6746 -2.07377 -5.11565 0
M  V30 118 H 12.1506 -0.411822 -4.14057 0
M  V30 119 H 11.0266 -0.0995336 -5.4881 0
M  V30 120 H 11.2876 1.14025 -4.27142 0
M  V30 121 N 10.3467 1.47872 -0.545128 0
M  V30 122 C 11.5927 2.02793 -0.0166104 0
M  V30 123 C 11.9257 1.41987 1.32489 0
M  V30 124 O 11.2007 0.571045 1.85928 0
M  V30 125 C 11.4837 3.59989 0.0893294 0
M  V30 126 C 11.3367 4.3125 -1.27841 0
M  V30 127 C 12.6557 4.32606 0.808724 0
M  V30 128 H 9.7747 0.736962 -0.00751035 0
M  V30 129 H 12.4167 1.76433 -0.705085 0
M  V30 130 H 10.5667 3.82579 0.675681 0
M  V30 131 H 12.2387 4.20035 -1.90704 0
M  V30 132 H 10.4817 3.92076 -1.85632 0
M  V30 133 H 11.1527 5.39736 -1.15713 0
M  V30 134 H 13.6287 4.14936 0.310992 0
M  V30 135 H 12.5047 5.42251 0.851782 0
M  V30 136 H 12.7657 4.00963 1.86229 0
M  V30 137 N 11.8248 0.280983 1.55075 0
M  V30 138 C 12.7548 -0.597469 2.25727 0
M  V30 139 C 13.7358 -1.15417 1.24952 0
M  V30 140 O 14.9208 -1.18722 1.53684 0
M  V30 141 C 12.0508 -1.7789 2.98283 0
M  V30 142 C 11.0048 -1.35347 4.06036 0
M  V30 143 C 10.3308 -2.61846 4.66198 0
M  V30 144 C 11.6308 -0.499354 5.19907 0
M  V30 145 H 13.3248 -0.00824265 2.99399 0
M  V30 146 H 10.8708 -0.0025244 1.44 0
M  V30 147 H 12.8238 -2.39937 3.46422 0
M  V30 148 H 11.5478 -2.39405 2.22155 0
M  V30 149 H 10.2068 -0.756156 3.58717 0
M  V30 150 H 9.8548 -3.21632 3.86732 0
M  V30 151 H 9.5548 -2.3409 5.38958 0
M  V30 152 H 11.0788 -3.24732 5.1709 0
M  V30 153 H 12.4928 -1.02498 5.64063 0
M  V30 154 H 10.8898 -0.316424 5.99265 0
M  V30 155 H 11.9598 0.480459 4.82514 0
M  V30 156 N 13.3029 -1.57598 0.00835791 0
M  V30 157 C 14.5509 -1.90551 -0.6734 0
M  V30 158 C 14.8719 -0.883301 -1.73847 0
M  V30 159 O 14.1419 0.0781442 -1.95744 0
M  V30 160 H 12.7219 -0.703312 -0.251717 0
M  V30 161 H 15.3839 -1.94833 0.0512592 0
M  V30 162 H 14.4799 -2.9056 -1.13935 0
M  V30 163 N 14.781 0.264519 -1.55364 0
M  V30 164 C 15.711 1.33121 -1.91836 0
M  V30 165 C 16.692 1.51101 -0.781192 0
M  V30 166 O 17.877 1.64003 -1.04003 0
M  V30 167 C 15.007 2.68921 -2.19769 0
M  V30 168 C 13.961 2.65661 -3.35571 0
M  V30 169 C 13.287 4.05093 -3.49004 0
M  V30 170 C 14.587 2.24187 -4.71739 0
M  V30 171 H 16.281 1.02844 -2.81182 0
M  V30 172 H 13.827 0.493286 -1.35287 0
M  V30 173 H 15.78 3.43663 -2.43872 0
M  V30 174 H 14.504 3.00799 -1.27231 0
M  V30 175 H 13.163 1.93377 -3.1145 0
M  V30 176 H 12.811 4.34206 -2.53917 0
M  V30 177 H 12.511 4.03804 -4.26868 0
M  V30 178 H 14.035 4.81561 -3.75408 0
M  V30 179 H 15.449 2.88654 -4.9533 0
M  V30 180 H 13.846 2.34044 -5.52579 0
M  V30 181 H 14.916 1.19327 -4.69988 0
M  V30 182 N 16.2591 1.48442 0.529413 0
M  V30 183 C 17.4871 1.60151 1.30994 0
M  V30 184 C 17.9021 0.261985 1.86973 0
M  V30 185 O 17.2591 -0.748805 1.66431 0
M  V30 186 C 17.3101 2.64854 2.46038 0
M  V30 187 O 17.0311 3.93608 1.92365 0
M  V30 188 C 18.5321 2.87007 3.37849 0
M  V30 189 H 15.7521 0.539971 0.398338 0
M  V30 190 H 18.2961 1.94273 0.638597 0
M  V30 191 H 16.4511 2.33589 3.09055 0
M  V30 192 H 16.8651 4.51055 2.67675 0
M  V30 193 H 18.3391 3.64068 4.14919 0
M  V30 194 H 18.8161 1.95852 3.93114 0
M  V30 195 H 19.4221 3.19579 2.80623 0
M  V30 196 N 17.7372 -0.778329 1.37039 0
M  V30 197 C 18.9772 -1.54973 1.33276 0
M  V30 198 C 19.3412 -1.91816 -0.0839376 0
M  V30 199 O 20.5422 -2.6767 -0.246228 0
M  V30 200 C 18.8132 -2.78517 2.23971 0
M  V30 201 S 20.3722 -3.6865 2.37997 0
M  V30 202 H 17.1902 -0.530639 0.473226 0
M  V30 203 H 19.7922 -0.915806 1.72723 0
M  V30 204 H 18.4962 -2.4952 3.25835 0
M  V30 205 H 18.0272 -3.46875 1.85584 0
M  V30 206 H 20.0422 -4.70182 1.58567 0
M  V30 207 N 19.2153 -1.21501 -1.00376 0
M  V30 208 C 20.4553 -1.04444 -1.75701 0
M  V30 209 C 20.8193 0.414644 -1.87469 0
M  V30 210 O 22.0203 0.705763 -2.59369 0
M  V30 211 C 20.2913 -1.72389 -3.13077 0
M  V30 212 S 21.8503 -1.70604 -4.04277 0
M  V30 213 H 18.6683 -0.374249 -0.604532 0
M  V30 214 H 21.2703 -1.54267 -1.20091 0
M  V30 215 H 19.9743 -2.77734 -3.02146 0
M  V30 216 H 19.5053 -1.22751 -3.73759 0
M  V30 217 H 21.5203 -0.748012 -4.9053 0
M  V30 218 N 20.6934 1.19889 -1.02296 0
M  V30 219 C 21.9394 1.89973 -0.726759 0
M  V30 220 C 22.2944 1.7776 0.73614 0
M  V30 221 O 21.5874 1.15523 1.52856 0
M  V30 222 C 21.7814 3.39883 -1.10518 0
M  V30 223 C 21.6104 3.66684 -2.60332 0
M  V30 224 C 20.3804 3.85045 -3.27213 0
M  V30 225 C 22.5784 3.68727 -3.58532 0
M  V30 226 N 20.5604 3.99422 -4.66192 0
M  V30 227 C 21.9314 3.88604 -4.83101 0
M  V30 228 C 23.9864 3.51722 -3.52414 0
M  V30 229 C 22.6894 3.9324 -6.02292 0
M  V30 230 C 24.7154 3.57632 -4.71013 0
M  V30 231 C 24.0774 3.77988 -5.94394 0
M  V30 232 H 20.1764 0.714551 -0.317712 0
M  V30 233 H 22.7604 1.44123 -1.30907 0
M  V30 234 H 20.9314 3.8447 -0.551142 0
M  V30 235 H 22.6634 3.97464 -0.761853 0
M  V30 236 H 19.4184 3.83689 -2.77632 0
M  V30 237 H 19.8424 4.10473 -5.38368 0
M  V30 238 H 24.4844 3.34945 -2.58015 0
M  V30 239 H 22.2024 4.08811 -6.97065 0
M  V30 240 H 25.7884 3.45773 -4.67902 0
M  V30 241 H 24.6684 3.82428 -6.8463 0
M  V30 242 N 22.1715 0.800033 1.35784 0
M  V30 243 C 23.1345 0.211565 2.28221 0
M  V30 244 C 24.1345 -0.59728 1.49296 0
M  V30 245 O 25.3245 -0.416721 1.69142 0
M  V30 246 C 22.4565 -0.705846 3.33513 0
M  V30 247 H 23.6495 1.02677 2.81776 0
M  V30 248 H 21.2025 0.570211 1.45528 0
M  V30 249 H 21.9375 -1.54498 2.85133 0
M  V30 250 H 21.7225 -0.127655 3.91892 0
M  V30 251 H 23.2125 -1.11211 4.02519 0
M  V30 252 N 23.6496 -1.47581 0.552962 0
M  V30 253 C 24.8956 -2.02782 0.0273648 0
M  V30 254 C 25.2286 -1.42687 -1.31734 0
M  V30 255 O 24.5036 -0.580897 -1.85623 0
M  V30 256 C 24.7866 -3.60031 -0.0702371 0
M  V30 257 C 24.6396 -4.30566 1.30126 0
M  V30 258 C 25.9586 -4.33028 -0.785771 0
M  V30 259 H 23.0776 -0.736912 0.0114185 0
M  V30 260 H 25.7196 -1.76056 0.714432 0
M  V30 261 H 23.8696 -3.82932 -0.655382 0
M  V30 262 H 25.5416 -4.19018 1.92929 0
M  V30 263 H 23.7846 -3.91086 1.87709 0
M  V30 264 H 24.4556 -5.39114 1.18573 0
M  V30 265 H 26.9316 -4.15095 -0.288982 0
M  V30 266 H 25.8076 -5.42695 -0.823013 0
M  V30 267 H 26.0686 -4.01945 -1.841 0
M  V30 268 N 25.1277 -0.289203 -1.54924 0
M  V30 269 C 26.0907 0.579144 -2.21762 0
M  V30 270 C 27.0907 1.07047 -1.1999 0
M  V30 271 O 28.2807 0.968384 -1.44803 0
M  V30 272 C 25.4127 1.80055 -2.8947 0
M  V30 273 H 26.6057 -0.00464908 -2.999 0
M  V30 274 H 24.1587 -0.0399306 -1.56249 0
M  V30 275 H 24.8937 2.42449 -2.15381 0
M  V30 276 H 24.6787 1.45602 -3.64064 0
M  V30 277 H 26.1687 2.41773 -3.40493 0
M  V30 278 N 26.6058 1.57591 -0.0167156 0
M  V30 279 C 27.8308 1.9598 0.67872 0
M  V30 280 C 28.2558 0.892546 1.65575 0
M  V30 281 O 27.6138 -0.147772 1.80697 0
M  V30 282 C 27.6618 3.33468 1.37227 0
M  V30 283 O 26.7658 3.28954 2.48722 0
M  V30 284 H 26.1068 0.639339 0.17928 0
M  V30 285 H 28.6368 2.04463 -0.0748802 0
M  V30 286 H 28.6468 3.69417 1.7319 0
M  V30 287 H 27.3218 4.10694 0.656007 0
M  V30 288 H 25.8988 3.04705 2.14963 0
M  V30 289 N 28.0839 -0.256276 1.55502 0
M  V30 290 C 29.0469 -1.30047 1.88734 0
M  V30 291 C 30.0469 -1.4154 0.763086 0
M  V30 292 O 31.2369 -1.40403 1.03115 0
M  V30 293 C 28.3689 -2.67953 2.10747 0
M  V30 294 H 29.5619 -1.01802 2.82093 0
M  V30 295 H 27.1149 -0.495134 1.4825 0
M  V30 296 H 27.8499 -3.01351 1.19825 0
M  V30 297 H 27.6349 -2.60993 2.92617 0
M  V30 298 H 29.1249 -3.43368 2.37673 0
M  V30 299 N 29.562 -1.4872 -0.521534 0
M  V30 300 C 30.525 -1.63379 -1.60748 0
M  V30 301 C 31.525 -0.50661 -1.52611 0
M  V30 302 O 32.715 -0.772601 -1.5613 0
M  V30 303 C 29.847 -1.61192 -3.00383 0
M  V30 304 H 31.04 -2.60217 -1.49087 0
M  V30 305 H 28.593 -1.37444 -0.744235 0
M  V30 306 H 29.328 -0.65863 -3.17541 0
M  V30 307 H 29.113 -2.43032 -3.07698 0
M  V30 308 H 30.603 -1.7466 -3.7932 0
M  V30 309 N 31.0401 0.771051 -1.3745 0
M  V30 310 C 31.9871 1.88435 -1.3327 0
M  V30 311 C 32.9571 1.64914 -0.198136 0
M  V30 312 O 34.1421 1.86821 -0.387606 0
M  V30 313 C 31.2821 3.25509 -1.14622 0
M  V30 314 C 30.3951 3.60979 -2.37314 0
M  V30 315 C 29.5301 4.87265 -2.11533 0
M  V30 316 C 28.5691 5.15469 -3.30088 0
M  V30 317 N 27.7061 6.32944 -3.03853 0
M  V30 318 H 32.5461 1.91344 -2.28455 0
M  V30 319 H 30.0831 0.935466 -1.13523 0
M  V30 320 H 32.0411 4.04582 -1.01831 0
M  V30 321 H 30.6711 3.21974 -0.230837 0
M  V30 322 H 29.7231 2.76885 -2.60842 0
M  V30 323 H 31.0351 3.77759 -3.25729 0
M  V30 324 H 30.1891 5.74244 -1.95777 0
M  V30 325 H 28.9281 4.7259 -1.20457 0
M  V30 326 H 27.9331 4.26966 -3.46382 0
M  V30 327 H 29.1581 5.32052 -4.22016 0
M  V30 328 H 27.1041 6.19625 -2.15407 0
M  V30 329 H 27.0211 6.50143 -3.85812 0
M  V30 330 H 28.2891 7.22857 -2.91716 0
M  V30 331 N 32.5182 1.22032 0.997298 0
M  V30 332 C 33.4482 1.01065 2.10495 0
M  V30 333 C 34.4292 -0.0669542 1.69968 0
M  V30 334 O 35.6142 0.0943987 1.9397 0
M  V30 335 C 32.7442 0.582874 3.42374 0
M  V30 336 C 31.6982 1.60592 3.96729 0
M  V30 337 C 31.0242 1.03412 5.24605 0
M  V30 338 C 32.3242 2.99478 4.27914 0
M  V30 339 H 34.0182 1.93708 2.28292 0
M  V30 340 H 31.5642 0.932761 1.09707 0
M  V30 341 H 33.5172 0.423332 4.19268 0
M  V30 342 H 32.2412 -0.379213 3.24391 0
M  V30 343 H 30.9002 1.75316 3.21963 0
M  V30 344 H 30.5482 0.063518 5.0296 0
M  V30 345 H 30.2482 1.71754 5.61938 0
M  V30 346 H 31.7722 0.886066 6.04137 0
M  V30 347 H 33.1862 2.88153 4.95622 0
M  V30 348 H 31.5832 3.64903 4.76409 0
M  V30 349 H 32.6532 3.49742 3.3587 0
M  V30 350 N 33.9963 -1.19345 1.0293 0
M  V30 351 C 35.2443 -1.88665 0.724574 0
M  V30 352 C 35.5653 -1.80036 -0.749144 0
M  V30 353 O 34.8353 -1.2111 -1.53978 0
M  V30 354 H 33.4153 -0.698406 0.265025 0
M  V30 355 H 36.0773 -1.44885 1.30362 0
M  V30 356 H 35.1733 -2.94987 1.01926 0
M  V30 357 N 35.4744 -0.807222 -1.35358 0
M  V30 358 C 36.4374 -0.223665 -2.28106 0
M  V30 359 C 37.4374 0.589354 -1.4961 0
M  V30 360 O 38.6274 0.407745 -1.69361 0
M  V30 361 C 35.7594 0.688149 -3.33882 0
M  V30 362 H 36.9524 -1.04169 -2.81227 0
M  V30 363 H 34.5054 -0.577921 -1.45223 0
M  V30 364 H 35.2404 1.52984 -2.85948 0
M  V30 365 H 35.0254 0.10687 -3.91954 0
M  V30 366 H 36.5154 1.09075 -4.03104 0
M  V30 367 N 36.9525 1.47285 -0.560781 0
M  V30 368 C 38.1985 2.02764 -0.0381184 0
M  V30 369 C 38.5315 1.43384 1.30976 0
M  V30 370 O 37.8065 0.590733 1.85312 0
M  V30 371 C 38.0895 3.60064 0.0511427 0
M  V30 372 C 37.9425 4.2987 -1.32408 0
M  V30 373 C 39.2615 4.33439 0.762795 0
M  V30 374 H 36.3805 0.736841 -0.0153264 0
M  V30 375 H 39.0225 1.75675 -0.723759 0
M  V30 376 H 37.1725 3.83274 0.635065 0
M  V30 377 H 38.8445 4.17989 -1.95148 0
M  V30 378 H 37.0875 3.90085 -1.8978 0
M  V30 379 H 37.7585 5.38478 -1.21431 0
M  V30 380 H 40.2345 4.15243 0.266965 0
M  V30 381 H 39.1105 5.43124 0.794221 0
M  V30 382 H 39.3715 4.02915 1.81966 0
M  V30 383 N 38.4306 0.297415 1.54768 0
M  V30 384 C 39.6606 -0.315165 2.04182 0
M  V30 385 C 40.0686 -1.4834 1.17439 0
M  V30 386 O 39.4116 -1.82695 0.191891 0
M  V30 387 C 39.4736 -0.837583 3.49607 0
M  V30 388 C 39.1376 0.204912 4.5654 0
M  V30 389 C 40.1346 1.03214 5.09552 0
M  V30 390 C 37.8196 0.345578 5.0111 0
M  V30 391 C 39.8136 1.986 6.05671 0
M  V30 392 C 37.5006 1.30289 5.97049 0
M  V30 393 C 38.4986 2.12159 6.49213 0
M  V30 394 O 38.1866 3.06268 7.43273 0
M  V30 395 H 37.9186 -0.0729646 0.672051 0
M  V30 396 H 40.4726 0.433907 2.00765 0
M  V30 397 H 38.7026 -1.63712 3.50336 0
M  V30 398 H 40.3916 -1.36566 3.82236 0
M  V30 399 H 41.1576 0.934312 4.75916 0
M  V30 400 H 37.0366 -0.28171 4.60138 0
M  V30 401 H 40.5806 2.62542 6.46311 0
M  V30 402 H 36.4776 1.40145 6.30103 0
M  V30 403 H 37.2456 3.01205 7.61064 0
M  V30 404 N 39.9087 -1.5758 0.0250728 0
M  V30 405 C 41.1367 -1.9593 -0.664747 0
M  V30 406 C 41.5517 -0.901352 -1.65895 0
M  V30 407 O 40.9087 0.117255 -1.82123 0
M  V30 408 C 40.9597 -3.34342 -1.37468 0
M  V30 409 O 40.6807 -4.36079 -0.420324 0
M  V30 410 C 42.1817 -3.873 -2.1567 0
M  V30 411 H 39.4017 -0.645405 -0.183557 0
M  V30 412 H 41.9457 -2.04329 0.0836372 0
M  V30 413 H 40.1007 -3.27175 -2.0745 0
M  V30 414 H 40.5147 -5.16297 -0.923991 0
M  V30 415 H 41.9887 -4.86504 -2.60803 0
M  V30 416 H 42.4657 -3.21331 -2.99405 0
M  V30 417 H 43.0717 -3.97723 -1.50654 0
M  V30 418 N 41.3868 0.248026 -1.55636 0
M  V30 419 C 42.2968 1.32859 -1.93354 0
M  V30 420 C 43.3128 1.52719 -0.833838 0
M  V30 421 O 44.4888 1.66363 -1.13513 0
M  V30 422 C 41.5538 2.66337 -2.21958 0
M  V30 423 C 40.6148 2.55008 -3.45354 0
M  V30 424 C 39.8478 3.82121 -3.72584 0
M  V30 425 O 40.0708 4.83951 -3.01907 0
M  V30 426 O 39.0048 3.80822 -4.6611 0
M  V30 427 H 42.8308 1.03862 -2.85388 0
M  V30 428 H 40.4158 0.448686 -1.42503 0
M  V30 429 H 42.2978 3.45216 -2.4167 0
M  V30 430 H 40.9728 2.95068 -1.33103 0
M  V30 431 H 39.8798 1.7442 -3.30951 0
M  V30 432 H 41.2128 2.31222 -4.34508 0
M  V30 433 N 42.8649 1.48995 0.513639 0
M  V30 434 C 44.1129 1.57531 1.26604 0
M  V30 435 C 44.4339 0.258236 1.93283 0
M  V30 436 O 43.7039 -0.721502 1.8213 0
M  V30 437 H 42.2839 0.580387 0.470276 0
M  V30 438 H 44.9459 1.85552 0.596373 0
M  V30 439 H 44.0419 2.36486 2.03669 0
M  V30 440 N 44.343 -0.763751 1.37857 0
M  V30 441 C 45.591 -1.51957 1.33243 0
M  V30 442 C 45.912 -1.94835 -0.0801709 0
M  V30 443 O 45.182 -1.66894 -1.02582 0
M  V30 444 H 43.762 -0.563626 0.49024 0
M  V30 445 H 46.424 -0.908504 1.7243 0
M  V30 446 H 45.52 -2.41523 1.97669 0
M  V30 447 N 45.8211 -1.22559 -0.990812 0
M  V30 448 C 47.0681 -1.05141 -1.73065 0
M  V30 449 C 47.3961 0.413191 -1.9006 0
M  V30 450 O 46.6511 1.32257 -1.44245 0
M  V30 451 C 46.9501 -1.71011 -3.13831 0
M  V30 452 C 46.6161 -3.20911 -3.16745 0
M  V30 453 C 45.2781 -3.61812 -3.17247 0
M  V30 454 C 47.6301 -4.16846 -3.12872 0
M  V30 455 C 44.9581 -4.97127 -3.1158 0
M  V30 456 C 47.3101 -5.5214 -3.08746 0
M  V30 457 C 45.9741 -5.92419 -3.07565 0
M  V30 458 H 45.2441 -0.384738 -0.633291 0
M  V30 459 H 47.8911 -1.5235 -1.16025 0
M  V30 460 H 46.1961 -1.16133 -3.74193 0
M  V30 461 H 47.8931 -1.55023 -3.69823 0
M  V30 462 H 44.4831 -2.88344 -3.17105 0
M  V30 463 H 48.6671 -3.86263 -3.11632 0
M  V30 464 H 43.9231 -5.27562 -3.09012 0
M  V30 465 H 48.0971 -6.26201 -3.04705 0
M  V30 466 H 45.7241 -6.97236 -3.02929 0
M  V30 467 N 47.2992 1.18797 -1.03562 0
M  V30 468 C 48.5452 1.8893 -0.737113 0
M  V30 469 C 48.8782 1.79837 0.732956 0
M  V30 470 O 48.1532 1.19525 1.5344 0
M  V30 471 C 48.4362 3.39607 -1.19745 0
M  V30 472 C 48.2892 3.57537 -2.72924 0
M  V30 473 C 49.6082 4.33069 -0.783526 0
M  V30 474 H 46.7272 0.686057 -0.269249 0
M  V30 475 H 49.3692 1.39797 -1.28673 0
M  V30 476 H 47.5192 3.81583 -0.729855 0
M  V30 477 H 49.1912 3.24688 -3.27682 0
M  V30 478 H 47.4342 3.00363 -3.12993 0
M  V30 479 H 48.1052 4.63238 -3.00191 0
M  V30 480 H 50.5812 3.98846 -1.18581 0
M  V30 481 H 49.4572 5.3707 -1.13343 0
M  V30 482 H 49.7182 4.40986 0.313681 0
M  V30 483 N 48.7773 0.814389 1.34928 0
M  V30 484 C 49.6873 0.231978 2.3345 0
M  V30 485 C 50.7033 -0.629139 1.62228 0
M  V30 486 O 51.8793 -0.539052 1.94052 0
M  V30 487 C 48.9443 -0.603482 3.41407 0
M  V30 488 C 48.0053 0.279037 4.28392 0
M  V30 489 C 47.2383 -0.516643 5.31193 0
M  V30 490 O 47.4613 -1.75068 5.4287 0
M  V30 491 O 46.3953 0.0965652 6.01823 0
M  V30 492 H 50.2213 1.04721 2.85074 0
M  V30 493 H 47.8063 0.576343 1.37836 0
M  V30 494 H 49.6883 -1.07908 4.0735 0
M  V30 495 H 48.3633 -1.39618 2.92042 0
M  V30 496 H 47.2703 0.801948 3.65403 0
M  V30 497 H 48.6033 1.03588 4.81176 0
M  V30 498 N 50.2554 -1.46986 0.568584 0
M  V30 499 C 51.5034 -2.02041 0.0487022 0
M  V30 500 C 51.8244 -1.44408 -1.31039 0
M  V30 501 O 51.0944 -0.623477 -1.85714 0
M  V30 502 H 49.6744 -0.746849 0.015014 0
M  V30 503 H 52.3364 -1.80257 0.741168 0
M  V30 504 H 51.4324 -3.12085 -0.0308961 0
M  V30 505 N 51.7335 -0.305618 -1.54608 0
M  V30 506 C 52.9795 0.302746 -2.00528 0
M  V30 507 C 53.3125 1.53184 -1.19367 0
M  V30 508 O 52.5875 1.92598 -0.271321 0
M  V30 509 C 52.8705 0.654756 -3.54097 0
M  V30 510 C 52.7235 -0.583793 -4.45995 0
M  V30 511 C 54.0425 1.47947 -4.14487 0
M  V30 512 H 51.1615 0.108564 -0.72896 0
M  V30 513 H 53.8035 -0.418634 -1.85331 0
M  V30 514 H 51.9535 1.26935 -3.67178 0
M  V30 515 H 53.6255 -1.22224 -4.44814 0
M  V30 516 H 51.8685 -1.21615 -4.16404 0
M  V30 517 H 52.5395 -0.293287 -5.5122 0
M  V30 518 H 55.0155 0.96013 -4.04871 0
M  V30 519 H 53.8915 1.69454 -5.22088 0
M  V30 520 H 54.1525 2.47011 -3.66658 0
M  V30 521 N 53.2116 1.57565 -0.0334293 0
M  V30 522 C 54.1596 2.1164 0.96496 0
M  V30 523 C 55.1536 1.04398 1.33407 0
M  V30 524 O 56.3596 1.22828 1.3158 0
M  V30 525 H 52.7346 0.676222 0.32898 0
M  V30 526 H 54.7056 2.94455 0.483614 0
M  V30 527 C 53.4546 2.66207 2.23672 0
M  V30 528 H 52.7776 3.48378 1.96145 0
M  V30 529 H 54.2176 3.07685 2.9173 0
M  V30 530 C 52.6766 1.59151 2.96939 0
M  V30 531 O 53.2066 0.993858 3.89211 0
M  V30 532 N 51.4126 1.31093 2.59351 0
M  V30 533 H 50.9596 1.7988 1.84393 0
M  V30 534 H 50.9176 0.596889 3.08682 0
M  V30 535 N 54.6897 -0.239769 1.55765 0
M  V30 536 C 55.6367 -1.29696 1.90913 0
M  V30 537 C 56.6067 -1.47478 0.764164 0
M  V30 538 O 57.7917 -1.61345 1.01845 0
M  V30 539 C 54.9317 -2.64598 2.21544 0
M  V30 540 C 54.0447 -2.54765 3.48882 0
M  V30 541 C 53.1797 -3.82069 3.69049 0
M  V30 542 C 52.2187 -3.66883 4.89963 0
M  V30 543 N 51.3557 -4.86094 5.06614 0
M  V30 544 H 56.1957 -0.990224 2.81067 0
M  V30 545 H 53.7327 -0.477684 1.39128 0
M  V30 546 H 55.6907 -3.43132 2.3731 0
M  V30 547 H 54.3207 -2.93405 1.34585 0
M  V30 548 H 53.3727 -1.67763 3.41409 0
M  V30 549 H 54.6847 -2.39457 4.37563 0
M  V30 550 H 53.8387 -4.69046 3.84812 0
M  V30 551 H 52.5777 -4.00282 2.78614 0
M  V30 552 H 51.5827 -2.78289 4.74168 0
M  V30 553 H 52.8077 -3.50157 5.81865 0
M  V30 554 H 50.7537 -5.04655 4.19117 0
M  V30 555 H 50.6707 -4.73443 5.89396 0
M  V30 556 H 51.9387 -5.74549 5.26795 0
M  V30 557 N 56.1678 -1.49265 -0.50573 0
M  V30 558 C 57.1148 -1.65585 -1.6078 0
M  V30 559 C 58.0848 -0.497396 -1.58478 0
M  V30 560 O 59.2698 -0.72385 -1.76536 0
M  V30 561 C 56.4098 -1.72408 -2.98948 0
M  V30 562 C 55.5228 -2.99525 -3.11301 0
M  V30 563 C 54.6578 -2.97356 -4.40174 0
M  V30 564 C 53.6968 -4.19074 -4.46143 0
M  V30 565 N 52.8338 -4.14841 -5.66437 0
M  V30 566 H 57.6738 -2.59688 -1.46172 0
M  V30 567 H 55.2108 -1.28761 -0.711261 0
M  V30 568 H 57.1688 -1.74344 -3.79025 0
M  V30 569 H 55.7988 -0.817753 -3.1227 0
M  V30 570 H 54.8508 -3.07222 -2.24318 0
M  V30 571 H 56.1628 -3.89518 -3.11572 0
M  V30 572 H 55.3168 -2.97829 -5.28567 0
M  V30 573 H 54.0558 -2.05133 -4.42461 0
M  V30 574 H 53.0608 -4.1885 -3.56153 0
M  V30 575 H 54.2858 -5.12483 -4.45575 0
M  V30 576 H 52.2318 -3.25453 -5.69575 0
M  V30 577 H 52.1488 -4.98564 -5.68304 0
M  V30 578 H 53.4168 -4.1941 -6.57051 0
M  V30 579 N 57.6459 0.756429 -1.3826 0
M  V30 580 C 58.5759 1.88374 -1.37976 0
M  V30 581 C 59.5569 1.68311 -0.246082 0
M  V30 582 O 60.7419 1.88944 -0.44874 0
M  V30 583 C 57.8719 3.25864 -1.20125 0
M  V30 584 C 56.8259 3.60523 -2.30666 0
M  V30 585 C 56.1519 4.9672 -1.97923 0
M  V30 586 C 57.4519 3.65692 -3.72916 0
M  V30 587 H 59.1459 1.88869 -2.32312 0
M  V30 588 H 56.6919 0.907272 -1.11824 0
M  V30 589 H 58.6449 4.0438 -1.18552 0
M  V30 590 H 57.3689 3.25841 -0.222498 0
M  V30 591 H 56.0279 2.84324 -2.3142 0
M  V30 592 H 55.6759 4.93253 -0.985393 0
M  V30 593 H 55.3759 5.20878 -2.71955 0
M  V30 594 H 56.8999 5.77618 -1.97964 0
M  V30 595 H 58.3139 4.34328 -3.74208 0
M  V30 596 H 56.7109 4.01358 -4.4613 0
M  V30 597 H 57.7809 2.65987 -4.05436 0
M  V30 598 N 59.124 1.23083 0.984299 0
M  V30 599 C 60.372 1.05848 1.72165 0
M  V30 600 C 60.693 -0.406049 1.90726 0
M  V30 601 O 59.963 -1.29139 1.47309 0
M  V30 602 H 58.543 0.388685 0.637913 0
M  V30 603 H 61.205 1.54736 1.18503 0
M  V30 604 H 60.301 1.54327 2.71274 0
M  V30 605 N 60.6021 -1.18246 1.0419 0
M  V30 606 C 61.5321 -2.24127 0.654914 0
M  V30 607 C 62.5131 -1.66617 -0.342451 0
M  V30 608 O 63.6981 -1.92924 -0.222277 0
M  V30 609 C 60.8281 -3.47295 0.0183757 0
M  V30 610 C 59.7821 -4.17563 0.939414 0
M  V30 611 C 59.1081 -5.34438 0.167286 0
M  V30 612 C 60.4081 -4.70917 2.25908 0
M  V30 613 H 62.1021 -2.56753 1.54007 0
M  V30 614 H 59.6481 -1.23414 0.74195 0
M  V30 615 H 61.6011 -4.20572 -0.264082 0
M  V30 616 H 60.3251 -3.13907 -0.901664 0
M  V30 617 H 58.9841 -3.46186 1.20628 0
M  V30 618 H 58.6321 -4.97298 -0.7552 0
M  V30 619 H 58.3321 -5.82388 0.780901 0
M  V30 620 H 59.8561 -6.10504 -0.108125 0
M  V30 621 H 61.2701 -5.35882 2.03724 0
M  V30 622 H 59.6671 -5.29406 2.82577 0
M  V30 623 H 60.7371 -3.88272 2.9047 0
M  V30 624 N 62.0802 -0.821533 -1.34494 0
M  V30 625 C 63.0102 -0.257138 -2.3208 0
M  V30 626 C 63.9912 0.625645 -1.58176 0
M  V30 627 O 65.1762 0.552811 -1.86166 0
M  V30 628 C 62.3062 0.582958 -3.42372 0
M  V30 629 C 61.2602 -0.202571 -4.2752 0
M  V30 630 C 60.5862 0.760179 -5.29269 0
M  V30 631 C 61.8862 -1.40998 -5.02908 0
M  V30 632 H 63.5802 -1.07247 -2.79532 0
M  V30 633 H 61.1262 -0.517163 -1.34393 0
M  V30 634 H 63.0792 0.987972 -4.09655 0
M  V30 635 H 61.8032 1.43133 -2.93565 0
M  V30 636 H 60.4622 -0.588936 -3.61838 0
M  V30 637 H 60.1102 1.60447 -4.76724 0
M  V30 638 H 59.8102 0.238809 -5.87115 0
M  V30 639 H 61.3342 1.16308 -5.9942 0
M  V30 640 H 62.7482 -1.07905 -5.63054 0
M  V30 641 H 61.1452 -1.86689 -5.70322 0
M  V30 642 H 62.2152 -2.1889 -4.32684 0
M  V30 643 N 63.5583 1.46682 -0.576371 0
M  V30 644 C 64.8063 2.02013 -0.0594163 0
M  V30 645 C 65.1273 1.45101 1.30271 0
M  V30 646 O 64.3973 0.633317 1.8538 0
M  V30 647 H 62.9773 0.746759 -0.0189745 0
M  V30 648 H 65.6393 1.79862 -0.750717 0
M  V30 649 H 64.7353 3.12097 0.014345 0
M  V30 650 N 65.0364 0.313813 1.54444 0
M  V30 651 C 66.3134 -0.345447 1.92525 0
M  V30 652 C 66.6934 -1.70667 1.24242 0
M  V30 653 O 66.0414 -2.25273 0.382654 0
M  V30 654 C 66.2514 -0.44737 3.46121 0
M  V30 655 C 67.5994 -0.712238 4.18584 0
M  V30 656 O 68.6234 -0.530678 3.52225 0
M  V30 657 O 67.4824 -1.06183 5.36085 0
M  V30 658 H 64.5764 -0.195407 0.803583 0
M  V30 659 H 67.1224 0.362813 1.65776 0
M  V30 660 H 65.8944 0.509043 3.87975 0
M  V30 661 H 65.5174 -1.20359 3.78945 0
M  V30 662 N 66.5145 -1.57545 0.0417849 0
M  V30 663 C 67.7395 -1.97035 -0.647455 0
M  V30 664 C 68.1645 -0.918775 -1.64135 0
M  V30 665 O 67.5225 0.119006 -1.80909 0
M  V30 666 C 67.5705 -3.35609 -1.31905 0
M  V30 667 O 66.6745 -3.3287 -2.43457 0
M  V30 668 H 66.0155 -0.64211 -0.169086 0
M  V30 669 H 68.5455 -2.04318 0.107399 0
M  V30 670 H 68.5555 -3.72126 -1.67291 0
M  V30 671 H 67.2305 -4.11685 -0.590586 0
M  V30 672 H 65.8075 -3.08087 -2.10088 0
M  V30 673 N 67.9926 0.231505 -1.5589 0
M  V30 674 C 69.2386 0.95877 -1.78705 0
M  V30 675 C 69.5716 1.8438 -0.609725 0
M  V30 676 O 68.8466 1.90521 0.391426 0
M  V30 677 C 69.1296 1.8062 -3.11526 0
M  V30 678 C 68.9826 0.948328 -4.39689 0
M  V30 679 C 70.3016 2.78585 -3.40703 0
M  V30 680 H 67.4206 0.347129 -0.650131 0
M  V30 681 H 70.0626 0.228259 -1.88624 0
M  V30 682 H 68.2126 2.42902 -3.03201 0
M  V30 683 H 69.8846 0.343016 -4.60023 0
M  V30 684 H 68.1276 0.253314 -4.3306 0
M  V30 685 H 68.7986 1.57543 -5.29041 0
M  V30 686 H 71.2746 2.26439 -3.49091 0
M  V30 687 H 70.1506 3.34988 -4.34826 0
M  V30 688 H 70.4116 3.55825 -2.62375 0
M  V30 689 N 69.4707 1.49531 0.497807 0
M  V30 690 C 70.7477 1.49682 1.25915 0
M  V30 691 C 71.1277 0.226339 2.09883 0
M  V30 692 O 70.4757 -0.791189 2.14365 0
M  V30 693 C 70.6857 2.77755 2.11313 0
M  V30 694 C 72.0337 3.27371 2.70395 0
M  V30 695 O 73.0577 2.78894 2.21578 0
M  V30 696 O 71.9167 4.11808 3.59272 0
M  V30 697 H 69.0107 0.599228 0.56996 0
M  V30 698 H 71.5567 1.61798 0.511816 0
M  V30 699 H 70.3287 3.61713 1.49264 0
M  V30 700 H 69.9517 2.68515 2.93233 0
M  V30 701 N 70.9488 -0.749086 1.3866 0
M  V30 702 C 72.1978 -1.50371 1.3443 0
M  V30 703 C 72.5108 -1.95503 -0.0616397 0
M  V30 704 O 73.7168 -2.70554 -0.226489 0
M  V30 705 C 72.1728 -2.71644 2.36088 0
M  V30 706 C 71.7808 -2.3352 3.82325 0
M  V30 707 C 73.5248 -3.49518 2.40909 0
M  V30 708 C 71.4318 -3.51431 4.75658 0
M  V30 709 H 70.3618 -0.564628 0.499712 0
M  V30 710 H 73.0128 -0.818449 1.64237 0
M  V30 711 H 71.3948 -3.42175 1.9933 0
M  V30 712 H 72.5688 -1.70627 4.28046 0
M  V30 713 H 70.8838 -1.6877 3.80665 0
M  V30 714 H 73.4808 -4.37197 3.07836 0
M  V30 715 H 73.8238 -3.90992 1.42937 0
M  V30 716 H 74.3568 -2.86005 2.76489 0
M  V30 717 H 71.0958 -3.15019 5.74842 0
M  V30 718 H 70.6158 -4.13352 4.34627 0
M  V30 719 H 72.2948 -4.17953 4.93887 0
M  V30 720 N 72.4269 -1.23603 -0.977757 0
M  V30 721 C 73.6739 -1.06971 -1.71941 0
M  V30 722 C 74.0019 0.393009 -1.90488 0
M  V30 723 O 73.2569 1.30719 -1.4564 0
M  V30 724 C 73.5559 -1.7433 -3.11999 0
M  V30 725 C 73.2219 -3.24252 -3.13323 0
M  V30 726 C 71.8839 -3.65156 -3.13392 0
M  V30 727 C 74.2359 -4.20141 -3.08433 0
M  V30 728 C 71.5639 -5.00403 -3.0629 0
M  V30 729 C 73.9159 -5.55384 -3.02873 0
M  V30 730 C 72.5799 -5.95647 -3.01265 0
M  V30 731 H 71.8499 -0.391433 -0.629175 0
M  V30 732 H 74.4969 -1.53572 -1.14403 0
M  V30 733 H 72.8019 -1.20096 -3.7294 0
M  V30 734 H 74.4989 -1.58936 -3.68158 0
M  V30 735 H 71.0889 -2.91692 -3.14029 0
M  V30 736 H 75.2729 -3.89547 -3.07517 0
M  V30 737 H 70.5289 -5.3081 -3.03399 0
M  V30 738 H 74.7029 -6.29398 -2.98046 0
M  V30 739 H 72.3299 -7.0041 -2.95516 0
M  V30 740 N 73.905 1.17692 -1.04816 0
M  V30 741 C 74.852 2.21581 -0.645797 0
M  V30 742 C 75.822 1.62367 0.350159 0
M  V30 743 O 77.007 1.89254 0.242433 0
M  V30 744 C 74.147 3.45092 -0.0227568 0
M  V30 745 C 73.26 4.18613 -1.06709 0
M  V30 746 C 72.395 5.29602 -0.411767 0
M  V30 747 C 71.434 5.94904 -1.44067 0
M  V30 748 N 70.571 6.97414 -0.809781 0
M  V30 749 H 75.411 2.55353 -1.5362 0
M  V30 750 H 72.948 1.25438 -0.768364 0
M  V30 751 H 74.906 4.15679 0.35588 0
M  V30 752 H 73.536 3.11917 0.831122 0
M  V30 753 H 72.588 3.46779 -1.5636 0
M  V30 754 H 73.9 4.63293 -1.84827 0
M  V30 755 H 73.054 6.06696 0.0206623 0
M  V30 756 H 71.793 4.86045 0.401438 0
M  V30 757 H 70.798 5.16544 -1.88316 0
M  V30 758 H 72.023 6.40542 -2.25571 0
M  V30 759 H 69.969 6.55998 -0.0170186 0
M  V30 760 H 69.886 7.40386 -1.52856 0
M  V30 761 H 71.154 7.78463 -0.401999 0
M  V30 762 N 75.3831 0.828654 1.34056 0
M  V30 763 C 76.6311 0.41863 1.97717 0
M  V30 764 C 76.9521 -1.02314 1.66002 0
M  V30 765 O 76.2221 -1.71119 0.953683 0
M  V30 766 H 74.8021 0.151809 0.731412 0
M  V30 767 H 77.4641 1.05936 1.63596 0
M  V30 768 H 76.5601 0.542318 3.07352 0
M  V30 769 N 76.8612 -1.46375 0.584142 0
M  V30 770 C 78.1102 -2.01585 0.0679741 0
M  V30 771 C 78.4232 -1.46109 -1.30045 0
M  V30 772 O 79.6292 -1.93148 -1.90804 0
M  V30 773 C 78.0852 -3.5983 0.0709207 0
M  V30 774 C 77.6932 -4.24303 1.43775 0
M  V30 775 C 79.4372 -4.22693 -0.391228 0
M  V30 776 C 77.3442 -5.74631 1.39834 0
M  V30 777 H 76.2742 -0.753689 0.0216421 0
M  V30 778 H 78.9252 -1.68093 0.736001 0
M  V30 779 H 77.3072 -3.90405 -0.663299 0
M  V30 780 H 78.4812 -4.05335 2.19181 0
M  V30 781 H 76.7962 -3.73539 1.84004 0
M  V30 782 H 79.3932 -5.3289 -0.439524 0
M  V30 783 H 79.7362 -3.91728 -1.40906 0
M  V30 784 H 80.2692 -3.96749 0.288974 0
M  V30 785 H 77.0082 -6.10258 2.39303 0
M  V30 786 H 76.5282 -5.95858 0.686505 0
M  V30 787 H 78.2072 -6.37375 1.11187 0
M  V30 788 N 78.3393 -0.321999 -1.54275 0
M  V30 789 C 79.7503 0.166384 -1.85957 0
M  V30 790 C 80.1013 1.51747 -1.24367 0
M  V30 791 O 79.2263 2.09317 -0.549124 0
M  V30 792 C 79.8213 0.308681 -3.37391 0
M  V30 793 C 78.3803 0.741286 -3.69028 0
M  V30 794 C 77.5273 -0.137937 -2.76957 0
M  V30 795 H 80.4783 -0.542335 -1.49146 0
M  V30 796 H 80.4993 1.13984 -3.63026 0
M  V30 797 H 80.0113 -0.674809 -3.82188 0
M  V30 798 H 78.1123 1.73458 -3.29762 0
M  V30 799 H 78.2253 0.546118 -4.75977 0
M  V30 800 H 76.5893 0.386251 -2.51754 0
M  V30 801 H 77.3723 -1.11816 -3.2458 0
M  V30 802 N 79.8174 1.5752 -0.0501392 0
M  V30 803 C 81.0644 1.9265 0.623874 0
M  V30 804 C 81.3924 0.928411 1.70912 0
M  V30 805 O 80.6474 -0.0594525 1.9561 0
M  V30 806 C 80.9464 3.34467 1.25963 0
M  V30 807 C 80.6124 4.49883 0.302689 0
M  V30 808 C 79.2744 4.81184 0.0393636 0
M  V30 809 C 81.6264 5.20002 -0.353205 0
M  V30 810 C 78.9544 5.79951 -0.887308 0
M  V30 811 C 81.3064 6.1976 -1.26806 0
M  V30 812 C 79.9704 6.49491 -1.54007 0
M  V30 813 H 79.2404 0.704957 0.228292 0
M  V30 814 H 81.8874 1.91146 -0.116398 0
M  V30 815 H 80.1924 3.32333 2.07514 0
M  V30 816 H 81.8894 3.58928 1.78806 0
M  V30 817 H 78.4794 4.25457 0.518109 0
M  V30 818 H 82.6634 4.96033 -0.162854 0
M  V30 819 H 77.9194 6.01322 -1.10553 0
M  V30 820 H 82.0934 6.73205 -1.78236 0
M  V30 821 H 79.7204 7.25837 -2.25976 0
M  V30 822 N 81.2955 -0.223234 1.56011 0
M  V30 823 C 82.2585 -1.26014 1.9145 0
M  V30 824 C 83.2585 -1.3989 0.792937 0
M  V30 825 O 84.4485 -1.38184 1.0607 0
M  V30 826 C 81.5805 -2.63422 2.16383 0
M  V30 827 H 82.7735 -0.95796 2.84189 0
M  V30 828 H 80.3265 -0.463576 1.49267 0
M  V30 829 H 81.0615 -2.98741 1.2619 0
M  V30 830 H 80.8465 -2.54728 2.98088 0
M  V30 831 H 82.3365 -3.38249 2.44903 0
M  V30 832 N 82.7736 -1.49793 -0.48987 0
M  V30 833 C 83.7366 -1.66752 -1.57246 0
M  V30 834 C 84.7366 -0.538867 -1.51502 0
M  V30 835 O 85.9266 -0.805545 -1.54456 0
M  V30 836 C 83.0586 -1.67528 -2.96896 0
M  V30 837 H 84.2516 -2.63321 -1.43534 0
M  V30 838 H 81.8046 -1.38992 -0.714914 0
M  V30 839 H 82.5396 -0.725837 -3.16073 0
M  V30 840 H 82.3246 -2.49504 -3.02473 0
M  V30 841 H 83.8146 -1.82667 -3.7553 0
M  V30 842 N 84.2517 0.741722 -1.39055 0
M  V30 843 C 85.6627 1.31966 -1.32068 0
M  V30 844 C 86.0137 1.96192 0.0180797 0
M  V30 845 O 85.1387 1.95861 0.920196 0
M  V30 846 C 85.7337 2.39954 -2.39181 0
M  V30 847 C 84.2927 2.93438 -2.35735 0
M  V30 848 C 83.4397 1.66936 -2.21422 0
M  V30 849 H 86.3907 0.539721 -1.4924 0
M  V30 850 H 86.4117 3.20182 -2.05581 0
M  V30 851 H 85.9237 1.9318 -3.36605 0
M  V30 852 H 84.0247 3.4451 -1.41929 0
M  V30 853 H 84.1377 3.4701 -3.30335 0
M  V30 854 H 82.5017 1.91016 -1.68478 0
M  V30 855 H 83.2847 1.22224 -3.20806 0
M  V30 856 N 85.7298 1.2412 0.971189 0
M  V30 857 C 86.9578 1.10575 1.74874 0
M  V30 858 C 87.3728 -0.342017 1.85676 0
M  V30 859 O 86.7298 -1.23617 1.34258 0
M  V30 860 C 86.7808 1.73579 3.171 0
M  V30 861 O 86.5018 3.12695 3.06844 0
M  V30 862 C 88.0028 1.65598 4.11208 0
M  V30 863 H 85.2228 0.386504 0.548503 0
M  V30 864 H 87.7668 1.64156 1.21955 0
M  V30 865 H 85.9218 1.24009 3.67016 0
M  V30 866 H 86.3358 3.43412 3.96445 0
M  V30 867 H 87.8098 2.1437 5.08674 0
M  V30 868 H 88.2868 0.616532 4.34851 0
M  V30 869 H 88.8928 2.14578 3.67201 0
M  V30 870 N 87.2079 -1.17134 1.05439 0
M  V30 871 C 88.1549 -2.21235 0.657539 0
M  V30 872 C 89.1249 -1.62551 -0.341543 0
M  V30 873 O 90.3099 -1.89379 -0.232393 0
M  V30 874 C 87.4499 -3.45076 0.0410575 0
M  V30 875 C 86.5629 -4.18042 1.08927 0
M  V30 876 C 85.6979 -5.29376 0.439848 0
M  V30 877 C 84.7369 -5.94132 1.4722 0
M  V30 878 N 83.8739 -6.96975 0.846756 0
M  V30 879 H 88.7139 -2.54534 1.54972 0
M  V30 880 H 86.2509 -1.25028 0.775006 0
M  V30 881 H 88.2089 -4.15862 -0.33383 0
M  V30 882 H 86.8389 -3.12353 -0.814568 0
M  V30 883 H 85.8909 -3.45945 1.58196 0
M  V30 884 H 87.2029 -4.62306 1.87282 0
M  V30 885 H 86.3569 -6.06699 0.0115125 0
M  V30 886 H 85.0959 -4.86251 -0.375656 0
M  V30 887 H 84.1009 -5.15538 1.91052 0
M  V30 888 H 85.3259 -6.39337 2.28965 0
M  V30 889 H 83.2719 -6.5598 0.0518075 0
M  V30 890 H 83.1889 -7.39565 1.5678 0
M  V30 891 H 84.4569 -7.78239 0.443277 0
M  V30 892 N 88.686 -0.835752 -1.33615 0
M  V30 893 C 89.649 -0.272 -2.2758 0
M  V30 894 C 90.649 0.557487 -1.50827 0
M  V30 895 O 91.839 0.37173 -1.70188 0
M  V30 896 C 88.971 0.617173 -3.35267 0
M  V30 897 H 90.164 -1.10111 -2.78954 0
M  V30 898 H 87.717 -0.608594 -1.43965 0
M  V30 899 H 88.452 1.46884 -2.89129 0
M  V30 900 H 88.237 0.0237066 -3.92093 0
M  V30 901 H 89.727 1.005 -4.05326 0
M  V30 902 N 90.1641 1.46063 -0.591896 0
M  V30 903 C 91.0941 2.33172 0.123673 0
M  V30 904 C 92.0751 1.45897 0.87453 0
M  V30 905 O 93.2601 1.74698 0.848181 0
M  V30 906 C 90.3901 3.28336 1.13194 0
M  V30 907 C 89.3441 4.25124 0.495324 0
M  V30 908 C 88.6701 5.09863 1.61071 0
M  V30 909 C 89.9701 5.19143 -0.573425 0
M  V30 910 H 91.6641 2.93252 -0.603646 0
M  V30 911 H 89.2101 1.41014 -0.291741 0
M  V30 912 H 91.1631 3.88137 1.64097 0
M  V30 913 H 89.8871 2.66383 1.88965 0
M  V30 914 H 88.5461 3.66599 0.00729452 0
M  V30 915 H 88.1941 4.44288 2.35832 0
M  V30 916 H 87.8941 5.75417 1.19035 0
M  V30 917 H 89.4181 5.72529 2.12233 0
M  V30 918 H 90.8321 5.73106 -0.1491 0
M  V30 919 H 89.2291 5.93089 -0.914636 0
M  V30 920 H 90.2991 4.62519 -1.45617 0
M  V30 921 N 91.6422 0.330177 1.54103 0
M  V30 922 C 92.5522 -0.541534 2.28264 0
M  V30 923 C 93.5682 -1.12351 1.32866 0
M  V30 924 O 94.7442 -1.14206 1.65888 0
M  V30 925 C 91.8092 -1.68322 3.03098 0
M  V30 926 C 90.8702 -1.13238 4.14096 0
M  V30 927 C 90.1032 -2.21966 4.85352 0
M  V30 928 O 90.3262 -3.42437 4.56172 0
M  V30 929 O 89.2602 -1.87013 5.7211 0
M  V30 930 H 93.0862 0.060938 3.03639 0
M  V30 931 H 90.6712 0.09565 1.49093 0
M  V30 932 H 92.5532 -2.34777 3.49939 0
M  V30 933 H 91.2282 -2.27176 2.30593 0
M  V30 934 H 90.1352 -0.432736 3.71589 0
M  V30 935 H 91.4682 -0.588898 4.88664 0
M  V30 936 N 93.1203 -1.57491 0.0584922 0
M  V30 937 C 94.0683 -2.13148 -0.931168 0
M  V30 938 C 95.0623 -1.06507 -1.31729 0
M  V30 939 O 96.2683 -1.24906 -1.29609 0
M  V30 940 H 92.6433 -0.68137 -0.31818 0
M  V30 941 H 94.6143 -2.95187 -0.436707 0
M  V30 942 C 93.3633 -2.69732 -2.19408 0
M  V30 943 H 92.6863 -3.51454 -1.90578 0
M  V30 944 H 94.1263 -3.12287 -2.86798 0
M  V30 945 C 92.5853 -1.63855 -2.94369 0
M  V30 946 O 93.1153 -1.05565 -3.87581 0
M  V30 947 N 91.3213 -1.35202 -2.57233 0
M  V30 948 H 90.8683 -1.82791 -1.81508 0
M  V30 949 H 90.8263 -0.645922 -3.07693 0
M  V30 950 N 94.5984 0.214957 -1.56127 0
M  V30 951 C 96.0094 0.781386 -1.69562 0
M  V30 952 C 96.3604 1.84707 -0.66165 0
M  V30 953 O 95.4854 2.156 0.185927 0
M  V30 954 C 96.0804 1.42411 -3.07416 0
M  V30 955 C 94.6394 1.93786 -3.22683 0
M  V30 956 C 93.7864 0.800438 -2.65496 0
M  V30 957 H 96.7374 -0.00980633 -1.58697 0
M  V30 958 H 96.7584 2.29309 -3.0364 0
M  V30 959 H 96.2704 0.64826 -3.82648 0
M  V30 960 H 94.3714 2.74152 -2.52332 0
M  V30 961 H 94.4844 2.1133 -4.29973 0
M  V30 962 H 92.8484 1.2095 -2.2415 0
M  V30 963 H 93.6314 0.0371471 -3.4328 0
M  V30 964 N 96.0765 1.50051 0.48192 0
M  V30 965 C 97.0085 1.64263 1.59844 0
M  V30 966 C 98.0215 0.52451 1.54119 0
M  V30 967 O 99.2105 0.797293 1.59704 0
M  V30 968 C 96.3105 1.60102 2.98698 0
M  V30 969 C 95.4835 2.87767 3.29407 0
M  V30 970 C 94.5425 2.76397 4.47762 0
M  V30 971 O 93.5685 3.50348 4.48603 0
M  V30 972 N 94.7705 1.89222 5.48794 0
M  V30 973 H 97.5355 2.60566 1.48073 0
M  V30 974 H 95.0965 1.47379 0.670149 0
M  V30 975 H 97.0885 1.50123 3.75826 0
M  V30 976 H 95.6585 0.715798 3.04294 0
M  V30 977 H 94.8785 3.11954 2.40994 0
M  V30 978 H 96.1665 3.72365 3.4673 0
M  V30 979 H 95.5645 1.28434 5.50928 0
M  V30 980 H 94.1215 1.85154 6.24949 0
M  V30 981 N 97.5546 -0.734337 1.39446 0
M  V30 982 C 98.9656 -1.31264 1.32766 0
M  V30 983 C 99.3166 -1.96198 -0.00767497 0
M  V30 984 O 98.4416 -1.96346 -0.909796 0
M  V30 985 C 99.0366 -2.38682 2.4045 0
M  V30 986 C 97.5956 -2.92184 2.37288 0
M  V30 987 C 96.7426 -1.6576 2.22304 0
M  V30 988 H 99.6936 -0.531799 1.49525 0
M  V30 989 H 99.7146 -3.19087 2.07276 0
M  V30 990 H 99.2266 -1.91392 3.37625 0
M  V30 991 H 97.3276 -3.43752 1.43754 0
M  V30 992 H 97.4406 -3.45253 3.3217 0
M  V30 993 H 95.8046 -1.9012 1.69489 0
M  V30 994 H 96.5876 -1.20521 3.21449 0
M  V30 995 N 99.0327 -1.24633 -0.964593 0
M  V30 996 C 99.9827 -1.00841 -2.04487 0
M  V30 997 C 100.967 0.0512468 -1.60818 0
M  V30 998 O 102.159 -0.162865 -1.76249 0
M  V30 999 C 99.2877 -0.618474 -3.37683 0
M  V30 1000 C 98.3737 -1.71437 -3.87905 0
M  V30 1001 N 98.7647 -2.9477 -4.11029 0
M  V30 1002 C 97.0627 -1.5926 -4.16596 0
M  V30 1003 C 97.7637 -3.65834 -4.52261 0
M  V30 1004 N 96.7397 -2.9341 -4.57615 0
M  V30 1005 H 100.542 -1.94487 -2.20345 0
M  V30 1006 H 98.0557 -1.14805 -1.14863 0
M  V30 1007 H 100.053 -0.429247 -4.14684 0
M  V30 1008 H 98.7127 0.310766 -3.23209 0
M  V30 1009 H 99.7237 -3.30917 -3.9839 0
M  V30 1010 H 96.4007 -0.731606 -4.1104 0
M  V30 1011 H 97.7907 -4.71646 -4.78539 0
M  V30 1012 N 100.511 1.16574 -1.06058 0
M  V30 1013 C 101.922 1.68662 -0.800632 0
M  V30 1014 C 102.273 1.84184 0.67608 0
M  V30 1015 O 101.398 1.53568 1.52466 0
M  V30 1016 C 101.993 3.06356 -1.44676 0
M  V30 1017 C 100.552 3.55575 -1.23465 0
M  V30 1018 C 99.6988 2.31616 -1.52477 0
M  V30 1019 H 102.65 1.00969 -1.22438 0
M  V30 1020 H 102.671 3.70636 -0.860788 0
M  V30 1021 H 102.183 2.95027 -2.52152 0
M  V30 1022 H 100.284 3.72167 -0.179527 0
M  V30 1023 H 100.397 4.37812 -1.94571 0
M  V30 1024 H 98.7608 2.36512 -0.945209 0
M  V30 1025 H 99.5438 2.22887 -2.61106 0
M  V30 1026 N 101.989 0.842826 1.3317 0
M  V30 1027 C 103.237 0.439577 1.97262 0
M  V30 1028 C 103.558 -1.00548 1.67078 0
M  V30 1029 O 102.828 -1.70098 0.971779 0
M  V30 1030 H 101.408 0.159558 0.72976 0
M  V30 1031 H 104.07 1.07665 1.62463 0
M  V30 1032 H 103.166 0.574886 3.0676 0
M  V30 1033 N 103.467 -1.45747 0.599634 0
M  V30 1034 C 104.713 -2.03153 0.100263 0
M  V30 1035 C 105.068 -1.46073 -1.25221 0
M  V30 1036 O 104.361 -0.622878 -1.81193 0
M  V30 1037 C 104.555 -3.57399 -0.00602758 0
M  V30 1038 C 104.384 -4.2944 1.3346 0
M  V30 1039 C 103.154 -4.6768 1.91321 0
M  V30 1040 C 105.352 -4.61905 2.2616 0
M  V30 1041 N 103.334 -5.24544 3.18946 0
M  V30 1042 C 104.705 -5.19518 3.3838 0
M  V30 1043 C 106.76 -4.43841 2.25631 0
M  V30 1044 C 105.463 -5.60972 4.50226 0
M  V30 1045 C 107.489 -4.86322 3.36518 0
M  V30 1046 C 106.851 -5.44021 4.4746 0
M  V30 1047 H 102.95 -0.777911 0.0798696 0
M  V30 1048 H 105.534 -1.77674 0.796244 0
M  V30 1049 H 103.705 -3.82556 -0.671212 0
M  V30 1050 H 105.437 -4.01457 -0.51133 0
M  V30 1051 H 102.192 -4.5098 1.44617 0
M  V30 1052 H 102.616 -5.57483 3.84112 0
M  V30 1053 H 107.258 -3.98552 1.41123 0
M  V30 1054 H 104.976 -6.0523 5.35464 0
M  V30 1055 H 108.562 -4.74084 3.37247 0
M  V30 1056 H 107.442 -5.76289 5.31846 0
M  V30 1057 N 104.945 -0.338344 -1.53925 0
M  V30 1058 C 105.877 0.555117 -2.22376 0
M  V30 1059 C 106.89 1.06812 -1.22862 0
M  V30 1060 O 108.079 0.979163 -1.49247 0
M  V30 1061 C 105.179 1.77609 -2.88631 0
M  V30 1062 C 104.352 1.39927 -4.14414 0
M  V30 1063 C 103.411 2.47936 -4.64127 0
M  V30 1064 O 102.437 2.11461 -5.28463 0
M  V30 1065 N 103.639 3.79107 -4.39612 0
M  V30 1066 H 106.404 -0.0310778 -2.99684 0
M  V30 1067 H 103.965 -0.162226 -1.61085 0
M  V30 1068 H 105.957 2.49287 -3.18807 0
M  V30 1069 H 104.527 2.26978 -2.14941 0
M  V30 1070 H 103.747 0.513481 -3.90841 0
M  V30 1071 H 105.035 1.12341 -4.96243 0
M  V30 1072 H 104.433 4.11531 -3.88148 0
M  V30 1073 H 102.99 4.4697 -4.74406 0
M  V30 1074 N 106.423 1.57458 -0.0668435 0
M  V30 1075 C 107.671 1.92919 0.602214 0
M  V30 1076 C 107.992 0.947215 1.70449 0
M  V30 1077 O 107.262 -0.00544117 1.95899 0
M  V30 1078 H 105.842 0.71217 0.22544 0
M  V30 1079 H 108.504 1.94508 -0.123535 0
M  V30 1080 H 107.6 2.94589 1.03073 0
M  V30 1081 N 107.901 -0.206675 1.56239 0
M  V30 1082 C 109.129 -0.945345 1.8404 0
M  V30 1083 C 109.544 -1.77336 0.647885 0
M  V30 1084 O 108.901 -1.78425 -0.383511 0
M  V30 1085 C 108.952 -1.8509 3.10522 0
M  V30 1086 O 108.673 -1.05634 4.25174 0
M  V30 1087 C 110.174 -2.70222 3.51418 0
M  V30 1088 H 107.394 -0.276372 0.61144 0
M  V30 1089 H 109.938 -0.217417 2.03341 0
M  V30 1090 H 108.093 -2.53259 2.93153 0
M  V30 1091 H 108.507 -1.67238 4.97124 0
M  V30 1092 H 109.981 -3.29438 4.42916 0
M  V30 1093 H 110.458 -3.43358 2.73864 0
M  V30 1094 H 111.064 -2.07443 3.71278 0
M  V30 1095 N 109.379 -1.50304 -0.473955 0
M  V30 1096 C 110.309 -1.71886 -1.58042 0
M  V30 1097 C 111.29 -0.567799 -1.60344 0
M  V30 1098 O 112.475 -0.806623 -1.76656 0
M  V30 1099 C 109.605 -1.81036 -2.96384 0
M  V30 1100 C 108.559 -2.962 -3.08949 0
M  V30 1101 C 107.885 -2.9049 -4.48909 0
M  V30 1102 C 109.185 -4.36752 -2.86434 0
M  V30 1103 H 110.879 -2.64527 -1.40234 0
M  V30 1104 H 108.425 -1.27295 -0.673201 0
M  V30 1105 H 110.378 -1.94719 -3.73714 0
M  V30 1106 H 109.102 -0.850147 -3.15341 0
M  V30 1107 H 107.761 -2.82164 -2.3405 0
M  V30 1108 H 107.409 -1.92321 -4.64781 0
M  V30 1109 H 107.109 -3.67802 -4.58253 0
M  V30 1110 H 108.633 -3.06218 -5.28264 0
M  V30 1111 H 110.047 -4.5133 -3.53517 0
M  V30 1112 H 108.444 -5.15493 -3.07225 0
M  V30 1113 H 109.514 -4.49321 -1.82316 0
M  V30 1114 N 110.857 0.726932 -1.39834 0
M  V30 1115 C 111.804 1.841 -1.39197 0
M  V30 1116 C 112.774 1.642 -0.250502 0
M  V30 1117 O 113.959 1.85494 -0.446846 0
M  V30 1118 C 111.099 3.21697 -1.24919 0
M  V30 1119 C 110.212 3.53247 -2.48678 0
M  V30 1120 C 109.347 4.80289 -2.26928 0
M  V30 1121 C 108.386 5.04707 -3.4632 0
M  V30 1122 N 107.523 6.22956 -3.23836 0
M  V30 1123 H 112.363 1.83979 -2.34427 0
M  V30 1124 H 109.9 0.898876 -1.16442 0
M  V30 1125 H 111.858 4.01137 -1.1465 0
M  V30 1126 H 110.488 3.21076 -0.333153 0
M  V30 1127 H 109.54 2.68447 -2.69519 0
M  V30 1128 H 110.852 3.67205 -3.37582 0
M  V30 1129 H 110.006 5.67725 -2.13947 0
M  V30 1130 H 108.745 4.68519 -1.35431 0
M  V30 1131 H 107.75 4.1573 -3.5979 0
M  V30 1132 H 108.975 5.18357 -4.38729 0
M  V30 1133 H 106.921 6.12459 -2.35011 0
M  V30 1134 H 106.838 6.37539 -4.063 0
M  V30 1135 H 108.106 7.1321 -3.14566 0
M  V30 1136 N 112.336 1.25143 0.95797 0
M  V30 1137 C 113.299 1.05321 2.03569 0
M  V30 1138 C 114.299 0.007152 1.60798 0
M  V30 1139 O 115.489 0.24903 1.72411 0
M  V30 1140 C 112.621 0.598394 3.35607 0
M  V30 1141 H 113.814 2.00986 2.22586 0
M  V30 1142 H 111.367 1.07502 1.13459 0
M  V30 1143 H 112.102 -0.361014 3.22284 0
M  V30 1144 H 111.887 1.35351 3.67998 0
M  V30 1145 H 113.377 0.48104 4.1482 0
M  V30 1146 N 113.814 -1.1601 1.06675 0
M  V30 1147 C 114.761 -2.20525 0.680967 0
M  V30 1148 C 115.731 -1.62904 -0.324283 0
M  V30 1149 O 116.916 -1.89615 -0.212294 0
M  V30 1150 C 114.056 -3.45013 0.0776551 0
M  V30 1151 C 113.169 -4.16863 1.13355 0
M  V30 1152 C 112.304 -5.2888 0.49597 0
M  V30 1153 C 111.343 -5.92537 1.53513 0
M  V30 1154 N 110.48 -6.96038 0.920631 0
M  V30 1155 H 115.32 -2.52876 1.57663 0
M  V30 1156 H 112.857 -1.24199 0.788223 0
M  V30 1157 H 114.815 -4.16193 -0.289704 0
M  V30 1158 H 113.445 -3.132 -0.781393 0
M  V30 1159 H 112.497 -3.44248 1.61857 0
M  V30 1160 H 113.809 -4.60294 1.92174 0
M  V30 1161 H 112.963 -6.06653 0.0758604 0
M  V30 1162 H 111.702 -4.86622 -0.324062 0
M  V30 1163 H 110.707 -5.13482 1.9651 0
M  V30 1164 H 111.932 -6.36873 2.35733 0
M  V30 1165 H 109.878 -6.55888 0.12138 0
M  V30 1166 H 109.795 -7.3786 1.64616 0
M  V30 1167 H 111.063 -7.77725 0.525795 0
M  V30 1168 N 115.292 -0.849877 -1.32721 0
M  V30 1169 C 116.24 -0.279745 -2.30912 0
M  V30 1170 C 117.234 0.594278 -1.58634 0
M  V30 1171 O 118.44 0.482613 -1.73409 0
M  V30 1172 H 114.815 -0.0717521 -0.748569 0
M  V30 1173 H 116.786 -1.12222 -2.76494 0
M  V30 1174 C 115.535 0.521108 -3.43773 0
M  V30 1175 H 114.858 -0.142141 -3.99547 0
M  V30 1176 H 116.298 0.885693 -4.14646 0
M  V30 1177 C 114.757 1.70442 -2.90605 0
M  V30 1178 O 115.287 2.8034 -2.87702 0
M  V30 1179 N 113.493 1.52991 -2.47067 0
M  V30 1180 H 113.04 0.635914 -2.49628 0
M  V30 1181 H 112.998 2.32311 -2.11847 0
M  V30 1182 N 116.77 1.45427 -0.607355 0
M  V30 1183 C 118.017 2.02241 -0.102455 0
M  V30 1184 C 118.345 1.4758 1.26691 0
M  V30 1185 O 117.6 0.640468 1.84923 0
M  V30 1186 C 117.899 3.57398 -0.0129263 0
M  V30 1187 C 117.565 4.3121 -1.31792 0
M  V30 1188 C 116.227 4.51092 -1.67539 0
M  V30 1189 C 118.579 4.73401 -2.18039 0
M  V30 1190 C 115.907 5.10422 -2.89285 0
M  V30 1191 C 118.259 5.34078 -3.39034 0
M  V30 1192 C 116.923 5.52184 -3.75033 0
M  V30 1193 H 116.193 0.740051 -0.037491 0
M  V30 1194 H 118.84 1.74494 -0.788926 0
M  V30 1195 H 117.145 3.84421 0.756806 0
M  V30 1196 H 118.842 3.99061 0.393881 0
M  V30 1197 H 115.432 4.16047 -1.02968 0
M  V30 1198 H 119.616 4.57774 -1.91721 0
M  V30 1199 H 114.872 5.22629 -3.17283 0
M  V30 1200 H 119.046 5.65724 -4.06115 0
M  V30 1201 H 116.673 5.97925 -4.69457 0
M  V30 1202 N 118.248 0.346503 1.53744 0
M  V30 1203 C 119.195 -0.508914 2.25119 0
M  V30 1204 C 120.165 -1.09315 1.25058 0
M  V30 1205 O 121.35 -1.12921 1.53797 0
M  V30 1206 C 118.49 -1.65246 3.02965 0
M  V30 1207 C 117.603 -1.09525 4.17886 0
M  V30 1208 C 116.738 -2.20634 4.83212 0
M  V30 1209 C 115.777 -1.62279 5.90196 0
M  V30 1210 N 114.914 -2.67143 6.49291 0
M  V30 1211 H 119.754 0.106283 2.9781 0
M  V30 1212 H 117.291 0.0642227 1.4696 0
M  V30 1213 H 119.249 -2.32574 3.4636 0
M  V30 1214 H 117.879 -2.2386 2.32565 0
M  V30 1215 H 116.931 -0.312818 3.79112 0
M  V30 1216 H 118.243 -0.628444 4.94825 0
M  V30 1217 H 117.397 -2.95821 5.29693 0
M  V30 1218 H 116.136 -2.70659 4.05703 0
M  V30 1219 H 115.141 -0.855989 5.43096 0
M  V30 1220 H 116.366 -1.13102 6.69615 0
M  V30 1221 H 114.312 -3.16417 5.74645 0
M  V30 1222 H 114.229 -2.25093 7.21713 0
M  V30 1223 H 115.497 -3.4209 7.00425 0
M  V30 1224 N 119.726 -1.57421 0.075193 0
M  V30 1225 C 120.673 -2.12915 -0.890843 0
M  V30 1226 C 121.643 -1.04252 -1.29309 0
M  V30 1227 O 122.828 -1.31933 -1.37834 0
M  V30 1228 C 119.968 -2.69795 -2.15186 0
M  V30 1229 C 119.081 -3.92624 -1.80194 0
M  V30 1230 C 118.216 -4.37736 -3.00933 0
M  V30 1231 C 117.255 -5.53205 -2.61974 0
M  V30 1232 N 116.392 -5.9326 -3.75483 0
M  V30 1233 H 121.232 -2.95156 -0.410735 0
M  V30 1234 H 118.769 -1.45854 -0.191086 0
M  V30 1235 H 120.727 -3.00883 -2.89008 0
M  V30 1236 H 119.357 -1.90313 -2.60731 0
M  V30 1237 H 118.409 -3.67977 -0.964218 0
M  V30 1238 H 119.721 -4.76482 -1.47534 0
M  V30 1239 H 118.875 -4.70503 -3.8303 0
M  V30 1240 H 117.614 -3.52739 -3.36789 0
M  V30 1241 H 116.619 -5.20086 -1.783 0
M  V30 1242 H 117.844 -6.39936 -2.27284 0
M  V30 1243 H 115.79 -5.11212 -4.11094 0
M  V30 1244 H 115.707 -6.71865 -3.46602 0
M  V30 1245 H 116.975 -6.30651 -4.58148 0
M  V30 1246 N 121.204 0.198386 -1.56346 0
M  V30 1247 C 122.62 0.549085 -1.49857 0
M  V30 1248 C 122.82 1.86016 -0.774611 0
M  V30 1249 O 121.876 2.50416 -0.323776 0
M  V30 1250 C 123.189 0.606868 -2.94512 0
M  V30 1251 C 124.737 0.695925 -3.05165 0
M  V30 1252 C 125.212 0.784848 -4.51225 0
M  V30 1253 N 126.703 0.848463 -4.55363 0
M  V30 1254 C 127.438 0.937378 -5.65686 0
M  V30 1255 N 126.934 0.9888 -6.85707 0
M  V30 1256 N 128.727 0.974312 -5.53592 0
M  V30 1257 H 120.878 -0.661655 -2.01831 0
M  V30 1258 H 123.141 -0.235261 -0.918344 0
M  V30 1259 H 122.847 -0.28732 -3.50524 0
M  V30 1260 H 122.721 1.46268 -3.47686 0
M  V30 1261 H 125.108 1.58055 -2.49204 0
M  V30 1262 H 125.189 -0.186022 -2.55123 0
M  V30 1263 H 124.833 -0.0954072 -5.0781 0
M  V30 1264 H 124.763 1.68255 -4.98997 0
M  V30 1265 H 127.254 0.818103 -3.68938 0
M  V30 1266 H 127.567 1.05707 -7.65536 0
M  V30 1267 H 125.912 0.957534 -6.88372 0
M  V30 1268 H 129.103 0.930954 -4.58749 0
M  V30 1269 H 129.276 1.04015 -6.39597 0
M  V30 1270 N 122.682 1.50554 0.465978 0
M  V30 1271 C 123.922 1.63439 1.22747 0
M  V30 1272 C 124.286 0.329822 1.89146 0
M  V30 1273 O 125.487 0.334161 2.66715 0
M  V30 1274 C 123.758 2.78542 2.2394 0
M  V30 1275 S 125.317 3.11591 3.0896 0
M  V30 1276 H 122.135 0.576113 0.416672 0
M  V30 1277 H 124.737 1.88357 0.523641 0
M  V30 1278 H 123.441 3.71805 1.7375 0
M  V30 1279 H 122.972 2.55726 2.98944 0
M  V30 1280 H 124.987 2.55811 4.25176 0
M  V30 1281 N 124.16 -0.719506 1.40217 0
M  V30 1282 C 125.09 -1.8465 1.42922 0
M  V30 1283 C 126.071 -1.67599 0.29062 0
M  V30 1284 O 127.256 -1.87688 0.498677 0
M  V30 1285 C 124.386 -3.22565 1.28722 0
M  V30 1286 C 123.34 -3.54281 2.40144 0
M  V30 1287 C 122.666 -4.91298 2.11023 0
M  V30 1288 C 123.966 -3.55676 3.82481 0
M  V30 1289 H 125.66 -1.82644 2.37237 0
M  V30 1290 H 123.206 -0.877305 1.1419 0
M  V30 1291 H 125.159 -4.01095 1.29232 0
M  V30 1292 H 123.883 -3.25137 0.308811 0
M  V30 1293 H 122.542 -2.78088 2.38877 0
M  V30 1294 H 122.19 -4.90468 1.11582 0
M  V30 1295 H 121.89 -5.13485 2.8567 0
M  V30 1296 H 123.414 -5.72166 2.13209 0
M  V30 1297 H 124.828 -4.24254 3.85592 0
M  V30 1298 H 123.225 -3.89388 4.56614 0
M  V30 1299 H 124.295 -2.55144 4.12346 0
M  V30 1300 N 125.638 -1.25649 -0.95132 0
M  V30 1301 C 126.57 -1.02112 -2.05197 0
M  V30 1302 C 127.583 0.0150571 -1.62793 0
M  V30 1303 O 128.772 -0.223874 -1.77091 0
M  V30 1304 C 125.872 -0.522361 -3.3485 0
M  V30 1305 C 125.045 -1.62546 -4.06076 0
M  V30 1306 C 124.104 -1.12649 -5.14001 0
M  V30 1307 O 123.13 -1.82156 -5.39266 0
M  V30 1308 N 124.332 0.03047 -5.80492 0
M  V30 1309 H 127.097 -1.96885 -2.25957 0
M  V30 1310 H 124.658 -1.16899 -1.1201 0
M  V30 1311 H 126.65 -0.172961 -4.0433 0
M  V30 1312 H 125.22 0.33151 -3.10837 0
M  V30 1313 H 124.44 -2.14628 -3.30649 0
M  V30 1314 H 125.728 -2.36644 -4.50419 0
M  V30 1315 H 125.126 0.611169 -5.62389 0
M  V30 1316 H 123.683 0.320875 -6.5101 0
M  V30 1317 N 127.117 1.15442 -1.07289 0
M  V30 1318 C 128.08 2.18358 -0.696591 0
M  V30 1319 C 129.08 1.58637 0.262837 0
M  V30 1320 O 130.27 1.74145 0.0438809 0
M  V30 1321 C 127.402 3.4089 -0.0266151 0
M  V30 1322 H 128.595 2.53162 -1.60776 0
M  V30 1323 H 126.148 1.29893 -0.869342 0
M  V30 1324 H 126.883 3.11653 0.896822 0
M  V30 1325 H 126.668 3.85495 -0.716657 0
M  V30 1326 H 128.158 4.17009 0.222028 0
M  V30 1327 N 128.595 0.856903 1.32268 0
M  V30 1328 C 129.823 0.475439 2.01363 0
M  V30 1329 C 130.238 -0.928486 1.64392 0
M  V30 1330 O 129.595 -1.60624 0.866387 0
M  V30 1331 C 129.646 0.607545 3.56358 0
M  V30 1332 O 129.367 1.95617 3.92002 0
M  V30 1333 C 130.868 0.225382 4.42727 0
M  V30 1334 H 128.088 0.186636 0.644521 0
M  V30 1335 H 130.632 1.15446 1.68797 0
M  V30 1336 H 128.787 -0.0237719 3.87393 0
M  V30 1337 H 129.201 1.95455 4.86721 0
M  V30 1338 H 130.675 0.368813 5.50767 0
M  V30 1339 H 131.152 -0.834369 4.31202 0
M  V30 1340 H 131.758 0.831864 4.17085 0
M  V30 1341 N 130.073 -1.45103 0.615059 0
M  V30 1342 C 131.322 -2.01396 0.110718 0
M  V30 1343 C 131.635 -1.48834 -1.26916 0
M  V30 1344 O 132.841 -1.97152 -1.86664 0
M  V30 1345 C 131.297 -3.59599 0.14723 0
M  V30 1346 C 130.905 -4.21158 1.52743 0
M  V30 1347 C 132.649 -4.23428 -0.30148 0
M  V30 1348 C 130.556 -5.71535 1.51992 0
M  V30 1349 H 129.486 -0.753061 0.0376241 0
M  V30 1350 H 132.137 -1.66494 0.77149 0
M  V30 1351 H 130.519 -3.91724 -0.580339 0
M  V30 1352 H 131.693 -4.00594 2.2773 0
M  V30 1353 H 130.008 -3.69552 1.91886 0
M  V30 1354 H 132.605 -5.33703 -0.326392 0
M  V30 1355 H 132.948 -3.94629 -1.32565 0
M  V30 1356 H 133.481 -3.96047 0.373065 0
M  V30 1357 H 130.22 -6.05044 2.52193 0
M  V30 1358 H 129.74 -5.94268 0.81274 0
M  V30 1359 H 131.419 -6.34873 1.24681 0
M  V30 1360 N 131.551 -0.354651 -1.53558 0
M  V30 1361 C 132.779 0.239515 -2.05509 0
M  V30 1362 C 133.194 1.4333 -1.2289 0
M  V30 1363 O 132.551 1.80538 -0.266899 0
M  V30 1364 C 132.602 0.643719 -3.55723 0
M  V30 1365 O 132.323 -0.502602 -4.35207 0
M  V30 1366 C 133.824 1.29743 -4.23889 0
M  V30 1367 H 131.044 0.0442697 -0.669538 0
M  V30 1368 H 133.588 -0.509856 -1.98042 0
M  V30 1369 H 131.743 1.34302 -3.63376 0
M  V30 1370 H 132.157 -0.178172 -5.24197 0
M  V30 1371 H 133.631 1.53091 -5.30346 0
M  V30 1372 H 134.108 2.25441 -3.76926 0
M  V30 1373 H 134.714 0.639865 -4.20459 0
M  V30 1374 N 133.029 1.57378 -0.0835403 0
M  V30 1375 C 133.961 2.10389 0.909338 0
M  V30 1376 C 134.974 1.03858 1.25369 0
M  V30 1377 O 136.163 1.31338 1.20882 0
M  V30 1378 C 133.263 2.55908 2.2218 0
M  V30 1379 C 132.436 3.86145 2.05453 0
M  V30 1380 C 131.495 4.17633 3.20108 0
M  V30 1381 O 130.521 4.87043 2.94581 0
M  V30 1382 N 131.723 3.72113 4.45547 0
M  V30 1383 H 134.488 2.962 0.456657 0
M  V30 1384 H 132.049 1.61579 0.101877 0
M  V30 1385 H 134.041 2.74027 2.97811 0
M  V30 1386 H 132.611 1.75171 2.58909 0
M  V30 1387 H 131.831 3.7729 1.1422 0
M  V30 1388 H 133.119 4.7137 1.91541 0
M  V30 1389 H 132.517 3.16062 4.69171 0
M  V30 1390 H 131.074 3.95409 5.18165 0
M  V30 1391 N 134.507 -0.190092 1.56449 0
M  V30 1392 C 135.784 -0.935886 1.71757 0
M  V30 1393 C 136.164 -2.01173 0.639726 0
M  V30 1394 O 135.512 -2.25827 -0.348502 0
M  V30 1395 C 135.722 -1.51775 3.1427 0
M  V30 1396 C 137.07 -1.99794 3.74656 0
M  V30 1397 O 138.094 -1.61607 3.1743 0
M  V30 1398 O 136.953 -2.70079 4.751 0
M  V30 1399 H 134.047 -0.439229 0.700719 0
M  V30 1400 H 136.593 -0.179395 1.68749 0
M  V30 1401 H 135.365 -0.742505 3.84191 0
M  V30 1402 H 134.988 -2.33894 3.21527 0
M  V30 1403 N 135.985 -1.50799 -0.457987 0
M  V30 1404 C 137.21 -1.66496 -1.23668 0
M  V30 1405 C 137.635 -0.353288 -1.84752 0
M  V30 1406 O 136.993 0.684346 -1.67888 0
M  V30 1407 C 137.041 -2.76763 -2.3116 0
M  V30 1408 O 136.145 -2.38928 -3.36136 0
M  V30 1409 H 135.486 -0.555828 -0.363252 0
M  V30 1410 H 138.016 -1.9725 -0.543474 0
M  V30 1411 H 138.026 -3.00232 -2.76269 0
M  V30 1412 H 136.701 -3.71954 -1.86073 0
M  V30 1413 H 135.278 -2.25953 -2.96647 0
M  V30 1414 N 137.463 0.71206 -1.40597 0
M  V30 1415 C 138.691 1.50111 -1.42388 0
M  V30 1416 C 139.106 1.88784 -0.0245395 0
M  V30 1417 O 138.463 1.55681 0.952351 0
M  V30 1418 C 138.514 2.7742 -2.31776 0
M  V30 1419 O 138.235 2.40382 -3.66262 0
M  V30 1420 C 139.736 3.7129 -2.42196 0
M  V30 1421 H 136.956 0.46314 -0.485533 0
M  V30 1422 H 139.5 0.878068 -1.8469 0
M  V30 1423 H 137.655 3.36001 -1.92827 0
M  V30 1424 H 138.069 3.22324 -4.13772 0
M  V30 1425 H 139.543 4.57448 -3.08943 0
M  V30 1426 H 140.02 4.14641 -1.44809 0
M  V30 1427 H 140.626 3.18619 -2.81712 0
M  V30 1428 N 138.941 1.26152 0.944643 0
M  V30 1429 C 140.171 1.14094 1.72239 0
M  V30 1430 C 140.579 -0.306931 1.86694 0
M  V30 1431 O 139.922 -1.22222 1.3714 0
M  V30 1432 C 139.984 1.73316 3.14963 0
M  V30 1433 C 139.648 3.2239 3.23904 0
M  V30 1434 C 140.645 4.19252 3.07447 0
M  V30 1435 C 138.33 3.62788 3.47405 0
M  V30 1436 C 140.324 5.54491 3.14353 0
M  V30 1437 C 138.011 4.98162 3.53947 0
M  V30 1438 C 139.009 5.93823 3.37436 0
M  V30 1439 O 138.697 7.26732 3.43679 0
M  V30 1440 H 138.429 0.398292 0.546205 0
M  V30 1441 H 140.983 1.67201 1.19301 0
M  V30 1442 H 139.213 1.14667 3.69308 0
M  V30 1443 H 140.902 1.56214 3.74636 0
M  V30 1444 H 141.668 3.8938 2.8915 0
M  V30 1445 H 137.547 2.88816 3.59313 0
M  V30 1446 H 141.091 6.29137 3.01384 0
M  V30 1447 H 136.988 5.27695 3.71763 0
M  V30 1448 H 137.756 7.3496 3.60245 0
M  V30 1449 N 140.419 -1.14872 1.07899 0
M  V30 1450 C 141.667 -1.85422 0.803941 0
M  V30 1451 C 141.988 -1.83051 -0.67211 0
M  V30 1452 O 141.258 -1.27532 -1.48703 0
M  V30 1453 H 139.838 -0.686537 0.294408 0
M  V30 1454 H 142.5 -1.39226 1.3639 0
M  V30 1455 H 141.596 -2.90399 1.14346 0
M  V30 1456 N 141.898 -0.863906 -1.31812 0
M  V30 1457 C 143.175 -0.39275 -1.91616 0
M  V30 1458 C 143.555 1.12461 -1.7865 0
M  V30 1459 O 142.903 1.95045 -1.19037 0
M  V30 1460 C 143.113 -0.867385 -3.38049 0
M  V30 1461 C 144.461 -0.889966 -4.15168 0
M  V30 1462 O 145.485 -0.812635 -3.46806 0
M  V30 1463 O 144.344 -1.00079 -5.37258 0
M  V30 1464 H 141.438 -0.116358 -0.818773 0
M  V30 1465 H 143.984 -0.951418 -1.40521 0
M  V30 1466 H 142.756 -1.91081 -3.41473 0
M  V30 1467 H 142.379 -0.286687 -3.96565 0
M  V30 1468 N 143.376 1.44774 -0.622745 0
M  V30 1469 C 144.286 2.34433 0.0886031 0
M  V30 1470 C 145.302 1.52131 0.844529 0
M  V30 1471 O 146.478 1.84886 0.798691 0
M  V30 1472 C 143.543 3.29986 1.0635 0
M  V30 1473 C 142.604 4.28195 0.307873 0
M  V30 1474 C 141.837 5.19183 1.23633 0
M  V30 1475 O 142.06 5.13918 2.47476 0
M  V30 1476 O 140.994 5.97515 0.725189 0
M  V30 1477 H 144.82 2.96693 -0.648599 0
M  V30 1478 H 142.405 1.44408 -0.382957 0
M  V30 1479 H 144.287 3.88825 1.6246 0
M  V30 1480 H 142.962 2.70269 1.78146 0
M  V30 1481 H 141.869 3.72927 -0.296064 0
M  V30 1482 H 143.202 4.90808 -0.3699 0
M  V30 1483 N 144.854 0.36279 1.53368 0
M  V30 1484 C 146.131 -0.284021 1.93527 0
M  V30 1485 C 146.511 -1.66628 1.29608 0
M  V30 1486 O 145.859 -2.23942 0.45413 0
M  V30 1487 C 146.069 -0.337028 3.47369 0
M  V30 1488 C 147.417 -0.578708 4.20638 0
M  V30 1489 O 148.441 -0.418352 3.53735 0
M  V30 1490 O 147.3 -0.89074 5.39192 0
M  V30 1491 H 144.394 -0.169743 0.809393 0
M  V30 1492 H 146.94 0.41537 1.64538 0
M  V30 1493 H 145.712 0.632217 3.86159 0
M  V30 1494 H 145.335 -1.08243 3.82582 0
M  V30 1495 N 146.332 -1.57332 0.0918853 0
M  V30 1496 C 147.572 -1.96117 -0.575988 0
M  V30 1497 C 147.936 -0.972499 -1.65549 0
M  V30 1498 O 149.137 -1.24872 -2.38034 0
M  V30 1499 C 147.408 -3.39407 -1.11973 0
M  V30 1500 S 148.967 -4.00185 -1.79992 0
M  V30 1501 H 145.785 -0.685682 -0.188045 0
M  V30 1502 H 148.387 -1.94755 0.170525 0
M  V30 1503 H 147.091 -4.09131 -0.322504 0
M  V30 1504 H 146.622 -3.44358 -1.90214 0
M  V30 1505 H 148.637 -3.88728 -3.08391 0
M  V30 1506 N 147.81 0.181792 -1.56548 0
M  V30 1507 C 148.74 1.22765 -1.98623 0
M  V30 1508 C 149.721 1.46747 -0.860189 0
M  V30 1509 O 150.906 1.58259 -1.12551 0
M  V30 1510 C 148.036 2.56894 -2.33715 0
M  V30 1511 C 146.99 2.475 -3.49182 0
M  V30 1512 C 146.316 3.86023 -3.69986 0
M  V30 1513 C 147.616 1.98866 -4.82959 0
M  V30 1514 H 149.31 0.877942 -2.86239 0
M  V30 1515 H 146.856 0.42088 -1.37712 0
M  V30 1516 H 148.809 3.30253 -2.61746 0
M  V30 1517 H 147.533 2.93632 -1.42997 0
M  V30 1518 H 146.192 1.76596 -3.21262 0
M  V30 1519 H 145.84 4.20136 -2.76576 0
M  V30 1520 H 145.54 3.80609 -4.47672 0
M  V30 1521 H 147.064 4.60984 -4.00407 0
M  V30 1522 H 148.478 2.61992 -5.09934 0
M  V30 1523 H 146.875 2.04424 -5.64208 0
M  V30 1524 H 147.945 0.942465 -4.75653 0
M  V30 1525 N 149.288 1.51039 0.449983 0
M  V30 1526 C 150.518 1.66627 1.22143 0
M  V30 1527 C 150.926 0.357776 1.85786 0
M  V30 1528 O 150.269 -0.672424 1.70951 0
M  V30 1529 C 150.331 2.71562 2.35573 0
M  V30 1530 C 149.995 4.14526 1.92399 0
M  V30 1531 C 150.992 4.99717 1.43453 0
M  V30 1532 C 148.677 4.60559 2.00475 0
M  V30 1533 C 150.671 6.28998 1.03155 0
M  V30 1534 C 148.358 5.8984 1.59788 0
M  V30 1535 C 149.356 6.73886 1.11208 0
M  V30 1536 O 149.044 8.0075 0.710935 0
M  V30 1537 H 148.776 0.562635 0.374724 0
M  V30 1538 H 151.33 1.98146 0.541036 0
M  V30 1539 H 149.56 2.3533 3.06849 0
M  V30 1540 H 151.249 2.76156 2.97478 0
M  V30 1541 H 152.015 4.65361 1.36618 0
M  V30 1542 H 147.894 3.95273 2.37235 0
M  V30 1543 H 151.438 6.9455 0.651663 0
M  V30 1544 H 147.335 6.23713 1.66289 0
M  V30 1545 H 148.103 8.142 0.837913 0
M  V30 1546 N 150.766 -0.704594 1.40972 0
M  V30 1547 C 151.696 -1.83124 1.44872 0
M  V30 1548 C 152.677 -1.67281 0.30838 0
M  V30 1549 O 153.862 -1.87149 0.518556 0
M  V30 1550 C 150.992 -3.21181 1.32136 0
M  V30 1551 C 149.946 -3.51714 2.43888 0
M  V30 1552 C 149.272 -4.89032 2.16222 0
M  V30 1553 C 150.572 -3.516 3.86232 0
M  V30 1554 H 152.266 -1.80117 2.39161 0
M  V30 1555 H 149.812 -0.865145 1.15114 0
M  V30 1556 H 151.765 -3.99702 1.33479 0
M  V30 1557 H 150.489 -3.24791 0.343279 0
M  V30 1558 H 149.148 -2.75539 2.41813 0
M  V30 1559 H 148.796 -4.89256 1.16778 0
M  V30 1560 H 148.496 -5.10426 2.911 0
M  V30 1561 H 150.02 -5.69873 2.19265 0
M  V30 1562 H 151.434 -4.2014 3.9007 0
M  V30 1563 H 149.831 -3.84523 4.60719 0
M  V30 1564 H 150.901 -2.50757 4.15029 0
M  V30 1565 N 152.244 -1.26651 -0.937939 0
M  V30 1566 C 153.192 -1.08308 -2.05845 0
M  V30 1567 C 154.186 -0.0090757 -1.69398 0
M  V30 1568 O 155.392 -0.166007 -1.79233 0
M  V30 1569 H 151.767 -0.333416 -0.674046 0
M  V30 1570 H 153.738 -2.03261 -2.18467 0
M  V30 1571 C 152.487 -0.736229 -3.39816 0
M  V30 1572 H 151.81 -1.55453 -3.6834 0
M  V30 1573 H 153.25 -0.64769 -4.19024 0
M  V30 1574 C 151.709 0.558824 -3.32233 0
M  V30 1575 O 152.239 1.59621 -3.68624 0
M  V30 1576 N 150.445 0.550657 -2.85335 0
M  V30 1577 H 149.992 -0.293943 -2.55917 0
M  V30 1578 H 149.95 1.41726 -2.80644 0
M  V30 1579 N 153.722 1.14298 -1.08507 0
M  V30 1580 C 154.971 1.84708 -0.810305 0
M  V30 1581 C 155.284 1.83903 0.666271 0
M  V30 1582 O 156.49 2.50112 1.05624 0
M  V30 1583 C 154.946 3.31572 -1.39957 0
M  V30 1584 C 154.554 3.40791 -2.90801 0
M  V30 1585 C 156.298 4.07087 -1.20334 0
M  V30 1586 C 154.205 4.81872 -3.4286 0
M  V30 1587 H 153.135 0.691985 -0.299454 0
M  V30 1588 H 155.786 1.28841 -1.30661 0
M  V30 1589 H 154.168 3.87183 -0.830976 0
M  V30 1590 H 155.342 2.95225 -3.53806 0
M  V30 1591 H 153.657 2.78732 -3.0935 0
M  V30 1592 H 156.254 5.11225 -1.56693 0
M  V30 1593 H 156.597 4.16054 -0.143237 0
M  V30 1594 H 157.13 3.57779 -1.73893 0
M  V30 1595 H 153.869 4.78094 -4.48449 0
M  V30 1596 H 153.389 5.27972 -2.84615 0
M  V30 1597 H 155.068 5.50765 -3.39509 0
M  V30 1598 N 155.201 0.870884 1.31352 0
M  V30 1599 C 156.447 0.492314 1.97352 0
M  V30 1600 C 156.802 -0.945174 1.67583 0
M  V30 1601 O 156.095 -1.65674 0.962423 0
M  V30 1602 C 156.289 0.687157 3.50732 0
M  V30 1603 C 156.118 2.14203 3.95407 0
M  V30 1604 C 154.888 2.78382 4.21701 0
M  V30 1605 C 157.086 3.1144 4.09279 0
M  V30 1606 N 155.068 4.14611 4.52737 0
M  V30 1607 C 156.439 4.32702 4.44037 0
M  V30 1608 C 158.494 3.07418 3.91661 0
M  V30 1609 C 157.197 5.50463 4.63015 0
M  V30 1610 C 159.223 4.24438 4.11833 0
M  V30 1611 C 158.585 5.44463 4.46923 0
M  V30 1612 H 154.684 0.229206 0.747655 0
M  V30 1613 H 157.268 1.12568 1.5886 0
M  V30 1614 H 155.439 0.083384 3.8831 0
M  V30 1615 H 157.171 0.276883 4.03752 0
M  V30 1616 H 153.926 2.29326 4.14375 0
M  V30 1617 H 154.35 4.84928 4.72413 0
M  V30 1618 H 158.992 2.15732 3.6362 0
M  V30 1619 H 156.71 6.42666 4.89904 0
M  V30 1620 H 160.296 4.2278 3.99685 0
M  V30 1621 H 159.176 6.33504 4.62214 0
M  V30 1622 N 156.679 -1.44442 0.630414 0
M  V30 1623 C 157.925 -2.02351 0.134816 0
M  V30 1624 C 158.258 -1.4947 -1.23986 0
M  V30 1625 O 157.533 -0.678475 -1.82283 0
M  V30 1626 C 157.816 -3.59898 0.120707 0
M  V30 1627 C 157.669 -4.23063 1.52767 0
M  V30 1628 C 158.988 -4.36585 -0.555127 0
M  V30 1629 H 156.107 -0.73527 0.0504646 0
M  V30 1630 H 158.749 -1.72022 0.806751 0
M  V30 1631 H 156.899 -3.85868 -0.451477 0
M  V30 1632 H 158.571 -4.08202 2.14869 0
M  V30 1633 H 156.814 -3.80586 2.08175 0
M  V30 1634 H 157.485 -5.32071 1.46984 0
M  V30 1635 H 159.961 -4.16044 -0.0685429 0
M  V30 1636 H 158.837 -5.46294 -0.534185 0
M  V30 1637 H 159.098 -4.11138 -1.62535 0
M  V30 1638 N 158.157 -0.370918 -1.53173 0
M  V30 1639 C 159.568 0.107139 -1.86392 0
M  V30 1640 C 159.919 1.47714 -1.29132 0
M  V30 1641 O 159.044 2.07464 -0.615439 0
M  V30 1642 C 159.639 0.201187 -3.38202 0
M  V30 1643 C 158.198 0.623507 -3.712 0
M  V30 1644 C 157.345 -0.225978 -2.76378 0
M  V30 1645 H 160.296 -0.58951 -1.47345 0
M  V30 1646 H 160.317 1.02377 -3.66468 0
M  V30 1647 H 159.829 -0.796058 -3.79848 0
M  V30 1648 H 157.93 1.62879 -3.35114 0
M  V30 1649 H 158.043 0.394414 -4.77474 0
M  V30 1650 H 156.407 0.305962 -2.52856 0
M  V30 1651 H 157.19 -1.22086 -3.20858 0
M  V30 1652 N 159.635 1.57281 -0.100228 0
M  V30 1653 C 160.567 2.11342 0.886972 0
M  V30 1654 C 161.58 1.05182 1.24261 0
M  V30 1655 O 162.769 1.32613 1.19483 0
M  V30 1656 C 159.869 2.5825 2.19454 0
M  V30 1657 C 159.042 3.88302 2.01346 0
M  V30 1658 C 158.101 4.21004 3.15661 0
M  V30 1659 O 157.127 4.9014 2.89398 0
M  V30 1660 N 158.329 3.76818 4.41575 0
M  V30 1661 H 161.094 2.96668 0.425216 0
M  V30 1662 H 158.655 1.61678 0.0847334 0
M  V30 1663 H 160.647 2.7717 2.94888 0
M  V30 1664 H 159.217 1.77907 2.57037 0
M  V30 1665 H 158.437 3.7848 1.10212 0
M  V30 1666 H 159.725 4.73375 1.8653 0
M  V30 1667 H 159.123 3.2102 4.65792 0
M  V30 1668 H 157.68 4.00882 5.13942 0
M  V30 1669 N 161.113 -0.173488 1.56642 0
M  V30 1670 C 162.361 -0.888706 1.81512 0
M  V30 1671 C 162.682 -1.82875 0.676872 0
M  V30 1672 O 161.952 -1.93536 -0.303414 0
M  V30 1673 H 160.532 -0.331164 0.669582 0
M  V30 1674 H 163.194 -0.173823 1.94123 0
M  V30 1675 H 162.29 -1.46691 2.75478 0
M  V30 1676 N 162.591 -1.51276 -0.441967 0
M  V30 1677 C 164.007 -1.39349 -0.778083 0
M  V30 1678 C 164.207 -0.472212 -1.95889 0
M  V30 1679 O 163.263 0.0743551 -2.5239 0
M  V30 1680 C 164.576 -2.81292 -1.0628 0
M  V30 1681 C 166.124 -2.9041 -1.16751 0
M  V30 1682 C 166.599 -4.33251 -1.48519 0
M  V30 1683 N 168.09 -4.36336 -1.55453 0
M  V30 1684 C 168.825 -5.43885 -1.81596 0
M  V30 1685 N 168.321 -6.61601 -2.05562 0
M  V30 1686 N 170.114 -5.3136 -1.8334 0
M  V30 1687 H 162.265 -2.09729 0.335774 0
M  V30 1688 H 164.528 -0.943925 0.0878028 0
M  V30 1689 H 164.234 -3.50678 -0.267905 0
M  V30 1690 H 164.108 -3.20334 -1.99163 0
M  V30 1691 H 166.495 -2.21225 -1.95304 0
M  V30 1692 H 166.576 -2.54871 -0.217801 0
M  V30 1693 H 166.22 -5.02984 -0.704958 0
M  V30 1694 H 166.15 -4.66299 -2.44689 0
M  V30 1695 H 168.641 -3.51466 -1.38853 0
M  V30 1696 H 168.954 -7.39361 -2.24867 0
M  V30 1697 H 167.299 -6.64725 -2.02894 0
M  V30 1698 H 170.49 -4.38382 -1.64132 0
M  V30 1699 H 170.663 -6.15258 -2.03377 0
M  V30 1700 N 164.069 0.697108 -1.41344 0
M  V30 1701 C 165.016 1.81106 -1.43071 0
M  V30 1702 C 165.986 1.63632 -0.285275 0
M  V30 1703 O 167.171 1.84504 -0.486091 0
M  V30 1704 C 164.311 3.18975 -1.31715 0
M  V30 1705 C 163.424 3.47892 -2.56115 0
M  V30 1706 C 162.559 4.75367 -2.37064 0
M  V30 1707 C 161.598 4.97247 -3.56948 0
M  V30 1708 N 160.735 6.15947 -3.36977 0
M  V30 1709 H 165.575 1.78965 -2.38276 0
M  V30 1710 H 163.112 0.873975 -1.18322 0
M  V30 1711 H 165.07 3.98615 -1.23133 0
M  V30 1712 H 163.7 3.20297 -0.401183 0
M  V30 1713 H 162.752 2.62669 -2.75153 0
M  V30 1714 H 164.064 3.59962 -3.45295 0
M  V30 1715 H 163.218 5.63059 -2.25941 0
M  V30 1716 H 161.957 4.65541 -1.45338 0
M  V30 1717 H 160.962 4.08004 -3.68527 0
M  V30 1718 H 162.187 5.08934 -4.49626 0
M  V30 1719 H 160.133 6.07336 -2.47949 0
M  V30 1720 H 160.05 6.28777 -4.19732 0
M  V30 1721 H 161.318 7.06377 -3.29623 0
M  V30 1722 N 165.547 1.27147 0.931209 0
M  V30 1723 C 166.479 1.05364 2.03546 0
M  V30 1724 C 167.492 0.0108438 1.62796 0
M  V30 1725 O 168.681 0.25202 1.76712 0
M  V30 1726 C 165.781 0.575566 3.33977 0
M  V30 1727 C 164.954 1.68985 4.03439 0
M  V30 1728 C 164.013 1.20813 5.12143 0
M  V30 1729 O 163.039 1.90712 5.363 0
M  V30 1730 N 164.241 0.0618851 5.80467 0
M  V30 1731 H 167.006 2.00454 2.22796 0
M  V30 1732 H 164.567 1.18666 1.10136 0
M  V30 1733 H 166.559 0.237264 4.04004 0
M  V30 1734 H 165.129 -0.282016 3.11325 0
M  V30 1735 H 164.349 2.19861 3.27192 0
M  V30 1736 H 165.637 2.4378 4.46597 0
M  V30 1737 H 165.035 -0.521621 5.6329 0
M  V30 1738 H 163.592 -0.217264 6.51438 0
M  V30 1739 N 167.025 -1.13721 1.09112 0
M  V30 1740 C 168.271 -1.85198 0.826414 0
M  V30 1741 C 168.604 -1.83129 -0.646319 0
M  V30 1742 O 167.879 -1.2671 -1.47563 0
M  V30 1743 C 168.162 -3.33507 1.35812 0
M  V30 1744 C 168.015 -3.44108 2.89672 0
M  V30 1745 C 169.334 -4.28838 0.989256 0
M  V30 1746 H 166.453 -0.67243 0.301675 0
M  V30 1747 H 169.095 -1.33499 1.35197 0
M  V30 1748 H 167.245 -3.77666 0.911082 0
M  V30 1749 H 168.917 -3.08684 3.428 0
M  V30 1750 H 167.16 -2.85087 3.26967 0
M  V30 1751 H 167.831 -4.48388 3.21951 0
M  V30 1752 H 170.307 -3.92734 1.37475 0
M  V30 1753 H 169.183 -5.31051 1.38838 0
M  V30 1754 H 169.444 -4.4198 -0.102924 0
M  V30 1755 N 168.503 -0.877838 -1.30888 0
M  V30 1756 C 169.728 -0.506629 -2.01117 0
M  V30 1757 C 170.153 0.895564 -1.65412 0
M  V30 1758 O 169.511 1.5923 -0.866922 0
M  V30 1759 C 169.559 -0.680223 -3.54126 0
M  V30 1760 O 168.663 0.277033 -4.11468 0
M  V30 1761 H 168.004 -0.200518 -0.633 0
M  V30 1762 H 170.534 -1.18342 -1.66902 0
M  V30 1763 H 170.544 -0.5765 -4.03907 0
M  V30 1764 H 169.219 -1.70261 -3.79452 0
M  V30 1765 H 167.796 0.127606 -3.72682 0
M  V30 1766 N 169.982 1.44106 -0.638065 0
M  V30 1767 C 171.398 1.56672 -0.304286 0
M  V30 1768 C 171.598 1.6244 1.19228 0
M  V30 1769 O 170.654 1.57121 1.9766 0
M  V30 1770 C 171.967 2.83503 -1.00231 0
M  V30 1771 C 173.515 2.97226 -0.981116 0
M  V30 1772 C 173.99 4.26868 -1.65974 0
M  V30 1773 N 175.481 4.33698 -1.62666 0
M  V30 1774 C 176.216 5.32745 -2.12063 0
M  V30 1775 N 175.712 6.38157 -2.6968 0
M  V30 1776 N 177.505 5.24299 -2.02651 0
M  V30 1777 H 169.656 1.38605 -1.60942 0
M  V30 1778 H 171.919 0.664661 -0.675965 0
M  V30 1779 H 171.625 2.85251 -2.0573 0
M  V30 1780 H 171.499 3.73251 -0.54439 0
M  V30 1781 H 173.886 2.95027 0.0654188 0
M  V30 1782 H 173.967 2.08808 -1.47759 0
M  V30 1783 H 173.611 4.29826 -2.70576 0
M  V30 1784 H 173.541 5.14156 -1.13804 0
M  V30 1785 H 176.032 3.58138 -1.20606 0
M  V30 1786 H 176.345 7.10029 -3.05087 0
M  V30 1787 H 174.69 6.38823 -2.73734 0
M  V30 1788 H 177.881 4.4086 -1.57353 0
M  V30 1789 H 178.054 6.01334 -2.41457 0
M  V30 1790 N 171.46 0.379036 1.52974 0
M  V30 1791 C 172.737 -0.263479 1.93817 0
M  V30 1792 C 173.117 -1.65244 1.31368 0
M  V30 1793 O 172.465 -2.23448 0.477856 0
M  V30 1794 C 172.675 -0.300166 3.47707 0
M  V30 1795 C 174.023 -0.534061 4.21228 0
M  V30 1796 O 175.047 -0.38081 3.54159 0
M  V30 1797 O 173.906 -0.833501 5.40106 0
M  V30 1798 H 171 -0.161149 0.811147 0
M  V30 1799 H 173.546 0.432798 1.64088 0
M  V30 1800 H 172.318 0.673138 3.85467 0
M  V30 1801 H 171.941 -1.04179 3.83709 0
M  V30 1802 N 172.938 -1.57226 0.108567 0
M  V30 1803 C 173.868 -2.17778 -0.84232 0
M  V30 1804 C 174.849 -1.11487 -1.2847 0
M  V30 1805 O 176.034 -1.39681 -1.34918 0
M  V30 1806 C 173.164 -2.76888 -2.09644 0
M  V30 1807 C 172.118 -3.88669 -1.79221 0
M  V30 1808 C 171.444 -4.34541 -3.11574 0
M  V30 1809 C 172.744 -5.11251 -1.06864 0
M  V30 1810 H 174.438 -2.97489 -0.337774 0
M  V30 1811 H 171.984 -1.43097 -0.161025 0
M  V30 1812 H 173.937 -3.17904 -2.76614 0
M  V30 1813 H 172.661 -1.94451 -2.62405 0
M  V30 1814 H 171.32 -3.48213 -1.14644 0
M  V30 1815 H 170.968 -3.48977 -3.62249 0
M  V30 1816 H 170.668 -5.09914 -2.91996 0
M  V30 1817 H 172.192 -4.782 -3.7968 0
M  V30 1818 H 173.606 -5.49352 -1.63968 0
M  V30 1819 H 172.003 -5.9214 -0.974178 0
M  V30 1820 H 173.073 -4.8487 -0.0536168 0
M  V30 1821 N 174.416 0.165178 -1.56732 0
M  V30 1822 C 175.827 0.727046 -1.71962 0
M  V30 1823 C 176.178 1.82508 -0.720078 0
M  V30 1824 O 175.303 2.16082 0.117242 0
M  V30 1825 C 175.898 1.32559 -3.11791 0
M  V30 1826 C 174.457 1.83422 -3.28684 0
M  V30 1827 C 173.604 0.715567 -2.67908 0
M  V30 1828 H 176.555 -0.0602896 -1.58585 0
M  V30 1829 H 176.576 2.19533 -3.10782 0
M  V30 1830 H 176.088 0.526195 -3.84516 0
M  V30 1831 H 174.189 2.65986 -2.60926 0
M  V30 1832 H 174.302 1.97543 -4.36478 0
M  V30 1833 H 172.666 1.13758 -2.27884 0
M  V30 1834 H 173.449 -0.0720836 -3.43224 0
M  V30 1835 N 175.894 1.51508 0.433938 0
M  V30 1836 C 177.14 1.64588 1.18484 0
M  V30 1837 C 177.473 0.362666 1.90784 0
M  V30 1838 O 176.748 -0.637892 1.83742 0
M  V30 1839 C 177.031 2.85149 2.19913 0
M  V30 1840 C 176.884 4.23456 1.51674 0
M  V30 1841 C 178.203 3.01227 3.20858 0
M  V30 1842 H 175.322 0.598994 0.429389 0
M  V30 1843 H 177.964 1.84002 0.473647 0
M  V30 1844 H 176.114 2.68729 2.80566 0
M  V30 1845 H 177.786 4.51552 0.943322 0
M  V30 1846 H 176.029 4.25998 0.819035 0
M  V30 1847 H 176.7 5.03812 2.2556 0
M  V30 1848 H 179.176 3.16382 2.70263 0
M  V30 1849 H 178.052 3.87141 3.89118 0
M  V30 1850 H 178.313 2.13447 3.8716 0
M  V30 1851 N 177.372 -0.689602 1.41712 0
M  V30 1852 C 178.305 -1.81403 1.3845 0
M  V30 1853 C 179.283 -1.60653 0.250874 0
M  V30 1854 O 180.467 -1.83323 0.43874 0
M  V30 1855 C 177.594 -3.18176 1.1611 0
M  V30 1856 C 176.64 -3.57705 2.3227 0
M  V30 1857 S 177.473 -3.61827 3.94767 0
M  V30 1858 C 178.629 -5.01318 3.74742 0
M  V30 1859 H 178.862 -1.83893 2.33603 0
M  V30 1860 H 176.395 -0.858878 1.28307 0
M  V30 1861 H 178.353 -3.97132 1.03907 0
M  V30 1862 H 177.014 -3.13288 0.225668 0
M  V30 1863 H 176.207 -4.57082 2.12349 0
M  V30 1864 H 175.809 -2.86073 2.40911 0
M  V30 1865 H 178.101 -5.88986 3.34817 0
M  V30 1866 H 179.044 -5.26283 4.73743 0
M  V30 1867 H 179.452 -4.73138 3.07898 0
M  V30 1868 N 178.85 -1.27639 -0.924453 0
M  V30 1869 C 180.099 -1.13549 -1.66702 0
M  V30 1870 C 180.412 0.317487 -1.93006 0
M  V30 1871 O 181.618 0.579333 -2.65247 0
M  V30 1872 C 180.074 -1.98426 -3.00259 0
M  V30 1873 C 179.682 -3.484 -2.81641 0
M  V30 1874 C 181.426 -1.92993 -3.78092 0
M  V30 1875 C 179.333 -4.25464 -4.10773 0
M  V30 1876 H 178.263 -0.421351 -0.625283 0
M  V30 1877 H 180.914 -1.52085 -1.02676 0
M  V30 1878 H 179.296 -1.52736 -3.6536 0
M  V30 1879 H 180.47 -4.01973 -2.25287 0
M  V30 1880 H 178.785 -3.55245 -2.17232 0
M  V30 1881 H 181.382 -2.47844 -4.7379 0
M  V30 1882 H 181.725 -0.904281 -4.0636 0
M  V30 1883 H 182.258 -2.36595 -3.19793 0
M  V30 1884 H 178.997 -5.28566 -3.87683 0
M  V30 1885 H 178.517 -3.76667 -4.66779 0
M  V30 1886 H 180.196 -4.34812 -4.79111 0
M  V30 1887 N 180.328 1.1314 -1.09713 0
M  V30 1888 C 181.574 1.84967 -0.846104 0
M  V30 1889 C 181.929 1.82082 0.621601 0
M  V30 1890 O 181.222 1.2501 1.452 0
M  V30 1891 C 181.416 3.32167 -1.3191 0
M  V30 1892 C 181.245 3.49386 -2.83125 0
M  V30 1893 C 180.015 3.63456 -3.51038 0
M  V30 1894 C 182.213 3.45179 -3.81256 0
M  V30 1895 N 180.195 3.68966 -4.9065 0
M  V30 1896 C 181.566 3.57094 -5.06837 0
M  V30 1897 C 183.621 3.28598 -3.74069 0
M  V30 1898 C 182.324 3.5414 -6.26081 0
M  V30 1899 C 184.35 3.26953 -4.92804 0
M  V30 1900 C 183.712 3.39422 -6.17229 0
M  V30 1901 H 179.811 0.692899 -0.362512 0
M  V30 1902 H 182.395 1.35506 -1.39808 0
M  V30 1903 H 180.566 3.80186 -0.794535 0
M  V30 1904 H 182.298 3.91815 -1.01308 0
M  V30 1905 H 179.053 3.65256 -3.01471 0
M  V30 1906 H 179.477 3.75404 -5.63383 0
M  V30 1907 H 184.119 3.17858 -2.78794 0
M  V30 1908 H 181.837 3.63653 -7.21653 0
M  V30 1909 H 185.423 3.15316 -4.88945 0
M  V30 1910 H 184.303 3.38114 -7.07565 0
M  V30 1911 N 181.806 0.884767 1.30421 0
M  V30 1912 C 183.055 0.499164 1.95426 0
M  V30 1913 C 183.368 -0.95645 1.70621 0
M  V30 1914 O 184.574 -1.44889 2.29607 0
M  V30 1915 C 183.03 0.84177 3.49917 0
M  V30 1916 C 182.638 2.31514 3.83543 0
M  V30 1917 C 184.382 0.525355 4.21237 0
M  V30 1918 C 182.289 2.59939 5.31212 0
M  V30 1919 H 181.219 0.182944 0.73147 0
M  V30 1920 H 183.87 1.07971 1.48373 0
M  V30 1921 H 182.252 0.190311 3.95542 0
M  V30 1922 H 183.426 3.0109 3.48829 0
M  V30 1923 H 181.741 2.59907 3.25326 0
M  V30 1924 H 184.338 0.714762 5.29901 0
M  V30 1925 H 184.681 -0.535222 4.12845 0
M  V30 1926 H 185.214 1.134 3.81294 0
M  V30 1927 H 181.953 3.64736 5.44654 0
M  V30 1928 H 181.473 1.94972 5.67227 0
M  V30 1929 H 183.152 2.45429 5.98643 0
M  V30 1930 N 183.284 -1.43765 0.645699 0
M  V30 1931 C 184.514 -2.05953 0.163318 0
M  V30 1932 C 184.922 -1.48432 -1.17322 0
M  V30 1933 O 184.265 -0.607295 -1.73371 0
M  V30 1934 C 184.327 -3.59499 -0.0103065 0
M  V30 1935 C 183.991 -4.39563 1.25035 0
M  V30 1936 C 184.988 -4.72108 2.17739 0
M  V30 1937 C 182.673 -4.79697 1.48983 0
M  V30 1938 C 184.667 -5.43688 3.3269 0
M  V30 1939 C 182.354 -5.51023 2.64229 0
M  V30 1940 C 183.352 -5.8294 3.55908 0
M  V30 1941 O 183.04 -6.5281 4.69142 0
M  V30 1942 H 182.772 -0.670798 0.0836986 0
M  V30 1943 H 185.326 -1.85384 0.884407 0
M  V30 1944 H 183.556 -3.78613 -0.78669 0
M  V30 1945 H 185.245 -4.03408 -0.449087 0
M  V30 1946 H 186.011 -4.41627 2.00476 0
M  V30 1947 H 181.89 -4.54266 0.785078 0
M  V30 1948 H 185.434 -5.68517 4.04269 0
M  V30 1949 H 181.331 -5.8092 2.81429 0
M  V30 1950 H 182.099 -6.71288 4.6831 0
M  V30 1951 N 184.763 -0.387143 -1.52771 0
M  V30 1952 C 186.011 0.195349 -2.01154 0
M  V30 1953 C 186.332 1.475 -1.27549 0
M  V30 1954 O 185.602 1.91878 -0.394924 0
M  V30 1955 H 184.182 0.075178 -0.743207 0
M  V30 1956 H 186.844 -0.518337 -1.87881 0
M  V30 1957 H 185.94 0.407096 -3.09434 0
M  V30 1958 N 186.241 1.57166 -0.116904 0
M  V30 1959 C 187.489 1.94737 0.540533 0
M  V30 1960 C 187.81 1.00096 1.67349 0
M  V30 1961 O 187.08 0.0568854 1.95817 0
M  V30 1962 H 185.66 0.718981 0.202669 0
M  V30 1963 H 188.322 1.94017 -0.185353 0
M  V30 1964 H 187.418 2.97719 0.936483 0
M  V30 1965 N 187.719 -0.156864 1.56817 0
M  V30 1966 C 188.682 -1.17781 1.96622 0
M  V30 1967 C 189.682 -1.36401 0.851555 0
M  V30 1968 O 190.872 -1.33561 1.11836 0
M  V30 1969 C 188.004 -2.54008 2.27361 0
M  V30 1970 H 189.197 -0.836564 2.87996 0
M  V30 1971 H 186.75 -0.39985 1.51099 0
M  V30 1972 H 187.485 -2.9312 1.38748 0
M  V30 1973 H 187.27 -2.41856 3.08623 0
M  V30 1974 H 188.76 -3.27558 2.59029 0
M  V30 1975 N 189.197 -1.51736 -0.425897 0
M  V30 1976 C 190.444 -1.6497 -1.17436 0
M  V30 1977 C 190.772 -0.371445 -1.9092 0
M  V30 1978 O 190.027 0.644963 -1.84767 0
M  V30 1979 C 190.326 -2.81103 -2.20717 0
M  V30 1980 C 189.992 -4.19954 -1.64162 0
M  V30 1981 C 188.654 -4.57725 -1.48462 0
M  V30 1982 C 191.006 -5.06552 -1.22696 0
M  V30 1983 C 188.334 -5.79789 -0.897873 0
M  V30 1984 C 190.686 -6.29205 -0.654464 0
M  V30 1985 C 189.35 -6.6574 -0.484456 0
M  V30 1986 H 188.62 -0.603668 -0.429727 0
M  V30 1987 H 191.267 -1.85798 -0.463829 0
M  V30 1988 H 189.572 -2.54542 -2.97852 0
M  V30 1989 H 191.269 -2.8854 -2.78471 0
M  V30 1990 H 187.859 -3.90181 -1.77361 0
M  V30 1991 H 192.043 -4.77968 -1.33642 0
M  V30 1992 H 187.299 -6.06733 -0.75402 0
M  V30 1993 H 191.473 -6.95643 -0.324694 0
M  V30 1994 H 189.1 -7.60195 -0.0276833 0
M  V30 1995 N 190.675 0.682077 -1.42076 0
M  V30 1996 C 191.605 1.80796 -1.47767 0
M  V30 1997 C 192.586 1.6677 -0.334954 0
M  V30 1998 O 193.771 1.863 -0.548264 0
M  V30 1999 C 190.901 3.19038 -1.37229 0
M  V30 2000 C 189.855 3.47789 -2.49453 0
M  V30 2001 C 189.181 4.8553 -2.23975 0
M  V30 2002 C 190.481 3.45411 -3.91776 0
M  V30 2003 H 192.175 1.7629 -2.41997 0
M  V30 2004 H 189.721 0.846721 -1.16476 0
M  V30 2005 H 191.674 3.97528 -1.39821 0
M  V30 2006 H 190.398 3.24204 -0.394907 0
M  V30 2007 H 189.057 2.71657 -2.46166 0
M  V30 2008 H 188.705 4.87337 -1.24547 0
M  V30 2009 H 188.405 5.0573 -2.99184 0
M  V30 2010 H 189.929 5.66312 -2.28304 0
M  V30 2011 H 191.343 4.13882 -3.96705 0
M  V30 2012 H 189.74 3.77145 -4.66778 0
M  V30 2013 H 190.81 2.44122 -4.18966 0
M  V30 2014 N 192.153 1.28127 0.917671 0
M  V30 2015 C 193.086 1.06039 2.02067 0
M  V30 2016 C 194.064 -0.0223285 1.62585 0
M  V30 2017 O 195.248 0.124823 1.88086 0
M  V30 2018 C 192.375 0.610596 3.33151 0
M  V30 2019 C 191.421 1.68937 3.91615 0
M  V30 2020 S 192.254 3.28437 4.22953 0
M  V30 2021 C 193.41 2.85283 5.57103 0
M  V30 2022 H 193.643 1.99425 2.20493 0
M  V30 2023 H 191.176 1.12071 1.06205 0
M  V30 2024 H 193.134 0.357778 4.08938 0
M  V30 2025 H 191.795 -0.303364 3.12632 0
M  V30 2026 H 190.988 1.32619 4.86239 0
M  V30 2027 H 190.59 1.89478 3.2245 0
M  V30 2028 H 192.882 2.3121 6.36827 0
M  V30 2029 H 193.825 3.7869 5.98331 0
M  V30 2030 H 194.233 2.24118 5.18104 0
M  V30 2031 N 193.631 -1.12557 1.10312 0
M  V30 2032 C 194.879 -1.83675 0.843091 0
M  V30 2033 C 195.2 -1.84435 -0.633131 0
M  V30 2034 O 194.47 -1.30657 -1.45964 0
M  V30 2035 H 193.05 -0.680138 0.308904 0
M  V30 2036 H 195.712 -1.36301 1.39313 0
M  V30 2037 H 194.808 -2.87908 1.2048 0
M  V30 2038 N 195.109 -0.891671 -1.2995 0
M  V30 2039 C 196.334 -0.527932 -2.00568 0
M  V30 2040 C 196.759 0.877969 -1.66353 0
M  V30 2041 O 196.117 1.58301 -0.883762 0
M  V30 2042 C 196.165 -0.717745 -3.53385 0
M  V30 2043 O 195.269 0.233376 -4.11739 0
M  V30 2044 H 194.61 -0.20722 -0.630837 0
M  V30 2045 H 197.14 -1.20105 -1.65638 0
M  V30 2046 H 197.15 -0.619307 -4.03272 0
M  V30 2047 H 195.825 -1.74276 -3.77625 0
M  V30 2048 H 194.402 0.0880706 -3.72796 0
M  V30 2049 N 196.587 1.43421 -0.653314 0
M  V30 2050 C 197.835 2.01414 -0.166415 0
M  V30 2051 C 198.156 1.51803 1.22397 0
M  V30 2052 O 197.426 0.730693 1.81763 0
M  V30 2053 H 196.006 0.744703 -0.0585319 0
M  V30 2054 H 198.668 1.75629 -0.845003 0
M  V30 2055 H 197.764 3.11734 -0.151111 0
M  V30 2056 N 198.065 0.39524 1.52563 0
M  V30 2057 C 199.015 -0.4541 2.23432 0
M  V30 2058 C 199.999 -1.02482 1.24042 0
M  V30 2059 O 201.191 -0.949938 1.49349 0
M  V30 2060 C 198.32 -1.57769 3.049 0
M  V30 2061 C 197.406 -1.01842 4.1169 0
M  V30 2062 N 197.797 -0.184613 5.05463 0
M  V30 2063 C 196.095 -1.29033 4.26927 0
M  V30 2064 C 196.796 0.125013 5.81566 0
M  V30 2065 N 195.772 -0.480498 5.41472 0
M  V30 2066 H 199.574 0.189413 2.93289 0
M  V30 2067 H 197.088 0.204877 1.61102 0
M  V30 2068 H 199.085 -2.19862 3.54212 0
M  V30 2069 H 197.745 -2.22397 2.36579 0
M  V30 2070 H 198.756 0.178602 5.17592 0
M  V30 2071 H 195.433 -1.93721 3.69836 0
M  V30 2072 H 196.823 0.800962 6.67109 0
M  V30 2073 N 199.544 -1.57102 0.125237 0
M  V30 2074 C 200.792 -1.95021 -0.530198 0
M  V30 2075 C 201.113 -1.00982 -1.66816 0
M  V30 2076 O 200.383 -0.0672693 -1.95784 0
M  V30 2077 H 198.963 -0.720046 -0.198853 0
M  V30 2078 H 201.625 -1.93916 0.19564 0
M  V30 2079 H 200.721 -2.98211 -0.920681 0
M  V30 2080 N 201.022 0.148545 -1.56898 0
M  V30 2081 C 201.985 1.16736 -1.97244 0
M  V30 2082 C 202.985 1.35947 -0.858777 0
M  V30 2083 O 204.175 1.32966 -1.12542 0
M  V30 2084 C 201.307 2.52798 -2.28705 0
M  V30 2085 H 202.5 0.821279 -2.88435 0
M  V30 2086 H 200.053 0.391831 -1.51309 0
M  V30 2087 H 200.788 2.92381 -1.403 0
M  V30 2088 H 200.573 2.40216 -3.09901 0
M  V30 2089 H 202.063 3.26179 -2.60762 0
M  V30 2090 N 202.5 1.5196 0.417844 0
M  V30 2091 C 203.448 1.75278 1.52907 0
M  V30 2092 C 204.442 0.619611 1.57662 0
M  V30 2093 O 205.648 0.801457 1.61173 0
M  V30 2094 H 202.023 0.554141 0.508362 0
M  V30 2095 H 203.994 2.68389 1.30422 0
M  V30 2096 C 202.743 1.91262 2.90369 0
M  V30 2097 H 202.066 2.77872 2.8745 0
M  V30 2098 H 203.506 2.11581 3.67436 0
M  V30 2099 C 201.965 0.677431 3.30019 0
M  V30 2100 O 202.495 -0.158799 4.01386 0
M  V30 2101 N 200.701 0.515851 2.85985 0
M  V30 2102 H 200.248 1.19744 2.28077 0
M  V30 2103 H 200.206 -0.309315 3.12875 0
M  V30 2104 N 203.978 -0.674533 1.42435 0
M  V30 2105 C 205.225 -1.43459 1.42919 0
M  V30 2106 C 205.553 -1.94446 0.0457312 0
M  V30 2107 O 204.808 -1.7132 -0.94593 0
M  V30 2108 C 205.107 -2.64767 2.40069 0
M  V30 2109 C 204.773 -2.3232 3.86443 0
M  V30 2110 C 203.435 -2.23182 4.26314 0
M  V30 2111 C 205.787 -2.05977 4.78773 0
M  V30 2112 C 203.115 -1.85827 5.56494 0
M  V30 2113 C 205.467 -1.70125 6.09295 0
M  V30 2114 C 204.131 -1.59498 6.48164 0
M  V30 2115 H 203.401 -0.524952 0.522978 0
M  V30 2116 H 206.048 -0.769097 1.75377 0
M  V30 2117 H 204.353 -3.36349 2.00939 0
M  V30 2118 H 206.05 -3.22949 2.37707 0
M  V30 2119 H 202.64 -2.40334 3.54877 0
M  V30 2120 H 206.824 -2.11969 4.48757 0
M  V30 2121 H 202.08 -1.76168 5.8547 0
M  V30 2122 H 206.254 -1.48767 6.80324 0
M  V30 2123 H 203.881 -1.30322 7.48946 0
M  V30 2124 N 205.456 -1.28612 -0.910864 0
M  V30 2125 C 206.386 -1.15326 -2.03032 0
M  V30 2126 C 207.367 -0.0502924 -1.70026 0
M  V30 2127 O 208.552 -0.227797 -1.92859 0
M  V30 2128 C 205.682 -0.817343 -3.37545 0
M  V30 2129 C 204.636 -1.8754 -3.84724 0
M  V30 2130 C 203.962 -1.39305 -5.16235 0
M  V30 2131 C 205.262 -3.28244 -4.06267 0
M  V30 2132 H 206.956 -2.08975 -2.14406 0
M  V30 2133 H 204.502 -1.00612 -1.03021 0
M  V30 2134 H 206.455 -0.711151 -4.15356 0
M  V30 2135 H 205.179 0.154846 -3.26233 0
M  V30 2136 H 203.838 -1.97079 -3.09121 0
M  V30 2137 H 203.486 -0.409846 -5.01328 0
M  V30 2138 H 203.186 -2.10057 -5.48771 0
M  V30 2139 H 204.71 -1.30014 -5.96598 0
M  V30 2140 H 206.124 -3.21611 -4.74594 0
M  V30 2141 H 204.521 -3.96855 -4.5014 0
M  V30 2142 H 205.591 -3.72048 -3.10979 0
M  V30 2143 N 206.934 1.1197 -1.10907 0
M  V30 2144 C 207.882 2.19927 -0.757303 0
M  V30 2145 C 208.876 1.67564 0.248747 0
M  V30 2146 O 210.082 1.79672 0.108605 0
M  V30 2147 H 206.457 0.716925 -0.226987 0
M  V30 2148 H 208.428 2.46847 -1.67658 0
M  V30 2149 C 207.177 3.47061 -0.210671 0
M  V30 2150 H 206.5 3.87703 -0.976049 0
M  V30 2151 H 207.94 4.24 -0.0026584 0
M  V30 2152 C 206.399 3.19864 1.05777 0
M  V30 2153 O 206.929 3.40049 2.13845 0
M  V30 2154 N 205.135 2.73636 0.978349 0
M  V30 2155 H 204.682 2.5741 0.0988246 0
M  V30 2156 H 204.64 2.55815 1.82773 0
M  V30 2157 N 208.412 0.89855 1.29475 0
M  V30 2158 C 209.36 0.365253 2.29714 0
M  V30 2159 C 210.354 -0.534993 1.6073 0
M  V30 2160 O 211.56 -0.417921 1.75081 0
M  V30 2161 H 207.935 0.0994853 0.74539 0
M  V30 2162 H 209.906 1.22406 2.72138 0
M  V30 2163 C 208.655 -0.393159 3.4547 0
M  V30 2164 H 207.978 0.290332 3.98744 0
M  V30 2165 H 209.418 -0.731189 4.17648 0
M  V30 2166 C 207.877 -1.59539 2.9673 0
M  V30 2167 O 208.407 -2.69469 2.97908 0
M  V30 2168 N 206.613 -1.43716 2.52575 0
M  V30 2169 H 206.16 -0.542828 2.51816 0
M  V30 2170 H 206.118 -2.24288 2.20323 0
M  V30 2171 N 209.89 -1.43072 0.660911 0
M  V30 2172 C 211.12 -2.05769 0.185153 0
M  V30 2173 C 211.528 -1.49668 -1.15742 0
M  V30 2174 O 210.871 -0.625649 -1.72717 0
M  V30 2175 C 210.933 -3.59489 0.0278237 0
M  V30 2176 C 210.597 -4.38212 1.2969 0
M  V30 2177 C 211.594 -4.69772 2.22734 0
M  V30 2178 C 209.279 -4.7809 1.54063 0
M  V30 2179 C 211.273 -5.40129 3.38437 0
M  V30 2180 C 208.96 -5.4819 2.70058 0
M  V30 2181 C 209.958 -5.79132 3.62071 0
M  V30 2182 O 209.646 -6.47798 4.76039 0
M  V30 2183 H 209.378 -0.669873 0.0908086 0
M  V30 2184 H 211.932 -1.84436 0.90402 0
M  V30 2185 H 210.162 -3.79426 -0.746489 0
M  V30 2186 H 211.851 -4.03862 -0.406275 0
M  V30 2187 H 212.617 -4.39476 2.05149 0
M  V30 2188 H 208.496 -4.53408 0.833215 0
M  V30 2189 H 212.04 -5.64198 4.10277 0
M  V30 2190 H 207.937 -5.77902 2.87574 0
M  V30 2191 H 208.705 -6.66283 4.75404 0
M  V30 2192 N 211.368 -0.403325 -1.52352 0
M  V30 2193 C 212.298 0.416205 -2.29761 0
M  V30 2194 C 213.279 1.05123 -1.33728 0
M  V30 2195 O 214.464 1.06134 -1.62632 0
M  V30 2196 C 211.594 1.53624 -3.11475 0
M  V30 2197 C 210.548 1.02653 -4.15507 0
M  V30 2198 C 209.874 2.23971 -4.85532 0
M  V30 2199 C 211.174 0.08463 -5.22231 0
M  V30 2200 H 212.868 -0.229701 -2.98518 0
M  V30 2201 H 210.414 -0.111913 -1.43564 0
M  V30 2202 H 212.367 2.1165 -3.64393 0
M  V30 2203 H 211.091 2.20994 -2.40477 0
M  V30 2204 H 209.75 0.46871 -3.63591 0
M  V30 2205 H 209.398 2.89883 -4.11068 0
M  V30 2206 H 209.098 1.90521 -5.55856 0
M  V30 2207 H 210.622 2.82614 -5.41259 0
M  V30 2208 H 212.036 0.573509 -5.70424 0
M  V30 2209 H 210.433 -0.160783 -5.99885 0
M  V30 2210 H 211.503 -0.86237 -4.7717 0
M  V30 2211 N 212.846 1.57033 -0.133567 0
M  V30 2212 C 214.076 1.99754 0.527429 0
M  V30 2213 C 214.484 1.01245 1.59832 0
M  V30 2214 O 213.827 -0.000645496 1.837 0
M  V30 2215 C 213.889 3.38903 1.19939 0
M  V30 2216 C 213.553 4.56174 0.274709 0
M  V30 2217 C 214.55 5.17563 -0.492398 0
M  V30 2218 C 212.235 5.01972 0.18153 0
M  V30 2219 C 214.229 6.2315 -1.34027 0
M  V30 2220 C 211.916 6.07416 -0.669958 0
M  V30 2221 C 212.914 6.67874 -1.42947 0
M  V30 2222 O 212.602 7.71279 -2.2668 0
M  V30 2223 H 212.334 0.660702 0.142999 0
M  V30 2224 H 214.888 2.04207 -0.221099 0
M  V30 2225 H 213.118 3.31248 1.99528 0
M  V30 2226 H 214.807 3.65818 1.75875 0
M  V30 2227 H 215.573 4.83087 -0.430367 0
M  V30 2228 H 211.452 4.54652 0.762422 0
M  V30 2229 H 214.996 6.70268 -1.93357 0
M  V30 2230 H 210.893 6.41321 -0.73333 0
M  V30 2231 H 211.661 7.88441 -2.1978 0
M  V30 2232 N 214.325 -0.140222 1.56975 0
M  V30 2233 C 215.602 -0.880769 1.74648 0
M  V30 2234 C 215.982 -1.99036 0.703404 0
M  V30 2235 O 215.33 -2.26821 -0.27648 0
M  V30 2236 C 215.54 -1.417 3.18939 0
M  V30 2237 C 216.888 -1.87774 3.80823 0
M  V30 2238 O 217.912 -1.51427 3.2241 0
M  V30 2239 O 216.771 -2.54827 4.83452 0
M  V30 2240 H 213.865 -0.416713 0.714338 0
M  V30 2241 H 216.411 -0.125618 1.69234 0
M  V30 2242 H 215.183 -0.619902 3.86359 0
M  V30 2243 H 214.806 -2.23546 3.28805 0
M  V30 2244 N 215.803 -1.52179 -0.40978 0
M  V30 2245 C 217.051 -1.65878 -1.15451 0
M  V30 2246 C 217.372 -0.390771 -1.91044 0
M  V30 2247 O 216.642 0.594323 -1.86667 0
M  V30 2248 H 215.222 -0.611405 -0.429177 0
M  V30 2249 H 217.884 -1.89219 -0.467134 0
M  V30 2250 H 216.98 -2.49954 -1.86894 0
M  V30 2251 N 217.281 0.66697 -1.42791 0
M  V30 2252 C 218.191 1.80962 -1.49299 0
M  V30 2253 C 219.207 1.69775 -0.381108 0
M  V30 2254 O 220.383 1.91188 -0.633188 0
M  V30 2255 C 217.448 3.17156 -1.40045 0
M  V30 2256 C 216.509 3.40242 -2.6179 0
M  V30 2257 C 215.742 4.69939 -2.52969 0
M  V30 2258 O 215.965 5.48372 -1.56985 0
M  V30 2259 O 214.899 4.94441 -3.43237 0
M  V30 2260 H 218.725 1.78427 -2.45759 0
M  V30 2261 H 216.31 0.823713 -1.24641 0
M  V30 2262 H 218.192 3.98413 -1.37276 0
M  V30 2263 H 216.867 3.20312 -0.467138 0
M  V30 2264 H 215.774 2.58802 -2.70134 0
M  V30 2265 H 217.107 3.41923 -3.54047 0
M  V30 2266 N 218.759 1.29093 0.90403 0
M  V30 2267 C 219.669 1.15727 2.0407 0
M  V30 2268 C 220.685 0.0815308 1.73809 0
M  V30 2269 O 221.861 0.292749 1.99261 0
M  V30 2270 C 218.926 0.830424 3.36608 0
M  V30 2271 C 217.987 1.98955 3.80415 0
M  V30 2272 C 217.22 1.6782 5.06628 0
M  V30 2273 O 217.443 0.597105 5.67266 0
M  V30 2274 O 216.377 2.52486 5.46383 0
M  V30 2275 H 220.203 2.11171 2.18267 0
M  V30 2276 H 217.788 1.08504 1.027 0
M  V30 2277 H 219.67 0.662521 4.16159 0
M  V30 2278 H 218.345 -0.0942678 3.23563 0
M  V30 2279 H 217.252 2.21267 3.01648 0
M  V30 2280 H 218.585 2.89529 3.98037 0
M  V30 2281 N 220.237 -1.11381 1.11499 0
M  V30 2282 C 221.486 -1.82494 0.858993 0
M  V30 2283 C 221.799 -1.85605 -0.617278 0
M  V30 2284 O 223.005 -2.52824 -0.989552 0
M  V30 2285 C 221.461 -3.27745 1.48699 0
M  V30 2286 C 221.069 -3.32961 2.99735 0
M  V30 2287 C 222.813 -4.03754 1.31085 0
M  V30 2288 C 220.72 -4.72612 3.55516 0
M  V30 2289 H 219.65 -0.683802 0.317696 0
M  V30 2290 H 222.301 -1.25331 1.34031 0
M  V30 2291 H 220.683 -3.84844 0.933339 0
M  V30 2292 H 221.857 -2.85741 3.61509 0
M  V30 2293 H 220.172 -2.70433 3.16631 0
M  V30 2294 H 222.769 -5.06891 1.70192 0
M  V30 2295 H 223.112 -4.15527 0.253496 0
M  V30 2296 H 223.645 -3.53043 1.83318 0
M  V30 2297 H 220.384 -4.66036 4.60967 0
M  V30 2298 H 219.904 -5.2024 2.98513 0
M  V30 2299 H 221.583 -5.4157 3.53992 0
M  V30 2300 N 221.715 -0.905404 -1.28997 0
M  V30 2301 C 222.678 -0.392253 -2.25819 0
M  V30 2302 C 223.678 0.476753 -1.5357 0
M  V30 2303 O 224.868 0.280994 -1.71919 0
M  V30 2304 C 222 0.438588 -3.38067 0
M  V30 2305 H 223.193 -1.24743 -2.72725 0
M  V30 2306 H 220.746 -0.684051 -1.40536 0
M  V30 2307 H 221.481 1.31352 -2.96508 0
M  V30 2308 H 221.266 -0.184167 -3.91667 0
M  V30 2309 H 222.756 0.78873 -4.10084 0
M  V30 2310 N 223.193 1.4272 -0.668489 0
M  V30 2311 C 224.421 2.05966 -0.196348 0
M  V30 2312 C 224.836 1.50191 1.14403 0
M  V30 2313 O 224.193 0.639208 1.7094 0
M  V30 2314 C 224.244 3.61314 -0.115815 0
M  V30 2315 O 223.965 4.1502 -1.40322 0
M  V30 2316 C 225.466 4.41663 0.380579 0
M  V30 2317 H 222.686 0.663954 -0.0969829 0
M  V30 2318 H 225.23 1.82966 -0.913446 0
M  V30 2319 H 223.385 3.83448 0.551931 0
M  V30 2320 H 223.799 5.08832 -1.27243 0
M  V30 2321 H 225.273 5.5065 0.385848 0
M  V30 2322 H 225.75 4.15792 1.41471 0
M  V30 2323 H 226.356 4.24534 -0.255209 0
M  V30 2324 N 224.671 0.411399 1.52136 0
M  V30 2325 C 226.087 0.0623865 1.59478 0
M  V30 2326 C 226.287 -1.42554 1.4241 0
M  V30 2327 O 225.343 -2.19263 1.2522 0
M  V30 2328 C 226.656 0.559331 2.95452 0
M  V30 2329 C 228.204 0.517503 3.08692 0
M  V30 2330 C 228.679 0.990994 4.4715 0
M  V30 2331 N 230.17 0.947908 4.53397 0
M  V30 2332 C 230.905 1.28544 5.58806 0
M  V30 2333 N 230.401 1.69454 6.71757 0
M  V30 2334 N 232.194 1.20526 5.49026 0
M  V30 2335 H 224.345 1.37982 1.61477 0
M  V30 2336 H 226.608 0.566977 0.759764 0
M  V30 2337 H 226.314 1.59938 3.1323 0
M  V30 2338 H 226.188 -0.0298014 3.77188 0
M  V30 2339 H 228.575 -0.513505 2.90598 0
M  V30 2340 H 228.656 1.14272 2.28857 0
M  V30 2341 H 228.3 2.02034 4.65988 0
M  V30 2342 H 228.23 0.34257 5.25485 0
M  V30 2343 H 230.721 0.647157 3.72317 0
M  V30 2344 H 231.034 1.93513 7.48179 0
M  V30 2345 H 229.379 1.73359 6.73032 0
M  V30 2346 H 232.57 0.884505 4.59667 0
M  V30 2347 H 232.743 1.47161 6.31069 0
M  V30 2348 N 226.149 -1.5696 0.141893 0
M  V30 2349 C 227.397 -1.95573 -0.509484 0
M  V30 2350 C 227.718 -1.02746 -1.65736 0
M  V30 2351 O 226.988 -0.0880311 -1.95702 0
M  V30 2352 H 225.568 -0.722115 -0.191205 0
M  V30 2353 H 228.23 -1.93697 0.216196 0
M  V30 2354 H 227.326 -2.99171 -0.889 0
M  V30 2355 N 227.627 0.131896 -1.57047 0
M  V30 2356 C 228.575 1.18146 -2.0036 0
M  V30 2357 C 229.569 1.43614 -0.898406 0
M  V30 2358 O 230.775 1.43729 -1.08361 0
M  V30 2359 H 227.15 0.398042 -0.638018 0
M  V30 2360 H 229.121 0.789564 -2.87765 0
M  V30 2361 C 227.87 2.50341 -2.41298 0
M  V30 2362 H 227.193 2.31578 -3.25902 0
M  V30 2363 H 228.633 3.22371 -2.75414 0
M  V30 2364 C 227.092 3.11984 -1.27153 0
M  V30 2365 O 227.622 3.97484 -0.580459 0
M  V30 2366 N 225.828 2.71662 -1.03189 0
M  V30 2367 H 225.375 2.02231 -1.59564 0
M  V30 2368 H 225.333 3.13238 -0.270077 0
M  V30 2369 N 229.106 1.52395 0.401703 0
M  V30 2370 C 230.352 1.67065 1.14966 0
M  V30 2371 C 230.685 0.403052 1.89971 0
M  V30 2372 O 229.96 -0.598774 1.85054 0
M  V30 2373 C 230.243 2.8975 2.13815 0
M  V30 2374 C 230.096 4.26578 1.42658 0
M  V30 2375 C 231.415 3.07965 3.14397 0
M  V30 2376 H 228.534 0.607968 0.416587 0
M  V30 2377 H 231.176 1.84965 0.434511 0
M  V30 2378 H 229.326 2.74619 2.74803 0
M  V30 2379 H 230.998 4.53451 0.847329 0
M  V30 2380 H 229.241 4.27639 0.72849 0
M  V30 2381 H 229.912 5.08483 2.14823 0
M  V30 2382 H 232.388 3.22043 2.63491 0
M  V30 2383 H 231.264 3.95308 3.80819 0
M  V30 2384 H 231.525 2.21611 3.82545 0
M  V30 2385 N 230.584 -0.659388 1.43143 0
M  V30 2386 C 231.833 -1.41518 1.43721 0
M  V30 2387 C 232.146 -1.95499 0.0628176 0
M  V30 2388 O 233.352 -2.71446 -0.0539683 0
M  V30 2389 C 231.808 -2.5608 2.52885 0
M  V30 2390 C 231.416 -2.08733 3.96402 0
M  V30 2391 C 233.16 -3.3349 2.62649 0
M  V30 2392 C 231.067 -3.20469 4.97045 0
M  V30 2393 H 229.997 -0.531705 0.534608 0
M  V30 2394 H 232.648 -0.712343 1.69109 0
M  V30 2395 H 231.03 -3.28805 2.20688 0
M  V30 2396 H 232.204 -1.43059 4.3803 0
M  V30 2397 H 230.519 -1.44219 3.90627 0
M  V30 2398 H 233.116 -4.16734 3.35017 0
M  V30 2399 H 233.459 -3.8111 1.67513 0
M  V30 2400 H 233.992 -2.67842 2.94118 0
M  V30 2401 H 230.731 -2.77824 5.93712 0
M  V30 2402 H 230.251 -3.84874 4.60034 0
M  V30 2403 H 231.93 -3.85698 5.19467 0
M  V30 2404 N 232.062 -1.29571 -0.897171 0
M  V30 2405 C 233.308 -1.17863 -1.65034 0
M  V30 2406 C 233.641 0.268729 -1.92332 0
M  V30 2407 O 232.916 1.19378 -1.53555 0
M  V30 2408 C 233.199 -1.995 -2.99786 0
M  V30 2409 C 233.052 -3.5239 -2.79538 0
M  V30 2410 C 234.371 -1.82335 -4.00552 0
M  V30 2411 H 231.49 -0.429528 -0.598895 0
M  V30 2412 H 234.132 -1.59072 -1.03905 0
M  V30 2413 H 232.282 -1.64485 -3.51962 0
M  V30 2414 H 233.954 -3.97401 -2.34244 0
M  V30 2415 H 232.197 -3.77187 -2.14273 0
M  V30 2416 H 232.868 -4.04787 -3.75302 0
M  V30 2417 H 235.344 -2.12924 -3.57495 0
M  V30 2418 H 234.22 -2.41801 -4.92771 0
M  V30 2419 H 234.481 -0.779209 -4.35179 0
M  V30 2420 N 233.54 1.10788 -1.12088 0
M  V30 2421 C 234.786 1.82942 -0.875226 0
M  V30 2422 C 235.119 1.84779 0.597538 0
M  V30 2423 O 234.394 1.30578 1.44152 0
M  V30 2424 C 234.677 3.29789 -1.44606 0
M  V30 2425 C 234.53 3.36307 -2.98693 0
M  V30 2426 C 235.849 4.26064 -1.10261 0
M  V30 2427 H 232.968 0.664195 -0.319397 0
M  V30 2428 H 235.61 1.29867 -1.38689 0
M  V30 2429 H 233.76 3.75118 -1.01089 0
M  V30 2430 H 235.432 2.99487 -3.50864 0
M  V30 2431 H 233.675 2.76318 -3.34411 0
M  V30 2432 H 234.346 4.39694 -3.33726 0
M  V30 2433 H 236.822 3.88951 -1.4784 0
M  V30 2434 H 235.698 5.27183 -1.52869 0
M  V30 2435 H 235.959 4.42098 -0.0142953 0
M  V30 2436 N 235.018 0.912232 1.28515 0
M  V30 2437 C 236.246 0.560416 1.99166 0
M  V30 2438 C 236.661 -0.857927 1.68182 0
M  V30 2439 O 236.018 -1.56805 0.933733 0
M  V30 2440 C 236.069 0.758142 3.53461 0
M  V30 2441 O 235.79 2.12067 3.83352 0
M  V30 2442 C 237.291 0.412954 4.41372 0
M  V30 2443 H 234.511 0.213805 0.636026 0
M  V30 2444 H 237.055 1.22502 1.63749 0
M  V30 2445 H 235.21 0.140556 3.87145 0
M  V30 2446 H 235.624 2.15923 4.77993 0
M  V30 2447 H 237.098 0.60208 5.48707 0
M  V30 2448 H 237.575 -0.65073 4.34353 0
M  V30 2449 H 238.181 1.00802 4.13182 0
M  V30 2450 N 236.496 -1.42363 0.676048 0
M  V30 2451 C 237.743 -2.01522 0.19883 0
M  V30 2452 C 238.071 -1.53456 -1.19505 0
M  V30 2453 O 237.326 -0.727967 -1.81657 0
M  V30 2454 C 237.625 -3.56929 0.183431 0
M  V30 2455 C 237.291 -4.24431 1.52215 0
M  V30 2456 C 235.953 -4.42585 1.8887 0
M  V30 2457 C 238.305 -4.62459 2.40377 0
M  V30 2458 C 235.633 -4.96039 3.13309 0
M  V30 2459 C 237.985 -5.17294 3.64129 0
M  V30 2460 C 236.649 -5.33661 4.00951 0
M  V30 2461 H 235.919 -0.737419 0.0727571 0
M  V30 2462 H 238.566 -1.70531 0.871281 0
M  V30 2463 H 236.871 -3.87594 -0.572532 0
M  V30 2464 H 238.568 -4.00486 -0.203035 0
M  V30 2465 H 235.158 -4.10661 1.22701 0
M  V30 2466 H 239.342 -4.48105 2.13343 0
M  V30 2467 H 234.598 -5.06896 3.41857 0
M  V30 2468 H 238.772 -5.45704 4.32644 0
M  V30 2469 H 236.399 -5.74845 4.9745 0
M  V30 2470 N 237.974 -0.419461 -1.51915 0
M  V30 2471 C 238.922 0.415502 -2.28859 0
M  V30 2472 C 239.916 1.03674 -1.3397 0
M  V30 2473 O 241.122 0.973757 -1.51387 0
M  V30 2474 H 237.497 0.152786 -0.736315 0
M  V30 2475 H 239.468 -0.254531 -2.97312 0
M  V30 2476 C 238.217 1.51425 -3.12995 0
M  V30 2477 H 237.54 1.04556 -3.85886 0
M  V30 2478 H 238.98 2.07208 -3.6992 0
M  V30 2479 C 237.439 2.48745 -2.27217 0
M  V30 2480 O 237.969 3.52871 -1.9195 0
M  V30 2481 N 236.175 2.19202 -1.90785 0
M  V30 2482 H 235.722 1.34556 -2.19664 0
M  V30 2483 H 235.68 2.84561 -1.33687 0
M  V30 2484 N 239.452 1.56882 -0.150215 0
M  V30 2485 C 240.682 2.00302 0.506213 0
M  V30 2486 C 241.09 1.02934 1.58749 0
M  V30 2487 O 240.433 0.0188384 1.8369 0
M  V30 2488 C 240.495 3.40156 1.16337 0
M  V30 2489 C 240.159 4.56439 0.226311 0
M  V30 2490 C 241.156 5.17012 -0.547265 0
M  V30 2491 C 238.841 5.02136 0.128279 0
M  V30 2492 C 240.835 6.21693 -1.40629 0
M  V30 2493 C 238.522 6.06672 -0.734345 0
M  V30 2494 C 239.52 6.6632 -1.50023 0
M  V30 2495 O 239.208 7.68831 -2.34848 0
M  V30 2496 H 238.94 0.662182 0.135984 0
M  V30 2497 H 241.494 2.03961 -0.242746 0
M  V30 2498 H 239.724 3.33346 1.96004 0
M  V30 2499 H 241.413 3.67663 1.71985 0
M  V30 2500 H 242.179 4.82603 -0.48158 0
M  V30 2501 H 238.058 4.55435 0.714157 0
M  V30 2502 H 241.602 6.68179 -2.00455 0
M  V30 2503 H 237.499 6.40507 -0.801309 0
M  V30 2504 H 238.267 7.86065 -2.28131 0
M  V30 2505 N 240.93 -0.123565 1.57115 0
M  V30 2506 C 242.346 -0.476961 1.52306 0
M  V30 2507 C 242.546 -1.82109 0.86248 0
M  V30 2508 O 241.602 -2.48586 0.442884 0
M  V30 2509 C 242.915 -0.465661 2.97073 0
M  V30 2510 C 244.463 -0.549534 3.08138 0
M  V30 2511 C 244.938 -0.568669 4.54456 0
M  V30 2512 N 246.429 -0.630237 4.58892 0
M  V30 2513 C 247.164 -0.666415 5.69514 0
M  V30 2514 N 246.66 -0.660514 6.89644 0
M  V30 2515 N 248.453 -0.709077 5.5761 0
M  V30 2516 H 240.604 0.757198 1.98445 0
M  V30 2517 H 242.867 0.278808 0.906074 0
M  V30 2518 H 242.573 0.454232 3.48754 0
M  V30 2519 H 242.447 -1.29513 3.54269 0
M  V30 2520 H 244.834 -1.45985 2.56461 0
M  V30 2521 H 244.915 0.307532 2.53945 0
M  V30 2522 H 244.559 0.337581 5.06777 0
M  V30 2523 H 244.489 -1.44256 5.06456 0
M  V30 2524 H 246.98 -0.641146 3.72421 0
M  V30 2525 H 247.293 -0.690616 7.69708 0
M  V30 2526 H 245.638 -0.628012 6.92157 0
M  V30 2527 H 248.829 -0.711019 4.62668 0
M  V30 2528 H 249.002 -0.733804 6.43832 0
M  V30 2529 N 242.408 -1.52605 -0.393616 0
M  V30 2530 C 243.654 -1.67672 -1.14079 0
M  V30 2531 C 243.987 -0.413121 -1.89755 0
M  V30 2532 O 243.262 0.588952 -1.85369 0
M  V30 2533 C 243.545 -2.9088 -2.12276 0
M  V30 2534 C 243.398 -4.27329 -1.40394 0
M  V30 2535 C 244.717 -3.09628 -3.12759 0
M  V30 2536 H 241.836 -0.610168 -0.413356 0
M  V30 2537 H 244.478 -1.85193 -0.424696 0
M  V30 2538 H 242.628 -2.76073 -2.73342 0
M  V30 2539 H 244.3 -4.53894 -0.82327 0
M  V30 2540 H 242.543 -4.2802 -0.705801 0
M  V30 2541 H 243.214 -5.09615 -2.12123 0
M  V30 2542 H 245.69 -3.23436 -2.61779 0
M  V30 2543 H 244.566 -3.97322 -3.78717 0
M  V30 2544 H 244.827 -2.23637 -3.81365 0
M  V30 2545 N 243.887 0.651787 -1.4349 0
M  V30 2546 C 245.135 1.40888 -1.44897 0
M  V30 2547 C 245.456 1.94856 -0.0749086 0
M  V30 2548 O 244.726 1.74518 0.889956 0
M  V30 2549 H 243.306 0.522887 -0.533478 0
M  V30 2550 H 245.968 0.768609 -1.79104 0
M  V30 2551 H 245.064 2.25052 -2.16236 0
M  V30 2552 N 245.365 1.30045 0.890287 0
M  V30 2553 C 246.776 1.16738 1.45702 0
M  V30 2554 C 247.127 -0.233939 1.948 0
M  V30 2555 O 246.252 -1.13021 1.84541 0
M  V30 2556 C 246.847 2.11313 2.64825 0
M  V30 2557 C 245.406 2.02001 3.17604 0
M  V30 2558 C 244.553 2.01699 1.90296 0
M  V30 2559 H 247.504 1.42392 0.700726 0
M  V30 2560 H 247.525 1.69086 3.40867 0
M  V30 2561 H 247.037 3.13294 2.2906 0
M  V30 2562 H 245.138 1.03142 3.5804 0
M  V30 2563 H 245.251 2.90128 3.81264 0
M  V30 2564 H 243.615 1.46427 2.08402 0
M  V30 2565 H 244.398 3.05402 1.56795 0
M  V30 2566 N 246.843 -1.10192 1.12674 0
M  V30 2567 C 247.773 -2.18652 0.819362 0
M  V30 2568 C 248.754 -1.68698 -0.217915 0
M  V30 2569 O 249.939 -1.94041 -0.0785581 0
M  V30 2570 C 247.069 -3.46202 0.27594 0
M  V30 2571 C 246.023 -4.09444 1.24656 0
M  V30 2572 C 245.349 -5.31725 0.563258 0
M  V30 2573 C 246.649 -4.52863 2.60217 0
M  V30 2574 H 248.343 -2.44622 1.72628 0
M  V30 2575 H 245.889 -1.17571 0.831451 0
M  V30 2576 H 247.842 -4.21372 0.0486149 0
M  V30 2577 H 246.566 -3.1973 -0.666331 0
M  V30 2578 H 245.225 -3.36284 1.45974 0
M  V30 2579 H 244.873 -5.0153 -0.384235 0
M  V30 2580 H 244.573 -5.74991 1.21075 0
M  V30 2581 H 246.097 -6.09624 0.34503 0
M  V30 2582 H 247.511 -5.19294 2.42913 0
M  V30 2583 H 245.908 -5.06986 3.21068 0
M  V30 2584 H 246.978 -3.65656 3.18471 0
M  V30 2585 N 248.321 -0.919034 -1.28029 0
M  V30 2586 C 249.569 -0.553838 -1.94363 0
M  V30 2587 C 249.89 0.906357 -1.72656 0
M  V30 2588 O 249.16 1.64143 -1.0693 0
M  V30 2589 H 247.74 -0.201834 -0.719216 0
M  V30 2590 H 250.402 -1.16954 -1.55909 0
M  V30 2591 H 249.498 -0.752758 -3.02886 0
M  V30 2592 N 249.799 1.42003 -0.683588 0
M  V30 2593 C 251.046 2.01413 -0.209514 0
M  V30 2594 C 251.374 1.54088 1.1869 0
M  V30 2595 O 250.629 0.737591 1.81268 0
M  V30 2596 C 250.928 3.56827 -0.202357 0
M  V30 2597 C 250.594 4.23617 -1.54464 0
M  V30 2598 C 249.256 4.41577 -1.91215 0
M  V30 2599 C 251.608 4.61178 -2.42826 0
M  V30 2600 C 248.936 4.9437 -3.15935 0
M  V30 2601 C 251.288 5.15355 -3.66867 0
M  V30 2602 C 249.952 5.31528 -4.03776 0
M  V30 2603 H 249.222 0.737023 -0.0766668 0
M  V30 2604 H 251.869 1.70067 -0.880312 0
M  V30 2605 H 250.174 3.87892 0.551969 0
M  V30 2606 H 251.871 4.00588 0.181793 0
M  V30 2607 H 248.461 4.10004 -1.24877 0
M  V30 2608 H 252.645 4.46968 -2.15717 0
M  V30 2609 H 247.901 5.05076 -3.44541 0
M  V30 2610 H 252.075 5.43402 -4.35531 0
M  V30 2611 H 249.702 5.72199 -5.00492 0
M  V30 2612 N 251.277 0.427512 1.51691 0
M  V30 2613 C 252.207 -0.3796 2.30394 0
M  V30 2614 C 253.188 -1.02982 1.35384 0
M  V30 2615 O 254.373 -1.03534 1.643 0
M  V30 2616 C 251.503 -1.48649 3.1388 0
M  V30 2617 C 250.457 -0.960294 4.17088 0
M  V30 2618 C 249.783 -2.16219 4.89033 0
M  V30 2619 C 251.083 -0.00153679 5.223 0
M  V30 2620 H 252.777 0.277164 2.98114 0
M  V30 2621 H 250.323 0.134739 1.43368 0
M  V30 2622 H 252.276 -2.05826 3.67714 0
M  V30 2623 H 251 -2.1714 2.43962 0
M  V30 2624 H 249.659 -0.410806 3.64291 0
M  V30 2625 H 249.307 -2.83307 4.15628 0
M  V30 2626 H 249.007 -1.81654 5.58816 0
M  V30 2627 H 250.531 -2.73968 5.45687 0
M  V30 2628 H 251.945 -0.482687 5.71264 0
M  V30 2629 H 250.342 0.256199 5.99553 0
M  V30 2630 H 251.412 0.938174 4.75738 0
M  V30 2631 N 252.755 -1.56801 0.158532 0
M  V30 2632 C 253.98 -2.01295 -0.499516 0
M  V30 2633 C 254.405 -1.03799 -1.56867 0
M  V30 2634 O 253.763 -0.0155162 -1.81293 0
M  V30 2635 C 253.811 -3.44469 -1.06647 0
M  V30 2636 O 252.915 -3.50012 -2.18095 0
M  V30 2637 H 252.256 -0.652884 -0.12099 0
M  V30 2638 H 254.786 -2.02958 0.258661 0
M  V30 2639 H 254.796 -3.8351 -1.39227 0
M  V30 2640 H 253.471 -4.14932 -0.283581 0
M  V30 2641 H 252.048 -3.22822 -1.86656 0
M  V30 2642 N 254.233 0.115231 -1.57178 0
M  V30 2643 C 255.461 0.836437 -1.89239 0
M  V30 2644 C 255.876 1.73256 -0.750175 0
M  V30 2645 O 255.233 1.80357 0.278832 0
M  V30 2646 C 255.284 1.66671 -3.20785 0
M  V30 2647 O 255.005 0.806652 -4.3061 0
M  V30 2648 C 256.506 2.49274 -3.66575 0
M  V30 2649 H 253.726 0.240253 -0.626514 0
M  V30 2650 H 256.27 0.0984932 -2.04263 0
M  V30 2651 H 254.425 2.35737 -3.0742 0
M  V30 2652 H 254.839 1.37969 -5.06028 0
M  V30 2653 H 256.313 3.03055 -4.6137 0
M  V30 2654 H 256.79 3.26807 -2.93417 0
M  V30 2655 H 257.396 1.85443 -3.82741 0
M  V30 2656 N 255.711 1.52812 0.385517 0
M  V30 2657 C 256.959 1.67694 1.12797 0
M  V30 2658 C 257.28 0.421115 1.90399 0
M  V30 2659 O 256.55 -0.564551 1.87589 0
M  V30 2660 H 255.13 0.618155 0.419396 0
M  V30 2661 H 257.792 1.89938 0.436972 0
M  V30 2662 H 256.888 2.52896 1.82894 0
M  V30 2663 N 257.189 -0.644168 1.43834 0
M  V30 2664 C 258.466 -1.40188 1.36406 0
M  V30 2665 C 258.846 -2.11094 0.0163124 0
M  V30 2666 O 258.194 -2.05426 -1.00062 0
M  V30 2667 C 258.404 -2.3791 2.55343 0
M  V30 2668 C 259.752 -3.01637 2.98832 0
M  V30 2669 O 260.776 -2.48237 2.55455 0
M  V30 2670 O 259.635 -3.98477 3.74003 0
M  V30 2671 H 256.729 -0.626773 0.539523 0
M  V30 2672 H 259.275 -0.670317 1.559 0
M  V30 2673 H 258.047 -1.84525 3.4506 0
M  V30 2674 H 257.67 -3.18503 2.37995 0
M  V30 2675 N 258.668 -1.30515 -0.883378 0
M  V30 2676 C 259.631 -1.1701 -1.97082 0
M  V30 2677 C 260.631 -0.10089 -1.60483 0
M  V30 2678 O 261.821 -0.349127 -1.70666 0
M  V30 2679 C 258.953 -0.793045 -3.31547 0
M  V30 2680 H 260.146 -2.13622 -2.10489 0
M  V30 2681 H 257.699 -1.13935 -1.06998 0
M  V30 2682 H 258.434 0.172499 -3.23841 0
M  V30 2683 H 258.219 -1.56576 -3.5948 0
M  V30 2684 H 259.709 -0.722073 -4.1131 0
M  V30 2685 N 260.146 1.09593 -1.13257 0
M  V30 2686 C 261.094 2.18271 -0.803783 0
M  V30 2687 C 262.088 1.68054 0.213148 0
M  V30 2688 O 263.294 1.79862 0.0704699 0
M  V30 2689 H 259.669 0.711949 -0.242143 0
M  V30 2690 H 261.64 2.43235 -1.72856 0
M  V30 2691 C 260.389 3.46536 -0.28424 0
M  V30 2692 H 259.712 3.85545 -1.05807 0
M  V30 2693 H 261.152 4.23899 -0.0925945 0
M  V30 2694 C 259.611 3.22036 0.989684 0
M  V30 2695 O 260.141 3.44509 2.06584 0
M  V30 2696 N 258.347 2.7565 0.920086 0
M  V30 2697 H 257.894 2.57562 0.0442019 0
M  V30 2698 H 257.852 2.59635 1.77306 0
M  V30 2699 N 261.624 0.925811 1.2754 0
M  V30 2700 C 262.554 0.440748 2.29303 0
M  V30 2701 C 263.535 -0.497971 1.62648 0
M  V30 2702 O 264.72 -0.403126 1.8997 0
M  V30 2703 C 261.85 -0.309048 3.45922 0
M  V30 2704 C 260.804 0.54166 4.24559 0
M  V30 2705 C 260.13 -0.337191 5.33636 0
M  V30 2706 C 261.43 1.80516 4.90114 0
M  V30 2707 H 263.124 1.29121 2.70126 0
M  V30 2708 H 260.67 0.622323 1.29858 0
M  V30 2709 H 262.623 -0.659315 4.1621 0
M  V30 2710 H 261.347 -1.19352 3.04011 0
M  V30 2711 H 260.006 0.874609 3.56014 0
M  V30 2712 H 259.654 -1.22056 4.87966 0
M  V30 2713 H 259.354 0.228497 5.87156 0
M  V30 2714 H 260.878 -0.683072 6.06767 0
M  V30 2715 H 262.292 1.52307 5.52698 0
M  V30 2716 H 260.689 2.3142 5.53683 0
M  V30 2717 H 261.759 2.52581 4.13921 0
M  V30 2718 N 263.102 -1.41638 0.69111 0
M  V30 2719 C 264.513 -1.84346 0.295517 0
M  V30 2720 C 264.864 -1.57833 -1.16547 0
M  V30 2721 O 263.989 -1.04648 -1.89414 0
M  V30 2722 C 264.584 -3.34636 0.529575 0
M  V30 2723 C 263.143 -3.7593 0.187944 0
M  V30 2724 C 262.29 -2.65082 0.814052 0
M  V30 2725 H 265.241 -1.31253 0.892092 0
M  V30 2726 H 265.262 -3.79903 -0.213148 0
M  V30 2727 H 264.774 -3.53901 1.59297 0
M  V30 2728 H 262.875 -3.62268 -0.871367 0
M  V30 2729 H 262.988 -4.74808 0.63985 0
M  V30 2730 H 261.352 -2.53528 0.244017 0
M  V30 2731 H 262.135 -2.87167 1.88123 0
M  V30 2732 N 264.58 -0.43555 -1.51462 0
M  V30 2733 C 265.828 0.131254 -2.01673 0
M  V30 2734 C 266.149 1.43368 -1.32177 0
M  V30 2735 O 265.419 1.90524 -0.455769 0
M  V30 2736 H 263.999 0.0514954 -0.745223 0
M  V30 2737 H 266.661 -0.577847 -1.86137 0
M  V30 2738 H 265.757 0.308446 -3.10572 0
M  V30 2739 N 266.058 1.56714 -0.166846 0
M  V30 2740 C 267.006 2.19056 0.782123 0
M  V30 2741 C 268 1.15328 1.24079 0
M  V30 2742 O 269.206 1.33537 1.20697 0
M  V30 2743 H 265.581 0.70167 0.270486 0
M  V30 2744 H 267.552 2.97494 0.232322 0
M  V30 2745 C 266.301 2.84206 2.00306 0
M  V30 2746 H 265.624 3.63748 1.65914 0
M  V30 2747 H 267.064 3.31302 2.64604 0
M  V30 2748 C 265.523 1.83744 2.82382 0
M  V30 2749 O 266.053 1.32014 3.79388 0
M  V30 2750 N 264.259 1.52601 2.47308 0
M  V30 2751 H 263.806 1.9486 1.68485 0
M  V30 2752 H 263.764 0.856351 3.02513 0
M  V30 2753 N 267.536 -0.106894 1.57237 0
M  V30 2754 C 268.766 -0.825191 1.89405 0
M  V30 2755 C 269.174 -1.73374 0.757496 0
M  V30 2756 O 268.517 -1.81552 -0.280115 0
M  V30 2757 C 268.579 -1.70102 3.1671 0
M  V30 2758 C 268.243 -0.965523 4.46684 0
M  V30 2759 C 269.24 -0.300741 5.19029 0
M  V30 2760 C 266.925 -0.943105 4.93367 0
M  V30 2761 C 268.919 0.376622 6.36286 0
M  V30 2762 C 266.606 -0.261949 6.10538 0
M  V30 2763 C 267.604 0.396748 6.81847 0
M  V30 2764 O 267.292 1.06701 7.96787 0
M  V30 2765 H 267.024 -0.241852 0.631255 0
M  V30 2766 H 269.578 -0.0921491 2.05193 0
M  V30 2767 H 267.808 -2.47601 2.97036 0
M  V30 2768 H 269.497 -2.29483 3.34802 0
M  V30 2769 H 270.263 -0.309599 4.84011 0
M  V30 2770 H 266.142 -1.44524 4.3776 0
M  V30 2771 H 269.686 0.891334 6.91882 0
M  V30 2772 H 265.583 -0.250896 6.45012 0
M  V30 2773 H 266.351 0.972707 8.127 0
M  V30 2774 N 269.014 -1.53014 -0.377408 0
M  V30 2775 C 270.262 -1.6829 -1.11906 0
M  V30 2776 C 270.583 -0.431206 -1.90173 0
M  V30 2777 O 269.853 0.554595 -1.87886 0
M  V30 2778 H 268.433 -0.620371 -0.416112 0
M  V30 2779 H 271.095 -1.90167 -0.426893 0
M  V30 2780 H 270.191 -2.53862 -1.8155 0
M  V30 2781 N 270.492 0.636531 -1.44174 0
M  V30 2782 C 271.422 1.76003 -1.53444 0
M  V30 2783 C 272.403 1.65619 -0.387841 0
M  V30 2784 O 273.588 1.84461 -0.607257 0
M  V30 2785 C 270.718 3.14511 -1.4731 0
M  V30 2786 C 269.672 3.39677 -2.60391 0
M  V30 2787 C 268.998 4.78159 -2.39308 0
M  V30 2788 C 270.298 3.32772 -4.02567 0
M  V30 2789 H 271.992 1.68501 -2.47483 0
M  V30 2790 H 269.538 0.809237 -1.19111 0
M  V30 2791 H 271.491 3.92878 -1.52397 0
M  V30 2792 H 270.215 3.22783 -0.49785 0
M  V30 2793 H 268.874 2.63688 -2.54684 0
M  V30 2794 H 268.522 4.83128 -1.39988 0
M  V30 2795 H 268.222 4.95956 -3.15122 0
M  V30 2796 H 269.746 5.58762 -2.46205 0
M  V30 2797 H 271.16 4.01051 -4.09672 0
M  V30 2798 H 269.557 3.62104 -4.7854 0
M  V30 2799 H 270.627 2.30669 -4.2652 0
M  V30 2800 N 271.97 1.30982 0.876444 0
M  V30 2801 C 273.386 1.09498 1.16113 0
M  V30 2802 C 273.586 -0.13875 2.01022 0
M  V30 2803 O 272.642 -0.829935 2.38471 0
M  V30 2804 C 273.955 2.36308 1.85954 0
M  V30 2805 C 275.503 2.41856 1.98683 0
M  V30 2806 C 275.978 3.6853 2.71937 0
M  V30 2807 N 277.469 3.69387 2.79477 0
M  V30 2808 C 278.204 4.64096 3.36753 0
M  V30 2809 N 277.7 5.69155 3.95012 0
M  V30 2810 N 279.493 4.51626 3.3465 0
M  V30 2811 H 271.644 2.10118 0.310494 0
M  V30 2812 H 273.907 0.926634 0.200131 0
M  V30 2813 H 273.613 3.26388 1.31011 0
M  V30 2814 H 273.487 2.4561 2.86278 0
M  V30 2815 H 275.874 1.52249 2.52793 0
M  V30 2816 H 275.955 2.36523 0.9742 0
M  V30 2817 H 275.599 4.58499 2.18496 0
M  V30 2818 H 275.529 3.71127 3.73593 0
M  V30 2819 H 278.02 2.93438 2.38123 0
M  V30 2820 H 278.333 6.3751 4.36808 0
M  V30 2821 H 276.678 5.72937 3.93406 0
M  V30 2822 H 279.869 3.68728 2.8837 0
M  V30 2823 H 280.042 5.25614 3.7899 0
M  V30 2824 N 273.449 -1.08991 1.13837 0
M  V30 2825 C 274.726 -1.77863 0.813876 0
M  V30 2826 C 275.106 -1.99375 -0.693746 0
M  V30 2827 O 274.454 -1.59875 -1.63255 0
M  V30 2828 C 274.664 -3.0986 1.60586 0
M  V30 2829 C 276.012 -3.84493 1.8014 0
M  V30 2830 O 277.036 -3.19624 1.57222 0
M  V30 2831 O 275.895 -5.00957 2.18413 0
M  V30 2832 H 272.989 -0.771589 0.297624 0
M  V30 2833 H 275.535 -1.15507 1.24323 0
M  V30 2834 H 274.307 -2.89715 2.63022 0
M  V30 2835 H 273.93 -3.79942 1.17173 0
M  V30 2836 N 274.927 -0.932562 -1.27047 0
M  V30 2837 C 275.859 -0.392734 -2.2581 0
M  V30 2838 C 276.872 0.479241 -1.55586 0
M  V30 2839 O 278.061 0.291078 -1.76111 0
M  V30 2840 C 275.161 0.455456 -3.35826 0
M  V30 2841 C 274.334 -0.398355 -4.35582 0
M  V30 2842 C 273.393 0.387985 -5.24768 0
M  V30 2843 O 272.419 -0.206003 -5.68827 0
M  V30 2844 N 273.621 1.68664 -5.55457 0
M  V30 2845 H 276.386 -1.24173 -2.72766 0
M  V30 2846 H 273.947 -0.800511 -1.40725 0
M  V30 2847 H 275.939 0.988692 -3.92437 0
M  V30 2848 H 274.509 1.20522 -2.88432 0
M  V30 2849 H 273.729 -1.11286 -3.78165 0
M  V30 2850 H 275.017 -0.981889 -4.99236 0
M  V30 2851 H 274.415 2.19147 -5.21528 0
M  V30 2852 H 272.972 2.1663 -6.14748 0
M  V30 2853 N 276.405 1.4127 -0.698611 0
M  V30 2854 C 277.355 2.27997 -0.0119836 0
M  V30 2855 C 278.339 1.42363 0.749765 0
M  V30 2856 O 279.531 1.65607 0.624758 0
M  V30 2857 C 276.66 3.30702 0.921458 0
M  V30 2858 C 275.746 4.23814 0.155796 0
M  V30 2859 N 276.137 4.98572 -0.852015 0
M  V30 2860 C 274.435 4.44284 0.390836 0
M  V30 2861 C 275.136 5.66744 -1.3106 0
M  V30 2862 N 274.112 5.39867 -0.635944 0
M  V30 2863 H 277.914 2.83232 -0.784649 0
M  V30 2864 H 275.428 1.53518 -0.529711 0
M  V30 2865 H 277.425 3.91661 1.42854 0
M  V30 2866 H 276.085 2.77028 1.69369 0
M  V30 2867 H 277.096 5.03024 -1.23235 0
M  V30 2868 H 273.773 4.01614 1.14071 0
M  V30 2869 H 275.163 6.36672 -2.14707 0
M  V30 2870 N 277.883 0.443576 1.51229 0
M  V30 2871 C 278.816 -0.410089 2.24485 0
M  V30 2872 C 279.794 -1.01949 1.26669 0
M  V30 2873 O 280.978 -1.06075 1.55821 0
M  V30 2874 C 278.105 -1.57211 3.00004 0
M  V30 2875 C 277.151 -1.08279 4.12526 0
M  V30 2876 S 277.984 -0.0197476 5.35496 0
M  V30 2877 C 279.14 -1.18629 6.14555 0
M  V30 2878 H 279.373 0.211832 2.96544 0
M  V30 2879 H 276.906 0.228156 1.52705 0
M  V30 2880 H 278.864 -2.23825 3.44111 0
M  V30 2881 H 277.525 -2.16547 2.27522 0
M  V30 2882 H 276.718 -1.95193 4.64667 0
M  V30 2883 H 276.32 -0.494797 3.70713 0
M  V30 2884 H 278.612 -2.10344 6.4402 0
M  V30 2885 H 279.555 -0.70472 7.04584 0
M  V30 2886 H 279.963 -1.42768 5.46148 0
M  V30 2887 N 279.361 -1.56624 0.175154 0
M  V30 2888 C 280.324 -2.16934 -0.739738 0
M  V30 2889 C 281.324 -1.11842 -1.15533 0
M  V30 2890 O 282.514 -1.37335 -1.07167 0
M  V30 2891 C 279.646 -2.75531 -2.00738 0
M  V30 2892 H 280.839 -2.99131 -0.214639 0
M  V30 2893 H 278.392 -1.56123 -0.0744197 0
M  V30 2894 H 279.127 -1.97078 -2.57548 0
M  V30 2895 H 278.912 -3.52444 -1.71831 0
M  V30 2896 H 280.402 -3.21904 -2.66021 0
M  V30 2897 N 280.839 0.0985539 -1.57292 0
M  V30 2898 C 282.088 0.801358 -1.85098 0
M  V30 2899 C 282.401 1.80066 -0.763902 0
M  V30 2900 O 283.607 2.55112 -0.928981 0
M  V30 2901 C 282.063 1.47599 -3.28242 0
M  V30 2902 C 281.671 0.516624 -4.45011 0
M  V30 2903 C 283.415 2.16272 -3.65276 0
M  V30 2904 C 281.322 1.19564 -5.79188 0
M  V30 2905 H 280.252 0.303022 -0.69043 0
M  V30 2906 H 282.903 0.0542623 -1.8342 0
M  V30 2907 H 281.285 2.27042 -3.2445 0
M  V30 2908 H 282.459 -0.246065 -4.60143 0
M  V30 2909 H 280.774 -0.064227 -4.1635 0
M  V30 2910 H 283.371 2.67802 -4.62803 0
M  V30 2911 H 283.714 2.95009 -2.93727 0
M  V30 2912 H 284.247 1.43693 -3.70941 0
M  V30 2913 H 280.986 0.449157 -6.53959 0
M  V30 2914 H 280.506 1.92984 -5.67906 0
M  V30 2915 H 282.185 1.7231 -6.23633 0
M  V30 2916 N 282.317 1.53212 0.369288 0
M  V30 2917 C 283.28 1.7872 1.43498 0
M  V30 2918 C 284.28 0.657554 1.46741 0
M  V30 2919 O 285.47 0.925736 1.47566 0
M  V30 2920 C 282.602 1.90591 2.82645 0
M  V30 2921 H 283.795 2.73894 1.22156 0
M  V30 2922 H 281.348 1.44233 0.602203 0
M  V30 2923 H 282.083 0.974709 3.09306 0
M  V30 2924 H 281.868 2.72751 2.8169 0
M  V30 2925 H 283.358 2.11931 3.59826 0
M  V30 2926 N 283.795 -0.628877 1.44509 0
M  V30 2927 C 285.041 -1.38863 1.48623 0
M  V30 2928 C 285.396 -1.92038 0.117933 0
M  V30 2929 O 284.689 -1.70853 -0.86716 0
M  V30 2930 C 284.883 -2.56995 2.48371 0
M  V30 2931 C 284.712 -2.15385 3.94765 0
M  V30 2932 C 283.482 -2.02558 4.62924 0
M  V30 2933 C 285.68 -1.74158 4.83915 0
M  V30 2934 N 283.662 -1.54534 5.94132 0
M  V30 2935 C 285.033 -1.37396 6.04584 0
M  V30 2936 C 287.088 -1.61559 4.7096 0
M  V30 2937 C 285.791 -0.892948 7.13736 0
M  V30 2938 C 287.817 -1.14862 5.80139 0
M  V30 2939 C 287.179 -0.790516 6.9995 0
M  V30 2940 H 283.278 -0.502858 0.59888 0
M  V30 2941 H 285.862 -0.72121 1.8085 0
M  V30 2942 H 284.033 -3.21362 2.1813 0
M  V30 2943 H 285.765 -3.23801 2.42766 0
M  V30 2944 H 282.52 -2.23082 4.1777 0
M  V30 2945 H 282.944 -1.32815 6.63844 0
M  V30 2946 H 287.586 -1.87876 3.78764 0
M  V30 2947 H 285.304 -0.617291 8.05739 0
M  V30 2948 H 288.89 -1.05569 5.72142 0
M  V30 2949 H 287.77 -0.434713 7.82994 0
M  V30 2950 N 285.273 -1.31445 -0.869486 0
M  V30 2951 C 286.519 -1.21337 -1.62496 0
M  V30 2952 C 286.852 0.227872 -1.92858 0
M  V30 2953 O 286.127 1.16094 -1.56053 0
M  V30 2954 C 286.41 -2.05814 -2.95487 0
M  V30 2955 C 286.263 -3.5824 -2.72 0
M  V30 2956 C 287.582 -1.9079 -3.96594 0
M  V30 2957 H 284.701 -0.442135 -0.589649 0
M  V30 2958 H 287.343 -1.6124 -1.00507 0
M  V30 2959 H 285.493 -1.71913 -3.48394 0
M  V30 2960 H 287.165 -4.0228 -2.25762 0
M  V30 2961 H 285.408 -3.81647 -2.06224 0
M  V30 2962 H 286.079 -4.12657 -3.66631 0
M  V30 2963 H 288.555 -2.20459 -3.52898 0
M  V30 2964 H 287.431 -2.52199 -4.87531 0
M  V30 2965 H 287.692 -0.871341 -4.33428 0
M  V30 2966 N 286.751 1.08385 -1.14413 0
M  V30 2967 C 287.698 2.15311 -0.831265 0
M  V30 2968 C 288.668 1.64751 0.211292 0
M  V30 2969 O 289.853 1.90627 0.0811674 0
M  V30 2970 C 286.993 3.43658 -0.315143 0
M  V30 2971 C 286.106 4.08064 -1.41802 0
M  V30 2972 C 285.241 5.24207 -0.859126 0
M  V30 2973 C 284.28 5.80554 -1.93967 0
M  V30 2974 N 283.417 6.88042 -1.39793 0
M  V30 2975 H 288.257 2.41415 -1.74708 0
M  V30 2976 H 285.794 1.18474 -0.871909 0
M  V30 2977 H 287.752 4.172 0.00230884 0
M  V30 2978 H 286.382 3.17839 0.56378 0
M  V30 2979 H 285.434 3.3228 -1.85187 0
M  V30 2980 H 286.746 4.45962 -2.23427 0
M  V30 2981 H 285.9 6.04689 -0.49359 0
M  V30 2982 H 284.639 4.87699 -0.011932 0
M  V30 2983 H 283.644 4.98725 -2.31415 0
M  V30 2984 H 284.869 6.19121 -2.79046 0
M  V30 2985 H 282.815 6.53493 -0.572919 0
M  V30 2986 H 282.732 7.24767 -2.15054 0
M  V30 2987 H 284 7.72255 -1.0603 0
M  V30 2988 N 288.23 0.939286 1.26551 0
M  V30 2989 C 289.646 0.641304 1.46149 0
M  V30 2990 C 289.846 -0.805964 1.84679 0
M  V30 2991 O 288.902 -1.58278 1.96734 0
M  V30 2992 C 290.215 1.6011 2.54529 0
M  V30 2993 C 291.763 1.6106 2.68382 0
M  V30 2994 C 292.238 2.55765 3.79932 0
M  V30 2995 N 293.729 2.5404 3.87322 0
M  V30 2996 C 294.464 3.24004 4.73085 0
M  V30 2997 N 293.96 4.03388 5.63249 0
M  V30 2998 N 295.753 3.12965 4.66914 0
M  V30 2999 H 287.904 1.87478 0.998285 0
M  V30 3000 H 290.167 0.805559 0.499779 0
M  V30 3001 H 289.873 2.63412 2.33039 0
M  V30 3002 H 289.747 1.35171 3.52149 0
M  V30 3003 H 292.134 0.584835 2.89247 0
M  V30 3004 H 292.215 1.90053 1.71212 0
M  V30 3005 H 291.859 3.58458 3.5982 0
M  V30 3006 H 291.789 2.24063 4.76554 0
M  V30 3007 H 294.28 1.96396 3.22858 0
M  V30 3008 H 294.593 4.5373 6.25579 0
M  V30 3009 H 292.938 4.07489 5.63008 0
M  V30 3010 H 296.129 2.50432 3.95476 0
M  V30 3011 H 296.302 3.67759 5.33533 0
M  V30 3012 N 289.708 -1.40897 0.706093 0
M  V30 3013 C 290.656 -2.32572 0.0361893 0
M  V30 3014 C 291.65 -1.51532 -0.757266 0
M  V30 3015 O 292.856 -1.67396 -0.661703 0
M  V30 3016 H 289.231 -0.751966 -0.00709935 0
M  V30 3017 H 291.202 -2.86733 0.826249 0
M  V30 3018 C 289.951 -3.36418 -0.87854 0
M  V30 3019 H 289.274 -3.98836 -0.277401 0
M  V30 3020 H 290.714 -4.0308 -1.3154 0
M  V30 3021 C 289.173 -2.71141 -1.99961 0
M  V30 3022 O 289.703 -2.56735 -3.0895 0
M  V30 3023 N 287.909 -2.29671 -1.78043 0
M  V30 3024 H 287.456 -2.41588 -0.894042 0
M  V30 3025 H 287.414 -1.86332 -2.53235 0
M  V30 3026 N 291.186 -0.45159 -1.50991 0
M  V30 3027 C 292.435 0.111653 -2.01391 0
M  V30 3028 C 292.748 1.42529 -1.33959 0
M  V30 3029 O 293.954 2.07232 -1.75405 0
M  V30 3030 C 292.41 0.249514 -3.59034 0
M  V30 3031 C 292.018 -1.05453 -4.35412 0
M  V30 3032 C 293.762 0.765762 -4.17536 0
M  V30 3033 C 291.669 -0.881529 -5.84793 0
M  V30 3034 H 290.599 0.0455022 -0.752626 0
M  V30 3035 H 293.25 -0.583524 -1.73975 0
M  V30 3036 H 291.632 1.00803 -3.82955 0
M  V30 3037 H 292.806 -1.82248 -4.23229 0
M  V30 3038 H 291.121 -1.50039 -3.88429 0
M  V30 3039 H 293.718 0.911913 -5.26866 0
M  V30 3040 H 294.061 1.75201 -3.77638 0
M  V30 3041 H 294.594 0.0651744 -3.97747 0
M  V30 3042 H 291.333 -1.84057 -6.29129 0
M  V30 3043 H 290.853 -0.153625 -5.99603 0
M  V30 3044 H 292.532 -0.540363 -6.4474 0
M  V30 3045 N 292.664 1.56529 -0.183458 0
M  V30 3046 C 293.627 2.17324 0.728223 0
M  V30 3047 C 294.627 1.12453 1.14939 0
M  V30 3048 O 295.817 1.37902 1.06437 0
M  V30 3049 C 292.949 2.76591 1.99274 0
M  V30 3050 H 294.142 2.99241 0.198772 0
M  V30 3051 H 291.695 1.5616 0.0661391 0
M  V30 3052 H 292.43 1.98441 2.56499 0
M  V30 3053 H 292.215 3.5335 1.69959 0
M  V30 3054 H 293.705 3.23311 2.6431 0
M  V30 3055 N 294.142 -0.090211 1.57342 0
M  V30 3056 C 295.105 -1.09335 2.01441 0
M  V30 3057 C 296.105 -1.32666 0.908641 0
M  V30 3058 O 297.295 -1.28697 1.174 0
M  V30 3059 C 294.427 -2.44136 2.3793 0
M  V30 3060 H 295.62 -0.713662 2.91285 0
M  V30 3061 H 293.173 -0.335404 1.52659 0
M  V30 3062 H 293.908 -2.86972 1.51055 0
M  V30 3063 H 293.693 -2.28548 3.18603 0
M  V30 3064 H 295.183 -3.16277 2.72688 0
M  V30 3065 N 295.62 -1.53406 -0.361157 0
M  V30 3066 C 296.867 -1.69802 -1.10333 0
M  V30 3067 C 297.195 -0.452087 -1.89173 0
M  V30 3068 O 296.45 0.566017 -1.87336 0
M  V30 3069 C 296.749 -2.90211 -2.08596 0
M  V30 3070 C 296.415 -4.26539 -1.46203 0
M  V30 3071 C 295.077 -4.6361 -1.28915 0
M  V30 3072 C 297.429 -5.113 -1.01101 0
M  V30 3073 C 294.757 -5.83075 -0.651157 0
M  V30 3074 C 297.109 -6.31415 -0.387007 0
M  V30 3075 C 295.773 -6.67195 -0.201657 0
M  V30 3076 H 295.043 -0.621351 -0.403737 0
M  V30 3077 H 297.69 -1.87598 -0.384609 0
M  V30 3078 H 295.995 -2.66946 -2.86788 0
M  V30 3079 H 297.692 -3.00091 -2.65982 0
M  V30 3080 H 294.282 -3.97352 -1.60653 0
M  V30 3081 H 298.466 -4.83206 -1.13249 0
M  V30 3082 H 293.722 -6.09385 -0.496006 0
M  V30 3083 H 297.896 -6.96394 -0.0293563 0
M  V30 3084 H 295.523 -7.59628 0.294766 0
M  V30 3085 N 297.098 0.621204 -1.44841 0
M  V30 3086 C 298.346 1.37783 -1.47852 0
M  V30 3087 C 298.667 1.94653 -0.116224 0
M  V30 3088 O 297.937 1.76367 0.852737 0
M  V30 3089 H 296.517 0.511453 -0.544449 0
M  V30 3090 H 299.179 0.730446 -1.80694 0
M  V30 3091 H 298.275 2.20414 -2.20961 0
M  V30 3092 N 298.576 1.31904 0.862503 0
M  V30 3093 C 299.824 1.21776 1.61292 0
M  V30 3094 C 300.145 -0.222413 1.93727 0
M  V30 3095 O 299.415 -1.1451 1.58947 0
M  V30 3096 H 297.995 0.447717 0.597962 0
M  V30 3097 H 300.657 1.65326 1.03215 0
M  V30 3098 H 299.753 1.7948 2.5533 0
M  V30 3099 N 300.054 -1.07777 1.14986 0
M  V30 3100 C 301.331 -1.7699 0.832695 0
M  V30 3101 C 301.711 -2.001 -0.672561 0
M  V30 3102 O 301.059 -1.61598 -1.6155 0
M  V30 3103 C 301.269 -3.08139 1.63863 0
M  V30 3104 C 302.617 -3.8256 1.84208 0
M  V30 3105 O 303.641 -3.17939 1.60603 0
M  V30 3106 O 302.5 -4.98612 2.23714 0
M  V30 3107 H 299.594 -0.768389 0.305791 0
M  V30 3108 H 302.14 -1.14182 1.25541 0
M  V30 3109 H 300.912 -2.86909 2.6608 0
M  V30 3110 H 300.535 -3.78678 1.21197 0
M  V30 3111 N 301.532 -0.945985 -1.26051 0
M  V30 3112 C 302.943 -0.638096 -1.75457 0
M  V30 3113 C 303.294 0.846672 -1.76991 0
M  V30 3114 O 302.419 1.66262 -1.38513 0
M  V30 3115 C 303.014 -1.15157 -3.18629 0
M  V30 3116 C 301.573 -0.894004 -3.65629 0
M  V30 3117 C 300.72 -1.29967 -2.44957 0
M  V30 3118 H 303.671 -1.12376 -1.1206 0
M  V30 3119 H 303.692 -0.507615 -3.77099 0
M  V30 3120 H 303.204 -2.23222 -3.1748 0
M  V30 3121 H 301.305 0.172057 -3.72203 0
M  V30 3122 H 301.418 -1.52439 -4.54202 0
M  V30 3123 H 299.782 -0.718078 -2.44368 0
M  V30 3124 H 300.565 -2.38935 -2.46505 0
M  V30 3125 N 303.011 1.40521 -0.713556 0
M  V30 3126 C 303.959 2.32549 -0.0485227 0
M  V30 3127 C 304.953 1.51931 0.74922 0
M  V30 3128 O 306.159 1.67745 0.652816 0
M  V30 3129 H 302.534 0.751994 0.00311138 0
M  V30 3130 H 304.505 2.86291 -0.841443 0
M  V30 3131 C 303.254 3.36879 0.860687 0
M  V30 3132 H 302.577 3.98978 0.256246 0
M  V30 3133 H 304.017 4.03772 1.294 0
M  V30 3134 C 302.476 2.72197 1.9852 0
M  V30 3135 O 303.006 2.5837 3.07584 0
M  V30 3136 N 301.212 2.30612 1.76823 0
M  V30 3137 H 300.759 2.42059 0.881217 0
M  V30 3138 H 300.717 1.87672 2.52243 0
M  V30 3139 N 304.489 0.459591 1.5075 0
M  V30 3140 C 305.437 -0.354678 2.2988 0
M  V30 3141 C 306.431 -1.00086 1.36672 0
M  V30 3142 O 307.637 -0.933277 1.53915 0
M  V30 3143 H 304.012 -0.13321 0.740107 0
M  V30 3144 H 305.983 0.333269 2.96533 0
M  V30 3145 C 304.732 -1.43073 3.169 0
M  V30 3146 H 304.055 -0.942882 3.88523 0
M  V30 3147 H 305.495 -1.97328 3.75284 0
M  V30 3148 C 303.954 -2.42633 2.33732 0
M  V30 3149 O 304.484 -3.47658 2.01238 0
M  V30 3150 N 302.69 -2.14066 1.9653 0
M  V30 3151 H 302.237 -1.28685 2.23155 0
M  V30 3152 H 302.195 -2.80917 1.41185 0
M  V30 3153 N 305.967 -1.56429 0.191757 0
M  V30 3154 C 307.216 -1.9666 -0.448088 0
M  V30 3155 C 307.529 -1.08136 -1.62991 0
M  V30 3156 O 308.735 -1.38135 -2.33733 0
M  V30 3157 C 307.191 -3.49753 -0.848585 0
M  V30 3158 C 306.799 -4.46935 0.308764 0
M  V30 3159 C 308.543 -3.9876 -1.4557 0
M  V30 3160 C 306.45 -5.91293 -0.112506 0
M  V30 3161 H 305.38 -0.734312 -0.171179 0
M  V30 3162 H 308.031 -1.81301 0.283242 0
M  V30 3163 H 306.413 -3.60604 -1.63649 0
M  V30 3164 H 307.587 -4.47813 1.08627 0
M  V30 3165 H 305.902 -4.08102 0.827158 0
M  V30 3166 H 308.499 -5.04086 -1.78328 0
M  V30 3167 H 308.842 -3.42875 -2.36099 0
M  V30 3168 H 309.375 -3.9101 -0.731836 0
M  V30 3169 H 306.114 -6.51097 0.758514 0
M  V30 3170 H 305.634 -5.93676 -0.854941 0
M  V30 3171 H 307.313 -6.44663 -0.549448 0
M  V30 3172 N 307.445 0.0818655 -1.57387 0
M  V30 3173 C 308.673 0.796108 -1.9097 0
M  V30 3174 C 309.088 1.71626 -0.786757 0
M  V30 3175 O 308.445 1.80908 0.240513 0
M  V30 3176 C 308.496 1.59829 -3.24248 0
M  V30 3177 O 308.217 0.715131 -4.32224 0
M  V30 3178 C 309.718 2.41442 -3.7178 0
M  V30 3179 H 306.938 0.22691 -0.631469 0
M  V30 3180 H 309.482 0.0551439 -2.04426 0
M  V30 3181 H 307.637 2.29163 -3.12351 0
M  V30 3182 H 308.051 1.27205 -5.08841 0
M  V30 3183 H 309.525 2.932 -4.67694 0
M  V30 3184 H 310.002 3.2051 -3.00283 0
M  V30 3185 H 310.608 1.77283 -3.86589 0
M  V30 3186 N 308.923 1.53595 0.353017 0
M  V30 3187 C 309.853 1.83902 1.43883 0
M  V30 3188 C 310.834 0.693421 1.55324 0
M  V30 3189 O 312.019 0.944452 1.69687 0
M  V30 3190 C 309.149 2.04016 2.8106 0
M  V30 3191 C 308.103 3.19814 2.84434 0
M  V30 3192 C 307.429 3.25244 4.24406 0
M  V30 3193 C 308.729 4.58133 2.50822 0
M  V30 3194 H 310.423 2.74835 1.1877 0
M  V30 3195 H 307.969 1.32242 0.569917 0
M  V30 3196 H 309.922 2.238 3.57059 0
M  V30 3197 H 308.646 1.09804 3.07588 0
M  V30 3198 H 307.305 2.9987 2.10887 0
M  V30 3199 H 306.953 2.28646 4.48029 0
M  V30 3200 H 306.653 4.03054 4.27576 0
M  V30 3201 H 308.177 3.47228 5.0226 0
M  V30 3202 H 309.591 4.77995 3.16534 0
M  V30 3203 H 307.988 5.38276 2.6529 0
M  V30 3204 H 309.058 4.62387 1.46034 0
M  V30 3205 N 310.401 -0.613514 1.45168 0
M  V30 3206 C 311.648 -1.37268 1.48875 0
M  V30 3207 C 311.976 -1.94077 0.128161 0
M  V30 3208 O 311.231 -1.75178 -0.872416 0
M  V30 3209 C 311.53 -2.54347 2.51083 0
M  V30 3210 C 311.196 -2.1572 3.95949 0
M  V30 3211 C 309.858 -2.04899 4.35396 0
M  V30 3212 C 312.21 -1.85485 4.87078 0
M  V30 3213 C 309.538 -1.62057 5.63875 0
M  V30 3214 C 311.89 -1.4413 6.15962 0
M  V30 3215 C 310.554 -1.31863 6.54346 0
M  V30 3216 H 309.824 -0.502299 0.544773 0
M  V30 3217 H 312.471 -0.694021 1.78481 0
M  V30 3218 H 310.776 -3.27524 2.15024 0
M  V30 3219 H 312.473 -3.12577 2.51191 0
M  V30 3220 H 309.063 -2.25066 3.64751 0
M  V30 3221 H 313.247 -1.92745 4.57343 0
M  V30 3222 H 308.503 -1.51177 5.92415 0
M  V30 3223 H 312.677 -1.19778 6.86022 0
M  V30 3224 H 310.304 -0.984392 7.538 0
M  V30 3225 N 311.879 -1.3236 -0.855495 0
M  V30 3226 C 313.127 -1.22629 -1.60644 0
M  V30 3227 C 313.448 0.212136 -1.93843 0
M  V30 3228 O 312.718 1.13666 -1.59552 0
M  V30 3229 H 311.298 -0.450882 -0.595579 0
M  V30 3230 H 313.96 -1.65871 -1.02337 0
M  V30 3231 H 313.056 -1.80832 -2.54374 0
M  V30 3232 N 313.357 1.07166 -1.15556 0
M  V30 3233 C 314.267 2.17947 -0.868116 0
M  V30 3234 C 315.283 1.73297 0.156297 0
M  V30 3235 O 316.459 2.01392 -0.0182327 0
M  V30 3236 C 313.524 3.44789 -0.36355 0
M  V30 3237 C 312.585 4.03996 -1.45209 0
M  V30 3238 C 311.818 5.24783 -0.971508 0
M  V30 3239 O 312.041 5.70109 0.182194 0
M  V30 3240 O 310.975 5.75715 -1.75603 0
M  V30 3241 H 314.801 2.4503 -1.79427 0
M  V30 3242 H 312.386 1.16539 -0.934824 0
M  V30 3243 H 314.268 4.21307 -0.0887113 0
M  V30 3244 H 312.943 3.19253 0.534708 0
M  V30 3245 H 311.85 3.29009 -1.78056 0
M  V30 3246 H 313.183 4.33808 -2.32533 0
M  V30 3247 N 314.835 0.952656 1.25548 0
M  V30 3248 C 316.06 0.623025 1.97821 0
M  V30 3249 C 316.485 -0.7976 1.70352 0
M  V30 3250 O 315.843 -1.53905 0.958283 0
M  V30 3251 C 315.891 0.885532 3.49558 0
M  V30 3252 O 314.995 -0.0366641 4.12384 0
M  V30 3253 H 314.336 0.237082 0.620232 0
M  V30 3254 H 316.866 1.27871 1.59719 0
M  V30 3255 H 316.876 0.811009 3.99858 0
M  V30 3256 H 315.551 1.92094 3.6888 0
M  V30 3257 H 314.128 0.0898954 3.72792 0
M  V30 3258 N 316.313 -1.40141 0.720998 0
M  V30 3259 C 317.276 -2.29058 0.0805834 0
M  V30 3260 C 318.276 -1.45632 -0.681758 0
M  V30 3261 O 319.466 -1.6648 -0.512856 0
M  V30 3262 C 316.598 -3.28925 -0.895593 0
M  V30 3263 H 317.791 -2.87191 0.863793 0
M  V30 3264 H 315.344 -1.48553 0.485975 0
M  V30 3265 H 316.079 -2.75822 -1.70566 0
M  V30 3266 H 315.864 -3.90519 -0.351766 0
M  V30 3267 H 317.354 -3.95494 -1.34069 0
M  V30 3268 N 317.792 -0.46758 -1.50504 0
M  V30 3269 C 319.04 0.0884469 -2.01906 0
M  V30 3270 C 319.361 1.40532 -1.35188 0
M  V30 3271 O 318.631 1.89515 -0.496079 0
M  V30 3272 H 317.211 0.0356765 -0.746148 0
M  V30 3273 H 319.873 -0.6172 -1.84869 0
M  V30 3274 H 318.969 0.2425 -3.11156 0
M  V30 3275 N 319.27 1.56325 -0.20005 0
M  V30 3276 C 320.518 1.97329 0.436547 0
M  V30 3277 C 320.839 1.08826 1.61808 0
M  V30 3278 O 320.109 0.160604 1.95241 0
M  V30 3279 H 318.689 0.728714 0.164272 0
M  V30 3280 H 321.351 1.92761 -0.287937 0
M  V30 3281 H 320.447 3.02264 0.777353 0
M  V30 3282 N 320.748 -0.0735177 1.57428 0
M  V30 3283 C 321.711 -1.07192 2.02589 0
M  V30 3284 C 322.711 -1.31695 0.922661 0
M  V30 3285 O 323.901 -1.27445 1.18758 0
M  V30 3286 C 321.033 -2.41599 2.40506 0
M  V30 3287 H 322.226 -0.682727 2.92025 0
M  V30 3288 H 319.779 -0.319193 1.53006 0
M  V30 3289 H 320.514 -2.85354 1.5409 0
M  V30 3290 H 320.299 -2.25156 3.21009 0
M  V30 3291 H 321.789 -3.13367 2.76027 0
M  V30 3292 N 322.226 -1.5378 -0.344866 0
M  V30 3293 C 323.451 -1.75211 -1.10977 0
M  V30 3294 C 323.876 -0.48936 -1.81623 0
M  V30 3295 O 323.234 0.557925 -1.72502 0
M  V30 3296 C 323.282 -2.93147 -2.09993 0
M  V30 3297 O 322.386 -2.63203 -3.17487 0
M  V30 3298 H 321.727 -0.581241 -0.321021 0
M  V30 3299 H 324.257 -2.00738 -0.395661 0
M  V30 3300 H 324.267 -3.19898 -2.53237 0
M  V30 3301 H 322.942 -3.84731 -1.5797 0
M  V30 3302 H 321.519 -2.47336 -2.79069 0
M  V30 3303 N 323.704 0.605807 -1.45491 0
M  V30 3304 C 324.95 1.36679 -1.49823 0
M  V30 3305 C 325.283 1.93693 -0.140175 0
M  V30 3306 O 324.558 1.75158 0.845581 0
M  V30 3307 C 324.841 2.51337 -2.57879 0
M  V30 3308 C 324.694 1.99508 -4.03134 0
M  V30 3309 C 326.013 3.53463 -2.62205 0
M  V30 3310 H 323.132 0.495617 -0.545466 0
M  V30 3311 H 325.774 0.682732 -1.7731 0
M  V30 3312 H 323.924 3.09691 -2.34571 0
M  V30 3313 H 325.596 1.45789 -4.37656 0
M  V30 3314 H 323.839 1.30496 -4.13707 0
M  V30 3315 H 324.51 2.82169 -4.74431 0
M  V30 3316 H 326.986 3.04953 -2.83095 0
M  V30 3317 H 325.862 4.31178 -3.39672 0
M  V30 3318 H 326.123 4.09197 -1.67363 0
M  V30 3319 N 325.182 1.32811 0.848464 0
M  V30 3320 C 326.407 1.26882 1.6406 0
M  V30 3321 C 326.832 -0.15913 1.87426 0
M  V30 3322 O 326.19 -1.11258 1.43148 0
M  V30 3323 C 326.238 2.03997 2.97351 0
M  V30 3324 O 325.342 1.39201 3.88197 0
M  V30 3325 H 324.683 0.436982 0.499943 0
M  V30 3326 H 327.213 1.75224 1.0563 0
M  V30 3327 H 327.223 2.14403 3.47124 0
M  V30 3328 H 325.898 3.0783 2.79666 0
M  V30 3329 H 324.475 1.37381 3.46671 0
M  V30 3330 N 326.66 -1.06551 1.16123 0
M  V30 3331 C 327.59 -2.15935 0.88851 0
M  V30 3332 C 328.571 -1.69306 -0.164135 0
M  V30 3333 O 329.756 -1.94193 -0.0167857 0
M  V30 3334 C 326.886 -3.45149 0.385942 0
M  V30 3335 C 325.84 -4.05271 1.3762 0
M  V30 3336 C 325.166 -5.29664 0.732137 0
M  V30 3337 C 326.466 -4.44355 2.74493 0
M  V30 3338 H 328.16 -2.39006 1.80323 0
M  V30 3339 H 325.706 -1.14866 0.868435 0
M  V30 3340 H 327.659 -4.21004 0.182647 0
M  V30 3341 H 326.383 -3.21689 -0.564274 0
M  V30 3342 H 325.042 -3.3147 1.56599 0
M  V30 3343 H 324.69 -5.02499 -0.224483 0
M  V30 3344 H 324.39 -5.70848 1.39307 0
M  V30 3345 H 325.914 -6.08218 0.538802 0
M  V30 3346 H 327.328 -5.11303 2.59311 0
M  V30 3347 H 325.725 -4.96515 3.37035 0
M  V30 3348 H 326.795 -3.55339 3.29943 0
M  V30 3349 N 328.138 -0.959301 -1.25041 0
M  V30 3350 C 329.07 -0.440543 -2.24926 0
M  V30 3351 C 330.083 0.446131 -1.56568 0
M  V30 3352 O 331.272 0.253657 -1.76689 0
M  V30 3353 C 328.372 0.38412 -3.36716 0
M  V30 3354 C 327.545 -0.490658 -4.34639 0
M  V30 3355 C 326.604 0.276587 -5.25473 0
M  V30 3356 O 325.63 -0.326614 -5.68262 0
M  V30 3357 N 326.832 1.56844 -5.5891 0
M  V30 3358 H 329.597 -1.29931 -2.70071 0
M  V30 3359 H 327.158 -0.830181 -1.38995 0
M  V30 3360 H 329.15 0.905228 -3.94446 0
M  V30 3361 H 327.72 1.14377 -2.90924 0
M  V30 3362 H 326.94 -1.19282 -3.7572 0
M  V30 3363 H 328.228 -1.08756 -4.97041 0
M  V30 3364 H 327.626 2.08036 -5.26059 0
M  V30 3365 H 326.183 2.03541 -6.19205 0
M  V30 3366 N 329.616 1.39756 -0.72842 0
M  V30 3367 C 330.844 2.04948 -0.283528 0
M  V30 3368 C 331.259 1.54908 1.0793 0
M  V30 3369 O 330.616 0.711135 1.68075 0
M  V30 3370 C 330.667 3.60498 -0.268957 0
M  V30 3371 O 330.388 4.08695 -1.57798 0
M  V30 3372 C 331.889 4.4288 0.192912 0
M  V30 3373 H 329.109 0.659243 -0.125056 0
M  V30 3374 H 331.653 1.78927 -0.990226 0
M  V30 3375 H 329.808 3.85444 0.388801 0
M  V30 3376 H 330.222 5.02977 -1.48709 0
M  V30 3377 H 331.696 5.51791 0.151952 0
M  V30 3378 H 332.173 4.21418 1.23708 0
M  V30 3379 H 332.779 4.23069 -0.435039 0
M  V30 3380 N 331.094 0.475555 1.50254 0
M  V30 3381 C 332.024 -0.30611 2.31485 0
M  V30 3382 C 333.005 -0.986228 1.38591 0
M  V30 3383 O 334.19 -0.982541 1.67511 0
M  V30 3384 C 331.32 -1.38588 3.1845 0
M  V30 3385 C 330.274 -0.827115 4.19932 0
M  V30 3386 C 329.6 -2.00551 4.95665 0
M  V30 3387 C 330.9 0.16463 5.2204 0
M  V30 3388 H 332.594 0.371866 2.97082 0
M  V30 3389 H 330.14 0.180282 1.42867 0
M  V30 3390 H 332.093 -1.94023 3.74076 0
M  V30 3391 H 330.817 -2.09269 2.50747 0
M  V30 3392 H 329.476 -0.294702 3.65414 0
M  V30 3393 H 329.124 -2.6994 4.2443 0
M  V30 3394 H 328.824 -1.63784 5.64313 0
M  V30 3395 H 330.348 -2.56468 5.54127 0
M  V30 3396 H 331.762 -0.300699 5.72511 0
M  V30 3397 H 330.159 0.446813 5.98434 0
M  V30 3398 H 331.229 1.08905 4.72512 0
M  V30 3399 N 332.573 -1.56217 0.208337 0
M  V30 3400 C 333.798 -2.02782 -0.435222 0
M  V30 3401 C 334.223 -1.08738 -1.53485 0
M  V30 3402 O 333.581 -0.0731855 -1.81152 0
M  V30 3403 C 333.629 -3.47687 -0.956335 0
M  V30 3404 O 332.733 -3.56773 -2.06849 0
M  V30 3405 H 332.074 -0.656403 -0.100158 0
M  V30 3406 H 334.604 -2.02033 0.3231 0
M  V30 3407 H 334.614 -3.87745 -1.26955 0
M  V30 3408 H 333.289 -4.15624 -0.15143 0
M  V30 3409 H 331.866 -3.28597 -1.76292 0
M  V30 3410 N 334.051 0.0651679 -1.57465 0
M  V30 3411 C 335.462 0.616213 -1.76238 0
M  V30 3412 C 335.813 1.7756 -0.834689 0
M  V30 3413 O 334.938 2.1639 -0.0204156 0
M  V30 3414 C 335.533 1.12462 -3.1959 0
M  V30 3415 C 334.092 1.62147 -3.39684 0
M  V30 3416 C 333.239 0.543739 -2.71917 0
M  V30 3417 H 336.19 -0.161022 -1.57881 0
M  V30 3418 H 336.211 1.99324 -3.24114 0
M  V30 3419 H 335.723 0.280592 -3.87084 0
M  V30 3420 H 333.824 2.48854 -2.77313 0
M  V30 3421 H 333.937 1.69385 -4.48158 0
M  V30 3422 H 332.301 0.990352 -2.34657 0
M  V30 3423 H 333.084 -0.290216 -3.42071 0
M  V30 3424 N 335.529 1.53961 0.336706 0
M  V30 3425 C 336.759 1.75229 1.09446 0
M  V30 3426 C 337.167 0.494602 1.82621 0
M  V30 3427 O 336.51 -0.543764 1.75468 0
M  V30 3428 C 336.572 2.88288 2.1478 0
M  V30 3429 C 336.236 4.27656 1.6112 0
M  V30 3430 C 337.233 5.08981 1.0599 0
M  V30 3431 C 334.918 4.74161 1.6576 0
M  V30 3432 C 336.912 6.34916 0.562129 0
M  V30 3433 C 334.599 6.00067 1.15595 0
M  V30 3434 C 335.597 6.80278 0.609147 0
M  V30 3435 O 335.285 8.03818 0.114999 0
M  V30 3436 H 335.017 0.588881 0.331956 0
M  V30 3437 H 337.571 2.01614 0.392566 0
M  V30 3438 H 335.801 2.57443 2.88548 0
M  V30 3439 H 337.49 2.97461 2.76174 0
M  V30 3440 H 338.256 4.74213 1.01722 0
M  V30 3441 H 334.135 4.11781 2.07261 0
M  V30 3442 H 337.679 6.9747 0.134668 0
M  V30 3443 H 333.576 6.3433 1.19566 0
M  V30 3444 H 334.344 8.18172 0.231651 0
M  V30 3445 N 337.007 -0.598083 1.45811 0
M  V30 3446 C 337.955 -1.72932 1.55555 0
M  V30 3447 C 338.949 -1.63984 0.424921 0
M  V30 3448 O 340.155 -1.69663 0.601205 0
M  V30 3449 H 336.53 -0.571489 0.488779 0
M  V30 3450 H 338.501 -1.61842 2.50699 0
M  V30 3451 C 337.25 -3.11318 1.54843 0
M  V30 3452 H 336.573 -3.18867 2.41172 0
M  V30 3453 H 338.013 -3.90274 1.65717 0
M  V30 3454 C 336.472 -3.3578 0.274427 0
M  V30 3455 O 337.002 -3.9654 -0.641778 0
M  V30 3456 N 335.208 -2.90119 0.167139 0
M  V30 3457 H 334.755 -2.40855 0.913596 0
M  V30 3458 H 334.713 -3.0686 -0.684435 0
M  V30 3459 N 338.485 -1.33259 -0.841409 0
M  V30 3460 C 339.432 -1.23302 -1.95103 0
M  V30 3461 C 340.402 -0.112204 -1.65721 0
M  V30 3462 O 341.587 -0.290038 -1.88583 0
M  V30 3463 C 338.727 -0.975583 -3.31023 0
M  V30 3464 C 337.84 -2.18243 -3.72819 0
M  V30 3465 C 336.975 -1.85936 -4.97595 0
M  V30 3466 C 336.014 -3.02866 -5.3192 0
M  V30 3467 N 335.151 -2.70565 -6.47873 0
M  V30 3468 H 339.991 -2.18207 -2.02952 0
M  V30 3469 H 337.528 -1.0851 -0.993173 0
M  V30 3470 H 339.486 -0.80677 -4.09325 0
M  V30 3471 H 338.116 -0.0632755 -3.22738 0
M  V30 3472 H 337.168 -2.46107 -2.90061 0
M  V30 3473 H 338.48 -3.05666 -3.94169 0
M  V30 3474 H 337.634 -1.65684 -5.83638 0
M  V30 3475 H 336.373 -0.957452 -4.78209 0
M  V30 3476 H 335.378 -3.23736 -4.44382 0
M  V30 3477 H 336.603 -3.93809 -5.53255 0
M  V30 3478 H 334.549 -1.8293 -6.29978 0
M  V30 3479 H 334.466 -3.51519 -6.69306 0
M  V30 3480 H 335.734 -2.53774 -7.37034 0
M  V30 3481 N 339.963 1.05934 -1.16686 0
M  V30 3482 C 341.211 1.78447 -0.948744 0
M  V30 3483 C 341.532 1.87813 0.524523 0
M  V30 3484 O 340.802 1.38945 1.38098 0
M  V30 3485 H 339.382 0.660971 -0.348033 0
M  V30 3486 H 342.044 1.27947 -1.47022 0
M  V30 3487 H 341.14 2.80394 -1.37061 0
M  V30 3488 N 341.441 0.965919 1.2453 0
M  V30 3489 C 342.371 0.513476 2.27784 0
M  V30 3490 C 343.352 -0.445974 1.6415 0
M  V30 3491 O 344.537 -0.342485 1.91156 0
M  V30 3492 C 341.667 -0.198839 3.4673 0
M  V30 3493 C 340.621 0.676456 4.2262 0
M  V30 3494 C 339.947 -0.167248 5.34438 0
M  V30 3495 C 341.247 1.96017 4.84123 0
M  V30 3496 H 342.941 1.3765 2.65881 0
M  V30 3497 H 340.487 0.663321 1.27813 0
M  V30 3498 H 342.44 -0.526567 4.18097 0
M  V30 3499 H 341.164 -1.0962 3.07654 0
M  V30 3500 H 339.823 0.98743 3.53052 0
M  V30 3501 H 339.471 -1.0647 4.91603 0
M  V30 3502 H 339.171 0.415181 5.86131 0
M  V30 3503 H 340.695 -0.489688 6.08633 0
M  V30 3504 H 342.109 1.69814 5.47573 0
M  V30 3505 H 340.506 2.48918 5.4604 0
M  V30 3506 H 341.576 2.65622 4.05676 0
M  V30 3507 N 342.919 -1.39368 0.735821 0
M  V30 3508 C 344.168 -1.99733 0.281004 0
M  V30 3509 C 344.481 -1.59055 -1.13846 0
M  V30 3510 O 345.687 -2.12262 -1.69284 0
M  V30 3511 C 344.143 -3.57057 0.451462 0
M  V30 3512 C 343.751 -4.06697 1.87886 0
M  V30 3513 C 345.495 -4.2446 0.0584616 0
M  V30 3514 C 343.402 -5.56598 1.99883 0
M  V30 3515 H 342.332 -0.747163 0.101311 0
M  V30 3516 H 344.983 -1.59357 0.909819 0
M  V30 3517 H 343.365 -3.95234 -0.246263 0
M  V30 3518 H 344.539 -3.79853 2.60861 0
M  V30 3519 H 342.854 -3.5196 2.22515 0
M  V30 3520 H 345.451 -5.34549 0.127099 0
M  V30 3521 H 345.794 -4.04444 -0.986433 0
M  V30 3522 H 346.327 -3.9146 0.707374 0
M  V30 3523 H 343.066 -5.81494 3.02564 0
M  V30 3524 H 342.586 -5.85242 1.31346 0
M  V30 3525 H 344.265 -6.22022 1.78039 0
M  V30 3526 N 344.397 -0.483516 -1.5 0
M  V30 3527 C 345.813 -0.138404 -1.58999 0
M  V30 3528 C 346.013 1.35597 -1.4905 0
M  V30 3529 O 345.069 2.13039 -1.35539 0
M  V30 3530 C 346.382 -0.699658 -2.92447 0
M  V30 3531 C 347.93 -0.664195 -3.05872 0
M  V30 3532 C 348.405 -1.20321 -4.41913 0
M  V30 3533 N 349.896 -1.16315 -4.48358 0
M  V30 3534 C 350.631 -1.55058 -5.52037 0
M  V30 3535 N 350.127 -2.01311 -6.62907 0
M  V30 3536 N 351.92 -1.46584 -5.42651 0
M  V30 3537 H 344.071 -1.45529 -1.5471 0
M  V30 3538 H 346.334 -0.60258 -0.731848 0
M  V30 3539 H 346.04 -1.747 -3.05242 0
M  V30 3540 H 345.914 -0.150194 -3.76901 0
M  V30 3541 H 348.301 0.374272 -2.92717 0
M  V30 3542 H 348.382 -1.25061 -2.23144 0
M  V30 3543 H 348.026 -2.24037 -4.55818 0
M  V30 3544 H 347.956 -0.592896 -5.23252 0
M  V30 3545 H 350.447 -0.824058 -3.68806 0
M  V30 3546 H 350.76 -2.2899 -7.38095 0
M  V30 3547 H 349.105 -2.05273 -6.63994 0
M  V30 3548 H 352.296 -1.10281 -4.54924 0
M  V30 3549 H 352.469 -1.77103 -6.23329 0
M  V30 3550 N 345.875 1.56104 -0.216619 0
M  V30 3551 C 347.291 1.58995 0.13886 0
M  V30 3552 C 347.491 1.23333 1.59346 0
M  V30 3553 O 346.547 0.966234 2.33281 0
M  V30 3554 C 347.86 3.00143 -0.182968 0
M  V30 3555 C 349.408 3.12751 -0.124807 0
M  V30 3556 C 349.883 4.56068 -0.420241 0
M  V30 3557 N 351.374 4.61723 -0.369634 0
M  V30 3558 C 352.109 5.70542 -0.571789 0
M  V30 3559 N 351.605 6.87744 -0.835453 0
M  V30 3560 N 353.398 5.59831 -0.504563 0
M  V30 3561 H 345.549 1.77562 -1.16557 0
M  V30 3562 H 347.812 0.825091 -0.466828 0
M  V30 3563 H 347.518 3.30871 -1.19237 0
M  V30 3564 H 347.392 3.73813 0.504367 0
M  V30 3565 H 349.779 2.81822 0.875223 0
M  V30 3566 H 349.86 2.41421 -0.845544 0
M  V30 3567 H 349.504 4.87713 -1.41769 0
M  V30 3568 H 349.434 5.25617 0.321631 0
M  V30 3569 H 351.925 3.77502 -0.173338 0
M  V30 3570 H 352.238 7.66587 -0.977938 0
M  V30 3571 H 350.583 6.895 -0.872592 0
M  V30 3572 H 353.774 4.67145 -0.298842 0
M  V30 3573 H 353.947 6.44573 -0.665519 0
M  V30 3574 N 347.353 -0.0568162 1.57498 0
M  V30 3575 C 348.316 -1.05038 2.03715 0
M  V30 3576 C 349.316 -1.30709 0.936577 0
M  V30 3577 O 350.506 -1.26178 1.20103 0
M  V30 3578 C 347.638 -2.39034 2.43055 0
M  V30 3579 H 348.831 -0.651715 2.92733 0
M  V30 3580 H 346.384 -0.302947 1.53336 0
M  V30 3581 H 347.119 -2.83703 1.57108 0
M  V30 3582 H 346.904 -2.21739 3.2338 0
M  V30 3583 H 348.394 -3.10421 2.79336 0
M  V30 3584 N 348.832 -1.54138 -0.328536 0
M  V30 3585 C 350.081 -1.71318 -1.06456 0
M  V30 3586 C 350.394 -0.491109 -1.89334 0
M  V30 3587 O 351.6 -0.54416 -2.65991 0
M  V30 3588 C 350.056 -3.03 -1.94214 0
M  V30 3589 C 349.664 -4.32595 -1.16471 0
M  V30 3590 C 351.408 -3.29544 -2.67583 0
M  V30 3591 C 349.315 -5.55341 -2.03347 0
M  V30 3592 H 348.245 -0.638429 -0.401155 0
M  V30 3593 H 350.896 -1.80633 -0.323106 0
M  V30 3594 H 349.278 -2.87579 -2.72239 0
M  V30 3595 H 350.452 -4.58766 -0.432525 0
M  V30 3596 H 348.767 -4.12777 -0.548063 0
M  V30 3597 H 351.364 -4.18444 -3.3288 0
M  V30 3598 H 351.707 -2.47206 -3.34955 0
M  V30 3599 H 352.24 -3.45809 -1.96623 0
M  V30 3600 H 348.979 -6.40268 -1.40491 0
M  V30 3601 H 348.499 -5.33397 -2.74313 0
M  V30 3602 H 350.178 -5.91557 -2.62049 0
M  V30 3603 N 350.31 0.590341 -1.46126 0
M  V30 3604 C 351.535 1.37991 -1.54833 0
M  V30 3605 C 351.96 1.87163 -0.187506 0
M  V30 3606 O 351.318 1.61133 0.831008 0
M  V30 3607 C 351.366 2.54867 -2.55098 0
M  V30 3608 O 350.47 3.56061 -2.08073 0
M  V30 3609 H 349.811 0.411265 -0.521303 0
M  V30 3610 H 352.341 0.716819 -1.91632 0
M  V30 3611 H 352.351 3.01886 -2.74461 0
M  V30 3612 H 351.026 2.18429 -3.53923 0
M  V30 3613 H 349.603 3.15574 -1.98664 0
M  V30 3614 N 351.788 1.33704 0.83433 0
M  V30 3615 C 352.72 1.20172 1.9517 0
M  V30 3616 C 353.733 0.131572 1.62267 0
M  V30 3617 O 354.922 0.382406 1.74356 0
M  V30 3618 C 352.022 0.821716 3.28787 0
M  V30 3619 C 351.195 1.98446 3.89792 0
M  V30 3620 C 350.254 1.58469 5.01771 0
M  V30 3621 O 349.28 2.29968 5.20676 0
M  V30 3622 N 350.482 0.492291 5.78409 0
M  V30 3623 H 353.247 2.16429 2.07313 0
M  V30 3624 H 350.808 1.26509 1.0103 0
M  V30 3625 H 352.8 0.536291 4.01131 0
M  V30 3626 H 351.37 -0.0503058 3.1256 0
M  V30 3627 H 350.59 2.43526 3.09982 0
M  V30 3628 H 351.878 2.76236 4.27283 0
M  V30 3629 H 351.276 -0.102349 5.65607 0
M  V30 3630 H 349.833 0.266555 6.51255 0
M  V30 3631 N 353.266 -1.05314 1.17247 0
M  V30 3632 C 354.491 -1.82509 0.985148 0
M  V30 3633 C 354.916 -1.82343 -0.461788 0
M  V30 3634 O 354.274 -1.23151 -1.33055 0
M  V30 3635 C 354.322 -3.26566 1.52929 0
M  V30 3636 O 353.426 -4.05666 0.742225 0
M  V30 3637 H 352.767 -0.564347 0.349869 0
M  V30 3638 H 355.297 -1.32718 1.55715 0
M  V30 3639 H 355.307 -3.77369 1.55103 0
M  V30 3640 H 353.982 -3.26001 2.58256 0
M  V30 3641 H 352.559 -3.64397 0.791794 0
M  V30 3642 N 354.744 -0.972509 -1.24016 0
M  V30 3643 C 355.992 -0.635776 -1.91839 0
M  V30 3644 C 356.313 0.832312 -1.76345 0
M  V30 3645 O 355.583 1.5946 -1.13795 0
M  V30 3646 H 354.163 -0.232157 -0.710009 0
M  V30 3647 H 356.825 -1.23462 -1.50809 0
M  V30 3648 H 355.921 -0.880545 -2.99421 0
M  V30 3649 N 356.222 1.38976 -0.743202 0
M  V30 3650 C 357.468 2.0064 -0.295189 0
M  V30 3651 C 357.801 1.5885 1.11716 0
M  V30 3652 O 357.076 0.821181 1.76315 0
M  V30 3653 C 357.359 3.578 -0.406318 0
M  V30 3654 C 357.212 4.09586 -1.85903 0
M  V30 3655 C 358.531 4.39616 0.206439 0
M  V30 3656 H 355.65 0.728935 -0.108733 0
M  V30 3657 H 358.292 1.65067 -0.940897 0
M  V30 3658 H 356.442 3.88235 0.143419 0
M  V30 3659 H 358.114 3.89837 -2.46627 0
M  V30 3660 H 356.357 3.6284 -2.3776 0
M  V30 3661 H 357.028 5.18708 -1.888 0
M  V30 3662 H 359.504 4.15273 -0.262283 0
M  V30 3663 H 358.38 5.48812 0.0983819 0
M  V30 3664 H 358.641 4.22754 1.2935 0
M  V30 3665 N 357.7 0.491464 1.49741 0
M  V30 3666 C 358.663 -0.280906 2.27472 0
M  V30 3667 C 359.663 -0.902454 1.33088 0
M  V30 3668 O 360.853 -0.768465 1.56334 0
M  V30 3669 C 357.985 -1.40209 3.10732 0
M  V30 3670 H 359.178 0.401056 2.97206 0
M  V30 3671 H 356.731 0.246131 1.5435 0
M  V30 3672 H 357.466 -2.11849 2.45541 0
M  V30 3673 H 357.251 -0.961969 3.80117 0
M  V30 3674 H 358.741 -1.9464 3.69466 0
M  V30 3675 N 359.178 -1.55987 0.224894 0
M  V30 3676 C 360.108 -2.23426 -0.678457 0
M  V30 3677 C 361.089 -1.20709 -1.19847 0
M  V30 3678 O 362.274 -1.49304 -1.24186 0
M  V30 3679 C 359.404 -2.91676 -1.88527 0
M  V30 3680 C 358.358 -4.00893 -1.49896 0
M  V30 3681 C 357.684 -4.56455 -2.78483 0
M  V30 3682 C 358.984 -5.17769 -0.686461 0
M  V30 3683 H 360.678 -2.99175 -0.116173 0
M  V30 3684 H 358.224 -1.43897 -0.054436 0
M  V30 3685 H 360.177 -3.37547 -2.5227 0
M  V30 3686 H 358.901 -2.1338 -2.47258 0
M  V30 3687 H 357.56 -3.55758 -0.884985 0
M  V30 3688 H 357.208 -3.74886 -3.35365 0
M  V30 3689 H 356.908 -5.30169 -2.53368 0
M  V30 3690 H 358.432 -5.05047 -3.43162 0
M  V30 3691 H 359.846 -5.60001 -1.22767 0
M  V30 3692 H 358.243 -5.97735 -0.532259 0
M  V30 3693 H 359.313 -4.83932 0.306196 0
M  V30 3694 N 360.656 0.0484629 -1.57525 0
M  V30 3695 C 361.881 0.759177 -1.93006 0
M  V30 3696 C 362.306 1.69125 -0.823317 0
M  V30 3697 O 361.664 1.79931 0.222364 0
M  V30 3698 C 361.712 1.50899 -3.27509 0
M  V30 3699 O 360.816 2.62112 -3.18388 0
M  V30 3700 H 360.157 0.205564 -0.631379 0
M  V30 3701 H 362.687 0.00972959 -2.04598 0
M  V30 3702 H 362.697 1.88317 -3.6194 0
M  V30 3703 H 361.372 0.825269 -4.0763 0
M  V30 3704 H 359.949 2.27379 -2.95556 0
M  V30 3705 N 362.134 1.5431 0.320358 0
M  V30 3706 C 363.545 1.63872 0.894594 0
M  V30 3707 C 363.896 0.534847 1.88769 0
M  V30 3708 O 363.021 -0.331732 2.13842 0
M  V30 3709 C 363.616 2.97049 1.62934 0
M  V30 3710 C 362.175 3.08796 2.15226 0
M  V30 3711 C 361.322 2.59456 0.978671 0
M  V30 3712 H 364.273 1.58398 0.0978544 0
M  V30 3713 H 364.294 2.87388 2.49376 0
M  V30 3714 H 363.806 3.7737 0.906302 0
M  V30 3715 H 361.907 2.33156 2.90636 0
M  V30 3716 H 362.02 4.14649 2.40006 0
M  V30 3717 H 360.384 2.1543 1.35875 0
M  V30 3718 H 361.167 3.42237 0.269895 0
M  V30 3719 N 363.613 -0.582584 1.46437 0
M  V30 3720 C 364.859 -1.34064 1.52965 0
M  V30 3721 C 365.214 -1.91566 0.178968 0
M  V30 3722 O 364.507 -1.73526 -0.812365 0
M  V30 3723 C 364.701 -2.48964 2.56421 0
M  V30 3724 C 364.53 -2.02717 4.01417 0
M  V30 3725 C 363.3 -1.87728 4.69134 0
M  V30 3726 C 365.498 -1.58675 4.8921 0
M  V30 3727 N 363.48 -1.35554 5.98747 0
M  V30 3728 C 364.851 -1.18093 6.08649 0
M  V30 3729 C 366.906 -1.46494 4.75861 0
M  V30 3730 C 365.609 -0.665427 7.16215 0
M  V30 3731 C 367.635 -0.96347 5.83499 0
M  V30 3732 C 366.997 -0.567432 7.02111 0
M  V30 3733 H 363.096 -0.483551 0.614575 0
M  V30 3734 H 365.68 -0.663309 1.83053 0
M  V30 3735 H 363.851 -3.1426 2.28244 0
M  V30 3736 H 365.583 -3.15913 2.52944 0
M  V30 3737 H 362.338 -2.09678 4.24655 0
M  V30 3738 H 362.762 -1.11628 6.67734 0
M  V30 3739 H 367.404 -1.75731 3.8455 0
M  V30 3740 H 365.122 -0.360639 8.07295 0
M  V30 3741 H 368.708 -0.873129 5.75211 0
M  V30 3742 H 367.588 -0.185389 7.83981 0
M  V30 3743 N 365.091 -1.34144 -0.827227 0
M  V30 3744 C 366.337 -1.26446 -1.58554 0
M  V30 3745 C 366.67 0.1664 -1.93486 0
M  V30 3746 O 365.945 1.1107 -1.59667 0
M  V30 3747 C 366.228 -2.15111 -2.8879 0
M  V30 3748 C 366.081 -3.66712 -2.60465 0
M  V30 3749 C 367.4 -2.03311 -3.90324 0
M  V30 3750 H 364.519 -0.46067 -0.575284 0
M  V30 3751 H 367.161 -1.64356 -0.953269 0
M  V30 3752 H 365.311 -1.8291 -3.42748 0
M  V30 3753 H 366.983 -4.09259 -2.1285 0
M  V30 3754 H 365.226 -3.88014 -1.93978 0
M  V30 3755 H 365.897 -4.24112 -3.53317 0
M  V30 3756 H 368.373 -2.31574 -3.45706 0
M  V30 3757 H 367.249 -2.67582 -4.79261 0
M  V30 3758 H 367.51 -1.00879 -4.30437 0
M  V30 3759 N 366.569 1.04691 -1.17803 0
M  V30 3760 C 367.818 1.77176 -0.963931 0
M  V30 3761 C 368.131 1.88888 0.508015 0
M  V30 3762 O 369.337 2.58164 0.840465 0
M  V30 3763 C 367.793 3.18518 -1.67555 0
M  V30 3764 C 367.401 3.14919 -3.18637 0
M  V30 3765 C 369.145 3.95424 -1.54402 0
M  V30 3766 C 367.052 4.51081 -3.82466 0
M  V30 3767 H 365.982 0.664116 -0.357023 0
M  V30 3768 H 368.633 1.17303 -1.4111 0
M  V30 3769 H 367.015 3.78748 -1.15613 0
M  V30 3770 H 368.189 2.64178 -3.77554 0
M  V30 3771 H 366.504 2.51512 -3.31859 0
M  V30 3772 H 369.101 4.96106 -1.99456 0
M  V30 3773 H 369.444 4.13343 -0.495329 0
M  V30 3774 H 369.977 3.41754 -2.0359 0
M  V30 3775 H 366.716 4.38368 -4.87354 0
M  V30 3776 H 366.236 5.01951 -3.28337 0
M  V30 3777 H 367.915 5.2001 -3.84965 0
M  V30 3778 N 368.047 0.979072 1.23499 0
M  V30 3779 C 368.979 0.476271 2.24197 0
M  V30 3780 C 369.992 -0.421166 1.57258 0
M  V30 3781 O 371.181 -0.225515 1.7707 0
M  V30 3782 C 368.281 -0.330503 3.37285 0
M  V30 3783 C 367.454 0.559744 4.33804 0
M  V30 3784 C 366.513 -0.192954 5.25846 0
M  V30 3785 O 365.539 0.416978 5.67671 0
M  V30 3786 N 366.741 -1.47932 5.61334 0
M  V30 3787 H 369.506 1.34211 2.67969 0
M  V30 3788 H 367.067 0.852189 1.37657 0
M  V30 3789 H 369.059 -0.842361 3.95836 0
M  V30 3790 H 367.629 -1.09734 2.92707 0
M  V30 3791 H 366.849 1.25245 3.73775 0
M  V30 3792 H 368.137 1.1665 4.95248 0
M  V30 3793 H 367.535 -1.9964 5.29302 0
M  V30 3794 H 366.092 -1.93664 6.22364 0
M  V30 3795 N 369.525 -1.3858 0.750561 0
M  V30 3796 C 370.472 -2.30483 0.120835 0
M  V30 3797 C 371.442 -1.50022 -0.712923 0
M  V30 3798 O 372.627 -1.78662 -0.669676 0
M  V30 3799 C 369.767 -3.36431 -0.768666 0
M  V30 3800 C 368.88 -4.31927 0.0793922 0
M  V30 3801 C 368.015 -5.24944 -0.81283 0
M  V30 3802 C 367.054 -6.12088 0.0390447 0
M  V30 3803 N 366.191 -6.97412 -0.809969 0
M  V30 3804 H 371.031 -2.83761 0.91015 0
M  V30 3805 H 368.568 -1.39707 0.460463 0
M  V30 3806 H 370.526 -3.96462 -1.29898 0
M  V30 3807 H 369.156 -2.8457 -1.5238 0
M  V30 3808 H 368.208 -3.73382 0.727303 0
M  V30 3809 H 369.52 -4.93319 0.737401 0
M  V30 3810 H 368.674 -5.90078 -1.41042 0
M  V30 3811 H 367.413 -4.63911 -1.50458 0
M  V30 3812 H 366.418 -5.45952 0.649328 0
M  V30 3813 H 367.643 -6.75189 0.727809 0
M  V30 3814 H 365.589 -6.38931 -1.48672 0
M  V30 3815 H 365.506 -7.55712 -0.208789 0
M  V30 3816 H 366.774 -7.66959 -1.39263 0
M  V30 3817 N 371.003 -0.499398 -1.49478 0
M  V30 3818 C 371.951 0.293604 -2.3074 0
M  V30 3819 C 372.945 0.96427 -1.39277 0
M  V30 3820 O 374.151 0.892141 -1.56336 0
M  V30 3821 H 370.526 0.113541 -0.743379 0
M  V30 3822 H 372.497 -0.411772 -2.95545 0
M  V30 3823 C 371.246 1.3462 -3.20582 0
M  V30 3824 H 370.569 0.83954 -3.90886 0
M  V30 3825 H 372.009 1.87308 -3.80384 0
M  V30 3826 C 370.468 2.36351 -2.40083 0
M  V30 3827 O 370.998 3.422 -2.10385 0
M  V30 3828 N 369.204 2.0878 -2.02137 0
M  V30 3829 H 368.751 1.22723 -2.26488 0
M  V30 3830 H 368.709 2.77075 -1.48583 0
M  V30 3831 N 372.481 1.55866 -0.233164 0
M  V30 3832 C 373.892 1.847 0.272554 0
M  V30 3833 C 374.243 1.15477 1.58617 0
M  V30 3834 O 373.368 0.42841 2.12117 0
M  V30 3835 C 373.963 3.35071 0.501299 0
M  V30 3836 C 372.522 3.6418 0.951304 0
M  V30 3837 C 371.669 2.77292 0.0208209 0
M  V30 3838 H 374.62 1.52005 -0.456074 0
M  V30 3839 H 374.641 3.55906 1.34577 0
M  V30 3840 H 374.153 3.85424 -0.454936 0
M  V30 3841 H 372.254 3.19293 1.92049 0
M  V30 3842 H 372.367 4.72071 0.817675 0
M  V30 3843 H 370.731 2.49131 0.529723 0
M  V30 3844 H 371.514 3.30448 -0.93054 0
M  V30 3845 N 373.959 -0.0401083 1.57549 0
M  V30 3846 C 374.889 -1.04384 2.08869 0
M  V30 3847 C 375.87 -1.38407 0.988817 0
M  V30 3848 O 377.055 -1.47483 1.26342 0
M  V30 3849 C 374.185 -2.34808 2.55895 0
M  V30 3850 C 373.139 -2.15057 3.70047 0
M  V30 3851 C 372.465 -3.51145 4.03239 0
M  V30 3852 C 373.765 -1.54576 4.98902 0
M  V30 3853 H 375.459 -0.616666 2.92981 0
M  V30 3854 H 373.005 -0.295184 1.40942 0
M  V30 3855 H 374.958 -3.05346 2.90417 0
M  V30 3856 H 373.682 -2.79565 1.68853 0
M  V30 3857 H 372.341 -1.46954 3.35857 0
M  V30 3858 H 371.989 -3.93529 3.13279 0
M  V30 3859 H 371.689 -3.38758 4.80122 0
M  V30 3860 H 373.213 -4.23062 4.40285 0
M  V30 3861 H 374.627 -2.15017 5.31451 0
M  V30 3862 H 373.024 -1.52796 5.80322 0
M  V30 3863 H 374.094 -0.51039 4.82206 0
M  V30 3864 N 375.437 -1.54477 -0.31217 0
M  V30 3865 C 376.684 -1.73227 -1.04875 0
M  V30 3866 C 377.012 -0.512042 -1.87639 0
M  V30 3867 O 376.267 0.506131 -1.89042 0
M  V30 3868 C 376.566 -2.967 -1.99258 0
M  V30 3869 C 376.232 -4.30974 -1.32559 0
M  V30 3870 C 374.894 -4.67477 -1.141 0
M  V30 3871 C 377.246 -5.14258 -0.847835 0
M  V30 3872 C 374.574 -5.84852 -0.465326 0
M  V30 3873 C 376.926 -6.32327 -0.185931 0
M  V30 3874 C 375.59 -6.67499 0.0107077 0
M  V30 3875 H 374.86 -0.633881 -0.383765 0
M  V30 3876 H 377.507 -1.88727 -0.324731 0
M  V30 3877 H 375.812 -2.75935 -2.7815 0
M  V30 3878 H 377.509 -3.08401 -2.563 0
M  V30 3879 H 374.099 -4.02262 -1.4793 0
M  V30 3880 H 378.283 -4.86565 -0.978192 0
M  V30 3881 H 373.539 -6.10654 -0.301883 0
M  V30 3882 H 377.713 -6.96135 0.192211 0
M  V30 3883 H 375.34 -7.58306 0.536287 0
M  V30 3884 N 376.915 0.57481 -1.46744 0
M  V30 3885 C 378.161 1.33251 -1.53674 0
M  V30 3886 C 378.516 1.91468 -0.189125 0
M  V30 3887 O 377.809 1.73954 0.803151 0
M  V30 3888 C 378.003 2.476 -2.57738 0
M  V30 3889 C 377.832 2.00586 -4.02487 0
M  V30 3890 C 376.602 1.85237 -4.70123 0
M  V30 3891 C 378.8 1.56078 -4.90045 0
M  V30 3892 N 376.782 1.32377 -5.99458 0
M  V30 3893 C 378.153 1.14863 -6.09267 0
M  V30 3894 C 380.208 1.43968 -4.76632 0
M  V30 3895 C 378.911 0.627435 -7.16558 0
M  V30 3896 C 380.937 0.932512 -5.84002 0
M  V30 3897 C 380.299 0.53019 -7.02402 0
M  V30 3898 H 376.398 0.480284 -0.617131 0
M  V30 3899 H 378.982 0.653592 -1.83402 0
M  V30 3900 H 377.153 3.13045 -2.29907 0
M  V30 3901 H 378.885 3.14567 -2.54616 0
M  V30 3902 H 375.64 2.07423 -4.25761 0
M  V30 3903 H 376.064 1.08085 -6.68316 0
M  V30 3904 H 380.706 1.73689 -3.85476 0
M  V30 3905 H 378.424 0.317821 -8.07475 0
M  V30 3906 H 382.01 0.842611 -5.75666 0
M  V30 3907 H 380.89 0.14381 -7.84068 0
M  V30 3908 N 378.394 1.34581 0.820102 0
M  V30 3909 C 379.357 1.2628 1.91275 0
M  V30 3910 C 380.357 0.177344 1.59819 0
M  V30 3911 O 381.547 0.430156 1.68806 0
M  V30 3912 C 378.679 0.950327 3.27386 0
M  V30 3913 H 379.872 2.23421 2.00057 0
M  V30 3914 H 377.425 1.1891 1.0144 0
M  V30 3915 H 378.16 -0.0177938 3.24295 0
M  V30 3916 H 377.945 1.73549 3.51601 0
M  V30 3917 H 379.435 0.917492 4.07396 0
M  V30 3918 N 379.872 -1.04064 1.18357 0
M  V30 3919 C 380.819 -2.12077 0.910603 0
M  V30 3920 C 381.789 -1.65421 -0.15 0
M  V30 3921 O 382.974 -1.90797 -0.0103614 0
M  V30 3922 C 380.114 -3.42252 0.442472 0
M  V30 3923 C 379.227 -4.0252 1.5685 0
M  V30 3924 C 378.362 -5.20657 1.05309 0
M  V30 3925 C 377.401 -5.72955 2.1538 0
M  V30 3926 N 376.538 -6.8238 1.65233 0
M  V30 3927 H 381.378 -2.34764 1.83548 0
M  V30 3928 H 378.915 -1.15157 0.915279 0
M  V30 3929 H 380.873 -4.16921 0.152534 0
M  V30 3930 H 379.503 -3.19712 -0.445428 0
M  V30 3931 H 378.555 -3.25178 1.97391 0
M  V30 3932 H 379.867 -4.37362 2.39824 0
M  V30 3933 H 379.021 -6.0244 0.717677 0
M  V30 3934 H 377.76 -4.87318 0.19293 0
M  V30 3935 H 376.765 -4.89793 2.49766 0
M  V30 3936 H 377.99 -6.08337 3.01832 0
M  V30 3937 H 375.936 -6.50917 0.815064 0
M  V30 3938 H 375.853 -7.16286 2.41805 0
M  V30 3939 H 377.121 -7.67788 1.34619 0
M  V30 3940 N 381.35 -0.985608 -1.22978 0
M  V30 3941 C 382.297 -0.529825 -2.24636 0
M  V30 3942 C 383.267 0.434028 -1.60329 0
M  V30 3943 O 384.452 0.340414 -1.87739 0
M  V30 3944 C 381.592 0.156533 -3.44745 0
M  V30 3945 C 380.705 -0.848197 -4.23591 0
M  V30 3946 C 379.84 -0.136109 -5.31026 0
M  V30 3947 C 378.879 -1.1297 -6.01585 0
M  V30 3948 N 378.016 -0.446415 -7.00679 0
M  V30 3949 H 382.856 -1.40148 -2.62988 0
M  V30 3950 H 380.393 -0.702168 -1.29259 0
M  V30 3951 H 382.351 0.571324 -4.1327 0
M  V30 3952 H 380.981 0.992025 -3.07179 0
M  V30 3953 H 380.033 -1.38135 -3.54433 0
M  V30 3954 H 381.345 -1.60512 -4.72268 0
M  V30 3955 H 380.499 0.335784 -6.0577 0
M  V30 3956 H 379.238 0.653373 -4.83304 0
M  V30 3957 H 378.243 -1.6123 -5.25628 0
M  V30 3958 H 379.468 -1.91993 -6.51395 0
M  V30 3959 H 377.414 0.323763 -6.55201 0
M  V30 3960 H 377.331 -1.1419 -7.47326 0
M  V30 3961 H 378.599 0.00291697 -7.795 0
M  V30 3962 N 382.828 1.3818 -0.7579 0
M  V30 3963 C 384.074 2.00316 -0.316453 0
M  V30 3964 C 384.407 1.60026 1.10025 0
M  V30 3965 O 383.682 0.839835 1.75434 0
M  V30 3966 C 383.965 3.57349 -0.444245 0
M  V30 3967 C 383.818 4.07591 -1.90236 0
M  V30 3968 C 385.137 4.3981 0.1598 0
M  V30 3969 H 382.256 0.727741 -0.116459 0
M  V30 3970 H 384.898 1.6406 -0.958352 0
M  V30 3971 H 383.048 3.88365 0.102233 0
M  V30 3972 H 384.72 3.87199 -2.50748 0
M  V30 3973 H 382.963 3.60297 -2.41595 0
M  V30 3974 H 383.634 5.16677 -1.94291 0
M  V30 3975 H 386.11 4.14971 -0.306314 0
M  V30 3976 H 384.986 5.48885 0.0401675 0
M  V30 3977 H 385.247 4.24102 1.24859 0
M  V30 3978 N 384.306 0.507319 1.49211 0
M  V30 3979 C 385.269 -0.256763 2.27757 0
M  V30 3980 C 386.269 -0.888287 1.34038 0
M  V30 3981 O 387.459 -0.751841 1.5714 0
M  V30 3982 C 384.591 -1.36905 3.12202 0
M  V30 3983 H 385.784 0.432557 2.96764 0
M  V30 3984 H 383.337 0.262488 1.5408 0
M  V30 3985 H 384.072 -2.09233 2.47775 0
M  V30 3986 H 383.857 -0.921599 3.81115 0
M  V30 3987 H 385.347 -1.9071 3.7151 0
M  V30 3988 N 385.784 -1.5574 0.241426 0
M  V30 3989 C 386.694 -2.2479 -0.671305 0
M  V30 3990 C 387.71 -1.26217 -1.19772 0
M  V30 3991 O 388.886 -1.59079 -1.23514 0
M  V30 3992 C 385.951 -2.92966 -1.85396 0
M  V30 3993 C 385.012 -4.06935 -1.36756 0
M  V30 3994 C 384.245 -4.71851 -2.49384 0
M  V30 3995 O 384.468 -4.35823 -3.67987 0
M  V30 3996 O 383.402 -5.60467 -2.19454 0
M  V30 3997 H 387.228 -3.0349 -0.112966 0
M  V30 3998 H 384.813 -1.49397 0.0101513 0
M  V30 3999 H 386.695 -3.35927 -2.54423 0
M  V30 4000 H 385.37 -2.17211 -2.40002 0
M  V30 4001 H 384.277 -3.68503 -0.644726 0
M  V30 4002 H 385.61 -4.84492 -0.867647 0
M  V30 4003 N 387.262 0.0317525 -1.57568 0
M  V30 4004 C 388.209 1.0332 -2.06382 0
M  V30 4005 C 389.179 1.36082 -0.952414 0
M  V30 4006 O 390.364 1.46466 -1.2228 0
M  V30 4007 C 387.504 2.32989 -2.54578 0
M  V30 4008 C 386.617 2.0641 -3.79498 0
M  V30 4009 C 385.752 3.2993 -4.16317 0
M  V30 4010 C 384.791 2.98893 -5.34162 0
M  V30 4011 N 383.928 4.14857 -5.66426 0
M  V30 4012 H 388.768 0.609982 -2.9169 0
M  V30 4013 H 386.305 0.289573 -1.44222 0
M  V30 4014 H 388.263 3.0875 -2.80587 0
M  V30 4015 H 386.893 2.73039 -1.7219 0
M  V30 4016 H 385.945 1.21158 -3.6059 0
M  V30 4017 H 387.257 1.79513 -4.65378 0
M  V30 4018 H 386.411 4.1406 -4.4344 0
M  V30 4019 H 385.15 3.59938 -3.29083 0
M  V30 4020 H 384.155 2.13164 -5.06795 0
M  V30 4021 H 385.38 2.70165 -6.23047 0
M  V30 4022 H 383.326 4.44821 -4.82151 0
M  V30 4023 H 383.243 3.91374 -6.4681 0
M  V30 4024 H 384.511 4.99868 -5.98124 0
M  V30 4025 N 388.74 1.54641 0.303973 0
M  V30 4026 C 389.986 1.74038 1.04109 0
M  V30 4027 C 390.319 0.523051 1.87024 0
M  V30 4028 O 389.594 -0.479874 1.88487 0
M  V30 4029 C 389.877 3.02761 1.94955 0
M  V30 4030 C 389.73 4.34787 1.1524 0
M  V30 4031 C 391.049 3.27336 2.94175 0
M  V30 4032 H 388.168 0.63323 0.377079 0
M  V30 4033 H 390.81 1.87354 0.316001 0
M  V30 4034 H 388.96 2.9154 2.56782 0
M  V30 4035 H 390.632 4.57922 0.557236 0
M  V30 4036 H 388.875 4.31407 0.455053 0
M  V30 4037 H 389.546 5.21116 1.8205 0
M  V30 4038 H 392.022 3.38148 2.42477 0
M  V30 4039 H 390.898 4.18726 3.54908 0
M  V30 4040 H 391.159 2.45491 3.67677 0
M  V30 4041 N 390.218 -0.567019 1.47046 0
M  V30 4042 C 391.466 -1.322 1.52864 0
M  V30 4043 C 391.787 -1.94088 0.188388 0
M  V30 4044 O 391.057 -1.7941 -0.786693 0
M  V30 4045 H 389.637 -0.490894 0.563056 0
M  V30 4046 H 392.299 -0.662879 1.83281 0
M  V30 4047 H 391.395 -2.12062 2.2899 0
M  V30 4048 N 391.696 -1.35014 -0.812953 0
M  V30 4049 C 392.936 -1.29289 -1.58315 0
M  V30 4050 C 393.3 0.132727 -1.91541 0
M  V30 4051 O 394.501 0.314269 -2.66957 0
M  V30 4052 C 392.772 -2.1681 -2.84127 0
M  V30 4053 S 394.331 -2.28538 -3.74588 0
M  V30 4054 H 391.149 -0.459569 -0.542511 0
M  V30 4055 H 393.751 -1.70336 -0.959467 0
M  V30 4056 H 392.455 -3.19379 -2.57731 0
M  V30 4057 H 391.986 -1.76697 -3.51485 0
M  V30 4058 H 394.001 -1.4655 -4.74065 0
M  V30 4059 N 393.175 1.03435 -1.18907 0
M  V30 4060 C 394.586 1.58195 -0.991523 0
M  V30 4061 C 394.937 1.90801 0.457081 0
M  V30 4062 O 394.062 1.70272 1.33553 0
M  V30 4063 C 394.657 2.87432 -1.79355 0
M  V30 4064 C 393.216 3.38785 -1.64017 0
M  V30 4065 C 392.363 2.12292 -1.78402 0
M  V30 4066 H 395.314 0.860299 -1.33359 0
M  V30 4067 H 395.335 3.58096 -1.28638 0
M  V30 4068 H 394.847 2.63669 -2.84781 0
M  V30 4069 H 392.948 3.67547 -0.611536 0
M  V30 4070 H 393.061 4.12186 -2.44212 0
M  V30 4071 H 391.425 2.23901 -1.2141 0
M  V30 4072 H 392.208 1.90977 -2.85277 0
M  V30 4073 N 394.653 0.992116 1.22453 0
M  V30 4074 C 395.899 0.668523 1.91464 0
M  V30 4075 C 396.232 -0.797313 1.77078 0
M  V30 4076 O 395.507 -1.5765 1.13916 0
M  V30 4077 C 395.79 1.07424 3.43703 0
M  V30 4078 C 395.643 2.59857 3.67143 0
M  V30 4079 C 396.962 0.626891 4.35612 0
M  V30 4080 H 394.081 0.244341 0.695318 0
M  V30 4081 H 396.723 1.2355 1.44345 0
M  V30 4082 H 394.873 0.591816 3.83966 0
M  V30 4083 H 396.545 3.15764 3.3629 0
M  V30 4084 H 394.788 3.01961 3.11451 0
M  V30 4085 H 395.459 2.83296 4.73759 0
M  V30 4086 H 397.935 1.04125 4.02861 0
M  V30 4087 H 396.811 0.939076 5.40807 0
M  V30 4088 H 397.072 -0.472457 4.39568 0
M  V30 4089 N 396.131 -1.37776 0.765217 0
M  V30 4090 C 397.379 -1.99454 0.325943 0
M  V30 4091 C 397.7 -1.61049 -1.09947 0
M  V30 4092 O 396.97 -0.872821 -1.75381 0
M  V30 4093 H 395.55 -0.737697 0.117525 0
M  V30 4094 H 398.212 -1.68359 0.981895 0
M  V30 4095 H 397.308 -3.09547 0.398353 0
M  V30 4096 N 397.609 -0.515225 -1.4894 0
M  V30 4097 C 398.886 0.0879088 -1.95402 0
M  V30 4098 C 399.266 1.52745 -1.45712 0
M  V30 4099 O 398.614 2.18238 -0.677093 0
M  V30 4100 C 398.824 -0.0141055 -3.48997 0
M  V30 4101 C 400.172 0.152646 -4.24326 0
M  V30 4102 O 401.196 0.0604025 -3.56149 0
M  V30 4103 O 400.055 0.34384 -5.45417 0
M  V30 4104 H 397.149 0.0874636 -0.822362 0
M  V30 4105 H 399.695 -0.578775 -1.59525 0
M  V30 4106 H 398.467 -1.01745 -3.77841 0
M  V30 4107 H 398.09 0.692091 -3.9153 0
M  V30 4108 N 399.087 1.5561 -0.249682 0
M  V30 4109 C 400.05 2.20217 0.635394 0
M  V30 4110 C 401.05 1.17227 1.10066 0
M  V30 4111 O 402.24 1.42292 1.00492 0
M  V30 4112 C 399.372 2.84794 1.87363 0
M  V30 4113 H 400.565 2.99814 0.0716752 0
M  V30 4114 H 398.118 1.563 -0.000153234 0
M  V30 4115 H 398.853 2.09142 2.47851 0
M  V30 4116 H 398.638 3.60241 1.5482 0
M  V30 4117 H 400.128 3.3423 2.5036 0
M  V30 4118 N 400.565 -0.0233959 1.57583 0
M  V30 4119 C 401.528 -1.00693 2.05897 0
M  V30 4120 C 402.528 -1.28693 0.964092 0
M  V30 4121 O 403.718 -1.23602 1.22753 0
M  V30 4122 C 400.85 -2.33825 2.4807 0
M  V30 4123 H 402.043 -0.589476 2.9405 0
M  V30 4124 H 399.596 -0.270354 1.53944 0
M  V30 4125 H 400.331 -2.80307 1.6309 0
M  V30 4126 H 400.116 -2.1483 3.2801 0
M  V30 4127 H 401.606 -3.04426 2.85857 0
M  V30 4128 N 402.043 -1.548 -0.295768 0
M  V30 4129 C 403.459 -1.4613 -0.641722 0
M  V30 4130 C 403.659 -0.656771 -1.90496 0
M  V30 4131 O 402.715 -0.166547 -2.5195 0
M  V30 4132 C 404.028 -2.90141 -0.789852 0
M  V30 4133 C 405.576 -3.00216 -0.885396 0
M  V30 4134 C 406.051 -4.45434 -1.06548 0
M  V30 4135 N 407.542 -4.49166 -1.13156 0
M  V30 4136 C 408.277 -5.58717 -1.28929 0
M  V30 4137 N 407.773 -6.78182 -1.41567 0
M  V30 4138 N 409.566 -5.46415 -1.31859 0
M  V30 4139 H 401.717 -2.05574 0.534147 0
M  V30 4140 H 403.98 -0.931259 0.177372 0
M  V30 4141 H 403.686 -3.51635 0.0675598 0
M  V30 4142 H 403.56 -3.37859 -1.67724 0
M  V30 4143 H 405.947 -2.38833 -1.73329 0
M  V30 4144 H 406.028 -2.55787 0.0261185 0
M  V30 4145 H 405.672 -5.07413 -0.222335 0
M  V30 4146 H 405.602 -4.87499 -1.9913 0
M  V30 4147 H 408.093 -3.631 -1.04721 0
M  V30 4148 H 408.406 -7.57428 -1.53372 0
M  V30 4149 H 406.751 -6.81037 -1.38613 0
M  V30 4150 H 409.942 -4.5203 -1.21601 0
M  V30 4151 H 410.115 -6.31841 -1.43808 0
M  V30 4152 N 403.521 0.559213 -1.47345 0
M  V30 4153 C 404.454 1.68201 -1.5422 0
M  V30 4154 C 405.432 1.57742 -0.394497 0
M  V30 4155 O 406.616 1.78628 -0.60201 0
M  V30 4156 C 403.743 3.0643 -1.44285 0
M  V30 4157 C 402.789 3.3534 -2.63532 0
M  V30 4158 S 403.622 3.24816 -4.25741 0
M  V30 4159 C 404.778 4.65542 -4.18355 0
M  V30 4160 H 405.011 1.62114 -2.49211 0
M  V30 4161 H 402.544 0.739871 -1.35519 0
M  V30 4162 H 404.502 3.86164 -1.3924 0
M  V30 4163 H 403.163 3.09984 -0.506816 0
M  V30 4164 H 402.356 4.36107 -2.52639 0
M  V30 4165 H 401.958 2.63221 -2.65689 0
M  V30 4166 H 404.25 5.56449 -3.86485 0
M  V30 4167 H 405.193 4.81493 -5.19202 0
M  V30 4168 H 405.601 4.43495 -3.49246 0
M  V30 4169 N 404.999 1.35443 0.805782 0
M  V30 4170 C 405.962 1.28301 1.89925 0
M  V30 4171 C 406.962 0.194285 1.59622 0
M  V30 4172 O 408.152 0.448036 1.6834 0
M  V30 4173 C 405.284 0.984997 3.2636 0
M  V30 4174 H 406.477 2.2553 1.97677 0
M  V30 4175 H 404.03 1.19979 1.00173 0
M  V30 4176 H 404.765 0.016603 3.24296 0
M  V30 4177 H 404.55 1.77269 3.4974 0
M  V30 4178 H 406.04 0.960651 4.064 0
M  V30 4179 N 406.477 -1.02803 1.19454 0
M  V30 4180 C 407.409 -2.11181 0.890807 0
M  V30 4181 C 408.422 -1.6238 -0.116829 0
M  V30 4182 O 409.611 -1.78144 0.112694 0
M  V30 4183 C 406.711 -3.37461 0.311942 0
M  V30 4184 C 405.884 -4.15446 1.36834 0
M  V30 4185 C 404.943 -5.20039 0.802864 0
M  V30 4186 O 403.969 -5.49602 1.48077 0
M  V30 4187 N 405.171 -5.79165 -0.393417 0
M  V30 4188 H 407.936 -2.37827 1.82369 0
M  V30 4189 H 405.497 -1.19101 1.09666 0
M  V30 4190 H 407.489 -4.0462 -0.0802225 0
M  V30 4191 H 406.059 -3.08156 -0.52524 0
M  V30 4192 H 405.279 -3.43423 1.93531 0
M  V30 4193 H 406.567 -4.64335 2.08015 0
M  V30 4194 H 405.965 -5.57466 -0.961658 0
M  V30 4195 H 404.522 -6.47729 -0.727351 0
M  V30 4196 N 407.956 -0.998596 -1.21925 0
M  V30 4197 C 409.196 -0.685948 -1.92546 0
M  V30 4198 C 409.56 0.768441 -1.75952 0
M  V30 4199 O 410.761 1.19277 -2.40887 0
M  V30 4200 C 409.032 -1.08767 -3.40448 0
M  V30 4201 S 410.591 -0.894251 -4.29591 0
M  V30 4202 H 407.409 -0.250622 -0.665364 0
M  V30 4203 H 410.011 -1.28207 -1.47591 0
M  V30 4204 H 408.715 -2.14242 -3.50041 0
M  V30 4205 H 408.246 -0.48357 -3.90417 0
M  V30 4206 H 410.261 0.212149 -4.95746 0
M  V30 4207 N 409.434 1.37368 -0.772513 0
M  V30 4208 C 410.364 2.32856 -0.173304 0
M  V30 4209 C 411.345 1.55818 0.682262 0
M  V30 4210 O 412.53 1.84052 0.619566 0
M  V30 4211 C 409.66 3.40048 0.706007 0
M  V30 4212 C 408.614 4.27973 -0.0483144 0
M  V30 4213 C 407.94 5.26184 0.950491 0
M  V30 4214 C 409.24 5.07665 -1.22776 0
M  V30 4215 H 410.934 2.83217 -0.971002 0
M  V30 4216 H 408.48 1.3617 -0.468377 0
M  V30 4217 H 410.433 4.05827 1.13501 0
M  V30 4218 H 409.157 2.88214 1.53623 0
M  V30 4219 H 407.816 3.63726 -0.458107 0
M  V30 4220 H 407.464 4.7063 1.77529 0
M  V30 4221 H 407.164 5.85872 0.450314 0
M  V30 4222 H 408.688 5.94838 1.37842 0
M  V30 4223 H 410.102 5.66578 -0.875366 0
M  V30 4224 H 408.499 5.76681 -1.66007 0
M  V30 4225 H 409.569 4.40294 -2.03149 0
M  V30 4226 N 410.912 0.523116 1.48665 0
M  V30 4227 C 411.859 -0.243398 2.29513 0
M  V30 4228 C 412.829 -0.940139 1.36933 0
M  V30 4229 O 414.014 -0.942503 1.65896 0
M  V30 4230 C 411.154 -1.28855 3.20141 0
M  V30 4231 C 410.267 -0.60135 4.27794 0
M  V30 4232 C 409.402 -1.62884 5.05611 0
M  V30 4233 C 408.441 -0.924726 6.05075 0
M  V30 4234 N 407.578 -1.89744 6.75975 0
M  V30 4235 H 412.418 0.452234 2.94549 0
M  V30 4236 H 409.955 0.234858 1.45213 0
M  V30 4237 H 411.913 -1.90674 3.71079 0
M  V30 4238 H 410.543 -1.95266 2.57043 0
M  V30 4239 H 409.595 0.130623 3.80176 0
M  V30 4240 H 410.907 -0.0481585 4.98777 0
M  V30 4241 H 410.061 -2.32149 5.60528 0
M  V30 4242 H 408.8 -2.21592 4.34452 0
M  V30 4243 H 407.805 -0.217966 5.49368 0
M  V30 4244 H 409.03 -0.343851 6.78229 0
M  V30 4245 H 406.976 -2.47373 6.07571 0
M  V30 4246 H 406.893 -1.3955 7.43009 0
M  V30 4247 H 408.161 -2.58229 7.35485 0
M  V30 4248 N 412.39 -1.55475 0.257931 0
M  V30 4249 C 413.636 -1.99502 -0.364266 0
M  V30 4250 C 413.969 -1.146 -1.56782 0
M  V30 4251 O 413.244 -0.211968 -1.93342 0
M  V30 4252 C 413.527 -3.51917 -0.763333 0
M  V30 4253 C 413.38 -4.4758 0.446371 0
M  V30 4254 C 414.699 -4.09742 -1.60623 0
M  V30 4255 H 411.818 -0.725277 -0.130929 0
M  V30 4256 H 414.46 -1.8653 0.361446 0
M  V30 4257 H 412.61 -3.63101 -1.38166 0
M  V30 4258 H 414.282 -4.48362 1.08487 0
M  V30 4259 H 412.525 -4.19947 1.08753 0
M  V30 4260 H 413.196 -5.51862 0.123645 0
M  V30 4261 H 415.672 -4.01727 -1.08418 0
M  V30 4262 H 414.548 -5.16631 -1.85429 0
M  V30 4263 H 414.809 -3.58889 -2.58169 0
M  V30 4264 N 413.868 0.0150385 -1.57593 0
M  V30 4265 C 415.096 0.714395 -1.94175 0
M  V30 4266 C 415.511 1.68135 -0.858841 0
M  V30 4267 O 414.868 1.81766 0.163567 0
M  V30 4268 C 414.919 1.45933 -3.30735 0
M  V30 4269 O 414.64 0.531167 -4.34868 0
M  V30 4270 C 416.141 2.25456 -3.81686 0
M  V30 4271 H 413.361 0.199923 -0.640525 0
M  V30 4272 H 415.905 -0.0316096 -2.04476 0
M  V30 4273 H 414.06 2.15709 -3.21789 0
M  V30 4274 H 414.474 1.05509 -5.13778 0
M  V30 4275 H 415.948 2.731 -4.79709 0
M  V30 4276 H 416.425 3.07485 -3.13607 0
M  V30 4277 H 417.031 1.60727 -3.9376 0
M  V30 4278 N 415.346 1.54954 0.287554 0
M  V30 4279 C 416.623 1.65569 1.04146 0
M  V30 4280 C 417.003 0.512672 2.0478 0
M  V30 4281 O 416.351 -0.489038 2.23205 0
M  V30 4282 C 416.561 3.04163 1.71131 0
M  V30 4283 C 417.909 3.61429 2.22832 0
M  V30 4284 O 418.933 3.06702 1.81141 0
M  V30 4285 O 417.792 4.57281 2.9926 0
M  V30 4286 H 414.886 0.671881 0.482188 0
M  V30 4287 H 417.432 1.67297 0.28457 0
M  V30 4288 H 416.204 3.78796 0.981303 0
M  V30 4289 H 415.827 3.06271 2.53543 0
M  V30 4290 N 416.824 -0.551391 1.4764 0
M  V30 4291 C 418.235 -1.13349 1.48354 0
M  V30 4292 C 418.586 -1.94709 0.241432 0
M  V30 4293 O 417.711 -2.06306 -0.653205 0
M  V30 4294 C 418.306 -2.0623 2.68802 0
M  V30 4295 C 416.865 -2.597 2.72457 0
M  V30 4296 C 416.012 -1.36201 2.41546 0
M  V30 4297 H 418.963 -0.337698 1.55065 0
M  V30 4298 H 418.984 -2.90196 2.46103 0
M  V30 4299 H 418.496 -1.46987 3.59188 0
M  V30 4300 H 416.597 -3.22724 1.86225 0
M  V30 4301 H 416.71 -3.00296 3.73308 0
M  V30 4302 H 415.074 -1.67068 1.9225 0
M  V30 4303 H 415.857 -0.787425 3.34147 0
M  V30 4304 N 418.302 -1.35869 -0.798587 0
M  V30 4305 C 419.718 -1.16082 -1.09532 0
M  V30 4306 C 419.918 0.0213124 -2.01489 0
M  V30 4307 O 418.974 0.689488 -2.42904 0
M  V30 4308 C 420.287 -2.46748 -1.7186 0
M  V30 4309 C 421.835 -2.53028 -1.84244 0
M  V30 4310 C 422.31 -3.83758 -2.49988 0
M  V30 4311 N 423.801 -3.85053 -2.57465 0
M  V30 4312 C 424.536 -4.8294 -3.09122 0
M  V30 4313 N 424.032 -5.91217 -3.61157 0
M  V30 4314 N 425.825 -4.70369 -3.0775 0
M  V30 4315 H 417.976 -2.11571 -0.187461 0
M  V30 4316 H 420.239 -0.936726 -0.145765 0
M  V30 4317 H 419.945 -3.33471 -1.11759 0
M  V30 4318 H 419.819 -2.61883 -2.71472 0
M  V30 4319 H 422.206 -1.66729 -2.43486 0
M  V30 4320 H 422.287 -2.418 -0.834643 0
M  V30 4321 H 421.931 -4.70459 -1.91393 0
M  V30 4322 H 421.861 -3.92278 -3.5132 0
M  V30 4323 H 424.352 -3.06822 -2.20609 0
M  V30 4324 H 424.665 -6.61892 -3.98896 0
M  V30 4325 H 423.01 -5.94899 -3.59333 0
M  V30 4326 H 426.201 -3.84914 -2.66381 0
M  V30 4327 H 426.374 -5.46816 -3.47701 0
M  V30 4328 N 419.78 1.02168 -1.19998 0
M  V30 4329 C 420.743 2.08765 -0.94604 0
M  V30 4330 C 421.743 1.60618 0.0763846 0
M  V30 4331 O 422.933 1.73472 -0.159135 0
M  V30 4332 C 420.065 3.38262 -0.423255 0
M  V30 4333 H 421.258 2.32726 -1.89153 0
M  V30 4334 H 418.811 1.1889 -1.01464 0
M  V30 4335 H 419.546 3.19974 0.527938 0
M  V30 4336 H 419.331 3.74532 -1.16053 0
M  V30 4337 H 420.821 4.16759 -0.264911 0
M  V30 4338 N 421.258 1.00505 1.21394 0
M  V30 4339 C 422.188 0.585684 2.26035 0
M  V30 4340 C 423.169 -0.393525 1.65485 0
M  V30 4341 O 424.354 -0.281497 1.92149 0
M  V30 4342 C 421.484 -0.0884283 3.47187 0
M  V30 4343 C 420.438 0.810567 4.20254 0
M  V30 4344 C 419.764 0.00286382 5.347 0
M  V30 4345 C 421.064 2.1132 4.77641 0
M  V30 4346 H 422.758 1.46039 2.61368 0
M  V30 4347 H 420.304 0.703648 1.25638 0
M  V30 4348 H 422.257 -0.393286 4.19561 0
M  V30 4349 H 420.981 -0.997766 3.10986 0
M  V30 4350 H 419.64 1.09925 3.49731 0
M  V30 4351 H 419.288 -0.907765 4.94741 0
M  V30 4352 H 418.988 0.601444 5.84514 0
M  V30 4353 H 420.512 -0.295808 6.09883 0
M  V30 4354 H 421.926 1.87148 5.41893 0
M  V30 4355 H 420.323 2.66164 5.37845 0
M  V30 4356 H 421.393 2.78393 3.9702 0
M  V30 4357 N 422.737 -1.36956 0.779787 0
M  V30 4358 C 423.965 -2.03755 0.359398 0
M  V30 4359 C 424.38 -1.58807 -1.02106 0
M  V30 4360 O 423.737 -0.773024 -1.6532 0
M  V30 4361 C 423.788 -3.59251 0.402568 0
M  V30 4362 O 423.509 -4.02557 1.72858 0
M  V30 4363 C 425.01 -4.43291 -0.0284068 0
M  V30 4364 H 422.23 -0.654148 0.149437 0
M  V30 4365 H 424.774 -1.75128 1.05595 0
M  V30 4366 H 422.929 -3.86621 -0.245478 0
M  V30 4367 H 423.343 -4.97111 1.67275 0
M  V30 4368 H 424.817 -5.51975 0.0529466 0
M  V30 4369 H 425.294 -4.25719 -1.07982 0
M  V30 4370 H 425.9 -4.21163 0.591758 0
M  V30 4371 N 424.215 -0.530993 -1.48385 0
M  V30 4372 C 425.145 0.219985 -2.32461 0
M  V30 4373 C 426.126 0.934111 -1.42156 0
M  V30 4374 O 427.311 0.919694 -1.71042 0
M  V30 4375 C 424.441 1.26674 -3.23375 0
M  V30 4376 C 423.395 0.67069 -4.22712 0
M  V30 4377 C 422.721 1.82017 -5.02766 0
M  V30 4378 C 424.021 -0.358268 -5.2107 0
M  V30 4379 H 425.715 -0.48187 -2.95497 0
M  V30 4380 H 423.261 -0.233182 -1.42099 0
M  V30 4381 H 425.214 1.80006 -3.81019 0
M  V30 4382 H 423.938 1.99818 -2.58341 0
M  V30 4383 H 422.597 0.158878 -3.66256 0
M  V30 4384 H 422.245 2.54002 -4.34157 0
M  V30 4385 H 421.945 1.42727 -5.70003 0
M  V30 4386 H 423.469 2.35725 -5.63264 0
M  V30 4387 H 424.883 0.0880081 -5.73232 0
M  V30 4388 H 423.28 -0.66861 -5.96364 0
M  V30 4389 H 424.35 -1.26367 -4.68145 0
M  V30 4390 N 425.693 1.55336 -0.266172 0
M  V30 4391 C 426.656 2.20878 0.612001 0
M  V30 4392 C 427.656 1.18388 1.08816 0
M  V30 4393 O 428.846 1.4335 0.989774 0
M  V30 4394 C 425.978 2.86765 1.84332 0
M  V30 4395 H 427.171 2.99873 0.0398718 0
M  V30 4396 H 424.724 1.56291 -0.0167309 0
M  V30 4397 H 425.459 2.11759 2.45619 0
M  V30 4398 H 425.244 3.61862 1.5099 0
M  V30 4399 H 426.734 3.36867 2.46801 0
M  V30 4400 N 427.171 -0.0066808 1.57599 0
M  V30 4401 C 428.401 -0.703066 1.94269 0
M  V30 4402 C 428.809 -1.68206 0.866222 0
M  V30 4403 O 428.152 -1.82966 -0.164087 0
M  V30 4404 C 428.214 -1.49616 3.26887 0
M  V30 4405 C 427.878 -0.679494 4.5192 0
M  V30 4406 C 428.875 0.0299508 5.19891 0
M  V30 4407 C 426.56 -0.627433 4.98366 0
M  V30 4408 C 428.554 0.780514 6.32603 0
M  V30 4409 C 426.241 0.126861 6.10968 0
M  V30 4410 C 427.239 0.829574 6.77943 0
M  V30 4411 O 426.927 1.57157 7.88389 0
M  V30 4412 H 426.659 -0.201217 0.645359 0
M  V30 4413 H 429.213 0.0385326 2.05364 0
M  V30 4414 H 427.443 -2.28209 3.12182 0
M  V30 4415 H 429.132 -2.07726 3.48719 0
M  V30 4416 H 429.898 -0.00115963 4.85 0
M  V30 4417 H 425.777 -1.16392 4.46065 0
M  V30 4418 H 429.321 1.32954 6.84813 0
M  V30 4419 H 425.218 0.159815 6.45302 0
M  V30 4420 H 425.986 1.48758 8.04868 0
M  V30 4421 N 428.649 -1.55105 -0.279332 0
M  V30 4422 C 429.596 -1.8755 -1.34513 0
M  V30 4423 C 430.566 -0.726384 -1.49375 0
M  V30 4424 O 431.751 -0.977063 -1.63884 0
M  V30 4425 C 428.891 -2.14738 -2.70151 0
M  V30 4426 C 428.004 -3.42285 -2.63562 0
M  V30 4427 C 427.139 -3.59206 -3.91337 0
M  V30 4428 C 426.178 -4.80467 -3.79233 0
M  V30 4429 N 425.315 -4.94079 -4.98829 0
M  V30 4430 H 430.155 -2.78456 -1.06143 0
M  V30 4431 H 427.692 -1.37867 -0.512936 0
M  V30 4432 H 429.65 -2.28501 -3.49061 0
M  V30 4433 H 428.28 -1.27075 -2.96735 0
M  V30 4434 H 427.332 -3.37029 -1.76397 0
M  V30 4435 H 428.644 -4.31328 -2.50515 0
M  V30 4436 H 427.798 -3.72751 -4.78687 0
M  V30 4437 H 426.537 -2.68337 -4.07243 0
M  V30 4438 H 425.542 -4.66932 -2.90266 0
M  V30 4439 H 426.767 -5.72765 -3.64852 0
M  V30 4440 H 424.713 -4.06139 -5.15158 0
M  V30 4441 H 424.63 -5.77156 -4.8829 0
M  V30 4442 H 425.898 -5.12003 -5.8777 0
M  V30 4443 N 430.127 0.543554 -1.4793 0
M  V30 4444 C 431.373 1.30201 -1.55485 0
M  V30 4445 C 431.706 1.92925 -0.222201 0
M  V30 4446 O 430.981 1.78586 0.77053 0
M  V30 4447 C 431.264 2.40174 -2.68307 0
M  V30 4448 C 431.117 1.8223 -4.11233 0
M  V30 4449 C 432.436 3.42024 -2.76961 0
M  V30 4450 H 429.555 0.472036 -0.565996 0
M  V30 4451 H 432.197 0.606914 -1.80046 0
M  V30 4452 H 430.347 2.99463 -2.47495 0
M  V30 4453 H 432.019 1.27096 -4.43446 0
M  V30 4454 H 430.262 1.12832 -4.18869 0
M  V30 4455 H 430.933 2.61793 -4.85972 0
M  V30 4456 H 433.409 2.92672 -2.95774 0
M  V30 4457 H 432.285 4.16383 -3.57654 0
M  V30 4458 H 432.546 4.0173 -1.84568 0
M  V30 4459 N 431.605 1.3629 0.791371 0
M  V30 4460 C 433.016 1.27225 1.36641 0
M  V30 4461 C 433.367 -0.0887968 1.95999 0
M  V30 4462 O 432.492 -0.990207 1.92416 0
M  V30 4463 C 433.087 2.30375 2.48421 0
M  V30 4464 C 431.646 2.25004 3.01746 0
M  V30 4465 C 430.793 2.15259 1.7481 0
M  V30 4466 H 433.744 1.47198 0.593173 0
M  V30 4467 H 433.765 1.93905 3.27385 0
M  V30 4468 H 433.277 3.29422 2.05189 0
M  V30 4469 H 431.378 1.29417 3.49403 0
M  V30 4470 H 431.491 3.1761 3.58693 0
M  V30 4471 H 429.855 1.61482 1.96966 0
M  V30 4472 H 430.638 3.16191 1.33709 0
M  V30 4473 N 433.083 -1.0153 1.20538 0
M  V30 4474 C 434.013 -2.11972 0.979295 0
M  V30 4475 C 434.994 -1.6985 -0.0921787 0
M  V30 4476 O 436.179 -1.94089 0.0655932 0
M  V30 4477 C 433.309 -3.43201 0.531984 0
M  V30 4478 C 432.263 -3.9907 1.54685 0
M  V30 4479 C 431.589 -5.26082 0.956127 0
M  V30 4480 C 432.889 -4.32313 2.93092 0
M  V30 4481 H 434.583 -2.31143 1.90298 0
M  V30 4482 H 432.129 -1.11079 0.916372 0
M  V30 4483 H 434.082 -4.1985 0.361044 0
M  V30 4484 H 432.806 -3.23792 -0.427327 0
M  V30 4485 H 431.465 -3.2453 1.70517 0
M  V30 4486 H 431.113 -5.02999 -0.0111538 0
M  V30 4487 H 430.813 -5.64426 1.63393 0
M  V30 4488 H 432.337 -6.05386 0.796284 0
M  V30 4489 H 433.751 -4.99845 2.80763 0
M  V30 4490 H 432.148 -4.81774 3.57791 0
M  V30 4491 H 433.218 -3.41025 3.44717 0
M  V30 4492 N 434.561 -1.01147 -1.20859 0
M  V30 4493 C 435.524 -0.582224 -2.21682 0
M  V30 4494 C 436.524 0.344887 -1.57058 0
M  V30 4495 O 437.714 0.134281 -1.73682 0
M  V30 4496 C 434.846 0.150496 -3.40568 0
M  V30 4497 H 436.039 -1.47408 -2.61172 0
M  V30 4498 H 433.592 -0.800695 -1.34233 0
M  V30 4499 H 434.327 1.0575 -3.06574 0
M  V30 4500 H 434.112 -0.515444 -3.88697 0
M  V30 4501 H 435.602 0.438344 -4.15293 0
M  V30 4502 N 436.039 1.36541 -0.78704 0
M  V30 4503 C 437.287 1.98911 -0.357633 0
M  V30 4504 C 437.608 1.62778 1.07371 0
M  V30 4505 O 436.878 0.900612 1.73971 0
M  V30 4506 H 435.458 0.735734 -0.129246 0
M  V30 4507 H 438.12 1.66776 -1.00855 0
M  V30 4508 H 437.216 3.08874 -0.447549 0
M  V30 4509 N 437.518 0.538854 1.48102 0
M  V30 4510 C 438.448 -0.207654 2.32575 0
M  V30 4511 C 439.429 -0.926559 1.4265 0
M  V30 4512 O 440.614 -0.91061 1.71527 0
M  V30 4513 C 437.744 -1.24957 3.24042 0
M  V30 4514 C 436.698 -0.648263 4.23062 0
M  V30 4515 C 436.024 -1.79348 5.03725 0
M  V30 4516 C 437.324 0.385897 5.20872 0
M  V30 4517 H 439.018 0.497534 2.95237 0
M  V30 4518 H 436.564 0.240715 1.41974 0
M  V30 4519 H 438.517 -1.77983 3.81969 0
M  V30 4520 H 437.241 -1.98446 2.59397 0
M  V30 4521 H 435.9 -0.139452 3.66335 0
M  V30 4522 H 435.548 -2.51696 4.35498 0
M  V30 4523 H 435.248 -1.39702 5.70751 0
M  V30 4524 H 436.772 -2.32735 5.64506 0
M  V30 4525 H 438.186 -0.057607 5.73271 0
M  V30 4526 H 436.583 0.700227 5.96001 0
M  V30 4527 H 437.653 1.28848 4.67468 0
M  V30 4528 N 438.996 -1.55193 0.274407 0
M  V30 4529 C 439.906 -2.26164 -0.623473 0
M  V30 4530 C 440.922 -1.28729 -1.17068 0
M  V30 4531 O 442.098 -1.61663 -1.20112 0
M  V30 4532 C 439.163 -2.96833 -1.7914 0
M  V30 4533 C 438.224 -4.09745 -1.28093 0
M  V30 4534 C 437.457 -4.77034 -2.3932 0
M  V30 4535 O 437.68 -4.4353 -3.5866 0
M  V30 4536 O 436.614 -5.64996 -2.07516 0
M  V30 4537 H 440.44 -3.03661 -0.0485661 0
M  V30 4538 H 438.025 -1.49341 0.0418382 0
M  V30 4539 H 439.907 -3.41248 -2.4724 0
M  V30 4540 H 438.582 -2.22253 -2.35341 0
M  V30 4541 H 437.489 -3.69787 -0.566416 0
M  V30 4542 H 438.822 -4.86224 -0.764683 0
M  V30 4543 N 440.474 -0.00167713 -1.576 0
M  V30 4544 C 441.704 0.692754 -1.94639 0
M  V30 4545 C 442.112 1.67744 -0.87513 0
M  V30 4546 O 441.455 1.8305 0.154382 0
M  V30 4547 C 441.517 1.47881 -3.27676 0
M  V30 4548 C 441.181 0.655518 -4.52274 0
M  V30 4549 C 442.178 -0.0575214 -5.19868 0
M  V30 4550 C 439.863 0.600994 -4.98692 0
M  V30 4551 C 441.857 -0.814052 -6.3218 0
M  V30 4552 C 439.544 -0.15926 -6.10892 0
M  V30 4553 C 440.542 -0.865515 -6.77494 0
M  V30 4554 O 440.23 -1.61336 -7.87544 0
M  V30 4555 H 439.962 0.197792 -0.646417 0
M  V30 4556 H 442.516 -0.049423 -2.05341 0
M  V30 4557 H 440.746 2.2655 -3.13388 0
M  V30 4558 H 442.435 2.05874 -3.49816 0
M  V30 4559 H 443.201 -0.0245611 -4.84994 0
M  V30 4560 H 439.08 1.14025 -4.46676 0
M  V30 4561 H 442.624 -1.36584 -6.84098 0
M  V30 4562 H 438.521 -0.194035 -6.45208 0
M  V30 4563 H 439.289 -1.53025 -8.04068 0
M  V30 4564 N 441.952 1.55251 0.271103 0
M  V30 4565 C 443.363 1.66635 0.842007 0
M  V30 4566 C 443.714 0.594631 1.86972 0
M  V30 4567 O 442.839 -0.263532 2.14789 0
M  V30 4568 C 443.434 3.02082 1.53401 0
M  V30 4569 C 441.993 3.15487 2.05293 0
M  V30 4570 C 441.14 2.62438 0.895631 0
M  V30 4571 H 444.091 1.58629 0.0474117 0
M  V30 4572 H 444.112 2.95176 2.40107 0
M  V30 4573 H 443.624 3.80062 0.785786 0
M  V30 4574 H 441.725 2.42284 2.83071 0
M  V30 4575 H 441.838 4.22075 2.26693 0
M  V30 4576 H 440.202 2.19644 1.28953 0
M  V30 4577 H 440.985 3.42923 0.160878 0
M  V30 4578 N 443.43 -0.535701 1.48216 0
M  V30 4579 C 444.363 -1.65726 1.56876 0
M  V30 4580 C 445.341 -1.57094 0.419542 0
M  V30 4581 O 446.525 -1.77648 0.630352 0
M  V30 4582 C 443.652 -3.04096 1.49142 0
M  V30 4583 C 442.698 -3.31105 2.68834 0
M  V30 4584 S 443.531 -3.18001 4.30854 0
M  V30 4585 C 444.687 -4.58828 4.25709 0
M  V30 4586 H 444.92 -1.58129 2.51759 0
M  V30 4587 H 442.453 -0.718218 1.36678 0
M  V30 4588 H 444.411 -3.839 1.45366 0
M  V30 4589 H 443.072 -3.09139 0.556067 0
M  V30 4590 H 442.265 -4.32033 2.59545 0
M  V30 4591 H 441.867 -2.58961 2.69843 0
M  V30 4592 H 444.159 -5.5023 3.95289 0
M  V30 4593 H 445.102 -4.73172 5.26796 0
M  V30 4594 H 445.51 -4.37883 3.56257 0
M  V30 4595 N 444.908 -1.36708 -0.784132 0
M  V30 4596 C 445.838 -1.34153 -1.91116 0
M  V30 4597 C 446.819 -0.212121 -1.68772 0
M  V30 4598 O 448.004 -0.410581 -1.8981 0
M  V30 4599 C 445.134 -1.13535 -3.28218 0
M  V30 4600 C 444.088 -2.23356 -3.65097 0
M  V30 4601 C 443.414 -1.87875 -5.00607 0
M  V30 4602 C 444.714 -3.65473 -3.73131 0
M  V30 4603 H 446.408 -2.28459 -1.93512 0
M  V30 4604 H 443.954 -1.09973 -0.929618 0
M  V30 4605 H 445.907 -1.10381 -4.06687 0
M  V30 4606 H 444.631 -0.156804 -3.26223 0
M  V30 4607 H 443.29 -2.25645 -2.88929 0
M  V30 4608 H 442.938 -0.885814 -4.95139 0
M  V30 4609 H 442.638 -2.61406 -5.26252 0
M  V30 4610 H 444.162 -1.86286 -5.81489 0
M  V30 4611 H 445.576 -3.65382 -4.41779 0
M  V30 4612 H 443.973 -4.37953 -4.10265 0
M  V30 4613 H 445.043 -3.99995 -2.74102 0
M  V30 4614 N 446.386 1.0089 -1.21074 0
M  V30 4615 C 447.336 2.0799 -0.934034 0
M  V30 4616 C 448.32 1.60529 0.10919 0
M  V30 4617 O 449.512 1.76722 -0.0992198 0
M  V30 4618 C 446.641 3.39693 -0.496334 0
M  V30 4619 C 445.727 3.93833 -1.57341 0
M  V30 4620 N 446.118 4.21388 -2.7976 0
M  V30 4621 C 444.416 4.22067 -1.44137 0
M  V30 4622 C 445.117 4.65156 -3.49292 0
M  V30 4623 N 444.093 4.67895 -2.76722 0
M  V30 4624 H 447.895 2.27213 -1.86417 0
M  V30 4625 H 445.409 1.18927 -1.10589 0
M  V30 4626 H 447.406 4.15962 -0.279471 0
M  V30 4627 H 446.066 3.21879 0.427084 0
M  V30 4628 H 447.077 4.10061 -3.1634 0
M  V30 4629 H 443.754 4.1341 -0.582947 0
M  V30 4630 H 445.144 4.95231 -4.54088 0
M  V30 4631 N 447.864 1.01787 1.20321 0
M  V30 4632 C 449.094 0.72614 1.93419 0
M  V30 4633 C 449.502 -0.717317 1.75075 0
M  V30 4634 O 448.845 -1.49836 1.06278 0
M  V30 4635 C 448.907 0.983621 3.45782 0
M  V30 4636 C 448.571 2.41645 3.87888 0
M  V30 4637 C 449.568 3.39732 3.93545 0
M  V30 4638 C 447.253 2.75752 4.19841 0
M  V30 4639 C 449.247 4.69988 4.30569 0
M  V30 4640 C 446.934 4.06221 4.56539 0
M  V30 4641 C 447.932 5.0315 4.61876 0
M  V30 4642 O 447.62 6.31284 4.97731 0
M  V30 4643 H 447.352 0.265824 0.621541 0
M  V30 4644 H 449.906 1.3623 1.53722 0
M  V30 4645 H 448.136 0.290301 3.85609 0
M  V30 4646 H 449.825 0.683279 4.00108 0
M  V30 4647 H 450.591 3.14718 3.69022 0
M  V30 4648 H 446.47 2.00993 4.14877 0
M  V30 4649 H 450.014 5.45642 4.3465 0
M  V30 4650 H 445.911 4.31013 4.80518 0
M  V30 4651 H 446.679 6.35591 5.15719 0
M  V30 4652 N 449.342 -1.36122 0.79427 0
M  V30 4653 C 450.588 -1.99406 0.369452 0
M  V30 4654 C 450.921 -1.62886 -1.05743 0
M  V30 4655 O 450.196 -0.886053 -1.73145 0
M  V30 4656 C 450.479 -3.56046 0.538833 0
M  V30 4657 C 450.332 -4.02404 2.00976 0
M  V30 4658 C 451.651 -4.40079 -0.0431359 0
M  V30 4659 H 448.77 -0.724397 0.135712 0
M  V30 4660 H 451.412 -1.61461 1.00151 0
M  V30 4661 H 449.562 -3.885 0.000771004 0
M  V30 4662 H 451.234 -3.80415 2.60926 0
M  V30 4663 H 449.477 -3.53765 2.51063 0
M  V30 4664 H 450.148 -5.11344 2.07922 0
M  V30 4665 H 452.624 -4.14013 0.416228 0
M  V30 4666 H 451.5 -5.48799 0.105374 0
M  V30 4667 H 451.761 -4.27264 -1.13571 0
M  V30 4668 N 450.82 -0.546701 -1.47814 0
M  V30 4669 C 452.068 -0.0187037 -2.02091 0
M  V30 4670 C 452.389 1.33168 -1.42447 0
M  V30 4671 O 451.659 1.86619 -0.595839 0
M  V30 4672 H 450.239 -0.00392531 -0.74699 0
M  V30 4673 H 452.901 -0.714327 -1.81338 0
M  V30 4674 H 451.997 0.0772219 -3.12004 0
M  V30 4675 N 452.299 1.55045 -0.282633 0
M  V30 4676 C 453.546 1.9976 0.33199 0
M  V30 4677 C 453.874 1.17105 1.55295 0
M  V30 4678 O 453.129 0.230599 1.94337 0
M  V30 4679 C 453.428 3.49422 0.750938 0
M  V30 4680 C 453.094 4.4941 -0.366228 0
M  V30 4681 C 451.756 4.76471 -0.672964 0
M  V30 4682 C 454.108 5.09054 -1.11864 0
M  V30 4683 C 451.436 5.60442 -1.73556 0
M  V30 4684 C 453.788 5.9418 -2.17102 0
M  V30 4685 C 452.452 6.19558 -2.48402 0
M  V30 4686 H 451.722 0.730974 0.121484 0
M  V30 4687 H 454.369 1.8732 -0.39791 0
M  V30 4688 H 452.674 3.59377 1.56063 0
M  V30 4689 H 454.371 3.81432 1.23736 0
M  V30 4690 H 450.961 4.2844 -0.117041 0
M  V30 4691 H 455.145 4.88165 -0.894925 0
M  V30 4692 H 450.401 5.78349 -1.983 0
M  V30 4693 H 454.575 6.39427 -2.75873 0
M  V30 4694 H 452.202 6.84417 -3.30874 0
M  V30 4695 N 453.777 0.010035 1.57597 0
M  V30 4696 C 455.023 -0.673697 1.91283 0
M  V30 4697 C 455.356 -1.72863 0.884979 0
M  V30 4698 O 454.631 -1.94268 -0.0949487 0
M  V30 4699 C 454.914 -1.30766 3.35518 0
M  V30 4700 C 454.767 -0.263578 4.49027 0
M  V30 4701 C 456.086 -2.23105 3.79358 0
M  V30 4702 H 453.205 -0.243439 0.695634 0
M  V30 4703 H 455.847 0.0633864 1.89894 0
M  V30 4704 H 453.997 -1.93588 3.36832 0
M  V30 4705 H 455.669 0.365738 4.59848 0
M  V30 4706 H 453.912 0.413077 4.31829 0
M  V30 4707 H 454.583 -0.746398 5.4693 0
M  V30 4708 H 457.059 -1.70289 3.79659 0
M  V30 4709 H 455.935 -2.64424 4.81011 0
M  V30 4710 H 456.196 -3.11433 3.13787 0
M  V30 4711 N 455.255 -1.55392 -0.262866 0
M  V30 4712 C 456.666 -1.67079 -0.833158 0
M  V30 4713 C 457.017 -0.604539 -1.86654 0
M  V30 4714 O 456.142 0.252138 -2.14926 0
M  V30 4715 C 456.737 -3.02891 -1.51797 0
M  V30 4716 C 455.296 -3.16571 -2.03617 0
M  V30 4717 C 454.443 -2.62909 -0.881701 0
M  V30 4718 H 457.394 -1.58652 -0.0389986 0
M  V30 4719 H 457.415 -2.96445 -2.38538 0
M  V30 4720 H 456.927 -3.80473 -0.765619 0
M  V30 4721 H 455.028 -2.43782 -2.81782 0
M  V30 4722 H 455.141 -4.23271 -2.24452 0
M  V30 4723 H 453.505 -2.20324 -1.27786 0
M  V30 4724 H 454.288 -3.43003 -0.14269 0
M  V30 4725 N 456.733 0.527833 -1.48498 0
M  V30 4726 C 457.979 1.28545 -1.56857 0
M  V30 4727 C 458.312 1.92678 -0.242651 0
M  V30 4728 O 457.587 1.79394 0.751545 0
M  V30 4729 C 457.87 2.37314 -2.70839 0
M  V30 4730 C 457.723 1.77858 -4.13142 0
M  V30 4731 C 459.042 3.39068 -2.80573 0
M  V30 4732 H 456.161 0.466006 -0.570971 0
M  V30 4733 H 458.803 0.587784 -1.8068 0
M  V30 4734 H 456.953 2.96821 -2.50658 0
M  V30 4735 H 458.625 1.22385 -4.44769 0
M  V30 4736 H 456.868 1.08383 -4.20042 0
M  V30 4737 H 457.539 2.56624 -4.88721 0
M  V30 4738 H 460.015 2.89518 -2.98862 0
M  V30 4739 H 458.891 4.12566 -3.6205 0
M  V30 4740 H 459.152 3.9975 -1.88818 0
M  V30 4741 N 458.211 1.37122 0.776871 0
M  V30 4742 C 459.46 1.31373 1.53049 0
M  V30 4743 C 459.773 -0.101016 1.95339 0
M  V30 4744 O 460.979 -0.280953 2.70042 0
M  V30 4745 C 459.435 2.30567 2.76346 0
M  V30 4746 C 459.043 3.77543 2.41175 0
M  V30 4747 C 460.787 2.33818 3.54301 0
M  V30 4748 C 458.694 4.68481 3.60943 0
M  V30 4749 H 457.624 0.488234 0.574581 0
M  V30 4750 H 460.275 1.62554 0.851372 0
M  V30 4751 H 458.657 1.92396 3.46121 0
M  V30 4752 H 459.831 4.24521 1.79216 0
M  V30 4753 H 458.146 3.77187 1.76405 0
M  V30 4754 H 460.743 2.98965 4.4331 0
M  V30 4755 H 461.086 1.3503 3.93793 0
M  V30 4756 H 461.619 2.7067 2.91518 0
M  V30 4757 H 458.358 5.68378 3.26537 0
M  V30 4758 H 457.878 4.2621 4.22025 0
M  V30 4759 H 459.557 4.85366 4.27819 0
M  V30 4760 N 459.689 -1.00246 1.21608 0
M  V30 4761 C 460.966 -1.71336 0.943568 0
M  V30 4762 C 461.346 -2.03972 -0.543943 0
M  V30 4763 O 460.694 -1.71545 -1.50946 0
M  V30 4764 C 460.904 -2.97094 1.83128 0
M  V30 4765 C 462.252 -3.70071 2.08165 0
M  V30 4766 O 463.276 -3.07081 1.80498 0
M  V30 4767 O 462.135 -4.83376 2.54971 0
M  V30 4768 H 459.229 -0.747386 0.354039 0
M  V30 4769 H 461.775 -1.05967 1.32549 0
M  V30 4770 H 460.547 -2.69407 2.83788 0
M  V30 4771 H 460.17 -3.70204 1.45034 0
M  V30 4772 N 461.167 -1.02423 -1.1978 0
M  V30 4773 C 462.415 -0.716569 -1.8897 0
M  V30 4774 C 462.736 0.756769 -1.79716 0
M  V30 4775 O 462.006 1.5449 -1.20456 0
M  V30 4776 H 460.586 -0.262062 -0.699523 0
M  V30 4777 H 463.248 -1.29747 -1.45436 0
M  V30 4778 H 462.344 -1.00675 -2.95417 0
M  V30 4779 N 462.645 1.35699 -0.801477 0
M  V30 4780 C 463.922 1.9324 -0.302937 0
M  V30 4781 C 464.302 1.73209 1.20672 0
M  V30 4782 O 463.65 1.09809 2.00385 0
M  V30 4783 C 463.86 3.41728 -0.708747 0
M  V30 4784 C 465.208 4.18868 -0.695328 0
M  V30 4785 O 466.232 3.5022 -0.649971 0
M  V30 4786 O 465.091 5.41342 -0.749081 0
M  V30 4787 H 462.185 0.82331 -0.0780367 0
M  V30 4788 H 464.731 1.44806 -0.884832 0
M  V30 4789 H 463.503 3.50015 -1.74944 0
M  V30 4790 H 463.126 3.97471 -0.101384 0
M  V30 4791 N 464.123 0.554532 1.47522 0
M  V30 4792 C 465.37 0.029479 2.02479 0
M  V30 4793 C 465.698 -1.31929 1.42916 0
M  V30 4794 O 464.953 -1.87112 0.573385 0
M  V30 4795 C 465.252 -0.115927 3.57212 0
M  V30 4796 C 464.918 1.16161 4.3568 0
M  V30 4797 C 463.58 1.51168 4.56839 0
M  V30 4798 C 465.932 2.0083 4.80954 0
M  V30 4799 C 463.26 2.70696 5.2052 0
M  V30 4800 C 465.612 3.19559 5.45953 0
M  V30 4801 C 464.276 3.54882 5.65345 0
M  V30 4802 H 463.546 0.0107871 0.740921 0
M  V30 4803 H 466.193 0.725506 1.77225 0
M  V30 4804 H 464.498 -0.894902 3.81443 0
M  V30 4805 H 466.195 -0.53749 3.97381 0
M  V30 4806 H 462.785 0.879026 4.19489 0
M  V30 4807 H 466.969 1.75093 4.64388 0
M  V30 4808 H 462.225 2.98236 5.33728 0
M  V30 4809 H 466.399 3.85456 5.79997 0
M  V30 4810 H 464.026 4.47596 6.1446 0
M  V30 4811 N 465.601 -1.54893 0.290851 0
M  V30 4812 C 466.85 -1.99111 -0.322113 0
M  V30 4813 C 467.163 -1.18283 -1.55784 0
M  V30 4814 O 468.369 -1.5272 -2.24475 0
M  V30 4815 C 466.825 -3.54442 -0.624438 0
M  V30 4816 C 466.433 -4.44066 0.592373 0
M  V30 4817 C 468.177 -4.07211 -1.19916 0
M  V30 4818 C 466.084 -5.90812 0.263762 0
M  V30 4819 H 465.014 -0.743712 -0.124133 0
M  V30 4820 H 467.665 -1.79132 0.39797 0
M  V30 4821 H 466.047 -3.70281 -1.40384 0
M  V30 4822 H 467.221 -4.39999 1.36886 0
M  V30 4823 H 465.536 -4.02015 1.08502 0
M  V30 4824 H 468.133 -5.14407 -1.45909 0
M  V30 4825 H 468.476 -3.57196 -2.13815 0
M  V30 4826 H 469.009 -3.94873 -0.481687 0
M  V30 4827 H 465.748 -6.44955 1.17105 0
M  V30 4828 H 465.268 -5.97911 -0.475655 0
M  V30 4829 H 466.947 -6.46852 -0.138354 0
M  V30 4830 N 467.08 -0.0183926 -1.57589 0
M  V30 4831 C 468.491 0.521927 -1.79256 0
M  V30 4832 C 468.842 1.72885 -0.927636 0
M  V30 4833 O 467.967 2.15978 -0.135091 0
M  V30 4834 C 468.562 0.953632 -3.25102 0
M  V30 4835 C 467.121 1.43913 -3.47801 0
M  V30 4836 C 466.268 0.398837 -2.74417 0
M  V30 4837 H 469.219 -0.244485 -1.56805 0
M  V30 4838 H 469.24 1.81863 -3.34224 0
M  V30 4839 H 468.752 0.0750123 -3.88028 0
M  V30 4840 H 466.853 2.33804 -2.90115 0
M  V30 4841 H 466.966 1.45391 -4.56507 0
M  V30 4842 H 465.33 0.864572 -2.39577 0
M  V30 4843 H 466.113 -0.471132 -3.40052 0
M  V30 4844 N 468.558 1.5553 0.254621 0
M  V30 4845 C 469.521 1.88872 1.29846 0
M  V30 4846 C 470.521 0.764591 1.41459 0
M  V30 4847 O 471.711 1.03265 1.40293 0
M  V30 4848 C 468.843 2.11032 2.67728 0
M  V30 4849 H 470.036 2.82201 1.01502 0
M  V30 4850 H 467.589 1.48303 0.493556 0
M  V30 4851 H 468.324 1.20146 3.01223 0
M  V30 4852 H 468.109 2.92895 2.60682 0
M  V30 4853 H 469.599 2.38038 3.43115 0
M  V30 4854 N 470.036 -0.519951 1.48776 0
M  V30 4855 C 471.313 -1.28123 1.47797 0
M  V30 4856 C 471.693 -2.10196 0.195157 0
M  V30 4857 O 471.041 -2.13167 -0.822925 0
M  V30 4858 C 471.251 -2.15413 2.74587 0
M  V30 4859 C 472.599 -2.75225 3.23321 0
M  V30 4860 O 473.623 -2.25694 2.75574 0
M  V30 4861 O 472.482 -3.65346 4.06429 0
M  V30 4862 H 469.576 -0.578793 0.590701 0
M  V30 4863 H 472.122 -0.535779 1.6102 0
M  V30 4864 H 470.894 -1.54617 3.59457 0
M  V30 4865 H 470.517 -2.97186 2.64132 0
M  V30 4866 N 471.514 -1.37532 -0.769588 0
M  V30 4867 C 472.925 -1.29382 -1.346 0
M  V30 4868 C 473.276 0.0576039 -1.96115 0
M  V30 4869 O 472.401 0.95947 -1.93967 0
M  V30 4870 C 472.996 -2.34298 -2.44724 0
M  V30 4871 C 471.555 -2.29776 -2.98128 0
M  V30 4872 C 470.702 -2.18013 -1.71364 0
M  V30 4873 H 473.653 -1.48123 -0.56968 0
M  V30 4874 H 473.674 -1.99089 -3.24259 0
M  V30 4875 H 473.186 -3.32645 -1.99922 0
M  V30 4876 H 471.287 -1.34959 -3.47299 0
M  V30 4877 H 471.4 -3.23276 -3.53595 0
M  V30 4878 H 469.764 -1.64595 -1.94372 0
M  V30 4879 H 470.547 -3.18278 -1.28662 0
M  V30 4880 N 472.992 0.995999 -1.22138 0
M  V30 4881 C 474.241 1.72928 -1.03821 0
M  V30 4882 C 474.554 1.90872 0.427444 0
M  V30 4883 O 475.76 2.61496 0.730212 0
M  V30 4884 C 474.216 3.11124 -1.80913 0
M  V30 4885 C 473.824 3.01122 -3.31707 0
M  V30 4886 C 475.568 3.8852 -1.71035 0
M  V30 4887 C 473.475 4.34453 -4.01253 0
M  V30 4888 H 472.405 0.648376 -0.384869 0
M  V30 4889 H 475.056 1.11213 -1.45959 0
M  V30 4890 H 473.438 3.73503 -1.31573 0
M  V30 4891 H 474.612 2.47926 -3.88419 0
M  V30 4892 H 472.927 2.3721 -3.42228 0
M  V30 4893 H 475.524 4.872 -2.20318 0
M  V30 4894 H 475.867 4.1087 -0.670196 0
M  V30 4895 H 476.4 3.32812 -2.17902 0
M  V30 4896 H 473.139 4.17303 -5.05508 0
M  V30 4897 H 472.659 4.87574 -3.49331 0
M  V30 4898 H 474.338 5.03215 -4.06674 0
M  V30 4899 N 474.47 1.03057 1.19235 0
M  V30 4900 C 475.418 0.606391 2.24557 0
M  V30 4901 C 476.412 -0.361826 1.65491 0
M  V30 4902 O 477.618 -0.23022 1.78522 0
M  V30 4903 H 473.993 0.177838 0.730669 0
M  V30 4904 H 475.964 1.50529 2.5765 0
M  V30 4905 C 474.713 -0.0252127 3.47691 0
M  V30 4906 H 474.036 0.710838 3.9343 0
M  V30 4907 H 475.476 -0.284931 4.23042 0
M  V30 4908 C 473.935 -1.27229 3.11953 0
M  V30 4909 O 474.465 -2.36416 3.24762 0
M  V30 4910 N 472.671 -1.16169 2.6637 0
M  V30 4911 H 472.218 -0.273189 2.56147 0
M  V30 4912 H 472.176 -1.99703 2.42829 0
M  V30 4913 N 475.948 -1.35272 0.808662 0
M  V30 4914 C 476.878 -2.32315 0.234981 0
M  V30 4915 C 477.859 -1.57572 -0.64071 0
M  V30 4916 O 479.044 -1.8563 -0.570551 0
M  V30 4917 C 476.174 -3.41801 -0.615601 0
M  V30 4918 C 475.128 -4.27694 0.161767 0
M  V30 4919 C 474.454 -5.28519 -0.810649 0
M  V30 4920 C 475.754 -5.04231 1.36193 0
M  V30 4921 H 477.448 -2.80543 1.04575 0
M  V30 4922 H 474.994 -1.3488 0.504315 0
M  V30 4923 H 476.947 -4.08693 -1.02702 0
M  V30 4924 H 475.671 -2.92186 -1.45928 0
M  V30 4925 H 474.33 -3.62384 0.554382 0
M  V30 4926 H 473.978 -4.75171 -1.64988 0
M  V30 4927 H 473.678 -5.8686 -0.294822 0
M  V30 4928 H 475.202 -5.98283 -1.22023 0
M  V30 4929 H 476.616 -5.64058 1.02528 0
M  V30 4930 H 475.013 -5.72077 1.81239 0
M  V30 4931 H 476.083 -4.34753 2.14751 0
M  V30 4932 N 477.426 -0.562348 -1.47226 0
M  V30 4933 C 478.656 -0.0451619 -2.06551 0
M  V30 4934 C 479.064 1.25626 -1.41473 0
M  V30 4935 O 478.407 1.76563 -0.507061 0
M  V30 4936 C 478.469 0.216068 -3.5885 0
M  V30 4937 C 478.133 -0.996691 -4.45999 0
M  V30 4938 C 479.13 -1.90358 -4.83797 0
M  V30 4939 C 476.815 -1.21281 -4.87438 0
M  V30 4940 C 478.809 -3.01023 -5.6184 0
M  V30 4941 C 476.496 -2.32255 -5.65244 0
M  V30 4942 C 477.494 -3.21956 -6.02356 0
M  V30 4943 O 477.182 -4.31005 -6.78594 0
M  V30 4944 H 476.914 -0.0451646 -0.67449 0
M  V30 4945 H 479.468 -0.776842 -1.90143 0
M  V30 4946 H 477.698 1.00212 -3.7349 0
M  V30 4947 H 479.387 0.679264 -4.00176 0
M  V30 4948 H 480.153 -1.74868 -4.52378 0
M  V30 4949 H 476.032 -0.523767 -4.58015 0
M  V30 4950 H 479.576 -3.71064 -5.90726 0
M  V30 4951 H 475.473 -2.47715 -5.96077 0
M  V30 4952 H 476.241 -4.29118 -6.96994 0
M  V30 4953 N 478.904 1.54736 -0.299062 0
M  V30 4954 C 479.867 2.22127 0.565012 0
M  V30 4955 C 480.867 1.20669 1.06281 0
M  V30 4956 O 482.057 1.45417 0.959145 0
M  V30 4957 C 479.189 2.90611 1.78208 0
M  V30 4958 H 480.382 2.99891 -0.0237448 0
M  V30 4959 H 477.935 1.5622 -0.0498788 0
M  V30 4960 H 478.67 2.16921 2.41072 0
M  V30 4961 H 478.455 3.64984 1.43281 0
M  V30 4962 H 479.945 3.42026 2.396 0
M  V30 4963 N 480.382 0.0267497 1.57577 0
M  V30 4964 C 481.33 -0.973923 2.11229 0
M  V30 4965 C 482.324 -1.33849 1.03831 0
M  V30 4966 O 483.53 -1.321 1.22269 0
M  V30 4967 H 479.905 -0.331844 0.674821 0
M  V30 4968 H 481.876 -0.496092 2.94247 0
M  V30 4969 C 480.625 -2.24798 2.65257 0
M  V30 4970 H 479.948 -1.9762 3.47543 0
M  V30 4971 H 481.388 -2.93031 3.06445 0
M  V30 4972 C 479.847 -2.97611 1.57891 0
M  V30 4973 O 480.377 -3.89629 0.97735 0
M  V30 4974 N 478.583 -2.59905 1.29992 0
M  V30 4975 H 478.13 -1.85154 1.79097 0
M  V30 4976 H 478.088 -3.08932 0.583798 0
M  V30 4977 N 481.861 -1.55662 -0.24637 0
M  V30 4978 C 482.824 -1.89558 -1.28842 0
M  V30 4979 C 483.824 -0.772082 -1.41052 0
M  V30 4980 O 485.014 -1.04007 -1.39743 0
M  V30 4981 C 482.146 -2.12449 -2.66605 0
M  V30 4982 H 483.339 -2.82735 -1.00004 0
M  V30 4983 H 480.892 -1.48562 -0.485684 0
M  V30 4984 H 481.627 -1.21742 -3.00582 0
M  V30 4985 H 481.412 -2.94273 -2.59125 0
M  V30 4986 H 482.902 -2.39854 -3.41847 0
M  V30 4987 N 483.339 0.512053 -1.4905 0
M  V30 4988 C 484.302 1.59704 -1.64399 0
M  V30 4989 C 485.302 1.52285 -0.516317 0
M  V30 4990 O 486.492 1.55635 -0.782527 0
M  V30 4991 C 483.624 2.9935 -1.63102 0
M  V30 4992 H 484.817 1.47428 -2.61161 0
M  V30 4993 H 482.37 0.735469 -1.37915 0
M  V30 4994 H 483.105 3.17116 -0.678836 0
M  V30 4995 H 482.89 3.06144 -2.44986 0
M  V30 4996 H 484.38 3.782 -1.77072 0
M  V30 4997 N 484.817 1.37938 0.762283 0
M  V30 4998 C 486.094 1.24196 1.51112 0
M  V30 4999 C 486.474 -0.160409 2.1049 0
M  V30 5000 O 485.822 -1.16904 1.96331 0
M  V30 5001 C 486.032 2.34537 2.58445 0
M  V30 5002 C 487.38 2.7254 3.25588 0
M  V30 5003 O 488.404 2.33783 2.68745 0
M  V30 5004 O 487.263 3.39343 4.28379 0
M  V30 5005 H 484.357 0.485175 0.669727 0
M  V30 5006 H 486.903 1.49743 0.798438 0
M  V30 5007 H 485.675 3.28406 2.12756 0
M  V30 5008 H 485.298 2.10505 3.37303 0
M  V30 5009 N 486.295 -0.989507 1.22664 0
M  V30 5010 C 487.544 -1.72375 1.04737 0
M  V30 5011 C 487.857 -1.91096 -0.417316 0
M  V30 5012 O 489.063 -2.6188 -0.716334 0
M  V30 5013 C 487.519 -3.10161 1.82561 0
M  V30 5014 C 487.127 -2.99358 3.333 0
M  V30 5015 C 488.871 -3.87607 1.73093 0
M  V30 5016 C 486.778 -4.32319 4.03552 0
M  V30 5017 H 485.708 -0.646326 0.388302 0
M  V30 5018 H 488.359 -1.10437 1.46546 0
M  V30 5019 H 486.741 -3.728 1.33552 0
M  V30 5020 H 487.915 -2.45863 3.89728 0
M  V30 5021 H 486.23 -2.35392 3.43481 0
M  V30 5022 H 488.827 -4.86025 2.22899 0
M  V30 5023 H 489.17 -4.10509 0.691976 0
M  V30 5024 H 489.703 -3.31652 2.19663 0
M  V30 5025 H 486.442 -4.14616 5.07714 0
M  V30 5026 H 485.962 -4.85714 3.51911 0
M  V30 5027 H 487.641 -5.01051 4.09337 0
M  V30 5028 N 487.773 -1.03688 -1.18687 0
M  V30 5029 C 489.05 -0.652397 -1.84399 0
M  V30 5030 C 489.43 0.868386 -1.92412 0
M  V30 5031 O 488.778 1.76832 -1.44716 0
M  V30 5032 C 488.988 -1.3238 -3.22919 0
M  V30 5033 C 490.336 -1.45216 -3.98996 0
M  V30 5034 O 491.36 -1.2816 -3.32345 0
M  V30 5035 O 490.219 -1.72975 -5.18403 0
M  V30 5036 H 487.313 -0.227793 -0.795009 0
M  V30 5037 H 489.859 -1.13553 -1.2611 0
M  V30 5038 H 488.631 -2.36202 -3.11968 0
M  V30 5039 H 488.254 -0.829039 -3.88861 0
M  V30 5040 N 489.251 1.34841 -0.815825 0
M  V30 5041 C 490.481 2.02436 -0.412695 0
M  V30 5042 C 490.889 1.61604 0.983906 0
M  V30 5043 O 490.232 0.813729 1.64694 0
M  V30 5044 C 490.294 3.56953 -0.427182 0
M  V30 5045 C 489.958 4.21083 -1.77589 0
M  V30 5046 C 490.955 4.42107 -2.73564 0
M  V30 5047 C 488.64 4.58006 -2.06243 0
M  V30 5048 C 490.634 4.99169 -3.9637 0
M  V30 5049 C 488.321 5.1478 -3.2931 0
M  V30 5050 C 489.319 5.35304 -4.24191 0
M  V30 5051 O 489.007 5.90878 -5.45086 0
M  V30 5052 H 488.739 0.655631 -0.164695 0
M  V30 5053 H 491.293 1.73246 -1.1034 0
M  V30 5054 H 489.523 3.85372 0.320175 0
M  V30 5055 H 491.212 4.05875 -0.0450875 0
M  V30 5056 H 491.978 4.13953 -2.52721 0
M  V30 5057 H 487.857 4.41339 -1.33196 0
M  V30 5058 H 491.401 5.15105 -4.70439 0
M  V30 5059 H 487.298 5.42362 -3.5002 0
M  V30 5060 H 488.066 6.0932 -5.46508 0
M  V30 5061 N 490.729 0.570148 1.46925 0
M  V30 5062 C 491.978 0.0487352 2.01641 0
M  V30 5063 C 492.291 -1.31433 1.44861 0
M  V30 5064 O 493.497 -1.92638 1.91318 0
M  V30 5065 C 491.953 0.0365817 3.59881 0
M  V30 5066 C 491.561 1.39719 4.25655 0
M  V30 5067 C 493.305 -0.431545 4.22301 0
M  V30 5068 C 491.212 1.34345 5.75939 0
M  V30 5069 H 490.142 0.0144492 0.753862 0
M  V30 5070 H 492.793 0.719928 1.68788 0
M  V30 5071 H 491.175 -0.700522 3.89755 0
M  V30 5072 H 492.349 2.15303 4.07408 0
M  V30 5073 H 490.664 1.80431 3.75278 0
M  V30 5074 H 493.261 -0.490354 5.32447 0
M  V30 5075 H 493.604 -1.44638 3.90366 0
M  V30 5076 H 494.137 0.251102 3.97007 0
M  V30 5077 H 490.876 2.33469 6.12513 0
M  V30 5078 H 490.396 0.629615 5.96486 0
M  V30 5079 H 492.075 1.051 6.38407 0
M  V30 5080 N 492.207 -1.54576 0.307264 0
M  V30 5081 C 493.17 -2.22423 -0.553224 0
M  V30 5082 C 494.17 -1.21231 -1.05639 0
M  V30 5083 O 495.36 -1.45923 -0.951419 0
M  V30 5084 C 492.492 -2.91552 -1.76664 0
M  V30 5085 H 493.685 -2.99874 0.0396484 0
M  V30 5086 H 491.238 -1.56192 0.0581629 0
M  V30 5087 H 491.973 -2.18196 -2.39918 0
M  V30 5088 H 491.758 -3.65738 -1.41343 0
M  V30 5089 H 493.248 -3.43292 -2.37783 0
M  V30 5090 N 493.685 -0.035106 -1.57561 0
M  V30 5091 C 494.933 0.64096 -1.91667 0
M  V30 5092 C 495.254 1.72323 -0.912681 0
M  V30 5093 O 494.524 1.95849 0.0449089 0
M  V30 5094 H 493.104 0.239743 -0.707483 0
M  V30 5095 H 495.766 -0.084321 -1.94718 0
M  V30 5096 H 494.862 1.08987 -2.92452 0
M  V30 5097 N 495.163 1.55791 0.238111 0
M  V30 5098 C 496.391 1.82098 0.982233 0
M  V30 5099 C 496.806 0.612025 1.78605 0
M  V30 5100 O 496.163 -0.419381 1.77616 0
M  V30 5101 C 496.214 3.0673 1.91309 0
M  V30 5102 O 495.935 4.2296 1.14179 0
M  V30 5103 C 497.436 3.45903 2.77248 0
M  V30 5104 H 494.656 0.605748 0.288635 0
M  V30 5105 H 497.2 2.02862 0.258341 0
M  V30 5106 H 495.355 2.87991 2.59114 0
M  V30 5107 H 495.769 4.93653 1.7722 0
M  V30 5108 H 497.243 4.36189 3.38295 0
M  V30 5109 H 497.72 2.66891 3.48806 0
M  V30 5110 H 498.326 3.67024 2.14881 0
M  V30 5111 N 496.642 -0.504142 1.49319 0
M  V30 5112 C 497.59 -1.62689 1.66238 0
M  V30 5113 C 498.584 -1.6095 0.528349 0
M  V30 5114 O 499.79 -1.65496 0.707887 0
M  V30 5115 H 496.165 -0.539247 0.524134 0
M  V30 5116 H 498.136 -1.45571 2.60484 0
M  V30 5117 C 496.885 -3.00841 1.74328 0
M  V30 5118 H 496.208 -3.02884 2.60963 0
M  V30 5119 H 497.648 -3.78945 1.90202 0
M  V30 5120 C 496.107 -3.33355 0.487416 0
M  V30 5121 O 496.637 -3.99819 -0.388294 0
M  V30 5122 N 494.843 -2.88469 0.351306 0
M  V30 5123 H 494.39 -2.34557 1.06492 0
M  V30 5124 H 494.348 -3.10591 -0.487899 0
M  V30 5125 N 498.12 -1.38341 -0.754957 0
M  V30 5126 C 499.068 -1.35573 -1.89005 0
M  V30 5127 C 500.062 -0.241824 -1.67665 0
M  V30 5128 O 501.268 -0.410785 -1.7525 0
M  V30 5129 H 497.643 -0.422898 -0.621821 0
M  V30 5130 H 499.614 -2.31359 -1.88455 0
M  V30 5131 C 498.363 -1.19631 -3.26471 0
M  V30 5132 H 497.686 -2.04605 -3.43477 0
M  V30 5133 H 499.126 -1.21748 -4.06144 0
M  V30 5134 C 497.585 0.0968705 -3.36761 0
M  V30 5135 O 498.115 1.07439 -3.87066 0
M  V30 5136 N 496.321 0.153242 -2.90196 0
M  V30 5137 H 495.868 -0.642908 -2.49448 0
M  V30 5138 H 495.826 1.01807 -2.9746 0
M  V30 5139 N 499.598 0.982988 -1.23187 0
M  V30 5140 C 500.531 2.07302 -0.953993 0
M  V30 5141 C 501.509 1.62249 0.106753 0
M  V30 5142 O 502.693 1.88481 -0.0269525 0
M  V30 5143 C 499.82 3.35873 -0.436716 0
M  V30 5144 C 498.866 3.99862 -1.48367 0
M  V30 5145 S 499.699 4.39443 -3.06023 0
M  V30 5146 C 500.855 5.7117 -2.55959 0
M  V30 5147 H 501.088 2.30554 -1.87702 0
M  V30 5148 H 498.621 1.11883 -1.06403 0
M  V30 5149 H 500.579 4.10244 -0.144872 0
M  V30 5150 H 499.24 3.10634 0.465351 0
M  V30 5151 H 498.433 4.92471 -1.07182 0
M  V30 5152 H 498.035 3.31857 -1.72473 0
M  V30 5153 H 500.327 6.47977 -1.97818 0
M  V30 5154 H 501.27 6.17194 -3.47098 0
M  V30 5155 H 501.678 5.29046 -1.96902 0
M  V30 5156 N 501.076 1.04316 1.18135 0
M  V30 5157 C 502.353 0.662166 1.84051 0
M  V30 5158 C 502.733 -0.858169 1.9287 0
M  V30 5159 O 502.081 -1.76062 1.45652 0
M  V30 5160 C 502.291 1.3409 3.22212 0
M  V30 5161 C 503.639 1.4733 3.9822 0
M  V30 5162 O 504.663 1.29921 3.31661 0
M  V30 5163 O 503.522 1.75722 5.17479 0
M  V30 5164 H 500.616 0.232005 0.79379 0
M  V30 5165 H 503.162 1.1422 1.25506 0
M  V30 5166 H 501.934 2.37853 3.10711 0
M  V30 5167 H 501.557 0.849649 3.88416 0
M  V30 5168 N 502.554 -1.34406 0.822964 0
M  V30 5169 C 503.802 -1.97892 0.410245 0
M  V30 5170 C 504.123 -1.65567 -1.03017 0
M  V30 5171 O 503.393 -0.94642 -1.71522 0
M  V30 5172 H 501.973 -0.732049 0.148707 0
M  V30 5173 H 504.635 -1.64043 1.05242 0
M  V30 5174 H 503.731 -3.07579 0.529284 0
M  V30 5175 N 504.032 -0.577932 -1.46621 0
M  V30 5176 C 504.982 0.178869 -2.27297 0
M  V30 5177 C 505.966 0.866279 -1.35589 0
M  V30 5178 O 507.158 0.761163 -1.59798 0
M  V30 5179 C 504.287 1.19499 -3.2183 0
M  V30 5180 C 503.373 0.50994 -4.21023 0
M  V30 5181 N 503.764 -0.43177 -5.03954 0
M  V30 5182 C 502.062 0.761287 -4.39455 0
M  V30 5183 C 502.763 -0.831693 -5.75724 0
M  V30 5184 N 501.739 -0.181897 -5.43296 0
M  V30 5185 H 505.541 -0.544859 -2.88805 0
M  V30 5186 H 503.055 -0.399373 -1.57413 0
M  V30 5187 H 505.052 1.75131 -3.78332 0
M  V30 5188 H 503.712 1.91959 -2.61881 0
M  V30 5189 H 504.723 -0.807045 -5.11573 0
M  V30 5190 H 501.4 1.47282 -3.90659 0
M  V30 5191 H 502.79 -1.6067 -6.52407 0
M  V30 5192 N 505.51 1.54411 -0.315457 0
M  V30 5193 C 506.759 1.99599 0.290395 0
M  V30 5194 C 507.072 1.20746 1.53882 0
M  V30 5195 O 508.278 1.56272 2.22017 0
M  V30 5196 C 506.734 3.5539 0.56797 0
M  V30 5197 C 506.342 4.43068 -0.662945 0
M  V30 5198 C 508.086 4.09067 1.13422 0
M  V30 5199 C 505.993 5.90317 -0.357722 0
M  V30 5200 H 504.923 0.745592 0.112286 0
M  V30 5201 H 507.574 1.78477 -0.426418 0
M  V30 5202 H 505.956 3.72468 1.34476 0
M  V30 5203 H 507.13 4.37765 -1.43869 0
M  V30 5204 H 505.445 4.00238 -1.14884 0
M  V30 5205 H 508.042 5.16663 1.37707 0
M  V30 5206 H 508.385 3.60552 2.08106 0
M  V30 5207 H 508.918 3.95589 0.418805 0
M  V30 5208 H 505.657 6.4301 -1.27351 0
M  V30 5209 H 505.177 5.98592 0.380472 0
M  V30 5210 H 506.856 6.4699 0.0354284 0
M  V30 5211 N 506.988 0.0434614 1.5754 0
M  V30 5212 C 508.235 -0.632035 1.92384 0
M  V30 5213 C 508.563 -1.71304 0.921157 0
M  V30 5214 O 507.818 -1.95583 -0.067744 0
M  V30 5215 C 508.117 -1.2738 3.3393 0
M  V30 5216 C 507.783 -0.321757 4.49751 0
M  V30 5217 C 506.445 -0.0597611 4.81163 0
M  V30 5218 C 508.797 0.331158 5.20147 0
M  V30 5219 C 506.125 0.862715 5.80322 0
M  V30 5220 C 508.477 1.24178 6.20292 0
M  V30 5221 C 507.141 1.51252 6.50138 0
M  V30 5222 H 506.411 -0.231278 0.703983 0
M  V30 5223 H 509.058 0.108294 1.91194 0
M  V30 5224 H 507.363 -2.08921 3.3145 0
M  V30 5225 H 509.06 -1.80326 3.58167 0
M  V30 5226 H 505.65 -0.53614 4.25233 0
M  V30 5227 H 509.834 0.141826 4.96097 0
M  V30 5228 H 505.09 1.08003 6.01785 0
M  V30 5229 H 509.264 1.75381 6.73954 0
M  V30 5230 H 506.891 2.22897 7.26788 0
M  V30 5231 N 508.466 -1.55915 -0.229846 0
M  V30 5232 C 509.429 -1.90914 -1.26824 0
M  V30 5233 C 510.429 -0.786999 -1.40225 0
M  V30 5234 O 511.619 -1.05484 -1.38632 0
M  V30 5235 C 508.751 -2.15264 -2.64337 0
M  V30 5236 H 509.944 -2.8378 -0.969998 0
M  V30 5237 H 507.497 -1.49069 -0.4699 0
M  V30 5238 H 508.232 -1.24923 -2.99274 0
M  V30 5239 H 508.017 -2.97005 -2.55989 0
M  V30 5240 H 509.507 -2.43467 -3.39284 0
M  V30 5241 N 509.944 0.496216 -1.49584 0
M  V30 5242 C 511.169 1.27865 -1.63295 0
M  V30 5243 C 511.594 1.85592 -0.306156 0
M  V30 5244 O 510.952 1.66092 0.726851 0
M  V30 5245 C 511 2.38128 -2.7079 0
M  V30 5246 O 510.104 3.42108 -2.30296 0
M  V30 5247 H 509.445 0.377279 -0.546403 0
M  V30 5248 H 511.975 0.593497 -1.95803 0
M  V30 5249 H 511.985 2.8382 -2.93104 0
M  V30 5250 H 510.66 1.95479 -3.67098 0
M  V30 5251 H 509.237 3.02301 -2.18331 0
M  V30 5252 N 511.423 1.38739 0.74761 0
M  V30 5253 C 512.672 1.3459 1.50228 0
M  V30 5254 C 512.985 -0.0595592 1.95509 0
M  V30 5255 O 514.191 -0.22361 2.70578 0
M  V30 5256 C 512.647 2.36377 2.71393 0
M  V30 5257 C 512.255 3.82573 2.33113 0
M  V30 5258 C 513.999 2.41281 3.49262 0
M  V30 5259 C 511.906 4.76032 3.50924 0
M  V30 5260 H 510.836 0.500312 0.564096 0
M  V30 5261 H 513.487 1.64324 0.8167 0
M  V30 5262 H 511.869 1.99694 3.41962 0
M  V30 5263 H 513.043 4.28227 1.70171 0
M  V30 5264 H 511.358 3.80844 1.68365 0
M  V30 5265 H 513.955 3.08301 4.36869 0
M  V30 5266 H 514.298 1.43353 3.9084 0
M  V30 5267 H 514.831 2.76793 2.85711 0
M  V30 5268 H 511.57 5.75177 3.14408 0
M  V30 5269 H 511.09 4.35066 4.12889 0
M  V30 5270 H 512.769 4.94331 4.17427 0
M  V30 5271 N 512.901 -0.976442 1.23707 0
M  V30 5272 C 514.178 -1.69296 0.979699 0
M  V30 5273 C 514.558 -2.0508 -0.500555 0
M  V30 5274 O 513.906 -1.74708 -1.47273 0
M  V30 5275 C 514.116 -2.93143 1.89389 0
M  V30 5276 C 515.464 -3.65572 2.15968 0
M  V30 5277 O 516.488 -3.03184 1.86971 0
M  V30 5278 O 515.347 -4.77859 2.65167 0
M  V30 5279 H 512.441 -0.739708 0.369812 0
M  V30 5280 H 514.987 -1.03131 1.34767 0
M  V30 5281 H 513.759 -2.63327 2.89439 0
M  V30 5282 H 513.382 -3.67044 1.52854 0
M  V30 5283 N 514.379 -1.04941 -1.1758 0
M  V30 5284 C 515.312 -0.592518 -2.20373 0
M  V30 5285 C 516.29 0.377561 -1.58156 0
M  V30 5286 O 517.474 0.28978 -1.86259 0
M  V30 5287 C 514.601 0.133215 -3.38438 0
M  V30 5288 C 513.647 -0.791484 -4.19092 0
M  V30 5289 S 514.48 -2.27925 -4.84572 0
M  V30 5290 C 515.636 -1.56462 -6.06028 0
M  V30 5291 H 515.869 -1.46342 -2.58788 0
M  V30 5292 H 513.402 -0.861148 -1.28155 0
M  V30 5293 H 515.36 0.545746 -4.06856 0
M  V30 5294 H 514.021 0.980124 -2.98416 0
M  V30 5295 H 513.214 -0.230039 -5.03475 0
M  V30 5296 H 512.816 -1.14326 -3.56098 0
M  V30 5297 H 515.108 -0.862539 -6.71987 0
M  V30 5298 H 516.051 -2.38583 -6.66696 0
M  V30 5299 H 516.459 -1.05313 -5.5459 0
M  V30 5300 N 515.857 1.33968 -0.830081 0
M  V30 5301 C 517.268 1.80439 -0.479455 0
M  V30 5302 C 517.619 1.68756 1.00079 0
M  V30 5303 O 516.744 1.23171 1.77927 0
M  V30 5304 C 517.339 3.27611 -0.863505 0
M  V30 5305 C 515.898 3.72133 -0.565145 0
M  V30 5306 C 515.045 2.55549 -1.07657 0
M  V30 5307 H 517.996 1.21614 -1.0196 0
M  V30 5308 H 518.017 3.8012 -0.170083 0
M  V30 5309 H 517.529 3.36082 -1.94089 0
M  V30 5310 H 515.63 3.69196 0.502536 0
M  V30 5311 H 515.743 4.65963 -1.11422 0
M  V30 5312 H 514.107 2.49788 -0.497807 0
M  V30 5313 H 514.89 2.66786 -2.16055 0
M  V30 5314 N 517.335 0.585699 1.46312 0
M  V30 5315 C 518.298 -0.135673 2.28798 0
M  V30 5316 C 519.298 -0.815988 1.38558 0
M  V30 5317 O 520.488 -0.667487 1.60904 0
M  V30 5318 C 517.62 -1.20163 3.1902 0
M  V30 5319 H 518.813 0.589257 2.94054 0
M  V30 5320 H 516.366 0.343794 1.52472 0
M  V30 5321 H 517.101 -1.95804 2.58517 0
M  V30 5322 H 516.886 -0.718282 3.85465 0
M  V30 5323 H 518.376 -1.70749 3.81096 0
M  V30 5324 N 518.813 -1.54241 0.323641 0
M  V30 5325 C 520.062 -1.9975 -0.279806 0
M  V30 5326 C 520.375 -1.2156 -1.5324 0
M  V30 5327 O 521.581 -1.57447 -2.21185 0
M  V30 5328 C 520.037 -3.55686 -0.549115 0
M  V30 5329 C 519.645 -4.4271 0.686432 0
M  V30 5330 C 521.389 -4.09663 -1.11251 0
M  V30 5331 C 519.296 -5.90119 0.389022 0
M  V30 5332 H 518.226 -0.746177 -0.10833 0
M  V30 5333 H 520.877 -1.78248 0.435877 0
M  V30 5334 H 519.259 -3.73176 -1.32499 0
M  V30 5335 H 520.433 -4.36996 1.46188 0
M  V30 5336 H 518.748 -3.99623 1.17005 0
M  V30 5337 H 521.345 -5.17386 -1.34965 0
M  V30 5338 H 521.688 -3.61651 -2.06191 0
M  V30 5339 H 522.221 -3.95806 -0.39782 0
M  V30 5340 H 518.96 -6.42326 1.30759 0
M  V30 5341 H 518.48 -5.98785 -0.348722 0
M  V30 5342 H 520.159 -6.47 -0.0011164 0
M  V30 5343 N 520.291 -0.0518155 -1.57515 0
M  V30 5344 C 521.239 0.940195 -2.12751 0
M  V30 5345 C 522.233 1.3218 -1.05948 0
M  V30 5346 O 523.439 1.30138 -1.24355 0
M  V30 5347 H 519.814 0.321066 -0.680015 0
M  V30 5348 H 521.785 0.449217 -2.94999 0
M  V30 5349 C 520.534 2.2055 -2.68799 0
M  V30 5350 H 519.857 1.92066 -3.50643 0
M  V30 5351 H 521.297 2.88119 -3.11068 0
M  V30 5352 C 519.756 2.95061 -1.62605 0
M  V30 5353 O 520.286 3.88025 -1.03921 0
M  V30 5354 N 518.492 2.57804 -1.34111 0
M  V30 5355 H 518.039 1.82281 -1.8202 0
M  V30 5356 H 517.997 3.07964 -0.632872 0
M  V30 5357 N 521.769 1.56035 0.221574 0
M  V30 5358 C 522.716 1.92413 1.27459 0
M  V30 5359 C 523.686 0.781323 1.46576 0
M  V30 5360 O 524.871 1.03721 1.60145 0
M  V30 5361 C 522.011 2.24617 2.61995 0
M  V30 5362 C 521.124 3.51831 2.50677 0
M  V30 5363 C 520.259 3.73482 3.77736 0
M  V30 5364 C 519.298 4.94211 3.6114 0
M  V30 5365 N 518.435 5.12252 4.80148 0
M  V30 5366 H 523.275 2.82203 0.957355 0
M  V30 5367 H 520.812 1.39676 0.461415 0
M  V30 5368 H 522.77 2.41298 3.40339 0
M  V30 5369 H 521.4 1.38 2.91815 0
M  V30 5370 H 520.452 3.43343 1.63767 0
M  V30 5371 H 521.764 4.40328 2.34334 0
M  V30 5372 H 520.918 3.9026 4.64523 0
M  V30 5373 H 519.657 2.83266 3.97003 0
M  V30 5374 H 518.662 4.77384 2.72736 0
M  V30 5375 H 519.887 5.85912 3.43343 0
M  V30 5376 H 517.833 4.24978 4.99729 0
M  V30 5377 H 517.75 5.94881 4.66532 0
M  V30 5378 H 519.018 5.33465 5.68362 0
M  V30 5379 N 523.247 -0.488276 1.49845 0
M  V30 5380 C 524.495 -1.23911 1.59657 0
M  V30 5381 C 524.816 -1.92816 0.291005 0
M  V30 5382 O 524.086 -1.83328 -0.690485 0
M  V30 5383 H 522.666 -0.460357 0.588286 0
M  V30 5384 H 525.328 -0.564794 1.86537 0
M  V30 5385 H 524.424 -1.99625 2.39909 0
M  V30 5386 N 524.725 -1.39134 -0.740242 0
M  V30 5387 C 525.673 -1.3757 -1.87556 0
M  V30 5388 C 526.667 -0.259593 -1.67399 0
M  V30 5389 O 527.873 -0.429349 -1.74804 0
M  V30 5390 H 524.248 -0.42947 -0.6173 0
M  V30 5391 H 526.219 -2.33345 -1.85991 0
M  V30 5392 C 524.968 -1.23087 -3.25184 0
M  V30 5393 H 524.291 -2.08237 -3.41288 0
M  V30 5394 H 525.731 -1.26049 -4.0483 0
M  V30 5395 C 524.19 0.0611471 -3.36845 0
M  V30 5396 O 524.72 1.03328 -3.88183 0
M  V30 5397 N 522.926 0.122454 -2.90342 0
M  V30 5398 H 522.473 -0.669329 -2.48752 0
M  V30 5399 H 522.431 0.986463 -2.98523 0
M  V30 5400 N 526.204 0.969867 -1.24223 0
M  V30 5401 C 527.151 2.06407 -1.0327 0
M  V30 5402 C 528.121 1.66014 0.0533 0
M  V30 5403 O 529.306 1.90533 -0.100896 0
M  V30 5404 C 526.446 3.3909 -0.641262 0
M  V30 5405 C 525.559 3.9269 -1.80051 0
M  V30 5406 C 524.694 5.13631 -1.35486 0
M  V30 5407 C 523.733 5.59423 -2.48419 0
M  V30 5408 N 522.87 6.71586 -2.04737 0
M  V30 5409 H 527.71 2.23663 -1.96923 0
M  V30 5410 H 525.247 1.09624 -0.980862 0
M  V30 5411 H 527.205 4.15323 -0.395351 0
M  V30 5412 H 525.835 3.21765 0.258269 0
M  V30 5413 H 524.887 3.13116 -2.16014 0
M  V30 5414 H 526.199 4.22636 -2.64916 0
M  V30 5415 H 525.353 5.97231 -1.0677 0
M  V30 5416 H 524.092 4.85364 -0.476722 0
M  V30 5417 H 523.097 4.74398 -2.77897 0
M  V30 5418 H 524.322 5.89705 -3.36786 0
M  V30 5419 H 522.268 6.45058 -1.19318 0
M  V30 5420 H 522.185 7.0097 -2.83156 0
M  V30 5421 H 523.453 7.58633 -1.79154 0
M  V30 5422 N 527.682 1.05563 1.17022 0
M  V30 5423 C 528.629 0.659893 2.21165 0
M  V30 5424 C 529.599 -0.339813 1.62587 0
M  V30 5425 O 530.784 -0.230378 1.89404 0
M  V30 5426 C 527.924 0.0447297 3.45071 0
M  V30 5427 C 527.037 1.09372 4.17926 0
M  V30 5428 C 526.172 0.445481 5.29329 0
M  V30 5429 C 525.211 1.47852 5.93975 0
M  V30 5430 N 524.348 0.854172 6.96885 0
M  V30 5431 H 529.188 1.55243 2.54369 0
M  V30 5432 H 526.725 0.776336 1.24946 0
M  V30 5433 H 528.683 -0.329404 4.15898 0
M  V30 5434 H 527.313 -0.811244 3.1244 0
M  V30 5435 H 526.365 1.58564 3.45777 0
M  V30 5436 H 527.677 1.87773 4.62107 0
M  V30 5437 H 526.831 0.0179688 6.06697 0
M  V30 5438 H 525.57 -0.370481 4.86291 0
M  V30 5439 H 524.575 1.91601 5.15334 0
M  V30 5440 H 525.8 2.29645 6.39093 0
M  V30 5441 H 523.746 0.0587882 6.55974 0
M  V30 5442 H 523.663 1.57567 7.39397 0
M  V30 5443 H 524.931 0.451559 7.78191 0
M  V30 5444 N 529.16 -1.33526 0.837174 0
M  V30 5445 C 530.406 -1.9813 0.432704 0
M  V30 5446 C 530.739 -1.66168 -1.00508 0
M  V30 5447 O 530.014 -0.94069 -1.70239 0
M  V30 5448 C 530.297 -3.54151 0.651834 0
M  V30 5449 C 530.15 -3.95806 2.13676 0
M  V30 5450 C 531.469 -4.39993 0.0968937 0
M  V30 5451 H 528.588 -0.719713 0.15869 0
M  V30 5452 H 531.23 -1.58193 1.05237 0
M  V30 5453 H 529.38 -3.88301 0.124369 0
M  V30 5454 H 531.052 -3.71921 2.72896 0
M  V30 5455 H 529.295 -3.45599 2.62191 0
M  V30 5456 H 529.966 -5.0447 2.24084 0
M  V30 5457 H 532.442 -4.12479 0.547733 0
M  V30 5458 H 531.318 -5.48186 0.279917 0
M  V30 5459 H 531.579 -4.3066 -0.9992 0
M  V30 5460 N 530.638 -0.59345 -1.46 0
M  V30 5461 C 531.866 -0.0890934 -2.06708 0
M  V30 5462 C 532.281 1.2205 -1.44046 0
M  V30 5463 O 531.638 1.74029 -0.549551 0
M  V30 5464 C 531.689 0.0720263 -3.61428 0
M  V30 5465 O 531.41 -1.18574 -4.21748 0
M  V30 5466 C 532.911 0.609487 -4.3909 0
M  V30 5467 H 530.131 -0.0623628 -0.668096 0
M  V30 5468 H 532.675 -0.817171 -1.87464 0
M  V30 5469 H 530.83 0.750369 -3.80063 0
M  V30 5470 H 531.244 -1.0064 -5.14754 0
M  V30 5471 H 532.718 0.671363 -5.47902 0
M  V30 5472 H 533.195 1.62878 -4.07882 0
M  V30 5473 H 533.801 -0.03434 -4.25286 0
M  V30 5474 N 532.116 1.54067 -0.331816 0
M  V30 5475 C 533.026 2.28322 0.539104 0
M  V30 5476 C 534.042 1.32985 1.1221 0
M  V30 5477 O 535.218 1.6601 1.1403 0
M  V30 5478 C 532.283 3.03277 1.68 0
M  V30 5479 C 531.344 4.14216 1.12798 0
M  V30 5480 C 530.577 4.85588 2.2145 0
M  V30 5481 O 530.8 4.56536 3.41952 0
M  V30 5482 O 529.734 5.72309 1.86404 0
M  V30 5483 H 533.56 3.03632 -0.0641692 0
M  V30 5484 H 531.145 1.49083 -0.0972365 0
M  V30 5485 H 533.027 3.50189 2.34405 0
M  V30 5486 H 531.702 2.30834 2.2693 0
M  V30 5487 H 530.609 3.71635 0.428782 0
M  V30 5488 H 531.942 4.88727 0.583698 0
M  V30 5489 N 533.594 0.0601682 1.57485 0
M  V30 5490 C 534.504 -0.926121 2.15546 0
M  V30 5491 C 535.52 -1.33532 1.11558 0
M  V30 5492 O 536.696 -1.4104 1.4377 0
M  V30 5493 C 533.761 -2.17952 2.69625 0
M  V30 5494 C 532.822 -1.82783 3.88444 0
M  V30 5495 C 532.055 -3.02148 4.39935 0
M  V30 5496 O 532.278 -4.15803 3.90466 0
M  V30 5497 O 531.212 -2.82639 5.31412 0
M  V30 5498 H 535.038 -0.462289 3.00161 0
M  V30 5499 H 532.623 -0.162246 1.48516 0
M  V30 5500 H 534.505 -2.91474 3.04337 0
M  V30 5501 H 533.18 -2.63456 1.88077 0
M  V30 5502 H 532.087 -1.06549 3.58606 0
M  V30 5503 H 533.42 -1.42072 4.7125 0
M  V30 5504 N 535.072 -1.5615 -0.213296 0
M  V30 5505 C 536.349 -1.70349 -0.961281 0
M  V30 5506 C 536.729 -0.609791 -2.02101 0
M  V30 5507 O 536.077 0.381987 -2.25285 0
M  V30 5508 C 536.287 -3.11982 -1.56424 0
M  V30 5509 C 537.635 -3.71649 -2.05334 0
M  V30 5510 O 538.659 -3.14995 -1.66302 0
M  V30 5511 O 537.518 -4.71038 -2.77102 0
M  V30 5512 H 534.612 -0.694121 -0.449582 0
M  V30 5513 H 537.158 -1.68464 -0.204426 0
M  V30 5514 H 535.93 -3.83046 -0.799457 0
M  V30 5515 H 535.553 -3.18019 -2.38641 0
M  V30 5516 N 536.55 0.480323 -1.50102 0
M  V30 5517 C 537.797 1.23307 -1.60629 0
M  V30 5518 C 538.125 1.92135 -0.302375 0
M  V30 5519 O 537.38 1.82321 0.711154 0
M  V30 5520 C 537.679 2.30708 -2.72963 0
M  V30 5521 C 537.345 1.79195 -4.13763 0
M  V30 5522 C 536.007 1.64867 -4.52076 0
M  V30 5523 C 538.359 1.40878 -5.018 0
M  V30 5524 C 535.687 1.10631 -5.76175 0
M  V30 5525 C 538.039 0.880872 -6.26437 0
M  V30 5526 C 536.703 0.724146 -6.6356 0
M  V30 5527 H 535.973 0.451211 -0.587784 0
M  V30 5528 H 538.62 0.53051 -1.84005 0
M  V30 5529 H 536.925 3.06834 -2.43639 0
M  V30 5530 H 538.622 2.88692 -2.78313 0
M  V30 5531 H 535.212 1.91313 -3.83533 0
M  V30 5532 H 539.396 1.50786 -4.7284 0
M  V30 5533 H 534.652 0.972263 -6.0362 0
M  V30 5534 H 538.826 0.575269 -6.9402 0
M  V30 5535 H 536.453 0.301722 -7.59601 0
M  V30 5536 N 538.028 1.39524 0.732853 0
M  V30 5537 C 539.258 1.3994 1.51988 0
M  V30 5538 C 539.666 -0.00727973 1.89199 0
M  V30 5539 O 539.009 -0.989521 1.54771 0
M  V30 5540 C 539.071 2.21026 2.83527 0
M  V30 5541 C 538.735 3.69633 2.68738 0
M  V30 5542 C 539.732 4.62665 2.37143 0
M  V30 5543 C 537.417 4.13244 2.85542 0
M  V30 5544 C 539.411 5.97291 2.22536 0
M  V30 5545 C 537.098 5.47945 2.70554 0
M  V30 5546 C 538.096 6.39783 2.39097 0
M  V30 5547 O 537.784 7.72002 2.24204 0
M  V30 5548 H 537.516 0.479795 0.476206 0
M  V30 5549 H 540.07 1.8399 0.913054 0
M  V30 5550 H 538.3 1.71728 3.46477 0
M  V30 5551 H 539.989 2.13594 3.45156 0
M  V30 5552 H 540.755 4.30272 2.2381 0
M  V30 5553 H 536.634 3.42094 3.09019 0
M  V30 5554 H 540.178 6.68939 1.97905 0
M  V30 5555 H 536.075 5.79928 2.83466 0
M  V30 5556 H 536.843 7.8275 2.39258 0
M  V30 5557 N 539.506 -0.963266 1.24736 0
M  V30 5558 C 540.453 -2.05857 1.04363 0
M  V30 5559 C 541.423 -1.6604 -0.0444951 0
M  V30 5560 O 542.608 -1.90477 0.110999 0
M  V30 5561 C 539.748 -3.38745 0.659235 0
M  V30 5562 C 538.861 -3.9173 1.82131 0
M  V30 5563 C 537.996 -5.12906 1.38208 0
M  V30 5564 C 537.035 -5.58098 2.51382 0
M  V30 5565 N 536.172 -6.7049 2.08295 0
M  V30 5566 H 541.012 -2.22616 1.98107 0
M  V30 5567 H 538.549 -1.09103 0.986661 0
M  V30 5568 H 540.507 -4.15107 0.417371 0
M  V30 5569 H 539.137 -3.21898 -0.241201 0
M  V30 5570 H 538.189 -3.11966 2.17672 0
M  V30 5571 H 539.501 -4.21225 2.67153 0
M  V30 5572 H 538.655 -5.96657 1.09935 0
M  V30 5573 H 537.394 -4.85105 0.502456 0
M  V30 5574 H 536.399 -4.72917 2.80409 0
M  V30 5575 H 537.624 -5.87911 3.39909 0
M  V30 5576 H 535.57 -6.44416 1.22737 0
M  V30 5577 H 535.487 -6.99458 2.86869 0
M  V30 5578 H 536.755 -7.57672 1.83175 0
M  V30 5579 N 540.985 -1.06182 -1.16461 0
M  V30 5580 C 541.915 -0.692861 -2.22984 0
M  V30 5581 C 542.896 0.314122 -1.67174 0
M  V30 5582 O 544.081 0.189499 -1.93273 0
M  V30 5583 C 541.211 -0.07732 -3.47214 0
M  V30 5584 C 540.165 -1.01015 -4.15909 0
M  V30 5585 C 539.491 -0.257973 -5.34077 0
M  V30 5586 C 540.791 -2.33868 -4.67015 0
M  V30 5587 H 542.485 -1.58343 -2.54102 0
M  V30 5588 H 540.031 -0.76279 -1.22137 0
M  V30 5589 H 541.984 0.19266 -4.20959 0
M  V30 5590 H 540.708 0.848254 -3.15392 0
M  V30 5591 H 539.367 -1.26486 -3.44088 0
M  V30 5592 H 539.015 0.670684 -4.98509 0
M  V30 5593 H 538.715 -0.879638 -5.80979 0
M  V30 5594 H 540.239 0.00448788 -6.106 0
M  V30 5595 H 541.653 -2.1279 -5.32347 0
M  V30 5596 H 540.05 -2.91522 -5.24533 0
M  V30 5597 H 541.12 -2.97019 -3.83286 0
M  V30 5598 N 542.463 1.3308 -0.844243 0
M  V30 5599 C 543.709 1.97898 -0.443206 0
M  V30 5600 C 544.042 1.66699 0.99625 0
M  V30 5601 O 543.317 0.949704 1.69738 0
M  V30 5602 C 543.6 3.53801 -0.670606 0
M  V30 5603 C 543.453 3.94667 -2.15772 0
M  V30 5604 C 544.772 4.39936 -0.120226 0
M  V30 5605 H 541.891 0.718861 -0.162504 0
M  V30 5606 H 544.533 1.57633 -1.06075 0
M  V30 5607 H 542.683 3.88229 -0.14496 0
M  V30 5608 H 544.355 3.70469 -2.74865 0
M  V30 5609 H 542.598 3.44203 -2.6402 0
M  V30 5610 H 543.269 5.03275 -2.26757 0
M  V30 5611 H 545.745 4.12183 -0.5696 0
M  V30 5612 H 544.621 5.4803 -0.308984 0
M  V30 5613 H 544.882 4.31184 0.976347 0
M  V30 5614 N 543.941 0.601185 1.45683 0
M  V30 5615 C 545.166 0.0982245 2.07167 0
M  V30 5616 C 545.591 -1.20546 1.44396 0
M  V30 5617 O 544.949 -1.73247 0.534347 0
M  V30 5618 C 544.997 -0.0346976 3.60583 0
M  V30 5619 O 544.101 -1.08657 3.97828 0
M  V30 5620 H 543.442 0.0711618 0.660176 0
M  V30 5621 H 545.972 0.829376 1.87036 0
M  V30 5622 H 545.982 -0.234969 4.07323 0
M  V30 5623 H 544.657 0.917265 4.05659 0
M  V30 5624 H 543.234 -0.863275 3.6277 0
M  V30 5625 N 545.419 -1.53889 0.339982 0
M  V30 5626 C 546.329 -2.28604 -0.526988 0
M  V30 5627 C 547.345 -1.33578 -1.11503 0
M  V30 5628 O 548.521 -1.66612 -1.13148 0
M  V30 5629 C 545.586 -3.04164 -1.66389 0
M  V30 5630 C 544.647 -4.14809 -1.10599 0
M  V30 5631 C 543.88 -4.86756 -2.18871 0
M  V30 5632 O 544.103 -4.58343 -3.39526 0
M  V30 5633 O 543.037 -5.73289 -1.83366 0
M  V30 5634 H 546.863 -3.03594 0.0802707 0
M  V30 5635 H 544.448 -1.4903 0.105141 0
M  V30 5636 H 546.33 -3.51427 -2.32544 0
M  V30 5637 H 545.005 -2.32035 -2.25703 0
M  V30 5638 H 543.912 -3.71857 -0.409067 0
M  V30 5639 H 545.245 -4.89029 -0.557771 0
M  V30 5640 N 546.897 -0.0685191 -1.57451 0
M  V30 5641 C 548.144 0.601348 -1.93365 0
M  V30 5642 C 548.472 1.69816 -0.948294 0
M  V30 5643 O 547.727 1.95666 0.0366199 0
M  V30 5644 C 548.026 1.22051 -3.35914 0
M  V30 5645 C 547.692 0.250165 -4.50205 0
M  V30 5646 C 546.354 -0.0167954 -4.81197 0
M  V30 5647 C 548.706 -0.413867 -5.19554 0
M  V30 5648 C 546.034 -0.95493 -5.78876 0
M  V30 5649 C 548.386 -1.3403 -6.18238 0
M  V30 5650 C 547.05 -1.61576 -6.47649 0
M  V30 5651 H 546.32 0.220049 -0.707573 0
M  V30 5652 H 548.967 -0.138697 -1.90997 0
M  V30 5653 H 547.272 2.03622 -3.34732 0
M  V30 5654 H 548.969 1.74605 -3.6099 0
M  V30 5655 H 545.559 0.468421 -4.26033 0
M  V30 5656 H 549.743 -0.220733 -4.95809 0
M  V30 5657 H 544.999 -1.17563 -5.99991 0
M  V30 5658 H 549.173 -1.86081 -6.71079 0
M  V30 5659 H 546.8 -2.34431 -7.2315 0
M  V30 5660 N 548.375 1.56261 0.205012 0
M  V30 5661 C 549.603 1.84141 0.943386 0
M  V30 5662 C 550.018 0.649772 1.77266 0
M  V30 5663 O 549.375 -0.381612 1.78466 0
M  V30 5664 C 549.426 3.10719 1.84759 0
M  V30 5665 O 549.147 4.25286 1.05181 0
M  V30 5666 C 550.648 3.51706 2.69848 0
M  V30 5667 H 547.868 0.611734 0.275721 0
M  V30 5668 H 550.412 2.03364 0.215253 0
M  V30 5669 H 548.567 2.93422 2.52947 0
M  V30 5670 H 548.981 4.97301 1.66709 0
M  V30 5671 H 550.455 4.43266 3.28967 0
M  V30 5672 H 550.932 2.7423 3.43067 0
M  V30 5673 H 551.538 3.71499 2.07047 0
M  V30 5674 N 549.853 -0.472356 1.50355 0
M  V30 5675 C 551.102 -1.2213 1.60522 0
M  V30 5676 C 551.415 -1.9312 0.310466 0
M  V30 5677 O 552.621 -2.69936 0.291029 0
M  V30 5678 C 551.077 -2.21909 2.83345 0
M  V30 5679 C 550.685 -1.56727 4.19691 0
M  V30 5680 C 552.429 -2.97453 3.02856 0
M  V30 5681 C 550.336 -2.54785 5.33703 0
M  V30 5682 H 549.266 -0.459543 0.597776 0
M  V30 5683 H 551.917 -0.491922 1.76783 0
M  V30 5684 H 550.299 -2.98133 2.60639 0
M  V30 5685 H 551.473 -0.863007 4.52646 0
M  V30 5686 H 549.788 -0.934685 4.05774 0
M  V30 5687 H 552.385 -3.70838 3.85205 0
M  V30 5688 H 552.728 -3.56764 2.14534 0
M  V30 5689 H 553.261 -2.28342 3.25737 0
M  V30 5690 H 550 -2.00214 6.24175 0
M  V30 5691 H 549.52 -3.23367 5.05167 0
M  V30 5692 H 551.199 -3.16639 5.64224 0
M  V30 5693 N 551.331 -1.39911 -0.725443 0
M  V30 5694 C 552.559 -1.40949 -1.51463 0
M  V30 5695 C 552.974 -0.0065242 -1.88799 0
M  V30 5696 O 552.331 0.967163 -1.54765 0
M  V30 5697 C 552.382 -2.29119 -2.79619 0
M  V30 5698 O 552.103 -3.63952 -2.43866 0
M  V30 5699 C 553.604 -2.38642 -3.73584 0
M  V30 5700 H 550.824 -0.481091 -0.467752 0
M  V30 5701 H 553.368 -1.83843 -0.895651 0
M  V30 5702 H 551.523 -1.89612 -3.37826 0
M  V30 5703 H 551.937 -4.10677 -3.26258 0
M  V30 5704 H 553.411 -3.04563 -4.60375 0
M  V30 5705 H 553.888 -1.40846 -4.16004 0
M  V30 5706 H 554.494 -2.78659 -3.21293 0
M  V30 5707 N 552.809 0.956637 -1.25245 0
M  V30 5708 C 553.756 2.053 -1.05454 0
M  V30 5709 C 554.726 1.66062 0.0356889 0
M  V30 5710 O 555.911 1.90415 -0.121099 0
M  V30 5711 C 553.051 3.38391 -0.677191 0
M  V30 5712 C 552.164 3.90758 -1.84206 0
M  V30 5713 C 551.299 5.12165 -1.40926 0
M  V30 5714 C 550.338 5.56757 -2.54338 0
M  V30 5715 N 549.475 6.69376 -2.11848 0
M  V30 5716 H 554.315 2.21562 -1.99284 0
M  V30 5717 H 551.852 1.08578 -0.992434 0
M  V30 5718 H 553.81 4.1488 -0.43938 0
M  V30 5719 H 552.44 3.22021 0.224127 0
M  V30 5720 H 551.492 3.10808 -2.19323 0
M  V30 5721 H 552.804 4.19802 -2.69383 0
M  V30 5722 H 551.958 5.96065 -1.13098 0
M  V30 5723 H 550.697 4.84832 -0.528175 0
M  V30 5724 H 549.702 4.71423 -2.82913 0
M  V30 5725 H 550.927 5.861 -3.43022 0
M  V30 5726 H 548.873 6.43756 -1.26153 0
M  V30 5727 H 548.79 6.97927 -2.90574 0
M  V30 5728 H 550.058 7.5669 -1.87191 0
M  V30 5729 N 554.287 1.06798 1.15896 0
M  V30 5730 C 555.535 0.786211 1.8618 0
M  V30 5731 C 555.856 -0.689547 1.82401 0
M  V30 5732 O 555.126 -1.49913 1.26107 0
M  V30 5733 H 553.706 0.287843 0.689315 0
M  V30 5734 H 556.368 1.35055 1.40521 0
M  V30 5735 H 555.464 1.1157 2.91477 0
M  V30 5736 N 555.766 -1.3263 0.851289 0
M  V30 5737 C 556.696 -2.31449 0.308771 0
M  V30 5738 C 557.677 -1.59531 -0.590255 0
M  V30 5739 O 558.862 -1.87351 -0.511205 0
M  V30 5740 C 555.992 -3.43586 -0.506548 0
M  V30 5741 C 554.946 -4.26963 0.297753 0
M  V30 5742 C 554.272 -5.30831 -0.642094 0
M  V30 5743 C 555.572 -4.99643 1.52166 0
M  V30 5744 H 557.266 -2.77074 1.13447 0
M  V30 5745 H 554.812 -1.33207 0.546971 0
M  V30 5746 H 556.765 -4.11754 -0.896474 0
M  V30 5747 H 555.489 -2.96681 -1.36558 0
M  V30 5748 H 554.148 -3.60437 0.669391 0
M  V30 5749 H 553.796 -4.8018 -1.49788 0
M  V30 5750 H 553.496 -5.87501 -0.107968 0
M  V30 5751 H 555.02 -6.01862 -1.02927 0
M  V30 5752 H 556.434 -5.6051 1.20421 0
M  V30 5753 H 554.831 -5.66022 1.99347 0
M  V30 5754 H 555.901 -4.27701 2.28474 0
M  V30 5755 N 557.244 -0.608902 -1.45362 0
M  V30 5756 C 558.66 -0.272659 -1.57254 0
M  V30 5757 C 558.86 1.22477 -1.60005 0
M  V30 5758 O 557.916 2.00785 -1.53106 0
M  V30 5759 C 559.229 -0.944991 -2.85465 0
M  V30 5760 C 560.777 -0.921033 -2.99142 0
M  V30 5761 C 561.252 -1.5734 -4.30126 0
M  V30 5762 N 562.743 -1.53895 -4.36887 0
M  V30 5763 C 563.478 -2.01286 -5.36909 0
M  V30 5764 N 562.974 -2.56768 -6.43461 0
M  V30 5765 N 564.767 -1.92046 -5.28275 0
M  V30 5766 H 556.918 -1.58117 -1.4182 0
M  V30 5767 H 559.181 -0.662437 -0.678146 0
M  V30 5768 H 558.887 -1.99941 -2.89338 0
M  V30 5769 H 558.761 -0.469079 -3.74272 0
M  V30 5770 H 561.148 0.124846 -2.94836 0
M  V30 5771 H 561.229 -1.43522 -2.11743 0
M  V30 5772 H 560.873 -2.61862 -4.35191 0
M  V30 5773 H 560.803 -1.03422 -5.16344 0
M  V30 5774 H 563.294 -1.13366 -3.60495 0
M  V30 5775 H 563.607 -2.9072 -7.16032 0
M  V30 5776 H 561.952 -2.60808 -6.44208 0
M  V30 5777 H 565.143 -1.48439 -4.43941 0
M  V30 5778 H 565.316 -2.29293 -6.06077 0
M  V30 5779 N 558.722 1.53707 -0.348139 0
M  V30 5780 C 559.97 2.00591 0.246478 0
M  V30 5781 C 560.291 1.23753 1.50699 0
M  V30 5782 O 559.561 0.345964 1.92821 0
M  V30 5783 H 558.141 0.741053 0.0940679 0
M  V30 5784 H 560.803 1.89139 -0.470354 0
M  V30 5785 H 559.899 3.08297 0.485714 0
M  V30 5786 N 560.2 0.0768682 1.57412 0
M  V30 5787 C 561.163 -0.873949 2.11884 0
M  V30 5788 C 562.163 -1.22301 1.04398 0
M  V30 5789 O 563.353 -1.15545 1.30365 0
M  V30 5790 C 560.485 -2.17575 2.62438 0
M  V30 5791 H 561.678 -0.401278 2.97203 0
M  V30 5792 H 559.231 -0.171904 1.55352 0
M  V30 5793 H 559.966 -2.69368 1.80587 0
M  V30 5794 H 559.751 -1.93534 3.41009 0
M  V30 5795 H 561.241 -2.85631 3.04639 0
M  V30 5796 N 561.678 -1.56367 -0.196722 0
M  V30 5797 C 562.625 -1.94417 -1.24382 0
M  V30 5798 C 563.595 -0.804543 -1.45315 0
M  V30 5799 O 564.78 -1.06256 -1.58475 0
M  V30 5800 C 561.92 -2.28757 -2.58388 0
M  V30 5801 C 561.033 -3.55775 -2.45047 0
M  V30 5802 C 560.168 -3.79445 -3.71746 0
M  V30 5803 C 559.207 -4.99894 -3.53231 0
M  V30 5804 N 558.344 -5.19826 -4.71938 0
M  V30 5805 H 563.184 -2.83691 -0.912338 0
M  V30 5806 H 560.721 -1.40392 -0.439135 0
M  V30 5807 H 562.679 -2.46682 -3.36457 0
M  V30 5808 H 561.309 -1.42625 -2.89582 0
M  V30 5809 H 560.361 -3.45905 -1.58284 0
M  V30 5810 H 561.673 -4.44 -2.27299 0
M  V30 5811 H 560.827 -3.97601 -4.58256 0
M  V30 5812 H 559.566 -2.89546 -3.92446 0
M  V30 5813 H 558.571 -4.81662 -2.65107 0
M  V30 5814 H 559.796 -5.913 -3.33978 0
M  V30 5815 H 557.742 -4.32875 -4.92905 0
M  V30 5816 H 557.659 -6.02228 -4.57009 0
M  V30 5817 H 558.927 -5.42439 -5.59803 0
M  V30 5818 N 563.156 0.464375 -1.50603 0
M  V30 5819 C 564.384 1.23907 -1.65695 0
M  V30 5820 C 564.799 1.85658 -0.343027 0
M  V30 5821 O 564.156 1.69529 0.675739 0
M  V30 5822 C 564.207 2.3429 -2.75301 0
M  V30 5823 O 563.928 1.7507 -4.01599 0
M  V30 5824 C 565.429 3.25051 -3.01424 0
M  V30 5825 H 562.649 0.374485 -0.556778 0
M  V30 5826 H 565.193 0.55353 -1.96866 0
M  V30 5827 H 563.348 2.98607 -2.46804 0
M  V30 5828 H 563.762 2.47812 -4.62266 0
M  V30 5829 H 565.236 3.98699 -3.81763 0
M  V30 5830 H 565.713 3.84227 -2.12758 0
M  V30 5831 H 566.319 2.66463 -3.31477 0
M  V30 5832 N 564.634 1.40294 0.718013 0
M  V30 5833 C 565.862 1.4175 1.50714 0
M  V30 5834 C 566.277 0.0165366 1.88793 0
M  V30 5835 O 565.634 -0.958942 1.55276 0
M  V30 5836 C 565.685 2.30598 2.784 0
M  V30 5837 O 565.406 3.6524 2.41932 0
M  V30 5838 C 566.907 2.4062 3.72313 0
M  V30 5839 H 564.127 0.483565 0.465194 0
M  V30 5840 H 566.671 1.84316 0.885889 0
M  V30 5841 H 564.826 1.91401 3.36815 0
M  V30 5842 H 565.24 4.12402 3.24076 0
M  V30 5843 H 566.714 3.07001 4.58753 0
M  V30 5844 H 567.191 1.4305 4.15251 0
M  V30 5845 H 567.797 2.80359 3.19811 0
M  V30 5846 N 566.112 -0.949982 1.2575 0
M  V30 5847 C 567.359 -1.69515 1.10774 0
M  V30 5848 C 567.687 -1.91316 -0.350479 0
M  V30 5849 O 566.942 -1.48515 -1.27443 0
M  V30 5850 C 567.241 -3.08039 1.81237 0
M  V30 5851 C 566.907 -3.06023 3.31151 0
M  V30 5852 C 565.569 -3.0518 3.72047 0
M  V30 5853 C 567.921 -2.98998 4.26907 0
M  V30 5854 C 565.249 -2.95067 5.07102 0
M  V30 5855 C 567.601 -2.90426 5.61992 0
M  V30 5856 C 566.265 -2.87922 6.0221 0
M  V30 5857 H 565.535 -0.6203 0.405351 0
M  V30 5858 H 568.182 -1.10953 1.56082 0
M  V30 5859 H 566.487 -3.70172 1.28373 0
M  V30 5860 H 568.184 -3.64526 1.67098 0
M  V30 5861 H 564.774 -3.07453 2.98614 0
M  V30 5862 H 568.958 -2.98764 3.963 0
M  V30 5863 H 564.214 -2.915 5.37436 0
M  V30 5864 H 568.388 -2.83952 6.35881 0
M  V30 5865 H 566.015 -2.79841 7.06819 0
M  V30 5866 N 567.59 -1.07411 -1.15328 0
M  V30 5867 C 568.867 -0.710732 -1.82231 0
M  V30 5868 C 569.247 0.806732 -1.95077 0
M  V30 5869 O 568.595 1.72139 -1.50268 0
M  V30 5870 C 568.805 -1.42586 -3.18544 0
M  V30 5871 C 570.153 -1.57836 -3.94174 0
M  V30 5872 O 571.177 -1.38669 -3.281 0
M  V30 5873 O 570.036 -1.8938 -5.12638 0
M  V30 5874 H 567.13 -0.25297 -0.78736 0
M  V30 5875 H 569.676 -1.17508 -1.22434 0
M  V30 5876 H 568.448 -2.46008 -3.04296 0
M  V30 5877 H 568.071 -0.952332 -3.86026 0
M  V30 5878 N 569.068 1.32177 -0.85831 0
M  V30 5879 C 570.314 1.97417 -0.46417 0
M  V30 5880 C 570.647 1.67746 0.978514 0
M  V30 5881 O 569.922 0.967654 1.68721 0
M  V30 5882 C 570.205 3.53069 -0.708094 0
M  V30 5883 C 570.058 3.92357 -2.19946 0
M  V30 5884 C 571.377 4.39783 -0.166881 0
M  V30 5885 H 568.496 0.717097 -0.17012 0
M  V30 5886 H 571.138 1.56499 -1.07741 0
M  V30 5887 H 569.288 3.88054 -0.186128 0
M  V30 5888 H 570.96 3.67533 -2.78779 0
M  V30 5889 H 569.203 3.41384 -2.67656 0
M  V30 5890 H 569.874 5.00841 -2.32082 0
M  V30 5891 H 572.35 4.11556 -0.613285 0
M  V30 5892 H 571.226 5.47671 -0.367093 0
M  V30 5893 H 571.487 4.32196 0.930559 0
M  V30 5894 N 570.547 0.616602 1.45037 0
M  V30 5895 C 571.777 0.121791 2.06241 0
M  V30 5896 C 572.185 -1.20289 1.46038 0
M  V30 5897 O 571.528 -1.7456 0.572242 0
M  V30 5898 C 571.59 -0.0827345 3.59405 0
M  V30 5899 C 571.254 1.16153 4.41993 0
M  V30 5900 C 572.251 2.08183 4.76399 0
M  V30 5901 C 569.936 1.39288 4.82601 0
M  V30 5902 C 571.93 3.21668 5.5028 0
M  V30 5903 C 569.617 2.53073 5.56235 0
M  V30 5904 C 570.615 3.44091 5.89992 0
M  V30 5905 O 570.303 4.55894 6.6213 0
M  V30 5906 H 570.035 0.0701667 0.672349 0
M  V30 5907 H 572.589 0.846877 1.87129 0
M  V30 5908 H 570.819 -0.862812 3.76952 0
M  V30 5909 H 572.508 -0.530273 4.02421 0
M  V30 5910 H 573.274 1.91538 4.45576 0
M  V30 5911 H 569.153 0.693396 4.55755 0
M  V30 5912 H 572.697 3.92733 5.76547 0
M  V30 5913 H 568.594 2.69667 5.86472 0
M  V30 5914 H 569.362 4.5469 6.80587 0
M  V30 5915 N 572.025 -1.5352 0.356285 0
M  V30 5916 C 573.253 -2.05534 -0.237328 0
M  V30 5917 C 573.668 -1.23043 -1.43199 0
M  V30 5918 O 573.025 -0.268821 -1.80509 0
M  V30 5919 C 573.076 -3.55791 -0.639933 0
M  V30 5920 O 572.797 -4.35154 0.507233 0
M  V30 5921 C 574.298 -4.24027 -1.29292 0
M  V30 5922 H 571.518 -0.669585 -0.0435572 0
M  V30 5923 H 574.062 -1.97988 0.511963 0
M  V30 5924 H 572.217 -3.63518 -1.33915 0
M  V30 5925 H 572.631 -5.24178 0.18375 0
M  V30 5926 H 574.105 -5.30509 -1.52527 0
M  V30 5927 H 574.582 -3.77166 -2.25039 0
M  V30 5928 H 575.188 -4.20527 -0.63539 0
M  V30 5929 N 573.503 -0.0852151 -1.57369 0
M  V30 5930 C 574.413 0.891712 -2.16992 0
M  V30 5931 C 575.429 1.3174 -1.13669 0
M  V30 5932 O 576.605 1.38735 -1.45995 0
M  V30 5933 C 573.67 2.13635 -2.73059 0
M  V30 5934 C 572.731 1.7658 -3.91303 0
M  V30 5935 C 571.964 2.95111 -4.44686 0
M  V30 5936 O 572.187 4.09539 -3.97032 0
M  V30 5937 O 571.121 2.74149 -5.35841 0
M  V30 5938 H 574.947 0.414477 -3.00858 0
M  V30 5939 H 572.532 0.138598 -1.48756 0
M  V30 5940 H 574.414 2.86595 -3.08935 0
M  V30 5941 H 573.089 2.6043 -1.92244 0
M  V30 5942 H 571.996 1.00831 -3.60255 0
M  V30 5943 H 573.329 1.34557 -4.7345 0
M  V30 5944 N 574.981 1.5647 0.188427 0
M  V30 5945 C 576.206 1.85486 0.927891 0
M  V30 5946 C 576.631 0.669575 1.75779 0
M  V30 5947 O 575.989 -0.381573 1.77239 0
M  V30 5948 C 576.037 3.12784 1.7944 0
M  V30 5949 O 575.141 2.93805 2.894 0
M  V30 5950 H 574.482 0.610585 0.260925 0
M  V30 5951 H 577.012 2.037 0.191729 0
M  V30 5952 H 577.022 3.43749 2.19774 0
M  V30 5953 H 575.697 3.98671 1.18468 0
M  V30 5954 H 574.274 2.74153 2.52774 0
M  V30 5955 N 576.459 -0.456382 1.50847 0
M  V30 5956 C 577.705 -1.20618 1.63777 0
M  V30 5957 C 578.06 -1.8936 0.340677 0
M  V30 5958 O 577.353 -1.79786 -0.662378 0
M  V30 5959 C 577.547 -2.26336 2.76599 0
M  V30 5960 C 577.376 -1.67968 4.17153 0
M  V30 5961 C 576.146 -1.47293 4.83356 0
M  V30 5962 C 578.344 -1.16643 5.00898 0
M  V30 5963 N 576.326 -0.843222 6.08081 0
M  V30 5964 C 577.697 -0.660843 6.16468 0
M  V30 5965 C 579.752 -1.05637 4.86565 0
M  V30 5966 C 578.455 -0.0560365 7.19278 0
M  V30 5967 C 580.481 -0.465485 5.89565 0
M  V30 5968 C 579.843 0.0296516 7.04394 0
M  V30 5969 H 575.942 -0.429725 0.653345 0
M  V30 5970 H 578.526 -0.505784 1.88016 0
M  V30 5971 H 576.697 -2.93785 2.54056 0
M  V30 5972 H 578.429 -2.9334 2.78808 0
M  V30 5973 H 575.184 -1.72934 4.40898 0
M  V30 5974 H 575.608 -0.546357 6.74792 0
M  V30 5975 H 580.25 -1.42508 3.98059 0
M  V30 5976 H 577.968 0.324845 8.07447 0
M  V30 5977 H 581.554 -0.382493 5.80541 0
M  V30 5978 H 580.434 0.479705 7.82731 0
M  V30 5979 N 577.937 -1.40673 -0.710563 0
M  V30 5980 C 578.9 -1.4108 -1.80635 0
M  V30 5981 C 579.9 -0.303783 -1.57904 0
M  V30 5982 O 581.09 -0.562937 -1.64853 0
M  V30 5983 C 578.222 -1.20748 -3.18799 0
M  V30 5984 H 579.415 -2.38612 -1.81671 0
M  V30 5985 H 576.968 -1.26595 -0.916704 0
M  V30 5986 H 577.703 -0.239964 -3.23411 0
M  V30 5987 H 577.488 -2.00941 -3.36698 0
M  V30 5988 H 578.978 -1.23833 -3.98817 0
M  V30 5989 N 579.415 0.9433 -1.26252 0
M  V30 5990 C 580.347 2.04542 -1.03417 0
M  V30 5991 C 581.36 1.62799 0.0046911 0
M  V30 5992 O 582.549 1.76944 -0.235146 0
M  V30 5993 C 579.649 3.34511 -0.543671 0
M  V30 5994 C 578.822 4.05033 -1.65128 0
M  V30 5995 C 577.881 5.13273 -1.1592 0
M  V30 5996 O 576.907 5.38095 -1.85586 0
M  V30 5997 N 578.109 5.805 -0.00649279 0
M  V30 5998 H 580.874 2.24699 -1.98319 0
M  V30 5999 H 578.435 1.11264 -1.1761 0
M  V30 6000 H 580.427 4.04212 -0.198703 0
M  V30 6001 H 578.997 3.11042 0.311711 0
M  V30 6002 H 578.217 3.29275 -2.16729 0
M  V30 6003 H 579.505 4.48903 -2.39508 0
M  V30 6004 H 578.903 5.62767 0.575347 0
M  V30 6005 H 577.46 6.51201 0.279416 0
M  V30 6006 N 580.893 1.08022 1.14757 0
M  V30 6007 C 582.17 0.720386 1.81851 0
M  V30 6008 C 582.55 -0.796375 1.95502 0
M  V30 6009 O 581.898 -1.71339 1.51179 0
M  V30 6010 C 582.108 1.44273 3.17783 0
M  V30 6011 C 583.456 1.59925 3.93331 0
M  V30 6012 O 584.48 1.40407 3.2736 0
M  V30 6013 O 583.339 1.92096 5.11626 0
M  V30 6014 H 580.433 0.257142 0.786007 0
M  V30 6015 H 582.979 1.18155 1.21809 0
M  V30 6016 H 581.751 2.47618 3.02987 0
M  V30 6017 H 581.374 0.97279 3.85516 0
M  V30 6018 N 582.371 -1.3172 0.865308 0
M  V30 6019 C 583.782 -1.79104 0.527126 0
M  V30 6020 C 584.133 -1.7135 -0.955695 0
M  V30 6021 O 583.258 -1.27845 -1.74598 0
M  V30 6022 C 583.853 -3.25207 0.950061 0
M  V30 6023 C 582.412 -3.70504 0.663611 0
M  V30 6024 C 581.559 -2.52605 1.14395 0
M  V30 6025 H 584.51 -1.18868 1.05148 0
M  V30 6026 H 584.531 -3.79535 0.270805 0
M  V30 6027 H 584.043 -3.30818 2.02931 0
M  V30 6028 H 582.144 -3.70398 -0.404474 0
M  V30 6029 H 582.257 -4.62845 1.23737 0
M  V30 6030 H 580.621 -2.4838 0.563859 0
M  V30 6031 H 581.404 -2.60964 2.23053 0
M  V30 6032 N 583.85 -0.624285 -1.44708 0
M  V30 6033 C 585.075 -0.131171 -2.06985 0
M  V30 6034 C 585.5 1.18234 -1.46295 0
M  V30 6035 O 584.858 1.72375 -0.561842 0
M  V30 6036 C 584.906 -0.0226724 -3.60593 0
M  V30 6037 O 584.01 1.02314 -3.99507 0
M  V30 6038 H 583.351 -0.0816556 -0.65896 0
M  V30 6039 H 585.88 -0.859027 -1.85693 0
M  V30 6040 H 585.891 0.170138 -4.07645 0
M  V30 6041 H 584.566 -0.981685 -4.04148 0
M  V30 6042 H 583.143 0.805452 -3.64097 0
M  V30 6043 N 585.328 1.53329 -0.364422 0
M  V30 6044 C 586.26 2.23286 0.517293 0
M  V30 6045 C 587.273 1.24657 1.04711 0
M  V30 6046 O 588.462 1.50887 0.95369 0
M  V30 6047 C 585.562 2.91604 1.72685 0
M  V30 6048 C 584.735 4.1673 1.32873 0
M  V30 6049 C 583.794 4.68269 2.40022 0
M  V30 6050 O 582.82 5.31976 2.02461 0
M  V30 6051 N 584.022 4.45983 3.7159 0
M  V30 6052 H 586.787 2.99588 -0.0819391 0
M  V30 6053 H 584.348 1.60787 -0.189544 0
M  V30 6054 H 586.34 3.22992 2.4384 0
M  V30 6055 H 584.91 2.18763 2.23297 0
M  V30 6056 H 584.13 3.91657 0.447069 0
M  V30 6057 H 585.418 4.98078 1.03902 0
M  V30 6058 H 584.816 3.95077 4.04883 0
M  V30 6059 H 583.373 4.81924 4.38854 0
M  V30 6060 N 586.806 0.0935595 1.57322 0
M  V30 6061 C 587.716 -0.880192 2.17462 0
M  V30 6062 C 588.732 -1.31135 1.14366 0
M  V30 6063 O 589.908 -1.37958 1.46729 0
M  V30 6064 C 586.973 -2.12184 2.74188 0
M  V30 6065 C 586.034 -1.74503 3.92234 0
M  V30 6066 C 585.267 -2.92748 4.46245 0
M  V30 6067 O 585.49 -4.07427 3.99198 0
M  V30 6068 O 584.424 -2.71303 5.37288 0
M  V30 6069 H 588.25 -0.398516 3.01074 0
M  V30 6070 H 585.835 -0.130707 1.48827 0
M  V30 6071 H 587.717 -2.84953 3.10451 0
M  V30 6072 H 586.392 -2.59407 1.93623 0
M  V30 6073 H 585.299 -0.989186 3.60785 0
M  V30 6074 H 586.632 -1.32044 4.74157 0
M  V30 6075 N 588.284 -1.56567 -0.180126 0
M  V30 6076 C 589.232 -1.96632 -1.24251 0
M  V30 6077 C 590.226 -0.853818 -1.46309 0
M  V30 6078 O 591.432 -1.0389 -1.46993 0
M  V30 6079 H 587.807 -0.625476 -0.417473 0
M  V30 6080 H 589.778 -2.85201 -0.877679 0
M  V30 6081 C 588.527 -2.33486 -2.57642 0
M  V30 6082 H 587.85 -3.18626 -2.4149 0
M  V30 6083 H 589.29 -2.65371 -3.30688 0
M  V30 6084 C 587.749 -1.17499 -3.15746 0
M  V30 6085 O 588.279 -0.457956 -3.99081 0
M  V30 6086 N 586.485 -0.94786 -2.74707 0
M  V30 6087 H 586.032 -1.53269 -2.07042 0
M  V30 6088 H 585.99 -0.173626 -3.1392 0
M  V30 6089 N 589.762 0.448376 -1.51087 0
M  V30 6090 C 590.709 1.54341 -1.71603 0
M  V30 6091 C 591.679 1.56463 -0.557536 0
M  V30 6092 O 592.864 1.73644 -0.79072 0
M  V30 6093 C 590.004 2.92148 -1.83695 0
M  V30 6094 C 589.117 2.99639 -3.11192 0
M  V30 6095 C 588.252 4.285 -3.13944 0
M  V30 6096 C 587.291 4.29819 -4.35801 0
M  V30 6097 N 586.428 5.50186 -4.36164 0
M  V30 6098 H 591.268 1.36151 -2.65079 0
M  V30 6099 H 588.805 0.661585 -1.31383 0
M  V30 6100 H 590.763 3.72093 -1.88687 0
M  V30 6101 H 589.393 3.0892 -0.936374 0
M  V30 6102 H 588.445 2.12425 -3.15562 0
M  V30 6103 H 589.757 2.96474 -4.01129 0
M  V30 6104 H 588.911 5.16811 -3.17791 0
M  V30 6105 H 587.65 4.34307 -2.21876 0
M  V30 6106 H 586.655 3.39902 -4.32142 0
M  V30 6107 H 587.88 4.25685 -5.29121 0
M  V30 6108 H 585.826 5.56735 -3.46961 0
M  V30 6109 H 585.743 5.48856 -5.19897 0
M  V30 6110 H 587.011 6.40559 -4.44189 0
M  V30 6111 N 591.24 1.41047 0.703093 0
M  V30 6112 C 592.187 1.42302 1.81711 0
M  V30 6113 C 593.157 0.278336 1.63751 0
M  V30 6114 O 594.342 0.478266 1.84709 0
M  V30 6115 C 591.482 1.30362 3.19531 0
M  V30 6116 C 590.595 2.54638 3.48975 0
M  V30 6117 C 589.73 2.35047 4.76368 0
M  V30 6118 C 588.769 3.54837 4.98756 0
M  V30 6119 N 587.906 3.34363 6.1737 0
M  V30 6120 H 592.746 2.37516 1.79973 0
M  V30 6121 H 590.283 1.1795 0.878983 0
M  V30 6122 H 592.241 1.21443 3.99134 0
M  V30 6123 H 590.871 0.387602 3.20464 0
M  V30 6124 H 589.923 2.74037 2.63833 0
M  V30 6125 H 591.235 3.43766 3.61423 0
M  V30 6126 H 590.389 2.23552 5.64012 0
M  V30 6127 H 589.128 1.43363 4.66153 0
M  V30 6128 H 588.133 3.66795 4.09563 0
M  V30 6129 H 589.358 4.47464 5.10835 0
M  V30 6130 H 587.304 2.45373 6.08382 0
M  V30 6131 H 587.221 4.17063 6.30551 0
M  V30 6132 H 588.489 3.26626 7.07768 0
M  V30 6133 N 592.718 -0.936591 1.26751 0
M  V30 6134 C 593.665 -2.03597 1.08706 0
M  V30 6135 C 594.635 -1.66097 -0.00926542 0
M  V30 6136 O 595.82 -1.90199 0.151377 0
M  V30 6137 C 592.96 -3.3727 0.73094 0
M  V30 6138 C 592.073 -3.87778 1.90399 0
M  V30 6139 C 591.208 -5.09859 1.49056 0
M  V30 6140 C 590.247 -5.5264 2.63164 0
M  V30 6141 N 589.384 -6.65921 2.22471 0
M  V30 6142 H 594.224 -2.18364 2.02784 0
M  V30 6143 H 591.761 -1.06985 1.00958 0
M  V30 6144 H 593.719 -4.14128 0.505328 0
M  V30 6145 H 592.349 -3.22337 -0.172868 0
M  V30 6146 H 591.401 -3.07279 2.2424 0
M  V30 6147 H 592.713 -4.15464 2.76028 0
M  V30 6148 H 591.867 -5.9419 1.22567 0
M  V30 6149 H 590.606 -4.8393 0.60524 0
M  V30 6150 H 589.611 -4.66863 2.90377 0
M  V30 6151 H 590.836 -5.80568 3.52303 0
M  V30 6152 H 588.782 -6.41667 1.36379 0
M  V30 6153 H 588.699 -6.93216 3.01641 0
M  V30 6154 H 589.967 -7.53616 1.99205 0
M  V30 6155 N 594.196 -1.08629 -1.14182 0
M  V30 6156 C 595.424 -0.838889 -1.8913 0
M  V30 6157 C 595.839 0.609153 -1.78703 0
M  V30 6158 O 595.196 1.41876 -1.14794 0
M  V30 6159 C 595.247 -1.25477 -3.39025 0
M  V30 6160 O 594.968 -2.64601 -3.49167 0
M  V30 6161 C 596.469 -1.03856 -4.30963 0
M  V30 6162 H 593.689 -0.302377 -0.599007 0
M  V30 6163 H 596.233 -1.44615 -1.44592 0
M  V30 6164 H 594.388 -0.691571 -3.81177 0
M  V30 6165 H 594.802 -2.81922 -4.42289 0
M  V30 6166 H 596.276 -1.37892 -5.345 0
M  V30 6167 H 596.753 0.0242522 -4.39193 0
M  V30 6168 H 597.359 -1.58731 -3.94569 0
M  V30 6169 N 595.674 1.31259 -0.872281 0
M  V30 6170 C 596.92 1.96913 -0.485083 0
M  V30 6171 C 597.253 1.68774 0.960667 0
M  V30 6172 O 596.528 0.985495 1.67685 0
M  V30 6173 C 596.811 3.52299 -0.745502 0
M  V30 6174 C 596.664 3.90002 -2.24095 0
M  V30 6175 C 597.983 4.39582 -0.213516 0
M  V30 6176 H 595.102 0.715252 -0.177716 0
M  V30 6177 H 597.744 1.55347 -1.09395 0
M  V30 6178 H 595.894 3.87835 -0.227276 0
M  V30 6179 H 597.566 3.64555 -2.82661 0
M  V30 6180 H 595.809 3.38526 -2.71261 0
M  V30 6181 H 596.48 4.98352 -2.37381 0
M  V30 6182 H 598.956 4.10882 -0.656902 0
M  V30 6183 H 597.832 5.47251 -0.42516 0
M  V30 6184 H 598.093 4.33158 0.884666 0
M  V30 6185 N 597.152 0.631951 1.44375 0
M  V30 6186 C 598.398 0.13697 2.02337 0
M  V30 6187 C 598.731 -1.23826 1.49602 0
M  V30 6188 O 598.006 -1.8221 0.680415 0
M  V30 6189 C 598.289 0.124536 3.59885 0
M  V30 6190 C 598.142 1.53217 4.229 0
M  V30 6191 C 599.461 -0.550481 4.36644 0
M  V30 6192 H 596.58 0.051247 0.735216 0
M  V30 6193 H 599.222 0.808581 1.71936 0
M  V30 6194 H 597.372 -0.44737 3.85916 0
M  V30 6195 H 599.044 2.15303 4.07973 0
M  V30 6196 H 597.287 2.0858 3.80364 0
M  V30 6197 H 597.958 1.4755 5.31914 0
M  V30 6198 H 600.434 -0.0641154 4.16051 0
M  V30 6199 H 599.31 -0.528371 5.46351 0
M  V30 6200 H 599.571 -1.62097 4.11311 0
M  V30 6201 N 598.631 -1.53133 0.372548 0
M  V30 6202 C 599.908 -1.93704 -0.271693 0
M  V30 6203 C 600.288 -1.30667 -1.65799 0
M  V30 6204 O 599.636 -0.46838 -2.23648 0
M  V30 6205 C 599.846 -3.47576 -0.314903 0
M  V30 6206 C 601.194 -4.20998 -0.551912 0
M  V30 6207 O 602.218 -3.53994 -0.39582 0
M  V30 6208 O 601.077 -5.39748 -0.85639 0
M  V30 6209 H 598.171 -0.810457 -0.164586 0
M  V30 6210 H 600.717 -1.6427 0.425838 0
M  V30 6211 H 599.489 -3.85749 0.656792 0
M  V30 6212 H 599.112 -3.83264 -1.05804 0
M  V30 6213 N 600.109 -0.101901 -1.5727 0
M  V30 6214 C 601.356 0.560197 -1.94597 0
M  V30 6215 C 601.684 1.67767 -0.984101 0
M  V30 6216 O 600.939 1.95699 -0.00489193 0
M  V30 6217 C 601.238 1.14898 -3.38427 0
M  V30 6218 C 600.904 0.154613 -4.50635 0
M  V30 6219 C 599.566 -0.118861 -4.81053 0
M  V30 6220 C 601.918 -0.523979 -5.18559 0
M  V30 6221 C 599.246 -1.0775 -5.76721 0
M  V30 6222 C 601.598 -1.47114 -6.15256 0
M  V30 6223 C 600.262 -1.75278 -6.44076 0
M  V30 6224 H 599.532 0.204991 -0.712081 0
M  V30 6225 H 602.179 -0.17918 -1.9066 0
M  V30 6226 H 600.484 1.96476 -3.38976 0
M  V30 6227 H 602.181 1.66909 -3.64613 0
M  V30 6228 H 598.771 0.377948 -4.2693 0
M  V30 6229 H 602.955 -0.325851 -4.95229 0
M  V30 6230 H 598.211 -1.30263 -5.97362 0
M  V30 6231 H 602.385 -2.00274 -6.66981 0
M  V30 6232 H 600.012 -2.49717 -7.18015 0
M  V30 6233 N 601.587 1.56661 0.17182 0
M  V30 6234 C 602.497 1.99604 1.2327 0
M  V30 6235 C 603.513 0.907333 1.4847 0
M  V30 6236 O 604.689 1.21492 1.60629 0
M  V30 6237 C 601.754 2.34685 2.55194 0
M  V30 6238 C 600.815 3.57381 2.3786 0
M  V30 6239 C 600.048 3.90779 3.63494 0
M  V30 6240 O 600.271 3.25152 4.6865 0
M  V30 6241 O 599.205 4.84129 3.57634 0
M  V30 6242 H 603.031 2.90114 0.898192 0
M  V30 6243 H 600.616 1.44522 0.378647 0
M  V30 6244 H 602.498 2.5822 3.33017 0
M  V30 6245 H 601.173 1.47336 2.88225 0
M  V30 6246 H 600.08 3.39064 1.5807 0
M  V30 6247 H 601.413 4.45268 2.09754 0
M  V30 6248 N 603.065 -0.440357 1.51323 0
M  V30 6249 C 604.293 -1.21255 1.67645 0
M  V30 6250 C 604.708 -1.85088 0.37252 0
M  V30 6251 O 604.065 -1.70582 -0.648683 0
M  V30 6252 C 604.116 -2.29881 2.78993 0
M  V30 6253 O 603.837 -1.68659 4.04334 0
M  V30 6254 C 605.338 -3.20214 3.06558 0
M  V30 6255 H 602.558 -0.36558 0.562666 0
M  V30 6256 H 605.102 -0.52214 1.97722 0
M  V30 6257 H 603.257 -2.94643 2.51524 0
M  V30 6258 H 603.671 -2.40426 4.6615 0
M  V30 6259 H 605.145 -3.92575 3.88058 0
M  V30 6260 H 605.622 -3.80794 2.18844 0
M  V30 6261 H 606.228 -2.61156 3.35675 0
M  V30 6262 N 604.543 -1.41418 -0.695603 0
M  V30 6263 C 605.82 -1.31264 -1.45014 0
M  V30 6264 C 606.2 0.0597994 -2.11015 0
M  V30 6265 O 605.548 1.07403 -2.01685 0
M  V30 6266 C 605.758 -2.466 -2.4696 0
M  V30 6267 C 607.106 -2.87763 -3.12214 0
M  V30 6268 O 608.13 -2.46339 -2.57285 0
M  V30 6269 O 606.989 -3.59395 -4.11701 0
M  V30 6270 H 604.083 -0.516576 -0.645816 0
M  V30 6271 H 606.629 -1.53382 -0.726084 0
M  V30 6272 H 605.401 -3.38183 -1.96845 0
M  V30 6273 H 605.024 -2.26358 -3.26876 0
M  V30 6274 N 606.021 0.929856 -1.27246 0
M  V30 6275 C 607.267 1.6798 -1.13625 0
M  V30 6276 C 607.6 1.91586 0.317589 0
M  V30 6277 O 606.875 1.50467 1.23247 0
M  V30 6278 C 607.158 3.04766 -1.91806 0
M  V30 6279 C 607.011 2.88415 -3.45162 0
M  V30 6280 C 608.33 4.05063 -1.72082 0
M  V30 6281 H 605.449 0.609632 -0.414147 0
M  V30 6282 H 608.091 1.0792 -1.56376 0
M  V30 6283 H 606.241 3.56034 -1.55474 0
M  V30 6284 H 607.913 2.44282 -3.91311 0
M  V30 6285 H 606.156 2.23802 -3.71611 0
M  V30 6286 H 606.827 3.85482 -3.95105 0
M  V30 6287 H 609.303 3.62798 -2.03757 0
M  V30 6288 H 608.179 4.98765 -2.29182 0
M  V30 6289 H 608.44 4.37021 -0.668206 0
M  V30 6290 N 607.499 1.09233 1.13605 0
M  V30 6291 C 608.429 0.751738 2.21068 0
M  V30 6292 C 609.41 -0.269688 1.67948 0
M  V30 6293 O 610.595 -0.13819 1.93708 0
M  V30 6294 C 607.725 0.16935 3.46887 0
M  V30 6295 C 606.679 1.12007 4.13084 0
M  V30 6296 C 606.005 0.399483 5.33206 0
M  V30 6297 C 607.305 2.46168 4.6065 0
M  V30 6298 H 608.999 1.65024 2.49815 0
M  V30 6299 H 606.545 0.794905 1.20072 0
M  V30 6300 H 608.498 -0.0809824 4.21322 0
M  V30 6301 H 607.222 -0.764335 3.1753 0
M  V30 6302 H 605.881 1.35564 3.40614 0
M  V30 6303 H 605.529 -0.538277 5.00112 0
M  V30 6304 H 605.229 1.03337 5.78442 0
M  V30 6305 H 606.753 0.157403 6.10397 0
M  V30 6306 H 608.167 2.26829 5.26518 0
M  V30 6307 H 606.564 3.05326 5.1662 0
M  V30 6308 H 607.634 3.07076 3.75276 0
M  V30 6309 N 608.977 -1.30795 0.87923 0
M  V30 6310 C 610.224 -1.96362 0.494786 0
M  V30 6311 C 610.552 -1.69448 -0.954868 0
M  V30 6312 O 609.807 -0.988711 -1.68888 0
M  V30 6313 C 610.106 -3.50287 0.709476 0
M  V30 6314 C 609.772 -3.9724 2.13333 0
M  V30 6315 C 608.434 -4.09772 2.52271 0
M  V30 6316 C 610.786 -4.21807 3.06151 0
M  V30 6317 C 608.114 -4.44227 3.83248 0
M  V30 6318 C 610.466 -4.5773 4.36654 0
M  V30 6319 C 609.13 -4.68469 4.75492 0
M  V30 6320 H 608.4 -0.71854 0.181055 0
M  V30 6321 H 611.047 -1.55764 1.11399 0
M  V30 6322 H 609.352 -3.91799 0.0072 0
M  V30 6323 H 611.049 -3.99082 0.391703 0
M  V30 6324 H 607.639 -3.87988 1.82107 0
M  V30 6325 H 611.823 -4.11611 2.77291 0
M  V30 6326 H 607.079 -4.50741 4.13089 0
M  V30 6327 H 611.253 -4.7569 5.08617 0
M  V30 6328 H 608.88 -4.94923 5.77022 0
M  V30 6329 N 610.455 -0.639598 -1.44038 0
M  V30 6330 C 611.385 0.0469443 -2.33453 0
M  V30 6331 C 612.366 0.82609 -1.48694 0
M  V30 6332 O 613.551 0.790285 -1.77393 0
M  V30 6333 C 610.681 1.02338 -3.3188 0
M  V30 6334 C 609.635 0.355284 -4.26523 0
M  V30 6335 C 608.961 1.44221 -5.14883 0
M  V30 6336 C 610.261 -0.743798 -5.16977 0
M  V30 6337 H 611.955 -0.699735 -2.91108 0
M  V30 6338 H 609.501 -0.337946 -1.39978 0
M  V30 6339 H 611.454 1.51247 -3.93322 0
M  V30 6340 H 610.178 1.80105 -2.72451 0
M  V30 6341 H 608.837 -0.113239 -3.66425 0
M  V30 6342 H 608.485 2.21097 -4.51802 0
M  V30 6343 H 608.185 1.00052 -5.79019 0
M  V30 6344 H 609.709 1.93295 -5.79197 0
M  V30 6345 H 611.123 -0.337444 -5.72306 0
M  V30 6346 H 609.52 -1.10914 -5.89761 0
M  V30 6347 H 610.59 -1.60745 -4.57481 0
M  V30 6348 N 611.933 1.52934 -0.380664 0
M  V30 6349 C 613.179 2.01765 0.20458 0
M  V30 6350 C 613.512 1.26696 1.47179 0
M  V30 6351 O 612.787 0.364936 1.91046 0
M  V30 6352 C 613.07 3.56869 0.481269 0
M  V30 6353 C 612.923 4.42617 -0.800629 0
M  V30 6354 C 614.242 4.2121 1.27554 0
M  V30 6355 H 611.361 0.733388 0.0728803 0
M  V30 6356 H 614.003 1.83068 -0.50853 0
M  V30 6357 H 612.153 3.72932 1.08875 0
M  V30 6358 H 613.825 4.38323 -1.43773 0
M  V30 6359 H 612.068 4.09977 -1.4178 0
M  V30 6360 H 612.739 5.49134 -0.561791 0
M  V30 6361 H 615.215 4.09072 0.761514 0
M  V30 6362 H 614.091 5.29732 1.43788 0
M  V30 6363 H 614.352 3.78269 2.28833 0
M  V30 6364 N 613.412 0.11024 1.57214 0
M  V30 6365 C 614.823 -0.416527 1.81994 0
M  V30 6366 C 615.174 -1.67183 1.02686 0
M  V30 6367 O 614.299 -2.14823 0.260782 0
M  V30 6368 C 614.894 -0.762466 3.30109 0
M  V30 6369 C 613.453 -1.23391 3.556 0
M  V30 6370 C 612.6 -0.238166 2.76275 0
M  V30 6371 H 615.551 0.335491 1.55113 0
M  V30 6372 H 615.572 -1.62068 3.44259 0
M  V30 6373 H 615.084 0.151346 3.87805 0
M  V30 6374 H 613.185 -2.16492 3.03253 0
M  V30 6375 H 613.298 -1.18528 4.64207 0
M  V30 6376 H 611.662 -0.723421 2.4421 0
M  V30 6377 H 612.445 0.668591 3.36727 0
M  V30 6378 N 614.89 -1.56749 -0.16351 0
M  V30 6379 C 616.118 -1.86577 -0.894233 0
M  V30 6380 C 616.533 -0.696543 -1.75481 0
M  V30 6381 O 615.89 0.334161 -1.79415 0
M  V30 6382 C 615.941 -3.15508 -1.76456 0
M  V30 6383 O 615.662 -4.27926 -0.938685 0
M  V30 6384 C 617.163 -3.58737 -2.60428 0
M  V30 6385 H 614.383 -0.618829 -0.259405 0
M  V30 6386 H 616.927 -2.03863 -0.161259 0
M  V30 6387 H 615.082 -3.00025 -2.45079 0
M  V30 6388 H 615.496 -5.01546 -1.53465 0
M  V30 6389 H 616.97 -4.51832 -3.17099 0
M  V30 6390 H 617.447 -2.83229 -3.35675 0
M  V30 6391 H 618.053 -3.76858 -1.97125 0
M  V30 6392 N 616.368 0.432326 -1.51554 0
M  V30 6393 C 617.278 1.55023 -1.76082 0
M  V30 6394 C 618.294 1.61593 -0.645265 0
M  V30 6395 O 619.47 1.78742 -0.928086 0
M  V30 6396 C 616.535 2.90964 -1.88523 0
M  V30 6397 C 615.596 2.9447 -3.12388 0
M  V30 6398 C 614.829 4.23926 -3.24225 0
M  V30 6399 O 615.052 5.16576 -2.4188 0
M  V30 6400 O 613.986 4.33818 -4.17235 0
M  V30 6401 H 617.812 1.37238 -2.70923 0
M  V30 6402 H 615.397 0.615845 -1.36117 0
M  V30 6403 H 617.279 3.71633 -1.98662 0
M  V30 6404 H 615.954 3.08865 -0.9687 0
M  V30 6405 H 614.861 2.12737 -3.07723 0
M  V30 6406 H 616.194 2.81514 -4.03746 0
M  V30 6407 N 617.846 1.41785 0.688094 0
M  V30 6408 C 619.095 1.4084 1.44385 0
M  V30 6409 C 619.408 0.0234166 1.95586 0
M  V30 6410 O 620.614 -0.108647 2.71283 0
M  V30 6411 C 619.07 2.47675 2.61123 0
M  V30 6412 C 618.678 3.92116 2.16677 0
M  V30 6413 C 620.422 2.55877 3.38714 0
M  V30 6414 C 618.329 4.90487 3.30419 0
M  V30 6415 H 617.259 0.523787 0.542368 0
M  V30 6416 H 619.91 1.6764 0.74627 0
M  V30 6417 H 618.292 2.14018 3.33185 0
M  V30 6418 H 619.466 4.35059 1.51856 0
M  V30 6419 H 617.781 3.87642 1.5206 0
M  V30 6420 H 620.378 3.26553 4.234 0
M  V30 6421 H 620.721 1.59801 3.84408 0
M  V30 6422 H 621.254 2.88662 2.73714 0
M  V30 6423 H 617.993 5.87994 2.89729 0
M  V30 6424 H 617.513 4.52187 3.94065 0
M  V30 6425 H 619.192 5.11591 3.96085 0
M  V30 6426 N 619.324 -0.923095 1.27737 0
M  V30 6427 C 620.287 -2.00587 1.10894 0
M  V30 6428 C 621.287 -1.60718 0.0514927 0
M  V30 6429 O 622.477 -1.71658 0.296481 0
M  V30 6430 C 619.609 -3.33829 0.690717 0
M  V30 6431 H 620.802 -2.16959 2.07048 0
M  V30 6432 H 618.355 -1.10451 1.1059 0
M  V30 6433 H 619.09 -3.23157 -0.272 0
M  V30 6434 H 618.875 -3.64125 1.45448 0
M  V30 6435 H 620.365 -4.13336 0.595252 0
M  V30 6436 N 620.802 -1.09834 -1.13024 0
M  V30 6437 C 621.732 -0.763451 -2.20666 0
M  V30 6438 C 622.713 0.260778 -1.68089 0
M  V30 6439 O 623.898 0.127915 -1.93778 0
M  V30 6440 C 621.028 -0.187744 -3.46792 0
M  V30 6441 C 619.982 -1.14196 -4.12484 0
M  V30 6442 C 619.308 -0.427755 -5.32986 0
M  V30 6443 C 620.608 -2.48607 -4.59338 0
M  V30 6444 H 622.302 -1.66347 -2.48936 0
M  V30 6445 H 619.848 -0.801261 -1.19649 0
M  V30 6446 H 621.801 0.0586375 -4.21359 0
M  V30 6447 H 620.525 0.747485 -3.17931 0
M  V30 6448 H 619.184 -1.37369 -3.3989 0
M  V30 6449 H 618.832 0.511747 -5.0039 0
M  V30 6450 H 618.532 -1.06403 -5.77886 0
M  V30 6451 H 620.056 -0.189772 -6.10305 0
M  V30 6452 H 621.47 -2.29618 -5.25308 0
M  V30 6453 H 619.867 -3.08062 -5.14993 0
M  V30 6454 H 620.937 -3.09062 -3.73642 0
M  V30 6455 N 622.28 1.30327 -0.886154 0
M  V30 6456 C 623.243 2.26376 -0.358687 0
M  V30 6457 C 624.243 1.52845 0.499498 0
M  V30 6458 O 625.433 1.71483 0.306485 0
M  V30 6459 C 622.565 3.37379 0.488726 0
M  V30 6460 H 623.758 2.74547 -1.20681 0
M  V30 6461 H 621.311 1.41536 -0.663113 0
M  V30 6462 H 622.046 2.94526 1.35739 0
M  V30 6463 H 621.831 3.91897 -0.126003 0
M  V30 6464 H 623.321 4.08868 0.84952 0
M  V30 6465 N 623.758 0.647228 1.43697 0
M  V30 6466 C 624.69 -0.0866232 2.29036 0
M  V30 6467 C 625.703 -0.793051 1.42178 0
M  V30 6468 O 626.892 -0.651807 1.66174 0
M  V30 6469 C 623.992 -1.14552 3.18953 0
M  V30 6470 C 623.165 -0.518422 4.34317 0
M  V30 6471 C 622.224 -1.4734 5.05151 0
M  V30 6472 O 621.25 -0.984312 5.60625 0
M  V30 6473 N 622.452 -2.8075 5.08094 0
M  V30 6474 H 625.217 0.645834 2.92659 0
M  V30 6475 H 622.778 0.489567 1.54321 0
M  V30 6476 H 624.77 -1.78505 3.63205 0
M  V30 6477 H 623.34 -1.78001 2.56971 0
M  V30 6478 H 622.56 0.300079 3.93056 0
M  V30 6479 H 623.848 -0.080401 5.08736 0
M  V30 6480 H 623.246 -3.23052 4.64386 0
M  V30 6481 H 621.803 -3.40022 5.56083 0
M  V30 6482 N 625.236 -1.5273 0.388769 0
M  V30 6483 C 626.186 -2.23238 -0.463567 0
M  V30 6484 C 627.17 -1.23606 -1.03007 0
M  V30 6485 O 628.362 -1.48945 -0.956261 0
M  V30 6486 C 625.491 -3.04228 -1.5906 0
M  V30 6487 C 624.577 -4.11255 -1.03587 0
M  V30 6488 N 624.968 -5.0538 -0.206038 0
M  V30 6489 C 623.266 -4.26376 -1.30841 0
M  V30 6490 C 623.967 -5.81613 0.100359 0
M  V30 6491 N 622.943 -5.41264 -0.503447 0
M  V30 6492 H 626.745 -2.93367 0.176978 0
M  V30 6493 H 624.259 -1.61188 0.198046 0
M  V30 6494 H 626.256 -3.53277 -2.21362 0
M  V30 6495 H 624.916 -2.35634 -2.23398 0
M  V30 6496 H 625.927 -5.17663 0.156659 0
M  V30 6497 H 622.604 -3.69011 -1.95287 0
M  V30 6498 H 623.994 -6.67442 0.772676 0
M  V30 6499 N 626.714 -0.118576 -1.57153 0
M  V30 6500 C 628.13 0.238014 -1.57815 0
M  V30 6501 C 628.33 1.66747 -1.13127 0
M  V30 6502 O 627.386 2.38867 -0.818462 0
M  V30 6503 C 628.699 0.00508207 -3.007 0
M  V30 6504 C 630.247 0.0710139 -3.12919 0
M  V30 6505 C 630.722 -0.13422 -4.57803 0
M  V30 6506 N 632.213 -0.0801755 -4.63131 0
M  V30 6507 C 632.948 -0.213885 -5.73001 0
M  V30 6508 N 632.444 -0.403742 -6.91623 0
M  V30 6509 N 634.237 -0.15349 -5.6189 0
M  V30 6510 H 626.388 -1.05226 -1.84503 0
M  V30 6511 H 628.651 -0.414318 -0.852669 0
M  V30 6512 H 628.357 -0.983125 -3.3768 0
M  V30 6513 H 628.231 0.73714 -3.69927 0
M  V30 6514 H 630.618 1.04975 -2.75798 0
M  V30 6515 H 630.699 -0.692918 -2.46236 0
M  V30 6516 H 630.343 -1.10992 -4.95624 0
M  V30 6517 H 630.273 0.649692 -5.22577 0
M  V30 6518 H 632.764 0.0630689 -3.77847 0
M  V30 6519 H 633.077 -0.496645 -7.71202 0
M  V30 6520 H 631.422 -0.43971 -6.93608 0
M  V30 6521 H 634.613 -0.00613174 -4.681 0
M  V30 6522 H 634.786 -0.261138 -6.47474 0
M  V30 6523 N 628.193 1.56834 0.155195 0
M  V30 6524 C 629.156 1.96748 1.17571 0
M  V30 6525 C 630.156 0.853006 1.3631 0
M  V30 6526 O 631.346 1.11978 1.33441 0
M  V30 6527 C 628.478 2.27631 2.53765 0
M  V30 6528 H 629.671 2.88085 0.833498 0
M  V30 6529 H 627.224 1.51141 0.398242 0
M  V30 6530 H 627.959 1.39059 2.92973 0
M  V30 6531 H 627.744 3.0888 2.41527 0
M  V30 6532 H 629.234 2.59377 3.27282 0
M  V30 6533 N 629.671 -0.424282 1.51781 0
M  V30 6534 C 630.619 -1.53649 1.74628 0
M  V30 6535 C 631.613 -1.57923 0.612922 0
M  V30 6536 O 632.819 -1.61511 0.794618 0
M  V30 6537 H 629.194 -0.510706 0.551981 0
M  V30 6538 H 631.165 -1.31558 2.67834 0
M  V30 6539 C 629.914 -2.91177 1.9003 0
M  V30 6540 H 629.237 -2.88625 2.76651 0
M  V30 6541 H 630.677 -3.6833 2.10021 0
M  V30 6542 C 629.136 -3.30303 0.663435 0
M  V30 6543 O 629.666 -4.01315 -0.175812 0
M  V30 6544 N 627.872 -2.86201 0.503723 0
M  V30 6545 H 627.419 -2.28583 1.18776 0
M  V30 6546 H 627.377 -3.12741 -0.322575 0
M  V30 6547 N 631.149 -1.42148 -0.680565 0
M  V30 6548 C 632.112 -1.4488 -1.77602 0
M  V30 6549 C 633.112 -0.337209 -1.57224 0
M  V30 6550 O 634.302 -0.597778 -1.63622 0
M  V30 6551 C 631.434 -1.27483 -3.16166 0
M  V30 6552 H 632.627 -2.42412 -1.76568 0
M  V30 6553 H 630.18 -1.28511 -0.889645 0
M  V30 6554 H 630.915 -0.30851 -3.22829 0
M  V30 6555 H 630.7 -2.08037 -3.3236 0
M  V30 6556 H 632.19 -1.32265 -3.96101 0
M  V30 6557 N 632.627 0.916307 -1.28225 0
M  V30 6558 C 633.574 2.01841 -1.11932 0
M  V30 6559 C 634.544 1.66091 -0.0171604 0
M  V30 6560 O 635.729 1.89934 -0.181617 0
M  V30 6561 C 632.869 3.36065 -0.784504 0
M  V30 6562 C 631.982 3.847 -1.96544 0
M  V30 6563 C 631.117 5.07423 -1.57149 0
M  V30 6564 C 630.156 5.48384 -2.71922 0
M  V30 6565 N 629.293 6.62298 -2.33037 0
M  V30 6566 H 634.133 2.1511 -2.06232 0
M  V30 6567 H 631.67 1.05366 -1.02647 0
M  V30 6568 H 633.628 4.13272 -0.571148 0
M  V30 6569 H 632.258 3.22571 0.121565 0
M  V30 6570 H 631.31 3.03673 -2.291 0
M  V30 6571 H 632.622 4.1102 -2.82603 0
M  V30 6572 H 631.776 5.92165 -1.32004 0
M  V30 6573 H 630.515 4.82906 -0.682153 0
M  V30 6574 H 629.52 4.62184 -2.97768 0
M  V30 6575 H 630.745 5.7489 -3.61494 0
M  V30 6576 H 628.691 6.39416 -1.4657 0
M  V30 6577 H 628.608 6.8833 -3.12631 0
M  V30 6578 H 629.876 7.50352 -2.11169 0
M  V30 6579 N 634.105 1.10431 1.1244 0
M  V30 6580 C 635.33 0.869089 1.88313 0
M  V30 6581 C 635.755 -0.574912 1.79099 0
M  V30 6582 O 635.113 -1.40496 1.14589 0
M  V30 6583 C 635.161 1.32208 3.3549 0
M  V30 6584 O 634.265 0.487092 4.09513 0
M  V30 6585 H 633.606 0.313894 0.585121 0
M  V30 6586 H 636.136 1.47111 1.42195 0
M  V30 6587 H 636.146 1.31201 3.86329 0
M  V30 6588 H 634.821 2.37364 3.41513 0
M  V30 6589 H 633.398 0.562372 3.68635 0
M  V30 6590 N 635.583 -1.29855 0.893053 0
M  V30 6591 C 636.546 -2.26183 0.370687 0
M  V30 6592 C 637.546 -1.53108 -0.491385 0
M  V30 6593 O 638.736 -1.71643 -0.297386 0
M  V30 6594 C 635.868 -3.37633 -0.470827 0
M  V30 6595 H 637.061 -2.73903 1.22135 0
M  V30 6596 H 634.614 -1.41183 0.67061 0
M  V30 6597 H 635.349 -2.95241 -1.34175 0
M  V30 6598 H 635.134 -3.91825 0.146784 0
M  V30 6599 H 636.624 -4.09313 -0.827825 0
M  V30 6600 N 637.061 -0.65484 -1.43351 0
M  V30 6601 C 638.008 0.0357713 -2.30772 0
M  V30 6602 C 638.978 0.813035 -1.44841 0
M  V30 6603 O 640.163 0.789314 -1.73708 0
M  V30 6604 C 637.303 0.995084 -3.30442 0
M  V30 6605 C 636.416 0.21375 -4.31471 0
M  V30 6606 C 635.551 1.16701 -5.18222 0
M  V30 6607 C 634.59 0.376201 -6.10943 0
M  V30 6608 N 633.727 1.28113 -6.90313 0
M  V30 6609 H 638.567 -0.71559 -2.89281 0
M  V30 6610 H 636.104 -0.364645 -1.42509 0
M  V30 6611 H 638.062 1.5649 -3.86739 0
M  V30 6612 H 636.692 1.7133 -2.7358 0
M  V30 6613 H 635.744 -0.472377 -3.77456 0
M  V30 6614 H 637.056 -0.401103 -4.97185 0
M  V30 6615 H 636.21 1.8074 -5.79153 0
M  V30 6616 H 634.949 1.81577 -4.52638 0
M  V30 6617 H 633.954 -0.277534 -5.49099 0
M  V30 6618 H 635.179 -0.268178 -6.7857 0
M  V30 6619 H 633.125 1.91666 -6.27376 0
M  V30 6620 H 633.042 0.720879 -7.52555 0
M  V30 6621 H 634.31 1.90962 -7.55747 0
M  V30 6622 N 638.539 1.52521 -0.396863 0
M  V30 6623 C 639.767 2.06091 0.18275 0
M  V30 6624 C 640.182 1.26796 1.39886 0
M  V30 6625 O 639.539 0.316585 1.79733 0
M  V30 6626 C 639.59 3.57362 0.545377 0
M  V30 6627 O 639.311 4.33656 -0.622428 0
M  V30 6628 C 640.812 4.27305 1.18004 0
M  V30 6629 H 638.032 0.670504 0.025789 0
M  V30 6630 H 640.576 1.96561 -0.564276 0
M  V30 6631 H 638.731 3.66941 1.2423 0
M  V30 6632 H 639.145 5.23507 -0.322662 0
M  V30 6633 H 640.619 5.34366 1.38408 0
M  V30 6634 H 641.096 3.83 2.1496 0
M  V30 6635 H 641.702 4.22064 0.523671 0
M  V30 6636 N 640.017 0.126909 1.57088 0
M  V30 6637 C 641.247 -0.535892 1.99529 0
M  V30 6638 C 641.655 -1.60259 1.00566 0
M  V30 6639 O 640.998 -1.83698 -0.00843269 0
M  V30 6640 C 641.06 -1.21374 3.38391 0
M  V30 6641 C 640.724 -0.294044 4.56053 0
M  V30 6642 C 641.721 0.470454 5.17767 0
M  V30 6643 C 639.406 -0.202808 5.0189 0
M  V30 6644 C 641.4 1.31384 6.23712 0
M  V30 6645 C 639.087 0.644203 6.07695 0
M  V30 6646 C 640.085 1.40115 6.68473 0
M  V30 6647 O 639.773 2.23408 7.72233 0
M  V30 6648 H 639.505 -0.145799 0.66009 0
M  V30 6649 H 642.059 0.212441 2.04298 0
M  V30 6650 H 640.289 -2.00931 3.30399 0
M  V30 6651 H 641.978 -1.77424 3.65069 0
M  V30 6652 H 642.744 0.409884 4.83265 0
M  V30 6653 H 638.623 -0.781688 4.54324 0
M  V30 6654 H 642.167 1.90514 6.71081 0
M  V30 6655 H 638.064 0.706137 6.41626 0
M  V30 6656 H 638.832 2.16436 7.89365 0
M  V30 6657 N 641.495 -1.56914 -0.146875 0
M  V30 6658 C 642.458 -1.97368 -1.16526 0
M  V30 6659 C 643.458 -0.860223 -1.35856 0
M  V30 6660 O 644.648 -1.12684 -1.32846 0
M  V30 6661 C 641.78 -2.28974 -2.52555 0
M  V30 6662 H 642.973 -2.88523 -0.818209 0
M  V30 6663 H 640.526 -1.5135 -0.390221 0
M  V30 6664 H 641.261 -1.40611 -2.92231 0
M  V30 6665 H 641.046 -3.10157 -2.39886 0
M  V30 6666 H 642.536 -2.61109 -3.25902 0
M  V30 6667 N 642.974 0.416227 -1.52004 0
M  V30 6668 C 644.204 1.18401 -1.69307 0
M  V30 6669 C 644.612 1.84943 -0.399072 0
M  V30 6670 O 643.955 1.72406 0.634177 0
M  V30 6671 C 644.017 2.29465 -2.76742 0
M  V30 6672 C 643.681 1.83117 -4.18709 0
M  V30 6673 C 644.678 1.32286 -5.02789 0
M  V30 6674 C 642.363 1.90167 -4.64911 0
M  V30 6675 C 644.357 0.891178 -6.31139 0
M  V30 6676 C 642.044 1.4661 -5.93253 0
M  V30 6677 C 643.042 0.961696 -6.76196 0
M  V30 6678 O 642.73 0.532388 -8.02135 0
M  V30 6679 H 642.462 0.362098 -0.570843 0
M  V30 6680 H 645.016 0.496764 -1.99302 0
M  V30 6681 H 643.246 3.01531 -2.42107 0
M  V30 6682 H 644.935 2.91252 -2.82713 0
M  V30 6683 H 645.701 1.26218 -4.68288 0
M  V30 6684 H 641.58 2.28371 -4.00459 0
M  V30 6685 H 645.124 0.496788 -6.95829 0
M  V30 6686 H 641.021 1.52355 -6.27263 0
M  V30 6687 H 641.789 0.656339 -8.15864 0
M  V30 6688 N 644.452 1.42507 0.673017 0
M  V30 6689 C 645.382 1.48916 1.79851 0
M  V30 6690 C 646.363 0.345566 1.66553 0
M  V30 6691 O 647.548 0.560116 1.85947 0
M  V30 6692 C 644.678 1.39258 3.18158 0
M  V30 6693 C 643.632 2.51662 3.46194 0
M  V30 6694 C 642.958 2.27062 4.84094 0
M  V30 6695 C 644.258 3.93968 3.42909 0
M  V30 6696 H 645.952 2.43114 1.74745 0
M  V30 6697 H 643.498 1.17013 0.839288 0
M  V30 6698 H 645.451 1.42349 3.96629 0
M  V30 6699 H 644.175 0.415542 3.23946 0
M  V30 6700 H 642.834 2.47891 2.70084 0
M  V30 6701 H 642.482 1.27648 4.86534 0
M  V30 6702 H 642.182 3.02398 5.03815 0
M  V30 6703 H 643.706 2.31905 5.64847 0
M  V30 6704 H 645.12 3.99332 4.11347 0
M  V30 6705 H 643.517 4.6917 3.74165 0
M  V30 6706 H 644.587 4.20512 2.41449 0
M  V30 6707 N 645.93 -0.909495 1.28709 0
M  V30 6708 C 647.177 -1.65905 1.16111 0
M  V30 6709 C 647.505 -1.92334 -0.289436 0
M  V30 6710 O 646.76 -1.52495 -1.22653 0
M  V30 6711 C 647.059 -3.02117 1.90945 0
M  V30 6712 C 646.725 -2.95332 3.40719 0
M  V30 6713 C 645.387 -2.93189 3.81567 0
M  V30 6714 C 647.739 -2.85264 4.36204 0
M  V30 6715 C 645.067 -2.78784 5.16233 0
M  V30 6716 C 647.419 -2.724 5.70948 0
M  V30 6717 C 646.083 -2.68617 6.11066 0
M  V30 6718 H 645.353 -0.60709 0.42488 0
M  V30 6719 H 648 -1.05932 1.59533 0
M  V30 6720 H 646.305 -3.65901 1.40085 0
M  V30 6721 H 648.002 -3.59026 1.7861 0
M  V30 6722 H 644.592 -2.97797 3.08245 0
M  V30 6723 H 648.776 -2.86005 4.05605 0
M  V30 6724 H 644.032 -2.74254 5.46438 0
M  V30 6725 H 648.206 -2.63579 6.44592 0
M  V30 6726 H 645.833 -2.57213 7.15364 0
M  V30 6727 N 647.408 -1.11026 -1.11852 0
M  V30 6728 C 648.633 -0.879064 -1.87849 0
M  V30 6729 C 649.058 0.565406 -1.79401 0
M  V30 6730 O 648.416 1.39886 -1.15333 0
M  V30 6731 C 648.464 -1.33985 -3.34784 0
M  V30 6732 O 647.568 -0.508803 -4.09249 0
M  V30 6733 H 646.909 -0.316992 -0.583448 0
M  V30 6734 H 649.439 -1.47863 -1.41413 0
M  V30 6735 H 649.449 -1.33248 -3.85628 0
M  V30 6736 H 648.124 -2.39172 -3.40249 0
M  V30 6737 H 646.701 -0.581913 -3.68332 0
M  V30 6738 N 648.886 1.2938 -0.899927 0
M  V30 6739 C 649.836 2.25311 -0.349165 0
M  V30 6740 C 650.82 1.51889 0.530892 0
M  V30 6741 O 652.012 1.73028 0.372872 0
M  V30 6742 C 649.141 3.40696 0.422055 0
M  V30 6743 C 648.227 4.21455 -0.472935 0
M  V30 6744 N 648.618 4.8048 -1.58026 0
M  V30 6745 C 646.916 4.45177 -0.270767 0
M  V30 6746 C 647.617 5.41117 -2.13465 0
M  V30 6747 N 646.593 5.24518 -1.42766 0
M  V30 6748 H 650.395 2.68507 -1.19505 0
M  V30 6749 H 647.909 1.43992 -0.751006 0
M  V30 6750 H 649.906 4.08486 0.833369 0
M  V30 6751 H 648.566 2.99037 1.2652 0
M  V30 6752 H 649.577 4.79257 -1.96299 0
M  V30 6753 H 646.254 4.14071 0.533988 0
M  V30 6754 H 647.644 5.979 -3.06537 0
M  V30 6755 N 650.364 0.662433 1.43002 0
M  V30 6756 C 651.775 0.258315 1.84904 0
M  V30 6757 C 652.126 -1.19703 1.55453 0
M  V30 6758 O 651.251 -1.91484 1.00811 0
M  V30 6759 C 651.846 0.462047 3.35635 0
M  V30 6760 C 650.405 0.112165 3.76233 0
M  V30 6761 C 649.552 0.760479 2.66668 0
M  V30 6762 H 652.503 0.865467 1.33024 0
M  V30 6763 H 652.524 -0.289646 3.79396 0
M  V30 6764 H 652.036 1.52135 3.57039 0
M  V30 6765 H 650.137 -0.944179 3.60439 0
M  V30 6766 H 650.25 0.544058 4.76001 0
M  V30 6767 H 648.614 0.192887 2.53969 0
M  V30 6768 H 649.397 1.82299 2.90898 0
M  V30 6769 N 651.842 -1.52309 0.404946 0
M  V30 6770 C 653.067 -2.06666 -0.1743 0
M  V30 6771 C 653.492 -1.27341 -1.38441 0
M  V30 6772 O 652.85 -0.302539 -1.78758 0
M  V30 6773 C 652.898 -3.57014 -0.507262 0
M  V30 6774 O 652.002 -3.80144 -1.59889 0
M  V30 6775 H 651.343 -0.663807 -0.0160273 0
M  V30 6776 H 653.873 -1.96297 0.576937 0
M  V30 6777 H 653.883 -4.00724 -0.767098 0
M  V30 6778 H 652.558 -4.14184 0.377368 0
M  V30 6779 H 651.135 -3.48316 -1.33155 0
M  V30 6780 N 653.32 -0.135238 -1.57019 0
M  V30 6781 C 654.736 0.221262 -1.58059 0
M  V30 6782 C 654.936 1.65538 -1.14889 0
M  V30 6783 O 653.992 2.37985 -0.843751 0
M  V30 6784 C 655.305 -0.0268114 -3.00688 0
M  V30 6785 C 656.853 0.0378206 -3.12977 0
M  V30 6786 C 657.328 -0.182769 -4.57635 0
M  V30 6787 N 658.819 -0.129292 -4.6302 0
M  V30 6788 C 659.554 -0.274648 -5.72742 0
M  V30 6789 N 659.05 -0.477075 -6.91155 0
M  V30 6790 N 660.843 -0.213077 -5.61696 0
M  V30 6791 H 652.994 -1.07177 -1.83376 0
M  V30 6792 H 655.257 -0.423338 -0.848227 0
M  V30 6793 H 654.963 -1.01889 -3.36618 0
M  V30 6794 H 654.837 0.697863 -3.70688 0
M  V30 6795 H 657.224 1.02043 -2.76896 0
M  V30 6796 H 657.305 -0.718996 -2.45487 0
M  V30 6797 H 656.949 -1.16243 -4.94419 0
M  V30 6798 H 656.879 0.59423 -5.23237 0
M  V30 6799 H 659.37 0.0229896 -3.77893 0
M  V30 6800 H 659.683 -0.578413 -7.70632 0
M  V30 6801 H 658.028 -0.513252 -6.93102 0
M  V30 6802 H 661.219 -0.0557796 -4.68067 0
M  V30 6803 H 661.392 -0.329796 -6.4716 0
M  V30 6804 N 654.798 1.5699 0.138552 0
M  V30 6805 C 655.731 1.94064 1.2006 0
M  V30 6806 C 656.709 0.807601 1.41126 0
M  V30 6807 O 657.893 1.06399 1.556 0
M  V30 6808 C 655.02 2.21999 2.55801 0
M  V30 6809 C 654.066 3.44617 2.5128 0
M  V30 6810 S 654.899 4.97888 1.97149 0
M  V30 6811 C 656.055 5.28954 3.34602 0
M  V30 6812 H 656.288 2.83843 0.884337 0
M  V30 6813 H 653.821 1.50507 0.344517 0
M  V30 6814 H 655.779 2.38772 3.33914 0
M  V30 6815 H 654.44 1.32869 2.84613 0
M  V30 6816 H 653.633 3.61466 3.51224 0
M  V30 6817 H 653.235 3.27129 1.8128 0
M  V30 6818 H 655.527 5.22938 4.30745 0
M  V30 6819 H 656.47 6.30346 3.22598 0
M  V30 6820 H 656.878 4.56455 3.32128 0
M  V30 6821 N 656.276 -0.40816 1.52223 0
M  V30 6822 C 657.687 -0.986929 1.58482 0
M  V30 6823 C 658.038 -1.91521 0.425917 0
M  V30 6824 O 657.163 -2.11593 -0.453593 0
M  V30 6825 C 657.758 -1.7967 2.87235 0
M  V30 6826 C 656.317 -2.32549 2.9597 0
M  V30 6827 C 655.464 -1.12558 2.53428 0
M  V30 6828 H 658.415 -0.188362 1.57578 0
M  V30 6829 H 658.436 -2.65417 2.72642 0
M  V30 6830 H 657.948 -1.12082 3.71563 0
M  V30 6831 H 656.049 -3.03505 2.16137 0
M  V30 6832 H 656.162 -2.63348 4.00231 0
M  V30 6833 H 654.526 -1.47984 2.07299 0
M  V30 6834 H 655.309 -0.465351 3.40131 0
M  V30 6835 N 657.755 -1.42862 -0.66545 0
M  V30 6836 C 659.001 -1.44043 -1.42757 0
M  V30 6837 C 659.334 -0.0599629 -1.94107 0
M  V30 6838 O 658.609 0.917286 -1.71511 0
M  V30 6839 C 658.892 -2.47266 -2.61786 0
M  V30 6840 C 658.745 -3.94539 -2.16007 0
M  V30 6841 C 660.064 -2.47365 -3.64003 0
M  V30 6842 H 657.183 -0.524506 -0.517748 0
M  V30 6843 H 659.825 -1.74335 -0.755466 0
M  V30 6844 H 657.975 -2.21565 -3.19126 0
M  V30 6845 H 659.647 -4.31254 -1.63762 0
M  V30 6846 H 657.89 -4.07957 -1.47491 0
M  V30 6847 H 658.561 -4.62357 -3.01546 0
M  V30 6848 H 661.037 -2.70243 -3.16399 0
M  V30 6849 H 659.913 -3.21552 -4.44854 0
M  V30 6850 H 660.174 -1.50299 -4.15767 0
M  V30 6851 N 659.233 0.902656 -1.29189 0
M  V30 6852 C 660.463 1.68394 -1.19695 0
M  V30 6853 C 660.871 1.87602 0.245384 0
M  V30 6854 O 660.214 1.41084 1.17648 0
M  V30 6855 C 660.276 3.09094 -1.83578 0
M  V30 6856 C 659.94 3.1313 -3.32864 0
M  V30 6857 C 660.937 2.93497 -4.29134 0
M  V30 6858 C 658.622 3.3529 -3.74013 0
M  V30 6859 C 660.616 2.95953 -5.64527 0
M  V30 6860 C 658.303 3.37377 -5.09529 0
M  V30 6861 C 659.301 3.1773 -6.04596 0
M  V30 6862 O 658.989 3.196 -7.37639 0
M  V30 6863 H 658.721 0.532815 -0.416034 0
M  V30 6864 H 661.275 1.1374 -1.71033 0
M  V30 6865 H 659.505 3.65338 -1.26747 0
M  V30 6866 H 661.194 3.69297 -1.68447 0
M  V30 6867 H 661.96 2.76192 -3.98677 0
M  V30 6868 H 657.839 3.49623 -3.00474 0
M  V30 6869 H 661.383 2.80536 -6.38706 0
M  V30 6870 H 657.28 3.54213 -5.39633 0
M  V30 6871 H 658.048 3.35887 -7.46406 0
M  V30 6872 N 660.711 1.11618 1.11262 0
M  V30 6873 C 662.122 0.881942 1.64556 0
M  V30 6874 C 662.473 -0.585442 1.87262 0
M  V30 6875 O 661.598 -1.44795 1.60821 0
M  V30 6876 C 662.193 1.59446 2.98935 0
M  V30 6877 C 660.752 1.40661 3.4913 0
M  V30 6878 C 659.899 1.63593 2.23903 0
M  V30 6879 H 662.85 1.27217 0.94877 0
M  V30 6880 H 662.871 1.04054 3.65996 0
M  V30 6881 H 662.383 2.66241 2.82378 0
M  V30 6882 H 660.484 0.360835 3.70849 0
M  V30 6883 H 660.597 2.15693 4.27801 0
M  V30 6884 H 658.961 1.05944 2.3162 0
M  V30 6885 H 659.744 2.71666 2.09886 0
M  V30 6886 N 662.189 -1.289 0.906776 0
M  V30 6887 C 663.136 -2.2751 0.388313 0
M  V30 6888 C 664.106 -1.57301 -0.533439 0
M  V30 6889 O 665.291 -1.85243 -0.457148 0
M  V30 6890 C 662.431 -3.43091 -0.37181 0
M  V30 6891 C 661.544 -4.28066 0.581647 0
M  V30 6892 C 660.679 -5.30837 -0.19623 0
M  V30 6893 C 659.718 -6.07472 0.751294 0
M  V30 6894 N 658.855 -7.021 0.00737727 0
M  V30 6895 H 663.695 -2.71237 1.23428 0
M  V30 6896 H 661.232 -1.33397 0.619962 0
M  V30 6897 H 663.19 -4.08888 -0.828641 0
M  V30 6898 H 661.82 -3.00374 -1.18218 0
M  V30 6899 H 660.872 -3.62378 1.157 0
M  V30 6900 H 662.184 -4.81382 1.30665 0
M  V30 6901 H 661.338 -6.02485 -0.71394 0
M  V30 6902 H 660.077 -4.78272 -0.954324 0
M  V30 6903 H 659.082 -5.34682 1.28044 0
M  V30 6904 H 660.307 -6.62126 1.50883 0
M  V30 6905 H 658.253 -6.51894 -0.732854 0
M  V30 6906 H 658.17 -7.53004 0.672334 0
M  V30 6907 H 659.438 -7.77956 -0.490365 0
M  V30 6908 N 663.667 -0.670007 -1.42649 0
M  V30 6909 C 664.913 -0.19923 -2.02422 0
M  V30 6910 C 665.268 1.17947 -1.52007 0
M  V30 6911 O 664.561 1.77939 -0.710512 0
M  V30 6912 C 664.755 -0.168298 -3.57004 0
M  V30 6913 C 664.584 -1.54246 -4.22419 0
M  V30 6914 C 663.354 -2.13904 -4.57792 0
M  V30 6915 C 665.552 -2.4842 -4.50324 0
M  V30 6916 N 663.534 -3.44151 -5.08364 0
M  V30 6917 C 664.905 -3.63317 -5.02395 0
M  V30 6918 C 666.96 -2.47011 -4.32308 0
M  V30 6919 C 665.663 -4.77051 -5.38345 0
M  V30 6920 C 667.689 -3.59838 -4.6933 0
M  V30 6921 C 667.051 -4.73462 -5.21549 0
M  V30 6922 H 663.15 -0.117717 -0.773089 0
M  V30 6923 H 665.734 -0.881955 -1.73579 0
M  V30 6924 H 663.905 0.483824 -3.85375 0
M  V30 6925 H 665.637 0.314914 -4.03473 0
M  V30 6926 H 662.392 -1.66441 -4.4339 0
M  V30 6927 H 662.816 -4.10846 -5.38084 0
M  V30 6928 H 667.458 -1.60394 -3.91195 0
M  V30 6929 H 665.176 -5.64347 -5.78393 0
M  V30 6930 H 668.762 -3.59969 -4.57071 0
M  V30 6931 H 667.642 -5.59321 -5.49663 0
M  V30 6932 N 665.145 1.52092 -0.413018 0
M  V30 6933 C 666.391 2.02154 0.161737 0
M  V30 6934 C 666.724 1.29789 1.44459 0
M  V30 6935 O 665.999 0.405378 1.90229 0
M  V30 6936 C 666.282 3.5781 0.405463 0
M  V30 6937 C 666.135 4.40819 -0.894335 0
M  V30 6938 C 667.454 4.23821 1.18591 0
M  V30 6939 H 664.573 0.734769 0.0573077 0
M  V30 6940 H 667.215 1.81948 -0.547247 0
M  V30 6941 H 665.365 3.75158 1.0094 0
M  V30 6942 H 667.037 4.35175 -1.53039 0
M  V30 6943 H 665.28 4.06877 -1.50444 0
M  V30 6944 H 665.951 5.47819 -0.678144 0
M  V30 6945 H 668.427 4.10596 0.674573 0
M  V30 6946 H 667.303 5.32663 1.3252 0
M  V30 6947 H 667.564 3.83038 2.20758 0
M  V30 6948 N 666.623 0.143563 1.56945 0
M  V30 6949 C 667.871 -0.507402 1.95627 0
M  V30 6950 C 668.192 -1.65626 1.02922 0
M  V30 6951 O 667.462 -1.95693 0.0901136 0
M  V30 6952 H 666.042 -0.190436 0.722318 0
M  V30 6953 H 668.704 0.218257 1.93674 0
M  V30 6954 H 667.8 -0.885816 2.99265 0
M  V30 6955 N 668.101 -1.57061 -0.130224 0
M  V30 6956 C 669.064 -1.98593 -1.14426 0
M  V30 6957 C 670.064 -0.874584 -1.34936 0
M  V30 6958 O 671.254 -1.14086 -1.31643 0
M  V30 6959 C 668.386 -2.31639 -2.50112 0
M  V30 6960 H 669.579 -2.89374 -0.787561 0
M  V30 6961 H 667.132 -1.51756 -0.374146 0
M  V30 6962 H 667.867 -1.43703 -2.90723 0
M  V30 6963 H 667.652 -3.12684 -2.36583 0
M  V30 6964 H 669.142 -2.64551 -3.23114 0
M  V30 6965 N 669.579 0.400081 -1.52437 0
M  V30 6966 C 670.856 1.15973 -1.57511 0
M  V30 6967 C 671.236 2.0798 -0.361572 0
M  V30 6968 O 670.584 2.19032 0.650929 0
M  V30 6969 C 670.794 1.92912 -2.90837 0
M  V30 6970 C 672.142 2.48662 -3.44169 0
M  V30 6971 O 673.166 2.03081 -2.92637 0
M  V30 6972 O 672.025 3.31894 -4.34176 0
M  V30 6973 H 669.119 0.530023 -0.634827 0
M  V30 6974 H 671.665 0.40613 -1.64769 0
M  V30 6975 H 670.437 1.25564 -3.70607 0
M  V30 6976 H 670.06 2.75257 -2.86913 0
M  V30 6977 N 671.057 1.43213 0.657864 0
M  V30 6978 C 672.007 1.44459 1.76396 0
M  V30 6979 C 672.991 0.313641 1.57814 0
M  V30 6980 O 674.183 0.557094 1.68004 0
M  V30 6981 C 671.312 1.36586 3.14959 0
M  V30 6982 C 670.398 2.54692 3.39106 0
M  V30 6983 N 670.789 3.80059 3.33749 0
M  V30 6984 C 669.087 2.49316 3.69807 0
M  V30 6985 C 669.788 4.58606 3.57849 0
M  V30 6986 N 668.764 3.89267 3.79437 0
M  V30 6987 H 672.566 2.39265 1.70673 0
M  V30 6988 H 670.08 1.378 0.859357 0
M  V30 6989 H 672.077 1.35561 3.94245 0
M  V30 6990 H 670.737 0.427956 3.21867 0
M  V30 6991 H 671.748 4.12414 3.13266 0
M  V30 6992 H 668.425 1.6419 3.83859 0
M  V30 6993 H 669.815 5.67619 3.59525 0
M  V30 6994 N 672.536 -0.895792 1.29666 0
M  V30 6995 C 673.499 -1.98189 1.15124 0
M  V30 6996 C 674.499 -1.60572 0.0855717 0
M  V30 6997 O 675.689 -1.70991 0.332826 0
M  V30 6998 C 672.821 -3.32289 0.761372 0
M  V30 6999 H 674.014 -2.12518 2.11603 0
M  V30 7000 H 671.567 -1.0808 1.12908 0
M  V30 7001 H 672.302 -3.23662 -0.203393 0
M  V30 7002 H 672.087 -3.60958 1.53139 0
M  V30 7003 H 673.577 -4.1198 0.682792 0
M  V30 7004 N 674.014 -1.12206 -1.10668 0
M  V30 7005 C 675.291 -0.787382 -1.79052 0
M  V30 7006 C 675.671 0.723267 -1.98323 0
M  V30 7007 O 675.019 1.6561 -1.57434 0
M  V30 7008 C 675.229 -1.55968 -3.1221 0
M  V30 7009 C 676.577 -1.74413 -3.87125 0
M  V30 7010 O 677.601 -1.5246 -3.21923 0
M  V30 7011 O 676.46 -2.10952 -5.04144 0
M  V30 7012 H 673.554 -0.286137 -0.775922 0
M  V30 7013 H 676.1 -1.22595 -1.1734 0
M  V30 7014 H 674.872 -2.58692 -2.93588 0
M  V30 7015 H 674.495 -1.1152 -3.8164 0
M  V30 7016 N 675.492 1.28418 -0.913599 0
M  V30 7017 C 676.769 1.89977 -0.465619 0
M  V30 7018 C 677.149 1.82813 1.05559 0
M  V30 7019 O 676.497 1.26397 1.90358 0
M  V30 7020 C 676.707 3.34492 -0.995813 0
M  V30 7021 C 678.055 4.11468 -1.04782 0
M  V30 7022 O 679.079 3.43451 -0.944445 0
M  V30 7023 O 677.938 5.33046 -1.20518 0
M  V30 7024 H 675.032 0.813734 -0.147532 0
M  V30 7025 H 677.578 1.36786 -1.00437 0
M  V30 7026 H 676.35 3.33929 -2.03978 0
M  V30 7027 H 675.973 3.95181 -0.437878 0
M  V30 7028 N 676.97 0.677563 1.42291 0
M  V30 7029 C 678.219 0.198173 2.00724 0
M  V30 7030 C 678.532 -1.20325 1.54211 0
M  V30 7031 O 679.738 -1.77916 2.05081 0
M  V30 7032 C 678.194 0.303432 3.58619 0
M  V30 7033 C 677.802 1.70909 4.14119 0
M  V30 7034 C 679.546 -0.117103 4.24338 0
M  V30 7035 C 677.453 1.76696 5.64387 0
M  V30 7036 H 676.383 0.070329 0.750713 0
M  V30 7037 H 679.034 0.843147 1.62982 0
M  V30 7038 H 677.416 -0.409482 3.93877 0
M  V30 7039 H 678.59 2.44931 3.90315 0
M  V30 7040 H 676.905 2.07771 3.6086 0
M  V30 7041 H 679.502 -0.0940471 5.34617 0
M  V30 7042 H 679.845 -1.15283 4.00019 0
M  V30 7043 H 680.378 0.5449 3.9405 0
M  V30 7044 H 677.117 2.7826 5.93508 0
M  V30 7045 H 676.637 1.07034 5.90173 0
M  V30 7046 H 678.316 1.52166 6.28852 0
M  V30 7047 N 678.448 -1.51871 0.421078 0
M  V30 7048 C 679.38 -2.25052 -0.434065 0
M  V30 7049 C 680.393 -1.28458 -1.00013 0
M  V30 7050 O 681.582 -1.54323 -0.897033 0
M  V30 7051 C 678.682 -2.97813 -1.61743 0
M  V30 7052 C 677.855 -4.21374 -1.17315 0
M  V30 7053 C 676.914 -4.76854 -2.22478 0
M  V30 7054 O 675.94 -5.39123 -1.82577 0
M  V30 7055 N 677.142 -4.59467 -3.54782 0
M  V30 7056 H 679.907 -2.99077 0.193073 0
M  V30 7057 H 677.468 -1.59972 0.249088 0
M  V30 7058 H 679.46 -3.3182 -2.31685 0
M  V30 7059 H 678.03 -2.26899 -2.15024 0
M  V30 7060 H 677.25 -3.93046 -0.3014 0
M  V30 7061 H 678.538 -5.01591 -0.853444 0
M  V30 7062 H 677.936 -4.09832 -3.89941 0
M  V30 7063 H 676.493 -4.9788 -4.20665 0
M  V30 7064 N 679.926 -0.151884 -1.56866 0
M  V30 7065 C 681.156 0.504081 -2.00356 0
M  V30 7066 C 681.564 1.58639 -1.03103 0
M  V30 7067 O 680.907 1.83688 -0.0207931 0
M  V30 7068 C 680.969 1.15975 -3.40279 0
M  V30 7069 C 680.633 0.221453 -4.56463 0
M  V30 7070 C 681.63 -0.552766 -5.16953 0
M  V30 7071 C 679.315 0.122936 -5.0215 0
M  V30 7072 C 681.309 -1.4129 -6.21543 0
M  V30 7073 C 678.996 -0.740801 -6.06593 0
M  V30 7074 C 679.994 -1.50732 -6.6616 0
M  V30 7075 O 679.682 -2.35666 -7.68581 0
M  V30 7076 H 679.414 0.135279 -0.662326 0
M  V30 7077 H 681.968 -0.244916 -2.03935 0
M  V30 7078 H 680.198 1.95649 -3.33554 0
M  V30 7079 H 681.887 1.71594 -3.67846 0
M  V30 7080 H 682.653 -0.486716 -4.82552 0
M  V30 7081 H 678.532 0.70931 -4.5551 0
M  V30 7082 H 682.076 -2.01166 -6.67966 0
M  V30 7083 H 677.973 -0.808125 -6.40421 0
M  V30 7084 H 678.741 -2.28967 -7.85822 0
M  V30 7085 N 681.404 1.57128 0.121893 0
M  V30 7086 C 682.65 1.84974 0.831418 0
M  V30 7087 C 682.983 0.737204 1.79663 0
M  V30 7088 O 682.258 -0.257199 1.92792 0
M  V30 7089 C 682.541 3.23397 1.58386 0
M  V30 7090 C 682.394 4.45246 0.638445 0
M  V30 7091 C 683.713 3.59355 2.54071 0
M  V30 7092 H 680.832 0.67282 0.300803 0
M  V30 7093 H 683.474 1.89759 0.0957587 0
M  V30 7094 H 681.624 3.19449 2.21098 0
M  V30 7095 H 683.296 4.61295 0.0203925 0
M  V30 7096 H 681.539 4.33771 -0.05023 0
M  V30 7097 H 682.21 5.38765 1.20151 0
M  V30 7098 H 684.686 3.64075 2.01465 0
M  V30 7099 H 683.562 4.57193 3.03752 0
M  V30 7100 H 683.823 2.86622 3.36601 0
M  V30 7101 N 682.882 -0.391992 1.52647 0
M  V30 7102 C 684.129 -1.13732 1.67545 0
M  V30 7103 C 684.457 -1.90045 0.413881 0
M  V30 7104 O 683.712 -1.86157 -0.603646 0
M  V30 7105 C 684.011 -2.14401 2.85949 0
M  V30 7106 C 683.677 -1.54767 4.23507 0
M  V30 7107 C 682.339 -1.38229 4.60919 0
M  V30 7108 C 684.691 -1.11382 5.0916 0
M  V30 7109 C 682.019 -0.7685 5.81645 0
M  V30 7110 C 684.371 -0.514143 6.30507 0
M  V30 7111 C 683.035 -0.33604 6.66654 0
M  V30 7112 H 682.305 -0.416174 0.613091 0
M  V30 7113 H 684.952 -0.422327 1.86785 0
M  V30 7114 H 683.257 -2.92108 2.61114 0
M  V30 7115 H 684.954 -2.71974 2.94671 0
M  V30 7116 H 681.544 -1.68626 3.94035 0
M  V30 7117 H 685.728 -1.22962 4.80826 0
M  V30 7118 H 680.984 -0.618681 6.08262 0
M  V30 7119 H 685.158 -0.169657 6.96193 0
M  V30 7120 H 682.785 0.14166 7.60068 0
M  V30 7121 N 684.36 -1.4356 -0.65026 0
M  V30 7122 C 685.608 -1.45046 -1.40734 0
M  V30 7123 C 685.929 -0.0769822 -1.94848 0
M  V30 7124 O 685.199 0.888098 -1.74613 0
M  V30 7125 H 683.779 -0.534034 -0.522318 0
M  V30 7126 H 686.441 -1.79186 -0.766703 0
M  V30 7127 H 685.537 -2.16476 -2.24822 0
M  V30 7128 N 685.838 0.888903 -1.30139 0
M  V30 7129 C 686.785 1.99422 -1.16188 0
M  V30 7130 C 687.755 1.66017 -0.0523869 0
M  V30 7131 O 688.94 1.89506 -0.221864 0
M  V30 7132 C 686.08 3.34325 -0.855612 0
M  V30 7133 C 685.193 3.80445 -2.0466 0
M  V30 7134 C 684.328 5.03975 -1.67876 0
M  V30 7135 C 683.367 5.42492 -2.83493 0
M  V30 7136 N 682.504 6.57206 -2.47032 0
M  V30 7137 H 687.344 2.10687 -2.10749 0
M  V30 7138 H 684.881 1.03165 -1.04859 0
M  V30 7139 H 686.839 4.11968 -0.658681 0
M  V30 7140 H 685.469 3.22756 0.0531155 0
M  V30 7141 H 684.521 2.98745 -2.3549 0
M  V30 7142 H 685.833 4.04933 -2.91257 0
M  V30 7143 H 684.987 5.89232 -1.44535 0
M  V30 7144 H 683.726 4.8135 -0.784431 0
M  V30 7145 H 682.731 4.55764 -3.07505 0
M  V30 7146 H 683.956 5.67093 -3.73607 0
M  V30 7147 H 681.902 6.36164 -1.601 0
M  V30 7148 H 681.819 6.81543 -3.27161 0
M  V30 7149 H 683.087 7.45704 -2.27038 0
M  V30 7150 N 687.317 1.12792 1.10072 0
M  V30 7151 C 688.728 0.899346 1.63611 0
M  V30 7152 C 689.079 -0.565547 1.87872 0
M  V30 7153 O 688.204 -1.43081 1.62348 0
M  V30 7154 C 688.799 1.62608 2.97227 0
M  V30 7155 C 687.358 1.44356 3.47618 0
M  V30 7156 C 686.505 1.65958 2.22156 0
M  V30 7157 H 689.456 1.28216 0.935223 0
M  V30 7158 H 689.477 1.0793 3.64872 0
M  V30 7159 H 688.989 2.69221 2.79538 0
M  V30 7160 H 687.09 0.400148 3.70445 0
M  V30 7161 H 687.203 2.20218 4.25489 0
M  V30 7162 H 685.567 1.08395 2.30484 0
M  V30 7163 H 686.35 2.73877 2.06993 0
M  V30 7164 N 688.795 -1.27931 0.920396 0
M  V30 7165 C 690.042 -1.94689 0.557007 0
M  V30 7166 C 690.37 -1.724 -0.900476 0
M  V30 7167 O 689.625 -1.04194 -1.65657 0
M  V30 7168 C 689.924 -3.47853 0.820558 0
M  V30 7169 C 689.59 -3.90252 2.25863 0
M  V30 7170 C 688.252 -4.01539 2.65179 0
M  V30 7171 C 690.604 -4.11853 3.19415 0
M  V30 7172 C 687.932 -4.3181 3.97187 0
M  V30 7173 C 690.284 -4.43606 4.50995 0
M  V30 7174 C 688.948 -4.53105 4.90155 0
M  V30 7175 H 688.218 -0.712416 0.203823 0
M  V30 7176 H 690.865 -1.52142 1.16298 0
M  V30 7177 H 689.17 -3.91578 0.131844 0
M  V30 7178 H 690.867 -3.97634 0.51847 0
M  V30 7179 H 687.457 -3.81999 1.94358 0
M  V30 7180 H 691.641 -4.0258 2.90246 0
M  V30 7181 H 686.897 -4.37371 4.2722 0
M  V30 7182 H 691.071 -4.59268 5.23494 0
M  V30 7183 H 688.698 -4.76315 5.92476 0
M  V30 7184 N 690.273 -0.685099 -1.4193 0
M  V30 7185 C 691.236 -0.0222632 -2.29189 0
M  V30 7186 C 692.236 0.7186 -1.4385 0
M  V30 7187 O 693.426 0.555058 -1.6512 0
M  V30 7188 C 690.558 0.979013 -3.2654 0
M  V30 7189 H 691.751 -0.790424 -2.89296 0
M  V30 7190 H 689.304 -0.448012 -1.49742 0
M  V30 7191 H 690.039 1.77531 -2.71392 0
M  V30 7192 H 689.824 0.451037 -3.89497 0
M  V30 7193 H 691.314 1.44091 -3.91954 0
M  V30 7194 N 691.751 1.51645 -0.429126 0
M  V30 7195 C 692.979 2.06433 0.138994 0
M  V30 7196 C 693.394 1.29735 1.37165 0
M  V30 7197 O 692.751 0.354638 1.79021 0
M  V30 7198 C 692.802 3.58439 0.469452 0
M  V30 7199 O 692.523 4.32238 -0.714273 0
M  V30 7200 C 694.024 4.29712 1.08914 0
M  V30 7201 H 691.244 0.6709 0.0115608 0
M  V30 7202 H 693.788 1.9532 -0.605843 0
M  V30 7203 H 691.943 3.69494 1.16419 0
M  V30 7204 H 692.357 5.22704 -0.433633 0
M  V30 7205 H 693.831 5.37182 1.27042 0
M  V30 7206 H 694.308 3.87473 2.06788 0
M  V30 7207 H 694.914 4.2308 0.434028 0
M  V30 7208 N 693.229 0.160201 1.56784 0
M  V30 7209 C 694.64 -0.358417 1.83227 0
M  V30 7210 C 694.991 -1.63831 1.07952 0
M  V30 7211 O 694.116 -2.13885 0.328995 0
M  V30 7212 C 694.711 -0.657058 3.32368 0
M  V30 7213 C 693.27 -1.12015 3.59346 0
M  V30 7214 C 692.417 -0.15015 2.76893 0
M  V30 7215 H 695.368 0.384669 1.53967 0
M  V30 7216 H 695.389 -1.51033 3.49241 0
M  V30 7217 H 694.901 0.274647 3.87127 0
M  V30 7218 H 693.002 -2.06734 3.09987 0
M  V30 7219 H 693.115 -1.037 4.67743 0
M  V30 7220 H 691.479 -0.645361 2.46388 0
M  V30 7221 H 692.262 0.775379 3.34429 0
M  V30 7222 N 694.707 -1.5719 -0.113559 0
M  V30 7223 C 695.935 -1.89328 -0.834422 0
M  V30 7224 C 696.35 -0.752018 -1.73177 0
M  V30 7225 O 695.707 0.276912 -1.80387 0
M  V30 7226 C 695.758 -3.20962 -1.66329 0
M  V30 7227 O 695.479 -4.30695 -0.802069 0
M  V30 7228 C 696.98 -3.6684 -2.48884 0
M  V30 7229 H 694.2 -0.626769 -0.239587 0
M  V30 7230 H 696.744 -2.04273 -0.0963195 0
M  V30 7231 H 694.899 -3.0767 -2.35409 0
M  V30 7232 H 695.313 -5.06175 -1.37431 0
M  V30 7233 H 696.787 -4.61692 -3.02563 0
M  V30 7234 H 697.264 -2.93765 -3.26495 0
M  V30 7235 H 697.87 -3.82938 -1.85036 0
M  V30 7236 N 696.185 0.383891 -1.52853 0
M  V30 7237 C 697.433 1.12619 -1.67814 0
M  V30 7238 C 697.754 1.90354 -0.423141 0
M  V30 7239 O 697.024 1.87649 0.562554 0
M  V30 7240 H 695.604 0.418738 -0.618601 0
M  V30 7241 H 698.266 0.43495 -1.89985 0
M  V30 7242 H 697.362 1.82624 -2.5309 0
M  V30 7243 N 697.663 1.43903 0.642637 0
M  V30 7244 C 698.893 1.49323 1.4278 0
M  V30 7245 C 699.301 0.113058 1.88862 0
M  V30 7246 O 698.644 -0.889089 1.60751 0
M  V30 7247 C 698.706 2.3861 2.68897 0
M  V30 7248 C 698.37 3.85976 2.44687 0
M  V30 7249 C 699.367 4.7681 2.07239 0
M  V30 7250 C 697.052 4.30567 2.58683 0
M  V30 7251 C 699.046 6.10234 1.841 0
M  V30 7252 C 696.733 5.64042 2.35159 0
M  V30 7253 C 697.731 6.53693 1.97925 0
M  V30 7254 O 697.419 7.84698 1.74654 0
M  V30 7255 H 697.151 0.509109 0.444729 0
M  V30 7256 H 699.705 1.89425 0.794195 0
M  V30 7257 H 697.935 1.93415 3.34855 0
M  V30 7258 H 699.624 2.35112 3.30873 0
M  V30 7259 H 700.39 4.43635 1.95993 0
M  V30 7260 H 696.269 3.61054 2.86637 0
M  V30 7261 H 699.813 6.80171 1.54962 0
M  V30 7262 H 695.71 5.96782 2.46011 0
M  V30 7263 H 696.478 7.96382 1.88993 0
M  V30 7264 N 699.141 -0.881989 1.30609 0
M  V30 7265 C 700.557 -1.16576 1.09005 0
M  V30 7266 C 700.757 -2.00961 -0.14727 0
M  V30 7267 O 699.813 -2.38117 -0.840036 0
M  V30 7268 C 701.126 -1.86954 2.35518 0
M  V30 7269 C 702.674 -1.99706 2.41011 0
M  V30 7270 C 703.149 -2.73497 3.67374 0
M  V30 7271 N 704.64 -2.8104 3.68199 0
M  V30 7272 C 705.375 -3.38718 4.62664 0
M  V30 7273 N 704.871 -3.97421 5.67475 0
M  V30 7274 N 706.664 -3.36561 4.50203 0
M  V30 7275 H 698.815 -0.319398 2.09985 0
M  V30 7276 H 701.078 -0.204058 0.925778 0
M  V30 7277 H 700.784 -1.32393 3.2583 0
M  V30 7278 H 700.658 -2.87317 2.44395 0
M  V30 7279 H 703.045 -2.53436 1.51176 0
M  V30 7280 H 703.126 -0.984218 2.36108 0
M  V30 7281 H 702.77 -2.20438 4.57569 0
M  V30 7282 H 702.7 -3.75163 3.6954 0
M  V30 7283 H 705.191 -2.39365 2.92426 0
M  V30 7284 H 705.504 -4.39507 6.35652 0
M  V30 7285 H 703.849 -3.95832 5.71264 0
M  V30 7286 H 707.04 -2.8993 3.67503 0
M  V30 7287 H 707.213 -3.81215 5.24003 0
M  V30 7288 N 700.619 -1.13374 -1.09472 0
M  V30 7289 C 702.03 -0.90801 -1.63132 0
M  V30 7290 C 702.381 0.555576 -1.8817 0
M  V30 7291 O 701.506 1.42218 -1.63104 0
M  V30 7292 C 702.101 -1.64182 -2.96361 0
M  V30 7293 C 700.66 -1.46197 -3.46848 0
M  V30 7294 C 699.807 -1.67134 -2.21273 0
M  V30 7295 H 702.758 -1.2871 -0.928411 0
M  V30 7296 H 702.779 -1.09863 -3.64294 0
M  V30 7297 H 702.291 -2.707 -2.78106 0
M  V30 7298 H 700.392 -0.419788 -3.70228 0
M  V30 7299 H 700.505 -2.22472 -4.24315 0
M  V30 7300 H 698.869 -1.09616 -2.29905 0
M  V30 7301 H 699.652 -2.74971 -2.05538 0
M  V30 7302 N 702.098 1.27442 -0.927168 0
M  V30 7303 C 703.03 2.25975 -0.383158 0
M  V30 7304 C 704.043 1.55382 0.485832 0
M  V30 7305 O 705.232 1.75986 0.298541 0
M  V30 7306 C 702.332 3.35629 0.469688 0
M  V30 7307 C 701.505 4.35747 -0.379886 0
M  V30 7308 C 700.564 5.24598 0.410227 0
M  V30 7309 O 699.59 5.68909 -0.181888 0
M  V30 7310 N 700.792 5.54737 1.71017 0
M  V30 7311 H 703.557 2.7329 -1.23015 0
M  V30 7312 H 701.118 1.41063 -0.794539 0
M  V30 7313 H 703.11 3.92015 1.00532 0
M  V30 7314 H 701.68 2.87919 1.21744 0
M  V30 7315 H 700.9 3.78634 -1.09682 0
M  V30 7316 H 702.188 4.99648 -0.960717 0
M  V30 7317 H 701.586 5.20594 2.21356 0
M  V30 7318 H 700.143 6.13824 2.19234 0
M  V30 7319 N 703.576 0.692616 1.41565 0
M  V30 7320 C 704.853 0.150496 1.9502 0
M  V30 7321 C 705.233 -1.33881 1.63215 0
M  V30 7322 O 704.581 -2.08378 0.937598 0
M  V30 7323 C 704.791 0.438636 3.46233 0
M  V30 7324 C 706.139 0.364777 4.2303 0
M  V30 7325 O 707.163 0.373383 3.54238 0
M  V30 7326 O 706.022 0.32234 5.45549 0
M  V30 7327 H 703.116 0.0132454 0.826894 0
M  V30 7328 H 705.662 0.768574 1.51298 0
M  V30 7329 H 704.434 1.46962 3.62654 0
M  V30 7330 H 704.057 -0.210562 3.97042 0
M  V30 7331 N 705.054 -1.51416 0.437162 0
M  V30 7332 C 706.47 -1.59349 0.0894459 0
M  V30 7333 C 706.67 -1.44809 -1.40116 0
M  V30 7334 O 705.726 -1.28924 -2.17106 0
M  V30 7335 C 707.039 -2.9446 0.609398 0
M  V30 7336 C 708.587 -3.07769 0.569824 0
M  V30 7337 C 709.062 -4.45404 1.06675 0
M  V30 7338 N 710.553 -4.51723 1.02473 0
M  V30 7339 C 711.288 -5.56544 1.3801 0
M  V30 7340 N 710.784 -6.68784 1.80831 0
M  V30 7341 N 712.577 -5.46901 1.29828 0
M  V30 7342 H 704.728 -1.59112 1.40703 0
M  V30 7343 H 706.991 -0.750031 0.579791 0
M  V30 7344 H 706.697 -3.1047 1.65231 0
M  V30 7345 H 706.571 -3.77184 0.0342236 0
M  V30 7346 H 708.958 -2.91428 -0.464107 0
M  V30 7347 H 709.039 -2.26885 1.1814 0
M  V30 7348 H 708.683 -4.62492 2.09914 0
M  V30 7349 H 708.613 -5.24827 0.431712 0
M  V30 7350 H 711.104 -3.71165 0.710258 0
M  V30 7351 H 711.417 -7.44787 2.06185 0
M  V30 7352 H 709.762 -6.69992 1.84757 0
M  V30 7353 H 712.953 -4.581 0.962397 0
M  V30 7354 H 713.126 -6.2848 1.57851 0
M  V30 7355 N 706.532 -0.168513 -1.56696 0
M  V30 7356 C 707.76 0.483503 -2.01171 0
M  V30 7357 C 708.175 1.56994 -1.04872 0
M  V30 7358 O 707.532 1.82434 -0.0491337 0
M  V30 7359 C 707.583 1.0644 -3.45475 0
M  V30 7360 O 707.304 0.0213375 -4.38095 0
M  V30 7361 C 708.805 1.79493 -4.05336 0
M  V30 7362 H 706.025 0.124002 -0.659443 0
M  V30 7363 H 708.569 -0.269419 -2.02717 0
M  V30 7364 H 706.724 1.76784 -3.44712 0
M  V30 7365 H 707.138 0.449837 -5.22567 0
M  V30 7366 H 708.612 2.15401 -5.08238 0
M  V30 7367 H 709.089 2.68889 -3.47269 0
M  V30 7368 H 709.695 1.13798 -4.09793 0
M  V30 7369 N 708.01 1.57248 0.105221 0
M  V30 7370 C 709.256 1.85845 0.811753 0
M  V30 7371 C 709.589 0.756219 1.78871 0
M  V30 7372 O 708.864 -0.236736 1.93054 0
M  V30 7373 C 709.147 3.25059 1.54947 0
M  V30 7374 C 709 4.45898 0.591185 0
M  V30 7375 C 710.319 3.6203 2.50245 0
M  V30 7376 H 707.438 0.675973 0.293649 0
M  V30 7377 H 710.08 1.89849 0.0756269 0
M  V30 7378 H 708.23 3.21776 2.17698 0
M  V30 7379 H 709.902 4.61291 -0.0285352 0
M  V30 7380 H 708.145 4.33693 -0.0962343 0
M  V30 7381 H 708.816 5.40009 1.1443 0
M  V30 7382 H 711.292 3.66192 1.97593 0
M  V30 7383 H 710.168 4.60389 2.98886 0
M  V30 7384 H 710.429 2.90176 3.33542 0
M  V30 7385 N 709.488 -0.375779 1.53054 0
M  V30 7386 C 710.713 -1.14484 1.7294 0
M  V30 7387 C 711.138 -1.82572 0.452668 0
M  V30 7388 O 710.496 -1.71343 -0.592567 0
M  V30 7389 C 710.544 -2.15857 2.88857 0
M  V30 7390 O 709.648 -3.22725 2.56753 0
M  V30 7391 H 708.989 -0.332666 0.574656 0
M  V30 7392 H 711.519 -0.436025 1.999 0
M  V30 7393 H 711.529 -2.59631 3.14731 0
M  V30 7394 H 710.204 -1.65689 3.81471 0
M  V30 7395 H 708.781 -2.83996 2.41663 0
M  V30 7396 N 710.966 -1.44241 -0.634997 0
M  V30 7397 C 711.913 -1.5081 -1.74714 0
M  V30 7398 C 712.883 -0.356147 -1.62237 0
M  V30 7399 O 714.068 -0.565848 -1.82216 0
M  V30 7400 C 711.208 -1.45458 -3.12947 0
M  V30 7401 C 710.321 -2.70998 -3.36428 0
M  V30 7402 C 709.456 -2.57507 -4.64611 0
M  V30 7403 C 708.495 -3.78229 -4.81258 0
M  V30 7404 N 707.632 -3.63438 -6.00714 0
M  V30 7405 H 712.472 -2.45832 -1.68436 0
M  V30 7406 H 710.009 -1.2201 -0.821706 0
M  V30 7407 H 711.967 -1.40347 -3.92885 0
M  V30 7408 H 710.597 -0.540058 -3.1825 0
M  V30 7409 H 709.649 -2.86312 -2.50458 0
M  V30 7410 H 710.961 -3.60619 -3.44609 0
M  V30 7411 H 710.115 -2.50207 -5.52703 0
M  V30 7412 H 708.854 -1.65441 -4.58782 0
M  V30 7413 H 707.859 -3.85918 -3.91596 0
M  V30 7414 H 709.084 -4.71327 -4.88904 0
M  V30 7415 H 707.03 -2.7412 -5.95982 0
M  V30 7416 H 706.947 -4.46672 -6.09934 0
M  V30 7417 H 708.215 -3.60022 -6.91378 0
M  V30 7418 N 712.444 0.87505 -1.31075 0
M  V30 7419 C 713.407 1.96333 -1.18263 0
M  V30 7420 C 714.407 1.60416 -0.111106 0
M  V30 7421 O 715.597 1.7044 -0.359987 0
M  V30 7422 C 712.729 3.31036 -0.81414 0
M  V30 7423 H 713.922 2.09125 -2.14958 0
M  V30 7424 H 711.475 1.06271 -1.14614 0
M  V30 7425 H 712.21 3.23944 0.151875 0
M  V30 7426 H 711.995 3.58476 -1.58862 0
M  V30 7427 H 713.485 4.10842 -0.748249 0
M  V30 7428 N 713.922 1.13953 1.08869 0
M  V30 7429 C 714.855 0.765765 2.14968 0
M  V30 7430 C 715.833 -0.250689 1.60656 0
M  V30 7431 O 717.017 -0.140852 1.87973 0
M  V30 7432 C 714.144 0.136146 3.38426 0
M  V30 7433 C 713.19 1.12201 4.11477 0
M  V30 7434 S 714.023 2.65711 4.64928 0
M  V30 7435 C 715.179 2.04125 5.91679 0
M  V30 7436 H 715.412 1.66444 2.46341 0
M  V30 7437 H 712.945 0.960263 1.20906 0
M  V30 7438 H 714.903 -0.220712 4.09906 0
M  V30 7439 H 713.564 -0.739887 3.05261 0
M  V30 7440 H 712.757 0.629398 5.00055 0
M  V30 7441 H 712.359 1.42262 3.45886 0
M  V30 7442 H 714.651 1.39381 6.63008 0
M  V30 7443 H 715.594 2.90808 6.45629 0
M  V30 7444 H 716.002 1.4905 5.44467 0
M  V30 7445 N 715.4 -1.26948 0.933913 0
M  V30 7446 C 716.649 -1.93378 0.573409 0
M  V30 7447 C 716.962 -1.74148 -0.890614 0
M  V30 7448 O 718.168 -2.34971 -1.36017 0
M  V30 7449 C 716.624 -3.46449 0.974747 0
M  V30 7450 C 716.232 -3.74425 2.45988 0
M  V30 7451 C 717.976 -4.18924 0.685791 0
M  V30 7452 C 715.883 -5.209 2.8003 0
M  V30 7453 H 714.813 -0.723952 0.210736 0
M  V30 7454 H 717.464 -1.44143 1.13557 0
M  V30 7455 H 715.846 -3.94528 0.341181 0
M  V30 7456 H 717.02 -3.37079 3.14188 0
M  V30 7457 H 715.335 -3.15167 2.72138 0
M  V30 7458 H 717.932 -5.26786 0.916546 0
M  V30 7459 H 718.275 -4.14587 -0.377217 0
M  V30 7460 H 718.808 -3.76687 1.27874 0
M  V30 7461 H 715.547 -5.30332 3.85264 0
M  V30 7462 H 715.067 -5.59369 2.16485 0
M  V30 7463 H 716.746 -5.88837 2.68105 0
M  V30 7464 N 716.879 -0.700114 -1.41195 0
M  V30 7465 C 717.842 -0.0465706 -2.29153 0
M  V30 7466 C 718.842 0.703302 -1.44604 0
M  V30 7467 O 720.032 0.537513 -1.657 0
M  V30 7468 C 717.164 0.944324 -3.2756 0
M  V30 7469 H 718.357 -0.821064 -2.88442 0
M  V30 7470 H 715.91 -0.463869 -1.49258 0
M  V30 7471 H 716.645 1.74642 -2.73259 0
M  V30 7472 H 716.43 0.409701 -3.89954 0
M  V30 7473 H 717.92 1.39925 -3.9346 0
M  V30 7474 N 718.357 1.51182 -0.445186 0
M  V30 7475 C 719.587 2.06269 0.116922 0
M  V30 7476 C 719.995 1.31188 1.36332 0
M  V30 7477 O 719.338 0.367067 1.79995 0
M  V30 7478 C 719.4 3.56051 0.496757 0
M  V30 7479 C 719.064 4.52441 -0.64394 0
M  V30 7480 C 720.061 4.97233 -1.5184 0
M  V30 7481 C 717.746 4.95447 -0.826905 0
M  V30 7482 C 719.74 5.83712 -2.56046 0
M  V30 7483 C 717.427 5.81714 -1.87222 0
M  V30 7484 C 718.425 6.25745 -2.73738 0
M  V30 7485 O 718.113 7.10298 -3.76474 0
M  V30 7486 H 717.845 0.675954 0.00785733 0
M  V30 7487 H 720.399 1.95648 -0.625371 0
M  V30 7488 H 718.629 3.64483 1.29187 0
M  V30 7489 H 720.318 3.93618 0.990928 0
M  V30 7490 H 721.084 4.64696 -1.38862 0
M  V30 7491 H 716.963 4.60712 -0.163052 0
M  V30 7492 H 720.507 6.18 -3.23607 0
M  V30 7493 H 716.404 6.13664 -2.00218 0
M  V30 7494 H 717.172 7.28493 -3.73149 0
M  V30 7495 N 719.835 0.176821 1.56605 0
M  V30 7496 C 721.081 -0.460868 1.9811 0
M  V30 7497 C 721.436 -1.60488 1.06119 0
M  V30 7498 O 720.729 -1.91329 0.101939 0
M  V30 7499 C 720.923 -0.986208 3.43524 0
M  V30 7500 C 720.752 0.105368 4.49577 0
M  V30 7501 C 719.522 0.556883 5.02222 0
M  V30 7502 C 721.72 0.907756 5.06226 0
M  V30 7503 N 719.702 1.62819 5.91915 0
M  V30 7504 C 721.073 1.82887 5.92412 0
M  V30 7505 C 723.128 0.952221 4.8871 0
M  V30 7506 C 721.831 2.7907 6.62957 0
M  V30 7507 C 723.857 1.90202 5.5998 0
M  V30 7508 C 723.219 2.8106 6.45898 0
M  V30 7509 H 719.318 -0.136589 0.769979 0
M  V30 7510 H 721.902 0.278307 1.92701 0
M  V30 7511 H 720.073 -1.69489 3.49468 0
M  V30 7512 H 721.805 -1.59298 3.7203 0
M  V30 7513 H 718.56 0.153575 4.73351 0
M  V30 7514 H 718.984 2.1645 6.41466 0
M  V30 7515 H 723.626 0.263794 4.21976 0
M  V30 7516 H 721.344 3.48898 7.28901 0
M  V30 7517 H 724.93 1.9426 5.48411 0
M  V30 7518 H 723.81 3.53357 7.00077 0
M  V30 7519 N 721.313 -1.57302 -0.09688 0
M  V30 7520 C 722.541 -1.90202 -0.814295 0
M  V30 7521 C 722.956 -0.770344 -1.72369 0
M  V30 7522 O 722.313 0.257764 -1.8067 0
M  V30 7523 C 722.364 -3.22708 -1.62916 0
M  V30 7524 O 722.085 -4.31522 -0.756343 0
M  V30 7525 C 723.586 -3.69459 -2.44979 0
M  V30 7526 H 720.806 -0.629275 -0.232925 0
M  V30 7527 H 723.35 -2.04364 -0.0746482 0
M  V30 7528 H 721.505 -3.1015 -2.32133 0
M  V30 7529 H 721.919 -5.07604 -1.32054 0
M  V30 7530 H 723.393 -4.64875 -2.9765 0
M  V30 7531 H 723.87 -2.97211 -3.23361 0
M  V30 7532 H 724.476 -3.84879 -1.80964 0
M  V30 7533 N 722.791 0.367657 -1.53252 0
M  V30 7534 C 723.739 1.47061 -1.8021 0
M  V30 7535 C 724.733 1.55539 -0.671112 0
M  V30 7536 O 725.939 1.58451 -0.854014 0
M  V30 7537 H 722.314 0.489868 -0.570555 0
M  V30 7538 H 724.285 1.21527 -2.72532 0
M  V30 7539 C 723.034 2.83924 -2.00706 0
M  V30 7540 H 722.357 2.78158 -2.87172 0
M  V30 7541 H 723.797 3.60281 -2.23547 0
M  V30 7542 C 722.256 3.27613 -0.785568 0
M  V30 7543 O 722.786 4.01691 0.0267459 0
M  V30 7544 N 720.992 2.84134 -0.609597 0
M  V30 7545 H 720.539 2.24017 -1.27178 0
M  V30 7546 H 720.497 3.13723 0.206281 0
M  V30 7547 N 724.269 1.44576 0.627338 0
M  V30 7548 C 725.516 1.47558 1.38682 0
M  V30 7549 C 725.844 0.109636 1.94191 0
M  V30 7550 O 725.099 -0.889092 1.74338 0
M  V30 7551 C 725.398 2.48644 2.56731 0
M  V30 7552 C 725.064 3.93873 2.19489 0
M  V30 7553 C 723.726 4.33421 2.09045 0
M  V30 7554 C 726.078 4.85286 1.90124 0
M  V30 7555 C 723.406 5.62303 1.6743 0
M  V30 7556 C 725.758 6.14559 1.50001 0
M  V30 7557 C 724.422 6.53058 1.38101 0
M  V30 7558 H 723.692 0.539955 0.507474 0
M  V30 7559 H 726.339 1.77811 0.711021 0
M  V30 7560 H 724.644 2.11889 3.29561 0
M  V30 7561 H 726.341 2.48197 3.14959 0
M  V30 7562 H 722.931 3.62587 2.28537 0
M  V30 7563 H 727.115 4.55483 1.971 0
M  V30 7564 H 722.371 5.90945 1.56823 0
M  V30 7565 H 726.545 6.84848 1.26319 0
M  V30 7566 H 724.172 7.52826 1.05628 0
M  V30 7567 N 725.747 -0.868086 1.31537 0
M  V30 7568 C 726.71 -1.95703 1.19302 0
M  V30 7569 C 727.71 -1.60355 0.119612 0
M  V30 7570 O 728.9 -1.70247 0.36902 0
M  V30 7571 C 726.032 -3.30599 0.831684 0
M  V30 7572 H 727.225 -2.07982 2.16064 0
M  V30 7573 H 724.778 -1.05661 1.15176 0
M  V30 7574 H 725.513 -3.2402 -0.134694 0
M  V30 7575 H 725.298 -3.57629 1.60761 0
M  V30 7576 H 726.788 -4.10439 0.770026 0
M  V30 7577 N 727.225 -1.14528 -1.08264 0
M  V30 7578 C 728.172 -0.833556 -2.15222 0
M  V30 7579 C 729.142 0.209539 -1.64773 0
M  V30 7580 O 730.327 0.0791388 -1.90636 0
M  V30 7581 C 727.467 -0.318799 -3.43624 0
M  V30 7582 C 726.58 -1.42237 -4.07913 0
M  V30 7583 C 725.715 -0.864704 -5.24115 0
M  V30 7584 C 724.754 -1.94585 -5.80347 0
M  V30 7585 N 723.891 -1.40525 -6.87893 0
M  V30 7586 H 728.731 -1.74965 -2.41228 0
M  V30 7587 H 726.268 -0.873169 -1.18381 0
M  V30 7588 H 728.226 -0.00213088 -4.172 0
M  V30 7589 H 726.856 0.560397 -3.17898 0
M  V30 7590 H 725.908 -1.8554 -3.32083 0
M  V30 7591 H 727.22 -2.23901 -4.45724 0
M  V30 7592 H 726.374 -0.500025 -6.04636 0
M  V30 7593 H 725.113 -0.0171219 -4.87697 0
M  V30 7594 H 724.118 -2.31946 -4.98479 0
M  V30 7595 H 725.343 -2.79704 -6.18823 0
M  V30 7596 H 723.289 -0.579873 -6.53432 0
M  V30 7597 H 723.206 -2.15825 -7.24538 0
M  V30 7598 H 724.474 -1.06852 -7.72142 0
M  V30 7599 N 728.703 1.26451 -0.940633 0
M  V30 7600 C 729.931 1.97868 -0.604642 0
M  V30 7601 C 730.346 1.70051 0.820251 0
M  V30 7602 O 729.703 0.96843 1.54686 0
M  V30 7603 C 729.754 3.51684 -0.836689 0
M  V30 7604 O 729.475 3.78533 -2.20554 0
M  V30 7605 C 730.976 4.40343 -0.511169 0
M  V30 7606 H 728.196 0.631105 -0.227919 0
M  V30 7607 H 730.74 1.60979 -1.26119 0
M  V30 7608 H 728.895 3.86736 -0.226759 0
M  V30 7609 H 729.309 4.73065 -2.26517 0
M  V30 7610 H 730.783 5.47229 -0.724157 0
M  V30 7611 H 731.26 4.35694 0.553815 0
M  V30 7612 H 731.866 4.10834 -1.0998 0
M  V30 7613 N 730.181 0.707592 1.40822 0
M  V30 7614 C 731.429 0.243189 2.00632 0
M  V30 7615 C 731.75 -1.16512 1.56365 0
M  V30 7616 O 731.02 -1.78841 0.799553 0
M  V30 7617 H 729.6 0.0869203 0.741926 0
M  V30 7618 H 732.262 0.911438 1.72275 0
M  V30 7619 H 731.358 0.270014 3.1093 0
M  V30 7620 N 731.66 -1.50943 0.453197 0
M  V30 7621 C 732.937 -1.94872 -0.168633 0
M  V30 7622 C 733.317 -1.39272 -1.5864 0
M  V30 7623 O 732.665 -0.586272 -2.20851 0
M  V30 7624 C 732.875 -3.48757 -0.130217 0
M  V30 7625 C 734.223 -4.23331 -0.327975 0
M  V30 7626 O 735.247 -3.55594 -0.207619 0
M  V30 7627 O 734.106 -5.43529 -0.569077 0
M  V30 7628 H 731.2 -0.818042 -0.121394 0
M  V30 7629 H 733.746 -1.61782 0.512316 0
M  V30 7630 H 732.518 -3.81725 0.860346 0
M  V30 7631 H 732.141 -3.88333 -0.853397 0
M  V30 7632 N 733.138 -0.185124 -1.56509 0
M  V30 7633 C 734.549 0.329221 -1.83774 0
M  V30 7634 C 734.9 1.62093 -1.10545 0
M  V30 7635 O 734.025 2.13334 -0.36298 0
M  V30 7636 C 734.62 0.604099 -3.33371 0
M  V30 7637 C 733.179 1.06284 -3.61083 0
M  V30 7638 C 732.326 0.10608 -2.77097 0
M  V30 7639 H 735.277 -0.409116 -1.53336 0
M  V30 7640 H 735.298 1.45458 -3.51599 0
M  V30 7641 H 734.81 -0.336201 -3.86641 0
M  V30 7642 H 732.911 2.01777 -3.13236 0
M  V30 7643 H 733.024 0.962453 -4.69333 0
M  V30 7644 H 731.388 0.606082 -2.47384 0
M  V30 7645 H 732.171 -0.828486 -3.33153 0
M  V30 7646 N 734.616 1.57351 0.0885366 0
M  V30 7647 C 735.564 2.03542 1.12576 0
M  V30 7648 C 736.558 0.937668 1.41082 0
M  V30 7649 O 737.764 1.12283 1.40686 0
M  V30 7650 H 734.139 0.648752 0.380296 0
M  V30 7651 H 736.11 2.89833 0.709906 0
M  V30 7652 C 734.859 2.4811 2.43591 0
M  V30 7653 H 734.182 3.32164 2.22502 0
M  V30 7654 H 735.622 2.842 3.14653 0
M  V30 7655 C 734.081 1.35708 3.08359 0
M  V30 7656 O 734.611 0.689852 3.95732 0
M  V30 7657 N 732.817 1.10641 2.68713 0
M  V30 7658 H 732.364 1.6508 1.97753 0
M  V30 7659 H 732.322 0.356355 3.12374 0
M  V30 7660 N 736.094 -0.359525 1.53444 0
M  V30 7661 C 737.027 -1.46338 1.75101 0
M  V30 7662 C 738.005 -1.51142 0.599559 0
M  V30 7663 O 739.189 -1.69102 0.832862 0
M  V30 7664 C 736.316 -2.84667 1.83527 0
M  V30 7665 C 735.362 -2.9756 3.05549 0
M  V30 7666 S 736.195 -2.65685 4.64943 0
M  V30 7667 C 737.351 -4.06153 4.76225 0
M  V30 7668 H 737.584 -1.27747 2.68455 0
M  V30 7669 H 735.117 -0.554231 1.4411 0
M  V30 7670 H 737.075 -3.64368 1.89067 0
M  V30 7671 H 735.736 -3.00564 0.912147 0
M  V30 7672 H 734.929 -3.98883 3.08072 0
M  V30 7673 H 734.531 -2.25789 2.98153 0
M  V30 7674 H 736.823 -5.00475 4.56652 0
M  V30 7675 H 737.766 -4.08632 5.78295 0
M  V30 7676 H 738.174 -3.93435 4.04808 0
M  V30 7677 N 737.572 -1.44907 -0.619662 0
M  V30 7678 C 738.82 -1.47999 -1.37625 0
M  V30 7679 C 739.141 -0.118295 -1.94641 0
M  V30 7680 O 738.411 0.85086 -1.76457 0
M  V30 7681 H 736.991 -0.544993 -0.510873 0
M  V30 7682 H 739.653 -1.80772 -0.728522 0
M  V30 7683 H 738.749 -2.21196 -2.20179 0
M  V30 7684 N 739.05 0.861098 -1.31996 0
M  V30 7685 C 740.327 1.59788 -1.12814 0
M  V30 7686 C 740.707 2.08753 0.313882 0
M  V30 7687 O 740.055 1.87258 1.30946 0
M  V30 7688 C 740.265 2.74901 -2.15012 0
M  V30 7689 C 741.613 3.44643 -2.48004 0
M  V30 7690 O 742.637 2.85119 -2.13508 0
M  V30 7691 O 741.496 4.52044 -3.07113 0
M  V30 7692 H 738.59 0.703408 -0.434909 0
M  V30 7693 H 741.136 0.905788 -1.43505 0
M  V30 7694 H 739.908 2.36198 -3.11971 0
M  V30 7695 H 739.531 3.51792 -1.85279 0
M  V30 7696 N 740.528 1.15101 1.07655 0
M  V30 7697 C 741.753 0.948177 1.84457 0
M  V30 7698 C 742.178 -0.498432 1.81376 0
M  V30 7699 O 741.536 -1.35509 1.20445 0
M  V30 7700 C 741.584 1.46318 3.29581 0
M  V30 7701 O 740.688 0.660342 4.07079 0
M  V30 7702 H 740.029 0.338428 0.571281 0
M  V30 7703 H 742.559 1.5301 1.35828 0
M  V30 7704 H 742.569 1.47468 3.80417 0
M  V30 7705 H 741.244 2.51635 3.31138 0
M  V30 7706 H 739.821 0.718216 3.65918 0
M  V30 7707 N 742.006 -1.2595 0.947325 0
M  V30 7708 C 742.969 -2.24407 0.466285 0
M  V30 7709 C 743.969 -1.55054 -0.426005 0
M  V30 7710 O 745.159 -1.7275 -0.224319 0
M  V30 7711 C 742.291 -3.39326 -0.327201 0
M  V30 7712 H 743.484 -2.68477 1.33642 0
M  V30 7713 H 741.037 -1.38211 0.729887 0
M  V30 7714 H 741.772 -3.00667 -1.21532 0
M  V30 7715 H 741.557 -3.9085 0.312839 0
M  V30 7716 H 743.047 -4.12455 -0.653477 0
M  V30 7717 N 743.484 -0.715051 -1.40445 0
M  V30 7718 C 744.73 -0.254705 -2.01194 0
M  V30 7719 C 745.063 1.14894 -1.56567 0
M  V30 7720 O 744.338 1.77933 -0.785491 0
M  V30 7721 C 744.621 -0.334148 -3.58546 0
M  V30 7722 C 744.474 -1.77613 -4.13248 0
M  V30 7723 C 745.793 0.294968 -4.3911 0
M  V30 7724 H 742.912 -0.094025 -0.730978 0
M  V30 7725 H 745.554 -0.907449 -1.66929 0
M  V30 7726 H 743.704 0.221609 -3.87867 0
M  V30 7727 H 745.376 -2.38723 -3.94727 0
M  V30 7728 H 743.619 -2.30402 -3.67556 0
M  V30 7729 H 744.29 -1.78311 -5.22407 0
M  V30 7730 H 746.766 -0.178563 -4.15717 0
M  V30 7731 H 745.642 0.208934 -5.48502 0
M  V30 7732 H 745.903 1.37841 -4.20062 0
M  V30 7733 N 744.962 1.50701 -0.461195 0
M  V30 7734 C 746.373 1.867 -0.00370227 0
M  V30 7735 C 746.724 1.37673 1.39787 0
M  V30 7736 O 745.849 0.737515 2.03445 0
M  V30 7737 C 746.444 3.388 5.75786e-05 0
M  V30 7738 C 745.003 3.74247 0.402044 0
M  V30 7739 C 744.15 2.74549 -0.389652 0
M  V30 7740 H 747.101 1.43585 -0.675942 0
M  V30 7741 H 747.122 3.719 0.804414 0
M  V30 7742 H 746.634 3.74452 -1.02015 0
M  V30 7743 H 744.735 3.44192 1.42697 0
M  V30 7744 H 744.848 4.78973 0.110265 0
M  V30 7745 H 743.212 2.54226 0.155314 0
M  V30 7746 H 743.995 3.13044 -1.40919 0
M  V30 7747 N 746.441 0.193421 1.56409 0
M  V30 7748 C 747.669 -0.451438 2.01915 0
M  V30 7749 C 748.084 -1.55306 1.07357 0
M  V30 7750 O 747.441 -1.82333 0.0781512 0
M  V30 7751 C 747.492 -1.00931 3.47124 0
M  V30 7752 O 747.213 0.0483623 4.38073 0
M  V30 7753 C 748.714 -1.73021 4.0814 0
M  V30 7754 H 745.934 -0.113495 0.661332 0
M  V30 7755 H 748.478 0.301636 2.02263 0
M  V30 7756 H 746.633 -1.71277 3.47481 0
M  V30 7757 H 747.047 -0.366644 5.23217 0
M  V30 7758 H 748.521 -2.07289 5.11601 0
M  V30 7759 H 748.998 -2.6333 3.51502 0
M  V30 7760 H 749.604 -1.07264 4.11551 0
M  V30 7761 N 747.919 -1.57396 -0.0801906 0
M  V30 7762 C 748.869 -1.9955 -1.10289 0
M  V30 7763 C 749.853 -0.876234 -1.34948 0
M  V30 7764 O 751.045 -1.14012 -1.35389 0
M  V30 7765 C 748.174 -2.43596 -2.419 0
M  V30 7766 C 747.26 -3.6224 -2.20551 0
M  V30 7767 N 747.651 -4.76693 -1.69109 0
M  V30 7768 C 745.949 -3.68627 -2.51059 0
M  V30 7769 C 746.65 -5.58577 -1.62379 0
M  V30 7770 N 745.626 -5.02178 -2.0813 0
M  V30 7771 H 749.428 -2.85483 -0.698335 0
M  V30 7772 H 746.942 -1.59837 -0.287395 0
M  V30 7773 H 748.939 -2.72031 -3.15919 0
M  V30 7774 H 747.599 -1.59047 -2.8308 0
M  V30 7775 H 748.61 -4.9915 -1.38092 0
M  V30 7776 H 745.287 -2.94772 -2.95661 0
M  V30 7777 H 746.677 -6.60447 -1.2353 0
M  V30 7778 N 749.397 0.351382 -1.53633 0
M  V30 7779 C 750.643 1.09049 -1.71697 0
M  V30 7780 C 750.998 1.86563 -0.470314 0
M  V30 7781 O 750.291 1.83922 0.536954 0
M  V30 7782 C 750.485 2.06744 -2.91533 0
M  V30 7783 C 750.314 1.38832 -4.27733 0
M  V30 7784 C 749.084 1.13646 -4.92354 0
M  V30 7785 C 751.282 0.818602 -5.07743 0
M  V30 7786 N 749.264 0.422324 -6.12446 0
M  V30 7787 C 750.635 0.234602 -6.19556 0
M  V30 7788 C 752.69 0.718679 -4.92686 0
M  V30 7789 C 751.393 -0.439592 -7.17955 0
M  V30 7790 C 753.419 0.0582402 -5.91371 0
M  V30 7791 C 752.781 -0.514823 -7.02516 0
M  V30 7792 H 748.88 0.383697 -0.681396 0
M  V30 7793 H 751.464 0.375063 -1.91053 0
M  V30 7794 H 749.635 2.75586 -2.73691 0
M  V30 7795 H 751.367 2.73436 -2.98353 0
M  V30 7796 H 748.122 1.4215 -4.51764 0
M  V30 7797 H 748.546 0.0802092 -6.76952 0
M  V30 7798 H 753.188 1.14748 -4.06931 0
M  V30 7799 H 750.906 -0.880307 -8.03291 0
M  V30 7800 H 754.492 -0.0183382 -5.81797 0
M  V30 7801 H 753.372 -1.01777 -7.77567 0
M  V30 7802 N 750.875 1.45233 0.611969 0
M  V30 7803 C 751.785 1.56098 1.7513 0
M  V30 7804 C 752.801 0.445646 1.68196 0
M  V30 7805 O 753.977 0.705718 1.88631 0
M  V30 7806 C 751.042 1.52052 3.11579 0
M  V30 7807 C 750.103 2.74589 3.29999 0
M  V30 7808 C 749.336 2.70726 4.59938 0
M  V30 7809 O 749.559 1.77806 5.41979 0
M  V30 7810 O 748.493 3.61864 4.80976 0
M  V30 7811 H 752.319 2.52392 1.68914 0
M  V30 7812 H 749.904 1.27695 0.775528 0
M  V30 7813 H 751.786 1.52387 3.92882 0
M  V30 7814 H 750.461 0.589085 3.18295 0
M  V30 7815 H 749.368 2.79817 2.48301 0
M  V30 7816 H 750.701 3.66843 3.28157 0
M  V30 7817 N 752.353 -0.854086 1.3245 0
M  V30 7818 C 753.764 -1.42427 1.20712 0
M  V30 7819 C 754.115 -1.95371 -0.18013 0
M  V30 7820 O 753.24 -1.87587 -1.07889 0
M  V30 7821 C 753.835 -2.58897 2.18536 0
M  V30 7822 C 752.394 -3.11913 2.10683 0
M  V30 7823 C 751.541 -1.84661 2.06871 0
M  V30 7824 H 754.492 -0.661192 1.4427 0
M  V30 7825 H 754.513 -3.36074 1.78422 0
M  V30 7826 H 754.025 -2.20333 3.19492 0
M  V30 7827 H 752.126 -3.55059 1.12977 0
M  V30 7828 H 752.239 -3.73119 3.00532 0
M  V30 7829 H 750.603 -2.04285 1.52118 0
M  V30 7830 H 751.386 -1.48314 3.09609 0
M  V30 7831 N 753.831 -1.1567 -1.07043 0
M  V30 7832 C 755.061 -0.956083 -1.83146 0
M  V30 7833 C 755.469 0.498969 -1.82502 0
M  V30 7834 O 754.812 1.35791 -1.23719 0
M  V30 7835 C 754.874 -1.39704 -3.31245 0
M  V30 7836 C 754.538 -2.87045 -3.55604 0
M  V30 7837 C 755.535 -3.85092 -3.49285 0
M  V30 7838 C 753.22 -3.24787 -3.8317 0
M  V30 7839 C 755.214 -5.18885 -3.70185 0
M  V30 7840 C 752.901 -4.58751 -4.03721 0
M  V30 7841 C 753.899 -5.55609 -3.97224 0
M  V30 7842 O 753.587 -6.87154 -4.17223 0
M  V30 7843 H 753.319 -0.339473 -0.58458 0
M  V30 7844 H 755.873 -1.53922 -1.36005 0
M  V30 7845 H 754.103 -0.757326 -3.79212 0
M  V30 7846 H 755.792 -1.16503 -3.88821 0
M  V30 7847 H 756.558 -3.5728 -3.27988 0
M  V30 7848 H 752.437 -2.49979 -3.87339 0
M  V30 7849 H 755.981 -5.94473 -3.6503 0
M  V30 7850 H 751.878 -4.86277 -4.24505 0
M  V30 7851 H 752.646 -6.93618 -4.34553 0
M  V30 7852 N 755.309 1.25446 -0.953992 0
M  V30 7853 C 756.537 1.97215 -0.625595 0
M  V30 7854 C 756.952 1.70911 0.802168 0
M  V30 7855 O 756.309 0.984782 1.5365 0
M  V30 7856 C 756.36 3.50777 -0.873943 0
M  V30 7857 O 756.081 3.76173 -2.24556 0
M  V30 7858 C 757.582 4.39776 -0.557845 0
M  V30 7859 H 754.802 0.628652 -0.2346 0
M  V30 7860 H 757.346 1.59632 -1.27819 0
M  V30 7861 H 755.501 3.86474 -0.267765 0
M  V30 7862 H 755.915 4.70636 -2.31522 0
M  V30 7863 H 757.389 5.46431 -0.782157 0
M  V30 7864 H 757.866 4.36257 0.507573 0
M  V30 7865 H 758.472 4.09644 -1.14332 0
M  V30 7866 N 756.787 0.722489 1.40064 0
M  V30 7867 C 758.015 0.274838 2.05066 0
M  V30 7868 C 758.43 -1.08586 1.54449 0
M  V30 7869 O 757.787 -1.68375 0.704003 0
M  V30 7870 C 757.838 0.253673 3.60609 0
M  V30 7871 O 757.559 1.56064 4.0936 0
M  V30 7872 C 759.06 -0.211684 4.42794 0
M  V30 7873 H 756.28 0.12226 0.659768 0
M  V30 7874 H 758.824 0.982632 1.79345 0
M  V30 7875 H 756.979 -0.405137 3.85276 0
M  V30 7876 H 757.393 1.46576 5.03603 0
M  V30 7877 H 758.867 -0.175341 5.51721 0
M  V30 7878 H 759.344 -1.25493 4.2089 0
M  V30 7879 H 759.95 0.4171 4.2325 0
M  V30 7880 N 758.265 -1.50454 0.469181 0
M  V30 7881 C 759.175 -2.32248 -0.331349 0
M  V30 7882 C 760.191 -1.42548 -0.997807 0
M  V30 7883 O 761.367 -1.75602 -0.9862 0
M  V30 7884 C 758.432 -3.17171 -1.40012 0
M  V30 7885 C 757.493 -4.2269 -0.750463 0
M  V30 7886 C 756.726 -5.03554 -1.76831 0
M  V30 7887 O 756.949 -4.85469 -2.99459 0
M  V30 7888 O 755.883 -5.86767 -1.3412 0
M  V30 7889 H 759.709 -3.01821 0.337279 0
M  V30 7890 H 757.294 -1.47602 0.231066 0
M  V30 7891 H 759.176 -3.69871 -2.01924 0
M  V30 7892 H 757.851 -2.50328 -2.05226 0
M  V30 7893 H 756.758 -3.73986 -0.0924446 0
M  V30 7894 H 758.091 -4.91997 -0.14131 0
M  V30 7895 N 759.743 -0.201713 -1.56304 0
M  V30 7896 C 760.691 0.733133 -2.20744 0
M  V30 7897 C 761.685 1.2148 -1.18064 0
M  V30 7898 O 762.891 1.17692 -1.36193 0
M  V30 7899 H 759.266 0.254789 -0.707521 0
M  V30 7900 H 761.237 0.165996 -2.97938 0
M  V30 7901 C 759.986 1.93925 -2.88597 0
M  V30 7902 H 759.309 1.5777 -3.67353 0
M  V30 7903 H 760.749 2.57158 -3.37114 0
M  V30 7904 C 759.208 2.78219 -1.89989 0
M  V30 7905 O 759.738 3.76353 -1.40432 0
M  V30 7906 N 757.944 2.43847 -1.58072 0
M  V30 7907 H 757.491 1.64103 -1.98565 0
M  V30 7908 H 757.449 3.0053 -0.923524 0
M  V30 7909 N 761.222 1.57436 0.0718424 0
M  V30 7910 C 762.447 1.91858 0.787745 0
M  V30 7911 C 762.872 0.798119 1.70328 0
M  V30 7912 O 762.23 -0.24905 1.79581 0
M  V30 7913 C 762.278 3.25232 1.55744 0
M  V30 7914 O 761.382 3.14462 2.6681 0
M  V30 7915 H 760.723 0.628258 0.214914 0
M  V30 7916 H 763.253 2.04561 0.0401012 0
M  V30 7917 H 763.263 3.59105 1.9367 0
M  V30 7918 H 761.938 4.0636 0.885691 0
M  V30 7919 H 760.515 2.92148 2.31741 0
M  V30 7920 N 762.7 -0.34323 1.53817 0
M  V30 7921 C 763.948 -1.0813 1.70741 0
M  V30 7922 C 764.269 -1.89165 0.473461 0
M  V30 7923 O 763.539 -1.89075 -0.512605 0
M  V30 7924 H 762.119 -0.40219 0.629486 0
M  V30 7925 H 764.781 -0.384426 1.91071 0
M  V30 7926 H 763.877 -1.7585 2.57843 0
M  V30 7927 N 764.178 -1.45556 -0.604258 0
M  V30 7928 C 765.408 -1.53056 -1.38771 0
M  V30 7929 C 765.816 -0.163092 -1.88496 0
M  V30 7930 O 765.159 0.846157 -1.63052 0
M  V30 7931 C 765.221 -2.45656 -2.62476 0
M  V30 7932 C 764.885 -3.92328 -2.34367 0
M  V30 7933 C 765.882 -4.82137 -1.94525 0
M  V30 7934 C 763.567 -4.37275 -2.47177 0
M  V30 7935 C 765.561 -6.14901 -1.67856 0
M  V30 7936 C 763.248 -5.70079 -2.20122 0
M  V30 7937 C 764.246 -6.58711 -1.80524 0
M  V30 7938 O 763.934 -7.89053 -1.53788 0
M  V30 7939 H 763.666 -0.520721 -0.431075 0
M  V30 7940 H 766.22 -1.91464 -0.743693 0
M  V30 7941 H 764.45 -2.02225 -3.29609 0
M  V30 7942 H 766.139 -2.43802 -3.24523 0
M  V30 7943 H 766.905 -4.48675 -1.84162 0
M  V30 7944 H 762.784 -3.68527 -2.76964 0
M  V30 7945 H 766.328 -6.8404 -1.36874 0
M  V30 7946 H 762.225 -6.03095 -2.30102 0
M  V30 7947 H 762.993 -8.01113 -1.67812 0
M  V30 7948 N 765.656 0.84705 -1.32902 0
M  V30 7949 C 766.586 1.97166 -1.25091 0
M  V30 7950 C 767.567 1.69578 -0.133161 0
M  V30 7951 O 768.752 1.91519 -0.321591 0
M  V30 7952 C 765.882 3.33157 -0.981006 0
M  V30 7953 C 764.836 3.75119 -2.06082 0
M  V30 7954 C 764.162 5.08826 -1.64318 0
M  V30 7955 C 765.462 3.89774 -3.47669 0
M  V30 7956 H 767.156 2.03958 -2.19184 0
M  V30 7957 H 764.702 0.979907 -1.05517 0
M  V30 7958 H 766.655 4.11393 -0.912891 0
M  V30 7959 H 765.379 3.266 -0.00445559 0
M  V30 7960 H 764.038 2.9914 -2.11921 0
M  V30 7961 H 763.686 4.98732 -0.653876 0
M  V30 7962 H 763.386 5.37873 -2.36572 0
M  V30 7963 H 764.91 5.89546 -1.58958 0
M  V30 7964 H 766.324 4.58343 -3.44376 0
M  V30 7965 H 764.721 4.30248 -4.18338 0
M  V30 7966 H 765.791 2.92463 -3.86773 0
M  V30 7967 N 767.134 1.16236 1.06428 0
M  V30 7968 C 768.044 0.881976 2.1739 0
M  V30 7969 C 769.06 -0.145259 1.73393 0
M  V30 7970 O 770.236 0.0310558 2.01376 0
M  V30 7971 C 767.301 0.385496 3.4455 0
M  V30 7972 C 766.362 1.47779 4.03063 0
M  V30 7973 C 765.595 1.0049 5.24154 0
M  V30 7974 O 765.818 -0.145889 5.70213 0
M  V30 7975 O 764.752 1.79265 5.74585 0
M  V30 7976 H 768.578 1.80983 2.43883 0
M  V30 7977 H 766.163 0.942226 1.15942 0
M  V30 7978 H 768.045 0.115536 4.21242 0
M  V30 7979 H 766.72 -0.514369 3.19587 0
M  V30 7980 H 765.627 1.80147 3.27869 0
M  V30 7981 H 766.96 2.35291 4.32318 0
M  V30 7982 N 768.612 -1.24939 0.960631 0
M  V30 7983 C 769.861 -1.92118 0.614298 0
M  V30 7984 C 770.174 -1.75998 -0.853474 0
M  V30 7985 O 771.38 -2.37804 -1.31003 0
M  V30 7986 C 769.836 -3.44303 1.04801 0
M  V30 7987 C 769.444 -3.69123 2.53875 0
M  V30 7988 C 771.188 -4.17375 0.774497 0
M  V30 7989 C 769.095 -5.14843 2.91016 0
M  V30 7990 H 768.025 -0.719319 0.226045 0
M  V30 7991 H 770.676 -1.41701 1.16589 0
M  V30 7992 H 769.058 -3.93715 0.42479 0
M  V30 7993 H 770.232 -3.30339 3.21267 0
M  V30 7994 H 768.547 -3.09323 2.78762 0
M  V30 7995 H 771.144 -5.24723 1.02808 0
M  V30 7996 H 771.487 -4.15294 -0.289192 0
M  V30 7997 H 772.02 -3.7389 1.35835 0
M  V30 7998 H 768.759 -5.2204 3.96427 0
M  V30 7999 H 768.279 -5.54652 2.28302 0
M  V30 8000 H 769.958 -5.83017 2.80535 0
M  V30 8001 N 770.09 -0.729906 -1.39679 0
M  V30 8002 C 771.318 -0.285709 -2.04918 0
M  V30 8003 C 771.733 1.07765 -1.55023 0
M  V30 8004 O 771.09 1.67999 -0.712923 0
M  V30 8005 C 771.141 -0.272793 -3.60469 0
M  V30 8006 O 770.862 -1.58233 -4.08527 0
M  V30 8007 C 772.363 0.188199 -4.429 0
M  V30 8008 H 769.583 -0.125758 -0.65911 0
M  V30 8009 H 772.127 -0.992129 -1.78821 0
M  V30 8010 H 770.282 0.384699 -3.85485 0
M  V30 8011 H 770.696 -1.49245 -5.02818 0
M  V30 8012 H 772.17 0.14608 -5.51807 0
M  V30 8013 H 772.647 1.2326 -4.21549 0
M  V30 8014 H 773.253 -0.439541 -4.23023 0
M  V30 8015 N 771.568 1.50203 -0.477153 0
M  V30 8016 C 772.515 2.28656 0.31386 0
M  V30 8017 C 773.485 1.33977 0.981802 0
M  V30 8018 O 774.67 1.62919 0.993072 0
M  V30 8019 C 771.81 3.16027 1.38639 0
M  V30 8020 C 770.923 4.25743 0.732615 0
M  V30 8021 C 770.058 5.00363 1.78355 0
M  V30 8022 C 769.097 6.01945 1.11035 0
M  V30 8023 N 768.234 6.6982 2.10441 0
M  V30 8024 H 773.074 2.958 -0.361445 0
M  V30 8025 H 770.611 1.45867 -0.190093 0
M  V30 8026 H 772.569 3.6504 2.01994 0
M  V30 8027 H 771.199 2.50917 2.03077 0
M  V30 8028 H 770.251 3.80398 -0.0136546 0
M  V30 8029 H 771.563 4.98393 0.201513 0
M  V30 8030 H 770.717 5.53124 2.49276 0
M  V30 8031 H 769.456 4.27432 2.34847 0
M  V30 8032 H 768.461 5.48438 0.386797 0
M  V30 8033 H 769.686 6.76851 0.552248 0
M  V30 8034 H 767.632 5.99677 2.65939 0
M  V30 8035 H 767.549 7.38366 1.62332 0
M  V30 8036 H 768.817 7.27196 2.80724 0
M  V30 8037 N 773.046 0.209999 1.56195 0
M  V30 8038 C 773.993 -0.704854 2.19774 0
M  V30 8039 C 774.963 -1.19886 1.14964 0
M  V30 8040 O 776.148 -1.26005 1.43274 0
M  V30 8041 C 773.288 -1.91241 2.87265 0
M  V30 8042 C 772.401 -1.45838 4.06639 0
M  V30 8043 C 771.536 -2.6226 4.61945 0
M  V30 8044 C 770.575 -2.13537 5.73645 0
M  V30 8045 N 769.712 -3.2319 6.23292 0
M  V30 8046 H 774.552 -0.155944 2.97592 0
M  V30 8047 H 772.089 -0.0652235 1.46955 0
M  V30 8048 H 774.047 -2.62123 3.24573 0
M  V30 8049 H 772.677 -2.43439 2.11985 0
M  V30 8050 H 771.729 -0.644897 3.74894 0
M  V30 8051 H 773.041 -1.06103 4.87384 0
M  V30 8052 H 772.195 -3.41243 5.01636 0
M  V30 8053 H 770.934 -3.05278 3.80338 0
M  V30 8054 H 769.939 -1.33013 5.33468 0
M  V30 8055 H 771.164 -1.71533 6.57079 0
M  V30 8056 H 769.11 -3.65711 5.44602 0
M  V30 8057 H 769.027 -2.8767 6.99129 0
M  V30 8058 H 770.295 -4.02342 6.67639 0
M  V30 8059 N 774.524 -1.57472 -0.0634922 0
M  V30 8060 C 775.457 -1.99571 -1.10664 0
M  V30 8061 C 776.435 -0.874015 -1.37112 0
M  V30 8062 O 777.619 -1.13702 -1.50347 0
M  V30 8063 C 774.746 -2.3395 -2.44918 0
M  V30 8064 C 773.792 -3.56213 -2.34551 0
M  V30 8065 S 774.625 -5.06727 -1.73169 0
M  V30 8066 C 775.781 -5.44316 -3.08984 0
M  V30 8067 H 776.014 -2.87739 -0.747905 0
M  V30 8068 H 773.547 -1.5198 -0.272316 0
M  V30 8069 H 775.505 -2.54431 -3.22141 0
M  V30 8070 H 774.166 -1.46297 -2.7795 0
M  V30 8071 H 773.359 -3.77812 -3.33578 0
M  V30 8072 H 772.961 -3.35406 -1.65466 0
M  V30 8073 H 775.253 -5.42894 -4.05305 0
M  V30 8074 H 776.196 -6.4502 -2.92156 0
M  V30 8075 H 776.604 -4.71781 -3.09972 0
M  V30 8076 N 776.003 0.335068 -1.53997 0
M  V30 8077 C 777.251 1.07223 -1.71312 0
M  V30 8078 C 777.572 1.88911 -0.483486 0
M  V30 8079 O 776.842 1.89344 0.50257 0
M  V30 8080 H 775.422 0.398846 -0.63161 0
M  V30 8081 H 778.084 0.374288 -1.91272 0
M  V30 8082 H 777.18 1.7448 -2.58772 0
M  V30 8083 N 777.481 1.45874 0.596531 0
M  V30 8084 C 778.706 1.54247 1.38646 0
M  V30 8085 C 779.131 0.179571 1.87241 0
M  V30 8086 O 778.489 -0.837831 1.6078 0
M  V30 8087 C 778.537 2.54015 2.55946 0
M  V30 8088 O 777.641 2.06561 3.5694 0
M  V30 8089 H 776.982 0.519555 0.413471 0
M  V30 8090 H 779.512 1.91327 0.724936 0
M  V30 8091 H 779.522 2.73179 3.03047 0
M  V30 8092 H 778.197 3.52994 2.19928 0
M  V30 8093 H 776.774 1.97324 3.16414 0
M  V30 8094 N 778.959 -0.83999 1.33349 0
M  V30 8095 C 780.184 -1.63249 1.27924 0
M  V30 8096 C 780.609 -1.87523 -0.147193 0
M  V30 8097 O 779.967 -1.43853 -1.10345 0
M  V30 8098 C 780.015 -2.96046 2.05886 0
M  V30 8099 O 779.119 -3.87303 1.4167 0
M  V30 8100 H 778.46 -0.49715 0.440157 0
M  V30 8101 H 780.99 -1.04512 1.75893 0
M  V30 8102 H 781 -3.45752 2.16609 0
M  V30 8103 H 779.675 -2.77701 3.09605 0
M  V30 8104 H 778.252 -3.45789 1.39585 0
M  V30 8105 N 780.437 -1.16799 -1.0581 0
M  V30 8106 C 781.662 -0.977402 -1.82925 0
M  V30 8107 C 782.087 0.469514 -1.82146 0
M  V30 8108 O 781.445 1.33576 -1.22585 0
M  V30 8109 C 781.493 -1.51543 -3.27211 0
M  V30 8110 O 780.597 -0.725021 -4.05977 0
M  V30 8111 H 779.938 -0.347474 -0.565825 0
M  V30 8112 H 782.468 -1.55151 -1.33376 0
M  V30 8113 H 782.478 -1.53502 -3.78023 0
M  V30 8114 H 781.153 -2.56872 -3.27093 0
M  V30 8115 H 779.73 -0.77634 -3.64729 0
M  V30 8116 N 781.915 1.24427 -0.967243 0
M  V30 8117 C 782.848 2.23885 -0.441683 0
M  V30 8118 C 783.826 1.55231 0.483963 0
M  V30 8119 O 785.01 1.83865 0.415445 0
M  V30 8120 C 782.137 3.36755 0.362458 0
M  V30 8121 C 781.183 4.23495 -0.505407 0
M  V30 8122 S 782.016 4.98916 -1.94534 0
M  V30 8123 C 783.172 6.15245 -1.14997 0
M  V30 8124 H 783.405 2.68118 -1.28453 0
M  V30 8125 H 780.938 1.337 -0.772243 0
M  V30 8126 H 782.896 4.02218 0.820445 0
M  V30 8127 H 781.557 2.91081 1.18027 0
M  V30 8128 H 780.75 5.03876 0.111979 0
M  V30 8129 H 780.352 3.63032 -0.899104 0
M  V30 8130 H 782.644 6.7629 -0.404769 0
M  V30 8131 H 783.587 6.81343 -1.92814 0
M  V30 8132 H 783.995 5.60455 -0.674543 0
M  V30 8133 N 783.393 0.737304 1.3929 0
M  V30 8134 C 784.34 0.0988364 2.30588 0
M  V30 8135 C 785.31 -0.727206 1.49335 0
M  V30 8136 O 786.495 -0.686694 1.78014 0
M  V30 8137 C 783.635 -0.800734 3.35682 0
M  V30 8138 C 782.748 0.0381731 4.31983 0
M  V30 8139 C 781.883 -0.862884 5.24145 0
M  V30 8140 C 780.922 -0.0193639 6.12097 0
M  V30 8141 N 780.059 -0.87648 6.96608 0
M  V30 8142 H 784.899 0.883031 2.84617 0
M  V30 8143 H 782.436 0.447111 1.4014 0
M  V30 8144 H 784.394 -1.33676 3.95205 0
M  V30 8145 H 783.024 -1.55088 2.83103 0
M  V30 8146 H 782.076 0.691641 3.74059 0
M  V30 8147 H 783.388 0.690294 4.94 0
M  V30 8148 H 782.542 -1.46667 5.88705 0
M  V30 8149 H 781.281 -1.54878 4.62454 0
M  V30 8150 H 780.286 0.597202 5.46547 0
M  V30 8151 H 781.511 0.663348 6.75852 0
M  V30 8152 H 779.457 -1.54762 6.37483 0
M  V30 8153 H 779.374 -0.280892 7.55478 0
M  V30 8154 H 780.642 -1.46575 7.65595 0
M  V30 8155 N 784.871 -1.49948 0.485112 0
M  V30 8156 C 786.287 -1.58984 0.140096 0
M  V30 8157 C 786.487 -1.49194 -1.35438 0
M  V30 8158 O 785.543 -1.35765 -2.12894 0
M  V30 8159 C 786.856 -2.92372 0.702769 0
M  V30 8160 C 788.404 -3.05801 0.66745 0
M  V30 8161 C 788.879 -4.41785 1.20791 0
M  V30 8162 N 790.37 -4.48234 1.16792 0
M  V30 8163 C 791.105 -5.51871 1.55646 0
M  V30 8164 N 790.601 -6.62692 2.02016 0
M  V30 8165 N 792.394 -5.42494 1.47161 0
M  V30 8166 H 784.545 -1.54555 1.45693 0
M  V30 8167 H 786.808 -0.731206 0.603359 0
M  V30 8168 H 786.514 -3.05056 1.75025 0
M  V30 8169 H 786.388 -3.76885 0.154205 0
M  V30 8170 H 788.775 -2.92757 -0.371157 0
M  V30 8171 H 788.856 -2.23011 1.25298 0
M  V30 8172 H 788.5 -4.55579 2.24522 0
M  V30 8173 H 788.43 -5.23188 0.598464 0
M  V30 8174 H 790.921 -3.68718 0.827982 0
M  V30 8175 H 791.234 -7.3785 2.29775 0
M  V30 8176 H 789.579 -6.63775 2.05979 0
M  V30 8177 H 792.77 -4.54806 1.10765 0
M  V30 8178 H 792.943 -6.2314 1.77766 0
M  V30 8179 N 786.349 -0.21828 -1.56081 0
M  V30 8180 C 787.574 0.422302 -2.03055 0
M  V30 8181 C 787.999 1.5279 -1.09713 0
M  V30 8182 O 787.357 1.81102 -0.0847187 0
M  V30 8183 C 787.405 0.934177 -3.48289 0
M  V30 8184 O 786.509 2.04574 -3.58083 0
M  V30 8185 H 785.85 0.0959764 -0.657027 0
M  V30 8186 H 788.38 -0.335958 -2.01823 0
M  V30 8187 H 788.39 1.24484 -3.88546 0
M  V30 8188 H 787.065 0.124963 -4.15712 0
M  V30 8189 H 785.642 1.74196 -3.29712 0
M  V30 8190 N 787.827 1.57504 0.0551401 0
M  V30 8191 C 788.757 2.07864 1.06372 0
M  V30 8192 C 789.738 0.975565 1.39344 0
M  V30 8193 O 790.923 1.24929 1.48682 0
M  V30 8194 C 788.053 2.53643 2.3724 0
M  V30 8195 C 787.007 3.67978 2.18578 0
M  V30 8196 C 786.333 3.9987 3.54976 0
M  V30 8197 C 787.633 4.97405 1.59329 0
M  V30 8198 H 789.327 2.92379 0.644595 0
M  V30 8199 H 786.873 1.40654 0.308619 0
M  V30 8200 H 788.826 2.8749 3.08103 0
M  V30 8201 H 787.55 1.66177 2.81163 0
M  V30 8202 H 786.209 3.3444 1.50152 0
M  V30 8203 H 785.857 3.0951 3.965 0
M  V30 8204 H 785.557 4.76867 3.43324 0
M  V30 8205 H 787.081 4.36228 4.27244 0
M  V30 8206 H 788.495 5.29375 2.20078 0
M  V30 8207 H 786.892 5.78837 1.58327 0
M  V30 8208 H 787.962 4.81697 0.55638 0
M  V30 8209 N 789.305 -0.326896 1.54172 0
M  V30 8210 C 790.721 -0.671034 1.44808 0
M  V30 8211 C 790.921 -1.91781 0.618258 0
M  V30 8212 O 789.977 -2.52235 0.115751 0
M  V30 8213 C 791.29 -0.848147 2.88491 0
M  V30 8214 C 792.838 -0.945702 2.98371 0
M  V30 8215 C 793.313 -1.15501 4.43197 0
M  V30 8216 N 794.804 -1.22183 4.46795 0
M  V30 8217 C 795.539 -1.4016 5.56006 0
M  V30 8218 N 795.035 -1.55202 6.75192 0
M  V30 8219 N 796.828 -1.42841 5.43648 0
M  V30 8220 H 788.979 0.49262 2.06608 0
M  V30 8221 H 791.242 0.158574 0.934643 0
M  V30 8222 H 790.948 -0.00329969 3.517 0
M  V30 8223 H 790.822 -1.74497 3.34411 0
M  V30 8224 H 793.209 -1.78106 2.35292 0
M  V30 8225 H 793.29 -0.0254215 2.55787 0
M  V30 8226 H 792.934 -0.324521 5.06862 0
M  V30 8227 H 792.864 -2.08911 4.83388 0
M  V30 8228 H 795.355 -1.12016 3.60917 0
M  V30 8229 H 795.668 -1.68601 7.54184 0
M  V30 8230 H 794.013 -1.52306 6.78106 0
M  V30 8231 H 797.204 -1.30683 4.49488 0
M  V30 8232 H 797.377 -1.56509 6.28816 0
M  V30 8233 N 790.784 -1.46188 -0.588786 0
M  V30 8234 C 792.012 -1.54743 -1.37339 0
M  V30 8235 C 792.427 -0.186446 -1.87877 0
M  V30 8236 O 791.784 0.815247 -1.63279 0
M  V30 8237 C 791.835 -2.54727 -2.56508 0
M  V30 8238 O 791.556 -3.85539 -2.08066 0
M  V30 8239 C 793.057 -2.73163 -3.49137 0
M  V30 8240 H 790.277 -0.523484 -0.419768 0
M  V30 8241 H 792.821 -1.91543 -0.716345 0
M  V30 8242 H 790.976 -2.20948 -3.18215 0
M  V30 8243 H 791.39 -4.39905 -2.85629 0
M  V30 8244 H 792.864 -3.47057 -4.2925 0
M  V30 8245 H 793.341 -1.79856 -4.00685 0
M  V30 8246 H 793.947 -3.08014 -2.9327 0
M  V30 8247 N 792.262 0.832906 -1.33792 0
M  V30 8248 C 793.21 1.96455 -1.24532 0
M  V30 8249 C 794.204 1.68774 -0.145455 0
M  V30 8250 O 795.41 1.77314 -0.309797 0
M  V30 8251 H 791.785 0.645008 -0.386611 0
M  V30 8252 H 793.756 2.01389 -2.20193 0
M  V30 8253 C 792.505 3.32784 -1.00748 0
M  V30 8254 H 791.828 3.54626 -1.84609 0
M  V30 8255 H 793.268 4.12447 -0.98301 0
M  V30 8256 C 791.727 3.35654 0.289475 0
M  V30 8257 O 792.257 3.80281 1.29419 0
M  V30 8258 N 790.463 2.88843 0.3191 0
M  V30 8259 H 790.01 2.52719 -0.499069 0
M  V30 8260 H 789.968 2.91145 1.18667 0
M  V30 8261 N 793.74 1.17359 1.05189 0
M  V30 8262 C 794.987 0.961987 1.78191 0
M  V30 8263 C 795.315 -0.509363 1.87712 0
M  V30 8264 O 794.57 -1.39425 1.37329 0
M  V30 8265 C 794.869 1.54821 3.22126 0
M  V30 8266 C 794.535 3.04378 3.32663 0
M  V30 8267 C 793.197 3.45201 3.35246 0
M  V30 8268 C 795.549 4.00387 3.33677 0
M  V30 8269 C 792.877 4.80629 3.36471 0
M  V30 8270 C 795.229 5.35715 3.36441 0
M  V30 8271 C 793.893 5.76002 3.37311 0
M  V30 8272 H 793.163 0.352016 0.652047 0
M  V30 8273 H 795.81 1.46249 1.23627 0
M  V30 8274 H 794.115 0.969432 3.79617 0
M  V30 8275 H 795.812 1.36004 3.77232 0
M  V30 8276 H 792.402 2.71836 3.31366 0
M  V30 8277 H 796.586 3.69906 3.30882 0
M  V30 8278 H 791.842 5.11155 3.35455 0
M  V30 8279 H 796.016 6.09886 3.36173 0
M  V30 8280 H 793.643 6.80919 3.38013 0
M  V30 8281 N 795.218 -1.23913 0.973828 0
M  V30 8282 C 796.148 -2.27453 0.527969 0
M  V30 8283 C 797.129 -1.6443 -0.435513 0
M  V30 8284 O 798.314 -1.9137 -0.330306 0
M  V30 8285 C 795.444 -3.4685 -0.176757 0
M  V30 8286 C 794.398 -4.22181 0.703352 0
M  V30 8287 C 793.724 -5.34534 -0.133215 0
M  V30 8288 C 795.024 -4.82865 1.99096 0
M  V30 8289 H 796.718 -2.65 1.3934 0
M  V30 8290 H 794.264 -1.27388 0.671446 0
M  V30 8291 H 796.217 -4.18424 -0.499934 0
M  V30 8292 H 794.941 -3.08346 -1.07659 0
M  V30 8293 H 793.6 -3.52416 1.00989 0
M  V30 8294 H 793.248 -4.92271 -1.03338 0
M  V30 8295 H 792.948 -5.85855 0.452494 0
M  V30 8296 H 794.472 -6.08933 -0.450924 0
M  V30 8297 H 795.886 -5.46481 1.73297 0
M  V30 8298 H 794.283 -5.44444 2.52389 0
M  V30 8299 H 795.353 -4.03977 2.68199 0
M  V30 8300 N 796.696 -0.74468 -1.38897 0
M  V30 8301 C 798.112 -0.421302 -1.53939 0
M  V30 8302 C 798.312 1.06668 -1.70951 0
M  V30 8303 O 797.368 1.85278 -1.71547 0
M  V30 8304 C 798.681 -1.21278 -2.75159 0
M  V30 8305 C 800.229 -1.20196 -2.89001 0
M  V30 8306 C 800.704 -1.97621 -4.13171 0
M  V30 8307 N 802.195 -1.94836 -4.2023 0
M  V30 8308 C 802.93 -2.51545 -5.15279 0
M  V30 8309 N 802.426 -3.1693 -6.16058 0
M  V30 8310 N 804.219 -2.41524 -5.07565 0
M  V30 8311 H 796.37 -1.70914 -1.26103 0
M  V30 8312 H 798.633 -0.724058 -0.611919 0
M  V30 8313 H 798.339 -2.26609 -2.68963 0
M  V30 8314 H 798.213 -0.823677 -3.68097 0
M  V30 8315 H 800.6 -0.156742 -2.94683 0
M  V30 8316 H 800.681 -1.63051 -1.97099 0
M  V30 8317 H 800.325 -3.02149 -4.0825 0
M  V30 8318 H 800.255 -1.52166 -5.04136 0
M  V30 8319 H 802.746 -1.4721 -3.48048 0
M  V30 8320 H 803.059 -3.57644 -6.85062 0
M  V30 8321 H 801.404 -3.21023 -6.16417 0
M  V30 8322 H 804.595 -1.90077 -4.27771 0
M  V30 8323 H 804.768 -2.86016 -5.81462 0
M  V30 8324 N 798.174 1.49689 -0.493057 0
M  V30 8325 C 799.404 2.06536 0.0512397 0
M  V30 8326 C 799.812 1.35459 1.32089 0
M  V30 8327 O 799.155 0.424145 1.78736 0
M  V30 8328 C 799.217 3.57452 0.383231 0
M  V30 8329 C 798.881 4.50163 -0.787555 0
M  V30 8330 C 799.878 4.92151 -1.67582 0
M  V30 8331 C 797.563 4.92565 -0.984109 0
M  V30 8332 C 799.557 5.7527 -2.74487 0
M  V30 8333 C 797.244 5.75463 -2.05634 0
M  V30 8334 C 798.242 6.16719 -2.93507 0
M  V30 8335 O 797.93 6.97961 -3.98881 0
M  V30 8336 H 797.662 0.675862 -0.0136516 0
M  V30 8337 H 800.216 1.9356 -0.687298 0
M  V30 8338 H 798.446 3.68408 1.17526 0
M  V30 8339 H 800.135 3.96572 0.8652 0
M  V30 8340 H 800.901 4.60043 -1.53575 0
M  V30 8341 H 796.78 4.5996 -0.309541 0
M  V30 8342 H 800.324 6.07392 -3.43104 0
M  V30 8343 H 796.221 6.06983 -2.19639 0
M  V30 8344 H 796.989 7.16253 -3.96137 0
M  V30 8345 N 799.652 0.226554 1.55963 0
M  V30 8346 C 800.898 -0.397608 1.99476 0
M  V30 8347 C 801.253 -1.57031 1.11172 0
M  V30 8348 O 800.546 -1.90907 0.162757 0
M  V30 8349 C 800.74 -0.87642 3.46488 0
M  V30 8350 C 800.569 0.248344 4.49014 0
M  V30 8351 C 799.339 0.71638 5.00196 0
M  V30 8352 C 801.537 1.06835 5.03081 0
M  V30 8353 N 799.519 1.81568 5.86435 0
M  V30 8354 C 800.89 2.01641 5.86294 0
M  V30 8355 C 802.945 1.10722 4.85433 0
M  V30 8356 C 801.648 3.0002 6.53743 0
M  V30 8357 C 803.674 2.07921 5.53645 0
M  V30 8358 C 803.036 3.01466 6.3663 0
M  V30 8359 H 799.135 -0.112024 0.773935 0
M  V30 8360 H 801.719 0.339472 1.91718 0
M  V30 8361 H 799.89 -1.58285 3.54684 0
M  V30 8362 H 801.622 -1.47382 3.76909 0
M  V30 8363 H 798.377 0.30409 4.72623 0
M  V30 8364 H 798.801 2.36748 6.34255 0
M  V30 8365 H 803.443 0.397909 4.20923 0
M  V30 8366 H 801.161 3.71911 7.17432 0
M  V30 8367 H 804.747 2.11609 5.41953 0
M  V30 8368 H 803.627 3.75451 6.88481 0
M  V30 8369 N 801.13 -1.57531 -0.0467866 0
M  V30 8370 C 802.358 -1.92696 -0.753371 0
M  V30 8371 C 802.773 -0.824792 -1.69831 0
M  V30 8372 O 802.13 0.200155 -1.81399 0
M  V30 8373 C 802.181 -3.27728 -1.52566 0
M  V30 8374 O 801.902 -4.3371 -0.618674 0
M  V30 8375 C 803.403 -3.77066 -2.33101 0
M  V30 8376 H 800.623 -0.636367 -0.212788 0
M  V30 8377 H 803.167 -2.04498 -0.00959361 0
M  V30 8378 H 801.322 -3.17378 -2.22148 0
M  V30 8379 H 801.736 -5.11548 -1.15839 0
M  V30 8380 H 803.21 -4.74109 -2.82709 0
M  V30 8381 H 803.687 -3.07348 -3.13741 0
M  V30 8382 H 804.293 -3.90442 -1.68628 0
M  V30 8383 N 802.608 0.318715 -1.54344 0
M  V30 8384 C 803.538 1.39751 -1.87061 0
M  V30 8385 C 804.519 1.53741 -0.727848 0
M  V30 8386 O 805.704 1.67541 -0.982016 0
M  V30 8387 C 802.834 2.76446 -2.10226 0
M  V30 8388 C 801.788 2.77239 -3.26071 0
M  V30 8389 C 801.114 4.17056 -3.34617 0
M  V30 8390 C 802.414 2.40555 -4.63606 0
M  V30 8391 H 804.108 1.12619 -2.77412 0
M  V30 8392 H 801.654 0.540318 -1.33479 0
M  V30 8393 H 803.607 3.51985 -2.31699 0
M  V30 8394 H 802.331 3.05066 -1.16629 0
M  V30 8395 H 800.99 2.04155 -3.04493 0
M  V30 8396 H 800.638 4.42824 -2.3857 0
M  V30 8397 H 800.338 4.18492 -4.12478 0
M  V30 8398 H 801.862 4.94401 -3.5833 0
M  V30 8399 H 803.276 3.05808 -4.84927 0
M  V30 8400 H 801.673 2.53234 -5.44052 0
M  V30 8401 H 802.743 1.35698 -4.65526 0
M  V30 8402 N 804.086 1.46499 0.581025 0
M  V30 8403 C 805.314 1.5547 1.36517 0
M  V30 8404 C 805.729 0.196407 1.87776 0
M  V30 8405 O 805.086 -0.806577 1.63709 0
M  V30 8406 C 805.137 2.56084 2.55154 0
M  V30 8407 O 804.858 3.86637 2.06018 0
M  V30 8408 C 806.359 2.75011 3.47683 0
M  V30 8409 H 803.579 0.525703 0.416986 0
M  V30 8410 H 806.123 1.9192 0.706177 0
M  V30 8411 H 804.278 2.22633 3.17039 0
M  V30 8412 H 804.692 4.41413 2.83292 0
M  V30 8413 H 806.166 3.49329 4.27403 0
M  V30 8414 H 806.643 1.81978 3.99726 0
M  V30 8415 H 807.249 3.09565 2.91632 0
M  V30 8416 N 805.565 -0.825799 1.34232 0
M  V30 8417 C 806.795 -1.61129 1.29309 0
M  V30 8418 C 807.203 -1.88714 -0.135589 0
M  V30 8419 O 806.546 -1.47703 -1.09222 0
M  V30 8420 C 806.608 -2.97866 2.01287 0
M  V30 8421 C 806.272 -2.9319 3.50555 0
M  V30 8422 C 807.269 -2.67978 4.45515 0
M  V30 8423 C 804.954 -3.12913 3.92926 0
M  V30 8424 C 806.948 -2.62536 5.80822 0
M  V30 8425 C 804.635 -3.07096 5.28333 0
M  V30 8426 C 805.633 -2.8194 6.22092 0
M  V30 8427 O 805.321 -2.7605 7.55018 0
M  V30 8428 H 805.053 -0.507652 0.446391 0
M  V30 8429 H 807.607 -1.03575 1.77374 0
M  V30 8430 H 805.837 -3.57327 1.47832 0
M  V30 8431 H 807.526 -3.58848 1.89691 0
M  V30 8432 H 808.292 -2.52478 4.14101 0
M  V30 8433 H 804.171 -3.3151 3.20347 0
M  V30 8434 H 807.715 -2.42821 6.53975 0
M  V30 8435 H 803.612 -3.22148 5.59367 0
M  V30 8436 H 804.38 -2.91798 7.6472 0
M  V30 8437 N 807.043 -1.17915 -1.04565 0
M  V30 8438 C 807.973 -0.925033 -2.14395 0
M  V30 8439 C 808.954 0.135375 -1.6956 0
M  V30 8440 O 810.139 -0.0161774 -1.94193 0
M  V30 8441 C 807.269 -0.444469 -3.44444 0
M  V30 8442 C 806.223 -1.44478 -4.02877 0
M  V30 8443 C 805.549 -0.821933 -5.28345 0
M  V30 8444 C 806.849 -2.81995 -4.39632 0
M  V30 8445 H 808.543 -1.84354 -2.35911 0
M  V30 8446 H 806.089 -0.887806 -1.13375 0
M  V30 8447 H 808.042 -0.254078 -4.20633 0
M  V30 8448 H 806.766 0.509592 -3.226 0
M  V30 8449 H 805.425 -1.62203 -3.28764 0
M  V30 8450 H 805.073 0.139161 -5.02807 0
M  V30 8451 H 804.773 -1.48976 -5.68401 0
M  V30 8452 H 806.297 -0.641959 -6.07216 0
M  V30 8453 H 807.711 -2.67952 -5.06828 0
M  V30 8454 H 806.108 -3.45414 -4.90723 0
M  V30 8455 H 807.178 -3.35927 -3.49687 0
M  V30 8456 N 808.521 1.23394 -0.980386 0
M  V30 8457 C 809.484 2.23092 -0.525619 0
M  V30 8458 C 810.484 1.56129 0.384745 0
M  V30 8459 O 811.674 1.73284 0.178439 0
M  V30 8460 C 808.806 3.40074 0.23712 0
M  V30 8461 H 809.999 2.64839 -1.40714 0
M  V30 8462 H 807.552 1.36227 -0.766275 0
M  V30 8463 H 808.287 3.03783 1.13518 0
M  V30 8464 H 808.072 3.89883 -0.416356 0
M  V30 8465 H 809.562 4.14043 0.543892 0
M  V30 8466 N 809.999 0.752036 1.385 0
M  V30 8467 C 810.929 0.138718 2.33088 0
M  V30 8468 C 811.91 -0.705318 1.54788 0
M  V30 8469 O 813.095 -0.646821 1.83112 0
M  V30 8470 C 810.225 -0.75641 3.38963 0
M  V30 8471 C 809.179 -0.0152239 4.27997 0
M  V30 8472 C 808.505 -1.0285 5.24715 0
M  V30 8473 C 809.805 1.15226 5.09431 0
M  V30 8474 H 811.499 0.928852 2.84627 0
M  V30 8475 H 809.045 0.448111 1.3685 0
M  V30 8476 H 810.998 -1.19513 4.04097 0
M  V30 8477 H 809.722 -1.57885 2.85902 0
M  V30 8478 H 808.381 0.404061 3.64366 0
M  V30 8479 H 808.029 -1.84496 4.67943 0
M  V30 8480 H 807.729 -0.537238 5.85139 0
M  V30 8481 H 809.253 -1.46657 5.92726 0
M  V30 8482 H 810.667 0.791161 5.67815 0
M  V30 8483 H 809.064 1.57428 5.79082 0
M  V30 8484 H 810.134 1.9659 4.43261 0
M  V30 8485 N 811.477 -1.49425 0.500989 0
M  V30 8486 C 812.888 -1.86624 0.0532011 0
M  V30 8487 C 813.239 -1.41331 -1.36088 0
M  V30 8488 O 812.364 -0.791195 -2.01418 0
M  V30 8489 C 812.959 -3.38681 0.0897693 0
M  V30 8490 C 811.518 -3.75181 -0.302677 0
M  V30 8491 C 810.665 -2.73419 0.462307 0
M  V30 8492 H 813.616 -1.41743 0.713773 0
M  V30 8493 H 813.637 -3.73902 -0.705528 0
M  V30 8494 H 813.149 -3.71616 1.11907 0
M  V30 8495 H 811.25 -3.47855 -1.33521 0
M  V30 8496 H 811.363 -4.79097 0.0167653 0
M  V30 8497 H 809.727 -2.54548 -0.0878557 0
M  V30 8498 H 810.51 -3.09198 1.49169 0
M  V30 8499 N 812.955 -0.234822 -1.55841 0
M  V30 8500 C 814.183 0.397745 -2.03041 0
M  V30 8501 C 814.598 1.52405 -1.11437 0
M  V30 8502 O 813.955 1.82061 -0.126466 0
M  V30 8503 C 814.006 0.916919 -3.49678 0
M  V30 8504 O 813.727 -0.164493 -4.37791 0
M  V30 8505 C 815.228 1.62139 -4.12584 0
M  V30 8506 H 812.448 0.0959214 -0.664108 0
M  V30 8507 H 814.992 -0.355156 -2.01392 0
M  V30 8508 H 813.147 1.62004 -3.519 0
M  V30 8509 H 813.561 0.227794 -5.24005 0
M  V30 8510 H 815.035 1.93651 -5.16917 0
M  V30 8511 H 815.512 2.53918 -3.58361 0
M  V30 8512 H 816.118 0.963145 -4.14251 0
M  V30 8513 N 814.433 1.57553 0.0384317 0
M  V30 8514 C 815.679 1.89121 0.732199 0
M  V30 8515 C 816.012 0.831404 1.75503 0
M  V30 8516 O 815.287 -0.154642 1.93884 0
M  V30 8517 C 815.57 3.31338 1.41021 0
M  V30 8518 C 815.423 4.48004 0.401532 0
M  V30 8519 C 816.742 3.72318 2.34665 0
M  V30 8520 H 813.861 0.687819 0.264715 0
M  V30 8521 H 816.503 1.89999 -0.00496279 0
M  V30 8522 H 814.653 3.3072 2.03854 0
M  V30 8523 H 816.325 4.60755 -0.224159 0
M  V30 8524 H 814.568 4.32895 -0.280092 0
M  V30 8525 H 815.239 5.44377 0.91423 0
M  V30 8526 H 817.715 3.74243 1.81883 0
M  V30 8527 H 816.591 4.72652 2.7909 0
M  V30 8528 H 816.852 3.04062 3.20934 0
M  V30 8529 N 815.911 -0.310526 1.54511 0
M  V30 8530 C 817.139 -1.06611 1.77318 0
M  V30 8531 C 817.554 -1.81265 0.528043 0
M  V30 8532 O 816.911 -1.75466 -0.50178 0
M  V30 8533 C 816.962 -2.05409 2.97472 0
M  V30 8534 O 816.683 -1.33785 4.17173 0
M  V30 8535 C 818.184 -2.93082 3.32593 0
M  V30 8536 H 815.404 -0.316578 0.591624 0
M  V30 8537 H 817.948 -0.352691 2.01436 0
M  V30 8538 H 816.103 -2.72266 2.7559 0
M  V30 8539 H 816.517 -2.00055 4.84849 0
M  V30 8540 H 817.991 -3.58274 4.19933 0
M  V30 8541 H 818.468 -3.60877 2.50329 0
M  V30 8542 H 819.074 -2.31768 3.566 0
M  V30 8543 N 817.389 -1.46805 -0.573248 0
M  V30 8544 C 818.666 -1.43082 -1.33368 0
M  V30 8545 C 819.046 -0.119252 -2.10763 0
M  V30 8546 O 818.394 0.899239 -2.10062 0
M  V30 8547 C 818.604 -2.66643 -2.25172 0
M  V30 8548 C 819.952 -3.13188 -2.86702 0
M  V30 8549 O 820.976 -2.67258 -2.35482 0
M  V30 8550 O 819.835 -3.92994 -3.79761 0
M  V30 8551 H 816.929 -0.569451 -0.599712 0
M  V30 8552 H 819.475 -1.58984 -0.59348 0
M  V30 8553 H 818.247 -3.53649 -1.67475 0
M  V30 8554 H 817.87 -2.53247 -3.06516 0
M  V30 8555 N 818.867 0.818669 -1.34668 0
M  V30 8556 C 819.799 1.93754 -1.22442 0
M  V30 8557 C 820.812 1.62103 -0.150501 0
M  V30 8558 O 822.001 1.73898 -0.402728 0
M  V30 8559 C 819.101 3.27806 -0.860031 0
M  V30 8560 C 818.274 3.8745 -2.02981 0
M  V30 8561 C 817.333 4.99887 -1.64314 0
M  V30 8562 O 816.359 5.17957 -2.36029 0
M  V30 8563 N 817.561 5.77795 -0.55976 0
M  V30 8564 H 820.326 2.04773 -2.18833 0
M  V30 8565 H 817.887 0.995472 -1.27679 0
M  V30 8566 H 819.879 4.00478 -0.583068 0
M  V30 8567 H 818.449 3.12597 0.0138253 0
M  V30 8568 H 817.669 3.07119 -2.47127 0
M  V30 8569 H 818.957 4.2403 -2.81204 0
M  V30 8570 H 818.355 5.65688 0.0363329 0
M  V30 8571 H 816.912 6.50899 -0.342541 0
M  V30 8572 N 820.346 1.18468 1.03938 0
M  V30 8573 C 821.256 0.927889 2.1547 0
M  V30 8574 C 822.272 -0.108447 1.73662 0
M  V30 8575 O 823.448 0.0737636 2.01265 0
M  V30 8576 C 820.513 0.458494 3.43655 0
M  V30 8577 C 819.574 1.56295 3.99838 0
M  V30 8578 C 818.807 1.11586 5.21904 0
M  V30 8579 O 819.03 -0.0249057 5.70395 0
M  V30 8580 O 817.964 1.91412 5.70653 0
M  V30 8581 H 821.79 1.86116 2.39989 0
M  V30 8582 H 819.375 0.966607 1.13917 0
M  V30 8583 H 821.257 0.204861 4.20902 0
M  V30 8584 H 819.932 -0.446464 3.20606 0
M  V30 8585 H 818.839 1.87061 3.23974 0
M  V30 8586 H 820.172 2.44408 4.2723 0
M  V30 8587 N 821.824 -1.22873 0.986916 0
M  V30 8588 C 822.787 -2.2281 0.537442 0
M  V30 8589 C 823.787 -1.56331 -0.37646 0
M  V30 8590 O 824.977 -1.73376 -0.169247 0
M  V30 8591 C 822.109 -3.40195 -0.219082 0
M  V30 8592 H 823.302 -2.64089 1.42116 0
M  V30 8593 H 820.855 -1.35819 0.773488 0
M  V30 8594 H 821.59 -3.04381 -1.11905 0
M  V30 8595 H 821.375 -3.89657 0.437026 0
M  V30 8596 H 822.865 -4.14326 -0.521926 0
M  V30 8597 N 823.302 -0.75937 -1.38099 0
M  V30 8598 C 824.53 -0.329111 -2.04266 0
M  V30 8599 C 824.945 1.04453 -1.57274 0
M  V30 8600 O 824.302 1.66449 -0.748397 0
M  V30 8601 C 824.353 -0.349192 -3.5981 0
M  V30 8602 O 824.074 -1.66863 -4.05078 0
M  V30 8603 C 825.575 0.0942106 -4.432 0
M  V30 8604 H 822.795 -0.13971 -0.656294 0
M  V30 8605 H 825.339 -1.02984 -1.76677 0
M  V30 8606 H 823.494 0.302846 -3.86214 0
M  V30 8607 H 823.908 -1.59877 -4.9954 0
M  V30 8608 H 825.382 0.0290004 -5.51992 0
M  V30 8609 H 825.859 1.1429 -4.24069 0
M  V30 8610 H 826.465 -0.529171 -4.21995 0
M  V30 8611 N 824.78 1.49157 -0.508906 0
M  V30 8612 C 826.191 1.86593 -0.0630975 0
M  V30 8613 C 826.542 1.42051 1.35337 0
M  V30 8614 O 825.667 0.801866 2.00995 0
M  V30 8615 C 826.262 3.38629 -0.107729 0
M  V30 8616 C 824.821 3.75336 0.282776 0
M  V30 8617 C 823.968 2.7317 -0.4768 0
M  V30 8618 H 826.919 1.41362 -0.72128 0
M  V30 8619 H 826.94 3.74271 0.685689 0
M  V30 8620 H 826.452 3.71017 -1.13876 0
M  V30 8621 H 824.553 3.48558 1.31675 0
M  V30 8622 H 824.666 4.79081 -0.0421728 0
M  V30 8623 H 823.03 2.54591 0.0743552 0
M  V30 8624 H 823.813 3.08403 -1.50807 0
M  V30 8625 N 826.258 0.243083 1.55714 0
M  V30 8626 C 827.504 -0.383287 1.99145 0
M  V30 8627 C 827.837 -1.57868 1.13098 0
M  V30 8628 O 827.112 -1.93535 0.193509 0
M  V30 8629 C 827.395 -0.796879 3.51172 0
M  V30 8630 C 827.248 0.403642 4.47985 0
M  V30 8631 C 828.567 -1.64525 4.08191 0
M  V30 8632 H 825.686 -0.137843 0.723995 0
M  V30 8633 H 828.328 0.343631 1.86867 0
M  V30 8634 H 826.478 -1.41625 3.61766 0
M  V30 8635 H 828.15 1.04204 4.49376 0
M  V30 8636 H 826.393 1.04741 4.20965 0
M  V30 8637 H 827.064 0.0709794 5.51954 0
M  V30 8638 H 829.54 -1.12246 4.00674 0
M  V30 8639 H 828.416 -1.9035 5.14838 0
M  V30 8640 H 828.677 -2.61582 3.56409 0
M  V30 8641 N 827.736 -1.57571 -0.0300757 0
M  V30 8642 C 829.147 -1.77567 -0.576802 0
M  V30 8643 C 829.498 -0.874034 -1.75656 0
M  V30 8644 O 828.623 -0.0686124 -2.16291 0
M  V30 8645 C 829.218 -3.22016 -1.05315 0
M  V30 8646 C 827.777 -3.43212 -1.5454 0
M  V30 8647 C 826.924 -2.73061 -0.483033 0
M  V30 8648 H 829.875 -1.57483 0.196151 0
M  V30 8649 H 829.896 -3.28474 -1.92055 0
M  V30 8650 H 829.408 -3.87613 -0.194298 0
M  V30 8651 H 827.509 -2.82788 -2.42615 0
M  V30 8652 H 827.622 -4.5182 -1.5936 0
M  V30 8653 H 825.986 -2.36805 -0.937835 0
M  V30 8654 H 826.769 -3.4134 0.366341 0
M  V30 8655 N 829.214 0.302327 -1.54673 0
M  V30 8656 C 830.625 0.875409 -1.64904 0
M  V30 8657 C 830.976 1.88132 -0.55684 0
M  V30 8658 O 830.101 2.14215 0.306754 0
M  V30 8659 C 830.696 1.59457 -2.9893 0
M  V30 8660 C 829.255 2.11607 -3.11287 0
M  V30 8661 C 828.402 0.948324 -2.6058 0
M  V30 8662 H 831.353 0.079362 -1.58501 0
M  V30 8663 H 831.374 2.46005 -2.90279 0
M  V30 8664 H 830.886 0.8622 -3.78402 0
M  V30 8665 H 828.987 2.87895 -2.36532 0
M  V30 8666 H 829.1 2.35151 -4.17422 0
M  V30 8667 H 827.464 1.33352 -2.17001 0
M  V30 8668 H 828.247 0.229936 -3.42529 0
M  V30 8669 N 830.692 1.47107 0.565454 0
M  V30 8670 C 831.92 1.56909 1.3486 0
M  V30 8671 C 832.335 0.216312 1.87557 0
M  V30 8672 O 831.692 -0.789168 1.64555 0
M  V30 8673 C 831.743 2.58776 2.52423 0
M  V30 8674 O 831.464 3.888 2.01906 0
M  V30 8675 C 832.965 2.78683 3.44747 0
M  V30 8676 H 830.185 0.530096 0.411387 0
M  V30 8677 H 832.729 1.92658 0.685782 0
M  V30 8678 H 830.884 2.25983 3.1466 0
M  V30 8679 H 831.298 4.44393 2.78595 0
M  V30 8680 H 832.772 3.53842 4.23674 0
M  V30 8681 H 833.249 1.86208 3.97773 0
M  V30 8682 H 833.855 3.12641 2.88333 0
M  V30 8683 N 832.17 -0.811516 1.35101 0
M  V30 8684 C 833.418 -1.56525 1.27845 0
M  V30 8685 C 833.739 -1.94435 -0.14829 0
M  V30 8686 O 833.009 -1.63203 -1.08359 0
M  V30 8687 H 831.589 -0.580433 0.47022 0
M  V30 8688 H 834.251 -0.968277 1.69146 0
M  V30 8689 H 833.347 -2.48291 1.89097 0
M  V30 8690 N 833.648 -1.19017 -1.03309 0
M  V30 8691 C 834.925 -0.899659 -1.73682 0
M  V30 8692 C 835.305 0.595677 -2.02521 0
M  V30 8693 O 834.653 1.55263 -1.67648 0
M  V30 8694 C 834.863 -1.75508 -3.01659 0
M  V30 8695 C 836.211 -1.98679 -3.75249 0
M  V30 8696 O 837.235 -1.72624 -3.11576 0
M  V30 8697 O 836.094 -2.42587 -4.89708 0
M  V30 8698 H 833.188 -0.334903 -0.756154 0
M  V30 8699 H 835.734 -1.29809 -1.09305 0
M  V30 8700 H 834.506 -2.7684 -2.76542 0
M  V30 8701 H 834.129 -1.35565 -3.73775 0
M  V30 8702 N 835.127 1.22348 -0.993418 0
M  V30 8703 C 836.352 1.95666 -0.687727 0
M  V30 8704 C 836.777 1.72883 0.741161 0
M  V30 8705 O 836.135 1.00837 1.50671 0
M  V30 8706 C 836.183 3.46457 -0.99998 0
M  V30 8707 O 835.287 4.12281 -0.0989386 0
M  V30 8708 H 834.628 0.612102 -0.257346 0
M  V30 8709 H 837.158 1.55428 -1.33054 0
M  V30 8710 H 837.168 3.96976 -0.942035 0
M  V30 8711 H 835.843 3.62365 -2.04118 0
M  V30 8712 H 834.42 3.72295 -0.212413 0
M  V30 8713 N 836.605 0.766683 1.37694 0
M  V30 8714 C 837.515 0.150158 2.34119 0
M  V30 8715 C 838.531 -0.685513 1.59927 0
M  V30 8716 O 839.707 -0.606616 1.92047 0
M  V30 8717 C 836.772 -0.722562 3.39087 0
M  V30 8718 C 835.833 0.128983 4.29106 0
M  V30 8719 C 835.066 -0.702178 5.29061 0
M  V30 8720 O 835.289 -1.93954 5.36412 0
M  V30 8721 O 834.223 -0.114056 6.01792 0
M  V30 8722 H 838.049 0.946829 2.88563 0
M  V30 8723 H 835.634 0.527765 1.39768 0
M  V30 8724 H 837.516 -1.22095 4.03325 0
M  V30 8725 H 836.191 -1.49751 2.86978 0
M  V30 8726 H 835.098 0.673612 3.67985 0
M  V30 8727 H 836.431 0.866892 4.84506 0
M  V30 8728 N 838.083 -1.48885 0.516809 0
M  V30 8729 C 839.046 -2.27916 -0.242256 0
M  V30 8730 C 840.046 -1.34601 -0.879735 0
M  V30 8731 O 841.236 -1.57616 -0.74182 0
M  V30 8732 C 838.368 -3.13067 -1.34914 0
M  V30 8733 H 839.561 -2.96483 0.451444 0
M  V30 8734 H 837.114 -1.5391 0.272294 0
M  V30 8735 H 837.849 -2.49102 -2.07651 0
M  V30 8736 H 837.634 -3.81695 -0.897313 0
M  V30 8737 H 839.124 -3.72716 -1.88341 0
M  V30 8738 N 839.561 -0.251338 -1.55583 0
M  V30 8739 C 840.789 0.376187 -2.03451 0
M  V30 8740 C 841.204 1.51215 -1.13047 0
M  V30 8741 O 840.561 1.81917 -0.145769 0
M  V30 8742 C 840.612 0.879779 -3.50631 0
M  V30 8743 O 840.333 -0.210917 -4.37592 0
M  V30 8744 C 841.834 1.57754 -4.14281 0
M  V30 8745 H 839.054 0.0888722 -0.665089 0
M  V30 8746 H 841.598 -0.376497 -2.01004 0
M  V30 8747 H 839.753 1.58263 -3.53598 0
M  V30 8748 H 840.167 0.172203 -5.24217 0
M  V30 8749 H 841.641 1.88158 -5.18942 0
M  V30 8750 H 842.118 2.50103 -3.61034 0
M  V30 8751 H 842.724 0.919154 -4.15249 0
M  V30 8752 N 841.039 1.57585 0.0217189 0
M  V30 8753 C 842.45 1.7787 0.567377 0
M  V30 8754 C 842.801 0.883337 1.7519 0
M  V30 8755 O 841.926 0.0800819 2.16252 0
M  V30 8756 C 842.521 3.2257 1.03606 0
M  V30 8757 C 841.08 3.44026 1.52718 0
M  V30 8758 C 840.227 2.73313 0.468545 0
M  V30 8759 H 843.178 1.57377 -0.2045 0
M  V30 8760 H 843.199 3.29488 1.9031 0
M  V30 8761 H 842.711 3.87711 0.173739 0
M  V30 8762 H 840.812 2.8407 2.41111 0
M  V30 8763 H 840.925 4.52659 1.56962 0
M  V30 8764 H 839.289 2.37299 0.925263 0
M  V30 8765 H 840.072 3.41141 -0.384438 0
M  V30 8766 N 842.517 -0.29412 1.54831 0
M  V30 8767 C 843.763 -1.02999 1.74697 0
M  V30 8768 C 844.096 -1.86687 0.534949 0
M  V30 8769 O 843.371 -1.88789 -0.467863 0
M  V30 8770 C 843.654 -1.93024 3.03996 0
M  V30 8771 C 843.507 -1.1247 4.35512 0
M  V30 8772 C 844.826 -2.92085 3.29203 0
M  V30 8773 H 841.945 -0.373039 0.635618 0
M  V30 8774 H 844.587 -0.304065 1.87551 0
M  V30 8775 H 842.737 -2.5492 2.93169 0
M  V30 8776 H 844.409 -0.528067 4.58268 0
M  V30 8777 H 842.652 -0.427574 4.31688 0
M  V30 8778 H 843.323 -1.78728 5.22265 0
M  V30 8779 H 845.799 -2.40319 3.39685 0
M  V30 8780 H 844.675 -3.52234 4.20978 0
M  V30 8781 H 844.936 -3.66107 2.47827 0
M  V30 8782 N 843.995 -1.47404 -0.557645 0
M  V30 8783 C 845.406 -1.47872 -1.13977 0
M  V30 8784 C 845.757 -0.233176 -1.94809 0
M  V30 8785 O 844.882 0.661945 -2.06027 0
M  V30 8786 C 845.477 -2.67926 -2.07368 0
M  V30 8787 C 844.036 -2.71354 -2.60852 0
M  V30 8788 C 843.183 -2.40967 -1.37223 0
M  V30 8789 H 846.134 -1.54921 -0.344268 0
M  V30 8790 H 846.155 -2.44871 -2.91236 0
M  V30 8791 H 845.667 -3.58562 -1.48509 0
M  V30 8792 H 843.768 -1.84855 -3.23511 0
M  V30 8793 H 843.881 -3.72032 -3.01876 0
M  V30 8794 H 842.245 -1.91541 -1.67882 0
M  V30 8795 H 843.028 -3.33811 -0.801583 0
M  V30 8796 N 845.473 0.80434 -1.35529 0
M  V30 8797 C 846.884 1.37849 -1.25915 0
M  V30 8798 C 847.235 1.95905 0.107495 0
M  V30 8799 O 846.36 1.91462 1.00852 0
M  V30 8800 C 846.955 2.50608 -2.27994 0
M  V30 8801 C 845.514 3.03879 -2.22114 0
M  V30 8802 C 844.661 1.76856 -2.13582 0
M  V30 8803 H 847.612 0.607192 -1.46625 0
M  V30 8804 H 847.633 3.29221 -1.90772 0
M  V30 8805 H 847.145 2.08323 -3.27449 0
M  V30 8806 H 845.246 3.50622 -1.26077 0
M  V30 8807 H 845.359 3.61707 -3.14173 0
M  V30 8808 H 843.723 1.98498 -1.59595 0
M  V30 8809 H 844.506 1.36721 -3.14901 0
M  V30 8810 N 846.951 1.19563 1.02676 0
M  V30 8811 C 848.179 1.02488 1.79732 0
M  V30 8812 C 848.594 -0.426302 1.83924 0
M  V30 8813 O 847.951 -1.29609 1.28483 0
M  V30 8814 C 848.002 1.58944 3.24683 0
M  V30 8815 O 847.723 2.98382 3.2078 0
M  V30 8816 C 849.224 1.46681 4.1833 0
M  V30 8817 H 846.444 0.361098 0.565552 0
M  V30 8818 H 848.988 1.58426 1.29311 0
M  V30 8819 H 847.143 1.0715 3.72287 0
M  V30 8820 H 847.557 3.24983 4.11687 0
M  V30 8821 H 849.031 1.90959 5.17918 0
M  V30 8822 H 849.508 0.417663 4.3721 0
M  V30 8823 H 850.114 1.97616 3.76601 0
M  V30 8824 N 848.429 -1.21819 0.999893 0
M  V30 8825 C 849.677 -1.90375 0.678351 0
M  V30 8826 C 849.998 -1.78155 -0.792824 0
M  V30 8827 O 849.268 -1.17319 -1.56885 0
M  V30 8828 H 847.848 -0.704661 0.247915 0
M  V30 8829 H 850.51 -1.48021 1.2679 0
M  V30 8830 H 849.606 -2.97385 0.947023 0
M  V30 8831 N 849.908 -0.773975 -1.37286 0
M  V30 8832 C 851.185 -0.263942 -1.93811 0
M  V30 8833 C 851.565 1.24138 -1.70743 0
M  V30 8834 O 850.913 2.02557 -1.05749 0
M  V30 8835 C 851.123 -0.639753 -3.43086 0
M  V30 8836 C 852.471 -0.610796 -4.20184 0
M  V30 8837 O 853.495 -0.579278 -3.51458 0
M  V30 8838 O 852.354 -0.639862 -5.42741 0
M  V30 8839 H 849.448 -0.0614331 -0.824715 0
M  V30 8840 H 851.994 -0.855477 -1.46559 0
M  V30 8841 H 850.766 -1.67856 -3.53469 0
M  V30 8842 H 850.389 -0.0212827 -3.97594 0
M  V30 8843 N 851.386 1.48609 -0.524698 0
M  V30 8844 C 852.611 2.07398 0.00952139 0
M  V30 8845 C 853.036 1.37939 1.27884 0
M  V30 8846 O 852.394 0.443633 1.75788 0
M  V30 8847 C 852.442 3.59916 0.221956 0
M  V30 8848 O 851.546 3.91647 1.29175 0
M  V30 8849 H 850.887 0.662981 -0.0367729 0
M  V30 8850 H 853.417 1.91092 -0.7311 0
M  V30 8851 H 853.427 4.05552 0.446236 0
M  V30 8852 H 852.102 4.09876 -0.705306 0
M  V30 8853 H 850.679 3.57796 1.05055 0
M  V30 8854 N 852.864 0.259585 1.55447 0
M  V30 8855 C 853.774 -0.645026 2.25558 0
M  V30 8856 C 854.79 -1.18291 1.27606 0
M  V30 8857 O 855.966 -1.21649 1.6051 0
M  V30 8858 C 853.031 -1.81964 2.9511 0
M  V30 8859 C 852.092 -1.31997 4.08504 0
M  V30 8860 C 851.325 -2.43861 4.74729 0
M  V30 8861 O 851.548 -3.62876 4.40088 0
M  V30 8862 O 850.482 -2.12898 5.6299 0
M  V30 8863 H 854.308 -0.0775399 3.03601 0
M  V30 8864 H 851.893 0.0275859 1.49375 0
M  V30 8865 H 853.775 -2.50485 3.38873 0
M  V30 8866 H 852.45 -2.37451 2.19997 0
M  V30 8867 H 851.357 -0.601676 3.6923 0
M  V30 8868 H 852.69 -0.811045 4.85472 0
M  V30 8869 N 854.342 -1.57594 -0.0133615 0
M  V30 8870 C 855.57 -1.94251 -0.712328 0
M  V30 8871 C 855.985 -0.86063 -1.68043 0
M  V30 8872 O 855.342 0.161632 -1.81783 0
M  V30 8873 C 855.393 -3.30891 -1.45581 0
M  V30 8874 O 855.114 -4.34924 -0.526539 0
M  V30 8875 C 856.615 -3.81926 -2.2505 0
M  V30 8876 H 853.835 -0.640737 -0.199241 0
M  V30 8877 H 856.379 -2.04472 0.0337855 0
M  V30 8878 H 854.534 -3.22019 -2.15366 0
M  V30 8879 H 854.948 -5.1389 -1.04962 0
M  V30 8880 H 856.422 -4.79999 -2.72589 0
M  V30 8881 H 856.899 -3.13934 -3.07152 0
M  V30 8882 H 857.505 -3.93931 -1.60308 0
M  V30 8883 N 855.82 0.285905 -1.54985 0
M  V30 8884 C 856.783 1.33625 -1.86218 0
M  V30 8885 C 857.783 1.42971 -0.735936 0
M  V30 8886 O 858.973 1.42345 -1.00417 0
M  V30 8887 C 856.105 2.71926 -2.05595 0
M  V30 8888 H 857.298 1.07167 -2.80099 0
M  V30 8889 H 854.851 0.523335 -1.47278 0
M  V30 8890 H 855.586 3.03583 -1.14053 0
M  V30 8891 H 855.371 2.6653 -2.87583 0
M  V30 8892 H 856.861 3.47841 -2.31077 0
M  V30 8893 N 857.298 1.47698 0.54982 0
M  V30 8894 C 858.709 1.48474 1.13191 0
M  V30 8895 C 859.06 0.243504 1.94683 0
M  V30 8896 O 858.185 -0.651009 2.06375 0
M  V30 8897 C 858.78 2.69022 2.05944 0
M  V30 8898 C 857.339 2.72733 2.5941 0
M  V30 8899 C 856.486 2.41691 1.35944 0
M  V30 8900 H 859.437 1.55101 0.336048 0
M  V30 8901 H 859.458 2.46412 2.89934 0
M  V30 8902 H 858.97 3.59345 1.46605 0
M  V30 8903 H 857.071 1.86568 3.22526 0
M  V30 8904 H 857.184 3.73628 2.99899 0
M  V30 8905 H 855.548 1.92428 1.66864 0
M  V30 8906 H 856.331 3.34231 0.783869 0
M  V30 8907 N 858.776 -0.797141 1.35954 0
M  V30 8908 C 860.022 -1.55698 1.29946 0
M  V30 8909 C 860.355 -1.93808 -0.123259 0
M  V30 8910 O 859.63 -1.62102 -1.07486 0
M  V30 8911 C 859.913 -2.83926 2.2149 0
M  V30 8912 C 859.766 -2.52232 3.72423 0
M  V30 8913 C 861.085 -3.85698 2.11955 0
M  V30 8914 H 858.204 -0.56488 0.47337 0
M  V30 8915 H 860.846 -0.916421 1.66438 0
M  V30 8916 H 858.996 -3.38588 1.905 0
M  V30 8917 H 860.668 -2.0368 4.13899 0
M  V30 8918 H 858.911 -1.85286 3.92239 0
M  V30 8919 H 859.582 -3.43782 4.31877 0
M  V30 8920 H 862.058 -3.40462 2.39218 0
M  V30 8921 H 860.934 -4.73182 2.78191 0
M  V30 8922 H 861.195 -4.28083 1.10442 0
M  V30 8923 N 860.254 -1.20106 -1.0204 0
M  V30 8924 C 861.665 -1.00992 -1.57027 0
M  V30 8925 C 862.016 0.434782 -1.91322 0
M  V30 8926 O 861.141 1.31557 -1.71819 0
M  V30 8927 C 861.736 -1.82697 -2.85319 0
M  V30 8928 C 860.295 -1.67959 -3.36848 0
M  V30 8929 C 859.442 -1.80868 -2.10195 0
M  V30 8930 H 862.393 -1.34354 -0.844676 0
M  V30 8931 H 862.414 -1.32809 -3.5657 0
M  V30 8932 H 861.926 -2.87839 -2.60328 0
M  V30 8933 H 860.027 -0.654389 -3.66809 0
M  V30 8934 H 860.14 -2.49006 -4.09308 0
M  V30 8935 H 858.504 -1.24015 -2.22469 0
M  V30 8936 H 859.287 -2.87486 -1.87635 0
M  V30 8937 N 861.732 1.21287 -1.00634 0
M  V30 8938 C 863.143 1.72136 -0.722914 0
M  V30 8939 C 863.494 1.8091 0.759338 0
M  V30 8940 O 862.619 1.46458 1.59308 0
M  V30 8941 C 863.214 3.12633 -1.30561 0
M  V30 8942 C 861.773 3.60833 -1.07127 0
M  V30 8943 C 860.92 2.38326 -1.4176 0
M  V30 8944 H 863.871 1.06445 -1.17708 0
M  V30 8945 H 863.892 3.74174 -0.690937 0
M  V30 8946 H 863.404 3.06215 -2.38441 0
M  V30 8947 H 861.505 3.72599 -0.00968671 0
M  V30 8948 H 861.618 4.46226 -1.74411 0
M  V30 8949 H 859.982 2.40575 -0.836412 0
M  V30 8950 H 860.765 2.34558 -2.50674 0
M  V30 8951 N 863.21 0.781244 1.36873 0
M  V30 8952 C 864.438 0.361566 2.03716 0
M  V30 8953 C 864.853 -1.01937 1.58916 0
M  V30 8954 O 864.21 -1.65237 0.774783 0
M  V30 8955 C 864.261 0.406391 3.59208 0
M  V30 8956 O 863.982 1.73286 4.02372 0
M  V30 8957 C 865.483 -0.0236894 4.43294 0
M  V30 8958 H 862.703 0.150133 0.653988 0
M  V30 8959 H 865.247 1.05781 1.75016 0
M  V30 8960 H 863.402 -0.241364 3.86647 0
M  V30 8961 H 863.816 1.67804 4.96933 0
M  V30 8962 H 865.29 0.0588205 5.51969 0
M  V30 8963 H 865.767 -1.07529 4.25833 0
M  V30 8964 H 866.373 0.59624 4.211 0
M  V30 8965 N 864.689 -1.48329 0.532571 0
M  V30 8966 C 865.937 -2.021 -0.000581206 0
M  V30 8967 C 866.258 -1.4117 -1.34522 0
M  V30 8968 O 865.528 -0.578005 -1.87179 0
M  V30 8969 H 864.108 -0.746993 -0.00320281 0
M  V30 8970 H 866.77 -1.82011 0.696991 0
M  V30 8971 H 865.866 -3.11917 -0.106991 0
M  V30 8972 N 866.167 -0.267825 -1.55308 0
M  V30 8973 C 867.444 0.402449 -1.91415 0
M  V30 8974 C 867.824 1.7428 -1.1912 0
M  V30 8975 O 867.172 2.2631 -0.315609 0
M  V30 8976 C 867.382 0.549926 -3.4464 0
M  V30 8977 C 868.73 0.836188 -4.16285 0
M  V30 8978 O 869.754 0.635009 -3.50494 0
M  V30 8979 O 868.613 1.22051 -5.32697 0
M  V30 8980 H 865.707 0.219177 -0.797427 0
M  V30 8981 H 868.253 -0.313439 -1.6678 0
M  V30 8982 H 867.025 -0.393641 -3.89315 0
M  V30 8983 H 866.648 1.31556 -3.75205 0
M  V30 8984 N 867.645 1.57599 0.00500368 0
M  V30 8985 C 868.87 1.95026 0.705663 0
M  V30 8986 C 869.295 0.869643 1.6679 0
M  V30 8987 O 868.653 -0.172659 1.80476 0
M  V30 8988 C 868.701 3.31545 1.4181 0
M  V30 8989 O 867.805 3.25495 2.53232 0
M  V30 8990 H 867.146 0.636808 0.188074 0
M  V30 8991 H 869.676 2.04547 -0.046696 0
M  V30 8992 H 869.686 3.66996 1.78265 0
M  V30 8993 H 868.361 4.09751 0.712543 0
M  V30 8994 H 866.938 3.01714 2.19142 0
M  V30 8995 N 869.123 -0.277682 1.55134 0
M  V30 8996 C 870.371 -1.00791 1.75173 0
M  V30 8997 C 870.692 -1.86987 0.553266 0
M  V30 8998 O 869.962 -1.91079 -0.43195 0
M  V30 8999 H 868.542 -0.375129 0.645978 0
M  V30 9000 H 871.204 -0.303041 1.9253 0
M  V30 9001 H 870.3 -1.64756 2.6507 0
M  V30 9002 N 870.601 -1.47988 -0.541979 0
M  V30 9003 C 871.564 -1.61148 -1.62984 0
M  V30 9004 C 872.564 -0.48553 -1.53295 0
M  V30 9005 O 873.754 -0.751012 -1.5718 0
M  V30 9006 C 870.886 -1.57038 -3.02576 0
M  V30 9007 H 872.079 -2.58138 -1.52659 0
M  V30 9008 H 869.632 -1.36405 -0.763106 0
M  V30 9009 H 870.367 -0.614807 -3.18419 0
M  V30 9010 H 870.152 -2.38769 -3.11018 0
M  V30 9011 H 871.642 -1.69416 -3.81691 0
M  V30 9012 N 872.079 0.78992 -1.36375 0
M  V30 9013 C 873.49 1.36506 -1.2737 0
M  V30 9014 C 873.841 1.96008 0.086711 0
M  V30 9015 O 872.966 1.92521 0.988159 0
M  V30 9016 C 873.561 2.48175 -2.30639 0
M  V30 9017 C 872.12 3.01506 -2.25325 0
M  V30 9018 C 871.267 1.74581 -2.15445 0
M  V30 9019 H 874.218 0.591606 -1.47261 0
M  V30 9020 H 874.239 3.27179 -1.94253 0
M  V30 9021 H 873.751 2.04838 -3.2964 0
M  V30 9022 H 871.852 3.49265 -1.29788 0
M  V30 9023 H 871.965 3.58355 -3.17992 0
M  V30 9024 H 870.329 1.96794 -1.61692 0
M  V30 9025 H 871.112 1.33373 -3.16333 0
M  V30 9026 N 873.557 1.20646 1.01402 0
M  V30 9027 C 874.968 1.01823 1.56489 0
M  V30 9028 C 875.319 -0.42463 1.9155 0
M  V30 9029 O 874.444 -1.30644 1.72514 0
M  V30 9030 C 875.039 1.84208 2.84347 0
M  V30 9031 C 873.598 1.69743 3.35953 0
M  V30 9032 C 872.745 1.8198 2.09233 0
M  V30 9033 H 875.696 1.348 0.837539 0
M  V30 9034 H 875.717 1.34698 3.55861 0
M  V30 9035 H 875.229 2.89215 2.58798 0
M  V30 9036 H 873.33 0.673833 3.66456 0
M  V30 9037 H 873.443 2.51173 4.07981 0
M  V30 9038 H 871.807 1.25193 2.21808 0
M  V30 9039 H 872.59 2.88477 1.86107 0
M  V30 9040 N 875.035 -1.20752 1.01276 0
M  V30 9041 C 876.281 -1.90302 0.700924 0
M  V30 9042 C 876.614 -1.78406 -0.767142 0
M  V30 9043 O 875.889 -1.16575 -1.55694 0
M  V30 9044 C 876.172 -3.41831 1.13242 0
M  V30 9045 C 876.025 -3.6268 2.66051 0
M  V30 9046 C 877.344 -4.34486 0.700738 0
M  V30 9047 H 874.463 -0.69107 0.256107 0
M  V30 9048 H 877.105 -1.42227 1.25982 0
M  V30 9049 H 875.255 -3.82906 0.656902 0
M  V30 9050 H 876.927 -3.30882 3.21426 0
M  V30 9051 H 875.17 -3.06281 3.07204 0
M  V30 9052 H 875.841 -4.68882 2.91296 0
M  V30 9053 H 878.317 -4.01036 1.10948 0
M  V30 9054 H 877.193 -5.39136 1.03073 0
M  V30 9055 H 877.454 -4.40307 -0.39778 0
M  V30 9056 N 876.513 -0.788492 -1.36457 0
M  V30 9057 C 877.924 -0.423742 -1.81828 0
M  V30 9058 C 878.275 1.05221 -1.65599 0
M  V30 9059 O 877.4 1.8163 -1.17641 0
M  V30 9060 C 877.995 -0.762354 -3.30112 0
M  V30 9061 C 876.554 -0.450445 -3.73695 0
M  V30 9062 C 875.701 -0.997482 -2.58738 0
M  V30 9063 H 878.652 -0.981718 -1.24692 0
M  V30 9064 H 878.673 -0.0531136 -3.80463 0
M  V30 9065 H 878.185 -1.83662 -3.41891 0
M  V30 9066 H 876.286 0.615829 -3.67476 0
M  V30 9067 H 876.399 -0.970408 -4.69169 0
M  V30 9068 H 874.763 -0.420761 -2.51201 0
M  V30 9069 H 875.546 -2.07749 -2.73304 0
M  V30 9070 N 877.991 1.48044 -0.54043 0
M  V30 9071 C 879.402 1.86418 -0.102662 0
M  V30 9072 C 879.753 1.4489 1.32293 0
M  V30 9073 O 878.878 0.844319 1.99249 0
M  V30 9074 C 879.473 3.38324 -0.179533 0
M  V30 9075 C 878.032 3.75852 0.203098 0
M  V30 9076 C 877.179 2.72097 -0.534637 0
M  V30 9077 H 880.13 1.398 -0.751103 0
M  V30 9078 H 880.151 3.75641 0.606147 0
M  V30 9079 H 879.663 3.68518 -1.21721 0
M  V30 9080 H 877.764 3.51272 1.24252 0
M  V30 9081 H 877.877 4.78884 -0.143784 0
M  V30 9082 H 876.241 2.54692 0.0203358 0
M  V30 9083 H 877.024 3.05135 -1.57314 0
M  V30 9084 N 879.47 0.276058 1.55163 0
M  V30 9085 C 880.698 -0.343772 2.04024 0
M  V30 9086 C 881.113 -1.49397 1.15438 0
M  V30 9087 O 880.47 -1.81662 0.174692 0
M  V30 9088 C 880.521 -0.823885 3.51986 0
M  V30 9089 O 880.242 0.280507 4.37201 0
M  V30 9090 C 881.743 -1.51143 4.16738 0
M  V30 9091 H 878.963 -0.07828 0.666418 0
M  V30 9092 H 881.507 0.408427 2.0038 0
M  V30 9093 H 879.662 -1.52617 3.56071 0
M  V30 9094 H 880.076 -0.0887831 5.24425 0
M  V30 9095 H 881.55 -1.79878 5.2187 0
M  V30 9096 H 882.027 -2.44327 3.64967 0
M  V30 9097 H 882.633 -0.852975 4.16659 0
M  V30 9098 N 880.948 -1.576 0.00335426 0
M  V30 9099 C 882.196 -1.90336 -0.679446 0
M  V30 9100 C 882.517 -0.877777 -1.74127 0
M  V30 9101 O 881.787 0.0843585 -1.95718 0
M  V30 9102 H 880.367 -0.702509 -0.253948 0
M  V30 9103 H 883.029 -1.94848 0.0450731 0
M  V30 9104 H 882.125 -2.90197 -1.14857 0
M  V30 9105 N 882.426 0.269451 -1.5528 0
M  V30 9106 C 883.703 1.02207 -1.66773 0
M  V30 9107 C 884.083 2.04168 -0.536536 0
M  V30 9108 O 883.431 2.23761 0.462956 0
M  V30 9109 C 883.641 1.67569 -3.0614 0
M  V30 9110 C 884.989 2.18599 -3.64005 0
M  V30 9111 O 886.013 1.7755 -3.08795 0
M  V30 9112 O 884.872 2.93903 -4.60742 0
M  V30 9113 H 881.966 0.474314 -0.677462 0
M  V30 9114 H 884.512 0.265026 -1.67618 0
M  V30 9115 H 883.284 0.937029 -3.79915 0
M  V30 9116 H 882.907 2.49951 -3.09209 0
M  V30 9117 N 883.904 1.48273 0.534124 0
M  V30 9118 C 885.129 1.59988 1.31979 0
M  V30 9119 C 885.554 0.258824 1.86311 0
M  V30 9120 O 884.912 -0.768885 1.64188 0
M  V30 9121 C 884.96 2.64642 2.44943 0
M  V30 9122 O 884.064 2.21515 3.47858 0
M  V30 9123 H 883.405 0.536625 0.391063 0
M  V30 9124 H 885.935 1.94229 0.643135 0
M  V30 9125 H 885.945 2.85786 2.91187 0
M  V30 9126 H 884.62 3.62004 2.04758 0
M  V30 9127 H 883.197 2.10567 3.0776 0
M  V30 9128 N 885.382 -0.782676 1.36792 0
M  V30 9129 C 886.63 -1.53778 1.31136 0
M  V30 9130 C 886.951 -1.94706 -0.107014 0
M  V30 9131 O 886.221 -1.65465 -1.04872 0
M  V30 9132 H 884.801 -0.570328 0.482426 0
M  V30 9133 H 887.463 -0.932181 1.71162 0
M  V30 9134 H 886.559 -2.44224 1.94321 0
M  V30 9135 N 886.86 -1.21182 -1.00761 0
M  V30 9136 C 887.823 -0.970339 -2.07646 0
M  V30 9137 C 888.823 0.0576345 -1.60697 0
M  V30 9138 O 890.013 -0.179369 -1.73274 0
M  V30 9139 C 887.145 -0.462703 -3.37745 0
M  V30 9140 H 888.338 -1.91856 -2.30502 0
M  V30 9141 H 885.891 -1.02844 -1.17698 0
M  V30 9142 H 886.626 0.490559 -3.20568 0
M  V30 9143 H 886.411 -1.20416 -3.73152 0
M  V30 9144 H 887.901 -0.313531 -4.16421 0
M  V30 9145 N 888.338 1.20213 -1.01915 0
M  V30 9146 C 889.749 1.7136 -0.741131 0
M  V30 9147 C 890.1 1.81705 0.740107 0
M  V30 9148 O 889.225 1.48139 1.57746 0
M  V30 9149 C 889.82 3.11231 -1.33869 0
M  V30 9150 C 888.379 3.59677 -1.10948 0
M  V30 9151 C 887.526 2.36809 -1.4428 0
M  V30 9152 H 890.477 1.05191 -1.1883 0
M  V30 9153 H 890.498 3.7342 -0.730585 0
M  V30 9154 H 890.01 3.03669 -2.41675 0
M  V30 9155 H 888.111 3.72568 -0.0492052 0
M  V30 9156 H 888.224 4.44351 -1.79134 0
M  V30 9157 H 886.588 2.39674 -0.861881 0
M  V30 9158 H 887.371 2.31886 -2.53148 0
M  V30 9159 N 889.816 0.795718 1.36037 0
M  V30 9160 C 891.227 0.433379 1.816 0
M  V30 9161 C 891.578 -1.04341 1.66155 0
M  V30 9162 O 890.703 -1.81004 1.18603 0
M  V30 9163 C 891.298 0.77985 3.29703 0
M  V30 9164 C 889.857 0.470256 3.73451 0
M  V30 9165 C 889.004 1.01119 2.58206 0
M  V30 9166 H 891.955 0.988317 1.24169 0
M  V30 9167 H 891.976 0.0732898 3.80429 0
M  V30 9168 H 891.488 1.85473 3.40913 0
M  V30 9169 H 889.589 -0.596332 3.67797 0
M  V30 9170 H 889.702 0.995276 4.68648 0
M  V30 9171 H 888.066 0.434077 2.50974 0
M  V30 9172 H 888.849 2.09196 2.72198 0
M  V30 9173 N 891.294 -1.47756 0.548274 0
M  V30 9174 C 892.54 -2.02789 0.0209265 0
M  V30 9175 C 892.873 -1.42268 -1.32187 0
M  V30 9176 O 892.148 -0.575001 -1.85806 0
M  V30 9177 C 892.431 -3.60007 -0.0816674 0
M  V30 9178 C 892.284 -4.30977 1.28759 0
M  V30 9179 C 893.603 -4.32777 -0.799515 0
M  V30 9180 H 890.722 -0.736944 0.00907884 0
M  V30 9181 H 893.364 -1.76282 0.708839 0
M  V30 9182 H 891.514 -3.82722 -0.667537 0
M  V30 9183 H 893.186 -4.19629 1.91597 0
M  V30 9184 H 891.429 -3.9168 1.86466 0
M  V30 9185 H 892.1 -5.39488 1.16861 0
M  V30 9186 H 894.576 -4.15001 -0.30216 0
M  V30 9187 H 893.452 -5.42431 -0.840239 0
M  V30 9188 H 893.713 -4.01358 -1.85375 0
M  V30 9189 N 892.772 -0.284283 -1.55015 0
M  V30 9190 C 894.183 0.211681 -1.85496 0
M  V30 9191 C 894.534 1.54735 -1.2063 0
M  V30 9192 O 893.659 2.10594 -0.497918 0
M  V30 9193 C 894.254 0.390864 -3.36538 0
M  V30 9194 C 892.813 0.831055 -3.67111 0
M  V30 9195 C 891.96 -0.0703581 -2.77211 0
M  V30 9196 H 894.911 -0.505803 -1.50424 0
M  V30 9197 H 894.932 1.22803 -3.60138 0
M  V30 9198 H 894.444 -0.581409 -3.8372 0
M  V30 9199 H 892.545 1.81447 -3.25434 0
M  V30 9200 H 892.658 0.662026 -4.74504 0
M  V30 9201 H 891.022 0.447528 -2.50737 0
M  V30 9202 H 891.805 -1.03868 -3.2721 0
M  V30 9203 N 894.251 1.57596 -0.0117121 0
M  V30 9204 C 895.662 1.79033 0.529521 0
M  V30 9205 C 896.013 0.920299 1.73277 0
M  V30 9206 O 895.138 0.125934 2.16033 0
M  V30 9207 C 895.733 3.24695 0.967405 0
M  V30 9208 C 894.292 3.47188 1.45387 0
M  V30 9209 C 893.439 2.74245 0.410466 0
M  V30 9210 H 896.39 1.56908 -0.237836 0
M  V30 9211 H 896.411 3.33451 1.83278 0
M  V30 9212 H 895.923 3.87992 0.0914605 0
M  V30 9213 H 894.024 2.89121 2.35032 0
M  V30 9214 H 894.137 4.55886 1.47325 0
M  V30 9215 H 892.501 2.39209 0.874721 0
M  V30 9216 H 893.284 3.40248 -0.456713 0
M  V30 9217 N 895.729 -0.261212 1.5542 0
M  V30 9218 C 896.957 -1.00916 1.8062 0
M  V30 9219 C 897.372 -1.79494 0.585444 0
M  V30 9220 O 896.729 -1.76974 -0.445702 0
M  V30 9221 C 896.78 -1.95841 3.03856 0
M  V30 9222 O 896.501 -1.20445 4.21218 0
M  V30 9223 C 898.002 -2.82352 3.41749 0
M  V30 9224 H 895.222 -0.297596 0.601397 0
M  V30 9225 H 897.766 -0.288427 2.02456 0
M  V30 9226 H 895.921 -2.63361 2.84112 0
M  V30 9227 H 896.335 -1.84528 4.90968 0
M  V30 9228 H 897.809 -3.44733 4.31118 0
M  V30 9229 H 898.286 -3.5273 2.61683 0
M  V30 9230 H 898.892 -2.20306 3.63793 0
M  V30 9231 N 897.207 -1.48554 -0.526253 0
M  V30 9232 C 898.455 -1.56452 -1.27935 0
M  V30 9233 C 898.776 -0.24184 -1.93495 0
M  V30 9234 O 898.046 0.736917 -1.81511 0
M  V30 9235 H 896.626 -0.576379 -0.47518 0
M  V30 9236 H 899.288 -1.85039 -0.612083 0
M  V30 9237 H 898.384 -2.34751 -2.05666 0
M  V30 9238 N 898.685 0.775411 -1.37205 0
M  V30 9239 C 899.962 1.5229 -1.22748 0
M  V30 9240 C 900.342 2.10327 0.180487 0
M  V30 9241 O 899.69 1.95206 1.18772 0
M  V30 9242 C 899.9 2.60671 -2.3206 0
M  V30 9243 C 901.248 3.28173 -2.6942 0
M  V30 9244 O 902.272 2.70963 -2.31208 0
M  V30 9245 O 901.131 4.31598 -3.3524 0
M  V30 9246 H 898.225 0.674326 -0.478762 0
M  V30 9247 H 900.771 0.812691 -1.48975 0
M  V30 9248 H 899.543 2.1588 -3.26361 0
M  V30 9249 H 899.166 3.39296 -2.07277 0
M  V30 9250 N 900.163 1.21714 1.00117 0
M  V30 9251 C 901.388 1.06357 1.78054 0
M  V30 9252 C 901.813 -0.382075 1.84179 0
M  V30 9253 O 901.171 -1.27575 1.28819 0
M  V30 9254 C 901.219 1.66982 3.19608 0
M  V30 9255 O 900.323 0.917892 4.02055 0
M  V30 9256 H 899.664 0.374074 0.548602 0
M  V30 9257 H 902.194 1.61338 1.25822 0
M  V30 9258 H 902.204 1.71363 3.70268 0
M  V30 9259 H 900.879 2.72185 3.14465 0
M  V30 9260 H 899.456 0.949473 3.6061 0
M  V30 9261 N 901.641 -1.19671 1.02551 0
M  V30 9262 C 902.889 -1.88894 0.71858 0
M  V30 9263 C 903.21 -1.79797 -0.754856 0
M  V30 9264 O 902.48 -1.20621 -1.54362 0
M  V30 9265 H 901.06 -0.699244 0.262806 0
M  V30 9266 H 903.722 -1.45298 1.29902 0
M  V30 9267 H 902.818 -2.95309 1.00989 0
M  V30 9268 N 903.119 -0.802921 -1.35613 0
M  V30 9269 C 904.082 -0.216422 -2.28176 0
M  V30 9270 C 905.082 0.594101 -1.49422 0
M  V30 9271 O 906.272 0.41312 -1.6923 0
M  V30 9272 C 903.404 0.698746 -3.33662 0
M  V30 9273 H 904.597 -1.03276 -2.81557 0
M  V30 9274 H 902.15 -0.573307 -1.45406 0
M  V30 9275 H 902.885 1.53891 -2.85461 0
M  V30 9276 H 902.67 0.119314 -3.91918 0
M  V30 9277 H 904.16 1.10354 -4.02755 0
M  V30 9278 N 904.597 1.47463 -0.556102 0
M  V30 9279 C 906.008 1.86298 -0.122429 0
M  V30 9280 C 906.359 1.46285 1.30749 0
M  V30 9281 O 905.484 0.865405 1.98342 0
M  V30 9282 C 906.079 3.38115 -0.215407 0
M  V30 9283 C 904.638 3.76046 0.163223 0
M  V30 9284 C 903.785 2.71515 -0.563466 0
M  V30 9285 H 906.736 1.38996 -0.765888 0
M  V30 9286 H 906.757 3.76263 0.566271 0
M  V30 9287 H 906.269 3.67207 -1.25622 0
M  V30 9288 H 904.37 3.5257 1.20519 0
M  V30 9289 H 904.483 4.78705 -0.194568 0
M  V30 9290 H 902.847 2.54699 -0.00667879 0
M  V30 9291 H 903.63 3.03449 -1.60542 0
M  V30 9292 N 906.075 0.2925 1.54862 0
M  V30 9293 C 907.486 -0.201841 1.85606 0
M  V30 9294 C 907.837 -1.54093 1.21449 0
M  V30 9295 O 906.962 -2.10327 0.509079 0
M  V30 9296 C 907.557 -0.373011 3.3674 0
M  V30 9297 C 906.116 -0.811574 3.67547 0
M  V30 9298 C 905.263 0.0850583 2.7717 0
M  V30 9299 H 908.214 0.513774 1.50153 0
M  V30 9300 H 908.235 -1.20892 3.60785 0
M  V30 9301 H 907.747 0.601751 3.83407 0
M  V30 9302 H 905.848 -1.79719 3.26392 0
M  V30 9303 H 905.961 -0.636853 4.74848 0
M  V30 9304 H 904.325 -0.434224 2.50971 0
M  V30 9305 H 905.108 1.05602 3.26654 0
M  V30 9306 N 907.553 -1.57587 0.0200696 0
M  V30 9307 C 908.799 -1.91708 -0.661503 0
M  V30 9308 C 909.132 -0.895968 -1.72296 0
M  V30 9309 O 908.407 0.082577 -1.94325 0
M  V30 9310 C 908.69 -3.36344 -1.28627 0
M  V30 9311 C 908.543 -4.49186 -0.234982 0
M  V30 9312 C 909.862 -3.80771 -2.20685 0
M  V30 9313 H 906.981 -0.69717 -0.239005 0
M  V30 9314 H 909.623 -1.8985 0.0754764 0
M  V30 9315 H 907.773 -3.38058 -1.91439 0
M  V30 9316 H 909.445 -4.59606 0.395011 0
M  V30 9317 H 907.688 -4.31557 0.440565 0
M  V30 9318 H 908.359 -5.47395 -0.711558 0
M  V30 9319 H 910.835 -3.80735 -1.67868 0
M  V30 9320 H 909.711 -4.82685 -2.61356 0
M  V30 9321 H 909.972 -3.15764 -3.09428 0
M  V30 9322 N 909.032 0.252966 -1.55557 0
M  V30 9323 C 910.443 0.822503 -1.67606 0
M  V30 9324 C 910.794 1.86265 -0.616411 0
M  V30 9325 O 909.919 2.15082 0.238447 0
M  V30 9326 C 910.514 1.49866 -3.03852 0
M  V30 9327 C 909.073 2.01597 -3.17861 0
M  V30 9328 C 908.22 0.864943 -2.63465 0
M  V30 9329 H 911.171 0.0288958 -1.58674 0
M  V30 9330 H 911.192 2.36646 -2.97958 0
M  V30 9331 H 910.704 0.741378 -3.80953 0
M  V30 9332 H 908.805 2.80224 -2.45571 0
M  V30 9333 H 908.918 2.21752 -4.24692 0
M  V30 9334 H 907.282 1.2638 -2.21134 0
M  V30 9335 H 908.065 0.120847 -3.43087 0
M  V30 9336 N 910.51 1.48831 0.518367 0
M  V30 9337 C 911.921 1.50842 1.10016 0
M  V30 9338 C 912.272 0.284744 1.94123 0
M  V30 9339 O 911.397 -0.607088 2.0771 0
M  V30 9340 C 911.992 2.73329 2.00191 0
M  V30 9341 C 910.551 2.78175 2.53566 0
M  V30 9342 C 909.698 2.4452 1.30786 0
M  V30 9343 H 912.649 1.55779 0.303073 0
M  V30 9344 H 912.67 2.52506 2.84642 0
M  V30 9345 H 912.182 3.62374 1.3895 0
M  V30 9346 H 910.283 1.93368 3.18496 0
M  V30 9347 H 910.396 3.79905 2.91906 0
M  V30 9348 H 908.76 1.95924 1.62744 0
M  V30 9349 H 909.543 3.35819 0.712797 0
M  V30 9350 N 911.988 -0.768124 1.37614 0
M  V30 9351 C 913.216 -1.55726 1.36224 0
M  V30 9352 C 913.631 -1.8873 -0.0515357 0
M  V30 9353 O 912.988 -1.51718 -1.0143 0
M  V30 9354 C 913.039 -2.86533 2.20412 0
M  V30 9355 O 912.76 -2.54942 3.56281 0
M  V30 9356 C 914.261 -3.80745 2.27041 0
M  V30 9357 H 911.481 -0.482325 0.46648 0
M  V30 9358 H 914.025 -0.95176 1.81002 0
M  V30 9359 H 912.18 -3.43496 1.79134 0
M  V30 9360 H 912.594 -3.38732 4.00451 0
M  V30 9361 H 914.068 -4.69523 2.90263 0
M  V30 9362 H 914.545 -4.20138 1.27987 0
M  V30 9363 H 915.151 -3.2971 2.68647 0
M  V30 9364 N 913.466 -1.22244 -0.994698 0
M  V30 9365 C 914.714 -1.04384 -1.73056 0
M  V30 9366 C 915.035 0.422204 -1.90374 0
M  V30 9367 O 914.305 1.30383 -1.46209 0
M  V30 9368 H 912.885 -0.383263 -0.641185 0
M  V30 9369 H 915.547 -1.53725 -1.1981 0
M  V30 9370 H 914.643 -1.52021 -2.72573 0
M  V30 9371 N 914.944 1.19125 -1.03184 0
M  V30 9372 C 916.221 1.84674 -0.644574 0
M  V30 9373 C 916.601 1.92042 0.876534 0
M  V30 9374 O 915.949 1.43965 1.77444 0
M  V30 9375 C 916.159 3.23477 -1.3101 0
M  V30 9376 C 917.507 3.99608 -1.43524 0
M  V30 9377 O 918.531 3.32886 -1.2675 0
M  V30 9378 O 917.39 5.19132 -1.70776 0
M  V30 9379 H 914.484 0.795968 -0.22442 0
M  V30 9380 H 917.03 1.2659 -1.13018 0
M  V30 9381 H 915.802 3.12967 -2.34878 0
M  V30 9382 H 915.425 3.89209 -0.812547 0
M  V30 9383 N 916.422 0.810101 1.35185 0
M  V30 9384 C 917.647 0.40364 2.03434 0
M  V30 9385 C 918.072 -0.97857 1.60641 0
M  V30 9386 O 917.43 -1.63435 0.784779 0
M  V30 9387 C 917.478 0.499154 3.57129 0
M  V30 9388 O 916.582 -0.486039 4.09526 0
M  V30 9389 H 915.923 0.168049 0.642383 0
M  V30 9390 H 918.453 1.09696 1.72708 0
M  V30 9391 H 918.463 0.370236 4.06317 0
M  V30 9392 H 917.138 1.50733 3.87624 0
M  V30 9393 H 915.715 -0.31707 3.7155 0
M  V30 9394 N 917.9 -1.47166 0.563914 0
M  V30 9395 C 919.148 -2.02056 0.0422873 0
M  V30 9396 C 919.469 -1.43992 -1.31497 0
M  V30 9397 O 918.739 -0.617578 -1.85911 0
M  V30 9398 H 917.319 -0.746893 0.0126427 0
M  V30 9399 H 919.981 -1.80492 0.735441 0
M  V30 9400 H 919.077 -3.12073 -0.0408044 0
M  V30 9401 N 919.378 -0.300708 -1.54705 0
M  V30 9402 C 920.341 0.562648 -2.22187 0
M  V30 9403 C 921.341 1.06152 -1.20782 0
M  V30 9404 O 922.531 0.957596 -1.45519 0
M  V30 9405 C 919.663 1.77899 -2.908 0
M  V30 9406 H 920.856 -0.0269361 -2.99888 0
M  V30 9407 H 918.409 -0.0515412 -1.56215 0
M  V30 9408 H 919.144 2.40841 -2.17177 0
M  V30 9409 H 918.929 1.42892 -3.65136 0
M  V30 9410 H 920.419 2.39236 -3.42281 0
M  V30 9411 N 920.856 1.57574 -0.0284266 0
M  V30 9412 C 922.267 1.79585 0.510502 0
M  V30 9413 C 922.618 0.938625 1.72291 0
M  V30 9414 O 921.743 0.14884 2.15888 0
M  V30 9415 C 922.338 3.25703 0.932912 0
M  V30 9416 C 920.897 3.48711 1.41696 0
M  V30 9417 C 920.044 2.74665 0.381356 0
M  V30 9418 H 922.995 1.56647 -0.254464 0
M  V30 9419 H 923.016 3.35376 1.79731 0
M  V30 9420 H 922.528 3.88067 0.0503036 0
M  V30 9421 H 920.629 2.91597 2.31952 0
M  V30 9422 H 920.742 4.57423 1.42481 0
M  V30 9423 H 919.106 2.40123 0.8493 0
M  V30 9424 H 919.889 3.39745 -0.492775 0
M  V30 9425 N 922.334 -0.244713 1.55689 0
M  V30 9426 C 923.745 -0.813603 1.6804 0
M  V30 9427 C 924.096 -1.85936 0.626281 0
M  V30 9428 O 923.221 -2.15206 -0.227038 0
M  V30 9429 C 923.816 -1.48252 3.04642 0
M  V30 9430 C 922.375 -1.99908 3.18926 0
M  V30 9431 C 921.522 -0.850958 2.6392 0
M  V30 9432 H 924.473 -0.0204805 1.58687 0
M  V30 9433 H 924.494 -2.35062 2.99209 0
M  V30 9434 H 924.006 -0.721164 3.81341 0
M  V30 9435 H 922.107 -2.78918 2.47054 0
M  V30 9436 H 922.22 -2.19497 4.25862 0
M  V30 9437 H 920.584 -1.25206 2.21801 0
M  V30 9438 H 921.367 -0.10265 3.43146 0
M  V30 9439 N 923.813 -1.49104 -0.510467 0
M  V30 9440 C 925.059 -1.58346 -1.26705 0
M  V30 9441 C 925.392 -0.265121 -1.92382 0
M  V30 9442 O 924.667 0.730558 -1.80258 0
M  V30 9443 C 924.95 -2.7359 -2.34137 0
M  V30 9444 C 924.803 -4.1519 -1.73024 0
M  V30 9445 C 926.122 -2.84511 -3.3577 0
M  V30 9446 H 923.241 -0.57637 -0.459311 0
M  V30 9447 H 925.883 -1.81353 -0.566658 0
M  V30 9448 H 924.033 -2.54105 -2.93876 0
M  V30 9449 H 925.705 -4.46167 -1.17186 0
M  V30 9450 H 923.948 -4.21279 -1.03473 0
M  V30 9451 H 924.619 -4.91683 -2.50903 0
M  V30 9452 H 927.095 -3.0222 -2.86011 0
M  V30 9453 H 925.971 -3.6684 -4.08313 0
M  V30 9454 H 926.232 -1.93471 -3.97519 0
M  V30 9455 N 925.291 0.760815 -1.38019 0
M  V30 9456 C 926.702 1.33773 -1.30237 0
M  V30 9457 C 927.053 1.96148 0.0451153 0
M  V30 9458 O 926.178 1.94574 0.9471 0
M  V30 9459 C 926.773 2.43227 -2.35851 0
M  V30 9460 C 925.332 2.96659 -2.31669 0
M  V30 9461 C 924.479 1.69972 -2.191 0
M  V30 9462 H 927.43 0.560237 -1.48482 0
M  V30 9463 H 927.451 3.22985 -2.01149 0
M  V30 9464 H 926.963 1.978 -3.33911 0
M  V30 9465 H 925.064 3.46433 -1.37167 0
M  V30 9466 H 925.177 3.51529 -3.25521 0
M  V30 9467 H 923.541 1.9332 -1.65829 0
M  V30 9468 H 924.324 1.26633 -3.19091 0
M  V30 9469 N 926.769 1.22769 0.988202 0
M  V30 9470 C 928.18 1.0512 1.54294 0
M  V30 9471 C 928.531 -0.383904 1.92407 0
M  V30 9472 O 927.656 -1.26955 1.75246 0
M  V30 9473 C 928.251 1.90198 2.80375 0
M  V30 9474 C 926.81 1.76831 3.32276 0
M  V30 9475 C 925.957 1.86377 2.05326 0
M  V30 9476 H 928.908 1.36546 0.808758 0
M  V30 9477 H 928.929 1.42216 3.52923 0
M  V30 9478 H 928.441 2.9464 2.52605 0
M  V30 9479 H 926.542 0.751412 3.64945 0
M  V30 9480 H 926.655 2.59771 4.02562 0
M  V30 9481 H 925.019 1.2987 2.19103 0
M  V30 9482 H 925.802 2.9236 1.79946 0
M  V30 9483 N 928.247 -1.18576 1.03814 0
M  V30 9484 C 929.475 -1.92437 0.759966 0
M  V30 9485 C 929.89 -1.76031 -0.682526 0
M  V30 9486 O 929.247 -1.08829 -1.46501 0
M  V30 9487 C 929.298 -3.43923 1.11351 0
M  V30 9488 O 929.019 -3.5981 2.49937 0
M  V30 9489 C 930.52 -4.34888 0.859472 0
M  V30 9490 H 927.74 -0.610998 0.277349 0
M  V30 9491 H 930.284 -1.50448 1.38512 0
M  V30 9492 H 928.439 -3.83711 0.533362 0
M  V30 9493 H 928.853 -4.53569 2.63393 0
M  V30 9494 H 930.327 -5.39744 1.15672 0
M  V30 9495 H 930.804 -4.38717 -0.205839 0
M  V30 9496 H 931.41 -4.00795 1.42279 0
M  V30 9497 N 929.725 -0.817259 -1.34754 0
M  V30 9498 C 930.973 -0.401852 -1.98065 0
M  V30 9499 C 931.294 1.03718 -1.65129 0
M  V30 9500 O 930.564 1.71921 -0.939141 0
M  V30 9501 H 929.144 -0.145603 -0.732672 0
M  V30 9502 H 931.806 -1.04545 -1.64488 0
M  V30 9503 H 930.902 -0.516241 -3.07801 0
M  V30 9504 N 931.203 1.46865 -0.571711 0
M  V30 9505 C 932.48 1.95596 0.0132445 0
M  V30 9506 C 932.86 1.51438 1.47071 0
M  V30 9507 O 932.208 0.759917 2.15494 0
M  V30 9508 C 932.418 3.48689 -0.147335 0
M  V30 9509 C 933.766 4.24599 -0.00946329 0
M  V30 9510 O 934.79 3.5612 -0.0756112 0
M  V30 9511 O 933.649 5.46332 0.135361 0
M  V30 9512 H 930.743 0.825102 0.0560039 0
M  V30 9513 H 933.289 1.57199 -0.639256 0
M  V30 9514 H 932.061 3.73681 -1.16096 0
M  V30 9515 H 931.684 3.93887 0.542109 0
M  V30 9516 N 932.681 0.308908 1.54543 0
M  V30 9517 C 933.906 -0.303196 2.05172 0
M  V30 9518 C 934.331 -1.46133 1.18434 0
M  V30 9519 O 933.689 -1.803 0.190162 0
M  V30 9520 C 933.737 -0.729526 3.53143 0
M  V30 9521 O 932.841 -1.83348 3.69401 0
M  V30 9522 H 932.182 -0.0575066 0.661505 0
M  V30 9523 H 934.712 0.453055 1.99521 0
M  V30 9524 H 934.722 -1.01619 3.95143 0
M  V30 9525 H 933.397 0.117622 4.15734 0
M  V30 9526 H 931.974 -1.54676 3.39308 0
M  V30 9527 N 934.159 -1.57557 0.0367827 0
M  V30 9528 C 935.407 -1.91735 -0.63892 0
M  V30 9529 C 935.728 -0.914515 -1.72226 0
M  V30 9530 O 934.998 0.0428248 -1.95853 0
M  V30 9531 H 933.578 -0.707738 -0.23899 0
M  V30 9532 H 936.24 -1.94708 0.0863931 0
M  V30 9533 H 935.336 -2.92568 -1.08676 0
M  V30 9534 N 935.637 0.236453 -1.55816 0
M  V30 9535 C 936.6 1.27633 -1.90375 0
M  V30 9536 C 937.6 1.40557 -0.781048 0
M  V30 9537 O 938.79 1.39078 -1.04895 0
M  V30 9538 C 935.922 2.65247 -2.14142 0
M  V30 9539 H 937.115 0.982019 -2.83366 0
M  V30 9540 H 934.668 0.476215 -1.48869 0
M  V30 9541 H 935.403 2.99801 -1.23653 0
M  V30 9542 H 935.188 2.57246 -2.95917 0
M  V30 9543 H 936.678 3.40313 -2.42026 0
M  V30 9544 N 937.115 1.49373 0.502552 0
M  V30 9545 C 938.526 1.52 1.0841 0
M  V30 9546 C 938.877 0.305317 1.9381 0
M  V30 9547 O 938.002 -0.585023 2.08342 0
M  V30 9548 C 938.597 2.75437 1.97281 0
M  V30 9549 C 937.156 2.80848 2.50602 0
M  V30 9550 C 936.303 2.45894 1.28186 0
M  V30 9551 H 939.254 1.56092 0.286533 0
M  V30 9552 H 939.275 2.55511 2.81947 0
M  V30 9553 H 938.787 3.63827 1.35098 0
M  V30 9554 H 936.888 1.96735 3.16427 0
M  V30 9555 H 937.001 3.82979 2.8786 0
M  V30 9556 H 935.365 1.97639 1.60657 0
M  V30 9557 H 936.148 3.36556 0.677139 0
M  V30 9558 N 938.594 -0.753485 1.38421 0
M  V30 9559 C 940.005 -1.33081 1.30944 0
M  V30 9560 C 940.356 -1.96169 -0.0347124 0
M  V30 9561 O 939.481 -1.95073 -0.936768 0
M  V30 9562 C 940.076 -2.41973 2.37138 0
M  V30 9563 C 938.635 -2.95426 2.33239 0
M  V30 9564 C 937.782 -1.68808 2.19998 0
M  V30 9565 H 940.733 -0.552354 1.48777 0
M  V30 9566 H 940.754 -3.21913 2.02859 0
M  V30 9567 H 940.266 -1.96027 3.34956 0
M  V30 9568 H 938.367 -3.45701 1.39003 0
M  V30 9569 H 938.48 -3.49798 3.27381 0
M  V30 9570 H 936.844 -1.92438 1.66852 0
M  V30 9571 H 937.627 -1.24939 3.19758 0
M  V30 9572 N 940.072 -1.23292 -0.981677 0
M  V30 9573 C 941.318 -1.06582 -1.72535 0
M  V30 9574 C 941.651 0.396538 -1.90108 0
M  V30 9575 O 940.926 1.29363 -1.45243 0
M  V30 9576 C 941.209 -1.7904 -3.12437 0
M  V30 9577 C 941.062 -3.32941 -3.02441 0
M  V30 9578 C 942.381 -1.55185 -4.11832 0
M  V30 9579 H 939.5 -0.388585 -0.626236 0
M  V30 9580 H 942.142 -1.51779 -1.14293 0
M  V30 9581 H 940.292 -1.40619 -3.62158 0
M  V30 9582 H 941.964 -3.80875 -2.60254 0
M  V30 9583 H 940.207 -3.62039 -2.38977 0
M  V30 9584 H 940.878 -3.78827 -4.0149 0
M  V30 9585 H 943.354 -1.88581 -3.70913 0
M  V30 9586 H 942.23 -2.08362 -5.07815 0
M  V30 9587 H 942.491 -0.486925 -4.3941 0
M  V30 9588 N 941.55 1.18024 -1.04442 0
M  V30 9589 C 942.961 1.69749 -0.777312 0
M  V30 9590 C 943.312 1.83234 0.701399 0
M  V30 9591 O 942.437 1.51452 1.54568 0
M  V30 9592 C 943.032 3.08321 -1.40441 0
M  V30 9593 C 941.591 3.57243 -1.18553 0
M  V30 9594 C 940.738 2.33695 -1.49271 0
M  V30 9595 H 943.689 1.02647 -1.21035 0
M  V30 9596 H 943.71 3.71787 -0.809628 0
M  V30 9597 H 943.222 2.98474 -2.48062 0
M  V30 9598 H 941.323 3.72379 -0.128221 0
M  V30 9599 H 941.436 4.40451 -1.88519 0
M  V30 9600 H 939.8 2.37792 -0.912526 0
M  V30 9601 H 940.583 2.26464 -2.5801 0
M  V30 9602 N 943.028 0.824394 1.34319 0
M  V30 9603 C 944.439 0.471802 1.8064 0
M  V30 9604 C 944.79 -1.00793 1.6833 0
M  V30 9605 O 943.915 -1.78447 1.22416 0
M  V30 9606 C 944.51 0.849609 3.27974 0
M  V30 9607 C 943.069 0.549365 3.72369 0
M  V30 9608 C 942.216 1.06573 2.56003 0
M  V30 9609 H 945.167 1.01443 1.22045 0
M  V30 9610 H 945.188 0.153968 3.80188 0
M  V30 9611 H 944.7 1.92663 3.36902 0
M  V30 9612 H 942.801 -0.518182 3.68979 0
M  V30 9613 H 942.914 1.09446 4.66432 0
M  V30 9614 H 941.278 0.487214 2.49997 0
M  V30 9615 H 942.061 2.14923 2.677 0
M  V30 9616 N 944.506 -1.46559 0.579492 0
M  V30 9617 C 945.734 -2.06784 0.0693648 0
M  V30 9618 C 946.149 -1.42875 -1.23419 0
M  V30 9619 O 945.506 -0.532919 -1.74546 0
M  V30 9620 C 945.557 -3.61343 -0.106511 0
M  V30 9621 O 945.278 -4.22861 1.14545 0
M  V30 9622 C 946.779 -4.38489 -0.651359 0
M  V30 9623 H 943.999 -0.66866 0.0559848 0
M  V30 9624 H 946.543 -1.88235 0.799245 0
M  V30 9625 H 944.698 -3.7933 -0.786601 0
M  V30 9626 H 945.112 -5.15691 0.95723 0
M  V30 9627 H 946.586 -5.47237 -0.723615 0
M  V30 9628 H 947.063 -4.06309 -1.66763 0
M  V30 9629 H 947.669 -4.253 -0.0062433 0
M  V30 9630 N 945.984 -0.3171 -1.54377 0
M  V30 9631 C 947.232 0.286842 -2.00054 0
M  V30 9632 C 947.553 1.53161 -1.20692 0
M  V30 9633 O 946.823 1.93479 -0.307045 0
M  V30 9634 H 945.403 0.108979 -0.739008 0
M  V30 9635 H 948.065 -0.432152 -1.90049 0
M  V30 9636 H 947.161 0.547729 -3.07256 0
M  V30 9637 N 947.462 1.57535 -0.0451378 0
M  V30 9638 C 948.739 1.83785 0.669523 0
M  V30 9639 C 949.119 0.932331 1.89396 0
M  V30 9640 O 948.467 -0.00813229 2.28499 0
M  V30 9641 C 948.677 3.33376 1.03255 0
M  V30 9642 C 950.025 4.00243 1.41741 0
M  V30 9643 O 951.049 3.37965 1.12507 0
M  V30 9644 O 949.908 5.10038 1.96275 0
M  V30 9645 H 947.002 0.758342 0.329919 0
M  V30 9646 H 949.548 1.69538 -0.0740415 0
M  V30 9647 H 948.32 3.90965 0.161777 0
M  V30 9648 H 947.943 3.52787 1.83376 0
M  V30 9649 N 948.94 -0.228186 1.55939 0
M  V30 9650 C 950.165 -0.974795 1.83064 0
M  V30 9651 C 950.59 -1.77426 0.624624 0
M  V30 9652 O 949.948 -1.76211 -0.426556 0
M  V30 9653 C 949.996 -1.87342 3.08116 0
M  V30 9654 O 949.1 -2.96784 2.86344 0
M  V30 9655 H 948.441 -0.276379 0.603747 0
M  V30 9656 H 950.971 -0.243507 2.03146 0
M  V30 9657 H 950.981 -2.28451 3.38045 0
M  V30 9658 H 949.656 -1.28575 3.95526 0
M  V30 9659 H 948.233 -2.59669 2.67631 0
M  V30 9660 N 950.418 -1.49637 -0.494624 0
M  V30 9661 C 951.666 -1.5913 -1.24587 0
M  V30 9662 C 951.987 -0.282828 -1.92938 0
M  V30 9663 O 951.257 0.69825 -1.83034 0
M  V30 9664 H 949.837 -0.586329 -0.462847 0
M  V30 9665 H 952.499 -1.86296 -0.572696 0
M  V30 9666 H 951.595 -2.3906 -2.00641 0
M  V30 9667 N 951.896 0.746133 -1.38819 0
M  V30 9668 C 952.859 1.84167 -1.36437 0
M  V30 9669 C 953.859 1.58626 -0.263499 0
M  V30 9670 O 955.049 1.66233 -0.520801 0
M  V30 9671 C 952.181 3.21769 -1.12596 0
M  V30 9672 H 953.374 1.87684 -2.33912 0
M  V30 9673 H 950.927 0.948625 -1.24221 0
M  V30 9674 H 951.662 3.23917 -0.15758 0
M  V30 9675 H 951.447 3.41702 -1.92307 0
M  V30 9676 H 952.937 4.0184 -1.13643 0
M  V30 9677 N 953.375 1.23811 0.975125 0
M  V30 9678 C 954.786 1.0675 1.53171 0
M  V30 9679 C 955.137 -0.363475 1.92804 0
M  V30 9680 O 954.262 -1.25089 1.76583 0
M  V30 9681 C 954.857 1.93161 2.78342 0
M  V30 9682 C 953.416 1.80346 3.30382 0
M  V30 9683 C 952.563 1.88544 2.03338 0
M  V30 9684 H 955.514 1.37396 0.79423 0
M  V30 9685 H 955.535 1.45951 3.51395 0
M  V30 9686 H 955.047 2.97302 2.49465 0
M  V30 9687 H 953.148 0.790077 3.64127 0
M  V30 9688 H 953.261 2.64026 3.99784 0
M  V30 9689 H 951.625 1.32186 2.17713 0
M  V30 9690 H 952.408 2.94252 1.76836 0
M  V30 9691 N 954.853 -1.17469 1.05066 0
M  V30 9692 C 956.264 -1.69334 0.786304 0
M  V30 9693 C 956.615 -1.83604 -0.691671 0
M  V30 9694 O 955.74 -1.52269 -1.53763 0
M  V30 9695 C 956.335 -3.07572 1.42074 0
M  V30 9696 C 954.894 -3.56609 1.20446 0
M  V30 9697 C 954.041 -2.329 1.50508 0
M  V30 9698 H 956.992 -1.02003 1.21577 0
M  V30 9699 H 957.013 -3.71352 0.829334 0
M  V30 9700 H 956.525 -2.97154 2.49642 0
M  V30 9701 H 954.626 -3.72306 0.147968 0
M  V30 9702 H 954.739 -4.39446 1.90852 0
M  V30 9703 H 953.103 -2.37305 0.925124 0
M  V30 9704 H 953.886 -2.25093 2.59207 0
M  V30 9705 N 956.331 -0.831506 -1.3388 0
M  V30 9706 C 957.577 -0.424302 -1.98312 0
M  V30 9707 C 957.91 1.01211 -1.65741 0
M  V30 9708 O 957.185 1.70636 -0.933464 0
M  V30 9709 C 957.468 -0.636815 -3.54424 0
M  V30 9710 C 957.321 -2.11997 -3.96708 0
M  V30 9711 C 958.64 -0.0782411 -4.4003 0
M  V30 9712 H 955.759 -0.155637 -0.720379 0
M  V30 9713 H 958.401 -1.04566 -1.58638 0
M  V30 9714 H 956.551 -0.107907 -3.8835 0
M  V30 9715 H 958.223 -2.71317 -3.73075 0
M  V30 9716 H 956.466 -2.60723 -3.46707 0
M  V30 9717 H 957.137 -2.21944 -5.05416 0
M  V30 9718 H 959.613 -0.530243 -4.12708 0
M  V30 9719 H 958.489 -0.256676 -5.483 0
M  V30 9720 H 958.75 1.01745 -4.30233 0
M  V30 9721 N 957.809 1.4625 -0.587256 0
M  V30 9722 C 959.22 1.85997 -0.161918 0
M  V30 9723 C 959.571 1.49025 1.27616 0
M  V30 9724 O 958.696 0.907282 1.96462 0
M  V30 9725 C 959.291 3.37582 -0.287077 0
M  V30 9726 C 957.85 3.76308 0.0834211 0
M  V30 9727 C 956.997 2.70259 -0.620932 0
M  V30 9728 H 959.948 1.3734 -0.795199 0
M  V30 9729 H 959.969 3.77379 0.486333 0
M  V30 9730 H 959.481 3.64459 -1.33383 0
M  V30 9731 H 957.582 3.55047 1.13013 0
M  V30 9732 H 957.695 4.78184 -0.296064 0
M  V30 9733 H 956.059 2.54628 -0.0607027 0
M  V30 9734 H 956.842 2.99975 -1.66942 0
M  V30 9735 N 959.287 0.325282 1.54207 0
M  V30 9736 C 960.698 -0.162426 1.85992 0
M  V30 9737 C 961.049 -1.51482 1.2469 0
M  V30 9738 O 960.174 -2.092 0.553578 0
M  V30 9739 C 960.769 -0.3015 3.37456 0
M  V30 9740 C 959.328 -0.73343 3.69185 0
M  V30 9741 C 958.475 0.143831 2.76927 0
M  V30 9742 H 961.426 0.545508 1.4903 0
M  V30 9743 H 961.447 -1.13212 3.63268 0
M  V30 9744 H 960.959 0.682942 3.82044 0
M  V30 9745 H 959.06 -1.72755 3.30131 0
M  V30 9746 H 959.173 -0.535987 4.76092 0
M  V30 9747 H 957.537 -0.380892 2.51836 0
M  V30 9748 H 958.32 1.12507 3.24341 0
M  V30 9749 N 960.765 -1.57509 0.0534917 0
M  V30 9750 C 961.993 -1.97098 -0.629298 0
M  V30 9751 C 962.408 -0.931128 -1.64242 0
M  V30 9752 O 961.765 0.0843866 -1.82305 0
M  V30 9753 C 961.816 -3.36767 -1.31415 0
M  V30 9754 O 961.537 -4.36766 -0.341599 0
M  V30 9755 C 963.038 -3.91127 -2.08649 0
M  V30 9756 H 960.258 -0.648611 -0.171886 0
M  V30 9757 H 962.802 -2.04145 0.120479 0
M  V30 9758 H 960.957 -3.30863 -2.01515 0
M  V30 9759 H 961.371 -5.1788 -0.830715 0
M  V30 9760 H 962.845 -4.91129 -2.51985 0
M  V30 9761 H 963.322 -3.26679 -2.9356 0
M  V30 9762 H 963.928 -4.00376 -1.43456 0
M  V30 9763 N 962.243 0.219913 -1.56058 0
M  V30 9764 C 963.491 0.942199 -1.78793 0
M  V30 9765 C 963.812 1.84804 -0.622284 0
M  V30 9766 O 963.082 1.9255 0.360735 0
M  V30 9767 H 961.662 0.350895 -0.659455 0
M  V30 9768 H 964.324 0.231376 -1.93522 0
M  V30 9769 H 963.42 1.54804 -2.71002 0
M  V30 9770 N 963.721 1.49897 0.486681 0
M  V30 9771 C 964.998 1.50614 1.24799 0
M  V30 9772 C 965.378 0.24193 2.09709 0
M  V30 9773 O 964.726 -0.775237 2.14947 0
M  V30 9774 C 964.936 2.79318 2.09243 0
M  V30 9775 C 966.284 3.29371 2.67955 0
M  V30 9776 O 967.308 2.80533 2.19499 0
M  V30 9777 O 966.167 4.14466 3.56202 0
M  V30 9778 H 963.261 0.603447 0.565491 0
M  V30 9779 H 965.807 1.62174 0.499778 0
M  V30 9780 H 964.579 3.62812 1.46572 0
M  V30 9781 H 964.202 2.70687 2.91229 0
M  V30 9782 N 965.199 -0.738761 1.39212 0
M  V30 9783 C 966.424 -1.5331 1.39681 0
M  V30 9784 C 966.849 -1.88098 -0.00768715 0
M  V30 9785 O 966.207 -1.51642 -0.993699 0
M  V30 9786 C 966.255 -2.79958 2.27279 0
M  V30 9787 O 965.359 -3.75727 1.70008 0
M  V30 9788 H 964.7 -0.463131 0.475821 0
M  V30 9789 H 967.23 -0.911768 1.83161 0
M  V30 9790 H 967.24 -3.28732 2.41659 0
M  V30 9791 H 965.915 -2.5397 3.29351 0
M  V30 9792 H 964.492 -3.34483 1.64851 0
M  V30 9793 N 966.677 -1.24326 -0.968545 0
M  V30 9794 C 967.925 -1.08032 -1.70803 0
M  V30 9795 C 968.246 0.381728 -1.91227 0
M  V30 9796 O 967.516 1.27253 -1.48942 0
M  V30 9797 H 966.096 -0.396777 -0.632912 0
M  V30 9798 H 968.758 -1.56232 -1.16523 0
M  V30 9799 H 967.854 -1.57769 -2.69287 0
M  V30 9800 N 968.156 1.1691 -1.05688 0
M  V30 9801 C 969.119 2.19297 -0.666433 0
M  V30 9802 C 970.119 1.5826 0.284674 0
M  V30 9803 O 971.309 1.74068 0.0678757 0
M  V30 9804 C 968.441 3.40894 0.0203656 0
M  V30 9805 H 969.634 2.55354 -1.57272 0
M  V30 9806 H 967.187 1.31078 -0.851359 0
M  V30 9807 H 967.922 3.10388 0.939686 0
M  V30 9808 H 967.707 3.86446 -0.663464 0
M  V30 9809 H 969.197 4.16664 0.279475 0
M  V30 9810 N 969.634 0.838594 1.33437 0
M  V30 9811 C 971.045 0.490934 1.8013 0
M  V30 9812 C 971.396 -0.990024 1.6939 0
M  V30 9813 O 970.521 -1.77139 1.24302 0
M  V30 9814 C 971.116 0.884347 3.27055 0
M  V30 9815 C 969.675 0.588829 3.71766 0
M  V30 9816 C 968.822 1.09282 2.54858 0
M  V30 9817 H 971.773 1.02732 1.20962 0
M  V30 9818 H 971.794 0.194283 3.80004 0
M  V30 9819 H 971.306 1.96225 3.34839 0
M  V30 9820 H 969.407 -0.479018 3.69508 0
M  V30 9821 H 969.52 1.14387 4.65245 0
M  V30 9822 H 967.884 0.513702 2.49466 0
M  V30 9823 H 968.667 2.1775 2.65405 0
M  V30 9824 N 971.112 -1.45937 0.595003 0
M  V30 9825 C 972.523 -1.85908 0.171779 0
M  V30 9826 C 972.874 -1.497 -1.26824 0
M  V30 9827 O 971.999 -0.917688 -1.95978 0
M  V30 9828 C 972.594 -3.37425 0.304976 0
M  V30 9829 C 971.153 -3.76346 -0.0634635 0
M  V30 9830 C 970.3 -2.69926 0.635255 0
M  V30 9831 H 973.251 -1.36916 0.802471 0
M  V30 9832 H 973.272 -3.77632 -0.466313 0
M  V30 9833 H 972.784 -3.63747 1.35314 0
M  V30 9834 H 970.885 -3.55642 -1.11129 0
M  V30 9835 H 970.998 -4.78021 0.321419 0
M  V30 9836 H 969.362 -2.54592 0.0742054 0
M  V30 9837 H 970.145 -2.99086 1.68531 0
M  V30 9838 N 972.59 -0.333456 -1.54032 0
M  V30 9839 C 973.836 0.266527 -2.01041 0
M  V30 9840 C 974.169 1.51006 -1.2211 0
M  V30 9841 O 973.444 1.92078 -0.306016 0
M  V30 9842 C 973.727 0.59078 -3.55221 0
M  V30 9843 C 973.58 -0.664143 -4.4487 0
M  V30 9844 C 974.899 1.40447 -4.17088 0
M  V30 9845 H 972.018 0.0953979 -0.7308 0
M  V30 9846 H 974.66 -0.451995 -1.84545 0
M  V30 9847 H 972.81 1.20292 -3.69408 0
M  V30 9848 H 974.482 -1.30227 -4.42537 0
M  V30 9849 H 972.725 -1.29106 -4.14143 0
M  V30 9850 H 973.396 -0.392664 -5.50602 0
M  V30 9851 H 975.872 0.886946 -4.06537 0
M  V30 9852 H 974.748 1.6001 -5.2506 0
M  V30 9853 H 975.009 2.40357 -3.71054 0
M  V30 9854 N 974.068 1.57479 -0.061844 0
M  V30 9855 C 975.479 1.80627 0.472295 0
M  V30 9856 C 975.83 0.97496 1.70261 0
M  V30 9857 O 974.955 0.1946 2.15523 0
M  V30 9858 C 975.55 3.27608 0.863616 0
M  V30 9859 C 974.109 3.51638 1.34267 0
M  V30 9860 C 973.256 2.75412 0.323009 0
M  V30 9861 H 976.207 1.56072 -0.287634 0
M  V30 9862 H 976.228 3.39113 1.72577 0
M  V30 9863 H 975.74 3.88087 -0.0320226 0
M  V30 9864 H 973.841 2.96452 2.25714 0
M  V30 9865 H 973.954 4.60342 1.32747 0
M  V30 9866 H 972.318 2.4187 0.798175 0
M  V30 9867 H 973.101 3.38623 -0.564729 0
M  V30 9868 N 975.546 -0.211634 1.56173 0
M  V30 9869 C 976.957 -0.777776 1.69728 0
M  V30 9870 C 977.308 -1.84566 0.66558 0
M  V30 9871 O 976.433 -2.15639 -0.181338 0
M  V30 9872 C 977.028 -1.41757 3.07718 0
M  V30 9873 C 975.587 -1.93098 3.23094 0
M  V30 9874 C 974.734 -0.794785 2.65666 0
M  V30 9875 H 977.685 0.0131839 1.58695 0
M  V30 9876 H 977.706 -2.28662 3.04128 0
M  V30 9877 H 977.218 -0.640114 3.82785 0
M  V30 9878 H 975.319 -2.73615 2.52914 0
M  V30 9879 H 975.432 -2.10414 4.30422 0
M  V30 9880 H 973.796 -1.20473 2.24407 0
M  V30 9881 H 974.579 -0.0298408 3.43287 0
M  V30 9882 N 977.024 -1.50153 -0.478725 0
M  V30 9883 C 978.252 -1.64505 -1.25482 0
M  V30 9884 C 978.667 -0.325295 -1.85977 0
M  V30 9885 O 978.024 0.691885 -1.68876 0
M  V30 9886 C 978.075 -2.73052 -2.36906 0
M  V30 9887 O 977.796 -3.99911 -1.78894 0
M  V30 9888 C 979.297 -2.98309 -3.27912 0
M  V30 9889 H 976.517 -0.55318 -0.379781 0
M  V30 9890 H 979.061 -1.96329 -0.57229 0
M  V30 9891 H 977.216 -2.43944 -3.00949 0
M  V30 9892 H 977.63 -4.5988 -2.52211 0
M  V30 9893 H 979.104 -3.77942 -4.02323 0
M  V30 9894 H 979.581 -2.09082 -3.8624 0
M  V30 9895 H 980.187 -3.2892 -2.69614 0
M  V30 9896 N 978.502 0.731368 -1.39602 0
M  V30 9897 C 979.75 1.48805 -1.36753 0
M  V30 9898 C 980.071 1.94969 0.034676 0
M  V30 9899 O 979.341 1.69243 0.986591 0
M  V30 9900 H 977.921 0.55203 -0.503261 0
M  V30 9901 H 980.583 0.868013 -1.74504 0
M  V30 9902 H 979.679 2.36844 -2.03252 0
M  V30 9903 N 979.98 1.24838 0.961938 0
M  V30 9904 C 981.257 0.99939 1.68141 0
M  V30 9905 C 981.637 -0.476588 2.0565 0
M  V30 9906 O 980.985 -1.45224 1.76415 0
M  V30 9907 C 981.195 1.92797 2.90913 0
M  V30 9908 C 982.543 2.20219 3.63027 0
M  V30 9909 O 983.567 1.90496 3.00981 0
M  V30 9910 O 982.426 2.70725 4.74731 0
M  V30 9911 H 979.52 0.37842 0.735342 0
M  V30 9912 H 982.066 1.35961 1.01551 0
M  V30 9913 H 980.838 2.92492 2.59931 0
M  V30 9914 H 980.461 1.57127 3.65235 0
M  V30 9915 N 981.458 -1.16348 1.06306 0
M  V30 9916 C 982.683 -1.91323 0.800636 0
M  V30 9917 C 983.108 -1.7691 -0.639105 0
M  V30 9918 O 982.466 -1.0945 -1.44535 0
M  V30 9919 C 982.514 -3.40038 1.20027 0
M  V30 9920 O 981.618 -4.11003 0.339142 0
M  V30 9921 H 980.959 -0.596057 0.292595 0
M  V30 9922 H 983.489 -1.47406 1.41889 0
M  V30 9923 H 983.499 -3.90808 1.17188 0
M  V30 9924 H 982.174 -3.49848 2.24898 0
M  V30 9925 H 980.751 -3.70423 0.42911 0
M  V30 9926 N 982.937 -0.845659 -1.3299 0
M  V30 9927 C 984.185 -0.443774 -1.97168 0
M  V30 9928 C 984.506 1.00192 -1.67292 0
M  V30 9929 O 983.776 1.69891 -0.975397 0
M  V30 9930 H 982.356 -0.161111 -0.729419 0
M  V30 9931 H 985.018 -1.08011 -1.62233 0
M  V30 9932 H 984.114 -0.581414 -3.06637 0
M  V30 9933 N 984.415 1.45619 -0.602734 0
M  V30 9934 C 985.378 2.28941 0.108962 0
M  V30 9935 C 986.378 1.39501 0.799762 0
M  V30 9936 O 987.568 1.61673 0.648663 0
M  V30 9937 C 984.7 3.204 1.16432 0
M  V30 9938 H 985.893 2.93346 -0.623534 0
M  V30 9939 H 983.446 1.52061 -0.361565 0
M  V30 9940 H 984.181 2.60785 1.92774 0
M  V30 9941 H 983.966 3.86277 0.673248 0
M  V30 9942 H 985.456 3.83063 1.6629 0
M  V30 9943 N 985.893 0.34162 1.53853 0
M  V30 9944 C 987.304 -0.14269 1.86154 0
M  V30 9945 C 987.655 -1.50151 1.2629 0
M  V30 9946 O 986.78 -2.08601 0.575735 0
M  V30 9947 C 987.375 -0.265691 3.37757 0
M  V30 9948 C 985.934 -0.694231 3.69942 0
M  V30 9949 C 985.081 0.173195 2.76759 0
M  V30 9950 H 988.032 0.561284 1.48443 0
M  V30 9951 H 988.053 -1.09352 3.64448 0
M  V30 9952 H 987.565 0.723424 3.81298 0
M  V30 9953 H 985.666 -1.69244 3.31945 0
M  V30 9954 H 985.779 -0.485461 4.76634 0
M  V30 9955 H 984.143 -0.35416 2.52226 0
M  V30 9956 H 984.926 1.15941 3.23129 0
M  V30 9957 N 987.371 -1.57444 0.0701946 0
M  V30 9958 C 988.782 -1.80875 -0.462709 0
M  V30 9959 C 989.133 -0.983975 -1.69742 0
M  V30 9960 O 988.258 -0.206027 -2.15417 0
M  V30 9961 C 988.853 -3.28062 -0.84623 0
M  V30 9962 C 987.412 -3.52345 -1.32401 0
M  V30 9963 C 986.559 -2.7558 -0.308399 0
M  V30 9964 H 989.51 -1.55917 0.295907 0
M  V30 9965 H 989.531 -3.40023 -1.70776 0
M  V30 9966 H 989.043 -3.88064 0.0526033 0
M  V30 9967 H 987.144 -2.97645 -2.24139 0
M  V30 9968 H 987.257 -4.6104 -1.30304 0
M  V30 9969 H 985.621 -2.4229 -0.785337 0
M  V30 9970 H 986.404 -3.38319 0.582679 0
M  V30 9971 N 988.849 0.203349 -1.56283 0
M  V30 9972 C 990.095 0.926381 -1.80405 0
M  V30 9973 C 990.428 1.8325 -0.642883 0
M  V30 9974 O 989.703 1.91196 0.356998 0
M  V30 9975 C 989.986 1.74972 -3.14733 0
M  V30 9976 C 989.839 0.868866 -4.41328 0
M  V30 9977 C 991.158 2.72394 -3.45672 0
M  V30 9978 H 988.277 0.335346 -0.656286 0
M  V30 9979 H 990.919 0.1942 -1.89005 0
M  V30 9980 H 989.069 2.37394 -3.07533 0
M  V30 9981 H 990.741 0.259986 -4.60567 0
M  V30 9982 H 988.984 0.175161 -4.33446 0
M  V30 9983 H 989.655 1.47975 -5.31796 0
M  V30 9984 H 992.131 2.20105 -3.53119 0
M  V30 9985 H 991.007 3.27091 -4.40798 0
M  V30 9986 H 991.268 3.51035 -2.6875 0
M  V30 9987 N 990.327 1.50405 0.470755 0
M  V30 9988 C 991.738 1.54266 1.05162 0
M  V30 9989 C 992.089 0.346359 1.93119 0
M  V30 9990 O 991.214 -0.540699 2.09536 0
M  V30 9991 C 991.809 2.7956 1.91394 0
M  V30 9992 C 990.368 2.86101 2.44588 0
M  V30 9993 C 989.515 2.48557 1.22941 0
M  V30 9994 H 992.466 1.56665 0.253359 0
M  V30 9995 H 992.487 2.61434 2.76464 0
M  V30 9996 H 991.999 3.66611 1.27351 0
M  V30 9997 H 990.1 2.03403 3.12183 0
M  V30 9998 H 990.213 3.88999 2.79672 0
M  V30 9999 H 988.577 2.01003 1.56429 0
M  V30 10000 H 989.36 3.37916 0.605598 0
M  V30 10001 N 991.805 -0.723954 1.39988 0
M  V30 10002 C 993.216 -1.30273 1.33738 0
M  V30 10003 C 993.567 -1.96199 0.00690581 0
M  V30 10004 O 992.692 -1.97016 -0.895179 0
M  V30 10005 C 993.287 -2.36889 2.42217 0
M  V30 10006 C 991.846 -2.90412 2.39453 0
M  V30 10007 C 990.993 -1.64103 2.2353 0
M  V30 10008 H 993.944 -0.520672 1.49916 0
M  V30 10009 H 993.965 -3.17538 2.09642 0
M  V30 10010 H 993.477 -1.88878 3.39038 0
M  V30 10011 H 991.578 -3.42674 1.46304 0
M  V30 10012 H 991.691 -3.42775 3.34727 0
M  V30 10013 H 990.055 -1.88855 1.70897 0
M  V30 10014 H 990.838 -1.18128 3.22336 0
M  V30 10015 N 993.283 -1.25346 -0.955304 0
M  V30 10016 C 994.511 -1.12793 -1.73451 0
M  V30 10017 C 994.926 0.318344 -1.86097 0
M  V30 10018 O 994.283 1.21897 -1.35821 0
M  V30 10019 C 994.334 -1.77603 -3.14864 0
M  V30 10020 O 994.055 -3.16577 -3.02837 0
M  V30 10021 C 995.556 -1.70821 -4.09066 0
M  V30 10022 H 992.776 -0.393457 -0.543537 0
M  V30 10023 H 995.32 -1.65696 -1.19855 0
M  V30 10024 H 993.475 -1.28673 -3.65407 0
M  V30 10025 H 993.889 -3.48433 -3.92039 0
M  V30 10026 H 995.363 -2.2083 -5.05903 0
M  V30 10027 H 995.84 -0.671858 -4.34031 0
M  V30 10028 H 996.446 -2.19237 -3.64438 0
M  V30 10029 N 994.761 1.15782 -1.06922 0
M  V30 10030 C 996.009 1.86097 -0.788192 0
M  V30 10031 C 996.33 1.82475 0.687606 0
M  V30 10032 O 995.6 1.26266 1.49778 0
M  V30 10033 H 994.18 0.689008 -0.288577 0
M  V30 10034 H 996.842 1.40377 -1.35205 0
M  V30 10035 H 995.938 2.91358 -1.1188 0
M  V30 10036 N 996.239 0.8527 1.3254 0
M  V30 10037 C 997.516 0.376491 1.91942 0
M  V30 10038 C 997.896 -1.13972 1.7769 0
M  V30 10039 O 997.244 -1.96047 1.17379 0
M  V30 10040 C 997.454 0.838694 3.38773 0
M  V30 10041 C 998.802 0.854736 4.15908 0
M  V30 10042 O 999.826 0.783203 3.47483 0
M  V30 10043 O 998.685 0.955207 5.38087 0
M  V30 10044 H 995.779 0.109412 0.81973 0
M  V30 10045 H 998.325 0.93947 1.41322 0
M  V30 10046 H 997.097 1.88179 3.43081 0
M  V30 10047 H 996.72 0.253055 3.96794 0
M  V30 10048 N 997.718 -1.45297 0.610449 0
M  V30 10049 C 998.681 -2.28995 -0.0968194 0
M  V30 10050 C 999.681 -1.39923 -0.792353 0
M  V30 10051 O 1000.87 -1.62014 -0.64008 0
M  V30 10052 C 998.003 -3.21013 -1.14731 0
M  V30 10053 H 999.196 -2.93012 0.639082 0
M  V30 10054 H 996.749 -1.51867 0.369624 0
M  V30 10055 H 997.484 -2.61803 -1.91388 0
M  V30 10056 H 997.269 -3.86628 -0.652753 0
M  V30 10057 H 998.759 -3.8394 -1.64256 0
M  V30 10058 N 999.196 -0.349774 -1.5367 0
M  V30 10059 C 1000.44 0.244343 -2.00617 0
M  V30 10060 C 1000.76 1.50567 -1.23914 0
M  V30 10061 O 1000.03 1.92784 -0.348016 0
M  V30 10062 H 998.615 0.0932792 -0.741153 0
M  V30 10063 H 1001.28 -0.472367 -1.89089 0
M  V30 10064 H 1000.37 0.482433 -3.08349 0
M  V30 10065 N 1000.67 1.57404 -0.0785433 0
M  V30 10066 C 1002.08 1.81118 0.45311 0
M  V30 10067 C 1002.44 0.992963 1.69218 0
M  V30 10068 O 1001.56 0.217448 2.15305 0
M  V30 10069 C 1002.16 3.28506 0.82882 0
M  V30 10070 C 1000.71 3.53042 1.3053 0
M  V30 10071 C 999.862 2.75739 0.29378 0
M  V30 10072 H 1002.81 1.55758 -0.304171 0
M  V30 10073 H 1002.83 3.40924 1.68971 0
M  V30 10074 H 1002.35 3.88031 -0.0731826 0
M  V30 10075 H 1000.45 2.98829 2.22558 0
M  V30 10076 H 1000.56 4.61724 1.27857 0
M  V30 10077 H 998.924 2.42703 0.772477 0
M  V30 10078 H 999.707 3.38005 -0.600613 0
M  V30 10079 N 1002.15 -0.195058 1.56388 0
M  V30 10080 C 1003.56 -0.75973 1.70543 0
M  V30 10081 C 1003.91 -1.83849 0.685118 0
M  V30 10082 O 1003.04 -2.15819 -0.158457 0
M  V30 10083 C 1003.63 -1.38485 3.09204 0
M  V30 10084 C 1002.19 -1.89661 3.25124 0
M  V30 10085 C 1001.34 -0.766563 2.66494 0
M  V30 10086 H 1004.29 0.0300148 1.58672 0
M  V30 10087 H 1004.31 -2.25424 3.06536 0
M  V30 10088 H 1003.82 -0.599479 3.83442 0
M  V30 10089 H 1001.92 -2.70917 2.55802 0
M  V30 10090 H 1002.04 -2.05837 4.32629 0
M  V30 10091 H 1000.4 -1.18086 2.25672 0
M  V30 10092 H 1001.18 0.00657102 3.43299 0
M  V30 10093 N 1003.63 -1.50653 -0.462772 0
M  V30 10094 C 1005.04 -1.54821 -1.04342 0
M  V30 10095 C 1005.39 -0.356595 -1.92932 0
M  V30 10096 O 1004.52 0.529579 -2.0982 0
M  V30 10097 C 1005.11 -2.80571 -1.89909 0
M  V30 10098 C 1003.67 -2.87394 -2.43067 0
M  V30 10099 C 1002.82 -2.49206 -1.21621 0
M  V30 10100 H 1005.77 -1.56797 -0.245048 0
M  V30 10101 H 1005.79 -2.62897 -2.75074 0
M  V30 10102 H 1005.3 -3.67281 -1.25405 0
M  V30 10103 H 1003.4 -2.05055 -3.111 0
M  V30 10104 H 1003.52 -3.90477 -2.77605 0
M  V30 10105 H 1001.88 -2.01829 -1.55361 0
M  V30 10106 H 1002.66 -3.38233 -0.587669 0
M  V30 10107 N 1005.11 0.71652 -1.4037 0
M  V30 10108 C 1006.35 1.47857 -1.38803 0
M  V30 10109 C 1006.69 1.94197 0.0100536 0
M  V30 10110 O 1005.96 1.68093 0.978521 0
M  V30 10111 C 1006.25 2.7053 -2.37667 0
M  V30 10112 C 1006.1 2.3009 -3.86496 0
M  V30 10113 C 1007.42 3.72684 -2.34082 0
M  V30 10114 H 1004.54 0.53632 -0.505499 0
M  V30 10115 H 1007.18 0.817824 -1.71498 0
M  V30 10116 H 1005.33 3.26906 -2.09916 0
M  V30 10117 H 1007 1.79202 -4.2507 0
M  V30 10118 H 1005.24 1.62102 -4.02375 0
M  V30 10119 H 1005.91 3.18018 -4.51186 0
M  V30 10120 H 1008.39 3.25935 -2.58661 0
M  V30 10121 H 1007.27 4.56157 -3.05306 0
M  V30 10122 H 1007.53 4.20916 -1.35213 0
M  V30 10123 N 1006.59 1.25851 0.948643 0
M  V30 10124 C 1008 1.09975 1.50872 0
M  V30 10125 C 1008.35 -0.322497 1.93531 0
M  V30 10126 O 1007.47 -1.21316 1.79197 0
M  V30 10127 C 1008.07 1.99021 2.74182 0
M  V30 10128 C 1006.63 1.87313 3.26483 0
M  V30 10129 C 1005.77 1.92815 1.99293 0
M  V30 10130 H 1008.73 1.3905 0.764908 0
M  V30 10131 H 1008.75 1.53372 3.4822 0
M  V30 10132 H 1008.26 3.02527 2.43103 0
M  V30 10133 H 1006.36 0.867136 3.62369 0
M  V30 10134 H 1006.47 2.72446 3.94094 0
M  V30 10135 H 1004.84 1.36774 2.1486 0
M  V30 10136 H 1005.62 2.97936 1.70554 0
M  V30 10137 N 1008.06 -1.15214 1.07534 0
M  V30 10138 C 1009.48 -1.67628 0.822045 0
M  V30 10139 C 1009.83 -1.8503 -0.652571 0
M  V30 10140 O 1008.95 -1.55497 -1.50498 0
M  V30 10141 C 1009.55 -3.04489 1.48566 0
M  V30 10142 C 1008.11 -3.53974 1.27983 0
M  V30 10143 C 1007.25 -2.29656 1.55414 0
M  V30 10144 H 1010.2 -0.994016 1.23713 0
M  V30 10145 H 1010.22 -3.69509 0.907916 0
M  V30 10146 H 1009.74 -2.91792 2.55888 0
M  V30 10147 H 1007.84 -3.71908 0.226906 0
M  V30 10148 H 1007.95 -4.35298 2.0013 0
M  V30 10149 H 1006.31 -2.35289 0.975251 0
M  V30 10150 H 1007.1 -2.19544 2.63923 0
M  V30 10151 N 1009.54 -0.859717 -1.32086 0
M  V30 10152 C 1010.77 -0.479724 -2.01262 0
M  V30 10153 C 1011.19 0.924985 -1.64589 0
M  V30 10154 O 1010.54 1.60439 -0.869803 0
M  V30 10155 C 1010.59 -0.615128 -3.56228 0
M  V30 10156 O 1010.31 -1.96451 -3.91585 0
M  V30 10157 C 1011.82 -0.234804 -4.42678 0
M  V30 10158 H 1009.04 -0.188007 -0.644123 0
M  V30 10159 H 1011.58 -1.15805 -1.68551 0
M  V30 10160 H 1009.73 0.0155268 -3.87397 0
M  V30 10161 H 1010.15 -1.96491 -4.86304 0
M  V30 10162 H 1011.62 -0.380534 -5.50687 0
M  V30 10163 H 1012.1 0.825189 -4.31378 0
M  V30 10164 H 1012.71 -0.840739 -4.16907 0
M  V30 10165 N 1011.02 1.44971 -0.618145 0
M  V30 10166 C 1012.27 2.0176 -0.11725 0
M  V30 10167 C 1012.59 1.48773 1.26062 0
M  V30 10168 O 1011.86 0.686152 1.83491 0
M  V30 10169 H 1010.44 0.745909 -0.0403545 0
M  V30 10170 H 1013.1 1.77638 -0.801923 0
M  V30 10171 H 1012.2 3.1201 -0.0750477 0
M  V30 10172 N 1012.5 0.357919 1.53482 0
M  V30 10173 C 1013.78 -0.290164 1.93436 0
M  V30 10174 C 1014.16 -1.67039 1.29079 0
M  V30 10175 O 1013.5 -2.24085 0.447017 0
M  V30 10176 C 1013.71 -0.348055 3.4726 0
M  V30 10177 C 1015.06 -0.59206 4.20452 0
M  V30 10178 O 1016.09 -0.429581 3.536 0
M  V30 10179 O 1014.94 -0.907855 5.38907 0
M  V30 10180 H 1012.04 -0.172312 0.80885 0
M  V30 10181 H 1014.58 0.410144 1.64669 0
M  V30 10182 H 1013.36 0.619953 3.86358 0
M  V30 10183 H 1012.98 -1.09457 3.82237 0
M  V30 10184 N 1013.98 -1.5736 0.0868897 0
M  V30 10185 C 1015.2 -1.98809 -0.590757 0
M  V30 10186 C 1015.63 -0.965407 -1.61436 0
M  V30 10187 O 1014.98 0.067143 -1.81176 0
M  V30 10188 C 1015.03 -3.39249 -1.22238 0
M  V30 10189 O 1014.14 -3.39706 -2.33824 0
M  V30 10190 H 1013.48 -0.64669 -0.150626 0
M  V30 10191 H 1016.01 -2.03927 0.165873 0
M  V30 10192 H 1016.02 -3.76765 -1.56564 0
M  V30 10193 H 1014.69 -4.13208 -0.472434 0
M  V30 10194 H 1013.27 -3.13977 -2.01178 0
M  V30 10195 N 1015.45 0.186762 -1.56489 0
M  V30 10196 C 1016.7 0.904063 -1.80752 0
M  V30 10197 C 1017.02 1.83443 -0.661343 0
M  V30 10198 O 1016.29 1.93272 0.319811 0
M  V30 10199 H 1014.87 0.336828 -0.66675 0
M  V30 10200 H 1017.54 0.190275 -1.93969 0
M  V30 10201 H 1016.63 1.49021 -2.74225 0
M  V30 10202 N 1016.93 1.50896 0.454776 0
M  V30 10203 C 1017.9 1.70377 1.53312 0
M  V30 10204 C 1018.9 0.57408 1.50203 0
M  V30 10205 O 1020.09 0.841374 1.52534 0
M  V30 10206 C 1017.22 1.74411 2.92905 0
M  V30 10207 H 1018.41 2.66599 1.37349 0
M  V30 10208 H 1015.96 1.40622 0.68228 0
M  V30 10209 H 1016.7 0.799408 3.14293 0
M  V30 10210 H 1016.48 2.56496 2.96568 0
M  V30 10211 H 1017.97 1.91382 3.71164 0
M  V30 10212 N 1018.41 -0.709066 1.40748 0
M  V30 10213 C 1019.82 -1.28847 1.35112 0
M  V30 10214 C 1020.17 -1.9618 0.0277149 0
M  V30 10215 O 1019.3 -1.97955 -0.874233 0
M  V30 10216 C 1019.89 -2.34306 2.44716 0
M  V30 10217 C 1018.45 -2.87856 2.4252 0
M  V30 10218 C 1017.6 -1.61723 2.25257 0
M  V30 10219 H 1020.55 -0.504742 1.50459 0
M  V30 10220 H 1020.57 -3.15297 2.12998 0
M  V30 10221 H 1020.08 -1.85271 3.41022 0
M  V30 10222 H 1018.18 -3.41103 1.49931 0
M  V30 10223 H 1018.3 -3.39205 3.38344 0
M  V30 10224 H 1016.66 -1.87032 1.7289 0
M  V30 10225 H 1017.44 -1.14703 3.23571 0
M  V30 10226 N 1019.89 -1.26353 -0.941956 0
M  V30 10227 C 1021.3 -1.10774 -1.50287 0
M  V30 10228 C 1021.65 0.312229 -1.937 0
M  V30 10229 O 1020.78 1.20364 -1.79838 0
M  V30 10230 C 1021.37 -2.00473 -2.73123 0
M  V30 10231 C 1019.93 -1.89042 -3.25485 0
M  V30 10232 C 1019.08 -1.93869 -1.98267 0
M  V30 10233 H 1022.03 -1.39454 -0.757523 0
M  V30 10234 H 1022.05 -1.55216 -3.47402 0
M  V30 10235 H 1021.56 -3.03812 -2.41495 0
M  V30 10236 H 1019.66 -0.886341 -3.61904 0
M  V30 10237 H 1019.78 -2.74533 -3.92643 0
M  V30 10238 H 1018.14 -1.37912 -2.14132 0
M  V30 10239 H 1018.92 -2.98837 -1.68972 0
M  V30 10240 N 1021.37 1.14642 -1.08144 0
M  V30 10241 C 1022.61 1.85892 -0.810683 0
M  V30 10242 C 1022.95 1.82575 0.661821 0
M  V30 10243 O 1022.22 1.25454 1.48632 0
M  V30 10244 C 1022.5 3.34647 -1.32979 0
M  V30 10245 C 1022.36 3.46551 -2.86744 0
M  V30 10246 C 1023.68 4.29661 -0.952864 0
M  V30 10247 H 1020.8 0.674963 -0.295963 0
M  V30 10248 H 1023.44 1.3464 -1.3406 0
M  V30 10249 H 1021.59 3.78425 -0.87903 0
M  V30 10250 H 1023.26 3.11579 -3.40171 0
M  V30 10251 H 1021.5 2.87849 -3.24539 0
M  V30 10252 H 1022.17 4.51101 -3.18138 0
M  V30 10253 H 1024.65 3.93885 -1.34141 0
M  V30 10254 H 1023.53 5.32209 -1.34331 0
M  V30 10255 H 1023.79 4.41877 0.140392 0
M  V30 10256 N 1022.85 0.866709 1.31628 0
M  V30 10257 C 1024.26 0.529032 1.79048 0
M  V30 10258 C 1024.61 -0.953871 1.71452 0
M  V30 10259 O 1023.73 -1.74462 1.28031 0
M  V30 10260 C 1024.33 0.953522 3.25105 0
M  V30 10261 C 1022.89 0.667554 3.70433 0
M  V30 10262 C 1022.03 1.14664 2.52483 0
M  V30 10263 H 1024.98 1.05275 1.18756 0
M  V30 10264 H 1025.01 0.274844 3.79506 0
M  V30 10265 H 1024.52 2.03283 3.30602 0
M  V30 10266 H 1022.62 -0.400532 3.70441 0
M  V30 10267 H 1022.73 1.2423 4.62714 0
M  V30 10268 H 1021.1 0.566502 2.4832 0
M  V30 10269 H 1021.88 2.2333 2.60727 0
M  V30 10270 N 1024.32 -1.44642 0.625825 0
M  V30 10271 C 1025.73 -1.85502 0.211175 0
M  V30 10272 C 1026.09 -1.52356 -1.2362 0
M  V30 10273 O 1025.21 -0.959051 -1.93988 0
M  V30 10274 C 1025.81 -3.36702 0.37648 0
M  V30 10275 C 1024.36 -3.76396 0.0163795 0
M  V30 10276 C 1023.51 -2.68517 0.692368 0
M  V30 10277 H 1026.46 -1.35183 0.831333 0
M  V30 10278 H 1026.48 -3.78536 -0.386106 0
M  V30 10279 H 1026 -3.60795 1.42999 0
M  V30 10280 H 1024.1 -3.57919 -1.0356 0
M  V30 10281 H 1024.21 -4.77231 0.422742 0
M  V30 10282 H 1022.57 -2.54377 0.128191 0
M  V30 10283 H 1023.36 -2.95444 1.74837 0
M  V30 10284 N 1025.8 -0.366053 -1.5329 0
M  V30 10285 C 1027.03 0.224236 -2.05681 0
M  V30 10286 C 1027.44 1.42412 -1.23952 0
M  V30 10287 O 1026.8 1.80334 -0.280309 0
M  V30 10288 C 1026.85 0.617266 -3.56191 0
M  V30 10289 O 1026.57 -0.534931 -4.34822 0
M  V30 10290 C 1028.07 1.26589 -4.24841 0
M  V30 10291 H 1025.29 0.0392928 -0.669849 0
M  V30 10292 H 1027.84 -0.52456 -1.97658 0
M  V30 10293 H 1025.99 1.31598 -3.64364 0
M  V30 10294 H 1026.41 -0.217123 -5.2405 0
M  V30 10295 H 1027.88 1.49146 -5.31469 0
M  V30 10296 H 1028.36 2.22633 -3.78591 0
M  V30 10297 H 1028.96 0.6086 -4.20923 0
M  V30 10298 N 1027.28 1.57312 -0.0952337 0
M  V30 10299 C 1028.53 1.93974 0.567319 0
M  V30 10300 C 1028.85 0.977805 1.68713 0
M  V30 10301 O 1028.12 0.0298944 1.95877 0
M  V30 10302 H 1026.7 0.71612 0.212558 0
M  V30 10303 H 1029.36 1.94254 -0.158598 0
M  V30 10304 H 1028.46 2.964 0.977423 0
M  V30 10305 N 1028.76 -0.17846 1.56586 0
M  V30 10306 C 1030.03 -0.923096 1.72448 0
M  V30 10307 C 1030.41 -2.00692 0.654659 0
M  V30 10308 O 1029.76 -2.26079 -0.33171 0
M  V30 10309 C 1029.97 -1.49435 3.15389 0
M  V30 10310 C 1031.32 -1.97005 3.76131 0
M  V30 10311 O 1032.34 -1.59244 3.18622 0
M  V30 10312 O 1031.2 -2.66541 4.77094 0
M  V30 10313 H 1028.3 -0.434009 0.703964 0
M  V30 10314 H 1030.84 -0.16685 1.68878 0
M  V30 10315 H 1029.62 -0.713933 3.84732 0
M  V30 10316 H 1029.24 -2.31498 3.23256 0
M  V30 10317 N 1030.24 -1.51135 -0.446768 0
M  V30 10318 C 1031.46 -1.67411 -1.22427 0
M  V30 10319 C 1031.89 -0.367009 -1.84485 0
M  V30 10320 O 1031.24 0.67185 -1.68392 0
M  V30 10321 C 1031.29 -2.78473 -2.29096 0
M  V30 10322 O 1030.4 -2.41419 -3.34351 0
M  V30 10323 H 1029.74 -0.558512 -0.359111 0
M  V30 10324 H 1032.27 -1.97648 -0.5288 0
M  V30 10325 H 1032.28 -3.02277 -2.7403 0
M  V30 10326 H 1030.95 -3.73326 -1.83304 0
M  V30 10327 H 1029.53 -2.28152 -2.9496 0
M  V30 10328 N 1031.71 0.701592 -1.41122 0
M  V30 10329 C 1032.96 1.45871 -1.39879 0
M  V30 10330 C 1033.28 1.94999 -0.00668769 0
M  V30 10331 O 1032.55 1.71298 0.95047 0
M  V30 10332 H 1031.13 0.541231 -0.514857 0
M  V30 10333 H 1033.79 0.830803 -1.76306 0
M  V30 10334 H 1032.89 2.32479 -2.0823 0
M  V30 10335 N 1033.19 1.2685 0.935242 0
M  V30 10336 C 1034.15 1.08975 2.01636 0
M  V30 10337 C 1035.15 0.0361543 1.60759 0
M  V30 10338 O 1036.34 0.280087 1.71934 0
M  V30 10339 C 1033.48 0.658831 3.34473 0
M  V30 10340 H 1034.67 2.04968 2.18925 0
M  V30 10341 H 1032.22 1.09531 1.11501 0
M  V30 10342 H 1032.96 -0.302824 3.22883 0
M  V30 10343 H 1032.74 1.41967 3.65497 0
M  V30 10344 H 1034.23 0.555783 4.13885 0
M  V30 10345 N 1034.67 -1.14067 1.0875 0
M  V30 10346 C 1036.08 -1.66747 0.839778 0
M  V30 10347 C 1036.43 -1.85711 -0.632909 0
M  V30 10348 O 1035.56 -1.57084 -1.48841 0
M  V30 10349 C 1036.15 -3.02896 1.51787 0
M  V30 10350 C 1034.71 -3.52596 1.3173 0
M  V30 10351 C 1033.86 -2.27994 1.57841 0
M  V30 10352 H 1036.81 -0.980838 1.24761 0
M  V30 10353 H 1036.83 -3.68526 0.947057 0
M  V30 10354 H 1036.34 -2.89062 2.58969 0
M  V30 10355 H 1034.44 -3.71647 0.266339 0
M  V30 10356 H 1034.56 -4.33151 2.04736 0
M  V30 10357 H 1032.92 -2.34241 1.00015 0
M  V30 10358 H 1033.7 -2.16732 2.66237 0
M  V30 10359 N 1036.15 -0.873678 -1.31166 0
M  V30 10360 C 1037.56 -0.53852 -1.78765 0
M  V30 10361 C 1037.91 0.944765 -1.71955 0
M  V30 10362 O 1037.04 1.73781 -1.28954 0
M  V30 10363 C 1037.63 -0.970749 -3.24595 0
M  V30 10364 C 1036.19 -0.687189 -3.70074 0
M  V30 10365 C 1035.34 -1.16001 -2.51871 0
M  V30 10366 H 1038.29 -1.05903 -1.18196 0
M  V30 10367 H 1038.31 -0.294966 -3.79355 0
M  V30 10368 H 1037.82 -2.05034 -3.29519 0
M  V30 10369 H 1035.92 0.380881 -3.70648 0
M  V30 10370 H 1036.03 -1.26682 -4.62048 0
M  V30 10371 H 1034.4 -0.579663 -2.48016 0
M  V30 10372 H 1035.18 -2.2471 -2.59539 0
M  V30 10373 N 1037.63 1.44308 -0.633487 0
M  V30 10374 C 1038.87 2.02322 -0.139123 0
M  V30 10375 C 1039.21 1.49733 1.23667 0
M  V30 10376 O 1038.48 0.682353 1.82138 0
M  V30 10377 C 1038.76 3.59871 -0.128366 0
M  V30 10378 C 1038.62 4.22737 -1.53667 0
M  V30 10379 C 1039.94 4.36702 0.545834 0
M  V30 10380 H 1037.05 0.735161 -0.0520293 0
M  V30 10381 H 1039.7 1.7185 -0.810411 0
M  V30 10382 H 1037.85 3.85963 0.443263 0
M  V30 10383 H 1039.52 4.07744 -2.15737 0
M  V30 10384 H 1037.76 3.80142 -2.08985 0
M  V30 10385 H 1038.43 5.31757 -1.48116 0
M  V30 10386 H 1040.91 4.16057 0.0596879 0
M  V30 10387 H 1039.78 5.46407 0.522557 0
M  V30 10388 H 1040.05 4.11483 1.6166 0
M  V30 10389 N 1039.1 0.374177 1.53094 0
M  V30 10390 C 1040.33 -0.213325 2.05797 0
M  V30 10391 C 1040.75 -1.41753 1.24706 0
M  V30 10392 O 1040.1 -1.80183 0.289868 0
M  V30 10393 C 1040.16 -0.598367 3.56513 0
M  V30 10394 O 1039.88 0.557983 4.34532 0
M  V30 10395 C 1041.38 -1.24334 4.25507 0
M  V30 10396 H 1038.6 -0.0357398 0.670048 0
M  V30 10397 H 1041.14 0.535035 1.97377 0
M  V30 10398 H 1039.3 -1.29663 3.65056 0
M  V30 10399 H 1039.71 0.244911 5.23928 0
M  V30 10400 H 1041.18 -1.46325 5.32253 0
M  V30 10401 H 1041.66 -2.20622 3.79766 0
M  V30 10402 H 1042.27 -0.586269 4.2124 0
M  V30 10403 N 1040.58 -1.57259 0.103575 0
M  V30 10404 C 1041.99 -1.81816 -0.424239 0
M  V30 10405 C 1042.34 -1.01976 -1.67617 0
M  V30 10406 O 1041.47 -0.251673 -2.14932 0
M  V30 10407 C 1042.06 -3.29783 -0.776453 0
M  V30 10408 C 1040.62 -3.55074 -1.24897 0
M  V30 10409 C 1039.77 -2.76172 -0.249875 0
M  V30 10410 H 1042.72 -1.55254 0.328913 0
M  V30 10411 H 1042.74 -3.43569 -1.63526 0
M  V30 10412 H 1042.25 -3.87865 0.134906 0
M  V30 10413 H 1040.36 -3.02332 -2.17775 0
M  V30 10414 H 1040.47 -4.637 -1.20495 0
M  V30 10415 H 1038.83 -2.43902 -0.733767 0
M  V30 10416 H 1039.62 -3.37007 0.65431 0
M  V30 10417 N 1042.06 0.170153 -1.56679 0
M  V30 10418 C 1043.29 0.902134 -1.86197 0
M  V30 10419 C 1043.7 1.75775 -0.689098 0
M  V30 10420 O 1043.06 1.79271 0.341763 0
M  V30 10421 C 1043.11 1.77792 -3.14757 0
M  V30 10422 O 1042.83 0.956817 -4.27524 0
M  V30 10423 C 1044.33 2.61947 -3.57629 0
M  V30 10424 H 1041.55 0.262026 -0.617724 0
M  V30 10425 H 1044.1 0.169899 -2.03793 0
M  V30 10426 H 1042.25 2.46348 -2.98984 0
M  V30 10427 H 1042.67 1.5559 -5.00891 0
M  V30 10428 H 1044.14 3.19011 -4.50484 0
M  V30 10429 H 1044.62 3.36873 -2.81803 0
M  V30 10430 H 1045.22 1.98721 -3.76019 0
M  V30 10431 N 1043.54 1.5137 0.438746 0
M  V30 10432 C 1044.79 1.63645 1.18595 0
M  V30 10433 C 1045.11 0.354241 1.91755 0
M  V30 10434 O 1044.38 -0.629838 1.85499 0
M  V30 10435 H 1042.96 0.603103 0.440767 0
M  V30 10436 H 1045.62 1.88293 0.503159 0
M  V30 10437 H 1044.72 2.46342 1.9163 0
M  V30 10438 N 1045.02 -0.694098 1.41492 0
M  V30 10439 C 1046.29 -1.44875 1.31418 0
M  V30 10440 C 1046.67 -2.11022 -0.0575538 0
M  V30 10441 O 1046.02 -2.01799 -1.07188 0
M  V30 10442 C 1046.23 -2.46698 2.46863 0
M  V30 10443 C 1047.58 -3.11907 2.88095 0
M  V30 10444 O 1048.6 -2.57022 2.46613 0
M  V30 10445 O 1047.46 -4.11318 3.59833 0
M  V30 10446 H 1044.56 -0.645266 0.517263 0
M  V30 10447 H 1047.1 -0.724452 1.53459 0
M  V30 10448 H 1045.87 -1.96485 3.38392 0
M  V30 10449 H 1045.5 -3.26634 2.26706 0
M  V30 10450 N 1046.49 -1.27344 -0.928501 0
M  V30 10451 C 1047.72 -1.16557 -1.7155 0
M  V30 10452 C 1048.14 0.274044 -1.86093 0
M  V30 10453 O 1047.5 1.19847 -1.36038 0
M  V30 10454 C 1047.55 -1.85332 -3.09329 0
M  V30 10455 O 1046.65 -1.15074 -3.9602 0
M  V30 10456 H 1046 -0.405423 -0.525859 0
M  V30 10457 H 1048.53 -1.68399 -1.16202 0
M  V30 10458 H 1048.54 -1.92659 -3.59648 0
M  V30 10459 H 1047.21 -2.90056 -2.98061 0
M  V30 10460 H 1045.79 -1.1581 -3.54461 0
M  V30 10461 N 1047.97 1.13488 -1.09353 0
M  V30 10462 C 1048.88 2.2248 -0.744307 0
M  V30 10463 C 1049.9 1.72145 0.253404 0
M  V30 10464 O 1051.07 2.01176 0.0949339 0
M  V30 10465 C 1048.14 3.46286 -0.16928 0
M  V30 10466 C 1047.2 4.11516 -1.22284 0
M  V30 10467 C 1046.43 5.29412 -0.675161 0
M  V30 10468 O 1046.66 5.68185 0.502182 0
M  V30 10469 O 1045.59 5.8467 -1.42983 0
M  V30 10470 H 1049.42 2.54723 -1.65378 0
M  V30 10471 H 1047 1.21607 -0.867879 0
M  V30 10472 H 1048.88 4.2114 0.14811 0
M  V30 10473 H 1047.56 3.15745 0.713214 0
M  V30 10474 H 1046.47 3.38492 -1.59292 0
M  V30 10475 H 1047.8 4.46186 -2.07796 0
M  V30 10476 N 1049.45 0.880621 1.30701 0
M  V30 10477 C 1050.68 0.511682 2.00473 0
M  V30 10478 C 1051.09 -0.898684 1.6604 0
M  V30 10479 O 1050.45 -1.59035 0.895218 0
M  V30 10480 C 1050.5 0.671723 3.55204 0
M  V30 10481 O 1050.22 2.02656 3.8841 0
M  V30 10482 C 1051.72 0.3052 4.42248 0
M  V30 10483 H 1048.94 0.198231 0.64105 0
M  V30 10484 H 1051.49 1.18472 1.66687 0
M  V30 10485 H 1049.64 0.0461066 3.87373 0
M  V30 10486 H 1050.06 2.04202 4.83117 0
M  V30 10487 H 1051.53 0.468095 5.50012 0
M  V30 10488 H 1052.01 -0.756456 4.32637 0
M  V30 10489 H 1052.61 0.906959 4.15517 0
M  V30 10490 N 1050.93 -1.4397 0.641131 0
M  V30 10491 C 1051.89 -2.29149 -0.0482243 0
M  V30 10492 C 1052.89 -1.41572 -0.762495 0
M  V30 10493 O 1054.08 -1.63335 -0.605571 0
M  V30 10494 C 1051.21 -3.23375 -1.07896 0
M  V30 10495 H 1052.41 -2.9159 0.70109 0
M  V30 10496 H 1049.96 -1.51048 0.401754 0
M  V30 10497 H 1050.7 -2.65804 -1.85792 0
M  V30 10498 H 1050.48 -3.87926 -0.570597 0
M  V30 10499 H 1051.97 -3.87337 -1.56075 0
M  V30 10500 N 1052.41 -0.382291 -1.52893 0
M  V30 10501 C 1053.82 0.0932841 -1.86467 0
M  V30 10502 C 1054.17 1.4675 -1.30226 0
M  V30 10503 O 1053.29 2.07001 -0.63084 0
M  V30 10504 C 1053.89 0.176048 -3.38342 0
M  V30 10505 C 1052.45 0.595904 -3.71653 0
M  V30 10506 C 1051.6 -0.246511 -2.76202 0
M  V30 10507 H 1054.55 -0.600443 -1.46903 0
M  V30 10508 H 1054.57 0.996512 -3.67219 0
M  V30 10509 H 1054.08 -0.824264 -3.79246 0
M  V30 10510 H 1052.18 1.60384 -3.36315 0
M  V30 10511 H 1052.29 0.358919 -4.77754 0
M  V30 10512 H 1050.66 0.287162 -2.53076 0
M  V30 10513 H 1051.44 -1.24467 -3.19942 0
M  V30 10514 N 1053.89 1.57202 -0.111913 0
M  V30 10515 C 1055.13 1.95239 0.548607 0
M  V30 10516 C 1055.46 0.994897 1.6678 0
M  V30 10517 O 1054.74 0.0308603 1.94476 0
M  V30 10518 C 1055.02 3.43271 1.08798 0
M  V30 10519 C 1054.88 4.49792 -0.0273064 0
M  V30 10520 C 1056.19 3.92989 1.98109 0
M  V30 10521 H 1053.31 0.709919 0.197951 0
M  V30 10522 H 1055.96 1.89087 -0.186036 0
M  V30 10523 H 1054.11 3.48644 1.71404 0
M  V30 10524 H 1055.78 4.56521 -0.662302 0
M  V30 10525 H 1054.02 4.28254 -0.691426 0
M  V30 10526 H 1054.69 5.50612 0.391201 0
M  V30 10527 H 1057.17 3.89875 1.45385 0
M  V30 10528 H 1056.04 4.97101 2.32769 0
M  V30 10529 H 1056.3 3.33267 2.90492 0
M  V30 10530 N 1055.36 -0.161842 1.56767 0
M  V30 10531 C 1056.77 -0.723385 1.72116 0
M  V30 10532 C 1057.13 -1.82355 0.723961 0
M  V30 10533 O 1056.25 -2.16107 -0.112643 0
M  V30 10534 C 1056.85 -1.31895 3.12072 0
M  V30 10535 C 1055.4 -1.82722 3.29074 0
M  V30 10536 C 1054.55 -0.709863 2.6806 0
M  V30 10537 H 1057.5 0.0636647 1.58572 0
M  V30 10538 H 1057.52 -2.18871 3.11249 0
M  V30 10539 H 1057.04 -0.51801 3.84627 0
M  V30 10540 H 1055.14 -2.6543 2.61491 0
M  V30 10541 H 1055.25 -1.96614 4.36898 0
M  V30 10542 H 1053.61 -1.13273 2.28126 0
M  V30 10543 H 1054.4 0.0793884 3.43208 0
M  V30 10544 N 1056.84 -1.516 -0.430713 0
M  V30 10545 C 1058.25 -1.57 -1.01035 0
M  V30 10546 C 1058.6 -0.397439 -1.92132 0
M  V30 10547 O 1057.73 0.484954 -2.10896 0
M  V30 10548 C 1058.32 -2.84536 -1.83915 0
M  V30 10549 C 1056.88 -2.92485 -2.36917 0
M  V30 10550 C 1056.03 -2.5173 -1.16308 0
M  V30 10551 H 1058.98 -1.57281 -0.211734 0
M  V30 10552 H 1059 -2.68672 -2.69435 0
M  V30 10553 H 1058.51 -3.69858 -1.17586 0
M  V30 10554 H 1056.61 -2.11608 -3.0668 0
M  V30 10555 H 1056.73 -3.96277 -2.6926 0
M  V30 10556 H 1055.09 -2.05079 -1.51045 0
M  V30 10557 H 1055.87 -3.39403 -0.515793 0
M  V30 10558 N 1058.32 0.686584 -1.41858 0
M  V30 10559 C 1059.55 1.47519 -1.45072 0
M  V30 10560 C 1059.96 1.88709 -0.0585868 0
M  V30 10561 O 1059.32 1.57373 0.924116 0
M  V30 10562 C 1059.37 2.73195 -2.36742 0
M  V30 10563 O 1059.09 2.33736 -3.70539 0
M  V30 10564 C 1060.59 3.66861 -2.48854 0
M  V30 10565 H 1057.81 0.454307 -0.493808 0
M  V30 10566 H 1060.36 0.844612 -1.86243 0
M  V30 10567 H 1058.51 3.32468 -1.98856 0
M  V30 10568 H 1058.93 3.14809 -4.19518 0
M  V30 10569 H 1060.4 4.51801 -3.17143 0
M  V30 10570 H 1060.88 4.11961 -1.52265 0
M  V30 10571 H 1061.48 3.13486 -2.87414 0
M  V30 10572 N 1059.8 1.27835 0.921735 0
M  V30 10573 C 1061.05 1.14296 1.66676 0
M  V30 10574 C 1061.37 -0.310493 1.92512 0
M  V30 10575 O 1060.64 -1.21637 1.53562 0
M  V30 10576 H 1059.22 0.419994 0.617749 0
M  V30 10577 H 1061.88 1.60449 1.10644 0
M  V30 10578 H 1060.97 1.67654 2.63246 0
M  V30 10579 N 1061.28 -1.12907 1.09954 0
M  V30 10580 C 1062.55 -1.80602 0.751148 0
M  V30 10581 C 1062.93 -1.96826 -0.763077 0
M  V30 10582 O 1062.28 -1.54066 -1.68749 0
M  V30 10583 C 1062.49 -3.15289 1.49646 0
M  V30 10584 C 1063.84 -3.9056 1.66578 0
M  V30 10585 O 1064.86 -3.24929 1.45943 0
M  V30 10586 O 1063.72 -5.08292 2.00752 0
M  V30 10587 H 1060.82 -0.781529 0.270446 0
M  V30 10588 H 1063.36 -1.19786 1.20206 0
M  V30 10589 H 1062.13 -2.9874 2.52725 0
M  V30 10590 H 1061.76 -3.83809 1.03808 0
M  V30 10591 N 1062.75 -0.88754 -1.30232 0
M  V30 10592 C 1063.98 -0.521562 -2.00735 0
M  V30 10593 C 1064.4 0.883247 -1.66073 0
M  V30 10594 O 1063.76 1.58581 -0.878731 0
M  V30 10595 C 1063.81 -0.706521 -3.53611 0
M  V30 10596 O 1062.91 0.246447 -4.11663 0
M  V30 10597 H 1062.25 -0.205216 -0.631492 0
M  V30 10598 H 1064.78 -1.19579 -1.66018 0
M  V30 10599 H 1064.79 -0.606501 -4.03467 0
M  V30 10600 H 1063.47 -1.73076 -3.78177 0
M  V30 10601 H 1062.05 0.0999062 -3.72766 0
M  V30 10602 N 1064.23 1.43628 -0.648757 0
M  V30 10603 C 1065.48 2.01465 -0.16002 0
M  V30 10604 C 1065.8 1.51413 1.22878 0
M  V30 10605 O 1065.07 0.724919 1.81994 0
M  V30 10606 H 1063.65 0.744885 -0.0561672 0
M  V30 10607 H 1066.31 1.75897 -0.839422 0
M  V30 10608 H 1065.41 3.1178 -0.141213 0
M  V30 10609 N 1065.71 0.390394 1.52688 0
M  V30 10610 C 1066.67 -0.432149 2.25089 0
M  V30 10611 C 1067.67 -0.989296 1.26766 0
M  V30 10612 O 1068.86 -0.871126 1.50854 0
M  V30 10613 C 1066 -1.60642 3.00678 0
M  V30 10614 H 1067.19 0.201734 2.99221 0
M  V30 10615 H 1064.74 0.142531 1.55649 0
M  V30 10616 H 1065.48 -2.2777 2.3085 0
M  V30 10617 H 1065.26 -1.21361 3.72846 0
M  V30 10618 H 1066.75 -2.18873 3.55647 0
M  V30 10619 N 1067.19 -1.57141 0.120249 0
M  V30 10620 C 1068.6 -1.82256 -0.404931 0
M  V30 10621 C 1068.95 -1.03748 -1.66526 0
M  V30 10622 O 1068.08 -0.274456 -2.14653 0
M  V30 10623 C 1068.67 -3.30588 -0.741431 0
M  V30 10624 C 1067.23 -3.56379 -1.21124 0
M  V30 10625 C 1066.38 -2.76421 -0.220569 0
M  V30 10626 H 1069.33 -1.54897 0.345361 0
M  V30 10627 H 1069.35 -3.45284 -1.59872 0
M  V30 10628 H 1068.86 -3.87701 0.176036 0
M  V30 10629 H 1066.96 -3.04625 -2.14556 0
M  V30 10630 H 1067.07 -4.64952 -1.1557 0
M  V30 10631 H 1065.44 -2.44666 -0.707857 0
M  V30 10632 H 1066.22 -3.36294 0.690018 0
M  V30 10633 N 1068.67 0.153526 -1.5685 0
M  V30 10634 C 1070.08 0.714247 -1.72498 0
M  V30 10635 C 1070.43 1.81968 -0.733621 0
M  V30 10636 O 1069.55 2.16163 0.10118 0
M  V30 10637 C 1070.15 1.30238 -3.12767 0
M  V30 10638 C 1068.71 1.80974 -3.30038 0
M  V30 10639 C 1067.85 0.695638 -2.68433 0
M  V30 10640 H 1070.81 -0.0720733 -1.58536 0
M  V30 10641 H 1070.83 2.17217 -3.12405 0
M  V30 10642 H 1070.34 0.497605 -3.84897 0
M  V30 10643 H 1068.44 2.64039 -2.62895 0
M  V30 10644 H 1068.55 1.94294 -4.37934 0
M  V30 10645 H 1066.92 1.12061 -2.28723 0
M  V30 10646 H 1067.7 -0.0975885 -3.43161 0
M  V30 10647 N 1070.14 1.51827 0.422667 0
M  V30 10648 C 1071.39 1.65464 1.17258 0
M  V30 10649 C 1071.72 0.376834 1.90509 0
M  V30 10650 O 1071 -0.624219 1.84211 0
M  V30 10651 C 1071.28 2.86776 2.17788 0
M  V30 10652 C 1071.13 4.24571 1.48523 0
M  V30 10653 C 1072.45 3.03603 3.18611 0
M  V30 10654 H 1069.57 0.602169 0.424925 0
M  V30 10655 H 1072.21 1.84349 0.45996 0
M  V30 10656 H 1070.36 2.70806 2.78561 0
M  V30 10657 H 1072.04 4.5224 0.909739 0
M  V30 10658 H 1070.28 4.26595 0.787354 0
M  V30 10659 H 1070.95 5.05475 2.2181 0
M  V30 10660 H 1073.43 3.18381 2.67904 0
M  V30 10661 H 1072.3 3.90022 3.8623 0
M  V30 10662 H 1072.56 2.16318 3.85563 0
M  V30 10663 N 1071.62 -0.679052 1.4222 0
M  V30 10664 C 1073.03 -1.25953 1.37815 0
M  V30 10665 C 1073.38 -1.96077 0.0693215 0
M  V30 10666 O 1072.51 -1.99765 -0.832047 0
M  V30 10667 C 1073.1 -2.29063 2.49631 0
M  V30 10668 C 1071.66 -2.82647 2.48571 0
M  V30 10669 C 1070.81 -1.56909 2.28637 0
M  V30 10670 H 1073.76 -0.472714 1.51496 0
M  V30 10671 H 1073.78 -3.10708 2.19638 0
M  V30 10672 H 1073.29 -1.77996 3.44876 0
M  V30 10673 H 1071.4 -3.37846 1.57132 0
M  V30 10674 H 1071.51 -3.31952 3.45463 0
M  V30 10675 H 1069.87 -1.83323 1.76819 0
M  V30 10676 H 1070.66 -1.07814 3.25931 0
M  V30 10677 N 1073.1 -1.28322 -0.914942 0
M  V30 10678 C 1074.51 -1.13937 -1.47903 0
M  V30 10679 C 1074.86 0.271072 -1.94318 0
M  V30 10680 O 1073.99 1.16522 -1.8235 0
M  V30 10681 C 1074.58 -2.06221 -2.68809 0
M  V30 10682 C 1073.14 -1.95903 -3.21402 0
M  V30 10683 C 1072.29 -1.98031 -1.94111 0
M  V30 10684 H 1075.24 -1.41029 -0.727772 0
M  V30 10685 H 1075.26 -1.6255 -3.44031 0
M  V30 10686 H 1074.77 -3.08866 -2.34997 0
M  V30 10687 H 1072.87 -0.962907 -3.59943 0
M  V30 10688 H 1072.99 -2.82799 -3.86732 0
M  V30 10689 H 1071.35 -1.42423 -2.11158 0
M  V30 10690 H 1072.13 -3.02354 -1.62595 0
M  V30 10691 N 1074.58 1.12322 -1.10551 0
M  V30 10692 C 1075.81 1.87679 -0.87087 0
M  V30 10693 C 1076.22 1.79711 0.578733 0
M  V30 10694 O 1075.58 1.17185 1.39907 0
M  V30 10695 C 1075.63 3.36846 -1.31213 0
M  V30 10696 O 1075.35 3.44626 -2.70489 0
M  V30 10697 C 1076.85 4.29138 -1.11156 0
M  V30 10698 H 1074.07 0.593788 -0.3125 0
M  V30 10699 H 1076.62 1.42116 -1.47048 0
M  V30 10700 H 1074.77 3.79948 -0.756169 0
M  V30 10701 H 1075.18 4.37441 -2.89389 0
M  V30 10702 H 1076.66 5.32082 -1.46944 0
M  V30 10703 H 1077.14 4.39171 -0.0502963 0
M  V30 10704 H 1077.74 3.91818 -1.65405 0
M  V30 10705 N 1076.06 0.894434 1.2976 0
M  V30 10706 C 1077.3 0.516646 1.95385 0
M  V30 10707 C 1077.63 -0.939141 1.70895 0
M  V30 10708 O 1076.9 -1.66153 1.03778 0
M  V30 10709 H 1075.48 0.188072 0.722937 0
M  V30 10710 H 1078.14 1.13958 1.58113 0
M  V30 10711 H 1077.23 0.694819 3.04267 0
M  V30 10712 N 1077.53 -1.43282 0.656365 0
M  V30 10713 C 1078.81 -1.9534 0.100816 0
M  V30 10714 C 1079.19 -1.59755 -1.37992 0
M  V30 10715 O 1078.54 -0.884264 -2.10697 0
M  V30 10716 C 1078.75 -3.47237 0.35038 0
M  V30 10717 C 1080.1 -4.23822 0.257001 0
M  V30 10718 O 1081.12 -3.55073 0.283111 0
M  V30 10719 O 1079.98 -5.46192 0.183397 0
M  V30 10720 H 1077.07 -0.826963 -0.00780287 0
M  V30 10721 H 1079.62 -1.53205 0.72982 0
M  V30 10722 H 1078.39 -3.66276 1.37685 0
M  V30 10723 H 1078.02 -3.96378 -0.311539 0
M  V30 10724 N 1079.01 -0.398486 -1.52479 0
M  V30 10725 C 1080.24 0.183059 -2.06591 0
M  V30 10726 C 1080.66 1.3898 -1.26753 0
M  V30 10727 O 1080.02 1.78885 -0.294959 0
M  V30 10728 C 1080.07 0.522392 -3.56796 0
M  V30 10729 O 1079.17 1.61499 -3.79462 0
M  V30 10730 H 1078.51 0.0188411 -0.663733 0
M  V30 10731 H 1081.04 -0.56861 -1.9654 0
M  V30 10732 H 1081.05 0.784078 -4.00395 0
M  V30 10733 H 1079.73 -0.359807 -4.14341 0
M  V30 10734 H 1078.31 1.3463 -3.47749 0
M  V30 10735 N 1080.49 1.57075 -0.12858 0
M  V30 10736 C 1081.4 2.19369 0.831533 0
M  V30 10737 C 1082.42 1.17258 1.28555 0
M  V30 10738 O 1083.59 1.49766 1.34656 0
M  V30 10739 C 1080.66 2.78846 2.06024 0
M  V30 10740 C 1079.72 3.96024 1.65722 0
M  V30 10741 C 1078.95 4.52655 2.82735 0
M  V30 10742 O 1079.18 4.08175 3.98434 0
M  V30 10743 O 1078.11 5.43198 2.59268 0
M  V30 10744 H 1081.94 3.01887 0.331352 0
M  V30 10745 H 1079.52 1.49081 0.0975226 0
M  V30 10746 H 1081.4 3.16721 2.77967 0
M  V30 10747 H 1080.08 1.99353 2.5503 0
M  V30 10748 H 1078.98 3.62899 0.908574 0
M  V30 10749 H 1080.32 4.76981 1.21449 0
M  V30 10750 N 1081.97 -0.145205 1.5693 0
M  V30 10751 C 1082.93 -1.16316 1.97492 0
M  V30 10752 C 1083.93 -1.35764 0.861668 0
M  V30 10753 O 1085.12 -1.32726 1.12825 0
M  V30 10754 C 1082.25 -2.52311 2.29242 0
M  V30 10755 H 1083.45 -0.815138 2.8861 0
M  V30 10756 H 1081 -0.38861 1.51392 0
M  V30 10757 H 1081.74 -2.92081 1.40922 0
M  V30 10758 H 1081.52 -2.39555 3.10412 0
M  V30 10759 H 1083.01 -3.25624 2.61456 0
M  V30 10760 N 1083.45 -1.52049 -0.414609 0
M  V30 10761 C 1084.41 -1.74382 -1.4874 0
M  V30 10762 C 1085.41 -0.613701 -1.48628 0
M  V30 10763 O 1086.6 -0.88152 -1.50249 0
M  V30 10764 C 1083.73 -1.82116 -2.88178 0
M  V30 10765 H 1084.93 -2.70147 -1.30233 0
M  V30 10766 H 1082.48 -1.42382 -0.644756 0
M  V30 10767 H 1083.21 -0.882457 -3.12063 0
M  V30 10768 H 1083 -2.64268 -2.89663 0
M  V30 10769 H 1084.49 -2.01155 -3.65959 0
M  V30 10770 N 1084.93 0.6715 -1.42579 0
M  V30 10771 C 1086.34 1.2522 -1.38481 0
M  V30 10772 C 1086.69 1.96038 -0.079719 0
M  V30 10773 O 1085.81 2.00203 0.821441 0
M  V30 10774 C 1086.41 2.27736 -2.50842 0
M  V30 10775 C 1084.97 2.81325 -2.50067 0
M  V30 10776 C 1084.11 1.55694 -2.29466 0
M  V30 10777 H 1087.06 0.464673 -1.51745 0
M  V30 10778 H 1087.09 3.09539 -2.21283 0
M  V30 10779 H 1086.6 1.76164 -3.45815 0
M  V30 10780 H 1084.7 3.37008 -1.58922 0
M  V30 10781 H 1084.81 3.30116 -3.47218 0
M  V30 10782 H 1083.18 1.82383 -1.77788 0
M  V30 10783 H 1083.96 1.06084 -3.26498 0
M  V30 10784 N 1086.4 1.28806 0.908124 0
M  V30 10785 C 1087.65 1.1646 1.66027 0
M  V30 10786 C 1087.98 -0.285025 1.92097 0
M  V30 10787 O 1087.26 -1.20675 1.52538 0
M  V30 10788 C 1087.54 1.96951 3.01467 0
M  V30 10789 C 1087.39 3.50007 2.82515 0
M  V30 10790 C 1088.71 1.78932 4.02084 0
M  V30 10791 H 1085.83 0.424435 0.602515 0
M  V30 10792 H 1088.47 1.58185 1.0525 0
M  V30 10793 H 1086.62 1.61495 3.53344 0
M  V30 10794 H 1088.3 3.95401 2.37605 0
M  V30 10795 H 1086.54 3.75356 2.17463 0
M  V30 10796 H 1087.21 4.01591 3.7872 0
M  V30 10797 H 1089.69 2.09885 3.59287 0
M  V30 10798 H 1088.56 2.37615 4.94803 0
M  V30 10799 H 1088.82 0.742286 4.35824 0
M  V30 10800 N 1087.88 -1.11734 1.11145 0
M  V30 10801 C 1089.29 -1.64928 0.874959 0
M  V30 10802 C 1089.64 -1.87012 -0.593375 0
M  V30 10803 O 1088.77 -1.60206 -1.45475 0
M  V30 10804 C 1089.36 -2.99608 1.58178 0
M  V30 10805 C 1087.92 -3.49723 1.39179 0
M  V30 10806 C 1087.07 -2.24595 1.62642 0
M  V30 10807 H 1090.02 -0.954154 1.26813 0
M  V30 10808 H 1090.04 -3.66434 1.02501 0
M  V30 10809 H 1089.55 -2.83504 2.65042 0
M  V30 10810 H 1087.65 -3.70998 0.345111 0
M  V30 10811 H 1087.77 -4.28711 2.13878 0
M  V30 10812 H 1086.13 -2.32067 1.04961 0
M  V30 10813 H 1086.91 -2.11036 2.70774 0
M  V30 10814 N 1089.36 -0.901303 -1.29284 0
M  V30 10815 C 1090.77 -0.576317 -1.77582 0
M  V30 10816 C 1091.12 0.908078 -1.73921 0
M  V30 10817 O 1090.25 1.71006 -1.32611 0
M  V30 10818 C 1090.84 -1.03938 -3.22463 0
M  V30 10819 C 1089.4 -0.765533 -3.68533 0
M  V30 10820 C 1088.55 -1.21318 -2.49354 0
M  V30 10821 H 1091.5 -1.08386 -1.15923 0
M  V30 10822 H 1091.52 -0.375367 -3.78644 0
M  V30 10823 H 1091.03 -2.11977 -3.25096 0
M  V30 10824 H 1089.13 0.302176 -3.71373 0
M  V30 10825 H 1089.25 -1.36454 -4.59257 0
M  V30 10826 H 1087.61 -0.632141 -2.46731 0
M  V30 10827 H 1088.39 -2.30165 -2.54714 0
M  V30 10828 N 1090.84 1.42931 -0.663954 0
M  V30 10829 C 1092.07 2.06028 -0.189808 0
M  V30 10830 C 1092.48 1.49827 1.14879 0
M  V30 10831 O 1091.84 0.633778 1.71142 0
M  V30 10832 C 1091.89 3.61349 -0.104343 0
M  V30 10833 O 1091.61 4.15463 -1.39004 0
M  V30 10834 C 1093.11 4.4154 0.394599 0
M  V30 10835 H 1090.33 0.664259 -0.0948744 0
M  V30 10836 H 1092.87 1.83255 -0.907632 0
M  V30 10837 H 1091.03 3.83271 0.564103 0
M  V30 10838 H 1091.44 5.09233 -1.25626 0
M  V30 10839 H 1092.92 5.50525 0.403329 0
M  V30 10840 H 1093.39 4.1534 1.4279 0
M  V30 10841 H 1094 4.24612 -0.241729 0
M  V30 10842 N 1092.32 0.406567 1.52266 0
M  V30 10843 C 1093.59 -0.228477 1.94261 0
M  V30 10844 C 1093.97 -1.62848 1.34328 0
M  V30 10845 O 1093.32 -2.22549 0.518082 0
M  V30 10846 C 1093.53 -0.237401 3.48192 0
M  V30 10847 C 1094.88 -0.457997 4.22123 0
M  V30 10848 O 1095.9 -0.316868 3.54788 0
M  V30 10849 O 1094.76 -0.735946 5.41522 0
M  V30 10850 H 1091.86 -0.146492 0.813922 0
M  V30 10851 H 1094.4 0.462325 1.63281 0
M  V30 10852 H 1093.17 0.742556 3.8419 0
M  V30 10853 H 1092.8 -0.972408 3.85526 0
M  V30 10854 N 1093.79 -1.57004 0.136909 0
M  V30 10855 C 1095.07 -1.87375 -0.561233 0
M  V30 10856 C 1095.45 -1.04117 -1.83638 0
M  V30 10857 O 1094.8 -0.125103 -2.28157 0
M  V30 10858 C 1095.01 -3.38829 -0.836426 0
M  V30 10859 C 1096.36 -4.07826 -1.18164 0
M  V30 10860 O 1097.38 -3.4395 -0.92611 0
M  V30 10861 O 1096.24 -5.20614 -1.66204 0
M  V30 10862 H 1093.33 -0.776287 -0.285145 0
M  V30 10863 H 1095.88 -1.68818 0.172761 0
M  V30 10864 H 1094.65 -3.91244 0.066442 0
M  V30 10865 H 1094.28 -3.62879 -1.62496 0
M  V30 10866 N 1095.27 0.136881 -1.57004 0
M  V30 10867 C 1096.5 0.866405 -1.88436 0
M  V30 10868 C 1096.92 1.73483 -0.727006 0
M  V30 10869 O 1096.28 1.78398 0.323094 0
M  V30 10870 C 1096.33 1.69059 -3.18514 0
M  V30 10871 O 1095.43 2.79584 -3.03161 0
M  V30 10872 H 1094.77 0.240709 -0.618834 0
M  V30 10873 H 1097.3 0.124653 -2.0422 0
M  V30 10874 H 1097.31 2.08353 -3.50789 0
M  V30 10875 H 1095.99 1.05296 -4.0235 0
M  V30 10876 H 1094.57 2.43623 -2.82315 0
M  V30 10877 N 1096.75 1.52266 0.40654 0
M  V30 10878 C 1097.7 1.75794 1.4955 0
M  V30 10879 C 1098.67 0.600472 1.54866 0
M  V30 10880 O 1099.85 0.838305 1.71397 0
M  V30 10881 C 1096.99 1.91682 2.86971 0
M  V30 10882 C 1096.11 3.19337 2.90943 0
M  V30 10883 C 1095.24 3.25641 4.1968 0
M  V30 10884 C 1094.28 4.47488 4.17637 0
M  V30 10885 N 1093.42 4.51171 5.37949 0
M  V30 10886 H 1098.26 2.68733 1.28789 0
M  V30 10887 H 1095.79 1.33157 0.625102 0
M  V30 10888 H 1097.75 1.98877 3.66748 0
M  V30 10889 H 1096.38 1.02121 3.06221 0
M  V30 10890 H 1095.43 3.21301 2.03642 0
M  V30 10891 H 1096.75 4.09153 2.85299 0
M  V30 10892 H 1095.9 3.31922 5.07851 0
M  V30 10893 H 1094.64 2.33769 4.28023 0
M  V30 10894 H 1093.64 4.41351 3.27856 0
M  V30 10895 H 1094.87 5.40659 4.10932 0
M  V30 10896 H 1092.81 3.62182 5.46955 0
M  V30 10897 H 1092.73 5.34835 5.3431 0
M  V30 10898 H 1094 4.61685 6.28066 0
M  V30 10899 N 1098.23 -0.663929 1.42933 0
M  V30 10900 C 1099.14 -1.80643 1.49683 0
M  V30 10901 C 1100.15 -1.69694 0.38472 0
M  V30 10902 O 1101.33 -1.91052 0.637256 0
M  V30 10903 C 1098.4 -3.16858 1.4072 0
M  V30 10904 C 1097.46 -3.39684 2.62514 0
M  V30 10905 C 1096.69 -4.69399 2.53969 0
M  V30 10906 O 1096.91 -5.48037 1.58152 0
M  V30 10907 O 1095.85 -4.93709 3.44289 0
M  V30 10908 H 1099.67 -1.77903 2.46138 0
M  V30 10909 H 1097.26 -0.821059 1.24816 0
M  V30 10910 H 1099.14 -3.9812 1.38124 0
M  V30 10911 H 1097.81 -3.20211 0.473954 0
M  V30 10912 H 1096.72 -2.58227 2.70684 0
M  V30 10913 H 1098.05 -3.41169 3.54774 0
M  V30 10914 N 1099.71 -1.29285 -0.901281 0
M  V30 10915 C 1100.67 -1.14283 -1.98676 0
M  V30 10916 C 1101.67 -0.0787641 -1.60607 0
M  V30 10917 O 1102.86 -0.325574 -1.71131 0
M  V30 10918 C 1099.99 -0.747279 -3.32609 0
M  V30 10919 H 1101.18 -2.10701 -2.13413 0
M  V30 10920 H 1098.74 -1.12449 -1.08558 0
M  V30 10921 H 1099.47 0.217111 -3.23572 0
M  V30 10922 H 1099.26 -1.51608 -3.61604 0
M  V30 10923 H 1100.75 -0.665322 -4.12266 0
M  V30 10924 N 1101.18 1.11143 -1.11736 0
M  V30 10925 C 1102.12 2.1705 -0.736325 0
M  V30 10926 C 1103.13 1.61116 0.233528 0
M  V30 10927 O 1104.32 1.78493 0.0159602 0
M  V30 10928 C 1101.42 3.38832 -0.067974 0
M  V30 10929 C 1100.59 4.24226 -1.06543 0
M  V30 10930 C 1099.65 5.24472 -0.426063 0
M  V30 10931 O 1098.68 5.58843 -1.0809 0
M  V30 10932 N 1099.88 5.74825 0.809711 0
M  V30 10933 H 1102.64 2.50349 -1.64758 0
M  V30 10934 H 1100.2 1.26693 -1.00799 0
M  V30 10935 H 1102.2 4.02991 0.371563 0
M  V30 10936 H 1100.77 3.0357 0.745917 0
M  V30 10937 H 1099.99 3.56475 -1.68283 0
M  V30 10938 H 1101.27 4.78117 -1.74016 0
M  V30 10939 H 1100.67 5.49088 1.36084 0
M  V30 10940 H 1099.23 6.40804 1.19218 0
M  V30 10941 N 1102.66 0.908147 1.28804 0
M  V30 10942 C 1103.6 0.336764 2.25701 0
M  V30 10943 C 1104.57 -0.555849 1.52804 0
M  V30 10944 O 1105.76 -0.500763 1.81727 0
M  V30 10945 C 1102.88 -0.519154 3.34698 0
M  V30 10946 C 1101.93 0.307304 4.25391 0
M  V30 10947 S 1102.76 1.71048 5.07447 0
M  V30 10948 C 1103.92 0.861715 6.1994 0
M  V30 10949 H 1104.15 1.15806 2.73818 0
M  V30 10950 H 1101.69 0.709033 1.37157 0
M  V30 10951 H 1103.64 -1.00718 3.97952 0
M  V30 10952 H 1102.3 -1.31477 2.85259 0
M  V30 10953 H 1101.5 -0.346906 5.02805 0
M  V30 10954 H 1101.1 0.728777 3.66831 0
M  V30 10955 H 1103.39 0.088851 6.77442 0
M  V30 10956 H 1104.33 1.60821 6.89596 0
M  V30 10957 H 1104.74 0.412366 5.62992 0
M  V30 10958 N 1104.14 -1.42577 0.671525 0
M  V30 10959 C 1105.55 -1.84736 0.270084 0
M  V30 10960 C 1105.9 -1.56212 -1.18711 0
M  V30 10961 O 1105.03 -1.02028 -1.90838 0
M  V30 10962 C 1105.62 -3.35334 0.483409 0
M  V30 10963 C 1104.18 -3.76154 0.136119 0
M  V30 10964 C 1103.33 -2.66179 0.777444 0
M  V30 10965 H 1106.28 -1.3247 0.873919 0
M  V30 10966 H 1106.3 -3.79573 -0.265483 0
M  V30 10967 H 1105.81 -3.56063 1.54405 0
M  V30 10968 H 1103.91 -3.61033 -0.921209 0
M  V30 10969 H 1104.03 -4.75645 0.574356 0
M  V30 10970 H 1102.39 -2.53841 0.209055 0
M  V30 10971 H 1103.17 -2.89732 1.84148 0
M  V30 10972 N 1105.62 -0.414636 -1.52048 0
M  V30 10973 C 1106.58 0.396285 -2.25748 0
M  V30 10974 C 1107.58 0.969003 -1.28324 0
M  V30 10975 O 1108.77 0.847016 -1.52221 0
M  V30 10976 C 1105.9 1.55838 -3.03195 0
M  V30 10977 H 1107.1 -0.249311 -2.98862 0
M  V30 10978 H 1104.65 -0.167276 -1.55402 0
M  V30 10979 H 1105.38 2.24068 -2.34444 0
M  V30 10980 H 1105.17 1.15414 -3.74729 0
M  V30 10981 H 1106.66 2.13187 -3.59084 0
M  V30 10982 N 1107.1 1.56929 -0.145233 0
M  V30 10983 C 1108.34 1.96358 0.50707 0
M  V30 10984 C 1108.68 1.03005 1.64632 0
M  V30 10985 O 1107.95 0.0721045 1.94366 0
M  V30 10986 C 1108.23 3.45502 1.01492 0
M  V30 10987 C 1108.09 4.49633 -0.122708 0
M  V30 10988 C 1109.41 3.97103 1.89729 0
M  V30 10989 H 1106.52 0.713958 0.182848 0
M  V30 10990 H 1109.17 1.8865 -0.226102 0
M  V30 10991 H 1107.32 3.52202 1.6397 0
M  V30 10992 H 1108.99 4.55013 -0.758988 0
M  V30 10993 H 1107.23 4.26691 -0.782109 0
M  V30 10994 H 1107.9 5.51318 0.27432 0
M  V30 10995 H 1110.38 3.92871 1.37082 0
M  V30 10996 H 1109.25 5.01927 2.22173 0
M  V30 10997 H 1109.52 3.39354 2.83357 0
M  V30 10998 N 1108.58 -0.128553 1.57075 0
M  V30 10999 C 1109.82 -0.836536 1.83535 0
M  V30 11000 C 1110.14 -1.81491 0.7294 0
M  V30 11001 O 1111.34 -2.56838 0.880128 0
M  V30 11002 C 1109.8 -1.53836 3.25365 0
M  V30 11003 C 1109.41 -0.601454 4.43944 0
M  V30 11004 C 1111.15 -2.23204 3.61082 0
M  V30 11005 C 1109.06 -1.30596 5.768 0
M  V30 11006 H 1107.99 -0.316142 0.684522 0
M  V30 11007 H 1110.64 -0.0892555 1.83283 0
M  V30 11008 H 1109.02 -2.33192 3.20058 0
M  V30 11009 H 1110.2 0.158209 4.60528 0
M  V30 11010 H 1108.51 -0.0152393 4.16397 0
M  V30 11011 H 1111.11 -2.76585 4.57608 0
M  V30 11012 H 1111.45 -3.0056 2.88044 0
M  V30 11013 H 1111.98 -1.50746 3.68131 0
M  V30 11014 H 1108.72 -0.573874 6.52983 0
M  V30 11015 H 1108.24 -2.03787 5.6412 0
M  V30 11016 H 1109.92 -1.8418 6.20231 0
M  V30 11017 N 1110.05 -1.5248 -0.398459 0
M  V30 11018 C 1111.47 -1.4152 -0.737854 0
M  V30 11019 C 1111.67 -0.528122 -1.94456 0
M  V30 11020 O 1110.73 0.00203799 -2.525 0
M  V30 11021 C 1112.04 -2.8422 -0.9818 0
M  V30 11022 C 1113.59 -2.93635 -1.08386 0
M  V30 11023 C 1114.06 -4.37327 -1.3605 0
M  V30 11024 N 1115.55 -4.40609 -1.42892 0
M  V30 11025 C 1116.29 -5.48863 -1.65944 0
M  V30 11026 N 1115.78 -6.67217 -1.86529 0
M  V30 11027 N 1117.58 -5.36393 -1.68046 0
M  V30 11028 H 1109.73 -2.08681 0.395705 0
M  V30 11029 H 1111.99 -0.941023 0.114801 0
M  V30 11030 H 1111.7 -3.51302 -0.167358 0
M  V30 11031 H 1111.57 -3.25907 -1.89907 0
M  V30 11032 H 1113.96 -2.26728 -1.88888 0
M  V30 11033 H 1114.04 -2.5539 -0.144714 0
M  V30 11034 H 1113.68 -5.04797 -0.56061 0
M  V30 11035 H 1113.61 -4.73116 -2.31233 0
M  V30 11036 H 1116.1 -3.55298 -1.2873 0
M  V30 11037 H 1116.42 -7.45498 -2.03599 0
M  V30 11038 H 1114.76 -6.70263 -1.83773 0
M  V30 11039 H 1117.95 -4.42903 -1.51509 0
M  V30 11040 H 1118.13 -6.2083 -1.85672 0
M  V30 11041 N 1111.53 0.65634 -1.43283 0
M  V30 11042 C 1112.78 1.41627 -1.44734 0
M  V30 11043 C 1113.11 1.94372 -0.0704893 0
M  V30 11044 O 1112.36 1.72511 0.924037 0
M  V30 11045 C 1112.66 2.61688 -2.43421 0
M  V30 11046 C 1112.33 2.2738 -3.8937 0
M  V30 11047 C 1110.99 2.17735 -4.29121 0
M  V30 11048 C 1113.34 1.99863 -4.81357 0
M  V30 11049 C 1110.67 1.78725 -5.58815 0
M  V30 11050 C 1113.02 1.62352 -6.11412 0
M  V30 11051 C 1111.68 1.51231 -6.50143 0
M  V30 11052 H 1110.95 0.51825 -0.529621 0
M  V30 11053 H 1113.6 0.746701 -1.76342 0
M  V30 11054 H 1111.91 3.33763 -2.05206 0
M  V30 11055 H 1113.6 3.19896 -2.41801 0
M  V30 11056 H 1110.19 2.35795 -3.57908 0
M  V30 11057 H 1114.38 2.06237 -4.5142 0
M  V30 11058 H 1109.63 1.68698 -5.87666 0
M  V30 11059 H 1113.81 1.40091 -6.82164 0
M  V30 11060 H 1111.43 1.20774 -7.50545 0
M  V30 11061 O 1113.05 1.40333 0.799307 0
M  V30 11062 H 1113.74 1.29035 1.44464 0
M  V30 END ATOM
M  V30 BEGIN BOND
M  V30 END BOND
M  V30 END CTAB
M  END
$$$$
