drugbank_target|P04015 Regulatory protein E2 (DB04330)
 OpenBabel12092119583D

  0  0  0     0  0            999 V3000
M  V30 BEGIN CTAB
M  V30 COUNTS 5797 5869 0 0 0
M  V30 BEGIN ATOM
M  V30 1 H -0.908 1.98254 -0.117106 0
M  V30 2 N 0 1.576 0 0
M  V30 3 C 0.933 2.03868 1.02534 0
M  V30 4 C 1.911 0.928543 1.3348 0
M  V30 5 O 3.095 1.19667 1.45644 0
M  V30 6 C 0.222 2.43627 2.35294 0
M  V30 7 C -0.732 3.65373 2.2001 0
M  V30 8 S 0.101 5.13292 1.52614 0
M  V30 9 C 1.257 5.56322 2.86805 0
M  V30 10 H 1.49 2.90518 0.631377 0
M  V30 11 H -0.977 1.52953 0.210867 0
M  V30 12 H 0.981 2.67203 3.11629 0
M  V30 13 H -0.358 1.57376 2.7183 0
M  V30 14 H -1.165 3.90944 3.18086 0
M  V30 15 H -1.563 3.418 1.51819 0
M  V30 16 H 0.729 5.58782 3.83104 0
M  V30 17 H 1.672 6.56266 2.65933 0
M  V30 18 H 2.08 4.83886 2.90714 0
M  V30 19 N 1.4781 -0.272755 1.55222 0
M  V30 20 C 2.3881 -1.35918 1.91216 0
M  V30 21 C 3.4041 -1.54026 0.809436 0
M  V30 22 O 4.5801 -1.68148 1.10852 0
M  V30 23 C 1.6451 -2.69834 2.17693 0
M  V30 24 C 0.7061 -2.6047 3.41253 0
M  V30 25 C -0.0609 -3.88 3.66458 0
M  V30 26 O 0.1621 -4.88693 2.94169 0
M  V30 27 O -0.9039 -3.88189 4.59992 0
M  V30 28 H 2.9221 -1.0839 2.83699 0
M  V30 29 H 0.5071 -0.471301 1.41771 0
M  V30 30 H 2.3891 -3.49017 2.36147 0
M  V30 31 H 1.0641 -2.97148 1.28392 0
M  V30 32 H -0.0289 -1.79663 3.28134 0
M  V30 33 H 1.3041 -2.38106 4.30774 0
M  V30 34 N 2.9562 -1.48159 -0.537278 0
M  V30 35 C 3.9192 -1.61665 -1.62472 0
M  V30 36 C 4.9192 -0.490395 -1.5314 0
M  V30 37 O 6.1092 -0.755998 -1.5694 0
M  V30 38 C 3.2412 -1.57997 -3.02076 0
M  V30 39 H 4.4342 -2.58621 -1.51839 0
M  V30 40 H 1.9872 -1.36647 -0.758771 0
M  V30 41 H 2.7222 -0.624913 -3.18222 0
M  V30 42 H 2.5072 -2.39755 -3.10258 0
M  V30 43 H 3.9972 -1.70627 -3.81151 0
M  V30 44 N 4.4343 0.785586 -1.36625 0
M  V30 45 C 5.6833 1.53883 -1.30396 0
M  V30 46 C 5.9963 1.95271 0.113452 0
M  V30 47 O 7.2023 2.69858 0.298142 0
M  V30 48 C 5.6583 2.77808 -2.28802 0
M  V30 49 C 5.2663 2.43574 -3.75999 0
M  V30 50 C 7.0103 3.55783 -2.31558 0
M  V30 51 C 4.9173 3.63919 -4.66173 0
M  V30 52 H 3.8473 0.577678 -0.484566 0
M  V30 53 H 6.4983 0.861705 -1.62009 0
M  V30 54 H 4.8803 3.47339 -1.90188 0
M  V30 55 H 6.0543 1.81916 -4.23371 0
M  V30 56 H 4.3693 1.78803 -3.76056 0
M  V30 57 H 6.9663 4.45205 -2.96137 0
M  V30 58 H 7.3093 3.94644 -1.3252 0
M  V30 59 H 7.8423 2.93235 -2.68809 0
M  V30 60 H 4.5813 3.3015 -5.66287 0
M  V30 61 H 4.1013 4.2473 -4.23515 0
M  V30 62 H 5.7803 4.30901 -4.82632 0
M  V30 63 N 5.9124 1.20967 1.01018 0
M  V30 64 C 6.8754 0.965918 2.07853 0
M  V30 65 C 7.8754 -0.0610545 1.60684 0
M  V30 66 O 9.0654 0.175681 1.73312 0
M  V30 67 C 6.1974 0.455513 3.37843 0
M  V30 68 H 7.3904 1.91365 2.3091 0
M  V30 69 H 4.9434 1.02594 1.17916 0
M  V30 70 H 5.6784 -0.497381 3.20463 0
M  V30 71 H 5.4634 1.19622 3.73407 0
M  V30 72 H 6.9534 0.304667 4.16487 0
M  V30 73 N 7.3905 -1.2043 1.01659 0
M  V30 74 C 8.3375 -2.23215 0.586822 0
M  V30 75 C 9.3075 -1.61382 -0.393085 0
M  V30 76 O 10.4925 -1.88544 -0.292525 0
M  V30 77 C 7.6325 -3.45032 -0.0687464 0
M  V30 78 C 6.7455 -4.21296 0.955724 0
M  V30 79 C 5.8805 -5.30507 0.271208 0
M  V30 80 C 4.9195 -5.98515 1.28244 0
M  V30 81 N 4.0565 -6.99316 0.62459 0
M  V30 82 H 8.8965 -2.59336 1.46796 0
M  V30 83 H 6.4335 -1.27431 0.734836 0
M  V30 84 H 8.3915 -4.1459 -0.465965 0
M  V30 85 H 7.0215 -3.09604 -0.913529 0
M  V30 86 H 6.0735 -3.50803 1.4711 0
M  V30 87 H 7.3855 -4.6803 1.72479 0
M  V30 88 H 6.5395 -6.06428 -0.18151 0
M  V30 89 H 5.2785 -4.8481 -0.530163 0
M  V30 90 H 4.2835 -5.21355 1.74554 0
M  V30 91 H 5.5085 -6.46298 2.08509 0
M  V30 92 H 3.4545 -6.55812 -0.156914 0
M  V30 93 H 3.3715 -7.44178 1.33172 0
M  V30 94 H 4.6395 -7.79255 0.195462 0
M  V30 95 N 8.8686 -0.792821 -1.36206 0
M  V30 96 C 10.2846 -0.474903 -1.52371 0
M  V30 97 C 10.4846 1.00622 -1.74578 0
M  V30 98 O 9.5406 1.79162 -1.77924 0
M  V30 99 C 10.8536 -1.3083 -2.70747 0
M  V30 100 C 12.4016 -1.30234 -2.84619 0
M  V30 101 C 12.8766 -2.11956 -4.06004 0
M  V30 102 N 14.3676 -2.09419 -4.13156 0
M  V30 103 C 15.1026 -2.69419 -5.06163 0
M  V30 104 N 14.5986 -3.3829 -6.04592 0
M  V30 105 N 16.3916 -2.59134 -4.98804 0
M  V30 106 H 8.5426 -1.75222 -1.20046 0
M  V30 107 H 10.8056 -0.745024 -0.586211 0
M  V30 108 H 10.5116 -2.35881 -2.6087 0
M  V30 109 H 10.3856 -0.95196 -3.6499 0
M  V30 110 H 12.7726 -0.259748 -2.93955 0
M  V30 111 H 12.8536 -1.69847 -1.91274 0
M  V30 112 H 12.4976 -3.16248 -3.97429 0
M  V30 113 H 12.4276 -1.69711 -4.98503 0
M  V30 114 H 14.9186 -1.59297 -3.42685 0
M  V30 115 H 15.2316 -3.81394 -6.7213 0
M  V30 116 H 13.5766 -3.42393 -6.04807 0
M  V30 117 H 16.7676 -2.04927 -4.20859 0
M  V30 118 H 16.9406 -3.06185 -5.711 0
M  V30 119 N 10.3467 1.47872 -0.545128 0
M  V30 120 C 11.2767 2.32661 0.197793 0
M  V30 121 C 12.2577 1.43041 0.920504 0
M  V30 122 O 13.4427 1.71912 0.90333 0
M  V30 123 C 10.5727 3.24569 1.23582 0
M  V30 124 C 9.5267 4.23333 0.630323 0
M  V30 125 C 8.8527 5.0448 1.77211 0
M  V30 126 C 10.1527 5.20704 -0.407974 0
M  V30 127 H 11.8467 2.95024 -0.510045 0
M  V30 128 H 9.3927 1.4187 -0.246731 0
M  V30 129 H 11.3457 3.8272 1.76362 0
M  V30 130 H 10.0697 2.60236 1.97344 0
M  V30 131 H 8.7287 3.6639 0.123922 0
M  V30 132 H 8.3767 4.36561 2.49847 0
M  V30 133 H 8.0767 5.71339 1.37281 0
M  V30 134 H 9.6007 5.65487 2.3034 0
M  V30 135 H 11.0147 5.7329 0.033305 0
M  V30 136 H 9.4117 5.95699 -0.725486 0
M  V30 137 H 10.4817 4.66917 -1.30828 0
M  V30 138 N 11.8248 0.280983 1.55075 0
M  V30 139 C 13.1018 -0.386207 1.91749 0
M  V30 140 C 13.4818 -1.73264 1.20594 0
M  V30 141 O 12.8298 -2.26034 0.334784 0
M  V30 142 C 13.0398 -0.520687 3.45094 0
M  V30 143 C 14.3878 -0.800865 4.16979 0
M  V30 144 O 15.4118 -0.605271 3.5102 0
M  V30 145 O 14.2708 -1.1753 5.33712 0
M  V30 146 H 11.3648 -0.212408 0.799257 0
M  V30 147 H 13.9108 0.327568 1.66509 0
M  V30 148 H 12.6828 0.426633 3.88967 0
M  V30 149 H 12.3058 -1.2837 3.76307 0
M  V30 150 N 13.3029 -1.57598 0.00835791 0
M  V30 151 C 14.2659 -2.07884 -0.965242 0
M  V30 152 C 15.2659 -0.989825 -1.26725 0
M  V30 153 O 16.4559 -1.25218 -1.21104 0
M  V30 154 C 13.5879 -2.52731 -2.28779 0
M  V30 155 H 14.7809 -2.95178 -0.530112 0
M  V30 156 H 12.3339 -1.54458 -0.239283 0
M  V30 157 H 13.0689 -1.68705 -2.76964 0
M  V30 158 H 12.8539 -3.32272 -2.08177 0
M  V30 159 H 14.3439 -2.91933 -2.98605 0
M  V30 160 N 14.781 0.264519 -1.55364 0
M  V30 161 C 16.021 1.00254 -1.78125 0
M  V30 162 C 16.385 1.83187 -0.575017 0
M  V30 163 O 17.586 2.60029 -0.681042 0
M  V30 164 C 15.857 1.85478 -3.05504 0
M  V30 165 S 17.416 2.6543 -3.49417 0
M  V30 166 H 14.234 0.337522 -0.625779 0
M  V30 167 H 16.836 0.272111 -1.93597 0
M  V30 168 H 15.54 1.23491 -3.9138 0
M  V30 169 H 15.071 2.62827 -2.92721 0
M  V30 170 H 17.086 3.87958 -3.09359 0
M  V30 171 N 16.2591 1.48442 0.529413 0
M  V30 172 C 17.1911 1.59095 1.64989 0
M  V30 173 C 18.2041 0.475212 1.5571 0
M  V30 174 O 19.3931 0.746081 1.6216 0
M  V30 175 C 16.4931 1.50518 3.0364 0
M  V30 176 C 15.6661 2.77142 3.38395 0
M  V30 177 C 14.7251 2.62012 4.56329 0
M  V30 178 O 13.7511 3.35898 4.59522 0
M  V30 179 N 14.9531 1.71667 5.54536 0
M  V30 180 H 17.7181 2.55723 1.56287 0
M  V30 181 H 15.2791 1.45173 0.716697 0
M  V30 182 H 17.2711 1.38091 3.80412 0
M  V30 183 H 15.8411 0.618627 3.06418 0
M  V30 184 H 15.0611 3.0413 2.50796 0
M  V30 185 H 16.3491 3.61146 3.58401 0
M  V30 186 H 15.7471 1.10841 5.54735 0
M  V30 187 H 14.3041 1.65178 6.30523 0
M  V30 188 N 17.7372 -0.778329 1.37039 0
M  V30 189 C 19.0142 -1.52551 1.22424 0
M  V30 190 C 19.3942 -2.10288 -0.184964 0
M  V30 191 O 18.7422 -1.94953 -1.19187 0
M  V30 192 C 18.9522 -2.61164 2.31504 0
M  V30 193 C 20.3002 -3.28746 2.68721 0
M  V30 194 O 21.3242 -2.71455 2.30631 0
M  V30 195 O 20.1832 -4.3231 3.3432 0
M  V30 196 H 17.2772 -0.675343 0.477326 0
M  V30 197 H 19.8232 -0.815859 1.48801 0
M  V30 198 H 18.5952 -2.16574 3.25901 0
M  V30 199 H 18.2182 -3.39737 2.06554 0
M  V30 200 N 19.2153 -1.21501 -1.00376 0
M  V30 201 C 20.1473 -0.933174 -2.09343 0
M  V30 202 C 21.1603 0.0840896 -1.62583 0
M  V30 203 O 22.3493 -0.148563 -1.77881 0
M  V30 204 C 19.4493 -0.379869 -3.36764 0
M  V30 205 C 18.6223 -1.45176 -4.12605 0
M  V30 206 C 17.6813 -0.907476 -5.18316 0
M  V30 207 O 16.7073 -1.5912 -5.46507 0
M  V30 208 N 17.9093 0.276649 -5.7984 0
M  V30 209 H 20.6743 -1.87124 -2.34104 0
M  V30 210 H 18.2353 -1.12043 -1.16867 0
M  V30 211 H 20.2273 -0.00131488 -4.047 0
M  V30 212 H 18.7973 0.463048 -3.09151 0
M  V30 213 H 18.0173 -2.00411 -3.39454 0
M  V30 214 H 19.3053 -2.17328 -4.6005 0
M  V30 215 H 18.7033 0.849147 -5.59291 0
M  V30 216 H 17.2603 0.596702 -6.49063 0
M  V30 217 N 20.6934 1.19889 -1.02296 0
M  V30 218 C 21.6234 2.25141 -0.619174 0
M  V30 219 C 22.6044 1.66051 0.368915 0
M  V30 220 O 23.7894 1.92546 0.252941 0
M  V30 221 C 20.9194 3.4728 0.0368783 0
M  V30 222 C 19.8734 4.19005 -0.872865 0
M  V30 223 C 19.1994 5.34637 -0.0822402 0
M  V30 224 C 20.4994 4.74452 -2.18387 0
M  V30 225 H 22.1934 2.59171 -1.49903 0
M  V30 226 H 19.7394 1.24579 -0.722222 0
M  V30 227 H 21.6924 4.20098 0.330958 0
M  V30 228 H 20.4164 3.12433 0.95149 0
M  V30 229 H 19.0754 3.48061 -1.15105 0
M  V30 230 H 18.7234 4.96034 0.83422 0
M  V30 231 H 18.4234 5.83557 -0.688149 0
M  V30 232 H 19.9474 6.10255 0.205238 0
M  V30 233 H 21.3614 5.39055 -1.95172 0
M  V30 234 H 19.7584 5.33834 -2.74119 0
M  V30 235 H 20.8284 3.92844 -2.84257 0
M  V30 236 N 22.1715 0.800033 1.35784 0
M  V30 237 C 23.1015 0.220184 2.3246 0
M  V30 238 C 24.0825 -0.65073 1.57161 0
M  V30 239 O 25.2675 -0.582359 1.85263 0
M  V30 240 C 22.3975 -0.637353 3.41402 0
M  V30 241 C 21.3515 0.134531 4.27789 0
M  V30 242 C 20.6775 -0.844285 5.27992 0
M  V30 243 C 21.9775 1.32979 5.05088 0
M  V30 244 H 23.6715 1.02787 2.81203 0
M  V30 245 H 21.2175 0.495717 1.35199 0
M  V30 246 H 23.1705 -1.05302 4.08031 0
M  V30 247 H 21.8945 -1.47785 2.91251 0
M  V30 248 H 20.5535 0.531296 3.6273 0
M  V30 249 H 20.2015 -1.68011 4.74111 0
M  V30 250 H 19.9015 -0.332184 5.8666 0
M  V30 251 H 21.4255 -1.2583 5.97494 0
M  V30 252 H 22.8395 0.98934 5.64699 0
M  V30 253 H 21.2365 1.77593 5.7322 0
M  V30 254 H 22.3065 2.11978 4.36111 0
M  V30 255 N 23.6496 -1.47581 0.552962 0
M  V30 256 C 24.5596 -2.33743 -0.200353 0
M  V30 257 C 25.5756 -1.47928 -0.916151 0
M  V30 258 O 26.7516 -1.80865 -0.885993 0
M  V30 259 C 23.8166 -3.24536 -1.21973 0
M  V30 260 C 22.8776 -4.26238 -0.511819 0
M  V30 261 C 22.1106 -5.12693 -1.48263 0
M  V30 262 O 22.3336 -5.01525 -2.71714 0
M  V30 263 O 21.2676 -5.93375 -1.00945 0
M  V30 264 H 25.0936 -2.9945 0.506304 0
M  V30 265 H 22.6786 -1.46071 0.313622 0
M  V30 266 H 24.5606 -3.80631 -1.80827 0
M  V30 267 H 23.2356 -2.61462 -1.90839 0
M  V30 268 H 22.1426 -3.73914 0.117799 0
M  V30 269 H 23.4756 -4.92014 0.135308 0
M  V30 270 N 25.1277 -0.289203 -1.54924 0
M  V30 271 C 26.0577 0.58549 -2.2604 0
M  V30 272 C 27.0387 1.14753 -1.25562 0
M  V30 273 O 28.2237 1.17906 -1.54311 0
M  V30 274 C 25.3537 1.76305 -2.99222 0
M  V30 275 C 24.3077 1.33191 -4.06748 0
M  V30 276 C 23.6337 2.5937 -4.6758 0
M  V30 277 C 24.9337 0.471775 -5.20165 0
M  V30 278 H 26.6277 -0.00763532 -2.99399 0
M  V30 279 H 24.1737 -0.00511229 -1.43999 0
M  V30 280 H 26.1267 2.38097 -3.47689 0
M  V30 281 H 24.8507 2.38223 -2.23422 0
M  V30 282 H 23.5097 0.737121 -3.59113 0
M  V30 283 H 23.1577 3.19576 -3.88433 0
M  V30 284 H 22.8577 2.31228 -5.40192 0
M  V30 285 H 24.3817 3.21985 -5.18804 0
M  V30 286 H 25.7957 0.995056 -5.64599 0
M  V30 287 H 24.1927 0.284639 -5.99425 0
M  V30 288 H 25.2627 -0.506041 -4.82252 0
M  V30 289 N 26.6058 1.57591 -0.0167156 0
M  V30 290 C 27.8358 1.95292 0.674149 0
M  V30 291 C 28.2438 0.891097 1.66901 0
M  V30 292 O 27.5868 -0.136908 1.83189 0
M  V30 293 C 27.6488 3.29072 1.44747 0
M  V30 294 C 27.3128 4.52879 0.612331 0
M  V30 295 C 28.3098 5.1979 -0.107126 0
M  V30 296 C 25.9948 4.99242 0.553381 0
M  V30 297 C 27.9888 6.31375 -0.874339 0
M  V30 298 C 25.6758 6.10713 -0.217546 0
M  V30 299 C 26.6738 6.76637 -0.930123 0
M  V30 300 O 26.3618 7.85969 -1.68844 0
M  V30 301 H 26.0938 0.648275 0.191615 0
M  V30 302 H 28.6478 2.05284 -0.0690148 0
M  V30 303 H 26.8778 3.15535 2.2355 0
M  V30 304 H 28.5668 3.51764 2.02526 0
M  V30 305 H 29.3328 4.84948 -0.0708392 0
M  V30 306 H 25.2118 4.47744 1.09757 0
M  V30 307 H 28.7558 6.82764 -1.43106 0
M  V30 308 H 24.6528 6.44994 -0.255593 0
M  V30 309 H 25.4208 8.02571 -1.6069 0
M  V30 310 N 28.0839 -0.256276 1.55502 0
M  V30 311 C 28.9939 -1.33882 1.92647 0
M  V30 312 C 30.0099 -1.53159 0.825727 0
M  V30 313 O 31.1859 -1.66963 1.12629 0
M  V30 314 C 28.2509 -2.6751 2.20543 0
M  V30 315 C 27.3119 -2.56836 3.43997 0
M  V30 316 C 26.5449 -3.84092 3.70553 0
M  V30 317 O 26.7679 -4.85545 2.99336 0
M  V30 318 O 25.7019 -3.83288 4.64084 0
M  V30 319 H 29.5279 -1.05374 2.84833 0
M  V30 320 H 27.1129 -0.456237 1.42263 0
M  V30 321 H 28.9949 -3.46492 2.39835 0
M  V30 322 H 27.6699 -2.9577 1.31536 0
M  V30 323 H 26.5769 -1.76172 3.30021 0
M  V30 324 H 27.9099 -2.33523 4.33275 0
M  V30 325 N 29.562 -1.4872 -0.521534 0
M  V30 326 C 30.472 -1.66569 -1.65203 0
M  V30 327 C 31.488 -0.548197 -1.65139 0
M  V30 328 O 32.664 -0.820339 -1.83936 0
M  V30 329 C 29.729 -1.70917 -3.01642 0
M  V30 330 C 28.79 -2.94356 -3.12495 0
M  V30 331 C 28.023 -2.98487 -4.42426 0
M  V30 332 O 28.246 -2.10786 -5.30024 0
M  V30 333 O 27.18 -3.90746 -4.57822 0
M  V30 334 H 31.006 -2.62298 -1.5308 0
M  V30 335 H 28.591 -1.3222 -0.695565 0
M  V30 336 H 30.473 -1.7625 -3.82771 0
M  V30 337 H 29.148 -0.783633 -3.14071 0
M  V30 338 H 28.055 -2.94552 -2.3063 0
M  V30 339 H 29.388 -3.86322 -3.04986 0
M  V30 340 N 31.0401 0.771051 -1.3745 0
M  V30 341 C 31.9881 1.90574 -1.33358 0
M  V30 342 C 32.9821 1.67936 -0.22224 0
M  V30 343 O 34.1881 1.75717 -0.390304 0
M  V30 344 H 30.5631 0.626714 -0.415612 0
M  V30 345 H 32.5341 1.91142 -2.29144 0
M  V30 346 C 31.2831 3.27845 -1.15813 0
M  V30 347 H 30.6061 3.45842 -2.00583 0
M  V30 348 H 32.0461 4.07538 -1.17 0
M  V30 349 C 30.5051 3.36625 0.136165 0
M  V30 350 O 31.0351 3.85785 1.11949 0
M  V30 351 N 29.2411 2.89997 0.187099 0
M  V30 352 H 28.7881 2.50182 -0.613753 0
M  V30 353 H 28.7461 2.96252 1.05272 0
M  V30 354 N 32.5182 1.22032 0.997298 0
M  V30 355 C 33.7432 1.06921 1.77715 0
M  V30 356 C 34.1682 -0.376226 1.84299 0
M  V30 357 O 33.5262 -1.27165 1.29223 0
M  V30 358 C 33.5742 1.67996 3.19076 0
M  V30 359 O 32.6782 0.930653 4.01762 0
M  V30 360 H 32.0192 0.375814 0.547412 0
M  V30 361 H 34.5492 1.61737 1.25309 0
M  V30 362 H 34.5592 1.72538 3.69723 0
M  V30 363 H 33.2342 2.73182 3.13599 0
M  V30 364 H 31.8112 0.960917 3.60307 0
M  V30 365 N 33.9963 -1.19345 1.0293 0
M  V30 366 C 35.2453 -1.88363 0.721256 0
M  V30 367 C 35.5583 -1.80514 -0.753254 0
M  V30 368 O 36.7643 -2.44788 -1.17436 0
M  V30 369 C 35.2203 -3.37872 1.23978 0
M  V30 370 C 34.8283 -3.54278 2.74211 0
M  V30 371 C 36.5723 -4.12365 1.00775 0
M  V30 372 C 34.4793 -4.97682 3.19479 0
M  V30 373 H 33.4093 -0.705484 0.266098 0
M  V30 374 H 36.0603 -1.34928 1.24365 0
M  V30 375 H 34.4423 -3.90707 0.6453 0
M  V30 376 H 35.6163 -3.11769 3.39318 0
M  V30 377 H 33.9313 -2.93174 2.95699 0
M  V30 378 H 36.5283 -5.18119 1.32123 0
M  V30 379 H 36.8713 -4.16263 -0.0554308 0
M  V30 380 H 37.4043 -3.65668 1.56625 0
M  V30 381 H 34.1433 -4.98945 4.25128 0
M  V30 382 H 33.6633 -5.4095 2.591 0
M  V30 383 H 35.3423 -5.66337 3.12845 0
M  V30 384 N 35.4744 -0.807222 -1.35358 0
M  V30 385 C 36.7514 -0.311126 -1.9311 0
M  V30 386 C 37.1314 1.19937 -1.73719 0
M  V30 387 O 36.4794 1.99918 -1.10657 0
M  V30 388 C 36.6894 -0.723226 -3.41424 0
M  V30 389 C 38.0374 -0.713078 -4.18569 0
M  V30 390 O 39.0614 -0.664811 -3.49941 0
M  V30 391 O 37.9204 -0.772022 -5.41019 0
M  V30 392 H 35.0144 -0.081526 -0.822972 0
M  V30 393 H 37.5604 -0.890962 -1.4443 0
M  V30 394 H 36.3324 -1.76426 -3.4927 0
M  V30 395 H 35.9554 -0.118232 -3.97424 0
M  V30 396 N 36.9525 1.47285 -0.560781 0
M  V30 397 C 38.2015 2.01668 -0.035895 0
M  V30 398 C 38.5145 1.44021 1.32353 0
M  V30 399 O 39.7205 1.90088 1.93853 0
M  V30 400 C 38.1765 3.59897 -0.0136659 0
M  V30 401 C 37.7845 4.26536 -1.37006 0
M  V30 402 C 39.5285 4.22017 0.458425 0
M  V30 403 C 37.4355 5.76782 -1.30675 0
M  V30 404 H 36.3655 0.753938 -0.00964879 0
M  V30 405 H 39.0165 1.69243 -0.709166 0
M  V30 406 H 37.3985 3.89301 0.725325 0
M  V30 407 H 38.5725 4.0877 -2.12705 0
M  V30 408 H 36.8875 3.76419 -1.78038 0
M  V30 409 H 39.4845 5.32124 0.524247 0
M  V30 410 H 39.8275 3.89437 1.4712 0
M  V30 411 H 40.3605 3.97159 -0.225818 0
M  V30 412 H 37.0995 6.13988 -2.29564 0
M  V30 413 H 36.6195 5.96875 -0.591622 0
M  V30 414 H 38.2985 6.39063 -1.01033 0
M  V30 415 N 38.4306 0.297415 1.54768 0
M  V30 416 C 39.3806 -0.595275 2.20092 0
M  V30 417 C 40.3646 -1.10163 1.17273 0
M  V30 418 O 41.5566 -1.043 1.43006 0
M  V30 419 C 38.6856 -1.7684 2.94249 0
M  V30 420 C 37.7716 -1.27818 4.0438 0
M  V30 421 N 38.1626 -0.505695 5.03266 0
M  V30 422 C 36.4606 -1.55923 4.17857 0
M  V30 423 C 37.1616 -0.245094 5.81183 0
M  V30 424 N 36.1376 -0.823881 5.3732 0
M  V30 425 H 39.9396 0.00250837 2.939 0
M  V30 426 H 37.4536 0.102007 1.62079 0
M  V30 427 H 39.4506 -2.41944 3.39513 0
M  V30 428 H 38.1106 -2.36992 2.21957 0
M  V30 429 H 39.1216 -0.150928 5.1768 0
M  V30 430 H 35.7986 -2.16849 3.56767 0
M  V30 431 H 37.1886 0.375084 6.70852 0
M  V30 432 N 39.9087 -1.5758 0.0250728 0
M  V30 433 C 40.8557 -2.09973 -0.958129 0
M  V30 434 C 41.8257 -1.00085 -1.3256 0
M  V30 435 O 43.0107 -1.27481 -1.41962 0
M  V30 436 C 40.1507 -2.62812 -2.2366 0
M  V30 437 C 39.2637 -3.86693 -1.92594 0
M  V30 438 C 38.3987 -4.27941 -3.14707 0
M  V30 439 C 37.4377 -5.44591 -2.79442 0
M  V30 440 N 36.5747 -5.81014 -3.94167 0
M  V30 441 H 41.4147 -2.937 -0.504428 0
M  V30 442 H 38.9517 -1.45172 -0.237392 0
M  V30 443 H 40.9097 -2.91536 -2.98434 0
M  V30 444 H 39.5397 -1.81922 -2.66654 0
M  V30 445 H 38.5917 -3.64723 -1.0808 0
M  V30 446 H 39.9037 -4.71547 -1.62619 0
M  V30 447 H 39.0577 -4.58079 -3.97804 0
M  V30 448 H 37.7967 -3.41845 -3.4784 0
M  V30 449 H 36.8017 -5.1415 -1.94755 0
M  V30 450 H 38.0267 -6.32382 -2.47528 0
M  V30 451 H 35.9727 -4.97874 -4.2715 0
M  V30 452 H 35.8897 -6.60498 -3.67801 0
M  V30 453 H 37.1577 -6.15756 -4.7798 0
M  V30 454 N 41.3868 0.248026 -1.55636 0
M  V30 455 C 42.3368 1.30994 -1.86614 0
M  V30 456 C 43.3208 1.43543 -0.726918 0
M  V30 457 O 44.5128 1.46804 -0.988818 0
M  V30 458 C 41.6418 2.6656 -2.16335 0
M  V30 459 C 40.7278 2.58019 -3.36581 0
M  V30 460 N 41.1188 2.1911 -4.55878 0
M  V30 461 C 39.4168 2.89035 -3.39669 0
M  V30 462 C 40.1178 2.21174 -5.38012 0
M  V30 463 N 39.0938 2.60632 -4.77045 0
M  V30 464 H 42.8958 0.999583 -2.76379 0
M  V30 465 H 40.4098 0.456652 -1.55848 0
M  V30 466 H 42.4068 3.43194 -2.36692 0
M  V30 467 H 41.0668 2.98463 -1.27867 0
M  V30 468 H 42.0778 1.90672 -4.81523 0
M  V30 469 H 38.7548 3.25485 -2.61469 0
M  V30 470 H 40.1448 1.9344 -6.43452 0
M  V30 471 N 42.8649 1.48995 0.513639 0
M  V30 472 C 44.1139 1.57093 1.2651 0
M  V30 473 C 44.4269 0.257091 1.93903 0
M  V30 474 O 45.6329 0.216478 2.70636 0
M  V30 475 C 44.0889 2.77118 2.29638 0
M  V30 476 C 43.6969 4.15209 1.68241 0
M  V30 477 C 45.4409 2.94538 3.05692 0
M  V30 478 C 43.3479 5.26474 2.69406 0
M  V30 479 H 42.2779 0.584876 0.475854 0
M  V30 480 H 44.9289 1.7536 0.540487 0
M  V30 481 H 43.3109 2.52319 3.05207 0
M  V30 482 H 44.4849 4.50094 0.987505 0
M  V30 483 H 42.7999 4.03042 1.04623 0
M  V30 484 H 45.3969 3.74832 3.8132 0
M  V30 485 H 45.7399 2.04614 3.62545 0
M  V30 486 H 46.2729 3.19316 2.37238 0
M  V30 487 H 43.0119 6.18417 2.17351 0
M  V30 488 H 42.5319 4.96058 3.37175 0
M  V30 489 H 44.2109 5.55277 3.32078 0
M  V30 490 N 44.343 -0.763751 1.37857 0
M  V30 491 C 45.276 -1.88486 1.28639 0
M  V30 492 C 46.254 -1.61757 0.165363 0
M  V30 493 O 47.438 -1.85391 0.340948 0
M  V30 494 C 44.565 -3.23884 0.990811 0
M  V30 495 C 43.611 -3.69514 2.12983 0
M  V30 496 S 44.444 -3.82244 3.75033 0
M  V30 497 C 45.6 -5.20477 3.47641 0
M  V30 498 H 45.833 -1.96017 2.23527 0
M  V30 499 H 43.366 -0.925684 1.23574 0
M  V30 500 H 45.324 -4.02081 0.827101 0
M  V30 501 H 43.985 -3.14044 0.0592832 0
M  V30 502 H 43.178 -4.67696 1.87821 0
M  V30 503 H 42.78 -2.98441 2.25408 0
M  V30 504 H 45.072 -6.05905 3.03125 0
M  V30 505 H 46.015 -5.50655 4.4518 0
M  V30 506 H 46.423 -4.88793 2.82385 0
M  V30 507 N 45.8211 -1.22559 -0.990812 0
M  V30 508 C 46.7711 -0.964807 -2.0658 0
M  V30 509 C 47.7551 0.0853472 -1.60673 0
M  V30 510 O 48.9471 -0.125443 -1.76555 0
M  V30 511 C 46.0761 -0.546707 -3.38919 0
M  V30 512 C 45.1621 -1.6317 -3.91454 0
M  V30 513 N 45.5531 -2.85985 -4.17189 0
M  V30 514 C 43.8511 -1.50387 -4.19881 0
M  V30 515 C 44.5521 -3.56159 -4.59919 0
M  V30 516 N 43.5281 -2.83637 -4.63736 0
M  V30 517 H 47.3301 -1.89769 -2.24421 0
M  V30 518 H 44.8441 -1.12343 -1.17273 0
M  V30 519 H 46.8411 -0.34119 -4.15502 0
M  V30 520 H 45.5011 0.379254 -3.22478 0
M  V30 521 H 46.5121 -3.22392 -4.05319 0
M  V30 522 H 43.1891 -0.644254 -4.12499 0
M  V30 523 H 44.5791 -4.6139 -4.88435 0
M  V30 524 N 47.2992 1.18797 -1.03562 0
M  V30 525 C 48.5452 1.89192 -0.746867 0
M  V30 526 C 48.9002 1.78531 0.717245 0
M  V30 527 O 48.1932 1.17137 1.51622 0
M  V30 528 C 48.3872 3.38692 -1.14117 0
M  V30 529 C 48.2162 3.63902 -2.64207 0
M  V30 530 C 46.9862 3.81553 -3.31279 0
M  V30 531 C 49.1842 3.64903 -3.62423 0
M  V30 532 N 47.1662 3.94455 -4.70402 0
M  V30 533 C 48.5372 3.83458 -4.87196 0
M  V30 534 C 50.5922 3.47965 -3.56125 0
M  V30 535 C 49.2952 3.86829 -6.06429 0
M  V30 536 C 51.3212 3.52616 -4.7478 0
M  V30 537 C 50.6832 3.71663 -5.9837 0
M  V30 538 H 46.7822 0.711141 -0.325273 0
M  V30 539 H 49.3662 1.42727 -1.32428 0
M  V30 540 H 47.5372 3.83864 -0.591889 0
M  V30 541 H 49.2692 3.96634 -0.803966 0
M  V30 542 H 46.0242 3.80723 -2.81686 0
M  V30 543 H 46.4482 4.0474 -5.42692 0
M  V30 544 H 51.0902 3.32189 -2.61553 0
M  V30 545 H 48.8082 4.01395 -7.01362 0
M  V30 546 H 52.3942 3.40791 -4.71543 0
M  V30 547 H 51.2742 3.75145 -6.88648 0
M  V30 548 N 48.7773 0.814389 1.34928 0
M  V30 549 C 49.7243 0.22822 2.29669 0
M  V30 550 C 50.6943 -0.642164 1.53184 0
M  V30 551 O 51.8793 -0.585605 1.81591 0
M  V30 552 C 49.0193 -0.61089 3.3965 0
M  V30 553 C 48.1323 0.280792 4.31086 0
M  V30 554 C 47.2673 -0.567067 5.28165 0
M  V30 555 C 46.3063 0.324531 6.11239 0
M  V30 556 N 45.4433 -0.483756 7.00431 0
M  V30 557 H 50.2833 1.04153 2.79206 0
M  V30 558 H 47.8203 0.525133 1.37407 0
M  V30 559 H 49.7783 -1.11263 4.0209 0
M  V30 560 H 48.4083 -1.38939 2.91369 0
M  V30 561 H 47.4603 0.900688 3.69583 0
M  V30 562 H 48.7723 0.966723 4.89342 0
M  V30 563 H 47.9263 -1.13363 5.96015 0
M  V30 564 H 46.6653 -1.28654 4.70425 0
M  V30 565 H 45.6703 0.903298 5.42329 0
M  V30 566 H 46.8953 1.04198 6.71059 0
M  V30 567 H 44.8413 -1.18706 6.45171 0
M  V30 568 H 44.7583 0.143965 7.55863 0
M  V30 569 H 46.0263 -1.03334 7.7262 0
M  V30 570 N 50.2554 -1.46986 0.568584 0
M  V30 571 C 51.4954 -2.04336 0.0512999 0
M  V30 572 C 51.8594 -1.43214 -1.27881 0
M  V30 573 O 53.0604 -1.91679 -1.88448 0
M  V30 574 C 51.3314 -3.57389 -0.0282328 0
M  V30 575 S 52.8904 -4.36056 -0.489991 0
M  V30 576 H 49.7084 -0.71034 0.0306349 0
M  V30 577 H 52.3104 -1.80212 0.757891 0
M  V30 578 H 51.0144 -3.99395 0.944011 0
M  V30 579 H 50.5454 -3.86028 -0.75803 0
M  V30 580 H 52.5604 -4.6441 -1.74752 0
M  V30 581 N 51.7335 -0.305618 -1.54608 0
M  V30 582 C 52.9825 0.303098 -1.9941 0
M  V30 583 C 53.2955 1.54648 -1.19764 0
M  V30 584 O 54.5015 2.23007 -1.54855 0
M  V30 585 C 52.9575 0.590588 -3.55021 0
M  V30 586 C 52.5655 -0.634719 -4.43481 0
M  V30 587 C 54.3095 1.16025 -4.08336 0
M  V30 588 C 52.2165 -0.320126 -5.90533 0
M  V30 589 H 51.1465 0.117031 -0.744862 0
M  V30 590 H 53.7975 -0.415045 -1.78745 0
M  V30 591 H 52.1795 1.36845 -3.71604 0
M  V30 592 H 53.3535 -1.41079 -4.38672 0
M  V30 593 H 51.6685 -1.12333 -4.00962 0
M  V30 594 H 54.2655 1.40994 -5.15776 0
M  V30 595 H 54.6085 2.10397 -3.5922 0
M  V30 596 H 55.1415 0.443985 -3.95315 0
M  V30 597 H 51.8805 -1.23254 -6.43808 0
M  V30 598 H 51.4005 0.418579 -5.98338 0
M  V30 599 H 53.0795 0.0766241 -6.46955 0
M  V30 600 N 53.2116 1.57565 -0.0334293 0
M  V30 601 C 54.6276 1.56297 0.322997 0
M  V30 602 C 54.8276 1.03945 1.7262 0
M  V30 603 O 53.8836 0.688109 2.42943 0
M  V30 604 C 55.1966 3.00232 0.167664 0
M  V30 605 C 56.7446 3.12078 0.240107 0
M  V30 606 C 57.2196 4.57859 0.113513 0
M  V30 607 N 58.7106 4.62887 0.170359 0
M  V30 608 C 59.4456 5.73319 0.0962517 0
M  V30 609 N 58.9416 6.92794 -0.0291881 0
M  V30 610 N 60.7346 5.61898 0.150551 0
M  V30 611 H 52.8856 1.89923 -0.950956 0
M  V30 612 H 55.1486 0.873824 -0.367608 0
M  V30 613 H 54.8546 3.42501 -0.799102 0
M  V30 614 H 54.7286 3.654 0.936083 0
M  V30 615 H 57.1156 2.69718 1.19733 0
M  V30 616 H 57.1966 2.49623 -0.558763 0
M  V30 617 H 56.8406 5.009 -0.840314 0
M  V30 618 H 56.7706 5.18299 0.931302 0
M  V30 619 H 59.2616 3.76954 0.26728 0
M  V30 620 H 59.5746 7.7276 -0.0789252 0
M  V30 621 H 57.9196 6.94971 -0.0640299 0
M  V30 622 H 61.1106 4.67448 0.246981 0
M  V30 623 H 61.2836 6.47938 0.0893365 0
M  V30 624 N 54.6897 -0.239769 1.55765 0
M  V30 625 C 55.6197 -1.30052 1.9393 0
M  V30 626 C 56.6007 -1.49839 0.805132 0
M  V30 627 O 57.7857 -1.62328 1.06599 0
M  V30 628 C 54.9157 -2.65391 2.2402 0
M  V30 629 C 53.8697 -2.60289 3.39755 0
M  V30 630 C 53.1957 -3.99489 3.55405 0
M  V30 631 C 54.4957 -2.16654 4.75246 0
M  V30 632 H 56.1897 -0.983573 2.82783 0
M  V30 633 H 53.7357 -0.471701 1.36055 0
M  V30 634 H 55.6887 -3.3974 2.49308 0
M  V30 635 H 54.4127 -2.98736 1.32 0
M  V30 636 H 53.0717 -1.88398 3.14487 0
M  V30 637 H 52.7197 -4.30112 2.60793 0
M  V30 638 H 52.4197 -3.96962 4.33238 0
M  V30 639 H 53.9437 -4.75528 3.83022 0
M  V30 640 H 55.3577 -2.80737 4.99859 0
M  V30 641 H 53.7547 -2.25223 5.56232 0
M  V30 642 H 54.8247 -1.11835 4.71827 0
M  V30 643 N 56.1678 -1.49265 -0.50573 0
M  V30 644 C 57.0778 -1.68312 -1.63427 0
M  V30 645 C 58.0938 -0.565682 -1.64548 0
M  V30 646 O 59.2698 -0.839801 -1.83055 0
M  V30 647 C 56.3348 -1.74107 -2.99813 0
M  V30 648 C 55.3958 -2.97653 -3.09356 0
M  V30 649 C 54.6288 -3.03163 -4.39236 0
M  V30 650 O 54.8518 -2.16396 -5.27758 0
M  V30 651 O 53.7858 -3.9558 -4.53652 0
M  V30 652 H 57.6118 -2.63907 -1.50289 0
M  V30 653 H 55.1968 -1.32951 -0.681502 0
M  V30 654 H 57.0788 -1.803 -3.80881 0
M  V30 655 H 55.7538 -0.816901 -3.13223 0
M  V30 656 H 54.6608 -2.96981 -2.27493 0
M  V30 657 H 55.9938 -3.89535 -3.00871 0
M  V30 658 N 57.6459 0.756429 -1.3826 0
M  V30 659 C 58.8709 1.55077 -1.37717 0
M  V30 660 C 59.2959 1.88073 0.03164 0
M  V30 661 O 58.6539 1.50364 1.01293 0
M  V30 662 C 58.7019 2.8283 -2.23695 0
M  V30 663 O 57.8059 3.77862 -1.6521 0
M  V30 664 H 57.1469 0.469152 -0.469885 0
M  V30 665 H 59.6769 0.935019 -1.81985 0
M  V30 666 H 59.6869 3.31783 -2.37453 0
M  V30 667 H 58.3619 2.58144 -3.2609 0
M  V30 668 H 56.9389 3.36555 -1.60578 0
M  V30 669 N 59.124 1.23083 0.984299 0
M  V30 670 C 60.37 1.06214 1.72761 0
M  V30 671 C 60.703 -0.400584 1.90024 0
M  V30 672 O 59.978 -1.29672 1.44967 0
M  V30 673 C 60.261 1.78375 3.12817 0
M  V30 674 C 60.114 3.32296 3.03149 0
M  V30 675 C 61.433 1.54309 4.12161 0
M  V30 676 H 58.552 0.387251 0.627061 0
M  V30 677 H 61.194 1.51536 1.14616 0
M  V30 678 H 59.344 1.39848 3.62457 0
M  V30 679 H 61.016 3.8032 2.61064 0
M  V30 680 H 59.259 3.6153 2.39747 0
M  V30 681 H 59.93 3.77972 4.02295 0
M  V30 682 H 62.406 1.87791 3.71314 0
M  V30 683 H 61.282 2.07281 5.08258 0
M  V30 684 H 61.543 0.477572 4.39513 0
M  V30 685 N 60.6021 -1.18246 1.0419 0
M  V30 686 C 61.5321 -2.24127 0.654914 0
M  V30 687 C 62.5131 -1.66617 -0.342451 0
M  V30 688 O 63.6981 -1.92924 -0.222277 0
M  V30 689 C 60.8281 -3.47295 0.0183757 0
M  V30 690 C 59.7821 -4.17563 0.939414 0
M  V30 691 C 59.1081 -5.34438 0.167286 0
M  V30 692 C 60.4081 -4.70917 2.25908 0
M  V30 693 H 62.1021 -2.56753 1.54007 0
M  V30 694 H 59.6481 -1.23414 0.74195 0
M  V30 695 H 61.6011 -4.20572 -0.264082 0
M  V30 696 H 60.3251 -3.13907 -0.901664 0
M  V30 697 H 58.9841 -3.46186 1.20628 0
M  V30 698 H 58.6321 -4.97298 -0.7552 0
M  V30 699 H 58.3321 -5.82388 0.780901 0
M  V30 700 H 59.8561 -6.10504 -0.108125 0
M  V30 701 H 61.2701 -5.35882 2.03724 0
M  V30 702 H 59.6671 -5.29406 2.82577 0
M  V30 703 H 60.7371 -3.88272 2.9047 0
M  V30 704 N 62.0802 -0.821533 -1.34494 0
M  V30 705 C 63.0102 -0.257138 -2.3208 0
M  V30 706 C 63.9912 0.625645 -1.58176 0
M  V30 707 O 65.1762 0.552811 -1.86166 0
M  V30 708 C 62.3062 0.582958 -3.42372 0
M  V30 709 C 61.2602 -0.202571 -4.2752 0
M  V30 710 C 60.5862 0.760179 -5.29269 0
M  V30 711 C 61.8862 -1.40998 -5.02908 0
M  V30 712 H 63.5802 -1.07247 -2.79532 0
M  V30 713 H 61.1262 -0.517163 -1.34393 0
M  V30 714 H 63.0792 0.987972 -4.09655 0
M  V30 715 H 61.8032 1.43133 -2.93565 0
M  V30 716 H 60.4622 -0.588936 -3.61838 0
M  V30 717 H 60.1102 1.60447 -4.76724 0
M  V30 718 H 59.8102 0.238809 -5.87115 0
M  V30 719 H 61.3342 1.16308 -5.9942 0
M  V30 720 H 62.7482 -1.07905 -5.63054 0
M  V30 721 H 61.1452 -1.86689 -5.70322 0
M  V30 722 H 62.2152 -2.1889 -4.32684 0
M  V30 723 N 63.5583 1.46682 -0.576371 0
M  V30 724 C 64.5083 2.27278 0.181288 0
M  V30 725 C 65.4923 1.35497 0.867721 0
M  V30 726 O 66.6843 1.59717 0.762863 0
M  V30 727 C 63.8133 3.21703 1.19841 0
M  V30 728 C 62.8993 4.20969 0.51442 0
M  V30 729 N 63.2903 5.03999 -0.426407 0
M  V30 730 C 61.5883 4.39373 0.765963 0
M  V30 731 C 62.2893 5.75812 -0.825565 0
M  V30 732 N 61.2653 5.43315 -0.176116 0
M  V30 733 H 65.0673 2.88863 -0.541785 0
M  V30 734 H 62.5813 1.57455 -0.397697 0
M  V30 735 H 64.5783 3.78145 1.75533 0
M  V30 736 H 63.2383 2.61677 1.92238 0
M  V30 737 H 64.2493 5.11659 -0.8016 0
M  V30 738 H 60.9263 3.90502 1.47698 0
M  V30 739 H 62.3163 6.52577 -1.59976 0
M  V30 740 N 65.0364 0.313813 1.54444 0
M  V30 741 C 65.9834 -0.55655 2.23989 0
M  V30 742 C 66.9534 -1.11943 1.22711 0
M  V30 743 O 68.1384 -1.16158 1.51367 0
M  V30 744 C 65.2784 -1.71635 2.99392 0
M  V30 745 C 64.3914 -1.18364 4.15468 0
M  V30 746 C 63.5264 -2.30834 4.78424 0
M  V30 747 C 62.5654 -1.74762 5.86622 0
M  V30 748 N 61.7024 -2.80855 6.43479 0
M  V30 749 H 66.5424 0.0430893 2.97969 0
M  V30 750 H 64.0794 0.0330359 1.47063 0
M  V30 751 H 66.0374 -2.39868 3.41349 0
M  V30 752 H 64.6674 -2.28742 2.27765 0
M  V30 753 H 63.7194 -0.393163 3.78363 0
M  V30 754 H 65.0314 -0.733262 4.93381 0
M  V30 755 H 64.1854 -3.0699 5.23299 0
M  V30 756 H 62.9244 -2.79204 3.99871 0
M  V30 757 H 61.9294 -0.970995 5.41158 0
M  V30 758 H 63.1544 -1.2728 6.67066 0
M  V30 759 H 61.1004 -3.28535 5.67804 0
M  V30 760 H 61.0174 -2.40351 7.16776 0
M  V30 761 H 62.2854 -3.5687 6.93011 0
M  V30 762 N 66.5145 -1.57545 0.0417849 0
M  V30 763 C 67.4775 -2.09885 -0.92093 0
M  V30 764 C 68.4775 -1.01648 -1.24596 0
M  V30 765 O 69.6675 -1.27759 -1.1842 0
M  V30 766 C 66.7995 -2.57527 -2.23367 0
M  V30 767 H 67.9925 -2.96236 -0.467382 0
M  V30 768 H 65.5455 -1.5493 -0.206467 0
M  V30 769 H 66.2805 -1.74542 -2.73323 0
M  V30 770 H 66.0655 -3.36613 -2.01083 0
M  V30 771 H 67.5555 -2.98201 -2.92346 0
M  V30 772 N 67.9926 0.231505 -1.5589 0
M  V30 773 C 68.9396 1.28682 -1.91598 0
M  V30 774 C 69.9096 1.47071 -0.771974 0
M  V30 775 O 71.0946 1.60802 -1.027 0
M  V30 776 C 68.2346 2.6342 -2.22944 0
M  V30 777 C 67.3476 2.52912 -3.50228 0
M  V30 778 C 66.4826 3.80106 -3.7107 0
M  V30 779 C 65.5216 3.64279 -4.91902 0
M  V30 780 N 64.6586 4.834 -5.09184 0
M  V30 781 H 69.4986 0.975305 -2.81588 0
M  V30 782 H 67.0356 0.470299 -1.39379 0
M  V30 783 H 68.9936 3.41869 -2.39126 0
M  V30 784 H 67.6236 2.92687 -1.36139 0
M  V30 785 H 66.6756 1.6595 -3.42294 0
M  V30 786 H 67.9876 2.37133 -4.38827 0
M  V30 787 H 67.1416 4.66999 -3.87295 0
M  V30 788 H 65.8806 3.98799 -2.80733 0
M  V30 789 H 64.8856 2.7577 -4.75637 0
M  V30 790 H 66.1106 3.47067 -5.83714 0
M  V30 791 H 64.0566 5.02425 -4.21788 0
M  V30 792 H 63.9736 4.70311 -5.91898 0
M  V30 793 H 65.2416 5.71747 -5.29835 0
M  V30 794 N 69.4707 1.49531 0.497807 0
M  V30 795 C 70.4027 1.62559 1.61578 0
M  V30 796 C 71.4157 0.508134 1.54667 0
M  V30 797 O 72.6047 0.780309 1.60541 0
M  V30 798 C 69.7047 1.56925 3.00379 0
M  V30 799 C 68.8777 2.84257 3.3244 0
M  V30 800 C 67.9367 2.71632 4.50669 0
M  V30 801 O 66.9627 3.4557 4.52294 0
M  V30 802 N 68.1647 1.83391 5.5077 0
M  V30 803 H 70.9297 2.58981 1.50828 0
M  V30 804 H 68.4907 1.4666 0.685743 0
M  V30 805 H 70.4827 1.46129 3.77397 0
M  V30 806 H 69.0527 0.683483 3.05037 0
M  V30 807 H 68.2727 3.09381 2.44289 0
M  V30 808 H 69.5607 3.68666 3.5066 0
M  V30 809 H 68.9587 1.22583 5.52259 0
M  V30 810 H 67.5157 1.78515 6.26878 0
M  V30 811 N 70.9488 -0.749086 1.3866 0
M  V30 812 C 71.8818 -1.87111 1.30631 0
M  V30 813 C 72.8598 -1.61572 0.18251 0
M  V30 814 O 74.0438 -1.85019 0.360592 0
M  V30 815 C 71.1708 -3.22815 1.02511 0
M  V30 816 C 70.2168 -3.67234 2.1689 0
M  V30 817 S 71.0498 -3.78245 3.79066 0
M  V30 818 C 72.2058 -5.16761 3.53142 0
M  V30 819 H 72.4388 -1.93636 2.25594 0
M  V30 820 H 69.9718 -0.912525 1.24549 0
M  V30 821 H 71.9298 -4.01181 0.869701 0
M  V30 822 H 70.5908 -3.13964 0.0925884 0
M  V30 823 H 69.7838 -4.65677 1.92771 0
M  V30 824 H 69.3858 -2.96034 2.28561 0
M  V30 825 H 71.6778 -6.02656 3.09534 0
M  V30 826 H 72.6208 -5.45902 4.50995 0
M  V30 827 H 73.0288 -4.85771 2.87554 0
M  V30 828 N 72.4269 -1.23603 -0.977757 0
M  V30 829 C 73.6749 -1.06759 -1.71601 0
M  V30 830 C 73.9959 0.395929 -1.90938 0
M  V30 831 O 73.2659 1.28356 -1.47992 0
M  V30 832 H 71.8459 -0.392062 -0.635843 0
M  V30 833 H 74.5079 -1.55362 -1.1768 0
M  V30 834 H 73.6039 -1.55763 -2.70452 0
M  V30 835 N 73.905 1.17692 -1.04816 0
M  V30 836 C 74.835 2.23777 -0.666791 0
M  V30 837 C 75.816 1.66796 0.33361 0
M  V30 838 O 77.001 1.93039 0.212042 0
M  V30 839 C 74.131 3.47281 -0.0367933 0
M  V30 840 C 73.085 4.17059 -0.961546 0
M  V30 841 C 72.411 5.34342 -0.195626 0
M  V30 842 C 73.711 4.69713 -2.28402 0
M  V30 843 H 75.405 2.55933 -1.55367 0
M  V30 844 H 72.951 1.23019 -0.748484 0
M  V30 845 H 74.904 4.20706 0.241775 0
M  V30 846 H 73.628 3.14381 0.885004 0
M  V30 847 H 72.287 3.45541 -1.22462 0
M  V30 848 H 71.935 4.97692 0.728816 0
M  V30 849 H 71.635 5.81966 -0.811775 0
M  V30 850 H 73.159 6.10553 0.0757473 0
M  V30 851 H 74.573 5.34794 -2.06563 0
M  V30 852 H 72.97 5.279 -2.8538 0
M  V30 853 H 74.04 3.86726 -2.92525 0
M  V30 854 N 75.3831 0.828654 1.34056 0
M  V30 855 C 76.6081 0.431637 2.02859 0
M  V30 856 C 77.0331 -0.956339 1.61975 0
M  V30 857 O 76.3911 -1.62338 0.807228 0
M  V30 858 C 76.4391 0.548323 3.56407 0
M  V30 859 O 75.5431 -0.429556 4.10157 0
M  V30 860 H 74.8841 0.176886 0.640006 0
M  V30 861 H 77.4141 1.12066 1.71179 0
M  V30 862 H 77.4241 0.426196 4.05768 0
M  V30 863 H 76.0991 1.5606 3.8551 0
M  V30 864 H 74.6761 -0.265836 3.71951 0
M  V30 865 N 76.8612 -1.46375 0.584142 0
M  V30 866 C 77.8112 -2.27371 -0.169232 0
M  V30 867 C 78.7952 -1.35955 -0.860523 0
M  V30 868 O 79.9872 -1.60119 -0.754382 0
M  V30 869 C 77.1162 -3.22334 -1.18134 0
M  V30 870 C 76.2022 -4.21235 -0.492088 0
M  V30 871 N 76.5932 -5.03766 0.453129 0
M  V30 872 C 74.8912 -4.39773 -0.742652 0
M  V30 873 C 75.5922 -5.75366 0.85609 0
M  V30 874 N 74.5682 -5.43214 0.204926 0
M  V30 875 H 78.3702 -2.88572 0.557097 0
M  V30 876 H 75.8842 -1.57242 0.406042 0
M  V30 877 H 77.8812 -3.79071 -1.73525 0
M  V30 878 H 76.5412 -2.62693 -1.90847 0
M  V30 879 H 77.5522 -5.11227 0.828723 0
M  V30 880 H 74.2292 -3.91279 -1.45625 0
M  V30 881 H 75.6192 -6.5172 1.63434 0
M  V30 882 N 78.3393 -0.321999 -1.54275 0
M  V30 883 C 79.5883 0.281931 -1.9972 0
M  V30 884 C 79.9013 1.53369 -1.21397 0
M  V30 885 O 81.1073 2.21352 -1.57211 0
M  V30 886 C 79.5633 0.5529 -3.55628 0
M  V30 887 C 79.1713 -0.681721 -4.42783 0
M  V30 888 C 80.9153 1.11687 -4.09544 0
M  V30 889 C 78.8223 -0.382742 -5.9016 0
M  V30 890 H 77.7523 0.109124 -0.746062 0
M  V30 891 H 80.4033 -0.43398 -1.78294 0
M  V30 892 H 78.7853 1.32896 -3.73035 0
M  V30 893 H 79.9593 -1.45723 -4.37151 0
M  V30 894 H 78.2743 -1.1658 -3.99748 0
M  V30 895 H 80.8713 1.35515 -5.17242 0
M  V30 896 H 81.2143 2.06575 -3.61431 0
M  V30 897 H 81.7473 0.402032 -3.95763 0
M  V30 898 H 78.4863 -1.30076 -6.42464 0
M  V30 899 H 78.0063 0.355094 -5.98748 0
M  V30 900 H 79.6853 0.00800157 -6.47 0
M  V30 901 N 79.8174 1.5752 -0.0501392 0
M  V30 902 C 81.0654 1.9227 0.622642 0
M  V30 903 C 81.3864 0.929083 1.71444 0
M  V30 904 O 80.6564 -0.0262186 1.95882 0
M  V30 905 H 79.2364 0.709739 0.232981 0
M  V30 906 H 81.8984 1.94628 -0.102898 0
M  V30 907 H 80.9944 2.93479 1.06191 0
M  V30 908 N 81.2955 -0.223234 1.56011 0
M  V30 909 C 82.2255 -1.27988 1.95298 0
M  V30 910 C 83.2065 -1.48976 0.820979 0
M  V30 911 O 84.3915 -1.61188 1.08315 0
M  V30 912 C 81.5215 -2.63 2.26822 0
M  V30 913 C 80.4755 -2.56671 3.42497 0
M  V30 914 C 79.8015 -3.95697 3.59622 0
M  V30 915 C 81.1015 -2.11601 4.77517 0
M  V30 916 H 82.7955 -0.953525 2.8381 0
M  V30 917 H 80.3415 -0.457244 1.36548 0
M  V30 918 H 82.2945 -3.37077 2.52898 0
M  V30 919 H 81.0185 -2.9732 1.35161 0
M  V30 920 H 79.6775 -1.85051 3.16467 0
M  V30 921 H 79.3255 -4.27322 2.6534 0
M  V30 922 H 79.0255 -3.92345 4.37424 0
M  V30 923 H 80.5495 -4.71438 3.88044 0
M  V30 924 H 81.9635 -2.7542 5.02809 0
M  V30 925 H 80.3605 -2.19311 5.5859 0
M  V30 926 H 81.4305 -1.06824 4.72987 0
M  V30 927 N 82.7736 -1.49793 -0.48987 0
M  V30 928 C 83.7056 -1.63413 -1.60713 0
M  V30 929 C 84.7186 -0.516329 -1.54395 0
M  V30 930 O 85.9076 -0.788812 -1.60125 0
M  V30 931 C 83.0076 -1.58516 -2.99543 0
M  V30 932 C 82.1806 -2.86016 -3.30928 0
M  V30 933 C 81.2396 -2.74018 -4.49222 0
M  V30 934 O 80.2656 -3.47964 -4.50455 0
M  V30 935 N 81.4676 -1.86309 -5.4979 0
M  V30 936 H 84.2326 -2.59777 -1.49452 0
M  V30 937 H 81.7936 -1.47022 -0.677955 0
M  V30 938 H 83.7856 -1.48128 -3.76617 0
M  V30 939 H 82.3556 -0.69965 -3.0467 0
M  V30 940 H 81.5756 -3.10672 -2.42645 0
M  V30 941 H 82.8636 -3.70521 -3.487 0
M  V30 942 H 82.2616 -1.2551 -5.51601 0
M  V30 943 H 80.8186 -1.81837 -6.25922 0
M  V30 944 N 84.2517 0.741722 -1.39055 0
M  V30 945 C 85.4977 1.50336 -1.36113 0
M  V30 946 C 85.8307 1.94148 0.0450796 0
M  V30 947 O 85.1057 1.66301 1.00868 0
M  V30 948 C 85.3887 2.74773 -2.32749 0
M  V30 949 C 85.2417 2.37023 -3.82283 0
M  V30 950 C 86.5607 3.76846 -2.27322 0
M  V30 951 H 83.6797 0.545351 -0.495743 0
M  V30 952 H 86.3217 0.848624 -1.69995 0
M  V30 953 H 84.4717 3.30639 -2.03986 0
M  V30 954 H 86.1437 1.8684 -4.21768 0
M  V30 955 H 84.3867 1.69334 -3.99385 0
M  V30 956 H 85.0577 3.26104 -4.45376 0
M  V30 957 H 87.5337 3.30548 -2.5274 0
M  V30 958 H 86.4097 4.6159 -2.97028 0
M  V30 959 H 86.6707 4.23286 -1.27599 0
M  V30 960 N 85.7298 1.2412 0.971189 0
M  V30 961 C 86.9758 1.08041 1.71625 0
M  V30 962 C 87.3088 -0.380407 1.90438 0
M  V30 963 O 86.5838 -1.28127 1.46334 0
M  V30 964 C 86.8668 1.81682 3.10908 0
M  V30 965 C 86.7198 3.35493 2.99608 0
M  V30 966 C 88.0388 1.58671 4.10501 0
M  V30 967 H 85.1578 0.39388 0.622919 0
M  V30 968 H 87.7998 1.52743 1.13003 0
M  V30 969 H 85.9498 1.43684 3.60953 0
M  V30 970 H 87.6218 3.83068 2.57015 0
M  V30 971 H 85.8648 3.64052 2.35899 0
M  V30 972 H 86.5358 3.82217 3.98264 0
M  V30 973 H 89.0118 1.91719 3.69301 0
M  V30 974 H 87.8878 2.1266 5.06031 0
M  V30 975 H 88.1488 0.524161 4.38982 0
M  V30 976 N 87.2079 -1.17134 1.05439 0
M  V30 977 C 88.6189 -1.69084 0.791676 0
M  V30 978 C 88.9699 -1.83822 -0.685839 0
M  V30 979 O 88.0949 -1.52757 -1.53278 0
M  V30 980 C 88.6899 -3.07119 1.4305 0
M  V30 981 C 87.2489 -3.56225 1.21577 0
M  V30 982 C 86.3959 -2.32421 1.51247 0
M  V30 983 H 89.3469 -1.01617 1.219 0
M  V30 984 H 89.3679 -3.71087 0.84112 0
M  V30 985 H 88.8799 -2.9636 2.50584 0
M  V30 986 H 86.9809 -3.72257 0.159787 0
M  V30 987 H 87.0939 -4.38837 1.92246 0
M  V30 988 H 85.4579 -2.3701 0.932653 0
M  V30 989 H 86.2409 -2.24268 2.5992 0
M  V30 990 N 88.686 -0.835752 -1.33615 0
M  V30 991 C 90.097 -0.487099 -1.80234 0
M  V30 992 C 90.448 0.993627 -1.69179 0
M  V30 993 O 89.573 1.77403 -1.23924 0
M  V30 994 C 90.168 -0.877385 -3.27242 0
M  V30 995 C 88.727 -0.580915 -3.7189 0
M  V30 996 C 87.874 -1.0874 -2.5509 0
M  V30 997 H 90.825 -1.02474 -1.2118 0
M  V30 998 H 90.846 -0.186195 -3.80044 0
M  V30 999 H 90.358 -1.95512 -3.35256 0
M  V30 1000 H 88.459 0.486881 -3.69405 0
M  V30 1001 H 88.572 -1.13396 -4.65487 0
M  V30 1002 H 86.936 -0.508392 -2.49575 0
M  V30 1003 H 87.719 -2.17184 -2.65868 0
M  V30 1004 N 90.1641 1.46063 -0.591896 0
M  V30 1005 C 91.0941 2.33172 0.123673 0
M  V30 1006 C 92.0751 1.45897 0.87453 0
M  V30 1007 O 93.2601 1.74698 0.848181 0
M  V30 1008 C 90.3901 3.28336 1.13194 0
M  V30 1009 C 89.3441 4.25124 0.495324 0
M  V30 1010 C 88.6701 5.09863 1.61071 0
M  V30 1011 C 89.9701 5.19143 -0.573425 0
M  V30 1012 H 91.6641 2.93252 -0.603646 0
M  V30 1013 H 89.2101 1.41014 -0.291741 0
M  V30 1014 H 91.1631 3.88137 1.64097 0
M  V30 1015 H 89.8871 2.66383 1.88965 0
M  V30 1016 H 88.5461 3.66599 0.00729452 0
M  V30 1017 H 88.1941 4.44288 2.35832 0
M  V30 1018 H 87.8941 5.75417 1.19035 0
M  V30 1019 H 89.4181 5.72529 2.12233 0
M  V30 1020 H 90.8321 5.73106 -0.1491 0
M  V30 1021 H 89.2291 5.93089 -0.914636 0
M  V30 1022 H 90.2991 4.62519 -1.45617 0
M  V30 1023 N 91.6422 0.330177 1.54103 0
M  V30 1024 C 92.8702 -0.272179 2.05102 0
M  V30 1025 C 93.2852 -1.45267 1.20595 0
M  V30 1026 O 92.6422 -1.8094 0.238144 0
M  V30 1027 C 92.6932 -0.70023 3.54653 0
M  V30 1028 O 92.4142 0.433301 4.35952 0
M  V30 1029 C 93.9152 -1.3647 4.21771 0
M  V30 1030 H 91.1352 -0.0549159 0.668749 0
M  V30 1031 H 93.6792 0.478285 1.98828 0
M  V30 1032 H 91.8342 -1.40066 3.61193 0
M  V30 1033 H 92.2482 0.0947539 5.24414 0
M  V30 1034 H 93.7222 -1.61509 5.27843 0
M  V30 1035 H 94.1992 -2.31409 3.73292 0
M  V30 1036 H 94.8052 -0.706675 4.19388 0
M  V30 1037 N 93.1203 -1.57491 0.0584922 0
M  V30 1038 C 94.3663 -1.93264 -0.614558 0
M  V30 1039 C 94.6993 -0.937717 -1.7006 0
M  V30 1040 O 93.9743 0.0351652 -1.94468 0
M  V30 1041 C 94.2573 -3.3938 -1.20386 0
M  V30 1042 C 94.1103 -4.49625 -0.125375 0
M  V30 1043 C 95.4293 -3.86039 -2.11334 0
M  V30 1044 H 92.5483 -0.702791 -0.221933 0
M  V30 1045 H 95.1903 -1.8961 0.12175 0
M  V30 1046 H 93.3403 -3.42626 -1.83139 0
M  V30 1047 H 95.0123 -4.58506 0.506971 0
M  V30 1048 H 93.2553 -4.30354 0.545672 0
M  V30 1049 H 93.9263 -5.48967 -0.577861 0
M  V30 1050 H 96.4023 -3.84716 -1.58534 0
M  V30 1051 H 95.2783 -4.88914 -2.49507 0
M  V30 1052 H 95.5393 -3.23215 -3.01636 0
M  V30 1053 N 94.5984 0.214957 -1.56127 0
M  V30 1054 C 95.8234 0.95924 -1.83884 0
M  V30 1055 C 96.2484 1.7689 -0.639644 0
M  V30 1056 O 95.6064 1.76566 0.411601 0
M  V30 1057 C 95.6544 1.84723 -3.09693 0
M  V30 1058 O 94.7584 2.94346 -2.8885 0
M  V30 1059 H 94.0994 0.27125 -0.606069 0
M  V30 1060 H 96.6294 0.226276 -2.03345 0
M  V30 1061 H 96.6394 2.25576 -3.39969 0
M  V30 1062 H 95.3144 1.25218 -3.96602 0
M  V30 1063 H 93.8914 2.57391 -2.69823 0
M  V30 1064 N 96.0765 1.50051 0.48192 0
M  V30 1065 C 96.9865 1.7089 1.60728 0
M  V30 1066 C 98.0025 0.591788 1.63627 0
M  V30 1067 O 99.1785 0.868817 1.81696 0
M  V30 1068 C 96.2435 1.78855 2.97005 0
M  V30 1069 C 95.3045 3.02537 3.04581 0
M  V30 1070 C 94.5375 3.10112 4.34357 0
M  V30 1071 O 94.7605 2.24765 5.24249 0
M  V30 1072 O 93.6945 4.02747 4.47301 0
M  V30 1073 H 97.5205 2.66264 1.46072 0
M  V30 1074 H 95.1055 1.34018 0.660264 0
M  V30 1075 H 96.9875 1.86336 3.77964 0
M  V30 1076 H 95.6625 0.866628 3.11883 0
M  V30 1077 H 94.5695 3.00563 2.22739 0
M  V30 1078 H 95.9025 3.94272 2.94636 0
M  V30 1079 N 97.5546 -0.734337 1.39446 0
M  V30 1080 C 98.7826 -1.52358 1.39981 0
M  V30 1081 C 99.1976 -1.88799 -0.0054975 0
M  V30 1082 O 98.5546 -1.54146 -0.976998 0
M  V30 1083 C 98.6056 -2.81072 2.27333 0
M  V30 1084 O 98.3266 -2.46178 3.62392 0
M  V30 1085 C 99.8276 -3.75096 2.36259 0
M  V30 1086 H 97.0476 -0.470806 0.478103 0
M  V30 1087 H 99.5916 -0.907339 1.83269 0
M  V30 1088 H 97.7466 -3.39026 1.87457 0
M  V30 1089 H 98.1606 -3.28866 4.08592 0
M  V30 1090 H 99.6346 -4.62305 3.01626 0
M  V30 1091 H 100.112 -4.16892 1.38194 0
M  V30 1092 H 100.718 -3.23061 2.76608 0
M  V30 1093 N 99.0327 -1.24633 -0.964593 0
M  V30 1094 C 99.9797 -1.04144 -2.05968 0
M  V30 1095 C 100.95 0.046262 -1.66036 0
M  V30 1096 O 102.135 -0.108972 -1.90489 0
M  V30 1097 C 99.2747 -0.65563 -3.38815 0
M  V30 1098 C 98.3877 -1.81714 -3.91923 0
M  V30 1099 C 97.5227 -1.37662 -5.13052 0
M  V30 1100 C 96.5617 -2.50788 -5.58365 0
M  V30 1101 N 95.6987 -2.07582 -6.70712 0
M  V30 1102 H 100.539 -1.9787 -2.22827 0
M  V30 1103 H 98.0757 -0.9855 -1.09208 0
M  V30 1104 H 100.034 -0.412954 -4.15151 0
M  V30 1105 H 98.6637 0.244627 -3.21872 0
M  V30 1106 H 97.7157 -2.1734 -3.12198 0
M  V30 1107 H 99.0277 -2.66705 -4.21509 0
M  V30 1108 H 98.1817 -1.093 -5.96773 0
M  V30 1109 H 96.9207 -0.497293 -4.85158 0
M  V30 1110 H 95.9257 -2.79906 -4.73215 0
M  V30 1111 H 97.1507 -3.39283 -5.88272 0
M  V30 1112 H 95.0967 -1.22051 -6.44546 0
M  V30 1113 H 95.0137 -2.86125 -6.99763 0
M  V30 1114 H 96.2817 -1.82369 -7.57867 0
M  V30 1115 N 100.511 1.16574 -1.06058 0
M  V30 1116 C 101.759 1.86677 -0.77434 0
M  V30 1117 C 102.08 1.81959 0.701147 0
M  V30 1118 O 101.35 1.2515 1.50713 0
M  V30 1119 H 99.9298 0.691134 -0.283449 0
M  V30 1120 H 102.592 1.41378 -1.34158 0
M  V30 1121 H 101.688 2.92181 -1.09711 0
M  V30 1122 N 101.989 0.842826 1.3317 0
M  V30 1123 C 102.939 0.250877 2.26616 0
M  V30 1124 C 103.923 -0.596427 1.49437 0
M  V30 1125 O 105.115 -0.447747 1.71243 0
M  V30 1126 C 102.244 -0.569779 3.38539 0
M  V30 1127 C 101.33 0.289254 4.23112 0
M  V30 1128 N 101.721 1.36987 4.86897 0
M  V30 1129 C 100.019 0.0769631 4.45934 0
M  V30 1130 C 100.72 1.89737 5.49886 0
M  V30 1131 N 99.6959 1.19827 5.30229 0
M  V30 1132 H 103.498 1.07718 2.73448 0
M  V30 1133 H 101.012 0.687693 1.47121 0
M  V30 1134 H 103.009 -1.01018 4.04476 0
M  V30 1135 H 101.669 -1.39401 2.93253 0
M  V30 1136 H 102.68 1.75277 4.87338 0
M  V30 1137 H 99.3569 -0.713507 4.11358 0
M  V30 1138 H 100.747 2.80253 6.10662 0
M  V30 1139 N 103.467 -1.45747 0.599634 0
M  V30 1140 C 104.415 -2.322 -0.136426 0
M  V30 1141 C 105.409 -1.45497 -0.867583 0
M  V30 1142 O 106.615 -1.62027 -0.78405 0
M  V30 1143 H 102.99 -0.749368 -0.0628588 0
M  V30 1144 H 104.961 -2.92072 0.611281 0
M  V30 1145 C 103.71 -3.28974 -1.12567 0
M  V30 1146 H 103.033 -3.9568 -0.572484 0
M  V30 1147 H 104.473 -3.92212 -1.61077 0
M  V30 1148 C 102.932 -2.55561 -2.19523 0
M  V30 1149 O 103.462 -2.33111 -3.27143 0
M  V30 1150 N 101.668 -2.15832 -1.94589 0
M  V30 1151 H 101.215 -2.3429 -1.07078 0
M  V30 1152 H 101.173 -1.67034 -2.66359 0
M  V30 1153 N 104.945 -0.338344 -1.53925 0
M  V30 1154 C 105.908 0.508299 -2.23493 0
M  V30 1155 C 106.908 1.03175 -1.23335 0
M  V30 1156 O 108.098 0.921826 -1.47811 0
M  V30 1157 C 105.23 1.70754 -2.95052 0
M  V30 1158 H 106.423 -0.100058 -2.99733 0
M  V30 1159 H 103.976 -0.0896198 -1.56043 0
M  V30 1160 H 104.711 2.35474 -2.22986 0
M  V30 1161 H 104.496 1.33946 -3.68512 0
M  V30 1162 H 105.986 2.30818 -3.48013 0
M  V30 1163 N 106.423 1.57458 -0.0668435 0
M  V30 1164 C 107.672 1.92477 0.602947 0
M  V30 1165 C 107.985 0.948419 1.71068 0
M  V30 1166 O 109.191 1.19124 2.43971 0
M  V30 1167 C 107.647 3.41903 1.12383 0
M  V30 1168 C 107.255 4.47975 0.04737 0
M  V30 1169 C 108.999 3.85931 1.76797 0
M  V30 1170 C 106.906 5.88529 0.582022 0
M  V30 1171 H 105.836 0.718387 0.22899 0
M  V30 1172 H 108.487 1.82978 -0.138276 0
M  V30 1173 H 106.869 3.46459 1.91787 0
M  V30 1174 H 108.043 4.55029 -0.726978 0
M  V30 1175 H 106.358 4.13384 -0.500243 0
M  V30 1176 H 108.955 4.88322 2.17821 0
M  V30 1177 H 109.298 3.23029 2.62599 0
M  V30 1178 H 109.831 3.83958 1.04024 0
M  V30 1179 H 106.57 6.55065 -0.238721 0
M  V30 1180 H 106.09 5.85004 1.324 0
M  V30 1181 H 107.769 6.38258 1.05999 0
M  V30 1182 N 107.901 -0.206675 1.56239 0
M  V30 1183 C 108.811 -1.27686 1.96808 0
M  V30 1184 C 109.827 -1.50455 0.874035 0
M  V30 1185 O 111.003 -1.63295 1.17884 0
M  V30 1186 C 108.068 -2.60358 2.28942 0
M  V30 1187 C 107.129 -2.45762 3.51994 0
M  V30 1188 C 106.362 -3.72108 3.82585 0
M  V30 1189 O 106.585 -4.75776 3.14631 0
M  V30 1190 O 105.519 -3.6833 4.76043 0
M  V30 1191 H 109.345 -0.962593 2.88041 0
M  V30 1192 H 106.93 -0.410746 1.43643 0
M  V30 1193 H 108.812 -3.38687 2.50737 0
M  V30 1194 H 107.487 -2.91435 1.4088 0
M  V30 1195 H 106.394 -1.65584 3.35459 0
M  V30 1196 H 107.727 -2.19621 4.40486 0
M  V30 1197 N 109.379 -1.50304 -0.473955 0
M  V30 1198 C 110.312 -1.63595 -1.59097 0
M  V30 1199 C 111.29 -0.484142 -1.55225 0
M  V30 1200 O 112.474 -0.703271 -1.7489 0
M  V30 1201 C 109.601 -1.61589 -2.97669 0
M  V30 1202 C 108.647 -2.82295 -3.19705 0
M  V30 1203 S 109.48 -4.43635 -2.99913 0
M  V30 1204 C 110.636 -4.44317 -4.40832 0
M  V30 1205 H 110.869 -2.58082 -1.47583 0
M  V30 1206 H 108.402 -1.39531 -0.661087 0
M  V30 1207 H 110.36 -1.61116 -3.7756 0
M  V30 1208 H 109.021 -0.683421 -3.06575 0
M  V30 1209 H 108.214 -2.77188 -4.20931 0
M  V30 1210 H 107.816 -2.8032 -2.47582 0
M  V30 1211 H 110.108 -4.17703 -5.33414 0
M  V30 1212 H 111.051 -5.45911 -4.50984 0
M  V30 1213 H 111.459 -3.74059 -4.22777 0
M  V30 1214 N 110.857 0.726932 -1.39834 0
M  V30 1215 C 111.789 1.85147 -1.35104 0
M  V30 1216 C 112.802 1.60736 -0.258392 0
M  V30 1217 O 113.991 1.70821 -0.517931 0
M  V30 1218 C 111.091 3.21332 -1.07697 0
M  V30 1219 C 110.264 3.73033 -2.28396 0
M  V30 1220 C 109.323 4.87802 -1.97322 0
M  V30 1221 O 108.349 5.01043 -2.70083 0
M  V30 1222 N 109.551 5.72768 -0.944273 0
M  V30 1223 H 112.316 1.89706 -2.32017 0
M  V30 1224 H 109.877 0.908006 -1.3404 0
M  V30 1225 H 111.869 3.95691 -0.849144 0
M  V30 1226 H 110.439 3.11992 -0.194909 0
M  V30 1227 H 109.659 2.89934 -2.6708 0
M  V30 1228 H 110.947 4.0431 -3.08887 0
M  V30 1229 H 110.345 5.64669 -0.341427 0
M  V30 1230 H 108.902 6.4716 -0.776346 0
M  V30 1231 N 112.336 1.25143 0.95797 0
M  V30 1232 C 113.269 0.995565 2.05338 0
M  V30 1233 C 114.247 -0.0740423 1.62431 0
M  V30 1234 O 115.431 0.0649212 1.88388 0
M  V30 1235 C 112.558 0.504298 3.34925 0
M  V30 1236 C 111.604 1.56393 3.96792 0
M  V30 1237 S 112.437 3.14815 4.33188 0
M  V30 1238 C 113.593 2.67415 5.65898 0
M  V30 1239 H 113.826 1.92309 2.26726 0
M  V30 1240 H 111.359 1.08635 1.09716 0
M  V30 1241 H 113.317 0.227497 4.09869 0
M  V30 1242 H 111.978 -0.402671 3.11508 0
M  V30 1243 H 111.171 1.17082 4.90212 0
M  V30 1244 H 110.773 1.79124 3.28315 0
M  V30 1245 H 113.065 2.10833 6.4386 0
M  V30 1246 H 114.008 3.59463 6.10076 0
M  V30 1247 H 114.416 2.07521 5.24972 0
M  V30 1248 N 113.814 -1.1601 1.06675 0
M  V30 1249 C 114.764 -2.18512 0.650888 0
M  V30 1250 C 115.748 -1.57677 -0.320441 0
M  V30 1251 O 116.94 -1.76482 -0.135266 0
M  V30 1252 C 114.069 -3.43273 0.0429255 0
M  V30 1253 C 113.155 -4.11176 1.03898 0
M  V30 1254 N 113.546 -4.54672 2.216 0
M  V30 1255 C 111.844 -4.37417 0.870779 0
M  V30 1256 C 112.545 -5.07248 2.84736 0
M  V30 1257 N 111.521 -5.0037 2.12441 0
M  V30 1258 H 115.323 -2.49863 1.54745 0
M  V30 1259 H 112.837 -1.32503 0.938975 0
M  V30 1260 H 114.834 -4.16006 -0.272857 0
M  V30 1261 H 113.494 -3.13408 -0.84884 0
M  V30 1262 H 114.505 -4.4828 2.59356 0
M  V30 1263 H 111.182 -4.17488 0.0313293 0
M  V30 1264 H 112.572 -5.50912 3.84636 0
M  V30 1265 N 115.292 -0.849877 -1.32721 0
M  V30 1266 C 116.222 -0.306308 -2.31482 0
M  V30 1267 C 117.203 0.591952 -1.59468 0
M  V30 1268 O 118.388 0.513199 -1.87296 0
M  V30 1269 C 115.518 0.510204 -3.43532 0
M  V30 1270 C 114.472 -0.293209 -4.26994 0
M  V30 1271 C 113.798 0.647743 -5.30762 0
M  V30 1272 C 115.098 -1.51634 -4.99804 0
M  V30 1273 H 116.792 -1.13153 -2.77195 0
M  V30 1274 H 114.338 -0.545553 -1.33266 0
M  V30 1275 H 116.291 0.900856 -4.11658 0
M  V30 1276 H 115.015 1.36874 -2.96535 0
M  V30 1277 H 113.674 -0.665555 -3.60508 0
M  V30 1278 H 113.322 1.50299 -4.8002 0
M  V30 1279 H 113.022 0.11422 -5.87489 0
M  V30 1280 H 114.546 1.03567 -6.01753 0
M  V30 1281 H 115.96 -1.19824 -5.60638 0
M  V30 1282 H 114.357 -1.98745 -5.66234 0
M  V30 1283 H 115.427 -2.28018 -4.27943 0
M  V30 1284 N 116.77 1.45427 -0.607355 0
M  V30 1285 C 117.68 2.34325 0.113463 0
M  V30 1286 C 118.696 1.51226 0.860617 0
M  V30 1287 O 119.872 1.84029 0.818255 0
M  V30 1288 C 116.937 3.28839 1.09844 0
M  V30 1289 C 115.998 4.27844 0.353271 0
M  V30 1290 C 115.231 5.17842 1.29133 0
M  V30 1291 O 115.454 5.11264 2.52913 0
M  V30 1292 O 114.388 5.96713 0.788523 0
M  V30 1293 H 118.214 2.97364 -0.617094 0
M  V30 1294 H 115.799 1.44807 -0.367619 0
M  V30 1295 H 117.681 3.8708 1.66575 0
M  V30 1296 H 116.356 2.68365 1.81003 0
M  V30 1297 H 115.263 3.7322 -0.256494 0
M  V30 1298 H 116.596 4.91173 -0.317822 0
M  V30 1299 N 118.248 0.346503 1.53744 0
M  V30 1300 C 119.473 -0.253074 2.0585 0
M  V30 1301 C 119.898 -1.43202 1.21962 0
M  V30 1302 O 119.256 -1.79783 0.234073 0
M  V30 1303 C 119.304 -0.643193 3.54817 0
M  V30 1304 O 118.408 -1.74286 3.73762 0
M  V30 1305 H 117.749 -0.0413583 0.662711 0
M  V30 1306 H 120.279 0.501574 1.98357 0
M  V30 1307 H 120.289 -0.919526 3.97503 0
M  V30 1308 H 118.964 0.218966 4.15323 0
M  V30 1309 H 117.541 -1.46356 3.42979 0
M  V30 1310 N 119.726 -1.57421 0.075193 0
M  V30 1311 C 120.656 -2.15942 -0.888324 0
M  V30 1312 C 121.637 -1.08737 -1.30806 0
M  V30 1313 O 122.822 -1.36787 -1.37851 0
M  V30 1314 C 119.952 -2.72379 -2.1547 0
M  V30 1315 C 118.906 -3.8478 -1.87425 0
M  V30 1316 C 118.232 -4.27834 -3.20721 0
M  V30 1317 C 119.532 -5.08869 -1.17684 0
M  V30 1318 H 121.226 -2.96705 -0.400799 0
M  V30 1319 H 118.772 -1.42723 -0.191342 0
M  V30 1320 H 120.725 -3.11965 -2.83295 0
M  V30 1321 H 119.449 -1.88841 -2.6647 0
M  V30 1322 H 118.108 -3.45703 -1.22004 0
M  V30 1323 H 117.756 -3.41214 -3.6957 0
M  V30 1324 H 117.456 -5.03605 -3.02746 0
M  V30 1325 H 118.98 -4.70039 -3.89738 0
M  V30 1326 H 120.394 -5.4575 -1.75584 0
M  V30 1327 H 118.791 -5.8994 -1.09956 0
M  V30 1328 H 119.861 -4.84648 -0.156453 0
M  V30 1329 N 121.204 0.198386 -1.56346 0
M  V30 1330 C 122.167 1.22952 -1.93431 0
M  V30 1331 C 123.167 1.38611 -0.815092 0
M  V30 1332 O 124.357 1.36479 -1.08255 0
M  V30 1333 C 121.489 2.59946 -2.20546 0
M  V30 1334 H 122.682 0.912626 -2.85677 0
M  V30 1335 H 120.235 0.43977 -1.49986 0
M  V30 1336 H 120.97 2.96696 -1.30927 0
M  V30 1337 H 120.755 2.49953 -3.02102 0
M  V30 1338 H 122.245 3.3431 -2.50253 0
M  V30 1339 N 122.682 1.50554 0.465978 0
M  V30 1340 C 123.629 1.6979 1.56333 0
M  V30 1341 C 124.599 0.539239 1.57103 0
M  V30 1342 O 125.784 0.770401 1.74555 0
M  V30 1343 C 122.924 1.80273 2.94271 0
M  V30 1344 C 122.037 3.07674 3.0325 0
M  V30 1345 C 121.172 3.08922 4.32135 0
M  V30 1346 C 120.211 4.30755 4.34875 0
M  V30 1347 N 119.348 4.29714 5.55239 0
M  V30 1348 H 124.188 2.63472 1.39235 0
M  V30 1349 H 121.725 1.30602 0.676873 0
M  V30 1350 H 123.683 1.84332 3.74269 0
M  V30 1351 H 122.313 0.900258 3.09992 0
M  V30 1352 H 121.365 3.13062 2.16094 0
M  V30 1353 H 122.677 3.97642 3.01135 0
M  V30 1354 H 121.831 3.11738 5.20485 0
M  V30 1355 H 120.57 2.16792 4.36866 0
M  V30 1356 H 119.575 4.28146 3.44922 0
M  V30 1357 H 120.8 5.24117 4.31831 0
M  V30 1358 H 118.746 3.4044 5.60746 0
M  V30 1359 H 118.663 5.13456 5.54886 0
M  V30 1360 H 119.931 4.36683 6.457 0
M  V30 1361 N 124.16 -0.719506 1.40217 0
M  V30 1362 C 125.388 -1.50864 1.41589 0
M  V30 1363 C 125.803 -1.88794 0.0145275 0
M  V30 1364 O 125.16 -1.55174 -0.960594 0
M  V30 1365 C 125.211 -2.78646 2.30302 0
M  V30 1366 O 124.932 -2.42321 3.64983 0
M  V30 1367 C 126.433 -3.72569 2.40224 0
M  V30 1368 H 123.653 -0.465709 0.48307 0
M  V30 1369 H 126.197 -0.88785 1.84221 0
M  V30 1370 H 124.352 -3.37019 1.91042 0
M  V30 1371 H 124.766 -3.24514 4.12057 0
M  V30 1372 H 126.24 -4.5908 3.06512 0
M  V30 1373 H 126.717 -4.15403 1.42608 0
M  V30 1374 H 127.323 -3.20109 2.80019 0
M  V30 1375 N 125.638 -1.25649 -0.95132 0
M  V30 1376 C 126.57 -1.02112 -2.05197 0
M  V30 1377 C 127.583 0.0150571 -1.62793 0
M  V30 1378 O 128.772 -0.223874 -1.77091 0
M  V30 1379 C 125.872 -0.522361 -3.3485 0
M  V30 1380 C 125.045 -1.62546 -4.06076 0
M  V30 1381 C 124.104 -1.12649 -5.14001 0
M  V30 1382 O 123.13 -1.82156 -5.39266 0
M  V30 1383 N 124.332 0.03047 -5.80492 0
M  V30 1384 H 127.097 -1.96885 -2.25957 0
M  V30 1385 H 124.658 -1.16899 -1.1201 0
M  V30 1386 H 126.65 -0.172961 -4.0433 0
M  V30 1387 H 125.22 0.33151 -3.10837 0
M  V30 1388 H 124.44 -2.14628 -3.30649 0
M  V30 1389 H 125.728 -2.36644 -4.50419 0
M  V30 1390 H 125.126 0.611169 -5.62389 0
M  V30 1391 H 123.683 0.320875 -6.5101 0
M  V30 1392 N 127.117 1.15442 -1.07289 0
M  V30 1393 C 128.347 1.89821 -0.815576 0
M  V30 1394 C 128.755 1.7823 0.634867 0
M  V30 1395 O 128.098 1.13152 1.44715 0
M  V30 1396 C 128.16 3.40817 -1.14385 0
M  V30 1397 C 127.824 3.76193 -2.59476 0
M  V30 1398 C 128.821 3.77269 -3.57721 0
M  V30 1399 C 126.506 4.0652 -2.95037 0
M  V30 1400 C 128.5 4.08176 -4.89562 0
M  V30 1401 C 126.187 4.37092 -4.27076 0
M  V30 1402 C 127.185 4.37902 -5.24148 0
M  V30 1403 O 126.873 4.67741 -6.53815 0
M  V30 1404 H 126.605 0.608465 -0.294528 0
M  V30 1405 H 129.159 1.472 -1.43252 0
M  V30 1406 H 127.389 3.83835 -0.469865 0
M  V30 1407 H 129.078 3.96485 -0.869179 0
M  V30 1408 H 129.844 3.5394 -3.3159 0
M  V30 1409 H 125.723 4.05049 -2.20128 0
M  V30 1410 H 129.267 4.08723 -5.65324 0
M  V30 1411 H 125.164 4.59889 -4.5296 0
M  V30 1412 H 125.932 4.85509 -6.58957 0
M  V30 1413 N 128.595 0.856903 1.32268 0
M  V30 1414 C 129.843 0.460474 1.96784 0
M  V30 1415 C 130.164 -0.987701 1.68135 0
M  V30 1416 O 129.434 -1.69058 0.989765 0
M  V30 1417 H 128.014 0.167289 0.728027 0
M  V30 1418 H 130.676 1.09383 1.61312 0
M  V30 1419 H 129.772 0.60739 3.06133 0
M  V30 1420 N 130.073 -1.45103 0.615059 0
M  V30 1421 C 131.319 -2.02483 0.113347 0
M  V30 1422 C 131.652 -1.48146 -1.25564 0
M  V30 1423 O 130.927 -0.659104 -1.82992 0
M  V30 1424 C 131.21 -3.60005 0.0825278 0
M  V30 1425 C 131.063 -4.2466 1.48271 0
M  V30 1426 C 132.382 -4.35972 -0.601401 0
M  V30 1427 H 129.501 -0.735764 0.0426632 0
M  V30 1428 H 132.143 -1.72868 0.788461 0
M  V30 1429 H 130.293 -3.85367 -0.492378 0
M  V30 1430 H 131.965 -4.10458 2.10527 0
M  V30 1431 H 130.208 -3.82772 2.04127 0
M  V30 1432 H 130.879 -5.336 1.41332 0
M  V30 1433 H 133.355 -4.15947 -0.112666 0
M  V30 1434 H 132.231 -5.45697 -0.592097 0
M  V30 1435 H 132.492 -4.09391 -1.66887 0
M  V30 1436 N 131.551 -0.354651 -1.53558 0
M  V30 1437 C 132.461 0.50515 -2.29097 0
M  V30 1438 C 133.477 1.10223 -1.34636 0
M  V30 1439 O 134.653 1.11553 -1.67684 0
M  V30 1440 C 131.718 1.63479 -3.05738 0
M  V30 1441 C 130.779 1.06636 -4.15845 0
M  V30 1442 C 130.012 2.14217 -4.88822 0
M  V30 1443 O 130.235 3.35137 -4.61562 0
M  V30 1444 O 129.169 1.77887 -5.75013 0
M  V30 1445 H 132.995 -0.109237 -3.03503 0
M  V30 1446 H 130.58 -0.119357 -1.48922 0
M  V30 1447 H 132.462 2.2918 -3.5363 0
M  V30 1448 H 131.137 2.23478 -2.34178 0
M  V30 1449 H 130.044 0.373565 -3.7223 0
M  V30 1450 H 131.377 0.511081 -4.89539 0
M  V30 1451 N 133.029 1.57378 -0.0835403 0
M  V30 1452 C 134.44 1.81261 0.447358 0
M  V30 1453 C 134.791 0.998331 1.68902 0
M  V30 1454 O 133.916 0.224282 2.15235 0
M  V30 1455 C 134.511 3.28767 0.818386 0
M  V30 1456 C 133.07 3.53455 1.29409 0
M  V30 1457 C 132.217 2.75831 0.285024 0
M  V30 1458 H 135.168 1.5566 -0.309115 0
M  V30 1459 H 135.189 3.41459 1.67887 0
M  V30 1460 H 134.701 3.88006 -0.0855019 0
M  V30 1461 H 132.802 2.99534 2.21608 0
M  V30 1462 H 132.915 4.62128 1.2639 0
M  V30 1463 H 131.279 2.42947 0.764767 0
M  V30 1464 H 132.062 3.37813 -0.611341 0
M  V30 1465 N 134.507 -0.190092 1.56449 0
M  V30 1466 C 135.753 -0.906472 1.82084 0
M  V30 1467 C 136.108 -1.80677 0.661335 0
M  V30 1468 O 135.401 -1.88501 -0.343237 0
M  V30 1469 C 135.595 -1.75382 3.1141 0
M  V30 1470 C 135.424 -0.937053 4.39829 0
M  V30 1471 C 134.194 -0.619507 5.01488 0
M  V30 1472 C 136.392 -0.2874 5.13496 0
M  V30 1473 N 134.374 0.215367 6.13522 0
M  V30 1474 C 135.745 0.409454 6.18646 0
M  V30 1475 C 137.8 -0.203639 4.97483 0
M  V30 1476 C 136.503 1.1821 7.0952 0
M  V30 1477 C 138.529 0.555622 5.88784 0
M  V30 1478 C 137.891 1.24091 6.93384 0
M  V30 1479 H 133.99 -0.310931 0.717528 0
M  V30 1480 H 136.574 -0.174821 1.93914 0
M  V30 1481 H 134.745 -2.45703 3.00806 0
M  V30 1482 H 136.477 -2.41006 3.25112 0
M  V30 1483 H 133.232 -0.945126 4.64074 0
M  V30 1484 H 133.656 0.622562 6.74131 0
M  V30 1485 H 138.298 -0.719099 4.1664 0
M  V30 1486 H 136.016 1.70897 7.89823 0
M  V30 1487 H 139.602 0.621854 5.78467 0
M  V30 1488 H 138.482 1.81901 7.62812 0
M  V30 1489 N 135.985 -1.50799 -0.457987 0
M  V30 1490 C 137.213 -1.66218 -1.23203 0
M  V30 1491 C 137.628 -0.350894 -1.85511 0
M  V30 1492 O 136.985 0.668546 -1.69814 0
M  V30 1493 C 137.036 -2.76291 -2.33121 0
M  V30 1494 O 136.757 -4.02338 -1.73366 0
M  V30 1495 C 138.258 -3.028 -3.2377 0
M  V30 1496 H 135.478 -0.558361 -0.372121 0
M  V30 1497 H 138.022 -1.97099 -0.545179 0
M  V30 1498 H 136.177 -2.48068 -2.97558 0
M  V30 1499 H 136.591 -4.63312 -2.4585 0
M  V30 1500 H 138.065 -3.8345 -3.97077 0
M  V30 1501 H 138.542 -2.14385 -3.83322 0
M  V30 1502 H 139.148 -3.32604 -2.65056 0
M  V30 1503 N 137.463 0.71206 -1.40597 0
M  V30 1504 C 138.393 1.83889 -1.43899 0
M  V30 1505 C 139.374 1.67442 -0.299504 0
M  V30 1506 O 140.559 1.87421 -0.508624 0
M  V30 1507 C 137.689 3.21877 -1.30431 0
M  V30 1508 C 136.643 3.53002 -2.42019 0
M  V30 1509 C 135.969 4.90172 -2.13626 0
M  V30 1510 C 137.269 3.53643 -3.84362 0
M  V30 1511 H 138.963 1.81383 -2.38203 0
M  V30 1512 H 136.509 0.871237 -1.14654 0
M  V30 1513 H 138.462 4.00404 -1.31357 0
M  V30 1514 H 137.186 3.24968 -0.326049 0
M  V30 1515 H 135.845 2.76818 -2.40349 0
M  V30 1516 H 135.493 4.89869 -1.14182 0
M  V30 1517 H 135.193 5.11962 -2.88389 0
M  V30 1518 H 136.717 5.71028 -2.1624 0
M  V30 1519 H 138.131 4.22203 -3.87837 0
M  V30 1520 H 136.528 3.86961 -4.58673 0
M  V30 1521 H 137.598 2.52954 -4.13693 0
M  V30 1522 N 138.941 1.26152 0.944643 0
M  V30 1523 C 139.873 1.03199 2.04652 0
M  V30 1524 C 140.886 -0.00642356 1.62799 0
M  V30 1525 O 142.075 0.233263 1.76969 0
M  V30 1526 C 139.175 0.540111 3.34568 0
M  V30 1527 C 138.348 1.64697 4.05208 0
M  V30 1528 C 137.407 1.15374 5.13396 0
M  V30 1529 O 136.433 1.85013 5.38293 0
M  V30 1530 N 137.635 0.00031529 5.805 0
M  V30 1531 H 140.4 1.9808 2.2491 0
M  V30 1532 H 137.961 1.17491 1.11389 0
M  V30 1533 H 139.953 0.194401 4.04233 0
M  V30 1534 H 138.523 -0.315021 3.11009 0
M  V30 1535 H 137.743 2.16379 3.29506 0
M  V30 1536 H 139.031 2.3903 4.49157 0
M  V30 1537 H 138.429 -0.581336 5.62705 0
M  V30 1538 H 136.986 -0.286346 6.51171 0
M  V30 1539 N 140.419 -1.14872 1.07899 0
M  V30 1540 C 141.696 -1.81928 0.71845 0
M  V30 1541 C 142.076 -1.95417 -0.798455 0
M  V30 1542 O 141.424 -1.50997 -1.715 0
M  V30 1543 C 141.634 -3.17937 1.43935 0
M  V30 1544 C 142.982 -3.93501 1.59506 0
M  V30 1545 O 144.006 -3.27509 1.40058 0
M  V30 1546 O 142.865 -5.1183 1.91551 0
M  V30 1547 H 139.959 -0.78628 0.256305 0
M  V30 1548 H 142.505 -1.21934 1.18026 0
M  V30 1549 H 141.277 -3.0325 2.47295 0
M  V30 1550 H 140.9 -3.85619 0.968687 0
M  V30 1551 N 141.898 -0.863906 -1.31812 0
M  V30 1552 C 143.126 -0.486111 -2.01108 0
M  V30 1553 C 143.541 0.919755 -1.64882 0
M  V30 1554 O 142.898 1.60162 -0.874893 0
M  V30 1555 C 142.949 -0.626435 -3.56031 0
M  V30 1556 O 142.67 -1.97693 -3.90959 0
M  V30 1557 C 144.171 -0.248857 -4.42601 0
M  V30 1558 H 141.391 -0.190052 -0.643523 0
M  V30 1559 H 143.935 -1.1634 -1.68182 0
M  V30 1560 H 142.09 0.00322717 -3.874 0
M  V30 1561 H 142.504 -1.98034 -4.85678 0
M  V30 1562 H 143.978 -0.398016 -5.50563 0
M  V30 1563 H 144.455 0.811489 -4.31638 0
M  V30 1564 H 145.061 -0.853971 -4.16638 0
M  V30 1565 N 143.376 1.44774 -0.622745 0
M  V30 1566 C 144.601 2.06999 -0.128968 0
M  V30 1567 C 145.026 1.4617 1.1839 0
M  V30 1568 O 144.384 0.560007 1.72434 0
M  V30 1569 C 144.432 3.60595 -0.0188351 0
M  V30 1570 O 143.536 3.99398 1.02739 0
M  V30 1571 H 142.877 0.659047 -0.0809544 0
M  V30 1572 H 145.407 1.85784 -0.85705 0
M  V30 1573 H 145.417 4.07627 0.174476 0
M  V30 1574 H 144.092 4.04252 -0.977384 0
M  V30 1575 H 142.669 3.64011 0.809326 0
M  V30 1576 N 144.854 0.36279 1.53368 0
M  V30 1577 C 146.084 -0.228281 2.05335 0
M  V30 1578 C 146.492 -1.43226 1.23625 0
M  V30 1579 O 145.835 -1.81717 0.269206 0
M  V30 1580 C 145.897 -0.688549 3.52845 0
M  V30 1581 C 145.561 0.398362 4.5526 0
M  V30 1582 C 146.558 1.24732 5.04716 0
M  V30 1583 C 144.243 0.557805 4.99193 0
M  V30 1584 C 146.237 2.2411 5.96702 0
M  V30 1585 C 143.924 1.55495 5.90986 0
M  V30 1586 C 144.922 2.39503 6.39631 0
M  V30 1587 O 144.61 3.37517 7.29615 0
M  V30 1588 H 144.342 -0.044395 0.674541 0
M  V30 1589 H 146.896 0.518668 1.98744 0
M  V30 1590 H 145.126 -1.48706 3.56964 0
M  V30 1591 H 146.815 -1.20231 3.87685 0
M  V30 1592 H 147.581 1.13532 4.71525 0
M  V30 1593 H 143.46 -0.0862959 4.60919 0
M  V30 1594 H 147.004 2.89718 6.34594 0
M  V30 1595 H 142.901 1.66744 6.23592 0
M  V30 1596 H 143.669 3.33213 7.47604 0
M  V30 1597 N 146.332 -1.57332 0.0918853 0
M  V30 1598 C 147.242 -2.17368 -0.882505 0
M  V30 1599 C 148.258 -1.14226 -1.31257 0
M  V30 1600 O 149.434 -1.46582 -1.38115 0
M  V30 1601 C 146.499 -2.73962 -2.12476 0
M  V30 1602 C 145.56 -3.92048 -1.7492 0
M  V30 1603 C 144.793 -4.45933 -2.93223 0
M  V30 1604 O 145.016 -3.98764 -4.07852 0
M  V30 1605 O 143.95 -5.36999 -2.71875 0
M  V30 1606 H 147.776 -3.01031 -0.40172 0
M  V30 1607 H 145.361 -1.48813 -0.132291 0
M  V30 1608 H 147.243 -3.10147 -2.85283 0
M  V30 1609 H 145.918 -1.93347 -2.59613 0
M  V30 1610 H 144.825 -3.6068 -0.993025 0
M  V30 1611 H 146.158 -4.74017 -1.32548 0
M  V30 1612 N 147.81 0.181792 -1.56548 0
M  V30 1613 C 148.743 1.25366 -1.90679 0
M  V30 1614 C 149.721 1.43299 -0.768376 0
M  V30 1615 O 150.905 1.58475 -1.02068 0
M  V30 1616 C 148.032 2.61826 -2.1486 0
M  V30 1617 C 147.078 2.60688 -3.37556 0
M  V30 1618 S 147.911 2.10804 -4.92262 0
M  V30 1619 C 149.067 3.49062 -5.19525 0
M  V30 1620 H 149.3 0.962277 -2.81296 0
M  V30 1621 H 146.833 0.385892 -1.495 0
M  V30 1622 H 148.791 3.40371 -2.29473 0
M  V30 1623 H 147.452 2.88169 -1.24969 0
M  V30 1624 H 146.645 3.61058 -3.51643 0
M  V30 1625 H 146.247 1.90232 -3.22006 0
M  V30 1626 H 148.539 4.45003 -5.10861 0
M  V30 1627 H 149.482 3.39859 -6.2121 0
M  V30 1628 H 149.89 3.4459 -4.47122 0
M  V30 1629 N 149.288 1.51039 0.449983 0
M  V30 1630 C 150.534 1.64287 1.19923 0
M  V30 1631 C 150.889 0.348701 1.89214 0
M  V30 1632 O 150.182 -0.654751 1.80065 0
M  V30 1633 C 150.376 2.77556 2.25161 0
M  V30 1634 C 150.205 4.17862 1.66198 0
M  V30 1635 C 148.975 4.83976 1.45243 0
M  V30 1636 C 151.173 5.01388 1.14519 0
M  V30 1637 N 149.155 6.08433 0.817437 0
M  V30 1638 C 150.526 6.16743 0.634705 0
M  V30 1639 C 152.581 4.87008 1.03574 0
M  V30 1640 C 151.284 7.19295 0.0255452 0
M  V30 1641 C 153.31 5.89757 0.440489 0
M  V30 1642 C 152.672 7.04375 -0.0595112 0
M  V30 1643 H 148.771 0.655161 0.426952 0
M  V30 1644 H 151.355 1.88228 0.49781 0
M  V30 1645 H 149.526 2.553 2.92706 0
M  V30 1646 H 151.258 2.80049 2.92155 0
M  V30 1647 H 148.013 4.41627 1.71063 0
M  V30 1648 H 148.437 6.75017 0.517747 0
M  V30 1649 H 153.079 3.9866 1.4082 0
M  V30 1650 H 150.797 8.07302 -0.359071 0
M  V30 1651 H 154.383 5.80698 0.35788 0
M  V30 1652 H 153.263 7.82521 -0.512882 0
M  V30 1653 N 150.766 -0.704594 1.40972 0
M  V30 1654 C 151.696 -1.83124 1.44872 0
M  V30 1655 C 152.677 -1.67281 0.30838 0
M  V30 1656 O 153.862 -1.87149 0.518556 0
M  V30 1657 C 150.992 -3.21181 1.32136 0
M  V30 1658 C 149.946 -3.51714 2.43888 0
M  V30 1659 C 149.272 -4.89032 2.16222 0
M  V30 1660 C 150.572 -3.516 3.86232 0
M  V30 1661 H 152.266 -1.80117 2.39161 0
M  V30 1662 H 149.812 -0.865145 1.15114 0
M  V30 1663 H 151.765 -3.99702 1.33479 0
M  V30 1664 H 150.489 -3.24791 0.343279 0
M  V30 1665 H 149.148 -2.75539 2.41813 0
M  V30 1666 H 148.796 -4.89256 1.16778 0
M  V30 1667 H 148.496 -5.10426 2.911 0
M  V30 1668 H 150.02 -5.69873 2.19265 0
M  V30 1669 H 151.434 -4.2014 3.9007 0
M  V30 1670 H 149.831 -3.84523 4.60719 0
M  V30 1671 H 150.901 -2.50757 4.15029 0
M  V30 1672 N 152.244 -1.26651 -0.937939 0
M  V30 1673 C 153.472 -1.15173 -1.7188 0
M  V30 1674 C 153.887 0.292668 -1.86518 0
M  V30 1675 O 153.244 1.20014 -1.37488 0
M  V30 1676 C 153.295 -1.81925 -3.12387 0
M  V30 1677 O 153.016 -3.2072 -2.98446 0
M  V30 1678 C 154.517 -1.76442 -4.06673 0
M  V30 1679 H 151.737 -0.400911 -0.538063 0
M  V30 1680 H 154.281 -1.67332 -1.1756 0
M  V30 1681 H 152.436 -1.33696 -3.63599 0
M  V30 1682 H 152.85 -3.53802 -3.872 0
M  V30 1683 H 154.324 -2.27781 -5.02812 0
M  V30 1684 H 154.801 -0.731608 -4.33064 0
M  V30 1685 H 155.407 -2.24238 -3.61382 0
M  V30 1686 N 153.722 1.14298 -1.08507 0
M  V30 1687 C 155.133 1.66926 -0.836227 0
M  V30 1688 C 155.484 1.85576 0.63686 0
M  V30 1689 O 154.609 1.56767 1.49175 0
M  V30 1690 C 155.204 3.03219 -1.51142 0
M  V30 1691 C 153.763 3.52876 -1.30979 0
M  V30 1692 C 152.91 2.2833 -1.57356 0
M  V30 1693 H 155.861 0.983491 -1.24552 0
M  V30 1694 H 155.882 3.68726 -0.939211 0
M  V30 1695 H 155.394 2.89612 -2.58353 0
M  V30 1696 H 153.495 3.71703 -0.258429 0
M  V30 1697 H 153.608 4.33586 -2.03814 0
M  V30 1698 H 151.972 2.34454 -0.995164 0
M  V30 1699 H 152.755 2.17298 -2.65775 0
M  V30 1700 N 155.201 0.870884 1.31352 0
M  V30 1701 C 156.612 0.534714 1.78879 0
M  V30 1702 C 156.963 -0.948423 1.71754 0
M  V30 1703 O 156.088 -1.74055 1.28584 0
M  V30 1704 C 156.683 0.963839 3.24801 0
M  V30 1705 C 155.242 0.679311 3.70219 0
M  V30 1706 C 154.389 1.15465 2.52117 0
M  V30 1707 H 157.34 1.05651 1.18421 0
M  V30 1708 H 157.361 0.286892 3.79417 0
M  V30 1709 H 156.873 2.04332 3.29955 0
M  V30 1710 H 154.974 -0.388769 3.70566 0
M  V30 1711 H 155.087 1.25698 4.62317 0
M  V30 1712 H 153.451 0.574383 2.48139 0
M  V30 1713 H 154.234 2.24157 2.60016 0
M  V30 1714 N 156.679 -1.44442 0.630414 0
M  V30 1715 C 157.626 -2.30678 -0.0749355 0
M  V30 1716 C 158.596 -1.4344 -0.837502 0
M  V30 1717 O 159.781 -1.72343 -0.818684 0
M  V30 1718 C 156.921 -3.28706 -1.05103 0
M  V30 1719 C 156.034 -4.31046 -0.286954 0
M  V30 1720 C 155.169 -5.16167 -1.2548 0
M  V30 1721 C 154.208 -6.10216 -0.479843 0
M  V30 1722 N 153.345 -6.88039 -1.39811 0
M  V30 1723 H 158.185 -2.90454 0.666386 0
M  V30 1724 H 155.722 -1.43107 0.340404 0
M  V30 1725 H 157.68 -3.84027 -1.63031 0
M  V30 1726 H 156.31 -2.70632 -1.75949 0
M  V30 1727 H 155.362 -3.78203 0.408243 0
M  V30 1728 H 156.674 -4.97794 0.316657 0
M  V30 1729 H 155.828 -5.76002 -1.90544 0
M  V30 1730 H 154.567 -4.49491 -1.89233 0
M  V30 1731 H 153.572 -5.49491 0.184295 0
M  V30 1732 H 154.797 -6.78928 0.152965 0
M  V30 1733 H 152.743 -6.24032 -2.02287 0
M  V30 1734 H 152.66 -7.51223 -0.848508 0
M  V30 1735 H 153.928 -7.52397 -2.03762 0
M  V30 1736 N 158.157 -0.370918 -1.53173 0
M  V30 1737 C 159.573 -0.0200818 -1.59587 0
M  V30 1738 C 159.773 1.46279 -1.38581 0
M  V30 1739 O 158.829 2.22506 -1.19363 0
M  V30 1740 C 160.142 -0.4808 -2.96831 0
M  V30 1741 C 161.69 -0.435477 -3.09956 0
M  V30 1742 C 162.165 -0.872092 -4.4962 0
M  V30 1743 N 163.656 -0.827364 -4.55751 0
M  V30 1744 C 164.391 -1.13683 -5.62018 0
M  V30 1745 N 163.887 -1.51584 -6.76014 0
M  V30 1746 N 165.68 -1.05927 -5.52029 0
M  V30 1747 H 157.831 -1.33652 -1.65079 0
M  V30 1748 H 160.094 -0.546634 -0.774529 0
M  V30 1749 H 159.8 -1.51577 -3.1736 0
M  V30 1750 H 159.674 0.129796 -3.76977 0
M  V30 1751 H 162.061 0.590371 -2.89134 0
M  V30 1752 H 162.142 -1.08164 -2.31806 0
M  V30 1753 H 161.786 -1.89608 -4.71181 0
M  V30 1754 H 161.716 -0.203127 -5.26208 0
M  V30 1755 H 164.207 -0.548216 -3.73902 0
M  V30 1756 H 164.52 -1.73609 -7.53047 0
M  V30 1757 H 162.865 -1.55454 -6.77391 0
M  V30 1758 H 166.056 -0.762321 -4.61851 0
M  V30 1759 H 166.229 -1.30378 -6.34749 0
M  V30 1760 N 159.635 1.57281 -0.100228 0
M  V30 1761 C 160.875 1.96419 0.56558 0
M  V30 1762 C 161.239 0.981265 1.65031 0
M  V30 1763 O 162.44 1.26133 2.37369 0
M  V30 1764 C 160.711 3.39996 1.10171 0
M  V30 1765 S 162.27 4.01134 1.77867 0
M  V30 1766 H 159.088 0.68667 0.184406 0
M  V30 1767 H 161.69 1.94662 -0.180851 0
M  V30 1768 H 160.394 4.09296 0.300803 0
M  V30 1769 H 159.925 3.45361 1.88385 0
M  V30 1770 H 161.94 3.90358 3.06326 0
M  V30 1771 N 161.113 -0.173488 1.56642 0
M  V30 1772 C 162.36 -0.890465 1.81871 0
M  V30 1773 C 162.688 -1.82339 0.67696 0
M  V30 1774 O 161.943 -1.92795 -0.335926 0
M  V30 1775 C 162.242 -1.72069 3.13252 0
M  V30 1776 C 161.908 -0.936878 4.41059 0
M  V30 1777 C 160.57 -0.720545 4.75775 0
M  V30 1778 C 162.922 -0.386919 5.19762 0
M  V30 1779 C 160.25 0.0568829 5.86672 0
M  V30 1780 C 162.602 0.37741 6.31473 0
M  V30 1781 C 161.266 0.604563 6.64757 0
M  V30 1782 H 160.536 -0.325844 0.665512 0
M  V30 1783 H 163.183 -0.155527 1.90867 0
M  V30 1784 H 161.488 -2.52496 2.99588 0
M  V30 1785 H 163.185 -2.27844 3.29982 0
M  V30 1786 H 159.775 -1.11553 4.13828 0
M  V30 1787 H 163.959 -0.541398 4.93338 0
M  V30 1788 H 159.215 0.242635 6.10918 0
M  V30 1789 H 163.389 0.810825 6.91664 0
M  V30 1790 H 161.016 1.20885 7.50527 0
M  V30 1791 N 162.591 -1.51276 -0.441967 0
M  V30 1792 C 163.538 -1.72256 -1.53612 0
M  V30 1793 C 164.508 -0.564164 -1.56225 0
M  V30 1794 O 165.693 -0.798074 -1.73307 0
M  V30 1795 C 162.833 -1.84932 -2.91366 0
M  V30 1796 C 161.946 -3.12459 -2.98317 0
M  V30 1797 C 161.081 -3.15758 -4.27166 0
M  V30 1798 C 160.12 -4.37619 -4.27967 0
M  V30 1799 N 159.257 -4.38493 -5.48333 0
M  V30 1800 H 164.097 -2.65654 -1.35026 0
M  V30 1801 H 161.634 -1.31662 -0.656009 0
M  V30 1802 H 163.592 -1.90263 -3.7129 0
M  V30 1803 H 162.222 -0.949461 -3.08521 0
M  V30 1804 H 161.274 -3.1646 -2.11086 0
M  V30 1805 H 162.586 -4.02382 -2.94771 0
M  V30 1806 H 161.74 -3.19979 -5.15459 0
M  V30 1807 H 160.479 -2.23715 -4.33362 0
M  V30 1808 H 159.484 -4.33579 -3.38067 0
M  V30 1809 H 160.709 -5.30921 -4.23438 0
M  V30 1810 H 158.655 -3.49318 -5.55259 0
M  V30 1811 H 158.572 -5.22219 -5.46647 0
M  V30 1812 H 159.84 -4.469 -6.38671 0
M  V30 1813 N 164.069 0.697108 -1.41344 0
M  V30 1814 C 165.016 1.81106 -1.43071 0
M  V30 1815 C 165.986 1.63632 -0.285275 0
M  V30 1816 O 167.171 1.84504 -0.486091 0
M  V30 1817 C 164.311 3.18975 -1.31715 0
M  V30 1818 C 163.424 3.47892 -2.56115 0
M  V30 1819 C 162.559 4.75367 -2.37064 0
M  V30 1820 C 161.598 4.97247 -3.56948 0
M  V30 1821 N 160.735 6.15947 -3.36977 0
M  V30 1822 H 165.575 1.78965 -2.38276 0
M  V30 1823 H 163.112 0.873975 -1.18322 0
M  V30 1824 H 165.07 3.98615 -1.23133 0
M  V30 1825 H 163.7 3.20297 -0.401183 0
M  V30 1826 H 162.752 2.62669 -2.75153 0
M  V30 1827 H 164.064 3.59962 -3.45295 0
M  V30 1828 H 163.218 5.63059 -2.25941 0
M  V30 1829 H 161.957 4.65541 -1.45338 0
M  V30 1830 H 160.962 4.08004 -3.68527 0
M  V30 1831 H 162.187 5.08934 -4.49626 0
M  V30 1832 H 160.133 6.07336 -2.47949 0
M  V30 1833 H 160.05 6.28777 -4.19732 0
M  V30 1834 H 161.318 7.06377 -3.29623 0
M  V30 1835 N 165.547 1.27147 0.931209 0
M  V30 1836 C 166.479 1.05364 2.03546 0
M  V30 1837 C 167.492 0.0108438 1.62796 0
M  V30 1838 O 168.681 0.25202 1.76712 0
M  V30 1839 C 165.781 0.575566 3.33977 0
M  V30 1840 C 164.954 1.68985 4.03439 0
M  V30 1841 C 164.013 1.20813 5.12143 0
M  V30 1842 O 163.039 1.90712 5.363 0
M  V30 1843 N 164.241 0.0618851 5.80467 0
M  V30 1844 H 167.006 2.00454 2.22796 0
M  V30 1845 H 164.567 1.18666 1.10136 0
M  V30 1846 H 166.559 0.237264 4.04004 0
M  V30 1847 H 165.129 -0.282016 3.11325 0
M  V30 1848 H 164.349 2.19861 3.27192 0
M  V30 1849 H 165.637 2.4378 4.46597 0
M  V30 1850 H 165.035 -0.521621 5.6329 0
M  V30 1851 H 163.592 -0.217264 6.51438 0
M  V30 1852 N 167.025 -1.13721 1.09112 0
M  V30 1853 C 168.273 -1.84559 0.823562 0
M  V30 1854 C 168.594 -1.83754 -0.652658 0
M  V30 1855 O 167.864 -1.29102 -1.47342 0
M  V30 1856 H 166.444 -0.683376 0.301673 0
M  V30 1857 H 169.106 -1.37771 1.37859 0
M  V30 1858 H 168.202 -2.8917 1.17419 0
M  V30 1859 N 168.503 -0.877838 -1.30888 0
M  V30 1860 C 169.451 -0.328662 -2.30266 0
M  V30 1861 C 170.445 0.560496 -1.59859 0
M  V30 1862 O 171.651 0.445722 -1.74394 0
M  V30 1863 H 168.026 -0.0876142 -0.746879 0
M  V30 1864 H 169.997 -1.18061 -2.74051 0
M  V30 1865 C 168.746 0.448071 -3.44801 0
M  V30 1866 H 168.069 -0.226859 -3.99156 0
M  V30 1867 H 169.509 0.797541 -4.16432 0
M  V30 1868 C 167.968 1.64239 -2.94155 0
M  V30 1869 O 168.498 2.74175 -2.93583 0
M  V30 1870 N 166.704 1.47716 -2.50256 0
M  V30 1871 H 166.251 0.582821 -2.5092 0
M  V30 1872 H 166.209 2.27765 -2.16727 0
M  V30 1873 N 169.982 1.44106 -0.638065 0
M  V30 1874 C 171.21 2.06336 -0.152615 0
M  V30 1875 C 171.625 1.47731 1.17563 0
M  V30 1876 O 170.982 0.602806 1.72257 0
M  V30 1877 C 171.033 3.61479 -0.0391491 0
M  V30 1878 O 170.754 4.17903 -1.31487 0
M  V30 1879 C 172.255 4.40757 0.474176 0
M  V30 1880 H 169.475 0.665862 -0.0828776 0
M  V30 1881 H 172.019 1.84862 -0.87443 0
M  V30 1882 H 170.174 3.82191 0.633142 0
M  V30 1883 H 170.588 5.11416 -1.16421 0
M  V30 1884 H 172.062 5.49707 0.502562 0
M  V30 1885 H 172.539 4.12697 1.50258 0
M  V30 1886 H 173.145 4.24979 -0.165102 0
M  V30 1887 N 171.46 0.379036 1.52974 0
M  V30 1888 C 172.706 -0.206727 2.01744 0
M  V30 1889 C 173.039 -1.47314 1.26539 0
M  V30 1890 O 172.314 -1.91084 0.362903 0
M  V30 1891 C 172.597 -0.485066 3.56818 0
M  V30 1892 C 172.45 0.795919 4.42702 0
M  V30 1893 C 173.769 -1.28003 4.21074 0
M  V30 1894 H 170.888 -0.0736607 0.73331 0
M  V30 1895 H 173.53 0.506581 1.83122 0
M  V30 1896 H 171.68 -1.09272 3.72816 0
M  V30 1897 H 173.352 1.43307 4.38476 0
M  V30 1898 H 171.595 1.41344 4.10127 0
M  V30 1899 H 172.266 0.555947 5.49193 0
M  V30 1900 H 174.742 -0.765867 4.08991 0
M  V30 1901 H 173.618 -1.44352 5.29579 0
M  V30 1902 H 173.879 -2.29236 3.78026 0
M  V30 1903 N 172.938 -1.57226 0.108567 0
M  V30 1904 C 173.848 -2.18292 -0.859401 0
M  V30 1905 C 174.864 -1.15612 -1.30038 0
M  V30 1906 O 176.04 -1.48039 -1.36552 0
M  V30 1907 C 173.105 -2.762 -2.09558 0
M  V30 1908 C 172.166 -3.93881 -1.70752 0
M  V30 1909 C 171.399 -4.49018 -2.88477 0
M  V30 1910 O 171.622 -4.03068 -4.036 0
M  V30 1911 O 170.556 -5.39852 -2.66164 0
M  V30 1912 H 174.382 -3.01441 -0.369769 0
M  V30 1913 H 171.967 -1.48945 -0.1165 0
M  V30 1914 H 173.849 -3.13156 -2.81978 0
M  V30 1915 H 172.524 -1.96089 -2.57548 0
M  V30 1916 H 171.431 -3.61713 -0.954714 0
M  V30 1917 H 172.764 -4.75396 -1.27513 0
M  V30 1918 N 174.416 0.165178 -1.56732 0
M  V30 1919 C 175.662 0.882112 -1.82611 0
M  V30 1920 C 175.995 1.81628 -0.687378 0
M  V30 1921 O 175.27 1.92009 0.310267 0
M  V30 1922 C 175.553 1.67245 -3.18906 0
M  V30 1923 C 175.406 0.760987 -4.43316 0
M  V30 1924 C 176.725 2.63884 -3.52212 0
M  V30 1925 H 173.844 0.319242 -0.664269 0
M  V30 1926 H 176.486 0.148052 -1.89422 0
M  V30 1927 H 174.636 2.29824 -3.1323 0
M  V30 1928 H 176.308 0.147596 -4.61064 0
M  V30 1929 H 174.551 0.0694102 -4.33744 0
M  V30 1930 H 175.222 1.34962 -5.35247 0
M  V30 1931 H 177.698 2.11429 -3.58381 0
M  V30 1932 H 176.574 3.16245 -4.48643 0
M  V30 1933 H 176.835 3.44377 -2.77231 0
M  V30 1934 N 175.894 1.51508 0.433938 0
M  V30 1935 C 176.841 1.73068 1.52696 0
M  V30 1936 C 177.811 0.572441 1.55924 0
M  V30 1937 O 178.996 0.807253 1.72882 0
M  V30 1938 C 176.136 1.86474 2.90381 0
M  V30 1939 C 175.249 3.14037 2.96656 0
M  V30 1940 C 174.384 3.18019 4.25485 0
M  V30 1941 C 173.423 4.39882 4.2564 0
M  V30 1942 N 172.56 4.41394 5.45999 0
M  V30 1943 H 177.4 2.66366 1.33615 0
M  V30 1944 H 174.937 1.32008 0.649018 0
M  V30 1945 H 176.895 1.92229 3.70275 0
M  V30 1946 H 175.525 0.965809 3.08013 0
M  V30 1947 H 174.577 3.17575 2.09404 0
M  V30 1948 H 175.889 4.0394 2.92633 0
M  V30 1949 H 175.043 3.22708 5.13755 0
M  V30 1950 H 173.782 2.2601 4.3217 0
M  V30 1951 H 172.787 4.35366 3.35763 0
M  V30 1952 H 174.012 5.33159 4.20617 0
M  V30 1953 H 171.958 3.52258 5.53399 0
M  V30 1954 H 171.875 5.25111 5.4387 0
M  V30 1955 H 173.143 4.50281 6.36292 0
M  V30 1956 N 177.372 -0.689602 1.41712 0
M  V30 1957 C 178.619 -1.44966 1.4139 0
M  V30 1958 C 178.947 -1.94484 0.025105 0
M  V30 1959 O 178.202 -1.70307 -0.964048 0
M  V30 1960 C 178.501 -2.67298 2.37247 0
M  V30 1961 C 178.167 -2.36405 3.83958 0
M  V30 1962 C 176.829 -2.27691 4.23923 0
M  V30 1963 C 179.181 -2.11043 4.76561 0
M  V30 1964 C 176.509 -1.91719 5.54492 0
M  V30 1965 C 178.861 -1.76578 6.07456 0
M  V30 1966 C 177.525 -1.66363 6.46436 0
M  V30 1967 H 176.795 -0.53047 0.517381 0
M  V30 1968 H 179.442 -0.787655 1.74552 0
M  V30 1969 H 177.747 -3.38461 1.9736 0
M  V30 1970 H 179.444 -3.25452 2.34269 0
M  V30 1971 H 176.034 -2.44085 3.52308 0
M  V30 1972 H 180.218 -2.16717 4.46483 0
M  V30 1973 H 175.474 -1.82367 5.83568 0
M  V30 1974 H 179.648 -1.55974 6.78708 0
M  V30 1975 H 177.275 -1.38258 7.47522 0
M  V30 1976 N 178.85 -1.27639 -0.924453 0
M  V30 1977 C 180.127 -1.04887 -1.651 0
M  V30 1978 C 180.507 0.415327 -2.06974 0
M  V30 1979 O 179.855 1.39923 -1.80648 0
M  V30 1980 C 180.065 -2.01348 -2.85061 0
M  V30 1981 C 181.413 -2.30899 -3.56329 0
M  V30 1982 O 182.437 -1.99348 -2.95193 0
M  V30 1983 O 181.296 -2.84699 -4.66485 0
M  V30 1984 H 178.39 -0.400083 -0.723784 0
M  V30 1985 H 180.936 -1.38916 -0.974703 0
M  V30 1986 H 179.708 -3.0008 -2.51133 0
M  V30 1987 H 179.331 -1.679 -3.6041 0
M  V30 1988 N 180.328 1.1314 -1.09713 0
M  V30 1989 C 181.576 1.84119 -0.833338 0
M  V30 1990 C 181.897 1.84097 0.642904 0
M  V30 1991 O 181.167 1.29881 1.46655 0
M  V30 1992 H 179.747 0.681766 -0.305293 0
M  V30 1993 H 182.409 1.37038 -1.38588 0
M  V30 1994 H 181.505 2.88543 -1.18951 0
M  V30 1995 N 181.806 0.884767 1.30421 0
M  V30 1996 C 183.046 0.509806 1.9794 0
M  V30 1997 C 183.41 -0.923736 1.68319 0
M  V30 1998 O 184.611 -1.40481 2.29169 0
M  V30 1999 C 182.882 0.776732 3.48858 0
M  V30 2000 S 184.441 0.503843 4.35898 0
M  V30 2001 H 181.259 0.189699 0.685227 0
M  V30 2002 H 183.861 1.14399 1.58535 0
M  V30 2003 H 182.565 1.81857 3.67908 0
M  V30 2004 H 182.096 0.1301 3.93185 0
M  V30 2005 H 184.111 -0.657625 4.91823 0
M  V30 2006 N 183.284 -1.43765 0.645699 0
M  V30 2007 C 184.194 -2.34544 -0.0512957 0
M  V30 2008 C 185.21 -1.53455 -0.82022 0
M  V30 2009 O 186.386 -1.86133 -0.769176 0
M  V30 2010 C 183.451 -3.31636 -1.01087 0
M  V30 2011 C 182.512 -4.2863 -0.239712 0
M  V30 2012 C 181.745 -5.21084 -1.15358 0
M  V30 2013 O 181.968 -5.1779 -2.39269 0
M  V30 2014 O 180.902 -5.98593 -0.630038 0
M  V30 2015 H 184.728 -2.95624 0.695718 0
M  V30 2016 H 182.313 -1.43781 0.405882 0
M  V30 2017 H 184.195 -3.9136 -1.56254 0
M  V30 2018 H 182.87 -2.73069 -1.73824 0
M  V30 2019 H 181.777 -3.72408 0.355356 0
M  V30 2020 H 183.11 -4.90157 0.447936 0
M  V30 2021 N 184.763 -0.387143 -1.52771 0
M  V30 2022 C 186.04 0.253197 -1.93954 0
M  V30 2023 C 186.42 1.64545 -1.32243 0
M  V30 2024 O 185.768 2.23191 -0.489699 0
M  V30 2025 C 185.978 0.281722 -3.47861 0
M  V30 2026 C 187.326 0.511715 -4.21505 0
M  V30 2027 O 188.35 0.362023 -3.54356 0
M  V30 2028 O 187.209 0.804847 -5.40541 0
M  V30 2029 H 184.303 0.156845 -0.811991 0
M  V30 2030 H 186.849 -0.441494 -1.63856 0
M  V30 2031 H 185.621 -0.693571 -3.85104 0
M  V30 2032 H 185.244 1.02142 -3.84256 0
M  V30 2033 N 186.241 1.57166 -0.116904 0
M  V30 2034 C 187.189 2.16457 0.851418 0
M  V30 2035 C 188.183 1.11323 1.27686 0
M  V30 2036 O 189.389 1.2963 1.24884 0
M  V30 2037 H 185.764 0.69271 0.292672 0
M  V30 2038 H 187.735 2.96605 0.32685 0
M  V30 2039 C 186.484 2.77689 2.09246 0
M  V30 2040 H 185.807 3.58285 1.77402 0
M  V30 2041 H 187.247 3.22716 2.7501 0
M  V30 2042 C 185.706 1.74667 2.88085 0
M  V30 2043 O 186.236 1.19877 3.83396 0
M  V30 2044 N 184.442 1.44656 2.52038 0
M  V30 2045 H 183.989 1.89402 1.74599 0
M  V30 2046 H 183.947 0.759675 3.05084 0
M  V30 2047 N 187.719 -0.156864 1.56817 0
M  V30 2048 C 188.965 -0.872416 1.83076 0
M  V30 2049 C 189.298 -1.81261 0.697001 0
M  V30 2050 O 188.573 -1.92171 -0.30008 0
M  V30 2051 C 188.856 -1.65551 3.19789 0
M  V30 2052 C 188.709 -0.737467 4.43713 0
M  V30 2053 C 190.028 -2.62012 3.53606 0
M  V30 2054 H 187.147 -0.315715 0.665953 0
M  V30 2055 H 189.789 -0.138004 1.89498 0
M  V30 2056 H 187.939 -2.28159 3.14445 0
M  V30 2057 H 189.611 -0.123143 4.61136 0
M  V30 2058 H 187.854 -0.0464067 4.33775 0
M  V30 2059 H 188.525 -1.32122 5.35955 0
M  V30 2060 H 191.001 -2.09525 3.59497 0
M  V30 2061 H 189.877 -3.13861 4.50314 0
M  V30 2062 H 190.138 -3.42902 2.79053 0
M  V30 2063 N 189.197 -1.51736 -0.425897 0
M  V30 2064 C 190.13 -1.68574 -1.53812 0
M  V30 2065 C 191.108 -0.53328 -1.53606 0
M  V30 2066 O 192.292 -0.758555 -1.72564 0
M  V30 2067 C 189.419 -1.70977 -2.92377 0
M  V30 2068 C 188.465 -2.92324 -3.10563 0
M  V30 2069 S 189.298 -4.52952 -2.85648 0
M  V30 2070 C 190.454 -4.58117 -4.26474 0
M  V30 2071 H 190.687 -2.62647 -1.39298 0
M  V30 2072 H 188.22 -1.41564 -0.616361 0
M  V30 2073 H 190.178 -1.73047 -3.72243 0
M  V30 2074 H 188.839 -0.78061 -3.04245 0
M  V30 2075 H 188.032 -2.90439 -4.11899 0
M  V30 2076 H 187.634 -2.88055 -2.38538 0
M  V30 2077 H 189.926 -4.34462 -5.19855 0
M  V30 2078 H 190.869 -5.59983 -4.33388 0
M  V30 2079 H 191.277 -3.8732 -4.10662 0
M  V30 2080 N 190.675 0.682077 -1.42076 0
M  V30 2081 C 191.585 1.82535 -1.47371 0
M  V30 2082 C 192.601 1.7017 -0.363079 0
M  V30 2083 O 193.777 1.91848 -0.612875 0
M  V30 2084 C 190.842 3.18624 -1.36674 0
M  V30 2085 C 189.903 3.42999 -2.58167 0
M  V30 2086 C 189.136 4.72595 -2.4797 0
M  V30 2087 O 189.359 5.50006 -1.5116 0
M  V30 2088 O 188.293 4.98054 -3.37974 0
M  V30 2089 H 192.119 1.81023 -2.43853 0
M  V30 2090 H 189.704 0.836887 -1.2376 0
M  V30 2091 H 191.586 3.99847 -1.33043 0
M  V30 2092 H 190.261 3.20789 -0.433138 0
M  V30 2093 H 189.168 2.61653 -2.67373 0
M  V30 2094 H 190.501 3.45659 -3.50401 0
M  V30 2095 N 192.153 1.28127 0.917671 0
M  V30 2096 C 193.383 1.17722 1.6978 0
M  V30 2097 C 193.791 -0.267261 1.87303 0
M  V30 2098 O 193.134 -1.19286 1.39702 0
M  V30 2099 C 193.196 1.79958 3.11216 0
M  V30 2100 C 192.86 3.29187 3.16993 0
M  V30 2101 C 193.857 4.25679 2.98485 0
M  V30 2102 C 191.542 3.70075 3.39632 0
M  V30 2103 C 193.536 5.61035 3.02521 0
M  V30 2104 C 191.223 5.05557 3.433 0
M  V30 2105 C 192.221 6.00847 3.24764 0
M  V30 2106 O 191.909 7.33859 3.28187 0
M  V30 2107 H 191.641 0.409788 0.537634 0
M  V30 2108 H 194.195 1.69694 1.15728 0
M  V30 2109 H 192.425 1.22475 3.66793 0
M  V30 2110 H 194.114 1.64125 3.71238 0
M  V30 2111 H 194.88 3.95426 2.80826 0
M  V30 2112 H 190.759 2.96373 3.53106 0
M  V30 2113 H 194.303 6.35388 2.87971 0
M  V30 2114 H 190.2 5.35462 3.60486 0
M  V30 2115 H 190.968 7.42436 3.44575 0
M  V30 2116 N 193.631 -1.12557 1.10312 0
M  V30 2117 C 194.877 -1.84311 0.846011 0
M  V30 2118 C 195.21 -1.83805 -0.626859 0
M  V30 2119 O 194.485 -1.28268 -1.46211 0
M  V30 2120 C 194.768 -3.32048 1.39341 0
M  V30 2121 C 194.621 -3.41016 2.93305 0
M  V30 2122 C 195.94 -4.27764 1.03468 0
M  V30 2123 H 193.059 -0.669192 0.30879 0
M  V30 2124 H 195.701 -1.32057 1.36605 0
M  V30 2125 H 193.851 -3.76678 0.951087 0
M  V30 2126 H 195.523 -3.05031 3.46055 0
M  V30 2127 H 193.766 -2.81603 3.29973 0
M  V30 2128 H 194.437 -4.44948 3.26689 0
M  V30 2129 H 196.913 -3.91253 1.41633 0
M  V30 2130 H 195.789 -5.29549 1.44463 0
M  V30 2131 H 196.05 -4.42064 -0.0560404 0
M  V30 2132 N 195.109 -0.891671 -1.2995 0
M  V30 2133 C 196.355 -0.514261 -1.96171 0
M  V30 2134 C 196.688 0.935506 -1.70182 0
M  V30 2135 O 195.963 1.66204 -1.01028 0
M  V30 2136 C 196.246 -0.797719 -3.51153 0
M  V30 2137 C 196.099 -2.2986 -3.86632 0
M  V30 2138 C 197.418 -0.278749 -4.39216 0
M  V30 2139 H 194.537 -0.188314 -0.712535 0
M  V30 2140 H 197.179 -1.11689 -1.53706 0
M  V30 2141 H 195.329 -0.284826 -3.87455 0
M  V30 2142 H 197.001 -2.88042 -3.60319 0
M  V30 2143 H 195.244 -2.76257 -3.34462 0
M  V30 2144 H 195.915 -2.44753 -4.94773 0
M  V30 2145 H 198.391 -0.717825 -4.09862 0
M  V30 2146 H 197.267 -0.506353 -5.46559 0
M  V30 2147 H 197.528 0.820266 -4.34424 0
M  V30 2148 N 196.587 1.43421 -0.653314 0
M  V30 2149 C 197.833 2.02641 -0.175593 0
M  V30 2150 C 198.188 1.5062 1.19713 0
M  V30 2151 O 197.481 0.689697 1.78756 0
M  V30 2152 C 197.675 3.57176 -0.126623 0
M  V30 2153 C 197.504 4.24191 -1.49306 0
M  V30 2154 C 196.274 4.60257 -2.08547 0
M  V30 2155 C 198.472 4.53193 -2.43148 0
M  V30 2156 N 196.454 5.12345 -3.38194 0
M  V30 2157 C 197.825 5.06601 -3.57429 0
M  V30 2158 C 199.88 4.35161 -2.41949 0
M  V30 2159 C 198.583 5.43875 -4.70736 0
M  V30 2160 C 200.609 4.73498 -3.54336 0
M  V30 2161 C 199.971 5.27039 -4.67343 0
M  V30 2162 H 196.07 0.77441 -0.108686 0
M  V30 2163 H 198.654 1.74596 -0.861638 0
M  V30 2164 H 196.825 3.84784 0.528766 0
M  V30 2165 H 198.557 4.03078 0.36198 0
M  V30 2166 H 195.312 4.45302 -1.61255 0
M  V30 2167 H 195.736 5.42842 -4.04538 0
M  V30 2168 H 200.378 3.9304 -1.55818 0
M  V30 2169 H 198.096 5.8494 -5.57558 0
M  V30 2170 H 201.682 4.61241 -3.5461 0
M  V30 2171 H 200.562 5.56153 -5.52868 0
M  V30 2172 N 198.065 0.39524 1.52563 0
M  V30 2173 C 199.293 -0.184943 2.06072 0
M  V30 2174 C 199.708 -1.40021 1.26647 0
M  V30 2175 O 199.065 -1.79767 0.314672 0
M  V30 2176 C 199.116 -0.549179 3.57304 0
M  V30 2177 O 198.837 0.617813 4.33722 0
M  V30 2178 C 200.338 -1.18459 4.2718 0
M  V30 2179 H 197.558 -0.0265025 0.670476 0
M  V30 2180 H 200.102 0.562184 1.96621 0
M  V30 2181 H 198.257 -1.2462 3.66809 0
M  V30 2182 H 198.671 0.317091 5.23541 0
M  V30 2183 H 200.145 -1.38976 5.34219 0
M  V30 2184 H 200.622 -2.15368 3.82771 0
M  V30 2185 H 201.228 -0.528163 4.22008 0
M  V30 2186 N 199.544 -1.57102 0.125237 0
M  V30 2187 C 200.494 -2.12202 -0.833936 0
M  V30 2188 C 201.478 -1.04433 -1.22403 0
M  V30 2189 O 202.67 -1.30655 -1.19408 0
M  V30 2190 C 199.799 -2.72994 -2.08157 0
M  V30 2191 C 198.885 -3.87852 -1.71556 0
M  V30 2192 N 199.276 -4.9464 -1.05662 0
M  V30 2193 C 197.574 -3.98153 -2.00973 0
M  V30 2194 C 198.275 -5.74953 -0.883376 0
M  V30 2195 N 197.251 -5.24985 -1.41036 0
M  V30 2196 H 201.053 -2.92141 -0.321035 0
M  V30 2197 H 198.567 -1.62217 -0.0770315 0
M  V30 2198 H 200.564 -3.10816 -2.77847 0
M  V30 2199 H 199.224 -1.9452 -2.59985 0
M  V30 2200 H 200.235 -5.12872 -0.719878 0
M  V30 2201 H 196.912 -3.30728 -2.54804 0
M  V30 2202 H 198.302 -6.70904 -0.365675 0
M  V30 2203 N 201.022 0.148545 -1.56898 0
M  V30 2204 C 202.271 0.85984 -1.82454 0
M  V30 2205 C 202.584 1.82406 -0.706229 0
M  V30 2206 O 203.79 2.57938 -0.847349 0
M  V30 2207 C 202.246 1.57967 -3.2338 0
M  V30 2208 C 201.854 0.65794 -4.43142 0
M  V30 2209 C 203.598 2.27784 -3.58211 0
M  V30 2210 C 201.505 1.3793 -5.75091 0
M  V30 2211 H 200.435 0.324834 -0.68044 0
M  V30 2212 H 203.086 0.112588 -1.83154 0
M  V30 2213 H 201.468 2.37249 -3.17063 0
M  V30 2214 H 202.642 -0.0995497 -4.60692 0
M  V30 2215 H 200.957 0.0682643 -4.16344 0
M  V30 2216 H 203.554 2.8239 -4.54048 0
M  V30 2217 H 203.897 3.04204 -2.84193 0
M  V30 2218 H 204.43 1.55421 -3.66182 0
M  V30 2219 H 201.169 0.656982 -6.52199 0
M  V30 2220 H 200.689 2.10954 -5.61479 0
M  V30 2221 H 202.368 1.92063 -6.17835 0
M  V30 2222 N 202.5 1.5196 0.417844 0
M  V30 2223 C 203.73 1.69181 1.18581 0
M  V30 2224 C 204.138 0.397104 1.84986 0
M  V30 2225 O 203.481 -0.636011 1.72339 0
M  V30 2226 C 203.543 2.76497 2.29759 0
M  V30 2227 C 203.207 4.18514 1.83563 0
M  V30 2228 C 204.204 5.02648 1.32821 0
M  V30 2229 C 201.889 4.64708 1.90661 0
M  V30 2230 C 203.883 6.31044 0.897894 0
M  V30 2231 C 201.57 5.93096 1.47241 0
M  V30 2232 C 202.568 6.76093 0.968891 0
M  V30 2233 O 202.256 8.02078 0.540924 0
M  V30 2234 H 201.988 0.570457 0.362705 0
M  V30 2235 H 204.542 1.99249 0.498885 0
M  V30 2236 H 202.772 2.41786 3.01789 0
M  V30 2237 H 204.461 2.82403 2.91553 0
M  V30 2238 H 205.227 4.68154 1.26716 0
M  V30 2239 H 201.106 4.00216 2.28797 0
M  V30 2240 H 204.65 6.95776 0.504192 0
M  V30 2241 H 200.547 6.271 1.53022 0
M  V30 2242 H 201.315 8.15794 0.66502 0
M  V30 2243 N 203.978 -0.674533 1.42435 0
M  V30 2244 C 204.908 -1.80009 1.48724 0
M  V30 2245 C 205.889 -1.6659 0.343793 0
M  V30 2246 O 207.074 -1.86007 0.558137 0
M  V30 2247 C 204.204 -3.18306 1.38919 0
M  V30 2248 C 203.158 -3.46461 2.51294 0
M  V30 2249 C 202.484 -4.84335 2.26547 0
M  V30 2250 C 203.784 -3.43328 3.93603 0
M  V30 2251 H 205.478 -1.75004 2.42928 0
M  V30 2252 H 203.024 -0.840533 1.16923 0
M  V30 2253 H 204.977 -3.9678 1.41927 0
M  V30 2254 H 203.701 -3.2399 0.412094 0
M  V30 2255 H 202.36 -2.70348 2.47604 0
M  V30 2256 H 202.008 -4.86669 1.2713 0
M  V30 2257 H 201.708 -5.04136 3.01861 0
M  V30 2258 H 203.232 -5.65094 2.31304 0
M  V30 2259 H 204.646 -4.11772 3.98894 0
M  V30 2260 H 203.043 -3.74664 4.68771 0
M  V30 2261 H 204.113 -2.41897 4.20255 0
M  V30 2262 N 205.456 -1.28612 -0.910864 0
M  V30 2263 C 206.388 -1.08589 -2.01844 0
M  V30 2264 C 207.401 -0.0367419 -1.62759 0
M  V30 2265 O 208.59 -0.280101 -1.76289 0
M  V30 2266 C 205.69 -0.628626 -3.33019 0
M  V30 2267 C 204.863 -1.75382 -4.00699 0
M  V30 2268 C 203.922 -1.28945 -5.10156 0
M  V30 2269 O 202.948 -1.9922 -5.33198 0
M  V30 2270 N 204.15 -0.154224 -5.80295 0
M  V30 2271 H 206.915 -2.03973 -2.19579 0
M  V30 2272 H 204.476 -1.20403 -1.08234 0
M  V30 2273 H 206.468 -0.301508 -4.03575 0
M  V30 2274 H 205.038 0.232451 -3.11735 0
M  V30 2275 H 204.258 -2.25039 -3.23653 0
M  V30 2276 H 205.546 -2.50854 -4.42662 0
M  V30 2277 H 204.944 0.43194 -5.64049 0
M  V30 2278 H 203.501 0.113599 -6.51701 0
M  V30 2279 N 206.934 1.1197 -1.10907 0
M  V30 2280 C 208.211 1.79959 -0.766432 0
M  V30 2281 C 208.591 1.97466 0.746363 0
M  V30 2282 O 207.939 1.55491 1.67436 0
M  V30 2283 C 208.149 3.14009 -1.52314 0
M  V30 2284 C 209.497 3.89134 -1.69883 0
M  V30 2285 O 210.521 3.2368 -1.48692 0
M  V30 2286 O 209.38 5.06572 -2.05054 0
M  V30 2287 H 206.474 0.779208 -0.277062 0
M  V30 2288 H 209.02 1.18762 -1.21217 0
M  V30 2289 H 207.792 2.96587 -2.55249 0
M  V30 2290 H 207.415 3.82915 -1.07059 0
M  V30 2291 N 208.412 0.89855 1.29475 0
M  V30 2292 C 209.36 0.365253 2.29714 0
M  V30 2293 C 210.354 -0.534993 1.6073 0
M  V30 2294 O 211.56 -0.417921 1.75081 0
M  V30 2295 H 207.935 0.0994853 0.74539 0
M  V30 2296 H 209.906 1.22406 2.72138 0
M  V30 2297 C 208.655 -0.393159 3.4547 0
M  V30 2298 H 207.978 0.290332 3.98744 0
M  V30 2299 H 209.418 -0.731189 4.17648 0
M  V30 2300 C 207.877 -1.59539 2.9673 0
M  V30 2301 O 208.407 -2.69469 2.97908 0
M  V30 2302 N 206.613 -1.43716 2.52575 0
M  V30 2303 H 206.16 -0.542828 2.51816 0
M  V30 2304 H 206.118 -2.24288 2.20323 0
M  V30 2305 N 209.89 -1.43072 0.660911 0
M  V30 2306 C 211.167 -1.95307 0.107017 0
M  V30 2307 C 211.547 -1.60192 -1.37484 0
M  V30 2308 O 210.895 -0.890949 -2.10415 0
M  V30 2309 C 211.105 -3.47124 0.361402 0
M  V30 2310 C 212.453 -4.23738 0.270455 0
M  V30 2311 O 213.477 -3.54981 0.294382 0
M  V30 2312 O 212.336 -5.46131 0.200737 0
M  V30 2313 H 209.43 -0.826984 -0.00517729 0
M  V30 2314 H 211.976 -1.52972 0.734681 0
M  V30 2315 H 210.748 -3.65837 1.38848 0
M  V30 2316 H 210.371 -3.96475 -0.298953 0
M  V30 2317 N 211.368 -0.403325 -1.52352 0
M  V30 2318 C 212.593 0.176499 -2.06648 0
M  V30 2319 C 213.018 1.38577 -1.27193 0
M  V30 2320 O 212.376 1.7879 -0.300637 0
M  V30 2321 C 212.424 0.511061 -3.5696 0
M  V30 2322 O 211.528 1.60294 -3.79973 0
M  V30 2323 H 210.869 0.0167337 -0.663789 0
M  V30 2324 H 213.399 -0.574848 -1.96359 0
M  V30 2325 H 213.409 0.771362 -4.00642 0
M  V30 2326 H 212.084 -0.37296 -4.14224 0
M  V30 2327 H 210.661 1.33526 -3.48174 0
M  V30 2328 N 212.846 1.57033 -0.133567 0
M  V30 2329 C 214.092 1.96764 0.515326 0
M  V30 2330 C 214.447 1.01653 1.63353 0
M  V30 2331 O 213.74 0.0491374 1.91537 0
M  V30 2332 C 213.934 3.40674 1.08057 0
M  V30 2333 C 213.763 4.49696 0.0186522 0
M  V30 2334 C 212.533 5.03567 -0.418174 0
M  V30 2335 C 214.731 5.08536 -0.767809 0
M  V30 2336 N 212.713 5.9618 -1.46434 0
M  V30 2337 C 214.084 5.97231 -1.6648 0
M  V30 2338 C 216.139 4.9115 -0.817087 0
M  V30 2339 C 214.842 6.70401 -2.60681 0
M  V30 2340 C 216.868 5.65012 -1.74687 0
M  V30 2341 C 216.23 6.53403 -2.63141 0
M  V30 2342 H 212.329 0.765919 0.157771 0
M  V30 2343 H 214.913 1.93395 -0.22506 0
M  V30 2344 H 213.084 3.44662 1.79061 0
M  V30 2345 H 214.816 3.67495 1.69497 0
M  V30 2346 H 211.571 4.73594 -0.0229803 0
M  V30 2347 H 211.995 6.47191 -1.98678 0
M  V30 2348 H 216.637 4.22543 -0.147326 0
M  V30 2349 H 214.355 7.38245 -3.28664 0
M  V30 2350 H 217.941 5.53559 -1.79063 0
M  V30 2351 H 216.821 7.09556 -3.33917 0
M  V30 2352 N 214.325 -0.140222 1.56975 0
M  V30 2353 C 215.571 -0.852949 1.83991 0
M  V30 2354 C 215.904 -1.80512 0.716187 0
M  V30 2355 O 215.179 -1.92479 -0.279681 0
M  V30 2356 C 215.462 -1.6215 3.21527 0
M  V30 2357 C 215.315 -0.690363 4.4447 0
M  V30 2358 C 216.634 -2.58247 3.56366 0
M  V30 2359 H 213.753 -0.308634 0.669264 0
M  V30 2360 H 216.395 -0.117898 1.89634 0
M  V30 2361 H 214.545 -2.24812 3.16847 0
M  V30 2362 H 216.217 -0.0742264 4.6124 0
M  V30 2363 H 214.46 -0.000396433 4.338 0
M  V30 2364 H 215.131 -1.2643 5.37326 0
M  V30 2365 H 217.607 -2.05701 3.61699 0
M  V30 2366 H 216.483 -3.09067 4.53617 0
M  V30 2367 H 216.744 -3.39923 2.82674 0
M  V30 2368 N 215.803 -1.52179 -0.40978 0
M  V30 2369 C 216.75 -1.75475 -1.49924 0
M  V30 2370 C 217.72 -0.597175 -1.54994 0
M  V30 2371 O 218.905 -0.834655 -1.71575 0
M  V30 2372 C 216.045 -1.9107 -2.87378 0
M  V30 2373 C 215.158 -3.18717 -2.91622 0
M  V30 2374 C 214.293 -3.24747 -4.20372 0
M  V30 2375 C 213.332 -4.46598 -4.18588 0
M  V30 2376 N 212.469 -4.50025 -5.38908 0
M  V30 2377 H 217.309 -2.68458 -1.29361 0
M  V30 2378 H 214.846 -1.33024 -0.627934 0
M  V30 2379 H 216.804 -1.98096 -3.6717 0
M  V30 2380 H 215.434 -1.01469 -3.06437 0
M  V30 2381 H 214.486 -3.20866 -2.04326 0
M  V30 2382 H 215.798 -4.08544 -2.86169 0
M  V30 2383 H 214.952 -3.30841 -5.08556 0
M  V30 2384 H 213.691 -2.32857 -4.28519 0
M  V30 2385 H 212.696 -4.40652 -3.28794 0
M  V30 2386 H 213.921 -5.39783 -4.12081 0
M  V30 2387 H 211.867 -3.61017 -5.47725 0
M  V30 2388 H 211.784 -5.33697 -5.35447 0
M  V30 2389 H 213.052 -4.60347 -6.29048 0
M  V30 2390 N 217.281 0.66697 -1.42791 0
M  V30 2391 C 218.527 1.4291 -1.43891 0
M  V30 2392 C 218.86 1.94114 -0.0578972 0
M  V30 2393 O 218.135 1.71414 0.91911 0
M  V30 2394 C 218.418 2.62049 -2.46987 0
M  V30 2395 C 218.271 2.16426 -3.94309 0
M  V30 2396 C 219.59 3.64266 -2.46978 0
M  V30 2397 H 216.709 0.518306 -0.523954 0
M  V30 2398 H 219.351 0.757321 -1.74255 0
M  V30 2399 H 217.501 3.19361 -2.21225 0
M  V30 2400 H 219.173 1.64221 -4.31079 0
M  V30 2401 H 217.416 1.47925 -4.078 0
M  V30 2402 H 218.087 3.02038 -4.62036 0
M  V30 2403 H 220.563 3.16686 -2.69906 0
M  V30 2404 H 219.439 4.45196 -3.21079 0
M  V30 2405 H 219.7 4.15927 -1.49857 0
M  V30 2406 N 218.759 1.29093 0.90403 0
M  V30 2407 C 219.987 1.19689 1.68766 0
M  V30 2408 C 220.402 -0.243113 1.87228 0
M  V30 2409 O 219.759 -1.16326 1.40621 0
M  V30 2410 C 219.81 1.90144 3.07453 0
M  V30 2411 O 219.531 3.2852 2.89838 0
M  V30 2412 C 221.032 1.87162 4.01852 0
M  V30 2413 H 218.252 0.415035 0.527244 0
M  V30 2414 H 220.796 1.7039 1.13082 0
M  V30 2415 H 218.951 1.43289 3.59926 0
M  V30 2416 H 219.365 3.63944 3.77684 0
M  V30 2417 H 220.839 2.41032 4.96596 0
M  V30 2418 H 221.316 0.84617 4.30972 0
M  V30 2419 H 221.922 2.33741 3.5531 0
M  V30 2420 N 220.237 -1.11381 1.11499 0
M  V30 2421 C 221.462 -1.87475 0.887019 0
M  V30 2422 C 221.887 -1.79639 -0.557796 0
M  V30 2423 O 221.245 -1.15924 -1.39396 0
M  V30 2424 C 221.293 -3.34213 1.35403 0
M  V30 2425 O 220.397 -4.0903 0.526146 0
M  V30 2426 H 219.738 -0.582099 0.319463 0
M  V30 2427 H 222.268 -1.40785 1.48461 0
M  V30 2428 H 222.278 -3.8506 1.34881 0
M  V30 2429 H 220.953 -3.39232 2.40612 0
M  V30 2430 H 219.53 -3.68082 0.597522 0
M  V30 2431 N 221.715 -0.905404 -1.28997 0
M  V30 2432 C 222.94 -0.549175 -1.99997 0
M  V30 2433 C 223.365 0.860276 -1.67275 0
M  V30 2434 O 222.723 1.57355 -0.900502 0
M  V30 2435 C 222.771 -0.755185 -3.52604 0
M  V30 2436 O 221.875 0.189692 -4.11964 0
M  V30 2437 H 221.216 -0.213899 -0.628604 0
M  V30 2438 H 223.746 -1.21856 -1.64354 0
M  V30 2439 H 223.756 -0.662045 -4.02593 0
M  V30 2440 H 222.431 -1.78271 -3.75755 0
M  V30 2441 H 221.008 0.0485257 -3.72868 0
M  V30 2442 N 223.193 1.4272 -0.668489 0
M  V30 2443 C 224.439 2.01923 -0.188419 0
M  V30 2444 C 224.772 1.52704 1.19979 0
M  V30 2445 O 224.047 0.726566 1.8042 0
M  V30 2446 C 224.33 3.59451 -0.216085 0
M  V30 2447 C 224.183 4.18864 -1.6393 0
M  V30 2448 C 225.502 4.37903 0.439179 0
M  V30 2449 H 222.621 0.733674 -0.0699412 0
M  V30 2450 H 225.263 1.69822 -0.852076 0
M  V30 2451 H 223.413 3.86929 0.349012 0
M  V30 2452 H 225.085 4.02362 -2.25616 0
M  V30 2453 H 223.328 3.74933 -2.18193 0
M  V30 2454 H 223.999 5.27987 -1.61039 0
M  V30 2455 H 226.475 4.16079 -0.0417878 0
M  V30 2456 H 225.351 5.47519 0.389157 0
M  V30 2457 H 225.612 4.15303 1.51577 0
M  V30 2458 N 224.671 0.411399 1.52136 0
M  V30 2459 C 225.948 -0.222308 1.94333 0
M  V30 2460 C 226.328 -1.6242 1.34844 0
M  V30 2461 O 225.676 -2.22384 0.525145 0
M  V30 2462 C 225.886 -0.226345 3.48265 0
M  V30 2463 C 227.234 -0.444592 4.22266 0
M  V30 2464 O 228.258 -0.305602 3.54887 0
M  V30 2465 O 227.117 -0.718749 5.41753 0
M  V30 2466 H 224.211 -0.143907 0.814383 0
M  V30 2467 H 226.757 0.467506 1.63133 0
M  V30 2468 H 225.529 0.75475 3.83952 0
M  V30 2469 H 225.152 -0.960163 3.85832 0
M  V30 2470 N 226.149 -1.5696 0.141893 0
M  V30 2471 C 227.112 -2.15316 -0.785587 0
M  V30 2472 C 228.112 -1.09366 -1.1788 0
M  V30 2473 O 229.302 -1.35031 -1.10056 0
M  V30 2474 C 226.434 -2.71211 -2.06537 0
M  V30 2475 H 227.627 -2.98608 -0.278041 0
M  V30 2476 H 225.18 -1.5593 -0.107519 0
M  V30 2477 H 225.915 -1.91571 -2.6167 0
M  V30 2478 H 225.7 -3.4872 -1.79268 0
M  V30 2479 H 227.19 -3.16189 -2.72789 0
M  V30 2480 N 227.627 0.131896 -1.57047 0
M  V30 2481 C 228.574 1.16236 -1.99393 0
M  V30 2482 C 229.544 1.41863 -0.863943 0
M  V30 2483 O 230.729 1.53946 -1.12718 0
M  V30 2484 C 227.869 2.48708 -2.39245 0
M  V30 2485 C 226.982 2.30127 -3.65603 0
M  V30 2486 C 226.117 3.55738 -3.94492 0
M  V30 2487 C 225.156 3.32259 -5.14073 0
M  V30 2488 N 224.293 4.50039 -5.38896 0
M  V30 2489 H 229.133 0.794251 -2.87221 0
M  V30 2490 H 226.67 0.380707 -1.42088 0
M  V30 2491 H 228.628 3.25969 -2.60384 0
M  V30 2492 H 227.258 2.83437 -1.54478 0
M  V30 2493 H 226.31 1.43845 -3.52154 0
M  V30 2494 H 227.622 2.08746 -4.5302 0
M  V30 2495 H 226.776 4.41423 -4.1621 0
M  V30 2496 H 225.515 3.80138 -3.05526 0
M  V30 2497 H 224.52 2.44963 -4.92212 0
M  V30 2498 H 225.745 3.09242 -6.04604 0
M  V30 2499 H 223.691 4.74584 -4.52886 0
M  V30 2500 H 223.608 4.31716 -6.2061 0
M  V30 2501 H 224.876 5.36895 -5.65123 0
M  V30 2502 N 229.106 1.52395 0.401703 0
M  V30 2503 C 230.354 1.66488 1.14569 0
M  V30 2504 C 230.675 0.400897 1.90835 0
M  V30 2505 O 229.945 -0.584415 1.8698 0
M  V30 2506 H 228.525 0.613672 0.425929 0
M  V30 2507 H 231.187 1.89464 0.457093 0
M  V30 2508 H 230.283 2.50942 1.85566 0
M  V30 2509 N 230.584 -0.659388 1.43143 0
M  V30 2510 C 231.833 -1.41518 1.43721 0
M  V30 2511 C 232.146 -1.95499 0.0628176 0
M  V30 2512 O 233.352 -2.71446 -0.0539683 0
M  V30 2513 C 231.808 -2.5608 2.52885 0
M  V30 2514 C 231.416 -2.08733 3.96402 0
M  V30 2515 C 233.16 -3.3349 2.62649 0
M  V30 2516 C 231.067 -3.20469 4.97045 0
M  V30 2517 H 229.997 -0.531705 0.534608 0
M  V30 2518 H 232.648 -0.712343 1.69109 0
M  V30 2519 H 231.03 -3.28805 2.20688 0
M  V30 2520 H 232.204 -1.43059 4.3803 0
M  V30 2521 H 230.519 -1.44219 3.90627 0
M  V30 2522 H 233.116 -4.16734 3.35017 0
M  V30 2523 H 233.459 -3.8111 1.67513 0
M  V30 2524 H 233.992 -2.67842 2.94118 0
M  V30 2525 H 230.731 -2.77824 5.93712 0
M  V30 2526 H 230.251 -3.84874 4.60034 0
M  V30 2527 H 231.93 -3.85698 5.19467 0
M  V30 2528 N 232.062 -1.29571 -0.897171 0
M  V30 2529 C 233.292 -1.20408 -1.67886 0
M  V30 2530 C 233.7 0.237429 -1.87704 0
M  V30 2531 O 233.043 1.17048 -1.41582 0
M  V30 2532 C 233.105 -1.84887 -3.08314 0
M  V30 2533 C 232.769 -3.34189 -3.11716 0
M  V30 2534 C 233.766 -4.30374 -2.91675 0
M  V30 2535 C 231.451 -3.75431 -3.33701 0
M  V30 2536 C 233.445 -5.65776 -2.93557 0
M  V30 2537 C 231.132 -5.10955 -3.35214 0
M  V30 2538 C 232.13 -6.05938 -3.15164 0
M  V30 2539 O 231.818 -7.38987 -3.1647 0
M  V30 2540 H 231.55 -0.418289 -0.531046 0
M  V30 2541 H 234.104 -1.71514 -1.13014 0
M  V30 2542 H 232.334 -1.28295 -3.64798 0
M  V30 2543 H 234.023 -1.70011 -3.6858 0
M  V30 2544 H 234.789 -3.99844 -2.74499 0
M  V30 2545 H 230.668 -3.01953 -3.48347 0
M  V30 2546 H 234.212 -6.39889 -2.77826 0
M  V30 2547 H 230.109 -5.4113 -3.51922 0
M  V30 2548 H 230.877 -7.47823 -3.3272 0
M  V30 2549 N 233.54 1.10788 -1.12088 0
M  V30 2550 C 234.77 1.86191 -0.895351 0
M  V30 2551 C 235.178 1.80763 0.558702 0
M  V30 2552 O 234.521 1.19188 1.39785 0
M  V30 2553 C 234.583 3.35659 -1.28737 0
M  V30 2554 C 234.247 3.64849 -2.75198 0
M  V30 2555 C 235.244 3.61757 -3.734 0
M  V30 2556 C 232.929 3.93641 -3.12013 0
M  V30 2557 C 234.923 3.87045 -5.06434 0
M  V30 2558 C 232.61 4.18585 -4.4523 0
M  V30 2559 C 233.608 4.15277 -5.42249 0
M  V30 2560 O 233.296 4.3959 -6.73065 0
M  V30 2561 H 233.028 0.595425 -0.32007 0
M  V30 2562 H 235.582 1.40992 -1.49367 0
M  V30 2563 H 233.812 3.81497 -0.63224 0
M  V30 2564 H 235.501 3.92441 -1.03656 0
M  V30 2565 H 236.267 3.39557 -3.46303 0
M  V30 2566 H 232.146 3.95348 -2.37109 0
M  V30 2567 H 235.69 3.84378 -5.82151 0
M  V30 2568 H 231.587 4.40264 -4.72057 0
M  V30 2569 H 232.355 4.57123 -6.78956 0
M  V30 2570 N 235.018 0.912232 1.28515 0
M  V30 2571 C 236.246 0.560416 1.99166 0
M  V30 2572 C 236.661 -0.857927 1.68182 0
M  V30 2573 O 236.018 -1.56805 0.933733 0
M  V30 2574 C 236.069 0.758142 3.53461 0
M  V30 2575 O 235.79 2.12067 3.83352 0
M  V30 2576 C 237.291 0.412954 4.41372 0
M  V30 2577 H 234.511 0.213805 0.636026 0
M  V30 2578 H 237.055 1.22502 1.63749 0
M  V30 2579 H 235.21 0.140556 3.87145 0
M  V30 2580 H 235.624 2.15923 4.77993 0
M  V30 2581 H 237.098 0.60208 5.48707 0
M  V30 2582 H 237.575 -0.65073 4.34353 0
M  V30 2583 H 238.181 1.00802 4.13182 0
M  V30 2584 N 236.496 -1.42363 0.676048 0
M  V30 2585 C 237.736 -2.03392 0.20273 0
M  V30 2586 C 238.1 -1.52306 -1.16906 0
M  V30 2587 O 239.301 -2.05129 -1.73711 0
M  V30 2588 C 237.572 -3.56614 0.236947 0
M  V30 2589 S 239.131 -4.38489 -0.165186 0
M  V30 2590 H 235.949 -0.70611 0.0832418 0
M  V30 2591 H 238.551 -1.74093 0.88948 0
M  V30 2592 H 237.255 -3.91293 1.23767 0
M  V30 2593 H 236.786 -3.90587 -0.469596 0
M  V30 2594 H 238.801 -4.76093 -1.39822 0
M  V30 2595 N 237.974 -0.419461 -1.51915 0
M  V30 2596 C 239.222 0.152637 -2.01523 0
M  V30 2597 C 239.543 1.44762 -1.30649 0
M  V30 2598 O 238.813 1.90997 -0.435535 0
M  V30 2599 H 237.393 0.0593966 -0.744635 0
M  V30 2600 H 240.055 -0.558073 -1.86739 0
M  V30 2601 H 239.151 0.341369 -3.10227 0
M  V30 2602 N 239.452 1.56882 -0.150215 0
M  V30 2603 C 240.384 2.14057 0.819286 0
M  V30 2604 C 241.397 1.09082 1.20851 0
M  V30 2605 O 242.586 1.36347 1.15203 0
M  V30 2606 C 239.686 2.65102 2.11127 0
M  V30 2607 C 238.859 3.94511 1.88891 0
M  V30 2608 C 237.918 4.30834 3.02107 0
M  V30 2609 O 236.944 4.99099 2.73659 0
M  V30 2610 N 238.146 3.90676 4.29363 0
M  V30 2611 H 240.911 2.97871 0.330618 0
M  V30 2612 H 238.472 1.61866 0.0332538 0
M  V30 2613 H 240.464 2.86411 2.85921 0
M  V30 2614 H 239.034 1.85994 2.51247 0
M  V30 2615 H 238.254 3.81795 0.981152 0
M  V30 2616 H 239.542 4.7907 1.71376 0
M  V30 2617 H 238.94 3.35677 4.55343 0
M  V30 2618 H 237.497 4.1703 5.00928 0
M  V30 2619 N 240.93 -0.123565 1.57115 0
M  V30 2620 C 242.177 -0.832153 1.84612 0
M  V30 2621 C 242.505 -1.80093 0.734627 0
M  V30 2622 O 241.76 -1.93766 -0.27442 0
M  V30 2623 C 242.059 -1.62016 3.18568 0
M  V30 2624 C 241.725 -0.796084 4.43817 0
M  V30 2625 C 240.387 -0.568816 4.77826 0
M  V30 2626 C 242.739 -0.221364 5.2073 0
M  V30 2627 C 240.067 0.243499 5.86194 0
M  V30 2628 C 242.419 0.578117 6.29953 0
M  V30 2629 C 241.083 0.815744 6.62497 0
M  V30 2630 H 240.353 -0.304507 0.675542 0
M  V30 2631 H 243 -0.0947248 1.91266 0
M  V30 2632 H 241.305 -2.42837 3.0747 0
M  V30 2633 H 243.002 -2.17231 3.37064 0
M  V30 2634 H 239.592 -0.983307 4.17168 0
M  V30 2635 H 243.776 -0.384173 4.94811 0
M  V30 2636 H 239.032 0.436871 6.09837 0
M  V30 2637 H 243.206 1.03046 6.88734 0
M  V30 2638 H 240.833 1.44701 7.46301 0
M  V30 2639 N 242.408 -1.52605 -0.393616 0
M  V30 2640 C 243.355 -1.77055 -1.48054 0
M  V30 2641 C 244.325 -0.61358 -1.54352 0
M  V30 2642 O 245.51 -0.852806 -1.70681 0
M  V30 2643 C 242.65 -1.94108 -2.85335 0
M  V30 2644 C 241.763 -3.21792 -2.88226 0
M  V30 2645 C 240.898 -3.29188 -4.16904 0
M  V30 2646 C 239.937 -4.51013 -4.13828 0
M  V30 2647 N 239.074 -4.55716 -5.34105 0
M  V30 2648 H 243.914 -2.69815 -1.26506 0
M  V30 2649 H 241.451 -1.33683 -0.61379 0
M  V30 2650 H 243.409 -2.01979 -3.65049 0
M  V30 2651 H 242.039 -1.04713 -3.05344 0
M  V30 2652 H 241.091 -3.23015 -2.00911 0
M  V30 2653 H 242.403 -4.11557 -2.8182 0
M  V30 2654 H 241.557 -3.36216 -5.05018 0
M  V30 2655 H 240.296 -2.37389 -4.26026 0
M  V30 2656 H 239.301 -4.44115 -3.24102 0
M  V30 2657 H 240.526 -5.44123 -4.06333 0
M  V30 2658 H 238.472 -3.66807 -5.43865 0
M  V30 2659 H 238.389 -5.39346 -5.29756 0
M  V30 2660 H 239.657 -4.66993 -6.2413 0
M  V30 2661 N 243.887 0.651787 -1.4349 0
M  V30 2662 C 245.115 1.43937 -1.48626 0
M  V30 2663 C 245.53 1.8851 -0.104587 0
M  V30 2664 O 244.887 1.5958 0.885464 0
M  V30 2665 C 244.938 2.6734 -2.43334 0
M  V30 2666 O 244.659 2.24631 -3.76128 0
M  V30 2667 C 246.16 3.60683 -2.57726 0
M  V30 2668 H 243.38 0.44213 -0.504739 0
M  V30 2669 H 245.924 0.798944 -1.88248 0
M  V30 2670 H 244.079 3.2752 -2.06904 0
M  V30 2671 H 244.493 3.04485 -4.2707 0
M  V30 2672 H 245.967 4.43933 -3.28067 0
M  V30 2673 H 246.444 4.08126 -1.62265 0
M  V30 2674 H 247.05 3.06384 -2.94973 0
M  V30 2675 N 245.365 1.30045 0.890287 0
M  V30 2676 C 246.595 1.21296 1.67245 0
M  V30 2677 C 247.003 -0.227471 1.87828 0
M  V30 2678 O 246.346 -1.16296 1.422 0
M  V30 2679 C 246.408 1.86519 3.07329 0
M  V30 2680 C 246.072 3.35837 3.09939 0
M  V30 2681 C 247.069 4.31915 2.89389 0
M  V30 2682 C 244.754 3.77196 3.31706 0
M  V30 2683 C 246.748 5.67325 2.90552 0
M  V30 2684 C 244.435 5.12725 3.32499 0
M  V30 2685 C 245.433 6.076 3.11947 0
M  V30 2686 O 245.121 7.40655 3.12547 0
M  V30 2687 H 244.853 0.4211 0.528821 0
M  V30 2688 H 247.407 1.72111 1.12103 0
M  V30 2689 H 245.637 1.30228 3.64112 0
M  V30 2690 H 247.326 1.71963 3.67673 0
M  V30 2691 H 248.092 4.01294 2.72375 0
M  V30 2692 H 243.971 3.03796 3.4674 0
M  V30 2693 H 247.515 6.41354 2.74429 0
M  V30 2694 H 243.412 5.42988 3.49047 0
M  V30 2695 H 244.18 7.49577 3.28749 0
M  V30 2696 N 246.843 -1.10192 1.12674 0
M  V30 2697 C 248.073 -1.85713 0.905213 0
M  V30 2698 C 248.481 -1.81056 -0.549108 0
M  V30 2699 O 247.824 -1.19927 -1.39151 0
M  V30 2700 C 247.886 -3.34972 1.30516 0
M  V30 2701 C 247.55 -3.63385 2.77129 0
M  V30 2702 C 248.547 -3.59772 3.75313 0
M  V30 2703 C 246.232 -3.91981 3.14096 0
M  V30 2704 C 248.226 -3.84354 5.08479 0
M  V30 2705 C 245.913 -4.16218 4.47443 0
M  V30 2706 C 246.911 -4.12395 5.44444 0
M  V30 2707 O 246.599 -4.36014 6.75387 0
M  V30 2708 H 246.331 -0.593719 0.323223 0
M  V30 2709 H 248.885 -1.40198 1.50112 0
M  V30 2710 H 247.115 -3.81156 0.652463 0
M  V30 2711 H 248.804 -3.91886 1.05736 0
M  V30 2712 H 249.57 -3.37716 3.48099 0
M  V30 2713 H 245.449 -3.94085 2.39202 0
M  V30 2714 H 248.993 -3.81285 5.84181 0
M  V30 2715 H 244.89 -4.37754 4.74386 0
M  V30 2716 H 245.658 -4.53516 6.8137 0
M  V30 2717 N 248.321 -0.919034 -1.28029 0
M  V30 2718 C 249.567 -0.555757 -1.95036 0
M  V30 2719 C 249.9 0.899198 -1.72128 0
M  V30 2720 O 249.175 1.64023 -1.04531 0
M  V30 2721 C 249.458 -0.872024 -3.49382 0
M  V30 2722 C 249.311 -2.3801 -3.81669 0
M  V30 2723 C 250.63 -0.37185 -4.38526 0
M  V30 2724 H 247.749 -0.203386 -0.708381 0
M  V30 2725 H 250.391 -1.14924 -1.51303 0
M  V30 2726 H 248.541 -0.366946 -3.86763 0
M  V30 2727 H 250.213 -2.9562 -3.54128 0
M  V30 2728 H 248.456 -2.83289 -3.28526 0
M  V30 2729 H 249.127 -2.55192 -4.8947 0
M  V30 2730 H 251.603 -0.804602 -4.08247 0
M  V30 2731 H 250.479 -0.622173 -5.45362 0
M  V30 2732 H 250.74 0.727934 -4.36066 0
M  V30 2733 N 249.799 1.42003 -0.683588 0
M  V30 2734 C 250.747 2.326 0.000815408 0
M  V30 2735 C 251.741 1.50308 0.781278 0
M  V30 2736 O 252.947 1.66322 0.688251 0
M  V30 2737 H 249.322 0.751758 0.0190616 0
M  V30 2738 H 251.293 2.88011 -0.780528 0
M  V30 2739 C 250.042 3.34978 0.93195 0
M  V30 2740 H 249.365 3.98345 0.340817 0
M  V30 2741 H 250.805 4.00936 1.37936 0
M  V30 2742 C 249.264 2.67925 2.04249 0
M  V30 2743 O 249.794 2.51788 3.12995 0
M  V30 2744 N 248 2.2681 1.81675 0
M  V30 2745 H 247.547 2.40135 0.932363 0
M  V30 2746 H 247.505 1.8228 2.56167 0
M  V30 2747 N 251.277 0.427512 1.51691 0
M  V30 2748 C 252.524 -0.142229 2.02 0
M  V30 2749 C 252.852 -1.43566 1.31221 0
M  V30 2750 O 252.107 -1.91298 0.412744 0
M  V30 2751 C 252.406 -0.418249 3.54944 0
M  V30 2752 C 252.072 0.788187 4.43958 0
M  V30 2753 C 250.734 1.11906 4.68007 0
M  V30 2754 C 253.086 1.59347 4.96244 0
M  V30 2755 C 250.414 2.25608 5.41588 0
M  V30 2756 C 252.766 2.7214 5.71072 0
M  V30 2757 C 251.43 3.05692 5.93387 0
M  V30 2758 H 250.7 -0.0520451 0.73917 0
M  V30 2759 H 253.347 0.572697 1.82736 0
M  V30 2760 H 251.652 -1.21496 3.72486 0
M  V30 2761 H 253.349 -0.872339 3.91397 0
M  V30 2762 H 249.939 0.520344 4.2543 0
M  V30 2763 H 254.123 1.35106 4.77556 0
M  V30 2764 H 249.379 2.51929 5.57083 0
M  V30 2765 H 253.553 3.34914 6.10578 0
M  V30 2766 H 251.18 3.9391 6.50184 0
M  V30 2767 N 252.755 -1.56801 0.158532 0
M  V30 2768 C 253.703 -2.18638 -0.793729 0
M  V30 2769 C 254.697 -1.14669 -1.24689 0
M  V30 2770 O 255.903 -1.32895 -1.21403 0
M  V30 2771 H 252.278 -0.700226 -0.274204 0
M  V30 2772 H 254.249 -2.97367 -0.248095 0
M  V30 2773 C 252.998 -2.83139 -2.0181 0
M  V30 2774 H 252.321 -3.62863 -1.67841 0
M  V30 2775 H 253.761 -3.29894 -2.66357 0
M  V30 2776 C 252.22 -1.82244 -2.83353 0
M  V30 2777 O 252.75 -1.3 -3.80083 0
M  V30 2778 N 250.956 -1.51288 -2.48114 0
M  V30 2779 H 250.503 -1.93964 -1.69516 0
M  V30 2780 H 250.461 -0.840296 -3.02963 0
M  V30 2781 N 254.233 0.115231 -1.57178 0
M  V30 2782 C 255.18 1.14115 -2.00615 0
M  V30 2783 C 256.15 1.40939 -0.878941 0
M  V30 2784 O 257.335 1.52741 -1.14345 0
M  V30 2785 C 254.475 2.46156 -2.4187 0
M  V30 2786 C 253.588 2.26236 -3.68024 0
M  V30 2787 C 252.723 3.51534 -3.98243 0
M  V30 2788 C 251.762 3.26787 -5.17568 0
M  V30 2789 N 250.899 4.44298 -5.43639 0
M  V30 2790 H 255.739 0.763743 -2.88047 0
M  V30 2791 H 253.276 0.365615 -1.42484 0
M  V30 2792 H 255.234 3.23189 -2.63827 0
M  V30 2793 H 253.864 2.81783 -1.57475 0
M  V30 2794 H 252.916 1.40102 -3.5366 0
M  V30 2795 H 254.228 2.03929 -4.55208 0
M  V30 2796 H 253.382 4.36984 -4.20868 0
M  V30 2797 H 252.121 3.76876 -3.09541 0
M  V30 2798 H 251.126 2.39729 -4.94783 0
M  V30 2799 H 252.351 3.02812 -6.0785 0
M  V30 2800 H 250.297 4.69754 -4.57895 0
M  V30 2801 H 250.214 4.25109 -6.25154 0
M  V30 2802 H 251.482 5.3087 -5.70786 0
M  V30 2803 N 255.711 1.52812 0.385517 0
M  V30 2804 C 256.621 1.80766 1.49535 0
M  V30 2805 C 257.637 0.694651 1.59532 0
M  V30 2806 O 258.813 0.982611 1.75803 0
M  V30 2807 C 255.878 1.97381 2.85029 0
M  V30 2808 C 254.939 3.21295 2.84724 0
M  V30 2809 C 254.172 3.37108 4.13756 0
M  V30 2810 O 254.395 2.5765 5.08893 0
M  V30 2811 O 253.329 4.30378 4.20783 0
M  V30 2812 H 257.155 2.75015 1.28842 0
M  V30 2813 H 254.74 1.37946 0.573697 0
M  V30 2814 H 256.622 2.09996 3.65349 0
M  V30 2815 H 255.297 1.06322 3.05741 0
M  V30 2816 H 254.204 3.1412 2.03174 0
M  V30 2817 H 255.537 4.12212 2.68965 0
M  V30 2818 N 257.189 -0.644168 1.43834 0
M  V30 2819 C 258.152 -1.73857 1.49353 0
M  V30 2820 C 259.152 -1.56315 0.377112 0
M  V30 2821 O 260.342 -1.62048 0.639226 0
M  V30 2822 C 257.474 -3.12819 1.35488 0
M  V30 2823 H 258.667 -1.70342 2.46827 0
M  V30 2824 H 256.22 -0.856652 1.30733 0
M  V30 2825 H 256.955 -3.2194 0.390569 0
M  V30 2826 H 256.74 -3.26958 2.16428 0
M  V30 2827 H 258.23 -3.92606 1.42302 0
M  V30 2828 N 258.668 -1.30515 -0.883378 0
M  V30 2829 C 259.6 -1.12846 -1.99496 0
M  V30 2830 C 260.613 -0.0712571 -1.62644 0
M  V30 2831 O 261.802 -0.317432 -1.75655 0
M  V30 2832 C 258.902 -0.699123 -3.3161 0
M  V30 2833 C 258.075 -1.83842 -3.96889 0
M  V30 2834 C 257.134 -1.39737 -5.07307 0
M  V30 2835 O 256.16 -2.10485 -5.28852 0
M  V30 2836 N 257.362 -0.277279 -5.79837 0
M  V30 2837 H 260.127 -2.08585 -2.15203 0
M  V30 2838 H 257.688 -1.22672 -1.05656 0
M  V30 2839 H 259.68 -0.387044 -4.02845 0
M  V30 2840 H 258.25 0.166276 -3.12157 0
M  V30 2841 H 257.47 -2.31853 -3.18807 0
M  V30 2842 H 258.758 -2.60187 -4.37241 0
M  V30 2843 H 258.156 0.3122 -5.64838 0
M  V30 2844 H 256.713 -0.0246623 -6.51795 0
M  V30 2845 N 260.146 1.09593 -1.13257 0
M  V30 2846 C 261.093 2.1618 -0.808381 0
M  V30 2847 C 262.063 1.64517 0.228754 0
M  V30 2848 O 263.248 1.9053 0.101381 0
M  V30 2849 C 260.388 3.43973 -0.278675 0
M  V30 2850 C 259.501 4.09545 -1.37466 0
M  V30 2851 C 258.636 5.25088 -0.803479 0
M  V30 2852 C 257.675 5.82579 -1.87799 0
M  V30 2853 N 256.812 6.89486 -1.32488 0
M  V30 2854 H 261.652 2.43254 -1.72138 0
M  V30 2855 H 259.189 1.19392 -0.859294 0
M  V30 2856 H 261.147 4.17174 0.0465583 0
M  V30 2857 H 259.777 3.17223 0.597459 0
M  V30 2858 H 258.829 3.34226 -1.81652 0
M  V30 2859 H 260.141 4.48307 -2.18684 0
M  V30 2860 H 259.295 6.05178 -0.429427 0
M  V30 2861 H 258.034 4.87684 0.0397956 0
M  V30 2862 H 257.039 5.01152 -2.26113 0
M  V30 2863 H 258.264 6.22045 -2.72463 0
M  V30 2864 H 256.21 6.54064 -0.503575 0
M  V30 2865 H 256.127 7.27007 -2.07355 0
M  V30 2866 H 257.395 7.73336 -0.978336 0
M  V30 2867 N 261.624 0.925811 1.2754 0
M  V30 2868 C 262.854 0.580666 1.98272 0
M  V30 2869 C 263.262 -0.845207 1.69272 0
M  V30 2870 O 262.605 -1.57306 0.948707 0
M  V30 2871 C 262.667 0.724418 3.52126 0
M  V30 2872 C 262.331 2.12206 4.04744 0
M  V30 2873 C 263.328 3.09604 4.17662 0
M  V30 2874 C 261.013 2.4385 4.39138 0
M  V30 2875 C 263.007 4.36755 4.64246 0
M  V30 2876 C 260.694 3.71237 4.85414 0
M  V30 2877 C 261.692 4.67503 4.97926 0
M  V30 2878 O 261.38 5.92624 5.43187 0
M  V30 2879 H 261.112 0.218987 0.639547 0
M  V30 2880 H 263.666 1.24452 1.63404 0
M  V30 2881 H 261.896 0.0034663 3.867 0
M  V30 2882 H 263.585 0.384607 4.04074 0
M  V30 2883 H 264.351 2.86478 3.91351 0
M  V30 2884 H 260.23 1.69665 4.28643 0
M  V30 2885 H 263.774 5.11898 4.73927 0
M  V30 2886 H 259.671 3.94182 5.11166 0
M  V30 2887 H 260.439 5.95585 5.61445 0
M  V30 2888 N 263.102 -1.41638 0.69111 0
M  V30 2889 C 264.35 -2.00902 0.219758 0
M  V30 2890 C 264.671 -1.54994 -1.18329 0
M  V30 2891 O 263.941 -0.778628 -1.79762 0
M  V30 2892 H 262.521 -0.74289 0.0782558 0
M  V30 2893 H 265.183 -1.73327 0.891271 0
M  V30 2894 H 264.279 -3.11224 0.233708 0
M  V30 2895 N 264.58 -0.43555 -1.51462 0
M  V30 2896 C 265.805 0.132627 -2.06976 0
M  V30 2897 C 266.23 1.35848 -1.30104 0
M  V30 2898 O 265.588 1.78112 -0.338493 0
M  V30 2899 C 265.636 0.43523 -3.57964 0
M  V30 2900 O 264.74 1.52198 -3.83288 0
M  V30 2901 H 264.081 0.00265 -0.663995 0
M  V30 2902 H 266.611 -0.616369 -1.95095 0
M  V30 2903 H 266.621 0.686206 -4.02188 0
M  V30 2904 H 265.296 -0.460739 -4.1334 0
M  V30 2905 H 263.873 1.2611 -3.50928 0
M  V30 2906 N 266.058 1.56714 -0.166846 0
M  V30 2907 C 267.286 2.0112 0.485644 0
M  V30 2908 C 267.701 1.04705 1.57106 0
M  V30 2909 O 267.058 0.0471923 1.82439 0
M  V30 2910 C 267.109 3.45361 1.06808 0
M  V30 2911 O 266.83 4.38092 0.0259995 0
M  V30 2912 C 268.331 4.05145 1.79924 0
M  V30 2913 H 265.551 0.65931 0.124704 0
M  V30 2914 H 268.095 2.02746 -0.267262 0
M  V30 2915 H 266.25 3.44524 1.7715 0
M  V30 2916 H 266.664 5.22519 0.455398 0
M  V30 2917 H 268.138 5.08009 2.15942 0
M  V30 2918 H 268.615 3.46982 2.69258 0
M  V30 2919 H 269.221 4.09672 1.14234 0
M  V30 2920 N 267.536 -0.106894 1.57237 0
M  V30 2921 C 268.484 -1.14944 2.02215 0
M  V30 2922 C 269.478 -1.42167 0.92114 0
M  V30 2923 O 270.684 -1.41987 1.10634 0
M  V30 2924 H 267.059 -0.387841 0.64427 0
M  V30 2925 H 269.03 -0.743683 2.88984 0
M  V30 2926 C 267.779 -2.4647 2.4525 0
M  V30 2927 H 267.102 -2.26363 3.29545 0
M  V30 2928 H 268.542 -3.17948 2.80508 0
M  V30 2929 C 267.001 -3.09921 1.321 0
M  V30 2930 O 267.531 -3.9651 0.643622 0
M  V30 2931 N 265.737 -2.69986 1.07497 0
M  V30 2932 H 265.284 -1.99667 1.62761 0
M  V30 2933 H 265.242 -3.12769 0.319876 0
M  V30 2934 N 269.014 -1.53014 -0.377408 0
M  V30 2935 C 269.964 -1.74996 -1.46152 0
M  V30 2936 C 270.948 -0.604236 -1.49123 0
M  V30 2937 O 272.14 -0.862489 -1.54564 0
M  V30 2938 C 269.269 -1.93267 -2.8373 0
M  V30 2939 C 268.355 -3.13807 -2.85283 0
M  V30 2940 N 268.746 -4.35941 -2.56493 0
M  V30 2941 C 267.044 -3.14288 -3.16448 0
M  V30 2942 C 267.745 -5.17615 -2.65424 0
M  V30 2943 N 266.721 -4.53559 -2.99641 0
M  V30 2944 H 270.523 -2.67044 -1.22738 0
M  V30 2945 H 268.037 -1.51479 -0.585479 0
M  V30 2946 H 270.034 -2.0714 -3.61799 0
M  V30 2947 H 268.694 -1.0244 -3.08117 0
M  V30 2948 H 269.705 -4.63876 -2.30302 0
M  V30 2949 H 266.382 -2.33312 -3.46225 0
M  V30 2950 H 267.772 -6.25006 -2.46612 0
M  V30 2951 N 270.492 0.636531 -1.44174 0
M  V30 2952 C 271.738 1.39649 -1.47884 0
M  V30 2953 C 272.093 1.92098 -0.107747 0
M  V30 2954 O 271.386 1.70391 0.876208 0
M  V30 2955 C 271.58 2.58309 -2.47005 0
M  V30 2956 C 271.409 2.17476 -3.93617 0
M  V30 2957 C 270.179 2.0501 -4.61843 0
M  V30 2958 C 272.377 1.76722 -4.82984 0
M  V30 2959 N 270.359 1.57683 -5.93304 0
M  V30 2960 C 271.73 1.40601 -6.03847 0
M  V30 2961 C 273.785 1.64054 -4.70096 0
M  V30 2962 C 272.488 0.930787 -7.13252 0
M  V30 2963 C 274.514 1.17937 -5.79521 0
M  V30 2964 C 273.876 0.827625 -6.99521 0
M  V30 2965 H 269.975 0.506027 -0.596205 0
M  V30 2966 H 272.559 0.730791 -1.80465 0
M  V30 2967 H 270.73 3.22514 -2.16423 0
M  V30 2968 H 272.462 3.25083 -2.41045 0
M  V30 2969 H 269.217 2.25294 -4.16581 0
M  V30 2970 H 269.641 1.36334 -6.63131 0
M  V30 2971 H 274.283 1.89882 -3.77762 0
M  V30 2972 H 272.001 0.660012 -8.054 0
M  V30 2973 H 275.587 1.08601 -5.71574 0
M  V30 2974 H 274.467 0.476231 -7.82753 0
M  V30 2975 N 271.97 1.30982 0.876444 0
M  V30 2976 C 272.88 1.2003 2.01569 0
M  V30 2977 C 273.896 0.11838 1.73597 0
M  V30 2978 O 275.072 0.33495 1.98595 0
M  V30 2979 C 272.137 0.901637 3.34771 0
M  V30 2980 C 271.198 2.06979 3.76109 0
M  V30 2981 C 270.431 1.78529 5.02954 0
M  V30 2982 O 270.654 0.717296 5.65872 0
M  V30 2983 O 269.588 2.64019 5.40905 0
M  V30 2984 H 273.414 2.15753 2.13739 0
M  V30 2985 H 270.999 1.10658 1.00375 0
M  V30 2986 H 272.881 0.750645 4.1466 0
M  V30 2987 H 271.556 -0.0256141 3.2369 0
M  V30 2988 H 270.463 2.27616 2.96887 0
M  V30 2989 H 271.796 2.97907 3.91807 0
M  V30 2990 N 273.449 -1.08991 1.13837 0
M  V30 2991 C 274.695 -1.81526 0.90422 0
M  V30 2992 C 275.028 -1.85706 -0.568066 0
M  V30 2993 O 274.303 -1.32855 -1.42056 0
M  V30 2994 C 274.586 -3.27447 1.49835 0
M  V30 2995 C 274.439 -3.31512 3.04006 0
M  V30 2996 C 275.758 -4.24256 1.17025 0
M  V30 2997 H 272.877 -0.659029 0.329923 0
M  V30 2998 H 275.519 -1.27644 1.40737 0
M  V30 2999 H 273.669 -3.73462 1.07044 0
M  V30 3000 H 275.341 -2.93867 3.55584 0
M  V30 3001 H 273.584 -2.70963 3.38765 0
M  V30 3002 H 274.255 -4.34329 3.40679 0
M  V30 3003 H 276.731 -3.86549 1.54009 0
M  V30 3004 H 275.607 -5.24684 1.61237 0
M  V30 3005 H 275.868 -4.42019 0.0846274 0
M  V30 3006 N 274.927 -0.932562 -1.27047 0
M  V30 3007 C 276.167 -0.582919 -1.95912 0
M  V30 3008 C 276.531 0.860629 -1.71631 0
M  V30 3009 O 277.732 1.31878 -2.34225 0
M  V30 3010 C 276.003 -0.905673 -3.45734 0
M  V30 3011 S 277.562 -0.665277 -4.33727 0
M  V30 3012 H 274.38 -0.215 -0.677714 0
M  V30 3013 H 276.982 -1.20204 -1.54179 0
M  V30 3014 H 275.686 -1.95386 -3.60905 0
M  V30 3015 H 275.217 -0.275939 -3.92431 0
M  V30 3016 H 277.232 0.474635 -4.93925 0
M  V30 3017 N 276.405 1.4127 -0.698611 0
M  V30 3018 C 277.635 2.05205 -0.239644 0
M  V30 3019 C 278.043 1.52684 1.11733 0
M  V30 3020 O 277.386 0.671222 1.70998 0
M  V30 3021 C 277.448 3.59289 -0.123126 0
M  V30 3022 C 277.112 4.34619 -1.41263 0
M  V30 3023 C 278.109 4.63701 -2.35111 0
M  V30 3024 C 275.794 4.73837 -1.66684 0
M  V30 3025 C 277.788 5.30966 -3.52639 0
M  V30 3026 C 275.475 5.40837 -2.84498 0
M  V30 3027 C 276.473 5.69329 -3.77298 0
M  V30 3028 O 276.161 6.34949 -4.93047 0
M  V30 3029 H 275.893 0.66723 -0.108537 0
M  V30 3030 H 278.447 1.81974 -0.952602 0
M  V30 3031 H 276.677 3.81272 0.645628 0
M  V30 3032 H 278.366 4.04797 0.299056 0
M  V30 3033 H 279.132 4.33882 -2.16729 0
M  V30 3034 H 275.011 4.51039 -0.953135 0
M  V30 3035 H 278.555 5.53121 -4.25091 0
M  V30 3036 H 274.452 5.70075 -3.02795 0
M  V30 3037 H 275.22 6.53445 -4.92902 0
M  V30 3038 N 277.883 0.443576 1.51229 0
M  V30 3039 C 279.131 -0.120557 2.0174 0
M  V30 3040 C 279.452 -1.42665 1.32935 0
M  V30 3041 O 278.722 -1.9028 0.465866 0
M  V30 3042 H 277.302 -0.0475426 0.745486 0
M  V30 3043 H 279.964 0.587711 1.85828 0
M  V30 3044 H 279.06 -0.291972 3.10731 0
M  V30 3045 N 279.361 -1.56624 0.175154 0
M  V30 3046 C 280.586 -2.01813 -0.478137 0
M  V30 3047 C 281.011 -1.05457 -1.55757 0
M  V30 3048 O 280.369 -0.0347439 -1.81267 0
M  V30 3049 C 280.417 -3.45581 -1.02987 0
M  V30 3050 O 279.521 -3.52305 -2.14371 0
M  V30 3051 H 278.862 -0.65413 -0.114059 0
M  V30 3052 H 281.392 -2.02673 0.280173 0
M  V30 3053 H 281.402 -3.84965 -1.35151 0
M  V30 3054 H 280.077 -4.1521 -0.239556 0
M  V30 3055 H 278.654 -3.24783 -1.83222 0
M  V30 3056 N 280.839 0.0985539 -1.57292 0
M  V30 3057 C 282.067 0.816318 -1.90115 0
M  V30 3058 C 282.482 1.72451 -0.768509 0
M  V30 3059 O 281.839 1.80643 0.259687 0
M  V30 3060 C 281.89 1.63259 -3.22535 0
M  V30 3061 O 281.611 0.760934 -4.31441 0
M  V30 3062 C 283.112 2.45372 -3.69199 0
M  V30 3063 H 280.332 0.233595 -0.629027 0
M  V30 3064 H 282.876 0.0768229 -2.04356 0
M  V30 3065 H 281.031 2.32463 -3.09903 0
M  V30 3066 H 281.445 1.32595 -5.07463 0
M  V30 3067 H 282.919 2.98144 -4.64558 0
M  V30 3068 H 283.396 3.23677 -2.96867 0
M  V30 3069 H 284.002 1.81373 -3.84687 0
M  V30 3070 N 282.317 1.53212 0.369288 0
M  V30 3071 C 283.563 1.69466 1.11397 0
M  V30 3072 C 283.896 0.443257 1.89074 0
M  V30 3073 O 283.171 -0.559386 1.86282 0
M  V30 3074 C 283.454 2.9422 2.07621 0
M  V30 3075 C 283.307 4.29508 1.33577 0
M  V30 3076 C 284.626 3.14565 3.07794 0
M  V30 3077 H 281.745 0.616667 0.403597 0
M  V30 3078 H 284.387 1.85845 0.395179 0
M  V30 3079 H 282.537 2.80387 2.68916 0
M  V30 3080 H 284.209 4.55147 0.750955 0
M  V30 3081 H 282.452 4.29088 0.637618 0
M  V30 3082 H 283.123 5.12926 2.03989 0
M  V30 3083 H 285.599 3.2756 2.56601 0
M  V30 3084 H 284.475 4.03297 3.72348 0
M  V30 3085 H 284.736 2.29675 3.77759 0
M  V30 3086 N 283.795 -0.628877 1.44509 0
M  V30 3087 C 285.044 -1.38437 1.4669 0
M  V30 3088 C 285.357 -1.95322 0.104272 0
M  V30 3089 O 286.563 -2.715 0.00362163 0
M  V30 3090 C 285.019 -2.50659 2.5826 0
M  V30 3091 C 284.627 -2.00277 4.0074 0
M  V30 3092 C 286.371 -3.27844 2.69664 0
M  V30 3093 C 284.278 -3.09854 5.0373 0
M  V30 3094 H 283.208 -0.520245 0.545766 0
M  V30 3095 H 285.859 -0.676313 1.70582 0
M  V30 3096 H 284.241 -3.2405 2.27612 0
M  V30 3097 H 285.415 -1.33736 4.40966 0
M  V30 3098 H 283.73 -1.35901 3.93599 0
M  V30 3099 H 286.327 -4.09534 3.43781 0
M  V30 3100 H 286.67 -3.77471 1.75559 0
M  V30 3101 H 287.203 -2.61543 2.99733 0
M  V30 3102 H 283.942 -2.65168 5.99472 0
M  V30 3103 H 283.462 -3.7503 4.68095 0
M  V30 3104 H 285.141 -3.74592 5.27532 0
M  V30 3105 N 285.273 -1.31445 -0.869486 0
M  V30 3106 C 286.513 -1.22458 -1.63656 0
M  V30 3107 C 286.877 0.213846 -1.90805 0
M  V30 3108 O 288.078 0.427212 -2.65383 0
M  V30 3109 C 286.349 -2.04564 -2.93067 0
M  V30 3110 S 287.908 -2.12445 -3.83944 0
M  V30 3111 H 284.726 -0.436145 -0.561514 0
M  V30 3112 H 287.328 -1.66114 -1.03085 0
M  V30 3113 H 286.032 -3.0816 -2.71045 0
M  V30 3114 H 285.563 -1.6163 -3.58663 0
M  V30 3115 H 287.578 -1.26312 -4.79854 0
M  V30 3116 N 286.751 1.08385 -1.14413 0
M  V30 3117 C 287.976 1.85057 -0.936413 0
M  V30 3118 C 288.401 1.81055 0.509971 0
M  V30 3119 O 287.759 1.1958 1.36273 0
M  V30 3120 C 287.807 3.30505 -1.44217 0
M  V30 3121 O 286.911 4.07491 -0.634409 0
M  V30 3122 H 286.252 0.573425 -0.334784 0
M  V30 3123 H 288.782 1.36799 -1.52142 0
M  V30 3124 H 288.792 3.81348 -1.45043 0
M  V30 3125 H 287.467 3.32734 -2.49522 0
M  V30 3126 H 286.044 3.66368 -0.694902 0
M  V30 3127 N 288.23 0.939286 1.26551 0
M  V30 3128 C 289.641 0.628782 1.75793 0
M  V30 3129 C 289.992 -0.856046 1.7654 0
M  V30 3130 O 289.117 -1.66994 1.3763 0
M  V30 3131 C 289.712 1.13465 3.19235 0
M  V30 3132 C 288.271 0.874601 3.66098 0
M  V30 3133 C 287.418 1.28667 2.45642 0
M  V30 3134 H 290.369 1.1178 1.12654 0
M  V30 3135 H 290.39 0.487609 3.77363 0
M  V30 3136 H 289.902 2.21535 3.1866 0
M  V30 3137 H 288.003 -0.191793 3.72106 0
M  V30 3138 H 288.116 1.50028 4.55004 0
M  V30 3139 H 286.48 0.705109 2.44745 0
M  V30 3140 H 287.263 2.37625 2.47769 0
M  V30 3141 N 289.708 -1.40897 0.706093 0
M  V30 3142 C 290.671 -2.29131 0.0562841 0
M  V30 3143 C 291.671 -1.44901 -0.697166 0
M  V30 3144 O 292.861 -1.65926 -0.530484 0
M  V30 3145 C 289.993 -3.27957 -0.93043 0
M  V30 3146 H 291.186 -2.88091 0.833284 0
M  V30 3147 H 288.739 -1.4906 0.470192 0
M  V30 3148 H 289.474 -2.73997 -1.73482 0
M  V30 3149 H 289.259 -3.90124 -0.393166 0
M  V30 3150 H 290.749 -3.94049 -1.38256 0
M  V30 3151 N 291.186 -0.45159 -1.50991 0
M  V30 3152 C 292.411 0.110667 -2.07105 0
M  V30 3153 C 292.836 1.3446 -1.31538 0
M  V30 3154 O 292.194 1.77743 -0.357365 0
M  V30 3155 C 292.242 0.397238 -3.58405 0
M  V30 3156 O 291.346 1.48124 -3.84881 0
M  V30 3157 H 290.687 -0.00439271 -0.663985 0
M  V30 3158 H 293.217 -0.637026 -1.9443 0
M  V30 3159 H 293.227 0.64351 -4.02893 0
M  V30 3160 H 291.902 -0.504553 -4.12828 0
M  V30 3161 H 290.479 1.22381 -3.52246 0
M  V30 3162 N 292.664 1.56529 -0.183458 0
M  V30 3163 C 293.91 1.97537 0.459036 0
M  V30 3164 C 294.243 1.06989 1.62071 0
M  V30 3165 O 293.518 0.11948 1.94133 0
M  V30 3166 C 293.801 3.47874 0.930368 0
M  V30 3167 C 293.654 4.492 -0.232317 0
M  V30 3168 C 294.973 4.01612 1.79989 0
M  V30 3169 H 292.092 0.718204 0.165383 0
M  V30 3170 H 294.734 1.88042 -0.272038 0
M  V30 3171 H 292.884 3.56095 1.55333 0
M  V30 3172 H 294.556 4.53027 -0.86972 0
M  V30 3173 H 292.799 4.24657 -0.885928 0
M  V30 3174 H 293.47 5.51823 0.139796 0
M  V30 3175 H 295.946 3.96097 1.27461 0
M  V30 3176 H 294.822 5.07195 2.09867 0
M  V30 3177 H 295.083 3.46163 2.74998 0
M  V30 3178 N 294.142 -0.090211 1.57342 0
M  V30 3179 C 295.367 -0.810082 1.90925 0
M  V30 3180 C 295.792 -1.71248 0.778187 0
M  V30 3181 O 295.15 -1.79278 -0.269991 0
M  V30 3182 C 295.198 -1.59529 3.23393 0
M  V30 3183 O 294.302 -2.70461 3.11327 0
M  V30 3184 H 293.643 -0.222231 0.625707 0
M  V30 3185 H 296.173 -0.0639716 2.045 0
M  V30 3186 H 296.183 -1.97847 3.5682 0
M  V30 3187 H 294.858 -0.933055 4.05299 0
M  V30 3188 H 293.435 -2.35135 2.89423 0
M  V30 3189 N 295.62 -1.53406 -0.361157 0
M  V30 3190 C 296.845 -1.74024 -1.12829 0
M  V30 3191 C 297.27 -0.470069 -1.82132 0
M  V30 3192 O 296.628 0.57619 -1.719 0
M  V30 3193 C 296.676 -2.90903 -2.13091 0
M  V30 3194 O 295.78 -2.59821 -3.20261 0
M  V30 3195 H 295.121 -0.577804 -0.327168 0
M  V30 3196 H 297.651 -2.00307 -0.41693 0
M  V30 3197 H 297.661 -3.17194 -2.56616 0
M  V30 3198 H 296.336 -3.83034 -1.62042 0
M  V30 3199 H 294.913 -2.44362 -2.81677 0
M  V30 3200 N 297.098 0.621204 -1.44841 0
M  V30 3201 C 298.326 1.40752 -1.51646 0
M  V30 3202 C 298.741 1.88246 -0.144549 0
M  V30 3203 O 298.098 1.61422 0.851416 0
M  V30 3204 C 298.149 2.62119 -2.4895 0
M  V30 3205 O 297.87 2.16602 -3.80808 0
M  V30 3206 C 299.371 3.55135 -2.65319 0
M  V30 3207 H 296.591 0.431325 -0.514004 0
M  V30 3208 H 299.135 0.758835 -1.899 0
M  V30 3209 H 297.29 3.23058 -2.13805 0
M  V30 3210 H 297.704 2.95358 -4.33433 0
M  V30 3211 H 299.178 4.36874 -3.37409 0
M  V30 3212 H 299.655 4.04592 -1.70886 0
M  V30 3213 H 300.261 3.00058 -3.01405 0
M  V30 3214 N 298.576 1.31904 0.862503 0
M  V30 3215 C 299.822 1.22197 1.61851 0
M  V30 3216 C 300.155 -0.217641 1.92977 0
M  V30 3217 O 299.43 -1.15264 1.56666 0
M  V30 3218 C 299.713 2.07378 2.94391 0
M  V30 3219 C 299.566 3.59678 2.70096 0
M  V30 3220 C 300.885 1.92891 3.95577 0
M  V30 3221 H 298.004 0.445255 0.587296 0
M  V30 3222 H 300.646 1.6177 0.99651 0
M  V30 3223 H 298.796 1.73758 3.47477 0
M  V30 3224 H 300.468 4.03472 2.23625 0
M  V30 3225 H 298.711 3.82735 2.04197 0
M  V30 3226 H 299.382 4.14595 3.64438 0
M  V30 3227 H 301.858 2.22327 3.51724 0
M  V30 3228 H 300.734 2.54781 4.86187 0
M  V30 3229 H 300.995 0.894315 4.3296 0
M  V30 3230 N 300.054 -1.07777 1.14986 0
M  V30 3231 C 301.47 -1.32373 0.891596 0
M  V30 3232 C 301.67 -1.9609 -0.463788 0
M  V30 3233 O 300.726 -2.21801 -1.20667 0
M  V30 3234 C 302.039 -2.21905 2.02925 0
M  V30 3235 C 303.587 -2.35367 2.06329 0
M  V30 3236 C 304.062 -3.28245 3.19405 0
M  V30 3237 N 305.553 -3.35824 3.19024 0
M  V30 3238 C 306.288 -4.07739 4.03158 0
M  V30 3239 N 305.784 -4.82306 4.97346 0
M  V30 3240 N 307.577 -4.03635 3.91197 0
M  V30 3241 H 299.728 -0.648039 2.02273 0
M  V30 3242 H 301.991 -0.348149 0.881757 0
M  V30 3243 H 301.697 -1.82342 3.0074 0
M  V30 3244 H 301.571 -3.22407 1.95789 0
M  V30 3245 H 303.958 -2.74186 1.09116 0
M  V30 3246 H 304.039 -1.34585 2.17533 0
M  V30 3247 H 303.683 -2.90146 4.16867 0
M  V30 3248 H 303.613 -4.28971 3.05437 0
M  V30 3249 H 306.104 -2.8267 2.50811 0
M  V30 3250 H 306.417 -5.34661 5.57994 0
M  V30 3251 H 304.762 -4.81337 5.01338 0
M  V30 3252 H 307.953 -3.44491 3.16928 0
M  V30 3253 H 308.126 -4.59417 4.5699 0
M  V30 3254 N 301.532 -0.945985 -1.26051 0
M  V30 3255 C 302.442 -0.465633 -2.29933 0
M  V30 3256 C 303.458 0.462761 -1.67733 0
M  V30 3257 O 304.634 0.341118 -1.9849 0
M  V30 3258 C 301.699 0.256994 -3.45746 0
M  V30 3259 C 300.76 -0.708549 -4.23412 0
M  V30 3260 C 299.993 -0.0203135 -5.33696 0
M  V30 3261 O 300.216 1.19571 -5.57726 0
M  V30 3262 O 299.15 -0.701459 -5.97799 0
M  V30 3263 H 302.976 -1.32866 -2.73094 0
M  V30 3264 H 300.561 -0.712071 -1.31339 0
M  V30 3265 H 302.443 0.663852 -4.16138 0
M  V30 3266 H 301.118 1.09533 -3.04605 0
M  V30 3267 H 300.025 -1.16545 -3.55483 0
M  V30 3268 H 301.358 -1.51465 -4.68315 0
M  V30 3269 N 303.011 1.40521 -0.713556 0
M  V30 3270 C 304.257 2.01221 -0.252564 0
M  V30 3271 C 304.59 1.56444 1.1506 0
M  V30 3272 O 303.865 0.783597 1.78017 0
M  V30 3273 C 304.148 3.58582 -0.330332 0
M  V30 3274 C 304.001 4.13437 -1.77173 0
M  V30 3275 C 305.32 4.39079 0.299641 0
M  V30 3276 H 302.439 0.731077 -0.0932471 0
M  V30 3277 H 305.081 1.67026 -0.905673 0
M  V30 3278 H 303.231 3.87844 0.225737 0
M  V30 3279 H 304.903 3.9498 -2.38303 0
M  V30 3280 H 303.146 3.67801 -2.3001 0
M  V30 3281 H 303.817 5.22597 -1.77755 0
M  V30 3282 H 306.293 4.15735 -0.174139 0
M  V30 3283 H 305.169 5.4848 0.214771 0
M  V30 3284 H 305.43 4.19915 1.38288 0
M  V30 3285 N 304.489 0.459591 1.5075 0
M  V30 3286 C 305.714 -0.0996819 2.0716 0
M  V30 3287 C 306.139 -1.33761 1.32249 0
M  V30 3288 O 305.497 -1.77551 0.366786 0
M  V30 3289 C 305.545 -0.378226 3.58611 0
M  V30 3290 O 304.649 -1.46081 3.85661 0
M  V30 3291 H 303.99 0.00791392 0.663953 0
M  V30 3292 H 306.52 0.647329 1.9409 0
M  V30 3293 H 306.53 -0.622135 4.03229 0
M  V30 3294 H 305.205 0.526439 4.12555 0
M  V30 3295 H 303.782 -1.20511 3.5289 0
M  V30 3296 N 305.967 -1.56429 0.191757 0
M  V30 3297 C 307.216 -1.9666 -0.448088 0
M  V30 3298 C 307.529 -1.08136 -1.62991 0
M  V30 3299 O 308.735 -1.38135 -2.33733 0
M  V30 3300 C 307.191 -3.49753 -0.848585 0
M  V30 3301 C 306.799 -4.46935 0.308764 0
M  V30 3302 C 308.543 -3.9876 -1.4557 0
M  V30 3303 C 306.45 -5.91293 -0.112506 0
M  V30 3304 H 305.38 -0.734312 -0.171179 0
M  V30 3305 H 308.031 -1.81301 0.283242 0
M  V30 3306 H 306.413 -3.60604 -1.63649 0
M  V30 3307 H 307.587 -4.47813 1.08627 0
M  V30 3308 H 305.902 -4.08102 0.827158 0
M  V30 3309 H 308.499 -5.04086 -1.78328 0
M  V30 3310 H 308.842 -3.42875 -2.36099 0
M  V30 3311 H 309.375 -3.9101 -0.731836 0
M  V30 3312 H 306.114 -6.51097 0.758514 0
M  V30 3313 H 305.634 -5.93676 -0.854941 0
M  V30 3314 H 307.313 -6.44663 -0.549448 0
M  V30 3315 N 307.445 0.0818655 -1.57387 0
M  V30 3316 C 308.408 1.08265 -2.02018 0
M  V30 3317 C 309.408 1.32183 -0.915664 0
M  V30 3318 O 310.598 1.28073 -1.18081 0
M  V30 3319 C 307.73 2.42871 -2.39221 0
M  V30 3320 H 308.923 0.698204 -2.91659 0
M  V30 3321 H 306.476 0.327303 -1.52835 0
M  V30 3322 H 307.211 2.86167 -1.52575 0
M  V30 3323 H 306.996 2.26855 -3.19811 0
M  V30 3324 H 308.486 3.14826 -2.74362 0
M  V30 3325 N 308.923 1.53595 0.353017 0
M  V30 3326 C 309.833 1.83897 1.45667 0
M  V30 3327 C 310.849 0.728334 1.58023 0
M  V30 3328 O 312.025 1.01968 1.73679 0
M  V30 3329 C 309.09 2.03383 2.80778 0
M  V30 3330 C 308.151 3.27262 2.77845 0
M  V30 3331 C 307.384 3.45809 4.06512 0
M  V30 3332 O 307.607 2.68387 5.03314 0
M  V30 3333 O 306.541 4.39207 4.11559 0
M  V30 3334 H 310.367 2.77686 1.2298 0
M  V30 3335 H 307.952 1.39132 0.544308 0
M  V30 3336 H 309.834 2.17698 3.60812 0
M  V30 3337 H 308.509 1.12783 3.03417 0
M  V30 3338 H 307.416 3.18359 1.96465 0
M  V30 3339 H 308.749 4.17824 2.60161 0
M  V30 3340 N 310.401 -0.613514 1.45168 0
M  V30 3341 C 311.812 -1.19539 1.43413 0
M  V30 3342 C 312.163 -1.95558 0.158632 0
M  V30 3343 O 311.288 -2.0335 -0.740119 0
M  V30 3344 C 311.883 -2.17445 2.59813 0
M  V30 3345 C 310.442 -2.71022 2.61197 0
M  V30 3346 C 309.589 -1.46323 2.35552 0
M  V30 3347 H 312.54 -0.403163 1.53494 0
M  V30 3348 H 312.561 -3.00373 2.33574 0
M  V30 3349 H 312.073 -1.62089 3.52631 0
M  V30 3350 H 310.174 -3.30332 1.7237 0
M  V30 3351 H 310.287 -3.15859 3.60236 0
M  V30 3352 H 308.651 -1.75072 1.84992 0
M  V30 3353 H 309.434 -0.92844 3.30507 0
M  V30 3354 N 311.879 -1.3236 -0.855495 0
M  V30 3355 C 313.107 -1.2587 -1.64208 0
M  V30 3356 C 313.522 0.173457 -1.88002 0
M  V30 3357 O 312.879 1.11027 -1.44842 0
M  V30 3358 C 312.93 -2.01424 -3.00184 0
M  V30 3359 O 312.651 -3.39051 -2.77445 0
M  V30 3360 C 314.152 -2.01948 -3.94629 0
M  V30 3361 H 311.372 -0.434318 -0.511477 0
M  V30 3362 H 313.916 -1.74469 -1.0668 0
M  V30 3363 H 312.071 -1.56549 -3.5436 0
M  V30 3364 H 312.485 -3.77711 -3.63916 0
M  V30 3365 H 313.959 -2.59297 -4.87308 0
M  V30 3366 H 314.436 -1.00554 -4.27534 0
M  V30 3367 H 315.042 -2.46767 -3.4639 0
M  V30 3368 N 313.357 1.07166 -1.15556 0
M  V30 3369 C 314.585 1.83514 -0.955519 0
M  V30 3370 C 315 1.82163 0.49621 0
M  V30 3371 O 314.357 1.23441 1.34419 0
M  V30 3372 C 314.408 3.30515 -1.46432 0
M  V30 3373 O 314.129 3.31937 -2.85918 0
M  V30 3374 C 315.63 4.23625 -1.30603 0
M  V30 3375 H 312.85 0.578926 -0.339244 0
M  V30 3376 H 315.394 1.35265 -1.53374 0
M  V30 3377 H 313.549 3.76106 -0.928584 0
M  V30 3378 H 313.963 4.23794 -3.09029 0
M  V30 3379 H 315.437 5.24831 -1.71047 0
M  V30 3380 H 315.914 4.38485 -0.250441 0
M  V30 3381 H 316.52 3.83871 -1.83094 0
M  V30 3382 N 314.835 0.952656 1.25548 0
M  V30 3383 C 316.065 0.622592 1.96996 0
M  V30 3384 C 316.473 -0.809112 1.71026 0
M  V30 3385 O 315.816 -1.55258 0.981861 0
M  V30 3386 C 315.878 0.798946 3.5051 0
M  V30 3387 C 315.542 2.20744 4.00151 0
M  V30 3388 C 316.539 3.18394 4.11001 0
M  V30 3389 C 314.224 2.5311 4.33867 0
M  V30 3390 C 316.218 4.46504 4.54877 0
M  V30 3391 C 313.905 3.8145 4.7743 0
M  V30 3392 C 314.903 4.77959 4.87897 0
M  V30 3393 O 314.591 6.04012 5.30494 0
M  V30 3394 H 314.323 0.232503 0.634758 0
M  V30 3395 H 316.877 1.2789 1.60728 0
M  V30 3396 H 315.107 0.0854903 3.86605 0
M  V30 3397 H 316.796 0.47023 4.03167 0
M  V30 3398 H 317.562 2.94715 3.85186 0
M  V30 3399 H 313.441 1.78719 4.24948 0
M  V30 3400 H 316.985 5.21835 4.62962 0
M  V30 3401 H 312.882 4.04936 5.0269 0
M  V30 3402 H 313.65 6.0736 5.48685 0
M  V30 3403 N 316.313 -1.40141 0.720998 0
M  V30 3404 C 317.541 -2.05096 0.272656 0
M  V30 3405 C 317.956 -1.54334 -1.0875 0
M  V30 3406 O 317.313 -0.702211 -1.6845 0
M  V30 3407 C 317.364 -3.60636 0.249835 0
M  V30 3408 O 317.085 -4.09526 1.55629 0
M  V30 3409 C 318.586 -4.42772 -0.216396 0
M  V30 3410 H 315.806 -0.659897 0.121558 0
M  V30 3411 H 318.35 -1.79449 0.980723 0
M  V30 3412 H 316.505 -3.85232 -0.409237 0
M  V30 3413 H 316.919 -5.03758 1.4604 0
M  V30 3414 H 318.393 -5.51702 -0.181212 0
M  V30 3415 H 318.87 -4.20756 -1.25941 0
M  V30 3416 H 319.476 -4.23294 0.412596 0
M  V30 3417 N 317.792 -0.46758 -1.50504 0
M  V30 3418 C 319.203 -0.0116166 -1.86696 0
M  V30 3419 C 319.554 1.39202 -1.38265 0
M  V30 3420 O 318.679 2.0313 -0.746132 0
M  V30 3421 C 319.274 -0.0143044 -3.38797 0
M  V30 3422 C 317.833 0.386175 -3.74414 0
M  V30 3423 C 316.98 -0.401287 -2.74381 0
M  V30 3424 H 319.931 -0.682022 -1.43297 0
M  V30 3425 H 319.952 0.788641 -3.72237 0
M  V30 3426 H 319.464 -1.03602 -3.74016 0
M  V30 3427 H 317.565 1.41237 -3.44794 0
M  V30 3428 H 317.678 0.0899596 -4.79016 0
M  V30 3429 H 316.042 0.144536 -2.5429 0
M  V30 3430 H 316.825 -1.42244 -3.12444 0
M  V30 3431 N 319.27 1.56325 -0.20005 0
M  V30 3432 C 320.233 2.18084 0.705132 0
M  V30 3433 C 321.233 1.13666 1.1374 0
M  V30 3434 O 322.423 1.39023 1.04968 0
M  V30 3435 C 319.555 2.78689 1.96329 0
M  V30 3436 H 320.748 2.99435 0.167023 0
M  V30 3437 H 318.301 1.56221 0.0495725 0
M  V30 3438 H 319.036 2.0115 2.5438 0
M  V30 3439 H 318.821 3.55133 1.66202 0
M  V30 3440 H 320.311 3.26096 2.60866 0
M  V30 3441 N 320.748 -0.0735177 1.57428 0
M  V30 3442 C 321.68 -1.11423 2.00294 0
M  V30 3443 C 322.693 -1.35084 0.908637 0
M  V30 3444 O 323.882 -1.33355 1.18654 0
M  V30 3445 C 320.982 -2.46548 2.32523 0
M  V30 3446 C 320.155 -2.42867 3.63778 0
M  V30 3447 C 319.214 -3.60087 3.83697 0
M  V30 3448 O 318.24 -3.41595 4.55304 0
M  V30 3449 N 319.442 -4.80372 3.25919 0
M  V30 3450 H 322.207 -0.749206 2.90184 0
M  V30 3451 H 319.768 -0.262195 1.59763 0
M  V30 3452 H 321.76 -3.23607 2.43024 0
M  V30 3453 H 320.33 -2.75059 1.48531 0
M  V30 3454 H 319.55 -1.51206 3.64047 0
M  V30 3455 H 320.838 -2.37506 4.49965 0
M  V30 3456 H 320.236 -4.983 2.67795 0
M  V30 3457 H 318.793 -5.54948 3.41871 0
M  V30 3458 N 322.226 -1.5378 -0.344866 0
M  V30 3459 C 323.454 -1.74899 -1.10534 0
M  V30 3460 C 323.869 -0.487534 -1.82397 0
M  V30 3461 O 323.226 0.540741 -1.74305 0
M  V30 3462 C 323.277 -2.92822 -2.11984 0
M  V30 3463 O 322.998 -4.14089 -1.43044 0
M  V30 3464 C 324.499 -3.25982 -3.00417 0
M  V30 3465 H 321.719 -0.584426 -0.329678 0
M  V30 3466 H 324.263 -2.006 -0.397474 0
M  V30 3467 H 322.418 -2.69457 -2.78338 0
M  V30 3468 H 322.832 -4.80272 -2.10805 0
M  V30 3469 H 324.306 -4.11848 -3.67539 0
M  V30 3470 H 324.783 -2.42228 -3.66363 0
M  V30 3471 H 325.389 -3.51349 -2.39654 0
M  V30 3472 N 323.704 0.605807 -1.45491 0
M  V30 3473 C 324.932 1.39136 -1.5313 0
M  V30 3474 C 325.347 1.88082 -0.164507 0
M  V30 3475 O 324.704 1.62316 0.834247 0
M  V30 3476 C 324.755 2.59463 -2.51716 0
M  V30 3477 O 324.476 2.12551 -3.83084 0
M  V30 3478 C 325.977 3.52301 -2.6907 0
M  V30 3479 H 323.197 0.425849 -0.51855 0
M  V30 3480 H 325.741 0.73865 -1.90694 0
M  V30 3481 H 323.896 3.20772 -2.17219 0
M  V30 3482 H 324.31 2.90744 -4.36541 0
M  V30 3483 H 325.784 4.33271 -3.42024 0
M  V30 3484 H 326.261 4.02757 -1.75167 0
M  V30 3485 H 326.867 2.96845 -3.04571 0
M  V30 3486 N 325.182 1.32811 0.848464 0
M  V30 3487 C 326.145 1.22194 1.9391 0
M  V30 3488 C 327.145 0.143404 1.60159 0
M  V30 3489 O 328.335 0.394253 1.6968 0
M  V30 3490 C 325.467 0.88067 3.29328 0
M  V30 3491 H 326.66 2.19127 2.04752 0
M  V30 3492 H 324.213 1.16731 1.0394 0
M  V30 3493 H 324.948 -0.0865776 3.24184 0
M  V30 3494 H 324.733 1.66052 3.55203 0
M  V30 3495 H 326.223 0.830871 4.09251 0
M  V30 3496 N 326.66 -1.06551 1.16123 0
M  V30 3497 C 328.071 -1.60768 0.949232 0
M  V30 3498 C 328.422 -1.89523 -0.507508 0
M  V30 3499 O 327.547 -1.66671 -1.38021 0
M  V30 3500 C 328.142 -2.92086 1.71671 0
M  V30 3501 C 326.701 -3.43015 1.54977 0
M  V30 3502 C 325.848 -2.16947 1.72711 0
M  V30 3503 H 328.799 -0.895354 1.31031 0
M  V30 3504 H 328.82 -3.6138 1.19099 0
M  V30 3505 H 328.332 -2.71127 2.7769 0
M  V30 3506 H 326.433 -3.69039 0.513873 0
M  V30 3507 H 326.546 -4.18516 2.33198 0
M  V30 3508 H 324.91 -2.27041 1.15431 0
M  V30 3509 H 325.693 -1.98473 2.80113 0
M  V30 3510 N 328.138 -0.959301 -1.25041 0
M  V30 3511 C 329.366 -0.633949 -1.96948 0
M  V30 3512 C 329.781 0.794916 -1.7125 0
M  V30 3513 O 329.138 1.53231 -0.991287 0
M  V30 3514 C 329.189 -0.888805 -3.50403 0
M  V30 3515 O 328.91 -2.26149 -3.75218 0
M  V30 3516 C 330.411 -0.576482 -4.39536 0
M  V30 3517 H 327.631 -0.237263 -0.627652 0
M  V30 3518 H 330.175 -1.28495 -1.59089 0
M  V30 3519 H 328.33 -0.284145 -3.86357 0
M  V30 3520 H 328.744 -2.33514 -4.6965 0
M  V30 3521 H 330.218 -0.805314 -5.46094 0
M  V30 3522 H 330.695 0.489075 -4.36468 0
M  V30 3523 H 331.301 -1.16067 -4.09156 0
M  V30 3524 N 329.616 1.39756 -0.72842 0
M  V30 3525 C 330.862 2.00942 -0.273892 0
M  V30 3526 C 331.195 1.57656 1.13394 0
M  V30 3527 O 330.47 0.802434 1.77176 0
M  V30 3528 C 330.753 3.58211 -0.368346 0
M  V30 3529 C 330.606 4.11534 -1.81548 0
M  V30 3530 C 331.925 4.39372 0.253054 0
M  V30 3531 H 329.044 0.730047 -0.100996 0
M  V30 3532 H 331.686 1.66056 -0.923337 0
M  V30 3533 H 329.836 3.88061 0.184588 0
M  V30 3534 H 331.508 3.92431 -2.42478 0
M  V30 3535 H 329.751 3.65341 -2.33898 0
M  V30 3536 H 330.422 5.20682 -1.83288 0
M  V30 3537 H 332.898 4.15527 -0.218224 0
M  V30 3538 H 331.774 5.48677 0.156585 0
M  V30 3539 H 332.035 4.21358 1.33826 0
M  V30 3540 N 331.094 0.475555 1.50254 0
M  V30 3541 C 332.319 -0.0777042 2.07254 0
M  V30 3542 C 332.744 -1.3235 1.3366 0
M  V30 3543 O 332.102 -1.77152 0.385597 0
M  V30 3544 C 332.15 -0.340169 3.58992 0
M  V30 3545 O 331.254 -1.41982 3.87188 0
M  V30 3546 H 330.595 0.0149556 0.663832 0
M  V30 3547 H 333.125 0.667878 1.93392 0
M  V30 3548 H 333.135 -0.579332 4.03866 0
M  V30 3549 H 331.81 0.570167 4.11973 0
M  V30 3550 H 330.387 -1.16762 3.54148 0
M  V30 3551 N 332.573 -1.56217 0.208337 0
M  V30 3552 C 333.536 -2.18455 -0.693557 0
M  V30 3553 C 334.536 -1.14268 -1.13135 0
M  V30 3554 O 335.726 -1.39577 -1.0423 0
M  V30 3555 C 332.858 -2.79727 -1.94848 0
M  V30 3556 H 334.051 -2.99519 -0.15114 0
M  V30 3557 H 331.604 -1.56245 -0.041287 0
M  V30 3558 H 332.339 -2.02497 -2.53309 0
M  V30 3559 H 332.124 -3.56009 -1.64316 0
M  V30 3560 H 333.614 -3.27475 -2.59133 0
M  V30 3561 N 334.051 0.0651679 -1.57465 0
M  V30 3562 C 335.291 0.768329 -1.8941 0
M  V30 3563 C 335.655 1.74406 -0.802894 0
M  V30 3564 O 336.856 2.49281 -1.0056 0
M  V30 3565 C 335.127 1.45199 -3.26576 0
M  V30 3566 S 336.686 2.1893 -3.80283 0
M  V30 3567 H 333.504 0.255359 -0.663561 0
M  V30 3568 H 336.106 0.024167 -1.95485 0
M  V30 3569 H 334.81 0.728123 -4.03889 0
M  V30 3570 H 334.341 2.23545 -3.23715 0
M  V30 3571 H 336.356 3.45551 -3.56102 0
M  V30 3572 N 335.529 1.53961 0.336706 0
M  V30 3573 C 336.757 1.75483 1.09605 0
M  V30 3574 C 337.172 0.4972 1.82136 0
M  V30 3575 O 336.529 -0.53149 1.74589 0
M  V30 3576 C 336.58 2.93943 2.10428 0
M  V30 3577 O 336.301 4.14842 1.40846 0
M  V30 3578 C 337.802 3.27571 2.98684 0
M  V30 3579 H 335.022 0.586166 0.326574 0
M  V30 3580 H 337.566 2.00808 0.38683 0
M  V30 3581 H 335.721 2.70929 2.76905 0
M  V30 3582 H 336.135 4.81383 2.08255 0
M  V30 3583 H 337.609 4.13791 3.6535 0
M  V30 3584 H 338.086 2.44168 3.65074 0
M  V30 3585 H 338.692 3.52615 2.37787 0
M  V30 3586 N 337.007 -0.598083 1.45811 0
M  V30 3587 C 338.235 -1.38322 1.53866 0
M  V30 3588 C 338.65 -1.87992 0.174479 0
M  V30 3589 O 338.007 -1.62756 -0.825627 0
M  V30 3590 C 338.058 -2.58125 2.53089 0
M  V30 3591 O 337.779 -2.10516 3.84206 0
M  V30 3592 C 339.28 -3.50869 2.70935 0
M  V30 3593 H 336.5 -0.423093 0.520801 0
M  V30 3594 H 339.044 -0.728527 1.91083 0
M  V30 3595 H 337.199 -3.19615 2.18917 0
M  V30 3596 H 337.613 -2.88425 4.38077 0
M  V30 3597 H 339.087 -4.31451 3.44317 0
M  V30 3598 H 339.564 -4.01822 1.77301 0
M  V30 3599 H 340.17 -2.95225 3.06141 0
M  V30 3600 N 338.485 -1.33259 -0.841409 0
M  V30 3601 C 339.395 -1.25332 -1.98316 0
M  V30 3602 C 340.411 -0.164364 -1.73222 0
M  V30 3603 O 341.587 -0.387486 -1.97637 0
M  V30 3604 C 338.652 -0.990078 -3.32262 0
M  V30 3605 C 337.713 -2.16879 -3.70489 0
M  V30 3606 C 336.946 -1.91801 -4.98044 0
M  V30 3607 O 337.169 -0.867075 -5.63771 0
M  V30 3608 O 336.103 -2.78267 -5.33714 0
M  V30 3609 H 339.929 -2.21344 -2.07944 0
M  V30 3610 H 337.514 -1.1328 -0.974058 0
M  V30 3611 H 339.396 -0.860321 -4.12524 0
M  V30 3612 H 338.071 -0.0602155 -3.23644 0
M  V30 3613 H 336.978 -2.35407 -2.90748 0
M  V30 3614 H 338.311 -3.0819 -3.8377 0
M  V30 3615 N 339.963 1.05934 -1.16686 0
M  V30 3616 C 341.24 1.75643 -0.860747 0
M  V30 3617 C 341.62 2.01144 0.640641 0
M  V30 3618 O 340.968 1.64147 1.58959 0
M  V30 3619 C 341.178 3.05493 -1.68745 0
M  V30 3620 C 342.526 3.79581 -1.90271 0
M  V30 3621 O 343.55 3.15344 -1.65641 0
M  V30 3622 O 342.409 4.9499 -2.31618 0
M  V30 3623 H 339.503 0.763426 -0.317977 0
M  V30 3624 H 342.049 1.1217 -1.27342 0
M  V30 3625 H 340.821 2.8264 -2.70611 0
M  V30 3626 H 340.444 3.76702 -1.27206 0
M  V30 3627 N 341.441 0.965919 1.2453 0
M  V30 3628 C 342.689 0.625593 1.92174 0
M  V30 3629 C 343.01 -0.841652 1.75901 0
M  V30 3630 O 342.28 -1.60061 1.12948 0
M  V30 3631 H 340.86 0.228388 0.71123 0
M  V30 3632 H 343.522 1.2266 1.51461 0
M  V30 3633 H 342.618 0.864653 2.99884 0
M  V30 3634 N 342.919 -1.39368 0.735821 0
M  V30 3635 C 344.165 -2.00794 0.284544 0
M  V30 3636 C 344.498 -1.58255 -1.12557 0
M  V30 3637 O 343.773 -0.811819 -1.76748 0
M  V30 3638 C 344.056 -3.58011 0.387337 0
M  V30 3639 C 343.909 -4.10566 1.83728 0
M  V30 3640 C 345.228 -4.395 -0.22975 0
M  V30 3641 H 342.347 -0.729501 0.104866 0
M  V30 3642 H 344.989 -1.65564 0.93213 0
M  V30 3643 H 343.139 -3.88154 -0.164006 0
M  V30 3644 H 344.811 -3.91139 2.44556 0
M  V30 3645 H 343.054 -3.64095 2.35833 0
M  V30 3646 H 343.725 -5.19702 1.86047 0
M  V30 3647 H 346.201 -4.15406 0.240257 0
M  V30 3648 H 345.077 -5.48752 -0.127485 0
M  V30 3649 H 345.338 -4.22062 -1.3159 0
M  V30 3650 N 344.397 -0.483516 -1.5 0
M  V30 3651 C 345.622 0.0667119 -2.07293 0
M  V30 3652 C 346.047 1.3164 -1.3436 0
M  V30 3653 O 345.405 1.76945 -0.394987 0
M  V30 3654 C 345.453 0.321126 -3.59167 0
M  V30 3655 O 344.557 1.39927 -3.87936 0
M  V30 3656 H 343.898 -0.0184758 -0.663743 0
M  V30 3657 H 346.428 -0.678125 -1.93035 0
M  V30 3658 H 346.438 0.557906 -4.04168 0
M  V30 3659 H 345.113 -0.592007 -4.11665 0
M  V30 3660 H 343.69 1.14882 -3.54763 0
M  V30 3661 N 345.875 1.56104 -0.216619 0
M  V30 3662 C 346.838 2.18819 0.681962 0
M  V30 3663 C 347.838 1.14866 1.12528 0
M  V30 3664 O 349.028 1.40128 1.03488 0
M  V30 3665 C 346.16 2.80756 1.93362 0
M  V30 3666 H 347.353 2.99595 0.135254 0
M  V30 3667 H 344.906 1.56265 0.0330003 0
M  V30 3668 H 345.641 2.03837 2.52232 0
M  V30 3669 H 345.426 3.56876 1.62426 0
M  V30 3670 H 346.916 3.28844 2.57393 0
M  V30 3671 N 347.353 -0.0568162 1.57498 0
M  V30 3672 C 348.764 -0.606858 1.76562 0
M  V30 3673 C 349.115 -1.77114 0.844094 0
M  V30 3674 O 348.24 -2.16376 0.0318911 0
M  V30 3675 C 348.835 -1.10766 3.20182 0
M  V30 3676 C 347.394 -1.60344 3.40539 0
M  V30 3677 C 346.541 -0.529311 2.72201 0
M  V30 3678 H 349.492 0.169393 1.57793 0
M  V30 3679 H 349.513 -1.97602 3.25167 0
M  V30 3680 H 349.025 -0.26006 3.87228 0
M  V30 3681 H 347.126 -2.47379 2.78629 0
M  V30 3682 H 347.239 -1.67006 4.4905 0
M  V30 3683 H 345.603 -0.977893 2.35179 0
M  V30 3684 H 346.386 0.308352 3.41912 0
M  V30 3685 N 348.832 -1.54138 -0.328536 0
M  V30 3686 C 350.243 -1.63395 -0.903272 0
M  V30 3687 C 350.594 -0.524828 -1.8905 0
M  V30 3688 O 349.719 0.343068 -2.13663 0
M  V30 3689 C 350.314 -2.9618 -1.64507 0
M  V30 3690 C 348.873 -3.0765 -2.1686 0
M  V30 3691 C 348.02 -2.58933 -0.992416 0
M  V30 3692 H 350.971 -1.58344 -0.106253 0
M  V30 3693 H 350.992 -2.86061 -2.50897 0
M  V30 3694 H 350.504 -3.76884 -0.926302 0
M  V30 3695 H 348.605 -2.31611 -2.91868 0
M  V30 3696 H 348.718 -4.1337 -2.42202 0
M  V30 3697 H 347.082 -2.14706 -1.37016 0
M  V30 3698 H 347.865 -3.42089 -0.288041 0
M  V30 3699 N 350.31 0.590341 -1.46126 0
M  V30 3700 C 351.726 0.912917 -1.30912 0
M  V30 3701 C 351.926 1.99616 -0.274893 0
M  V30 3702 O 350.982 2.50397 0.325197 0
M  V30 3703 C 352.295 1.3375 -2.69317 0
M  V30 3704 C 353.843 1.45077 -2.77348 0
M  V30 3705 C 354.318 1.90904 -4.16317 0
M  V30 3706 N 355.809 1.9811 -4.18696 0
M  V30 3707 C 356.544 2.34828 -5.23109 0
M  V30 3708 N 356.04 2.70393 -6.37856 0
M  V30 3709 N 357.833 2.35317 -5.10473 0
M  V30 3710 H 349.984 -0.125358 -2.1203 0
M  V30 3711 H 352.247 0.00658481 -0.947977 0
M  V30 3712 H 351.953 0.615614 -3.4627 0
M  V30 3713 H 351.827 2.30058 -2.9892 0
M  V30 3714 H 354.214 2.16353 -2.00687 0
M  V30 3715 H 354.295 0.4704 -2.51438 0
M  V30 3716 H 353.939 1.20209 -4.9347 0
M  V30 3717 H 353.869 2.89886 -4.39629 0
M  V30 3718 H 356.36 1.73146 -3.359 0
M  V30 3719 H 356.673 2.97341 -7.13308 0
M  V30 3720 H 355.018 2.68048 -6.41229 0
M  V30 3721 H 358.209 2.0695 -4.19868 0
M  V30 3722 H 358.382 2.63605 -5.9196 0
M  V30 3723 N 351.788 1.33704 0.83433 0
M  V30 3724 C 352.735 1.24335 1.94447 0
M  V30 3725 C 353.705 0.120991 1.65659 0
M  V30 3726 O 354.89 0.300035 1.88426 0
M  V30 3727 C 352.03 0.993124 3.30501 0
M  V30 3728 C 351.143 2.20217 3.71657 0
M  V30 3729 C 350.278 1.88572 4.96602 0
M  V30 3730 C 349.317 3.05683 5.30306 0
M  V30 3731 N 348.454 2.73997 6.46429 0
M  V30 3732 H 353.294 2.1928 2.01792 0
M  V30 3733 H 350.831 1.09035 0.987404 0
M  V30 3734 H 352.789 0.828467 4.08892 0
M  V30 3735 H 351.419 0.0803902 3.227 0
M  V30 3736 H 350.471 2.47642 2.88752 0
M  V30 3737 H 351.783 3.07752 3.92543 0
M  V30 3738 H 350.937 1.68776 5.82752 0
M  V30 3739 H 349.676 0.982799 4.77695 0
M  V30 3740 H 348.681 3.26088 4.42659 0
M  V30 3741 H 349.906 3.96737 5.51159 0
M  V30 3742 H 347.852 1.86268 6.28999 0
M  V30 3743 H 347.769 3.55064 6.67432 0
M  V30 3744 H 349.037 2.57679 7.35678 0
M  V30 3745 N 353.266 -1.05314 1.17247 0
M  V30 3746 C 354.682 -1.30452 0.919473 0
M  V30 3747 C 354.882 -1.9703 -0.42209 0
M  V30 3748 O 353.938 -2.24311 -1.15935 0
M  V30 3749 C 355.251 -2.17551 2.07586 0
M  V30 3750 C 356.799 -2.30937 2.11275 0
M  V30 3751 C 357.274 -3.21396 3.26296 0
M  V30 3752 N 358.765 -3.28981 3.26076 0
M  V30 3753 C 359.5 -3.99095 4.11716 0
M  V30 3754 N 358.996 -4.71648 5.07465 0
M  V30 3755 N 360.789 -3.95247 3.9967 0
M  V30 3756 H 352.94 -0.604988 2.03602 0
M  V30 3757 H 355.203 -0.329368 0.888944 0
M  V30 3758 H 354.909 -1.75921 3.0454 0
M  V30 3759 H 354.783 -3.18182 2.02584 0
M  V30 3760 H 357.17 -2.71809 1.14907 0
M  V30 3761 H 357.251 -1.2994 2.20339 0
M  V30 3762 H 356.895 -2.81238 4.22927 0
M  V30 3763 H 356.825 -4.22395 3.14467 0
M  V30 3764 H 359.316 -2.77286 2.5675 0
M  V30 3765 H 359.629 -5.22705 5.6921 0
M  V30 3766 H 357.974 -4.70594 5.11435 0
M  V30 3767 H 361.165 -3.37691 3.24164 0
M  V30 3768 H 361.338 -4.4962 4.66632 0
M  V30 3769 N 354.744 -0.972509 -1.24016 0
M  V30 3770 C 355.707 -0.511403 -2.23422 0
M  V30 3771 C 356.707 0.394679 -1.55881 0
M  V30 3772 O 357.897 0.189469 -1.73167 0
M  V30 3773 C 355.029 0.258769 -3.39916 0
M  V30 3774 H 356.222 -1.39024 -2.6573 0
M  V30 3775 H 353.775 -0.757585 -1.36713 0
M  V30 3776 H 354.51 1.1545 -3.03054 0
M  V30 3777 H 354.295 -0.391522 -3.9014 0
M  V30 3778 H 355.785 0.570244 -4.13688 0
M  V30 3779 N 356.222 1.38976 -0.743202 0
M  V30 3780 C 357.638 1.53984 -0.419664 0
M  V30 3781 C 357.838 1.70837 1.0685 0
M  V30 3782 O 356.894 1.7135 1.8546 0
M  V30 3783 C 358.207 2.75287 -1.20985 0
M  V30 3784 C 359.755 2.89129 -1.19889 0
M  V30 3785 C 360.23 4.13381 -1.97181 0
M  V30 3786 N 361.721 4.20437 -1.94389 0
M  V30 3787 C 362.456 5.15547 -2.50996 0
M  V30 3788 N 361.952 6.16395 -3.16274 0
M  V30 3789 N 363.745 5.07822 -2.40984 0
M  V30 3790 H 355.896 1.26285 -1.7078 0
M  V30 3791 H 358.159 0.612689 -0.723406 0
M  V30 3792 H 357.865 2.69204 -2.26323 0
M  V30 3793 H 357.739 3.68184 -0.819759 0
M  V30 3794 H 360.126 2.947 -0.153606 0
M  V30 3795 H 360.207 1.97272 -1.62841 0
M  V30 3796 H 359.851 4.08572 -3.01714 0
M  V30 3797 H 359.781 5.04298 -1.51629 0
M  V30 3798 H 362.272 3.48205 -1.46839 0
M  V30 3799 H 362.585 6.85443 -3.56915 0
M  V30 3800 H 360.93 6.16758 -3.20367 0
M  V30 3801 H 364.121 4.27973 -1.89622 0
M  V30 3802 H 364.294 5.81767 -2.85397 0
M  V30 3803 N 357.7 0.491464 1.49741 0
M  V30 3804 C 358.948 -0.0563141 2.02022 0
M  V30 3805 C 359.269 -1.38363 1.37407 0
M  V30 3806 O 358.539 -1.88702 0.526166 0
M  V30 3807 H 357.119 -0.0238014 0.746621 0
M  V30 3808 H 359.781 0.646533 1.83864 0
M  V30 3809 H 358.877 -0.192967 3.11503 0
M  V30 3810 N 359.178 -1.55987 0.224894 0
M  V30 3811 C 360.589 -1.84553 -0.282345 0
M  V30 3812 C 360.94 -1.14634 -1.59227 0
M  V30 3813 O 360.065 -0.417155 -2.12341 0
M  V30 3814 C 360.66 -3.348 -0.519062 0
M  V30 3815 C 359.219 -3.63671 -0.970604 0
M  V30 3816 C 358.366 -2.77277 -0.0355261 0
M  V30 3817 H 361.317 -1.52245 0.448006 0
M  V30 3818 H 361.338 -3.55187 -1.36463 0
M  V30 3819 H 360.85 -3.8566 0.43449 0
M  V30 3820 H 358.951 -3.1827 -1.9374 0
M  V30 3821 H 359.064 -4.71631 -0.842698 0
M  V30 3822 H 357.428 -2.48846 -0.542927 0
M  V30 3823 H 358.211 -3.30937 0.913003 0
M  V30 3824 N 360.656 0.0484629 -1.57525 0
M  V30 3825 C 361.881 0.759177 -1.93006 0
M  V30 3826 C 362.306 1.69125 -0.823317 0
M  V30 3827 O 361.664 1.79931 0.222364 0
M  V30 3828 C 361.712 1.50899 -3.27509 0
M  V30 3829 O 360.816 2.62112 -3.18388 0
M  V30 3830 H 360.157 0.205564 -0.631379 0
M  V30 3831 H 362.687 0.00972959 -2.04598 0
M  V30 3832 H 362.697 1.88317 -3.6194 0
M  V30 3833 H 361.372 0.825269 -4.0763 0
M  V30 3834 H 359.949 2.27379 -2.95556 0
M  V30 3835 N 362.134 1.5431 0.320358 0
M  V30 3836 C 363.362 1.76636 1.07738 0
M  V30 3837 C 363.777 0.51649 1.81598 0
M  V30 3838 O 363.134 -0.512942 1.75143 0
M  V30 3839 C 363.185 2.96158 2.07299 0
M  V30 3840 O 362.906 4.16313 1.36438 0
M  V30 3841 C 364.407 3.3072 2.95193 0
M  V30 3842 H 361.627 0.589597 0.320339 0
M  V30 3843 H 364.171 2.01207 0.36551 0
M  V30 3844 H 362.326 2.73851 2.74016 0
M  V30 3845 H 362.74 4.83565 2.03138 0
M  V30 3846 H 364.214 4.17643 3.60941 0
M  V30 3847 H 364.691 2.48026 3.62463 0
M  V30 3848 H 365.297 3.55117 2.34034 0
M  V30 3849 N 363.613 -0.582584 1.46437 0
M  V30 3850 C 364.561 -1.71272 1.5738 0
M  V30 3851 C 365.555 -1.63524 0.44229 0
M  V30 3852 O 366.761 -1.69016 0.619166 0
M  V30 3853 H 363.136 -0.566273 0.494813 0
M  V30 3854 H 365.107 -1.59174 2.52401 0
M  V30 3855 C 363.856 -3.09658 1.58136 0
M  V30 3856 H 363.179 -3.16291 2.44541 0
M  V30 3857 H 364.619 -3.88494 1.69847 0
M  V30 3858 C 363.078 -3.3547 0.310026 0
M  V30 3859 O 363.608 -3.97199 -0.599683 0
M  V30 3860 N 361.814 -2.89925 0.197901 0
M  V30 3861 H 361.361 -2.39873 0.93909 0
M  V30 3862 H 361.319 -3.07568 -0.65185 0
M  V30 3863 N 365.091 -1.34144 -0.827227 0
M  V30 3864 C 366.039 -1.25364 -1.95925 0
M  V30 3865 C 367.033 -0.152608 -1.68711 0
M  V30 3866 O 368.239 -0.317311 -1.77181 0
M  V30 3867 H 364.614 -0.389342 -0.643364 0
M  V30 3868 H 366.585 -2.21045 -2.00454 0
M  V30 3869 C 365.334 -1.02158 -3.32354 0
M  V30 3870 H 364.657 -1.86111 -3.5384 0
M  V30 3871 H 366.097 -1.00048 -4.12027 0
M  V30 3872 C 364.556 0.275244 -3.35774 0
M  V30 3873 O 365.086 1.27806 -3.80826 0
M  V30 3874 N 363.292 0.306853 -2.88975 0
M  V30 3875 H 362.839 -0.509777 -2.52506 0
M  V30 3876 H 362.797 1.17432 -2.91646 0
M  V30 3877 N 366.569 1.04691 -1.17803 0
M  V30 3878 C 367.797 1.81446 -0.99423 0
M  V30 3879 C 368.212 1.83174 0.457459 0
M  V30 3880 O 367.569 1.26265 1.31771 0
M  V30 3881 C 367.62 3.27334 -1.5341 0
M  V30 3882 O 367.341 3.25798 -2.92895 0
M  V30 3883 C 368.842 4.20759 -1.39559 0
M  V30 3884 H 366.062 0.571599 -0.351447 0
M  V30 3885 H 368.606 1.31982 -1.56208 0
M  V30 3886 H 366.761 3.74052 -1.00815 0
M  V30 3887 H 367.175 4.17144 -3.17949 0
M  V30 3888 H 368.649 5.21084 -1.82141 0
M  V30 3889 H 369.126 4.37856 -0.343394 0
M  V30 3890 H 369.732 3.79901 -1.91195 0
M  V30 3891 N 368.047 0.979072 1.23499 0
M  V30 3892 C 368.977 0.537606 2.27227 0
M  V30 3893 C 369.958 -0.428539 1.64613 0
M  V30 3894 O 371.143 -0.322191 1.91509 0
M  V30 3895 C 368.273 -0.162052 3.46922 0
M  V30 3896 C 367.227 0.721242 4.21879 0
M  V30 3897 C 366.553 -0.110555 5.34586 0
M  V30 3898 C 367.853 2.01141 4.82016 0
M  V30 3899 H 369.547 1.40462 2.64406 0
M  V30 3900 H 367.093 0.67684 1.27102 0
M  V30 3901 H 369.046 -0.482192 4.18632 0
M  V30 3902 H 367.77 -1.06351 3.08799 0
M  V30 3903 H 366.429 1.02482 3.51984 0
M  V30 3904 H 366.077 -1.0125 4.92704 0
M  V30 3905 H 365.777 0.477325 5.85658 0
M  V30 3906 H 367.301 -0.425107 6.09118 0
M  V30 3907 H 368.715 1.75612 5.45741 0
M  V30 3908 H 367.112 2.54695 5.43369 0
M  V30 3909 H 368.182 2.69909 4.02836 0
M  V30 3910 N 369.525 -1.3858 0.750561 0
M  V30 3911 C 370.765 -2.02032 0.310258 0
M  V30 3912 C 371.129 -1.58288 -1.08668 0
M  V30 3913 O 372.33 -2.14049 -1.62593 0
M  V30 3914 C 370.601 -3.54856 0.425647 0
M  V30 3915 S 372.16 -4.38748 0.0674797 0
M  V30 3916 H 368.978 -0.700705 0.120554 0
M  V30 3917 H 371.58 -1.69134 0.980512 0
M  V30 3918 H 370.284 -3.84182 1.44335 0
M  V30 3919 H 369.815 -3.92527 -0.261894 0
M  V30 3920 H 371.83 -4.82835 -1.14388 0
M  V30 3921 N 371.003 -0.499398 -1.49478 0
M  V30 3922 C 372.249 0.0457576 -2.02748 0
M  V30 3923 C 372.582 1.36793 -1.37846 0
M  V30 3924 O 371.857 1.87596 -0.513601 0
M  V30 3925 C 372.14 0.199986 -3.59544 0
M  V30 3926 C 371.993 -1.1452 -4.34977 0
M  V30 3927 C 373.312 0.94137 -4.29914 0
M  V30 3928 H 370.431 0.0151552 -0.736844 0
M  V30 3929 H 373.073 -0.650498 -1.78518 0
M  V30 3930 H 371.223 0.793007 -3.8032 0
M  V30 3931 H 372.895 -1.77697 -4.25701 0
M  V30 3932 H 371.138 -1.73488 -3.97598 0
M  V30 3933 H 371.809 -0.990607 -5.43039 0
M  V30 3934 H 374.285 0.43844 -4.13784 0
M  V30 3935 H 373.161 1.01812 -5.39375 0
M  V30 3936 H 373.422 1.98471 -3.95046 0
M  V30 3937 N 372.481 1.55866 -0.233164 0
M  V30 3938 C 373.444 2.1953 0.658715 0
M  V30 3939 C 374.444 1.16053 1.11303 0
M  V30 3940 O 375.634 1.41218 1.01996 0
M  V30 3941 C 372.766 2.82791 1.90373 0
M  V30 3942 H 373.959 2.99721 0.10347 0
M  V30 3943 H 371.512 1.56291 0.0164245 0
M  V30 3944 H 372.247 2.06501 2.50056 0
M  V30 3945 H 372.032 3.58578 1.58632 0
M  V30 3946 H 373.522 3.31556 2.53891 0
M  V30 3947 N 373.959 -0.0401083 1.57549 0
M  V30 3948 C 374.907 -1.06264 2.06908 0
M  V30 3949 C 375.901 -1.38132 0.980608 0
M  V30 3950 O 377.107 -1.37167 1.16556 0
M  V30 3951 H 373.482 -0.360166 0.660139 0
M  V30 3952 H 375.453 -0.620445 2.91878 0
M  V30 3953 C 374.202 -2.35846 2.55483 0
M  V30 3954 H 373.525 -2.12183 3.38849 0
M  V30 3955 H 374.965 -3.05765 2.93741 0
M  V30 3956 C 373.424 -3.0404 1.45126 0
M  V30 3957 O 373.954 -3.93424 0.811216 0
M  V30 3958 N 372.16 -2.65184 1.18852 0
M  V30 3959 H 371.707 -1.92584 1.71083 0
M  V30 3960 H 371.665 -3.1113 0.452244 0
M  V30 3961 N 375.437 -1.54477 -0.31217 0
M  V30 3962 C 376.686 -1.72438 -1.04633 0
M  V30 3963 C 376.999 -0.511163 -1.88803 0
M  V30 3964 O 378.205 -0.572341 -2.65399 0
M  V30 3965 C 376.661 -3.05043 -1.9099 0
M  V30 3966 C 376.269 -4.33806 -1.11877 0
M  V30 3967 C 378.013 -3.32364 -2.64073 0
M  V30 3968 C 375.92 -5.57467 -1.97445 0
M  V30 3969 H 374.85 -0.642647 -0.394361 0
M  V30 3970 H 377.501 -1.80966 -0.303929 0
M  V30 3971 H 375.883 -2.90451 -2.69173 0
M  V30 3972 H 377.057 -4.59199 -0.383843 0
M  V30 3973 H 375.372 -4.13336 -0.504252 0
M  V30 3974 H 377.969 -4.21951 -3.28423 0
M  V30 3975 H 378.312 -2.50745 -3.32314 0
M  V30 3976 H 378.845 -3.47875 -1.92944 0
M  V30 3977 H 375.584 -6.41722 -1.33692 0
M  V30 3978 H 375.104 -5.36277 -2.6864 0
M  V30 3979 H 376.783 -5.94303 -2.5576 0
M  V30 3980 N 376.915 0.57481 -1.46744 0
M  V30 3981 C 378.331 0.898981 -1.31873 0
M  V30 3982 C 378.531 1.99313 -0.29605 0
M  V30 3983 O 377.587 2.50728 0.298621 0
M  V30 3984 C 378.9 1.30886 -2.7072 0
M  V30 3985 C 380.448 1.42127 -2.78871 0
M  V30 3986 C 380.923 1.86478 -4.18318 0
M  V30 3987 N 382.414 1.93658 -4.20774 0
M  V30 3988 C 383.149 2.29267 -5.2557 0
M  V30 3989 N 382.645 2.63612 -6.40688 0
M  V30 3990 N 384.438 2.29889 -5.1294 0
M  V30 3991 H 376.589 -0.147839 -2.11885 0
M  V30 3992 H 378.852 -0.00347013 -0.947994 0
M  V30 3993 H 378.558 0.578853 -3.46904 0
M  V30 3994 H 378.432 2.26874 -3.01343 0
M  V30 3995 H 380.819 2.14213 -2.0297 0
M  V30 3996 H 380.9 0.443705 -2.51922 0
M  V30 3997 H 380.544 1.14968 -4.94717 0
M  V30 3998 H 380.474 2.85207 -4.42679 0
M  V30 3999 H 382.965 1.69574 -3.37718 0
M  V30 4000 H 383.278 2.89759 -7.16421 0
M  V30 4001 H 381.623 2.61232 -6.44036 0
M  V30 4002 H 384.814 2.02485 -4.22039 0
M  V30 4003 H 384.987 2.57312 -5.94722 0
M  V30 4004 N 378.394 1.34581 0.820102 0
M  V30 4005 C 379.619 1.30333 1.61332 0
M  V30 4006 C 380.044 -0.119339 1.87721 0
M  V30 4007 O 379.402 -1.08197 1.45475 0
M  V30 4008 C 379.45 2.10258 2.92957 0
M  V30 4009 O 378.554 1.47404 3.85157 0
M  V30 4010 H 377.895 0.447488 0.490561 0
M  V30 4011 H 380.425 1.77425 1.01889 0
M  V30 4012 H 380.435 2.21718 3.42498 0
M  V30 4013 H 379.11 3.13693 2.73074 0
M  V30 4014 H 377.687 1.44703 3.43679 0
M  V30 4015 N 379.872 -1.04064 1.18357 0
M  V30 4016 C 381.118 -1.77528 0.980397 0
M  V30 4017 C 381.451 -1.87948 -0.48879 0
M  V30 4018 O 380.726 -1.3876 -1.36293 0
M  V30 4019 C 381.009 -3.20797 1.63588 0
M  V30 4020 C 380.862 -3.1832 3.17793 0
M  V30 4021 C 382.181 -4.18911 1.34914 0
M  V30 4022 H 379.3 -0.644443 0.357578 0
M  V30 4023 H 381.942 -1.2156 1.46024 0
M  V30 4024 H 380.092 -3.68586 1.22788 0
M  V30 4025 H 381.764 -2.78521 3.67728 0
M  V30 4026 H 380.007 -2.56351 3.49952 0
M  V30 4027 H 380.678 -4.19489 3.58794 0
M  V30 4028 H 383.154 -3.7967 1.70265 0
M  V30 4029 H 382.03 -5.17374 1.83346 0
M  V30 4030 H 382.291 -4.41262 0.272027 0
M  V30 4031 N 381.35 -0.985608 -1.22978 0
M  V30 4032 C 382.627 -0.573599 -1.87001 0
M  V30 4033 C 383.007 0.949213 -1.88555 0
M  V30 4034 O 382.355 1.82811 -1.37086 0
M  V30 4035 C 382.565 -1.18564 -3.28243 0
M  V30 4036 C 383.913 -1.28163 -4.04796 0
M  V30 4037 O 384.937 -1.13949 -3.37482 0
M  V30 4038 O 383.796 -1.50832 -5.25273 0
M  V30 4039 H 380.89 -0.193868 -0.803955 0
M  V30 4040 H 383.436 -1.08102 -1.30813 0
M  V30 4041 H 382.208 -2.22758 -3.21706 0
M  V30 4042 H 381.831 -0.663363 -3.92027 0
M  V30 4043 N 382.828 1.3818 -0.7579 0
M  V30 4044 C 384.053 2.04827 -0.325679 0
M  V30 4045 C 384.478 1.56788 1.03919 0
M  V30 4046 O 383.836 0.721811 1.66312 0
M  V30 4047 C 383.884 3.58774 -0.362447 0
M  V30 4048 O 382.988 4.07372 0.642033 0
M  V30 4049 H 382.329 0.64833 -0.143402 0
M  V30 4050 H 384.859 1.7677 -1.03023 0
M  V30 4051 H 384.869 4.07434 -0.214844 0
M  V30 4052 H 383.544 3.93096 -1.35824 0
M  V30 4053 H 382.121 3.70068 0.458688 0
M  V30 4054 N 384.306 0.507319 1.49211 0
M  V30 4055 C 385.534 -0.0315749 2.06876 0
M  V30 4056 C 385.949 -1.30241 1.36685 0
M  V30 4057 O 385.306 -1.76937 0.447152 0
M  V30 4058 C 385.357 -0.282627 3.60393 0
M  V30 4059 O 385.078 0.937835 4.27944 0
M  V30 4060 C 386.579 -0.864453 4.3479 0
M  V30 4061 H 383.799 0.0233048 0.670595 0
M  V30 4062 H 386.343 0.706484 1.91909 0
M  V30 4063 H 384.498 -0.97068 3.75042 0
M  V30 4064 H 384.912 0.704567 5.19746 0
M  V30 4065 H 386.386 -0.989664 5.43056 0
M  V30 4066 H 386.863 -1.86382 3.97692 0
M  V30 4067 H 387.469 -0.213672 4.24763 0
M  V30 4068 N 385.784 -1.5574 0.241426 0
M  V30 4069 C 387.033 -1.97986 -0.385295 0
M  V30 4070 C 387.346 -1.13267 -1.59468 0
M  V30 4071 O 388.552 -1.45501 -2.2922 0
M  V30 4072 C 387.008 -3.52275 -0.736884 0
M  V30 4073 C 386.616 -4.45726 0.450796 0
M  V30 4074 C 388.36 -4.03189 -1.3281 0
M  V30 4075 C 386.267 -5.91352 0.0756662 0
M  V30 4076 H 385.197 -0.739386 -0.147731 0
M  V30 4077 H 387.848 -1.80308 0.340779 0
M  V30 4078 H 386.23 -3.65628 -1.52094 0
M  V30 4079 H 387.404 -4.44131 1.22819 0
M  V30 4080 H 385.719 -4.05264 0.956573 0
M  V30 4081 H 388.316 -5.09505 -1.62201 0
M  V30 4082 H 388.659 -3.50212 -2.25071 0
M  V30 4083 H 389.192 -3.93141 -0.607069 0
M  V30 4084 H 385.931 -6.48354 0.965272 0
M  V30 4085 H 385.451 -5.96095 -0.665635 0
M  V30 4086 H 387.13 -6.46084 -0.344075 0
M  V30 4087 N 387.262 0.0317525 -1.57568 0
M  V30 4088 C 388.21 1.05165 -2.07468 0
M  V30 4089 C 389.204 1.3761 -0.98792 0
M  V30 4090 O 390.41 1.36546 -1.17282 0
M  V30 4091 H 386.785 0.35666 -0.66204 0
M  V30 4092 H 388.756 0.604958 -2.92203 0
M  V30 4093 C 387.505 2.34488 -2.56731 0
M  V30 4094 H 386.828 2.10383 -3.39969 0
M  V30 4095 H 388.268 3.04203 -2.95358 0
M  V30 4096 C 386.727 3.03266 -1.46736 0
M  V30 4097 O 387.257 3.92988 -0.832069 0
M  V30 4098 N 385.463 2.6455 -1.20256 0
M  V30 4099 H 385.01 1.91674 -1.72102 0
M  V30 4100 H 384.968 3.10886 -0.468737 0
M  V30 4101 N 388.74 1.54641 0.303973 0
M  V30 4102 C 389.688 1.86137 1.39484 0
M  V30 4103 C 390.682 0.734854 1.52631 0
M  V30 4104 O 391.888 0.918803 1.54784 0
M  V30 4105 H 388.263 0.590324 0.465856 0
M  V30 4106 H 390.234 2.77324 1.10154 0
M  V30 4107 C 388.983 2.12274 2.75382 0
M  V30 4108 H 388.306 2.98429 2.66046 0
M  V30 4109 H 389.746 2.38254 3.5073 0
M  V30 4110 C 388.205 0.920365 3.24085 0
M  V30 4111 O 388.735 0.139377 4.01458 0
M  V30 4112 N 386.941 0.726566 2.81371 0
M  V30 4113 H 386.488 1.36332 2.18567 0
M  V30 4114 H 386.446 -0.0763799 3.14307 0
M  V30 4115 N 390.218 -0.567019 1.47046 0
M  V30 4116 C 391.467 -1.32091 1.5243 0
M  V30 4117 C 391.78 -1.94704 0.187021 0
M  V30 4118 O 392.986 -2.7124 0.118771 0
M  V30 4119 C 391.442 -2.39479 2.68659 0
M  V30 4120 C 391.05 -1.831 4.08874 0
M  V30 4121 C 392.794 -3.16111 2.83327 0
M  V30 4122 C 390.701 -2.8821 5.16419 0
M  V30 4123 H 389.631 -0.496629 0.56734 0
M  V30 4124 H 392.282 -0.603354 1.73297 0
M  V30 4125 H 390.664 -3.14105 2.41152 0
M  V30 4126 H 391.838 -1.14913 4.46242 0
M  V30 4127 H 390.153 -1.19085 3.99008 0
M  V30 4128 H 392.75 -3.94585 3.60842 0
M  V30 4129 H 393.093 -3.69686 1.91411 0
M  V30 4130 H 393.626 -2.48595 3.10556 0
M  V30 4131 H 390.365 -2.39504 6.10179 0
M  V30 4132 H 389.885 -3.54839 4.8358 0
M  V30 4133 H 391.564 -3.51881 5.42945 0
M  V30 4134 N 391.696 -1.35014 -0.812953 0
M  V30 4135 C 392.942 -1.2812 -1.57204 0
M  V30 4136 C 393.275 0.145869 -1.93651 0
M  V30 4137 O 392.55 1.0937 -1.60836 0
M  V30 4138 C 392.833 -2.18162 -2.86492 0
M  V30 4139 C 392.686 -3.69454 -2.56561 0
M  V30 4140 C 394.005 -2.07439 -3.88145 0
M  V30 4141 H 391.124 -0.466746 -0.570366 0
M  V30 4142 H 393.766 -1.65357 -0.935783 0
M  V30 4143 H 391.916 -1.86535 -3.40789 0
M  V30 4144 H 393.588 -4.11493 -2.08497 0
M  V30 4145 H 391.831 -3.9005 -1.89851 0
M  V30 4146 H 392.502 -4.27835 -3.48799 0
M  V30 4147 H 394.978 -2.35228 -3.4323 0
M  V30 4148 H 393.854 -2.7265 -4.76396 0
M  V30 4149 H 394.115 -1.05439 -4.29343 0
M  V30 4150 N 393.175 1.03435 -1.18907 0
M  V30 4151 C 394.403 1.80381 -1.01342 0
M  V30 4152 C 394.818 1.83649 0.438005 0
M  V30 4153 O 394.175 1.27655 1.30424 0
M  V30 4154 C 394.226 3.25689 -1.56873 0
M  V30 4155 O 393.947 3.22673 -2.96334 0
M  V30 4156 C 395.448 4.19255 -1.44014 0
M  V30 4157 H 392.668 0.56784 -0.35749 0
M  V30 4158 H 395.212 1.30317 -1.576 0
M  V30 4159 H 393.367 3.72962 -1.04777 0
M  V30 4160 H 393.781 4.13748 -3.22355 0
M  V30 4161 H 395.255 5.19123 -1.87657 0
M  V30 4162 H 395.732 4.37467 -0.389815 0
M  V30 4163 H 396.338 3.77851 -1.95214 0
M  V30 4164 N 394.653 0.992116 1.22453 0
M  V30 4165 C 395.93 0.583508 1.86694 0
M  V30 4166 C 396.31 -0.9392 1.89056 0
M  V30 4167 O 395.658 -1.82081 1.38053 0
M  V30 4168 C 395.868 1.20304 3.2761 0
M  V30 4169 C 397.216 1.30308 4.0411 0
M  V30 4170 O 398.24 1.15737 3.36873 0
M  V30 4171 O 397.099 1.53615 5.24466 0
M  V30 4172 H 394.193 0.198129 0.802916 0
M  V30 4173 H 396.739 1.08794 1.30238 0
M  V30 4174 H 395.511 2.24461 3.2052 0
M  V30 4175 H 395.134 0.684144 3.9167 0
M  V30 4176 N 396.131 -1.37776 0.765217 0
M  V30 4177 C 397.079 -2.32209 0.134798 0
M  V30 4178 C 398.073 -1.54607 -0.692315 0
M  V30 4179 O 399.279 -1.70052 -0.590109 0
M  V30 4180 H 395.654 -0.751591 0.0248005 0
M  V30 4181 H 397.625 -2.8297 0.947119 0
M  V30 4182 C 396.374 -3.39841 -0.735063 0
M  V30 4183 H 395.697 -3.99654 -0.107991 0
M  V30 4184 H 397.137 -4.08296 -1.14326 0
M  V30 4185 C 395.596 -2.79378 -1.88281 0
M  V30 4186 O 396.126 -2.69608 -2.97783 0
M  V30 4187 N 394.332 -2.37016 -1.68142 0
M  V30 4188 H 393.879 -2.45162 -0.790772 0
M  V30 4189 H 393.837 -1.96905 -2.45104 0
M  V30 4190 N 397.609 -0.515225 -1.4894 0
M  V30 4191 C 398.839 0.0205735 -2.0659 0
M  V30 4192 C 399.247 1.30064 -1.37405 0
M  V30 4193 O 398.59 1.78087 -0.450632 0
M  V30 4194 C 398.652 0.330124 -3.57981 0
M  V30 4195 C 398.316 -0.854295 -4.48944 0
M  V30 4196 C 399.313 -1.7487 -4.89609 0
M  V30 4197 C 396.998 -1.05712 -4.9105 0
M  V30 4198 C 398.992 -2.82996 -5.71132 0
M  V30 4199 C 396.679 -2.14154 -5.72347 0
M  V30 4200 C 397.677 -3.0263 -6.12294 0
M  V30 4201 O 397.365 -4.09198 -6.91962 0
M  V30 4202 H 397.097 -0.0236833 -0.675585 0
M  V30 4203 H 399.651 -0.715956 -1.92518 0
M  V30 4204 H 397.881 1.12044 -3.70112 0
M  V30 4205 H 399.57 0.806233 -3.97812 0
M  V30 4206 H 400.336 -1.60388 -4.57712 0
M  V30 4207 H 396.215 -0.377788 -4.59449 0
M  V30 4208 H 399.759 -3.52083 -6.02232 0
M  V30 4209 H 395.656 -2.28626 -6.03656 0
M  V30 4210 H 396.424 -4.06726 -7.10293 0
M  V30 4211 N 399.087 1.5561 -0.249682 0
M  V30 4212 C 400.035 2.22894 0.664906 0
M  V30 4213 C 401.029 1.21743 1.17792 0
M  V30 4214 O 402.235 1.39748 1.13449 0
M  V30 4215 H 398.61 0.715022 0.232912 0
M  V30 4216 H 400.581 2.98307 0.0742998 0
M  V30 4217 C 399.33 2.94424 1.84959 0
M  V30 4218 H 398.653 3.72031 1.46399 0
M  V30 4219 H 400.093 3.44862 2.4667 0
M  V30 4220 C 398.552 1.98454 2.72245 0
M  V30 4221 O 399.082 1.51939 3.71857 0
M  V30 4222 N 397.288 1.65496 2.38871 0
M  V30 4223 H 396.835 2.03517 1.57919 0
M  V30 4224 H 396.793 1.0155 2.97548 0
M  V30 4225 N 400.565 -0.0233959 1.57583 0
M  V30 4226 C 401.512 -1.02224 2.06927 0
M  V30 4227 C 402.482 -1.35575 0.959617 0
M  V30 4228 O 403.667 -1.45815 1.23055 0
M  V30 4229 C 400.807 -2.31636 2.5581 0
M  V30 4230 C 399.92 -2.04394 3.80588 0
M  V30 4231 C 399.055 -3.27717 4.18061 0
M  V30 4232 C 398.094 -2.96056 5.3574 0
M  V30 4233 N 397.231 -4.11847 5.68618 0
M  V30 4234 H 402.071 -0.594504 2.9201 0
M  V30 4235 H 399.608 -0.281921 1.44373 0
M  V30 4236 H 401.566 -3.07258 2.82221 0
M  V30 4237 H 400.196 -2.72122 1.73636 0
M  V30 4238 H 399.248 -1.19244 3.61227 0
M  V30 4239 H 400.56 -1.77042 4.66323 0
M  V30 4240 H 399.714 -4.11702 4.4563 0
M  V30 4241 H 398.453 -3.58188 3.30988 0
M  V30 4242 H 397.458 -2.10474 5.07918 0
M  V30 4243 H 398.683 -2.66857 6.24471 0
M  V30 4244 H 396.629 -4.42258 4.84504 0
M  V30 4245 H 396.546 -3.87938 6.48876 0
M  V30 4246 H 397.814 -4.96689 6.00766 0
M  V30 4247 N 402.043 -1.548 -0.295768 0
M  V30 4248 C 402.993 -1.82497 -1.3667 0
M  V30 4249 C 403.977 -0.682434 -1.45711 0
M  V30 4250 O 405.169 -0.943207 -1.49775 0
M  V30 4251 C 402.298 -2.08036 -2.73086 0
M  V30 4252 C 401.384 -3.28488 -2.68247 0
M  V30 4253 N 401.775 -4.48924 -2.33025 0
M  V30 4254 C 400.073 -3.3062 -2.99343 0
M  V30 4255 C 400.774 -5.30956 -2.37613 0
M  V30 4256 N 399.75 -4.68805 -2.75178 0
M  V30 4257 H 403.552 -2.73175 -1.0841 0
M  V30 4258 H 401.066 -1.5437 -0.504361 0
M  V30 4259 H 403.063 -2.26027 -3.5031 0
M  V30 4260 H 401.723 -1.18629 -3.02254 0
M  V30 4261 H 402.734 -4.75432 -2.05389 0
M  V30 4262 H 399.411 -2.51336 -3.33371 0
M  V30 4263 H 400.801 -6.37199 -2.13135 0
M  V30 4264 N 403.521 0.559213 -1.47345 0
M  V30 4265 C 404.453 1.68161 -1.55738 0
M  V30 4266 C 405.466 1.56636 -0.443744 0
M  V30 4267 O 406.655 1.6363 -0.713258 0
M  V30 4268 C 403.755 3.06611 -1.4437 0
M  V30 4269 C 402.928 3.4391 -2.70268 0
M  V30 4270 C 401.987 4.61515 -2.52765 0
M  V30 4271 O 401.013 4.66197 -3.26572 0
M  V30 4272 N 402.215 5.57883 -1.6046 0
M  V30 4273 H 404.98 1.61408 -2.52522 0
M  V30 4274 H 402.541 0.7458 -1.43699 0
M  V30 4275 H 404.533 3.83117 -1.30398 0
M  V30 4276 H 403.103 3.07602 -0.556766 0
M  V30 4277 H 402.323 2.56873 -2.99015 0
M  V30 4278 H 403.611 3.65605 -3.53851 0
M  V30 4279 H 403.009 5.56855 -0.996422 0
M  V30 4280 H 401.566 6.33723 -1.52441 0
M  V30 4281 N 404.999 1.35443 0.805782 0
M  V30 4282 C 406.415 1.15499 1.10146 0
M  V30 4283 C 406.615 -0.0319975 2.01475 0
M  V30 4284 O 405.671 -0.70236 2.42535 0
M  V30 4285 C 406.984 2.45833 1.73166 0
M  V30 4286 C 408.532 2.52047 1.85583 0
M  V30 4287 C 409.007 3.82427 2.52019 0
M  V30 4288 N 410.498 3.83682 2.59504 0
M  V30 4289 C 411.233 4.81294 3.11679 0
M  V30 4290 N 410.729 5.89294 3.64287 0
M  V30 4291 N 412.522 4.6873 3.1024 0
M  V30 4292 H 404.673 2.11469 0.198678 0
M  V30 4293 H 406.936 0.93594 0.150731 0
M  V30 4294 H 406.642 3.32874 1.13526 0
M  V30 4295 H 406.516 2.6044 2.72857 0
M  V30 4296 H 408.903 1.65435 2.44367 0
M  V30 4297 H 408.984 2.41354 0.847455 0
M  V30 4298 H 408.628 4.69437 1.93885 0
M  V30 4299 H 408.558 3.90409 3.53395 0
M  V30 4300 H 411.049 3.05648 2.22234 0
M  V30 4301 H 411.362 6.59768 4.02401 0
M  V30 4302 H 409.707 5.92985 3.62483 0
M  V30 4303 H 412.898 3.83496 2.68419 0
M  V30 4304 H 413.071 5.44965 3.50596 0
M  V30 4305 N 406.477 -1.02803 1.19454 0
M  V30 4306 C 407.893 -1.28473 0.946937 0
M  V30 4307 C 408.093 -1.97881 -0.380202 0
M  V30 4308 O 407.149 -2.26719 -1.11151 0
M  V30 4309 C 408.462 -2.13099 2.12154 0
M  V30 4310 C 410.01 -2.26404 2.16126 0
M  V30 4311 C 410.485 -3.14402 3.33039 0
M  V30 4312 N 411.976 -3.21991 3.32981 0
M  V30 4313 C 412.711 -3.90272 4.20089 0
M  V30 4314 N 412.207 -4.60777 5.17355 0
M  V30 4315 N 414 -3.8668 4.07964 0
M  V30 4316 H 406.151 -0.561665 2.04839 0
M  V30 4317 H 408.414 -0.310438 0.89573 0
M  V30 4318 H 408.12 -1.69422 3.08203 0
M  V30 4319 H 407.994 -3.13813 2.09287 0
M  V30 4320 H 410.381 -2.69311 1.20647 0
M  V30 4321 H 410.462 -1.25237 2.23045 0
M  V30 4322 H 410.106 -2.72204 4.28798 0
M  V30 4323 H 410.036 -4.1563 3.23356 0
M  V30 4324 H 412.527 -2.71778 2.62574 0
M  V30 4325 H 412.84 -5.10513 5.80169 0
M  V30 4326 H 411.185 -4.5964 5.21302 0
M  V30 4327 H 414.376 -3.30739 3.31254 0
M  V30 4328 H 414.549 -4.39621 4.76064 0
M  V30 4329 N 407.956 -0.998596 -1.21925 0
M  V30 4330 C 408.904 -0.546641 -2.26085 0
M  V30 4331 C 409.898 0.405576 -1.64473 0
M  V30 4332 O 411.104 0.277471 -1.77849 0
M  V30 4333 H 407.479 -0.158403 -0.735127 0
M  V30 4334 H 409.45 -1.43645 -2.61551 0
M  V30 4335 C 408.199 0.117388 -3.47502 0
M  V30 4336 H 407.522 -0.606277 -3.95176 0
M  V30 4337 H 408.962 0.396993 -4.22137 0
M  V30 4338 C 407.421 1.35455 -3.0847 0
M  V30 4339 O 407.951 2.44944 -3.18379 0
M  V30 4340 N 406.157 1.23191 -2.63196 0
M  V30 4341 H 405.704 0.341006 -2.55333 0
M  V30 4342 H 405.662 2.06071 -2.37449 0
M  V30 4343 N 409.434 1.37368 -0.772513 0
M  V30 4344 C 410.382 2.32134 -0.147111 0
M  V30 4345 C 411.376 1.54972 0.684106 0
M  V30 4346 O 412.582 1.70363 0.581083 0
M  V30 4347 H 408.957 0.751449 -0.028786 0
M  V30 4348 H 410.928 2.82464 -0.962112 0
M  V30 4349 C 409.677 3.40226 0.71703 0
M  V30 4350 H 409 3.99706 0.0867951 0
M  V30 4351 H 410.44 4.08897 1.12159 0
M  V30 4352 C 408.899 2.80372 1.86797 0
M  V30 4353 O 409.429 2.71183 2.96349 0
M  V30 4354 N 407.635 2.37904 1.66883 0
M  V30 4355 H 407.182 2.45578 0.777759 0
M  V30 4356 H 407.14 1.98202 2.44056 0
M  V30 4357 N 410.912 0.523116 1.48665 0
M  V30 4358 C 412.152 -0.0115588 2.04397 0
M  V30 4359 C 412.516 -1.32225 1.39214 0
M  V30 4360 O 413.717 -1.94253 1.85793 0
M  V30 4361 C 411.988 -0.138119 3.57133 0
M  V30 4362 S 413.547 -0.623849 4.34343 0
M  V30 4363 H 410.365 0.00877706 0.710946 0
M  V30 4364 H 412.967 0.702116 1.82457 0
M  V30 4365 H 411.671 0.820748 4.02109 0
M  V30 4366 H 411.202 -0.876377 3.83514 0
M  V30 4367 H 413.217 -1.8895 4.58816 0
M  V30 4368 N 412.39 -1.55475 0.257931 0
M  V30 4369 C 413.34 -2.18506 -0.651094 0
M  V30 4370 C 414.324 -1.14431 -1.13112 0
M  V30 4371 O 415.516 -1.40305 -1.07905 0
M  V30 4372 C 412.645 -2.89653 -1.84272 0
M  V30 4373 C 411.731 -4.00996 -1.38068 0
M  V30 4374 N 412.122 -5.01816 -0.633609 0
M  V30 4375 C 410.42 -4.13753 -1.66506 0
M  V30 4376 C 411.121 -5.80371 -0.392922 0
M  V30 4377 N 410.097 -5.3505 -0.960359 0
M  V30 4378 H 413.899 -2.93811 -0.0722883 0
M  V30 4379 H 411.413 -1.62286 0.0607256 0
M  V30 4380 H 413.41 -3.33245 -2.50506 0
M  V30 4381 H 412.07 -2.15854 -2.42564 0
M  V30 4382 H 413.081 -5.17128 -0.282626 0
M  V30 4383 H 409.758 -3.51133 -2.25858 0
M  V30 4384 H 411.148 -6.7159 0.204235 0
M  V30 4385 N 413.868 0.0150385 -1.57593 0
M  V30 4386 C 415.093 0.718067 -1.94573 0
M  V30 4387 C 415.518 1.6734 -0.859005 0
M  V30 4388 O 414.876 1.80362 0.184147 0
M  V30 4389 C 414.924 1.43918 -3.30636 0
M  V30 4390 O 414.028 2.55299 -3.23876 0
M  V30 4391 H 413.369 0.192125 -0.635597 0
M  V30 4392 H 415.899 -0.0336708 -2.04572 0
M  V30 4393 H 415.909 1.80598 -3.65853 0
M  V30 4394 H 414.584 0.738619 -4.09289 0
M  V30 4395 H 413.161 2.21058 -3.00312 0
M  V30 4396 N 415.346 1.54954 0.287554 0
M  V30 4397 C 416.309 1.86076 1.33823 0
M  V30 4398 C 417.309 0.734414 1.43049 0
M  V30 4399 O 418.499 1.00266 1.42452 0
M  V30 4400 C 415.631 2.05305 2.72144 0
M  V30 4401 H 416.824 2.79984 1.07465 0
M  V30 4402 H 414.377 1.47223 0.524902 0
M  V30 4403 H 415.112 1.1373 3.03704 0
M  V30 4404 H 414.897 2.873 2.66836 0
M  V30 4405 H 416.387 2.30706 3.48087 0
M  V30 4406 N 416.824 -0.551391 1.4764 0
M  V30 4407 C 417.787 -1.64007 1.60107 0
M  V30 4408 C 418.787 -1.53601 0.47576 0
M  V30 4409 O 419.977 -1.57655 0.740988 0
M  V30 4410 C 417.109 -3.03569 1.55108 0
M  V30 4411 H 418.302 -1.543 2.57161 0
M  V30 4412 H 415.855 -0.771776 1.35917 0
M  V30 4413 H 416.59 -3.18804 0.594519 0
M  V30 4414 H 416.375 -3.12532 2.36783 0
M  V30 4415 H 417.865 -3.82762 1.66982 0
M  V30 4416 N 418.302 -1.35869 -0.798587 0
M  V30 4417 C 419.53 -1.32722 -1.58722 0
M  V30 4418 C 419.945 0.0935631 -1.88568 0
M  V30 4419 O 419.302 1.04784 -1.49421 0
M  V30 4420 C 419.353 -2.13974 -2.91371 0
M  V30 4421 O 419.074 -3.50514 -2.62815 0
M  V30 4422 C 420.575 -2.18504 -3.85708 0
M  V30 4423 H 417.795 -0.45562 -0.492596 0
M  V30 4424 H 420.339 -1.78837 -0.991843 0
M  V30 4425 H 418.494 -1.71438 -3.47402 0
M  V30 4426 H 418.908 -3.92806 -3.47568 0
M  V30 4427 H 420.382 -2.79732 -4.75872 0
M  V30 4428 H 420.859 -1.18597 -4.22885 0
M  V30 4429 H 421.465 -2.61236 -3.35612 0
M  V30 4430 N 419.78 1.02168 -1.19998 0
M  V30 4431 C 421.191 1.57135 -1.00825 0
M  V30 4432 C 421.542 1.91276 0.436818 0
M  V30 4433 O 420.667 1.71679 1.3174 0
M  V30 4434 C 421.262 2.85514 -1.82393 0
M  V30 4435 C 419.821 3.37027 -1.67601 0
M  V30 4436 C 418.968 2.10388 -1.80644 0
M  V30 4437 H 421.919 0.846106 -1.34264 0
M  V30 4438 H 421.94 3.56711 -1.32429 0
M  V30 4439 H 421.452 2.60634 -2.87561 0
M  V30 4440 H 419.553 3.66878 -0.650485 0
M  V30 4441 H 419.666 4.09572 -2.4857 0
M  V30 4442 H 418.03 2.22601 -1.23778 0
M  V30 4443 H 418.813 1.8794 -2.87286 0
M  V30 4444 N 421.258 1.00505 1.21394 0
M  V30 4445 C 422.507 0.683159 1.89778 0
M  V30 4446 C 422.82 -0.789471 1.7896 0
M  V30 4447 O 424.026 -1.22344 2.42372 0
M  V30 4448 C 422.482 1.17146 3.40301 0
M  V30 4449 C 422.09 2.67017 3.5973 0
M  V30 4450 C 423.834 0.924461 4.14311 0
M  V30 4451 C 421.741 3.09387 5.04017 0
M  V30 4452 H 420.671 0.25183 0.710702 0
M  V30 4453 H 423.322 1.21622 1.37406 0
M  V30 4454 H 421.704 0.566451 3.91928 0
M  V30 4455 H 422.878 3.32968 3.18542 0
M  V30 4456 H 421.193 2.89732 2.99073 0
M  V30 4457 H 423.79 1.21658 5.20676 0
M  V30 4458 H 424.133 -0.139286 4.16067 0
M  V30 4459 H 424.666 1.49226 3.6875 0
M  V30 4460 H 421.405 4.14989 5.07409 0
M  V30 4461 H 420.925 2.48149 5.46061 0
M  V30 4462 H 422.604 3.01371 5.72525 0
M  V30 4463 N 422.737 -1.36956 0.779787 0
M  V30 4464 C 423.983 -1.99787 0.348281 0
M  V30 4465 C 424.316 -1.61756 -1.07465 0
M  V30 4466 O 423.591 -0.867639 -1.74075 0
M  V30 4467 C 423.874 -3.56597 0.50104 0
M  V30 4468 C 423.727 -4.04513 1.96697 0
M  V30 4469 C 425.046 -4.40008 -0.0898097 0
M  V30 4470 H 422.165 -0.725796 0.128022 0
M  V30 4471 H 424.807 -1.62514 0.984331 0
M  V30 4472 H 422.957 -3.88479 -0.0404347 0
M  V30 4473 H 424.629 -3.83161 2.56876 0
M  V30 4474 H 422.872 -3.56408 2.47297 0
M  V30 4475 H 423.543 -5.1352 2.02486 0
M  V30 4476 H 426.019 -4.14431 0.372293 0
M  V30 4477 H 424.895 -5.4888 0.0471605 0
M  V30 4478 H 425.156 -4.26035 -1.18096 0
M  V30 4479 N 424.215 -0.530993 -1.48385 0
M  V30 4480 C 425.147 0.268353 -2.27624 0
M  V30 4481 C 426.16 0.903525 -1.35426 0
M  V30 4482 O 427.349 0.781796 -1.60469 0
M  V30 4483 C 424.449 1.39535 -3.08842 0
M  V30 4484 C 423.622 0.861913 -4.28824 0
M  V30 4485 C 422.681 1.87016 -4.91845 0
M  V30 4486 O 421.707 1.4267 -5.5103 0
M  V30 4487 N 422.909 3.20238 -4.84178 0
M  V30 4488 H 425.674 -0.41123 -2.96865 0
M  V30 4489 H 423.235 -0.365387 -1.57723 0
M  V30 4490 H 425.227 2.06803 -3.47871 0
M  V30 4491 H 423.797 1.97859 -2.42014 0
M  V30 4492 H 423.017 0.0132126 -3.94198 0
M  V30 4493 H 424.305 0.484415 -5.06489 0
M  V30 4494 H 423.703 3.58932 -4.37246 0
M  V30 4495 H 422.26 3.83136 -5.27305 0
M  V30 4496 N 425.693 1.55336 -0.266172 0
M  V30 4497 C 426.623 2.25146 0.618981 0
M  V30 4498 C 427.604 1.23845 1.16604 0
M  V30 4499 O 428.789 1.52544 1.20183 0
M  V30 4500 C 425.919 2.96572 1.80728 0
M  V30 4501 C 424.873 4.04726 1.39215 0
M  V30 4502 C 424.199 4.63678 2.66283 0
M  V30 4503 C 425.499 5.19407 0.548942 0
M  V30 4504 H 427.193 2.99377 0.0368116 0
M  V30 4505 H 424.739 1.43991 0.0162651 0
M  V30 4506 H 426.692 3.44116 2.43232 0
M  V30 4507 H 425.416 2.19861 2.41514 0
M  V30 4508 H 424.075 3.57979 0.790351 0
M  V30 4509 H 423.723 3.83646 3.25308 0
M  V30 4510 H 423.423 5.367 2.39222 0
M  V30 4511 H 424.947 5.13967 3.29651 0
M  V30 4512 H 426.361 5.63059 1.07876 0
M  V30 4513 H 424.758 5.98936 0.373593 0
M  V30 4514 H 425.828 4.8295 -0.434394 0
M  V30 4515 N 427.171 -0.0066808 1.57599 0
M  V30 4516 C 428.103 -1.02827 2.04839 0
M  V30 4517 C 429.116 -1.31108 0.965113 0
M  V30 4518 O 430.305 -1.28202 1.24203 0
M  V30 4519 C 427.405 -2.36464 2.42771 0
M  V30 4520 C 426.578 -2.27219 3.73751 0
M  V30 4521 C 425.637 -3.43489 3.98625 0
M  V30 4522 O 424.663 -3.21976 4.69382 0
M  V30 4523 N 425.865 -4.66116 3.46 0
M  V30 4524 H 428.63 -0.625455 2.93101 0
M  V30 4525 H 426.191 -0.194198 1.60731 0
M  V30 4526 H 428.183 -3.13008 2.56531 0
M  V30 4527 H 426.753 -2.68512 1.60063 0
M  V30 4528 H 425.973 -1.35629 3.70133 0
M  V30 4529 H 427.261 -2.18208 4.59633 0
M  V30 4530 H 426.659 -4.86493 2.88688 0
M  V30 4531 H 425.216 -5.39949 3.65101 0
M  V30 4532 N 428.649 -1.55105 -0.279332 0
M  V30 4533 C 429.897 -1.75066 -1.00977 0
M  V30 4534 C 430.218 -0.551276 -1.87045 0
M  V30 4535 O 429.488 0.433984 -1.91032 0
M  V30 4536 H 428.068 -0.645578 -0.375816 0
M  V30 4537 H 430.73 -1.92497 -0.305089 0
M  V30 4538 H 429.826 -2.64894 -1.65038 0
M  V30 4539 N 430.127 0.543554 -1.4793 0
M  V30 4540 C 431.404 1.30458 -1.4574 0
M  V30 4541 C 431.784 2.1048 -0.161692 0
M  V30 4542 O 431.132 2.11831 0.856734 0
M  V30 4543 C 431.342 2.19754 -2.71126 0
M  V30 4544 C 432.69 2.80334 -3.18901 0
M  V30 4545 O 433.714 2.30049 -2.71948 0
M  V30 4546 O 432.573 3.71766 -4.00565 0
M  V30 4547 H 429.667 0.588117 -0.581418 0
M  V30 4548 H 432.213 0.561328 -1.60147 0
M  V30 4549 H 430.985 1.60316 -3.56952 0
M  V30 4550 H 430.608 3.01351 -2.59371 0
M  V30 4551 N 431.605 1.3629 0.791371 0
M  V30 4552 C 432.83 1.33726 1.58531 0
M  V30 4553 C 433.255 -0.0794933 1.87932 0
M  V30 4554 O 432.613 -1.05087 1.47738 0
M  V30 4555 C 432.661 2.16425 2.88431 0
M  V30 4556 O 431.765 1.5554 3.81944 0
M  V30 4557 H 431.106 0.457793 0.480959 0
M  V30 4558 H 433.636 1.79547 0.981031 0
M  V30 4559 H 433.646 2.28933 3.37718 0
M  V30 4560 H 432.321 3.19415 2.66359 0
M  V30 4561 H 430.898 1.51961 3.40532 0
M  V30 4562 N 433.083 -1.0153 1.20538 0
M  V30 4563 C 434.031 -2.12215 0.952235 0
M  V30 4564 C 435.025 -1.69123 -0.0968735 0
M  V30 4565 O 436.231 -1.7992 0.0536006 0
M  V30 4566 H 432.606 -0.693576 0.290613 0
M  V30 4567 H 434.577 -2.3075 1.89201 0
M  V30 4568 C 433.326 -3.43755 0.522287 0
M  V30 4569 H 432.649 -3.7734 1.32115 0
M  V30 4570 H 434.089 -4.22254 0.384389 0
M  V30 4571 C 432.548 -3.28088 -0.765489 0
M  V30 4572 O 433.078 -3.57921 -1.8236 0
M  V30 4573 N 431.284 -2.81333 -0.728011 0
M  V30 4574 H 430.831 -2.57255 0.133332 0
M  V30 4575 H 430.789 -2.71232 -1.58999 0
M  V30 4576 N 434.561 -1.01147 -1.20859 0
M  V30 4577 C 435.801 -0.706331 -1.91808 0
M  V30 4578 C 436.165 0.749736 -1.76757 0
M  V30 4579 O 437.366 1.16716 -2.42138 0
M  V30 4580 C 435.637 -1.12371 -3.39275 0
M  V30 4581 S 437.196 -0.939764 -4.28619 0
M  V30 4582 H 434.014 -0.257665 -0.662669 0
M  V30 4583 H 436.616 -1.29766 -1.46223 0
M  V30 4584 H 435.32 -2.17943 -3.47749 0
M  V30 4585 H 434.851 -0.524952 -3.89882 0
M  V30 4586 H 436.866 0.159556 -4.95943 0
M  V30 4587 N 436.039 1.36541 -0.78704 0
M  V30 4588 C 436.969 2.32659 -0.197992 0
M  V30 4589 C 437.95 1.56533 0.665697 0
M  V30 4590 O 439.135 1.84698 0.60001 0
M  V30 4591 C 436.265 3.40778 0.669901 0
M  V30 4592 C 435.219 4.27897 -0.0937039 0
M  V30 4593 C 434.545 5.27163 0.894629 0
M  V30 4594 C 435.845 5.06334 -1.28154 0
M  V30 4595 H 437.539 2.82171 -1.00099 0
M  V30 4596 H 435.085 1.35665 -0.482793 0
M  V30 4597 H 437.038 4.07008 1.09191 0
M  V30 4598 H 435.762 2.89827 1.50558 0
M  V30 4599 H 434.421 3.6322 -0.49666 0
M  V30 4600 H 434.069 4.72486 1.72527 0
M  V30 4601 H 433.769 5.86317 0.388149 0
M  V30 4602 H 435.293 5.96266 1.31525 0
M  V30 4603 H 436.707 5.65617 -0.93541 0
M  V30 4604 H 435.104 5.74888 -1.72115 0
M  V30 4605 H 436.174 4.38114 -2.07807 0
M  V30 4606 N 437.518 0.538854 1.48102 0
M  V30 4607 C 438.465 -0.219042 2.29758 0
M  V30 4608 C 439.435 -0.925562 1.37922 0
M  V30 4609 O 440.62 -0.924855 1.66886 0
M  V30 4610 C 437.76 -1.25452 3.2149 0
M  V30 4611 C 436.873 -0.555943 4.28408 0
M  V30 4612 C 436.008 -1.57512 5.0731 0
M  V30 4613 C 435.047 -0.860498 6.06021 0
M  V30 4614 N 434.184 -1.82564 6.77949 0
M  V30 4615 H 439.024 0.483449 2.94052 0
M  V30 4616 H 436.561 0.250247 1.44956 0
M  V30 4617 H 438.519 -1.86727 3.7308 0
M  V30 4618 H 437.149 -1.92528 2.591 0
M  V30 4619 H 436.201 0.170938 3.80016 0
M  V30 4620 H 437.513 0.00474616 4.988 0
M  V30 4621 H 436.667 -2.26191 5.62959 0
M  V30 4622 H 435.406 -2.16972 4.36778 0
M  V30 4623 H 434.411 -0.159686 5.49568 0
M  V30 4624 H 435.636 -0.271897 6.78555 0
M  V30 4625 H 433.582 -2.40915 6.10161 0
M  V30 4626 H 433.499 -1.31662 7.44447 0
M  V30 4627 H 434.767 -2.50414 7.38182 0
M  V30 4628 N 438.996 -1.55193 0.274407 0
M  V30 4629 C 440.236 -2.01488 -0.343778 0
M  V30 4630 C 440.6 -1.1586 -1.53103 0
M  V30 4631 O 441.801 -1.51732 -2.2188 0
M  V30 4632 C 440.072 -3.50134 -0.717021 0
M  V30 4633 S 441.631 -4.18417 -1.32184 0
M  V30 4634 H 438.449 -0.70291 -0.106948 0
M  V30 4635 H 441.051 -1.91446 0.396075 0
M  V30 4636 H 439.755 -4.10104 0.155947 0
M  V30 4637 H 439.286 -3.64159 -1.48835 0
M  V30 4638 H 441.301 -4.21984 -2.61044 0
M  V30 4639 N 440.474 -0.00167713 -1.576 0
M  V30 4640 C 441.721 0.68282 -1.90641 0
M  V30 4641 C 442.049 1.73686 -0.875415 0
M  V30 4642 O 441.304 1.95334 0.119575 0
M  V30 4643 C 441.603 1.36189 -3.30435 0
M  V30 4644 C 441.269 0.440887 -4.48739 0
M  V30 4645 C 439.931 0.187312 -4.80835 0
M  V30 4646 C 442.283 -0.193134 -5.20842 0
M  V30 4647 C 439.611 -0.70855 -5.82406 0
M  V30 4648 C 441.963 -1.07688 -6.23367 0
M  V30 4649 C 440.627 -1.33962 -6.53919 0
M  V30 4650 H 439.897 0.249862 -0.697603 0
M  V30 4651 H 442.544 -0.0575642 -1.91413 0
M  V30 4652 H 440.849 2.17636 -3.25794 0
M  V30 4653 H 442.546 1.89759 -3.5326 0
M  V30 4654 H 439.136 0.648694 -4.23663 0
M  V30 4655 H 443.32 -0.0102445 -4.96299 0
M  V30 4656 H 438.576 -0.920097 -6.04437 0
M  V30 4657 H 442.75 -1.57451 -6.78367 0
M  V30 4658 H 440.377 -2.03549 -7.32442 0
M  V30 4659 N 441.952 1.55251 0.271103 0
M  V30 4660 C 443.368 1.47133 0.618393 0
M  V30 4661 C 443.568 0.686994 1.89427 0
M  V30 4662 O 442.624 0.206609 2.51653 0
M  V30 4663 C 443.937 2.91361 0.743593 0
M  V30 4664 C 445.485 3.01587 0.837522 0
M  V30 4665 C 445.96 4.47073 0.994483 0
M  V30 4666 N 447.451 4.50909 1.05996 0
M  V30 4667 C 448.186 5.60698 1.20024 0
M  V30 4668 N 447.682 6.80348 1.30759 0
M  V30 4669 N 449.475 5.48444 1.23149 0
M  V30 4670 H 441.626 2.04698 -0.566784 0
M  V30 4671 H 443.889 0.928319 -0.192165 0
M  V30 4672 H 443.595 3.51483 -0.123493 0
M  V30 4673 H 443.469 3.40484 1.62328 0
M  V30 4674 H 445.856 2.4156 1.69507 0
M  V30 4675 H 445.937 2.55713 -0.0668086 0
M  V30 4676 H 445.581 5.07703 0.141582 0
M  V30 4677 H 445.511 4.90605 1.91349 0
M  V30 4678 H 448.002 3.6472 0.989316 0
M  V30 4679 H 448.315 7.59772 1.41303 0
M  V30 4680 H 446.66 6.83156 1.27761 0
M  V30 4681 H 449.851 4.53907 1.14394 0
M  V30 4682 H 450.024 6.34049 1.33738 0
M  V30 4683 N 443.43 -0.535701 1.48216 0
M  V30 4684 C 444.66 -1.3148 1.59363 0
M  V30 4685 C 445.068 -1.8753 0.250844 0
M  V30 4686 O 444.411 -1.66821 -0.769174 0
M  V30 4687 C 444.473 -2.50731 2.57632 0
M  V30 4688 C 444.137 -2.15811 4.02833 0
M  V30 4689 C 445.134 -1.71822 4.90686 0
M  V30 4690 C 442.819 -2.26509 4.48329 0
M  V30 4691 C 444.813 -1.3899 6.22062 0
M  V30 4692 C 442.5 -1.93289 5.79726 0
M  V30 4693 C 443.498 -1.49599 6.66415 0
M  V30 4694 O 443.186 -1.16812 7.95368 0
M  V30 4695 H 442.918 -0.406315 0.540263 0
M  V30 4696 H 445.472 -0.653569 1.94725 0
M  V30 4697 H 443.702 -3.19817 2.1738 0
M  V30 4698 H 445.391 -3.12797 2.58675 0
M  V30 4699 H 446.157 -1.63031 4.56778 0
M  V30 4700 H 442.036 -2.59471 3.81045 0
M  V30 4701 H 445.58 -1.04816 6.89681 0
M  V30 4702 H 441.477 -2.01718 6.13172 0
M  V30 4703 H 442.245 -1.30259 8.08069 0
M  V30 4704 N 444.908 -1.36708 -0.784132 0
M  V30 4705 C 446.324 -1.17237 -1.08294 0
M  V30 4706 C 446.524 -5.93947e-05 -2.015 0
M  V30 4707 O 445.58 0.663686 -2.43622 0
M  V30 4708 C 446.893 -2.48557 -1.69233 0
M  V30 4709 C 448.441 -2.54968 -1.8155 0
M  V30 4710 C 448.916 -3.86388 -2.45904 0
M  V30 4711 N 450.407 -3.87762 -2.53367 0
M  V30 4712 C 451.142 -4.86191 -3.03983 0
M  V30 4713 N 450.638 -5.95015 -3.54866 0
M  V30 4714 N 452.431 -4.73606 -3.02743 0
M  V30 4715 H 444.582 -2.11758 -0.16501 0
M  V30 4716 H 446.845 -0.93822 -0.135822 0
M  V30 4717 H 446.551 -3.34638 -1.08215 0
M  V30 4718 H 446.425 -2.64748 -2.68679 0
M  V30 4719 H 448.812 -1.69302 -2.41704 0
M  V30 4720 H 448.893 -2.42672 -0.80895 0
M  V30 4721 H 448.537 -4.72462 -1.86392 0
M  V30 4722 H 448.467 -3.95982 -3.4714 0
M  V30 4723 H 450.958 -3.09145 -2.17343 0
M  V30 4724 H 451.271 -6.66086 -3.91854 0
M  V30 4725 H 449.616 -5.98676 -3.53003 0
M  V30 4726 H 452.807 -3.87717 -2.62284 0
M  V30 4727 H 452.98 -5.50473 -3.41881 0
M  V30 4728 N 446.386 1.0089 -1.21074 0
M  V30 4729 C 447.316 2.1145 -0.990523 0
M  V30 4730 C 448.297 1.69897 0.0831699 0
M  V30 4731 O 449.482 1.94052 -0.0758853 0
M  V30 4732 C 446.612 3.42914 -0.550177 0
M  V30 4733 C 445.566 3.98244 -1.56799 0
M  V30 4734 C 444.892 5.25568 -0.984013 0
M  V30 4735 C 446.192 4.30752 -2.95381 0
M  V30 4736 H 447.886 2.3013 -1.91521 0
M  V30 4737 H 445.432 1.10592 -0.92225 0
M  V30 4738 H 447.385 4.19653 -0.383305 0
M  V30 4739 H 446.109 3.24014 0.41015 0
M  V30 4740 H 444.768 3.23621 -1.72236 0
M  V30 4741 H 444.416 5.02998 -0.0155216 0
M  V30 4742 H 444.116 5.63551 -1.66384 0
M  V30 4743 H 445.64 6.04955 -0.828378 0
M  V30 4744 H 447.054 4.98349 -2.8341 0
M  V30 4745 H 445.451 4.79869 -3.60341 0
M  V30 4746 H 446.521 3.39192 -3.46521 0
M  V30 4747 N 447.864 1.01787 1.20321 0
M  V30 4748 C 448.812 0.58254 2.25187 0
M  V30 4749 C 449.806 -0.379359 1.65098 0
M  V30 4750 O 451.012 -0.249142 1.78267 0
M  V30 4751 H 447.387 0.170078 0.732514 0
M  V30 4752 H 449.358 1.47788 2.59232 0
M  V30 4753 C 448.107 -0.0620885 3.47645 0
M  V30 4754 H 447.43 0.669069 3.94162 0
M  V30 4755 H 448.87 -0.329784 4.22716 0
M  V30 4756 C 447.329 -1.3053 3.10586 0
M  V30 4757 O 447.859 -2.39848 3.22236 0
M  V30 4758 N 446.065 -1.18988 2.65123 0
M  V30 4759 H 445.612 -0.300341 2.55843 0
M  V30 4760 H 445.57 -2.02267 2.40698 0
M  V30 4761 N 449.342 -1.36122 0.79427 0
M  V30 4762 C 450.619 -1.93398 0.292685 0
M  V30 4763 C 450.999 -1.72567 -1.21589 0
M  V30 4764 O 450.347 -1.08745 -2.00965 0
M  V30 4765 C 450.557 -3.42099 0.690614 0
M  V30 4766 C 451.905 -4.19231 0.673105 0
M  V30 4767 O 452.929 -3.50559 0.631389 0
M  V30 4768 O 451.788 -5.41732 0.720362 0
M  V30 4769 H 448.882 -0.823712 0.0736693 0
M  V30 4770 H 451.428 -1.45273 0.87714 0
M  V30 4771 H 450.2 -3.50938 1.73085 0
M  V30 4772 H 449.823 -3.97519 0.0803036 0
M  V30 4773 N 450.82 -0.546701 -1.47814 0
M  V30 4774 C 451.767 0.206854 -2.29871 0
M  V30 4775 C 452.737 0.918235 -1.38411 0
M  V30 4776 O 453.922 0.915991 -1.67375 0
M  V30 4777 C 451.062 1.23746 -3.22151 0
M  V30 4778 C 450.175 0.533216 -4.28697 0
M  V30 4779 C 449.31 1.5482 -5.08138 0
M  V30 4780 C 448.349 0.828347 -6.06469 0
M  V30 4781 N 447.486 1.78966 -6.78908 0
M  V30 4782 H 452.326 -0.499037 -2.93792 0
M  V30 4783 H 449.863 -0.25793 -1.44821 0
M  V30 4784 H 451.821 1.84746 -3.74065 0
M  V30 4785 H 450.451 1.91151 -2.60117 0
M  V30 4786 H 449.503 -0.191089 -3.7992 0
M  V30 4787 H 450.815 -0.0311987 -4.9879 0
M  V30 4788 H 449.969 2.23202 -5.6415 0
M  V30 4789 H 448.708 2.14652 -4.37922 0
M  V30 4790 H 447.713 0.130539 -5.49645 0
M  V30 4791 H 448.938 0.235907 -6.7869 0
M  V30 4792 H 446.884 2.37675 -6.1143 0
M  V30 4793 H 446.801 1.27712 -7.45135 0
M  V30 4794 H 448.069 2.46496 -7.395 0
M  V30 4795 N 452.299 1.55045 -0.282633 0
M  V30 4796 C 453.529 2.03872 0.334635 0
M  V30 4797 C 453.937 1.16018 1.49454 0
M  V30 4798 O 453.28 0.174449 1.8287 0
M  V30 4799 C 453.342 3.48791 0.870905 0
M  V30 4800 C 453.006 4.56715 -0.161338 0
M  V30 4801 C 454.003 5.10513 -0.983466 0
M  V30 4802 C 451.688 5.01417 -0.297745 0
M  V30 4803 C 453.682 6.07538 -1.92811 0
M  V30 4804 C 451.369 5.98265 -1.24586 0
M  V30 4805 C 452.367 6.51208 -2.05954 0
M  V30 4806 O 452.055 7.46162 -2.99162 0
M  V30 4807 H 451.787 0.671324 0.0793742 0
M  V30 4808 H 454.341 2.01169 -0.41473 0
M  V30 4809 H 452.571 3.48758 1.67047 0
M  V30 4810 H 454.26 3.80916 1.40207 0
M  V30 4811 H 455.026 4.76785 -0.888856 0
M  V30 4812 H 450.905 4.59849 0.325604 0
M  V30 4813 H 454.449 6.48787 -2.56363 0
M  V30 4814 H 450.346 6.31412 -1.34126 0
M  V30 4815 H 451.114 7.63903 -2.93929 0
M  V30 4816 N 453.777 0.010035 1.57597 0
M  V30 4817 C 454.724 -0.978122 2.09049 0
M  V30 4818 C 455.694 -1.33509 0.988159 0
M  V30 4819 O 456.879 -1.43172 1.26121 0
M  V30 4820 C 454.019 -2.26158 2.60666 0
M  V30 4821 C 453.132 -1.96275 3.84838 0
M  V30 4822 C 452.267 -3.18776 4.24918 0
M  V30 4823 C 451.306 -2.84625 5.41899 0
M  V30 4824 N 450.443 -3.99693 5.77226 0
M  V30 4825 H 455.283 -0.532431 2.93205 0
M  V30 4826 H 452.82 -0.251234 1.44939 0
M  V30 4827 H 454.778 -3.01202 2.88675 0
M  V30 4828 H 453.408 -2.68378 1.79369 0
M  V30 4829 H 452.46 -1.11555 3.63675 0
M  V30 4830 H 453.772 -1.67111 4.69974 0
M  V30 4831 H 452.926 -4.02157 4.54262 0
M  V30 4832 H 451.665 -3.51087 3.38511 0
M  V30 4833 H 450.67 -1.99653 5.12268 0
M  V30 4834 H 451.895 -2.53551 6.29991 0
M  V30 4835 H 449.841 -4.31882 4.93776 0
M  V30 4836 H 449.758 -3.74087 6.56959 0
M  V30 4837 H 451.026 -4.83834 6.11167 0
M  V30 4838 N 455.255 -1.55392 -0.262866 0
M  V30 4839 C 456.205 -1.85355 -1.32768 0
M  V30 4840 C 457.189 -0.713188 -1.44231 0
M  V30 4841 O 458.381 -0.974765 -1.47741 0
M  V30 4842 C 455.51 -2.13781 -2.68612 0
M  V30 4843 C 454.596 -3.34104 -2.61219 0
M  V30 4844 N 454.987 -4.53766 -2.2345 0
M  V30 4845 C 453.285 -3.36895 -2.92263 0
M  V30 4846 C 453.986 -5.35877 -2.26298 0
M  V30 4847 N 452.962 -4.74536 -2.65172 0
M  V30 4848 H 456.764 -2.75413 -1.02591 0
M  V30 4849 H 454.278 -1.55405 -0.471503 0
M  V30 4850 H 456.275 -2.33407 -3.45437 0
M  V30 4851 H 454.935 -1.25013 -2.99669 0
M  V30 4852 H 455.946 -4.79682 -1.95258 0
M  V30 4853 H 452.623 -2.58351 -3.27965 0
M  V30 4854 H 454.013 -6.41577 -1.99572 0
M  V30 4855 N 456.733 0.527833 -1.48498 0
M  V30 4856 C 457.663 1.64136 -1.66077 0
M  V30 4857 C 458.644 1.62286 -0.509625 0
M  V30 4858 O 459.829 1.79449 -0.742413 0
M  V30 4859 C 456.959 3.02717 -1.70234 0
M  V30 4860 C 455.913 3.19426 -2.8487 0
M  V30 4861 C 455.239 4.5909 -2.74118 0
M  V30 4862 C 456.539 3.01993 -4.26142 0
M  V30 4863 H 458.233 1.4968 -2.593 0
M  V30 4864 H 455.779 0.718654 -1.24785 0
M  V30 4865 H 457.732 3.80491 -1.8112 0
M  V30 4866 H 456.456 3.18201 -0.735911 0
M  V30 4867 H 455.115 2.4407 -2.73542 0
M  V30 4868 H 454.763 4.71413 -1.7544 0
M  V30 4869 H 454.463 4.71214 -3.51042 0
M  V30 4870 H 455.987 5.3896 -2.86974 0
M  V30 4871 H 457.401 3.69558 -4.38292 0
M  V30 4872 H 455.798 3.2561 -5.04082 0
M  V30 4873 H 456.868 1.98396 -4.42456 0
M  V30 4874 N 458.211 1.37122 0.776871 0
M  V30 4875 C 459.458 1.32047 1.53524 0
M  V30 4876 C 459.786 -0.0965631 1.9426 0
M  V30 4877 O 459.041 -1.06866 1.63945 0
M  V30 4878 C 459.34 2.20068 2.81611 0
M  V30 4879 C 459.006 3.68423 2.59953 0
M  V30 4880 C 457.668 4.08854 2.53755 0
M  V30 4881 C 460.02 4.62431 2.40431 0
M  V30 4882 C 457.348 5.41417 2.26018 0
M  V30 4883 C 459.7 5.95225 2.14219 0
M  V30 4884 C 458.364 6.34767 2.06462 0
M  V30 4885 H 457.634 0.483196 0.561785 0
M  V30 4886 H 460.281 1.69284 0.895268 0
M  V30 4887 H 458.586 1.75809 3.50141 0
M  V30 4888 H 460.283 2.13458 3.39465 0
M  V30 4889 H 456.873 3.36354 2.65638 0
M  V30 4890 H 461.057 4.32057 2.44213 0
M  V30 4891 H 456.313 5.71022 2.18504 0
M  V30 4892 H 460.487 6.67626 1.98112 0
M  V30 4893 H 458.114 7.37413 1.84733 0
M  V30 4894 N 459.689 -1.00246 1.21608 0
M  V30 4895 C 460.599 -2.12515 0.993709 0
M  V30 4896 C 461.615 -1.73913 -0.0549939 0
M  V30 4897 O 462.791 -2.00943 0.135619 0
M  V30 4898 C 459.856 -3.42083 0.563953 0
M  V30 4899 C 458.917 -3.94843 1.68516 0
M  V30 4900 C 458.15 -5.18226 1.27582 0
M  V30 4901 O 458.373 -5.70201 0.150506 0
M  V30 4902 O 457.307 -5.64497 2.0887 0
M  V30 4903 H 461.133 -2.34152 1.93407 0
M  V30 4904 H 458.718 -1.10891 1.00118 0
M  V30 4905 H 460.6 -4.20073 0.334194 0
M  V30 4906 H 459.275 -3.21828 -0.347665 0
M  V30 4907 H 458.182 -3.18068 1.96935 0
M  V30 4908 H 459.515 -4.19512 2.5743 0
M  V30 4909 N 461.167 -1.02423 -1.1978 0
M  V30 4910 C 462.097 -0.62157 -2.25075 0
M  V30 4911 C 463.078 0.367148 -1.6609 0
M  V30 4912 O 464.263 0.250892 -1.92573 0
M  V30 4913 C 461.393 0.0331826 -3.47284 0
M  V30 4914 C 460.347 -0.877323 -4.18912 0
M  V30 4915 C 459.673 -0.0879296 -5.34628 0
M  V30 4916 C 460.973 -2.18892 -4.74219 0
M  V30 4917 H 462.667 -1.50179 -2.59011 0
M  V30 4918 H 460.213 -0.723547 -1.24502 0
M  V30 4919 H 462.166 0.326488 -4.20133 0
M  V30 4920 H 460.89 0.948164 -3.12534 0
M  V30 4921 H 459.549 -1.15475 -3.47938 0
M  V30 4922 H 459.197 0.828941 -4.96123 0
M  V30 4923 H 458.897 -0.694359 -5.83483 0
M  V30 4924 H 460.421 0.198743 -6.10276 0
M  V30 4925 H 461.835 -1.95746 -5.38847 0
M  V30 4926 H 460.232 -2.74686 -5.33542 0
M  V30 4927 H 461.302 -2.84674 -3.92541 0
M  V30 4928 N 462.645 1.35699 -0.801477 0
M  V30 4929 C 463.608 2.28199 -0.213994 0
M  V30 4930 C 464.608 1.49359 0.595691 0
M  V30 4931 O 465.798 1.69186 0.414921 0
M  V30 4932 C 462.93 3.33587 0.702297 0
M  V30 4933 H 464.123 2.81666 -1.02976 0
M  V30 4934 H 461.676 1.45467 -0.571759 0
M  V30 4935 H 462.411 2.85297 1.54195 0
M  V30 4936 H 462.196 3.91906 0.123484 0
M  V30 4937 H 463.686 4.02638 1.10783 0
M  V30 4938 N 464.123 0.554532 1.47522 0
M  V30 4939 C 465.348 0.0322661 2.07375 0
M  V30 4940 C 465.773 -1.25079 1.40488 0
M  V30 4941 O 465.131 -1.74859 0.47896 0
M  V30 4942 C 465.179 -0.149397 3.6029 0
M  V30 4943 O 464.283 -1.21259 3.9417 0
M  V30 4944 H 463.624 0.0501228 0.662106 0
M  V30 4945 H 466.154 0.769452 1.8958 0
M  V30 4946 H 466.164 -0.364437 4.06369 0
M  V30 4947 H 464.839 0.787743 4.08372 0
M  V30 4948 H 463.416 -0.97825 3.5984 0
M  V30 4949 N 465.601 -1.54893 0.290851 0
M  V30 4950 C 466.826 -2.04804 -0.32712 0
M  V30 4951 C 467.251 -1.16721 -1.47506 0
M  V30 4952 O 466.609 -0.169107 -1.8051 0
M  V30 4953 C 466.657 -3.52268 -0.770689 0
M  V30 4954 O 465.761 -3.67236 -1.87647 0
M  V30 4955 H 465.102 -0.660789 -0.0652227 0
M  V30 4956 H 467.632 -2.00036 0.429739 0
M  V30 4957 H 467.642 -3.9393 -1.06223 0
M  V30 4958 H 466.317 -4.15843 0.069096 0
M  V30 4959 H 464.894 -3.37479 -1.58626 0
M  V30 4960 N 467.08 -0.0183926 -1.57589 0
M  V30 4961 C 468.308 0.673046 -1.95647 0
M  V30 4962 C 468.723 1.66275 -0.894312 0
M  V30 4963 O 468.08 1.82072 0.124975 0
M  V30 4964 C 468.131 1.38884 -3.33756 0
M  V30 4965 O 467.852 0.438806 -4.35897 0
M  V30 4966 C 469.353 2.1731 -3.86383 0
M  V30 4967 H 466.573 0.186292 -0.644621 0
M  V30 4968 H 469.117 -0.0749748 -2.04363 0
M  V30 4969 H 467.272 2.08835 -3.26293 0
M  V30 4970 H 467.686 0.945869 -5.15901 0
M  V30 4971 H 469.16 2.62863 -4.85394 0
M  V30 4972 H 469.637 3.00764 -3.20059 0
M  V30 4973 H 470.243 1.52339 -3.97081 0
M  V30 4974 N 468.558 1.5553 0.254621 0
M  V30 4975 C 469.804 1.7818 0.980989 0
M  V30 4976 C 470.159 0.586059 1.83257 0
M  V30 4977 O 469.452 -0.420889 1.8692 0
M  V30 4978 C 469.646 3.03891 1.88109 0
M  V30 4979 C 469.475 4.35578 1.11812 0
M  V30 4980 C 468.245 4.98497 0.826343 0
M  V30 4981 C 470.443 5.11869 0.499486 0
M  V30 4982 N 468.425 6.13888 0.0385095 0
M  V30 4983 C 469.796 6.1981 -0.153292 0
M  V30 4984 C 471.851 4.96216 0.409175 0
M  V30 4985 C 470.554 7.13801 -0.8877 0
M  V30 4986 C 472.58 5.90578 -0.311683 0
M  V30 4987 C 471.942 6.97922 -0.953129 0
M  V30 4988 H 468.041 0.704057 0.340335 0
M  V30 4989 H 470.625 1.93025 0.254855 0
M  V30 4990 H 468.796 2.90389 2.57932 0
M  V30 4991 H 470.528 3.14869 2.54244 0
M  V30 4992 H 467.283 4.59769 1.13621 0
M  V30 4993 H 467.707 6.76129 -0.343275 0
M  V30 4994 H 472.349 4.1331 0.890765 0
M  V30 4995 H 470.067 7.96214 -1.38092 0
M  V30 4996 H 473.653 5.80544 -0.382125 0
M  V30 4997 H 472.533 7.69681 -1.50203 0
M  V30 4998 N 470.036 -0.519951 1.48776 0
M  V30 4999 C 470.986 -1.61995 1.60442 0
M  V30 5000 C 471.97 -1.54155 0.460991 0
M  V30 5001 O 473.162 -1.62006 0.712965 0
M  V30 5002 C 470.291 -3.00683 1.65664 0
M  V30 5003 C 469.377 -3.1359 2.8552 0
M  V30 5004 N 469.768 -2.96441 4.09825 0
M  V30 5005 C 468.066 -3.44662 2.83062 0
M  V30 5006 C 468.767 -3.1303 4.90293 0
M  V30 5007 N 467.743 -3.41058 4.23297 0
M  V30 5008 H 471.545 -1.47362 2.54287 0
M  V30 5009 H 469.059 -0.725649 1.45286 0
M  V30 5010 H 471.056 -3.79712 1.72117 0
M  V30 5011 H 469.716 -3.16401 0.729425 0
M  V30 5012 H 470.727 -2.72999 4.40104 0
M  V30 5013 H 467.404 -3.66675 1.9964 0
M  V30 5014 H 468.794 -3.04424 5.98979 0
M  V30 5015 N 471.514 -1.37532 -0.769588 0
M  V30 5016 C 472.76 -1.34063 -1.52966 0
M  V30 5017 C 473.115 0.0737942 -1.92258 0
M  V30 5018 O 472.408 1.03291 -1.61374 0
M  V30 5019 C 472.602 -2.21558 -2.8044 0
M  V30 5020 C 472.431 -3.71367 -2.53608 0
M  V30 5021 C 471.201 -4.40464 -2.47628 0
M  V30 5022 C 473.399 -4.64177 -2.21459 0
M  V30 5023 N 471.381 -5.758 -2.12902 0
M  V30 5024 C 472.752 -5.87907 -1.9689 0
M  V30 5025 C 474.807 -4.52541 -2.07633 0
M  V30 5026 C 473.51 -7.01304 -1.59892 0
M  V30 5027 C 475.536 -5.65825 -1.72034 0
M  V30 5028 C 474.898 -6.88606 -1.48327 0
M  V30 5029 H 470.997 -0.545856 -0.559969 0
M  V30 5030 H 473.581 -1.72773 -0.897634 0
M  V30 5031 H 471.752 -1.85061 -3.41478 0
M  V30 5032 H 473.484 -2.09332 -3.46356 0
M  V30 5033 H 470.239 -3.93491 -2.63556 0
M  V30 5034 H 470.663 -6.47328 -1.9823 0
M  V30 5035 H 475.305 -3.58183 -2.24643 0
M  V30 5036 H 473.023 -7.95594 -1.4162 0
M  V30 5037 H 476.609 -5.58793 -1.61991 0
M  V30 5038 H 475.489 -7.74779 -1.21189 0
M  V30 5039 N 472.992 0.995999 -1.22138 0
M  V30 5040 C 473.955 2.06711 -0.990109 0
M  V30 5041 C 474.955 1.60744 0.0422978 0
M  V30 5042 O 476.145 1.73095 -0.195895 0
M  V30 5043 C 473.277 3.37288 -0.49491 0
M  V30 5044 H 474.47 2.28661 -1.94047 0
M  V30 5045 H 472.023 1.16711 -1.03963 0
M  V30 5046 H 472.758 3.21022 0.459948 0
M  V30 5047 H 472.543 3.71986 -1.23971 0
M  V30 5048 H 474.033 4.16103 -0.353253 0
M  V30 5049 N 474.47 1.03057 1.19235 0
M  V30 5050 C 475.695 0.74757 1.93458 0
M  V30 5051 C 476.12 -0.687648 1.7508 0
M  V30 5052 O 475.478 -1.47499 1.05422 0
M  V30 5053 C 475.526 1.10604 3.43219 0
M  V30 5054 O 474.63 0.225671 4.11782 0
M  V30 5055 H 473.971 0.276047 0.603899 0
M  V30 5056 H 476.501 1.3777 1.51263 0
M  V30 5057 H 476.511 1.06366 3.93891 0
M  V30 5058 H 475.186 2.15165 3.55917 0
M  V30 5059 H 473.763 0.326795 3.71465 0
M  V30 5060 N 475.948 -1.35272 0.808662 0
M  V30 5061 C 477.359 -1.81179 0.450688 0
M  V30 5062 C 477.71 -1.67143 -1.02751 0
M  V30 5063 O 476.835 -1.20325 -1.79864 0
M  V30 5064 C 477.43 -3.28943 0.811275 0
M  V30 5065 C 475.989 -3.72985 0.505871 0
M  V30 5066 C 475.136 -2.57229 1.03578 0
M  V30 5067 H 478.087 -1.2322 1.00012 0
M  V30 5068 H 478.108 -3.80342 0.109588 0
M  V30 5069 H 477.62 -3.39127 1.88718 0
M  V30 5070 H 475.721 -3.68349 -0.561209 0
M  V30 5071 H 475.834 -4.67677 1.03995 0
M  V30 5072 H 474.198 -2.50548 0.458005 0
M  V30 5073 H 474.981 -2.7019 2.11784 0
M  V30 5074 N 477.426 -0.562348 -1.47226 0
M  V30 5075 C 478.336 0.185466 -2.33866 0
M  V30 5076 C 479.352 0.906713 -1.48508 0
M  V30 5077 O 480.528 0.874458 -1.81425 0
M  V30 5078 C 477.593 1.19904 -3.25306 0
M  V30 5079 C 476.654 0.484669 -4.26555 0
M  V30 5080 C 475.887 1.44996 -5.13626 0
M  V30 5081 O 476.11 2.68515 -5.03245 0
M  V30 5082 O 475.044 0.971642 -5.94006 0
M  V30 5083 H 478.87 -0.525361 -2.99121 0
M  V30 5084 H 476.455 -0.322916 -1.45868 0
M  V30 5085 H 478.337 1.78399 -3.81774 0
M  V30 5086 H 477.012 1.8917 -2.62672 0
M  V30 5087 H 475.919 -0.141605 -3.73832 0
M  V30 5088 H 477.252 -0.166634 -4.91918 0
M  V30 5089 N 478.904 1.54736 -0.299062 0
M  V30 5090 C 479.867 2.22127 0.565012 0
M  V30 5091 C 480.867 1.20669 1.06281 0
M  V30 5092 O 482.057 1.45417 0.959145 0
M  V30 5093 C 479.189 2.90611 1.78208 0
M  V30 5094 H 480.382 2.99891 -0.0237448 0
M  V30 5095 H 477.935 1.5622 -0.0498788 0
M  V30 5096 H 478.67 2.16921 2.41072 0
M  V30 5097 H 478.455 3.64984 1.43281 0
M  V30 5098 H 479.945 3.42026 2.396 0
M  V30 5099 N 480.382 0.0267497 1.57577 0
M  V30 5100 C 481.793 -0.512413 1.79531 0
M  V30 5101 C 482.144 -1.72391 0.936791 0
M  V30 5102 O 481.269 -2.15903 0.146543 0
M  V30 5103 C 481.864 -0.936378 3.25603 0
M  V30 5104 C 480.423 -1.42067 3.4856 0
M  V30 5105 C 479.57 -0.384278 2.74624 0
M  V30 5106 H 482.521 0.252797 1.56674 0
M  V30 5107 H 482.542 -1.80088 3.35184 0
M  V30 5108 H 482.054 -0.0544332 3.88062 0
M  V30 5109 H 480.155 -2.32262 2.9135 0
M  V30 5110 H 480.268 -1.42968 4.57271 0
M  V30 5111 H 478.632 -0.851855 2.40032 0
M  V30 5112 H 479.415 0.489159 3.39797 0
M  V30 5113 N 481.861 -1.55662 -0.24637 0
M  V30 5114 C 482.811 -1.86753 -1.30795 0
M  V30 5115 C 483.795 -0.728445 -1.43466 0
M  V30 5116 O 484.987 -0.99038 -1.46699 0
M  V30 5117 C 482.116 -2.16618 -2.66329 0
M  V30 5118 C 481.202 -3.36855 -2.57661 0
M  V30 5119 N 481.593 -4.56111 -2.18624 0
M  V30 5120 C 479.891 -3.39976 -2.88673 0
M  V30 5121 C 480.592 -5.38247 -2.20601 0
M  V30 5122 N 479.568 -4.77322 -2.60124 0
M  V30 5123 H 483.37 -2.76486 -0.996642 0
M  V30 5124 H 480.884 -1.55896 -0.454994 0
M  V30 5125 H 482.881 -2.37057 -3.42942 0
M  V30 5126 H 481.541 -1.28185 -2.98327 0
M  V30 5127 H 482.552 -4.81726 -1.9016 0
M  V30 5128 H 479.229 -2.61815 -3.25206 0
M  V30 5129 H 480.619 -6.43657 -1.92756 0
M  V30 5130 N 483.339 0.512053 -1.4905 0
M  V30 5131 C 484.286 1.6148 -1.64902 0
M  V30 5132 C 485.256 1.58687 -0.490673 0
M  V30 5133 O 486.441 1.76842 -0.71636 0
M  V30 5134 C 483.581 2.99676 -1.71139 0
M  V30 5135 C 482.694 3.12568 -2.98203 0
M  V30 5136 C 481.829 4.4143 -2.95487 0
M  V30 5137 C 480.868 4.47916 -4.17179 0
M  V30 5138 N 480.005 5.68191 -4.12437 0
M  V30 5139 H 484.845 1.47271 -2.59066 0
M  V30 5140 H 482.382 0.716713 -1.28459 0
M  V30 5141 H 484.34 3.79761 -1.72736 0
M  V30 5142 H 482.97 3.12614 -0.804508 0
M  V30 5143 H 482.022 2.25618 -3.06269 0
M  V30 5144 H 483.334 3.1322 -3.88194 0
M  V30 5145 H 482.488 5.29825 -2.95585 0
M  V30 5146 H 481.227 4.43326 -2.03256 0
M  V30 5147 H 480.232 3.57925 -4.17337 0
M  V30 5148 H 481.457 4.47744 -5.1059 0
M  V30 5149 H 479.403 5.7095 -3.23036 0
M  V30 5150 H 479.32 5.70413 -4.96151 0
M  V30 5151 H 480.588 6.58823 -4.16621 0
M  V30 5152 N 484.817 1.37938 0.762283 0
M  V30 5153 C 485.765 1.34569 1.89721 0
M  V30 5154 C 486.759 0.232929 1.67791 0
M  V30 5155 O 487.965 0.401485 1.75465 0
M  V30 5156 H 484.34 0.419594 0.624055 0
M  V30 5157 H 486.311 2.30357 1.8968 0
M  V30 5158 C 485.06 1.17898 3.27101 0
M  V30 5159 H 484.383 2.02781 3.44558 0
M  V30 5160 H 485.823 1.19593 4.06784 0
M  V30 5161 C 484.282 -0.114728 3.36705 0
M  V30 5162 O 484.812 -1.0949 3.8649 0
M  V30 5163 N 483.018 -0.16863 2.9011 0
M  V30 5164 H 482.565 0.62967 2.49786 0
M  V30 5165 H 482.523 -1.03383 2.96916 0
M  V30 5166 N 486.295 -0.989507 1.22664 0
M  V30 5167 C 487.258 -2.06183 1.00106 0
M  V30 5168 C 488.258 -1.60765 -0.0337726 0
M  V30 5169 O 489.448 -1.72989 0.205072 0
M  V30 5170 C 486.58 -3.37021 0.51279 0
M  V30 5171 H 487.773 -2.27629 1.95256 0
M  V30 5172 H 485.326 -1.16158 1.0458 0
M  V30 5173 H 486.061 -3.21261 -0.442917 0
M  V30 5174 H 485.846 -3.71323 1.25942 0
M  V30 5175 H 487.336 -4.1591 0.375315 0
M  V30 5176 N 487.773 -1.03688 -1.18687 0
M  V30 5177 C 489.022 -0.733235 -1.879 0
M  V30 5178 C 489.335 0.741745 -1.8099 0
M  V30 5179 O 490.541 1.15875 -2.4553 0
M  V30 5180 C 488.997 -1.26127 -3.37076 0
M  V30 5181 C 488.605 -2.76461 -3.52524 0
M  V30 5182 C 490.349 -1.03398 -4.11715 0
M  V30 5183 C 488.256 -3.22642 -4.95637 0
M  V30 5184 H 487.186 -0.270584 -0.703776 0
M  V30 5185 H 489.837 -1.25222 -1.34133 0
M  V30 5186 H 488.219 -0.670165 -3.90288 0
M  V30 5187 H 489.393 -3.41296 -3.09602 0
M  V30 5188 H 487.708 -2.97559 -2.91286 0
M  V30 5189 H 490.305 -1.3542 -5.17267 0
M  V30 5190 H 490.648 0.0289246 -4.1629 0
M  V30 5191 H 491.181 -1.5895 -3.64664 0
M  V30 5192 H 487.92 -4.28296 -4.96228 0
M  V30 5193 H 487.44 -2.62539 -5.39289 0
M  V30 5194 H 489.119 -3.16444 -5.64333 0
M  V30 5195 N 489.251 1.34841 -0.815825 0
M  V30 5196 C 490.497 1.98793 -0.401129 0
M  V30 5197 C 490.83 1.64548 1.03139 0
M  V30 5198 O 490.105 0.913487 1.71714 0
M  V30 5199 C 490.388 3.55143 -0.595409 0
M  V30 5200 C 490.241 3.99155 -2.07352 0
M  V30 5201 C 491.56 4.40092 -0.0268823 0
M  V30 5202 H 488.679 0.722146 -0.14722 0
M  V30 5203 H 491.321 1.59847 -1.02707 0
M  V30 5204 H 489.471 3.8845 -0.0625779 0
M  V30 5205 H 491.143 3.76216 -2.66945 0
M  V30 5206 H 489.386 3.49726 -2.56659 0
M  V30 5207 H 490.057 5.07971 -2.1603 0
M  V30 5208 H 492.533 4.13298 -0.482042 0
M  V30 5209 H 491.409 5.48562 -0.19267 0
M  V30 5210 H 491.67 4.29016 1.06759 0
M  V30 5211 N 490.729 0.570148 1.46925 0
M  V30 5212 C 491.957 0.0561966 2.06824 0
M  V30 5213 C 492.372 -1.24326 1.42086 0
M  V30 5214 O 491.729 -1.74882 0.521794 0
M  V30 5215 C 491.78 -0.129517 3.61268 0
M  V30 5216 O 491.501 1.1185 4.23581 0
M  V30 5217 C 493.002 -0.679266 4.38065 0
M  V30 5218 H 490.222 0.0517261 0.669003 0
M  V30 5219 H 492.766 0.787243 1.8874 0
M  V30 5220 H 490.921 -0.810739 3.78822 0
M  V30 5221 H 491.335 0.924375 5.1629 0
M  V30 5222 H 492.809 -0.758445 5.46765 0
M  V30 5223 H 493.286 -1.69346 4.05239 0
M  V30 5224 H 493.892 -0.0333237 4.25287 0
M  V30 5225 N 492.207 -1.54576 0.307264 0
M  V30 5226 C 493.137 -2.26708 -0.55907 0
M  V30 5227 C 494.118 -1.26893 -1.1328 0
M  V30 5228 O 495.303 -1.55677 -1.16097 0
M  V30 5229 C 492.433 -3.01259 -1.72801 0
M  V30 5230 C 491.387 -4.08275 -1.28435 0
M  V30 5231 C 490.713 -4.70575 -2.53895 0
M  V30 5232 C 492.013 -5.2068 -0.411038 0
M  V30 5233 H 493.707 -2.9937 0.042576 0
M  V30 5234 H 491.253 -1.43983 0.0219173 0
M  V30 5235 H 493.206 -3.50444 -2.34023 0
M  V30 5236 H 491.93 -2.26187 -2.356 0
M  V30 5237 H 490.589 -3.59949 -0.695161 0
M  V30 5238 H 490.237 -3.92136 -3.15021 0
M  V30 5239 H 489.937 -5.42854 -2.24908 0
M  V30 5240 H 491.461 -5.22527 -3.15908 0
M  V30 5241 H 492.875 -5.65721 -0.929097 0
M  V30 5242 H 491.272 -5.99716 -0.214664 0
M  V30 5243 H 492.342 -4.81629 0.562287 0
M  V30 5244 N 493.685 -0.035106 -1.57561 0
M  V30 5245 C 494.913 0.652258 -1.9635 0
M  V30 5246 C 495.328 1.65317 -0.911897 0
M  V30 5247 O 494.685 1.82194 0.105657 0
M  V30 5248 C 494.736 1.35337 -3.35211 0
M  V30 5249 O 494.457 0.392548 -4.36338 0
M  V30 5250 C 495.958 2.13199 -3.88666 0
M  V30 5251 H 493.178 0.179444 -0.646561 0
M  V30 5252 H 495.722 -0.0966459 -2.04271 0
M  V30 5253 H 493.877 2.05362 -3.28489 0
M  V30 5254 H 494.291 0.891097 -5.16875 0
M  V30 5255 H 495.765 2.577 -4.88154 0
M  V30 5256 H 496.242 2.97353 -3.23231 0
M  V30 5257 H 496.848 1.48118 -3.98674 0
M  V30 5258 N 495.163 1.55791 0.238111 0
M  V30 5259 C 496.393 1.81834 0.980809 0
M  V30 5260 C 496.801 0.609741 1.79106 0
M  V30 5261 O 496.144 -0.431073 1.78571 0
M  V30 5262 C 496.206 3.01363 1.96011 0
M  V30 5263 C 495.87 4.37037 1.33597 0
M  V30 5264 C 496.867 5.14692 0.734063 0
M  V30 5265 C 494.552 4.83743 1.3527 0
M  V30 5266 C 496.546 6.37206 0.157208 0
M  V30 5267 C 494.233 6.06204 0.77199 0
M  V30 5268 C 495.231 6.82775 0.175282 0
M  V30 5269 O 494.919 8.02922 -0.396432 0
M  V30 5270 H 494.651 0.6088 0.293834 0
M  V30 5271 H 497.205 2.03702 0.263552 0
M  V30 5272 H 495.435 2.75273 2.71591 0
M  V30 5273 H 497.124 3.14422 2.56697 0
M  V30 5274 H 497.89 4.79722 0.713582 0
M  V30 5275 H 493.769 4.24129 1.80653 0
M  V30 5276 H 497.313 6.96915 -0.30917 0
M  V30 5277 H 493.21 6.4065 0.789828 0
M  V30 5278 H 493.978 8.17989 -0.289145 0
M  V30 5279 N 496.642 -0.504142 1.49319 0
M  V30 5280 C 497.867 -1.28729 1.62615 0
M  V30 5281 C 498.292 -1.85752 0.296309 0
M  V30 5282 O 497.65 -1.65704 -0.735649 0
M  V30 5283 C 497.698 -2.39561 2.69524 0
M  V30 5284 O 496.802 -3.43324 2.28478 0
M  V30 5285 H 496.143 -0.380172 0.544395 0
M  V30 5286 H 498.673 -0.603872 1.95485 0
M  V30 5287 H 498.683 -2.8537 2.91595 0
M  V30 5288 H 497.358 -1.97423 3.66056 0
M  V30 5289 H 495.935 -3.03455 2.16725 0
M  V30 5290 N 498.12 -1.38341 -0.754957 0
M  V30 5291 C 499.345 -1.37882 -1.5493 0
M  V30 5292 C 499.77 0.0296385 -1.88077 0
M  V30 5293 O 499.128 1.01133 -1.50472 0
M  V30 5294 C 499.176 -2.23996 -2.82592 0
M  V30 5295 O 498.28 -1.65612 -3.77686 0
M  V30 5296 H 497.621 -0.470384 -0.468652 0
M  V30 5297 H 500.151 -1.82084 -0.933082 0
M  V30 5298 H 500.161 -2.37806 -3.3153 0
M  V30 5299 H 498.836 -3.26365 -2.57796 0
M  V30 5300 H 497.413 -1.60936 -3.36384 0
M  V30 5301 N 499.598 0.982988 -1.23187 0
M  V30 5302 C 500.508 2.10907 -1.02739 0
M  V30 5303 C 501.524 1.73979 0.0273188 0
M  V30 5304 O 502.7 2.00702 -0.16757 0
M  V30 5305 C 499.765 3.41142 -0.618304 0
M  V30 5306 C 498.826 3.92112 -1.74777 0
M  V30 5307 C 498.059 5.16131 -1.3581 0
M  V30 5308 O 498.282 5.6989 -0.241201 0
M  V30 5309 O 497.216 5.61103 -2.17824 0
M  V30 5310 H 501.042 2.31046 -1.97108 0
M  V30 5311 H 498.627 1.09284 -1.01869 0
M  V30 5312 H 500.509 4.19488 -0.400982 0
M  V30 5313 H 499.184 3.2234 0.296421 0
M  V30 5314 H 498.091 3.14895 -2.0197 0
M  V30 5315 H 499.424 4.15364 -2.64071 0
M  V30 5316 N 501.076 1.04316 1.18135 0
M  V30 5317 C 501.986 0.646876 2.25505 0
M  V30 5318 C 503.002 -0.328008 1.7088 0
M  V30 5319 O 504.178 -0.182309 2.00573 0
M  V30 5320 C 501.243 0.0185664 3.46695 0
M  V30 5321 C 500.304 1.04277 4.16443 0
M  V30 5322 C 499.537 0.444352 5.31847 0
M  V30 5323 O 499.76 -0.748735 5.65465 0
M  V30 5324 O 498.694 1.17428 5.90334 0
M  V30 5325 H 502.52 1.54147 2.61672 0
M  V30 5326 H 500.105 0.814188 1.25265 0
M  V30 5327 H 501.987 -0.331068 4.20097 0
M  V30 5328 H 500.662 -0.849814 3.12346 0
M  V30 5329 H 499.569 1.44425 3.45098 0
M  V30 5330 H 500.902 1.882 4.54798 0
M  V30 5331 N 502.554 -1.34406 0.822964 0
M  V30 5332 C 503.486 -2.28305 0.202375 0
M  V30 5333 C 504.499 -1.5103 -0.60777 0
M  V30 5334 O 505.688 -1.73057 -0.437444 0
M  V30 5335 C 502.788 -3.30836 -0.734911 0
M  V30 5336 C 501.961 -4.37388 0.0324177 0
M  V30 5337 C 501.02 -5.1968 -0.825803 0
M  V30 5338 O 500.046 -5.68556 -0.270771 0
M  V30 5339 N 501.248 -5.39393 -2.14558 0
M  V30 5340 H 504.013 -2.82201 1.00909 0
M  V30 5341 H 501.574 -1.4693 0.67993 0
M  V30 5342 H 503.566 -3.82786 -1.31365 0
M  V30 5343 H 502.136 -2.77334 -1.44238 0
M  V30 5344 H 501.356 -3.86152 0.792469 0
M  V30 5345 H 502.644 -5.05702 0.560633 0
M  V30 5346 H 502.042 -5.01357 -2.62025 0
M  V30 5347 H 500.599 -5.94461 -2.67318 0
M  V30 5348 N 504.032 -0.577932 -1.46621 0
M  V30 5349 C 505.448 -0.239242 -1.57797 0
M  V30 5350 C 505.648 1.25843 -1.57371 0
M  V30 5351 O 504.704 2.03988 -1.48813 0
M  V30 5352 C 506.017 -0.884227 -2.87405 0
M  V30 5353 C 507.565 -0.857373 -3.01028 0
M  V30 5354 C 508.04 -1.48181 -4.33366 0
M  V30 5355 N 509.531 -1.44593 -4.40053 0
M  V30 5356 C 510.266 -1.89852 -5.41058 0
M  V30 5357 N 509.762 -2.43062 -6.48762 0
M  V30 5358 N 511.555 -1.80797 -5.3223 0
M  V30 5359 H 503.706 -1.55073 -1.45142 0
M  V30 5360 H 505.969 -0.647903 -0.692044 0
M  V30 5361 H 505.675 -1.93759 -2.93514 0
M  V30 5362 H 505.549 -0.389585 -3.75183 0
M  V30 5363 H 507.936 0.187357 -2.94505 0
M  V30 5364 H 508.017 -1.38999 -2.14739 0
M  V30 5365 H 507.661 -2.52572 -4.40647 0
M  V30 5366 H 507.591 -0.924464 -5.18422 0
M  V30 5367 H 510.082 -1.05694 -3.62819 0
M  V30 5368 H 510.395 -2.75466 -7.22038 0
M  V30 5369 H 508.74 -2.47085 -6.49595 0
M  V30 5370 H 511.931 -1.38989 -4.46989 0
M  V30 5371 H 512.104 -2.16385 -6.10804 0
M  V30 5372 N 505.51 1.54411 -0.315457 0
M  V30 5373 C 506.442 2.21527 0.588067 0
M  V30 5374 C 507.455 1.21263 1.08624 0
M  V30 5375 O 508.644 1.47777 1.00121 0
M  V30 5376 C 505.744 2.85963 1.81875 0
M  V30 5377 C 504.917 4.12291 1.46063 0
M  V30 5378 C 503.976 4.60396 2.54799 0
M  V30 5379 O 503.002 5.25265 2.19283 0
M  V30 5380 N 504.204 4.33935 3.85591 0
M  V30 5381 H 506.969 2.99697 0.013414 0
M  V30 5382 H 504.53 1.61308 -0.138295 0
M  V30 5383 H 506.522 3.15071 2.53993 0
M  V30 5384 H 505.092 2.11548 2.30144 0
M  V30 5385 H 504.312 3.90036 0.571445 0
M  V30 5386 H 505.6 4.9452 1.19695 0
M  V30 5387 H 504.998 3.81996 4.17248 0
M  V30 5388 H 503.555 4.67718 4.53964 0
M  V30 5389 N 506.988 0.0434614 1.5754 0
M  V30 5390 C 507.92 -0.962586 2.08007 0
M  V30 5391 C 508.933 -1.27972 1.00634 0
M  V30 5392 O 510.122 -1.24186 1.28219 0
M  V30 5393 C 507.222 -2.28621 2.50171 0
M  V30 5394 C 506.395 -2.15214 3.80791 0
M  V30 5395 C 505.454 -3.30633 4.09351 0
M  V30 5396 O 504.48 -3.0688 4.79388 0
M  V30 5397 N 505.682 -4.54873 3.60654 0
M  V30 5398 H 508.447 -0.531891 2.94942 0
M  V30 5399 H 506.008 -0.142965 1.61268 0
M  V30 5400 H 508 -3.04689 2.66359 0
M  V30 5401 H 506.57 -2.63283 1.68525 0
M  V30 5402 H 505.79 -1.23785 3.74261 0
M  V30 5403 H 507.078 -2.03475 4.66343 0
M  V30 5404 H 506.476 -4.77063 3.04019 0
M  V30 5405 H 505.033 -5.2806 3.82094 0
M  V30 5406 N 508.466 -1.55915 -0.229846 0
M  V30 5407 C 509.713 -1.78542 -0.955452 0
M  V30 5408 C 510.041 -0.610785 -1.84661 0
M  V30 5409 O 509.296 0.405213 -1.91459 0
M  V30 5410 C 509.595 -3.06845 -1.8325 0
M  V30 5411 C 509.261 -4.37395 -1.09528 0
M  V30 5412 C 507.923 -4.72868 -0.891598 0
M  V30 5413 C 510.275 -5.18029 -0.574046 0
M  V30 5414 C 507.603 -5.86496 -0.154655 0
M  V30 5415 C 509.955 -6.32423 0.149513 0
M  V30 5416 C 508.619 -6.66504 0.364519 0
M  V30 5417 H 507.889 -0.653333 -0.349625 0
M  V30 5418 H 510.536 -1.90183 -0.224235 0
M  V30 5419 H 508.841 -2.90291 -2.63132 0
M  V30 5420 H 510.538 -3.21553 -2.39592 0
M  V30 5421 H 507.128 -4.09538 -1.26399 0
M  V30 5422 H 511.312 -4.91066 -0.718899 0
M  V30 5423 H 506.568 -6.11396 0.0222356 0
M  V30 5424 H 510.742 -6.94137 0.560947 0
M  V30 5425 H 508.369 -7.54397 0.937495 0
M  V30 5426 N 509.944 0.496216 -1.49584 0
M  V30 5427 C 510.874 1.60576 -1.69521 0
M  V30 5428 C 511.855 1.61169 -0.543933 0
M  V30 5429 O 513.04 1.77834 -0.78031 0
M  V30 5430 C 510.17 2.99038 -1.76616 0
M  V30 5431 C 509.124 3.13312 -2.91581 0
M  V30 5432 C 508.45 4.53172 -2.83794 0
M  V30 5433 C 509.75 2.92886 -4.32452 0
M  V30 5434 H 511.444 1.44146 -2.62416 0
M  V30 5435 H 508.99 0.692024 -1.26282 0
M  V30 5436 H 510.943 3.76564 -1.8915 0
M  V30 5437 H 509.667 3.16568 -0.80324 0
M  V30 5438 H 508.326 2.38213 -2.78658 0
M  V30 5439 H 507.974 4.67585 -1.854 0
M  V30 5440 H 507.674 4.63662 -3.60958 0
M  V30 5441 H 509.198 5.32752 -2.98342 0
M  V30 5442 H 510.612 3.60178 -4.46032 0
M  V30 5443 H 509.009 3.14844 -5.10875 0
M  V30 5444 H 510.079 1.88966 -4.46565 0
M  V30 5445 N 511.423 1.38739 0.74761 0
M  V30 5446 C 512.371 1.36573 1.88283 0
M  V30 5447 C 513.365 0.250712 1.67534 0
M  V30 5448 O 514.571 0.420073 1.7503 0
M  V30 5449 H 510.946 0.42619 0.619569 0
M  V30 5450 H 512.917 2.32356 1.87226 0
M  V30 5451 C 511.666 1.21361 3.25832 0
M  V30 5452 H 510.989 2.06424 3.42388 0
M  V30 5453 H 512.429 1.23901 4.05493 0
M  V30 5454 C 510.888 -0.0790099 3.36807 0
M  V30 5455 O 511.418 -1.05385 3.8763 0
M  V30 5456 N 509.624 -0.13785 2.90273 0
M  V30 5457 H 509.171 0.656128 2.49104 0
M  V30 5458 H 509.129 -1.00228 2.97996 0
M  V30 5459 N 512.901 -0.976442 1.23707 0
M  V30 5460 C 514.126 -1.75875 1.09922 0
M  V30 5461 C 514.551 -1.84911 -0.34489 0
M  V30 5462 O 513.909 -1.31363 -1.24954 0
M  V30 5463 C 513.957 -3.16179 1.73388 0
M  V30 5464 O 513.061 -4.00124 0.99871 0
M  V30 5465 H 512.402 -0.540954 0.385052 0
M  V30 5466 H 514.932 -1.22546 1.6384 0
M  V30 5467 H 514.942 -3.66741 1.78788 0
M  V30 5468 H 513.617 -3.08917 2.78466 0
M  V30 5469 H 512.194 -3.58624 1.02193 0
M  V30 5470 N 514.379 -1.04941 -1.1758 0
M  V30 5471 C 515.625 -0.759112 -1.88057 0
M  V30 5472 C 515.958 0.711918 -1.8068 0
M  V30 5473 O 515.233 1.52035 -1.21308 0
M  V30 5474 C 515.516 -1.237 -3.38187 0
M  V30 5475 C 515.369 -2.77078 -3.54327 0
M  V30 5476 C 516.688 -0.834014 -4.32125 0
M  V30 5477 H 513.807 -0.277237 -0.682868 0
M  V30 5478 H 516.449 -1.30296 -1.38286 0
M  V30 5479 H 514.599 -0.774337 -3.80705 0
M  V30 5480 H 516.271 -3.31449 -3.20842 0
M  V30 5481 H 514.514 -3.16477 -2.96689 0
M  V30 5482 H 515.185 -3.05577 -4.59703 0
M  V30 5483 H 517.661 -1.23228 -3.97434 0
M  V30 5484 H 516.537 -1.19603 -5.35711 0
M  V30 5485 H 516.798 0.262195 -4.41322 0
M  V30 5486 N 515.857 1.33968 -0.830081 0
M  V30 5487 C 516.804 2.29387 -0.255008 0
M  V30 5488 C 517.774 1.53923 0.624243 0
M  V30 5489 O 518.959 1.82262 0.564372 0
M  V30 5490 C 516.099 3.4034 0.571209 0
M  V30 5491 C 515.212 4.30729 -0.331083 0
M  V30 5492 C 514.347 5.2879 0.505389 0
M  V30 5493 C 513.386 6.10819 -0.395843 0
M  V30 5494 N 512.523 7.00948 0.401979 0
M  V30 5495 H 517.363 2.77972 -1.07404 0
M  V30 5496 H 514.9 1.36785 -0.541133 0
M  V30 5497 H 516.858 4.03361 1.06562 0
M  V30 5498 H 515.488 2.9297 1.35529 0
M  V30 5499 H 514.54 3.68507 -0.943759 0
M  V30 5500 H 515.852 4.88181 -1.02377 0
M  V30 5501 H 515.006 5.97297 1.06399 0
M  V30 5502 H 513.745 4.71894 1.23155 0
M  V30 5503 H 512.75 5.41238 -0.966529 0
M  V30 5504 H 513.975 6.69797 -1.12023 0
M  V30 5505 H 511.921 6.46512 1.11168 0
M  V30 5506 H 511.838 7.55643 -0.232167 0
M  V30 5507 H 513.106 7.73774 0.943102 0
M  V30 5508 N 517.335 0.585699 1.46312 0
M  V30 5509 C 518.584 0.0701192 2.01578 0
M  V30 5510 C 518.897 -1.29889 1.46247 0
M  V30 5511 O 520.103 -1.90598 1.93351 0
M  V30 5512 C 518.559 0.0747499 3.59822 0
M  V30 5513 C 518.167 1.44226 4.24149 0
M  V30 5514 C 519.911 -0.38673 4.22735 0
M  V30 5515 C 517.818 1.40446 5.74481 0
M  V30 5516 H 516.748 0.0224441 0.753666 0
M  V30 5517 H 519.399 0.737789 1.68015 0
M  V30 5518 H 517.781 -0.659144 3.90476 0
M  V30 5519 H 518.955 2.19612 4.05101 0
M  V30 5520 H 517.27 1.84401 3.73343 0
M  V30 5521 H 519.867 -0.433853 5.32937 0
M  V30 5522 H 520.21 -1.40489 3.91878 0
M  V30 5523 H 520.743 0.293195 3.96718 0
M  V30 5524 H 517.482 2.39952 6.10003 0
M  V30 5525 H 517.002 0.692845 5.95785 0
M  V30 5526 H 518.681 1.11865 6.37256 0
M  V30 5527 N 518.813 -1.54241 0.323641 0
M  V30 5528 C 520.224 -1.85975 -0.164405 0
M  V30 5529 C 520.575 -1.24529 -1.51615 0
M  V30 5530 O 519.7 -0.551351 -2.09258 0
M  V30 5531 C 520.295 -3.37424 -0.305091 0
M  V30 5532 C 518.854 -3.69107 -0.737358 0
M  V30 5533 C 518.001 -2.76942 0.140884 0
M  V30 5534 H 520.952 -1.49088 0.543922 0
M  V30 5535 H 520.973 -3.63147 -1.13598 0
M  V30 5536 H 520.485 -3.82116 0.678876 0
M  V30 5537 H 518.586 -3.29947 -1.73107 0
M  V30 5538 H 518.699 -4.76035 -0.541053 0
M  V30 5539 H 517.063 -2.51795 -0.383572 0
M  V30 5540 H 517.846 -3.24461 1.12162 0
M  V30 5541 N 520.291 -0.0518155 -1.57515 0
M  V30 5542 C 521.702 0.483787 -1.80323 0
M  V30 5543 C 522.053 1.70879 -0.964099 0
M  V30 5544 O 521.178 2.15643 -0.180872 0
M  V30 5545 C 521.773 0.884459 -3.27052 0
M  V30 5546 C 520.332 1.36504 -3.50776 0
M  V30 5547 C 519.479 0.340539 -2.75201 0
M  V30 5548 H 522.43 -0.277691 -1.56252 0
M  V30 5549 H 522.451 1.74733 -3.38007 0
M  V30 5550 H 521.963 -0.00731093 -3.88099 0
M  V30 5551 H 520.064 2.27598 -2.95009 0
M  V30 5552 H 520.177 1.35675 -4.59488 0
M  V30 5553 H 518.541 0.81356 -2.41357 0
M  V30 5554 H 519.324 -0.543156 -3.38976 0
M  V30 5555 N 521.769 1.56035 0.221574 0
M  V30 5556 C 522.997 1.8313 0.962864 0
M  V30 5557 C 523.412 0.630934 1.77946 0
M  V30 5558 O 522.769 -0.400519 1.78051 0
M  V30 5559 C 522.82 3.08742 1.88045 0
M  V30 5560 O 522.541 4.24147 1.09686 0
M  V30 5561 C 524.042 3.48824 2.73563 0
M  V30 5562 H 521.262 0.608775 0.282194 0
M  V30 5563 H 523.806 2.03124 0.23681 0
M  V30 5564 H 521.961 2.90723 2.56045 0
M  V30 5565 H 522.375 4.95505 1.71974 0
M  V30 5566 H 523.849 4.39752 3.3365 0
M  V30 5567 H 524.326 2.70575 3.45956 0
M  V30 5568 H 524.932 3.69282 2.10976 0
M  V30 5569 N 523.247 -0.488276 1.49845 0
M  V30 5570 C 524.496 -1.23826 1.59217 0
M  V30 5571 C 524.809 -1.93439 0.289966 0
M  V30 5572 O 526.015 -2.70229 0.262382 0
M  V30 5573 C 524.471 -2.24902 2.80976 0
M  V30 5574 C 524.079 -1.6117 4.18005 0
M  V30 5575 C 525.823 -3.00648 2.99685 0
M  V30 5576 C 523.73 -2.60431 5.3097 0
M  V30 5577 H 522.66 -0.465858 0.592868 0
M  V30 5578 H 525.311 -0.510645 1.76252 0
M  V30 5579 H 523.693 -3.0088 2.57463 0
M  V30 5580 H 524.867 -0.910968 4.51706 0
M  V30 5581 H 523.182 -0.97767 4.0476 0
M  V30 5582 H 525.779 -3.74903 3.81251 0
M  V30 5583 H 526.122 -3.5902 2.10738 0
M  V30 5584 H 526.655 -2.31784 3.23297 0
M  V30 5585 H 523.394 -2.06823 6.22017 0
M  V30 5586 H 522.914 -3.28707 5.01709 0
M  V30 5587 H 524.593 -3.22606 5.60834 0
M  V30 5588 N 524.725 -1.39134 -0.740242 0
M  V30 5589 C 526.141 -1.20623 -1.0451 0
M  V30 5590 C 526.341 -0.0641651 -2.01398 0
M  V30 5591 O 525.397 0.585843 -2.4561 0
M  V30 5592 C 526.71 -2.53815 -1.6124 0
M  V30 5593 C 528.258 -2.60615 -1.73346 0
M  V30 5594 C 528.733 -3.94015 -2.33486 0
M  V30 5595 N 530.224 -3.95627 -2.40902 0
M  V30 5596 C 530.959 -4.95616 -2.88361 0
M  V30 5597 N 530.455 -6.06003 -3.35756 0
M  V30 5598 N 532.248 -4.82998 -2.87523 0
M  V30 5599 H 524.399 -2.12176 -0.0975576 0
M  V30 5600 H 526.662 -0.942066 -0.105904 0
M  V30 5601 H 526.368 -3.37911 -0.975144 0
M  V30 5602 H 526.242 -2.73162 -2.6012 0
M  V30 5603 H 528.629 -1.76906 -2.36195 0
M  V30 5604 H 528.71 -2.45123 -0.731336 0
M  V30 5605 H 528.354 -4.78153 -1.71267 0
M  V30 5606 H 528.284 -4.06825 -3.34366 0
M  V30 5607 H 530.775 -3.15903 -2.07398 0
M  V30 5608 H 531.088 -6.78215 -3.70464 0
M  V30 5609 H 529.433 -6.09604 -3.33778 0
M  V30 5610 H 532.624 -3.95866 -2.49816 0
M  V30 5611 H 532.797 -5.61072 -3.24196 0
M  V30 5612 N 526.204 0.969867 -1.24223 0
M  V30 5613 C 527.154 2.04913 -0.999732 0
M  V30 5614 C 528.138 1.60795 0.0580636 0
M  V30 5615 O 529.33 1.76317 -0.155392 0
M  V30 5616 C 526.459 3.37942 -0.604154 0
M  V30 5617 C 525.545 3.88628 -1.69791 0
M  V30 5618 N 525.936 4.12274 -2.93025 0
M  V30 5619 C 524.234 4.17268 -1.57492 0
M  V30 5620 C 524.935 4.53808 -3.63914 0
M  V30 5621 N 523.911 4.58855 -2.91468 0
M  V30 5622 H 527.713 2.21168 -1.93551 0
M  V30 5623 H 525.227 1.15349 -1.14317 0
M  V30 5624 H 527.224 4.14863 -0.411665 0
M  V30 5625 H 525.884 3.23075 0.324465 0
M  V30 5626 H 526.895 3.99789 -3.29225 0
M  V30 5627 H 523.572 4.11346 -0.714175 0
M  V30 5628 H 524.962 4.80534 -4.69614 0
M  V30 5629 N 527.682 1.05563 1.17022 0
M  V30 5630 C 528.629 0.659893 2.21165 0
M  V30 5631 C 529.599 -0.339813 1.62587 0
M  V30 5632 O 530.784 -0.230378 1.89404 0
M  V30 5633 C 527.924 0.0447297 3.45071 0
M  V30 5634 C 527.037 1.09372 4.17926 0
M  V30 5635 C 526.172 0.445481 5.29329 0
M  V30 5636 C 525.211 1.47852 5.93975 0
M  V30 5637 N 524.348 0.854172 6.96885 0
M  V30 5638 H 529.188 1.55243 2.54369 0
M  V30 5639 H 526.725 0.776336 1.24946 0
M  V30 5640 H 528.683 -0.329404 4.15898 0
M  V30 5641 H 527.313 -0.811244 3.1244 0
M  V30 5642 H 526.365 1.58564 3.45777 0
M  V30 5643 H 527.677 1.87773 4.62107 0
M  V30 5644 H 526.831 0.0179688 6.06697 0
M  V30 5645 H 525.57 -0.370481 4.86291 0
M  V30 5646 H 524.575 1.91601 5.15334 0
M  V30 5647 H 525.8 2.29645 6.39093 0
M  V30 5648 H 523.746 0.0587882 6.55974 0
M  V30 5649 H 523.663 1.57567 7.39397 0
M  V30 5650 H 524.931 0.451559 7.78191 0
M  V30 5651 N 529.16 -1.33526 0.837174 0
M  V30 5652 C 530.406 -1.9813 0.432704 0
M  V30 5653 C 530.739 -1.66168 -1.00508 0
M  V30 5654 O 530.014 -0.94069 -1.70239 0
M  V30 5655 C 530.297 -3.54151 0.651834 0
M  V30 5656 C 530.15 -3.95806 2.13676 0
M  V30 5657 C 531.469 -4.39993 0.0968937 0
M  V30 5658 H 528.588 -0.719713 0.15869 0
M  V30 5659 H 531.23 -1.58193 1.05237 0
M  V30 5660 H 529.38 -3.88301 0.124369 0
M  V30 5661 H 531.052 -3.71921 2.72896 0
M  V30 5662 H 529.295 -3.45599 2.62191 0
M  V30 5663 H 529.966 -5.0447 2.24084 0
M  V30 5664 H 532.442 -4.12479 0.547733 0
M  V30 5665 H 531.318 -5.48186 0.279917 0
M  V30 5666 H 531.579 -4.3066 -0.9992 0
M  V30 5667 N 530.638 -0.59345 -1.46 0
M  V30 5668 C 531.886 -0.082988 -2.0193 0
M  V30 5669 C 532.207 1.28569 -1.46612 0
M  V30 5670 O 531.477 1.84629 -0.654909 0
M  V30 5671 H 530.057 -0.0276882 -0.746487 0
M  V30 5672 H 532.719 -0.771657 -1.78973 0
M  V30 5673 H 531.815 -0.022079 -3.12092 0
M  V30 5674 N 532.116 1.54067 -0.331816 0
M  V30 5675 C 533.363 2.00715 0.268269 0
M  V30 5676 C 533.691 1.21986 1.51491 0
M  V30 5677 O 532.946 0.292309 1.93505 0
M  V30 5678 C 533.245 3.51634 0.639392 0
M  V30 5679 C 532.911 4.48018 -0.509019 0
M  V30 5680 C 531.573 4.74089 -0.824209 0
M  V30 5681 C 533.925 5.05237 -1.28003 0
M  V30 5682 C 531.253 5.54637 -1.91298 0
M  V30 5683 C 533.605 5.86972 -2.35895 0
M  V30 5684 C 532.269 6.11342 -2.67987 0
M  V30 5685 H 531.539 0.734469 0.0981667 0
M  V30 5686 H 534.186 1.8596 -0.457304 0
M  V30 5687 H 532.491 3.6416 1.44551 0
M  V30 5688 H 534.188 3.85175 1.11539 0
M  V30 5689 H 530.778 4.27851 -0.253287 0
M  V30 5690 H 534.962 4.8507 -1.04978 0
M  V30 5691 H 530.218 5.71747 -2.16599 0
M  V30 5692 H 534.392 6.30327 -2.96076 0
M  V30 5693 H 532.019 6.73544 -3.5248 0
M  V30 5694 N 533.594 0.0601682 1.57485 0
M  V30 5695 C 534.527 -0.94676 2.07634 0
M  V30 5696 C 535.505 -1.29837 0.978826 0
M  V30 5697 O 536.689 -1.40969 1.2514 0
M  V30 5698 C 533.816 -2.25822 2.52433 0
M  V30 5699 C 532.862 -2.05901 3.73507 0
M  V30 5700 S 533.695 -1.32907 5.18745 0
M  V30 5701 C 534.851 -2.65356 5.66866 0
M  V30 5702 H 535.084 -0.520003 2.92717 0
M  V30 5703 H 532.617 -0.152319 1.53647 0
M  V30 5704 H 534.575 -3.01201 2.78905 0
M  V30 5705 H 533.236 -2.65624 1.67639 0
M  V30 5706 H 532.429 -3.02929 4.02803 0
M  V30 5707 H 532.031 -1.38659 3.47347 0
M  V30 5708 H 534.323 -3.61492 5.73001 0
M  V30 5709 H 535.266 -2.40685 6.6594 0
M  V30 5710 H 535.674 -2.72028 4.94632 0
M  V30 5711 N 535.072 -1.5615 -0.213296 0
M  V30 5712 C 536.297 -1.83986 -0.957282 0
M  V30 5713 C 536.722 -0.641526 -1.76822 0
M  V30 5714 O 536.08 0.409722 -1.7661 0
M  V30 5715 C 536.128 -3.09889 -1.84393 0
M  V30 5716 O 535.232 -2.89163 -2.94038 0
M  V30 5717 H 534.573 -0.606357 -0.270605 0
M  V30 5718 H 537.103 -2.03369 -0.224111 0
M  V30 5719 H 537.113 -3.40209 -2.25215 0
M  V30 5720 H 535.788 -3.96735 -1.24795 0
M  V30 5721 H 534.365 -2.70097 -2.57103 0
M  V30 5722 N 536.55 0.480323 -1.50102 0
M  V30 5723 C 537.48 1.58769 -1.71215 0
M  V30 5724 C 538.461 1.60583 -0.560997 0
M  V30 5725 O 539.646 1.76996 -0.799127 0
M  V30 5726 C 536.776 2.97148 -1.79778 0
M  V30 5727 C 535.73 3.10201 -2.94888 0
M  V30 5728 C 535.056 4.50137 -2.88584 0
M  V30 5729 C 536.356 2.88283 -4.35534 0
M  V30 5730 H 538.05 1.41354 -2.6393 0
M  V30 5731 H 535.596 0.678591 -1.27008 0
M  V30 5732 H 537.549 3.74536 -1.93133 0
M  V30 5733 H 536.273 3.15699 -0.836772 0
M  V30 5734 H 534.932 2.35244 -2.81169 0
M  V30 5735 H 534.58 4.65593 -1.90349 0
M  V30 5736 H 534.28 4.59808 -3.65856 0
M  V30 5737 H 535.804 5.29558 -3.03976 0
M  V30 5738 H 537.218 3.55427 -4.49827 0
M  V30 5739 H 535.615 3.09408 -5.14186 0
M  V30 5740 H 536.685 1.84219 -4.48544 0
M  V30 5741 N 538.028 1.39524 0.732853 0
M  V30 5742 C 538.978 1.34905 1.83806 0
M  V30 5743 C 539.962 0.229546 1.59254 0
M  V30 5744 O 541.154 0.467255 1.70721 0
M  V30 5745 C 538.283 1.19699 3.21756 0
M  V30 5746 C 537.369 2.36359 3.5213 0
M  V30 5747 N 537.76 3.61834 3.53426 0
M  V30 5748 C 536.058 2.29363 3.82503 0
M  V30 5749 C 536.759 4.38992 3.81655 0
M  V30 5750 N 535.735 3.68606 3.99538 0
M  V30 5751 H 539.537 2.29882 1.83116 0
M  V30 5752 H 537.051 1.33051 0.931194 0
M  V30 5753 H 539.048 1.14472 4.00876 0
M  V30 5754 H 537.708 0.256739 3.23683 0
M  V30 5755 H 538.719 3.95228 3.34686 0
M  V30 5756 H 535.396 1.43612 3.92023 0
M  V30 5757 H 536.786 5.47763 3.89108 0
M  V30 5758 N 539.506 -0.963266 1.24736 0
M  V30 5759 C 540.436 -2.07628 1.06832 0
M  V30 5760 C 541.417 -1.70088 -0.0200566 0
M  V30 5761 O 542.602 -1.93636 0.147854 0
M  V30 5762 C 539.732 -3.40636 0.677069 0
M  V30 5763 C 538.686 -3.9215 1.71471 0
M  V30 5764 C 538.012 -5.21553 1.1784 0
M  V30 5765 C 539.312 -4.19493 3.11164 0
M  V30 5766 H 541.006 -2.22864 1.9993 0
M  V30 5767 H 538.552 -1.07093 0.96266 0
M  V30 5768 H 540.505 -4.17941 0.538792 0
M  V30 5769 H 539.229 -3.25313 -0.289612 0
M  V30 5770 H 537.888 -3.17005 1.84128 0
M  V30 5771 H 537.536 -5.02593 0.202195 0
M  V30 5772 H 537.236 -5.56988 1.87185 0
M  V30 5773 H 538.76 -6.01463 1.05233 0
M  V30 5774 H 540.174 -4.87487 3.01711 0
M  V30 5775 H 538.571 -4.66165 3.77902 0
M  V30 5776 H 539.641 -3.26097 3.58871 0
M  V30 5777 N 540.985 -1.06182 -1.16461 0
M  V30 5778 C 541.915 -0.692861 -2.22984 0
M  V30 5779 C 542.896 0.314122 -1.67174 0
M  V30 5780 O 544.081 0.189499 -1.93273 0
M  V30 5781 C 541.211 -0.07732 -3.47214 0
M  V30 5782 C 540.165 -1.01015 -4.15909 0
M  V30 5783 C 539.491 -0.257973 -5.34077 0
M  V30 5784 C 540.791 -2.33868 -4.67015 0
M  V30 5785 H 542.485 -1.58343 -2.54102 0
M  V30 5786 H 540.031 -0.76279 -1.22137 0
M  V30 5787 H 541.984 0.19266 -4.20959 0
M  V30 5788 H 540.708 0.848254 -3.15392 0
M  V30 5789 H 539.367 -1.26486 -3.44088 0
M  V30 5790 H 539.015 0.670684 -4.98509 0
M  V30 5791 H 538.715 -0.879638 -5.80979 0
M  V30 5792 H 540.239 0.00448788 -6.106 0
M  V30 5793 H 541.653 -2.1279 -5.32347 0
M  V30 5794 H 540.05 -2.91522 -5.24533 0
M  V30 5795 H 541.12 -2.97019 -3.83286 0
M  V30 5796 O 542.502 1.28464 -0.97874 0
M  V30 5797 H 543.193 1.83432 -0.622284 0
M  V30 END ATOM
M  V30 BEGIN BOND
M  V30 END BOND
M  V30 END CTAB
M  END
$$$$
