drugbank_target|Q07343 cAMP-specific 3',5'-cyclic phosphodiesterase 4B (DB00131; DB00201; DB00277; DB00651; DB00824; DB01088; DB01113; DB01412; DB01647; DB01656; DB01791; DB01954; DB01959; DB02660; DB03349; DB03606; DB03807; DB03849; DB04149; DB04530; DB05219; DB05266; DB06909; DB08299)
 OpenBabel12092119333D

  0  0  0     0  0            999 V3000
M  V30 BEGIN CTAB
M  V30 COUNTS 11519 11631 0 0 0
M  V30 BEGIN ATOM
M  V30 1 H -0.908 1.98254 -0.117106 0
M  V30 2 N 0 1.576 0 0
M  V30 3 C 0.933 2.03868 1.02534 0
M  V30 4 C 1.911 0.928543 1.3348 0
M  V30 5 O 3.095 1.19667 1.45644 0
M  V30 6 C 0.222 2.43627 2.35294 0
M  V30 7 C -0.732 3.65373 2.2001 0
M  V30 8 S 0.101 5.13292 1.52614 0
M  V30 9 C 1.257 5.56322 2.86805 0
M  V30 10 H 1.49 2.90518 0.631377 0
M  V30 11 H -0.977 1.52953 0.210867 0
M  V30 12 H 0.981 2.67203 3.11629 0
M  V30 13 H -0.358 1.57376 2.7183 0
M  V30 14 H -1.165 3.90944 3.18086 0
M  V30 15 H -1.563 3.418 1.51819 0
M  V30 16 H 0.729 5.58782 3.83104 0
M  V30 17 H 1.672 6.56266 2.65933 0
M  V30 18 H 2.08 4.83886 2.90714 0
M  V30 19 N 1.4781 -0.272755 1.55222 0
M  V30 20 C 2.4251 -1.33716 1.88119 0
M  V30 21 C 3.3951 -1.49066 0.73271 0
M  V30 22 O 4.5801 -1.63469 0.984002 0
M  V30 23 C 1.7201 -2.69238 2.15882 0
M  V30 24 C 0.8331 -2.62108 3.43399 0
M  V30 25 C -0.0319 -3.89811 3.60861 0
M  V30 26 C -0.9929 -3.77193 4.8207 0
M  V30 27 N -1.8559 -4.9673 4.96189 0
M  V30 28 H 2.9841 -1.04962 2.78903 0
M  V30 29 H 0.5211 -0.507088 1.38083 0
M  V30 30 H 2.4791 -3.48089 2.29978 0
M  V30 31 H 1.1091 -2.96194 1.28331 0
M  V30 32 H 0.1611 -1.74967 3.37773 0
M  V30 33 H 1.4731 -2.48685 4.32386 0
M  V30 34 H 0.6271 -4.77103 3.74777 0
M  V30 35 H -0.6339 -4.06102 2.7006 0
M  V30 36 H -1.6289 -2.88284 4.68159 0
M  V30 37 H -0.4039 -3.62421 5.74307 0
M  V30 38 H -2.4579 -5.13431 4.08319 0
M  V30 39 H -2.5409 -4.85839 5.79221 0
M  V30 40 H -1.2729 -5.85594 5.1449 0
M  V30 41 N 2.9562 -1.48159 -0.537278 0
M  V30 42 C 3.9032 -1.62138 -1.64256 0
M  V30 43 C 4.8732 -0.463668 -1.59497 0
M  V30 44 O 6.0582 -0.686241 -1.78032 0
M  V30 45 C 3.1982 -1.66028 -3.02537 0
M  V30 46 C 2.3112 -2.92855 -3.17585 0
M  V30 47 C 1.4462 -2.87952 -4.46382 0
M  V30 48 C 0.4852 -4.09516 -4.54932 0
M  V30 49 N -0.3778 -4.02733 -5.75109 0
M  V30 50 H 4.4622 -2.56529 -1.51647 0
M  V30 51 H 1.9992 -1.27224 -0.738414 0
M  V30 52 H 3.9572 -1.66265 -3.82638 0
M  V30 53 H 2.5872 -0.751331 -3.13934 0
M  V30 54 H 1.6392 -3.02395 -2.30784 0
M  V30 55 H 2.9512 -3.82822 -3.19764 0
M  V30 56 H 2.1052 -2.8655 -5.34765 0
M  V30 57 H 0.8442 -1.95702 -4.46712 0
M  V30 58 H -0.1508 -4.11201 -3.64957 0
M  V30 59 H 1.0742 -5.02917 -4.56346 0
M  V30 60 H -0.9798 -3.13299 -5.76351 0
M  V30 61 H -1.0628 -4.86397 -5.78752 0
M  V30 62 H 0.2052 -4.05379 -6.65799 0
M  V30 63 N 4.4343 0.785586 -1.36625 0
M  V30 64 C 5.6593 1.57963 -1.34397 0
M  V30 65 C 6.0843 1.87964 0.071526 0
M  V30 66 O 5.4423 1.48182 1.0446 0
M  V30 67 C 5.4903 2.87511 -2.17646 0
M  V30 68 O 4.5943 3.81281 -1.57158 0
M  V30 69 H 3.9353 0.479014 -0.459828 0
M  V30 70 H 6.4653 0.973411 -1.79961 0
M  V30 71 H 6.4753 3.36745 -2.30362 0
M  V30 72 H 5.1503 2.65002 -3.20541 0
M  V30 73 H 3.7273 3.39885 -1.53403 0
M  V30 74 N 5.9124 1.20967 1.01018 0
M  V30 75 C 7.3284 0.965905 1.27053 0
M  V30 76 C 7.5284 -0.350785 1.98423 0
M  V30 77 O 6.5844 -1.07773 2.28344 0
M  V30 78 C 7.8974 2.15294 2.09926 0
M  V30 79 C 9.4454 2.19463 2.23171 0
M  V30 80 C 9.9204 3.3767 3.09424 0
M  V30 81 N 11.4114 3.37724 3.17012 0
M  V30 82 C 12.1464 4.25837 3.83993 0
M  V30 83 N 11.6424 5.24138 4.53047 0
M  V30 84 N 13.4354 4.1366 3.80581 0
M  V30 85 H 5.5864 2.0565 0.531194 0
M  V30 86 H 7.8494 0.90024 0.297106 0
M  V30 87 H 7.5554 3.10684 1.64828 0
M  V30 88 H 7.4294 2.13923 3.10672 0
M  V30 89 H 9.8164 1.24632 2.6749 0
M  V30 90 H 9.8974 2.2488 1.21912 0
M  V30 91 H 9.5414 4.32791 2.65808 0
M  V30 92 H 9.4714 3.29491 4.10784 0
M  V30 93 H 11.9624 2.6658 2.6785 0
M  V30 94 H 12.2754 5.87684 5.01844 0
M  V30 95 H 10.6204 5.28068 4.5185 0
M  V30 96 H 13.8114 3.36127 3.25785 0
M  V30 97 H 13.9844 4.82538 4.32505 0
M  V30 98 N 7.3905 -1.2043 1.01659 0
M  V30 99 C 8.6155 -1.94318 0.724942 0
M  V30 100 C 9.0405 -1.74266 -0.708034 0
M  V30 101 O 8.3985 -1.03694 -1.48719 0
M  V30 102 C 8.4465 -3.44486 1.06591 0
M  V30 103 O 7.5505 -4.12017 0.177599 0
M  V30 104 H 6.8915 -0.60708 0.26898 0
M  V30 105 H 9.4215 -1.52861 1.35995 0
M  V30 106 H 9.4315 -3.95106 1.01762 0
M  V30 107 H 8.1065 -3.58404 2.10997 0
M  V30 108 H 6.6835 -3.71821 0.283421 0
M  V30 109 N 8.8686 -0.792821 -1.36206 0
M  V30 110 C 10.1146 -0.36733 -1.99446 0
M  V30 111 C 10.4476 1.05917 -1.62774 0
M  V30 112 O 9.7226 1.7324 -0.88421 0
M  V30 113 C 10.0056 -0.535044 -3.56103 0
M  V30 114 C 9.8586 -2.00548 -4.02617 0
M  V30 115 C 11.1776 0.0478191 -4.40074 0
M  V30 116 H 8.2966 -0.134941 -0.724541 0
M  V30 117 H 10.9386 -0.999794 -1.61568 0
M  V30 118 H 9.0886 0.00336329 -3.885 0
M  V30 119 H 10.7606 -2.60521 -3.80692 0
M  V30 120 H 9.0036 -2.50686 -3.54032 0
M  V30 121 H 9.6746 -2.07377 -5.11565 0
M  V30 122 H 12.1506 -0.411822 -4.14057 0
M  V30 123 H 11.0266 -0.0995336 -5.4881 0
M  V30 124 H 11.2876 1.14025 -4.27142 0
M  V30 125 N 10.3467 1.47872 -0.545128 0
M  V30 126 C 11.2797 2.2675 0.256885 0
M  V30 127 C 12.2577 1.33293 0.931228 0
M  V30 128 O 13.4417 1.62657 0.95262 0
M  V30 129 C 10.5687 3.09976 1.36501 0
M  V30 130 C 9.6147 4.1892 0.800496 0
M  V30 131 S 10.4477 5.34397 -0.343505 0
M  V30 132 C 11.6037 6.21186 0.766733 0
M  V30 133 H 11.8367 2.94425 -0.412479 0
M  V30 134 H 9.3697 1.50806 -0.331204 0
M  V30 135 H 11.3277 3.585 1.9997 0
M  V30 136 H 9.9887 2.41686 2.00616 0
M  V30 137 H 9.1817 4.76836 1.63227 0
M  V30 138 H 8.7837 3.73215 0.242217 0
M  V30 139 H 11.0757 6.56804 1.66178 0
M  V30 140 H 12.0187 7.07742 0.225204 0
M  V30 141 H 12.4267 5.54574 1.05396 0
M  V30 142 N 11.8248 0.280983 1.55075 0
M  V30 143 C 13.0528 -0.337293 2.04132 0
M  V30 144 C 13.4678 -1.4903 1.15912 0
M  V30 145 O 12.8248 -1.81606 0.180459 0
M  V30 146 C 12.8758 -0.812706 3.52246 0
M  V30 147 O 12.5968 0.294387 4.3711 0
M  V30 148 C 14.0978 -1.4982 4.17216 0
M  V30 149 H 11.3178 -0.0761638 0.666663 0
M  V30 150 H 13.8618 0.414787 2.00249 0
M  V30 151 H 12.0168 -1.51486 3.56554 0
M  V30 152 H 12.4308 -0.0721325 5.2445 0
M  V30 153 H 13.9048 -1.7822 5.22438 0
M  V30 154 H 14.3818 -2.43168 3.65741 0
M  V30 155 H 14.9878 -0.839742 4.16927 0
M  V30 156 N 13.3029 -1.57598 0.00835791 0
M  V30 157 C 14.5489 -1.91211 -0.675732 0
M  V30 158 C 14.8819 -0.883139 -1.72958 0
M  V30 159 O 14.1569 0.097016 -1.94258 0
M  V30 160 C 14.4399 -3.35379 -1.31123 0
M  V30 161 C 14.2929 -4.48999 -0.268356 0
M  V30 162 C 15.6119 -3.7912 -2.23508 0
M  V30 163 H 12.7309 -0.695374 -0.244179 0
M  V30 164 H 15.3729 -1.89901 0.0613655 0
M  V30 165 H 13.5229 -3.36626 -1.93946 0
M  V30 166 H 15.1949 -4.59887 0.360844 0
M  V30 167 H 13.4379 -4.31873 0.408482 0
M  V30 168 H 14.1089 -5.46851 -0.752218 0
M  V30 169 H 16.5849 -3.79477 -1.70693 0
M  V30 170 H 15.4609 -4.80729 -2.64936 0
M  V30 171 H 15.7219 -3.13455 -3.11766 0
M  V30 172 N 14.781 0.264519 -1.55364 0
M  V30 173 C 15.714 1.35297 -1.83766 0
M  V30 174 C 16.692 1.47171 -0.691336 0
M  V30 175 O 17.876 1.63663 -0.935238 0
M  V30 176 C 15.003 2.72847 -2.00679 0
M  V30 177 C 14.049 2.78214 -3.23263 0
M  V30 178 S 14.882 2.36601 -4.80396 0
M  V30 179 C 16.038 3.7611 -5.00292 0
M  V30 180 H 16.271 1.11003 -2.758 0
M  V30 181 H 13.804 0.464596 -1.47244 0
M  V30 182 H 15.762 3.52057 -2.11108 0
M  V30 183 H 14.423 2.94388 -1.09518 0
M  V30 184 H 13.616 3.7919 -3.3201 0
M  V30 185 H 13.218 2.07034 -3.11469 0
M  V30 186 H 15.51 4.71457 -4.86554 0
M  V30 187 H 16.453 3.7231 -6.02321 0
M  V30 188 H 16.861 3.67806 -4.28228 0
M  V30 189 N 16.2591 1.48442 0.529413 0
M  V30 190 C 17.2221 1.62524 1.61612 0
M  V30 191 C 18.2221 0.498509 1.52877 0
M  V30 192 O 19.4121 0.76431 1.56537 0
M  V30 193 C 16.5441 1.59597 3.01233 0
M  V30 194 H 17.7371 2.59423 1.50465 0
M  V30 195 H 15.2901 1.37047 0.751514 0
M  V30 196 H 16.0251 0.641781 3.17886 0
M  V30 197 H 15.8101 2.41397 3.08982 0
M  V30 198 H 17.3001 1.72646 3.80241 0
M  V30 199 N 17.7372 -0.778329 1.37039 0
M  V30 200 C 19.0142 -1.52551 1.22424 0
M  V30 201 C 19.3942 -2.10288 -0.184964 0
M  V30 202 O 18.7422 -1.94953 -1.19187 0
M  V30 203 C 18.9522 -2.61164 2.31504 0
M  V30 204 C 20.3002 -3.28746 2.68721 0
M  V30 205 O 21.3242 -2.71455 2.30631 0
M  V30 206 O 20.1832 -4.3231 3.3432 0
M  V30 207 H 17.2772 -0.675343 0.477326 0
M  V30 208 H 19.8232 -0.815859 1.48801 0
M  V30 209 H 18.5952 -2.16574 3.25901 0
M  V30 210 H 18.2182 -3.39737 2.06554 0
M  V30 211 N 19.2153 -1.21501 -1.00376 0
M  V30 212 C 20.4923 -0.941745 -1.71437 0
M  V30 213 C 20.8723 0.546114 -2.03914 0
M  V30 214 O 20.2203 1.51128 -1.71384 0
M  V30 215 C 20.4303 -1.82812 -2.97289 0
M  V30 216 C 21.7783 -2.07771 -3.70292 0
M  V30 217 O 22.8023 -1.80171 -3.07273 0
M  V30 218 O 21.6613 -2.54456 -4.83647 0
M  V30 219 H 18.7553 -0.353243 -0.747762 0
M  V30 220 H 21.3013 -1.32436 -1.06108 0
M  V30 221 H 20.0733 -2.83501 -2.69709 0
M  V30 222 H 19.6963 -1.4464 -3.70358 0
M  V30 223 N 20.6934 1.19889 -1.02296 0
M  V30 224 C 21.6414 2.24938 -0.592081 0
M  V30 225 C 22.6354 1.65257 0.372357 0
M  V30 226 O 23.8414 1.78371 0.241583 0
M  V30 227 H 20.2164 0.731787 -0.173182 0
M  V30 228 H 22.1874 2.58603 -1.48885 0
M  V30 229 C 20.9364 3.47668 0.047351 0
M  V30 230 H 20.2594 3.93875 -0.685772 0
M  V30 231 H 21.6994 4.22852 0.311862 0
M  V30 232 C 20.1584 3.11136 1.29212 0
M  V30 233 O 20.6884 3.2325 2.38479 0
M  V30 234 N 18.8944 2.65625 1.17863 0
M  V30 235 H 18.4414 2.55968 0.289493 0
M  V30 236 H 18.3994 2.41553 2.01245 0
M  V30 237 N 22.1715 0.800033 1.35784 0
M  V30 238 C 23.4175 0.377901 1.99248 0
M  V30 239 C 23.7505 -1.05052 1.63333 0
M  V30 240 O 23.0255 -1.72768 0.893385 0
M  V30 241 C 23.3085 0.553922 3.55814 0
M  V30 242 C 23.1615 2.0268 4.01548 0
M  V30 243 C 24.4805 -0.0244802 4.40093 0
M  V30 244 H 21.5995 0.138782 0.723815 0
M  V30 245 H 24.2415 1.00835 1.61035 0
M  V30 246 H 22.3915 0.0172398 3.88496 0
M  V30 247 H 24.0635 2.62536 3.79305 0
M  V30 248 H 22.3065 2.5256 3.52698 0
M  V30 249 H 22.9775 2.10087 5.10458 0
M  V30 250 H 25.4535 0.433775 4.13833 0
M  V30 251 H 24.3295 0.128637 5.48749 0
M  V30 252 H 24.5905 -1.11758 4.27741 0
M  V30 253 N 23.6496 -1.47581 0.552962 0
M  V30 254 C 24.5966 -2.29957 -0.197108 0
M  V30 255 C 25.5666 -1.38799 -0.912359 0
M  V30 256 O 26.7516 -1.67761 -0.908888 0
M  V30 257 C 23.8916 -3.22672 -1.22379 0
M  V30 258 C 23.0046 -4.28919 -0.515038 0
M  V30 259 C 22.1396 -5.0879 -1.52664 0
M  V30 260 C 21.1786 -6.06815 -0.802631 0
M  V30 261 N 20.3156 -6.7966 -1.76086 0
M  V30 262 H 25.1556 -2.93578 0.511486 0
M  V30 263 H 22.6926 -1.4471 0.264067 0
M  V30 264 H 24.6506 -3.74845 -1.83159 0
M  V30 265 H 23.2806 -2.60925 -1.90047 0
M  V30 266 H 22.3326 -3.79835 0.207192 0
M  V30 267 H 23.6446 -4.98773 0.0523425 0
M  V30 268 H 22.7986 -5.65091 -2.20809 0
M  V30 269 H 21.5376 -4.38828 -2.12794 0
M  V30 270 H 20.5426 -5.49695 -0.107238 0
M  V30 271 H 21.7676 -6.78784 -0.207135 0
M  V30 272 H 19.7136 -6.12432 -2.35081 0
M  V30 273 H 19.6306 -7.45669 -1.24552 0
M  V30 274 H 20.8986 -7.40538 -2.43359 0
M  V30 275 N 25.1277 -0.289203 -1.54924 0
M  V30 276 C 26.4047 0.376032 -1.91951 0
M  V30 277 C 26.7847 1.72622 -1.21511 0
M  V30 278 O 26.1327 2.25853 -0.346767 0
M  V30 279 C 26.3427 0.502378 -3.45365 0
M  V30 280 C 27.6907 0.778741 -4.17398 0
M  V30 281 O 28.7147 0.586647 -3.51336 0
M  V30 282 O 27.5737 1.14698 -5.34328 0
M  V30 283 H 24.6677 0.208167 -0.800372 0
M  V30 284 H 27.2137 -0.336394 -1.66332 0
M  V30 285 H 25.9857 -0.447255 -3.88736 0
M  V30 286 H 25.6087 1.26373 -3.76982 0
M  V30 287 N 26.6058 1.57591 -0.0167156 0
M  V30 288 C 27.8358 1.95292 0.674149 0
M  V30 289 C 28.2438 0.891097 1.66901 0
M  V30 290 O 27.5868 -0.136908 1.83189 0
M  V30 291 C 27.6488 3.29072 1.44747 0
M  V30 292 C 27.3128 4.52879 0.612331 0
M  V30 293 C 28.3098 5.1979 -0.107126 0
M  V30 294 C 25.9948 4.99242 0.553381 0
M  V30 295 C 27.9888 6.31375 -0.874339 0
M  V30 296 C 25.6758 6.10713 -0.217546 0
M  V30 297 C 26.6738 6.76637 -0.930123 0
M  V30 298 O 26.3618 7.85969 -1.68844 0
M  V30 299 H 26.0938 0.648275 0.191615 0
M  V30 300 H 28.6478 2.05284 -0.0690148 0
M  V30 301 H 26.8778 3.15535 2.2355 0
M  V30 302 H 28.5668 3.51764 2.02526 0
M  V30 303 H 29.3328 4.84948 -0.0708392 0
M  V30 304 H 25.2118 4.47744 1.09757 0
M  V30 305 H 28.7558 6.82764 -1.43106 0
M  V30 306 H 24.6528 6.44994 -0.255593 0
M  V30 307 H 25.4208 8.02571 -1.6069 0
M  V30 308 N 28.0839 -0.256276 1.55502 0
M  V30 309 C 29.3309 -0.985619 1.76895 0
M  V30 310 C 29.6589 -1.85671 0.579355 0
M  V30 311 O 28.9139 -1.90744 -0.437651 0
M  V30 312 C 29.2129 -1.88432 3.03691 0
M  V30 313 C 28.8789 -1.16936 4.35473 0
M  V30 314 C 27.5409 -0.97173 4.71286 0
M  V30 315 C 29.8929 -0.661889 5.1698 0
M  V30 316 C 27.2209 -0.254179 5.86149 0
M  V30 317 C 29.5729 0.042149 6.32586 0
M  V30 318 C 28.2369 0.25134 6.67027 0
M  V30 319 H 27.5069 -0.360663 0.647304 0
M  V30 320 H 30.1539 -0.256483 1.89775 0
M  V30 321 H 28.4589 -2.68021 2.85783 0
M  V30 322 H 30.1559 -2.45015 3.1744 0
M  V30 323 H 26.7459 -1.33332 4.07333 0
M  V30 324 H 30.9299 -0.802145 4.89775 0
M  V30 325 H 26.1859 -0.0815408 6.11346 0
M  V30 326 H 30.3599 0.443049 6.94989 0
M  V30 327 H 27.9869 0.809314 7.5588 0
M  V30 328 N 29.562 -1.4872 -0.521534 0
M  V30 329 C 30.472 -1.66569 -1.65203 0
M  V30 330 C 31.488 -0.548197 -1.65139 0
M  V30 331 O 32.664 -0.820339 -1.83936 0
M  V30 332 C 29.729 -1.70917 -3.01642 0
M  V30 333 C 28.79 -2.94356 -3.12495 0
M  V30 334 C 28.023 -2.98487 -4.42426 0
M  V30 335 O 28.246 -2.10786 -5.30024 0
M  V30 336 O 27.18 -3.90746 -4.57822 0
M  V30 337 H 31.006 -2.62298 -1.5308 0
M  V30 338 H 28.591 -1.3222 -0.695565 0
M  V30 339 H 30.473 -1.7625 -3.82771 0
M  V30 340 H 29.148 -0.783633 -3.14071 0
M  V30 341 H 28.055 -2.94552 -2.3063 0
M  V30 342 H 29.388 -3.86322 -3.04986 0
M  V30 343 N 31.0401 0.771051 -1.3745 0
M  V30 344 C 32.2801 1.54264 -1.34096 0
M  V30 345 C 32.6441 1.91858 0.0737639 0
M  V30 346 O 33.8451 2.67797 0.23203 0
M  V30 347 C 32.1161 2.77326 -2.25445 0
M  V30 348 S 33.6751 3.67383 -2.39948 0
M  V30 349 H 30.4931 0.528122 -0.476034 0
M  V30 350 H 33.0951 0.906633 -1.73206 0
M  V30 351 H 31.7991 2.47788 -3.27153 0
M  V30 352 H 31.3301 3.45886 -1.87421 0
M  V30 353 H 33.3451 4.69334 -1.61059 0
M  V30 354 N 32.5182 1.22032 0.997298 0
M  V30 355 C 33.7432 1.06921 1.77715 0
M  V30 356 C 34.1682 -0.376226 1.84299 0
M  V30 357 O 33.5262 -1.27165 1.29223 0
M  V30 358 C 33.5742 1.67996 3.19076 0
M  V30 359 O 32.6782 0.930653 4.01762 0
M  V30 360 H 32.0192 0.375814 0.547412 0
M  V30 361 H 34.5492 1.61737 1.25309 0
M  V30 362 H 34.5592 1.72538 3.69723 0
M  V30 363 H 33.2342 2.73182 3.13599 0
M  V30 364 H 31.8112 0.960917 3.60307 0
M  V30 365 N 33.9963 -1.19345 1.0293 0
M  V30 366 C 34.9263 -2.2481 0.631105 0
M  V30 367 C 35.9073 -1.66245 -0.360104 0
M  V30 368 O 37.0923 -1.92677 -0.242726 0
M  V30 369 C 34.2223 -3.47295 -0.0184607 0
M  V30 370 C 33.1763 -4.18536 0.895073 0
M  V30 371 C 32.5023 -5.34586 0.110592 0
M  V30 372 C 33.8023 -4.73287 2.209 0
M  V30 373 H 35.4963 -2.58372 1.51275 0
M  V30 374 H 33.0423 -1.24194 0.728818 0
M  V30 375 H 34.9953 -4.20268 -0.308675 0
M  V30 376 H 33.7193 -3.12933 -0.934907 0
M  V30 377 H 32.3783 -3.47446 1.16949 0
M  V30 378 H 32.0263 -4.96469 -0.807902 0
M  V30 379 H 31.7263 -5.83183 0.719087 0
M  V30 380 H 33.2503 -6.10355 -0.172871 0
M  V30 381 H 34.6643 -5.38013 1.98028 0
M  V30 382 H 33.0613 -5.32373 2.76946 0
M  V30 383 H 34.1313 -3.91331 2.86336 0
M  V30 384 N 35.4744 -0.807222 -1.35358 0
M  V30 385 C 36.6994 -0.399309 -2.0352 0
M  V30 386 C 37.1244 0.981986 -1.60433 0
M  V30 387 O 36.4824 1.63601 -0.781299 0
M  V30 388 C 36.5304 -0.491552 -3.57234 0
M  V30 389 O 35.6344 0.494754 -4.09421 0
M  V30 390 H 34.9754 -0.166682 -0.642739 0
M  V30 391 H 37.5054 -1.09328 -1.72941 0
M  V30 392 H 37.5154 -0.361588 -4.06395 0
M  V30 393 H 36.1904 -1.49907 -3.87944 0
M  V30 394 H 34.7674 0.324977 -3.71481 0
M  V30 395 N 36.9525 1.47285 -0.560781 0
M  V30 396 C 37.8995 2.30058 0.18491 0
M  V30 397 C 38.8695 1.39281 0.904986 0
M  V30 398 O 40.0545 1.68241 0.899979 0
M  V30 399 C 37.1945 3.23317 1.20666 0
M  V30 400 C 36.3075 4.29186 0.492285 0
M  V30 401 C 35.4425 5.09592 1.49964 0
M  V30 402 C 34.4815 6.07232 0.770439 0
M  V30 403 N 33.6185 6.80584 1.72479 0
M  V30 404 H 38.4585 2.93302 -0.527048 0
M  V30 405 H 35.9955 1.44568 -0.271738 0
M  V30 406 H 37.9535 3.75811 1.81168 0
M  V30 407 H 36.5835 2.61929 1.88661 0
M  V30 408 H 35.6355 3.7972 -0.227333 0
M  V30 409 H 36.9475 4.98738 -0.0787929 0
M  V30 410 H 36.1015 5.66254 2.17809 0
M  V30 411 H 34.8405 4.3995 2.10464 0
M  V30 412 H 33.8455 5.49745 0.0780846 0
M  V30 413 H 35.0705 6.78884 0.171134 0
M  V30 414 H 33.0165 6.1367 2.3183 0
M  V30 415 H 32.9335 7.46319 1.20596 0
M  V30 416 H 34.2015 7.41818 2.39428 0
M  V30 417 N 38.4306 0.297415 1.54768 0
M  V30 418 C 39.6556 -0.318435 2.04941 0
M  V30 419 C 40.0806 -1.4701 1.17345 0
M  V30 420 O 39.4386 -1.80436 0.176758 0
M  V30 421 C 39.4866 -0.755749 3.52592 0
M  V30 422 O 38.5906 -1.86088 3.68028 0
M  V30 423 H 37.9316 -0.062421 0.661059 0
M  V30 424 H 40.4616 0.438215 1.99852 0
M  V30 425 H 40.4716 -1.04552 3.94376 0
M  V30 426 H 39.1466 0.0867233 4.1581 0
M  V30 427 H 37.7236 -1.57193 3.38149 0
M  V30 428 N 39.9087 -1.5758 0.0250728 0
M  V30 429 C 41.1387 -1.95646 -0.663783 0
M  V30 430 C 41.5467 -0.899935 -1.66427 0
M  V30 431 O 40.8897 0.127191 -1.83259 0
M  V30 432 C 40.9517 -3.29835 -1.43 0
M  V30 433 C 40.6157 -4.53197 -0.588305 0
M  V30 434 C 41.6127 -5.19726 0.13469 0
M  V30 435 C 39.2977 -4.99529 -0.526897 0
M  V30 436 C 41.2917 -6.30902 0.90781 0
M  V30 437 C 38.9787 -6.10589 0.24993 0
M  V30 438 C 39.9767 -6.76134 0.965994 0
M  V30 439 O 39.6647 -7.85062 1.7301 0
M  V30 440 H 39.3967 -0.649282 -0.188174 0
M  V30 441 H 41.9507 -2.05245 0.0799006 0
M  V30 442 H 40.1807 -3.16716 -2.21873 0
M  V30 443 H 41.8697 -3.52833 -2.00658 0
M  V30 444 H 42.6357 -4.84904 0.0965562 0
M  V30 445 H 38.5147 -4.48319 -1.07381 0
M  V30 446 H 42.0587 -6.81995 1.46724 0
M  V30 447 H 37.9557 -6.44849 0.289795 0
M  V30 448 H 38.7237 -8.01708 1.64944 0
M  V30 449 N 41.3868 0.248026 -1.55636 0
M  V30 450 C 42.6118 0.998028 -1.81808 0
M  V30 451 C 43.0368 1.78207 -0.601979 0
M  V30 452 O 42.3948 1.75653 0.448961 0
M  V30 453 C 42.4428 1.9125 -3.05705 0
M  V30 454 O 41.5468 3.00406 -2.82542 0
M  V30 455 H 40.8878 0.284045 -0.600179 0
M  V30 456 H 43.4178 0.269357 -2.02819 0
M  V30 457 H 43.4278 2.32737 -3.35108 0
M  V30 458 H 42.1028 1.33602 -3.93857 0
M  V30 459 H 40.6798 2.63056 -2.64303 0
M  V30 460 N 42.8649 1.48995 0.513639 0
M  V30 461 C 44.0899 1.61792 1.29762 0
M  V30 462 C 44.5149 0.284475 1.85936 0
M  V30 463 O 43.8729 -0.746185 1.65232 0
M  V30 464 C 43.9209 2.67993 2.41272 0
M  V30 465 O 43.0249 2.26287 3.44772 0
M  V30 466 H 42.3659 0.541963 0.38363 0
M  V30 467 H 44.8959 1.95097 0.616307 0
M  V30 468 H 44.9059 2.89772 2.87221 0
M  V30 469 H 43.5809 3.64791 1.9975 0
M  V30 470 H 42.1579 2.14788 3.04829 0
M  V30 471 N 44.343 -0.763751 1.37857 0
M  V30 472 C 45.568 -1.55805 1.36893 0
M  V30 473 C 45.993 -1.88054 -0.0416135 0
M  V30 474 O 45.351 -1.49825 -1.02089 0
M  V30 475 C 45.399 -2.84012 2.22192 0
M  V30 476 O 44.503 -3.78732 1.63204 0
M  V30 477 H 43.844 -0.471638 0.46739 0
M  V30 478 H 46.374 -0.944657 1.81487 0
M  V30 479 H 46.384 -3.33037 2.35691 0
M  V30 480 H 45.059 -2.59869 3.24716 0
M  V30 481 H 43.636 -3.37402 1.58791 0
M  V30 482 N 45.8211 -1.22559 -0.990812 0
M  V30 483 C 47.0461 -1.07862 -1.77145 0
M  V30 484 C 47.4711 0.366447 -1.84496 0
M  V30 485 O 46.8291 1.26478 -1.29896 0
M  V30 486 C 46.8771 -1.69686 -3.18181 0
M  V30 487 O 45.9811 -0.951946 -4.01263 0
M  V30 488 H 45.3221 -0.378712 -0.545411 0
M  V30 489 H 47.8521 -1.62399 -1.2445 0
M  V30 490 H 47.8621 -1.74496 -3.68802 0
M  V30 491 H 46.5371 -2.74841 -3.12146 0
M  V30 492 H 45.1141 -0.980011 -3.59792 0
M  V30 493 N 47.2992 1.18797 -1.03562 0
M  V30 494 C 48.2472 2.24297 -0.615905 0
M  V30 495 C 49.2412 1.65643 0.354808 0
M  V30 496 O 50.4472 1.78618 0.22265 0
M  V30 497 H 46.8222 0.729909 -0.180934 0
M  V30 498 H 48.7932 2.5701 -1.5162 0
M  V30 499 C 47.5422 3.47698 0.0104735 0
M  V30 500 H 46.8652 3.93125 -0.727509 0
M  V30 501 H 48.3052 4.23159 0.266995 0
M  V30 502 C 46.7642 3.12489 1.25905 0
M  V30 503 O 47.2942 3.25761 2.35038 0
M  V30 504 N 45.5002 2.6686 1.15039 0
M  V30 505 H 45.0472 2.56261 0.262328 0
M  V30 506 H 45.0052 2.43674 1.98672 0
M  V30 507 N 48.7773 0.814389 1.34928 0
M  V30 508 C 50.0053 0.411136 2.02774 0
M  V30 509 C 50.4203 -0.980316 1.61354 0
M  V30 510 O 49.7773 -1.63299 0.814847 0
M  V30 511 C 49.8283 0.493865 3.58111 0
M  V30 512 O 49.5493 1.83047 3.98027 0
M  V30 513 C 51.0503 0.0844174 4.4322 0
M  V30 514 H 48.2703 0.166037 0.650133 0
M  V30 515 H 50.8143 1.10018 1.72384 0
M  V30 516 H 48.9693 -0.147006 3.87121 0
M  V30 517 H 49.3833 1.79872 4.92693 0
M  V30 518 H 50.8573 0.193404 5.51661 0
M  V30 519 H 51.3343 -0.97113 4.28329 0
M  V30 520 H 51.9403 0.69875 4.19521 0
M  V30 521 N 50.2554 -1.46986 0.568584 0
M  V30 522 C 51.1854 -2.32946 -0.160753 0
M  V30 523 C 52.1664 -1.44487 -0.897631 0
M  V30 524 O 53.3514 -1.73327 -0.875867 0
M  V30 525 C 50.4814 -3.26494 -1.18403 0
M  V30 526 C 49.4354 -4.24282 -0.562895 0
M  V30 527 C 48.7614 -5.07236 -1.69163 0
M  V30 528 C 50.0614 -5.19989 0.490761 0
M  V30 529 H 51.7554 -2.94175 0.556916 0
M  V30 530 H 49.3014 -1.4146 0.26927 0
M  V30 531 H 51.2544 -3.85477 -1.70251 0
M  V30 532 H 49.9784 -2.63343 -1.93179 0
M  V30 533 H 48.6374 -3.66541 -0.0656164 0
M  V30 534 H 48.2854 -4.4048 -2.42871 0
M  V30 535 H 47.9854 -5.7345 -1.28174 0
M  V30 536 H 49.5094 -5.6908 -2.21314 0
M  V30 537 H 50.9234 -5.73271 0.0579047 0
M  V30 538 H 49.3204 -5.94469 0.820165 0
M  V30 539 H 50.3904 -4.64777 1.3824 0
M  V30 540 N 51.7335 -0.305618 -1.54608 0
M  V30 541 C 52.9815 0.301701 -1.99835 0
M  V30 542 C 53.3025 1.54054 -1.19551 0
M  V30 543 O 52.5725 1.93702 -0.292658 0
M  V30 544 H 51.1525 0.114468 -0.738178 0
M  V30 545 H 53.8145 -0.418016 -1.90364 0
M  V30 546 H 52.9105 0.570548 -3.06841 0
M  V30 547 N 53.2116 1.57565 -0.0334293 0
M  V30 548 C 54.4606 1.91155 0.643639 0
M  V30 549 C 54.7736 0.91192 1.73042 0
M  V30 550 O 55.9796 1.13923 2.46442 0
M  V30 551 C 54.4356 3.39443 1.1961 0
M  V30 552 C 54.0436 4.47774 0.142381 0
M  V30 553 C 55.7876 3.82094 1.84944 0
M  V30 554 C 53.6946 5.87162 0.706727 0
M  V30 555 H 52.6246 0.713368 0.244176 0
M  V30 556 H 55.2756 1.8323 -0.0994323 0
M  V30 557 H 53.6576 3.42313 1.99092 0
M  V30 558 H 54.8316 4.56469 -0.630296 0
M  V30 559 H 53.1466 4.14352 -0.412446 0
M  V30 560 H 55.7436 4.83591 2.2813 0
M  V30 561 H 56.0866 3.17386 2.69392 0
M  V30 562 H 56.6196 3.81665 1.12145 0
M  V30 563 H 53.3586 6.55424 -0.0997178 0
M  V30 564 H 52.8786 5.82064 1.44779 0
M  V30 565 H 54.5576 6.35866 1.19514 0
M  V30 566 N 54.6897 -0.239769 1.55765 0
M  V30 567 C 55.9667 -0.990056 1.68693 0
M  V30 568 C 56.3467 -2.03107 0.5754 0
M  V30 569 O 55.6947 -2.24604 -0.42017 0
M  V30 570 C 55.9047 -1.61696 3.09282 0
M  V30 571 C 57.2527 -2.11613 3.6811 0
M  V30 572 O 58.2767 -1.71624 3.12127 0
M  V30 573 O 57.1357 -2.85057 4.66267 0
M  V30 574 H 54.2297 -0.461299 0.686391 0
M  V30 575 H 56.7757 -0.232991 1.68093 0
M  V30 576 H 55.5477 -0.864357 3.81634 0
M  V30 577 H 55.1707 -2.44005 3.13923 0
M  V30 578 N 56.1678 -1.49265 -0.50573 0
M  V30 579 C 57.0978 -1.68495 -1.61653 0
M  V30 580 C 58.0788 -0.53366 -1.61512 0
M  V30 581 O 59.2638 -0.76897 -1.78327 0
M  V30 582 C 56.3938 -1.74709 -3.00157 0
M  V30 583 C 55.3478 -2.89581 -3.15162 0
M  V30 584 C 54.6738 -2.80903 -4.5497 0
M  V30 585 C 55.9738 -4.30578 -2.95634 0
M  V30 586 H 57.6678 -2.61493 -1.45814 0
M  V30 587 H 55.2138 -1.25838 -0.70005 0
M  V30 588 H 57.1668 -1.86748 -3.77761 0
M  V30 589 H 55.8908 -0.783067 -3.17074 0
M  V30 590 H 54.5498 -2.77136 -2.39982 0
M  V30 591 H 54.1978 -1.82419 -4.68756 0
M  V30 592 H 53.8978 -3.57999 -4.65951 0
M  V30 593 H 55.4218 -2.94944 -5.34641 0
M  V30 594 H 56.8358 -4.4373 -3.63011 0
M  V30 595 H 55.2328 -5.0886 -3.18091 0
M  V30 596 H 56.3028 -4.45352 -1.91806 0
M  V30 597 N 57.6459 0.756429 -1.3826 0
M  V30 598 C 58.8919 1.5168 -1.35517 0
M  V30 599 C 59.2469 1.9232 0.0554451 0
M  V30 600 O 58.5399 1.62352 1.01746 0
M  V30 601 C 58.7339 2.78313 -2.24224 0
M  V30 602 C 58.5629 2.50053 -3.7377 0
M  V30 603 C 57.3329 2.43414 -4.42807 0
M  V30 604 C 59.5309 2.1702 -4.66269 0
M  V30 605 N 57.5129 2.07398 -5.77805 0
M  V30 606 C 58.8839 1.91271 -5.89759 0
M  V30 607 C 60.9389 2.03305 -4.54501 0
M  V30 608 C 59.6419 1.53192 -7.02798 0
M  V30 609 C 61.6679 1.66627 -5.67441 0
M  V30 610 C 61.0299 1.4175 -6.8999 0
M  V30 611 H 57.1289 0.554735 -0.551174 0
M  V30 612 H 59.7129 0.881106 -1.73622 0
M  V30 613 H 57.8839 3.39696 -1.88311 0
M  V30 614 H 59.6159 3.44343 -2.12627 0
M  V30 615 H 56.3709 2.59789 -3.95988 0
M  V30 616 H 56.7949 1.92044 -6.4919 0
M  V30 617 H 61.4369 2.21215 -3.60311 0
M  V30 618 H 59.1549 1.34022 -7.96909 0
M  V30 619 H 62.7409 1.56652 -5.60314 0
M  V30 620 H 61.6209 1.1379 -7.759 0
M  V30 621 N 59.124 1.23083 0.984299 0
M  V30 622 C 60.54 0.992637 1.24975 0
M  V30 623 C 60.74 -0.308618 1.99123 0
M  V30 624 O 59.796 -1.02905 2.30579 0
M  V30 625 C 61.109 2.19698 2.05312 0
M  V30 626 C 62.657 2.24147 2.18465 0
M  V30 627 C 63.132 3.44157 3.02192 0
M  V30 628 N 64.623 3.44372 3.09777 0
M  V30 629 C 65.358 4.33886 3.74874 0
M  V30 630 N 64.854 5.3363 4.41827 0
M  V30 631 N 66.647 4.21639 3.71721 0
M  V30 632 H 58.798 2.06731 0.487453 0
M  V30 633 H 61.061 0.906339 0.277944 0
M  V30 634 H 60.767 3.1411 1.58201 0
M  V30 635 H 60.641 2.20465 3.06064 0
M  V30 636 H 63.028 1.30277 2.64786 0
M  V30 637 H 63.109 2.27415 1.17115 0
M  V30 638 H 62.753 4.38332 2.56568 0
M  V30 639 H 62.683 3.3813 4.03702 0
M  V30 640 H 65.174 2.72201 2.62135 0
M  V30 641 H 65.487 5.98196 4.89266 0
M  V30 642 H 63.832 5.37534 4.40548 0
M  V30 643 H 67.023 3.42962 3.18582 0
M  V30 644 H 67.196 4.91604 4.22173 0
M  V30 645 N 60.6021 -1.18246 1.0419 0
M  V30 646 C 61.8501 -1.87886 0.744543 0
M  V30 647 C 62.1711 -1.8082 -0.730006 0
M  V30 648 O 61.4411 -1.22736 -1.52685 0
M  V30 649 H 60.0211 -0.695556 0.272417 0
M  V30 650 H 62.6831 -1.43494 1.31892 0
M  V30 651 H 61.7791 -2.9389 1.05049 0
M  V30 652 N 62.0802 -0.821533 -1.34494 0
M  V30 653 C 63.4962 -0.507117 -1.51329 0
M  V30 654 C 63.6962 0.968964 -1.76673 0
M  V30 655 O 62.7522 1.75348 -1.81685 0
M  V30 656 C 64.0652 -1.36544 -2.67911 0
M  V30 657 C 65.6132 -1.36242 -2.81793 0
M  V30 658 C 66.0882 -2.2052 -4.01416 0
M  V30 659 N 67.5792 -2.18136 -4.08621 0
M  V30 660 C 68.3142 -2.80095 -5.00334 0
M  V30 661 N 67.8102 -3.51039 -5.9728 0
M  V30 662 N 69.6032 -2.69656 -4.93196 0
M  V30 663 H 61.7542 -1.77729 -1.16302 0
M  V30 664 H 64.0172 -0.757291 -0.570276 0
M  V30 665 H 63.7232 -2.41361 -2.55808 0
M  V30 666 H 63.5972 -1.02917 -3.62888 0
M  V30 667 H 65.9842 -0.322041 -2.93338 0
M  V30 668 H 66.0652 -1.73866 -1.87628 0
M  V30 669 H 65.7092 -3.24607 -3.90631 0
M  V30 670 H 65.6392 -1.80247 -4.94791 0
M  V30 671 H 68.1302 -1.6653 -3.39229 0
M  V30 672 H 68.4432 -3.95565 -6.63889 0
M  V30 673 H 66.7882 -3.55145 -5.97409 0
M  V30 674 H 69.9792 -2.13808 -4.16418 0
M  V30 675 H 70.1522 -3.1823 -5.64476 0
M  V30 676 N 63.5583 1.46682 -0.576371 0
M  V30 677 C 64.9743 1.57822 -0.237562 0
M  V30 678 C 65.1743 1.57237 1.26011 0
M  V30 679 O 64.2303 1.48596 2.04146 0
M  V30 680 C 65.5433 2.87499 -0.881168 0
M  V30 681 C 67.0913 3.01119 -0.85417 0
M  V30 682 C 67.5663 4.33524 -1.4772 0
M  V30 683 N 69.0573 4.40207 -1.44125 0
M  V30 684 C 69.7923 5.4126 -1.89276 0
M  V30 685 N 69.2883 6.49021 -2.42371 0
M  V30 686 N 71.0813 5.32422 -1.80231 0
M  V30 687 H 63.2323 1.45306 -1.54919 0
M  V30 688 H 65.4953 0.692733 -0.647167 0
M  V30 689 H 65.2013 2.9372 -1.93447 0
M  V30 690 H 65.0753 3.75224 -0.385592 0
M  V30 691 H 67.4623 2.94485 0.190491 0
M  V30 692 H 67.5433 2.14887 -1.3877 0
M  V30 693 H 67.1873 4.40916 -2.52103 0
M  V30 694 H 67.1173 5.1852 -0.918947 0
M  V30 695 H 69.6083 3.62931 -1.05307 0
M  V30 696 H 69.9213 7.2233 -2.74698 0
M  V30 697 H 68.2663 6.49858 -2.46393 0
M  V30 698 H 71.4573 4.47137 -1.38514 0
M  V30 699 H 71.6303 6.11034 -2.15735 0
M  V30 700 N 65.0364 0.313813 1.54444 0
M  V30 701 C 66.2764 -0.292389 2.02298 0
M  V30 702 C 66.6404 -1.50105 1.19719 0
M  V30 703 O 67.8414 -2.17947 1.5733 0
M  V30 704 C 66.1124 -0.627682 3.51845 0
M  V30 705 S 67.6714 -1.21493 4.21646 0
M  V30 706 H 64.4894 -0.0890247 0.705405 0
M  V30 707 H 67.0914 0.444668 1.90376 0
M  V30 708 H 65.7954 0.260265 4.09574 0
M  V30 709 H 65.3264 -1.39519 3.67829 0
M  V30 710 H 67.3414 -2.5022 4.28491 0
M  V30 711 N 66.5145 -1.57545 0.0417849 0
M  V30 712 C 67.7545 -1.94185 -0.63809 0
M  V30 713 C 68.1185 -0.919339 -1.68559 0
M  V30 714 O 69.3195 -1.17236 -2.41886 0
M  V30 715 C 67.5905 -3.35672 -1.22714 0
M  V30 716 S 69.1495 -3.94256 -1.92633 0
M  V30 717 H 65.9675 -0.679353 -0.209764 0
M  V30 718 H 68.5695 -1.95199 0.108479 0
M  V30 719 H 67.2735 -4.07898 -0.452503 0
M  V30 720 H 66.8045 -3.38132 -2.01073 0
M  V30 721 H 68.8195 -3.7872 -3.20602 0
M  V30 722 N 67.9926 0.231505 -1.5589 0
M  V30 723 C 69.2176 0.978689 -1.82856 0
M  V30 724 C 69.6426 1.77559 -0.620846 0
M  V30 725 O 69.0006 1.76119 0.430305 0
M  V30 726 C 69.0486 1.87997 -3.07716 0
M  V30 727 O 68.1526 2.97393 -2.85712 0
M  V30 728 H 67.4936 0.277663 -0.603158 0
M  V30 729 H 70.0236 0.24783 -2.03093 0
M  V30 730 H 70.0336 2.2917 -3.37558 0
M  V30 731 H 68.7086 1.29417 -3.95252 0
M  V30 732 H 67.2856 2.60238 -2.67078 0
M  V30 733 N 69.4707 1.49531 0.497807 0
M  V30 734 C 70.7187 1.58865 1.24926 0
M  V30 735 C 71.0397 0.278721 1.92998 0
M  V30 736 O 70.3097 -0.702144 1.82885 0
M  V30 737 H 68.8897 0.585343 0.464094 0
M  V30 738 H 71.5517 1.86174 0.57666 0
M  V30 739 H 70.6477 2.38633 2.01149 0
M  V30 740 N 70.9488 -0.749086 1.3866 0
M  V30 741 C 71.8968 -1.88428 1.36373 0
M  V30 742 C 72.8908 -1.67561 0.248929 0
M  V30 743 O 74.0968 -1.75074 0.41821 0
M  V30 744 H 70.4718 -0.620023 0.42553 0
M  V30 745 H 72.4428 -1.87473 2.32156 0
M  V30 746 C 71.1918 -3.25961 1.21014 0
M  V30 747 H 70.5148 -3.42607 2.06059 0
M  V30 748 H 71.9548 -4.05625 1.23469 0
M  V30 749 C 70.4138 -3.36799 -0.0825941 0
M  V30 750 O 70.9438 -3.87517 -1.05797 0
M  V30 751 N 69.1498 -2.90258 -0.140939 0
M  V30 752 H 68.6968 -2.49174 0.653477 0
M  V30 753 H 68.6548 -2.97889 -1.00545 0
M  V30 754 N 72.4269 -1.23603 -0.977757 0
M  V30 755 C 73.3569 -1.04401 -2.0886 0
M  V30 756 C 74.3379 0.0399052 -1.70053 0
M  V30 757 O 75.5229 -0.125246 -1.93796 0
M  V30 758 C 72.6529 -0.637269 -3.41403 0
M  V30 759 C 71.6069 -1.66883 -3.94124 0
M  V30 760 C 70.9329 -1.11745 -5.22893 0
M  V30 761 C 72.2329 -3.06247 -4.23096 0
M  V30 762 H 73.9269 -1.97316 -2.25182 0
M  V30 763 H 71.4729 -0.950096 -1.08209 0
M  V30 764 H 73.4259 -0.48998 -4.18542 0
M  V30 765 H 72.1499 0.327557 -3.24953 0
M  V30 766 H 70.8089 -1.80416 -3.19133 0
M  V30 767 H 70.4569 -0.143527 -5.02795 0
M  V30 768 H 70.1569 -1.80672 -5.59134 0
M  V30 769 H 71.6809 -0.982067 -6.02651 0
M  V30 770 H 73.0949 -2.96001 -4.90975 0
M  V30 771 H 71.4919 -3.72436 -4.70544 0
M  V30 772 H 72.5619 -3.55041 -3.30263 0
M  V30 773 N 73.905 1.17692 -1.04816 0
M  V30 774 C 74.837 2.21103 -0.603822 0
M  V30 775 C 75.85 1.59411 0.33046 0
M  V30 776 O 77.039 1.7807 0.12379 0
M  V30 777 C 74.139 3.38623 0.136898 0
M  V30 778 C 73.312 4.29888 -0.807137 0
M  V30 779 C 72.371 5.26088 -0.10836 0
M  V30 780 O 71.397 5.64353 -0.741232 0
M  V30 781 N 72.599 5.68882 1.15558 0
M  V30 782 H 75.364 2.59848 -1.49329 0
M  V30 783 H 72.925 1.32553 -0.929587 0
M  V30 784 H 74.917 4.00009 0.614401 0
M  V30 785 H 73.487 2.98508 0.927993 0
M  V30 786 H 72.707 3.65993 -1.46434 0
M  V30 787 H 73.995 4.87759 -1.44807 0
M  V30 788 H 73.393 5.39861 1.69015 0
M  V30 789 H 71.95 6.32429 1.57722 0
M  V30 790 N 75.3831 0.828654 1.34056 0
M  V30 791 C 76.3131 0.269443 2.3194 0
M  V30 792 C 77.2941 -0.617247 1.58506 0
M  V30 793 O 78.4791 -0.542931 1.86456 0
M  V30 794 C 75.6091 -0.564793 3.42677 0
M  V30 795 C 74.5631 0.225241 4.27407 0
M  V30 796 C 73.8891 -0.7321 5.29664 0
M  V30 797 C 75.1891 1.43663 5.02154 0
M  V30 798 H 76.8831 1.08728 2.7896 0
M  V30 799 H 74.4291 0.524283 1.34117 0
M  V30 800 H 76.3821 -0.966233 4.10173 0
M  V30 801 H 75.1061 -1.41574 2.9432 0
M  V30 802 H 73.7651 0.608117 3.61521 0
M  V30 803 H 73.4131 -1.57916 4.77568 0
M  V30 804 H 73.1131 -0.20767 5.87233 0
M  V30 805 H 74.6371 -1.13128 6.00029 0
M  V30 806 H 76.0511 1.1089 5.62473 0
M  V30 807 H 74.4481 1.89711 5.69324 0
M  V30 808 H 75.5181 2.21181 4.31517 0
M  V30 809 N 76.8612 -1.46375 0.584142 0
M  V30 810 C 78.2722 -1.86031 0.157959 0
M  V30 811 C 78.6232 -1.48753 -1.27933 0
M  V30 812 O 77.7482 -0.903098 -1.96655 0
M  V30 813 C 78.3432 -3.37642 0.279892 0
M  V30 814 C 76.9022 -3.76289 -0.09143 0
M  V30 815 C 76.0492 -2.7039 0.615178 0
M  V30 816 H 79.0002 -1.37509 0.792274 0
M  V30 817 H 79.0212 -3.77275 -0.494364 0
M  V30 818 H 78.5332 -3.64742 1.32607 0
M  V30 819 H 76.6342 -3.54806 -1.13769 0
M  V30 820 H 76.7472 -4.78246 0.285886 0
M  V30 821 H 75.1112 -2.5464 0.0552833 0
M  V30 822 H 75.8942 -3.0033 1.66303 0
M  V30 823 N 78.3393 -0.321999 -1.54275 0
M  V30 824 C 79.7503 0.166384 -1.85957 0
M  V30 825 C 80.1013 1.51747 -1.24367 0
M  V30 826 O 79.2263 2.09317 -0.549124 0
M  V30 827 C 79.8213 0.308681 -3.37391 0
M  V30 828 C 78.3803 0.741286 -3.69028 0
M  V30 829 C 77.5273 -0.137937 -2.76957 0
M  V30 830 H 80.4783 -0.542335 -1.49146 0
M  V30 831 H 80.4993 1.13984 -3.63026 0
M  V30 832 H 80.0113 -0.674809 -3.82188 0
M  V30 833 H 78.1123 1.73458 -3.29762 0
M  V30 834 H 78.2253 0.546118 -4.75977 0
M  V30 835 H 76.5893 0.386251 -2.51754 0
M  V30 836 H 77.3723 -1.11816 -3.2458 0
M  V30 837 N 79.8174 1.5752 -0.0501392 0
M  V30 838 C 80.7474 2.14502 0.922566 0
M  V30 839 C 81.7284 1.06642 1.3252 0
M  V30 840 O 82.9134 1.34577 1.4001 0
M  V30 841 C 80.0434 2.68916 2.19776 0
M  V30 842 C 78.9974 3.8175 1.93523 0
M  V30 843 C 78.3234 4.22677 3.27487 0
M  V30 844 C 79.6234 5.06932 1.25765 0
M  V30 845 H 81.3174 2.9603 0.447952 0
M  V30 846 H 78.8634 1.42401 0.214024 0
M  V30 847 H 80.8164 3.07419 2.88222 0
M  V30 848 H 79.5404 1.84578 2.69441 0
M  V30 849 H 78.1994 3.43718 1.27489 0
M  V30 850 H 77.8474 3.35291 3.74952 0
M  V30 851 H 77.5474 4.98725 3.1072 0
M  V30 852 H 79.0714 4.63779 3.97166 0
M  V30 853 H 80.4854 5.42888 1.84244 0
M  V30 854 H 78.8824 5.88116 1.19328 0
M  V30 855 H 79.9524 4.84337 0.233536 0
M  V30 856 N 81.2955 -0.223234 1.56011 0
M  V30 857 C 82.5205 -0.968978 1.83373 0
M  V30 858 C 82.9455 -1.77227 0.630254 0
M  V30 859 O 82.3035 -1.76345 -0.420959 0
M  V30 860 C 82.3515 -1.86363 3.08709 0
M  V30 861 O 81.4555 -2.95873 2.87285 0
M  V30 862 H 80.7965 -0.274461 0.604622 0
M  V30 863 H 83.3265 -0.237056 2.03222 0
M  V30 864 H 83.3365 -2.27376 3.38768 0
M  V30 865 H 82.0115 -1.27319 3.95933 0
M  V30 866 H 80.5885 -2.58818 2.68454 0
M  V30 867 N 82.7736 -1.49793 -0.48987 0
M  V30 868 C 83.7056 -1.63413 -1.60713 0
M  V30 869 C 84.7186 -0.516329 -1.54395 0
M  V30 870 O 85.9076 -0.788812 -1.60125 0
M  V30 871 C 83.0076 -1.58516 -2.99543 0
M  V30 872 C 82.1806 -2.86016 -3.30928 0
M  V30 873 C 81.2396 -2.74018 -4.49222 0
M  V30 874 O 80.2656 -3.47964 -4.50455 0
M  V30 875 N 81.4676 -1.86309 -5.4979 0
M  V30 876 H 84.2326 -2.59777 -1.49452 0
M  V30 877 H 81.7936 -1.47022 -0.677955 0
M  V30 878 H 83.7856 -1.48128 -3.76617 0
M  V30 879 H 82.3556 -0.69965 -3.0467 0
M  V30 880 H 81.5756 -3.10672 -2.42645 0
M  V30 881 H 82.8636 -3.70521 -3.487 0
M  V30 882 H 82.2616 -1.2551 -5.51601 0
M  V30 883 H 80.8186 -1.81837 -6.25922 0
M  V30 884 N 84.2517 0.741722 -1.39055 0
M  V30 885 C 85.6677 1.04638 -1.20512 0
M  V30 886 C 85.8677 2.01405 -0.0620218 0
M  V30 887 O 84.9237 2.45547 0.588457 0
M  V30 888 C 86.2367 1.6151 -2.53643 0
M  V30 889 C 87.7847 1.73623 -2.6043 0
M  V30 890 C 88.2597 2.33906 -3.93767 0
M  V30 891 N 89.7507 2.41323 -3.9537 0
M  V30 892 C 90.4857 2.88888 -4.95309 0
M  V30 893 N 89.9817 3.36401 -6.05645 0
M  V30 894 N 91.7747 2.88037 -4.82692 0
M  V30 895 H 83.9257 0.0998155 -2.12165 0
M  V30 896 H 86.1887 0.106907 -0.941953 0
M  V30 897 H 85.8947 0.978739 -3.37807 0
M  V30 898 H 85.7687 2.60411 -2.72885 0
M  V30 899 H 88.1557 2.36384 -1.76655 0
M  V30 900 H 88.2367 0.733945 -2.45045 0
M  V30 901 H 87.8807 1.71776 -4.7797 0
M  V30 902 H 87.8107 3.34799 -4.06469 0
M  V30 903 H 90.3017 2.07734 -3.15682 0
M  V30 904 H 90.6147 3.71186 -6.77821 0
M  V30 905 H 88.9597 3.34427 -6.09248 0
M  V30 906 H 92.1507 2.50237 -3.95599 0
M  V30 907 H 92.3237 3.24792 -5.60726 0
M  V30 908 N 85.7298 1.2412 0.971189 0
M  V30 909 C 86.6618 0.988349 2.06795 0
M  V30 910 C 87.6748 -0.0409541 1.62748 0
M  V30 911 O 88.8638 0.195673 1.77424 0
M  V30 912 C 85.9638 0.469023 3.35639 0
M  V30 913 C 85.1368 1.56065 4.08611 0
M  V30 914 C 84.1958 1.04458 5.15728 0
M  V30 915 O 83.2218 1.73553 5.42096 0
M  V30 916 N 84.4238 -0.122817 5.8037 0
M  V30 917 H 87.1888 1.93265 2.29061 0
M  V30 918 H 84.7498 1.15102 1.13856 0
M  V30 919 H 86.7418 0.108613 4.04554 0
M  V30 920 H 85.3118 -0.380919 3.1027 0
M  V30 921 H 84.5318 2.09341 3.34021 0
M  V30 922 H 85.8198 2.29449 4.54126 0
M  V30 923 H 85.2178 -0.700563 5.61345 0
M  V30 924 H 83.7748 -0.424404 6.50417 0
M  V30 925 N 87.2079 -1.17134 1.05439 0
M  V30 926 C 88.4329 -1.91913 0.786396 0
M  V30 927 C 88.8579 -1.7643 -0.652234 0
M  V30 928 O 88.2159 -1.08372 -1.45345 0
M  V30 929 C 88.2639 -3.40921 1.17497 0
M  V30 930 O 87.3679 -4.11244 0.308589 0
M  V30 931 H 86.7089 -0.598215 0.288158 0
M  V30 932 H 89.2389 -1.48457 1.4079 0
M  V30 933 H 89.2489 -3.91668 1.14281 0
M  V30 934 H 87.9239 -3.5151 2.22292 0
M  V30 935 H 86.5009 -3.70731 0.40157 0
M  V30 936 N 88.686 -0.835752 -1.33615 0
M  V30 937 C 89.596 -0.269088 -2.33052 0
M  V30 938 C 90.612 0.603251 -1.63208 0
M  V30 939 O 91.788 0.508112 -1.94885 0
M  V30 940 C 88.853 0.549091 -3.42324 0
M  V30 941 C 87.914 -0.347156 -4.27894 0
M  V30 942 C 87.147 0.43207 -5.31948 0
M  V30 943 O 87.37 1.66409 -5.45586 0
M  V30 944 O 86.304 -0.192298 -6.01593 0
M  V30 945 H 90.13 -1.09243 -2.83372 0
M  V30 946 H 87.715 -0.598198 -1.36901 0
M  V30 947 H 89.597 1.01414 -4.09015 0
M  V30 948 H 88.272 1.34955 -2.94226 0
M  V30 949 H 87.179 -0.859979 -3.64081 0
M  V30 950 H 88.512 -1.1123 -4.79467 0
M  V30 951 N 90.1641 1.46063 -0.591896 0
M  V30 952 C 91.5801 1.57561 -0.254288 0
M  V30 953 C 91.7801 1.58565 1.24336 0
M  V30 954 O 90.8361 1.50753 2.02558 0
M  V30 955 C 92.1491 2.86549 -0.911611 0
M  V30 956 C 93.6971 3.00197 -0.886059 0
M  V30 957 C 94.1721 4.31933 -1.5231 0
M  V30 958 N 95.6631 4.38654 -1.48786 0
M  V30 959 C 96.3981 5.39222 -1.95006 0
M  V30 960 N 95.8941 6.46414 -2.49241 0
M  V30 961 N 97.6871 5.3048 -1.85868 0
M  V30 962 H 89.8381 1.43655 -1.56451 0
M  V30 963 H 92.1011 0.68583 -0.654478 0
M  V30 964 H 91.8071 2.91651 -1.96551 0
M  V30 965 H 91.6811 3.74794 -0.425368 0
M  V30 966 H 94.0681 2.9467 0.159246 0
M  V30 967 H 94.1491 2.13403 -1.41041 0
M  V30 968 H 93.7931 4.38217 -2.56765 0
M  V30 969 H 93.7231 5.17516 -0.973891 0
M  V30 970 H 96.2141 3.61793 -1.09151 0
M  V30 971 H 96.5271 7.19376 -2.82344 0
M  V30 972 H 94.8721 6.47208 -2.53272 0
M  V30 973 H 98.0631 4.45643 -1.43248 0
M  V30 974 H 98.2361 6.08711 -2.22204 0
M  V30 975 N 91.6422 0.330177 1.54103 0
M  V30 976 C 92.6052 -0.520144 2.2322 0
M  V30 977 C 93.6052 -1.03828 1.22786 0
M  V30 978 O 94.7952 -0.929652 1.4732 0
M  V30 979 C 91.9272 -1.72317 2.94142 0
M  V30 980 H 93.1202 0.0841605 2.99782 0
M  V30 981 H 90.6732 0.0813433 1.56088 0
M  V30 982 H 91.4082 -2.36653 2.21734 0
M  V30 983 H 91.1932 -1.35898 3.67796 0
M  V30 984 H 92.6832 -2.3266 3.46784 0
M  V30 985 N 93.1203 -1.57491 0.0584922 0
M  V30 986 C 94.5363 -1.56792 -0.298091 0
M  V30 987 C 94.7363 -1.06679 -1.70944 0
M  V30 988 O 93.7923 -0.726672 -2.41818 0
M  V30 989 C 95.1053 -3.00461 -0.119879 0
M  V30 990 C 96.6533 -3.1242 -0.190428 0
M  V30 991 C 97.1283 -4.57982 -0.0406567 0
M  V30 992 N 98.6193 -4.63099 -0.0966958 0
M  V30 993 C 99.3543 -5.734 -0.00502943 0
M  V30 994 N 98.8503 -6.9266 0.139402 0
M  V30 995 N 100.643 -5.62067 -0.0611391 0
M  V30 996 H 92.7943 -1.88386 0.98105 0
M  V30 997 H 95.0573 -0.867865 0.381463 0
M  V30 998 H 94.7633 -3.41187 0.85349 0
M  V30 999 H 94.6373 -3.66843 -0.877833 0
M  V30 1000 H 97.0243 -2.71589 -1.15427 0
M  V30 1001 H 97.1053 -2.48702 0.598405 0
M  V30 1002 H 96.7493 -4.995 0.919897 0
M  V30 1003 H 96.6793 -5.19715 -0.848727 0
M  V30 1004 H 99.1703 -3.77331 -0.207277 0
M  V30 1005 H 99.4833 -7.72536 0.201855 0
M  V30 1006 H 97.8283 -6.94781 0.174586 0
M  V30 1007 H 101.019 -4.67782 -0.172583 0
M  V30 1008 H 101.192 -6.47999 0.0137562 0
M  V30 1009 N 94.5984 0.214957 -1.56127 0
M  V30 1010 C 95.8264 0.955092 -1.83536 0
M  V30 1011 C 96.2414 1.77677 -0.638472 0
M  V30 1012 O 95.5984 1.78219 0.392968 0
M  V30 1013 C 95.6494 1.86734 -3.09536 0
M  V30 1014 O 95.3704 1.07887 -4.24608 0
M  V30 1015 C 96.8714 2.72082 -3.4998 0
M  V30 1016 H 94.0914 0.279611 -0.609966 0
M  V30 1017 H 96.6354 0.228197 -2.03223 0
M  V30 1018 H 94.7904 2.5481 -2.91806 0
M  V30 1019 H 95.2044 1.69872 -4.9623 0
M  V30 1020 H 96.6784 3.31782 -4.41163 0
M  V30 1021 H 97.1554 3.44806 -2.7204 0
M  V30 1022 H 97.7614 2.09409 -3.70173 0
M  V30 1023 N 96.0765 1.50051 0.48192 0
M  V30 1024 C 97.4875 1.5348 1.06305 0
M  V30 1025 C 97.8385 0.331997 1.93371 0
M  V30 1026 O 96.9635 -0.556256 2.09129 0
M  V30 1027 C 97.5585 2.7813 1.93466 0
M  V30 1028 C 96.1175 2.84275 2.46707 0
M  V30 1029 C 95.2645 2.47637 1.24785 0
M  V30 1030 H 98.2155 1.56472 0.264995 0
M  V30 1031 H 98.2365 2.59372 2.78399 0
M  V30 1032 H 97.7485 3.65654 1.30072 0
M  V30 1033 H 95.8495 2.01077 3.13686 0
M  V30 1034 H 95.9625 3.8691 2.82555 0
M  V30 1035 H 94.3265 1.99835 1.57918 0
M  V30 1036 H 95.1095 3.37457 0.630694 0
M  V30 1037 N 97.5546 -0.734337 1.39446 0
M  V30 1038 C 98.4646 -1.87879 1.40495 0
M  V30 1039 C 99.4806 -1.714 0.299672 0
M  V30 1040 O 100.657 -1.93991 0.541249 0
M  V30 1041 C 97.7216 -3.23477 1.24754 0
M  V30 1042 C 96.7826 -3.52344 2.45259 0
M  V30 1043 C 96.0156 -4.81473 2.30259 0
M  V30 1044 O 96.2386 -5.55237 1.30643 0
M  V30 1045 O 95.1726 -5.10254 3.19256 0
M  V30 1046 H 98.9986 -1.89949 2.36966 0
M  V30 1047 H 96.5836 -0.882243 1.20569 0
M  V30 1048 H 98.4656 -4.04509 1.18111 0
M  V30 1049 H 97.1406 -3.22176 0.313781 0
M  V30 1050 H 96.0476 -2.71396 2.57478 0
M  V30 1051 H 97.3806 -3.58426 3.37331 0
M  V30 1052 N 99.0327 -1.24633 -0.964593 0
M  V30 1053 C 100.281 -1.08573 -1.70459 0
M  V30 1054 C 100.602 0.375655 -1.91347 0
M  V30 1055 O 99.8717 1.26779 -1.49345 0
M  V30 1056 H 98.4517 -0.398784 -0.631649 0
M  V30 1057 H 101.114 -1.56601 -1.16026 0
M  V30 1058 H 100.21 -1.58623 -2.68785 0
M  V30 1059 N 100.511 1.16574 -1.06058 0
M  V30 1060 C 101.788 1.83048 -0.689416 0
M  V30 1061 C 102.168 1.94122 0.829443 0
M  V30 1062 O 101.516 1.48249 1.7388 0
M  V30 1063 C 101.726 3.20186 -1.38859 0
M  V30 1064 C 103.074 3.95989 -1.53226 0
M  V30 1065 O 104.098 3.29696 -1.3483 0
M  V30 1066 O 102.957 5.14813 -1.83384 0
M  V30 1067 H 100.051 0.790258 -0.243764 0
M  V30 1068 H 102.597 1.23797 -1.16071 0
M  V30 1069 H 101.369 3.07146 -2.4244 0
M  V30 1070 H 100.992 3.87112 -0.907216 0
M  V30 1071 N 101.989 0.842826 1.3317 0
M  V30 1072 C 103.237 0.439577 1.97262 0
M  V30 1073 C 103.558 -1.00548 1.67078 0
M  V30 1074 O 102.828 -1.70098 0.971779 0
M  V30 1075 H 101.408 0.159558 0.72976 0
M  V30 1076 H 104.07 1.07665 1.62463 0
M  V30 1077 H 103.166 0.574886 3.0676 0
M  V30 1078 N 103.467 -1.45747 0.599634 0
M  V30 1079 C 104.716 -2.01502 0.0893511 0
M  V30 1080 C 105.029 -1.4748 -1.28488 0
M  V30 1081 O 106.235 -1.95161 -1.88745 0
M  V30 1082 C 104.691 -3.59735 0.109082 0
M  V30 1083 C 104.299 -4.22754 1.48267 0
M  V30 1084 C 106.043 -4.23085 -0.346374 0
M  V30 1085 C 103.95 -5.73115 1.45921 0
M  V30 1086 H 102.88 -0.753417 0.0296347 0
M  V30 1087 H 105.531 -1.67303 0.753788 0
M  V30 1088 H 103.913 -3.91087 -0.621854 0
M  V30 1089 H 105.087 -4.02987 2.23468 0
M  V30 1090 H 103.402 -3.71567 1.87955 0
M  V30 1091 H 105.999 -5.33327 -0.38298 0
M  V30 1092 H 106.342 -3.93201 -1.36743 0
M  V30 1093 H 106.875 -3.9642 0.331038 0
M  V30 1094 H 103.614 -6.07685 2.45762 0
M  V30 1095 H 103.134 -5.95097 0.749665 0
M  V30 1096 H 104.813 -6.3616 1.17941 0
M  V30 1097 N 104.945 -0.338344 -1.53925 0
M  V30 1098 C 106.17 0.263987 -2.05713 0
M  V30 1099 C 106.595 1.43847 -1.21201 0
M  V30 1100 O 105.953 1.79904 -0.224535 0
M  V30 1101 C 106.001 0.662 -3.54471 0
M  V30 1102 O 105.105 1.76265 -3.72833 0
M  V30 1103 H 104.446 0.0448722 -0.662482 0
M  V30 1104 H 106.976 -0.491048 -1.9862 0
M  V30 1105 H 106.986 0.940594 -3.9701 0
M  V30 1106 H 105.661 -0.196937 -4.15433 0
M  V30 1107 H 104.238 1.48173 -3.42198 0
M  V30 1108 N 106.423 1.57458 -0.0668435 0
M  V30 1109 C 107.839 1.56947 0.289772 0
M  V30 1110 C 108.039 1.07584 1.70376 0
M  V30 1111 O 107.095 0.739486 2.41429 0
M  V30 1112 C 108.408 3.0052 0.103943 0
M  V30 1113 C 109.956 3.12517 0.173857 0
M  V30 1114 C 110.431 4.57997 0.0163682 0
M  V30 1115 N 111.922 4.63144 0.0721352 0
M  V30 1116 C 112.657 5.73394 -0.0253794 0
M  V30 1117 N 112.153 6.92576 -0.176133 0
M  V30 1118 N 113.946 5.62091 0.0313305 0
M  V30 1119 H 106.097 1.87863 -0.991027 0
M  V30 1120 H 108.36 0.86583 -0.38606 0
M  V30 1121 H 108.066 3.40729 -0.871572 0
M  V30 1122 H 107.94 3.67304 0.858366 0
M  V30 1123 H 110.327 2.72197 1.13985 0
M  V30 1124 H 110.408 2.48381 -0.611586 0
M  V30 1125 H 110.052 4.99005 -0.946374 0
M  V30 1126 H 109.982 5.20158 0.821153 0
M  V30 1127 H 112.473 3.77436 0.187263 0
M  V30 1128 H 112.786 7.72418 -0.242821 0
M  V30 1129 H 111.131 6.94678 -0.211429 0
M  V30 1130 H 114.322 4.67867 0.147773 0
M  V30 1131 H 114.495 6.47982 -0.048121 0
M  V30 1132 N 107.901 -0.206675 1.56239 0
M  V30 1133 C 109.312 -0.772383 1.69974 0
M  V30 1134 C 109.663 -1.84353 0.671436 0
M  V30 1135 O 108.788 -2.15695 -0.174491 0
M  V30 1136 C 109.383 -1.40779 3.08167 0
M  V30 1137 C 107.942 -1.92072 3.23706 0
M  V30 1138 C 107.089 -0.786347 2.65917 0
M  V30 1139 H 110.04 0.0182223 1.5869 0
M  V30 1140 H 110.061 -2.27696 3.04852 0
M  V30 1141 H 109.573 -0.627958 3.82986 0
M  V30 1142 H 107.674 -2.7281 2.53782 0
M  V30 1143 H 107.787 -2.09046 4.31087 0
M  V30 1144 H 106.151 -1.1976 2.24788 0
M  V30 1145 H 106.934 -0.0189416 3.43295 0
M  V30 1146 N 109.379 -1.50304 -0.473955 0
M  V30 1147 C 110.607 -1.64902 -1.24959 0
M  V30 1148 C 111.022 -0.331198 -1.85872 0
M  V30 1149 O 110.379 0.68652 -1.69095 0
M  V30 1150 C 110.43 -2.73803 -2.36038 0
M  V30 1151 O 110.151 -4.00477 -1.77624 0
M  V30 1152 C 111.652 -2.99349 -3.26964 0
M  V30 1153 H 108.872 -0.554383 -0.378022 0
M  V30 1154 H 111.416 -1.9651 -0.566054 0
M  V30 1155 H 109.571 -2.44898 -3.00173 0
M  V30 1156 H 109.985 -4.60678 -2.5075 0
M  V30 1157 H 111.459 -3.79217 -4.01121 0
M  V30 1158 H 111.936 -2.10307 -3.85574 0
M  V30 1159 H 112.542 -3.29774 -2.68569 0
M  V30 1160 N 110.857 0.726932 -1.39834 0
M  V30 1161 C 112.085 1.51613 -1.40787 0
M  V30 1162 C 112.5 1.88799 -0.00451505 0
M  V30 1163 O 111.857 1.54662 0.968809 0
M  V30 1164 C 111.908 2.79863 -2.28821 0
M  V30 1165 O 111.629 2.44253 -3.63692 0
M  V30 1166 C 113.13 3.73837 -2.38245 0
M  V30 1167 H 110.35 0.468264 -0.480593 0
M  V30 1168 H 112.894 0.897607 -1.83748 0
M  V30 1169 H 111.049 3.38027 -1.89252 0
M  V30 1170 H 111.463 3.26695 -4.1033 0
M  V30 1171 H 112.937 4.60699 -3.04073 0
M  V30 1172 H 113.414 4.16153 -1.40403 0
M  V30 1173 H 114.02 3.21589 -2.78317 0
M  V30 1174 N 112.336 1.25143 0.95797 0
M  V30 1175 C 113.266 1.07711 2.07173 0
M  V30 1176 C 114.247 -0.0128462 1.70095 0
M  V30 1177 O 115.432 0.156061 1.93572 0
M  V30 1178 C 112.562 0.691503 3.40346 0
M  V30 1179 C 111.516 1.73132 3.9142 0
M  V30 1180 C 110.842 1.20049 5.21049 0
M  V30 1181 C 112.142 3.1294 4.1817 0
M  V30 1182 H 113.836 2.00873 2.22014 0
M  V30 1183 H 111.382 0.967191 1.06684 0
M  V30 1184 H 113.335 0.556505 4.17709 0
M  V30 1185 H 112.059 -0.275819 3.25433 0
M  V30 1186 H 110.718 1.8547 3.16222 0
M  V30 1187 H 110.366 0.223499 5.02503 0
M  V30 1188 H 110.066 1.89545 5.56189 0
M  V30 1189 H 111.59 1.07782 6.01012 0
M  V30 1190 H 113.004 3.03775 4.86203 0
M  V30 1191 H 111.401 3.79875 4.64559 0
M  V30 1192 H 112.471 3.6025 3.24573 0
M  V30 1193 N 113.814 -1.1601 1.06675 0
M  V30 1194 C 115.225 -1.68235 0.809565 0
M  V30 1195 C 115.576 -1.8454 -0.666303 0
M  V30 1196 O 114.701 -1.54374 -1.5165 0
M  V30 1197 C 115.296 -3.05585 1.46299 0
M  V30 1198 C 113.855 -3.54915 1.25349 0
M  V30 1199 C 113.002 -2.30804 1.53703 0
M  V30 1200 H 115.953 -1.00318 1.22971 0
M  V30 1201 H 115.974 -3.70174 0.880431 0
M  V30 1202 H 115.486 -2.93686 2.53713 0
M  V30 1203 H 113.587 -3.72067 0.199261 0
M  V30 1204 H 113.7 -4.36774 1.9689 0
M  V30 1205 H 112.064 -2.36007 0.957739 0
M  V30 1206 H 112.847 -2.21499 2.62284 0
M  V30 1207 N 115.292 -0.849877 -1.32721 0
M  V30 1208 C 116.222 -0.306308 -2.31482 0
M  V30 1209 C 117.203 0.591952 -1.59468 0
M  V30 1210 O 118.388 0.513199 -1.87296 0
M  V30 1211 C 115.518 0.510204 -3.43532 0
M  V30 1212 C 114.472 -0.293209 -4.26994 0
M  V30 1213 C 113.798 0.647743 -5.30762 0
M  V30 1214 C 115.098 -1.51634 -4.99804 0
M  V30 1215 H 116.792 -1.13153 -2.77195 0
M  V30 1216 H 114.338 -0.545553 -1.33266 0
M  V30 1217 H 116.291 0.900856 -4.11658 0
M  V30 1218 H 115.015 1.36874 -2.96535 0
M  V30 1219 H 113.674 -0.665555 -3.60508 0
M  V30 1220 H 113.322 1.50299 -4.8002 0
M  V30 1221 H 113.022 0.11422 -5.87489 0
M  V30 1222 H 114.546 1.03567 -6.01753 0
M  V30 1223 H 115.96 -1.19824 -5.60638 0
M  V30 1224 H 114.357 -1.98745 -5.66234 0
M  V30 1225 H 115.427 -2.28018 -4.27943 0
M  V30 1226 N 116.77 1.45427 -0.607355 0
M  V30 1227 C 117.998 2.06614 -0.108814 0
M  V30 1228 C 118.413 1.45204 1.2067 0
M  V30 1229 O 117.77 0.566132 1.73497 0
M  V30 1230 C 117.821 3.61481 0.0375347 0
M  V30 1231 O 117.542 4.20598 -1.22593 0
M  V30 1232 C 119.043 4.39652 0.567561 0
M  V30 1233 H 116.263 0.66747 -0.0687351 0
M  V30 1234 H 118.807 1.86675 -0.835022 0
M  V30 1235 H 116.962 3.80762 0.714068 0
M  V30 1236 H 117.376 5.1377 -1.05547 0
M  V30 1237 H 118.85 5.48518 0.61905 0
M  V30 1238 H 119.327 4.09417 1.58978 0
M  V30 1239 H 119.933 4.25234 -0.0749202 0
M  V30 1240 N 118.248 0.346503 1.53744 0
M  V30 1241 C 119.476 -0.25041 2.05379 0
M  V30 1242 C 119.891 -1.43979 1.22129 0
M  V30 1243 O 119.248 -1.80677 0.257321 0
M  V30 1244 C 119.299 -0.662575 3.55376 0
M  V30 1245 O 119.02 0.479515 4.35468 0
M  V30 1246 C 120.521 -1.31989 4.23195 0
M  V30 1247 H 117.741 -0.0478198 0.669294 0
M  V30 1248 H 120.285 0.499346 1.9831 0
M  V30 1249 H 118.44 -1.36227 3.62658 0
M  V30 1250 H 118.854 0.15037 5.24284 0
M  V30 1251 H 120.328 -1.55902 5.29527 0
M  V30 1252 H 120.805 -2.27436 3.75725 0
M  V30 1253 H 121.411 -0.662154 4.20114 0
M  V30 1254 N 119.726 -1.57421 0.075193 0
M  V30 1255 C 120.656 -2.15942 -0.888324 0
M  V30 1256 C 121.637 -1.08737 -1.30806 0
M  V30 1257 O 122.822 -1.36787 -1.37851 0
M  V30 1258 C 119.952 -2.72379 -2.1547 0
M  V30 1259 C 118.906 -3.8478 -1.87425 0
M  V30 1260 C 118.232 -4.27834 -3.20721 0
M  V30 1261 C 119.532 -5.08869 -1.17684 0
M  V30 1262 H 121.226 -2.96705 -0.400799 0
M  V30 1263 H 118.772 -1.42723 -0.191342 0
M  V30 1264 H 120.725 -3.11965 -2.83295 0
M  V30 1265 H 119.449 -1.88841 -2.6647 0
M  V30 1266 H 118.108 -3.45703 -1.22004 0
M  V30 1267 H 117.756 -3.41214 -3.6957 0
M  V30 1268 H 117.456 -5.03605 -3.02746 0
M  V30 1269 H 118.98 -4.70039 -3.89738 0
M  V30 1270 H 120.394 -5.4575 -1.75584 0
M  V30 1271 H 118.791 -5.8994 -1.09956 0
M  V30 1272 H 119.861 -4.84648 -0.156453 0
M  V30 1273 N 121.204 0.198386 -1.56346 0
M  V30 1274 C 122.615 0.763358 -1.70381 0
M  V30 1275 C 122.966 1.83995 -0.681203 0
M  V30 1276 O 122.091 2.15785 0.16305 0
M  V30 1277 C 122.686 1.39143 -3.08909 0
M  V30 1278 C 121.245 1.90352 -3.2472 0
M  V30 1279 C 120.392 0.772233 -2.6633 0
M  V30 1280 H 123.343 -0.0266377 -1.58678 0
M  V30 1281 H 123.364 2.26076 -3.06055 0
M  V30 1282 H 122.876 0.607638 -3.83314 0
M  V30 1283 H 120.977 2.71461 -2.55225 0
M  V30 1284 H 121.09 2.06757 -4.3219 0
M  V30 1285 H 119.454 1.18566 -2.2542 0
M  V30 1286 H 120.237 0.00073556 -3.433 0
M  V30 1287 N 122.682 1.50554 0.465978 0
M  V30 1288 C 123.907 1.65838 1.24549 0
M  V30 1289 C 124.332 0.343486 1.84937 0
M  V30 1290 O 123.69 -0.69324 1.67523 0
M  V30 1291 C 123.738 2.75533 2.32624 0
M  V30 1292 O 122.842 2.37142 3.37398 0
M  V30 1293 H 122.183 0.553893 0.366194 0
M  V30 1294 H 124.713 1.96959 0.553927 0
M  V30 1295 H 124.723 2.98763 2.77857 0
M  V30 1296 H 123.398 3.70962 1.88043 0
M  V30 1297 H 121.975 2.24377 2.97841 0
M  V30 1298 N 124.16 -0.719506 1.40217 0
M  V30 1299 C 125.409 -1.47486 1.37589 0
M  V30 1300 C 125.722 -1.9559 -0.0201568 0
M  V30 1301 O 126.928 -2.70973 -0.169049 0
M  V30 1302 C 125.384 -2.66575 2.41796 0
M  V30 1303 C 124.992 -2.25358 3.87192 0
M  V30 1304 C 126.736 -3.4433 2.48269 0
M  V30 1305 C 124.643 -3.41262 4.83005 0
M  V30 1306 H 123.573 -0.553901 0.511576 0
M  V30 1307 H 126.224 -0.783427 1.65936 0
M  V30 1308 H 124.606 -3.3787 2.06543 0
M  V30 1309 H 125.78 -1.61509 4.31569 0
M  V30 1310 H 124.095 -1.60657 3.84159 0
M  V30 1311 H 126.692 -4.30569 3.17041 0
M  V30 1312 H 127.035 -3.87872 1.51198 0
M  V30 1313 H 127.568 -2.80076 2.82493 0
M  V30 1314 H 124.307 -3.02755 5.81394 0
M  V30 1315 H 123.827 -4.0404 4.43297 0
M  V30 1316 H 125.506 -4.07383 5.02641 0
M  V30 1317 N 125.638 -1.25649 -0.95132 0
M  V30 1318 C 126.601 -1.06399 -2.03007 0
M  V30 1319 C 127.601 -0.0156794 -1.60792 0
M  V30 1320 O 128.791 -0.25817 -1.72276 0
M  V30 1321 C 125.923 -0.616184 -3.35285 0
M  V30 1322 H 127.116 -2.02164 -2.21517 0
M  V30 1323 H 124.669 -1.08103 -1.12887 0
M  V30 1324 H 125.404 0.343917 -3.22471 0
M  V30 1325 H 125.189 -1.37301 -3.67275 0
M  V30 1326 H 126.679 -0.503032 -4.14559 0
M  V30 1327 N 127.117 1.15442 -1.07289 0
M  V30 1328 C 128.366 1.85557 -0.790669 0
M  V30 1329 C 128.679 1.83186 0.685739 0
M  V30 1330 O 129.885 2.48977 1.0827 0
M  V30 1331 C 128.341 3.33038 -1.36433 0
M  V30 1332 C 127.949 3.43856 -2.8717 0
M  V30 1333 C 129.693 4.0834 -1.1601 0
M  V30 1334 C 127.6 4.85482 -3.3773 0
M  V30 1335 H 126.53 0.695122 -0.292098 0
M  V30 1336 H 129.181 1.30219 -1.29287 0
M  V30 1337 H 127.563 3.88043 -0.789864 0
M  V30 1338 H 128.737 2.98961 -3.50655 0
M  V30 1339 H 127.052 2.81998 -3.06376 0
M  V30 1340 H 129.649 5.12859 -1.51262 0
M  V30 1341 H 129.992 4.16182 -0.0991007 0
M  V30 1342 H 130.525 3.59603 -1.70089 0
M  V30 1343 H 127.264 4.82823 -4.43353 0
M  V30 1344 H 126.784 5.30961 -2.78999 0
M  V30 1345 H 128.463 5.54335 -3.33648 0
M  V30 1346 N 128.595 0.856903 1.32268 0
M  V30 1347 C 129.823 0.475439 2.01363 0
M  V30 1348 C 130.238 -0.928486 1.64392 0
M  V30 1349 O 129.595 -1.60624 0.866387 0
M  V30 1350 C 129.646 0.607545 3.56358 0
M  V30 1351 O 129.367 1.95617 3.92002 0
M  V30 1352 C 130.868 0.225382 4.42727 0
M  V30 1353 H 128.088 0.186636 0.644521 0
M  V30 1354 H 130.632 1.15446 1.68797 0
M  V30 1355 H 128.787 -0.0237719 3.87393 0
M  V30 1356 H 129.201 1.95455 4.86721 0
M  V30 1357 H 130.675 0.368813 5.50767 0
M  V30 1358 H 131.152 -0.834369 4.31202 0
M  V30 1359 H 131.758 0.831864 4.17085 0
M  V30 1360 N 130.073 -1.45103 0.615059 0
M  V30 1361 C 131.301 -2.06553 0.11977 0
M  V30 1362 C 131.716 -1.45842 -1.19898 0
M  V30 1363 O 131.073 -0.575325 -1.73194 0
M  V30 1364 C 131.124 -3.61495 -0.018364 0
M  V30 1365 O 130.845 -4.19942 1.24822 0
M  V30 1366 C 132.346 -4.39947 -0.544237 0
M  V30 1367 H 129.566 -0.667096 0.0722739 0
M  V30 1368 H 132.11 -1.8623 0.84491 0
M  V30 1369 H 130.265 -3.81135 -0.693865 0
M  V30 1370 H 130.679 -5.13204 1.0827 0
M  V30 1371 H 132.153 -5.48838 -0.589953 0
M  V30 1372 H 132.63 -4.10255 -1.56805 0
M  V30 1373 H 133.236 -4.25188 0.0974703 0
M  V30 1374 N 131.551 -0.354651 -1.53558 0
M  V30 1375 C 132.797 0.238797 -2.01389 0
M  V30 1376 C 133.13 1.49309 -1.2418 0
M  V30 1377 O 132.405 1.91638 -0.332457 0
M  V30 1378 C 132.688 0.541771 -3.56001 0
M  V30 1379 C 132.541 -0.725388 -4.43912 0
M  V30 1380 C 133.86 1.34685 -4.18984 0
M  V30 1381 H 130.979 0.0853177 -0.732045 0
M  V30 1382 H 133.621 -0.477384 -1.83905 0
M  V30 1383 H 131.771 1.15189 -3.71031 0
M  V30 1384 H 133.443 -1.36313 -4.407 0
M  V30 1385 H 131.686 -1.34801 -4.12324 0
M  V30 1386 H 132.357 -0.468505 -5.50008 0
M  V30 1387 H 134.833 0.830837 -4.07721 0
M  V30 1388 H 133.709 1.52759 -5.27215 0
M  V30 1389 H 133.97 2.35221 -3.74331 0
M  V30 1390 N 133.029 1.57378 -0.0835403 0
M  V30 1391 C 134.254 1.98682 0.594987 0
M  V30 1392 C 134.679 0.961969 1.61641 0
M  V30 1393 O 134.037 -0.0709989 1.81161 0
M  V30 1394 C 134.085 3.38988 1.2296 0
M  V30 1395 O 133.189 3.39208 2.34546 0
M  V30 1396 H 132.53 0.646368 0.152002 0
M  V30 1397 H 135.06 2.03961 -0.161533 0
M  V30 1398 H 135.07 3.76431 1.57366 0
M  V30 1399 H 133.745 4.13107 0.481228 0
M  V30 1400 H 132.322 3.13548 2.01846 0
M  V30 1401 N 134.507 -0.190092 1.56449 0
M  V30 1402 C 135.439 -1.25973 1.91477 0
M  V30 1403 C 136.452 -1.41452 0.805931 0
M  V30 1404 O 137.641 -1.41789 1.08435 0
M  V30 1405 C 134.741 -2.63117 2.13594 0
M  V30 1406 C 133.914 -2.69182 3.4476 0
M  V30 1407 C 132.973 -3.87557 3.5593 0
M  V30 1408 O 131.999 -3.74427 4.28711 0
M  V30 1409 N 133.201 -5.03224 2.89388 0
M  V30 1410 H 135.966 -0.962394 2.83828 0
M  V30 1411 H 133.527 -0.379981 1.57378 0
M  V30 1412 H 135.519 -3.40742 2.1835 0
M  V30 1413 H 134.089 -2.85319 1.27719 0
M  V30 1414 H 133.309 -1.77793 3.51828 0
M  V30 1415 H 134.597 -2.70229 4.31107 0
M  V30 1416 H 133.995 -5.16791 2.30094 0
M  V30 1417 H 132.552 -5.78778 2.99764 0
M  V30 1418 N 135.985 -1.50799 -0.457987 0
M  V30 1419 C 136.895 -1.73426 -1.57989 0
M  V30 1420 C 137.911 -0.617745 -1.62665 0
M  V30 1421 O 139.087 -0.897614 -1.80291 0
M  V30 1422 C 136.152 -1.83557 -2.94122 0
M  V30 1423 C 135.213 -3.07345 -2.99729 0
M  V30 1424 C 134.446 -3.16983 -4.29368 0
M  V30 1425 O 134.669 -2.33077 -5.20607 0
M  V30 1426 O 133.603 -4.09812 -4.40837 0
M  V30 1427 H 137.429 -2.68555 -1.41817 0
M  V30 1428 H 135.014 -1.35052 -0.638859 0
M  V30 1429 H 136.896 -1.92326 -3.74952 0
M  V30 1430 H 135.571 -0.916137 -3.10465 0
M  V30 1431 H 134.478 -3.04068 -2.1793 0
M  V30 1432 H 135.811 -3.9891 -2.88326 0
M  V30 1433 N 137.463 0.71206 -1.40597 0
M  V30 1434 C 138.703 1.48438 -1.40519 0
M  V30 1435 C 139.067 1.91998 -0.00767611 0
M  V30 1436 O 140.268 2.6854 0.118239 0
M  V30 1437 C 138.539 2.67514 -2.37004 0
M  V30 1438 S 140.098 3.56875 -2.55315 0
M  V30 1439 H 136.916 0.507457 -0.498005 0
M  V30 1440 H 139.518 0.832355 -1.76896 0
M  V30 1441 H 138.222 2.33689 -3.37368 0
M  V30 1442 H 137.753 3.37625 -2.01923 0
M  V30 1443 H 139.768 4.62081 -1.8082 0
M  V30 1444 N 138.941 1.26152 0.944643 0
M  V30 1445 C 140.188 1.11492 1.69044 0
M  V30 1446 C 140.516 -0.342366 1.91463 0
M  V30 1447 O 139.771 -1.26812 1.49054 0
M  V30 1448 C 140.07 1.82541 3.07268 0
M  V30 1449 C 139.736 3.32445 3.04616 0
M  V30 1450 C 138.398 3.73337 3.036 0
M  V30 1451 C 140.75 4.28171 2.97185 0
M  V30 1452 C 138.078 5.08348 2.92915 0
M  V30 1453 C 140.43 5.63218 2.88041 0
M  V30 1454 C 139.094 6.03426 2.85366 0
M  V30 1455 H 138.364 0.407977 0.618576 0
M  V30 1456 H 141.011 1.56551 1.10291 0
M  V30 1457 H 139.316 1.29941 3.69625 0
M  V30 1458 H 141.013 1.68642 3.63815 0
M  V30 1459 H 137.603 2.99915 3.06185 0
M  V30 1460 H 141.787 3.97563 2.97081 0
M  V30 1461 H 137.043 5.38667 2.89219 0
M  V30 1462 H 141.217 6.37078 2.81254 0
M  V30 1463 H 138.844 7.07999 2.76842 0
M  V30 1464 N 140.419 -1.14872 1.07899 0
M  V30 1465 C 141.696 -1.81928 0.71845 0
M  V30 1466 C 142.076 -1.95417 -0.798455 0
M  V30 1467 O 141.424 -1.50997 -1.715 0
M  V30 1468 C 141.634 -3.17937 1.43935 0
M  V30 1469 C 142.982 -3.93501 1.59506 0
M  V30 1470 O 144.006 -3.27509 1.40058 0
M  V30 1471 O 142.865 -5.1183 1.91551 0
M  V30 1472 H 139.959 -0.78628 0.256305 0
M  V30 1473 H 142.505 -1.21934 1.18026 0
M  V30 1474 H 141.277 -3.0325 2.47295 0
M  V30 1475 H 140.9 -3.85619 0.968687 0
M  V30 1476 N 141.898 -0.863906 -1.31812 0
M  V30 1477 C 143.144 -0.472535 -1.97218 0
M  V30 1478 C 143.477 0.971394 -1.68159 0
M  V30 1479 O 142.752 1.68309 -0.974798 0
M  V30 1480 C 143.035 -0.723054 -3.52766 0
M  V30 1481 C 142.888 -2.21608 -3.91421 0
M  V30 1482 C 144.207 -0.185522 -4.39709 0
M  V30 1483 H 141.326 -0.173158 -0.71637 0
M  V30 1484 H 143.968 -1.08403 -1.56041 0
M  V30 1485 H 142.118 -0.202577 -3.87971 0
M  V30 1486 H 143.79 -2.80334 -3.66347 0
M  V30 1487 H 142.033 -2.691 -3.40246 0
M  V30 1488 H 142.704 -2.34203 -4.99853 0
M  V30 1489 H 145.18 -0.630726 -4.11292 0
M  V30 1490 H 144.056 -0.390306 -5.47511 0
M  V30 1491 H 144.317 0.912229 -4.32586 0
M  V30 1492 N 143.376 1.44774 -0.622745 0
M  V30 1493 C 144.286 2.34433 0.0886031 0
M  V30 1494 C 145.302 1.52131 0.844529 0
M  V30 1495 O 146.478 1.84886 0.798691 0
M  V30 1496 C 143.543 3.29986 1.0635 0
M  V30 1497 C 142.604 4.28195 0.307873 0
M  V30 1498 C 141.837 5.19183 1.23633 0
M  V30 1499 O 142.06 5.13918 2.47476 0
M  V30 1500 O 140.994 5.97515 0.725189 0
M  V30 1501 H 144.82 2.96693 -0.648599 0
M  V30 1502 H 142.405 1.44408 -0.382957 0
M  V30 1503 H 144.287 3.88825 1.6246 0
M  V30 1504 H 142.962 2.70269 1.78146 0
M  V30 1505 H 141.869 3.72927 -0.296064 0
M  V30 1506 H 143.202 4.90808 -0.3699 0
M  V30 1507 N 144.854 0.36279 1.53368 0
M  V30 1508 C 145.802 -0.500155 2.27159 0
M  V30 1509 C 146.796 -1.08575 1.3003 0
M  V30 1510 O 148.002 -1.02927 1.47668 0
M  V30 1511 H 144.377 -0.180009 0.730138 0
M  V30 1512 H 146.348 0.14401 2.98052 0
M  V30 1513 C 145.097 -1.62937 3.07159 0
M  V30 1514 H 144.42 -1.18806 3.8174 0
M  V30 1515 H 145.86 -2.20795 3.61975 0
M  V30 1516 C 144.319 -2.57007 2.17829 0
M  V30 1517 O 144.849 -3.59752 1.78721 0
M  V30 1518 N 143.055 -2.26131 1.82518 0
M  V30 1519 H 142.602 -1.42616 2.14519 0
M  V30 1520 H 142.56 -2.89327 1.23034 0
M  V30 1521 N 146.332 -1.57332 0.0918853 0
M  V30 1522 C 147.58 -1.93853 -0.571446 0
M  V30 1523 C 147.901 -0.974212 -1.6892 0
M  V30 1524 O 147.171 -0.0257254 -1.95883 0
M  V30 1525 H 145.751 -0.715666 -0.214082 0
M  V30 1526 H 148.413 -1.94287 0.154464 0
M  V30 1527 H 147.509 -2.96191 -0.983729 0
M  V30 1528 N 147.81 0.181792 -1.56548 0
M  V30 1529 C 149.221 0.745244 -1.71181 0
M  V30 1530 C 149.572 1.83262 -0.70068 0
M  V30 1531 O 148.697 2.15946 0.140154 0
M  V30 1532 C 149.292 1.35859 -3.10367 0
M  V30 1533 C 147.851 1.86898 -3.2672 0
M  V30 1534 C 146.998 0.743942 -2.67134 0
M  V30 1535 H 149.949 -0.0434661 -1.5864 0
M  V30 1536 H 149.97 2.22817 -3.08436 0
M  V30 1537 H 149.482 0.566948 -3.83937 0
M  V30 1538 H 147.583 2.68738 -2.5809 0
M  V30 1539 H 147.696 2.02162 -4.34359 0
M  V30 1540 H 146.06 1.16169 -2.26665 0
M  V30 1541 H 146.843 -0.035676 -3.43281 0
M  V30 1542 N 149.288 1.51039 0.449983 0
M  V30 1543 C 150.513 1.6715 1.22783 0
M  V30 1544 C 150.938 0.363081 1.84563 0
M  V30 1545 O 150.296 -0.675433 1.68249 0
M  V30 1546 C 150.344 2.77985 2.29689 0
M  V30 1547 O 149.448 2.40707 3.34864 0
M  V30 1548 H 148.789 0.557746 0.360299 0
M  V30 1549 H 151.319 1.97535 0.533005 0
M  V30 1550 H 151.329 3.01693 2.74673 0
M  V30 1551 H 150.004 3.72935 1.84098 0
M  V30 1552 H 148.581 2.27523 2.95445 0
M  V30 1553 N 150.766 -0.704594 1.40972 0
M  V30 1554 C 152.177 -1.28418 1.3552 0
M  V30 1555 C 152.528 -1.96171 0.0339434 0
M  V30 1556 O 151.653 -1.98231 -0.867944 0
M  V30 1557 C 152.248 -2.33528 2.45459 0
M  V30 1558 C 150.807 -2.87085 2.43433 0
M  V30 1559 C 149.954 -1.61007 2.2577 0
M  V30 1560 H 152.905 -0.499963 1.50619 0
M  V30 1561 H 152.926 -3.14619 2.13998 0
M  V30 1562 H 152.438 -1.84187 3.41609 0
M  V30 1563 H 150.539 -3.40626 1.51013 0
M  V30 1564 H 150.652 -3.3813 3.39419 0
M  V30 1565 H 149.016 -1.86482 1.73483 0
M  V30 1566 H 149.799 -1.13675 3.23933 0
M  V30 1567 N 152.244 -1.26651 -0.937939 0
M  V30 1568 C 153.492 -1.12165 -1.68118 0
M  V30 1569 C 153.813 0.334983 -1.92101 0
M  V30 1570 O 153.083 1.23583 -1.52 0
M  V30 1571 H 151.663 -0.412093 -0.623048 0
M  V30 1572 H 154.325 -1.59027 -1.12678 0
M  V30 1573 H 153.421 -1.64289 -2.6536 0
M  V30 1574 N 153.722 1.14298 -1.08507 0
M  V30 1575 C 155.138 1.37347 -0.812901 0
M  V30 1576 C 155.338 1.93052 0.577325 0
M  V30 1577 O 154.394 2.14389 1.33393 0
M  V30 1578 C 155.707 2.33359 -1.89642 0
M  V30 1579 C 157.255 2.46996 -1.92255 0
M  V30 1580 C 157.73 3.46309 -2.99724 0
M  V30 1581 N 159.221 3.53853 -2.98902 0
M  V30 1582 C 159.956 4.3055 -3.787 0
M  V30 1583 N 159.452 5.10482 -4.6838 0
M  V30 1584 N 161.245 4.25757 -3.66998 0
M  V30 1585 H 153.396 0.764867 -1.9815 0
M  V30 1586 H 155.659 0.398966 -0.859959 0
M  V30 1587 H 155.365 1.99565 -2.89597 0
M  V30 1588 H 155.239 3.33274 -1.76659 0
M  V30 1589 H 157.626 2.80081 -0.929445 0
M  V30 1590 H 157.707 1.47039 -2.09316 0
M  V30 1591 H 157.351 3.13957 -3.99241 0
M  V30 1592 H 157.281 4.46049 -2.79907 0
M  V30 1593 H 159.772 2.96812 -2.33904 0
M  V30 1594 H 160.085 5.66284 -5.25873 0
M  V30 1595 H 158.43 5.09747 -4.72422 0
M  V30 1596 H 161.621 3.62383 -2.96304 0
M  V30 1597 H 161.794 4.85279 -4.29427 0
M  V30 1598 N 155.201 0.870884 1.31352 0
M  V30 1599 C 156.426 0.495957 2.01383 0
M  V30 1600 C 156.851 -0.904324 1.64935 0
M  V30 1601 O 156.209 -1.59687 0.858466 0
M  V30 1602 C 156.257 0.661433 3.54482 0
M  V30 1603 O 155.361 -0.298851 4.11316 0
M  V30 1604 H 154.702 0.197158 0.634054 0
M  V30 1605 H 157.232 1.17455 1.67527 0
M  V30 1606 H 157.242 0.555072 4.04207 0
M  V30 1607 H 155.917 1.68246 3.8035 0
M  V30 1608 H 154.494 -0.147368 3.72609 0
M  V30 1609 N 156.679 -1.44442 0.630414 0
M  V30 1610 C 158.09 -1.85434 0.217063 0
M  V30 1611 C 158.441 -1.52748 -1.23136 0
M  V30 1612 O 157.566 -0.965205 -1.93682 0
M  V30 1613 C 158.161 -3.36581 0.387168 0
M  V30 1614 C 156.72 -3.76389 0.0283297 0
M  V30 1615 C 155.867 -2.68296 0.700889 0
M  V30 1616 H 158.818 -1.34919 0.83562 0
M  V30 1617 H 158.839 -3.78657 -0.374086 0
M  V30 1618 H 158.351 -3.60339 1.44144 0
M  V30 1619 H 156.452 -3.58246 -1.02423 0
M  V30 1620 H 156.565 -4.77095 0.437892 0
M  V30 1621 H 154.929 -2.54335 0.136267 0
M  V30 1622 H 155.712 -2.94887 1.75774 0
M  V30 1623 N 158.157 -0.370918 -1.53173 0
M  V30 1624 C 159.087 0.464847 -2.28826 0
M  V30 1625 C 160.068 1.07936 -1.31468 0
M  V30 1626 O 161.253 1.0956 -1.60344 0
M  V30 1627 C 158.383 1.60196 -3.08147 0
M  V30 1628 C 157.337 1.11443 -4.13237 0
M  V30 1629 C 156.663 2.3422 -4.80672 0
M  V30 1630 C 157.963 0.195384 -5.21934 0
M  V30 1631 H 159.657 -0.166329 -2.98938 0
M  V30 1632 H 157.203 -0.0814359 -1.4377 0
M  V30 1633 H 159.156 2.19332 -3.59822 0
M  V30 1634 H 157.88 2.26045 -2.35735 0
M  V30 1635 H 156.539 0.545727 -3.62515 0
M  V30 1636 H 156.187 2.98537 -4.04827 0
M  V30 1637 H 155.887 2.02269 -5.51689 0
M  V30 1638 H 157.411 2.94032 -5.35143 0
M  V30 1639 H 158.825 0.694375 -5.69079 0
M  V30 1640 H 157.222 -0.0335027 -6.00091 0
M  V30 1641 H 158.292 -0.760961 -4.78892 0
M  V30 1642 N 159.635 1.57281 -0.100228 0
M  V30 1643 C 160.912 1.86014 0.604812 0
M  V30 1644 C 161.292 0.998025 1.86018 0
M  V30 1645 O 160.64 0.0718184 2.28387 0
M  V30 1646 C 160.85 3.36784 0.915278 0
M  V30 1647 C 162.198 4.04957 1.27651 0
M  V30 1648 O 163.222 3.41695 1.00613 0
M  V30 1649 O 162.081 5.16593 1.7831 0
M  V30 1650 H 159.175 0.76942 0.303185 0
M  V30 1651 H 161.721 1.69176 -0.133313 0
M  V30 1652 H 160.493 3.91292 0.0248896 0
M  V30 1653 H 160.116 3.58987 1.70921 0
M  V30 1654 N 161.113 -0.173488 1.56642 0
M  V30 1655 C 162.524 -0.736155 1.71574 0
M  V30 1656 C 162.875 -1.82888 0.710389 0
M  V30 1657 O 162 -2.16017 -0.1287 0
M  V30 1658 C 162.595 -1.34211 3.11083 0
M  V30 1659 C 161.154 -1.85162 3.27707 0
M  V30 1660 C 160.301 -0.729765 2.67525 0
M  V30 1661 H 163.252 0.0518786 1.58615 0
M  V30 1662 H 163.273 -2.21178 3.09613 0
M  V30 1663 H 162.785 -0.546579 3.84232 0
M  V30 1664 H 160.886 -2.67366 2.59512 0
M  V30 1665 H 160.999 -1.99855 4.35425 0
M  V30 1666 H 159.363 -1.14965 2.27278 0
M  V30 1667 H 160.146 0.0538806 3.43258 0
M  V30 1668 N 162.591 -1.51276 -0.441967 0
M  V30 1669 C 163.523 -1.68444 -1.55433 0
M  V30 1670 C 164.536 -0.565187 -1.52674 0
M  V30 1671 O 165.725 -0.839356 -1.57534 0
M  V30 1672 C 162.825 -1.67966 -2.94348 0
M  V30 1673 C 161.998 -2.964 -3.21661 0
M  V30 1674 C 161.057 -2.88171 -4.40277 0
M  V30 1675 O 160.083 -3.62119 -4.39157 0
M  V30 1676 N 161.285 -2.03706 -5.43584 0
M  V30 1677 H 164.05 -2.644 -1.41112 0
M  V30 1678 H 161.611 -1.49104 -0.630838 0
M  V30 1679 H 163.603 -1.60035 -3.71713 0
M  V30 1680 H 162.173 -0.796225 -3.0229 0
M  V30 1681 H 161.393 -3.18234 -2.32638 0
M  V30 1682 H 162.681 -3.81427 -3.36736 0
M  V30 1683 H 162.079 -1.42995 -5.47329 0
M  V30 1684 H 160.636 -2.01658 -6.1982 0
M  V30 1685 N 164.069 0.697108 -1.41344 0
M  V30 1686 C 165.032 1.79281 -1.42797 0
M  V30 1687 C 166.032 1.57607 -0.318837 0
M  V30 1688 O 167.222 1.64309 -0.578642 0
M  V30 1689 C 164.354 3.17632 -1.23785 0
M  V30 1690 H 165.547 1.79385 -2.40335 0
M  V30 1691 H 163.1 0.904582 -1.27464 0
M  V30 1692 H 163.835 3.23167 -0.270814 0
M  V30 1693 H 163.62 3.34765 -2.04144 0
M  V30 1694 H 165.11 3.97617 -1.27633 0
M  V30 1695 N 165.547 1.27147 0.931209 0
M  V30 1696 C 166.772 1.16191 1.71797 0
M  V30 1697 C 167.197 -0.278004 1.86034 0
M  V30 1698 O 166.555 -1.20137 1.35782 0
M  V30 1699 C 166.603 1.84673 3.09723 0
M  V30 1700 O 165.707 1.14231 3.96264 0
M  V30 1701 H 165.048 0.404303 0.526721 0
M  V30 1702 H 167.578 1.68152 1.1656 0
M  V30 1703 H 167.588 1.91893 3.60057 0
M  V30 1704 H 166.263 2.89421 2.98677 0
M  V30 1705 H 164.84 1.15056 3.54706 0
M  V30 1706 N 167.025 -1.13721 1.09112 0
M  V30 1707 C 168.25 -1.89314 0.847053 0
M  V30 1708 C 168.675 -1.78416 -0.595774 0
M  V30 1709 O 168.033 -1.12942 -1.41823 0
M  V30 1710 C 168.081 -3.3701 1.28284 0
M  V30 1711 O 167.185 -4.10054 0.439267 0
M  V30 1712 H 166.526 -0.588745 0.307044 0
M  V30 1713 H 169.056 -1.43902 1.45442 0
M  V30 1714 H 169.066 -3.87834 1.26683 0
M  V30 1715 H 167.741 -3.4426 2.33363 0
M  V30 1716 H 166.318 -3.69266 0.519312 0
M  V30 1717 N 168.503 -0.877838 -1.30888 0
M  V30 1718 C 169.728 -0.506629 -2.01117 0
M  V30 1719 C 170.153 0.895564 -1.65412 0
M  V30 1720 O 169.511 1.5923 -0.866922 0
M  V30 1721 C 169.559 -0.680223 -3.54126 0
M  V30 1722 O 168.663 0.277033 -4.11468 0
M  V30 1723 H 168.004 -0.200518 -0.633 0
M  V30 1724 H 170.534 -1.18342 -1.66902 0
M  V30 1725 H 170.544 -0.5765 -4.03907 0
M  V30 1726 H 169.219 -1.70261 -3.79452 0
M  V30 1727 H 167.796 0.127606 -3.72682 0
M  V30 1728 N 169.982 1.44106 -0.638065 0
M  V30 1729 C 170.945 2.29138 0.0531013 0
M  V30 1730 C 171.945 1.41409 0.765506 0
M  V30 1731 O 173.135 1.63206 0.609046 0
M  V30 1732 C 170.267 3.23144 1.08584 0
M  V30 1733 H 171.46 2.91739 -0.694883 0
M  V30 1734 H 169.013 1.51134 -0.398538 0
M  V30 1735 H 169.748 2.65408 1.86357 0
M  V30 1736 H 169.533 3.87804 0.578852 0
M  V30 1737 H 171.023 3.87004 1.56899 0
M  V30 1738 N 171.46 0.379036 1.52974 0
M  V30 1739 C 172.708 -0.206014 2.01047 0
M  V30 1740 C 173.029 -1.48175 1.26765 0
M  V30 1741 O 172.299 -1.92085 0.384743 0
M  V30 1742 H 170.879 -0.0791184 0.742798 0
M  V30 1743 H 173.541 0.508366 1.88153 0
M  V30 1744 H 172.637 -0.423501 3.09213 0
M  V30 1745 N 172.938 -1.57226 0.108567 0
M  V30 1746 C 173.868 -2.17778 -0.84232 0
M  V30 1747 C 174.849 -1.11487 -1.2847 0
M  V30 1748 O 176.034 -1.39681 -1.34918 0
M  V30 1749 C 173.164 -2.76888 -2.09644 0
M  V30 1750 C 172.118 -3.88669 -1.79221 0
M  V30 1751 C 171.444 -4.34541 -3.11574 0
M  V30 1752 C 172.744 -5.11251 -1.06864 0
M  V30 1753 H 174.438 -2.97489 -0.337774 0
M  V30 1754 H 171.984 -1.43097 -0.161025 0
M  V30 1755 H 173.937 -3.17904 -2.76614 0
M  V30 1756 H 172.661 -1.94451 -2.62405 0
M  V30 1757 H 171.32 -3.48213 -1.14644 0
M  V30 1758 H 170.968 -3.48977 -3.62249 0
M  V30 1759 H 170.668 -5.09914 -2.91996 0
M  V30 1760 H 172.192 -4.782 -3.7968 0
M  V30 1761 H 173.606 -5.49352 -1.63968 0
M  V30 1762 H 172.003 -5.9214 -0.974178 0
M  V30 1763 H 173.073 -4.8487 -0.0536168 0
M  V30 1764 N 174.416 0.165178 -1.56732 0
M  V30 1765 C 175.662 0.882112 -1.82611 0
M  V30 1766 C 175.995 1.81628 -0.687378 0
M  V30 1767 O 175.27 1.92009 0.310267 0
M  V30 1768 C 175.553 1.67245 -3.18906 0
M  V30 1769 C 175.406 0.760987 -4.43316 0
M  V30 1770 C 176.725 2.63884 -3.52212 0
M  V30 1771 H 173.844 0.319242 -0.664269 0
M  V30 1772 H 176.486 0.148052 -1.89422 0
M  V30 1773 H 174.636 2.29824 -3.1323 0
M  V30 1774 H 176.308 0.147596 -4.61064 0
M  V30 1775 H 174.551 0.0694102 -4.33744 0
M  V30 1776 H 175.222 1.34962 -5.35247 0
M  V30 1777 H 177.698 2.11429 -3.58381 0
M  V30 1778 H 176.574 3.16245 -4.48643 0
M  V30 1779 H 176.835 3.44377 -2.77231 0
M  V30 1780 N 175.894 1.51508 0.433938 0
M  V30 1781 C 176.824 1.76016 1.53429 0
M  V30 1782 C 177.805 0.610112 1.58782 0
M  V30 1783 O 178.99 0.853177 1.74455 0
M  V30 1784 C 176.12 1.88831 2.9148 0
M  V30 1785 C 175.074 3.04288 3.00987 0
M  V30 1786 C 174.4 3.0229 4.4105 0
M  V30 1787 C 175.7 4.44193 2.74754 0
M  V30 1788 H 177.394 2.68152 1.33171 0
M  V30 1789 H 174.94 1.29035 0.639214 0
M  V30 1790 H 176.893 2.04559 3.6842 0
M  V30 1791 H 175.617 0.933455 3.12976 0
M  V30 1792 H 174.276 2.8827 2.26486 0
M  V30 1793 H 173.924 2.04576 4.59519 0
M  V30 1794 H 173.624 3.79822 4.4834 0
M  V30 1795 H 175.148 3.20116 5.1996 0
M  V30 1796 H 176.562 4.60544 3.41426 0
M  V30 1797 H 174.959 5.23457 2.9345 0
M  V30 1798 H 176.029 4.53996 1.70339 0
M  V30 1799 N 177.372 -0.689602 1.41712 0
M  V30 1800 C 178.322 -1.79571 1.40493 0
M  V30 1801 C 179.306 -1.58473 0.278409 0
M  V30 1802 O 180.498 -1.69204 0.519532 0
M  V30 1803 C 177.627 -3.17923 1.29536 0
M  V30 1804 C 176.713 -3.44695 2.47075 0
M  V30 1805 N 177.104 -3.42132 3.72531 0
M  V30 1806 C 175.402 -3.75269 2.41017 0
M  V30 1807 C 176.103 -3.67976 4.50521 0
M  V30 1808 N 175.079 -3.88014 3.80718 0
M  V30 1809 H 178.881 -1.75961 2.35404 0
M  V30 1810 H 176.395 -0.889839 1.35851 0
M  V30 1811 H 178.392 -3.97167 1.26745 0
M  V30 1812 H 177.052 -3.22741 0.356153 0
M  V30 1813 H 178.063 -3.22375 4.05333 0
M  V30 1814 H 174.74 -3.87421 1.55599 0
M  V30 1815 H 176.13 -3.7208 5.59469 0
M  V30 1816 N 178.85 -1.27639 -0.924453 0
M  V30 1817 C 179.813 -1.10681 -2.00705 0
M  V30 1818 C 180.813 -0.0497823 -1.60723 0
M  V30 1819 O 182.003 -0.294654 -1.7169 0
M  V30 1820 C 179.135 -0.687164 -3.33902 0
M  V30 1821 H 180.328 -2.06817 -2.17179 0
M  V30 1822 H 177.881 -1.10473 -1.10569 0
M  V30 1823 H 178.616 0.275439 -3.23128 0
M  V30 1824 H 178.401 -1.45061 -3.6428 0
M  V30 1825 H 179.891 -0.590853 -4.13399 0
M  V30 1826 N 180.328 1.1314 -1.09713 0
M  V30 1827 C 181.556 1.88321 -0.856898 0
M  V30 1828 C 181.971 1.79276 0.592073 0
M  V30 1829 O 181.328 1.16142 1.40774 0
M  V30 1830 C 181.379 3.37812 -1.28706 0
M  V30 1831 O 181.1 3.46627 -2.67921 0
M  V30 1832 C 182.601 4.29952 -1.07964 0
M  V30 1833 H 179.821 0.596094 -0.308079 0
M  V30 1834 H 182.365 1.43205 -1.45988 0
M  V30 1835 H 180.52 3.805 -0.727912 0
M  V30 1836 H 180.934 4.39579 -2.8613 0
M  V30 1837 H 182.408 5.33159 -1.42986 0
M  V30 1838 H 182.885 4.39196 -0.0176577 0
M  V30 1839 H 183.491 3.93036 -1.62489 0
M  V30 1840 N 181.806 0.884767 1.30421 0
M  V30 1841 C 183.053 0.503105 1.96151 0
M  V30 1842 C 183.381 -0.947676 1.69851 0
M  V30 1843 O 182.636 -1.68467 0.995861 0
M  V30 1844 C 182.935 0.724318 3.49983 0
M  V30 1845 C 182.601 2.15015 3.96332 0
M  V30 1846 C 181.263 2.54005 4.08699 0
M  V30 1847 C 183.615 3.07936 4.20505 0
M  V30 1848 C 180.943 3.85128 4.42599 0
M  V30 1849 C 183.295 4.3859 4.55874 0
M  V30 1850 C 181.959 4.77474 4.66449 0
M  V30 1851 H 181.229 0.184099 0.717766 0
M  V30 1852 H 183.876 1.12058 1.55291 0
M  V30 1853 H 182.181 0.0238086 3.91793 0
M  V30 1854 H 183.878 0.408617 3.98913 0
M  V30 1855 H 180.468 1.8375 3.87213 0
M  V30 1856 H 184.652 2.79033 4.10431 0
M  V30 1857 H 179.908 4.14996 4.48986 0
M  V30 1858 H 184.082 5.10629 4.7353 0
M  V30 1859 H 181.709 5.79115 4.92473 0
M  V30 1860 N 183.284 -1.43765 0.645699 0
M  V30 1861 C 184.695 -1.85193 0.236719 0
M  V30 1862 C 185.046 -1.54045 -1.21509 0
M  V30 1863 O 184.171 -0.985694 -1.92647 0
M  V30 1864 C 184.766 -3.36151 0.422845 0
M  V30 1865 C 183.325 -3.76338 0.0682492 0
M  V30 1866 C 182.472 -2.67538 0.729306 0
M  V30 1867 H 185.423 -1.34025 0.849883 0
M  V30 1868 H 185.444 -3.79032 -0.333904 0
M  V30 1869 H 184.956 -3.5879 1.47958 0
M  V30 1870 H 183.057 -3.59312 -0.986179 0
M  V30 1871 H 183.17 -4.76603 0.488469 0
M  V30 1872 H 181.534 -2.54176 0.163235 0
M  V30 1873 H 182.317 -2.93006 1.78892 0
M  V30 1874 N 184.763 -0.387143 -1.52771 0
M  V30 1875 C 186.011 0.195349 -2.01154 0
M  V30 1876 C 186.332 1.475 -1.27549 0
M  V30 1877 O 185.602 1.91878 -0.394924 0
M  V30 1878 H 184.182 0.075178 -0.743207 0
M  V30 1879 H 186.844 -0.518337 -1.87881 0
M  V30 1880 H 185.94 0.407096 -3.09434 0
M  V30 1881 N 186.241 1.57166 -0.116904 0
M  V30 1882 C 187.191 2.11756 0.845178 0
M  V30 1883 C 188.175 1.03783 1.22955 0
M  V30 1884 O 189.367 1.3002 1.20099 0
M  V30 1885 C 186.496 2.71886 2.09602 0
M  V30 1886 C 185.582 3.86937 1.7361 0
M  V30 1887 N 185.973 4.94073 1.08284 0
M  V30 1888 C 184.271 3.97082 2.03082 0
M  V30 1889 C 184.972 5.74477 0.913855 0
M  V30 1890 N 183.948 5.2423 1.43818 0
M  V30 1891 H 187.75 2.91967 0.336523 0
M  V30 1892 H 185.264 1.62174 0.0856332 0
M  V30 1893 H 187.261 3.09338 2.79492 0
M  V30 1894 H 185.921 1.93138 2.61013 0
M  V30 1895 H 186.932 5.12483 0.747067 0
M  V30 1896 H 183.609 3.29372 2.56554 0
M  V30 1897 H 184.999 6.70701 0.40125 0
M  V30 1898 N 187.719 -0.156864 1.56817 0
M  V30 1899 C 188.944 -0.890331 1.87318 0
M  V30 1900 C 189.369 -1.74394 0.704855 0
M  V30 1901 O 188.727 -1.77972 -0.345786 0
M  V30 1902 C 188.775 -1.73102 3.16336 0
M  V30 1903 O 187.879 -2.83422 2.99576 0
M  V30 1904 H 187.22 -0.24857 0.615718 0
M  V30 1905 H 189.75 -0.150649 2.04045 0
M  V30 1906 H 189.76 -2.12803 3.48107 0
M  V30 1907 H 188.435 -1.10412 4.00976 0
M  V30 1908 H 187.012 -2.47199 2.7919 0
M  V30 1909 N 189.197 -1.51736 -0.425897 0
M  V30 1910 C 190.129 -1.70083 -1.53638 0
M  V30 1911 C 191.142 -0.581349 -1.52066 0
M  V30 1912 O 192.331 -0.856017 -1.56635 0
M  V30 1913 C 189.431 -1.71078 -2.9255 0
M  V30 1914 C 188.604 -2.99795 -3.185 0
M  V30 1915 C 187.663 -2.92825 -4.37196 0
M  V30 1916 O 186.689 -3.66756 -4.35291 0
M  V30 1917 N 187.891 -2.0946 -5.41393 0
M  V30 1918 H 190.656 -2.65882 -1.383 0
M  V30 1919 H 188.217 -1.49765 -0.614988 0
M  V30 1920 H 190.209 -1.63969 -3.69995 0
M  V30 1921 H 188.779 -0.828242 -3.01428 0
M  V30 1922 H 187.999 -3.20684 -2.2925 0
M  V30 1923 H 189.287 -3.84977 -3.32671 0
M  V30 1924 H 188.685 -1.48792 -5.45781 0
M  V30 1925 H 187.242 -2.08221 -6.17647 0
M  V30 1926 N 190.675 0.682077 -1.42076 0
M  V30 1927 C 192.091 0.994324 -1.24841 0
M  V30 1928 C 192.291 2.0096 -0.147389 0
M  V30 1929 O 191.347 2.47822 0.483782 0
M  V30 1930 C 192.66 1.50607 -2.60265 0
M  V30 1931 C 194.208 1.62421 -2.6756 0
M  V30 1932 C 194.683 2.16994 -4.03333 0
M  V30 1933 N 196.174 2.24337 -4.0525 0
M  V30 1934 C 196.909 2.67621 -5.07116 0
M  V30 1935 N 196.405 3.1041 -6.19368 0
M  V30 1936 N 198.198 2.67305 -4.94474 0
M  V30 1937 H 190.349 0.00973908 -2.12398 0
M  V30 1938 H 192.612 0.0668593 -0.945639 0
M  V30 1939 H 192.318 0.834583 -3.41654 0
M  V30 1940 H 192.192 2.48602 -2.83684 0
M  V30 1941 H 194.579 2.28678 -1.86521 0
M  V30 1942 H 194.66 0.629352 -2.47937 0
M  V30 1943 H 194.304 1.51349 -4.84826 0
M  V30 1944 H 194.234 3.17258 -4.20304 0
M  V30 1945 H 196.725 1.94158 -3.24209 0
M  V30 1946 H 197.038 3.42103 -6.92954 0
M  V30 1947 H 195.383 3.08286 -6.22884 0
M  V30 1948 H 198.574 2.33233 -4.05857 0
M  V30 1949 H 198.747 3.00718 -5.73997 0
M  V30 1950 N 192.153 1.28127 0.917671 0
M  V30 1951 C 193.569 1.05749 1.19538 0
M  V30 1952 C 193.769 -0.202633 2.00479 0
M  V30 1953 O 192.825 -0.905382 2.3571 0
M  V30 1954 C 194.138 2.30273 1.93378 0
M  V30 1955 C 195.686 2.35412 2.06277 0
M  V30 1956 C 196.161 3.59692 2.83524 0
M  V30 1957 N 197.652 3.60309 2.91087 0
M  V30 1958 C 198.387 4.53147 3.51348 0
M  V30 1959 N 197.883 5.563 4.12919 0
M  V30 1960 N 199.676 4.40751 3.48849 0
M  V30 1961 H 191.827 2.09024 0.377184 0
M  V30 1962 H 194.09 0.919798 0.22951 0
M  V30 1963 H 193.796 3.22055 1.41328 0
M  V30 1964 H 193.67 2.36378 2.93947 0
M  V30 1965 H 196.057 1.4413 2.57508 0
M  V30 1966 H 196.138 2.33304 1.04895 0
M  V30 1967 H 195.782 4.51316 2.32973 0
M  V30 1968 H 195.712 3.59054 3.85211 0
M  V30 1969 H 198.203 2.85714 2.47338 0
M  V30 1970 H 198.516 6.2329 4.56869 0
M  V30 1971 H 196.861 5.60131 4.11435 0
M  V30 1972 H 200.052 3.59367 2.99955 0
M  V30 1973 H 200.225 5.13291 3.9552 0
M  V30 1974 N 193.631 -1.12557 1.10312 0
M  V30 1975 C 194.541 -2.21841 0.763142 0
M  V30 1976 C 195.557 -1.72354 -0.238801 0
M  V30 1977 O 196.733 -2.01249 -0.0778746 0
M  V30 1978 C 193.798 -3.46131 0.198632 0
M  V30 1979 C 192.859 -4.10464 1.25769 0
M  V30 1980 C 192.092 -5.28821 0.72002 0
M  V30 1981 O 192.315 -5.6859 -0.453993 0
M  V30 1982 O 191.249 -5.83437 1.47935 0
M  V30 1983 H 195.075 -2.53312 1.67532 0
M  V30 1984 H 192.66 -1.20867 0.878157 0
M  V30 1985 H 194.542 -4.2125 -0.112401 0
M  V30 1986 H 193.217 -3.16338 -0.686419 0
M  V30 1987 H 192.124 -3.3713 1.62156 0
M  V30 1988 H 193.457 -4.44408 2.11571 0
M  V30 1989 N 195.109 -0.891671 -1.2995 0
M  V30 1990 C 196.334 -0.527932 -2.00568 0
M  V30 1991 C 196.759 0.877969 -1.66353 0
M  V30 1992 O 196.117 1.58301 -0.883762 0
M  V30 1993 C 196.165 -0.717745 -3.53385 0
M  V30 1994 O 195.269 0.233376 -4.11739 0
M  V30 1995 H 194.61 -0.20722 -0.630837 0
M  V30 1996 H 197.14 -1.20105 -1.65638 0
M  V30 1997 H 197.15 -0.619307 -4.03272 0
M  V30 1998 H 195.825 -1.74276 -3.77625 0
M  V30 1999 H 194.402 0.0880706 -3.72796 0
M  V30 2000 N 196.587 1.43421 -0.653314 0
M  V30 2001 C 197.834 2.01812 -0.166745 0
M  V30 2002 C 198.162 1.51535 1.21931 0
M  V30 2003 O 197.417 0.698975 1.82792 0
M  V30 2004 C 197.716 3.57176 -0.126623 0
M  V30 2005 C 197.382 4.26798 -1.45444 0
M  V30 2006 C 196.044 4.45534 -1.81805 0
M  V30 2007 C 198.396 4.66225 -2.32989 0
M  V30 2008 C 195.724 5.00961 -3.05377 0
M  V30 2009 C 198.076 5.23021 -3.55853 0
M  V30 2010 C 196.74 5.39973 -3.9241 0
M  V30 2011 H 196.01 0.738484 -0.0610162 0
M  V30 2012 H 198.657 1.71896 -0.84404 0
M  V30 2013 H 196.962 3.86634 0.634123 0
M  V30 2014 H 198.659 4.00112 0.266723 0
M  V30 2015 H 195.249 4.12561 -1.16153 0
M  V30 2016 H 199.433 4.51443 -2.06187 0
M  V30 2017 H 194.689 5.12271 -3.3375 0
M  V30 2018 H 198.863 5.52518 -4.23907 0
M  V30 2019 H 196.49 5.82687 -4.88242 0
M  V30 2020 N 198.065 0.39524 1.52563 0
M  V30 2021 C 198.995 -0.428384 2.29537 0
M  V30 2022 C 199.976 -1.05831 1.33169 0
M  V30 2023 O 201.161 -1.06995 1.62067 0
M  V30 2024 C 198.291 -1.55274 3.10656 0
M  V30 2025 C 197.245 -1.04855 4.14957 0
M  V30 2026 C 196.571 -2.26543 4.84337 0
M  V30 2027 C 197.871 -0.112324 5.22179 0
M  V30 2028 H 199.565 0.213867 2.98635 0
M  V30 2029 H 197.111 0.104298 1.43622 0
M  V30 2030 H 199.064 -2.1358 3.63265 0
M  V30 2031 H 197.788 -2.22266 2.39302 0
M  V30 2032 H 196.447 -0.487985 3.63338 0
M  V30 2033 H 196.095 -2.92059 4.09525 0
M  V30 2034 H 195.795 -1.93466 5.54837 0
M  V30 2035 H 197.319 -2.85481 5.39753 0
M  V30 2036 H 198.733 -0.603752 5.70112 0
M  V30 2037 H 197.13 0.128968 5.99961 0
M  V30 2038 H 198.2 0.837052 4.77621 0
M  V30 2039 N 199.544 -1.57102 0.125237 0
M  V30 2040 C 200.774 -1.99472 -0.538015 0
M  V30 2041 C 201.182 -1.00395 -1.60366 0
M  V30 2042 O 200.525 0.0103875 -1.83697 0
M  V30 2043 C 200.587 -3.38262 -1.21734 0
M  V30 2044 C 200.251 -4.56021 -0.298897 0
M  V30 2045 C 201.248 -5.17817 0.464943 0
M  V30 2046 C 198.933 -5.01869 -0.208149 0
M  V30 2047 C 200.927 -6.23852 1.3072 0
M  V30 2048 C 198.614 -6.07763 0.637736 0
M  V30 2049 C 199.612 -6.68622 1.39403 0
M  V30 2050 O 199.3 -7.7247 2.22586 0
M  V30 2051 H 199.032 -0.659934 -0.146501 0
M  V30 2052 H 201.586 -2.04321 0.210267 0
M  V30 2053 H 199.816 -3.30185 -2.01282 0
M  V30 2054 H 201.505 -3.6488 -1.77813 0
M  V30 2055 H 202.271 -4.83308 0.404741 0
M  V30 2056 H 198.15 -4.54241 -0.786522 0
M  V30 2057 H 201.694 -6.71284 1.898 0
M  V30 2058 H 197.591 -6.41701 0.699309 0
M  V30 2059 H 198.359 -7.89595 2.15596 0
M  V30 2060 N 201.022 0.148545 -1.56898 0
M  V30 2061 C 202.438 0.501131 -1.51528 0
M  V30 2062 C 202.638 1.83458 -0.833399 0
M  V30 2063 O 201.694 2.49259 -0.40328 0
M  V30 2064 C 203.007 0.512864 -2.96294 0
M  V30 2065 C 204.555 0.598487 -3.07225 0
M  V30 2066 C 205.03 0.640897 -4.53494 0
M  V30 2067 N 206.521 0.703163 -4.57832 0
M  V30 2068 C 207.256 0.756935 -5.68382 0
M  V30 2069 N 206.752 0.770147 -6.88506 0
M  V30 2070 N 208.545 0.797698 -5.56411 0
M  V30 2071 H 200.696 -0.725532 -1.99624 0
M  V30 2072 H 202.959 -0.264358 -0.910395 0
M  V30 2073 H 202.665 -0.398691 -3.49433 0
M  V30 2074 H 202.539 1.35133 -3.52163 0
M  V30 2075 H 204.926 1.50046 -2.54106 0
M  V30 2076 H 205.007 -0.267093 -2.54402 0
M  V30 2077 H 204.651 -0.256915 -5.0725 0
M  V30 2078 H 204.581 1.52295 -5.04097 0
M  V30 2079 H 207.072 0.700314 -3.71354 0
M  V30 2080 H 207.385 0.812983 -7.68512 0
M  V30 2081 H 205.73 0.738049 -6.9107 0
M  V30 2082 H 208.921 0.784535 -4.61479 0
M  V30 2083 H 209.094 0.83614 -6.42583 0
M  V30 2084 N 202.5 1.5196 0.417844 0
M  V30 2085 C 203.725 1.69717 1.1921 0
M  V30 2086 C 204.15 0.402148 1.83751 0
M  V30 2087 O 203.508 -0.639593 1.69643 0
M  V30 2088 C 203.556 2.82794 2.2374 0
M  V30 2089 O 202.66 2.47756 3.29683 0
M  V30 2090 H 202.001 0.565263 0.348387 0
M  V30 2091 H 204.531 1.98621 0.490985 0
M  V30 2092 H 204.541 3.07452 2.68212 0
M  V30 2093 H 203.216 3.76756 1.76146 0
M  V30 2094 H 201.793 2.33739 2.90552 0
M  V30 2095 N 203.978 -0.674533 1.42435 0
M  V30 2096 C 205.255 -1.4305 1.33402 0
M  V30 2097 C 205.635 -2.11081 -0.0284674 0
M  V30 2098 O 204.983 -2.03257 -1.04397 0
M  V30 2099 C 205.193 -2.43272 2.50239 0
M  V30 2100 C 206.541 -3.07907 2.92367 0
M  V30 2101 O 207.565 -2.53599 2.50132 0
M  V30 2102 O 206.424 -4.0632 3.65467 0
M  V30 2103 H 203.518 -0.638076 0.526106 0
M  V30 2104 H 206.064 -0.703235 1.54443 0
M  V30 2105 H 204.836 -1.91803 3.41068 0
M  V30 2106 H 204.459 -3.23479 2.31186 0
M  V30 2107 N 205.456 -1.28612 -0.910864 0
M  V30 2108 C 206.681 -1.1891 -1.69927 0
M  V30 2109 C 207.106 0.248372 -1.86453 0
M  V30 2110 O 206.464 1.17961 -1.37676 0
M  V30 2111 C 206.512 -1.89578 -3.06745 0
M  V30 2112 O 205.616 -1.20521 -3.94396 0
M  V30 2113 H 204.957 -0.412632 -0.520222 0
M  V30 2114 H 207.487 -1.69985 -1.1387 0
M  V30 2115 H 207.497 -1.97597 -3.56958 0
M  V30 2116 H 206.172 -2.94136 -2.94035 0
M  V30 2117 H 204.749 -1.20684 -3.52831 0
M  V30 2118 N 206.934 1.1197 -1.10907 0
M  V30 2119 C 208.211 1.79959 -0.766432 0
M  V30 2120 C 208.591 1.97466 0.746363 0
M  V30 2121 O 207.939 1.55491 1.67436 0
M  V30 2122 C 208.149 3.14009 -1.52314 0
M  V30 2123 C 209.497 3.89134 -1.69883 0
M  V30 2124 O 210.521 3.2368 -1.48692 0
M  V30 2125 O 209.38 5.06572 -2.05054 0
M  V30 2126 H 206.474 0.779208 -0.277062 0
M  V30 2127 H 209.02 1.18762 -1.21217 0
M  V30 2128 H 207.792 2.96587 -2.55249 0
M  V30 2129 H 207.415 3.82915 -1.07059 0
M  V30 2130 N 208.412 0.89855 1.29475 0
M  V30 2131 C 209.642 0.538479 1.99459 0
M  V30 2132 C 210.05 -0.880922 1.67441 0
M  V30 2133 O 209.393 -1.59283 0.915127 0
M  V30 2134 C 209.455 0.649564 3.53583 0
M  V30 2135 C 209.119 2.03573 4.09154 0
M  V30 2136 C 210.116 3.00675 4.24135 0
M  V30 2137 C 207.801 2.3448 4.44212 0
M  V30 2138 C 209.795 4.26809 4.73405 0
M  V30 2139 C 207.482 3.60857 4.93179 0
M  V30 2140 C 208.48 4.56836 5.0773 0
M  V30 2141 O 208.168 5.80969 5.55635 0
M  V30 2142 H 207.9 0.205372 0.644048 0
M  V30 2143 H 210.454 1.20958 1.66007 0
M  V30 2144 H 208.684 -0.0785592 3.8662 0
M  V30 2145 H 210.373 0.29881 4.04799 0
M  V30 2146 H 211.139 2.78112 3.97339 0
M  V30 2147 H 207.018 1.60534 4.32145 0
M  V30 2148 H 210.562 5.0173 4.84678 0
M  V30 2149 H 206.459 3.83251 5.19412 0
M  V30 2150 H 207.227 5.83542 5.73952 0
M  V30 2151 N 209.89 -1.43072 0.660911 0
M  V30 2152 C 211.167 -1.95307 0.107017 0
M  V30 2153 C 211.547 -1.60192 -1.37484 0
M  V30 2154 O 210.895 -0.890949 -2.10415 0
M  V30 2155 C 211.105 -3.47124 0.361402 0
M  V30 2156 C 212.453 -4.23738 0.270455 0
M  V30 2157 O 213.477 -3.54981 0.294382 0
M  V30 2158 O 212.336 -5.46131 0.200737 0
M  V30 2159 H 209.43 -0.826984 -0.00517729 0
M  V30 2160 H 211.976 -1.52972 0.734681 0
M  V30 2161 H 210.748 -3.65837 1.38848 0
M  V30 2162 H 210.371 -3.96475 -0.298953 0
M  V30 2163 N 211.368 -0.403325 -1.52352 0
M  V30 2164 C 212.298 0.416205 -2.29761 0
M  V30 2165 C 213.279 1.05123 -1.33728 0
M  V30 2166 O 214.464 1.06134 -1.62632 0
M  V30 2167 C 211.594 1.53624 -3.11475 0
M  V30 2168 C 210.548 1.02653 -4.15507 0
M  V30 2169 C 209.874 2.23971 -4.85532 0
M  V30 2170 C 211.174 0.08463 -5.22231 0
M  V30 2171 H 212.868 -0.229701 -2.98518 0
M  V30 2172 H 210.414 -0.111913 -1.43564 0
M  V30 2173 H 212.367 2.1165 -3.64393 0
M  V30 2174 H 211.091 2.20994 -2.40477 0
M  V30 2175 H 209.75 0.46871 -3.63591 0
M  V30 2176 H 209.398 2.89883 -4.11068 0
M  V30 2177 H 209.098 1.90521 -5.55856 0
M  V30 2178 H 210.622 2.82614 -5.41259 0
M  V30 2179 H 212.036 0.573509 -5.70424 0
M  V30 2180 H 210.433 -0.160783 -5.99885 0
M  V30 2181 H 211.503 -0.86237 -4.7717 0
M  V30 2182 N 212.846 1.57033 -0.133567 0
M  V30 2183 C 214.071 2.00475 0.531477 0
M  V30 2184 C 214.496 1.01291 1.58499 0
M  V30 2185 O 213.854 -0.0133279 1.81295 0
M  V30 2186 C 213.902 3.42729 1.12113 0
M  V30 2187 O 213.006 3.46498 2.23636 0
M  V30 2188 H 212.347 0.650876 0.131362 0
M  V30 2189 H 214.877 2.03344 -0.22634 0
M  V30 2190 H 214.887 3.81246 1.4531 0
M  V30 2191 H 213.562 4.14428 0.349557 0
M  V30 2192 H 212.139 3.19811 1.91769 0
M  V30 2193 N 214.325 -0.140222 1.56975 0
M  V30 2194 C 215.736 -0.699596 1.73097 0
M  V30 2195 C 216.087 -1.8134 0.749022 0
M  V30 2196 O 215.212 -2.16241 -0.0828503 0
M  V30 2197 C 215.807 -1.27582 3.1386 0
M  V30 2198 C 214.366 -1.78169 3.31561 0
M  V30 2199 C 213.513 -0.672855 2.69013 0
M  V30 2200 H 216.464 0.0855115 1.58469 0
M  V30 2201 H 216.485 -2.14561 3.14235 0
M  V30 2202 H 215.997 -0.464955 3.85305 0
M  V30 2203 H 214.098 -2.61801 2.65124 0
M  V30 2204 H 214.211 -1.90574 4.39566 0
M  V30 2205 H 212.575 -1.10118 2.29665 0
M  V30 2206 H 213.358 0.126679 3.43066 0
M  V30 2207 N 215.803 -1.52179 -0.40978 0
M  V30 2208 C 216.75 -1.75475 -1.49924 0
M  V30 2209 C 217.72 -0.597175 -1.54994 0
M  V30 2210 O 218.905 -0.834655 -1.71575 0
M  V30 2211 C 216.045 -1.9107 -2.87378 0
M  V30 2212 C 215.158 -3.18717 -2.91622 0
M  V30 2213 C 214.293 -3.24747 -4.20372 0
M  V30 2214 C 213.332 -4.46598 -4.18588 0
M  V30 2215 N 212.469 -4.50025 -5.38908 0
M  V30 2216 H 217.309 -2.68458 -1.29361 0
M  V30 2217 H 214.846 -1.33024 -0.627934 0
M  V30 2218 H 216.804 -1.98096 -3.6717 0
M  V30 2219 H 215.434 -1.01469 -3.06437 0
M  V30 2220 H 214.486 -3.20866 -2.04326 0
M  V30 2221 H 215.798 -4.08544 -2.86169 0
M  V30 2222 H 214.952 -3.30841 -5.08556 0
M  V30 2223 H 213.691 -2.32857 -4.28519 0
M  V30 2224 H 212.696 -4.40652 -3.28794 0
M  V30 2225 H 213.921 -5.39783 -4.12081 0
M  V30 2226 H 211.867 -3.61017 -5.47725 0
M  V30 2227 H 211.784 -5.33697 -5.35447 0
M  V30 2228 H 213.052 -4.60347 -6.29048 0
M  V30 2229 N 217.281 0.66697 -1.42791 0
M  V30 2230 C 218.244 1.76211 -1.46568 0
M  V30 2231 C 219.244 1.56896 -0.352196 0
M  V30 2232 O 220.434 1.63044 -0.613364 0
M  V30 2233 C 217.566 3.14935 -1.30494 0
M  V30 2234 H 218.759 1.74247 -2.44086 0
M  V30 2235 H 216.312 0.877342 -1.29354 0
M  V30 2236 H 217.047 3.2252 -0.339301 0
M  V30 2237 H 216.832 3.30359 -2.11199 0
M  V30 2238 H 218.322 3.94821 -1.36038 0
M  V30 2239 N 218.759 1.29093 0.90403 0
M  V30 2240 C 219.692 1.08176 2.00931 0
M  V30 2241 C 220.67 -0.005083 1.62599 0
M  V30 2242 O 221.854 0.144765 1.87943 0
M  V30 2243 C 218.981 0.645897 3.32484 0
M  V30 2244 C 218.027 1.73081 3.89801 0
M  V30 2245 S 218.86 3.32905 4.19446 0
M  V30 2246 C 220.016 2.91176 5.54046 0
M  V30 2247 H 220.249 2.01752 2.18365 0
M  V30 2248 H 217.782 1.13191 1.0501 0
M  V30 2249 H 219.74 0.401131 4.08535 0
M  V30 2250 H 218.401 -0.270188 3.12936 0
M  V30 2251 H 217.594 1.37768 4.84805 0
M  V30 2252 H 217.196 1.92888 3.20422 0
M  V30 2253 H 219.488 2.37952 6.34338 0
M  V30 2254 H 220.431 3.85014 5.94281 0
M  V30 2255 H 220.839 2.296 5.15698 0
M  V30 2256 N 220.237 -1.11381 1.11499 0
M  V30 2257 C 221.462 -1.87475 0.887019 0
M  V30 2258 C 221.887 -1.79639 -0.557796 0
M  V30 2259 O 221.245 -1.15924 -1.39396 0
M  V30 2260 C 221.293 -3.34213 1.35403 0
M  V30 2261 O 220.397 -4.0903 0.526146 0
M  V30 2262 H 219.738 -0.582099 0.319463 0
M  V30 2263 H 222.268 -1.40785 1.48461 0
M  V30 2264 H 222.278 -3.8506 1.34881 0
M  V30 2265 H 220.953 -3.39232 2.40612 0
M  V30 2266 H 219.53 -3.68082 0.597522 0
M  V30 2267 N 221.715 -0.905404 -1.28997 0
M  V30 2268 C 223.131 -0.60233 -1.47798 0
M  V30 2269 C 223.331 0.854645 -1.82478 0
M  V30 2270 O 222.387 1.63439 -1.92468 0
M  V30 2271 C 223.7 -1.53306 -2.58685 0
M  V30 2272 C 225.248 -1.53887 -2.72558 0
M  V30 2273 C 225.723 -2.45602 -3.86579 0
M  V30 2274 N 227.214 -2.43681 -3.93921 0
M  V30 2275 C 227.949 -3.11347 -4.81509 0
M  V30 2276 N 227.445 -3.88313 -5.73746 0
M  V30 2277 N 229.238 -3.00476 -4.75048 0
M  V30 2278 H 221.389 -1.84765 -1.04764 0
M  V30 2279 H 223.652 -0.792025 -0.520961 0
M  V30 2280 H 223.358 -2.57141 -2.39941 0
M  V30 2281 H 223.232 -1.25787 -3.55609 0
M  V30 2282 H 225.619 -0.507941 -2.90696 0
M  V30 2283 H 225.7 -1.85447 -1.76191 0
M  V30 2284 H 225.344 -3.48792 -3.69197 0
M  V30 2285 H 225.274 -2.11349 -4.82327 0
M  V30 2286 H 227.765 -1.87767 -3.27951 0
M  V30 2287 H 228.078 -4.36985 -6.37389 0
M  V30 2288 H 226.423 -3.92419 -5.73614 0
M  V30 2289 H 229.614 -2.39858 -4.01977 0
M  V30 2290 H 229.787 -3.53485 -5.43095 0
M  V30 2291 N 223.193 1.4272 -0.668489 0
M  V30 2292 C 224.141 2.32586 0.0254857 0
M  V30 2293 C 225.135 1.49471 0.797176 0
M  V30 2294 O 226.341 1.65583 0.705853 0
M  V30 2295 H 222.716 0.751514 0.0270339 0
M  V30 2296 H 224.687 2.88823 -0.749936 0
M  V30 2297 C 223.436 3.3397 0.967427 0
M  V30 2298 H 222.759 3.97961 0.383048 0
M  V30 2299 H 224.199 3.9945 1.42181 0
M  V30 2300 C 222.658 2.65744 2.0708 0
M  V30 2301 O 223.188 2.48454 3.15648 0
M  V30 2302 N 221.394 2.2487 1.8407 0
M  V30 2303 H 220.941 2.39132 0.95778 0
M  V30 2304 H 220.899 1.79552 2.58086 0
M  V30 2305 N 224.671 0.411399 1.52136 0
M  V30 2306 C 225.896 -0.165538 2.06738 0
M  V30 2307 C 226.321 -1.379 1.27926 0
M  V30 2308 O 225.679 -1.78628 0.310114 0
M  V30 2309 C 225.727 -0.492124 3.57226 0
M  V30 2310 O 224.831 -1.58276 3.80818 0
M  V30 2311 H 224.172 -0.0132132 0.663869 0
M  V30 2312 H 226.702 0.585253 1.96051 0
M  V30 2313 H 226.712 -0.750104 4.01045 0
M  V30 2314 H 225.387 0.394922 4.14021 0
M  V30 2315 H 223.964 -1.31677 3.48877 0
M  V30 2316 N 226.149 -1.5696 0.141893 0
M  V30 2317 C 227.374 -2.00754 -0.520838 0
M  V30 2318 C 227.799 -1.0213 -1.57959 0
M  V30 2319 O 227.157 0.00371324 -1.813 0
M  V30 2320 C 227.205 -3.43318 -1.10294 0
M  V30 2321 O 226.309 -3.47679 -2.21795 0
M  V30 2322 H 225.65 -0.651564 -0.127908 0
M  V30 2323 H 228.18 -2.03221 0.23712 0
M  V30 2324 H 228.19 -3.82012 -1.43287 0
M  V30 2325 H 226.865 -4.14608 -0.327574 0
M  V30 2326 H 225.442 -3.20824 -1.9007 0
M  V30 2327 N 227.627 0.131896 -1.57047 0
M  V30 2328 C 228.557 1.16384 -2.02428 0
M  V30 2329 C 229.538 1.43936 -0.90644 0
M  V30 2330 O 230.723 1.54599 -1.17528 0
M  V30 2331 C 227.853 2.49328 -2.4177 0
M  V30 2332 C 226.807 2.36266 -3.56879 0
M  V30 2333 C 226.133 3.74057 -3.8208 0
M  V30 2334 C 227.433 1.834 -4.89042 0
M  V30 2335 H 229.127 0.786433 -2.88887 0
M  V30 2336 H 226.673 0.376855 -1.38981 0
M  V30 2337 H 228.626 3.21759 -2.7212 0
M  V30 2338 H 227.35 2.88934 -1.52266 0
M  V30 2339 H 226.009 1.66286 -3.26718 0
M  V30 2340 H 225.657 4.11125 -2.89803 0
M  V30 2341 H 225.357 3.66174 -4.59554 0
M  V30 2342 H 226.881 4.48012 -4.1487 0
M  V30 2343 H 228.295 2.45636 -5.18011 0
M  V30 2344 H 226.692 1.8637 -5.70426 0
M  V30 2345 H 227.762 0.790662 -4.7841 0
M  V30 2346 N 229.106 1.52395 0.401703 0
M  V30 2347 C 230.517 1.58899 0.980202 0
M  V30 2348 C 230.868 0.434032 1.91339 0
M  V30 2349 O 229.993 -0.444619 2.11783 0
M  V30 2350 C 230.588 2.87994 1.78451 0
M  V30 2351 C 229.147 2.96953 2.31292 0
M  V30 2352 C 228.294 2.53903 1.11483 0
M  V30 2353 H 231.245 1.57657 0.18168 0
M  V30 2354 H 231.266 2.73765 2.64259 0
M  V30 2355 H 230.778 3.72035 1.10506 0
M  V30 2356 H 228.879 2.17422 3.02586 0
M  V30 2357 H 228.992 4.01344 2.61649 0
M  V30 2358 H 227.356 2.07925 1.47104 0
M  V30 2359 H 228.139 3.40326 0.450928 0
M  V30 2360 N 230.584 -0.659388 1.43143 0
M  V30 2361 C 231.809 -1.45221 1.48073 0
M  V30 2362 C 232.234 -1.87845 0.097995 0
M  V30 2363 O 231.592 -1.56985 -0.90694 0
M  V30 2364 C 231.64 -2.66748 2.42647 0
M  V30 2365 O 230.744 -3.65583 1.90848 0
M  V30 2366 H 230.085 -0.435669 0.501088 0
M  V30 2367 H 232.615 -0.807432 1.87994 0
M  V30 2368 H 232.625 -3.14637 2.59745 0
M  V30 2369 H 231.3 -2.35067 3.43098 0
M  V30 2370 H 229.877 -3.24693 1.83381 0
M  V30 2371 N 232.062 -1.29571 -0.897171 0
M  V30 2372 C 232.972 -1.16808 -2.03453 0
M  V30 2373 C 233.988 -0.0907471 -1.73763 0
M  V30 2374 O 235.164 -0.303312 -1.99103 0
M  V30 2375 C 232.229 -0.848264 -3.36163 0
M  V30 2376 C 231.29 -2.0097 -3.79354 0
M  V30 2377 C 230.523 -1.70505 -5.05731 0
M  V30 2378 O 230.746 -0.62718 -5.66941 0
M  V30 2379 O 229.68 -2.5538 -5.45036 0
M  V30 2380 H 233.506 -2.12325 -2.17144 0
M  V30 2381 H 231.091 -1.09047 -1.02123 0
M  V30 2382 H 232.973 -0.684581 -4.15802 0
M  V30 2383 H 231.648 0.0771071 -3.23608 0
M  V30 2384 H 230.555 -2.22863 -3.00471 0
M  V30 2385 H 231.888 -2.91636 -3.96496 0
M  V30 2386 N 233.54 1.10788 -1.12088 0
M  V30 2387 C 234.472 2.16816 -0.743213 0
M  V30 2388 C 235.485 1.6119 0.228412 0
M  V30 2389 O 236.674 1.78497 0.0102931 0
M  V30 2390 C 233.774 3.38809 -0.0787313 0
M  V30 2391 C 232.947 4.23885 -1.0789 0
M  V30 2392 C 232.006 5.24334 -0.442713 0
M  V30 2393 O 231.032 5.58497 -1.09864 0
M  V30 2394 N 232.234 5.75079 0.791457 0
M  V30 2395 H 234.999 2.49825 -1.65552 0
M  V30 2396 H 232.56 1.26373 -1.012 0
M  V30 2397 H 234.552 4.03107 0.358766 0
M  V30 2398 H 233.122 3.03805 0.736275 0
M  V30 2399 H 232.342 3.55939 -1.69414 0
M  V30 2400 H 233.63 4.77562 -1.75533 0
M  V30 2401 H 233.028 5.49517 1.3434 0
M  V30 2402 H 231.585 6.4118 1.17183 0
M  V30 2403 N 235.018 0.912232 1.28515 0
M  V30 2404 C 235.968 0.370649 2.24967 0
M  V30 2405 C 236.952 -0.516375 1.52389 0
M  V30 2406 O 238.144 -0.356345 1.73376 0
M  V30 2407 C 235.273 -0.389526 3.41083 0
M  V30 2408 C 234.359 0.51313 4.20984 0
M  V30 2409 N 234.75 1.62604 4.78951 0
M  V30 2410 C 233.048 0.313235 4.44899 0
M  V30 2411 C 233.749 2.18619 5.39055 0
M  V30 2412 N 232.725 1.47765 5.23132 0
M  V30 2413 H 236.527 1.22061 2.67354 0
M  V30 2414 H 234.041 0.764712 1.43269 0
M  V30 2415 H 236.038 -0.794353 4.09262 0
M  V30 2416 H 234.698 -1.2366 3.0023 0
M  V30 2417 H 235.709 2.00864 4.77362 0
M  V30 2418 H 232.386 -0.494452 4.14562 0
M  V30 2419 H 233.776 3.12228 5.94948 0
M  V30 2420 N 236.496 -1.42363 0.676048 0
M  V30 2421 C 237.744 -2.01123 0.198437 0
M  V30 2422 C 238.065 -1.53731 -1.19966 0
M  V30 2423 O 237.335 -0.759518 -1.80577 0
M  V30 2424 H 235.915 -0.743678 0.0703721 0
M  V30 2425 H 238.577 -1.74263 0.872837 0
M  V30 2426 H 237.673 -3.11454 0.200686 0
M  V30 2427 N 237.974 -0.419461 -1.51915 0
M  V30 2428 C 239.251 0.211999 -1.94448 0
M  V30 2429 C 239.631 1.61703 -1.35703 0
M  V30 2430 O 238.979 2.22102 -0.536931 0
M  V30 2431 C 239.189 0.207872 -3.4838 0
M  V30 2432 C 240.537 0.422192 -4.22496 0
M  V30 2433 O 241.561 0.286778 -3.55044 0
M  V30 2434 O 240.42 0.690009 -5.42126 0
M  V30 2435 H 237.514 0.139586 -0.815135 0
M  V30 2436 H 240.06 -0.476151 -1.62883 0
M  V30 2437 H 238.832 -0.775102 -3.83546 0
M  V30 2438 H 238.455 0.939688 -3.86336 0
M  V30 2439 N 239.452 1.56882 -0.150215 0
M  V30 2440 C 240.729 1.87844 0.545327 0
M  V30 2441 C 241.109 1.0567 1.82749 0
M  V30 2442 O 240.457 0.144442 2.28043 0
M  V30 2443 C 240.667 3.39526 0.80767 0
M  V30 2444 C 242.015 4.08814 1.14703 0
M  V30 2445 O 243.039 3.44723 0.896917 0
M  V30 2446 O 241.898 5.22004 1.61784 0
M  V30 2447 H 238.992 0.778677 0.278553 0
M  V30 2448 H 241.538 1.68666 -0.187068 0
M  V30 2449 H 240.31 3.91173 -0.0996096 0
M  V30 2450 H 239.933 3.64243 1.59413 0
M  V30 2451 N 240.93 -0.123565 1.57115 0
M  V30 2452 C 241.86 -1.15309 2.03042 0
M  V30 2453 C 242.841 -1.43454 0.914061 0
M  V30 2454 O 244.026 -1.53973 1.18347 0
M  V30 2455 C 241.156 -2.48043 2.43089 0
M  V30 2456 C 240.11 -2.3437 3.58127 0
M  V30 2457 C 239.436 -3.72026 3.84059 0
M  V30 2458 C 240.736 -1.80804 4.90007 0
M  V30 2459 H 242.43 -0.771102 2.893 0
M  V30 2460 H 239.976 -0.369479 1.39179 0
M  V30 2461 H 241.929 -3.20311 2.73823 0
M  V30 2462 H 240.653 -2.88122 1.53796 0
M  V30 2463 H 239.312 -1.64551 3.27595 0
M  V30 2464 H 238.96 -4.09582 2.91979 0
M  V30 2465 H 238.66 -3.63732 4.6149 0
M  V30 2466 H 240.184 -4.45806 4.1724 0
M  V30 2467 H 241.598 -2.42886 5.19307 0
M  V30 2468 H 239.995 -1.83343 5.71407 0
M  V30 2469 H 241.065 -0.76528 4.78823 0
M  V30 2470 N 242.408 -1.52605 -0.393616 0
M  V30 2471 C 243.657 -1.66649 -1.13627 0
M  V30 2472 C 243.97 -0.410364 -1.91247 0
M  V30 2473 O 245.176 -0.430854 -2.68059 0
M  V30 2474 C 243.632 -2.9449 -2.06891 0
M  V30 2475 C 243.24 -4.27266 -1.34714 0
M  V30 2476 C 244.984 -3.17899 -2.81319 0
M  V30 2477 C 242.891 -5.46217 -2.26717 0
M  V30 2478 H 241.821 -0.62084 -0.427871 0
M  V30 2479 H 244.472 -1.791 -0.399428 0
M  V30 2480 H 242.854 -2.75774 -2.84191 0
M  V30 2481 H 244.028 -4.56518 -0.626714 0
M  V30 2482 H 242.343 -4.10081 -0.722643 0
M  V30 2483 H 244.94 -4.03949 -3.50328 0
M  V30 2484 H 245.283 -2.32777 -3.45139 0
M  V30 2485 H 245.816 -3.37159 -2.11113 0
M  V30 2486 H 242.555 -6.33733 -1.67521 0
M  V30 2487 H 242.075 -5.21283 -2.96689 0
M  V30 2488 H 243.754 -5.7991 -2.86903 0
M  V30 2489 N 243.887 0.651787 -1.4349 0
M  V30 2490 C 245.133 1.41376 -1.45398 0
M  V30 2491 C 245.466 1.94041 -0.0784823 0
M  V30 2492 O 244.741 1.72379 0.900878 0
M  V30 2493 C 245.024 2.59414 -2.49752 0
M  V30 2494 C 244.877 2.12232 -3.96582 0
M  V30 2495 C 246.196 3.61626 -2.50827 0
M  V30 2496 H 243.315 0.512719 -0.529422 0
M  V30 2497 H 245.957 0.738796 -1.75048 0
M  V30 2498 H 244.107 3.16997 -2.246 0
M  V30 2499 H 245.779 1.59639 -4.32797 0
M  V30 2500 H 244.022 1.43592 -4.09346 0
M  V30 2501 H 244.693 2.9712 -4.65214 0
M  V30 2502 H 247.169 3.13805 -2.7325 0
M  V30 2503 H 246.045 4.41766 -3.25783 0
M  V30 2504 H 246.306 4.14314 -1.5426 0
M  V30 2505 N 245.365 1.30045 0.890287 0
M  V30 2506 C 246.593 1.21472 1.67487 0
M  V30 2507 C 247.008 -0.223241 1.87476 0
M  V30 2508 O 246.365 -1.14828 1.41847 0
M  V30 2509 C 246.416 1.93394 3.05419 0
M  V30 2510 O 246.137 3.31576 2.86337 0
M  V30 2511 C 247.638 1.91414 3.99844 0
M  V30 2512 H 244.858 0.420604 0.522813 0
M  V30 2513 H 247.402 1.7158 1.11268 0
M  V30 2514 H 245.557 1.47099 3.58386 0
M  V30 2515 H 245.971 3.67929 3.73802 0
M  V30 2516 H 247.445 2.46285 4.94012 0
M  V30 2517 H 247.922 0.891833 4.3005 0
M  V30 2518 H 248.528 2.37496 3.52811 0
M  V30 2519 N 246.843 -1.10192 1.12674 0
M  V30 2520 C 248.254 -1.63707 0.897604 0
M  V30 2521 C 248.605 -1.87812 -0.567546 0
M  V30 2522 O 247.73 -1.62196 -1.43253 0
M  V30 2523 C 248.325 -2.974 1.62292 0
M  V30 2524 C 246.884 -3.47772 1.43986 0
M  V30 2525 C 246.031 -2.22332 1.65722 0
M  V30 2526 H 248.982 -0.936587 1.28116 0
M  V30 2527 H 249.003 -3.64986 1.07541 0
M  V30 2528 H 248.515 -2.79824 2.68924 0
M  V30 2529 H 246.616 -3.70487 0.396206 0
M  V30 2530 H 246.729 -4.25723 2.19765 0
M  V30 2531 H 245.093 -2.30599 1.08149 0
M  V30 2532 H 245.876 -2.07285 2.73657 0
M  V30 2533 N 248.321 -0.919034 -1.28029 0
M  V30 2534 C 249.568 -0.554934 -1.94748 0
M  V30 2535 C 249.896 0.90231 -1.72304 0
M  V30 2536 O 249.151 1.65767 -1.04018 0
M  V30 2537 C 249.45 -0.816855 -3.4794 0
M  V30 2538 C 249.116 -2.25448 -3.90492 0
M  V30 2539 C 247.778 -2.64752 -4.01821 0
M  V30 2540 C 250.13 -3.18977 -4.12193 0
M  V30 2541 C 247.458 -3.96727 -4.32232 0
M  V30 2542 C 249.81 -4.50523 -4.44086 0
M  V30 2543 C 248.474 -4.89673 -4.53626 0
M  V30 2544 H 247.744 -0.203065 -0.712633 0
M  V30 2545 H 250.391 -1.16136 -1.52265 0
M  V30 2546 H 248.696 -0.127677 -3.91592 0
M  V30 2547 H 250.393 -0.514238 -3.97689 0
M  V30 2548 H 246.983 -1.93952 -3.82205 0
M  V30 2549 H 251.167 -2.89817 -4.02889 0
M  V30 2550 H 246.423 -4.26754 -4.37825 0
M  V30 2551 H 250.597 -5.23005 -4.59825 0
M  V30 2552 H 248.224 -5.91969 -4.76946 0
M  V30 2553 N 249.799 1.42003 -0.683588 0
M  V30 2554 C 250.762 2.29191 -0.0198243 0
M  V30 2555 C 251.762 1.43773 0.72013 0
M  V30 2556 O 252.952 1.65061 0.556815 0
M  V30 2557 C 250.084 3.26435 0.982487 0
M  V30 2558 H 251.277 2.8938 -0.787345 0
M  V30 2559 H 248.83 1.49789 -0.446418 0
M  V30 2560 H 249.565 2.71203 1.77819 0
M  V30 2561 H 249.35 3.89449 0.455182 0
M  V30 2562 H 250.84 3.918 1.44508 0
M  V30 2563 N 251.277 0.427512 1.51691 0
M  V30 2564 C 252.209 -0.424521 2.25234 0
M  V30 2565 C 253.222 -0.994671 1.2888 0
M  V30 2566 O 254.411 -0.890483 1.54702 0
M  V30 2567 C 251.511 -1.60479 2.98496 0
M  V30 2568 C 250.684 -1.15527 4.21868 0
M  V30 2569 C 249.743 -2.20454 4.77793 0
M  V30 2570 O 248.769 -1.8029 5.39893 0
M  V30 2571 N 249.971 -3.52831 4.60967 0
M  V30 2572 H 252.736 0.205749 2.98993 0
M  V30 2573 H 250.297 0.255867 1.59865 0
M  V30 2574 H 252.289 -2.30276 3.32799 0
M  V30 2575 H 250.859 -2.14061 2.27809 0
M  V30 2576 H 250.079 -0.284736 3.9317 0
M  V30 2577 H 251.367 -0.832173 5.01949 0
M  V30 2578 H 250.765 -3.88201 4.11481 0
M  V30 2579 H 249.322 -4.18551 4.99658 0
M  V30 2580 N 252.755 -1.56801 0.158532 0
M  V30 2581 C 254.001 -1.96781 -0.490405 0
M  V30 2582 C 254.334 -1.04397 -1.63753 0
M  V30 2583 O 253.609 -0.0885805 -1.94298 0
M  V30 2584 C 253.892 -3.4635 -0.985594 0
M  V30 2585 C 253.745 -4.49512 0.160824 0
M  V30 2586 C 255.064 -3.98697 -1.86355 0
M  V30 2587 H 252.183 -0.715482 -0.176788 0
M  V30 2588 H 254.825 -1.88451 0.242088 0
M  V30 2589 H 252.975 -3.53579 -1.60978 0
M  V30 2590 H 254.647 -4.54353 0.797537 0
M  V30 2591 H 252.89 -4.26013 0.818256 0
M  V30 2592 H 253.561 -5.51531 -0.227569 0
M  V30 2593 H 256.037 -3.94019 -1.33746 0
M  V30 2594 H 254.913 -5.03792 -2.17909 0
M  V30 2595 H 255.174 -3.41744 -2.8047 0
M  V30 2596 N 254.233 0.115231 -1.57178 0
M  V30 2597 C 255.163 1.1423 -2.03651 0
M  V30 2598 C 256.144 1.42967 -0.921655 0
M  V30 2599 O 257.329 1.53343 -1.19162 0
M  V30 2600 C 254.459 2.4675 -2.44401 0
M  V30 2601 C 253.413 2.32467 -3.59365 0
M  V30 2602 C 252.739 3.69984 -3.86026 0
M  V30 2603 C 254.039 1.78203 -4.90959 0
M  V30 2604 H 255.733 0.755749 -2.89705 0
M  V30 2605 H 253.279 0.362093 -1.39373 0
M  V30 2606 H 255.232 3.18854 -2.75517 0
M  V30 2607 H 253.956 2.87302 -1.55322 0
M  V30 2608 H 252.615 1.62811 -3.28463 0
M  V30 2609 H 252.263 4.08028 -2.94147 0
M  V30 2610 H 251.963 3.61279 -4.63412 0
M  V30 2611 H 253.487 4.43587 -4.19599 0
M  V30 2612 H 254.901 2.40128 -5.20587 0
M  V30 2613 H 253.298 1.8031 -5.72371 0
M  V30 2614 H 254.368 0.739876 -4.79222 0
M  V30 2615 N 255.711 1.52812 0.385517 0
M  V30 2616 C 256.674 1.77188 1.45386 0
M  V30 2617 C 257.674 0.641953 1.4743 0
M  V30 2618 O 258.864 0.910033 1.4854 0
M  V30 2619 C 255.996 1.87582 2.8465 0
M  V30 2620 H 257.189 2.72583 1.25054 0
M  V30 2621 H 254.742 1.43586 0.617467 0
M  V30 2622 H 255.477 0.941849 3.10322 0
M  V30 2623 H 255.262 2.69748 2.84567 0
M  V30 2624 H 256.752 2.08102 3.62054 0
M  V30 2625 N 257.189 -0.644168 1.43834 0
M  V30 2626 C 258.414 -1.43642 1.49605 0
M  V30 2627 C 258.839 -1.8773 0.117913 0
M  V30 2628 O 258.197 -1.57938 -0.890239 0
M  V30 2629 C 258.245 -2.6416 2.45463 0
M  V30 2630 O 257.349 -3.63538 1.94714 0
M  V30 2631 H 256.69 -0.430329 0.50568 0
M  V30 2632 H 259.22 -0.787448 1.8884 0
M  V30 2633 H 259.23 -3.11864 2.63068 0
M  V30 2634 H 257.905 -2.31414 3.45572 0
M  V30 2635 H 256.482 -3.2273 1.86814 0
M  V30 2636 N 258.668 -1.30515 -0.883378 0
M  V30 2637 C 259.598 -1.19607 -2.00541 0
M  V30 2638 C 260.579 -0.086346 -1.69881 0
M  V30 2639 O 261.764 -0.268654 -1.92333 0
M  V30 2640 C 258.894 -0.888758 -3.35736 0
M  V30 2641 C 257.848 -1.95659 -3.8066 0
M  V30 2642 C 257.174 -1.50224 -5.13164 0
M  V30 2643 C 258.474 -3.36788 -3.99213 0
M  V30 2644 H 260.168 -2.13476 -2.09925 0
M  V30 2645 H 257.714 -1.02775 -1.00863 0
M  V30 2646 H 259.667 -0.799094 -4.13754 0
M  V30 2647 H 258.391 0.0856125 -3.26488 0
M  V30 2648 H 257.05 -2.03591 -3.04871 0
M  V30 2649 H 256.698 -0.516092 -5.00345 0
M  V30 2650 H 256.398 -2.2165 -5.44192 0
M  V30 2651 H 257.922 -1.42639 -5.93706 0
M  V30 2652 H 259.336 -3.31605 -4.67665 0
M  V30 2653 H 257.733 -4.06314 -4.41621 0
M  V30 2654 H 258.803 -3.78561 -3.03017 0
M  V30 2655 N 260.146 1.09593 -1.13257 0
M  V30 2656 C 261.562 1.33775 -0.870423 0
M  V30 2657 C 261.762 1.95327 0.494926 0
M  V30 2658 O 260.818 2.19853 1.2418 0
M  V30 2659 C 262.131 2.25106 -1.99369 0
M  V30 2660 C 263.679 2.3862 -2.02558 0
M  V30 2661 C 264.154 3.33285 -3.14142 0
M  V30 2662 N 265.645 3.40857 -3.13641 0
M  V30 2663 C 266.38 4.14101 -3.96621 0
M  V30 2664 N 265.876 4.90157 -4.8961 0
M  V30 2665 N 267.669 4.09808 -3.84726 0
M  V30 2666 H 259.82 0.680136 -2.01216 0
M  V30 2667 H 262.083 0.362133 -0.876107 0
M  V30 2668 H 261.789 1.87103 -2.97801 0
M  V30 2669 H 261.663 3.25481 -1.90635 0
M  V30 2670 H 264.05 2.75887 -1.0474 0
M  V30 2671 H 264.131 1.38028 -2.15364 0
M  V30 2672 H 263.775 2.96741 -4.12198 0
M  V30 2673 H 263.705 4.33776 -2.98574 0
M  V30 2674 H 266.196 2.86624 -2.46282 0
M  V30 2675 H 266.509 5.4347 -5.49418 0
M  V30 2676 H 264.854 4.89251 -4.93617 0
M  V30 2677 H 268.045 3.4949 -3.11408 0
M  V30 2678 H 268.218 4.66629 -4.49623 0
M  V30 2679 N 261.624 0.925811 1.2754 0
M  V30 2680 C 262.849 0.580924 1.99098 0
M  V30 2681 C 263.274 -0.833555 1.68622 0
M  V30 2682 O 262.632 -1.55903 0.925422 0
M  V30 2683 C 262.68 0.811186 3.51358 0
M  V30 2684 O 261.784 -0.124129 4.12213 0
M  V30 2685 H 261.125 0.223873 0.625122 0
M  V30 2686 H 263.655 1.24455 1.62395 0
M  V30 2687 H 263.665 0.72601 4.01489 0
M  V30 2688 H 262.34 1.84227 3.72872 0
M  V30 2689 H 260.917 0.0108006 3.72898 0
M  V30 2690 N 263.102 -1.41638 0.69111 0
M  V30 2691 C 264.348 -2.01598 0.220519 0
M  V30 2692 C 264.681 -1.54594 -1.17535 0
M  V30 2693 O 263.956 -0.755177 -1.79241 0
M  V30 2694 C 264.239 -3.59062 0.273243 0
M  V30 2695 C 264.092 -4.16203 1.70573 0
M  V30 2696 C 265.411 -4.38546 -0.369457 0
M  V30 2697 H 262.53 -0.732468 0.0816045 0
M  V30 2698 H 265.172 -1.68445 0.878986 0
M  V30 2699 H 263.322 -3.87435 -0.287411 0
M  V30 2700 H 264.994 -3.98722 2.31989 0
M  V30 2701 H 263.237 -3.71414 2.2413 0
M  V30 2702 H 263.908 -5.25358 1.69419 0
M  V30 2703 H 266.384 -4.1596 0.107977 0
M  V30 2704 H 265.26 -5.48069 -0.302002 0
M  V30 2705 H 265.521 -4.17662 -1.44951 0
M  V30 2706 N 264.58 -0.43555 -1.51462 0
M  V30 2707 C 265.996 -0.0877501 -1.59359 0
M  V30 2708 C 266.196 1.4027 -1.4466 0
M  V30 2709 O 265.252 2.17243 -1.28693 0
M  V30 2710 C 266.565 -0.606264 -2.94525 0
M  V30 2711 C 268.113 -0.566548 -3.0783 0
M  V30 2712 C 268.588 -1.06201 -4.45517 0
M  V30 2713 N 270.079 -1.01992 -4.51832 0
M  V30 2714 C 270.814 -1.37417 -5.5669 0
M  V30 2715 N 270.31 -1.80119 -6.68976 0
M  V30 2716 N 272.103 -1.29245 -5.47039 0
M  V30 2717 H 264.254 -1.40533 -1.59261 0
M  V30 2718 H 266.517 -0.578992 -0.750648 0
M  V30 2719 H 266.223 -1.64901 -3.10645 0
M  V30 2720 H 266.097 -0.0302097 -3.77188 0
M  V30 2721 H 268.484 0.467208 -2.91378 0
M  V30 2722 H 268.565 -1.17898 -2.2701 0
M  V30 2723 H 268.209 -2.09422 -4.62715 0
M  V30 2724 H 268.139 -0.426127 -5.24873 0
M  V30 2725 H 270.63 -0.706308 -3.71241 0
M  V30 2726 H 270.943 -2.05392 -7.45006 0
M  V30 2727 H 269.288 -1.84044 -6.70189 0
M  V30 2728 H 272.479 -0.957522 -4.58202 0
M  V30 2729 H 272.652 -1.57182 -6.28648 0
M  V30 2730 N 266.058 1.56714 -0.166846 0
M  V30 2731 C 267.006 2.19056 0.782123 0
M  V30 2732 C 268 1.15328 1.24079 0
M  V30 2733 O 269.206 1.33537 1.20697 0
M  V30 2734 H 265.581 0.70167 0.270486 0
M  V30 2735 H 267.552 2.97494 0.232322 0
M  V30 2736 C 266.301 2.84206 2.00306 0
M  V30 2737 H 265.624 3.63748 1.65914 0
M  V30 2738 H 267.064 3.31302 2.64604 0
M  V30 2739 C 265.523 1.83744 2.82382 0
M  V30 2740 O 266.053 1.32014 3.79388 0
M  V30 2741 N 264.259 1.52601 2.47308 0
M  V30 2742 H 263.806 1.9486 1.68485 0
M  V30 2743 H 263.764 0.856351 3.02513 0
M  V30 2744 N 267.536 -0.106894 1.57237 0
M  V30 2745 C 268.484 -1.14944 2.02215 0
M  V30 2746 C 269.478 -1.42167 0.92114 0
M  V30 2747 O 270.684 -1.41987 1.10634 0
M  V30 2748 H 267.059 -0.387841 0.64427 0
M  V30 2749 H 269.03 -0.743683 2.88984 0
M  V30 2750 C 267.779 -2.4647 2.4525 0
M  V30 2751 H 267.102 -2.26363 3.29545 0
M  V30 2752 H 268.542 -3.17948 2.80508 0
M  V30 2753 C 267.001 -3.09921 1.321 0
M  V30 2754 O 267.531 -3.9651 0.643622 0
M  V30 2755 N 265.737 -2.69986 1.07497 0
M  V30 2756 H 265.284 -1.99667 1.62761 0
M  V30 2757 H 265.242 -3.12769 0.319876 0
M  V30 2758 N 269.014 -1.53014 -0.377408 0
M  V30 2759 C 270.261 -1.68623 -1.12128 0
M  V30 2760 C 270.589 -0.431997 -1.89642 0
M  V30 2761 O 269.844 0.585855 -1.86725 0
M  V30 2762 C 270.143 -2.87982 -2.11663 0
M  V30 2763 C 269.809 -4.24964 -1.50719 0
M  V30 2764 C 268.471 -4.62217 -1.33825 0
M  V30 2765 C 270.823 -5.10199 -1.06519 0
M  V30 2766 C 268.151 -5.82352 -0.712963 0
M  V30 2767 C 270.503 -6.30969 -0.453955 0
M  V30 2768 C 269.167 -6.66944 -0.272411 0
M  V30 2769 H 268.437 -0.617034 -0.410305 0
M  V30 2770 H 271.084 -1.8718 -0.404484 0
M  V30 2771 H 269.389 -2.63889 -2.89603 0
M  V30 2772 H 271.086 -2.97253 -2.6915 0
M  V30 2773 H 267.676 -3.95626 -1.64858 0
M  V30 2774 H 271.86 -4.81978 -1.18368 0
M  V30 2775 H 267.116 -6.08824 -0.560611 0
M  V30 2776 H 271.29 -6.96324 -0.103217 0
M  V30 2777 H 268.917 -7.59898 0.214181 0
M  V30 2778 N 270.492 0.636531 -1.44174 0
M  V30 2779 C 271.72 1.42353 -1.50144 0
M  V30 2780 C 272.135 1.88389 -0.124575 0
M  V30 2781 O 271.492 1.6051 0.868489 0
M  V30 2782 C 271.543 2.64744 -2.46156 0
M  V30 2783 O 271.264 2.20629 -3.7849 0
M  V30 2784 C 272.765 3.57929 -2.61537 0
M  V30 2785 H 269.985 0.436752 -0.5094 0
M  V30 2786 H 272.529 0.778933 -1.89084 0
M  V30 2787 H 270.684 3.25307 -2.10366 0
M  V30 2788 H 271.098 2.99938 -4.30276 0
M  V30 2789 H 272.572 4.40428 -3.32757 0
M  V30 2790 H 273.049 4.06382 -1.66585 0
M  V30 2791 H 273.655 3.03238 -2.98206 0
M  V30 2792 N 271.97 1.30982 0.876444 0
M  V30 2793 C 273.219 1.19658 1.62373 0
M  V30 2794 C 273.532 -0.245636 1.94052 0
M  V30 2795 O 274.738 -0.48049 2.67214 0
M  V30 2796 C 273.194 2.09433 2.92687 0
M  V30 2797 C 272.802 3.58613 2.68516 0
M  V30 2798 C 274.546 2.06893 3.70669 0
M  V30 2799 C 272.453 4.40416 3.94699 0
M  V30 2800 H 271.383 0.444268 0.609214 0
M  V30 2801 H 274.034 1.55791 0.969605 0
M  V30 2802 H 272.416 1.66191 3.59439 0
M  V30 2803 H 273.59 4.10058 2.10212 0
M  V30 2804 H 271.905 3.63063 2.03898 0
M  V30 2805 H 274.502 2.65258 4.64265 0
M  V30 2806 H 274.845 1.05448 4.02724 0
M  V30 2807 H 275.378 2.48301 3.10792 0
M  V30 2808 H 272.117 5.42591 3.67798 0
M  V30 2809 H 271.637 3.93731 4.52477 0
M  V30 2810 H 273.316 4.52294 4.62644 0
M  V30 2811 N 273.449 -1.08991 1.13837 0
M  V30 2812 C 274.379 -2.17771 0.842507 0
M  V30 2813 C 275.36 -1.6892 -0.20001 0
M  V30 2814 O 276.545 -1.94113 -0.0579731 0
M  V30 2815 C 273.675 -3.4589 0.312644 0
M  V30 2816 C 272.629 -4.08099 1.28992 0
M  V30 2817 C 271.955 -5.31098 0.619623 0
M  V30 2818 C 273.255 -4.50077 2.65005 0
M  V30 2819 H 274.949 -2.42777 1.75213 0
M  V30 2820 H 272.495 -1.16682 0.843875 0
M  V30 2821 H 274.448 -4.21297 0.0933043 0
M  V30 2822 H 273.172 -3.20419 -0.632382 0
M  V30 2823 H 271.831 -3.34717 1.49533 0
M  V30 2824 H 271.479 -5.0191 -0.33102 0
M  V30 2825 H 271.179 -5.73674 1.27167 0
M  V30 2826 H 272.703 -6.09224 0.409669 0
M  V30 2827 H 274.117 -5.16688 2.48407 0
M  V30 2828 H 272.514 -5.03553 3.26427 0
M  V30 2829 H 273.584 -3.62257 3.22332 0
M  V30 2830 N 274.927 -0.932562 -1.27047 0
M  V30 2831 C 276.155 -0.592031 -1.98249 0
M  V30 2832 C 276.57 0.831062 -1.69525 0
M  V30 2833 O 275.927 1.55299 -0.958561 0
M  V30 2834 C 275.978 -0.814279 -3.5221 0
M  V30 2835 O 275.699 -2.18139 -3.7993 0
M  V30 2836 C 277.2 -0.483121 -4.4066 0
M  V30 2837 H 274.42 -0.223896 -0.632544 0
M  V30 2838 H 276.964 -1.25091 -1.61779 0
M  V30 2839 H 275.119 -0.20213 -3.86872 0
M  V30 2840 H 275.533 -2.235 -4.74498 0
M  V30 2841 H 277.007 -0.689298 -5.47679 0
M  V30 2842 H 277.484 0.581546 -4.35333 0
M  V30 2843 H 278.09 -1.07362 -4.11526 0
M  V30 2844 N 276.405 1.4127 -0.698611 0
M  V30 2845 C 277.353 2.32588 -0.023855 0
M  V30 2846 C 278.347 1.51128 0.765292 0
M  V30 2847 O 279.553 1.67043 0.670571 0
M  V30 2848 H 275.928 0.751918 0.0110871 0
M  V30 2849 H 277.899 2.87167 -0.811031 0
M  V30 2850 C 276.648 3.35947 0.896369 0
M  V30 2851 H 275.971 3.98684 0.298548 0
M  V30 2852 H 277.411 4.02376 1.33676 0
M  V30 2853 C 275.87 2.70076 2.01396 0
M  V30 2854 O 276.4 2.55093 3.10307 0
M  V30 2855 N 274.606 2.28724 1.79259 0
M  V30 2856 H 274.153 2.4111 0.906841 0
M  V30 2857 H 274.111 1.84986 2.54219 0
M  V30 2858 N 277.883 0.443576 1.51229 0
M  V30 2859 C 278.813 -0.355142 2.30783 0
M  V30 2860 C 279.794 -1.0154 1.36468 0
M  V30 2861 O 280.979 -1.01785 1.65389 0
M  V30 2862 C 278.109 -1.45312 3.15439 0
M  V30 2863 C 277.063 -0.916002 4.18083 0
M  V30 2864 C 276.389 -2.1102 4.91299 0
M  V30 2865 C 277.689 0.0538602 5.22272 0
M  V30 2866 H 279.383 0.308767 2.97804 0
M  V30 2867 H 276.929 0.149937 1.43217 0
M  V30 2868 H 278.882 -2.01914 3.69876 0
M  V30 2869 H 277.606 -2.14541 2.46252 0
M  V30 2870 H 276.265 -0.372145 3.64706 0
M  V30 2871 H 275.913 -2.78882 4.18609 0
M  V30 2872 H 275.613 -1.75717 5.60712 0
M  V30 2873 H 277.137 -2.68164 5.48562 0
M  V30 2874 H 278.551 -0.422069 5.71744 0
M  V30 2875 H 276.948 0.319776 5.99247 0
M  V30 2876 H 278.018 0.98858 4.74716 0
M  V30 2877 N 279.361 -1.56624 0.175154 0
M  V30 2878 C 280.311 -2.14747 -0.766004 0
M  V30 2879 C 281.295 -1.08275 -1.19018 0
M  V30 2880 O 282.487 -1.34388 -1.15191 0
M  V30 2881 C 279.616 -2.79478 -1.99366 0
M  V30 2882 C 278.702 -3.93114 -1.5913 0
M  V30 2883 N 279.093 -4.97752 -0.89872 0
M  V30 2884 C 277.391 -4.04345 -1.88204 0
M  V30 2885 C 278.092 -5.77473 -0.700012 0
M  V30 2886 N 277.068 -5.29207 -1.24263 0
M  V30 2887 H 280.87 -2.93015 -0.22793 0
M  V30 2888 H 278.384 -1.6238 -0.0253843 0
M  V30 2889 H 280.381 -3.19498 -2.67818 0
M  V30 2890 H 279.041 -2.02692 -2.53665 0
M  V30 2891 H 280.052 -5.14903 -0.556347 0
M  V30 2892 H 276.729 -3.38667 -2.44153 0
M  V30 2893 H 278.119 -6.71728 -0.152047 0
M  V30 2894 N 280.839 0.0985539 -1.57292 0
M  V30 2895 C 282.087 0.801092 -1.85545 0
M  V30 2896 C 282.408 1.79438 -0.763353 0
M  V30 2897 O 281.678 1.94763 0.21073 0
M  V30 2898 H 280.258 0.29884 -0.684619 0
M  V30 2899 H 282.92 0.0810064 -1.94732 0
M  V30 2900 H 282.016 1.3338 -2.82163 0
M  V30 2901 N 282.317 1.53212 0.369288 0
M  V30 2902 C 283.545 1.73119 1.13303 0
M  V30 2903 C 283.96 0.458455 1.83149 0
M  V30 2904 O 283.317 -0.568403 1.73423 0
M  V30 2905 C 283.368 2.89413 2.16616 0
M  V30 2906 O 283.089 4.11761 1.49614 0
M  V30 2907 C 284.59 3.21161 3.05566 0
M  V30 2908 H 281.81 0.579107 0.338934 0
M  V30 2909 H 284.354 1.99942 0.429338 0
M  V30 2910 H 282.509 2.64994 2.82589 0
M  V30 2911 H 282.923 4.76858 2.18419 0
M  V30 2912 H 284.397 4.05949 3.74045 0
M  V30 2913 H 284.874 2.36369 3.70171 0
M  V30 2914 H 285.48 3.47492 2.45213 0
M  V30 2915 N 283.795 -0.628877 1.44509 0
M  V30 2916 C 285.02 -1.42048 1.5112 0
M  V30 2917 C 285.445 -1.87594 0.137818 0
M  V30 2918 O 284.803 -1.58873 -0.873437 0
M  V30 2919 C 284.851 -2.61541 2.48251 0
M  V30 2920 O 283.955 -3.61453 1.98559 0
M  V30 2921 H 283.296 -0.424942 0.510216 0
M  V30 2922 H 285.826 -0.767374 1.89664 0
M  V30 2923 H 285.836 -3.09057 2.66361 0
M  V30 2924 H 284.511 -2.27736 3.48007 0
M  V30 2925 H 283.088 -3.20731 1.90227 0
M  V30 2926 N 285.273 -1.31445 -0.869486 0
M  V30 2927 C 286.221 -1.19067 -1.99814 0
M  V30 2928 C 287.215 -0.0988569 -1.69111 0
M  V30 2929 O 288.421 -0.260781 -1.78101 0
M  V30 2930 H 284.796 -0.368677 -0.655425 0
M  V30 2931 H 286.767 -2.14555 -2.07385 0
M  V30 2932 C 285.516 -0.915323 -3.35436 0
M  V30 2933 H 284.839 -1.74759 -3.59582 0
M  V30 2934 H 286.279 -0.868895 -4.15001 0
M  V30 2935 C 284.738 0.381928 -3.34728 0
M  V30 2936 O 285.268 1.39857 -3.76567 0
M  V30 2937 N 283.474 0.398633 -2.87853 0
M  V30 2938 H 283.021 -0.429186 -2.54 0
M  V30 2939 H 282.979 1.26651 -2.87762 0
M  V30 2940 N 286.751 1.08385 -1.14413 0
M  V30 2941 C 287.698 2.15311 -0.831265 0
M  V30 2942 C 288.668 1.64751 0.211292 0
M  V30 2943 O 289.853 1.90627 0.0811674 0
M  V30 2944 C 286.993 3.43658 -0.315143 0
M  V30 2945 C 286.106 4.08064 -1.41802 0
M  V30 2946 C 285.241 5.24207 -0.859126 0
M  V30 2947 C 284.28 5.80554 -1.93967 0
M  V30 2948 N 283.417 6.88042 -1.39793 0
M  V30 2949 H 288.257 2.41415 -1.74708 0
M  V30 2950 H 285.794 1.18474 -0.871909 0
M  V30 2951 H 287.752 4.172 0.00230884 0
M  V30 2952 H 286.382 3.17839 0.56378 0
M  V30 2953 H 285.434 3.3228 -1.85187 0
M  V30 2954 H 286.746 4.45962 -2.23427 0
M  V30 2955 H 285.9 6.04689 -0.49359 0
M  V30 2956 H 284.639 4.87699 -0.011932 0
M  V30 2957 H 283.644 4.98725 -2.31415 0
M  V30 2958 H 284.869 6.19121 -2.79046 0
M  V30 2959 H 282.815 6.53493 -0.572919 0
M  V30 2960 H 282.732 7.24767 -2.15054 0
M  V30 2961 H 284 7.72255 -1.0603 0
M  V30 2962 N 288.23 0.939286 1.26551 0
M  V30 2963 C 289.646 0.641304 1.46149 0
M  V30 2964 C 289.846 -0.805964 1.84679 0
M  V30 2965 O 288.902 -1.58278 1.96734 0
M  V30 2966 C 290.215 1.6011 2.54529 0
M  V30 2967 C 291.763 1.6106 2.68382 0
M  V30 2968 C 292.238 2.55765 3.79932 0
M  V30 2969 N 293.729 2.5404 3.87322 0
M  V30 2970 C 294.464 3.24004 4.73085 0
M  V30 2971 N 293.96 4.03388 5.63249 0
M  V30 2972 N 295.753 3.12965 4.66914 0
M  V30 2973 H 287.904 1.87478 0.998285 0
M  V30 2974 H 290.167 0.805559 0.499779 0
M  V30 2975 H 289.873 2.63412 2.33039 0
M  V30 2976 H 289.747 1.35171 3.52149 0
M  V30 2977 H 292.134 0.584835 2.89247 0
M  V30 2978 H 292.215 1.90053 1.71212 0
M  V30 2979 H 291.859 3.58458 3.5982 0
M  V30 2980 H 291.789 2.24063 4.76554 0
M  V30 2981 H 294.28 1.96396 3.22858 0
M  V30 2982 H 294.593 4.5373 6.25579 0
M  V30 2983 H 292.938 4.07489 5.63008 0
M  V30 2984 H 296.129 2.50432 3.95476 0
M  V30 2985 H 296.302 3.67759 5.33533 0
M  V30 2986 N 289.708 -1.40897 0.706093 0
M  V30 2987 C 290.933 -2.05895 0.249435 0
M  V30 2988 C 291.358 -1.52823 -1.09666 0
M  V30 2989 O 290.716 -0.659589 -1.68876 0
M  V30 2990 C 290.764 -3.59872 0.22904 0
M  V30 2991 O 289.868 -4.04708 -0.792784 0
M  V30 2992 H 289.209 -0.653206 0.119241 0
M  V30 2993 H 291.739 -1.80471 0.96391 0
M  V30 2994 H 291.749 -4.07951 0.0634791 0
M  V30 2995 H 290.424 -3.97866 1.21141 0
M  V30 2996 H 289.001 -3.68111 -0.59572 0
M  V30 2997 N 291.186 -0.45159 -1.50991 0
M  V30 2998 C 292.597 0.00818571 -1.86698 0
M  V30 2999 C 292.948 1.40661 -1.3678 0
M  V30 3000 O 292.073 2.0391 -0.724546 0
M  V30 3001 C 292.668 0.0216303 -3.38793 0
M  V30 3002 C 291.227 0.425865 -3.73983 0
M  V30 3003 C 290.374 -0.372163 -2.74791 0
M  V30 3004 H 293.325 -0.666785 -1.44013 0
M  V30 3005 H 293.346 0.828078 -3.7138 0
M  V30 3006 H 292.858 -0.996288 -3.75094 0
M  V30 3007 H 290.959 1.44886 -3.43277 0
M  V30 3008 H 291.072 0.140761 -4.78893 0
M  V30 3009 H 289.436 0.171498 -2.54122 0
M  V30 3010 H 290.219 -1.38922 -3.13935 0
M  V30 3011 N 292.664 1.56529 -0.183458 0
M  V30 3012 C 293.627 2.17324 0.728223 0
M  V30 3013 C 294.627 1.12453 1.14939 0
M  V30 3014 O 295.817 1.37902 1.06437 0
M  V30 3015 C 292.949 2.76591 1.99274 0
M  V30 3016 H 294.142 2.99241 0.198772 0
M  V30 3017 H 291.695 1.5616 0.0661391 0
M  V30 3018 H 292.43 1.98441 2.56499 0
M  V30 3019 H 292.215 3.5335 1.69959 0
M  V30 3020 H 293.705 3.23311 2.6431 0
M  V30 3021 N 294.142 -0.090211 1.57342 0
M  V30 3022 C 295.105 -1.09335 2.01441 0
M  V30 3023 C 296.105 -1.32666 0.908641 0
M  V30 3024 O 297.295 -1.28697 1.174 0
M  V30 3025 C 294.427 -2.44136 2.3793 0
M  V30 3026 H 295.62 -0.713662 2.91285 0
M  V30 3027 H 293.173 -0.335404 1.52659 0
M  V30 3028 H 293.908 -2.86972 1.51055 0
M  V30 3029 H 293.693 -2.28548 3.18603 0
M  V30 3030 H 295.183 -3.16277 2.72688 0
M  V30 3031 N 295.62 -1.53406 -0.361157 0
M  V30 3032 C 296.845 -1.74024 -1.12829 0
M  V30 3033 C 297.27 -0.470069 -1.82132 0
M  V30 3034 O 296.628 0.57619 -1.719 0
M  V30 3035 C 296.676 -2.90903 -2.13091 0
M  V30 3036 O 295.78 -2.59821 -3.20261 0
M  V30 3037 H 295.121 -0.577804 -0.327168 0
M  V30 3038 H 297.651 -2.00307 -0.41693 0
M  V30 3039 H 297.661 -3.17194 -2.56616 0
M  V30 3040 H 296.336 -3.83034 -1.62042 0
M  V30 3041 H 294.913 -2.44362 -2.81677 0
M  V30 3042 N 297.098 0.621204 -1.44841 0
M  V30 3043 C 298.03 1.74615 -1.48466 0
M  V30 3044 C 299.043 1.58377 -0.37691 0
M  V30 3045 O 300.232 1.66508 -0.643215 0
M  V30 3046 C 297.332 3.12459 -1.31236 0
M  V30 3047 C 296.505 3.55064 -2.55438 0
M  V30 3048 C 295.564 4.71821 -2.32963 0
M  V30 3049 O 294.59 4.79628 -3.06505 0
M  V30 3050 N 295.792 5.64186 -1.36654 0
M  V30 3051 H 298.557 1.71973 -2.45449 0
M  V30 3052 H 296.118 0.806077 -1.40407 0
M  V30 3053 H 298.11 3.88302 -1.14032 0
M  V30 3054 H 296.68 3.09686 -0.4258 0
M  V30 3055 H 295.9 2.69324 -2.87851 0
M  V30 3056 H 297.188 3.80284 -3.38026 0
M  V30 3057 H 296.586 5.6058 -0.759344 0
M  V30 3058 H 295.143 6.39618 -1.25425 0
M  V30 3059 N 298.576 1.31904 0.862503 0
M  V30 3060 C 299.987 1.19803 1.43193 0
M  V30 3061 C 300.338 -0.192567 1.95253 0
M  V30 3062 O 299.463 -1.09081 1.86896 0
M  V30 3063 C 300.058 2.16883 2.60283 0
M  V30 3064 C 298.617 2.08692 3.13248 0
M  V30 3065 C 297.764 2.05691 1.85975 0
M  V30 3066 H 300.715 1.43846 0.670365 0
M  V30 3067 H 300.736 1.76278 3.37204 0
M  V30 3068 H 300.248 3.18083 2.22363 0
M  V30 3069 H 298.349 1.10713 3.55771 0
M  V30 3070 H 298.462 2.9815 3.75025 0
M  V30 3071 H 296.826 1.50814 2.05249 0
M  V30 3072 H 297.609 3.08659 1.50282 0
M  V30 3073 N 300.054 -1.07777 1.14986 0
M  V30 3074 C 301.465 -1.61766 0.932127 0
M  V30 3075 C 301.816 -1.88974 -0.527581 0
M  V30 3076 O 300.941 -1.65198 -1.39781 0
M  V30 3077 C 301.536 -2.93891 1.68563 0
M  V30 3078 C 300.095 -3.44639 1.5133 0
M  V30 3079 C 299.242 -2.18767 1.704 0
M  V30 3080 H 302.193 -0.909201 1.30074 0
M  V30 3081 H 302.214 -3.62623 1.15259 0
M  V30 3082 H 301.726 -2.74057 2.74799 0
M  V30 3083 H 299.827 -3.69564 0.474702 0
M  V30 3084 H 299.94 -4.20966 2.28746 0
M  V30 3085 H 298.304 -2.28253 1.13016 0
M  V30 3086 H 299.087 -2.01433 2.77992 0
M  V30 3087 N 301.532 -0.945985 -1.26051 0
M  V30 3088 C 302.778 -0.597002 -1.93814 0
M  V30 3089 C 303.111 0.862484 -1.73997 0
M  V30 3090 O 302.386 1.61769 -1.07986 0
M  V30 3091 C 302.669 -0.945937 -3.47454 0
M  V30 3092 C 302.522 -2.46052 -3.76535 0
M  V30 3093 C 303.841 -0.464785 -4.37639 0
M  V30 3094 H 300.96 -0.218366 -0.703907 0
M  V30 3095 H 303.602 -1.18107 -1.48831 0
M  V30 3096 H 301.752 -0.448902 -3.85898 0
M  V30 3097 H 303.424 -3.03065 -3.47778 0
M  V30 3098 H 301.667 -2.90194 -3.22444 0
M  V30 3099 H 302.338 -2.65517 -4.83947 0
M  V30 3100 H 304.814 -0.891016 -4.06448 0
M  V30 3101 H 303.69 -0.737712 -5.4392 0
M  V30 3102 H 303.951 0.635274 -4.37512 0
M  V30 3103 N 303.011 1.40521 -0.713556 0
M  V30 3104 C 304.236 2.05759 -0.26035 0
M  V30 3105 C 304.661 1.53403 1.08854 0
M  V30 3106 O 304.019 0.668535 1.68524 0
M  V30 3107 C 304.067 3.59745 -0.248122 0
M  V30 3108 O 303.171 4.05123 0.77131 0
M  V30 3109 H 302.512 0.652564 -0.122703 0
M  V30 3110 H 305.042 1.79958 -0.973467 0
M  V30 3111 H 305.052 4.07911 -0.0851129 0
M  V30 3112 H 303.727 3.97218 -1.2325 0
M  V30 3113 H 302.304 3.68422 0.57619 0
M  V30 3114 N 304.489 0.459591 1.5075 0
M  V30 3115 C 305.905 0.113092 1.59199 0
M  V30 3116 C 306.105 -1.37951 1.46874 0
M  V30 3117 O 305.161 -2.15168 1.32132 0
M  V30 3118 C 306.474 0.653043 2.93523 0
M  V30 3119 C 308.022 0.615449 3.0689 0
M  V30 3120 C 308.497 1.13275 4.43771 0
M  V30 3121 N 309.988 1.09167 4.50152 0
M  V30 3122 C 310.723 1.46256 5.54434 0
M  V30 3123 N 310.219 1.90739 6.66026 0
M  V30 3124 N 312.012 1.37932 5.44914 0
M  V30 3125 H 304.163 1.43049 1.57005 0
M  V30 3126 H 306.426 0.590861 0.741341 0
M  V30 3127 H 306.132 1.69822 3.07983 0
M  V30 3128 H 306.006 0.0902132 3.77092 0
M  V30 3129 H 308.393 -0.420793 2.92084 0
M  V30 3130 H 308.474 1.21495 2.25106 0
M  V30 3131 H 308.118 2.16757 4.59324 0
M  V30 3132 H 308.048 0.509576 5.24129 0
M  V30 3133 H 310.539 0.76528 3.7007 0
M  V30 3134 H 310.852 2.17218 7.41644 0
M  V30 3135 H 309.197 1.94683 6.67176 0
M  V30 3136 H 312.388 1.0303 4.56621 0
M  V30 3137 H 312.561 1.67164 6.26067 0
M  V30 3138 N 305.967 -1.56429 0.191757 0
M  V30 3139 C 307.213 -1.97777 -0.448554 0
M  V30 3140 C 307.546 -1.07847 -1.61501 0
M  V30 3141 O 306.821 -0.129774 -1.94067 0
M  V30 3142 C 307.104 -3.48362 -0.911906 0
M  V30 3143 C 306.957 -4.4907 0.256136 0
M  V30 3144 C 308.276 -4.02561 -1.77857 0
M  V30 3145 H 305.395 -0.719071 -0.161572 0
M  V30 3146 H 308.037 -1.87896 0.282007 0
M  V30 3147 H 306.187 -3.56914 -1.53442 0
M  V30 3148 H 307.859 -4.5256 0.893733 0
M  V30 3149 H 306.102 -4.24181 0.908436 0
M  V30 3150 H 306.773 -5.51889 -0.11053 0
M  V30 3151 H 309.249 -3.96767 -1.25359 0
M  V30 3152 H 308.125 -5.08301 -2.07174 0
M  V30 3153 H 308.386 -3.47616 -2.73158 0
M  V30 3154 N 307.445 0.0818655 -1.57387 0
M  V30 3155 C 308.393 1.11712 -2.04018 0
M  V30 3156 C 309.387 1.40683 -0.94364 0
M  V30 3157 O 310.593 1.40209 -1.12878 0
M  V30 3158 H 306.968 0.377542 -0.650358 0
M  V30 3159 H 308.939 0.697614 -2.90131 0
M  V30 3160 C 307.688 2.42537 -2.49141 0
M  V30 3161 H 307.011 2.21092 -3.33104 0
M  V30 3162 H 308.451 3.13446 -2.85531 0
M  V30 3163 C 306.91 3.0778 -1.37014 0
M  V30 3164 O 307.44 3.95436 -0.706621 0
M  V30 3165 N 305.646 2.68242 -1.11779 0
M  V30 3166 H 305.193 1.97052 -1.65917 0
M  V30 3167 H 305.151 3.1222 -0.369594 0
M  V30 3168 N 308.923 1.53595 0.353017 0
M  V30 3169 C 310.334 1.61937 0.929153 0
M  V30 3170 C 310.685 0.494686 1.89861 0
M  V30 3171 O 309.81 -0.377017 2.1309 0
M  V30 3172 C 310.405 2.93526 1.69199 0
M  V30 3173 C 308.964 3.04161 2.21727 0
M  V30 3174 C 308.111 2.57322 1.03348 0
M  V30 3175 H 311.062 1.58155 0.131431 0
M  V30 3176 H 311.083 2.82034 2.55416 0
M  V30 3177 H 310.595 3.75362 0.986144 0
M  V30 3178 H 308.696 2.26938 2.95516 0
M  V30 3179 H 308.809 4.09465 2.48748 0
M  V30 3180 H 307.173 2.12499 1.40414 0
M  V30 3181 H 307.956 3.41588 0.342428 0
M  V30 3182 N 310.401 -0.613514 1.45168 0
M  V30 3183 C 311.333 -1.73825 1.4939 0
M  V30 3184 C 312.346 -1.58175 0.385304 0
M  V30 3185 O 313.535 -1.66165 0.652036 0
M  V30 3186 C 310.635 -3.11758 1.32891 0
M  V30 3187 C 309.808 -3.53704 2.57317 0
M  V30 3188 C 308.867 -4.70579 2.35462 0
M  V30 3189 O 307.893 -4.77996 3.09044 0
M  V30 3190 N 309.095 -5.63454 1.39644 0
M  V30 3191 H 311.86 -1.70669 2.46358 0
M  V30 3192 H 309.421 -0.79862 1.40832 0
M  V30 3193 H 311.413 -3.87692 1.1609 0
M  V30 3194 H 309.983 -3.09456 0.442218 0
M  V30 3195 H 309.203 -2.67794 2.89275 0
M  V30 3196 H 310.491 -3.78486 3.40038 0
M  V30 3197 H 309.889 -5.6017 0.789062 0
M  V30 3198 H 308.446 -6.38944 1.28816 0
M  V30 3199 N 311.879 -1.3236 -0.855495 0
M  V30 3200 C 312.789 -1.23221 -1.99634 0
M  V30 3201 C 313.805 -0.145983 -1.73387 0
M  V30 3202 O 314.981 -0.366502 -1.98037 0
M  V30 3203 C 312.046 -0.954782 -3.33294 0
M  V30 3204 C 311.107 -2.12937 -3.72769 0
M  V30 3205 C 310.34 -1.86508 -5.00051 0
M  V30 3206 O 310.563 -0.807231 -5.64659 0
M  V30 3207 O 309.497 -2.72591 -5.36636 0
M  V30 3208 H 313.323 -2.19126 -2.1028 0
M  V30 3209 H 310.908 -1.12241 -0.986018 0
M  V30 3210 H 312.79 -0.816519 -4.13414 0
M  V30 3211 H 311.465 -0.0258854 -3.2369 0
M  V30 3212 H 310.372 -2.3231 -2.93228 0
M  V30 3213 H 311.705 -3.04102 -3.87018 0
M  V30 3214 N 313.357 1.07166 -1.15556 0
M  V30 3215 C 314.267 2.17947 -0.868116 0
M  V30 3216 C 315.283 1.73297 0.156297 0
M  V30 3217 O 316.459 2.01392 -0.0182327 0
M  V30 3218 C 313.524 3.44789 -0.36355 0
M  V30 3219 C 312.585 4.03996 -1.45209 0
M  V30 3220 C 311.818 5.24783 -0.971508 0
M  V30 3221 O 312.041 5.70109 0.182194 0
M  V30 3222 O 310.975 5.75715 -1.75603 0
M  V30 3223 H 314.801 2.4503 -1.79427 0
M  V30 3224 H 312.386 1.16539 -0.934824 0
M  V30 3225 H 314.268 4.21307 -0.0887113 0
M  V30 3226 H 312.943 3.19253 0.534708 0
M  V30 3227 H 311.85 3.29009 -1.78056 0
M  V30 3228 H 313.183 4.33808 -2.32533 0
M  V30 3229 N 314.835 0.952656 1.25548 0
M  V30 3230 C 316.06 0.623025 1.97821 0
M  V30 3231 C 316.485 -0.7976 1.70352 0
M  V30 3232 O 315.843 -1.53905 0.958283 0
M  V30 3233 C 315.891 0.885532 3.49558 0
M  V30 3234 O 314.995 -0.0366641 4.12384 0
M  V30 3235 H 314.336 0.237082 0.620232 0
M  V30 3236 H 316.866 1.27871 1.59719 0
M  V30 3237 H 316.876 0.811009 3.99858 0
M  V30 3238 H 315.551 1.92094 3.6888 0
M  V30 3239 H 314.128 0.0898954 3.72792 0
M  V30 3240 N 316.313 -1.40141 0.720998 0
M  V30 3241 C 317.543 -2.04798 0.27226 0
M  V30 3242 C 317.951 -1.54442 -1.09289 0
M  V30 3243 O 317.294 -0.698342 -1.69908 0
M  V30 3244 C 317.356 -3.59048 0.18027 0
M  V30 3245 C 317.02 -4.32317 1.48159 0
M  V30 3246 C 318.017 -4.59902 2.42458 0
M  V30 3247 C 315.702 -4.71125 1.74202 0
M  V30 3248 C 317.696 -5.25288 3.61042 0
M  V30 3249 C 315.383 -5.36242 2.93066 0
M  V30 3250 C 316.381 -5.63254 3.86308 0
M  V30 3251 O 316.069 -6.27024 5.03086 0
M  V30 3252 H 315.801 -0.665419 0.119139 0
M  V30 3253 H 318.355 -1.80436 0.981432 0
M  V30 3254 H 316.585 -3.82251 -0.58489 0
M  V30 3255 H 318.274 -4.05221 -0.234618 0
M  V30 3256 H 319.04 -4.30379 2.23604 0
M  V30 3257 H 314.919 -4.49466 1.02477 0
M  V30 3258 H 318.463 -5.46289 4.33837 0
M  V30 3259 H 314.36 -5.65185 3.11826 0
M  V30 3260 H 315.128 -6.4552 5.03235 0
M  V30 3261 N 317.792 -0.46758 -1.50504 0
M  V30 3262 C 318.724 0.364655 -2.26281 0
M  V30 3263 C 319.737 0.960151 -1.31472 0
M  V30 3264 O 320.926 0.849153 -1.57008 0
M  V30 3265 C 318.026 1.52509 -3.02645 0
M  V30 3266 C 317.199 1.04302 -4.24782 0
M  V30 3267 C 316.258 2.07709 -4.8347 0
M  V30 3268 O 315.284 1.65913 -5.44483 0
M  V30 3269 N 316.486 3.40485 -4.70159 0
M  V30 3270 H 319.251 -0.28495 -2.98342 0
M  V30 3271 H 316.812 -0.298163 -1.59131 0
M  V30 3272 H 318.804 2.21371 -3.38787 0
M  V30 3273 H 317.374 2.07945 -2.33404 0
M  V30 3274 H 316.594 0.180393 -3.93787 0
M  V30 3275 H 317.882 0.698798 -5.03978 0
M  V30 3276 H 317.28 3.77155 -4.21629 0
M  V30 3277 H 315.837 4.05156 -5.1058 0
M  V30 3278 N 319.27 1.56325 -0.20005 0
M  V30 3279 C 320.217 2.1932 0.718833 0
M  V30 3280 C 321.187 1.14198 1.20615 0
M  V30 3281 O 322.372 1.42469 1.26914 0
M  V30 3282 C 319.512 2.86041 1.93066 0
M  V30 3283 C 318.625 4.05702 1.48425 0
M  V30 3284 C 317.76 4.60266 2.65196 0
M  V30 3285 C 316.799 5.72273 2.17185 0
M  V30 3286 N 315.936 6.21221 3.27152 0
M  V30 3287 H 320.776 2.97486 0.17489 0
M  V30 3288 H 318.313 1.46911 0.0745794 0
M  V30 3289 H 320.271 3.22897 2.64184 0
M  V30 3290 H 318.901 2.1043 2.44783 0
M  V30 3291 H 317.953 3.74475 0.668755 0
M  V30 3292 H 319.265 4.86699 1.09204 0
M  V30 3293 H 318.419 4.99453 3.4443 0
M  V30 3294 H 317.158 3.78386 3.07693 0
M  V30 3295 H 316.163 5.3261 1.36407 0
M  V30 3296 H 317.388 6.55974 1.75713 0
M  V30 3297 H 315.334 5.42263 3.69171 0
M  V30 3298 H 315.251 6.97284 2.92116 0
M  V30 3299 H 316.519 6.65063 4.06585 0
M  V30 3300 N 320.748 -0.0735177 1.57428 0
M  V30 3301 C 321.678 -1.0879 2.06608 0
M  V30 3302 C 322.659 -1.40473 0.959237 0
M  V30 3303 O 323.844 -1.5013 1.23185 0
M  V30 3304 C 320.974 -2.40183 2.50857 0
M  V30 3305 C 319.928 -2.22858 3.65402 0
M  V30 3306 C 319.254 -3.59619 3.957 0
M  V30 3307 C 320.554 -1.65123 4.95511 0
M  V30 3308 H 322.248 -0.678673 2.91607 0
M  V30 3309 H 319.794 -0.325013 1.40284 0
M  V30 3310 H 321.747 -3.11437 2.83874 0
M  V30 3311 H 320.471 -2.83083 1.62885 0
M  V30 3312 H 319.13 -1.54045 3.32664 0
M  V30 3313 H 318.778 -4.00086 3.04861 0
M  V30 3314 H 318.478 -3.48866 4.72828 0
M  V30 3315 H 320.002 -4.32306 4.31212 0
M  V30 3316 H 321.416 -2.26241 5.26771 0
M  V30 3317 H 319.813 -1.65071 5.7695 0
M  V30 3318 H 320.883 -0.612559 4.81015 0
M  V30 3319 N 322.226 -1.5378 -0.344866 0
M  V30 3320 C 323.189 -1.80981 -1.40637 0
M  V30 3321 C 324.189 -0.680816 -1.45676 0
M  V30 3322 O 325.379 -0.949095 -1.46075 0
M  V30 3323 C 322.511 -1.95063 -2.79577 0
M  V30 3324 H 323.704 -2.75803 -1.17783 0
M  V30 3325 H 321.257 -1.45173 -0.579181 0
M  V30 3326 H 321.992 -1.02379 -3.07716 0
M  V30 3327 H 321.777 -2.77198 -2.77315 0
M  V30 3328 H 323.267 -2.17629 -3.56409 0
M  V30 3329 N 323.704 0.605807 -1.45491 0
M  V30 3330 C 324.637 1.73022 -1.48791 0
M  V30 3331 C 325.615 1.58917 -0.344112 0
M  V30 3332 O 326.799 1.80453 -0.544876 0
M  V30 3333 C 323.926 3.10865 -1.34463 0
M  V30 3334 C 322.972 3.43554 -2.5273 0
M  V30 3335 S 323.805 3.38196 -4.15191 0
M  V30 3336 C 324.961 4.78616 -4.03333 0
M  V30 3337 H 325.194 1.69961 -2.43928 0
M  V30 3338 H 322.727 0.782611 -1.33096 0
M  V30 3339 H 324.685 3.90398 -1.26884 0
M  V30 3340 H 323.346 3.1144 -0.40794 0
M  V30 3341 H 322.539 4.43924 -2.38637 0
M  V30 3342 H 322.141 2.71541 -2.5718 0
M  V30 3343 H 324.433 5.68463 -3.68587 0
M  V30 3344 H 325.376 4.97767 -5.03621 0
M  V30 3345 H 325.784 4.54381 -3.34959 0
M  V30 3346 N 325.182 1.32811 0.848464 0
M  V30 3347 C 326.092 1.24278 1.98978 0
M  V30 3348 C 327.108 0.155176 1.73307 0
M  V30 3349 O 328.284 0.376999 1.9784 0
M  V30 3350 C 325.349 0.972444 3.32783 0
M  V30 3351 C 324.41 2.14911 3.71634 0
M  V30 3352 C 323.643 1.89157 4.99054 0
M  V30 3353 O 323.866 0.837165 5.64223 0
M  V30 3354 O 322.8 2.75433 5.35183 0
M  V30 3355 H 326.626 2.20238 2.09115 0
M  V30 3356 H 324.211 1.12762 0.980052 0
M  V30 3357 H 326.093 0.838432 4.12975 0
M  V30 3358 H 324.768 0.043051 3.23671 0
M  V30 3359 H 323.675 2.33862 2.91992 0
M  V30 3360 H 325.008 3.06151 3.85399 0
M  V30 3361 N 326.66 -1.06551 1.16123 0
M  V30 3362 C 327.888 -1.83005 0.965237 0
M  V30 3363 C 328.303 -1.82423 -0.486542 0
M  V30 3364 O 327.66 -1.24152 -1.33763 0
M  V30 3365 C 327.711 -3.29733 1.48183 0
M  V30 3366 O 327.432 -3.30416 2.87674 0
M  V30 3367 C 328.933 -4.22926 1.32848 0
M  V30 3368 H 326.153 -0.577118 0.342309 0
M  V30 3369 H 328.697 -1.3445 1.54089 0
M  V30 3370 H 326.852 -3.75609 0.948517 0
M  V30 3371 H 327.266 -4.22149 3.11272 0
M  V30 3372 H 328.74 -5.23916 1.73827 0
M  V30 3373 H 329.217 -4.38346 0.273692 0
M  V30 3374 H 329.823 -3.82894 1.85127 0
M  V30 3375 N 328.138 -0.959301 -1.25041 0
M  V30 3376 C 329.068 -0.501388 -2.28053 0
M  V30 3377 C 330.049 0.454673 -1.63911 0
M  V30 3378 O 331.234 0.352618 -1.90972 0
M  V30 3379 C 328.364 0.217224 -3.4662 0
M  V30 3380 C 327.318 -0.654034 -4.22973 0
M  V30 3381 C 326.644 0.195589 -5.34342 0
M  V30 3382 C 327.944 -1.93447 -4.85155 0
M  V30 3383 H 329.638 -1.36238 -2.66608 0
M  V30 3384 H 327.184 -0.656534 -1.28163 0
M  V30 3385 H 329.137 0.548732 -4.17812 0
M  V30 3386 H 327.861 1.1125 -3.07068 0
M  V30 3387 H 326.52 -0.968693 -3.5357 0
M  V30 3388 H 326.168 1.09076 -4.91031 0
M  V30 3389 H 325.868 -0.384091 -5.86343 0
M  V30 3390 H 327.392 0.521958 -6.08365 0
M  V30 3391 H 328.806 -1.66908 -5.48466 0
M  V30 3392 H 327.203 -2.46018 -5.47353 0
M  V30 3393 H 328.273 -2.63466 -4.07079 0
M  V30 3394 N 329.616 1.39756 -0.72842 0
M  V30 3395 C 330.526 2.34444 -0.0855374 0
M  V30 3396 C 331.542 1.57976 0.729356 0
M  V30 3397 O 332.718 1.90301 0.659346 0
M  V30 3398 C 329.783 3.36965 0.815798 0
M  V30 3399 C 328.844 4.29299 -0.0105996 0
M  V30 3400 C 328.077 5.26923 0.84781 0
M  V30 3401 O 328.3 5.30859 2.08673 0
M  V30 3402 O 327.234 6.01249 0.279969 0
M  V30 3403 H 331.06 2.91065 -0.866892 0
M  V30 3404 H 328.645 1.4117 -0.48902 0
M  V30 3405 H 330.527 3.99804 1.33171 0
M  V30 3406 H 329.202 2.82739 1.57608 0
M  V30 3407 H 328.109 3.69703 -0.571877 0
M  V30 3408 H 329.442 4.86712 -0.73295 0
M  V30 3409 N 331.094 0.475555 1.50254 0
M  V30 3410 C 332.004 -0.321501 2.32387 0
M  V30 3411 C 333.02 -0.991755 1.42969 0
M  V30 3412 O 334.196 -0.978747 1.76018 0
M  V30 3413 C 331.261 -1.38667 3.17762 0
M  V30 3414 C 330.322 -0.732538 4.23004 0
M  V30 3415 C 329.555 -1.74695 5.04299 0
M  V30 3416 O 329.778 -2.97399 4.86734 0
M  V30 3417 O 328.712 -1.31631 5.8733 0
M  V30 3418 H 332.538 0.350071 3.01676 0
M  V30 3419 H 330.123 0.237321 1.47503 0
M  V30 3420 H 332.005 -2.00354 3.70724 0
M  V30 3421 H 330.68 -2.04163 2.51196 0
M  V30 3422 H 329.587 -0.0765902 3.74022 0
M  V30 3423 H 330.92 -0.120452 4.92053 0
M  V30 3424 N 332.573 -1.56217 0.208337 0
M  V30 3425 C 333.503 -2.22694 -0.702116 0
M  V30 3426 C 334.484 -1.19432 -1.2112 0
M  V30 3427 O 335.669 -1.47978 -1.25762 0
M  V30 3428 C 332.799 -2.8966 -1.9161 0
M  V30 3429 C 331.753 -3.9928 -1.5414 0
M  V30 3430 C 331.079 -4.53476 -2.83308 0
M  V30 3431 C 332.379 -5.17012 -0.741339 0
M  V30 3432 H 334.073 -2.99034 -0.147898 0
M  V30 3433 H 331.619 -1.43831 -0.0696951 0
M  V30 3434 H 333.572 -3.34852 -2.55836 0
M  V30 3435 H 332.296 -2.10746 -2.49507 0
M  V30 3436 H 330.955 -3.54799 -0.922668 0
M  V30 3437 H 330.603 -3.71308 -3.39322 0
M  V30 3438 H 330.303 -5.27451 -2.58976 0
M  V30 3439 H 331.827 -5.01378 -3.485 0
M  V30 3440 H 333.241 -5.58667 -1.28699 0
M  V30 3441 H 331.638 -5.97137 -0.595627 0
M  V30 3442 H 332.708 -4.8423 0.254851 0
M  V30 3443 N 334.051 0.0651679 -1.57465 0
M  V30 3444 C 335.328 0.79644 -1.78651 0
M  V30 3445 C 335.708 1.95454 -0.797566 0
M  V30 3446 O 335.056 2.27882 0.167946 0
M  V30 3447 C 335.266 1.26322 -3.25337 0
M  V30 3448 C 336.614 1.6939 -3.89348 0
M  V30 3449 O 337.638 1.35872 -3.29268 0
M  V30 3450 O 336.497 2.31471 -4.95059 0
M  V30 3451 H 333.591 0.382157 -0.733407 0
M  V30 3452 H 336.137 0.0447311 -1.69641 0
M  V30 3453 H 334.909 0.434859 -3.88876 0
M  V30 3454 H 334.532 2.07604 -3.39096 0
M  V30 3455 N 335.529 1.53961 0.336706 0
M  V30 3456 C 336.775 1.7273 1.07406 0
M  V30 3457 C 337.13 0.488095 1.86106 0
M  V30 3458 O 336.423 -0.519379 1.84426 0
M  V30 3459 C 336.617 2.93493 2.03953 0
M  V30 3460 C 336.446 4.29039 1.34744 0
M  V30 3461 C 335.216 4.93416 1.08942 0
M  V30 3462 C 337.414 5.08501 0.770115 0
M  V30 3463 N 335.396 6.12821 0.363864 0
M  V30 3464 C 336.767 6.19752 0.175472 0
M  V30 3465 C 338.822 4.93349 0.671633 0
M  V30 3466 C 337.525 7.17503 -0.508081 0
M  V30 3467 C 339.551 5.914 0.0018076 0
M  V30 3468 C 338.913 7.01993 -0.581835 0
M  V30 3469 H 335.012 0.685026 0.377177 0
M  V30 3470 H 337.596 1.91403 0.356815 0
M  V30 3471 H 335.767 2.76308 2.72962 0
M  V30 3472 H 337.499 3.00949 2.70577 0
M  V30 3473 H 334.254 4.53099 1.37833 0
M  V30 3474 H 334.678 6.76998 0.0156092 0
M  V30 3475 H 339.32 4.08007 1.1086 0
M  V30 3476 H 337.038 8.02414 -0.956918 0
M  V30 3477 H 340.624 5.81753 -0.0738538 0
M  V30 3478 H 339.504 7.76561 -1.09192 0
M  V30 3479 N 337.007 -0.598083 1.45811 0
M  V30 3480 C 338.247 -1.36802 1.5187 0
M  V30 3481 C 338.611 -1.9133 0.160224 0
M  V30 3482 O 339.812 -2.6863 0.0955302 0
M  V30 3483 C 338.083 -2.47835 2.57513 0
M  V30 3484 S 339.642 -3.35458 2.82866 0
M  V30 3485 H 336.46 -0.466278 0.536755 0
M  V30 3486 H 339.062 -0.689152 1.82951 0
M  V30 3487 H 337.766 -2.06141 3.54872 0
M  V30 3488 H 337.297 -3.20512 2.28114 0
M  V30 3489 H 339.312 -4.46251 2.16967 0
M  V30 3490 N 338.485 -1.33259 -0.841409 0
M  V30 3491 C 339.415 -1.25926 -1.96634 0
M  V30 3492 C 340.396 -0.140349 -1.6952 0
M  V30 3493 O 341.581 -0.329707 -1.91381 0
M  V30 3494 C 338.711 -0.99512 -3.32738 0
M  V30 3495 C 337.665 -2.0767 -3.74242 0
M  V30 3496 C 336.991 -1.66474 -5.08125 0
M  V30 3497 C 338.291 -3.49318 -3.88297 0
M  V30 3498 H 339.985 -2.20046 -2.03027 0
M  V30 3499 H 337.531 -1.05931 -0.975425 0
M  V30 3500 H 339.484 -0.930323 -4.11002 0
M  V30 3501 H 338.208 -0.0183004 -3.26595 0
M  V30 3502 H 336.867 -2.13187 -2.98239 0
M  V30 3503 H 336.515 -0.675012 -4.9845 0
M  V30 3504 H 336.215 -2.3885 -5.36865 0
M  V30 3505 H 337.739 -1.61455 -5.88867 0
M  V30 3506 H 339.153 -3.46316 -4.56879 0
M  V30 3507 H 337.55 -4.20158 -4.28471 0
M  V30 3508 H 338.62 -3.8801 -2.9082 0
M  V30 3509 N 339.963 1.05934 -1.16686 0
M  V30 3510 C 341.24 1.75643 -0.860747 0
M  V30 3511 C 341.62 2.01144 0.640641 0
M  V30 3512 O 340.968 1.64147 1.58959 0
M  V30 3513 C 341.178 3.05493 -1.68745 0
M  V30 3514 C 342.526 3.79581 -1.90271 0
M  V30 3515 O 343.55 3.15344 -1.65641 0
M  V30 3516 O 342.409 4.9499 -2.31618 0
M  V30 3517 H 339.503 0.763426 -0.317977 0
M  V30 3518 H 342.049 1.1217 -1.27342 0
M  V30 3519 H 340.821 2.8264 -2.70611 0
M  V30 3520 H 340.444 3.76702 -1.27206 0
M  V30 3521 N 341.441 0.965919 1.2453 0
M  V30 3522 C 342.373 0.452465 2.2469 0
M  V30 3523 C 343.386 -0.437821 1.56802 0
M  V30 3524 O 344.575 -0.244283 1.76821 0
M  V30 3525 C 341.675 -0.366258 3.36915 0
M  V30 3526 C 340.848 0.513701 4.34373 0
M  V30 3527 C 339.907 -0.248716 5.25612 0
M  V30 3528 O 338.933 0.356745 5.68081 0
M  V30 3529 N 340.135 -1.53877 5.59734 0
M  V30 3530 H 342.9 1.31361 2.69378 0
M  V30 3531 H 340.461 0.837541 1.38553 0
M  V30 3532 H 342.453 -0.884297 3.94921 0
M  V30 3533 H 341.023 -1.12832 2.91526 0
M  V30 3534 H 340.243 1.21273 3.75082 0
M  V30 3535 H 341.531 1.11391 4.96457 0
M  V30 3536 H 340.929 -2.05243 5.27154 0
M  V30 3537 H 339.486 -2.00254 6.20275 0
M  V30 3538 N 342.919 -1.39368 0.735821 0
M  V30 3539 C 343.849 -2.33234 0.111506 0
M  V30 3540 C 344.83 -1.53954 -0.723334 0
M  V30 3541 O 346.015 -1.82344 -0.668147 0
M  V30 3542 C 343.145 -3.38057 -0.795917 0
M  V30 3543 C 342.099 -4.2795 -0.065172 0
M  V30 3544 C 341.425 -5.23479 -1.08967 0
M  V30 3545 C 342.725 -5.10741 1.09273 0
M  V30 3546 H 344.419 -2.85692 0.895571 0
M  V30 3547 H 341.965 -1.37364 0.432109 0
M  V30 3548 H 343.918 -4.02675 -1.24221 0
M  V30 3549 H 342.642 -2.8404 -1.61211 0
M  V30 3550 H 341.301 -3.64813 0.361511 0
M  V30 3551 H 340.949 -4.65758 -1.89944 0
M  V30 3552 H 340.649 -5.84472 -0.605489 0
M  V30 3553 H 342.173 -5.90974 -1.53565 0
M  V30 3554 H 343.587 -5.68699 0.724841 0
M  V30 3555 H 341.984 -5.8088 1.50659 0
M  V30 3556 H 343.054 -4.45525 1.91404 0
M  V30 3557 N 344.397 -0.483516 -1.5 0
M  V30 3558 C 345.307 0.309172 -2.32554 0
M  V30 3559 C 346.323 0.984159 -1.43493 0
M  V30 3560 O 347.499 0.969399 -1.76535 0
M  V30 3561 C 344.564 1.36979 -3.18493 0
M  V30 3562 C 343.625 0.710095 -4.23387 0
M  V30 3563 C 342.858 1.72018 -5.05218 0
M  V30 3564 O 343.081 2.94813 -4.88305 0
M  V30 3565 O 342.015 1.28515 -5.8802 0
M  V30 3566 H 345.841 -0.366064 -3.01486 0
M  V30 3567 H 343.426 -0.24514 -1.47375 0
M  V30 3568 H 345.308 1.98385 -3.71781 0
M  V30 3569 H 343.983 2.02828 -2.52275 0
M  V30 3570 H 342.89 0.0567539 -3.74057 0
M  V30 3571 H 344.223 0.0943557 -4.9211 0
M  V30 3572 N 345.875 1.56104 -0.216619 0
M  V30 3573 C 347.103 2.02563 0.421413 0
M  V30 3574 C 347.518 1.0965 1.53695 0
M  V30 3575 O 346.875 0.10521 1.82196 0
M  V30 3576 C 346.926 3.48584 0.957665 0
M  V30 3577 O 346.647 4.37953 -0.113389 0
M  V30 3578 C 348.148 4.10664 1.66943 0
M  V30 3579 H 345.368 0.662944 0.103665 0
M  V30 3580 H 347.912 2.01793 -0.331629 0
M  V30 3581 H 346.067 3.49985 1.661 0
M  V30 3582 H 346.481 5.23704 0.288932 0
M  V30 3583 H 347.955 5.14622 1.99671 0
M  V30 3584 H 348.432 3.55373 2.58083 0
M  V30 3585 H 349.038 4.13098 1.01142 0
M  V30 3586 N 347.353 -0.0568162 1.57498 0
M  V30 3587 C 348.602 -0.752001 1.87157 0
M  V30 3588 C 348.915 -1.77978 0.811375 0
M  V30 3589 O 350.121 -2.52559 0.996293 0
M  V30 3590 C 348.577 -1.38844 3.3204 0
M  V30 3591 C 348.185 -0.398456 4.46225 0
M  V30 3592 C 349.929 -2.06512 3.70882 0
M  V30 3593 C 347.836 -1.04166 5.82154 0
M  V30 3594 H 346.766 -0.28461 0.698222 0
M  V30 3595 H 349.417 -0.00561272 1.83499 0
M  V30 3596 H 347.799 -2.1836 3.30356 0
M  V30 3597 H 348.973 0.367977 4.59328 0
M  V30 3598 H 347.288 0.174592 4.16034 0
M  V30 3599 H 349.885 -2.55437 4.6974 0
M  V30 3600 H 350.228 -2.87117 3.01445 0
M  V30 3601 H 350.761 -1.33808 3.7462 0
M  V30 3602 H 347.5 -0.275614 6.5492 0
M  V30 3603 H 347.02 -1.7786 5.72823 0
M  V30 3604 H 348.699 -1.55715 6.27982 0
M  V30 3605 N 348.832 -1.54138 -0.328536 0
M  V30 3606 C 349.764 -1.79509 -1.4251 0
M  V30 3607 C 350.777 -0.67688 -1.48061 0
M  V30 3608 O 351.966 -0.953898 -1.50874 0
M  V30 3609 C 349.066 -1.89337 -2.81078 0
M  V30 3610 C 348.239 -3.19443 -2.98789 0
M  V30 3611 C 347.298 -3.20036 -4.17688 0
M  V30 3612 O 346.324 -3.93697 -4.11086 0
M  V30 3613 N 347.526 -2.43467 -5.26976 0
M  V30 3614 H 350.291 -2.74139 -1.21111 0
M  V30 3615 H 347.852 -1.53373 -0.518499 0
M  V30 3616 H 349.844 -1.87167 -3.58818 0
M  V30 3617 H 348.414 -1.01826 -2.95551 0
M  V30 3618 H 347.634 -3.34614 -2.08391 0
M  V30 3619 H 348.922 -4.05354 -3.07515 0
M  V30 3620 H 348.32 -1.83201 -5.35214 0
M  V30 3621 H 346.877 -2.4708 -6.03154 0
M  V30 3622 N 350.31 0.590341 -1.46126 0
M  V30 3623 C 351.538 1.37504 -1.54597 0
M  V30 3624 C 351.953 1.87897 -0.184447 0
M  V30 3625 O 351.31 1.63192 0.816984 0
M  V30 3626 C 351.361 2.56779 -2.54454 0
M  V30 3627 O 351.082 2.08476 -3.85317 0
M  V30 3628 C 352.583 3.49427 -2.72792 0
M  V30 3629 H 349.803 0.420325 -0.523037 0
M  V30 3630 H 352.347 0.718383 -1.91467 0
M  V30 3631 H 350.502 3.1845 -2.20609 0
M  V30 3632 H 350.916 2.86097 -4.396 0
M  V30 3633 H 352.39 4.29619 -3.466 0
M  V30 3634 H 352.867 4.00876 -1.79429 0
M  V30 3635 H 353.473 2.93598 -3.07702 0
M  V30 3636 N 351.788 1.33704 0.83433 0
M  V30 3637 C 353.018 1.28281 1.6195 0
M  V30 3638 C 353.426 -0.147603 1.88623 0
M  V30 3639 O 352.769 -1.1016 1.47005 0
M  V30 3640 C 352.831 1.99386 2.99141 0
M  V30 3641 C 352.495 3.48681 2.95416 0
M  V30 3642 C 353.492 4.438 2.70809 0
M  V30 3643 C 351.177 3.90925 3.15409 0
M  V30 3644 C 353.171 5.79138 2.66229 0
M  V30 3645 C 350.858 5.26366 3.10454 0
M  V30 3646 C 351.856 6.20284 2.85895 0
M  V30 3647 O 351.544 7.53245 2.80852 0
M  V30 3648 H 351.276 0.44315 0.510484 0
M  V30 3649 H 353.83 1.76711 1.04702 0
M  V30 3650 H 352.06 1.45554 3.58261 0
M  V30 3651 H 353.749 1.87403 3.60049 0
M  V30 3652 H 354.515 4.12485 2.5511 0
M  V30 3653 H 350.394 3.18229 3.33543 0
M  V30 3654 H 353.938 6.52416 2.4698 0
M  V30 3655 H 349.835 5.57304 3.25703 0
M  V30 3656 H 350.603 7.62846 2.96661 0
M  V30 3657 N 353.266 -1.05314 1.17247 0
M  V30 3658 C 354.682 -1.30452 0.919473 0
M  V30 3659 C 354.882 -1.9703 -0.42209 0
M  V30 3660 O 353.938 -2.24311 -1.15935 0
M  V30 3661 C 355.251 -2.17551 2.07586 0
M  V30 3662 C 356.799 -2.30937 2.11275 0
M  V30 3663 C 357.274 -3.21396 3.26296 0
M  V30 3664 N 358.765 -3.28981 3.26076 0
M  V30 3665 C 359.5 -3.99095 4.11716 0
M  V30 3666 N 358.996 -4.71648 5.07465 0
M  V30 3667 N 360.789 -3.95247 3.9967 0
M  V30 3668 H 352.94 -0.604988 2.03602 0
M  V30 3669 H 355.203 -0.329368 0.888944 0
M  V30 3670 H 354.909 -1.75921 3.0454 0
M  V30 3671 H 354.783 -3.18182 2.02584 0
M  V30 3672 H 357.17 -2.71809 1.14907 0
M  V30 3673 H 357.251 -1.2994 2.20339 0
M  V30 3674 H 356.895 -2.81238 4.22927 0
M  V30 3675 H 356.825 -4.22395 3.14467 0
M  V30 3676 H 359.316 -2.77286 2.5675 0
M  V30 3677 H 359.629 -5.22705 5.6921 0
M  V30 3678 H 357.974 -4.70594 5.11435 0
M  V30 3679 H 361.165 -3.37691 3.24164 0
M  V30 3680 H 361.338 -4.4962 4.66632 0
M  V30 3681 N 354.744 -0.972509 -1.24016 0
M  V30 3682 C 355.969 -0.654417 -1.96805 0
M  V30 3683 C 356.394 0.770398 -1.716 0
M  V30 3684 O 355.752 1.52361 -0.982647 0
M  V30 3685 C 355.8 -0.941031 -3.48105 0
M  V30 3686 O 354.904 -0.0289472 -4.1239 0
M  V30 3687 H 354.245 -0.24692 -0.616382 0
M  V30 3688 H 356.775 -1.30396 -1.57664 0
M  V30 3689 H 356.785 -0.87452 -3.98517 0
M  V30 3690 H 355.46 -1.97939 -3.65777 0
M  V30 3691 H 354.037 -0.149192 -3.72601 0
M  V30 3692 N 356.222 1.38976 -0.743202 0
M  V30 3693 C 357.468 2.0064 -0.295189 0
M  V30 3694 C 357.801 1.5885 1.11716 0
M  V30 3695 O 357.076 0.821181 1.76315 0
M  V30 3696 C 357.359 3.578 -0.406318 0
M  V30 3697 C 357.212 4.09586 -1.85903 0
M  V30 3698 C 358.531 4.39616 0.206439 0
M  V30 3699 H 355.65 0.728935 -0.108733 0
M  V30 3700 H 358.292 1.65067 -0.940897 0
M  V30 3701 H 356.442 3.88235 0.143419 0
M  V30 3702 H 358.114 3.89837 -2.46627 0
M  V30 3703 H 356.357 3.6284 -2.3776 0
M  V30 3704 H 357.028 5.18708 -1.888 0
M  V30 3705 H 359.504 4.15273 -0.262283 0
M  V30 3706 H 358.38 5.48812 0.0983819 0
M  V30 3707 H 358.641 4.22754 1.2935 0
M  V30 3708 N 357.7 0.491464 1.49741 0
M  V30 3709 C 358.925 -0.0557177 2.07325 0
M  V30 3710 C 359.35 -1.30925 1.35056 0
M  V30 3711 O 358.708 -1.76733 0.404365 0
M  V30 3712 C 358.756 -0.302074 3.59333 0
M  V30 3713 O 357.86 -1.37868 3.88672 0
M  V30 3714 H 357.201 0.0219956 0.663636 0
M  V30 3715 H 359.731 0.688352 1.92673 0
M  V30 3716 H 359.741 -0.536464 4.04458 0
M  V30 3717 H 358.416 0.61383 4.11345 0
M  V30 3718 H 356.993 -1.12999 3.55367 0
M  V30 3719 N 359.178 -1.55987 0.224894 0
M  V30 3720 C 360.088 -2.24066 -0.69511 0
M  V30 3721 C 361.104 -1.24939 -1.21104 0
M  V30 3722 O 362.28 -1.5776 -1.25195 0
M  V30 3723 C 359.345 -2.90983 -1.88493 0
M  V30 3724 C 358.406 -4.05462 -1.41064 0
M  V30 3725 C 357.639 -4.69179 -2.54375 0
M  V30 3726 O 357.862 -4.31895 -3.72589 0
M  V30 3727 O 356.796 -5.58108 -2.25386 0
M  V30 3728 H 360.622 -3.03353 -0.145149 0
M  V30 3729 H 358.207 -1.49399 -0.00569476 0
M  V30 3730 H 360.089 -3.33209 -2.57972 0
M  V30 3731 H 358.764 -2.14653 -2.42293 0
M  V30 3732 H 357.671 -3.67798 -0.683774 0
M  V30 3733 H 359.004 -4.83545 -0.918985 0
M  V30 3734 N 360.656 0.0484629 -1.57525 0
M  V30 3735 C 361.589 1.08755 -2.00618 0
M  V30 3736 C 362.567 1.36272 -0.887058 0
M  V30 3737 O 363.751 1.49255 -1.15131 0
M  V30 3738 C 360.878 2.42675 -2.36277 0
M  V30 3739 C 359.924 2.31142 -3.58435 0
M  V30 3740 S 360.757 1.68326 -5.08357 0
M  V30 3741 C 361.913 3.03776 -5.47239 0
M  V30 3742 H 362.146 0.720415 -2.88439 0
M  V30 3743 H 359.679 0.257801 -1.52233 0
M  V30 3744 H 361.637 3.19699 -2.57494 0
M  V30 3745 H 360.298 2.76541 -1.48942 0
M  V30 3746 H 359.491 3.29957 -3.80978 0
M  V30 3747 H 359.093 1.62258 -3.36969 0
M  V30 3748 H 361.385 4.00106 -5.46737 0
M  V30 3749 H 362.328 2.85988 -6.47778 0
M  V30 3750 H 362.736 3.05456 -4.74718 0
M  V30 3751 N 362.134 1.5431 0.320358 0
M  V30 3752 C 363.097 1.83195 1.3774 0
M  V30 3753 C 364.097 0.703906 1.44575 0
M  V30 3754 O 365.287 0.972214 1.44546 0
M  V30 3755 C 362.419 1.99487 2.76438 0
M  V30 3756 H 363.612 2.77642 1.1338 0
M  V30 3757 H 361.165 1.46076 0.556012 0
M  V30 3758 H 361.9 1.07262 3.06048 0
M  V30 3759 H 361.685 2.81575 2.7287 0
M  V30 3760 H 363.175 2.23271 3.52902 0
M  V30 3761 N 363.613 -0.582584 1.46437 0
M  V30 3762 C 364.838 -1.37168 1.55563 0
M  V30 3763 C 365.263 -1.87061 0.19743 0
M  V30 3764 O 364.621 -1.61572 -0.822451 0
M  V30 3765 C 364.669 -2.53511 2.56446 0
M  V30 3766 O 363.773 -3.54953 2.09958 0
M  V30 3767 H 363.114 -0.408494 0.523477 0
M  V30 3768 H 365.644 -0.706646 1.9201 0
M  V30 3769 H 365.654 -3.00426 2.76058 0
M  V30 3770 H 364.329 -2.16549 3.55076 0
M  V30 3771 H 362.906 -3.14516 2.00334 0
M  V30 3772 N 365.091 -1.34144 -0.827227 0
M  V30 3773 C 366.039 -1.25364 -1.95925 0
M  V30 3774 C 367.033 -0.152608 -1.68711 0
M  V30 3775 O 368.239 -0.317311 -1.77181 0
M  V30 3776 H 364.614 -0.389342 -0.643364 0
M  V30 3777 H 366.585 -2.21045 -2.00454 0
M  V30 3778 C 365.334 -1.02158 -3.32354 0
M  V30 3779 H 364.657 -1.86111 -3.5384 0
M  V30 3780 H 366.097 -1.00048 -4.12027 0
M  V30 3781 C 364.556 0.275244 -3.35774 0
M  V30 3782 O 365.086 1.27806 -3.80826 0
M  V30 3783 N 363.292 0.306853 -2.88975 0
M  V30 3784 H 362.839 -0.509777 -2.52506 0
M  V30 3785 H 362.797 1.17432 -2.91646 0
M  V30 3786 N 366.569 1.04691 -1.17803 0
M  V30 3787 C 367.516 2.12557 -0.899343 0
M  V30 3788 C 368.486 1.65339 0.158771 0
M  V30 3789 O 369.671 1.90789 0.0204797 0
M  V30 3790 C 366.811 3.42481 -0.424315 0
M  V30 3791 C 365.924 4.03346 -1.54713 0
M  V30 3792 C 365.059 5.21208 -1.02546 0
M  V30 3793 C 364.098 5.74089 -2.12339 0
M  V30 3794 N 363.235 6.83247 -1.61612 0
M  V30 3795 H 368.075 2.35734 -1.823 0
M  V30 3796 H 365.612 1.1564 -0.909159 0
M  V30 3797 H 367.57 4.16996 -0.130421 0
M  V30 3798 H 366.2 3.19471 0.462377 0
M  V30 3799 H 365.252 3.2622 -1.95664 0
M  V30 3800 H 366.564 4.38628 -2.37501 0
M  V30 3801 H 365.718 6.02812 -0.685718 0
M  V30 3802 H 364.457 4.87414 -0.167084 0
M  V30 3803 H 363.462 4.91111 -2.47165 0
M  V30 3804 H 364.687 6.0993 -2.98601 0
M  V30 3805 H 362.633 6.5134 -0.780533 0
M  V30 3806 H 362.55 7.17559 -2.38003 0
M  V30 3807 H 363.818 7.68491 -1.30545 0
M  V30 3808 N 368.047 0.979072 1.23499 0
M  V30 3809 C 369.294 0.647219 1.91878 0
M  V30 3810 C 369.622 -0.819074 1.76413 0
M  V30 3811 O 368.877 -1.60616 1.11808 0
M  V30 3812 C 369.176 0.981932 3.43646 0
M  V30 3813 C 368.842 2.43822 3.79291 0
M  V30 3814 C 367.504 2.83622 3.88731 0
M  V30 3815 C 369.856 3.3828 3.96505 0
M  V30 3816 C 367.184 4.16897 4.12812 0
M  V30 3817 C 369.536 4.71197 4.22085 0
M  V30 3818 C 368.2 5.10758 4.29747 0
M  V30 3819 H 367.47 0.236834 0.702133 0
M  V30 3820 H 370.117 1.23268 1.46551 0
M  V30 3821 H 368.422 0.314365 3.90537 0
M  V30 3822 H 370.119 0.703395 3.94783 0
M  V30 3823 H 366.709 2.11966 3.72516 0
M  V30 3824 H 370.893 3.0871 3.88603 0
M  V30 3825 H 366.149 4.47157 4.16966 0
M  V30 3826 H 370.323 5.44348 4.34348 0
M  V30 3827 H 367.95 6.1405 4.48159 0
M  V30 3828 N 369.525 -1.3858 0.750561 0
M  V30 3829 C 370.472 -2.30483 0.120835 0
M  V30 3830 C 371.442 -1.50022 -0.712923 0
M  V30 3831 O 372.627 -1.78662 -0.669676 0
M  V30 3832 C 369.767 -3.36431 -0.768666 0
M  V30 3833 C 368.88 -4.31927 0.0793922 0
M  V30 3834 C 368.015 -5.24944 -0.81283 0
M  V30 3835 C 367.054 -6.12088 0.0390447 0
M  V30 3836 N 366.191 -6.97412 -0.809969 0
M  V30 3837 H 371.031 -2.83761 0.91015 0
M  V30 3838 H 368.568 -1.39707 0.460463 0
M  V30 3839 H 370.526 -3.96462 -1.29898 0
M  V30 3840 H 369.156 -2.8457 -1.5238 0
M  V30 3841 H 368.208 -3.73382 0.727303 0
M  V30 3842 H 369.52 -4.93319 0.737401 0
M  V30 3843 H 368.674 -5.90078 -1.41042 0
M  V30 3844 H 367.413 -4.63911 -1.50458 0
M  V30 3845 H 366.418 -5.45952 0.649328 0
M  V30 3846 H 367.643 -6.75189 0.727809 0
M  V30 3847 H 365.589 -6.38931 -1.48672 0
M  V30 3848 H 365.506 -7.55712 -0.208789 0
M  V30 3849 H 366.774 -7.66959 -1.39263 0
M  V30 3850 N 371.003 -0.499398 -1.49478 0
M  V30 3851 C 372.419 -0.155261 -1.58843 0
M  V30 3852 C 372.619 1.34008 -1.50479 0
M  V30 3853 O 371.675 2.11589 -1.37791 0
M  V30 3854 C 372.988 -0.730636 -2.91689 0
M  V30 3855 C 374.536 -0.696599 -3.0515 0
M  V30 3856 C 375.011 -1.25001 -4.40612 0
M  V30 3857 N 376.502 -1.21064 -4.47099 0
M  V30 3858 C 377.237 -1.60905 -5.50361 0
M  V30 3859 N 376.733 -2.08331 -6.60735 0
M  V30 3860 N 378.526 -1.52331 -5.41065 0
M  V30 3861 H 370.677 -1.47162 -1.53158 0
M  V30 3862 H 372.94 -0.610309 -0.725415 0
M  V30 3863 H 372.646 -1.77928 -3.03372 0
M  V30 3864 H 372.52 -0.190161 -3.7672 0
M  V30 3865 H 374.907 0.343204 -2.93097 0
M  V30 3866 H 374.988 -1.2742 -2.21806 0
M  V30 3867 H 374.632 -2.28859 -4.53416 0
M  V30 3868 H 374.562 -0.64836 -5.22593 0
M  V30 3869 H 377.053 -0.863128 -3.67911 0
M  V30 3870 H 377.366 -2.36805 -7.35624 0
M  V30 3871 H 375.711 -2.12304 -6.6178 0
M  V30 3872 H 378.902 -1.151 -4.53729 0
M  V30 3873 H 379.075 -1.83704 -6.21415 0
M  V30 3874 N 372.481 1.55866 -0.233164 0
M  V30 3875 C 373.414 2.16794 0.712442 0
M  V30 3876 C 374.392 1.1158 1.18273 0
M  V30 3877 O 375.576 1.39897 1.26337 0
M  V30 3878 C 372.703 2.75757 1.96661 0
M  V30 3879 C 371.749 3.93902 1.63533 0
M  V30 3880 S 372.582 5.30223 0.74995 0
M  V30 3881 C 373.738 5.92631 2.01343 0
M  V30 3882 H 373.971 2.96662 0.194617 0
M  V30 3883 H 371.504 1.5439 -0.0177425 0
M  V30 3884 H 373.462 3.10367 2.68668 0
M  V30 3885 H 372.123 1.9586 2.45556 0
M  V30 3886 H 371.316 4.33702 2.56747 0
M  V30 3887 H 370.918 3.60499 0.995804 0
M  V30 3888 H 373.21 6.09312 2.96219 0
M  V30 3889 H 374.153 6.88388 1.65915 0
M  V30 3890 H 374.561 5.21571 2.15925 0
M  V30 3891 N 373.959 -0.0401083 1.57549 0
M  V30 3892 C 374.889 -1.04384 2.08869 0
M  V30 3893 C 375.87 -1.38407 0.988817 0
M  V30 3894 O 377.055 -1.47483 1.26342 0
M  V30 3895 C 374.185 -2.34808 2.55895 0
M  V30 3896 C 373.139 -2.15057 3.70047 0
M  V30 3897 C 372.465 -3.51145 4.03239 0
M  V30 3898 C 373.765 -1.54576 4.98902 0
M  V30 3899 H 375.459 -0.616666 2.92981 0
M  V30 3900 H 373.005 -0.295184 1.40942 0
M  V30 3901 H 374.958 -3.05346 2.90417 0
M  V30 3902 H 373.682 -2.79565 1.68853 0
M  V30 3903 H 372.341 -1.46954 3.35857 0
M  V30 3904 H 371.989 -3.93529 3.13279 0
M  V30 3905 H 371.689 -3.38758 4.80122 0
M  V30 3906 H 373.213 -4.23062 4.40285 0
M  V30 3907 H 374.627 -2.15017 5.31451 0
M  V30 3908 H 373.024 -1.52796 5.80322 0
M  V30 3909 H 374.094 -0.51039 4.82206 0
M  V30 3910 N 375.437 -1.54477 -0.31217 0
M  V30 3911 C 376.385 -1.85395 -1.40469 0
M  V30 3912 C 377.379 -0.726749 -1.53019 0
M  V30 3913 O 378.585 -0.910582 -1.55269 0
M  V30 3914 H 374.96 -0.587845 -0.46898 0
M  V30 3915 H 376.931 -2.76736 -1.11623 0
M  V30 3916 C 375.68 -2.10811 -2.76503 0
M  V30 3917 H 375.003 -2.97014 -2.67625 0
M  V30 3918 H 376.443 -2.3639 -3.51988 0
M  V30 3919 C 374.902 -0.903165 -3.24568 0
M  V30 3920 O 375.432 -0.118085 -4.01526 0
M  V30 3921 N 373.638 -0.711634 -2.81752 0
M  V30 3922 H 373.185 -1.35171 -2.19286 0
M  V30 3923 H 373.143 0.0930473 -3.14262 0
M  V30 3924 N 376.915 0.57481 -1.46744 0
M  V30 3925 C 378.331 0.898981 -1.31873 0
M  V30 3926 C 378.531 1.99313 -0.29605 0
M  V30 3927 O 377.587 2.50728 0.298621 0
M  V30 3928 C 378.9 1.30886 -2.7072 0
M  V30 3929 C 380.448 1.42127 -2.78871 0
M  V30 3930 C 380.923 1.86478 -4.18318 0
M  V30 3931 N 382.414 1.93658 -4.20774 0
M  V30 3932 C 383.149 2.29267 -5.2557 0
M  V30 3933 N 382.645 2.63612 -6.40688 0
M  V30 3934 N 384.438 2.29889 -5.1294 0
M  V30 3935 H 376.589 -0.147839 -2.11885 0
M  V30 3936 H 378.852 -0.00347013 -0.947994 0
M  V30 3937 H 378.558 0.578853 -3.46904 0
M  V30 3938 H 378.432 2.26874 -3.01343 0
M  V30 3939 H 380.819 2.14213 -2.0297 0
M  V30 3940 H 380.9 0.443705 -2.51922 0
M  V30 3941 H 380.544 1.14968 -4.94717 0
M  V30 3942 H 380.474 2.85207 -4.42679 0
M  V30 3943 H 382.965 1.69574 -3.37718 0
M  V30 3944 H 383.278 2.89759 -7.16421 0
M  V30 3945 H 381.623 2.61232 -6.44036 0
M  V30 3946 H 384.814 2.02485 -4.22039 0
M  V30 3947 H 384.987 2.57312 -5.94722 0
M  V30 3948 N 378.394 1.34581 0.820102 0
M  V30 3949 C 379.304 1.28471 1.96297 0
M  V30 3950 C 380.32 0.191902 1.72939 0
M  V30 3951 O 381.496 0.418879 1.96996 0
M  V30 3952 C 378.561 1.04281 3.30645 0
M  V30 3953 C 377.622 2.22745 3.66992 0
M  V30 3954 C 376.855 1.997 4.9493 0
M  V30 3955 O 377.078 0.956656 5.6232 0
M  V30 3956 O 376.012 2.86723 5.2922 0
M  V30 3957 H 379.838 2.24624 2.04396 0
M  V30 3958 H 377.423 1.14816 0.955913 0
M  V30 3959 H 379.305 0.925841 4.11104 0
M  V30 3960 H 377.98 0.111697 3.23507 0
M  V30 3961 H 376.887 2.40003 2.86966 0
M  V30 3962 H 378.22 3.14257 3.78819 0
M  V30 3963 N 379.872 -1.04064 1.18357 0
M  V30 3964 C 380.802 -2.14001 0.934113 0
M  V30 3965 C 381.783 -1.69616 -0.128186 0
M  V30 3966 O 382.968 -1.94185 0.0244093 0
M  V30 3967 C 380.098 -3.44253 0.459066 0
M  V30 3968 C 379.052 -4.02261 1.46185 0
M  V30 3969 C 378.378 -5.27992 0.844322 0
M  V30 3970 C 379.678 -4.38432 2.83856 0
M  V30 3971 H 381.372 -2.35127 1.85352 0
M  V30 3972 H 378.918 -1.12998 0.892604 0
M  V30 3973 H 380.871 -4.20522 0.271907 0
M  V30 3974 H 379.595 -3.22813 -0.495912 0
M  V30 3975 H 378.254 -3.28074 1.63595 0
M  V30 3976 H 377.902 -5.02862 -0.117845 0
M  V30 3977 H 377.602 -5.67765 1.51384 0
M  V30 3978 H 379.126 -6.06938 0.667693 0
M  V30 3979 H 380.54 -5.05688 2.70098 0
M  V30 3980 H 378.937 -4.89254 3.47491 0
M  V30 3981 H 380.007 -3.4826 3.37406 0
M  V30 3982 N 381.35 -0.985608 -1.22978 0
M  V30 3983 C 382.578 -0.675582 -1.95559 0
M  V30 3984 C 382.993 0.758413 -1.72897 0
M  V30 3985 O 382.35 1.51094 -1.02357 0
M  V30 3986 C 382.401 -0.96293 -3.48439 0
M  V30 3987 O 382.122 -2.34057 -3.70336 0
M  V30 3988 C 383.623 -0.669585 -4.38214 0
M  V30 3989 H 380.843 -0.250523 -0.622478 0
M  V30 3990 H 383.387 -1.3184 -1.56328 0
M  V30 3991 H 381.542 -0.366033 -3.85667 0
M  V30 3992 H 381.956 -2.43424 -4.64591 0
M  V30 3993 H 383.43 -0.920967 -5.44263 0
M  V30 3994 H 383.907 0.396383 -4.37408 0
M  V30 3995 H 384.513 -1.2472 -4.06602 0
M  V30 3996 N 382.828 1.3818 -0.7579 0
M  V30 3997 C 383.778 2.27741 -0.108674 0
M  V30 3998 C 384.762 1.45415 0.688709 0
M  V30 3999 O 385.954 1.68108 0.553956 0
M  V30 4000 C 383.083 3.34313 0.780367 0
M  V30 4001 C 382.169 4.24093 -0.0240977 0
M  V30 4002 N 382.56 4.9451 -1.06271 0
M  V30 4003 C 380.858 4.45542 0.202049 0
M  V30 4004 C 381.559 5.60675 -1.54979 0
M  V30 4005 N 380.535 5.36684 -0.864348 0
M  V30 4006 H 384.337 2.79649 -0.904071 0
M  V30 4007 H 381.851 1.51133 -0.594346 0
M  V30 4008 H 383.848 3.97368 1.26114 0
M  V30 4009 H 382.508 2.83962 1.57467 0
M  V30 4010 H 383.519 4.97345 -1.44459 0
M  V30 4011 H 380.196 4.06091 0.96935 0
M  V30 4012 H 381.586 6.26992 -2.41517 0
M  V30 4013 N 384.306 0.507319 1.49211 0
M  V30 4014 C 385.236 -0.256939 2.32082 0
M  V30 4015 C 386.217 -0.956609 1.40652 0
M  V30 4016 O 387.402 -0.946788 1.69557 0
M  V30 4017 C 384.532 -1.31802 3.21318 0
M  V30 4018 C 383.486 -0.737855 4.21592 0
M  V30 4019 C 382.812 -1.89992 4.99807 0
M  V30 4020 C 384.112 0.275325 5.21574 0
M  V30 4021 H 385.806 0.434798 2.96226 0
M  V30 4022 H 383.352 0.210546 1.42452 0
M  V30 4023 H 385.305 -1.86045 3.78107 0
M  V30 4024 H 384.029 -2.03903 2.5513 0
M  V30 4025 H 382.688 -0.217126 3.65956 0
M  V30 4026 H 382.336 -2.60877 4.30061 0
M  V30 4027 H 382.036 -1.51777 5.6766 0
M  V30 4028 H 383.56 -2.44657 5.59442 0
M  V30 4029 H 384.974 -0.179193 5.7302 0
M  V30 4030 H 383.371 0.573649 5.97352 0
M  V30 4031 H 384.441 1.18903 4.70096 0
M  V30 4032 N 385.784 -1.5574 0.241426 0
M  V30 4033 C 387.009 -2.0366 -0.392111 0
M  V30 4034 C 387.434 -1.11969 -1.51144 0
M  V30 4035 O 386.792 -0.111594 -1.80956 0
M  V30 4036 C 386.84 -3.49638 -0.882371 0
M  V30 4037 O 385.944 -3.6108 -1.99235 0
M  V30 4038 H 385.285 -0.658379 -0.0862122 0
M  V30 4039 H 387.815 -2.01302 0.365881 0
M  V30 4040 H 387.825 -3.90351 -1.18702 0
M  V30 4041 H 386.5 -4.15852 -0.0632361 0
M  V30 4042 H 385.077 -3.32262 -1.69282 0
M  V30 4043 N 387.262 0.0317525 -1.57568 0
M  V30 4044 C 388.172 1.05021 -2.0978 0
M  V30 4045 C 389.188 1.39809 -1.03583 0
M  V30 4046 O 390.364 1.49182 -1.35302 0
M  V30 4047 C 387.429 2.33301 -2.56459 0
M  V30 4048 C 386.49 2.0512 -3.77127 0
M  V30 4049 C 385.723 3.27283 -4.2157 0
M  V30 4050 O 385.946 4.37861 -3.65559 0
M  V30 4051 O 384.88 3.13141 -5.14029 0
M  V30 4052 H 388.706 0.636505 -2.96955 0
M  V30 4053 H 386.291 0.248559 -1.47318 0
M  V30 4054 H 388.173 3.08722 -2.86825 0
M  V30 4055 H 386.848 2.73973 -1.72397 0
M  V30 4056 H 385.755 1.27276 -3.51784 0
M  V30 4057 H 387.088 1.69305 -4.62165 0
M  V30 4058 N 388.74 1.54641 0.303973 0
M  V30 4059 C 389.673 1.80263 1.3993 0
M  V30 4060 C 390.651 0.653657 1.48883 0
M  V30 4061 O 391.835 0.893284 1.6599 0
M  V30 4062 C 388.962 1.9367 2.77866 0
M  V30 4063 C 388.008 3.16078 2.86351 0
M  V30 4064 S 388.841 4.74219 2.4875 0
M  V30 4065 C 389.997 4.90558 3.88721 0
M  V30 4066 H 390.23 2.72886 1.17986 0
M  V30 4067 H 387.763 1.46014 0.501918 0
M  V30 4068 H 389.721 2.0208 3.57315 0
M  V30 4069 H 388.382 1.01991 2.9708 0
M  V30 4070 H 387.575 3.22252 3.87517 0
M  V30 4071 H 387.177 3.06099 2.14893 0
M  V30 4072 H 389.469 4.74398 4.83687 0
M  V30 4073 H 390.412 5.92651 3.87518 0
M  V30 4074 H 390.82 4.18728 3.78585 0
M  V30 4075 N 390.218 -0.567019 1.47046 0
M  V30 4076 C 391.443 -1.3551 1.57009 0
M  V30 4077 C 391.868 -1.86841 0.217259 0
M  V30 4078 O 391.226 -1.62435 -0.805268 0
M  V30 4079 C 391.274 -2.50777 2.5912 0
M  V30 4080 O 390.378 -3.52706 2.13711 0
M  V30 4081 H 389.719 -0.402919 0.52778 0
M  V30 4082 H 392.249 -0.686241 1.92748 0
M  V30 4083 H 392.259 -2.97481 2.79229 0
M  V30 4084 H 390.934 -2.12771 3.57353 0
M  V30 4085 H 389.511 -3.12374 2.03659 0
M  V30 4086 N 391.696 -1.35014 -0.812953 0
M  V30 4087 C 393.112 -1.14914 -1.10757 0
M  V30 4088 C 393.312 0.0426818 -2.01455 0
M  V30 4089 O 392.368 0.715212 -2.42159 0
M  V30 4090 C 393.681 -2.44911 -1.74468 0
M  V30 4091 C 395.229 -2.5106 -1.86917 0
M  V30 4092 C 395.704 -3.81085 -2.54044 0
M  V30 4093 N 397.195 -3.82301 -2.61535 0
M  V30 4094 C 397.93 -4.79634 -3.14227 0
M  V30 4095 N 397.426 -5.87353 -3.67407 0
M  V30 4096 N 399.219 -4.67078 -3.12721 0
M  V30 4097 H 391.37 -2.1136 -0.20989 0
M  V30 4098 H 393.633 -0.935128 -0.155692 0
M  V30 4099 H 393.339 -3.32267 -1.15289 0
M  V30 4100 H 393.213 -2.58989 -2.74234 0
M  V30 4101 H 395.6 -1.64137 -2.45241 0
M  V30 4102 H 395.681 -2.40901 -0.860242 0
M  V30 4103 H 395.325 -4.68402 -1.96372 0
M  V30 4104 H 395.255 -3.88529 -3.55461 0
M  V30 4105 H 397.746 -3.04465 -2.23851 0
M  V30 4106 H 398.059 -6.57624 -4.05894 0
M  V30 4107 H 396.404 -5.91054 -3.65623 0
M  V30 4108 H 399.595 -3.82067 -2.70449 0
M  V30 4109 H 399.768 -5.43098 -3.53481 0
M  V30 4110 N 393.175 1.03435 -1.18907 0
M  V30 4111 C 394.4 1.80919 -1.01406 0
M  V30 4112 C 394.825 1.83055 0.432721 0
M  V30 4113 O 394.183 1.25252 1.31079 0
M  V30 4114 C 394.231 3.24091 -1.58105 0
M  V30 4115 O 393.335 4.04434 -0.806669 0
M  V30 4116 H 392.676 0.558709 -0.358803 0
M  V30 4117 H 395.206 1.30223 -1.57807 0
M  V30 4118 H 395.216 3.74853 -1.61087 0
M  V30 4119 H 393.891 3.21851 -2.6341 0
M  V30 4120 H 392.468 3.63091 -0.849666 0
M  V30 4121 N 394.653 0.992116 1.22453 0
M  V30 4122 C 395.901 0.666215 1.90804 0
M  V30 4123 C 396.222 -0.804152 1.77647 0
M  V30 4124 O 395.492 -1.57629 1.16318 0
M  V30 4125 H 394.072 0.243423 0.706225 0
M  V30 4126 H 396.734 1.25845 1.48825 0
M  V30 4127 H 395.83 0.928069 2.97982 0
M  V30 4128 N 396.131 -1.37776 0.765217 0
M  V30 4129 C 397.079 -2.32209 0.134798 0
M  V30 4130 C 398.073 -1.54607 -0.692315 0
M  V30 4131 O 399.279 -1.70052 -0.590109 0
M  V30 4132 H 395.654 -0.751591 0.0248005 0
M  V30 4133 H 397.625 -2.8297 0.947119 0
M  V30 4134 C 396.374 -3.39841 -0.735063 0
M  V30 4135 H 395.697 -3.99654 -0.107991 0
M  V30 4136 H 397.137 -4.08296 -1.14326 0
M  V30 4137 C 395.596 -2.79378 -1.88281 0
M  V30 4138 O 396.126 -2.69608 -2.97783 0
M  V30 4139 N 394.332 -2.37016 -1.68142 0
M  V30 4140 H 393.879 -2.45162 -0.790772 0
M  V30 4141 H 393.837 -1.96905 -2.45104 0
M  V30 4142 N 397.609 -0.515225 -1.4894 0
M  V30 4143 C 398.541 0.292481 -2.27326 0
M  V30 4144 C 399.554 0.917838 -1.3446 0
M  V30 4145 O 400.743 0.798772 -1.5963 0
M  V30 4146 C 397.843 1.42803 -3.07344 0
M  V30 4147 C 397.016 0.907347 -4.27885 0
M  V30 4148 C 396.075 1.92222 -4.89834 0
M  V30 4149 O 395.101 1.48506 -5.49486 0
M  V30 4150 N 396.303 3.25355 -4.80754 0
M  V30 4151 H 399.068 -0.379721 -2.97285 0
M  V30 4152 H 396.629 -0.348638 -1.58102 0
M  V30 4153 H 398.621 2.10481 -3.45658 0
M  V30 4154 H 397.191 2.00414 -2.39902 0
M  V30 4155 H 396.411 0.0550218 -3.94162 0
M  V30 4156 H 397.699 0.538108 -5.05946 0
M  V30 4157 H 397.097 3.6355 -4.33414 0
M  V30 4158 H 395.654 3.88707 -5.23211 0
M  V30 4159 N 399.087 1.5561 -0.249682 0
M  V30 4160 C 400.333 1.99306 0.374841 0
M  V30 4161 C 400.666 1.13767 1.57387 0
M  V30 4162 O 399.941 0.201711 1.93451 0
M  V30 4163 C 400.224 3.51507 0.781986 0
M  V30 4164 C 400.077 4.4781 -0.422629 0
M  V30 4165 C 401.396 4.08884 1.62793 0
M  V30 4166 H 398.515 0.724572 0.134773 0
M  V30 4167 H 401.157 1.86719 -0.351549 0
M  V30 4168 H 399.307 3.62363 1.4009 0
M  V30 4169 H 400.979 4.48931 -1.06108 0
M  V30 4170 H 399.222 4.20518 -1.06524 0
M  V30 4171 H 399.893 5.51919 -0.0943766 0
M  V30 4172 H 402.369 4.01147 1.10547 0
M  V30 4173 H 401.245 5.1564 1.88166 0
M  V30 4174 H 401.506 3.57515 2.60068 0
M  V30 4175 N 400.565 -0.0233959 1.57583 0
M  V30 4176 C 401.79 -0.728376 1.94189 0
M  V30 4177 C 402.215 -1.67793 0.850119 0
M  V30 4178 O 401.573 -1.80262 -0.19371 0
M  V30 4179 C 401.621 -1.45669 3.29868 0
M  V30 4180 O 400.725 -2.57013 3.22518 0
M  V30 4181 H 400.066 -0.195493 0.63457 0
M  V30 4182 H 402.596 0.0228214 2.04587 0
M  V30 4183 H 402.606 -1.82535 3.6489 0
M  V30 4184 H 401.281 -0.760314 4.08891 0
M  V30 4185 H 399.858 -2.22648 2.99136 0
M  V30 4186 N 402.043 -1.548 -0.295768 0
M  V30 4187 C 402.953 -1.89177 -1.38742 0
M  V30 4188 C 403.969 -0.786481 -1.55211 0
M  V30 4189 O 405.145 -1.08344 -1.69775 0
M  V30 4190 C 402.21 -2.13663 -2.73036 0
M  V30 4191 C 401.271 -3.37349 -2.65508 0
M  V30 4192 C 400.504 -3.60658 -3.93398 0
M  V30 4193 O 400.727 -2.86882 -4.93006 0
M  V30 4194 O 399.661 -4.54179 -3.94975 0
M  V30 4195 H 403.487 -2.82059 -1.12589 0
M  V30 4196 H 401.072 -1.41056 -0.492295 0
M  V30 4197 H 402.954 -2.3094 -3.52484 0
M  V30 4198 H 401.629 -1.23967 -2.99022 0
M  V30 4199 H 400.536 -3.25431 -1.84514 0
M  V30 4200 H 401.869 -4.27192 -2.44474 0
M  V30 4201 N 403.521 0.559213 -1.47345 0
M  V30 4202 C 404.751 1.33999 -1.57251 0
M  V30 4203 C 405.159 1.87905 -0.220978 0
M  V30 4204 O 404.502 1.65577 0.795617 0
M  V30 4205 C 404.564 2.54798 -2.53611 0
M  V30 4206 C 404.228 2.22192 -3.99349 0
M  V30 4207 C 405.225 1.79607 -4.87891 0
M  V30 4208 C 402.91 2.33613 -4.44669 0
M  V30 4209 C 404.904 1.48868 -6.19772 0
M  V30 4210 C 402.591 2.02487 -5.76578 0
M  V30 4211 C 403.589 1.60183 -6.63951 0
M  V30 4212 O 403.277 1.29451 -7.93409 0
M  V30 4213 H 403.009 0.414858 -0.533731 0
M  V30 4214 H 405.563 0.684465 -1.9366 0
M  V30 4215 H 403.793 3.23235 -2.12265 0
M  V30 4216 H 405.482 3.16873 -2.53666 0
M  V30 4217 H 406.248 1.70278 -4.54126 0
M  V30 4218 H 402.127 2.65501 -3.76869 0
M  V30 4219 H 405.671 1.15775 -6.87926 0
M  V30 4220 H 401.568 2.11448 -6.09885 0
M  V30 4221 H 402.336 1.43098 -8.05894 0
M  V30 4222 N 404.999 1.35443 0.805782 0
M  V30 4223 C 406.248 1.28097 1.55801 0
M  V30 4224 C 406.561 -0.142428 1.95081 0
M  V30 4225 O 407.767 -0.33817 2.69386 0
M  V30 4226 C 406.223 2.24653 2.81174 0
M  V30 4227 C 405.831 3.72342 2.49129 0
M  V30 4228 C 407.575 2.2625 3.59181 0
M  V30 4229 C 405.482 4.60719 3.70799 0
M  V30 4230 H 404.412 0.475937 0.584808 0
M  V30 4231 H 407.063 1.60712 0.885661 0
M  V30 4232 H 405.445 1.85011 3.50124 0
M  V30 4233 H 406.619 4.20624 1.88181 0
M  V30 4234 H 404.934 3.73361 1.84366 0
M  V30 4235 H 407.531 2.89495 4.49552 0
M  V30 4236 H 407.874 1.26647 3.96568 0
M  V30 4237 H 408.407 2.64426 2.97193 0
M  V30 4238 H 405.146 5.61324 3.3852 0
M  V30 4239 H 404.666 4.17163 4.3097 0
M  V30 4240 H 406.345 4.76182 4.38018 0
M  V30 4241 N 406.477 -1.02803 1.19454 0
M  V30 4242 C 407.702 -1.80378 1.02364 0
M  V30 4243 C 408.127 -1.83282 -0.423007 0
M  V30 4244 O 407.485 -1.25945 -1.30413 0
M  V30 4245 C 407.533 -3.23248 1.59821 0
M  V30 4246 O 406.637 -4.04 0.828105 0
M  V30 4247 H 405.978 -0.556799 0.361761 0
M  V30 4248 H 408.508 -1.29385 1.58495 0
M  V30 4249 H 408.518 -3.73994 1.63073 0
M  V30 4250 H 407.193 -3.2045 2.65113 0
M  V30 4251 H 405.77 -3.62635 0.86891 0
M  V30 4252 N 407.956 -0.998596 -1.21925 0
M  V30 4253 C 408.904 -0.546641 -2.26085 0
M  V30 4254 C 409.898 0.405576 -1.64473 0
M  V30 4255 O 411.104 0.277471 -1.77849 0
M  V30 4256 H 407.479 -0.158403 -0.735127 0
M  V30 4257 H 409.45 -1.43645 -2.61551 0
M  V30 4258 C 408.199 0.117388 -3.47502 0
M  V30 4259 H 407.522 -0.606277 -3.95176 0
M  V30 4260 H 408.962 0.396993 -4.22137 0
M  V30 4261 C 407.421 1.35455 -3.0847 0
M  V30 4262 O 407.951 2.44944 -3.18379 0
M  V30 4263 N 406.157 1.23191 -2.63196 0
M  V30 4264 H 405.704 0.341006 -2.55333 0
M  V30 4265 H 405.662 2.06071 -2.37449 0
M  V30 4266 N 409.434 1.37368 -0.772513 0
M  V30 4267 C 410.662 2.03942 -0.348588 0
M  V30 4268 C 411.077 1.58264 1.02947 0
M  V30 4269 O 410.434 0.764246 1.65727 0
M  V30 4270 C 410.485 3.5946 -0.38351 0
M  V30 4271 O 410.206 4.03468 -1.70721 0
M  V30 4272 C 411.707 4.4327 0.0519152 0
M  V30 4273 H 408.927 0.654931 -0.145966 0
M  V30 4274 H 411.471 1.75686 -1.04665 0
M  V30 4275 H 409.626 3.86486 0.265978 0
M  V30 4276 H 410.04 4.97991 -1.64636 0
M  V30 4277 H 411.514 5.51995 -0.0236733 0
M  V30 4278 H 411.991 4.2514 1.10238 0
M  V30 4279 H 412.597 4.21471 -0.569415 0
M  V30 4280 N 410.912 0.523116 1.48665 0
M  V30 4281 C 412.159 -0.0134763 2.02496 0
M  V30 4282 C 412.487 -1.3493 1.40086 0
M  V30 4283 O 411.742 -1.88286 0.533567 0
M  V30 4284 C 412.041 -0.191671 3.56886 0
M  V30 4285 C 411.707 1.06893 4.38046 0
M  V30 4286 C 410.369 1.41443 4.59943 0
M  V30 4287 C 412.721 1.90584 4.85106 0
M  V30 4288 C 410.049 2.59594 5.26144 0
M  V30 4289 C 412.401 3.07907 5.52609 0
M  V30 4290 C 411.065 3.42811 5.72745 0
M  V30 4291 H 410.335 -0.00493133 0.740984 0
M  V30 4292 H 412.982 0.687751 1.78724 0
M  V30 4293 H 411.287 -0.97561 3.79459 0
M  V30 4294 H 412.984 -0.621659 3.96152 0
M  V30 4295 H 409.574 0.789848 4.21259 0
M  V30 4296 H 413.758 1.65203 4.67997 0
M  V30 4297 H 409.014 2.86847 5.39934 0
M  V30 4298 H 413.188 3.73066 5.88043 0
M  V30 4299 H 410.815 4.34462 6.23816 0
M  V30 4300 N 412.39 -1.55475 0.257931 0
M  V30 4301 C 413.32 -2.24815 -0.630912 0
M  V30 4302 C 414.301 -1.23224 -1.17259 0
M  V30 4303 O 415.486 -1.51904 -1.20991 0
M  V30 4304 C 412.616 -2.95609 -1.82298 0
M  V30 4305 C 411.57 -4.03982 -1.41359 0
M  V30 4306 C 410.896 -4.6226 -2.68738 0
M  V30 4307 C 412.196 -5.19109 -0.57648 0
M  V30 4308 H 413.89 -2.99354 -0.0526878 0
M  V30 4309 H 411.436 -1.4398 -0.023901 0
M  V30 4310 H 413.389 -3.42822 -2.45054 0
M  V30 4311 H 412.113 -2.18577 -2.42676 0
M  V30 4312 H 410.772 -3.57555 -0.809324 0
M  V30 4313 H 410.42 -3.81915 -3.27338 0
M  V30 4314 H 410.12 -5.35424 -2.42065 0
M  V30 4315 H 411.644 -5.12212 -3.32372 0
M  V30 4316 H 413.058 -5.62479 -1.10861 0
M  V30 4317 H 411.455 -5.98729 -0.405351 0
M  V30 4318 H 412.525 -4.83174 0.408776 0
M  V30 4319 N 413.868 0.0150385 -1.57593 0
M  V30 4320 C 415.145 0.7392 -1.81094 0
M  V30 4321 C 415.525 1.92817 -0.859344 0
M  V30 4322 O 414.873 2.28301 0.095362 0
M  V30 4323 C 415.083 1.15907 -3.29191 0
M  V30 4324 C 416.431 1.56918 -3.9454 0
M  V30 4325 O 417.455 1.25328 -3.33424 0
M  V30 4326 O 416.314 2.15604 -5.02173 0
M  V30 4327 H 413.408 0.358631 -0.745193 0
M  V30 4328 H 415.954 -0.00926156 -1.69697 0
M  V30 4329 H 414.726 0.310921 -3.90063 0
M  V30 4330 H 414.349 1.96711 -3.45529 0
M  V30 4331 N 415.346 1.54954 0.287554 0
M  V30 4332 C 416.293 1.86834 1.35505 0
M  V30 4333 C 417.263 0.718452 1.49758 0
M  V30 4334 O 418.448 0.968358 1.644 0
M  V30 4335 C 415.588 2.13303 2.71286 0
M  V30 4336 C 414.701 3.40883 2.65373 0
M  V30 4337 C 413.836 3.57125 3.93236 0
M  V30 4338 C 412.875 4.78449 3.81776 0
M  V30 4339 N 412.012 4.91426 5.01443 0
M  V30 4340 H 416.852 2.77889 1.07619 0
M  V30 4341 H 414.389 1.37593 0.520241 0
M  V30 4342 H 416.347 2.26646 3.50267 0
M  V30 4343 H 414.977 1.25499 2.97405 0
M  V30 4344 H 414.029 3.36088 1.78182 0
M  V30 4345 H 415.341 4.29993 2.52799 0
M  V30 4346 H 414.495 3.70207 4.80658 0
M  V30 4347 H 413.234 2.66173 4.0866 0
M  V30 4348 H 412.239 4.65386 2.92738 0
M  V30 4349 H 413.464 5.70822 3.67884 0
M  V30 4350 H 411.41 4.03401 5.17304 0
M  V30 4351 H 411.327 5.74559 4.91343 0
M  V30 4352 H 412.595 5.08879 5.90477 0
M  V30 4353 N 416.824 -0.551391 1.4764 0
M  V30 4354 C 417.756 -1.67333 1.56628 0
M  V30 4355 C 418.769 -1.56398 0.452045 0
M  V30 4356 O 419.958 -1.6325 0.721926 0
M  V30 4357 C 417.058 -3.05841 1.45994 0
M  V30 4358 C 416.231 -3.42472 2.72088 0
M  V30 4359 C 415.29 -4.60168 2.55209 0
M  V30 4360 O 414.316 -4.64458 3.2904 0
M  V30 4361 N 415.518 -5.57024 1.63416 0
M  V30 4362 H 418.283 -1.60066 2.53375 0
M  V30 4363 H 415.844 -0.738169 1.44093 0
M  V30 4364 H 417.836 -3.8242 1.32428 0
M  V30 4365 H 416.406 -3.07302 0.573071 0
M  V30 4366 H 415.626 -2.55284 3.00373 0
M  V30 4367 H 416.914 -3.63723 3.55785 0
M  V30 4368 H 416.312 -5.56319 1.02594 0
M  V30 4369 H 414.869 -6.32906 1.558 0
M  V30 4370 N 418.302 -1.35869 -0.798587 0
M  V30 4371 C 419.25 -1.29491 -1.93222 0
M  V30 4372 C 420.244 -0.18836 -1.6835 0
M  V30 4373 O 421.45 -0.354822 -1.76468 0
M  V30 4374 H 417.825 -0.402901 -0.63496 0
M  V30 4375 H 419.796 -2.25247 -1.9572 0
M  V30 4376 C 418.545 -1.09184 -3.30112 0
M  V30 4377 H 417.868 -1.93574 -3.49813 0
M  V30 4378 H 419.308 -1.08766 -4.09812 0
M  V30 4379 C 417.767 0.203959 -3.36282 0
M  V30 4380 O 418.297 1.19699 -3.83451 0
M  V30 4381 N 416.503 0.245488 -2.89561 0
M  V30 4382 H 416.05 -0.563223 -2.51367 0
M  V30 4383 H 416.008 1.11219 -2.94071 0
M  V30 4384 N 419.78 1.02168 -1.19998 0
M  V30 4385 C 421.057 1.72816 -0.916191 0
M  V30 4386 C 421.437 2.03081 0.576325 0
M  V30 4387 O 420.785 1.69122 1.53656 0
M  V30 4388 C 420.995 2.9997 -1.78378 0
M  V30 4389 C 422.343 3.73336 -2.02251 0
M  V30 4390 O 423.367 3.09914 -1.75589 0
M  V30 4391 O 422.226 4.87371 -2.47249 0
M  V30 4392 H 419.32 0.752924 -0.342103 0
M  V30 4393 H 421.866 1.08062 -1.30846 0
M  V30 4394 H 420.638 2.73888 -2.79466 0
M  V30 4395 H 420.261 3.72464 -1.39126 0
M  V30 4396 N 421.258 1.00505 1.21394 0
M  V30 4397 C 422.504 0.688793 1.90745 0
M  V30 4398 C 422.837 -0.778486 1.77914 0
M  V30 4399 O 422.112 -1.56433 1.15581 0
M  V30 4400 C 422.395 1.11063 3.42545 0
M  V30 4401 C 422.248 2.63737 3.64367 0
M  V30 4402 C 423.567 0.673059 4.34923 0
M  V30 4403 H 420.686 0.251702 0.692687 0
M  V30 4404 H 423.328 1.25074 1.43026 0
M  V30 4405 H 421.478 0.632508 3.83317 0
M  V30 4406 H 423.15 3.19313 3.32922 0
M  V30 4407 H 421.393 3.05248 3.08231 0
M  V30 4408 H 422.064 2.88305 4.70727 0
M  V30 4409 H 424.54 1.08392 4.01734 0
M  V30 4410 H 423.416 0.996383 5.39781 0
M  V30 4411 H 423.677 -0.425808 4.40045 0
M  V30 4412 N 422.737 -1.36956 0.779787 0
M  V30 4413 C 423.647 -2.33965 0.172491 0
M  V30 4414 C 424.663 -1.60574 -0.670222 0
M  V30 4415 O 425.839 -1.92617 -0.588263 0
M  V30 4416 C 422.904 -3.39761 -0.690173 0
M  V30 4417 C 421.965 -4.28964 0.169924 0
M  V30 4418 C 421.198 -5.29707 -0.651662 0
M  V30 4419 O 421.421 -5.38238 -1.88827 0
M  V30 4420 O 420.355 -6.01873 -0.0566264 0
M  V30 4421 H 424.181 -2.87647 0.974321 0
M  V30 4422 H 421.766 -1.39258 0.541078 0
M  V30 4423 H 423.648 -4.04471 -1.1824 0
M  V30 4424 H 422.323 -2.88394 -1.47006 0
M  V30 4425 H 421.23 -3.67326 0.708696 0
M  V30 4426 H 422.563 -4.83656 0.913085 0
M  V30 4427 N 424.215 -0.530993 -1.48385 0
M  V30 4428 C 425.464 0.00474348 -2.01699 0
M  V30 4429 C 425.777 1.35227 -1.41325 0
M  V30 4430 O 426.983 1.97643 -1.86144 0
M  V30 4431 C 425.439 0.0588473 -3.59852 0
M  V30 4432 C 425.047 -1.28385 -4.2921 0
M  V30 4433 C 426.791 0.543358 -4.21008 0
M  V30 4434 C 424.698 -1.19028 -5.79298 0
M  V30 4435 H 423.628 0.00554317 -0.75398 0
M  V30 4436 H 426.279 -0.674924 -1.70637 0
M  V30 4437 H 424.661 0.803612 -3.8776 0
M  V30 4438 H 425.835 -2.04426 -4.12973 0
M  V30 4439 H 424.15 -1.70418 -3.7993 0
M  V30 4440 H 426.747 0.631351 -5.3096 0
M  V30 4441 H 427.09 1.54937 -3.86394 0
M  V30 4442 H 427.623 -0.145754 -3.97533 0
M  V30 4443 H 424.362 -2.17147 -6.18488 0
M  V30 4444 H 423.882 -0.471246 -5.97946 0
M  V30 4445 H 425.561 -0.881365 -6.40969 0
M  V30 4446 N 425.693 1.55336 -0.266172 0
M  V30 4447 C 427.104 1.85236 0.233315 0
M  V30 4448 C 427.455 1.18816 1.56132 0
M  V30 4449 O 426.58 0.473307 2.11161 0
M  V30 4450 C 427.175 3.36059 0.430113 0
M  V30 4451 C 425.734 3.66116 0.873842 0
M  V30 4452 C 424.881 2.77274 -0.0380016 0
M  V30 4453 H 427.832 1.51004 -0.488214 0
M  V30 4454 H 427.853 3.58681 1.26998 0
M  V30 4455 H 427.365 3.84373 -0.536588 0
M  V30 4456 H 425.466 3.23295 1.85233 0
M  V30 4457 H 425.579 4.73699 0.717358 0
M  V30 4458 H 423.943 2.50198 0.476759 0
M  V30 4459 H 424.726 3.284 -1.00042 0
M  V30 4460 N 427.171 -0.0066808 1.57599 0
M  V30 4461 C 428.396 -0.707738 1.94951 0
M  V30 4462 C 428.821 -1.66882 0.867868 0
M  V30 4463 O 428.179 -1.80457 -0.17458 0
M  V30 4464 C 428.227 -1.42162 3.31394 0
M  V30 4465 O 427.331 -2.53578 3.25226 0
M  V30 4466 H 426.672 -0.188752 0.636607 0
M  V30 4467 H 429.202 0.0445193 2.04552 0
M  V30 4468 H 429.212 -1.78655 3.66806 0
M  V30 4469 H 427.887 -0.716903 4.09675 0
M  V30 4470 H 426.464 -2.19463 3.01481 0
M  V30 4471 N 428.649 -1.55105 -0.279332 0
M  V30 4472 C 430.06 -1.66186 -0.850832 0
M  V30 4473 C 430.411 -0.584707 -1.87285 0
M  V30 4474 O 429.536 0.274919 -2.14647 0
M  V30 4475 C 430.131 -3.01264 -1.55001 0
M  V30 4476 C 428.69 -3.14394 -2.06963 0
M  V30 4477 C 427.837 -2.61959 -0.909536 0
M  V30 4478 H 430.788 -1.58602 -0.0558235 0
M  V30 4479 H 430.809 -2.93899 -2.41669 0
M  V30 4480 H 430.321 -3.7964 -0.805931 0
M  V30 4481 H 428.422 -2.4078 -2.84352 0
M  V30 4482 H 428.535 -4.20867 -2.28928 0
M  V30 4483 H 426.899 -2.18957 -1.30116 0
M  V30 4484 H 427.682 -3.42833 -0.179062 0
M  V30 4485 N 430.127 0.543554 -1.4793 0
M  V30 4486 C 431.355 1.32516 -1.58894 0
M  V30 4487 C 431.77 1.87215 -0.244131 0
M  V30 4488 O 431.127 1.65709 0.764652 0
M  V30 4489 C 431.178 2.48554 -2.62494 0
M  V30 4490 O 430.899 1.96112 -3.91755 0
M  V30 4491 C 432.4 3.40572 -2.8377 0
M  V30 4492 H 429.62 0.403472 -0.536145 0
M  V30 4493 H 432.164 0.657106 -1.93655 0
M  V30 4494 H 430.319 3.1127 -2.30629 0
M  V30 4495 H 430.733 2.71967 -4.4848 0
M  V30 4496 H 432.207 4.18375 -3.60093 0
M  V30 4497 H 432.684 3.94965 -1.92092 0
M  V30 4498 H 433.29 2.8366 -3.16887 0
M  V30 4499 N 431.605 1.3629 0.791371 0
M  V30 4500 C 432.537 1.26321 1.91248 0
M  V30 4501 C 433.55 0.18313 1.61767 0
M  V30 4502 O 434.739 0.437682 1.73051 0
M  V30 4503 C 431.839 0.925901 3.26007 0
M  V30 4504 C 431.012 2.10746 3.83281 0
M  V30 4505 C 430.071 1.74352 4.96475 0
M  V30 4506 O 429.097 2.46416 5.13096 0
M  V30 4507 N 430.299 0.676058 5.7655 0
M  V30 4508 H 433.064 2.22915 2.00323 0
M  V30 4509 H 430.625 1.29659 0.969546 0
M  V30 4510 H 432.617 0.663636 3.99222 0
M  V30 4511 H 431.187 0.0491581 3.12561 0
M  V30 4512 H 430.407 2.53264 3.02077 0
M  V30 4513 H 431.695 2.8969 4.18279 0
M  V30 4514 H 431.093 0.0776467 5.65647 0
M  V30 4515 H 429.65 0.473612 6.50077 0
M  V30 4516 N 433.083 -1.0153 1.20538 0
M  V30 4517 C 434.03 -2.10098 0.955383 0
M  V30 4518 C 435 -1.65702 -0.114878 0
M  V30 4519 O 436.185 -1.90776 0.0301118 0
M  V30 4520 C 433.325 -3.41236 0.514969 0
M  V30 4521 C 432.438 -3.99102 1.65353 0
M  V30 4522 C 431.573 -5.18306 1.16329 0
M  V30 4523 C 430.612 -5.68258 2.27485 0
M  V30 4524 N 429.749 -6.78722 1.7967 0
M  V30 4525 H 434.589 -2.30818 1.88486 0
M  V30 4526 H 432.126 -1.13189 0.939499 0
M  V30 4527 H 434.084 -4.16504 0.240935 0
M  V30 4528 H 432.714 -3.20585 -0.377512 0
M  V30 4529 H 431.766 -3.20918 2.04245 0
M  V30 4530 H 433.078 -4.32177 2.49047 0
M  V30 4531 H 432.232 -6.00782 0.845302 0
M  V30 4532 H 430.971 -4.86799 0.296254 0
M  V30 4533 H 429.976 -4.84385 2.60099 0
M  V30 4534 H 431.201 -6.01798 3.14667 0
M  V30 4535 H 429.147 -6.49042 0.95295 0
M  V30 4536 H 429.064 -7.10996 2.56944 0
M  V30 4537 H 430.332 -7.64759 1.50875 0
M  V30 4538 N 434.561 -1.01147 -1.20859 0
M  V30 4539 C 435.838 -0.613136 -1.85742 0
M  V30 4540 C 436.218 0.909004 -1.90526 0
M  V30 4541 O 435.566 1.79862 -1.40932 0
M  V30 4542 C 435.776 -1.255 -3.25654 0
M  V30 4543 C 437.124 -1.3672 -4.01986 0
M  V30 4544 O 438.148 -1.21082 -3.34989 0
M  V30 4545 O 437.007 -1.6194 -5.21956 0
M  V30 4546 H 434.101 -0.210878 -0.799662 0
M  V30 4547 H 436.647 -1.10853 -1.2849 0
M  V30 4548 H 435.419 -2.29532 -3.16908 0
M  V30 4549 H 435.042 -0.746369 -3.90532 0
M  V30 4550 N 436.039 1.36541 -0.78704 0
M  V30 4551 C 437.455 1.52571 -0.46844 0
M  V30 4552 C 437.655 1.7415 1.01361 0
M  V30 4553 O 436.711 1.77163 1.79915 0
M  V30 4554 C 438.024 2.71299 -1.29682 0
M  V30 4555 C 439.572 2.85169 -1.29027 0
M  V30 4556 C 440.047 4.06898 -2.10233 0
M  V30 4557 N 441.538 4.1404 -2.07666 0
M  V30 4558 C 442.273 5.07301 -2.67271 0
M  V30 4559 N 441.769 6.06021 -3.35724 0
M  V30 4560 N 443.562 4.99898 -2.57018 0
M  V30 4561 H 435.713 1.20788 -1.74711 0
M  V30 4562 H 437.976 0.589364 -0.742532 0
M  V30 4563 H 437.682 2.61868 -2.34773 0
M  V30 4564 H 437.556 3.6539 -0.936479 0
M  V30 4565 H 439.943 2.94062 -0.247284 0
M  V30 4566 H 440.024 1.91992 -1.69035 0
M  V30 4567 H 439.668 3.98766 -3.1456 0
M  V30 4568 H 439.598 4.99218 -1.67597 0
M  V30 4569 H 442.089 3.43357 -1.57843 0
M  V30 4570 H 442.402 6.73741 -3.78541 0
M  V30 4571 H 440.747 6.06253 -3.39826 0
M  V30 4572 H 443.938 4.21724 -2.03142 0
M  V30 4573 H 444.111 5.72392 -3.03761 0
M  V30 4574 N 437.518 0.538854 1.48102 0
M  V30 4575 C 438.428 -0.222648 2.33541 0
M  V30 4576 C 439.444 -0.930225 1.47047 0
M  V30 4577 O 440.62 -0.903211 1.80011 0
M  V30 4578 C 437.685 -1.25064 3.23357 0
M  V30 4579 C 436.746 -0.552469 4.2573 0
M  V30 4580 C 435.979 -1.53149 5.11254 0
M  V30 4581 O 436.202 -2.76487 4.9891 0
M  V30 4582 O 435.136 -1.06602 5.92385 0
M  V30 4583 H 438.962 0.477707 2.99919 0
M  V30 4584 H 436.547 0.299669 1.46364 0
M  V30 4585 H 438.429 -1.8445 3.78888 0
M  V30 4586 H 437.104 -1.93325 2.59629 0
M  V30 4587 H 436.011 0.082114 3.7401 0
M  V30 4588 H 437.344 0.0883526 4.92121 0
M  V30 4589 N 438.996 -1.55193 0.274407 0
M  V30 4590 C 439.943 -2.225 -0.613374 0
M  V30 4591 C 440.913 -1.19823 -1.15029 0
M  V30 4592 O 442.098 -1.48362 -1.19973 0
M  V30 4593 C 439.238 -2.94927 -1.79199 0
M  V30 4594 C 438.351 -4.12322 -1.28899 0
M  V30 4595 C 437.486 -4.72394 -2.42934 0
M  V30 4596 C 436.525 -5.81984 -1.89634 0
M  V30 4597 N 435.662 -6.36123 -2.9714 0
M  V30 4598 H 440.502 -2.97982 -0.032756 0
M  V30 4599 H 438.039 -1.47099 -0.00440146 0
M  V30 4600 H 439.997 -3.35134 -2.48478 0
M  V30 4601 H 438.627 -2.2187 -2.34465 0
M  V30 4602 H 437.679 -3.7724 -0.489327 0
M  V30 4603 H 438.991 -4.91355 -0.858587 0
M  V30 4604 H 438.145 -5.15317 -3.20208 0
M  V30 4605 H 436.884 -3.92636 -2.8929 0
M  V30 4606 H 435.889 -5.38511 -1.1084 0
M  V30 4607 H 437.114 -6.6361 -1.44215 0
M  V30 4608 H 435.06 -5.59259 -3.42878 0
M  V30 4609 H 434.977 -7.10427 -2.58515 0
M  V30 4610 H 436.245 -6.83704 -3.74391 0
M  V30 4611 N 440.474 -0.00167713 -1.576 0
M  V30 4612 C 441.421 0.989195 -2.08527 0
M  V30 4613 C 442.391 1.34031 -0.981065 0
M  V30 4614 O 443.576 1.43839 -1.2536 0
M  V30 4615 C 440.716 2.27537 -2.59463 0
M  V30 4616 C 439.829 1.98314 -3.83791 0
M  V30 4617 C 438.964 3.21025 -4.23222 0
M  V30 4618 C 438.003 2.87495 -5.40382 0
M  V30 4619 N 437.14 4.02749 -5.75098 0
M  V30 4620 H 441.98 0.547973 -2.92919 0
M  V30 4621 H 439.517 0.258917 -1.44803 0
M  V30 4622 H 441.475 3.02729 -2.87073 0
M  V30 4623 H 440.105 2.69325 -1.77943 0
M  V30 4624 H 439.157 1.13482 -3.63078 0
M  V30 4625 H 440.469 1.69601 -4.69081 0
M  V30 4626 H 439.623 4.04561 -4.52123 0
M  V30 4627 H 438.362 3.52877 -3.36644 0
M  V30 4628 H 437.367 2.02367 -5.11202 0
M  V30 4629 H 438.592 2.56889 -6.28637 0
M  V30 4630 H 436.538 4.34494 -4.91478 0
M  V30 4631 H 436.455 3.77566 -6.54966 0
M  V30 4632 H 437.723 4.87068 -6.08592 0
M  V30 4633 N 441.952 1.55251 0.271103 0
M  V30 4634 C 442.899 1.88261 1.33516 0
M  V30 4635 C 443.869 0.734296 1.48988 0
M  V30 4636 O 445.054 0.985741 1.63364 0
M  V30 4637 C 442.194 2.16168 2.69008 0
M  V30 4638 C 441.307 3.43678 2.61743 0
M  V30 4639 C 440.442 3.61276 3.89427 0
M  V30 4640 C 439.481 4.82472 3.7668 0
M  V30 4641 N 438.618 4.96717 4.96202 0
M  V30 4642 H 443.458 2.79015 1.04665 0
M  V30 4643 H 440.995 1.38137 0.505618 0
M  V30 4644 H 442.953 2.30349 3.47844 0
M  V30 4645 H 441.583 1.28646 2.96057 0
M  V30 4646 H 440.635 3.37959 1.74607 0
M  V30 4647 H 441.947 4.3265 2.48224 0
M  V30 4648 H 441.101 3.75284 4.76704 0
M  V30 4649 H 439.84 2.70492 4.05814 0
M  V30 4650 H 438.845 4.68465 2.87786 0
M  V30 4651 H 440.07 5.74692 3.61809 0
M  V30 4652 H 438.016 4.08865 5.12997 0
M  V30 4653 H 437.933 5.79738 4.85222 0
M  V30 4654 H 439.201 5.15113 5.85046 0
M  V30 4655 N 443.43 -0.535701 1.48216 0
M  V30 4656 C 444.377 -1.64083 1.62312 0
M  V30 4657 C 445.347 -1.59448 0.465365 0
M  V30 4658 O 446.532 -1.77959 0.688135 0
M  V30 4659 C 443.672 -3.0236 1.66349 0
M  V30 4660 C 442.785 -3.17273 2.93193 0
M  V30 4661 C 441.92 -4.46075 2.88427 0
M  V30 4662 C 440.959 -4.54496 4.1 0
M  V30 4663 N 440.096 -5.7468 4.03345 0
M  V30 4664 H 444.936 -1.51374 2.5669 0
M  V30 4665 H 442.473 -0.737059 1.27302 0
M  V30 4666 H 444.431 -3.82461 1.66672 0
M  V30 4667 H 443.061 -3.13854 0.754672 0
M  V30 4668 H 442.113 -2.30462 3.02641 0
M  V30 4669 H 443.425 -3.19357 3.83162 0
M  V30 4670 H 442.579 -5.3446 2.87119 0
M  V30 4671 H 441.318 -4.46504 1.96177 0
M  V30 4672 H 440.323 -3.64519 4.11589 0
M  V30 4673 H 441.548 -4.5581 5.03402 0
M  V30 4674 H 439.494 -5.76017 3.13912 0
M  V30 4675 H 439.411 -5.78234 4.87013 0
M  V30 4676 H 440.679 -6.65367 4.06087 0
M  V30 4677 N 444.908 -1.36708 -0.784132 0
M  V30 4678 C 445.84 -1.27333 -1.90575 0
M  V30 4679 C 446.853 -0.191706 -1.61667 0
M  V30 4680 O 448.042 -0.446854 -1.72816 0
M  V30 4681 C 445.142 -0.943177 -3.25511 0
M  V30 4682 C 444.315 -2.12776 -3.82158 0
M  V30 4683 C 443.374 -1.76983 -4.95544 0
M  V30 4684 O 442.4 -2.49134 -5.11782 0
M  V30 4685 N 443.602 -0.706624 -5.76183 0
M  V30 4686 H 446.367 -2.23974 -1.99138 0
M  V30 4687 H 443.928 -1.30171 -0.962656 0
M  V30 4688 H 445.92 -0.684799 -3.98864 0
M  V30 4689 H 444.49 -0.0657333 -3.12531 0
M  V30 4690 H 443.71 -2.54863 -3.0073 0
M  V30 4691 H 444.998 -2.91904 -4.16737 0
M  V30 4692 H 444.396 -0.107643 -5.65598 0
M  V30 4693 H 442.953 -0.50808 -6.49817 0
M  V30 4694 N 446.386 1.0089 -1.21074 0
M  V30 4695 C 447.318 2.09737 -0.924291 0
M  V30 4696 C 448.331 1.62546 0.0909809 0
M  V30 4697 O 449.52 1.77942 -0.141021 0
M  V30 4698 C 446.62 3.36922 -0.36559 0
M  V30 4699 C 445.793 4.13216 -1.43426 0
M  V30 4700 C 444.852 5.18696 -0.885496 0
M  V30 4701 O 443.878 5.47176 -1.56801 0
M  V30 4702 N 445.08 5.79718 0.301227 0
M  V30 4703 H 447.845 2.34895 -1.8613 0
M  V30 4704 H 445.406 1.17341 -1.11546 0
M  V30 4705 H 447.398 4.04697 0.0158407 0
M  V30 4706 H 445.968 3.08952 0.476149 0
M  V30 4707 H 445.188 3.40301 -1.9897 0
M  V30 4708 H 446.476 4.60967 -2.15376 0
M  V30 4709 H 445.874 5.58926 0.872849 0
M  V30 4710 H 444.431 6.48804 0.624211 0
M  V30 4711 N 447.864 1.01787 1.20321 0
M  V30 4712 C 448.794 0.609625 2.25401 0
M  V30 4713 C 449.775 -0.375951 1.65893 0
M  V30 4714 O 450.96 -0.261101 1.92437 0
M  V30 4715 C 448.09 -0.0515995 3.47262 0
M  V30 4716 C 447.044 0.855095 4.19371 0
M  V30 4717 C 446.37 0.0595757 5.34667 0
M  V30 4718 C 447.67 2.16374 4.75373 0
M  V30 4719 H 449.364 1.48803 2.59804 0
M  V30 4720 H 446.91 0.716934 1.24884 0
M  V30 4721 H 448.863 -0.348764 4.19954 0
M  V30 4722 H 447.587 -0.964726 3.12027 0
M  V30 4723 H 446.246 1.13628 3.48546 0
M  V30 4724 H 445.894 -0.85524 4.95676 0
M  V30 4725 H 445.594 0.663406 5.83843 0
M  V30 4726 H 447.118 -0.231105 6.10162 0
M  V30 4727 H 448.532 1.92885 5.39878 0
M  V30 4728 H 446.929 2.71853 5.34991 0
M  V30 4729 H 447.999 2.82589 3.94045 0
M  V30 4730 N 449.342 -1.36122 0.79427 0
M  V30 4731 C 450.275 -2.27759 0.141845 0
M  V30 4732 C 451.253 -1.47471 -0.684921 0
M  V30 4733 O 452.437 -1.76759 -0.654857 0
M  V30 4734 C 449.564 -3.29008 -0.804446 0
M  V30 4735 C 448.61 -4.26459 -0.0588617 0
M  V30 4736 S 449.443 -5.20253 1.26873 0
M  V30 4737 C 450.599 -6.25048 0.326562 0
M  V30 4738 H 450.832 -2.82746 0.918818 0
M  V30 4739 H 448.365 -1.42736 0.588722 0
M  V30 4740 H 450.323 -3.87842 -1.34495 0
M  V30 4741 H 448.984 -2.72924 -1.5547 0
M  V30 4742 H 448.177 -4.97973 -0.777087 0
M  V30 4743 H 447.779 -3.71731 0.411309 0
M  V30 4744 H 450.071 -6.75705 -0.492795 0
M  V30 4745 H 451.014 -7.00852 1.01053 0
M  V30 4746 H 451.422 -5.64454 -0.0722627 0
M  V30 4747 N 450.82 -0.546701 -1.47814 0
M  V30 4748 C 452.048 -0.0232857 -2.06887 0
M  V30 4749 C 452.463 1.26571 -1.4009 0
M  V30 4750 O 451.82 1.7569 -0.493906 0
M  V30 4751 C 451.871 0.186975 -3.61016 0
M  V30 4752 O 451.592 -1.05097 -4.25307 0
M  V30 4753 C 453.093 0.748872 -4.36929 0
M  V30 4754 H 450.313 -0.0410763 -0.669742 0
M  V30 4755 H 452.857 -0.757117 -1.89968 0
M  V30 4756 H 451.012 0.870903 -3.77484 0
M  V30 4757 H 451.426 -0.842121 -5.17695 0
M  V30 4758 H 452.9 0.845334 -5.45489 0
M  V30 4759 H 453.377 1.75772 -4.02493 0
M  V30 4760 H 453.983 0.100979 -4.2518 0
M  V30 4761 N 452.299 1.55045 -0.282633 0
M  V30 4762 C 453.231 2.2023 0.634924 0
M  V30 4763 C 454.244 1.18931 1.11172 0
M  V30 4764 O 455.433 1.4562 1.03233 0
M  V30 4765 C 452.533 2.82041 1.87899 0
M  V30 4766 C 451.706 4.091 1.54776 0
M  V30 4767 C 450.765 4.54887 2.64507 0
M  V30 4768 O 449.791 5.20496 2.30375 0
M  V30 4769 N 450.993 4.25659 3.94709 0
M  V30 4770 H 453.758 2.99601 0.0769811 0
M  V30 4771 H 451.319 1.61565 -0.104048 0
M  V30 4772 H 453.311 3.09613 2.60619 0
M  V30 4773 H 451.881 2.06618 2.3458 0
M  V30 4774 H 451.101 3.88736 0.654049 0
M  V30 4775 H 452.389 4.9187 1.30158 0
M  V30 4776 H 451.787 3.7306 4.25256 0
M  V30 4777 H 450.344 4.57984 4.63782 0
M  V30 4778 N 453.777 0.010035 1.57597 0
M  V30 4779 C 455.026 -0.671945 1.90178 0
M  V30 4780 C 455.339 -1.74376 0.886131 0
M  V30 4781 O 456.545 -2.48107 1.10252 0
M  V30 4782 C 455.001 -1.24636 3.3763 0
M  V30 4783 C 454.609 -0.208838 4.47513 0
M  V30 4784 C 456.353 -1.90595 3.79307 0
M  V30 4785 C 454.26 -0.793814 5.86048 0
M  V30 4786 H 453.19 -0.25474 0.709665 0
M  V30 4787 H 455.841 0.0722206 1.83358 0
M  V30 4788 H 454.223 -2.04152 3.3932 0
M  V30 4789 H 455.397 0.562463 4.57354 0
M  V30 4790 H 453.712 0.350889 4.14919 0
M  V30 4791 H 456.309 -2.35284 4.80151 0
M  V30 4792 H 456.652 -2.74074 3.13352 0
M  V30 4793 H 457.185 -1.17798 3.79958 0
M  V30 4794 H 453.924 0.00240855 6.555 0
M  V30 4795 H 453.444 -1.53404 5.79851 0
M  V30 4796 H 455.123 -1.2894 6.34022 0
M  V30 4797 N 455.255 -1.55392 -0.262866 0
M  V30 4798 C 456.48 -1.80847 -1.01533 0
M  V30 4799 C 456.905 -0.584946 -1.78774 0
M  V30 4800 O 456.263 0.465701 -1.75217 0
M  V30 4801 C 456.311 -3.03866 -1.94159 0
M  V30 4802 O 455.415 -2.79662 -3.03089 0
M  V30 4803 H 454.756 -0.597441 -0.289759 0
M  V30 4804 H 457.286 -2.02553 -0.288698 0
M  V30 4805 H 457.296 -3.32872 -2.35924 0
M  V30 4806 H 455.971 -3.92564 -1.37354 0
M  V30 4807 H 454.548 -2.61781 -2.65566 0
M  V30 4808 N 456.733 0.527833 -1.48498 0
M  V30 4809 C 457.981 1.28101 -1.56316 0
M  V30 4810 C 458.302 1.9352 -0.239781 0
M  V30 4811 O 457.572 1.81433 0.738849 0
M  V30 4812 H 456.152 0.475793 -0.575873 0
M  V30 4813 H 458.814 0.614052 -1.84974 0
M  V30 4814 H 457.91 2.05916 -2.34532 0
M  V30 4815 N 458.211 1.37122 0.776871 0
M  V30 4816 C 459.457 1.32243 1.53752 0
M  V30 4817 C 459.79 -0.0944745 1.9397 0
M  V30 4818 O 459.065 -1.05068 1.6368 0
M  V30 4819 C 459.348 2.25681 2.80607 0
M  V30 4820 C 459.201 3.76127 2.46676 0
M  V30 4821 C 460.52 2.17657 3.82509 0
M  V30 4822 H 457.639 0.481704 0.557791 0
M  V30 4823 H 460.281 1.6778 0.891612 0
M  V30 4824 H 458.431 1.95505 3.35723 0
M  V30 4825 H 460.103 4.16877 1.97513 0
M  V30 4826 H 458.346 3.94946 1.79443 0
M  V30 4827 H 459.017 4.36933 3.37333 0
M  V30 4828 H 461.493 2.44245 3.36873 0
M  V30 4829 H 460.369 2.85185 4.69 0
M  V30 4830 H 460.63 1.16785 4.26396 0
M  V30 4831 N 459.689 -1.00246 1.21608 0
M  V30 4832 C 460.636 -2.09073 0.977613 0
M  V30 4833 C 461.606 -1.65815 -0.097297 0
M  V30 4834 O 462.791 -1.90734 0.0503445 0
M  V30 4835 C 459.931 -3.40671 0.551133 0
M  V30 4836 C 459.044 -3.97326 1.69576 0
M  V30 4837 C 458.179 -5.17043 1.2182 0
M  V30 4838 C 457.218 -5.65813 2.335 0
M  V30 4839 N 456.355 -6.76778 1.86859 0
M  V30 4840 H 461.195 -2.28806 1.90924 0
M  V30 4841 H 458.732 -1.12186 0.951452 0
M  V30 4842 H 460.69 -4.16225 0.285097 0
M  V30 4843 H 459.32 -3.20967 -0.343489 0
M  V30 4844 H 458.372 -3.18734 2.07637 0
M  V30 4845 H 459.684 -4.29511 2.53617 0
M  V30 4846 H 458.838 -5.99852 0.908975 0
M  V30 4847 H 457.577 -4.86458 0.347869 0
M  V30 4848 H 456.582 -4.81599 2.65222 0
M  V30 4849 H 457.807 -5.98427 3.21033 0
M  V30 4850 H 455.753 -6.47994 1.02174 0
M  V30 4851 H 455.67 -7.08231 2.64471 0
M  V30 4852 H 456.938 -7.63116 1.58978 0
M  V30 4853 N 461.167 -1.02423 -1.1978 0
M  V30 4854 C 462.114 -0.601023 -2.22837 0
M  V30 4855 C 463.084 0.382801 -1.61629 0
M  V30 4856 O 464.269 0.280514 -1.88727 0
M  V30 4857 C 461.409 0.0467755 -3.45068 0
M  V30 4858 C 460.522 -0.98253 -4.20678 0
M  V30 4859 C 459.657 -0.304982 -5.30324 0
M  V30 4860 C 458.696 -1.32052 -5.97686 0
M  V30 4861 N 457.833 -0.669105 -6.98904 0
M  V30 4862 H 462.673 -1.48444 -2.58396 0
M  V30 4863 H 460.21 -0.742936 -1.2696 0
M  V30 4864 H 462.168 0.439556 -4.14878 0
M  V30 4865 H 460.798 0.893796 -3.10179 0
M  V30 4866 H 459.85 -1.49341 -3.49859 0
M  V30 4867 H 461.162 -1.75455 -4.66923 0
M  V30 4868 H 460.316 0.142893 -6.06532 0
M  V30 4869 H 459.055 0.499283 -4.85138 0
M  V30 4870 H 458.06 -1.7787 -5.20233 0
M  V30 4871 H 459.285 -2.1262 -6.44957 0
M  V30 4872 H 457.231 0.115152 -6.55899 0
M  V30 4873 H 457.148 -1.37908 -7.43315 0
M  V30 4874 H 458.416 -0.245076 -7.79115 0
M  V30 4875 N 462.645 1.35699 -0.801477 0
M  V30 4876 C 463.575 2.32436 -0.222658 0
M  V30 4877 C 464.556 1.5723 0.649057 0
M  V30 4878 O 465.741 1.85324 0.580387 0
M  V30 4879 C 462.871 3.41469 0.633719 0
M  V30 4880 C 461.825 4.27774 -0.139083 0
M  V30 4881 C 461.151 5.28082 0.838666 0
M  V30 4882 C 462.451 5.04946 -1.33517 0
M  V30 4883 H 464.145 2.81094 -1.03086 0
M  V30 4884 H 461.691 1.35146 -0.497155 0
M  V30 4885 H 463.644 4.08143 1.04868 0
M  V30 4886 H 462.368 2.91408 1.47475 0
M  V30 4887 H 461.027 3.62673 -0.535156 0
M  V30 4888 H 460.675 4.7429 1.67506 0
M  V30 4889 H 460.375 5.86695 0.32594 0
M  V30 4890 H 461.899 5.97628 1.25194 0
M  V30 4891 H 463.313 5.64593 -0.995349 0
M  V30 4892 H 461.71 5.7303 -1.78202 0
M  V30 4893 H 462.78 4.35886 -2.12442 0
M  V30 4894 N 464.123 0.554532 1.47522 0
M  V30 4895 C 465.056 -0.242442 2.26908 0
M  V30 4896 C 466.034 -0.922722 1.33883 0
M  V30 4897 O 467.218 -0.942244 1.63261 0
M  V30 4898 C 464.345 -1.34525 3.10839 0
M  V30 4899 C 463.391 -0.773805 4.19422 0
M  V30 4900 S 464.224 0.377525 5.34168 0
M  V30 4901 C 465.38 -0.727164 6.21662 0
M  V30 4902 H 465.613 0.431218 2.94156 0
M  V30 4903 H 463.146 0.3408 1.50592 0
M  V30 4904 H 465.104 -1.97683 3.59766 0
M  V30 4905 H 463.765 -1.99073 2.42958 0
M  V30 4906 H 462.958 -1.60187 4.77866 0
M  V30 4907 H 462.56 -0.218448 3.73361 0
M  V30 4908 H 464.852 -1.61992 6.57849 0
M  V30 4909 H 465.795 -0.180135 7.07871 0
M  V30 4910 H 466.203 -1.01863 5.55233 0
M  V30 4911 N 465.601 -1.54893 0.290851 0
M  V30 4912 C 466.551 -2.19838 -0.604599 0
M  V30 4913 C 467.535 -1.16805 -1.10659 0
M  V30 4914 O 468.727 -1.42562 -1.04905 0
M  V30 4915 C 465.856 -2.93497 -1.78086 0
M  V30 4916 C 464.942 -4.03835 -1.29531 0
M  V30 4917 N 465.333 -5.03047 -0.527024 0
M  V30 4918 C 463.631 -4.17192 -1.57693 0
M  V30 4919 C 464.332 -5.81074 -0.269728 0
M  V30 4920 N 463.308 -5.36966 -0.846651 0
M  V30 4921 H 467.11 -2.93898 -0.00995032 0
M  V30 4922 H 464.624 -1.62121 0.0951353 0
M  V30 4923 H 466.621 -3.38484 -2.43381 0
M  V30 4924 H 465.281 -2.2095 -2.37931 0
M  V30 4925 H 466.292 -5.17611 -0.172872 0
M  V30 4926 H 462.969 -3.55845 -2.18359 0
M  V30 4927 H 464.359 -6.71005 0.346643 0
M  V30 4928 N 467.08 -0.0183926 -1.57589 0
M  V30 4929 C 468.305 0.676634 -1.96052 0
M  V30 4930 C 468.73 1.6548 -0.894307 0
M  V30 4931 O 468.088 1.80712 0.145849 0
M  V30 4932 C 468.136 1.36872 -3.33614 0
M  V30 4933 O 467.24 2.48372 -3.29219 0
M  V30 4934 H 466.581 0.1786 -0.63953 0
M  V30 4935 H 469.111 -0.077056 -2.04455 0
M  V30 4936 H 469.121 1.72797 -3.69601 0
M  V30 4937 H 467.796 0.651636 -4.10763 0
M  V30 4938 H 466.373 2.14639 -3.04934 0
M  V30 4939 N 468.558 1.5553 0.254621 0
M  V30 4940 C 469.783 1.81383 1.00573 0
M  V30 4941 C 470.208 0.594419 1.78461 0
M  V30 4942 O 469.566 -0.456403 1.75461 0
M  V30 4943 C 469.614 3.04892 1.92545 0
M  V30 4944 O 468.718 2.81266 3.01601 0
M  V30 4945 H 468.059 0.598969 0.286587 0
M  V30 4946 H 470.589 2.02703 0.277952 0
M  V30 4947 H 470.599 3.34119 2.34155 0
M  V30 4948 H 469.274 3.93287 1.3527 0
M  V30 4949 H 467.851 2.63185 2.64174 0
M  V30 4950 N 470.036 -0.519951 1.48776 0
M  V30 4951 C 471.261 -1.30447 1.6124 0
M  V30 4952 C 471.686 -1.86055 0.276591 0
M  V30 4953 O 471.044 -1.64915 -0.753183 0
M  V30 4954 C 471.092 -2.42406 2.66967 0
M  V30 4955 O 470.196 -3.45728 2.24824 0
M  V30 4956 H 469.537 -0.385924 0.540332 0
M  V30 4957 H 472.067 -0.624572 1.94834 0
M  V30 4958 H 472.077 -2.88447 2.88552 0
M  V30 4959 H 470.752 -2.01294 3.63941 0
M  V30 4960 H 469.329 -3.05737 2.13494 0
M  V30 4961 N 471.514 -1.37532 -0.769588 0
M  V30 4962 C 472.444 -1.36172 -1.89682 0
M  V30 4963 C 473.425 -0.23001 -1.68538 0
M  V30 4964 O 474.61 -0.43069 -1.89364 0
M  V30 4965 C 471.74 -1.1701 -3.26995 0
M  V30 4966 C 470.694 -2.27216 -3.62708 0
M  V30 4967 C 470.02 -1.93174 -4.98586 0
M  V30 4968 C 471.32 -3.6941 -3.69234 0
M  V30 4969 H 473.014 -2.30499 -1.91078 0
M  V30 4970 H 470.56 -1.10953 -0.917902 0
M  V30 4971 H 472.513 -1.14688 -4.05493 0
M  V30 4972 H 471.237 -0.191395 -3.26039 0
M  V30 4973 H 469.896 -2.28697 -2.86519 0
M  V30 4974 H 469.544 -0.938281 -4.94171 0
M  V30 4975 H 469.244 -2.66973 -5.23449 0
M  V30 4976 H 470.768 -1.92443 -5.79481 0
M  V30 4977 H 472.182 -3.70047 -4.37879 0
M  V30 4978 H 470.579 -4.4228 -4.05597 0
M  V30 4979 H 471.649 -4.0288 -2.69844 0
M  V30 4980 N 472.992 0.995999 -1.22138 0
M  V30 4981 C 473.94 2.10673 -0.985876 0
M  V30 4982 C 474.934 1.69255 0.0699553 0
M  V30 4983 O 476.14 1.79812 -0.0822176 0
M  V30 4984 H 472.515 0.688865 -0.30161 0
M  V30 4985 H 474.486 2.27711 -1.92848 0
M  V30 4986 C 473.235 3.42881 -0.576909 0
M  V30 4987 H 472.558 3.75191 -1.38101 0
M  V30 4988 H 473.998 4.21589 -0.451518 0
M  V30 4989 C 472.457 3.29265 0.713196 0
M  V30 4990 O 472.987 3.60777 1.76643 0
M  V30 4991 N 471.193 2.82456 0.683162 0
M  V30 4992 H 470.74 2.5701 -0.174242 0
M  V30 4993 H 470.698 2.73727 1.54663 0
M  V30 4994 N 474.47 1.03057 1.19235 0
M  V30 4995 C 475.418 0.606391 2.24557 0
M  V30 4996 C 476.412 -0.361826 1.65491 0
M  V30 4997 O 477.618 -0.23022 1.78522 0
M  V30 4998 H 473.993 0.177838 0.730669 0
M  V30 4999 H 475.964 1.50529 2.5765 0
M  V30 5000 C 474.713 -0.0252127 3.47691 0
M  V30 5001 H 474.036 0.710838 3.9343 0
M  V30 5002 H 475.476 -0.284931 4.23042 0
M  V30 5003 C 473.935 -1.27229 3.11953 0
M  V30 5004 O 474.465 -2.36416 3.24762 0
M  V30 5005 N 472.671 -1.16169 2.6637 0
M  V30 5006 H 472.218 -0.273189 2.56147 0
M  V30 5007 H 472.176 -1.99703 2.42829 0
M  V30 5008 N 475.948 -1.35272 0.808662 0
M  V30 5009 C 477.176 -2.02946 0.402537 0
M  V30 5010 C 477.591 -1.60937 -0.987147 0
M  V30 5011 O 476.948 -0.807917 -1.63643 0
M  V30 5012 C 476.999 -3.58317 0.47868 0
M  V30 5013 O 476.72 -3.98799 1.81358 0
M  V30 5014 C 478.221 -4.43251 0.0656281 0
M  V30 5015 H 475.441 -0.650831 0.163279 0
M  V30 5016 H 477.985 -1.72849 1.09286 0
M  V30 5017 H 476.14 -3.87055 -0.163415 0
M  V30 5018 H 476.554 -4.93451 1.77781 0
M  V30 5019 H 478.028 -5.51738 0.170017 0
M  V30 5020 H 478.505 -4.27913 -0.989278 0
M  V30 5021 H 479.111 -4.19813 0.68096 0
M  V30 5022 N 477.426 -0.562348 -1.47226 0
M  V30 5023 C 478.651 -0.0432632 -2.07355 0
M  V30 5024 C 479.076 1.24332 -1.41149 0
M  V30 5025 O 478.434 1.74603 -0.488226 0
M  V30 5026 C 478.482 0.130288 -3.60365 0
M  V30 5027 O 477.586 1.19166 -3.94808 0
M  V30 5028 H 476.927 -0.0536334 -0.66183 0
M  V30 5029 H 479.457 -0.779495 -1.89169 0
M  V30 5030 H 479.467 0.342881 -4.06557 0
M  V30 5031 H 478.142 -0.809389 -4.07948 0
M  V30 5032 H 476.719 0.959153 -3.60354 0
M  V30 5033 N 478.904 1.54736 -0.299062 0
M  V30 5034 C 480.153 1.99279 0.311549 0
M  V30 5035 C 480.466 1.19107 1.55154 0
M  V30 5036 O 481.672 1.53908 2.23662 0
M  V30 5037 C 480.128 3.54768 0.605632 0
M  V30 5038 C 479.736 4.43746 -0.615914 0
M  V30 5039 C 481.48 4.07841 1.17754 0
M  V30 5040 C 479.387 5.90663 -0.29509 0
M  V30 5041 H 478.317 0.744359 0.120187 0
M  V30 5042 H 480.968 1.78919 -0.407464 0
M  V30 5043 H 479.35 3.71021 1.38419 0
M  V30 5044 H 480.524 4.39267 -1.39218 0
M  V30 5045 H 478.839 4.01434 -1.10633 0
M  V30 5046 H 481.436 5.15174 1.43179 0
M  V30 5047 H 481.779 3.58324 2.11918 0
M  V30 5048 H 482.312 3.95123 0.460739 0
M  V30 5049 H 479.051 6.44325 -1.20524 0
M  V30 5050 H 478.571 5.98155 0.44394 0
M  V30 5051 H 480.25 6.46916 0.104048 0
M  V30 5052 N 480.382 0.0267497 1.57577 0
M  V30 5053 C 481.607 -0.666227 1.96408 0
M  V30 5054 C 482.032 -1.65004 0.903071 0
M  V30 5055 O 481.39 -1.80787 -0.136263 0
M  V30 5056 C 481.438 -1.35101 3.34335 0
M  V30 5057 O 480.542 -2.46623 3.30531 0
M  V30 5058 H 479.883 -0.175206 0.640468 0
M  V30 5059 H 482.413 0.0878977 2.04411 0
M  V30 5060 H 482.423 -1.70834 3.70513 0
M  V30 5061 H 481.098 -0.629844 4.11103 0
M  V30 5062 H 479.675 -2.13019 3.06068 0
M  V30 5063 N 481.861 -1.55662 -0.24637 0
M  V30 5064 C 483.277 -1.48098 -0.594907 0
M  V30 5065 C 483.477 -0.717044 -1.8831 0
M  V30 5066 O 482.533 -0.246618 -2.51293 0
M  V30 5067 C 483.846 -2.92507 -0.697146 0
M  V30 5068 C 485.394 -3.02881 -0.789436 0
M  V30 5069 C 485.869 -4.48598 -0.923232 0
M  V30 5070 N 487.36 -4.52538 -0.988088 0
M  V30 5071 C 488.095 -5.62536 -1.11089 0
M  V30 5072 N 487.591 -6.82342 -1.19919 0
M  V30 5073 N 489.384 -5.50334 -1.14408 0
M  V30 5074 H 481.535 -2.0377 0.599278 0
M  V30 5075 H 483.798 -0.925145 0.20691 0
M  V30 5076 H 483.504 -3.51242 0.179396 0
M  V30 5077 H 483.378 -3.43024 -1.5689 0
M  V30 5078 H 485.765 -2.44226 -1.65643 0
M  V30 5079 H 485.846 -2.55574 0.107482 0
M  V30 5080 H 485.49 -5.07864 -0.0607927 0
M  V30 5081 H 485.42 -4.93587 -1.8352 0
M  V30 5082 H 487.911 -3.66248 -0.931167 0
M  V30 5083 H 488.224 -7.61924 -1.29197 0
M  V30 5084 H 486.569 -6.85102 -1.16876 0
M  V30 5085 H 489.76 -4.5567 -1.07158 0
M  V30 5086 H 489.933 -6.36096 -1.23634 0
M  V30 5087 N 483.339 0.512053 -1.4905 0
M  V30 5088 C 484.586 1.26686 -1.57978 0
M  V30 5089 C 484.914 1.92733 -0.261553 0
M  V30 5090 O 484.169 1.80772 0.749667 0
M  V30 5091 C 484.468 2.36446 -2.68008 0
M  V30 5092 C 484.134 1.87932 -4.09869 0
M  V30 5093 C 482.796 1.74419 -4.48477 0
M  V30 5094 C 485.148 1.5149 -4.98698 0
M  V30 5095 C 482.476 1.22827 -5.73699 0
M  V30 5096 C 484.828 1.01355 -6.24428 0
M  V30 5097 C 483.492 0.864735 -6.61875 0
M  V30 5098 H 482.762 0.463577 -0.578081 0
M  V30 5099 H 485.409 0.569421 -1.82838 0
M  V30 5100 H 483.714 3.11933 -2.37076 0
M  V30 5101 H 485.411 2.9453 -2.72127 0
M  V30 5102 H 482.001 1.99405 -3.79389 0
M  V30 5103 H 486.185 1.60782 -4.69535 0
M  V30 5104 H 481.441 1.10008 -6.01422 0
M  V30 5105 H 485.615 0.722351 -6.92644 0
M  V30 5106 H 483.242 0.462777 -7.5879 0
M  V30 5107 N 484.817 1.37938 0.762283 0
M  V30 5108 C 486.065 1.33404 1.51815 0
M  V30 5109 C 486.386 -0.0780975 1.94844 0
M  V30 5110 O 485.656 -1.02405 1.67003 0
M  V30 5111 H 484.236 0.490839 0.563104 0
M  V30 5112 H 486.898 1.72527 0.906669 0
M  V30 5113 H 485.994 1.97926 2.41313 0
M  V30 5114 N 486.295 -0.989507 1.22664 0
M  V30 5115 C 487.541 -1.7321 1.05481 0
M  V30 5116 C 487.874 -1.89852 -0.408635 0
M  V30 5117 O 487.149 -1.44416 -1.30285 0
M  V30 5118 C 487.432 -3.1357 1.77047 0
M  V30 5119 C 487.285 -3.04555 3.31008 0
M  V30 5120 C 488.604 -4.12812 1.5256 0
M  V30 5121 H 485.723 -0.628697 0.384589 0
M  V30 5122 H 488.365 -1.15258 1.51049 0
M  V30 5123 H 486.515 -3.63046 1.3831 0
M  V30 5124 H 488.187 -2.62674 3.7921 0
M  V30 5125 H 486.43 -2.41278 3.6051 0
M  V30 5126 H 487.101 -4.03894 3.76263 0
M  V30 5127 H 489.577 -3.72106 1.86215 0
M  V30 5128 H 488.453 -5.09132 2.05124 0
M  V30 5129 H 488.714 -4.39711 0.458936 0
M  V30 5130 N 487.773 -1.03688 -1.18687 0
M  V30 5131 C 488.721 -0.618292 -2.24232 0
M  V30 5132 C 489.715 0.353045 -1.6568 0
M  V30 5133 O 490.921 0.220749 -1.78641 0
M  V30 5134 H 487.296 -0.181711 -0.729716 0
M  V30 5135 H 489.267 -1.51893 -2.56848 0
M  V30 5136 C 488.016 0.00677342 -3.47699 0
M  V30 5137 H 487.339 -0.731692 -3.93047 0
M  V30 5138 H 488.779 0.262492 -4.23187 0
M  V30 5139 C 487.238 1.25572 -3.12623 0
M  V30 5140 O 487.768 2.34691 -3.26011 0
M  V30 5141 N 485.974 1.14755 -2.66982 0
M  V30 5142 H 485.521 0.259601 -2.56289 0
M  V30 5143 H 485.479 1.98412 -2.43885 0
M  V30 5144 N 489.251 1.34841 -0.815825 0
M  V30 5145 C 490.479 2.0273 -0.413294 0
M  V30 5146 C 490.894 1.61459 0.978599 0
M  V30 5147 O 490.251 0.816584 1.63212 0
M  V30 5148 C 490.302 3.58058 -0.497676 0
M  V30 5149 O 490.023 3.97832 -1.8347 0
M  V30 5150 C 491.524 4.4321 -0.0891339 0
M  V30 5151 H 488.744 0.649956 -0.166728 0
M  V30 5152 H 491.288 1.72267 -1.10201 0
M  V30 5153 H 489.443 3.87136 0.142886 0
M  V30 5154 H 489.857 4.92501 -1.80396 0
M  V30 5155 H 491.331 5.5164 -0.199274 0
M  V30 5156 H 491.808 4.28432 0.966571 0
M  V30 5157 H 492.414 4.19446 -0.703214 0
M  V30 5158 N 490.729 0.570148 1.46925 0
M  V30 5159 C 491.639 -0.173061 2.33961 0
M  V30 5160 C 492.655 -0.898825 1.48987 0
M  V30 5161 O 493.831 -0.864825 1.81887 0
M  V30 5162 C 490.896 -1.18177 3.25937 0
M  V30 5163 C 489.957 -0.462041 4.26806 0
M  V30 5164 C 489.19 -1.4227 5.14388 0
M  V30 5165 O 489.413 -2.65842 5.04662 0
M  V30 5166 O 488.347 -0.940127 5.94513 0
M  V30 5167 H 492.173 0.541216 2.98839 0
M  V30 5168 H 489.758 0.330647 1.45695 0
M  V30 5169 H 491.64 -1.76372 3.82715 0
M  V30 5170 H 490.315 -1.87774 2.63671 0
M  V30 5171 H 489.222 0.161429 3.73752 0
M  V30 5172 H 490.555 0.192719 4.91823 0
M  V30 5173 N 492.207 -1.54576 0.307264 0
M  V30 5174 C 493.155 -2.25208 -0.581723 0
M  V30 5175 C 494.149 -1.26031 -1.13192 0
M  V30 5176 O 495.355 -1.43862 -1.08184 0
M  V30 5177 H 491.73 -0.723173 -0.206214 0
M  V30 5178 H 493.701 -2.98378 0.0364663 0
M  V30 5179 C 492.45 -3.01086 -1.73904 0
M  V30 5180 H 491.773 -3.77208 -1.32491 0
M  V30 5181 H 493.213 -3.5378 -2.33701 0
M  V30 5182 C 491.672 -2.08422 -2.64692 0
M  V30 5183 O 492.202 -1.65636 -3.65961 0
M  V30 5184 N 490.408 -1.74247 -2.32564 0
M  V30 5185 H 489.955 -2.09238 -1.50257 0
M  V30 5186 H 489.913 -1.12524 -2.93574 0
M  V30 5187 N 493.685 -0.035106 -1.57561 0
M  V30 5188 C 494.595 0.960295 -2.14046 0
M  V30 5189 C 495.611 1.3529 -1.0942 0
M  V30 5190 O 496.787 1.43309 -1.41508 0
M  V30 5191 C 493.852 2.22214 -2.66124 0
M  V30 5192 C 492.913 1.8894 -3.85487 0
M  V30 5193 C 492.146 3.09109 -4.35072 0
M  V30 5194 O 492.369 4.21963 -3.83802 0
M  V30 5195 O 491.303 2.91058 -5.26848 0
M  V30 5196 H 495.129 0.509983 -2.99387 0
M  V30 5197 H 492.714 0.185853 -1.48239 0
M  V30 5198 H 494.596 2.96279 -2.99661 0
M  V30 5199 H 493.271 2.66414 -1.83862 0
M  V30 5200 H 492.178 1.12241 -3.56865 0
M  V30 5201 H 493.511 1.49551 -4.6893 0
M  V30 5202 N 495.163 1.55791 0.238111 0
M  V30 5203 C 496.44 1.68798 0.98826 0
M  V30 5204 C 496.82 0.577562 2.03045 0
M  V30 5205 O 496.168 -0.41778 2.24648 0
M  V30 5206 C 496.378 3.09454 1.61367 0
M  V30 5207 C 497.726 3.68335 2.11221 0
M  V30 5208 O 498.75 3.1231 1.71292 0
M  V30 5209 O 497.609 4.6657 2.84561 0
M  V30 5210 H 494.703 0.686881 0.460568 0
M  V30 5211 H 497.249 1.68118 0.231202 0
M  V30 5212 H 496.021 3.81726 0.860295 0
M  V30 5213 H 495.644 3.14182 2.4367 0
M  V30 5214 N 496.642 -0.504142 1.49319 0
M  V30 5215 C 497.592 -1.60284 1.62151 0
M  V30 5216 C 498.576 -1.53657 0.477315 0
M  V30 5217 O 499.768 -1.6124 0.730108 0
M  V30 5218 C 496.897 -2.98909 1.68844 0
M  V30 5219 C 495.983 -3.10544 2.8883 0
M  V30 5220 N 496.374 -2.92078 4.12946 0
M  V30 5221 C 494.672 -3.4164 2.86702 0
M  V30 5222 C 495.373 -3.07812 4.93585 0
M  V30 5223 N 494.349 -3.36549 4.26891 0
M  V30 5224 H 498.151 -1.44656 2.55835 0
M  V30 5225 H 495.665 -0.710198 1.46048 0
M  V30 5226 H 497.662 -3.77865 1.76134 0
M  V30 5227 H 496.322 -3.15609 0.762943 0
M  V30 5228 H 497.333 -2.68316 4.42975 0
M  V30 5229 H 494.01 -3.64537 2.03517 0
M  V30 5230 H 495.4 -2.98054 6.02174 0
M  V30 5231 N 498.12 -1.38341 -0.754957 0
M  V30 5232 C 499.05 -1.38176 -1.88227 0
M  V30 5233 C 500.031 -0.247873 -1.68284 0
M  V30 5234 O 501.216 -0.45075 -1.88896 0
M  V30 5235 C 498.346 -1.20471 -3.25736 0
M  V30 5236 C 497.3 -2.3105 -3.60278 0
M  V30 5237 C 496.626 -1.98452 -4.96509 0
M  V30 5238 C 497.926 -3.73305 -3.65295 0
M  V30 5239 H 499.62 -2.32512 -1.88622 0
M  V30 5240 H 497.166 -1.1192 -0.906082 0
M  V30 5241 H 499.119 -1.18982 -4.04254 0
M  V30 5242 H 497.843 -0.225965 -3.25817 0
M  V30 5243 H 496.502 -2.31723 -2.84078 0
M  V30 5244 H 496.15 -0.990641 -4.93148 0
M  V30 5245 H 495.85 -2.7251 -5.20588 0
M  V30 5246 H 497.374 -1.98578 -5.77407 0
M  V30 5247 H 498.788 -3.7467 -4.3393 0
M  V30 5248 H 497.185 -4.46557 -4.00883 0
M  V30 5249 H 498.255 -4.05719 -2.65556 0
M  V30 5250 N 499.598 0.982988 -1.23187 0
M  V30 5251 C 500.561 2.05649 -1.01198 0
M  V30 5252 C 501.561 1.6078 0.0252464 0
M  V30 5253 O 502.751 1.72878 -0.214243 0
M  V30 5254 C 499.883 3.36744 -0.530656 0
M  V30 5255 H 501.076 2.2659 -1.96461 0
M  V30 5256 H 498.629 1.15602 -1.05195 0
M  V30 5257 H 499.364 3.21492 0.425873 0
M  V30 5258 H 499.149 3.7065 -1.2791 0
M  V30 5259 H 500.639 4.15705 -0.397366 0
M  V30 5260 N 501.076 1.04316 1.18135 0
M  V30 5261 C 502.023 0.636398 2.21853 0
M  V30 5262 C 502.993 -0.357039 1.62217 0
M  V30 5263 O 504.178 -0.250453 1.89149 0
M  V30 5264 C 501.318 0.00812779 3.45099 0
M  V30 5265 C 500.431 1.04933 4.19062 0
M  V30 5266 C 499.566 0.389313 5.29771 0
M  V30 5267 C 498.605 1.41544 5.9551 0
M  V30 5268 N 497.742 0.78021 6.97751 0
M  V30 5269 H 502.582 1.52536 2.56002 0
M  V30 5270 H 500.119 0.76304 1.25762 0
M  V30 5271 H 502.077 -0.373497 4.15525 0
M  V30 5272 H 500.707 -0.844336 3.11562 0
M  V30 5273 H 499.759 1.54888 3.47439 0
M  V30 5274 H 501.071 1.82862 4.64072 0
M  V30 5275 H 500.225 -0.0463805 6.06682 0
M  V30 5276 H 498.964 -0.422038 4.8587 0
M  V30 5277 H 497.969 1.86124 5.17337 0
M  V30 5278 H 499.194 2.22854 6.41493 0
M  V30 5279 H 497.14 -0.0107899 6.55999 0
M  V30 5280 H 497.057 1.49716 7.41027 0
M  V30 5281 H 498.325 0.368996 7.78626 0
M  V30 5282 N 502.554 -1.34406 0.822964 0
M  V30 5283 C 503.464 -2.33298 0.246838 0
M  V30 5284 C 504.48 -1.62625 -0.618797 0
M  V30 5285 O 505.656 -1.94391 -0.526685 0
M  V30 5286 C 502.721 -3.41785 -0.581731 0
M  V30 5287 C 501.782 -4.28206 0.306309 0
M  V30 5288 C 501.015 -5.31512 -0.48281 0
M  V30 5289 O 501.238 -5.43973 -1.71607 0
M  V30 5290 O 500.172 -6.01749 0.134884 0
M  V30 5291 H 503.998 -2.84401 1.06534 0
M  V30 5292 H 501.583 -1.37466 0.585108 0
M  V30 5293 H 503.465 -4.08028 -1.05313 0
M  V30 5294 H 502.14 -2.92925 -1.37756 0
M  V30 5295 H 501.047 -3.64885 0.825199 0
M  V30 5296 H 502.38 -4.80507 1.06649 0
M  V30 5297 N 504.032 -0.577932 -1.46621 0
M  V30 5298 C 504.962 0.145917 -2.33044 0
M  V30 5299 C 505.943 0.888412 -1.45056 0
M  V30 5300 O 507.128 0.864812 -1.73881 0
M  V30 5301 C 504.258 1.16322 -3.27241 0
M  V30 5302 C 503.212 0.535868 -4.24632 0
M  V30 5303 C 502.538 1.65929 -5.08303 0
M  V30 5304 C 503.838 -0.523861 -5.19666 0
M  V30 5305 H 505.532 -0.575636 -2.93814 0
M  V30 5306 H 503.078 -0.278272 -1.41286 0
M  V30 5307 H 505.031 1.67793 -3.86553 0
M  V30 5308 H 503.755 1.91498 -2.64567 0
M  V30 5309 H 502.414 0.0422759 -3.66576 0
M  V30 5310 H 502.062 2.40061 -4.42018 0
M  V30 5311 H 501.762 1.2452 -5.74255 0
M  V30 5312 H 503.286 2.17686 -5.70478 0
M  V30 5313 H 504.7 -0.0944059 -5.73222 0
M  V30 5314 H 503.097 -0.858 -5.93935 0
M  V30 5315 H 504.167 -1.41197 -4.63887 0
M  V30 5316 N 505.51 1.54411 -0.315457 0
M  V30 5317 C 506.42 2.27737 0.56329 0
M  V30 5318 C 507.436 1.31787 1.13614 0
M  V30 5319 O 508.612 1.64791 1.15784 0
M  V30 5320 C 505.677 3.01478 1.71207 0
M  V30 5321 C 504.738 4.12997 1.17185 0
M  V30 5322 C 503.971 4.83212 2.26588 0
M  V30 5323 O 504.194 4.52884 3.46775 0
M  V30 5324 O 503.128 5.70299 1.92463 0
M  V30 5325 H 506.954 3.03683 -0.0319614 0
M  V30 5326 H 504.539 1.49178 -0.0814188 0
M  V30 5327 H 506.421 3.47683 2.38106 0
M  V30 5328 H 505.096 2.28414 2.29366 0
M  V30 5329 H 504.003 3.71159 0.468174 0
M  V30 5330 H 505.336 4.8808 0.635501 0
M  V30 5331 N 506.988 0.0434614 1.5754 0
M  V30 5332 C 508.265 -0.671479 1.83713 0
M  V30 5333 C 508.645 -1.89495 0.930315 0
M  V30 5334 O 507.993 -2.28498 -0.0105639 0
M  V30 5335 C 508.203 -1.0361 3.33266 0
M  V30 5336 C 509.551 -1.42167 4.00092 0
M  V30 5337 O 510.575 -1.12866 3.37846 0
M  V30 5338 O 509.434 -1.96817 5.09829 0
M  V30 5339 H 506.528 -0.330726 0.75799 0
M  V30 5340 H 509.074 0.0722373 1.69546 0
M  V30 5341 H 507.846 -0.165938 3.90948 0
M  V30 5342 H 507.469 -1.83751 3.52592 0
M  V30 5343 N 508.466 -1.55915 -0.229846 0
M  V30 5344 C 509.396 -1.94754 -1.28815 0
M  V30 5345 C 510.377 -0.814657 -1.49323 0
M  V30 5346 O 511.562 -1.07631 -1.61645 0
M  V30 5347 C 508.692 -2.25705 -2.63959 0
M  V30 5348 C 507.646 -3.41406 -2.5812 0
M  V30 5349 C 506.972 -3.57941 -3.97218 0
M  V30 5350 C 508.272 -4.76616 -2.13623 0
M  V30 5351 H 509.966 -2.83404 -0.965547 0
M  V30 5352 H 507.512 -1.36353 -0.463028 0
M  V30 5353 H 509.465 -2.51467 -3.38146 0
M  V30 5354 H 508.189 -1.339 -2.9789 0
M  V30 5355 H 506.848 -3.1568 -1.86391 0
M  V30 5356 H 506.496 -2.63526 -4.28443 0
M  V30 5357 H 506.196 -4.35757 -3.94195 0
M  V30 5358 H 507.72 -3.86042 -4.73079 0
M  V30 5359 H 509.134 -5.01637 -2.77549 0
M  V30 5360 H 507.531 -5.57655 -2.21677 0
M  V30 5361 H 508.601 -4.7253 -1.08829 0
M  V30 5362 N 509.944 0.496216 -1.49584 0
M  V30 5363 C 510.892 1.61805 -1.67098 0
M  V30 5364 C 511.886 1.60667 -0.536877 0
M  V30 5365 O 513.092 1.65118 -0.716654 0
M  V30 5366 H 509.467 0.53646 -0.526986 0
M  V30 5367 H 511.438 1.44187 -2.61252 0
M  V30 5368 C 510.187 2.99912 -1.75921 0
M  V30 5369 H 509.51 3.01496 -2.62565 0
M  V30 5370 H 510.95 3.77931 -1.92209 0
M  V30 5371 C 509.409 3.33092 -0.505088 0
M  V30 5372 O 509.939 4.00019 0.367085 0
M  V30 5373 N 508.145 2.88278 -0.366599 0
M  V30 5374 H 507.692 2.33989 -1.07735 0
M  V30 5375 H 507.65 3.10846 0.47142 0
M  V30 5376 N 511.423 1.38739 0.74761 0
M  V30 5377 C 512.37 1.36449 1.86146 0
M  V30 5378 C 513.34 0.226098 1.64554 0
M  V30 5379 O 514.525 0.41926 1.86137 0
M  V30 5380 C 511.665 1.2013 3.23516 0
M  V30 5381 C 510.778 2.43407 3.56899 0
M  V30 5382 C 509.913 2.19773 4.83605 0
M  V30 5383 C 508.952 3.3879 5.09792 0
M  V30 5384 N 508.089 3.14553 6.27695 0
M  V30 5385 H 512.929 2.3167 1.87438 0
M  V30 5386 H 510.466 1.15094 0.916063 0
M  V30 5387 H 512.424 1.08683 4.02795 0
M  V30 5388 H 511.054 0.285453 3.21535 0
M  V30 5389 H 510.106 2.65504 2.72418 0
M  V30 5390 H 511.418 3.32094 3.72176 0
M  V30 5391 H 510.572 2.05496 5.70838 0
M  V30 5392 H 509.311 1.28461 4.70478 0
M  V30 5393 H 508.316 3.53579 4.21025 0
M  V30 5394 H 509.541 4.30986 5.24812 0
M  V30 5395 H 507.487 2.25893 6.1588 0
M  V30 5396 H 507.404 3.96791 6.435 0
M  V30 5397 H 508.672 3.03943 7.17801 0
M  V30 5398 N 512.901 -0.976442 1.23707 0
M  V30 5399 C 514.147 -1.72158 1.08319 0
M  V30 5400 C 514.502 -1.88701 -0.375445 0
M  V30 5401 O 513.795 -1.43107 -1.274 0
M  V30 5402 C 513.989 -3.11814 1.74662 0
M  V30 5403 C 513.818 -3.08892 3.26827 0
M  V30 5404 C 512.588 -3.13861 3.96004 0
M  V30 5405 C 514.786 -2.9175 4.2354 0
M  V30 5406 N 512.768 -3.00867 5.35119 0
M  V30 5407 C 514.139 -2.8696 5.49595 0
M  V30 5408 C 516.194 -2.76265 4.14225 0
M  V30 5409 C 514.897 -2.68268 6.67401 0
M  V30 5410 C 516.923 -2.58938 5.317 0
M  V30 5411 C 516.285 -2.54849 6.56682 0
M  V30 5412 H 512.384 -0.638896 0.450927 0
M  V30 5413 H 514.968 -1.15835 1.56494 0
M  V30 5414 H 513.139 -3.66347 1.29014 0
M  V30 5415 H 514.871 -3.74984 1.52215 0
M  V30 5416 H 511.626 -3.22198 3.4711 0
M  V30 5417 H 512.05 -2.97634 6.08065 0
M  V30 5418 H 516.692 -2.78213 3.18366 0
M  V30 5419 H 514.41 -2.65063 7.63392 0
M  V30 5420 H 517.996 -2.47914 5.26336 0
M  V30 5421 H 516.876 -2.41611 7.46052 0
M  V30 5422 N 514.379 -1.04941 -1.1758 0
M  V30 5423 C 515.627 -0.756492 -1.87408 0
M  V30 5424 C 515.948 0.718478 -1.81281 0
M  V30 5425 O 515.218 1.519 -1.23706 0
M  V30 5426 H 513.798 -0.276841 -0.693807 0
M  V30 5427 H 516.46 -1.32803 -1.42652 0
M  V30 5428 H 515.556 -1.06918 -2.93215 0
M  V30 5429 N 515.857 1.33968 -0.830081 0
M  V30 5430 C 516.787 2.31911 -0.271911 0
M  V30 5431 C 517.768 1.58571 0.61556 0
M  V30 5432 O 518.953 1.86514 0.540946 0
M  V30 5433 C 516.083 3.42737 0.561146 0
M  V30 5434 C 515.037 4.27383 -0.229789 0
M  V30 5435 C 514.363 5.29742 0.726463 0
M  V30 5436 C 515.663 5.02 -1.44197 0
M  V30 5437 H 517.357 2.78844 -1.09025 0
M  V30 5438 H 514.903 1.34061 -0.52571 0
M  V30 5439 H 516.856 4.10276 0.961867 0
M  V30 5440 H 515.58 2.94471 1.41261 0
M  V30 5441 H 514.239 3.61456 -0.611964 0
M  V30 5442 H 513.887 4.77736 1.57408 0
M  V30 5443 H 513.587 5.87255 0.20142 0
M  V30 5444 H 515.111 6.00149 1.12489 0
M  V30 5445 H 516.525 5.62355 -1.11488 0
M  V30 5446 H 514.922 5.69122 -1.90317 0
M  V30 5447 H 515.992 4.31281 -2.2164 0
M  V30 5448 N 517.335 0.585699 1.46312 0
M  V30 5449 C 518.283 -0.158577 2.32059 0
M  V30 5450 C 519.277 -0.881427 1.44662 0
M  V30 5451 O 520.483 -0.799476 1.61271 0
M  V30 5452 H 516.858 -0.0700066 0.748734 0
M  V30 5453 H 518.829 0.583383 2.92642 0
M  V30 5454 C 517.578 -1.15701 3.27885 0
M  V30 5455 H 516.901 -0.610215 3.95116 0
M  V30 5456 H 518.341 -1.64812 3.90657 0
M  V30 5457 C 516.8 -2.21951 2.53455 0
M  V30 5458 O 517.33 -3.29352 2.29978 0
M  V30 5459 N 515.536 -1.9664 2.13965 0
M  V30 5460 H 515.083 -1.09309 2.33258 0
M  V30 5461 H 515.041 -2.6794 1.64485 0
M  V30 5462 N 518.813 -1.54241 0.323641 0
M  V30 5463 C 520.062 -1.9975 -0.279806 0
M  V30 5464 C 520.375 -1.2156 -1.5324 0
M  V30 5465 O 521.581 -1.57447 -2.21185 0
M  V30 5466 C 520.037 -3.55686 -0.549115 0
M  V30 5467 C 519.645 -4.4271 0.686432 0
M  V30 5468 C 521.389 -4.09663 -1.11251 0
M  V30 5469 C 519.296 -5.90119 0.389022 0
M  V30 5470 H 518.226 -0.746177 -0.10833 0
M  V30 5471 H 520.877 -1.78248 0.435877 0
M  V30 5472 H 519.259 -3.73176 -1.32499 0
M  V30 5473 H 520.433 -4.36996 1.46188 0
M  V30 5474 H 518.748 -3.99623 1.17005 0
M  V30 5475 H 521.345 -5.17386 -1.34965 0
M  V30 5476 H 521.688 -3.61651 -2.06191 0
M  V30 5477 H 522.221 -3.95806 -0.39782 0
M  V30 5478 H 518.96 -6.42326 1.30759 0
M  V30 5479 H 518.48 -5.98785 -0.348722 0
M  V30 5480 H 520.159 -6.47 -0.0011164 0
M  V30 5481 N 520.291 -0.0518155 -1.57515 0
M  V30 5482 C 521.538 0.621823 -1.92716 0
M  V30 5483 C 521.866 1.70813 -0.930229 0
M  V30 5484 O 521.121 1.95616 0.0573708 0
M  V30 5485 C 521.42 1.25607 -3.34601 0
M  V30 5486 C 521.086 0.297901 -4.49915 0
M  V30 5487 C 519.748 0.034243 -4.81188 0
M  V30 5488 C 522.1 -0.358738 -5.19964 0
M  V30 5489 C 519.428 -0.893479 -5.79857 0
M  V30 5490 C 521.78 -1.27466 -6.19625 0
M  V30 5491 C 520.444 -1.54698 -6.49326 0
M  V30 5492 H 519.714 0.227541 -0.705199 0
M  V30 5493 H 522.361 -0.118432 -1.91133 0
M  V30 5494 H 520.666 2.07161 -3.32553 0
M  V30 5495 H 522.363 1.78424 -3.59118 0
M  V30 5496 H 518.953 0.513581 -4.25512 0
M  V30 5497 H 523.137 -0.168133 -4.96015 0
M  V30 5498 H 518.393 -1.11193 -6.01204 0
M  V30 5499 H 522.567 -1.78953 -6.73015 0
M  V30 5500 H 520.194 -2.26748 -7.25596 0
M  V30 5501 N 521.769 1.56035 0.221574 0
M  V30 5502 C 522.717 1.93269 1.29421 0
M  V30 5503 C 523.711 0.814727 1.48521 0
M  V30 5504 O 524.917 0.999559 1.49696 0
M  V30 5505 H 521.292 0.614188 0.43391 0
M  V30 5506 H 523.263 2.82773 0.952987 0
M  V30 5507 C 522.012 2.26573 2.63742 0
M  V30 5508 H 521.335 3.12112 2.49853 0
M  V30 5509 H 522.775 2.5651 3.37607 0
M  V30 5510 C 521.234 1.09086 3.1875 0
M  V30 5511 O 521.764 0.351985 4.00155 0
M  V30 5512 N 519.97 0.874693 2.77124 0
M  V30 5513 H 519.517 1.47726 2.11033 0
M  V30 5514 H 519.475 0.0903349 3.1427 0
M  V30 5515 N 523.247 -0.488276 1.49845 0
M  V30 5516 C 524.493 -1.24341 1.6021 0
M  V30 5517 C 524.826 -1.91967 0.293651 0
M  V30 5518 O 524.101 -1.81323 -0.703718 0
M  V30 5519 C 524.384 -2.3005 2.77036 0
M  V30 5520 C 524.237 -1.66842 4.17713 0
M  V30 5521 C 525.556 -3.31509 2.89464 0
M  V30 5522 H 522.675 -0.450704 0.583125 0
M  V30 5523 H 525.317 -0.539673 1.82174 0
M  V30 5524 H 523.467 -2.90071 2.58439 0
M  V30 5525 H 525.139 -1.1055 4.47858 0
M  V30 5526 H 523.382 -0.972079 4.22768 0
M  V30 5527 H 524.053 -2.43576 4.95353 0
M  V30 5528 H 526.529 -2.81493 3.06433 0
M  V30 5529 H 525.405 -4.02822 3.72861 0
M  V30 5530 H 525.666 -3.94603 1.99351 0
M  V30 5531 N 524.725 -1.39134 -0.740242 0
M  V30 5532 C 525.688 -1.37217 -1.83587 0
M  V30 5533 C 526.688 -0.270221 -1.58513 0
M  V30 5534 O 527.878 -0.527843 -1.6601 0
M  V30 5535 C 525.01 -1.13959 -3.21288 0
M  V30 5536 H 526.203 -2.34705 -1.86691 0
M  V30 5537 H 523.756 -1.24622 -0.94335 0
M  V30 5538 H 524.491 -0.17131 -3.23847 0
M  V30 5539 H 524.276 -1.93754 -3.40884 0
M  V30 5540 H 525.766 -1.15346 -4.01354 0
M  V30 5541 N 526.204 0.969867 -1.24223 0
M  V30 5542 C 527.452 1.70918 -1.0785 0
M  V30 5543 C 527.773 1.91186 0.383763 0
M  V30 5544 O 527.043 1.48806 1.27411 0
M  V30 5545 H 525.623 0.633334 -0.396103 0
M  V30 5546 H 528.285 1.16689 -1.56108 0
M  V30 5547 H 527.381 2.69455 -1.57482 0
M  V30 5548 N 527.682 1.05563 1.17022 0
M  V30 5549 C 528.912 0.787307 1.91011 0
M  V30 5550 C 529.32 -0.661256 1.77268 0
M  V30 5551 O 528.663 -1.46379 1.10991 0
M  V30 5552 C 528.725 1.09313 3.42478 0
M  V30 5553 C 528.389 2.53863 3.80004 0
M  V30 5554 C 529.386 3.52081 3.82538 0
M  V30 5555 C 527.071 2.88969 4.10855 0
M  V30 5556 C 529.065 4.83449 4.15399 0
M  V30 5557 C 526.752 4.2054 4.43384 0
M  V30 5558 C 527.75 5.17589 4.45635 0
M  V30 5559 O 527.438 6.46799 4.77395 0
M  V30 5560 H 527.17 0.285463 0.61277 0
M  V30 5561 H 529.724 1.41051 1.49311 0
M  V30 5562 H 527.954 0.412833 3.8449 0
M  V30 5563 H 529.643 0.810224 3.97731 0
M  V30 5564 H 530.409 3.26299 3.58823 0
M  V30 5565 H 526.288 2.1409 4.08272 0
M  V30 5566 H 529.832 5.59194 4.1707 0
M  V30 5567 H 525.729 4.46083 4.66563 0
M  V30 5568 H 526.497 6.51677 4.95237 0
M  V30 5569 N 529.16 -1.33526 0.837174 0
M  V30 5570 C 530.385 -2.0258 0.444545 0
M  V30 5571 C 530.81 -1.6258 -0.946006 0
M  V30 5572 O 530.168 -0.817548 -1.6182 0
M  V30 5573 C 530.216 -3.5605 0.571006 0
M  V30 5574 O 529.32 -4.10422 -0.403431 0
M  V30 5575 H 528.661 -0.638866 0.180958 0
M  V30 5576 H 531.191 -1.70462 1.13154 0
M  V30 5577 H 531.201 -4.05488 0.452024 0
M  V30 5578 H 529.876 -3.84509 1.58512 0
M  V30 5579 H 528.453 -3.72113 -0.242147 0
M  V30 5580 N 530.638 -0.59345 -1.46 0
M  V30 5581 C 531.588 0.154751 -2.27474 0
M  V30 5582 C 532.572 0.851849 -1.365 0
M  V30 5583 O 533.764 0.744171 -1.60596 0
M  V30 5584 C 530.893 1.16079 -3.2308 0
M  V30 5585 C 529.979 0.465256 -4.2154 0
M  V30 5586 N 530.37 -0.485197 -5.03467 0
M  V30 5587 C 528.668 0.714634 -4.40237 0
M  V30 5588 C 529.369 -0.892709 -5.74809 0
M  V30 5589 N 528.345 -0.239511 -5.43072 0
M  V30 5590 H 532.147 -0.57546 -2.88211 0
M  V30 5591 H 529.661 -0.416046 -1.5698 0
M  V30 5592 H 531.658 1.71108 -3.80168 0
M  V30 5593 H 530.318 1.89171 -2.63903 0
M  V30 5594 H 531.329 -0.861258 -5.10689 0
M  V30 5595 H 528.006 1.43131 -3.92199 0
M  V30 5596 H 529.396 -1.67581 -6.50666 0
M  V30 5597 N 532.116 1.54067 -0.331816 0
M  V30 5598 C 533.064 2.26105 0.54582 0
M  V30 5599 C 534.058 1.27816 1.11173 0
M  V30 5600 O 535.264 1.45565 1.05882 0
M  V30 5601 H 531.639 0.726363 0.194683 0
M  V30 5602 H 533.61 2.98282 -0.083931 0
M  V30 5603 C 532.359 3.03814 1.69092 0
M  V30 5604 H 531.682 3.79269 1.26473 0
M  V30 5605 H 533.122 3.57453 2.28043 0
M  V30 5606 C 531.581 2.12606 2.61343 0
M  V30 5607 O 532.111 1.71437 3.6328 0
M  V30 5608 N 530.317 1.77925 2.29763 0
M  V30 5609 H 529.864 2.11602 1.46909 0
M  V30 5610 H 529.822 1.1718 2.91747 0
M  V30 5611 N 533.594 0.0601682 1.57485 0
M  V30 5612 C 535.01 -0.296422 1.56823 0
M  V30 5613 C 535.21 -1.70831 1.0686 0
M  V30 5614 O 534.266 -2.4174 0.729245 0
M  V30 5615 C 535.579 -0.116681 3.00474 0
M  V30 5616 C 537.127 -0.187103 3.1244 0
M  V30 5617 C 537.602 -0.035783 4.57986 0
M  V30 5618 N 539.093 -0.0917676 4.63109 0
M  V30 5619 C 539.828 0.00107251 5.734 0
M  V30 5620 N 539.324 0.146773 6.92645 0
M  V30 5621 N 541.117 -0.0551577 5.62073 0
M  V30 5622 H 533.268 0.983055 1.88281 0
M  V30 5623 H 535.531 0.382386 0.867459 0
M  V30 5624 H 535.237 0.85712 3.41096 0
M  V30 5625 H 535.111 -0.873929 3.66936 0
M  V30 5626 H 537.498 -1.15138 2.71712 0
M  V30 5627 H 537.579 0.601052 2.48638 0
M  V30 5628 H 537.223 0.925212 4.99402 0
M  V30 5629 H 537.153 -0.843196 5.19806 0
M  V30 5630 H 539.644 -0.203261 3.77353 0
M  V30 5631 H 539.957 0.210076 7.72514 0
M  V30 5632 H 538.302 0.181979 6.94762 0
M  V30 5633 H 541.493 -0.167605 4.678 0
M  V30 5634 H 541.666 0.020652 6.47997 0
M  V30 5635 N 535.072 -1.5615 -0.213296 0
M  V30 5636 C 536.483 -1.69645 -0.779582 0
M  V30 5637 C 536.834 -0.663615 -1.84636 0
M  V30 5638 O 535.959 0.183633 -2.15619 0
M  V30 5639 C 536.554 -3.07567 -1.42084 0
M  V30 5640 C 535.113 -3.22889 -1.93442 0
M  V30 5641 C 534.26 -2.65581 -0.797612 0
M  V30 5642 H 537.211 -1.58696 0.0114951 0
M  V30 5643 H 537.232 -3.03884 -2.28986 0
M  V30 5644 H 536.744 -3.82716 -0.644187 0
M  V30 5645 H 534.845 -2.52623 -2.73884 0
M  V30 5646 H 534.958 -4.30197 -2.10872 0
M  V30 5647 H 533.322 -2.24278 -1.20712 0
M  V30 5648 H 534.105 -3.43284 -0.033494 0
M  V30 5649 N 536.55 0.480323 -1.50102 0
M  V30 5650 C 537.48 1.58769 -1.71215 0
M  V30 5651 C 538.461 1.60583 -0.560997 0
M  V30 5652 O 539.646 1.76996 -0.799127 0
M  V30 5653 C 536.776 2.97148 -1.79778 0
M  V30 5654 C 535.73 3.10201 -2.94888 0
M  V30 5655 C 535.056 4.50137 -2.88584 0
M  V30 5656 C 536.356 2.88283 -4.35534 0
M  V30 5657 H 538.05 1.41354 -2.6393 0
M  V30 5658 H 535.596 0.678591 -1.27008 0
M  V30 5659 H 537.549 3.74536 -1.93133 0
M  V30 5660 H 536.273 3.15699 -0.836772 0
M  V30 5661 H 534.932 2.35244 -2.81169 0
M  V30 5662 H 534.58 4.65593 -1.90349 0
M  V30 5663 H 534.28 4.59808 -3.65856 0
M  V30 5664 H 535.804 5.29558 -3.03976 0
M  V30 5665 H 537.218 3.55427 -4.49827 0
M  V30 5666 H 535.615 3.09408 -5.14186 0
M  V30 5667 H 536.685 1.84219 -4.48544 0
M  V30 5668 N 538.028 1.39524 0.732853 0
M  V30 5669 C 539.256 1.40143 1.52209 0
M  V30 5670 C 539.671 -0.00348836 1.888 0
M  V30 5671 O 539.028 -0.975357 1.5425 0
M  V30 5672 C 539.079 2.27632 2.8083 0
M  V30 5673 O 538.8 3.62654 2.45792 0
M  V30 5674 C 540.301 2.36658 3.74844 0
M  V30 5675 H 537.521 0.478604 0.470297 0
M  V30 5676 H 540.065 1.83366 0.905388 0
M  V30 5677 H 538.22 1.87818 3.38826 0
M  V30 5678 H 538.634 4.08941 3.28431 0
M  V30 5679 H 540.108 3.02118 4.61984 0
M  V30 5680 H 540.585 1.38638 4.16745 0
M  V30 5681 H 541.191 2.76951 3.22766 0
M  V30 5682 N 539.506 -0.963266 1.24736 0
M  V30 5683 C 540.746 -1.72172 1.10165 0
M  V30 5684 C 541.11 -1.88731 -0.352784 0
M  V30 5685 O 542.311 -2.61549 -0.620107 0
M  V30 5686 C 540.582 -3.0724 1.82589 0
M  V30 5687 S 542.141 -3.98449 1.83803 0
M  V30 5688 H 538.959 -0.591901 0.393922 0
M  V30 5689 H 541.561 -1.14955 1.58132 0
M  V30 5690 H 540.265 -2.92851 2.87518 0
M  V30 5691 H 539.796 -3.69521 1.34973 0
M  V30 5692 H 541.811 -4.87805 0.908883 0
M  V30 5693 N 540.985 -1.06182 -1.16461 0
M  V30 5694 C 542.234 -0.772927 -1.86303 0
M  V30 5695 C 542.547 0.703187 -1.82523 0
M  V30 5696 O 543.753 1.10641 -2.47933 0
M  V30 5697 C 542.209 -1.33249 -3.34324 0
M  V30 5698 C 541.817 -2.83876 -3.46581 0
M  V30 5699 C 543.561 -1.12108 -4.09429 0
M  V30 5700 C 541.468 -3.33082 -4.88682 0
M  V30 5701 H 540.398 -0.285452 -0.697878 0
M  V30 5702 H 543.049 -1.28039 -1.31447 0
M  V30 5703 H 541.431 -0.7528 -3.88779 0
M  V30 5704 H 542.605 -3.47786 -3.02293 0
M  V30 5705 H 540.92 -3.03671 -2.84909 0
M  V30 5706 H 543.517 -1.46361 -5.14279 0
M  V30 5707 H 543.86 -0.0593832 -4.16258 0
M  V30 5708 H 544.393 -1.6665 -3.6121 0
M  V30 5709 H 541.132 -4.38726 -4.87032 0
M  V30 5710 H 540.652 -2.73919 -5.33599 0
M  V30 5711 H 542.331 -3.28344 -5.57494 0
M  V30 5712 N 542.463 1.3308 -0.844243 0
M  V30 5713 C 543.396 2.27075 -0.226279 0
M  V30 5714 C 544.374 1.49911 0.629716 0
M  V30 5715 O 545.558 1.79068 0.588803 0
M  V30 5716 C 542.685 3.31767 0.681782 0
M  V30 5717 C 541.731 4.26384 -0.0994565 0
M  V30 5718 S 542.564 5.15186 -1.46094 0
M  V30 5719 C 543.72 6.23405 -0.558319 0
M  V30 5720 H 543.953 2.79141 -1.02312 0
M  V30 5721 H 541.486 1.40452 -0.641292 0
M  V30 5722 H 543.444 3.92566 1.20008 0
M  V30 5723 H 542.105 2.78507 1.45234 0
M  V30 5724 H 541.298 5.00514 0.591733 0
M  V30 5725 H 540.9 3.69949 -0.548991 0
M  V30 5726 H 543.192 6.77069 0.241672 0
M  V30 5727 H 544.135 6.96619 -1.26995 0
M  V30 5728 H 544.543 5.64333 -0.13728 0
M  V30 5729 N 543.941 0.601185 1.45683 0
M  V30 5730 C 545.171 0.0999093 2.06358 0
M  V30 5731 C 545.579 -1.21831 1.44754 0
M  V30 5732 O 544.922 -1.75157 0.553695 0
M  V30 5733 C 544.984 -0.12085 3.59297 0
M  V30 5734 C 544.648 1.11459 4.432 0
M  V30 5735 C 545.645 2.03118 4.7858 0
M  V30 5736 C 543.33 1.34162 4.84051 0
M  V30 5737 C 545.324 3.15814 5.53661 0
M  V30 5738 C 543.011 2.4716 5.58888 0
M  V30 5739 C 544.009 3.37814 5.93608 0
M  V30 5740 O 543.697 4.48846 6.66928 0
M  V30 5741 H 543.429 0.0630316 0.673055 0
M  V30 5742 H 545.983 0.826982 1.88016 0
M  V30 5743 H 544.213 -0.902744 3.76015 0
M  V30 5744 H 545.902 -0.572925 4.01836 0
M  V30 5745 H 546.668 1.86801 4.47583 0
M  V30 5746 H 542.547 0.645018 4.56465 0
M  V30 5747 H 546.091 3.86596 5.8068 0
M  V30 5748 H 541.988 2.63432 5.89299 0
M  V30 5749 H 542.756 4.47446 6.85371 0
M  V30 5750 N 545.419 -1.53889 0.339982 0
M  V30 5751 C 546.382 -2.23547 -0.50592 0
M  V30 5752 C 547.382 -1.23445 -1.03044 0
M  V30 5753 O 548.572 -1.47909 -0.920253 0
M  V30 5754 C 545.704 -2.95234 -1.7044 0
M  V30 5755 H 546.897 -2.99722 0.103247 0
M  V30 5756 H 544.45 -1.56033 0.0912804 0
M  V30 5757 H 545.185 -2.23236 -2.35236 0
M  V30 5758 H 544.97 -3.68654 -1.33553 0
M  V30 5759 H 546.46 -3.48258 -2.30447 0
M  V30 5760 N 546.897 -0.0685191 -1.57451 0
M  V30 5761 C 548.146 0.600898 -1.92541 0
M  V30 5762 C 548.459 1.70967 -0.950239 0
M  V30 5763 O 549.665 2.43844 -1.19384 0
M  V30 5764 C 548.121 1.12019 -3.42023 0
M  V30 5765 C 547.729 0.0426028 -4.4798 0
M  V30 5766 C 549.473 1.76386 -3.86119 0
M  V30 5767 C 547.38 0.575759 -5.88591 0
M  V30 5768 H 546.31 0.228225 -0.71863 0
M  V30 5769 H 548.961 -0.140223 -1.82963 0
M  V30 5770 H 547.343 1.91418 -3.46663 0
M  V30 5771 H 548.517 -0.73182 -4.54952 0
M  V30 5772 H 546.832 -0.504642 -4.13331 0
M  V30 5773 H 549.429 2.17302 -4.88553 0
M  V30 5774 H 549.772 2.62255 -3.23308 0
M  V30 5775 H 550.305 1.03615 -3.84069 0
M  V30 5776 H 547.044 -0.245691 -6.55039 0
M  V30 5777 H 546.564 1.31778 -5.85145 0
M  V30 5778 H 548.243 1.0532 -6.3837 0
M  V30 5779 N 548.375 1.56261 0.205012 0
M  V30 5780 C 549.622 1.8004 0.926927 0
M  V30 5781 C 549.95 0.640086 1.83666 0
M  V30 5782 O 549.205 -0.374702 1.92079 0
M  V30 5783 C 549.504 3.09722 1.78345 0
M  V30 5784 C 549.17 4.39082 1.02555 0
M  V30 5785 C 547.832 4.74226 0.816256 0
M  V30 5786 C 550.184 5.18877 0.491559 0
M  V30 5787 C 547.512 5.86668 0.0613287 0
M  V30 5788 C 549.864 6.32105 -0.250107 0
M  V30 5789 C 548.528 6.6584 -0.470508 0
M  V30 5790 H 547.798 0.658812 0.339187 0
M  V30 5791 H 550.445 1.90515 0.19395 0
M  V30 5792 H 548.75 2.9444 2.5848 0
M  V30 5793 H 550.447 3.25324 2.34446 0
M  V30 5794 H 547.037 4.11497 1.19868 0
M  V30 5795 H 551.221 4.92147 0.640684 0
M  V30 5796 H 546.477 6.11283 -0.119501 0
M  V30 5797 H 550.651 6.93157 -0.671307 0
M  V30 5798 H 548.278 7.5281 -1.05739 0
M  V30 5799 N 549.853 -0.472356 1.50355 0
M  V30 5800 C 550.785 -1.58795 1.65278 0
M  V30 5801 C 551.798 -1.53782 0.534313 0
M  V30 5802 O 552.987 -1.59193 0.807446 0
M  V30 5803 C 550.087 -2.97672 1.62001 0
M  V30 5804 C 549.26 -3.27568 2.89859 0
M  V30 5805 C 548.319 -4.45993 2.79242 0
M  V30 5806 O 547.345 -4.46364 3.53197 0
M  V30 5807 N 548.547 -5.47578 1.92713 0
M  V30 5808 H 551.312 -1.46411 2.61503 0
M  V30 5809 H 548.873 -0.660751 1.47803 0
M  V30 5810 H 550.865 -3.74862 1.52513 0
M  V30 5811 H 549.435 -3.03832 0.735159 0
M  V30 5812 H 548.655 -2.39003 3.13483 0
M  V30 5813 H 549.943 -3.44352 3.74565 0
M  V30 5814 H 549.341 -5.50099 1.31939 0
M  V30 5815 H 547.898 -6.23757 1.8913 0
M  V30 5816 N 551.331 -1.39911 -0.725443 0
M  V30 5817 C 552.241 -1.41688 -1.8698 0
M  V30 5818 C 553.257 -0.310579 -1.71206 0
M  V30 5819 O 554.433 -0.55359 -1.93642 0
M  V30 5820 C 551.498 -1.26811 -3.22676 0
M  V30 5821 C 550.559 -2.47497 -3.50776 0
M  V30 5822 C 549.792 -2.3332 -4.79997 0
M  V30 5823 O 550.015 -1.34175 -5.54394 0
M  V30 5824 O 548.949 -3.22498 -5.08211 0
M  V30 5825 H 552.775 -2.38171 -1.88436 0
M  V30 5826 H 550.36 -1.21128 -0.874548 0
M  V30 5827 H 552.242 -1.20684 -4.03749 0
M  V30 5828 H 550.917 -0.334289 -3.21969 0
M  V30 5829 H 549.824 -2.59201 -2.69751 0
M  V30 5830 H 551.157 -3.39606 -3.5627 0
M  V30 5831 N 552.809 0.956637 -1.25245 0
M  V30 5832 C 554.225 1.22733 -1.02023 0
M  V30 5833 C 554.425 1.99761 0.264186 0
M  V30 5834 O 553.481 2.32814 0.977436 0
M  V30 5835 C 554.794 2.00367 -2.24217 0
M  V30 5836 C 556.342 2.13418 -2.28958 0
M  V30 5837 C 556.817 2.9445 -3.50803 0
M  V30 5838 N 558.308 3.02029 -3.51187 0
M  V30 5839 C 559.043 3.65116 -4.42129 0
M  V30 5840 N 558.539 4.2983 -5.43339 0
M  V30 5841 N 560.332 3.62237 -4.29815 0
M  V30 5842 H 552.483 0.441282 -2.07765 0
M  V30 5843 H 554.746 0.257686 -0.912306 0
M  V30 5844 H 554.452 1.51165 -3.17556 0
M  V30 5845 H 554.326 3.01077 -2.27228 0
M  V30 5846 H 556.713 2.61819 -1.36143 0
M  V30 5847 H 556.794 1.1202 -2.29968 0
M  V30 5848 H 556.438 2.46741 -4.43939 0
M  V30 5849 H 556.368 3.9607 -3.47039 0
M  V30 5850 H 558.859 2.56007 -2.77973 0
M  V30 5851 H 559.172 4.75819 -6.08947 0
M  V30 5852 H 557.517 4.28465 -5.47214 0
M  V30 5853 H 560.708 3.10863 -3.49974 0
M  V30 5854 H 560.881 4.11117 -5.00886 0
M  V30 5855 N 554.287 1.06798 1.15896 0
M  V30 5856 C 555.564 0.701057 1.82605 0
M  V30 5857 C 555.944 -0.817066 1.94646 0
M  V30 5858 O 555.292 -1.72933 1.49353 0
M  V30 5859 C 555.502 1.40895 3.19296 0
M  V30 5860 C 556.85 1.55744 3.95005 0
M  V30 5861 O 557.874 1.36927 3.28831 0
M  V30 5862 O 556.733 1.86658 5.13635 0
M  V30 5863 H 553.827 0.248791 0.78869 0
M  V30 5864 H 556.373 1.16857 1.23055 0
M  V30 5865 H 555.145 2.4439 3.05596 0
M  V30 5866 H 554.768 0.931847 3.86526 0
M  V30 5867 N 555.766 -1.3263 0.851289 0
M  V30 5868 C 556.696 -2.31449 0.308771 0
M  V30 5869 C 557.677 -1.59531 -0.590255 0
M  V30 5870 O 558.862 -1.87351 -0.511205 0
M  V30 5871 C 555.992 -3.43586 -0.506548 0
M  V30 5872 C 554.946 -4.26963 0.297753 0
M  V30 5873 C 554.272 -5.30831 -0.642094 0
M  V30 5874 C 555.572 -4.99643 1.52166 0
M  V30 5875 H 557.266 -2.77074 1.13447 0
M  V30 5876 H 554.812 -1.33207 0.546971 0
M  V30 5877 H 556.765 -4.11754 -0.896474 0
M  V30 5878 H 555.489 -2.96681 -1.36558 0
M  V30 5879 H 554.148 -3.60437 0.669391 0
M  V30 5880 H 553.796 -4.8018 -1.49788 0
M  V30 5881 H 553.496 -5.87501 -0.107968 0
M  V30 5882 H 555.02 -6.01862 -1.02927 0
M  V30 5883 H 556.434 -5.6051 1.20421 0
M  V30 5884 H 554.831 -5.66022 1.99347 0
M  V30 5885 H 555.901 -4.27701 2.28474 0
M  V30 5886 N 557.244 -0.608902 -1.45362 0
M  V30 5887 C 558.174 0.0964526 -2.33301 0
M  V30 5888 C 559.155 0.857444 -1.46908 0
M  V30 5889 O 560.34 0.827735 -1.75676 0
M  V30 5890 C 557.47 1.09354 -3.29635 0
M  V30 5891 C 556.424 0.445676 -4.25673 0
M  V30 5892 C 555.75 1.5511 -5.11708 0
M  V30 5893 C 557.05 -0.633972 -5.18438 0
M  V30 5894 H 558.744 -0.637829 -2.92527 0
M  V30 5895 H 556.29 -0.308178 -1.40664 0
M  V30 5896 H 558.243 1.59556 -3.90025 0
M  V30 5897 H 556.967 1.85843 -2.6857 0
M  V30 5898 H 555.626 -0.0354897 -3.66583 0
M  V30 5899 H 555.274 2.30631 -4.4701 0
M  V30 5900 H 554.974 1.12311 -5.76767 0
M  V30 5901 H 556.498 2.05537 -5.74967 0
M  V30 5902 H 557.912 -0.215974 -5.72893 0
M  V30 5903 H 556.309 -0.983789 -5.91981 0
M  V30 5904 H 557.379 -1.51005 -4.60788 0
M  V30 5905 N 558.722 1.53707 -0.348139 0
M  V30 5906 C 559.669 2.25173 0.506518 0
M  V30 5907 C 560.639 1.25174 1.09182 0
M  V30 5908 O 561.824 1.53917 1.12757 0
M  V30 5909 C 558.964 3.03141 1.64923 0
M  V30 5910 C 558.077 4.18002 1.0908 0
M  V30 5911 C 557.212 4.83447 2.20119 0
M  V30 5912 C 556.251 5.90369 1.61651 0
M  V30 5913 N 555.388 6.49575 2.66451 0
M  V30 5914 H 560.228 2.97799 -0.109452 0
M  V30 5915 H 557.765 1.46953 -0.0657866 0
M  V30 5916 H 559.723 3.46607 2.32205 0
M  V30 5917 H 558.353 2.32803 2.23612 0
M  V30 5918 H 557.405 3.79145 0.308783 0
M  V30 5919 H 558.717 4.94892 0.623178 0
M  V30 5920 H 557.871 5.30008 2.95257 0
M  V30 5921 H 556.61 4.05991 2.70227 0
M  V30 5922 H 555.615 5.43186 0.850209 0
M  V30 5923 H 556.84 6.69735 1.1239 0
M  V30 5924 H 554.786 5.74981 3.15805 0
M  V30 5925 H 554.703 7.21952 2.24325 0
M  V30 5926 H 555.971 7.00789 3.41344 0
M  V30 5927 N 560.2 0.0768682 1.57412 0
M  V30 5928 C 561.428 -0.59997 1.9801 0
M  V30 5929 C 561.843 -1.62842 0.955408 0
M  V30 5930 O 561.2 -1.8241 -0.057314 0
M  V30 5931 C 561.251 -1.26401 3.38681 0
M  V30 5932 O 560.972 -0.276723 4.37225 0
M  V30 5933 C 562.473 -2.0282 3.94182 0
M  V30 5934 H 559.693 -0.162239 0.651091 0
M  V30 5935 H 562.237 0.150771 2.03943 0
M  V30 5936 H 560.392 -1.96581 3.33819 0
M  V30 5937 H 560.806 -0.753744 5.19056 0
M  V30 5938 H 562.28 -2.44667 4.94815 0
M  V30 5939 H 562.757 -2.88678 3.31001 0
M  V30 5940 H 563.363 -1.37496 4.02461 0
M  V30 5941 N 561.678 -1.56367 -0.196722 0
M  V30 5942 C 562.925 -1.80529 -0.917366 0
M  V30 5943 C 563.253 -0.649817 -1.83324 0
M  V30 5944 O 562.508 0.36451 -1.92275 0
M  V30 5945 C 562.807 -3.10663 -1.767 0
M  V30 5946 C 562.473 -4.3962 -1.00225 0
M  V30 5947 C 561.135 -4.74653 -0.791095 0
M  V30 5948 C 563.487 -5.1913 -0.464035 0
M  V30 5949 C 560.815 -5.86692 -0.0302155 0
M  V30 5950 C 563.167 -6.31964 0.283625 0
M  V30 5951 C 561.831 -6.65581 0.505813 0
M  V30 5952 H 561.101 -0.660602 -0.335688 0
M  V30 5953 H 563.748 -1.90615 -0.183844 0
M  V30 5954 H 562.053 -2.95807 -2.56915 0
M  V30 5955 H 563.75 -3.26563 -2.32718 0
M  V30 5956 H 560.34 -4.12127 -1.17684 0
M  V30 5957 H 564.524 -4.9248 -0.614575 0
M  V30 5958 H 559.78 -6.11211 0.151917 0
M  V30 5959 H 563.954 -6.92791 0.708057 0
M  V30 5960 H 561.581 -7.52239 1.0973 0
M  V30 5961 N 563.156 0.464375 -1.50603 0
M  V30 5962 C 564.572 0.798684 -1.38178 0
M  V30 5963 C 564.772 1.96568 -0.44308 0
M  V30 5964 O 563.828 2.52252 0.111814 0
M  V30 5965 C 565.141 1.10444 -2.79683 0
M  V30 5966 C 566.689 1.2105 -2.88645 0
M  V30 5967 C 567.164 1.54934 -4.30998 0
M  V30 5968 N 568.655 1.61913 -4.3398 0
M  V30 5969 C 569.39 1.8965 -5.41129 0
M  V30 5970 N 568.886 2.15361 -6.58477 0
M  V30 5971 N 570.679 1.91207 -5.28579 0
M  V30 5972 H 562.83 -0.304603 -2.10204 0
M  V30 5973 H 565.093 -0.0737804 -0.945125 0
M  V30 5974 H 564.799 0.319934 -3.50242 0
M  V30 5975 H 564.673 2.03896 -3.17342 0
M  V30 5976 H 567.06 1.98567 -2.18301 0
M  V30 5977 H 567.141 0.255613 -2.5452 0
M  V30 5978 H 566.785 0.779549 -5.01882 0
M  V30 5979 H 566.715 2.51584 -4.62615 0
M  V30 5980 H 569.206 1.44055 -3.49366 0
M  V30 5981 H 569.519 2.35818 -7.35941 0
M  V30 5982 H 567.864 2.1274 -6.6164 0
M  V30 5983 H 571.055 1.70622 -4.35897 0
M  V30 5984 H 571.228 2.12488 -6.12171 0
M  V30 5985 N 564.634 1.40294 0.718013 0
M  V30 5986 C 565.883 1.37746 1.4734 0
M  V30 5987 C 566.196 -0.0180754 1.95592 0
M  V30 5988 O 567.402 -0.166166 2.70991 0
M  V30 5989 C 565.858 2.4208 2.66318 0
M  V30 5990 C 565.466 3.87432 2.24945 0
M  V30 5991 C 567.21 2.48635 3.44065 0
M  V30 5992 C 565.117 4.83368 3.40748 0
M  V30 5993 H 564.047 0.512165 0.553356 0
M  V30 5994 H 566.698 1.66019 0.781661 0
M  V30 5995 H 565.08 2.06903 3.3765 0
M  V30 5996 H 566.254 4.3174 1.6105 0
M  V30 5997 H 564.569 3.8433 1.60249 0
M  V30 5998 H 567.166 3.17499 4.30231 0
M  V30 5999 H 567.509 1.51611 3.87711 0
M  V30 6000 H 568.042 2.82791 2.79775 0
M  V30 6001 H 564.781 5.81716 3.02136 0
M  V30 6002 H 564.301 4.43726 4.03568 0
M  V30 6003 H 565.98 5.03074 4.06848 0
M  V30 6004 N 566.112 -0.949982 1.2575 0
M  V30 6005 C 567.337 -1.73503 1.13628 0
M  V30 6006 C 567.762 -1.85601 -0.30559 0
M  V30 6007 O 567.12 -1.33984 -1.22139 0
M  V30 6008 C 567.168 -3.1243 1.80055 0
M  V30 6009 O 566.272 -3.97916 1.08336 0
M  V30 6010 H 565.613 -0.532665 0.396439 0
M  V30 6011 H 568.143 -1.19043 1.66403 0
M  V30 6012 H 568.153 -3.62866 1.86527 0
M  V30 6013 H 566.828 -3.02941 2.84956 0
M  V30 6014 H 565.405 -3.56375 1.09777 0
M  V30 6015 N 567.59 -1.07411 -1.15328 0
M  V30 6016 C 568.815 -0.818856 -1.90551 0
M  V30 6017 C 569.24 0.622194 -1.77512 0
M  V30 6018 O 568.598 1.43484 -1.10824 0
M  V30 6019 C 568.646 -1.23267 -3.38877 0
M  V30 6020 O 567.75 -0.378345 -4.10661 0
M  V30 6021 H 567.091 -0.29827 -0.593238 0
M  V30 6022 H 569.621 -1.43289 -1.46046 0
M  V30 6023 H 569.631 -1.20912 -3.89672 0
M  V30 6024 H 568.306 -2.28226 -3.47686 0
M  V30 6025 H 566.883 -0.464437 -3.69996 0
M  V30 6026 N 569.068 1.32177 -0.85831 0
M  V30 6027 C 570.345 1.91781 -0.384624 0
M  V30 6028 C 570.725 1.78171 1.13217 0
M  V30 6029 O 570.073 1.18209 1.95548 0
M  V30 6030 C 570.283 3.38414 -0.853047 0
M  V30 6031 C 571.631 4.15542 -0.872359 0
M  V30 6032 O 572.655 3.47148 -0.797926 0
M  V30 6033 O 571.514 5.37678 -0.978009 0
M  V30 6034 H 568.608 0.819259 -0.112886 0
M  V30 6035 H 571.154 1.40923 -0.945453 0
M  V30 6036 H 569.926 3.4228 -1.89632 0
M  V30 6037 H 569.549 3.96683 -0.269874 0
M  V30 6038 N 570.547 0.616602 1.45037 0
M  V30 6039 C 571.775 0.121968 2.0654 0
M  V30 6040 C 572.19 -1.19743 1.45969 0
M  V30 6041 O 571.547 -1.73133 0.577168 0
M  V30 6042 C 571.598 -0.0145171 3.61497 0
M  V30 6043 O 571.319 1.25269 4.19809 0
M  V30 6044 C 572.82 -0.539555 4.40004 0
M  V30 6045 H 570.04 0.0729837 0.667019 0
M  V30 6046 H 572.584 0.846891 1.8614 0
M  V30 6047 H 570.739 -0.689809 3.81209 0
M  V30 6048 H 571.153 1.08816 5.13088 0
M  V30 6049 H 572.627 -0.584112 5.48901 0
M  V30 6050 H 573.104 -1.56368 4.10421 0
M  V30 6051 H 573.71 0.101995 4.25178 0
M  V30 6052 N 572.025 -1.5352 0.356285 0
M  V30 6053 C 573.272 -2.01117 -0.236303 0
M  V30 6054 C 573.6 -1.24381 -1.49531 0
M  V30 6055 O 572.855 -0.323057 -1.93015 0
M  V30 6056 C 573.154 -3.52607 -0.583369 0
M  V30 6057 C 572.82 -4.47151 0.58023 0
M  V30 6058 C 571.482 -4.72718 0.899528 0
M  V30 6059 C 573.834 -5.03137 1.36024 0
M  V30 6060 C 571.162 -5.51523 2.00098 0
M  V30 6061 C 573.514 -5.83145 2.45204 0
M  V30 6062 C 572.178 -6.07001 2.77679 0
M  V30 6063 H 571.448 -0.735938 -0.0864695 0
M  V30 6064 H 574.095 -1.85209 0.48683 0
M  V30 6065 H 572.4 -3.66413 -1.38739 0
M  V30 6066 H 574.097 -3.86901 -1.05397 0
M  V30 6067 H 570.687 -4.27394 0.321322 0
M  V30 6068 H 574.871 -4.83339 1.12682 0
M  V30 6069 H 570.127 -5.68229 2.25668 0
M  V30 6070 H 574.301 -6.25537 3.06067 0
M  V30 6071 H 571.928 -6.67851 3.63151 0
M  V30 6072 N 573.503 -0.0852151 -1.57369 0
M  V30 6073 C 574.752 0.580443 -1.93168 0
M  V30 6074 C 575.065 1.6995 -0.968319 0
M  V30 6075 O 576.271 2.42564 -1.21963 0
M  V30 6076 C 574.727 1.08386 -3.43192 0
M  V30 6077 C 574.335 -0.00491388 -4.48 0
M  V30 6078 C 576.079 1.72281 -3.87968 0
M  V30 6079 C 573.986 0.513299 -5.89168 0
M  V30 6080 H 572.916 0.22059 -0.72101 0
M  V30 6081 H 575.567 -0.159621 -1.82804 0
M  V30 6082 H 573.949 1.8773 -3.48674 0
M  V30 6083 H 575.123 -0.780032 -4.5415 0
M  V30 6084 H 573.438 -0.548453 -4.12772 0
M  V30 6085 H 576.035 2.12108 -4.9083 0
M  V30 6086 H 576.378 2.58811 -3.26071 0
M  V30 6087 H 576.911 0.995359 -3.85146 0
M  V30 6088 H 573.65 -0.315153 -6.54742 0
M  V30 6089 H 573.17 1.25564 -5.8651 0
M  V30 6090 H 574.849 0.985433 -6.39451 0
M  V30 6091 N 574.981 1.5647 0.188427 0
M  V30 6092 C 576.209 1.85131 0.923803 0
M  V30 6093 C 576.624 0.668537 1.76567 0
M  V30 6094 O 575.981 -0.362662 1.7886 0
M  V30 6095 C 576.032 3.12661 1.81453 0
M  V30 6096 O 575.753 4.26378 1.00665 0
M  V30 6097 C 577.254 3.54548 2.66103 0
M  V30 6098 H 574.474 0.614624 0.269218 0
M  V30 6099 H 577.018 2.03581 0.193671 0
M  V30 6100 H 575.173 2.96088 2.49821 0
M  V30 6101 H 575.587 4.99041 1.61425 0
M  V30 6102 H 577.061 4.4673 3.24247 0
M  V30 6103 H 577.538 2.77853 3.40139 0
M  V30 6104 H 578.144 3.73674 2.03096 0
M  V30 6105 N 576.459 -0.456382 1.50847 0
M  V30 6106 C 577.689 -1.22848 1.66108 0
M  V30 6107 C 578.097 -1.85936 0.349897 0
M  V30 6108 O 577.44 -1.70664 -0.679665 0
M  V30 6109 C 577.502 -2.36722 2.70561 0
M  V30 6110 C 577.166 -1.94154 4.13707 0
M  V30 6111 C 578.163 -1.4557 4.99105 0
M  V30 6112 C 575.848 -2.02426 4.59705 0
M  V30 6113 C 577.842 -1.0582 6.28555 0
M  V30 6114 C 575.529 -1.62287 5.89157 0
M  V30 6115 C 576.527 -1.14064 6.73408 0
M  V30 6116 O 576.215 -0.744873 8.00442 0
M  V30 6117 H 575.947 -0.377105 0.561042 0
M  V30 6118 H 578.501 -0.549431 1.97915 0
M  V30 6119 H 576.731 -3.07844 2.34027 0
M  V30 6120 H 578.42 -2.98646 2.74892 0
M  V30 6121 H 579.186 -1.38589 4.64777 0
M  V30 6122 H 575.065 -2.38908 3.94264 0
M  V30 6123 H 578.609 -0.6811 6.94267 0
M  V30 6124 H 574.506 -1.68932 6.23003 0
M  V30 6125 H 575.274 -0.87242 8.13837 0
M  V30 6126 N 577.937 -1.40673 -0.710563 0
M  V30 6127 C 578.87 -1.35742 -1.83438 0
M  V30 6128 C 579.848 -0.226997 -1.61008 0
M  V30 6129 O 581.032 -0.411477 -1.83954 0
M  V30 6130 C 578.159 -1.11374 -3.19865 0
M  V30 6131 C 577.205 -2.26935 -3.61113 0
M  V30 6132 S 578.038 -3.89352 -3.67648 0
M  V30 6133 C 579.194 -3.67258 -5.06826 0
M  V30 6134 H 579.427 -2.30848 -1.87341 0
M  V30 6135 H 576.96 -1.27018 -0.877831 0
M  V30 6136 H 578.918 -0.980004 -3.9863 0
M  V30 6137 H 577.579 -0.179135 -3.13589 0
M  V30 6138 H 576.772 -2.0554 -4.60184 0
M  V30 6139 H 576.374 -2.36638 -2.89618 0
M  V30 6140 H 578.666 -3.26036 -5.93891 0
M  V30 6141 H 579.609 -4.65878 -5.33257 0
M  V30 6142 H 580.017 -3.0084 -4.77656 0
M  V30 6143 N 579.415 0.9433 -1.26252 0
M  V30 6144 C 580.348 2.04162 -1.01946 0
M  V30 6145 C 581.326 1.62507 0.0550808 0
M  V30 6146 O 582.51 1.883 -0.0869025 0
M  V30 6147 C 579.637 3.34313 -0.54335 0
M  V30 6148 C 578.683 3.94939 -1.61013 0
M  V30 6149 S 579.516 4.29484 -3.19849 0
M  V30 6150 C 580.672 5.62738 -2.74001 0
M  V30 6151 H 580.905 2.24466 -1.94942 0
M  V30 6152 H 578.438 1.08441 -1.09909 0
M  V30 6153 H 580.396 4.09576 -0.275315 0
M  V30 6154 H 579.057 3.11957 0.36629 0
M  V30 6155 H 578.25 4.88812 -1.22795 0
M  V30 6156 H 577.852 3.26202 -1.82943 0
M  V30 6157 H 580.144 6.41356 -2.18333 0
M  V30 6158 H 581.087 6.05839 -3.66558 0
M  V30 6159 H 581.495 5.22514 -2.13634 0
M  V30 6160 N 580.893 1.08022 1.14757 0
M  V30 6161 C 582.121 0.828847 1.89572 0
M  V30 6162 C 582.536 -0.618621 1.78377 0
M  V30 6163 O 581.893 -1.42482 1.1404 0
M  V30 6164 C 581.944 1.23677 3.39685 0
M  V30 6165 O 581.665 2.62746 3.50566 0
M  V30 6166 C 583.166 1.01569 4.31507 0
M  V30 6167 H 580.386 0.299196 0.600602 0
M  V30 6168 H 582.93 1.43846 1.45357 0
M  V30 6169 H 581.085 0.671347 3.81539 0
M  V30 6170 H 581.499 2.79573 4.43778 0
M  V30 6171 H 582.973 1.35055 5.35223 0
M  V30 6172 H 583.45 -0.0475433 4.39174 0
M  V30 6173 H 584.056 1.56636 3.95405 0
M  V30 6174 N 582.371 -1.3172 0.865308 0
M  V30 6175 C 583.301 -2.31109 0.333302 0
M  V30 6176 C 584.282 -1.60148 -0.573301 0
M  V30 6177 O 585.467 -1.87882 -0.491305 0
M  V30 6178 C 582.597 -3.44104 -0.470078 0
M  V30 6179 C 581.551 -4.26623 0.343021 0
M  V30 6180 C 580.877 -5.31482 -0.585756 0
M  V30 6181 C 582.177 -4.98001 1.57456 0
M  V30 6182 H 583.871 -2.75855 1.1638 0
M  V30 6183 H 581.417 -1.3262 0.561069 0
M  V30 6184 H 583.37 -4.12682 -0.852752 0
M  V30 6185 H 582.094 -2.98112 -1.33404 0
M  V30 6186 H 580.753 -3.59707 0.707583 0
M  V30 6187 H 580.401 -4.81741 -1.44686 0
M  V30 6188 H 580.101 -5.87582 -0.0456494 0
M  V30 6189 H 581.625 -6.0292 -0.965375 0
M  V30 6190 H 583.039 -5.59201 1.26359 0
M  V30 6191 H 581.436 -5.63876 2.05339 0
M  V30 6192 H 582.506 -4.25253 2.32997 0
M  V30 6193 N 583.85 -0.624285 -1.44708 0
M  V30 6194 C 584.76 0.0861083 -2.34442 0
M  V30 6195 C 585.776 0.84291 -1.5222 0
M  V30 6196 O 586.952 0.796723 -1.84971 0
M  V30 6197 C 584.017 1.05999 -3.30099 0
M  V30 6198 C 583.077 0.303316 -4.28227 0
M  V30 6199 C 582.311 1.23081 -5.19314 0
M  V30 6200 O 582.534 2.46929 -5.14181 0
M  V30 6201 O 581.468 0.71883 -5.97592 0
M  V30 6202 H 585.293 -0.651756 -2.96624 0
M  V30 6203 H 582.879 -0.384493 -1.44368 0
M  V30 6204 H 584.76 1.62046 -3.88997 0
M  V30 6205 H 583.436 1.77859 -2.70459 0
M  V30 6206 H 582.343 -0.300033 -3.72895 0
M  V30 6207 H 583.676 -0.375123 -4.90768 0
M  V30 6208 N 585.328 1.53329 -0.364422 0
M  V30 6209 C 586.605 1.93557 0.281962 0
M  V30 6210 C 586.985 1.29786 1.6649 0
M  V30 6211 O 586.333 0.456512 2.23893 0
M  V30 6212 C 586.543 3.47405 0.333331 0
M  V30 6213 C 587.891 4.20699 0.574231 0
M  V30 6214 O 588.915 3.53779 0.414588 0
M  V30 6215 O 587.774 5.39287 0.885002 0
M  V30 6216 H 584.868 0.809573 0.168881 0
M  V30 6217 H 587.414 1.64494 -0.417121 0
M  V30 6218 H 586.186 3.86091 -0.636326 0
M  V30 6219 H 585.809 3.82697 1.07836 0
M  V30 6220 N 586.806 0.0935595 1.57322 0
M  V30 6221 C 587.756 -0.876521 2.10478 0
M  V30 6222 C 588.74 -1.24482 1.01946 0
M  V30 6223 O 589.932 -1.22016 1.28223 0
M  V30 6224 C 587.061 -2.13615 2.68745 0
M  V30 6225 C 586.147 -1.79335 3.84317 0
M  V30 6226 N 586.538 -1.15606 4.92411 0
M  V30 6227 C 584.836 -2.08954 3.94023 0
M  V30 6228 C 585.537 -0.999036 5.73057 0
M  V30 6229 N 584.513 -1.51585 5.22037 0
M  V30 6230 H 588.315 -0.379829 2.91435 0
M  V30 6231 H 585.829 -0.109699 1.62029 0
M  V30 6232 H 587.826 -2.84053 3.05155 0
M  V30 6233 H 586.486 -2.63851 1.89242 0
M  V30 6234 H 587.497 -0.823063 5.11318 0
M  V30 6235 H 584.174 -2.61416 3.25527 0
M  V30 6236 H 585.564 -0.500772 6.70031 0
M  V30 6237 N 588.284 -1.56567 -0.180126 0
M  V30 6238 C 589.514 -1.85349 -0.912647 0
M  V30 6239 C 589.922 -0.675795 -1.76719 0
M  V30 6240 O 589.265 0.3645 -1.80047 0
M  V30 6241 C 589.327 -3.08431 -1.84691 0
M  V30 6242 C 588.991 -4.41694 -1.17284 0
M  V30 6243 C 589.988 -5.17062 -0.542532 0
M  V30 6244 C 587.673 -4.8843 -1.17223 0
M  V30 6245 C 589.667 -6.37351 0.0793953 0
M  V30 6246 C 587.354 -6.08652 -0.54647 0
M  V30 6247 C 588.352 -6.82955 0.0782458 0
M  V30 6248 O 588.04 -8.00897 0.694158 0
M  V30 6249 H 587.772 -0.619286 -0.271036 0
M  V30 6250 H 590.326 -2.0454 -0.187768 0
M  V30 6251 H 588.556 -2.85163 -2.61188 0
M  V30 6252 H 590.245 -3.23733 -2.44851 0
M  V30 6253 H 591.011 -4.8204 -0.535045 0
M  V30 6254 H 586.89 -4.30542 -1.64788 0
M  V30 6255 H 590.434 -6.95287 0.567612 0
M  V30 6256 H 586.331 -6.4314 -0.55151 0
M  V30 6257 H 587.099 -8.16352 0.592537 0
M  V30 6258 N 589.762 0.448376 -1.51087 0
M  V30 6259 C 590.712 1.54156 -1.67988 0
M  V30 6260 C 591.696 1.5178 -0.534015 0
M  V30 6261 O 592.888 1.58419 -0.789448 0
M  V30 6262 C 590.017 2.92437 -1.79822 0
M  V30 6263 C 589.103 2.99611 -3.00157 0
M  V30 6264 N 589.494 2.7655 -4.23502 0
M  V30 6265 C 587.792 3.30764 -2.99184 0
M  V30 6266 C 588.493 2.89281 -5.0467 0
M  V30 6267 N 587.469 3.20473 -4.39088 0
M  V30 6268 H 591.271 1.35061 -2.61028 0
M  V30 6269 H 588.785 0.655504 -1.48583 0
M  V30 6270 H 590.782 3.71068 -1.90037 0
M  V30 6271 H 589.442 3.1256 -0.879554 0
M  V30 6272 H 590.453 2.5169 -4.52628 0
M  V30 6273 H 587.13 3.56732 -2.16907 0
M  V30 6274 H 588.52 2.75499 -6.12821 0
M  V30 6275 N 591.24 1.41047 0.703093 0
M  V30 6276 C 592.465 1.43537 1.49706 0
M  V30 6277 C 592.89 0.0401853 1.88057 0
M  V30 6278 O 592.248 -0.954785 1.54122 0
M  V30 6279 C 592.296 2.3433 2.74084 0
M  V30 6280 O 591.4 1.79515 3.71279 0
M  V30 6281 H 590.741 0.487454 0.450871 0
M  V30 6282 H 593.271 1.85422 0.86486 0
M  V30 6283 H 593.281 2.49947 3.22476 0
M  V30 6284 H 591.956 3.35708 2.45506 0
M  V30 6285 H 590.533 1.7331 3.30179 0
M  V30 6286 N 592.718 -0.936591 1.26751 0
M  V30 6287 C 593.995 -1.66094 1.03306 0
M  V30 6288 C 594.375 -2.06568 -0.435058 0
M  V30 6289 O 593.723 -1.79305 -1.41641 0
M  V30 6290 C 593.933 -2.86969 1.98619 0
M  V30 6291 C 595.281 -3.58516 2.27489 0
M  V30 6292 O 596.305 -2.97082 1.96522 0
M  V30 6293 O 595.164 -4.69181 2.80235 0
M  V30 6294 H 592.258 -0.727568 0.393158 0
M  V30 6295 H 594.804 -0.987914 1.3798 0
M  V30 6296 H 593.576 -2.53985 2.9767 0
M  V30 6297 H 593.199 -3.61996 1.64454 0
M  V30 6298 N 594.196 -1.08629 -1.14182 0
M  V30 6299 C 595.442 -0.818556 -1.85546 0
M  V30 6300 C 595.775 0.654076 -1.82854 0
M  V30 6301 O 595.05 1.48099 -1.26083 0
M  V30 6302 C 595.333 -1.34397 -3.3408 0
M  V30 6303 C 595.186 -2.8821 -3.45333 0
M  V30 6304 C 596.505 -0.971069 -4.29253 0
M  V30 6305 H 593.624 -0.298821 -0.673702 0
M  V30 6306 H 596.266 -1.34629 -1.34071 0
M  V30 6307 H 594.416 -0.895064 -3.78049 0
M  V30 6308 H 596.088 -3.41488 -3.10134 0
M  V30 6309 H 594.331 -3.25756 -2.86471 0
M  V30 6310 H 595.002 -3.20047 -4.49749 0
M  V30 6311 H 597.478 -1.35809 -3.93313 0
M  V30 6312 H 596.354 -1.36586 -5.31635 0
M  V30 6313 H 596.615 0.121659 -4.41933 0
M  V30 6314 N 595.674 1.31259 -0.872281 0
M  V30 6315 C 596.637 2.26744 -0.334656 0
M  V30 6316 C 597.637 1.52307 0.515681 0
M  V30 6317 O 598.827 1.71148 0.324656 0
M  V30 6318 C 595.959 3.36841 0.524482 0
M  V30 6319 H 597.152 2.75812 -1.17762 0
M  V30 6320 H 594.705 1.42232 -0.648064 0
M  V30 6321 H 595.44 2.93069 1.38855 0
M  V30 6322 H 595.225 3.92009 -0.0844299 0
M  V30 6323 H 596.715 4.07944 0.892838 0
M  V30 6324 N 597.152 0.631951 1.44375 0
M  V30 6325 C 598.382 0.143658 2.061 0
M  V30 6326 C 598.79 -1.18733 1.47306 0
M  V30 6327 O 598.133 -1.73943 0.590724 0
M  V30 6328 C 598.195 -0.0446102 3.59472 0
M  V30 6329 C 597.859 1.20835 4.40736 0
M  V30 6330 C 598.856 2.13224 4.74164 0
M  V30 6331 C 596.541 1.44399 4.81097 0
M  V30 6332 C 598.535 3.27487 5.46838 0
M  V30 6333 C 596.222 2.58959 5.53519 0
M  V30 6334 C 597.22 3.50329 5.86309 0
M  V30 6335 O 596.908 4.62891 6.57257 0
M  V30 6336 H 596.64 0.0772939 0.671567 0
M  V30 6337 H 599.194 0.866677 1.8622 0
M  V30 6338 H 597.424 -0.822783 3.77845 0
M  V30 6339 H 599.113 -0.487561 4.02961 0
M  V30 6340 H 599.879 1.96253 4.4352 0
M  V30 6341 H 595.758 0.741696 4.54994 0
M  V30 6342 H 599.302 3.98826 5.72349 0
M  V30 6343 H 595.199 2.75873 5.83579 0
M  V30 6344 H 595.967 4.61883 6.75726 0
M  V30 6345 N 598.631 -1.53133 0.372548 0
M  V30 6346 C 599.581 -2.22733 -0.487218 0
M  V30 6347 C 600.565 -1.22506 -1.04312 0
M  V30 6348 O 601.757 -1.47923 -0.972005 0
M  V30 6349 C 598.886 -3.02524 -1.62278 0
M  V30 6350 C 597.972 -4.10133 -1.07943 0
M  V30 6351 N 598.363 -5.05133 -0.259629 0
M  V30 6352 C 596.661 -4.24964 -1.35356 0
M  V30 6353 C 597.362 -5.81687 0.0386656 0
M  V30 6354 N 596.338 -5.40699 -0.560827 0
M  V30 6355 H 600.14 -2.93538 0.145853 0
M  V30 6356 H 597.654 -1.61389 0.180938 0
M  V30 6357 H 599.651 -3.50909 -2.25096 0
M  V30 6358 H 598.311 -2.33252 -2.25884 0
M  V30 6359 H 599.322 -5.178 0.101746 0
M  V30 6360 H 595.999 -3.66919 -1.9919 0
M  V30 6361 H 597.389 -6.68224 0.701841 0
M  V30 6362 N 600.109 -0.101901 -1.5727 0
M  V30 6363 C 601.057 0.872034 -2.15635 0
M  V30 6364 C 602.051 1.28742 -1.10099 0
M  V30 6365 O 603.257 1.26116 -1.28432 0
M  V30 6366 H 599.632 0.299269 -0.689886 0
M  V30 6367 H 601.603 0.355137 -2.96279 0
M  V30 6368 C 600.352 2.11886 -2.7568 0
M  V30 6369 H 599.675 1.80813 -3.56576 0
M  V30 6370 H 601.115 2.78077 -3.20077 0
M  V30 6371 C 599.574 2.89739 -1.7191 0
M  V30 6372 O 600.104 3.84522 -1.16213 0
M  V30 6373 N 598.31 2.53407 -1.42245 0
M  V30 6374 H 597.857 1.76398 -1.87727 0
M  V30 6375 H 597.815 3.05795 -0.730529 0
M  V30 6376 N 601.587 1.56661 0.17182 0
M  V30 6377 C 602.812 1.86459 0.908165 0
M  V30 6378 C 603.237 0.688181 1.75059 0
M  V30 6379 O 602.595 -0.362753 1.77634 0
M  V30 6380 C 602.643 3.14669 1.76112 0
M  V30 6381 O 601.747 2.96858 2.86268 0
M  V30 6382 H 601.088 0.613318 0.254434 0
M  V30 6383 H 603.618 2.03892 0.170113 0
M  V30 6384 H 603.628 3.46061 2.16115 0
M  V30 6385 H 602.303 3.99905 1.14233 0
M  V30 6386 H 600.88 2.76819 2.49852 0
M  V30 6387 N 603.065 -0.440357 1.51323 0
M  V30 6388 C 603.995 -1.54174 1.75364 0
M  V30 6389 C 604.976 -1.59039 0.603375 0
M  V30 6390 O 606.161 -1.74815 0.845774 0
M  V30 6391 C 603.291 -2.92277 1.87593 0
M  V30 6392 C 602.245 -3.02274 3.03009 0
M  V30 6393 C 601.571 -4.42327 3.00418 0
M  V30 6394 C 602.871 -2.76634 4.43024 0
M  V30 6395 H 604.565 -1.34307 2.67585 0
M  V30 6396 H 602.111 -0.644678 1.28763 0
M  V30 6397 H 604.064 -3.69284 2.02995 0
M  V30 6398 H 602.788 -3.13369 0.920179 0
M  V30 6399 H 601.447 -2.27706 2.87307 0
M  V30 6400 H 601.095 -4.60382 2.02626 0
M  V30 6401 H 600.795 -4.49946 3.77918 0
M  V30 6402 H 602.319 -5.21312 3.17909 0
M  V30 6403 H 603.733 -3.43376 4.59093 0
M  V30 6404 H 602.13 -2.95666 5.22208 0
M  V30 6405 H 603.2 -1.72262 4.5327 0
M  V30 6406 N 604.543 -1.41418 -0.695603 0
M  V30 6407 C 605.493 -1.39731 -1.80165 0
M  V30 6408 C 606.477 -0.271689 -1.5859 0
M  V30 6409 O 607.669 -0.512354 -1.69422 0
M  V30 6410 C 604.798 -1.28187 -3.1847 0
M  V30 6411 C 603.884 -2.45612 -3.45739 0
M  V30 6412 N 604.275 -3.71077 -3.43708 0
M  V30 6413 C 602.573 -2.39424 -3.76288 0
M  V30 6414 C 603.274 -4.48957 -3.69882 0
M  V30 6415 N 602.25 -3.7907 -3.89624 0
M  V30 6416 H 606.052 -2.34656 -1.76957 0
M  V30 6417 H 603.566 -1.35473 -0.89559 0
M  V30 6418 H 605.563 -1.2506 -3.977 0
M  V30 6419 H 604.223 -0.342468 -3.22889 0
M  V30 6420 H 605.234 -4.03963 -3.2409 0
M  V30 6421 H 601.911 -1.53955 -3.88077 0
M  V30 6422 H 603.301 -5.57887 -3.74448 0
M  V30 6423 N 606.021 0.929856 -1.27246 0
M  V30 6424 C 606.984 2.01172 -1.09829 0
M  V30 6425 C 607.984 1.60743 -0.0429687 0
M  V30 6426 O 609.174 1.71813 -0.287373 0
M  V30 6427 C 606.306 3.34191 -0.673003 0
M  V30 6428 H 607.499 2.18054 -2.05895 0
M  V30 6429 H 605.052 1.11036 -1.10003 0
M  V30 6430 H 605.787 3.23009 0.289134 0
M  V30 6431 H 605.572 3.64892 -1.43515 0
M  V30 6432 H 607.062 4.13646 -0.573323 0
M  V30 6433 N 607.499 1.09233 1.13605 0
M  V30 6434 C 608.462 0.733553 2.17144 0
M  V30 6435 C 609.462 -0.235873 1.59061 0
M  V30 6436 O 610.652 -0.0143167 1.74194 0
M  V30 6437 C 607.784 0.084471 3.40795 0
M  V30 6438 H 608.977 1.65049 2.50397 0
M  V30 6439 H 606.53 0.891264 1.28399 0
M  V30 6440 H 607.265 -0.843795 3.1313 0
M  V30 6441 H 607.05 0.781985 3.84223 0
M  V30 6442 H 608.54 -0.151216 4.17326 0
M  V30 6443 N 608.977 -1.30795 0.87923 0
M  V30 6444 C 610.254 -1.91145 0.415086 0
M  V30 6445 C 610.634 -1.7995 -1.10368 0
M  V30 6446 O 609.982 -1.21305 -1.93642 0
M  V30 6447 C 610.192 -3.37014 0.906778 0
M  V30 6448 C 611.54 -4.14101 0.938358 0
M  V30 6449 O 612.564 -3.45834 0.853053 0
M  V30 6450 O 611.423 -5.36054 1.06342 0
M  V30 6451 H 608.517 -0.81736 0.125905 0
M  V30 6452 H 611.063 -1.39401 0.967753 0
M  V30 6453 H 609.835 -3.3922 1.95053 0
M  V30 6454 H 609.458 -3.96204 0.332948 0
M  V30 6455 N 610.455 -0.639598 -1.44038 0
M  V30 6456 C 611.701 -0.147698 -2.02261 0
M  V30 6457 C 612.034 1.23031 -1.50256 0
M  V30 6458 O 611.309 1.81847 -0.690068 0
M  V30 6459 C 611.592 -0.14362 -3.59813 0
M  V30 6460 C 611.445 -1.55458 -4.22082 0
M  V30 6461 C 612.764 0.527317 -4.36929 0
M  V30 6462 H 609.883 -0.0551453 -0.734934 0
M  V30 6463 H 612.525 -0.817688 -1.71505 0
M  V30 6464 H 610.675 0.426898 -3.86147 0
M  V30 6465 H 612.347 -2.17464 -4.06826 0
M  V30 6466 H 610.59 -2.10594 -3.79253 0
M  V30 6467 H 611.261 -1.50369 -5.31124 0
M  V30 6468 H 613.737 0.0420504 -4.16079 0
M  V30 6469 H 612.613 0.499389 -5.46624 0
M  V30 6470 H 612.874 1.59914 -4.12165 0
M  V30 6471 N 611.933 1.52934 -0.380664 0
M  V30 6472 C 612.896 2.24809 0.446473 0
M  V30 6473 C 613.896 1.26133 0.997347 0
M  V30 6474 O 615.086 1.50297 0.880714 0
M  V30 6475 C 612.218 2.99649 1.62553 0
M  V30 6476 H 613.411 2.99343 -0.182677 0
M  V30 6477 H 610.964 1.55736 -0.132618 0
M  V30 6478 H 611.699 2.29395 2.29235 0
M  V30 6479 H 611.484 3.72066 1.23732 0
M  V30 6480 H 612.974 3.54246 2.21133 0
M  V30 6481 N 613.412 0.11024 1.57214 0
M  V30 6482 C 614.344 -0.873497 2.11902 0
M  V30 6483 C 615.357 -1.23588 1.05971 0
M  V30 6484 O 616.546 -1.18636 1.33371 0
M  V30 6485 C 613.646 -2.17805 2.59643 0
M  V30 6486 C 612.819 -1.98869 3.89576 0
M  V30 6487 C 611.878 -3.12974 4.23006 0
M  V30 6488 O 610.904 -2.86272 4.91973 0
M  V30 6489 N 612.106 -4.39167 3.79622 0
M  V30 6490 H 614.871 -0.406317 2.96933 0
M  V30 6491 H 612.432 -0.074437 1.61729 0
M  V30 6492 H 614.424 -2.93117 2.79042 0
M  V30 6493 H 612.994 -2.55899 1.7954 0
M  V30 6494 H 612.214 -1.078 3.79174 0
M  V30 6495 H 613.502 -1.83512 4.74553 0
M  V30 6496 H 612.9 -4.63739 3.2398 0
M  V30 6497 H 611.457 -5.11379 4.04147 0
M  V30 6498 N 614.89 -1.56749 -0.16351 0
M  V30 6499 C 616.115 -1.86938 -0.898264 0
M  V30 6500 C 616.54 -0.697456 -1.74692 0
M  V30 6501 O 615.898 0.353327 -1.77824 0
M  V30 6502 C 615.946 -3.15599 -1.74441 0
M  V30 6503 O 615.05 -2.98371 -2.8469 0
M  V30 6504 H 614.391 -0.614659 -0.251178 0
M  V30 6505 H 616.921 -2.03979 -0.159298 0
M  V30 6506 H 616.931 -3.47202 -2.14277 0
M  V30 6507 H 615.606 -4.00505 -1.1211 0
M  V30 6508 H 614.183 -2.7814 -2.4838 0
M  V30 6509 N 616.368 0.432326 -1.51554 0
M  V30 6510 C 617.596 1.20364 -1.68286 0
M  V30 6511 C 618.011 1.84888 -0.38233 0
M  V30 6512 O 617.368 1.70924 0.639627 0
M  V30 6513 C 617.419 2.28398 -2.80208 0
M  V30 6514 O 617.14 1.66512 -4.05223 0
M  V30 6515 C 618.641 3.18584 -3.08251 0
M  V30 6516 H 615.861 0.36259 -0.564596 0
M  V30 6517 H 618.405 0.511647 -1.97996 0
M  V30 6518 H 616.56 2.93305 -2.53083 0
M  V30 6519 H 616.974 2.37951 -4.67418 0
M  V30 6520 H 618.448 3.90511 -3.90135 0
M  V30 6521 H 618.925 3.79628 -2.2086 0
M  V30 6522 H 619.531 2.59372 -3.37055 0
M  V30 6523 N 617.846 1.41785 0.688094 0
M  V30 6524 C 618.796 1.40684 1.79421 0
M  V30 6525 C 619.78 0.280096 1.58443 0
M  V30 6526 O 620.972 0.521332 1.69148 0
M  V30 6527 C 618.101 1.29874 3.17785 0
M  V30 6528 C 617.187 2.47442 3.44432 0
M  V30 6529 N 617.578 3.72895 3.41736 0
M  V30 6530 C 615.876 2.41416 3.75013 0
M  V30 6531 C 616.577 4.50912 3.67496 0
M  V30 6532 N 615.553 3.81131 3.87608 0
M  V30 6533 H 619.355 2.35591 1.7571 0
M  V30 6534 H 616.869 1.35946 0.888393 0
M  V30 6535 H 618.866 1.27168 3.97031 0
M  V30 6536 H 617.526 0.359587 3.22703 0
M  V30 6537 H 618.537 4.05676 3.21943 0
M  V30 6538 H 615.214 1.56011 3.87256 0
M  V30 6539 H 616.604 5.59865 3.71484 0
M  V30 6540 N 619.324 -0.923095 1.27737 0
M  V30 6541 C 620.57 -1.67375 1.14514 0
M  V30 6542 C 620.903 -1.91751 -0.307424 0
M  V30 6543 O 620.178 -1.51119 -1.22447 0
M  V30 6544 C 620.461 -3.03745 1.9342 0
M  V30 6545 C 620.314 -2.86581 3.46686 0
M  V30 6546 C 621.633 -4.04144 1.74228 0
M  V30 6547 H 618.752 -0.607427 0.417374 0
M  V30 6548 H 621.394 -1.07089 1.56946 0
M  V30 6549 H 619.544 -3.55204 1.5736 0
M  V30 6550 H 621.216 -2.42203 3.92601 0
M  V30 6551 H 619.459 -2.21829 3.72793 0
M  V30 6552 H 620.13 -3.83381 3.97143 0
M  V30 6553 H 622.606 -3.61712 2.05678 0
M  V30 6554 H 621.482 -4.97543 2.31824 0
M  V30 6555 H 621.743 -4.36661 0.691373 0
M  V30 6556 N 620.802 -1.09834 -1.13024 0
M  V30 6557 C 621.732 -0.763451 -2.20666 0
M  V30 6558 C 622.713 0.260778 -1.68089 0
M  V30 6559 O 623.898 0.127915 -1.93778 0
M  V30 6560 C 621.028 -0.187744 -3.46792 0
M  V30 6561 C 619.982 -1.14196 -4.12484 0
M  V30 6562 C 619.308 -0.427755 -5.32986 0
M  V30 6563 C 620.608 -2.48607 -4.59338 0
M  V30 6564 H 622.302 -1.66347 -2.48936 0
M  V30 6565 H 619.848 -0.801261 -1.19649 0
M  V30 6566 H 621.801 0.0586375 -4.21359 0
M  V30 6567 H 620.525 0.747485 -3.17931 0
M  V30 6568 H 619.184 -1.37369 -3.3989 0
M  V30 6569 H 618.832 0.511747 -5.0039 0
M  V30 6570 H 618.532 -1.06403 -5.77886 0
M  V30 6571 H 620.056 -0.189772 -6.10305 0
M  V30 6572 H 621.47 -2.29618 -5.25308 0
M  V30 6573 H 619.867 -3.08062 -5.14993 0
M  V30 6574 H 620.937 -3.09062 -3.73642 0
M  V30 6575 N 622.28 1.30327 -0.886154 0
M  V30 6576 C 623.21 2.30549 -0.370028 0
M  V30 6577 C 624.191 1.61039 0.547751 0
M  V30 6578 O 625.376 1.8864 0.461353 0
M  V30 6579 C 622.506 3.44808 0.415275 0
M  V30 6580 C 621.46 4.26024 -0.41085 0
M  V30 6581 C 620.786 5.32347 0.501128 0
M  V30 6582 C 622.086 4.95433 -1.65359 0
M  V30 6583 H 623.78 2.73969 -1.20754 0
M  V30 6584 H 621.326 1.3171 -0.582097 0
M  V30 6585 H 623.279 4.13986 0.78699 0
M  V30 6586 H 622.003 3.00197 1.28644 0
M  V30 6587 H 620.662 3.58535 -0.764719 0
M  V30 6588 H 620.31 4.83982 1.37004 0
M  V30 6589 H 620.01 5.87581 -0.0478356 0
M  V30 6590 H 621.534 6.0438 0.869333 0
M  V30 6591 H 622.948 5.5712 -1.35239 0
M  V30 6592 H 621.345 5.60537 -2.14284 0
M  V30 6593 H 622.415 4.21493 -2.39733 0
M  V30 6594 N 623.758 0.647228 1.43697 0
M  V30 6595 C 624.983 0.164083 2.0675 0
M  V30 6596 C 625.408 -1.15892 1.48158 0
M  V30 6597 O 624.766 -1.71459 0.589194 0
M  V30 6598 C 624.814 0.0800368 3.60511 0
M  V30 6599 O 623.918 -0.959453 4.01084 0
M  V30 6600 H 623.259 0.0921288 0.657578 0
M  V30 6601 H 625.789 0.88846 1.84303 0
M  V30 6602 H 625.799 -0.105263 4.07864 0
M  V30 6603 H 624.474 1.04586 4.02535 0
M  V30 6604 H 623.051 -0.747425 3.65333 0
M  V30 6605 N 625.236 -1.5273 0.388769 0
M  V30 6606 C 626.464 -2.05992 -0.193677 0
M  V30 6607 C 626.879 -1.26053 -1.40557 0
M  V30 6608 O 626.236 -0.307049 -1.79898 0
M  V30 6609 C 626.287 -3.57068 -0.564321 0
M  V30 6610 O 626.008 -4.3398 0.599422 0
M  V30 6611 C 627.509 -4.26674 -1.20269 0
M  V30 6612 H 624.729 -0.670358 -0.0293445 0
M  V30 6613 H 627.273 -1.96857 0.553844 0
M  V30 6614 H 625.428 -3.66277 -1.26174 0
M  V30 6615 H 625.842 -5.2367 0.294895 0
M  V30 6616 H 627.316 -5.33625 -1.4124 0
M  V30 6617 H 627.793 -3.81854 -2.16989 0
M  V30 6618 H 628.399 -4.2178 -0.546047 0
M  V30 6619 N 626.714 -0.118576 -1.57153 0
M  V30 6620 C 628.125 0.40687 -1.82213 0
M  V30 6621 C 628.476 1.66636 -1.03571 0
M  V30 6622 O 627.601 2.14682 -0.272171 0
M  V30 6623 C 628.196 0.744949 -3.30509 0
M  V30 6624 C 626.755 1.21503 -3.5625 0
M  V30 6625 C 625.902 0.223511 -2.76398 0
M  V30 6626 H 628.853 -0.343712 -1.54933 0
M  V30 6627 H 628.874 1.6024 -3.45114 0
M  V30 6628 H 628.386 -0.171911 -3.87719 0
M  V30 6629 H 626.487 2.1488 -3.04396 0
M  V30 6630 H 626.6 1.16065 -4.64829 0
M  V30 6631 H 624.964 0.71046 -2.44591 0
M  V30 6632 H 625.747 -0.686439 -3.36367 0
M  V30 6633 N 628.193 1.56834 0.155195 0
M  V30 6634 C 629.156 1.96748 1.17571 0
M  V30 6635 C 630.156 0.853006 1.3631 0
M  V30 6636 O 631.346 1.11978 1.33441 0
M  V30 6637 C 628.478 2.27631 2.53765 0
M  V30 6638 H 629.671 2.88085 0.833498 0
M  V30 6639 H 627.224 1.51141 0.398242 0
M  V30 6640 H 627.959 1.39059 2.92973 0
M  V30 6641 H 627.744 3.0888 2.41527 0
M  V30 6642 H 629.234 2.59377 3.27282 0
M  V30 6643 N 629.671 -0.424282 1.51781 0
M  V30 6644 C 630.601 -1.52305 1.7699 0
M  V30 6645 C 631.582 -1.5839 0.620209 0
M  V30 6646 O 632.767 -1.73908 0.864268 0
M  V30 6647 C 629.897 -2.90271 1.90683 0
M  V30 6648 C 628.851 -2.99043 3.06198 0
M  V30 6649 C 628.177 -4.39116 3.05092 0
M  V30 6650 C 629.477 -2.7192 4.45934 0
M  V30 6651 H 631.171 -1.31461 2.68995 0
M  V30 6652 H 628.717 -0.630985 1.29439 0
M  V30 6653 H 630.67 -3.6711 2.06901 0
M  V30 6654 H 629.394 -3.12376 0.953365 0
M  V30 6655 H 628.053 -2.24646 2.89706 0
M  V30 6656 H 627.701 -4.58207 2.07498 0
M  V30 6657 H 627.401 -4.45912 3.82669 0
M  V30 6658 H 628.925 -5.17911 3.2342 0
M  V30 6659 H 630.339 -3.38487 4.62709 0
M  V30 6660 H 628.736 -2.90111 5.25315 0
M  V30 6661 H 629.806 -1.67445 4.55072 0
M  V30 6662 N 631.149 -1.42148 -0.680565 0
M  V30 6663 C 632.426 -1.32795 -1.43614 0
M  V30 6664 C 632.806 0.037415 -2.11067 0
M  V30 6665 O 632.154 1.05258 -2.02813 0
M  V30 6666 C 632.364 -2.49206 -2.44331 0
M  V30 6667 C 633.712 -2.91059 -3.09144 0
M  V30 6668 O 634.736 -2.49054 -2.54657 0
M  V30 6669 O 633.595 -3.63741 -4.07866 0
M  V30 6670 H 630.689 -0.523397 -0.640301 0
M  V30 6671 H 633.235 -1.54144 -0.709775 0
M  V30 6672 H 632.007 -3.40252 -1.93247 0
M  V30 6673 H 631.63 -2.29813 -3.24456 0
M  V30 6674 N 632.627 0.916307 -1.28225 0
M  V30 6675 C 633.59 1.99996 -1.11957 0
M  V30 6676 C 634.59 1.60688 -0.0600152 0
M  V30 6677 O 635.78 1.71499 -0.30558 0
M  V30 6678 C 632.912 3.33458 -0.708411 0
M  V30 6679 H 634.105 2.15858 -2.08196 0
M  V30 6680 H 631.658 1.09863 -1.11175 0
M  V30 6681 H 632.393 3.23297 0.254859 0
M  V30 6682 H 632.178 3.63349 -1.47377 0
M  V30 6683 H 633.668 4.13014 -0.617164 0
M  V30 6684 N 634.105 1.10431 1.1244 0
M  V30 6685 C 635.351 0.847972 1.84221 0
M  V30 6686 C 635.684 -0.624903 1.83871 0
M  V30 6687 O 634.959 -1.46074 1.28423 0
M  V30 6688 C 635.242 1.39695 3.319 0
M  V30 6689 C 635.095 2.93668 3.40704 0
M  V30 6690 C 636.414 1.03924 4.27654 0
M  V30 6691 H 633.533 0.309502 0.668863 0
M  V30 6692 H 636.175 1.36745 1.31912 0
M  V30 6693 H 634.325 0.955095 3.76577 0
M  V30 6694 H 635.997 3.46379 3.04662 0
M  V30 6695 H 634.24 3.30272 2.81252 0
M  V30 6696 H 634.911 3.27162 4.446 0
M  V30 6697 H 637.387 1.42049 3.91102 0
M  V30 6698 H 636.263 1.45027 5.29394 0
M  V30 6699 H 636.524 -0.051336 4.4207 0
M  V30 6700 N 635.583 -1.29855 0.893053 0
M  V30 6701 C 636.83 -1.95826 0.515585 0
M  V30 6702 C 637.158 -1.70451 -0.936842 0
M  V30 6703 O 636.413 -1.00657 -1.67829 0
M  V30 6704 C 636.712 -3.49515 0.746588 0
M  V30 6705 C 636.378 -3.94955 2.17535 0
M  V30 6706 C 635.04 -4.07073 2.56603 0
M  V30 6707 C 637.392 -4.18536 3.10607 0
M  V30 6708 C 634.72 -4.40138 3.87938 0
M  V30 6709 C 637.072 -4.53073 4.41484 0
M  V30 6710 C 635.736 -4.634 4.80434 0
M  V30 6711 H 635.006 -0.71658 0.188666 0
M  V30 6712 H 637.653 -1.54574 1.13045 0
M  V30 6713 H 635.958 -3.9177 0.0487551 0
M  V30 6714 H 637.655 -3.98644 0.434009 0
M  V30 6715 H 634.245 -3.86035 1.86212 0
M  V30 6716 H 638.429 -4.08646 2.81641 0
M  V30 6717 H 633.685 -4.46335 4.17846 0
M  V30 6718 H 637.859 -4.70269 5.13634 0
M  V30 6719 H 635.486 -4.88775 5.82239 0
M  V30 6720 N 637.061 -0.65484 -1.43351 0
M  V30 6721 C 638.289 -0.176685 -2.06144 0
M  V30 6722 C 638.704 1.15831 -1.49093 0
M  V30 6723 O 638.061 1.71542 -0.622868 0
M  V30 6724 C 638.112 -0.0813326 -3.61408 0
M  V30 6725 O 637.833 -1.36355 -4.1634 0
M  V30 6726 C 639.334 0.422706 -4.4128 0
M  V30 6727 H 636.554 -0.0906429 -0.66485 0
M  V30 6728 H 639.098 -0.895945 -1.83829 0
M  V30 6729 H 637.253 0.588496 -3.82904 0
M  V30 6730 H 637.667 -1.22381 -5.10023 0
M  V30 6731 H 639.141 0.438375 -5.50257 0
M  V30 6732 H 639.618 1.45432 -4.14423 0
M  V30 6733 H 640.224 -0.214687 -4.24758 0
M  V30 6734 N 638.539 1.52521 -0.396863 0
M  V30 6735 C 639.816 1.94112 0.240842 0
M  V30 6736 C 640.196 1.33288 1.637 0
M  V30 6737 O 639.544 0.503901 2.22875 0
M  V30 6738 C 639.754 3.48033 0.259567 0
M  V30 6739 C 641.102 4.21822 0.484866 0
M  V30 6740 O 642.126 3.54579 0.339453 0
M  V30 6741 O 640.985 5.41042 0.770412 0
M  V30 6742 H 638.079 0.812973 0.151671 0
M  V30 6743 H 640.625 1.63572 -0.451918 0
M  V30 6744 H 639.397 3.84655 -0.718078 0
M  V30 6745 H 639.02 3.84899 0.996937 0
M  V30 6746 N 640.017 0.126909 1.57088 0
M  V30 6747 C 640.947 -0.816847 2.18746 0
M  V30 6748 C 641.928 -1.27161 1.12979 0
M  V30 6749 O 643.113 -1.33279 1.41246 0
M  V30 6750 C 640.243 -2.06398 2.79315 0
M  V30 6751 C 639.197 -1.74673 3.90735 0
M  V30 6752 C 638.523 -3.06482 4.38147 0
M  V30 6753 C 639.823 -1.0089 5.12463 0
M  V30 6754 H 641.517 -0.303032 2.97863 0
M  V30 6755 H 639.063 -0.144314 1.43275 0
M  V30 6756 H 641.016 -2.72885 3.2111 0
M  V30 6757 H 639.74 -2.60118 1.975 0
M  V30 6758 H 638.399 -1.10572 3.49527 0
M  V30 6759 H 638.047 -3.58152 3.5318 0
M  V30 6760 H 637.747 -2.86025 5.13287 0
M  V30 6761 H 639.271 -3.74073 4.82599 0
M  V30 6762 H 640.685 -1.57546 5.51228 0
M  V30 6763 H 639.082 -0.905006 5.93237 0
M  V30 6764 H 640.152 0.00297335 4.849 0
M  V30 6765 N 641.495 -1.56914 -0.146875 0
M  V30 6766 C 642.405 -2.0154 -1.20079 0
M  V30 6767 C 643.421 -0.930838 -1.47008 0
M  V30 6768 O 644.597 -1.24032 -1.58676 0
M  V30 6769 C 641.662 -2.38715 -2.51428 0
M  V30 6770 C 640.723 -3.6112 -2.32145 0
M  V30 6771 C 639.956 -3.96512 -3.57231 0
M  V30 6772 O 640.179 -3.32566 -4.63418 0
M  V30 6773 O 639.113 -4.89758 -3.49887 0
M  V30 6774 H 642.939 -2.91506 -0.851924 0
M  V30 6775 H 640.524 -1.45106 -0.355607 0
M  V30 6776 H 642.406 -2.63485 -3.28867 0
M  V30 6777 H 641.081 -1.51903 -2.85845 0
M  V30 6778 H 639.988 -3.41536 -1.52656 0
M  V30 6779 H 641.321 -4.48549 -2.02644 0
M  V30 6780 N 642.974 0.416227 -1.52004 0
M  V30 6781 C 644.223 1.16088 -1.64944 0
M  V30 6782 C 644.536 1.91835 -0.381928 0
M  V30 6783 O 645.742 2.6867 -0.391013 0
M  V30 6784 C 644.198 2.1124 -2.91386 0
M  V30 6785 C 643.806 1.41042 -4.25219 0
M  V30 6786 C 645.55 2.86008 -3.13688 0
M  V30 6787 C 643.457 2.34801 -5.42791 0
M  V30 6788 H 642.387 0.437041 -0.61442 0
M  V30 6789 H 645.038 0.425971 -1.78487 0
M  V30 6790 H 643.42 2.88254 -2.71525 0
M  V30 6791 H 644.594 0.694416 -4.55538 0
M  V30 6792 H 642.909 0.78344 -4.08964 0
M  V30 6793 H 645.506 3.56286 -3.98703 0
M  V30 6794 H 645.849 3.48556 -2.27628 0
M  V30 6795 H 646.382 2.16095 -3.33988 0
M  V30 6796 H 643.121 1.7691 -6.31176 0
M  V30 6797 H 642.641 3.04395 -5.16821 0
M  V30 6798 H 644.32 2.9548 -5.75587 0
M  V30 6799 N 644.452 1.42507 0.673017 0
M  V30 6800 C 645.382 1.48916 1.79851 0
M  V30 6801 C 646.363 0.345566 1.66553 0
M  V30 6802 O 647.548 0.560116 1.85947 0
M  V30 6803 C 644.678 1.39258 3.18158 0
M  V30 6804 C 643.632 2.51662 3.46194 0
M  V30 6805 C 642.958 2.27062 4.84094 0
M  V30 6806 C 644.258 3.93968 3.42909 0
M  V30 6807 H 645.952 2.43114 1.74745 0
M  V30 6808 H 643.498 1.17013 0.839288 0
M  V30 6809 H 645.451 1.42349 3.96629 0
M  V30 6810 H 644.175 0.415542 3.23946 0
M  V30 6811 H 642.834 2.47891 2.70084 0
M  V30 6812 H 642.482 1.27648 4.86534 0
M  V30 6813 H 642.182 3.02398 5.03815 0
M  V30 6814 H 643.706 2.31905 5.64847 0
M  V30 6815 H 645.12 3.99332 4.11347 0
M  V30 6816 H 643.517 4.6917 3.74165 0
M  V30 6817 H 644.587 4.20512 2.41449 0
M  V30 6818 N 645.93 -0.909495 1.28709 0
M  V30 6819 C 646.893 -1.99399 1.13016 0
M  V30 6820 C 647.893 -1.60654 0.068536 0
M  V30 6821 O 649.083 -1.71334 0.314671 0
M  V30 6822 C 646.215 -3.33078 0.726085 0
M  V30 6823 H 647.408 -2.14751 2.09338 0
M  V30 6824 H 644.961 -1.09272 1.11756 0
M  V30 6825 H 645.696 -3.23428 -0.23771 0
M  V30 6826 H 645.481 -3.62562 1.49302 0
M  V30 6827 H 646.971 -4.12681 0.639058 0
M  V30 6828 N 647.408 -1.11026 -1.11852 0
M  V30 6829 C 648.371 -0.768006 -2.1595 0
M  V30 6830 C 649.371 0.210538 -1.59416 0
M  V30 6831 O 650.561 -0.0133978 -1.74195 0
M  V30 6832 C 647.693 -0.138678 -3.40618 0
M  V30 6833 H 648.886 -1.69012 -2.4774 0
M  V30 6834 H 646.439 -0.911578 -1.26964 0
M  V30 6835 H 647.174 0.793872 -3.14433 0
M  V30 6836 H 646.959 -0.843012 -3.8293 0
M  V30 6837 H 648.449 0.0848039 -4.17514 0
M  V30 6838 N 648.886 1.2938 -0.899927 0
M  V30 6839 C 650.135 1.9483 -0.521937 0
M  V30 6840 C 650.448 1.71725 0.936473 0
M  V30 6841 O 651.654 2.31282 1.42199 0
M  V30 6842 C 650.11 3.48911 -0.88255 0
M  V30 6843 C 649.718 3.80815 -2.35974 0
M  V30 6844 C 651.462 4.20595 -0.57448 0
M  V30 6845 C 649.369 5.28142 -2.66121 0
M  V30 6846 H 648.299 0.729285 -0.191468 0
M  V30 6847 H 650.95 1.47103 -1.09695 0
M  V30 6848 H 649.332 3.95293 -0.236459 0
M  V30 6849 H 650.506 3.45291 -3.05141 0
M  V30 6850 H 648.821 3.22271 -2.63686 0
M  V30 6851 H 651.418 5.29031 -0.776556 0
M  V30 6852 H 651.761 4.13442 0.487005 0
M  V30 6853 H 652.294 3.79945 -1.17842 0
M  V30 6854 H 649.033 5.4036 -3.71068 0
M  V30 6855 H 648.553 5.64913 -2.01578 0
M  V30 6856 H 650.232 5.95738 -2.52399 0
M  V30 6857 N 650.364 0.662433 1.43002 0
M  V30 6858 C 651.611 0.179591 2.01702 0
M  V30 6859 C 651.939 -1.20964 1.52309 0
M  V30 6860 O 651.194 -1.82343 0.7106 0
M  V30 6861 C 651.493 0.149363 3.57088 0
M  V30 6862 C 651.159 1.48158 4.25864 0
M  V30 6863 C 649.821 1.84638 4.44367 0
M  V30 6864 C 652.173 2.35953 4.64732 0
M  V30 6865 C 649.501 3.08561 4.99006 0
M  V30 6866 C 651.853 3.59176 5.20745 0
M  V30 6867 C 650.517 3.95841 5.37463 0
M  V30 6868 H 649.787 0.0657172 0.73808 0
M  V30 6869 H 652.434 0.854968 1.71355 0
M  V30 6870 H 650.739 -0.609491 3.8703 0
M  V30 6871 H 652.436 -0.241241 4.00274 0
M  V30 6872 H 649.026 1.18777 4.11813 0
M  V30 6873 H 653.21 2.09058 4.50121 0
M  V30 6874 H 648.466 3.37005 5.10135 0
M  V30 6875 H 652.64 4.27417 5.49807 0
M  V30 6876 H 650.267 4.91942 5.79566 0
M  V30 6877 N 651.842 -1.52309 0.404946 0
M  V30 6878 C 652.805 -2.25491 -0.410651 0
M  V30 6879 C 653.805 -1.27704 -0.977154 0
M  V30 6880 O 654.995 -1.51679 -0.856691 0
M  V30 6881 C 652.127 -3.02197 -1.57765 0
M  V30 6882 H 653.32 -2.99015 0.230277 0
M  V30 6883 H 650.873 -1.55506 0.157377 0
M  V30 6884 H 651.608 -2.33013 -2.25556 0
M  V30 6885 H 651.393 -3.73987 -1.17797 0
M  V30 6886 H 652.883 -3.57719 -2.15469 0
M  V30 6887 N 653.32 -0.135238 -1.57019 0
M  V30 6888 C 654.283 0.794707 -2.14981 0
M  V30 6889 C 655.283 1.18342 -1.08866 0
M  V30 6890 O 656.473 1.10627 -1.34563 0
M  V30 6891 C 653.605 2.07685 -2.70333 0
M  V30 6892 H 654.798 0.290696 -2.98488 0
M  V30 6893 H 652.351 0.114128 -1.55883 0
M  V30 6894 H 653.086 2.6248 -1.9046 0
M  V30 6895 H 652.871 1.80745 -3.47957 0
M  V30 6896 H 654.361 2.74127 -3.1503 0
M  V30 6897 N 654.798 1.5699 0.138552 0
M  V30 6898 C 655.761 1.97984 1.15478 0
M  V30 6899 C 656.761 0.867416 1.35398 0
M  V30 6900 O 657.951 1.13387 1.32246 0
M  V30 6901 C 655.083 2.3031 2.51337 0
M  V30 6902 H 656.276 2.88953 0.802896 0
M  V30 6903 H 653.829 1.51555 0.382189 0
M  V30 6904 H 654.564 1.42159 2.91481 0
M  V30 6905 H 654.349 3.11425 2.38237 0
M  V30 6906 H 655.839 2.62834 3.24512 0
M  V30 6907 N 656.276 -0.40816 1.52223 0
M  V30 6908 C 657.525 -1.15212 1.65557 0
M  V30 6909 C 657.838 -1.9163 0.392096 0
M  V30 6910 O 659.044 -2.68458 0.405256 0
M  V30 6911 C 657.5 -2.09691 2.92502 0
M  V30 6912 C 657.108 -1.38785 4.25961 0
M  V30 6913 C 658.852 -2.8434 3.152 0
M  V30 6914 C 656.759 -2.31919 5.44029 0
M  V30 6915 H 655.689 -0.433776 0.616729 0
M  V30 6916 H 658.34 -0.4165 1.78711 0
M  V30 6917 H 656.722 -2.8681 2.7305 0
M  V30 6918 H 657.896 -0.670248 4.55899 0
M  V30 6919 H 656.211 -0.761741 4.09373 0
M  V30 6920 H 658.808 -3.54166 4.00587 0
M  V30 6921 H 659.151 -3.47344 2.29473 0
M  V30 6922 H 659.684 -2.14321 3.35129 0
M  V30 6923 H 656.423 -1.7356 6.32105 0
M  V30 6924 H 655.943 -3.0165 5.18428 0
M  V30 6925 H 657.622 -2.92424 5.77146 0
M  V30 6926 N 657.755 -1.42862 -0.66545 0
M  V30 6927 C 658.705 -1.43521 -1.7716 0
M  V30 6928 C 659.689 -0.305267 -1.57978 0
M  V30 6929 O 660.881 -0.548176 -1.68297 0
M  V30 6930 C 658.01 -1.34914 -3.15679 0
M  V30 6931 C 657.096 -2.5289 -3.40452 0
M  V30 6932 N 657.487 -3.78284 -3.3576 0
M  V30 6933 C 655.785 -2.47351 -3.71124 0
M  V30 6934 C 656.486 -4.56701 -3.60276 0
M  V30 6935 N 655.462 -3.87249 -3.81496 0
M  V30 6936 H 659.264 -2.38357 -1.7194 0
M  V30 6937 H 656.778 -1.37342 -0.866653 0
M  V30 6938 H 658.775 -1.33468 -3.94958 0
M  V30 6939 H 657.435 -0.410881 -3.2209 0
M  V30 6940 H 658.446 -4.10746 -3.15448 0
M  V30 6941 H 655.123 -1.62152 -3.84725 0
M  V30 6942 H 656.513 -5.65704 -3.6253 0
M  V30 6943 N 659.233 0.902656 -1.29189 0
M  V30 6944 C 660.51 1.63296 -1.07674 0
M  V30 6945 C 660.89 2.07649 0.380137 0
M  V30 6946 O 660.238 1.82997 1.36837 0
M  V30 6947 C 660.448 2.81603 -2.06158 0
M  V30 6948 C 661.796 3.52359 -2.36914 0
M  V30 6949 O 662.82 2.91767 -2.04329 0
M  V30 6950 O 661.679 4.61586 -2.92576 0
M  V30 6951 H 658.773 0.716889 -0.41231 0
M  V30 6952 H 661.319 0.950984 -1.4055 0
M  V30 6953 H 660.091 2.46004 -3.04299 0
M  V30 6954 H 659.714 3.57508 -1.73993 0
M  V30 6955 N 660.711 1.11618 1.11262 0
M  V30 6956 C 661.957 0.867463 1.83311 0
M  V30 6957 C 662.29 -0.605366 1.84524 0
M  V30 6958 O 661.565 -1.44704 1.29965 0
M  V30 6959 C 661.848 1.43207 3.30399 0
M  V30 6960 C 661.701 2.97265 3.3757 0
M  V30 6961 C 663.02 1.08454 4.26528 0
M  V30 6962 H 660.139 0.316578 0.665543 0
M  V30 6963 H 662.781 1.38137 1.30454 0
M  V30 6964 H 660.931 0.994982 3.75543 0
M  V30 6965 H 662.603 3.49591 3.00971 0
M  V30 6966 H 660.846 3.33237 2.77733 0
M  V30 6967 H 661.517 3.31859 4.41105 0
M  V30 6968 H 663.993 1.4619 3.89574 0
M  V30 6969 H 662.869 1.50633 5.27826 0
M  V30 6970 H 663.13 -0.00444568 4.421 0
M  V30 6971 N 662.189 -1.289 0.906776 0
M  V30 6972 C 663.466 -1.90221 0.455537 0
M  V30 6973 C 663.846 -1.82251 -1.06527 0
M  V30 6974 O 663.194 -1.25385 -1.91026 0
M  V30 6975 C 663.404 -3.35015 0.97806 0
M  V30 6976 C 664.752 -4.12018 1.02598 0
M  V30 6977 O 665.776 -3.43947 0.926218 0
M  V30 6978 O 664.635 -5.33677 1.17689 0
M  V30 6979 H 661.729 -0.814505 0.143214 0
M  V30 6980 H 664.275 -1.37317 0.997104 0
M  V30 6981 H 663.047 -3.35006 2.02204 0
M  V30 6982 H 662.67 -3.95408 0.416914 0
M  V30 6983 N 663.667 -0.670007 -1.42649 0
M  V30 6984 C 664.617 0.0339546 -2.27975 0
M  V30 6985 C 665.601 0.778295 -1.40824 0
M  V30 6986 O 666.793 0.657997 -1.64315 0
M  V30 6987 C 663.922 0.987899 -3.28779 0
M  V30 6988 C 663.008 0.241153 -4.23414 0
M  V30 6989 N 663.399 -0.751392 -5.00188 0
M  V30 6990 C 661.697 0.480269 -4.43407 0
M  V30 6991 C 662.398 -1.19615 -5.69269 0
M  V30 6992 N 661.374 -0.527045 -5.41039 0
M  V30 6993 H 665.176 -0.727425 -2.84756 0
M  V30 6994 H 662.69 -0.498673 -1.54554 0
M  V30 6995 H 664.687 1.50716 -3.88703 0
M  V30 6996 H 663.347 1.74916 -2.73559 0
M  V30 6997 H 664.358 -1.13075 -5.05405 0
M  V30 6998 H 661.035 1.2214 -3.99234 0
M  V30 6999 H 662.425 -2.01836 -6.40868 0
M  V30 7000 N 665.145 1.52092 -0.413018 0
M  V30 7001 C 666.556 1.86617 0.0556967 0
M  V30 7002 C 666.907 1.33156 1.44097 0
M  V30 7003 O 666.032 0.672417 2.05688 0
M  V30 7004 C 666.627 3.38628 0.107844 0
M  V30 7005 C 665.186 3.72778 0.520904 0
M  V30 7006 C 664.333 2.75649 -0.302109 0
M  V30 7007 H 667.284 1.45663 -0.629919 0
M  V30 7008 H 667.305 3.69152 0.922324 0
M  V30 7009 H 666.817 3.77508 -0.900506 0
M  V30 7010 H 664.918 3.39478 1.53575 0
M  V30 7011 H 665.031 4.7838 0.262591 0
M  V30 7012 H 663.395 2.53603 0.236115 0
M  V30 7013 H 664.178 3.17369 -1.30888 0
M  V30 7014 N 666.623 0.143563 1.56945 0
M  V30 7015 C 667.871 -0.507402 1.95627 0
M  V30 7016 C 668.192 -1.65626 1.02922 0
M  V30 7017 O 667.462 -1.95693 0.0901136 0
M  V30 7018 H 666.042 -0.190436 0.722318 0
M  V30 7019 H 668.704 0.218257 1.93674 0
M  V30 7020 H 667.8 -0.885816 2.99265 0
M  V30 7021 N 668.101 -1.57061 -0.130224 0
M  V30 7022 C 669.347 -1.8453 -0.841216 0
M  V30 7023 C 669.68 -0.727666 -1.80052 0
M  V30 7024 O 668.955 0.267419 -1.92653 0
M  V30 7025 C 669.238 -3.22553 -1.60099 0
M  V30 7026 C 669.091 -4.44901 -0.662048 0
M  V30 7027 C 670.41 -3.58003 -2.55973 0
M  V30 7028 H 667.529 -0.671215 -0.304366 0
M  V30 7029 H 670.171 -1.89705 -0.105821 0
M  V30 7030 H 668.321 -3.18272 -2.22789 0
M  V30 7031 H 669.993 -4.61278 -0.0448559 0
M  V30 7032 H 668.236 -4.33791 0.0272253 0
M  V30 7033 H 668.907 -5.3812 -1.23006 0
M  V30 7034 H 671.383 -3.63002 -2.03393 0
M  V30 7035 H 670.259 -4.55576 -3.06172 0
M  V30 7036 H 670.52 -2.84833 -3.38116 0
M  V30 7037 N 669.579 0.400081 -1.52437 0
M  V30 7038 C 670.804 1.17221 -1.71096 0
M  V30 7039 C 671.229 1.83269 -0.423565 0
M  V30 7040 O 670.587 1.70378 0.619751 0
M  V30 7041 C 670.635 2.20425 -2.85386 0
M  V30 7042 O 669.739 3.26769 -2.51586 0
M  V30 7043 H 669.08 0.341766 -0.569291 0
M  V30 7044 H 671.61 0.467772 -1.99181 0
M  V30 7045 H 671.62 2.64605 -3.10561 0
M  V30 7046 H 670.295 1.71737 -3.78786 0
M  V30 7047 H 668.872 2.87804 -2.37114 0
M  V30 7048 N 671.057 1.43213 0.657864 0
M  V30 7049 C 672.005 1.48271 1.79216 0
M  V30 7050 C 672.999 0.35675 1.65601 0
M  V30 7051 O 674.205 0.530535 1.72004 0
M  V30 7052 H 670.58 0.464729 0.591211 0
M  V30 7053 H 672.551 2.43792 1.7207 0
M  V30 7054 C 671.3 1.41837 3.17455 0
M  V30 7055 H 670.623 2.27781 3.28567 0
M  V30 7056 H 672.063 1.49438 3.96793 0
M  V30 7057 C 670.522 0.135347 3.36628 0
M  V30 7058 O 671.052 -0.805199 3.93547 0
M  V30 7059 N 669.258 0.0470316 2.90562 0
M  V30 7060 H 668.805 0.813221 2.44427 0
M  V30 7061 H 668.763 -0.810737 3.03767 0
M  V30 7062 N 672.536 -0.895792 1.29666 0
M  V30 7063 C 673.468 -2.00563 1.10937 0
M  V30 7064 C 674.481 -1.62705 0.055734 0
M  V30 7065 O 675.67 -1.7595 0.300656 0
M  V30 7066 C 672.77 -3.32262 0.667448 0
M  V30 7067 C 671.943 -3.98625 1.80047 0
M  V30 7068 C 671.002 -5.08617 1.3489 0
M  V30 7069 O 670.028 -5.30837 2.05429 0
M  V30 7070 N 671.23 -5.80076 0.221937 0
M  V30 7071 H 673.995 -2.17184 2.06522 0
M  V30 7072 H 671.556 -1.06822 1.21658 0
M  V30 7073 H 673.548 -4.03196 0.348586 0
M  V30 7074 H 672.118 -3.11985 -0.196055 0
M  V30 7075 H 671.338 -3.21005 2.28801 0
M  V30 7076 H 672.626 -4.39704 2.56003 0
M  V30 7077 H 672.024 -5.64514 -0.366084 0
M  V30 7078 H 670.581 -6.51789 -0.0375346 0
M  V30 7079 N 674.014 -1.12206 -1.10668 0
M  V30 7080 C 675.261 -0.875875 -1.82578 0
M  V30 7081 C 675.589 0.598342 -1.85068 0
M  V30 7082 O 674.844 1.45818 -1.3052 0
M  V30 7083 C 675.143 -1.39276 -3.29146 0
M  V30 7084 C 674.809 -2.8816 -3.46806 0
M  V30 7085 C 673.471 -3.28813 -3.51334 0
M  V30 7086 C 675.823 -3.8401 -3.52399 0
M  V30 7087 C 673.151 -4.64028 -3.59019 0
M  V30 7088 C 675.503 -5.19053 -3.61617 0
M  V30 7089 C 674.167 -5.59252 -3.64408 0
M  V30 7090 H 673.437 -0.320505 -0.6681 0
M  V30 7091 H 676.084 -1.40184 -1.30464 0
M  V30 7092 H 674.389 -0.787207 -3.8381 0
M  V30 7093 H 676.086 -1.17851 -3.83291 0
M  V30 7094 H 672.676 -2.55716 -3.43958 0
M  V30 7095 H 676.86 -3.53698 -3.48154 0
M  V30 7096 H 672.116 -4.94568 -3.59461 0
M  V30 7097 H 676.29 -5.93152 -3.64889 0
M  V30 7098 H 673.917 -6.64017 -3.70116 0
M  V30 7099 N 675.492 1.28418 -0.913599 0
M  V30 7100 C 676.422 2.29713 -0.418847 0
M  V30 7101 C 677.403 1.62165 0.513469 0
M  V30 7102 O 678.588 1.89576 0.421235 0
M  V30 7103 C 675.718 3.45612 0.342042 0
M  V30 7104 C 674.672 4.25056 -0.501123 0
M  V30 7105 C 673.998 5.3329 0.388097 0
M  V30 7106 C 675.298 4.91814 -1.75831 0
M  V30 7107 H 676.992 2.71346 -1.26538 0
M  V30 7108 H 674.538 1.30446 -0.609903 0
M  V30 7109 H 676.491 4.15562 0.699 0
M  V30 7110 H 675.215 3.02858 1.22248 0
M  V30 7111 H 673.874 3.56833 -0.840598 0
M  V30 7112 H 673.522 4.8678 1.26707 0
M  V30 7113 H 673.222 5.87347 -0.172459 0
M  V30 7114 H 674.746 6.06088 0.74094 0
M  V30 7115 H 676.16 5.54126 -1.47026 0
M  V30 7116 H 674.557 5.55866 -2.26126 0
M  V30 7117 H 675.627 4.16313 -2.4862 0
M  V30 7118 N 676.97 0.677563 1.42291 0
M  V30 7119 C 678.219 0.198173 2.00724 0
M  V30 7120 C 678.532 -1.20325 1.54211 0
M  V30 7121 O 679.738 -1.77916 2.05081 0
M  V30 7122 C 678.194 0.303432 3.58619 0
M  V30 7123 C 677.802 1.70909 4.14119 0
M  V30 7124 C 679.546 -0.117103 4.24338 0
M  V30 7125 C 677.453 1.76696 5.64387 0
M  V30 7126 H 676.383 0.070329 0.750713 0
M  V30 7127 H 679.034 0.843147 1.62982 0
M  V30 7128 H 677.416 -0.409482 3.93877 0
M  V30 7129 H 678.59 2.44931 3.90315 0
M  V30 7130 H 676.905 2.07771 3.6086 0
M  V30 7131 H 679.502 -0.0940471 5.34617 0
M  V30 7132 H 679.845 -1.15283 4.00019 0
M  V30 7133 H 680.378 0.5449 3.9405 0
M  V30 7134 H 677.117 2.7826 5.93508 0
M  V30 7135 H 676.637 1.07034 5.90173 0
M  V30 7136 H 678.316 1.52166 6.28852 0
M  V30 7137 N 678.448 -1.51871 0.421078 0
M  V30 7138 C 679.396 -2.28903 -0.413066 0
M  V30 7139 C 680.39 -1.3408 -1.03532 0
M  V30 7140 O 681.596 -1.5149 -0.972146 0
M  V30 7141 H 677.971 -0.736478 -0.152003 0
M  V30 7142 H 679.942 -2.97285 0.257695 0
M  V30 7143 C 678.691 -3.13156 -1.51091 0
M  V30 7144 H 678.014 -3.85997 -1.04145 0
M  V30 7145 H 679.454 -3.7014 -2.06814 0
M  V30 7146 C 677.913 -2.27482 -2.48503 0
M  V30 7147 O 678.443 -1.92325 -3.52667 0
M  V30 7148 N 676.649 -1.91019 -2.18998 0
M  V30 7149 H 676.196 -2.19808 -1.34322 0
M  V30 7150 H 676.154 -1.3399 -2.84419 0
M  V30 7151 N 679.926 -0.151884 -1.56866 0
M  V30 7152 C 681.154 0.504813 -2.00647 0
M  V30 7153 C 681.569 1.58098 -1.03201 0
M  V30 7154 O 680.926 1.82476 -0.0297814 0
M  V30 7155 C 680.977 1.10099 -3.44326 0
M  V30 7156 O 680.698 0.0678021 -4.38048 0
M  V30 7157 C 682.199 1.83782 -4.03409 0
M  V30 7158 H 679.419 0.130989 -0.65809 0
M  V30 7159 H 681.963 -0.247903 -2.02992 0
M  V30 7160 H 680.118 1.8043 -3.42817 0
M  V30 7161 H 680.532 0.505237 -5.22061 0
M  V30 7162 H 682.006 2.2078 -5.05925 0
M  V30 7163 H 682.483 2.72557 -3.44397 0
M  V30 7164 H 683.089 1.18138 -4.08563 0
M  V30 7165 N 681.404 1.57128 0.121893 0
M  V30 7166 C 682.352 2.01109 1.16868 0
M  V30 7167 C 683.346 0.907532 1.43039 0
M  V30 7168 O 684.552 1.09274 1.43036 0
M  V30 7169 H 680.927 0.640539 0.393971 0
M  V30 7170 H 682.898 2.88261 0.771224 0
M  V30 7171 C 681.647 2.42887 2.48799 0
M  V30 7172 H 680.97 3.2737 2.29498 0
M  V30 7173 H 682.41 2.77461 3.20611 0
M  V30 7174 C 680.869 1.29137 3.11168 0
M  V30 7175 O 681.399 0.605756 3.97106 0
M  V30 7176 N 679.605 1.04916 2.71 0
M  V30 7177 H 679.152 1.60848 2.01211 0
M  V30 7178 H 679.11 0.290016 3.1306 0
M  V30 7179 N 682.882 -0.391992 1.52647 0
M  V30 7180 C 684.107 -1.16312 1.71716 0
M  V30 7181 C 684.532 -1.83042 0.433279 0
M  V30 7182 O 683.89 -1.70705 -0.610707 0
M  V30 7183 C 683.938 -2.18908 2.86551 0
M  V30 7184 O 683.042 -3.2543 2.53316 0
M  V30 7185 H 682.383 -0.338743 0.571095 0
M  V30 7186 H 684.913 -0.457202 1.99426 0
M  V30 7187 H 684.923 -2.62954 3.1196 0
M  V30 7188 H 683.598 -1.69726 3.79692 0
M  V30 7189 H 682.175 -2.86543 2.38637 0
M  V30 7190 N 684.36 -1.4356 -0.65026 0
M  V30 7191 C 685.27 -1.514 -1.79207 0
M  V30 7192 C 686.286 -0.400895 -1.69319 0
M  V30 7193 O 687.462 -0.655458 -1.90436 0
M  V30 7194 C 684.527 -1.43737 -3.155 0
M  V30 7195 C 683.588 -2.65743 -3.37163 0
M  V30 7196 C 682.821 -2.58436 -4.66954 0
M  V30 7197 O 683.044 -1.63374 -5.46503 0
M  V30 7198 O 681.978 -3.48984 -4.90402 0
M  V30 7199 H 685.804 -2.47825 -1.75547 0
M  V30 7200 H 683.389 -1.25594 -0.809111 0
M  V30 7201 H 685.271 -1.41916 -3.96784 0
M  V30 7202 H 683.946 -0.504488 -3.19745 0
M  V30 7203 H 682.853 -2.73136 -2.55632 0
M  V30 7204 H 684.186 -3.58014 -3.37768 0
M  V30 7205 N 685.838 0.888903 -1.30139 0
M  V30 7206 C 686.768 2.01046 -1.18755 0
M  V30 7207 C 687.749 1.69916 -0.0791438 0
M  V30 7208 O 688.934 1.92445 -0.260498 0
M  V30 7209 C 686.064 3.36109 -0.874518 0
M  V30 7210 C 685.018 3.81486 -1.94043 0
M  V30 7211 C 684.344 5.13796 -1.48047 0
M  V30 7212 C 685.644 4.00637 -3.35093 0
M  V30 7213 H 687.338 2.10828 -2.12584 0
M  V30 7214 H 684.884 1.01298 -1.02346 0
M  V30 7215 H 686.837 4.14089 -0.781548 0
M  V30 7216 H 685.561 3.26449 0.0994519 0
M  V30 7217 H 684.22 3.05731 -2.02297 0
M  V30 7218 H 683.868 5.0056 -0.494878 0
M  V30 7219 H 683.568 5.45127 -2.19341 0
M  V30 7220 H 685.092 5.94305 -1.40121 0
M  V30 7221 H 686.506 4.69067 -3.2962 0
M  V30 7222 H 684.903 4.43339 -4.04438 0
M  V30 7223 H 685.973 3.0462 -3.77273 0
M  V30 7224 N 687.317 1.12792 1.10072 0
M  V30 7225 C 688.28 0.802264 2.14701 0
M  V30 7226 C 689.28 -0.18515 1.59731 0
M  V30 7227 O 690.47 0.041109 1.74151 0
M  V30 7228 C 687.602 0.19285 3.40354 0
M  V30 7229 H 688.795 1.72932 2.45019 0
M  V30 7230 H 686.348 0.931662 1.25498 0
M  V30 7231 H 687.083 -0.743748 3.15656 0
M  V30 7232 H 686.868 0.903827 3.81541 0
M  V30 7233 H 688.358 -0.0183704 4.17596 0
M  V30 7234 N 688.795 -1.27931 0.920396 0
M  V30 7235 C 689.725 -2.29487 0.431024 0
M  V30 7236 C 690.706 -1.62435 -0.504861 0
M  V30 7237 O 691.891 -1.89797 -0.411176 0
M  V30 7238 C 689.021 -3.45788 -0.323709 0
M  V30 7239 C 687.975 -4.24784 0.523658 0
M  V30 7240 C 687.301 -5.33488 -0.359809 0
M  V30 7241 C 688.601 -4.90874 1.78437 0
M  V30 7242 H 690.295 -2.70671 1.27975 0
M  V30 7243 H 687.841 -1.30121 0.616813 0
M  V30 7244 H 689.794 -4.15927 -0.676952 0
M  V30 7245 H 688.518 -3.03502 -1.2064 0
M  V30 7246 H 687.177 -3.56382 0.85951 0
M  V30 7247 H 686.825 -4.87445 -1.24124 0
M  V30 7248 H 686.525 -5.87247 0.203605 0
M  V30 7249 H 688.049 -6.06472 -0.708787 0
M  V30 7250 H 689.463 -5.53339 1.49963 0
M  V30 7251 H 687.86 -5.54659 2.29071 0
M  V30 7252 H 688.93 -4.14988 2.50824 0
M  V30 7253 N 690.273 -0.685099 -1.4193 0
M  V30 7254 C 691.206 0.0371639 -2.2817 0
M  V30 7255 C 692.184 0.798436 -1.41647 0
M  V30 7256 O 693.368 0.791428 -1.71081 0
M  V30 7257 C 690.495 1.05993 -3.21688 0
M  V30 7258 C 689.541 0.393043 -4.24685 0
M  V30 7259 S 690.374 -0.856921 -5.28599 0
M  V30 7260 C 691.53 0.164508 -6.25684 0
M  V30 7261 H 691.763 -0.694305 -2.89079 0
M  V30 7262 H 689.296 -0.474999 -1.46912 0
M  V30 7263 H 691.254 1.64489 -3.76103 0
M  V30 7264 H 689.915 1.7639 -2.59895 0
M  V30 7265 H 689.108 1.16513 -4.90348 0
M  V30 7266 H 688.71 -0.118589 -3.73812 0
M  V30 7267 H 691.002 1.02106 -6.69762 0
M  V30 7268 H 691.945 -0.457917 -7.06618 0
M  V30 7269 H 692.353 0.514596 -5.6215 0
M  V30 7270 N 691.751 1.51645 -0.429126 0
M  V30 7271 C 692.981 2.06133 0.138793 0
M  V30 7272 C 693.389 1.29735 1.37716 0
M  V30 7273 O 692.732 0.347955 1.80375 0
M  V30 7274 C 692.794 3.55504 0.534493 0
M  V30 7275 C 692.458 4.53098 -0.595917 0
M  V30 7276 C 693.455 4.98815 -1.46558 0
M  V30 7277 C 691.14 4.96296 -0.774309 0
M  V30 7278 C 693.134 5.86394 -2.4984 0
M  V30 7279 C 690.821 5.83667 -1.81042 0
M  V30 7280 C 691.819 6.28613 -2.67086 0
M  V30 7281 O 691.507 7.14251 -3.68919 0
M  V30 7282 H 691.239 0.675833 0.0150263 0
M  V30 7283 H 693.793 1.96301 -0.604584 0
M  V30 7284 H 692.023 3.63092 1.33045 0
M  V30 7285 H 693.712 3.92545 1.03262 0
M  V30 7286 H 694.478 4.66143 -1.33925 0
M  V30 7287 H 690.357 4.60859 -0.114178 0
M  V30 7288 H 693.901 6.21398 -3.17034 0
M  V30 7289 H 689.798 6.15753 -1.93698 0
M  V30 7290 H 690.566 7.3241 -3.65402 0
M  V30 7291 N 693.229 0.160201 1.56784 0
M  V30 7292 C 694.177 -0.791402 2.18723 0
M  V30 7293 C 695.171 -1.24567 1.14801 0
M  V30 7294 O 696.377 -1.21262 1.33025 0
M  V30 7295 H 692.752 -0.273458 0.700517 0
M  V30 7296 H 694.723 -0.244931 2.97393 0
M  V30 7297 C 693.472 -2.01509 2.83354 0
M  V30 7298 H 692.795 -1.67454 3.63041 0
M  V30 7299 H 694.235 -2.66006 3.30177 0
M  V30 7300 C 692.694 -2.83159 1.82545 0
M  V30 7301 O 693.224 -3.79944 1.30405 0
M  V30 7302 N 691.43 -2.47953 1.51552 0
M  V30 7303 H 690.977 -1.69309 1.94144 0
M  V30 7304 H 690.935 -3.02873 0.843519 0
M  V30 7305 N 694.707 -1.5719 -0.113559 0
M  V30 7306 C 695.984 -1.76117 -0.850999 0
M  V30 7307 C 696.364 -0.737085 -1.97814 0
M  V30 7308 O 695.712 0.237942 -2.27258 0
M  V30 7309 C 695.922 -3.21298 -1.36266 0
M  V30 7310 C 697.27 -3.83955 -1.81283 0
M  V30 7311 O 698.294 -3.24934 -1.45933 0
M  V30 7312 O 697.153 -4.87707 -2.46585 0
M  V30 7313 H 694.247 -0.721308 -0.404529 0
M  V30 7314 H 696.793 -1.69423 -0.0968756 0
M  V30 7315 H 695.565 -3.87355 -0.554235 0
M  V30 7316 H 695.188 -3.32552 -2.17933 0
M  V30 7317 N 696.185 0.383891 -1.52853 0
M  V30 7318 C 697.095 1.49343 -1.80925 0
M  V30 7319 C 698.111 1.59458 -0.696348 0
M  V30 7320 O 699.287 1.75698 -0.984481 0
M  V30 7321 C 696.352 2.84819 -1.97684 0
M  V30 7322 C 695.413 2.84382 -3.21598 0
M  V30 7323 C 694.646 4.13397 -3.37548 0
M  V30 7324 O 694.869 5.08619 -2.58192 0
M  V30 7325 O 693.803 4.20325 -4.30826 0
M  V30 7326 H 697.629 1.2855 -2.75152 0
M  V30 7327 H 695.214 0.572229 -1.38007 0
M  V30 7328 H 697.096 3.65125 -2.10385 0
M  V30 7329 H 695.771 3.05627 -1.06647 0
M  V30 7330 H 694.678 2.0284 -3.14336 0
M  V30 7331 H 696.011 2.68526 -4.12498 0
M  V30 7332 N 697.663 1.43903 0.642637 0
M  V30 7333 C 698.888 1.49758 1.43483 0
M  V30 7334 C 699.313 0.119911 1.87717 0
M  V30 7335 O 698.671 -0.888558 1.58033 0
M  V30 7336 C 698.719 2.45744 2.63898 0
M  V30 7337 O 697.823 1.95101 3.63331 0
M  V30 7338 H 697.164 0.506138 0.429791 0
M  V30 7339 H 699.694 1.88923 0.785438 0
M  V30 7340 H 699.704 2.63399 3.11584 0
M  V30 7341 H 698.379 3.45818 2.31046 0
M  V30 7342 H 696.956 1.87158 3.22531 0
M  V30 7343 N 699.141 -0.881989 1.30609 0
M  V30 7344 C 700.387 -1.63647 1.19781 0
M  V30 7345 C 700.72 -1.92632 -0.246265 0
M  V30 7346 O 699.995 -1.54938 -1.17577 0
M  V30 7347 C 700.278 -2.97437 2.02985 0
M  V30 7348 C 700.131 -2.75406 3.55628 0
M  V30 7349 C 701.45 -3.98397 1.86997 0
M  V30 7350 H 698.569 -0.593841 0.436488 0
M  V30 7351 H 701.211 -1.02041 1.60273 0
M  V30 7352 H 699.361 -3.50018 1.68581 0
M  V30 7353 H 701.033 -2.2959 4.00107 0
M  V30 7354 H 699.276 -2.09856 3.79662 0
M  V30 7355 H 699.947 -3.70552 4.09139 0
M  V30 7356 H 702.423 -3.54986 2.17081 0
M  V30 7357 H 701.299 -4.89916 2.47536 0
M  V30 7358 H 701.56 -4.3424 0.829943 0
M  V30 7359 N 700.619 -1.13374 -1.09472 0
M  V30 7360 C 701.549 -0.833268 -2.18126 0
M  V30 7361 C 702.53 0.207169 -1.68834 0
M  V30 7362 O 703.715 0.0662012 -1.94087 0
M  V30 7363 C 700.845 -0.297979 -3.46019 0
M  V30 7364 C 699.799 -1.27261 -4.08642 0
M  V30 7365 C 699.125 -0.597104 -5.31356 0
M  V30 7366 C 700.425 -2.63095 -4.51197 0
M  V30 7367 H 702.119 -1.74182 -2.43518 0
M  V30 7368 H 699.665 -0.838921 -1.17039 0
M  V30 7369 H 701.618 -0.0754444 -4.21332 0
M  V30 7370 H 700.342 0.645959 -3.20148 0
M  V30 7371 H 699.001 -1.48113 -3.35348 0
M  V30 7372 H 698.649 0.352293 -5.01765 0
M  V30 7373 H 698.349 -1.24734 -5.74208 0
M  V30 7374 H 699.873 -0.38384 -6.09392 0
M  V30 7375 H 701.287 -2.46214 -5.17737 0
M  V30 7376 H 699.684 -3.2429 -5.04932 0
M  V30 7377 H 700.754 -3.20793 -3.6362 0
M  V30 7378 N 702.098 1.27442 -0.927168 0
M  V30 7379 C 703.008 2.30599 -0.431448 0
M  V30 7380 C 704.024 1.67028 0.48761 0
M  V30 7381 O 705.2 1.97962 0.370546 0
M  V30 7382 C 702.265 3.45327 0.308292 0
M  V30 7383 C 701.326 4.24418 -0.645615 0
M  V30 7384 C 700.559 5.33667 0.0589164 0
M  V30 7385 O 700.782 5.5589 1.27838 0
M  V30 7386 O 699.716 5.98774 -0.612638 0
M  V30 7387 H 703.542 2.75036 -1.28797 0
M  V30 7388 H 701.127 1.32382 -0.692495 0
M  V30 7389 H 703.009 4.15107 0.725555 0
M  V30 7390 H 701.684 3.02945 1.14043 0
M  V30 7391 H 700.591 3.57174 -1.11255 0
M  V30 7392 H 701.924 4.70512 -1.44496 0
M  V30 7393 N 703.576 0.692616 1.41565 0
M  V30 7394 C 704.524 0.0139952 2.32596 0
M  V30 7395 C 705.518 -0.771691 1.50802 0
M  V30 7396 O 706.724 -0.677646 1.66757 0
M  V30 7397 H 703.099 -0.0142745 0.751865 0
M  V30 7398 H 705.07 0.798851 2.87508 0
M  V30 7399 C 703.819 -0.910602 3.35564 0
M  V30 7400 H 703.142 -0.315446 3.98554 0
M  V30 7401 H 704.582 -1.3538 4.01806 0
M  V30 7402 C 703.041 -2.02539 2.6922 0
M  V30 7403 O 703.571 -3.11386 2.53775 0
M  V30 7404 N 701.777 -1.80227 2.27962 0
M  V30 7405 H 701.324 -0.917054 2.40724 0
M  V30 7406 H 701.282 -2.55001 1.83907 0
M  V30 7407 N 705.054 -1.51416 0.437162 0
M  V30 7408 C 706.004 -2.24599 -0.392311 0
M  V30 7409 C 706.988 -1.2682 -0.990221 0
M  V30 7410 O 708.18 -1.51912 -0.908391 0
M  V30 7411 C 705.309 -3.09134 -1.49301 0
M  V30 7412 C 704.395 -4.14342 -0.904503 0
M  V30 7413 N 704.786 -5.0578 -0.0451511 0
M  V30 7414 C 703.084 -4.30323 -1.1721 0
M  V30 7415 C 703.785 -5.81 0.285344 0
M  V30 7416 N 702.761 -5.42591 -0.330993 0
M  V30 7417 H 706.563 -2.92655 0.270221 0
M  V30 7418 H 704.077 -1.60476 0.249226 0
M  V30 7419 H 706.074 -3.6014 -2.10011 0
M  V30 7420 H 704.734 -2.42622 -2.15788 0
M  V30 7421 H 705.745 -5.16903 0.321271 0
M  V30 7422 H 702.422 -3.75037 -1.83448 0
M  V30 7423 H 703.812 -6.64646 0.984626 0
M  V30 7424 N 706.532 -0.168513 -1.56696 0
M  V30 7425 C 707.482 0.7751 -2.14421 0
M  V30 7426 C 708.466 1.19476 -1.07769 0
M  V30 7427 O 709.658 1.15759 -1.33898 0
M  V30 7428 C 706.787 2.00549 -2.7863 0
M  V30 7429 C 705.873 1.60795 -3.92436 0
M  V30 7430 N 706.264 0.919812 -4.97366 0
M  V30 7431 C 704.562 1.89917 -4.03544 0
M  V30 7432 C 705.263 0.724485 -5.77171 0
M  V30 7433 N 704.239 1.26505 -5.28675 0
M  V30 7434 H 708.041 0.240349 -2.92916 0
M  V30 7435 H 705.555 0.0322675 -1.62368 0
M  V30 7436 H 707.552 2.6917 -3.1836 0
M  V30 7437 H 706.212 2.54522 -2.01615 0
M  V30 7438 H 707.223 0.578169 -5.14663 0
M  V30 7439 H 703.9 2.45587 -3.37629 0
M  V30 7440 H 705.29 0.180521 -6.71657 0
M  V30 7441 N 708.01 1.57248 0.105221 0
M  V30 7442 C 708.94 2.04374 1.12931 0
M  V30 7443 C 709.921 0.93074 1.42377 0
M  V30 7444 O 711.106 1.20136 1.52581 0
M  V30 7445 C 708.236 2.45967 2.45189 0
M  V30 7446 C 707.19 3.60838 2.30174 0
M  V30 7447 C 706.516 3.88374 3.67518 0
M  V30 7448 C 707.816 4.92084 1.75073 0
M  V30 7449 H 709.51 2.9018 0.737287 0
M  V30 7450 H 707.056 1.39601 0.353211 0
M  V30 7451 H 709.009 2.77542 3.17094 0
M  V30 7452 H 707.733 1.57148 2.86308 0
M  V30 7453 H 706.392 3.29493 1.60716 0
M  V30 7454 H 706.04 2.96739 4.06147 0
M  V30 7455 H 705.74 4.65703 3.58321 0
M  V30 7456 H 707.264 4.22415 4.40906 0
M  V30 7457 H 708.678 5.22106 2.36809 0
M  V30 7458 H 707.075 5.73507 1.76662 0
M  V30 7459 H 708.145 4.79684 0.709347 0
M  V30 7460 N 709.488 -0.375779 1.53054 0
M  V30 7461 C 710.451 -1.44254 1.7811 0
M  V30 7462 C 711.451 -1.47018 0.651328 0
M  V30 7463 O 712.641 -1.47957 0.919472 0
M  V30 7464 C 709.773 -2.8345 1.89391 0
M  V30 7465 H 710.966 -1.23316 2.73374 0
M  V30 7466 H 708.519 -0.608312 1.43977 0
M  V30 7467 H 709.254 -3.09716 0.961589 0
M  V30 7468 H 709.039 -2.82844 2.71555 0
M  V30 7469 H 710.529 -3.60722 2.10404 0
M  V30 7470 N 710.966 -1.44241 -0.634997 0
M  V30 7471 C 712.212 -1.47038 -1.39669 0
M  V30 7472 C 712.545 -0.101122 -1.93937 0
M  V30 7473 O 711.82 0.880699 -1.73418 0
M  V30 7474 C 712.103 -2.52763 -2.56482 0
M  V30 7475 C 711.956 -3.99032 -2.07589 0
M  V30 7476 C 713.275 -2.55031 -3.58674 0
M  V30 7477 H 710.394 -0.53537 -0.506506 0
M  V30 7478 H 713.036 -1.75898 -0.718317 0
M  V30 7479 H 711.186 -2.28284 -3.14354 0
M  V30 7480 H 712.858 -4.3463 -1.54577 0
M  V30 7481 H 711.101 -4.10994 -1.38804 0
M  V30 7482 H 711.772 -4.68649 -2.91671 0
M  V30 7483 H 714.248 -2.76893 -3.10595 0
M  V30 7484 H 713.124 -3.30916 -4.37934 0
M  V30 7485 H 713.385 -1.59085 -4.12486 0
M  V30 7486 N 712.444 0.87505 -1.31075 0
M  V30 7487 C 713.692 1.62447 -1.20231 0
M  V30 7488 C 714.013 1.93506 0.240888 0
M  V30 7489 O 713.283 1.57847 1.16022 0
M  V30 7490 H 711.863 0.602207 -0.441991 0
M  V30 7491 H 714.525 1.04788 -1.64334 0
M  V30 7492 H 713.621 2.57031 -1.77036 0
M  V30 7493 N 713.922 1.13953 1.08869 0
M  V30 7494 C 715.169 0.90481 1.81161 0
M  V30 7495 C 715.497 -0.568824 1.85996 0
M  V30 7496 O 714.752 -1.43723 1.32823 0
M  V30 7497 C 715.051 1.44495 3.26888 0
M  V30 7498 C 714.717 2.93641 3.42178 0
M  V30 7499 C 713.379 3.34361 3.46059 0
M  V30 7500 C 715.731 3.89568 3.46246 0
M  V30 7501 C 713.059 4.69681 3.51592 0
M  V30 7502 C 715.411 5.2474 3.53314 0
M  V30 7503 C 714.075 5.64979 3.55465 0
M  V30 7504 H 713.345 0.331094 0.662916 0
M  V30 7505 H 715.992 1.42242 1.28217 0
M  V30 7506 H 714.297 0.848169 3.82509 0
M  V30 7507 H 715.994 1.23934 3.81368 0
M  V30 7508 H 712.584 2.61156 3.39846 0
M  V30 7509 H 716.768 3.59192 3.42483 0
M  V30 7510 H 712.024 5.00224 3.51547 0
M  V30 7511 H 716.198 5.98882 3.55406 0
M  V30 7512 H 713.825 6.69821 3.59505 0
M  V30 7513 N 715.4 -1.26948 0.933913 0
M  V30 7514 C 716.347 -2.26635 0.436484 0
M  V30 7515 C 717.317 -1.58397 -0.499953 0
M  V30 7516 O 718.502 -1.86171 -0.417753 0
M  V30 7517 C 715.642 -3.43803 -0.298951 0
M  V30 7518 C 714.755 -4.26736 0.672316 0
M  V30 7519 C 713.89 -5.31134 -0.0835872 0
M  V30 7520 C 712.929 -6.05742 0.879979 0
M  V30 7521 N 712.066 -7.01926 0.156301 0
M  V30 7522 H 716.906 -2.68558 1.29154 0
M  V30 7523 H 714.443 -1.32052 0.648118 0
M  V30 7524 H 716.401 -4.10554 -0.741723 0
M  V30 7525 H 715.031 -3.02814 -1.1182 0
M  V30 7526 H 714.083 -3.59842 1.23361 0
M  V30 7527 H 715.395 -4.78502 1.40846 0
M  V30 7528 H 714.549 -6.03863 -0.585984 0
M  V30 7529 H 713.288 -4.80188 -0.852661 0
M  V30 7530 H 712.293 -5.31846 1.39357 0
M  V30 7531 H 713.518 -6.58777 1.64894 0
M  V30 7532 H 711.464 -6.53301 -0.594413 0
M  V30 7533 H 711.381 -7.51409 0.831906 0
M  V30 7534 H 712.649 -7.78821 -0.325239 0
M  V30 7535 N 716.879 -0.700114 -1.41195 0
M  V30 7536 C 717.809 -0.0521132 -2.33442 0
M  V30 7537 C 718.79 0.76228 -1.52063 0
M  V30 7538 O 719.975 0.714336 -1.80585 0
M  V30 7539 C 717.105 0.881693 -3.35922 0
M  V30 7540 C 716.059 0.174062 -4.27646 0
M  V30 7541 C 715.385 1.22254 -5.20536 0
M  V30 7542 C 716.685 -0.962396 -5.13357 0
M  V30 7543 H 718.379 -0.822574 -2.87879 0
M  V30 7544 H 715.925 -0.397011 -1.38419 0
M  V30 7545 H 717.878 1.34429 -3.99383 0
M  V30 7546 H 716.602 1.68387 -2.79845 0
M  V30 7547 H 715.261 -0.268551 -3.65615 0
M  V30 7548 H 714.909 2.01736 -4.60773 0
M  V30 7549 H 714.609 0.754038 -5.82742 0
M  V30 7550 H 716.133 1.68555 -5.86874 0
M  V30 7551 H 717.547 -0.579875 -5.7036 0
M  V30 7552 H 715.944 -1.35828 -5.84526 0
M  V30 7553 H 717.014 -1.80003 -4.50252 0
M  V30 7554 N 718.357 1.51182 -0.445186 0
M  V30 7555 C 719.287 2.30821 0.352686 0
M  V30 7556 C 720.268 1.36576 1.01395 0
M  V30 7557 O 721.453 1.65497 1.01609 0
M  V30 7558 C 718.583 3.15593 1.44976 0
M  V30 7559 C 717.537 4.1818 0.911553 0
M  V30 7560 C 716.863 4.91523 2.10497 0
M  V30 7561 C 718.163 5.22266 -0.059418 0
M  V30 7562 H 719.857 2.97771 -0.311936 0
M  V30 7563 H 717.403 1.43201 -0.151461 0
M  V30 7564 H 719.356 3.70091 2.01521 0
M  V30 7565 H 718.08 2.4648 2.14278 0
M  V30 7566 H 716.739 3.64746 0.368264 0
M  V30 7567 H 716.387 4.18906 2.78437 0
M  V30 7568 H 716.087 5.60898 1.7512 0
M  V30 7569 H 717.611 5.48847 2.6758 0
M  V30 7570 H 719.025 5.71789 0.415985 0
M  V30 7571 H 717.422 5.99213 -0.326152 0
M  V30 7572 H 718.492 4.7461 -0.993631 0
M  V30 7573 N 719.835 0.176821 1.56605 0
M  V30 7574 C 720.767 -0.782836 2.15417 0
M  V30 7575 C 721.78 -1.18982 1.11117 0
M  V30 7576 O 722.969 -1.12872 1.38283 0
M  V30 7577 C 720.069 -2.06596 2.68647 0
M  V30 7578 C 719.242 -1.82167 3.9766 0
M  V30 7579 C 718.301 -2.94751 4.35899 0
M  V30 7580 O 717.327 -2.65148 5.03672 0
M  V30 7581 N 718.529 -4.2267 3.97907 0
M  V30 7582 H 721.294 -0.280012 2.98389 0
M  V30 7583 H 718.855 -0.00577529 1.61899 0
M  V30 7584 H 720.847 -2.81018 2.91223 0
M  V30 7585 H 719.417 -2.48054 1.90232 0
M  V30 7586 H 718.637 -0.916208 3.83405 0
M  V30 7587 H 719.925 -1.6322 4.81909 0
M  V30 7588 H 719.323 -4.4958 3.43357 0
M  V30 7589 H 717.88 -4.93778 4.25472 0
M  V30 7590 N 721.313 -1.57302 -0.09688 0
M  V30 7591 C 722.223 -2.05258 -1.13606 0
M  V30 7592 C 723.239 -0.977137 -1.43972 0
M  V30 7593 O 724.415 -1.29018 -1.54649 0
M  V30 7594 C 721.48 -2.46593 -2.43706 0
M  V30 7595 C 720.541 -3.68322 -2.20538 0
M  V30 7596 C 719.774 -4.07676 -3.44435 0
M  V30 7597 O 719.997 -3.47141 -4.52603 0
M  V30 7598 O 718.931 -5.00641 -3.34129 0
M  V30 7599 H 722.757 -2.94069 -0.758752 0
M  V30 7600 H 720.342 -1.46164 -0.309263 0
M  V30 7601 H 722.224 -2.73814 -3.20318 0
M  V30 7602 H 720.899 -1.6092 -2.80867 0
M  V30 7603 H 719.806 -3.4622 -1.41713 0
M  V30 7604 H 721.139 -4.54769 -1.88271 0
M  V30 7605 N 722.791 0.367657 -1.53252 0
M  V30 7606 C 723.701 1.47415 -1.82499 0
M  V30 7607 C 724.717 1.58711 -0.713222 0
M  V30 7608 O 725.893 1.74644 -1.00306 0
M  V30 7609 C 722.958 2.82706 -2.00694 0
M  V30 7610 C 722.019 2.80955 -3.24596 0
M  V30 7611 C 721.252 4.09793 -3.41914 0
M  V30 7612 O 721.475 5.05852 -2.63572 0
M  V30 7613 O 720.409 4.15731 -4.3526 0
M  V30 7614 H 724.235 1.25624 -2.765 0
M  V30 7615 H 721.82 0.557559 -1.38606 0
M  V30 7616 H 723.702 3.62873 -2.14246 0
M  V30 7617 H 722.377 3.04479 -1.09883 0
M  V30 7618 H 721.284 1.99494 -3.16469 0
M  V30 7619 H 722.617 2.64136 -4.15323 0
M  V30 7620 N 724.269 1.44576 0.627338 0
M  V30 7621 C 725.219 1.48168 1.73293 0
M  V30 7622 C 726.203 0.347045 1.57113 0
M  V30 7623 O 727.395 0.592605 1.66785 0
M  V30 7624 C 724.524 1.43236 3.11991 0
M  V30 7625 C 723.61 2.61828 3.33627 0
M  V30 7626 N 724.001 3.87053 3.25612 0
M  V30 7627 C 722.299 2.57104 3.64436 0
M  V30 7628 C 723 4.66093 3.48041 0
M  V30 7629 N 721.976 3.97228 3.71095 0
M  V30 7630 H 725.778 2.42832 1.6556 0
M  V30 7631 H 723.292 1.39592 0.829934 0
M  V30 7632 H 725.289 1.43893 3.91281 0
M  V30 7633 H 723.949 0.496133 3.20887 0
M  V30 7634 H 724.96 4.18966 3.04447 0
M  V30 7635 H 721.637 1.72295 3.8029 0
M  V30 7636 H 723.027 5.75117 3.47404 0
M  V30 7637 N 725.747 -0.868086 1.31537 0
M  V30 7638 C 726.987 -1.63526 1.22632 0
M  V30 7639 C 727.351 -1.90828 -0.211815 0
M  V30 7640 O 728.552 -2.65429 -0.424387 0
M  V30 7641 C 726.823 -2.92849 2.04876 0
M  V30 7642 S 728.382 -3.83717 2.12853 0
M  V30 7643 H 725.2 -0.56105 0.436743 0
M  V30 7644 H 727.802 -1.02908 1.66223 0
M  V30 7645 H 726.506 -2.70717 3.08449 0
M  V30 7646 H 726.037 -3.58491 1.62011 0
M  V30 7647 H 728.052 -4.79719 1.26822 0
M  V30 7648 N 727.225 -1.14528 -1.08264 0
M  V30 7649 C 728.502 -0.825185 -1.77342 0
M  V30 7650 C 728.882 0.681037 -1.99813 0
M  V30 7651 O 728.23 1.62234 -1.60912 0
M  V30 7652 C 728.44 -1.62556 -3.08831 0
M  V30 7653 C 729.788 -1.82585 -3.83338 0
M  V30 7654 O 730.812 -1.59254 -3.18617 0
M  V30 7655 O 729.671 -2.21598 -4.99556 0
M  V30 7656 H 726.765 -0.302531 -0.769678 0
M  V30 7657 H 729.311 -1.25056 -1.14713 0
M  V30 7658 H 728.083 -2.64862 -2.88035 0
M  V30 7659 H 727.706 -1.1959 -3.79189 0
M  V30 7660 N 728.703 1.26451 -0.940633 0
M  V30 7661 C 729.952 1.93071 -0.583656 0
M  V30 7662 C 730.265 1.74618 0.881366 0
M  V30 7663 O 731.471 2.35689 1.34769 0
M  V30 7664 C 729.927 3.45927 -0.993106 0
M  V30 7665 C 729.535 3.73115 -2.4797 0
M  V30 7666 C 731.279 4.18554 -0.707998 0
M  V30 7667 C 729.186 5.19408 -2.82788 0
M  V30 7668 H 728.116 0.722824 -0.214572 0
M  V30 7669 H 730.767 1.43538 -1.1432 0
M  V30 7670 H 729.149 3.94341 -0.362099 0
M  V30 7671 H 730.323 3.35408 -3.15971 0
M  V30 7672 H 728.638 3.13719 -2.73805 0
M  V30 7673 H 731.235 5.26293 -0.94447 0
M  V30 7674 H 731.578 4.14782 0.355225 0
M  V30 7675 H 732.111 3.76003 -1.2987 0
M  V30 7676 H 728.85 5.28281 -3.88071 0
M  V30 7677 H 728.37 5.58214 -2.19449 0
M  V30 7678 H 730.049 5.87407 -2.71224 0
M  V30 7679 N 730.181 0.707592 1.40822 0
M  V30 7680 C 731.428 0.243671 2.01029 0
M  V30 7681 C 731.756 -1.16057 1.5608 0
M  V30 7682 O 731.011 -1.7999 0.768251 0
M  V30 7683 C 731.31 0.262892 3.56432 0
M  V30 7684 C 730.976 1.61632 4.20935 0
M  V30 7685 C 729.638 1.98682 4.38268 0
M  V30 7686 C 731.99 2.50619 4.5699 0
M  V30 7687 C 729.318 3.2428 4.88937 0
M  V30 7688 C 731.67 3.75562 5.09054 0
M  V30 7689 C 730.334 4.12739 5.24598 0
M  V30 7690 H 729.604 0.0891654 0.735616 0
M  V30 7691 H 732.251 0.909051 1.68548 0
M  V30 7692 H 730.556 -0.486052 3.88773 0
M  V30 7693 H 732.253 -0.113775 4.00839 0
M  V30 7694 H 728.843 1.31818 4.07826 0
M  V30 7695 H 733.027 2.23272 4.43242 0
M  V30 7696 H 728.283 3.53064 4.99155 0
M  V30 7697 H 732.457 4.44692 5.35931 0
M  V30 7698 H 730.084 5.10132 5.63622 0
M  V30 7699 N 731.66 -1.50943 0.453197 0
M  V30 7700 C 732.593 -2.24742 -0.395787 0
M  V30 7701 C 733.571 -1.27316 -1.01141 0
M  V30 7702 O 734.755 -1.56494 -1.05081 0
M  V30 7703 C 731.882 -3.00999 -1.55298 0
M  V30 7704 C 730.928 -4.13207 -1.0565 0
M  V30 7705 S 731.761 -5.35498 0.01435 0
M  V30 7706 C 732.917 -6.15298 -1.14714 0
M  V30 7707 H 733.15 -2.96403 0.23071 0
M  V30 7708 H 730.683 -1.52557 0.237874 0
M  V30 7709 H 732.641 -3.45529 -2.2163 0
M  V30 7710 H 731.302 -2.28896 -2.15094 0
M  V30 7711 H 730.495 -4.65901 -1.9223 0
M  V30 7712 H 730.097 -3.7102 -0.471182 0
M  V30 7713 H 732.389 -6.45346 -2.06239 0
M  V30 7714 H 733.332 -7.05019 -0.659842 0
M  V30 7715 H 733.74 -5.47046 -1.39288 0
M  V30 7716 N 733.138 -0.185124 -1.56509 0
M  V30 7717 C 734.086 0.756505 -2.19954 0
M  V30 7718 C 735.08 1.22725 -1.16769 0
M  V30 7719 O 736.286 1.1913 -1.34937 0
M  V30 7720 H 732.661 0.262279 -0.704779 0
M  V30 7721 H 734.632 0.197587 -2.97745 0
M  V30 7722 C 733.381 1.96975 -2.86524 0
M  V30 7723 H 732.704 1.61658 -3.65659 0
M  V30 7724 H 734.144 2.60719 -3.34367 0
M  V30 7725 C 732.603 2.80219 -1.87027 0
M  V30 7726 O 733.133 3.77821 -1.36433 0
M  V30 7727 N 731.339 2.4551 -1.55477 0
M  V30 7728 H 730.886 1.66199 -1.96813 0
M  V30 7729 H 730.844 3.01493 -0.891597 0
M  V30 7730 N 734.616 1.57351 0.0885366 0
M  V30 7731 C 735.546 2.05561 1.10757 0
M  V30 7732 C 736.527 0.945789 1.41382 0
M  V30 7733 O 737.712 1.21747 1.51299 0
M  V30 7734 C 734.842 2.48554 2.42566 0
M  V30 7735 C 733.796 3.63259 2.26334 0
M  V30 7736 C 733.122 3.9225 3.63378 0
M  V30 7737 C 734.422 4.93913 1.69844 0
M  V30 7738 H 736.116 2.90946 0.706468 0
M  V30 7739 H 733.662 1.39968 0.338385 0
M  V30 7740 H 735.615 2.8089 3.14132 0
M  V30 7741 H 734.339 1.60176 2.84625 0
M  V30 7742 H 732.998 3.31179 1.57213 0
M  V30 7743 H 732.646 3.0103 4.02976 0
M  V30 7744 H 732.346 4.69478 3.53362 0
M  V30 7745 H 733.87 4.27067 4.36401 0
M  V30 7746 H 735.284 5.24588 2.31258 0
M  V30 7747 H 733.681 5.75349 1.70569 0
M  V30 7748 H 734.751 4.80409 0.65843 0
M  V30 7749 N 736.094 -0.359525 1.53444 0
M  V30 7750 C 737.322 -1.12198 1.73837 0
M  V30 7751 C 737.737 -1.82854 0.470107 0
M  V30 7752 O 737.094 -1.73781 -0.557349 0
M  V30 7753 C 737.145 -2.14769 2.90786 0
M  V30 7754 O 736.866 -1.46989 4.12706 0
M  V30 7755 C 738.367 -3.03514 3.231 0
M  V30 7756 H 735.587 -0.33524 0.581253 0
M  V30 7757 H 738.131 -0.416598 2.00212 0
M  V30 7758 H 736.286 -2.80896 2.66788 0
M  V30 7759 H 736.7 -2.15378 4.78239 0
M  V30 7760 H 738.174 -3.71453 4.08322 0
M  V30 7761 H 738.651 -3.68658 2.38721 0
M  V30 7762 H 739.257 -2.42996 3.49046 0
M  V30 7763 N 737.572 -1.44907 -0.619662 0
M  V30 7764 C 738.519 -1.52654 -1.73105 0
M  V30 7765 C 739.489 -0.373334 -1.6185 0
M  V30 7766 O 740.674 -0.585143 -1.81606 0
M  V30 7767 C 737.814 -1.48769 -3.11387 0
M  V30 7768 C 736.927 -2.74551 -3.33535 0
M  V30 7769 C 736.062 -2.62421 -4.61854 0
M  V30 7770 C 735.101 -3.83312 -4.77219 0
M  V30 7771 N 734.238 -3.69789 -5.96826 0
M  V30 7772 H 739.078 -2.47605 -1.65819 0
M  V30 7773 H 736.615 -1.22875 -0.808719 0
M  V30 7774 H 738.573 -1.44507 -3.91374 0
M  V30 7775 H 737.203 -0.573783 -3.1766 0
M  V30 7776 H 736.255 -2.88953 -2.47408 0
M  V30 7777 H 737.567 -3.64253 -3.40765 0
M  V30 7778 H 736.721 -2.56056 -5.50019 0
M  V30 7779 H 735.46 -1.70298 -4.57001 0
M  V30 7780 H 734.465 -3.90049 -3.87481 0
M  V30 7781 H 735.69 -4.76486 -4.83878 0
M  V30 7782 H 733.636 -2.80426 -5.93041 0
M  V30 7783 H 733.553 -4.53116 -6.05163 0
M  V30 7784 H 734.821 -3.67335 -6.87521 0
M  V30 7785 N 739.05 0.861098 -1.31996 0
M  V30 7786 C 739.997 1.96912 -1.20392 0
M  V30 7787 C 740.967 1.65869 -0.0875899 0
M  V30 7788 O 742.152 1.88992 -0.262011 0
M  V30 7789 C 739.292 3.32435 -0.926335 0
M  V30 7790 C 738.405 3.76018 -2.12684 0
M  V30 7791 C 737.54 5.00301 -1.78529 0
M  V30 7792 C 736.579 5.36357 -2.94937 0
M  V30 7793 N 735.716 6.51818 -2.60917 0
M  V30 7794 H 740.556 2.06169 -2.1517 0
M  V30 7795 H 738.093 1.00917 -1.07024 0
M  V30 7796 H 740.051 4.10478 -0.745917 0
M  V30 7797 H 738.681 3.22796 -0.0153578 0
M  V30 7798 H 737.733 2.93683 -2.41774 0
M  V30 7799 H 739.045 3.98664 -2.99781 0
M  V30 7800 H 738.199 5.86034 -1.57001 0
M  V30 7801 H 736.938 4.79578 -0.886356 0
M  V30 7802 H 735.943 4.49139 -3.17103 0
M  V30 7803 H 737.168 5.59041 -3.85552 0
M  V30 7804 H 735.114 6.32624 -1.73558 0
M  V30 7805 H 735.031 6.7445 -3.41544 0
M  V30 7806 H 736.299 7.4072 -2.42804 0
M  V30 7807 N 740.528 1.15101 1.07655 0
M  V30 7808 C 741.46 0.802722 2.14684 0
M  V30 7809 C 742.473 -0.183874 1.61758 0
M  V30 7810 O 743.662 0.0389349 1.78458 0
M  V30 7811 C 740.762 0.172135 3.38463 0
M  V30 7812 C 739.935 1.19538 4.20749 0
M  V30 7813 C 738.994 0.58714 5.22914 0
M  V30 7814 O 738.02 1.25224 5.55255 0
M  V30 7815 N 739.222 -0.632566 5.77043 0
M  V30 7816 H 741.987 1.72379 2.45164 0
M  V30 7817 H 739.548 1.04647 1.23534 0
M  V30 7818 H 741.54 -0.247465 4.03943 0
M  V30 7819 H 740.11 -0.652214 3.0572 0
M  V30 7820 H 739.33 1.79165 3.51132 0
M  V30 7821 H 740.618 1.88636 4.7254 0
M  V30 7822 H 740.016 -1.19135 5.53013 0
M  V30 7823 H 738.573 -0.994566 6.44167 0
M  V30 7824 N 742.006 -1.2595 0.947325 0
M  V30 7825 C 743.422 -1.45737 0.650597 0
M  V30 7826 C 743.622 -1.85189 -0.794188 0
M  V30 7827 O 742.678 -1.97738 -1.57022 0
M  V30 7828 C 743.991 -2.53505 1.61728 0
M  V30 7829 C 745.539 -2.67351 1.62765 0
M  V30 7830 C 746.014 -3.78296 2.58179 0
M  V30 7831 N 747.505 -3.85696 2.56501 0
M  V30 7832 C 748.24 -4.71012 3.2701 0
M  V30 7833 N 747.736 -5.60669 4.06966 0
M  V30 7834 N 749.529 -4.64912 3.15932 0
M  V30 7835 H 741.68 -0.986327 1.8811 0
M  V30 7836 H 743.943 -0.494639 0.808725 0
M  V30 7837 H 743.649 -2.31357 2.6489 0
M  V30 7838 H 743.523 -3.51281 1.3741 0
M  V30 7839 H 745.91 -2.88869 0.603241 0
M  V30 7840 H 745.991 -1.69998 1.91139 0
M  V30 7841 H 745.635 -3.5753 3.60742 0
M  V30 7842 H 745.565 -4.75117 2.27093 0
M  V30 7843 H 748.056 -3.21601 1.98447 0
M  V30 7844 H 748.369 -6.22677 4.57704 0
M  V30 7845 H 746.714 -5.60402 4.11066 0
M  V30 7846 H 749.905 -3.93874 2.52945 0
M  V30 7847 H 750.078 -5.3118 3.71149 0
M  V30 7848 N 743.484 -0.715051 -1.40445 0
M  V30 7849 C 744.416 -0.0227516 -2.29189 0
M  V30 7850 C 745.429 0.724313 -1.458 0
M  V30 7851 O 746.618 0.571781 -1.69094 0
M  V30 7852 C 743.718 0.992038 -3.24055 0
M  V30 7853 C 742.891 0.310613 -4.36296 0
M  V30 7854 C 741.95 1.23071 -5.11605 0
M  V30 7855 O 740.976 0.71571 -5.64682 0
M  V30 7856 N 742.178 2.56188 -5.2091 0
M  V30 7857 H 744.943 -0.78473 -2.89244 0
M  V30 7858 H 742.504 -0.562637 -1.51809 0
M  V30 7859 H 744.496 1.60973 -3.71308 0
M  V30 7860 H 743.066 1.65538 -2.65171 0
M  V30 7861 H 742.286 -0.487269 -3.91177 0
M  V30 7862 H 743.574 -0.162415 -5.08541 0
M  V30 7863 H 742.972 3.00527 -4.7927 0
M  V30 7864 H 741.529 3.13103 -5.71673 0
M  V30 7865 N 744.962 1.50701 -0.461195 0
M  V30 7866 C 746.19 2.06681 0.0951756 0
M  V30 7867 C 746.605 1.32615 1.34382 0
M  V30 7868 O 745.962 0.392531 1.78229 0
M  V30 7869 C 746.013 3.59354 0.393316 0
M  V30 7870 O 745.734 4.30626 -0.805797 0
M  V30 7871 C 747.235 4.31926 0.997744 0
M  V30 7872 H 744.455 0.670995 -0.00267259 0
M  V30 7873 H 746.999 1.93991 -0.647137 0
M  V30 7874 H 745.154 3.7188 1.08555 0
M  V30 7875 H 745.568 5.21667 -0.544409 0
M  V30 7876 H 747.042 5.39756 1.15619 0
M  V30 7877 H 747.519 3.91772 1.98523 0
M  V30 7878 H 748.125 4.23905 0.344188 0
M  V30 7879 N 746.441 0.193421 1.56409 0
M  V30 7880 C 747.371 -0.723334 2.22014 0
M  V30 7881 C 748.352 -1.22254 1.1827 0
M  V30 7882 O 749.537 -1.27168 1.46771 0
M  V30 7883 C 746.667 -1.94366 2.87818 0
M  V30 7884 C 745.621 -1.57943 3.97791 0
M  V30 7885 C 744.947 -2.87623 4.50752 0
M  V30 7886 C 746.247 -0.790639 5.16281 0
M  V30 7887 H 747.941 -0.176426 2.9888 0
M  V30 7888 H 745.487 -0.0834166 1.43758 0
M  V30 7889 H 747.44 -2.5902 3.32396 0
M  V30 7890 H 746.164 -2.51507 2.08355 0
M  V30 7891 H 744.823 -0.956482 3.53903 0
M  V30 7892 H 744.471 -3.4285 3.68053 0
M  V30 7893 H 744.171 -2.63998 5.24956 0
M  V30 7894 H 745.695 -3.53268 4.9803 0
M  V30 7895 H 747.109 -1.34024 5.57414 0
M  V30 7896 H 745.506 -0.65258 5.96541 0
M  V30 7897 H 746.576 0.208633 4.84451 0
M  V30 7898 N 747.919 -1.57396 -0.0801906 0
M  V30 7899 C 749.335 -1.53564 -0.434778 0
M  V30 7900 C 749.535 -0.912372 -1.79661 0
M  V30 7901 O 748.591 -0.511268 -2.4727 0
M  V30 7902 C 749.904 -2.98244 -0.383561 0
M  V30 7903 C 751.452 -3.09536 -0.46435 0
M  V30 7904 C 751.927 -4.55851 -0.443128 0
M  V30 7905 N 753.418 -4.60456 -0.503448 0
M  V30 7906 C 754.153 -5.71135 -0.509106 0
M  V30 7907 N 753.649 -6.91203 -0.47008 0
M  V30 7908 N 755.442 -5.59353 -0.555035 0
M  V30 7909 H 747.593 -1.96281 0.811635 0
M  V30 7910 H 749.856 -0.898041 0.303689 0
M  V30 7911 H 749.562 -3.47369 0.550236 0
M  V30 7912 H 749.436 -3.57705 -1.19694 0
M  V30 7913 H 751.823 -2.6039 -1.38857 0
M  V30 7914 H 751.904 -2.53 0.377445 0
M  V30 7915 H 751.548 -5.05653 0.477207 0
M  V30 7916 H 751.478 -5.10242 -1.30234 0
M  V30 7917 H 753.969 -3.74048 -0.538199 0
M  V30 7918 H 754.282 -7.7132 -0.478091 0
M  V30 7919 H 752.627 -6.93625 -0.436897 0
M  V30 7920 H 755.818 -4.64453 -0.583158 0
M  V30 7921 H 755.991 -6.4561 -0.555976 0
M  V30 7922 N 749.397 0.351382 -1.53633 0
M  V30 7923 C 750.344 1.43115 -1.81071 0
M  V30 7924 C 751.314 1.52601 -0.655913 0
M  V30 7925 O 752.499 1.68264 -0.89955 0
M  V30 7926 C 749.639 2.79874 -2.01903 0
M  V30 7927 C 748.752 2.79242 -3.29618 0
M  V30 7928 C 747.887 4.07667 -3.40559 0
M  V30 7929 C 746.926 4.01233 -4.62254 0
M  V30 7930 N 746.063 5.21334 -4.70271 0
M  V30 7931 H 750.903 1.19017 -2.73201 0
M  V30 7932 H 748.44 0.576691 -1.35324 0
M  V30 7933 H 750.398 3.5934 -2.11969 0
M  V30 7934 H 749.028 3.0234 -1.13094 0
M  V30 7935 H 748.08 1.91927 -3.28433 0
M  V30 7936 H 749.392 2.70363 -4.19172 0
M  V30 7937 H 748.546 4.95555 -3.50015 0
M  V30 7938 H 747.285 4.19317 -2.49047 0
M  V30 7939 H 746.29 3.11732 -4.52884 0
M  V30 7940 H 747.515 3.91173 -5.55122 0
M  V30 7941 H 745.461 5.33543 -3.81665 0
M  V30 7942 H 745.378 5.14681 -5.5375 0
M  V30 7943 H 746.646 6.11014 -4.84027 0
M  V30 7944 N 750.875 1.45233 0.611969 0
M  V30 7945 C 751.808 1.48056 1.73651 0
M  V30 7946 C 752.786 0.337373 1.59061 0
M  V30 7947 O 753.97 0.537222 1.80683 0
M  V30 7948 C 751.097 1.33144 3.11433 0
M  V30 7949 C 750.143 2.51272 3.44623 0
M  V30 7950 S 750.976 4.13754 3.39953 0
M  V30 7951 C 752.132 4.013 4.80322 0
M  V30 7952 H 752.365 2.43205 1.70993 0
M  V30 7953 H 749.898 1.32763 0.788246 0
M  V30 7954 H 751.856 1.25228 3.90932 0
M  V30 7955 H 750.517 0.394734 3.1161 0
M  V30 7956 H 749.71 2.36753 4.44932 0
M  V30 7957 H 749.312 2.56027 2.72629 0
M  V30 7958 H 751.604 3.66174 5.7002 0
M  V30 7959 H 752.547 5.01506 4.99897 0
M  V30 7960 H 752.955 3.3303 4.55797 0
M  V30 7961 N 752.353 -0.854086 1.3245 0
M  V30 7962 C 753.599 -1.61069 1.23225 0
M  V30 7963 C 753.932 -1.93111 -0.205349 0
M  V30 7964 O 753.207 -1.57397 -1.14265 0
M  V30 7965 C 753.49 -2.93065 2.09249 0
M  V30 7966 C 753.343 -2.67801 3.6139 0
M  V30 7967 C 754.662 -3.94341 1.95406 0
M  V30 7968 H 751.781 -0.584449 0.448986 0
M  V30 7969 H 754.423 -0.986189 1.62402 0
M  V30 7970 H 752.573 -3.46364 1.75967 0
M  V30 7971 H 754.245 -2.21052 4.04887 0
M  V30 7972 H 752.488 -2.01756 3.84027 0
M  V30 7973 H 753.159 -3.6179 4.16907 0
M  V30 7974 H 755.635 -3.50301 2.24562 0
M  V30 7975 H 754.511 -4.84555 2.57872 0
M  V30 7976 H 754.772 -4.32382 0.921865 0
M  V30 7977 N 753.831 -1.1567 -1.07043 0
M  V30 7978 C 755.08 -0.928039 -1.79082 0
M  V30 7979 C 755.393 0.545968 -1.87826 0
M  V30 7980 O 756.599 0.892308 -2.56418 0
M  V30 7981 C 755.055 -1.61103 -3.21829 0
M  V30 7982 C 754.663 -3.12228 -3.21275 0
M  V30 7983 C 756.407 -1.46404 -3.98455 0
M  V30 7984 C 754.314 -3.733 -4.58695 0
M  V30 7985 H 753.244 -0.34357 -0.671175 0
M  V30 7986 H 755.895 -1.38718 -1.20123 0
M  V30 7987 H 754.277 -1.07958 -3.81 0
M  V30 7988 H 755.451 -3.72155 -2.71731 0
M  V30 7989 H 753.766 -3.26725 -2.58147 0
M  V30 7990 H 756.363 -1.8942 -5.00024 0
M  V30 7991 H 756.706 -0.41195 -4.14257 0
M  V30 7992 H 757.239 -1.96663 -3.45787 0
M  V30 7993 H 753.978 -4.78423 -4.48098 0
M  V30 7994 H 753.498 -3.18157 -5.08465 0
M  V30 7995 H 755.177 -3.7441 -5.27661 0
M  V30 7996 N 755.309 1.25446 -0.953992 0
M  V30 7997 C 756.586 1.884 -0.525823 0
M  V30 7998 C 756.966 1.86079 0.996891 0
M  V30 7999 O 756.314 1.32389 1.8624 0
M  V30 8000 C 756.524 3.31154 -1.10172 0
M  V30 8001 C 757.872 4.07926 -1.17819 0
M  V30 8002 O 758.896 3.40273 -1.05323 0
M  V30 8003 O 757.755 5.28942 -1.37415 0
M  V30 8004 H 754.849 0.808629 -0.173345 0
M  V30 8005 H 757.395 1.33522 -1.04738 0
M  V30 8006 H 756.167 3.27271 -2.14499 0
M  V30 8007 H 755.79 3.93588 -0.56338 0
M  V30 8008 N 756.787 0.722489 1.40064 0
M  V30 8009 C 757.72 0.0233443 2.28188 0
M  V30 8010 C 758.698 -0.7606 1.43714 0
M  V30 8011 O 759.882 -0.745791 1.73119 0
M  V30 8012 C 757.009 -0.974264 3.24385 0
M  V30 8013 C 756.055 -0.280307 4.25578 0
M  V30 8014 S 756.888 0.996769 5.26141 0
M  V30 8015 C 758.044 0.00143923 6.259 0
M  V30 8016 H 758.277 0.770705 2.87137 0
M  V30 8017 H 755.81 0.513783 1.45601 0
M  V30 8018 H 757.768 -1.5446 3.80332 0
M  V30 8019 H 756.429 -1.69438 2.6448 0
M  V30 8020 H 755.622 -1.03471 4.93264 0
M  V30 8021 H 755.224 0.217657 3.73366 0
M  V30 8022 H 757.516 -0.843126 6.72233 0
M  V30 8023 H 758.459 0.645104 7.05155 0
M  V30 8024 H 758.867 -0.365371 5.63316 0
M  V30 8025 N 758.265 -1.50454 0.469181 0
M  V30 8026 C 759.511 -2.02615 -0.0865971 0
M  V30 8027 C 759.844 -1.35062 -1.39542 0
M  V30 8028 O 759.119 -0.475701 -1.88593 0
M  V30 8029 C 759.402 -3.59068 -0.272385 0
M  V30 8030 C 759.255 -4.37196 1.05733 0
M  V30 8031 C 760.574 -4.2793 -1.0278 0
M  V30 8032 H 757.693 -0.736389 -0.0299977 0
M  V30 8033 H 760.335 -1.79792 0.614399 0
M  V30 8034 H 758.485 -3.78646 -0.869471 0
M  V30 8035 H 760.157 -4.29195 1.69084 0
M  V30 8036 H 758.4 -4.01013 1.65442 0
M  V30 8037 H 759.071 -5.44924 0.880997 0
M  V30 8038 H 761.547 -4.12816 -0.521718 0
M  V30 8039 H 760.423 -5.37214 -1.12659 0
M  V30 8040 H 760.684 -3.90968 -2.0639 0
M  V30 8041 N 759.743 -0.201713 -1.56304 0
M  V30 8042 C 760.673 0.71155 -2.22394 0
M  V30 8043 C 761.654 1.21625 -1.18917 0
M  V30 8044 O 762.839 1.26388 -1.47444 0
M  V30 8045 C 759.969 1.92837 -2.88845 0
M  V30 8046 C 758.923 1.55831 -3.98623 0
M  V30 8047 C 758.249 2.85228 -4.52271 0
M  V30 8048 C 759.549 0.763249 -5.16693 0
M  V30 8049 H 761.243 0.160573 -2.98969 0
M  V30 8050 H 758.789 0.0757916 -1.438 0
M  V30 8051 H 760.742 2.57253 -3.33764 0
M  V30 8052 H 759.466 2.50398 -2.09686 0
M  V30 8053 H 758.125 0.9377 -3.54405 0
M  V30 8054 H 757.773 3.40893 -3.69866 0
M  V30 8055 H 757.473 2.6121 -5.26349 0
M  V30 8056 H 758.997 3.50622 -4.99897 0
M  V30 8057 H 760.411 1.31066 -5.58117 0
M  V30 8058 H 758.808 0.620935 -5.96879 0
M  V30 8059 H 759.878 -0.234322 -4.84334 0
M  V30 8060 N 761.222 1.57436 0.0718424 0
M  V30 8061 C 762.185 2.02703 1.06977 0
M  V30 8062 C 763.185 0.924062 1.31597 0
M  V30 8063 O 764.375 1.18894 1.27318 0
M  V30 8064 C 761.507 2.40763 2.41342 0
M  V30 8065 H 762.7 2.92098 0.679619 0
M  V30 8066 H 760.253 1.5304 0.317565 0
M  V30 8067 H 760.988 1.54394 2.8519 0
M  V30 8068 H 760.773 3.21249 2.24814 0
M  V30 8069 H 762.263 2.76361 3.13073 0
M  V30 8070 N 762.7 -0.34323 1.53817 0
M  V30 8071 C 763.928 -1.10348 1.75017 0
M  V30 8072 C 764.343 -1.82345 0.489475 0
M  V30 8073 O 763.7 -1.74362 -0.538886 0
M  V30 8074 C 763.751 -2.11672 2.93048 0
M  V30 8075 O 763.472 -1.42603 4.14241 0
M  V30 8076 C 764.973 -3.0007 3.26301 0
M  V30 8077 H 762.193 -0.329056 0.584776 0
M  V30 8078 H 764.737 -0.395339 2.00642 0
M  V30 8079 H 762.892 -2.78051 2.69753 0
M  V30 8080 H 763.306 -2.10294 4.80496 0
M  V30 8081 H 764.78 -3.67101 4.12239 0
M  V30 8082 H 765.257 -3.66105 2.42618 0
M  V30 8083 H 765.863 -2.3928 3.51604 0
M  V30 8084 N 764.178 -1.45556 -0.604258 0
M  V30 8085 C 765.455 -1.40221 -1.36373 0
M  V30 8086 C 765.835 -0.0745195 -2.10968 0
M  V30 8087 O 765.183 0.943594 -2.08107 0
M  V30 8088 C 765.393 -2.61807 -2.30777 0
M  V30 8089 C 766.741 -3.07037 -2.93281 0
M  V30 8090 O 767.765 -2.62203 -2.41097 0
M  V30 8091 O 766.624 -3.8485 -3.88011 0
M  V30 8092 H 763.718 -0.556602 -0.611656 0
M  V30 8093 H 766.264 -1.57689 -0.627069 0
M  V30 8094 H 765.036 -3.50017 -1.74939 0
M  V30 8095 H 764.659 -2.46688 -3.11818 0
M  V30 8096 N 765.656 0.84705 -1.32902 0
M  V30 8097 C 766.589 1.96038 -1.1681 0
M  V30 8098 C 767.567 1.62468 -0.0656144 0
M  V30 8099 O 768.751 1.87136 -0.226339 0
M  V30 8100 C 765.878 3.29362 -0.789839 0
M  V30 8101 C 764.924 3.81908 -1.89865 0
M  V30 8102 S 765.757 4.04576 -3.50826 0
M  V30 8103 C 766.913 5.40863 -3.14989 0
M  V30 8104 H 767.146 2.09387 -2.11055 0
M  V30 8105 H 764.679 0.999896 -1.1765 0
M  V30 8106 H 766.637 4.06405 -0.578369 0
M  V30 8107 H 765.298 3.13815 0.133878 0
M  V30 8108 H 764.491 4.78357 -1.58716 0
M  V30 8109 H 764.093 3.11733 -2.06636 0
M  V30 8110 H 766.385 6.23393 -2.65306 0
M  V30 8111 H 767.328 5.7698 -4.10488 0
M  V30 8112 H 767.736 5.05228 -2.51804 0
M  V30 8113 N 767.134 1.16236 1.06428 0
M  V30 8114 C 768.359 0.967688 1.83441 0
M  V30 8115 C 768.784 -0.479167 1.81894 0
M  V30 8116 O 768.142 -1.34224 1.21875 0
M  V30 8117 C 768.19 1.49806 3.2801 0
M  V30 8118 O 767.294 0.703481 4.06356 0
M  V30 8119 H 766.635 0.344468 0.56766 0
M  V30 8120 H 769.165 1.54442 1.34197 0
M  V30 8121 H 769.175 1.51495 3.78831 0
M  V30 8122 H 767.85 2.55133 3.2845 0
M  V30 8123 H 766.427 0.756986 3.65136 0
M  V30 8124 N 768.612 -1.24939 0.960631 0
M  V30 8125 C 769.559 -2.25658 0.484459 0
M  V30 8126 C 770.529 -1.59422 -0.466242 0
M  V30 8127 O 771.714 -1.87015 -0.378169 0
M  V30 8128 C 768.854 -3.44359 -0.225958 0
M  V30 8129 C 767.967 -4.25214 0.762682 0
M  V30 8130 C 767.102 -5.31192 0.0290931 0
M  V30 8131 C 766.141 -6.03739 1.00827 0
M  V30 8132 N 765.278 -7.01437 0.305155 0
M  V30 8133 H 770.118 -2.65758 1.34821 0
M  V30 8134 H 767.655 -1.30648 0.675983 0
M  V30 8135 H 769.613 -4.12035 -0.654472 0
M  V30 8136 H 768.243 -3.05118 -1.05371 0
M  V30 8137 H 767.295 -3.57144 1.30966 0
M  V30 8138 H 768.607 -4.75406 1.50964 0
M  V30 8139 H 767.761 -6.04971 -0.457763 0
M  V30 8140 H 766.5 -4.81889 -0.750614 0
M  V30 8141 H 765.505 -5.2877 1.50607 0
M  V30 8142 H 766.73 -6.55131 1.7883 0
M  V30 8143 H 764.676 -6.54415 -0.455704 0
M  V30 8144 H 764.593 -7.49475 0.991104 0
M  V30 8145 H 765.861 -7.79336 -0.159966 0
M  V30 8146 N 770.09 -0.729906 -1.39679 0
M  V30 8147 C 771.04 -0.0627678 -2.27914 0
M  V30 8148 C 772.024 0.717867 -1.43998 0
M  V30 8149 O 773.216 0.587713 -1.66958 0
M  V30 8150 C 770.345 0.847564 -3.32673 0
M  V30 8151 C 769.431 0.0613515 -4.24056 0
M  V30 8152 N 769.822 -0.962863 -4.96551 0
M  V30 8153 C 768.12 0.291773 -4.45045 0
M  V30 8154 C 768.821 -1.43652 -5.63683 0
M  V30 8155 N 767.797 -0.756044 -5.38317 0
M  V30 8156 H 771.599 -0.847545 -2.81414 0
M  V30 8157 H 769.113 -0.563776 -1.523 0
M  V30 8158 H 771.11 1.34094 -3.94746 0
M  V30 8159 H 769.77 1.63156 -2.80732 0
M  V30 8160 H 770.781 -1.34409 -5.00154 0
M  V30 8161 H 767.458 1.05097 -4.04056 0
M  V30 8162 H 768.848 -2.28835 -6.31731 0
M  V30 8163 N 771.568 1.50203 -0.477153 0
M  V30 8164 C 772.501 2.25343 0.359983 0
M  V30 8165 C 773.479 1.28909 0.991022 0
M  V30 8166 O 774.663 1.58146 1.02578 0
M  V30 8167 C 771.79 3.03431 1.5049 0
M  V30 8168 C 770.836 4.14836 0.99063 0
M  V30 8169 S 771.669 5.35407 -0.0995413 0
M  V30 8170 C 772.825 6.17045 1.04911 0
M  V30 8171 H 773.058 2.95999 -0.277836 0
M  V30 8172 H 770.591 1.52159 -0.262115 0
M  V30 8173 H 772.549 3.49012 2.16105 0
M  V30 8174 H 771.21 2.32289 2.11425 0
M  V30 8175 H 770.403 4.689 1.84794 0
M  V30 8176 H 770.005 3.71723 0.412097 0
M  V30 8177 H 772.297 6.48546 1.95946 0
M  V30 8178 H 773.24 7.05979 0.547596 0
M  V30 8179 H 773.648 5.49193 1.30567 0
M  V30 8180 N 773.046 0.209999 1.56195 0
M  V30 8181 C 774.271 -0.433064 2.02828 0
M  V30 8182 C 774.696 -1.5337 1.08901 0
M  V30 8183 O 774.054 -1.81144 0.0751132 0
M  V30 8184 C 774.102 -0.952635 3.47789 0
M  V30 8185 O 773.206 -2.0647 3.56993 0
M  V30 8186 H 772.547 -0.0994594 0.656509 0
M  V30 8187 H 775.077 0.32525 2.01998 0
M  V30 8188 H 775.087 -1.26542 3.8788 0
M  V30 8189 H 773.762 -0.147007 4.1564 0
M  V30 8190 H 772.339 -1.75942 3.28784 0
M  V30 8191 N 774.524 -1.57472 -0.0634922 0
M  V30 8192 C 775.454 -2.07297 -1.07473 0
M  V30 8193 C 776.435 -0.968162 -1.39859 0
M  V30 8194 O 777.62 -1.24139 -1.49343 0
M  V30 8195 C 774.75 -2.52381 -2.38581 0
M  V30 8196 C 773.704 -3.66813 -2.20526 0
M  V30 8197 C 773.03 -3.97982 -3.57092 0
M  V30 8198 C 774.33 -4.96553 -1.61965 0
M  V30 8199 H 776.024 -2.92033 -0.660092 0
M  V30 8200 H 773.57 -1.40488 -0.316074 0
M  V30 8201 H 775.523 -2.85852 -3.09624 0
M  V30 8202 H 774.247 -1.64684 -2.8204 0
M  V30 8203 H 772.906 -3.33639 -1.51924 0
M  V30 8204 H 772.554 -3.07403 -3.98136 0
M  V30 8205 H 772.254 -4.7504 -3.45848 0
M  V30 8206 H 773.778 -4.33956 -4.29552 0
M  V30 8207 H 775.192 -5.28201 -2.22883 0
M  V30 8208 H 773.589 -5.7799 -1.61394 0
M  V30 8209 H 774.659 -4.81396 -0.581918 0
M  V30 8210 N 776.003 0.335068 -1.53997 0
M  V30 8211 C 776.933 1.41727 -1.85568 0
M  V30 8212 C 777.914 1.54505 -0.7115 0
M  V30 8213 O 779.099 1.68573 -0.964191 0
M  V30 8214 C 776.229 2.7866 -2.07282 0
M  V30 8215 C 775.183 2.80682 -3.23112 0
M  V30 8216 C 774.509 4.20581 -3.30175 0
M  V30 8217 C 775.809 2.45458 -4.61029 0
M  V30 8218 H 777.503 1.15555 -2.76202 0
M  V30 8219 H 775.049 0.554445 -1.32898 0
M  V30 8220 H 777.002 3.54423 -2.27952 0
M  V30 8221 H 775.726 3.06286 -1.13387 0
M  V30 8222 H 774.385 2.07373 -3.02311 0
M  V30 8223 H 774.033 4.4533 -2.33859 0
M  V30 8224 H 773.733 4.22843 -4.08016 0
M  V30 8225 H 775.257 4.98174 -3.53066 0
M  V30 8226 H 776.671 3.10934 -4.81656 0
M  V30 8227 H 775.068 2.5899 -5.41336 0
M  V30 8228 H 776.138 1.40628 -4.6406 0
M  V30 8229 N 777.481 1.45874 0.596531 0
M  V30 8230 C 778.444 1.54988 1.68853 0
M  V30 8231 C 779.444 0.428302 1.54991 0
M  V30 8232 O 780.634 0.692158 1.59859 0
M  V30 8233 C 777.766 1.457 3.08195 0
M  V30 8234 H 778.959 2.52294 1.62135 0
M  V30 8235 H 776.512 1.33479 0.813206 0
M  V30 8236 H 777.247 0.496204 3.20481 0
M  V30 8237 H 777.032 2.27061 3.19665 0
M  V30 8238 H 778.522 1.55133 3.87716 0
M  V30 8239 N 778.959 -0.83999 1.33349 0
M  V30 8240 C 780.236 -1.57973 1.15342 0
M  V30 8241 C 780.616 -2.09226 -0.280632 0
M  V30 8242 O 779.964 -1.89317 -1.2795 0
M  V30 8243 C 780.174 -2.71446 2.19359 0
M  V30 8244 C 781.522 -3.40654 2.53456 0
M  V30 8245 O 782.546 -2.81686 2.18017 0
M  V30 8246 O 781.405 -4.47101 3.14266 0
M  V30 8247 H 778.499 -0.6964 0.446044 0
M  V30 8248 H 781.045 -0.882843 1.44927 0
M  V30 8249 H 779.817 -2.31205 3.1569 0
M  V30 8250 H 779.44 -3.488 1.90852 0
M  V30 8251 N 780.437 -1.16799 -1.0581 0
M  V30 8252 C 781.367 -0.902241 -2.15364 0
M  V30 8253 C 782.348 0.153351 -1.69407 0
M  V30 8254 O 783.533 0.00442032 -1.94199 0
M  V30 8255 C 780.663 -0.407911 -3.44896 0
M  V30 8256 C 779.617 -1.40197 -4.04387 0
M  V30 8257 C 778.943 -0.765848 -5.29187 0
M  V30 8258 C 780.243 -2.77316 -4.42598 0
M  V30 8259 H 781.937 -1.81841 -2.37853 0
M  V30 8260 H 779.483 -0.875731 -1.14311 0
M  V30 8261 H 781.436 -0.20945 -4.20879 0
M  V30 8262 H 780.16 0.54378 -3.22041 0
M  V30 8263 H 778.819 -1.58707 -3.30466 0
M  V30 8264 H 778.467 0.192482 -5.02632 0
M  V30 8265 H 778.167 -1.42939 -5.69949 0
M  V30 8266 H 779.691 -0.577519 -6.07863 0
M  V30 8267 H 781.105 -2.62561 -5.09642 0
M  V30 8268 H 779.502 -3.4019 -4.94359 0
M  V30 8269 H 780.572 -3.32199 -3.53231 0
M  V30 8270 N 781.915 1.24427 -0.967243 0
M  V30 8271 C 782.862 2.25398 -0.496419 0
M  V30 8272 C 783.832 1.59667 0.457781 0
M  V30 8273 O 785.017 1.87213 0.368246 0
M  V30 8274 C 782.157 3.44474 0.207693 0
M  V30 8275 C 781.27 4.24804 -0.785221 0
M  V30 8276 C 780.405 5.31169 -0.0572631 0
M  V30 8277 C 779.444 6.03195 -1.04027 0
M  V30 8278 N 778.581 7.01265 -0.34235 0
M  V30 8279 H 783.421 2.65039 -1.36229 0
M  V30 8280 H 780.958 1.30288 -0.682902 0
M  V30 8281 H 782.916 4.12376 0.632612 0
M  V30 8282 H 781.546 3.05672 1.03752 0
M  V30 8283 H 780.598 3.56445 -1.32858 0
M  V30 8284 H 781.91 4.74599 -1.53483 0
M  V30 8285 H 781.064 6.05205 0.425674 0
M  V30 8286 H 779.803 4.8228 0.725047 0
M  V30 8287 H 778.808 5.27964 -1.53409 0
M  V30 8288 H 780.033 6.54173 -1.82302 0
M  V30 8289 H 777.979 6.54648 0.420993 0
M  V30 8290 H 777.896 7.48939 -1.03084 0
M  V30 8291 H 779.164 7.7941 0.118634 0
M  V30 8292 N 783.393 0.737304 1.3929 0
M  V30 8293 C 784.621 0.296573 2.04763 0
M  V30 8294 C 785.036 -1.06941 1.55592 0
M  V30 8295 O 784.393 -1.67619 0.721822 0
M  V30 8296 C 784.444 0.291906 3.6032 0
M  V30 8297 O 784.165 1.60397 4.07682 0
M  V30 8298 C 785.666 -0.164708 4.42994 0
M  V30 8299 H 782.886 0.129251 0.658434 0
M  V30 8300 H 785.43 1.0016 1.78293 0
M  V30 8301 H 783.585 -0.364251 3.85684 0
M  V30 8302 H 783.999 1.51909 5.0202 0
M  V30 8303 H 785.473 -0.116814 5.51876 0
M  V30 8304 H 785.95 -1.21022 4.22197 0
M  V30 8305 H 786.556 0.461968 4.22784 0
M  V30 8306 N 784.871 -1.49948 0.485112 0
M  V30 8307 C 785.804 -2.25531 -0.348027 0
M  V30 8308 C 786.782 -1.29433 -0.984172 0
M  V30 8309 O 787.966 -1.58687 -1.01738 0
M  V30 8310 C 785.093 -3.04225 -1.48878 0
M  V30 8311 C 784.139 -4.15355 -0.968616 0
M  V30 8312 S 784.972 -5.35347 0.127934 0
M  V30 8313 C 786.128 -6.17593 -1.01637 0
M  V30 8314 H 786.361 -2.95847 0.293529 0
M  V30 8315 H 783.894 -1.52018 0.27018 0
M  V30 8316 H 785.852 -3.50153 -2.14251 0
M  V30 8317 H 784.513 -2.33407 -2.1019 0
M  V30 8318 H 783.706 -4.69873 -1.82305 0
M  V30 8319 H 783.308 -3.71936 -0.392377 0
M  V30 8320 H 785.6 -6.49576 -1.92503 0
M  V30 8321 H 786.543 -7.0626 -0.510149 0
M  V30 8322 H 786.951 -5.49877 -1.27653 0
M  V30 8323 N 786.349 -0.21828 -1.56081 0
M  V30 8324 C 787.595 0.414921 -1.9851 0
M  V30 8325 C 787.928 1.59648 -1.10573 0
M  V30 8326 O 787.203 1.93818 -0.162695 0
M  V30 8327 C 787.486 0.852647 -3.4986 0
M  V30 8328 C 787.339 -0.33232 -4.48571 0
M  V30 8329 C 788.658 1.70998 -4.05521 0
M  V30 8330 H 785.777 0.149344 -0.72171 0
M  V30 8331 H 788.419 -0.313858 -1.8739 0
M  V30 8332 H 786.569 1.47362 -3.59467 0
M  V30 8333 H 788.241 -0.970418 -4.50977 0
M  V30 8334 H 786.484 -0.980302 -4.22578 0
M  V30 8335 H 787.155 0.0168407 -5.51997 0
M  V30 8336 H 789.631 1.18606 -3.98838 0
M  V30 8337 H 788.507 1.98517 -5.11744 0
M  V30 8338 H 788.768 2.67219 -3.52202 0
M  V30 8339 N 787.827 1.57504 0.0551401 0
M  V30 8340 C 788.737 2.08198 1.08124 0
M  V30 8341 C 789.753 1.01496 1.41331 0
M  V30 8342 O 790.929 1.33073 1.51174 0
M  V30 8343 C 787.994 2.52968 2.37083 0
M  V30 8344 C 787.055 3.7404 2.10696 0
M  V30 8345 C 786.288 4.16665 3.33505 0
M  V30 8346 O 786.511 3.59019 4.4324 0
M  V30 8347 O 785.445 5.09324 3.20737 0
M  V30 8348 H 789.271 2.95977 0.680518 0
M  V30 8349 H 786.856 1.46933 0.270401 0
M  V30 8350 H 788.738 2.82211 3.12946 0
M  V30 8351 H 787.413 1.6831 2.76502 0
M  V30 8352 H 786.32 3.49855 1.32484 0
M  V30 8353 H 787.653 4.59601 1.76148 0
M  V30 8354 N 789.305 -0.326896 1.54172 0
M  V30 8355 C 790.533 -1.08486 1.76177 0
M  V30 8356 C 790.948 -1.81815 0.508788 0
M  V30 8357 O 790.305 -1.74924 -0.520362 0
M  V30 8358 C 790.356 -2.08552 2.95276 0
M  V30 8359 O 790.077 -1.38202 4.15731 0
M  V30 8360 C 791.578 -2.96593 3.29466 0
M  V30 8361 H 788.798 -0.322835 0.588233 0
M  V30 8362 H 791.342 -0.374036 2.0105 0
M  V30 8363 H 789.497 -2.75174 2.72687 0
M  V30 8364 H 789.911 -2.05186 4.827 0
M  V30 8365 H 791.385 -3.62708 4.16109 0
M  V30 8366 H 791.862 -3.63511 2.46487 0
M  V30 8367 H 792.468 -2.35537 3.54122 0
M  V30 8368 N 790.784 -1.46188 -0.588786 0
M  V30 8369 C 791.731 -1.56292 -1.69828 0
M  V30 8370 C 792.701 -0.407581 -1.61022 0
M  V30 8371 O 793.886 -0.623532 -1.80324 0
M  V30 8372 C 791.026 -1.55341 -3.08161 0
M  V30 8373 C 790.139 -2.81564 -3.27636 0
M  V30 8374 C 789.274 -2.72158 -4.56183 0
M  V30 8375 C 788.313 -3.93348 -4.68981 0
M  V30 8376 N 787.45 -3.82365 -5.88848 0
M  V30 8377 H 792.29 -2.51066 -1.6053 0
M  V30 8378 H 789.827 -1.24562 -0.782474 0
M  V30 8379 H 791.785 -1.52776 -3.88221 0
M  V30 8380 H 790.415 -0.641034 -3.16371 0
M  V30 8381 H 789.467 -2.94136 -2.41223 0
M  V30 8382 H 790.779 -3.714 -3.32962 0
M  V30 8383 H 789.933 -2.67665 -5.44464 0
M  V30 8384 H 788.672 -1.79953 -4.53286 0
M  V30 8385 H 787.677 -3.98181 -3.7912 0
M  V30 8386 H 788.902 -4.86643 -4.73662 0
M  V30 8387 H 786.848 -2.92942 -5.86959 0
M  V30 8388 H 786.765 -4.65851 -5.95415 0
M  V30 8389 H 788.033 -3.81836 -6.79575 0
M  V30 8390 N 792.262 0.832906 -1.33792 0
M  V30 8391 C 793.209 1.94314 -1.24541 0
M  V30 8392 C 794.179 1.65646 -0.122753 0
M  V30 8393 O 795.364 1.88394 -0.30204 0
M  V30 8394 C 792.504 3.30395 -0.996641 0
M  V30 8395 C 791.617 3.71422 -2.20612 0
M  V30 8396 C 790.752 4.96401 -1.89101 0
M  V30 8397 C 789.791 5.2998 -3.06247 0
M  V30 8398 N 788.928 6.46137 -2.74685 0
M  V30 8399 H 793.768 2.01559 -2.19495 0
M  V30 8400 H 791.305 0.986243 -1.09141 0
M  V30 8401 H 793.263 4.08803 -0.832817 0
M  V30 8402 H 791.893 3.22691 -0.0838242 0
M  V30 8403 H 790.945 2.88488 -2.47949 0
M  V30 8404 H 792.257 3.92215 -3.0817 0
M  V30 8405 H 791.411 5.82572 -1.69396 0
M  V30 8406 H 790.15 4.7759 -0.987882 0
M  V30 8407 H 789.155 4.42312 -3.26559 0
M  V30 8408 H 790.38 5.50737 -3.97323 0
M  V30 8409 H 788.326 6.28801 -1.86938 0
M  V30 8410 H 788.243 6.67054 -3.55774 0
M  V30 8411 H 789.511 7.35403 -2.58461 0
M  V30 8412 N 793.74 1.17359 1.05189 0
M  V30 8413 C 794.986 0.963413 1.78455 0
M  V30 8414 C 795.319 -0.506703 1.87473 0
M  V30 8415 O 794.594 -1.37611 1.37453 0
M  V30 8416 C 794.877 1.60519 3.22344 0
M  V30 8417 C 794.73 3.14741 3.21338 0
M  V30 8418 C 796.049 1.3091 4.20179 0
M  V30 8419 H 793.168 0.351412 0.647826 0
M  V30 8420 H 795.81 1.44858 1.22948 0
M  V30 8421 H 793.96 1.19265 3.69741 0
M  V30 8422 H 795.632 3.65053 2.82017 0
M  V30 8423 H 793.875 3.4749 2.59679 0
M  V30 8424 H 794.546 3.54775 4.22894 0
M  V30 8425 H 797.022 1.66635 3.81277 0
M  V30 8426 H 795.898 1.784 5.191 0
M  V30 8427 H 796.159 0.229908 4.41502 0
M  V30 8428 N 795.218 -1.23913 0.973828 0
M  V30 8429 C 796.446 -1.96195 0.656891 0
M  V30 8430 C 796.861 -1.72166 -0.774876 0
M  V30 8431 O 796.218 -1.0091 -1.52064 0
M  V30 8432 C 796.269 -3.49342 0.929638 0
M  V30 8433 O 795.99 -3.72553 2.30512 0
M  V30 8434 C 797.491 -4.38833 0.627739 0
M  V30 8435 H 794.711 -0.624841 0.244572 0
M  V30 8436 H 797.255 -1.57579 1.30343 0
M  V30 8437 H 795.41 -3.85999 0.329216 0
M  V30 8438 H 795.824 -4.66893 2.3898 0
M  V30 8439 H 797.298 -5.45117 0.868991 0
M  V30 8440 H 797.775 -4.37009 -0.438104 0
M  V30 8441 H 798.381 -4.07773 1.20834 0
M  V30 8442 N 796.696 -0.74468 -1.38897 0
M  V30 8443 C 797.921 -0.306119 -2.05128 0
M  V30 8444 C 798.346 1.0541 -1.55789 0
M  V30 8445 O 797.704 1.66993 -0.705909 0
M  V30 8446 C 797.752 -0.328195 -3.59103 0
M  V30 8447 O 796.856 0.680876 -4.06741 0
M  V30 8448 H 796.197 -0.137209 -0.649669 0
M  V30 8449 H 798.727 -1.01331 -1.77745 0
M  V30 8450 H 798.737 -0.175956 -4.0762 0
M  V30 8451 H 797.412 -1.32067 -3.94374 0
M  V30 8452 H 795.989 0.49398 -3.69614 0
M  V30 8453 N 798.174 1.49689 -0.493057 0
M  V30 8454 C 799.399 2.07331 0.0535114 0
M  V30 8455 C 799.824 1.35196 1.30781 0
M  V30 8456 O 799.182 0.406246 1.7669 0
M  V30 8457 C 799.23 3.59364 0.29825 0
M  V30 8458 O 798.334 3.88819 1.37454 0
M  V30 8459 H 797.675 0.663612 -0.0227018 0
M  V30 8460 H 800.205 1.926 -0.690402 0
M  V30 8461 H 800.215 4.04515 0.532159 0
M  V30 8462 H 798.89 4.1128 -0.618207 0
M  V30 8463 H 797.467 3.55487 1.12621 0
M  V30 8464 N 799.652 0.226554 1.55963 0
M  V30 8465 C 800.9 -0.402991 1.98041 0
M  V30 8466 C 801.221 -1.59938 1.11557 0
M  V30 8467 O 800.491 -1.9494 0.193719 0
M  V30 8468 H 799.071 -0.15188 0.731397 0
M  V30 8469 H 801.733 0.320613 1.92245 0
M  V30 8470 H 800.829 -0.725937 3.0354 0
M  V30 8471 N 801.13 -1.57531 -0.0467866 0
M  V30 8472 C 802.376 -1.8873 -0.742218 0
M  V30 8473 C 802.709 -0.822084 -1.75941 0
M  V30 8474 O 801.984 0.164922 -1.938 0
M  V30 8475 C 802.267 -3.30586 -1.42776 0
M  V30 8476 C 802.12 -4.47785 -0.425285 0
M  V30 8477 C 803.439 -3.71068 -2.36636 0
M  V30 8478 H 800.558 -0.686406 -0.268359 0
M  V30 8479 H 803.2 -1.89999 -0.00511341 0
M  V30 8480 H 801.35 -3.29634 -2.05605 0
M  V30 8481 H 803.022 -4.60867 0.199721 0
M  V30 8482 H 801.265 -4.33037 0.25713 0
M  V30 8483 H 801.936 -5.43884 -0.943086 0
M  V30 8484 H 804.412 -3.73273 -1.83866 0
M  V30 8485 H 803.288 -4.71165 -2.81593 0
M  V30 8486 H 803.549 -3.02355 -3.22542 0
M  V30 8487 N 802.608 0.318715 -1.54344 0
M  V30 8488 C 803.538 1.39751 -1.87061 0
M  V30 8489 C 804.519 1.53741 -0.727848 0
M  V30 8490 O 805.704 1.67541 -0.982016 0
M  V30 8491 C 802.834 2.76446 -2.10226 0
M  V30 8492 C 801.788 2.77239 -3.26071 0
M  V30 8493 C 801.114 4.17056 -3.34617 0
M  V30 8494 C 802.414 2.40555 -4.63606 0
M  V30 8495 H 804.108 1.12619 -2.77412 0
M  V30 8496 H 801.654 0.540318 -1.33479 0
M  V30 8497 H 803.607 3.51985 -2.31699 0
M  V30 8498 H 802.331 3.05066 -1.16629 0
M  V30 8499 H 800.99 2.04155 -3.04493 0
M  V30 8500 H 800.638 4.42824 -2.3857 0
M  V30 8501 H 800.338 4.18492 -4.12478 0
M  V30 8502 H 801.862 4.94401 -3.5833 0
M  V30 8503 H 803.276 3.05808 -4.84927 0
M  V30 8504 H 801.673 2.53234 -5.44052 0
M  V30 8505 H 802.743 1.35698 -4.65526 0
M  V30 8506 N 804.086 1.46499 0.581025 0
M  V30 8507 C 805.016 1.60052 1.70017 0
M  V30 8508 C 805.997 0.450788 1.64018 0
M  V30 8509 O 807.182 0.677237 1.82009 0
M  V30 8510 C 804.312 1.5921 3.08658 0
M  V30 8511 C 803.266 2.73169 3.29488 0
M  V30 8512 C 802.592 2.57389 4.68674 0
M  V30 8513 C 803.892 4.14978 3.1716 0
M  V30 8514 H 805.586 2.53735 1.5893 0
M  V30 8515 H 803.132 1.22113 0.763173 0
M  V30 8516 H 805.085 1.67285 3.86773 0
M  V30 8517 H 803.809 0.620718 3.20647 0
M  V30 8518 H 802.468 2.64566 2.53773 0
M  V30 8519 H 802.116 1.58331 4.77431 0
M  V30 8520 H 801.816 3.33826 4.83564 0
M  V30 8521 H 803.34 2.67358 5.48956 0
M  V30 8522 H 804.754 4.24684 3.85119 0
M  V30 8523 H 803.151 4.92016 3.4357 0
M  V30 8524 H 804.221 4.35016 2.14218 0
M  V30 8525 N 805.565 -0.825799 1.34232 0
M  V30 8526 C 806.495 -1.95151 1.28212 0
M  V30 8527 C 807.476 -1.69345 0.160123 0
M  V30 8528 O 808.661 -1.90983 0.352019 0
M  V30 8529 C 805.791 -3.31554 1.03388 0
M  V30 8530 C 804.745 -3.71793 2.12023 0
M  V30 8531 C 804.071 -5.06147 1.72392 0
M  V30 8532 C 805.371 -3.84193 3.53826 0
M  V30 8533 H 807.065 -2.00445 2.22401 0
M  V30 8534 H 804.611 -0.962996 1.07063 0
M  V30 8535 H 806.564 -4.09889 0.978225 0
M  V30 8536 H 805.288 -3.26551 0.0564142 0
M  V30 8537 H 803.947 -2.95731 2.16654 0
M  V30 8538 H 803.595 -4.97628 0.733137 0
M  V30 8539 H 803.295 -5.34041 2.451 0
M  V30 8540 H 804.819 -5.86943 1.68317 0
M  V30 8541 H 806.233 -4.52806 3.51624 0
M  V30 8542 H 804.63 -4.23538 4.2513 0
M  V30 8543 H 805.7 -2.86272 3.91377 0
M  V30 8544 N 807.043 -1.17915 -1.04565 0
M  V30 8545 C 808.32 -0.881187 -1.74627 0
M  V30 8546 C 808.7 0.617123 -2.01878 0
M  V30 8547 O 808.048 1.57032 -1.65991 0
M  V30 8548 C 808.258 -1.72299 -3.03503 0
M  V30 8549 C 809.606 -1.94688 -3.77335 0
M  V30 8550 O 810.63 -1.6931 -3.13389 0
M  V30 8551 O 809.489 -2.37379 -4.92253 0
M  V30 8552 H 806.583 -0.326864 -0.759664 0
M  V30 8553 H 809.129 -1.28642 -1.10676 0
M  V30 8554 H 807.901 -2.73891 -2.79462 0
M  V30 8555 H 807.524 -1.31593 -3.75192 0
M  V30 8556 N 808.521 1.23394 -0.980386 0
M  V30 8557 C 809.469 2.26872 -0.513018 0
M  V30 8558 C 810.463 1.63853 0.429948 0
M  V30 8559 O 811.669 1.77417 0.303842 0
M  V30 8560 H 808.044 0.737398 -0.147473 0
M  V30 8561 H 810.015 2.63654 -1.39746 0
M  V30 8562 C 808.764 3.47289 0.168962 0
M  V30 8563 H 808.087 3.96033 -0.547546 0
M  V30 8564 H 809.527 4.21502 0.459616 0
M  V30 8565 C 807.986 3.06425 1.40019 0
M  V30 8566 O 808.516 3.14708 2.49643 0
M  V30 8567 N 806.722 2.61339 1.27084 0
M  V30 8568 H 806.269 2.54799 0.378872 0
M  V30 8569 H 806.227 2.34364 2.09573 0
M  V30 8570 N 809.999 0.752036 1.385 0
M  V30 8571 C 811.229 0.317812 2.04141 0
M  V30 8572 C 811.637 -1.05822 1.56839 0
M  V30 8573 O 810.98 -1.68311 0.736016 0
M  V30 8574 C 811.042 0.260205 3.58557 0
M  V30 8575 C 810.706 1.57753 4.28909 0
M  V30 8576 C 811.703 2.52642 4.54387 0
M  V30 8577 C 809.388 1.84653 4.67128 0
M  V30 8578 C 811.382 3.72653 5.17116 0
M  V30 8579 C 809.069 3.04938 5.29581 0
M  V30 8580 C 810.067 3.98759 5.54509 0
M  V30 8581 O 809.755 5.16929 6.15662 0
M  V30 8582 H 809.487 0.133931 0.6626 0
M  V30 8583 H 812.041 1.02138 1.78205 0
M  V30 8584 H 810.271 -0.499596 3.83459 0
M  V30 8585 H 811.96 -0.144295 4.05643 0
M  V30 8586 H 812.726 2.33135 4.25292 0
M  V30 8587 H 808.605 1.12464 4.47071 0
M  V30 8588 H 812.149 4.45898 5.36489 0
M  V30 8589 H 808.046 3.24339 5.58099 0
M  V30 8590 H 808.814 5.1749 6.3415 0
M  V30 8591 N 811.477 -1.49425 0.500989 0
M  V30 8592 C 812.705 -2.06861 -0.0403443 0
M  V30 8593 C 813.12 -1.36132 -1.30819 0
M  V30 8594 O 812.477 -0.439647 -1.77125 0
M  V30 8595 C 812.528 -3.6027 -0.297902 0
M  V30 8596 O 812.249 -4.28338 0.919686 0
M  V30 8597 C 813.75 -4.34419 -0.882876 0
M  V30 8598 H 810.97 -0.670688 0.0204619 0
M  V30 8599 H 813.514 -1.92207 0.698342 0
M  V30 8600 H 811.669 -3.74627 -0.98657 0
M  V30 8601 H 812.083 -5.2004 0.682528 0
M  V30 8602 H 813.557 -5.42631 -1.01268 0
M  V30 8603 H 814.034 -3.96898 -1.88066 0
M  V30 8604 H 814.64 -4.24669 -0.231677 0
M  V30 8605 N 812.955 -0.234822 -1.55841 0
M  V30 8606 C 814.232 0.442961 -1.90518 0
M  V30 8607 C 814.612 1.76768 -1.15397 0
M  V30 8608 O 813.96 2.26928 -0.267534 0
M  V30 8609 C 814.17 0.622905 -3.43396 0
M  V30 8610 C 815.518 0.9243 -4.14417 0
M  V30 8611 O 816.542 0.709211 -3.49068 0
M  V30 8612 O 815.401 1.33323 -5.29988 0
M  V30 8613 H 812.495 0.236042 -0.792599 0
M  V30 8614 H 815.041 -0.277992 -1.67408 0
M  V30 8615 H 813.813 -0.310973 -3.90062 0
M  V30 8616 H 813.436 1.39485 -3.7233 0
M  V30 8617 N 814.433 1.57553 0.0384317 0
M  V30 8618 C 815.849 1.54663 0.39391 0
M  V30 8619 C 816.049 0.959685 1.77179 0
M  V30 8620 O 815.105 0.576647 2.45827 0
M  V30 8621 C 816.418 2.99156 0.304352 0
M  V30 8622 C 817.966 3.10659 0.382119 0
M  V30 8623 C 818.441 4.56866 0.322111 0
M  V30 8624 N 819.932 4.61629 0.38119 0
M  V30 8625 C 820.667 5.72284 0.357501 0
M  V30 8626 N 820.163 6.92207 0.286654 0
M  V30 8627 N 821.956 5.60628 0.406538 0
M  V30 8628 H 814.107 1.9406 -0.86339 0
M  V30 8629 H 816.37 0.889673 -0.327392 0
M  V30 8630 H 816.076 3.45788 -0.642141 0
M  V30 8631 H 815.95 3.60753 1.10168 0
M  V30 8632 H 818.337 2.6398 1.31904 0
M  V30 8633 H 818.418 2.5191 -0.444391 0
M  V30 8634 H 818.062 5.0421 -0.611104 0
M  V30 8635 H 817.992 5.13515 1.1666 0
M  V30 8636 H 820.483 3.75343 0.438838 0
M  V30 8637 H 820.796 7.72316 0.273421 0
M  V30 8638 H 819.141 6.9454 0.252841 0
M  V30 8639 H 822.332 4.65836 0.459812 0
M  V30 8640 H 822.505 6.46858 0.384608 0
M  V30 8641 N 815.911 -0.310526 1.54511 0
M  V30 8642 C 817.16 -1.0445 1.72549 0
M  V30 8643 C 817.473 -1.88748 0.513172 0
M  V30 8644 O 818.679 -2.65338 0.575165 0
M  V30 8645 C 817.135 -1.90665 3.05246 0
M  V30 8646 C 816.743 -1.11415 4.33925 0
M  V30 8647 C 818.487 -2.63719 3.32645 0
M  V30 8648 C 816.394 -1.96852 5.57677 0
M  V30 8649 H 815.324 -0.393676 0.643067 0
M  V30 8650 H 817.975 -0.302003 1.80998 0
M  V30 8651 H 816.357 -2.68864 2.90737 0
M  V30 8652 H 817.531 -0.378956 4.59239 0
M  V30 8653 H 815.846 -0.499853 4.13389 0
M  V30 8654 H 818.443 -3.27974 4.223 0
M  V30 8655 H 818.786 -3.32047 2.51098 0
M  V30 8656 H 819.319 -1.92574 3.48081 0
M  V30 8657 H 816.058 -1.33009 6.41864 0
M  V30 8658 H 815.578 -2.68069 5.36562 0
M  V30 8659 H 817.257 -2.55127 5.94575 0
M  V30 8660 N 817.389 -1.46805 -0.573248 0
M  V30 8661 C 818.321 -1.54127 -1.6964 0
M  V30 8662 C 819.334 -0.428778 -1.57052 0
M  V30 8663 O 820.523 -0.697612 -1.64303 0
M  V30 8664 C 817.623 -1.41438 -3.07975 0
M  V30 8665 C 816.796 -2.66974 -3.46474 0
M  V30 8666 C 815.855 -2.48349 -4.63906 0
M  V30 8667 O 814.881 -3.22109 -4.69292 0
M  V30 8668 N 816.083 -1.55129 -5.59388 0
M  V30 8669 H 818.848 -2.50971 -1.6381 0
M  V30 8670 H 816.409 -1.42981 -0.759479 0
M  V30 8671 H 818.401 -1.26737 -3.84343 0
M  V30 8672 H 816.971 -0.527388 -3.08119 0
M  V30 8673 H 816.191 -2.9655 -2.59715 0
M  V30 8674 H 817.479 -3.50347 -3.68964 0
M  V30 8675 H 816.877 -0.94324 -5.57781 0
M  V30 8676 H 815.434 -1.46387 -6.35149 0
M  V30 8677 N 818.867 0.818669 -1.34668 0
M  V30 8678 C 820.113 1.57746 -1.27453 0
M  V30 8679 C 820.446 1.93588 0.154077 0
M  V30 8680 O 819.721 1.60371 1.10051 0
M  V30 8681 C 820.004 2.87414 -2.16945 0
M  V30 8682 C 819.857 2.58125 -3.68363 0
M  V30 8683 C 821.176 3.89021 -2.05792 0
M  V30 8684 H 818.295 0.572339 -0.464324 0
M  V30 8685 H 820.937 0.942784 -1.64959 0
M  V30 8686 H 819.087 3.41576 -1.85089 0
M  V30 8687 H 820.759 2.10239 -4.10606 0
M  V30 8688 H 819.002 1.91503 -3.89242 0
M  V30 8689 H 819.673 3.5061 -4.26353 0
M  V30 8690 H 822.149 3.44224 -2.33771 0
M  V30 8691 H 821.025 4.77548 -2.70628 0
M  V30 8692 H 821.286 4.29786 -1.03618 0
M  V30 8693 N 820.346 1.18468 1.03938 0
M  V30 8694 C 821.276 0.936389 2.13902 0
M  V30 8695 C 822.257 -0.126381 1.6963 0
M  V30 8696 O 823.442 0.0264757 1.94182 0
M  V30 8697 C 820.572 0.462729 3.44204 0
M  V30 8698 C 819.526 1.46613 4.02105 0
M  V30 8699 C 818.852 0.84994 5.27902 0
M  V30 8700 C 820.152 2.84323 4.3813 0
M  V30 8701 H 821.846 1.85602 2.3493 0
M  V30 8702 H 819.392 0.893806 1.12903 0
M  V30 8703 H 821.345 0.276382 4.20493 0
M  V30 8704 H 820.069 -0.492477 3.22866 0
M  V30 8705 H 818.728 1.63944 3.27899 0
M  V30 8706 H 818.376 -0.112493 5.02874 0
M  V30 8707 H 818.076 1.51988 5.67603 0
M  V30 8708 H 819.6 0.674152 6.06867 0
M  V30 8709 H 821.014 2.70636 5.054 0
M  V30 8710 H 819.411 3.48012 4.88884 0
M  V30 8711 H 820.481 3.37776 3.47901 0
M  V30 8712 N 821.824 -1.22873 0.986916 0
M  V30 8713 C 823.24 -1.43594 0.696633 0
M  V30 8714 C 823.44 -1.87622 -0.734869 0
M  V30 8715 O 822.496 -2.02633 -1.50652 0
M  V30 8716 C 823.809 -2.48231 1.69711 0
M  V30 8717 C 825.357 -2.62037 1.71188 0
M  V30 8718 C 825.832 -3.6989 2.70084 0
M  V30 8719 N 827.323 -3.77341 2.68641 0
M  V30 8720 C 828.058 -4.6037 3.41829 0
M  V30 8721 N 827.554 -5.47438 4.24598 0
M  V30 8722 N 829.347 -4.54626 3.30563 0
M  V30 8723 H 821.498 -0.925982 1.91153 0
M  V30 8724 H 823.761 -0.46866 0.824052 0
M  V30 8725 H 823.467 -2.22812 2.72117 0
M  V30 8726 H 823.341 -3.46731 1.48516 0
M  V30 8727 H 825.728 -2.86803 0.694837 0
M  V30 8728 H 825.809 -1.63831 1.96451 0
M  V30 8729 H 825.453 -3.45872 3.71934 0
M  V30 8730 H 825.383 -4.67652 2.42093 0
M  V30 8731 H 827.874 -3.15124 2.08578 0
M  V30 8732 H 828.187 -6.078 4.77283 0
M  V30 8733 H 826.532 -5.4704 4.28687 0
M  V30 8734 H 829.723 -3.85627 2.65347 0
M  V30 8735 H 829.896 -5.19103 3.8786 0
M  V30 8736 N 823.302 -0.75937 -1.38099 0
M  V30 8737 C 824.25 -0.124954 -2.32264 0
M  V30 8738 C 825.244 0.698863 -1.54312 0
M  V30 8739 O 826.45 0.597312 -1.698 0
M  V30 8740 H 822.825 -0.0216142 -0.751689 0
M  V30 8741 H 824.796 -0.935115 -2.83369 0
M  V30 8742 C 823.545 0.749463 -3.39527 0
M  V30 8743 H 822.868 0.124932 -3.99605 0
M  V30 8744 H 824.308 1.16055 -4.07808 0
M  V30 8745 C 822.767 1.89464 -2.78577 0
M  V30 8746 O 823.297 2.98923 -2.68343 0
M  V30 8747 N 821.503 1.69145 -2.36301 0
M  V30 8748 H 821.05 0.801157 -2.44825 0
M  V30 8749 H 821.008 2.45936 -1.95864 0
M  V30 8750 N 824.78 1.49157 -0.508906 0
M  V30 8751 C 825.713 2.26056 0.312103 0
M  V30 8752 C 826.691 1.30982 0.963456 0
M  V30 8753 O 827.875 1.60286 0.992002 0
M  V30 8754 C 825.002 3.06555 1.4402 0
M  V30 8755 C 824.048 4.16844 0.902414 0
M  V30 8756 S 824.881 5.35076 -0.213087 0
M  V30 8757 C 826.037 6.19132 0.917985 0
M  V30 8758 H 826.27 2.95343 -0.340559 0
M  V30 8759 H 823.803 1.51569 -0.294331 0
M  V30 8760 H 825.761 3.53517 2.08653 0
M  V30 8761 H 824.422 2.36722 2.0645 0
M  V30 8762 H 823.615 4.72714 1.74806 0
M  V30 8763 H 823.217 3.72513 0.333156 0
M  V30 8764 H 825.509 6.52556 1.82145 0
M  V30 8765 H 826.452 7.06982 0.397724 0
M  V30 8766 H 826.86 5.51839 1.18889 0
M  V30 8767 N 826.258 0.243083 1.55714 0
M  V30 8768 C 827.504 -0.383287 1.99145 0
M  V30 8769 C 827.837 -1.57868 1.13098 0
M  V30 8770 O 827.112 -1.93535 0.193509 0
M  V30 8771 C 827.395 -0.796879 3.51172 0
M  V30 8772 C 827.248 0.403642 4.47985 0
M  V30 8773 C 828.567 -1.64525 4.08191 0
M  V30 8774 H 825.686 -0.137843 0.723995 0
M  V30 8775 H 828.328 0.343631 1.86867 0
M  V30 8776 H 826.478 -1.41625 3.61766 0
M  V30 8777 H 828.15 1.04204 4.49376 0
M  V30 8778 H 826.393 1.04741 4.20965 0
M  V30 8779 H 827.064 0.0709794 5.51954 0
M  V30 8780 H 829.54 -1.12246 4.00674 0
M  V30 8781 H 828.416 -1.9035 5.14838 0
M  V30 8782 H 828.677 -2.61582 3.56409 0
M  V30 8783 N 827.736 -1.57571 -0.0300757 0
M  V30 8784 C 828.686 -2.02958 -1.03885 0
M  V30 8785 C 829.67 -0.918723 -1.32092 0
M  V30 8786 O 830.862 -1.18262 -1.31694 0
M  V30 8787 C 827.991 -2.51169 -2.34028 0
M  V30 8788 C 827.077 -3.69073 -2.08915 0
M  V30 8789 N 827.468 -4.81831 -1.53858 0
M  V30 8790 C 825.766 -3.76427 -2.39204 0
M  V30 8791 C 826.467 -5.6346 -1.44526 0
M  V30 8792 N 825.443 -5.08545 -1.92048 0
M  V30 8793 H 829.245 -2.8756 -0.607157 0
M  V30 8794 H 826.759 -1.6067 -0.236399 0
M  V30 8795 H 828.756 -2.81944 -3.07104 0
M  V30 8796 H 827.416 -1.67972 -2.77876 0
M  V30 8797 H 828.427 -5.03291 -1.22142 0
M  V30 8798 H 825.104 -3.04029 -2.86134 0
M  V30 8799 H 826.494 -6.64042 -1.02456 0
M  V30 8800 N 829.214 0.302327 -1.54673 0
M  V30 8801 C 830.454 1.04568 -1.75627 0
M  V30 8802 C 830.818 1.84535 -0.530175 0
M  V30 8803 O 832.019 2.61613 -0.61743 0
M  V30 8804 C 830.29 1.92873 -3.0089 0
M  V30 8805 S 831.849 2.73872 -3.4284 0
M  V30 8806 H 828.667 0.352682 -0.617362 0
M  V30 8807 H 831.269 0.319239 -1.92876 0
M  V30 8808 H 829.973 1.32998 -3.88252 0
M  V30 8809 H 829.504 2.69887 -2.86225 0
M  V30 8810 H 831.519 3.95386 -2.99807 0
M  V30 8811 N 830.692 1.47107 0.565454 0
M  V30 8812 C 831.655 1.58535 1.65527 0
M  V30 8813 C 832.655 0.461081 1.54048 0
M  V30 8814 O 833.845 0.725911 1.58355 0
M  V30 8815 C 830.977 1.52204 3.05036 0
M  V30 8816 H 832.17 2.55676 1.56747 0
M  V30 8817 H 829.723 1.35174 0.78471 0
M  V30 8818 H 830.458 0.564071 3.19357 0
M  V30 8819 H 830.243 2.3379 3.14777 0
M  V30 8820 H 831.733 1.63322 3.84338 0
M  V30 8821 N 832.17 -0.811516 1.35101 0
M  V30 8822 C 833.447 -1.55491 1.18667 0
M  V30 8823 C 833.827 -2.09775 -0.236189 0
M  V30 8824 O 833.175 -1.91989 -1.23905 0
M  V30 8825 C 833.385 -2.66732 2.25067 0
M  V30 8826 C 834.733 -3.35201 2.60625 0
M  V30 8827 O 835.757 -2.76998 2.23943 0
M  V30 8828 O 834.616 -4.40334 3.23679 0
M  V30 8829 H 831.71 -0.686783 0.460716 0
M  V30 8830 H 834.256 -0.851903 1.46768 0
M  V30 8831 H 833.028 -2.24457 3.20523 0
M  V30 8832 H 832.651 -3.44673 1.98208 0
M  V30 8833 N 833.648 -1.19017 -1.03309 0
M  V30 8834 C 834.578 -0.94772 -2.13402 0
M  V30 8835 C 835.559 0.117383 -1.69694 0
M  V30 8836 O 836.744 -0.0367733 -1.94165 0
M  V30 8837 C 833.874 -0.480977 -3.43953 0
M  V30 8838 C 832.828 -1.48743 -4.01322 0
M  V30 8839 C 832.154 -0.877924 -5.27443 0
M  V30 8840 C 833.454 -2.86642 -4.36616 0
M  V30 8841 H 835.148 -1.86846 -2.33942 0
M  V30 8842 H 832.694 -0.899781 -1.12427 0
M  V30 8843 H 834.647 -0.298677 -4.2034 0
M  V30 8844 H 833.371 0.475348 -3.23122 0
M  V30 8845 H 832.03 -1.65681 -3.27025 0
M  V30 8846 H 831.678 0.0858232 -5.02927 0
M  V30 8847 H 831.378 -1.54996 -5.66789 0
M  V30 8848 H 832.902 -0.706326 -6.06501 0
M  V30 8849 H 834.316 -2.73312 -5.03958 0
M  V30 8850 H 832.713 -3.50599 -4.87032 0
M  V30 8851 H 833.783 -3.39617 -3.46105 0
M  V30 8852 N 835.127 1.22348 -0.993418 0
M  V30 8853 C 836.352 1.95666 -0.687727 0
M  V30 8854 C 836.777 1.72883 0.741161 0
M  V30 8855 O 836.135 1.00837 1.50671 0
M  V30 8856 C 836.183 3.46457 -0.99998 0
M  V30 8857 O 835.287 4.12281 -0.0989386 0
M  V30 8858 H 834.628 0.612102 -0.257346 0
M  V30 8859 H 837.158 1.55428 -1.33054 0
M  V30 8860 H 837.168 3.96976 -0.942035 0
M  V30 8861 H 835.843 3.62365 -2.04118 0
M  V30 8862 H 834.42 3.72295 -0.212413 0
M  V30 8863 N 836.605 0.766683 1.37694 0
M  V30 8864 C 837.553 0.137269 2.32195 0
M  V30 8865 C 838.547 -0.69067 1.54681 0
M  V30 8866 O 839.753 -0.588299 1.70115 0
M  V30 8867 H 836.128 0.0256003 0.751564 0
M  V30 8868 H 838.099 0.950129 2.82869 0
M  V30 8869 C 836.848 -0.731446 3.39919 0
M  V30 8870 H 836.171 -0.103738 3.99665 0
M  V30 8871 H 837.611 -1.13891 4.08417 0
M  V30 8872 C 836.07 -1.87984 2.79578 0
M  V30 8873 O 836.6 -2.97496 2.69924 0
M  V30 8874 N 834.806 -1.6789 2.37195 0
M  V30 8875 H 834.353 -0.788162 2.45246 0
M  V30 8876 H 834.311 -2.44894 1.97165 0
M  V30 8877 N 838.083 -1.48885 0.516809 0
M  V30 8878 C 839.494 -1.86557 0.0729921 0
M  V30 8879 C 839.845 -1.42767 -1.34581 0
M  V30 8880 O 838.97 -0.812514 -2.00567 0
M  V30 8881 C 839.565 -3.38567 0.125686 0
M  V30 8882 C 838.124 -3.75481 -0.262867 0
M  V30 8883 C 837.271 -2.72913 0.491281 0
M  V30 8884 H 840.222 -1.40978 0.728767 0
M  V30 8885 H 840.243 -3.74629 -0.665831 0
M  V30 8886 H 839.755 -3.70408 1.15842 0
M  V30 8887 H 837.856 -3.49251 -1.29824 0
M  V30 8888 H 837.969 -4.79052 0.067579 0
M  V30 8889 H 836.333 -2.54627 -0.0608525 0
M  V30 8890 H 837.116 -3.07599 1.5244 0
M  V30 8891 N 839.561 -0.251338 -1.55583 0
M  V30 8892 C 840.789 0.376187 -2.03451 0
M  V30 8893 C 841.204 1.51215 -1.13047 0
M  V30 8894 O 840.561 1.81917 -0.145769 0
M  V30 8895 C 840.612 0.879779 -3.50631 0
M  V30 8896 O 840.333 -0.210917 -4.37592 0
M  V30 8897 C 841.834 1.57754 -4.14281 0
M  V30 8898 H 839.054 0.0888722 -0.665089 0
M  V30 8899 H 841.598 -0.376497 -2.01004 0
M  V30 8900 H 839.753 1.58263 -3.53598 0
M  V30 8901 H 840.167 0.172203 -5.24217 0
M  V30 8902 H 841.641 1.88158 -5.18942 0
M  V30 8903 H 842.118 2.50103 -3.61034 0
M  V30 8904 H 842.724 0.919154 -4.15249 0
M  V30 8905 N 841.039 1.57585 0.0217189 0
M  V30 8906 C 841.986 2.07036 1.02004 0
M  V30 8907 C 842.956 0.96106 1.35473 0
M  V30 8908 O 844.141 1.23211 1.45684 0
M  V30 8909 C 841.281 2.56056 2.31364 0
M  V30 8910 C 840.394 3.80805 2.03989 0
M  V30 8911 C 839.529 4.18409 3.27272 0
M  V30 8912 C 838.568 5.36055 2.95486 0
M  V30 8913 N 837.705 5.69056 4.11242 0
M  V30 8914 H 842.545 2.92073 0.591396 0
M  V30 8915 H 840.082 1.44403 0.280384 0
M  V30 8916 H 842.04 2.82548 3.06957 0
M  V30 8917 H 840.67 1.73925 2.71937 0
M  V30 8918 H 839.722 3.61354 1.1886 0
M  V30 8919 H 841.034 4.66512 1.76546 0
M  V30 8920 H 840.188 4.46068 4.11228 0
M  V30 8921 H 838.927 3.31369 3.57835 0
M  V30 8922 H 837.932 5.08142 2.09933 0
M  V30 8923 H 839.157 6.24755 2.66193 0
M  V30 8924 H 837.103 4.84974 4.41742 0
M  V30 8925 H 837.02 6.49288 3.87247 0
M  V30 8926 H 838.288 6.01295 4.96049 0
M  V30 8927 N 842.517 -0.29412 1.54831 0
M  V30 8928 C 843.742 -1.05156 1.78765 0
M  V30 8929 C 844.167 -1.79916 0.548809 0
M  V30 8930 O 843.525 -1.74243 -0.500909 0
M  V30 8931 C 843.573 -2.00242 2.99893 0
M  V30 8932 O 842.677 -3.08662 2.73499 0
M  V30 8933 H 842.018 -0.301737 0.591482 0
M  V30 8934 H 844.548 -0.329449 2.0193 0
M  V30 8935 H 844.558 -2.42583 3.28051 0
M  V30 8936 H 843.233 -1.45235 3.89717 0
M  V30 8937 H 841.81 -2.70786 2.56377 0
M  V30 8938 N 843.995 -1.47404 -0.557645 0
M  V30 8939 C 844.925 -1.62736 -1.67449 0
M  V30 8940 C 845.906 -0.476824 -1.6328 0
M  V30 8941 O 847.091 -0.706108 -1.80908 0
M  V30 8942 C 844.221 -1.641 -3.06086 0
M  V30 8943 C 843.175 -2.78377 -3.25101 0
M  V30 8944 C 842.501 -2.64812 -4.6452 0
M  V30 8945 C 843.801 -4.19971 -3.10518 0
M  V30 8946 H 845.495 -2.56232 -1.54873 0
M  V30 8947 H 843.041 -1.23312 -0.743649 0
M  V30 8948 H 844.994 -1.73417 -3.84063 0
M  V30 8949 H 843.718 -0.671652 -3.19619 0
M  V30 8950 H 842.377 -2.6857 -2.49531 0
M  V30 8951 H 842.025 -1.65906 -4.74852 0
M  V30 8952 H 841.725 -3.41477 -4.78191 0
M  V30 8953 H 843.249 -2.76057 -5.44633 0
M  V30 8954 H 844.663 -4.30757 -3.78313 0
M  V30 8955 H 843.06 -4.97419 -3.35699 0
M  V30 8956 H 844.13 -4.38369 -2.0727 0
M  V30 8957 N 845.473 0.80434 -1.35529 0
M  V30 8958 C 846.383 1.94784 -1.30753 0
M  V30 8959 C 847.399 1.72703 -0.212071 0
M  V30 8960 O 848.575 1.96494 -0.441841 0
M  V30 8961 C 845.64 3.29406 -1.08133 0
M  V30 8962 C 844.701 3.64367 -2.27013 0
M  V30 8963 C 843.934 4.92566 -2.05463 0
M  V30 8964 O 844.157 5.61166 -1.02222 0
M  V30 8965 O 843.091 5.25838 -2.92879 0
M  V30 8966 H 846.917 2.01761 -2.26994 0
M  V30 8967 H 844.502 0.942448 -1.15924 0
M  V30 8968 H 846.384 4.09995 -0.973756 0
M  V30 8969 H 845.059 3.23355 -0.149444 0
M  V30 8970 H 843.966 2.84146 -2.43335 0
M  V30 8971 H 845.299 3.75125 -3.18656 0
M  V30 8972 N 846.951 1.19563 1.02676 0
M  V30 8973 C 847.881 0.959024 2.12897 0
M  V30 8974 C 848.862 -0.108382 1.69754 0
M  V30 8975 O 850.047 0.0470698 1.94143 0
M  V30 8976 C 847.177 0.499211 3.43693 0
M  V30 8977 C 846.131 1.5087 4.00528 0
M  V30 8978 C 845.457 0.905884 5.2697 0
M  V30 8979 C 846.757 2.88954 4.3509 0
M  V30 8980 H 848.451 1.88084 2.32948 0
M  V30 8981 H 845.997 0.905731 1.11949 0
M  V30 8982 H 847.95 0.320965 4.20176 0
M  V30 8983 H 846.674 -0.458205 3.2337 0
M  V30 8984 H 845.333 1.67413 3.26142 0
M  V30 8985 H 844.981 -0.0591506 5.02965 0
M  V30 8986 H 844.681 1.58 5.65959 0
M  V30 8987 H 846.205 0.73848 6.06118 0
M  V30 8988 H 847.619 2.75981 5.02501 0
M  V30 8989 H 846.016 3.53177 4.85166 0
M  V30 8990 H 847.086 3.41447 3.44299 0
M  V30 8991 N 848.429 -1.21819 0.999893 0
M  V30 8992 C 849.659 -1.94475 0.697346 0
M  V30 8993 C 850.067 -1.73991 -0.743228 0
M  V30 8994 O 849.41 -1.04042 -1.51397 0
M  V30 8995 C 849.472 -3.47204 0.932181 0
M  V30 8996 C 849.136 -3.91432 2.3586 0
M  V30 8997 C 850.133 -3.98545 3.33853 0
M  V30 8998 C 847.818 -4.23888 2.69489 0
M  V30 8999 C 849.812 -4.37499 4.63545 0
M  V30 9000 C 847.499 -4.62519 3.99399 0
M  V30 9001 C 848.497 -4.69294 4.96238 0
M  V30 9002 O 848.185 -5.07048 6.23825 0
M  V30 9003 H 847.917 -0.625419 0.256567 0
M  V30 9004 H 850.471 -1.55728 1.33933 0
M  V30 9005 H 848.701 -3.85997 0.233025 0
M  V30 9006 H 850.39 -4.01078 0.623807 0
M  V30 9007 H 851.156 -3.73654 3.09205 0
M  V30 9008 H 847.035 -4.17815 1.94812 0
M  V30 9009 H 850.579 -4.42702 5.3913 0
M  V30 9010 H 846.476 -4.86864 4.23833 0
M  V30 9011 H 847.244 -5.25098 6.27865 0
M  V30 9012 N 849.908 -0.773975 -1.37286 0
M  V30 9013 C 851.324 -0.45386 -1.53011 0
M  V30 9014 C 851.524 1.03018 -1.73175 0
M  V30 9015 O 850.58 1.81597 -1.75438 0
M  V30 9016 C 851.893 -1.27087 -2.72524 0
M  V30 9017 C 853.441 -1.26299 -2.86387 0
M  V30 9018 C 853.916 -2.0634 -4.08886 0
M  V30 9019 N 855.407 -2.03706 -4.16003 0
M  V30 9020 C 856.142 -2.62418 -5.09828 0
M  V30 9021 N 855.638 -3.29926 -6.09197 0
M  V30 9022 N 857.431 -2.52236 -5.02328 0
M  V30 9023 H 849.582 -1.73551 -1.22449 0
M  V30 9024 H 851.845 -0.736874 -0.596423 0
M  V30 9025 H 851.551 -2.32263 -2.64096 0
M  V30 9026 H 851.425 -0.90157 -3.66267 0
M  V30 9027 H 853.812 -0.219213 -2.94285 0
M  V30 9028 H 853.893 -1.67195 -1.93596 0
M  V30 9029 H 853.537 -3.10741 -4.01749 0
M  V30 9030 H 853.467 -1.62825 -5.00795 0
M  V30 9031 H 855.958 -1.54559 -3.44848 0
M  V30 9032 H 856.271 -3.72095 -6.77322 0
M  V30 9033 H 854.616 -3.34026 -6.09469 0
M  V30 9034 H 857.807 -1.99108 -4.23643 0
M  V30 9035 H 857.98 -2.98286 -5.75265 0
M  V30 9036 N 851.386 1.48609 -0.524698 0
M  V30 9037 C 852.318 2.27508 0.278 0
M  V30 9038 C 853.331 1.35042 0.909258 0
M  V30 9039 O 854.52 1.60136 0.788592 0
M  V30 9040 C 851.62 3.08247 1.40843 0
M  V30 9041 C 850.793 4.28455 0.880083 0
M  V30 9042 C 849.852 4.91048 1.891 0
M  V30 9043 O 848.878 5.5042 1.45005 0
M  V30 9044 N 850.08 4.82816 3.22288 0
M  V30 9045 H 852.845 2.97037 -0.398642 0
M  V30 9046 H 850.406 1.57876 -0.358698 0
M  V30 9047 H 852.398 3.46992 2.08276 0
M  V30 9048 H 850.968 2.41173 1.98883 0
M  V30 9049 H 850.188 3.94189 0.0299228 0
M  V30 9050 H 851.476 5.06279 0.505881 0
M  V30 9051 H 850.874 4.3572 3.60783 0
M  V30 9052 H 849.431 5.25676 3.85368 0
M  V30 9053 N 852.864 0.259585 1.55447 0
M  V30 9054 C 854.11 -0.355207 2.00274 0
M  V30 9055 C 854.465 -1.54637 1.14477 0
M  V30 9056 O 853.758 -1.90519 0.203215 0
M  V30 9057 C 853.952 -0.802727 3.48269 0
M  V30 9058 C 853.781 0.34353 4.48386 0
M  V30 9059 C 852.551 0.822317 4.98564 0
M  V30 9060 C 854.749 1.17482 5.00702 0
M  V30 9061 N 852.731 1.93966 5.82452 0
M  V30 9062 C 854.102 2.14032 5.81885 0
M  V30 9063 C 856.157 1.20994 4.82975 0
M  V30 9064 C 854.86 3.1382 6.47232 0
M  V30 9065 C 856.886 2.19618 5.4911 0
M  V30 9066 C 856.248 3.14903 6.30092 0
M  V30 9067 H 852.347 -0.0955824 0.776137 0
M  V30 9068 H 854.931 0.380062 1.90954 0
M  V30 9069 H 853.102 -1.50726 3.57961 0
M  V30 9070 H 854.834 -1.39354 3.79951 0
M  V30 9071 H 851.589 0.404272 4.71871 0
M  V30 9072 H 852.013 2.50148 6.29091 0
M  V30 9073 H 856.655 0.487104 4.19985 0
M  V30 9074 H 854.373 3.87045 7.09381 0
M  V30 9075 H 857.959 2.23057 5.37342 0
M  V30 9076 H 856.839 3.8997 6.80362 0
M  V30 9077 N 854.342 -1.57594 -0.0133615 0
M  V30 9078 C 855.57 -1.94251 -0.712328 0
M  V30 9079 C 855.985 -0.86063 -1.68043 0
M  V30 9080 O 855.342 0.161632 -1.81783 0
M  V30 9081 C 855.393 -3.30891 -1.45581 0
M  V30 9082 O 855.114 -4.34924 -0.526539 0
M  V30 9083 C 856.615 -3.81926 -2.2505 0
M  V30 9084 H 853.835 -0.640737 -0.199241 0
M  V30 9085 H 856.379 -2.04472 0.0337855 0
M  V30 9086 H 854.534 -3.22019 -2.15366 0
M  V30 9087 H 854.948 -5.1389 -1.04962 0
M  V30 9088 H 856.422 -4.79999 -2.72589 0
M  V30 9089 H 856.899 -3.13934 -3.07152 0
M  V30 9090 H 857.505 -3.93931 -1.60308 0
M  V30 9091 N 855.82 0.285905 -1.54985 0
M  V30 9092 C 857.097 1.0397 -1.65679 0
M  V30 9093 C 857.477 2.04725 -0.514851 0
M  V30 9094 O 856.825 2.23257 0.486663 0
M  V30 9095 C 857.035 1.70807 -3.04345 0
M  V30 9096 C 858.383 2.22447 -3.61666 0
M  V30 9097 O 859.407 1.80815 -3.06895 0
M  V30 9098 O 858.266 2.98773 -4.57599 0
M  V30 9099 H 855.36 0.481473 -0.672394 0
M  V30 9100 H 857.906 0.282789 -1.67327 0
M  V30 9101 H 856.678 0.977271 -3.789 0
M  V30 9102 H 856.301 2.53217 -3.06541 0
M  V30 9103 N 857.298 1.47698 0.54982 0
M  V30 9104 C 858.714 1.3338 0.876468 0
M  V30 9105 C 858.914 0.329837 1.98782 0
M  V30 9106 O 857.97 -0.256022 2.51199 0
M  V30 9107 C 859.283 2.72903 1.26272 0
M  V30 9108 C 860.831 2.81243 1.37373 0
M  V30 9109 C 861.306 4.21423 1.79351 0
M  V30 9110 N 862.797 4.24 1.86489 0
M  V30 9111 C 863.532 5.29386 2.20313 0
M  V30 9112 N 863.028 6.4507 2.527 0
M  V30 9113 N 864.821 5.16768 2.2115 0
M  V30 9114 H 856.972 2.11603 -0.183781 0
M  V30 9115 H 859.235 0.947798 -0.0195601 0
M  V30 9116 H 858.941 3.47836 0.519889 0
M  V30 9117 H 858.815 3.05151 2.21727 0
M  V30 9118 H 861.202 2.06577 2.10737 0
M  V30 9119 H 861.283 2.52639 0.400882 0
M  V30 9120 H 860.927 4.96597 1.06555 0
M  V30 9121 H 860.857 4.47456 2.77652 0
M  V30 9122 H 863.348 3.40547 1.63817 0
M  V30 9123 H 863.661 7.21236 2.77557 0
M  V30 9124 H 862.006 6.48377 2.50263 0
M  V30 9125 H 865.197 4.25416 1.95293 0
M  V30 9126 H 865.37 5.99004 2.4718 0
M  V30 9127 N 858.776 -0.797141 1.35954 0
M  V30 9128 C 860.025 -1.54983 1.29086 0
M  V30 9129 C 860.338 -1.95167 -0.130003 0
M  V30 9130 O 861.544 -2.69596 -0.32101 0
M  V30 9131 C 860 -2.79738 2.26439 0
M  V30 9132 C 859.608 -2.46753 3.73921 0
M  V30 9133 C 861.352 -3.57733 2.28533 0
M  V30 9134 C 859.259 -3.67858 4.63071 0
M  V30 9135 H 858.189 -0.581766 0.479651 0
M  V30 9136 H 860.84 -0.87541 1.61273 0
M  V30 9137 H 859.222 -3.48939 1.87236 0
M  V30 9138 H 860.396 -1.85499 4.21814 0
M  V30 9139 H 858.711 -1.81985 3.74527 0
M  V30 9140 H 861.308 -4.47699 2.92351 0
M  V30 9141 H 861.651 -3.95754 1.29169 0
M  V30 9142 H 862.184 -2.95504 2.66313 0
M  V30 9143 H 858.923 -3.34939 5.63468 0
M  V30 9144 H 858.443 -4.28305 4.19898 0
M  V30 9145 H 860.122 -4.34977 4.78961 0
M  V30 9146 N 860.254 -1.20106 -1.0204 0
M  V30 9147 C 861.187 -0.889795 -2.10138 0
M  V30 9148 C 862.165 0.156595 -1.61844 0
M  V30 9149 O 863.349 0.0310192 -1.88474 0
M  V30 9150 C 860.476 -0.333227 -3.37057 0
M  V30 9151 C 859.522 -1.36001 -4.04235 0
M  V30 9152 S 860.355 -2.92366 -4.48645 0
M  V30 9153 C 861.511 -2.38274 -5.78771 0
M  V30 9154 H 861.744 -1.80523 -2.36217 0
M  V30 9155 H 859.277 -1.02912 -1.15102 0
M  V30 9156 H 861.235 -0.0186507 -4.10496 0
M  V30 9157 H 859.896 0.560652 -3.09056 0
M  V30 9158 H 859.089 -0.919874 -4.95534 0
M  V30 9159 H 858.691 -1.62186 -3.37004 0
M  V30 9160 H 860.983 -1.77799 -6.53754 0
M  V30 9161 H 861.926 -3.27955 -6.27576 0
M  V30 9162 H 862.334 -1.8054 -5.34851 0
M  V30 9163 N 861.732 1.21287 -1.00634 0
M  V30 9164 C 862.642 2.27388 -0.577226 0
M  V30 9165 C 863.658 1.69791 0.380399 0
M  V30 9166 O 864.834 1.99918 0.2439 0
M  V30 9167 C 861.899 3.46588 0.0880532 0
M  V30 9168 C 860.96 4.19453 -0.914222 0
M  V30 9169 C 860.193 5.32962 -0.280596 0
M  V30 9170 O 860.416 5.62895 0.922265 0
M  V30 9171 O 859.35 5.93666 -0.992196 0
M  V30 9172 H 863.176 2.66289 -1.46028 0
M  V30 9173 H 860.761 1.2771 -0.775283 0
M  V30 9174 H 862.643 4.18881 0.460094 0
M  V30 9175 H 861.318 3.09585 0.945461 0
M  V30 9176 H 860.225 3.49376 -1.33744 0
M  V30 9177 H 861.558 4.6037 -1.74126 0
M  V30 9178 N 863.21 0.781244 1.36873 0
M  V30 9179 C 864.12 0.174981 2.33947 0
M  V30 9180 C 865.136 -0.668512 1.60645 0
M  V30 9181 O 866.312 -0.586213 1.9268 0
M  V30 9182 C 863.377 -0.686557 3.39834 0
M  V30 9183 C 862.438 0.174489 4.28945 0
M  V30 9184 C 861.671 -0.646024 5.29776 0
M  V30 9185 O 861.894 -1.88254 5.38439 0
M  V30 9186 O 860.828 -0.0502214 6.01879 0
M  V30 9187 H 864.654 0.977382 2.87543 0
M  V30 9188 H 862.239 0.542559 1.392 0
M  V30 9189 H 864.121 -1.1781 4.04597 0
M  V30 9190 H 862.796 -1.46699 2.8855 0
M  V30 9191 H 861.703 0.712604 3.6725 0
M  V30 9192 H 863.036 0.918232 4.83559 0
M  V30 9193 N 864.689 -1.48329 0.532571 0
M  V30 9194 C 865.936 -2.025 -0.000582356 0
M  V30 9195 C 866.264 -1.40942 -1.34036 0
M  V30 9196 O 865.519 -0.545545 -1.87942 0
M  V30 9197 C 865.818 -3.57 -0.168943 0
M  V30 9198 C 865.484 -4.37357 1.0968 0
M  V30 9199 C 864.146 -4.59033 1.44369 0
M  V30 9200 C 866.498 -4.83882 1.93669 0
M  V30 9201 C 863.826 -5.24481 2.62939 0
M  V30 9202 C 866.178 -5.50637 3.11419 0
M  V30 9203 C 864.842 -5.70551 3.46451 0
M  V30 9204 H 864.112 -0.741 -0.000213099 0
M  V30 9205 H 866.759 -1.78282 0.699117 0
M  V30 9206 H 865.064 -3.80072 -0.951429 0
M  V30 9207 H 866.761 -3.9654 -0.596422 0
M  V30 9208 H 863.351 -4.20748 0.816655 0
M  V30 9209 H 867.535 -4.66936 1.6818 0
M  V30 9210 H 862.791 -5.38096 2.9028 0
M  V30 9211 H 866.965 -5.85655 3.76803 0
M  V30 9212 H 864.592 -6.21037 4.38425 0
M  V30 9213 N 866.167 -0.267825 -1.55308 0
M  V30 9214 C 867.414 0.351036 -1.99434 0
M  V30 9215 C 867.742 1.56406 -1.15618 0
M  V30 9216 O 866.997 1.94548 -0.212045 0
M  V30 9217 C 867.296 0.784247 -3.48689 0
M  V30 9218 C 866.962 -0.323328 -4.49739 0
M  V30 9219 C 865.624 -0.627467 -4.77091 0
M  V30 9220 C 867.976 -1.07002 -5.10098 0
M  V30 9221 C 865.304 -1.682 -5.62073 0
M  V30 9222 C 867.656 -2.11422 -5.96224 0
M  V30 9223 C 866.32 -2.42479 -6.21901 0
M  V30 9224 H 865.59 0.128453 -0.729781 0
M  V30 9225 H 868.237 -0.380018 -1.87692 0
M  V30 9226 H 866.542 1.59485 -3.57871 0
M  V30 9227 H 868.239 1.2737 -3.80234 0
M  V30 9228 H 864.829 -0.0761528 -4.28532 0
M  V30 9229 H 869.013 -0.848302 -4.88996 0
M  V30 9230 H 864.269 -1.92772 -5.80215 0
M  V30 9231 H 868.443 -2.69759 -6.4203 0
M  V30 9232 H 866.07 -3.24328 -6.87543 0
M  V30 9233 N 867.645 1.57599 0.00500368 0
M  V30 9234 C 868.577 2.04949 1.02609 0
M  V30 9235 C 869.59 0.966507 1.31006 0
M  V30 9236 O 870.779 1.2434 1.2807 0
M  V30 9237 C 867.879 2.43023 2.36206 0
M  V30 9238 C 867.052 3.73993 2.26821 0
M  V30 9239 C 866.111 3.9899 3.43065 0
M  V30 9240 O 865.137 4.69725 3.21477 0
M  V30 9241 N 866.339 3.46496 4.65748 0
M  V30 9242 H 869.104 2.93167 0.622336 0
M  V30 9243 H 866.665 1.60752 0.192488 0
M  V30 9244 H 868.657 2.56863 3.12735 0
M  V30 9245 H 867.227 1.60349 2.68341 0
M  V30 9246 H 866.447 3.70277 1.35235 0
M  V30 9247 H 867.735 4.59865 2.17719 0
M  V30 9248 H 867.133 2.89206 4.86186 0
M  V30 9249 H 865.69 3.65675 5.3956 0
M  V30 9250 N 869.123 -0.277682 1.55134 0
M  V30 9251 C 870.055 -1.36531 1.84098 0
M  V30 9252 C 871.068 -1.45756 0.725194 0
M  V30 9253 O 872.257 -1.47656 1.00299 0
M  V30 9254 C 869.357 -2.74701 1.98476 0
M  V30 9255 C 868.53 -2.88125 3.29094 0
M  V30 9256 C 867.589 -4.0694 3.33596 0
M  V30 9257 O 866.615 -3.9792 4.06999 0
M  V30 9258 N 867.817 -5.18687 2.60661 0
M  V30 9259 H 870.582 -1.12032 2.77973 0
M  V30 9260 H 868.143 -0.467793 1.54995 0
M  V30 9261 H 870.135 -3.52471 1.98863 0
M  V30 9262 H 868.705 -2.92043 1.11488 0
M  V30 9263 H 867.925 -1.97277 3.41285 0
M  V30 9264 H 869.213 -2.94021 4.15246 0
M  V30 9265 H 868.611 -5.28901 2.00699 0
M  V30 9266 H 867.168 -5.94705 2.66776 0
M  V30 9267 N 870.601 -1.47988 -0.541979 0
M  V30 9268 C 871.849 -1.55086 -1.29587 0
M  V30 9269 C 872.17 -0.221304 -1.9374 0
M  V30 9270 O 871.44 0.756128 -1.80719 0
M  V30 9271 H 870.02 -0.571307 -0.481266 0
M  V30 9272 H 872.682 -1.8438 -0.631675 0
M  V30 9273 H 871.778 -2.32556 -2.08144 0
M  V30 9274 N 872.079 0.78992 -1.36375 0
M  V30 9275 C 873.356 1.53584 -1.21126 0
M  V30 9276 C 873.736 2.10124 0.202785 0
M  V30 9277 O 873.084 1.93936 1.20835 0
M  V30 9278 C 873.294 2.63117 -2.29282 0
M  V30 9279 C 874.642 3.31013 -2.65924 0
M  V30 9280 O 875.666 2.734 -2.28321 0
M  V30 9281 O 874.525 4.35129 -3.30643 0
M  V30 9282 H 871.619 0.679366 -0.471583 0
M  V30 9283 H 874.165 0.828446 -1.48104 0
M  V30 9284 H 872.937 2.19329 -3.24053 0
M  V30 9285 H 872.56 3.41476 -2.03666 0
M  V30 9286 N 873.557 1.20646 1.01402 0
M  V30 9287 C 874.504 0.957618 2.09996 0
M  V30 9288 C 875.474 -0.113115 1.65714 0
M  V30 9289 O 876.659 0.032142 1.90773 0
M  V30 9290 C 873.799 0.5186 3.41181 0
M  V30 9291 C 872.912 1.65777 3.98926 0
M  V30 9292 C 872.047 1.16881 5.18182 0
M  V30 9293 C 871.086 2.2809 5.68015 0
M  V30 9294 N 870.223 1.80392 6.7853 0
M  V30 9295 H 875.063 1.88732 2.30617 0
M  V30 9296 H 872.6 0.940703 1.13089 0
M  V30 9297 H 874.558 0.245367 4.16478 0
M  V30 9298 H 873.188 -0.3741 3.20625 0
M  V30 9299 H 872.24 2.04586 3.207 0
M  V30 9300 H 873.552 2.49507 4.31912 0
M  V30 9301 H 872.706 0.851694 6.00692 0
M  V30 9302 H 871.445 0.301434 4.86768 0
M  V30 9303 H 870.45 2.60614 4.84108 0
M  V30 9304 H 871.675 3.15308 6.01463 0
M  V30 9305 H 869.621 0.959856 6.4894 0
M  V30 9306 H 869.538 2.57701 7.10722 0
M  V30 9307 H 870.806 1.51688 7.64598 0
M  V30 9308 N 875.035 -1.20752 1.01276 0
M  V30 9309 C 875.945 -2.27079 0.589277 0
M  V30 9310 C 876.961 -1.6999 -0.371389 0
M  V30 9311 O 878.137 -2.00044 -0.233294 0
M  V30 9312 C 875.202 -3.4663 -0.0696715 0
M  V30 9313 C 874.263 -4.18962 0.936454 0
M  V30 9314 C 873.496 -5.32806 0.308856 0
M  V30 9315 O 873.719 -5.63376 -0.8924 0
M  V30 9316 O 872.653 -5.93131 1.02367 0
M  V30 9317 H 876.479 -2.6551 1.47438 0
M  V30 9318 H 874.064 -1.27297 0.782045 0
M  V30 9319 H 875.946 -4.19119 -0.437873 0
M  V30 9320 H 874.621 -3.10082 -0.929029 0
M  V30 9321 H 873.528 -3.48661 1.35595 0
M  V30 9322 H 874.861 -4.59441 1.76565 0
M  V30 9323 N 876.513 -0.788492 -1.36457 0
M  V30 9324 C 877.929 -0.470063 -1.52521 0
M  V30 9325 C 878.129 1.01176 -1.74258 0
M  V30 9326 O 877.185 1.79726 -1.77355 0
M  V30 9327 C 878.498 -1.2997 -2.71161 0
M  V30 9328 C 880.046 -1.2933 -2.85031 0
M  V30 9329 C 880.521 -2.10665 -4.06674 0
M  V30 9330 N 882.012 -2.08107 -4.13819 0
M  V30 9331 C 882.747 -2.6781 -5.07016 0
M  V30 9332 N 882.243 -3.36369 -6.05663 0
M  V30 9333 N 884.036 -2.57549 -4.99625 0
M  V30 9334 H 876.187 -1.7484 -1.20602 0
M  V30 9335 H 878.45 -0.743159 -0.588574 0
M  V30 9336 H 878.156 -2.35051 -2.61618 0
M  V30 9337 H 878.03 -0.940367 -3.6529 0
M  V30 9338 H 880.417 -0.250414 -2.94036 0
M  V30 9339 H 880.498 -1.69239 -1.91812 0
M  V30 9340 H 880.142 -3.14984 -3.98431 0
M  V30 9341 H 880.072 -1.68128 -4.9904 0
M  V30 9342 H 882.563 -1.58208 -3.43189 0
M  V30 9343 H 882.876 -3.79258 -6.73338 0
M  V30 9344 H 881.221 -3.40471 -6.05891 0
M  V30 9345 H 884.412 -2.0359 -4.21508 0
M  V30 9346 H 884.585 -3.0437 -5.72069 0
M  V30 9347 N 877.991 1.48044 -0.54043 0
M  V30 9348 C 878.901 2.33565 0.220163 0
M  V30 9349 C 879.917 1.47146 0.928659 0
M  V30 9350 O 881.093 1.80107 0.901295 0
M  V30 9351 C 878.158 3.2349 1.2472 0
M  V30 9352 C 877.219 4.25789 0.547938 0
M  V30 9353 C 876.452 5.11417 1.52605 0
M  V30 9354 O 876.675 4.99204 2.75956 0
M  V30 9355 O 875.609 5.92498 1.05972 0
M  V30 9356 H 879.435 2.99868 -0.480898 0
M  V30 9357 H 877.02 1.46332 -0.301226 0
M  V30 9358 H 878.902 3.79084 1.84047 0
M  V30 9359 H 877.577 2.59835 1.93048 0
M  V30 9360 H 876.484 3.74001 -0.0860941 0
M  V30 9361 H 877.817 4.92111 -0.0935896 0
M  V30 9362 N 879.47 0.276058 1.55163 0
M  V30 9363 C 880.886 -0.0780579 1.59409 0
M  V30 9364 C 881.086 -1.54521 1.29327 0
M  V30 9365 O 880.142 -2.29422 1.05459 0
M  V30 9366 C 881.455 0.297422 2.99225 0
M  V30 9367 C 883.003 0.244117 3.12047 0
M  V30 9368 C 883.478 0.594051 4.54131 0
M  V30 9369 N 884.969 0.54564 4.59975 0
M  V30 9370 C 885.704 0.789192 5.67943 0
M  V30 9371 N 885.2 1.09741 6.84053 0
M  V30 9372 N 886.993 0.717926 5.57496 0
M  V30 9373 H 879.144 1.23251 1.72982 0
M  V30 9374 H 881.407 0.497988 0.806667 0
M  V30 9375 H 881.113 1.31782 3.26077 0
M  V30 9376 H 880.987 -0.361286 3.75466 0
M  V30 9377 H 883.374 -0.766992 2.84958 0
M  V30 9378 H 883.455 0.937097 2.38017 0
M  V30 9379 H 883.099 1.60285 4.81945 0
M  V30 9380 H 883.029 -0.120728 5.26462 0
M  V30 9381 H 885.52 0.317334 3.76565 0
M  V30 9382 H 885.833 1.26989 7.62295 0
M  V30 9383 H 884.178 1.13519 6.85666 0
M  V30 9384 H 887.369 0.47697 4.65664 0
M  V30 9385 H 887.542 0.911118 6.41563 0
M  V30 9386 N 880.948 -1.576 0.00335426 0
M  V30 9387 C 882.196 -1.90336 -0.679446 0
M  V30 9388 C 882.517 -0.877777 -1.74127 0
M  V30 9389 O 881.787 0.0843585 -1.95718 0
M  V30 9390 H 880.367 -0.702509 -0.253948 0
M  V30 9391 H 883.029 -1.94848 0.0450731 0
M  V30 9392 H 882.125 -2.90197 -1.14857 0
M  V30 9393 N 882.426 0.269451 -1.5528 0
M  V30 9394 C 883.359 1.3588 -1.83336 0
M  V30 9395 C 884.337 1.4739 -0.68666 0
M  V30 9396 O 885.521 1.63959 -0.930037 0
M  V30 9397 C 882.648 2.73483 -1.99812 0
M  V30 9398 C 881.694 2.79239 -3.22378 0
M  V30 9399 S 882.527 2.38125 -4.79642 0
M  V30 9400 C 883.683 3.77697 -4.99095 0
M  V30 9401 H 883.916 1.11878 -2.75446 0
M  V30 9402 H 881.449 0.469268 -1.47096 0
M  V30 9403 H 883.407 3.52725 -2.09989 0
M  V30 9404 H 882.068 2.94735 -1.08583 0
M  V30 9405 H 881.261 3.80243 -3.30804 0
M  V30 9406 H 880.863 2.08022 -3.1081 0
M  V30 9407 H 883.155 4.72999 -4.85055 0
M  V30 9408 H 884.098 3.7422 -6.01136 0
M  V30 9409 H 884.506 3.69164 -4.27058 0
M  V30 9410 N 883.904 1.48273 0.534124 0
M  V30 9411 C 884.814 1.65162 1.66609 0
M  V30 9412 C 885.83 0.534177 1.65598 0
M  V30 9413 O 887.006 0.804715 1.84625 0
M  V30 9414 C 884.071 1.68354 3.03081 0
M  V30 9415 C 883.132 2.91696 3.1498 0
M  V30 9416 C 882.365 2.94725 4.44941 0
M  V30 9417 O 882.588 2.06285 5.31792 0
M  V30 9418 O 881.522 3.8685 4.61119 0
M  V30 9419 H 885.348 2.60991 1.55298 0
M  V30 9420 H 882.933 1.31626 0.706749 0
M  V30 9421 H 884.815 1.72998 3.84252 0
M  V30 9422 H 883.49 0.756978 3.14725 0
M  V30 9423 H 882.397 2.92586 2.33119 0
M  V30 9424 H 883.73 3.83722 3.0825 0
M  V30 9425 N 885.382 -0.782676 1.36792 0
M  V30 9426 C 886.631 -1.53605 1.30723 0
M  V30 9427 C 886.944 -1.95294 -0.109296 0
M  V30 9428 O 888.15 -2.69921 -0.292398 0
M  V30 9429 C 886.606 -2.77321 2.29393 0
M  V30 9430 C 886.214 -2.42774 3.76517 0
M  V30 9431 C 887.958 -3.55289 2.32314 0
M  V30 9432 C 885.865 -3.62926 4.66947 0
M  V30 9433 H 884.795 -0.576646 0.485794 0
M  V30 9434 H 887.446 -0.858255 1.62192 0
M  V30 9435 H 885.828 -3.46934 1.90927 0
M  V30 9436 H 887.002 -1.81014 4.23758 0
M  V30 9437 H 885.317 -1.78002 3.76436 0
M  V30 9438 H 887.914 -4.44573 2.97083 0
M  V30 9439 H 888.257 -3.94361 1.3336 0
M  V30 9440 H 888.79 -2.92662 2.69432 0
M  V30 9441 H 885.529 -3.28944 5.66989 0
M  V30 9442 H 885.049 -4.23828 4.24418 0
M  V30 9443 H 886.728 -4.29873 4.83548 0
M  V30 9444 N 886.86 -1.21182 -1.00761 0
M  V30 9445 C 888.085 -1.05411 -1.78615 0
M  V30 9446 C 888.51 0.391837 -1.83973 0
M  V30 9447 O 887.868 1.28256 -1.28141 0
M  V30 9448 C 887.916 -1.65285 -3.20489 0
M  V30 9449 O 887.02 -0.896558 -4.02536 0
M  V30 9450 H 886.361 -0.37116 -0.550578 0
M  V30 9451 H 888.891 -1.60669 -1.26676 0
M  V30 9452 H 888.901 -1.69397 -3.71172 0
M  V30 9453 H 887.576 -2.70514 -3.15904 0
M  V30 9454 H 886.153 -0.930335 -3.61108 0
M  V30 9455 N 888.338 1.20213 -1.01915 0
M  V30 9456 C 889.749 1.7136 -0.741131 0
M  V30 9457 C 890.1 1.81705 0.740107 0
M  V30 9458 O 889.225 1.48139 1.57746 0
M  V30 9459 C 889.82 3.11231 -1.33869 0
M  V30 9460 C 888.379 3.59677 -1.10948 0
M  V30 9461 C 887.526 2.36809 -1.4428 0
M  V30 9462 H 890.477 1.05191 -1.1883 0
M  V30 9463 H 890.498 3.7342 -0.730585 0
M  V30 9464 H 890.01 3.03669 -2.41675 0
M  V30 9465 H 888.111 3.72568 -0.0492052 0
M  V30 9466 H 888.224 4.44351 -1.79134 0
M  V30 9467 H 886.588 2.39674 -0.861881 0
M  V30 9468 H 887.371 2.31886 -2.53148 0
M  V30 9469 N 889.816 0.795718 1.36037 0
M  V30 9470 C 890.749 0.144269 2.27744 0
M  V30 9471 C 891.727 -0.683351 1.47543 0
M  V30 9472 O 892.911 -0.652976 1.76829 0
M  V30 9473 C 890.038 -0.800944 3.29094 0
M  V30 9474 C 889.084 -0.0543234 4.26465 0
M  V30 9475 S 889.917 1.27426 5.20118 0
M  V30 9476 C 891.073 0.333213 6.25012 0
M  V30 9477 H 891.306 0.921827 2.82648 0
M  V30 9478 H 888.839 0.590241 1.42673 0
M  V30 9479 H 890.797 -1.34082 3.87985 0
M  V30 9480 H 889.458 -1.5518 2.7309 0
M  V30 9481 H 888.651 -0.771788 4.98056 0
M  V30 9482 H 888.253 0.415264 3.71687 0
M  V30 9483 H 890.545 -0.485604 6.75757 0
M  V30 9484 H 891.488 1.01798 7.00744 0
M  V30 9485 H 891.896 -0.066256 5.64461 0
M  V30 9486 N 891.294 -1.47756 0.548274 0
M  V30 9487 C 892.534 -2.04387 0.0231354 0
M  V30 9488 C 892.898 -1.41438 -1.29843 0
M  V30 9489 O 894.099 -1.89064 -1.91072 0
M  V30 9490 C 892.37 -3.57316 -0.077482 0
M  V30 9491 S 893.929 -4.35339 -0.550038 0
M  V30 9492 H 890.747 -0.710694 0.0208428 0
M  V30 9493 H 893.349 -1.81239 0.732984 0
M  V30 9494 H 892.053 -4.00658 0.88888 0
M  V30 9495 H 891.584 -3.84947 -0.811157 0
M  V30 9496 H 893.599 -4.61957 -1.81135 0
M  V30 9497 N 892.772 -0.284283 -1.55015 0
M  V30 9498 C 894.049 0.382125 -1.91831 0
M  V30 9499 C 894.429 1.73007 -1.20962 0
M  V30 9500 O 893.777 2.25962 -0.339594 0
M  V30 9501 C 893.987 0.513341 -3.45204 0
M  V30 9502 C 895.335 0.791989 -4.17148 0
M  V30 9503 O 896.359 0.597799 -3.51148 0
M  V30 9504 O 895.218 1.16394 -5.33961 0
M  V30 9505 H 892.312 0.210707 -0.799707 0
M  V30 9506 H 894.858 -0.331111 -1.66438 0
M  V30 9507 H 893.63 -0.434911 -3.88876 0
M  V30 9508 H 893.253 1.27569 -3.76579 0
M  V30 9509 N 894.251 1.57596 -0.0117121 0
M  V30 9510 C 895.198 2.09153 0.975897 0
M  V30 9511 C 896.168 0.989579 1.33404 0
M  V30 9512 O 897.353 1.26273 1.43038 0
M  V30 9513 C 894.493 2.60906 2.2588 0
M  V30 9514 C 893.606 3.85046 1.95866 0
M  V30 9515 C 892.741 4.25257 3.18323 0
M  V30 9516 C 891.78 5.42202 2.84049 0
M  V30 9517 N 890.917 5.77651 3.99079 0
M  V30 9518 H 895.757 2.93261 0.52931 0
M  V30 9519 H 893.294 1.44965 0.249691 0
M  V30 9520 H 895.252 2.88995 3.00895 0
M  V30 9521 H 893.882 1.79654 2.68187 0
M  V30 9522 H 892.934 3.63794 1.11168 0
M  V30 9523 H 894.246 4.70151 1.66611 0
M  V30 9524 H 893.4 4.5469 4.01674 0
M  V30 9525 H 892.139 3.38884 3.50726 0
M  V30 9526 H 891.144 5.1248 1.99107 0
M  V30 9527 H 892.369 6.3026 2.52881 0
M  V30 9528 H 890.315 4.94235 4.31356 0
M  V30 9529 H 890.232 6.57356 3.73388 0
M  V30 9530 H 891.5 6.11681 4.83183 0
M  V30 9531 N 895.729 -0.261212 1.5542 0
M  V30 9532 C 896.679 -1.32571 1.85496 0
M  V30 9533 C 897.663 -1.44155 0.714722 0
M  V30 9534 O 898.855 -1.47637 0.976336 0
M  V30 9535 C 895.984 -2.68384 2.14067 0
M  V30 9536 C 895.07 -2.60864 3.34381 0
M  V30 9537 N 895.461 -2.22967 4.54004 0
M  V30 9538 C 893.759 -2.91904 3.37206 0
M  V30 9539 C 894.46 -2.25727 5.36118 0
M  V30 9540 N 893.436 -2.64667 4.74818 0
M  V30 9541 H 897.238 -1.02298 2.75522 0
M  V30 9542 H 894.752 -0.469849 1.55455 0
M  V30 9543 H 896.749 -3.45189 2.33774 0
M  V30 9544 H 895.409 -2.99536 1.25332 0
M  V30 9545 H 896.42 -1.94748 4.79889 0
M  V30 9546 H 893.097 -3.2769 2.587 0
M  V30 9547 H 894.487 -1.98889 6.41789 0
M  V30 9548 N 897.207 -1.48554 -0.526253 0
M  V30 9549 C 898.435 -1.60429 -1.30652 0
M  V30 9550 C 898.85 -0.265963 -1.86917 0
M  V30 9551 O 898.207 0.745262 -1.6659 0
M  V30 9552 C 898.258 -2.65377 -2.45473 0
M  V30 9553 O 897.979 -3.94017 -1.91527 0
M  V30 9554 C 899.48 -2.87726 -3.37237 0
M  V30 9555 H 896.7 -0.540817 -0.397187 0
M  V30 9556 H 899.244 -1.94409 -0.634461 0
M  V30 9557 H 897.399 -2.34246 -3.08557 0
M  V30 9558 H 897.813 -4.51623 -2.66715 0
M  V30 9559 H 899.287 -3.64951 -4.14144 0
M  V30 9560 H 899.764 -1.96688 -3.92696 0
M  V30 9561 H 900.37 -3.20176 -2.79942 0
M  V30 9562 N 898.685 0.775411 -1.37205 0
M  V30 9563 C 899.648 1.8702 -1.325 0
M  V30 9564 C 900.648 1.5915 -0.229793 0
M  V30 9565 O 901.838 1.673 -0.485423 0
M  V30 9566 C 898.97 3.24085 -1.05745 0
M  V30 9567 H 900.163 1.92604 -2.29878 0
M  V30 9568 H 897.716 0.97476 -1.22181 0
M  V30 9569 H 898.451 3.24178 -0.0888371 0
M  V30 9570 H 898.236 3.45705 -1.85016 0
M  V30 9571 H 899.726 4.0416 -1.05094 0
M  V30 9572 N 900.163 1.21714 1.00117 0
M  V30 9573 C 901.388 1.06357 1.78054 0
M  V30 9574 C 901.813 -0.382075 1.84179 0
M  V30 9575 O 901.171 -1.27575 1.28819 0
M  V30 9576 C 901.219 1.66982 3.19608 0
M  V30 9577 O 900.323 0.917892 4.02055 0
M  V30 9578 H 899.664 0.374074 0.548602 0
M  V30 9579 H 902.194 1.61338 1.25822 0
M  V30 9580 H 902.204 1.71363 3.70268 0
M  V30 9581 H 900.879 2.72185 3.14465 0
M  V30 9582 H 899.456 0.949473 3.6061 0
M  V30 9583 N 901.641 -1.19671 1.02551 0
M  V30 9584 C 902.887 -1.89548 0.721069 0
M  V30 9585 C 903.22 -1.79209 -0.748176 0
M  V30 9586 O 902.495 -1.1822 -1.54448 0
M  V30 9587 C 902.778 -3.4061 1.16861 0
M  V30 9588 C 902.631 -3.59838 2.69883 0
M  V30 9589 C 903.95 -4.33718 0.746782 0
M  V30 9590 H 901.069 -0.688315 0.263422 0
M  V30 9591 H 903.711 -1.40883 1.27483 0
M  V30 9592 H 901.861 -3.82188 0.697477 0
M  V30 9593 H 903.533 -3.27454 3.24917 0
M  V30 9594 H 901.776 -3.03005 3.10435 0
M  V30 9595 H 902.447 -4.65766 2.96253 0
M  V30 9596 H 904.923 -3.99837 1.15195 0
M  V30 9597 H 903.799 -5.38012 1.08786 0
M  V30 9598 H 904.06 -4.40704 -0.351057 0
M  V30 9599 N 903.119 -0.802921 -1.35613 0
M  V30 9600 C 904.029 -0.212177 -2.33639 0
M  V30 9601 C 905.045 0.642871 -1.61689 0
M  V30 9602 O 906.221 0.555485 -1.93588 0
M  V30 9603 C 903.286 0.632406 -3.40883 0
M  V30 9604 C 902.347 -0.242708 -4.28613 0
M  V30 9605 C 901.58 0.56166 -5.30736 0
M  V30 9606 O 901.803 1.79664 -5.41366 0
M  V30 9607 O 900.737 -0.0455387 -6.01883 0
M  V30 9608 H 904.563 -1.023 -2.85952 0
M  V30 9609 H 902.148 -0.564636 -1.38319 0
M  V30 9610 H 904.03 1.11358 -4.0642 0
M  V30 9611 H 902.705 1.42089 -2.90848 0
M  V30 9612 H 901.612 -0.77094 -3.6607 0
M  V30 9613 H 902.945 -0.995046 -4.82037 0
M  V30 9614 N 904.597 1.47463 -0.556102 0
M  V30 9615 C 905.544 2.29998 0.192213 0
M  V30 9616 C 906.514 1.38993 0.909403 0
M  V30 9617 O 907.699 1.67954 0.905316 0
M  V30 9618 C 904.839 3.22932 1.21692 0
M  V30 9619 C 903.952 4.29027 0.505908 0
M  V30 9620 C 903.087 5.09114 1.51581 0
M  V30 9621 C 902.126 6.06984 0.789714 0
M  V30 9622 N 901.263 6.80033 1.74639 0
M  V30 9623 H 906.103 2.93468 -0.517734 0
M  V30 9624 H 903.64 1.44654 -0.267147 0
M  V30 9625 H 905.598 3.75234 1.8236 0
M  V30 9626 H 904.228 2.61329 1.89491 0
M  V30 9627 H 903.28 3.7979 -0.215276 0
M  V30 9628 H 904.592 4.9876 -0.062958 0
M  V30 9629 H 903.746 5.6556 2.19606 0
M  V30 9630 H 902.485 4.3928 2.11859 0
M  V30 9631 H 901.49 5.49717 0.0955382 0
M  V30 9632 H 902.715 6.78827 0.192688 0
M  V30 9633 H 900.661 6.12931 2.33777 0
M  V30 9634 H 900.578 7.45933 1.22965 0
M  V30 9635 H 901.846 7.41054 2.41782 0
M  V30 9636 N 906.075 0.2925 1.54862 0
M  V30 9637 C 907.3 -0.32494 2.04839 0
M  V30 9638 C 907.725 -1.47381 1.16877 0
M  V30 9639 O 907.083 -1.80492 0.171028 0
M  V30 9640 C 907.131 -0.76694 3.5235 0
M  V30 9641 O 906.235 -1.87256 3.67436 0
M  V30 9642 H 905.576 -0.0645195 0.660858 0
M  V30 9643 H 908.106 0.431867 1.9999 0
M  V30 9644 H 908.116 -1.05804 3.94043 0
M  V30 9645 H 906.791 0.0735212 4.15835 0
M  V30 9646 H 905.368 -1.58266 3.37648 0
M  V30 9647 N 907.553 -1.57587 0.0200696 0
M  V30 9648 C 908.485 -2.06555 -0.993359 0
M  V30 9649 C 909.498 -0.987227 -1.29451 0
M  V30 9650 O 910.687 -1.26361 -1.26075 0
M  V30 9651 C 907.787 -2.4675 -2.3231 0
M  V30 9652 C 906.96 -3.77554 -2.20843 0
M  V30 9653 C 906.019 -4.04397 -3.36674 0
M  V30 9654 O 905.045 -4.7478 -3.13963 0
M  V30 9655 N 906.247 -3.53861 -4.60176 0
M  V30 9656 H 909.012 -2.9412 -0.575617 0
M  V30 9657 H 906.573 -1.61038 -0.166889 0
M  V30 9658 H 908.565 -2.61806 -3.08609 0
M  V30 9659 H 907.135 -1.64598 -2.65756 0
M  V30 9660 H 906.355 -3.72382 -1.29327 0
M  V30 9661 H 907.643 -4.63271 -2.10375 0
M  V30 9662 H 907.041 -2.96904 -4.81523 0
M  V30 9663 H 905.598 -3.74213 -5.33674 0
M  V30 9664 N 909.032 0.252966 -1.55557 0
M  V30 9665 C 910.278 0.983306 -1.77367 0
M  V30 9666 C 910.611 1.85203 -0.584258 0
M  V30 9667 O 909.886 1.89963 0.417644 0
M  V30 9668 C 910.169 1.84896 -3.09007 0
M  V30 9669 C 910.022 1.00883 -4.38341 0
M  V30 9670 C 911.341 2.83254 -3.36831 0
M  V30 9671 H 908.46 0.356056 -0.645286 0
M  V30 9672 H 911.102 0.254232 -1.88291 0
M  V30 9673 H 909.252 2.47058 -2.99825 0
M  V30 9674 H 910.924 0.40638 -4.59507 0
M  V30 9675 H 909.167 0.31297 -4.3267 0
M  V30 9676 H 909.838 1.64818 -5.2682 0
M  V30 9677 H 912.314 2.31228 -3.45937 0
M  V30 9678 H 911.19 3.40949 -4.30169 0
M  V30 9679 H 911.451 3.59407 -2.57447 0
M  V30 9680 N 910.51 1.48831 0.518367 0
M  V30 9681 C 911.758 1.57128 1.27103 0
M  V30 9682 C 912.079 0.252098 1.93364 0
M  V30 9683 O 911.349 -0.727281 1.819 0
M  V30 9684 H 909.929 0.578891 0.472116 0
M  V30 9685 H 912.591 1.85361 0.602262 0
M  V30 9686 H 911.687 2.35838 2.04418 0
M  V30 9687 N 911.988 -0.768124 1.37614 0
M  V30 9688 C 913.235 -1.5268 1.33022 0
M  V30 9689 C 913.563 -1.94318 -0.0841918 0
M  V30 9690 O 912.818 -1.64623 -1.0582 0
M  V30 9691 C 913.117 -2.80204 2.21856 0
M  V30 9692 C 912.783 -2.57602 3.7007 0
M  V30 9693 C 911.445 -2.51146 4.10462 0
M  V30 9694 C 913.797 -2.37482 4.63952 0
M  V30 9695 C 911.125 -2.22566 5.42846 0
M  V30 9696 C 913.477 -2.10425 5.96577 0
M  V30 9697 C 912.141 -2.02416 6.36069 0
M  V30 9698 H 911.411 -0.558697 0.486763 0
M  V30 9699 H 914.058 -0.88447 1.69851 0
M  V30 9700 H 912.363 -3.49014 1.78034 0
M  V30 9701 H 914.06 -3.38099 2.15615 0
M  V30 9702 H 910.65 -2.63491 3.38039 0
M  V30 9703 H 914.834 -2.41457 4.33604 0
M  V30 9704 H 910.09 -2.14863 5.72402 0
M  V30 9705 H 914.264 -1.93857 6.68874 0
M  V30 9706 H 911.891 -1.80034 7.38574 0
M  V30 9707 N 913.466 -1.22244 -0.994698 0
M  V30 9708 C 914.715 -1.04005 -1.72817 0
M  V30 9709 C 915.028 0.425413 -1.90918 0
M  V30 9710 O 916.234 0.727429 -2.61574 0
M  V30 9711 C 914.69 -1.81244 -3.10932 0
M  V30 9712 C 914.298 -3.32028 -3.00768 0
M  V30 9713 C 916.042 -1.71448 -3.88337 0
M  V30 9714 C 913.949 -4.01716 -4.34026 0
M  V30 9715 H 912.879 -0.385559 -0.647966 0
M  V30 9716 H 915.53 -1.46077 -1.11058 0
M  V30 9717 H 913.912 -1.3197 -3.73363 0
M  V30 9718 H 915.086 -3.88682 -2.47513 0
M  V30 9719 H 913.401 -3.4248 -2.36846 0
M  V30 9720 H 915.998 -2.20836 -4.86965 0
M  V30 9721 H 916.341 -0.674568 -4.10798 0
M  V30 9722 H 916.874 -2.18256 -3.3258 0
M  V30 9723 H 913.613 -5.05952 -4.16765 0
M  V30 9724 H 913.133 -3.49849 -4.87202 0
M  V30 9725 H 914.812 -4.0721 -5.02782 0
M  V30 9726 N 914.944 1.19125 -1.03184 0
M  V30 9727 C 916.221 1.84674 -0.644574 0
M  V30 9728 C 916.601 1.92042 0.876534 0
M  V30 9729 O 915.949 1.43965 1.77444 0
M  V30 9730 C 916.159 3.23477 -1.3101 0
M  V30 9731 C 917.507 3.99608 -1.43524 0
M  V30 9732 O 918.531 3.32886 -1.2675 0
M  V30 9733 O 917.39 5.19132 -1.70776 0
M  V30 9734 H 914.484 0.795968 -0.22442 0
M  V30 9735 H 917.03 1.2659 -1.13018 0
M  V30 9736 H 915.802 3.12967 -2.34878 0
M  V30 9737 H 915.425 3.89209 -0.812547 0
M  V30 9738 N 916.422 0.810101 1.35185 0
M  V30 9739 C 917.652 0.404109 2.02609 0
M  V30 9740 C 918.06 -0.990748 1.61186 0
M  V30 9741 O 917.403 -1.65038 0.80674 0
M  V30 9742 C 917.465 0.412047 3.57131 0
M  V30 9743 C 917.129 1.75802 4.21832 0
M  V30 9744 C 918.126 2.71687 4.43263 0
M  V30 9745 C 915.811 2.04299 4.58876 0
M  V30 9746 C 917.805 3.9425 5.00845 0
M  V30 9747 C 915.492 3.27125 5.16171 0
M  V30 9748 C 916.49 4.21918 5.37098 0
M  V30 9749 O 916.178 5.42576 5.93184 0
M  V30 9750 H 915.91 0.161914 0.656323 0
M  V30 9751 H 918.464 1.09605 1.73712 0
M  V30 9752 H 916.694 -0.336509 3.85233 0
M  V30 9753 H 918.383 0.0278817 4.0589 0
M  V30 9754 H 919.149 2.50964 4.15021 0
M  V30 9755 H 915.028 1.31324 4.41899 0
M  V30 9756 H 918.572 4.68251 5.17094 0
M  V30 9757 H 914.469 3.47718 5.43841 0
M  V30 9758 H 915.237 5.43921 6.11631 0
M  V30 9759 N 917.9 -1.47166 0.563914 0
M  V30 9760 C 919.149 -2.0166 0.0401871 0
M  V30 9761 C 919.462 -1.44303 -1.32046 0
M  V30 9762 O 920.668 -1.905 -1.93448 0
M  V30 9763 C 919.124 -3.59894 0.0213257 0
M  V30 9764 C 918.732 -4.26244 1.37914 0
M  V30 9765 C 920.476 -4.22114 -0.449442 0
M  V30 9766 C 918.383 -5.76503 1.31902 0
M  V30 9767 H 917.313 -0.753916 0.0112534 0
M  V30 9768 H 919.964 -1.69091 0.712766 0
M  V30 9769 H 918.346 -3.89454 -0.717038 0
M  V30 9770 H 919.52 -4.08317 2.13574 0
M  V30 9771 H 917.835 -3.76039 1.78839 0
M  V30 9772 H 920.432 -5.32234 -0.51292 0
M  V30 9773 H 920.775 -3.89749 -1.46291 0
M  V30 9774 H 921.308 -3.9711 0.23427 0
M  V30 9775 H 918.047 -6.13498 2.3087 0
M  V30 9776 H 917.567 -5.96748 0.604324 0
M  V30 9777 H 919.246 -6.38846 1.02392 0
M  V30 9778 N 919.378 -0.300708 -1.54705 0
M  V30 9779 C 920.624 0.309111 -2.0043 0
M  V30 9780 C 920.957 1.53562 -1.1888 0
M  V30 9781 O 920.232 1.92683 -0.265205 0
M  V30 9782 C 920.515 0.665995 -3.53888 0
M  V30 9783 C 920.368 -0.56963 -4.46178 0
M  V30 9784 C 921.687 1.49262 -4.14016 0
M  V30 9785 H 918.806 0.110878 -0.728612 0
M  V30 9786 H 921.448 -0.412748 -1.85463 0
M  V30 9787 H 919.598 1.281 -3.66773 0
M  V30 9788 H 921.27 -1.20811 -4.45199 0
M  V30 9789 H 919.513 -1.20292 -4.16788 0
M  V30 9790 H 920.184 -0.275785 -5.51311 0
M  V30 9791 H 922.66 0.972979 -4.04564 0
M  V30 9792 H 921.536 1.71111 -5.21548 0
M  V30 9793 H 921.797 2.48174 -3.65872 0
M  V30 9794 N 920.856 1.57574 -0.0284266 0
M  V30 9795 C 921.806 2.06674 0.962804 0
M  V30 9796 C 922.79 0.967115 1.28591 0
M  V30 9797 O 923.982 1.23068 1.27214 0
M  V30 9798 C 921.111 2.59682 2.24545 0
M  V30 9799 C 920.197 3.76573 1.95073 0
M  V30 9800 N 920.588 4.8721 1.35869 0
M  V30 9801 C 918.886 3.85046 2.25068 0
M  V30 9802 C 919.587 5.68436 1.23514 0
M  V30 9803 N 918.563 5.15323 1.73041 0
M  V30 9804 H 922.365 2.89615 0.500013 0
M  V30 9805 H 919.879 1.61437 0.176604 0
M  V30 9806 H 921.876 2.93148 2.96428 0
M  V30 9807 H 920.536 1.7817 2.71451 0
M  V30 9808 H 921.547 5.07477 1.03379 0
M  V30 9809 H 918.224 3.14439 2.74653 0
M  V30 9810 H 919.614 6.67387 0.777403 0
M  V30 9811 N 922.334 -0.244713 1.55689 0
M  V30 9812 C 923.745 -0.813603 1.6804 0
M  V30 9813 C 924.096 -1.85936 0.626281 0
M  V30 9814 O 923.221 -2.15206 -0.227038 0
M  V30 9815 C 923.816 -1.48252 3.04642 0
M  V30 9816 C 922.375 -1.99908 3.18926 0
M  V30 9817 C 921.522 -0.850958 2.6392 0
M  V30 9818 H 924.473 -0.0204805 1.58687 0
M  V30 9819 H 924.494 -2.35062 2.99209 0
M  V30 9820 H 924.006 -0.721164 3.81341 0
M  V30 9821 H 922.107 -2.78918 2.47054 0
M  V30 9822 H 922.22 -2.19497 4.25862 0
M  V30 9823 H 920.584 -1.25206 2.21801 0
M  V30 9824 H 921.367 -0.10265 3.43146 0
M  V30 9825 N 923.813 -1.49104 -0.510467 0
M  V30 9826 C 924.743 -1.67981 -1.62187 0
M  V30 9827 C 925.724 -0.528529 -1.6168 0
M  V30 9828 O 926.909 -0.763305 -1.7857 0
M  V30 9829 C 924.039 -1.73755 -3.0071 0
M  V30 9830 C 922.993 -2.88579 -3.1608 0
M  V30 9831 C 922.319 -2.79457 -4.5586 0
M  V30 9832 C 923.619 -4.29638 -2.97 0
M  V30 9833 H 925.313 -2.61029 -1.46643 0
M  V30 9834 H 922.859 -1.25615 -0.704042 0
M  V30 9835 H 924.812 -1.85548 -3.78352 0
M  V30 9836 H 923.536 -0.772996 -3.17321 0
M  V30 9837 H 922.195 -2.76372 -2.40861 0
M  V30 9838 H 921.843 -1.80929 -4.69333 0
M  V30 9839 H 921.543 -3.56518 -4.67086 0
M  V30 9840 H 923.067 -2.93245 -5.35574 0
M  V30 9841 H 924.481 -4.42575 -3.64418 0
M  V30 9842 H 922.878 -5.07847 -3.19704 0
M  V30 9843 H 923.948 -4.44741 -1.93219 0
M  V30 9844 N 925.291 0.760815 -1.38019 0
M  V30 9845 C 926.537 1.52109 -1.35034 0
M  V30 9846 C 926.892 1.92302 0.0615509 0
M  V30 9847 O 926.185 1.62028 1.02261 0
M  V30 9848 C 926.379 2.79024 -2.23339 0
M  V30 9849 C 926.208 2.51238 -3.72974 0
M  V30 9850 C 924.978 2.44818 -4.42032 0
M  V30 9851 C 927.176 2.18499 -4.65578 0
M  V30 9852 N 925.158 2.09232 -5.77144 0
M  V30 9853 C 926.529 1.93143 -5.89148 0
M  V30 9854 C 928.584 2.04747 -4.53854 0
M  V30 9855 C 927.287 1.55423 -7.02308 0
M  V30 9856 C 929.313 1.68428 -5.66909 0
M  V30 9857 C 928.675 1.43939 -6.89537 0
M  V30 9858 H 924.774 0.556482 -0.54941 0
M  V30 9859 H 927.358 0.886614 -1.73341 0
M  V30 9860 H 925.529 3.40292 -1.87232 0
M  V30 9861 H 927.261 3.45016 -2.11533 0
M  V30 9862 H 924.016 2.61045 -3.95161 0
M  V30 9863 H 924.44 1.94104 -6.48577 0
M  V30 9864 H 929.082 2.22358 -3.59607 0
M  V30 9865 H 926.8 1.36551 -7.96479 0
M  V30 9866 H 930.386 1.5843 -5.59814 0
M  V30 9867 H 929.266 1.16253 -7.75535 0
M  V30 9868 N 926.769 1.22769 0.988202 0
M  V30 9869 C 927.679 1.01844 2.11341 0
M  V30 9870 C 928.695 -0.0346937 1.73965 0
M  V30 9871 O 929.871 0.159061 2.00771 0
M  V30 9872 C 926.936 0.603837 3.41401 0
M  V30 9873 C 925.997 1.73113 3.92849 0
M  V30 9874 C 925.23 1.33621 5.16702 0
M  V30 9875 O 925.453 0.217041 5.69987 0
M  V30 9876 O 924.387 2.15444 5.62021 0
M  V30 9877 H 928.213 1.96127 2.31879 0
M  V30 9878 H 925.798 1.01405 1.09715 0
M  V30 9879 H 927.68 0.383196 4.19654 0
M  V30 9880 H 926.355 -0.310082 3.22211 0
M  V30 9881 H 925.262 2.00634 3.15748 0
M  V30 9882 H 926.595 2.62308 4.1648 0
M  V30 9883 N 928.247 -1.18576 1.03814 0
M  V30 9884 C 929.475 -1.92437 0.759966 0
M  V30 9885 C 929.89 -1.76031 -0.682526 0
M  V30 9886 O 929.247 -1.08829 -1.46501 0
M  V30 9887 C 929.298 -3.43923 1.11351 0
M  V30 9888 O 929.019 -3.5981 2.49937 0
M  V30 9889 C 930.52 -4.34888 0.859472 0
M  V30 9890 H 927.74 -0.610998 0.277349 0
M  V30 9891 H 930.284 -1.50448 1.38512 0
M  V30 9892 H 928.439 -3.83711 0.533362 0
M  V30 9893 H 928.853 -4.53569 2.63393 0
M  V30 9894 H 930.327 -5.39744 1.15672 0
M  V30 9895 H 930.804 -4.38717 -0.205839 0
M  V30 9896 H 931.41 -4.00795 1.42279 0
M  V30 9897 N 929.725 -0.817259 -1.34754 0
M  V30 9898 C 930.971 -0.412407 -1.99175 0
M  V30 9899 C 931.326 1.01192 -1.6364 0
M  V30 9900 O 930.619 1.69417 -0.894897 0
M  V30 9901 C 930.813 -0.5453 -3.53216 0
M  V30 9902 C 930.642 -1.981 -4.03716 0
M  V30 9903 C 929.412 -2.61167 -4.32574 0
M  V30 9904 C 931.61 -2.94698 -4.21494 0
M  V30 9905 N 929.592 -3.96035 -4.69073 0
M  V30 9906 C 930.963 -4.14462 -4.61109 0
M  V30 9907 C 933.018 -2.9139 -4.03728 0
M  V30 9908 C 931.721 -5.31363 -4.84815 0
M  V30 9909 C 933.747 -4.07502 -4.28598 0
M  V30 9910 C 933.109 -5.26016 -4.68494 0
M  V30 9911 H 929.208 -0.198899 -0.756282 0
M  V30 9912 H 931.792 -1.06076 -1.63266 0
M  V30 9913 H 929.963 0.073122 -3.88331 0
M  V30 9914 H 931.695 -0.113999 -4.04539 0
M  V30 9915 H 928.45 -2.12446 -4.23277 0
M  V30 9916 H 928.874 -4.65502 -4.91566 0
M  V30 9917 H 933.516 -2.00908 -3.72016 0
M  V30 9918 H 931.234 -6.22408 -5.15397 0
M  V30 9919 H 934.82 -4.06335 -4.16393 0
M  V30 9920 H 933.7 -6.14369 -4.87361 0
M  V30 9921 N 931.203 1.46865 -0.571711 0
M  V30 9922 C 932.166 2.28658 0.157499 0
M  V30 9923 C 933.166 1.37773 0.829172 0
M  V30 9924 O 934.356 1.6026 0.682811 0
M  V30 9925 C 931.488 3.17859 1.23202 0
M  V30 9926 H 932.681 2.94603 -0.561171 0
M  V30 9927 H 930.234 1.52793 -0.329229 0
M  V30 9928 H 930.969 2.56637 1.98262 0
M  V30 9929 H 930.754 3.84762 0.755031 0
M  V30 9930 H 932.244 3.7945 1.74378 0
M  V30 9931 N 932.681 0.308908 1.54543 0
M  V30 9932 C 933.958 -0.351558 1.92415 0
M  V30 9933 C 934.338 -1.71061 1.23699 0
M  V30 9934 O 933.686 -2.25394 0.3755 0
M  V30 9935 C 933.896 -0.458357 3.45977 0
M  V30 9936 C 935.244 -0.725524 4.18355 0
M  V30 9937 O 936.268 -0.541859 3.52054 0
M  V30 9938 O 935.127 -1.07884 5.35745 0
M  V30 9939 H 932.221 -0.197957 0.802958 0
M  V30 9940 H 934.767 0.357548 1.65891 0
M  V30 9941 H 933.539 0.496723 3.88134 0
M  V30 9942 H 933.162 -1.21562 3.78561 0
M  V30 9943 N 934.159 -1.57557 0.0367827 0
M  V30 9944 C 935.089 -2.13712 -0.940719 0
M  V30 9945 C 936.07 -1.05515 -1.33419 0
M  V30 9946 O 937.255 -1.33385 -1.41146 0
M  V30 9947 C 934.385 -2.67043 -2.22048 0
M  V30 9948 C 933.339 -3.80096 -1.96752 0
M  V30 9949 C 932.665 -4.19886 -3.31059 0
M  V30 9950 C 933.965 -5.05848 -1.30058 0
M  V30 9951 H 935.659 -2.9564 -0.473033 0
M  V30 9952 H 933.205 -1.42214 -0.226089 0
M  V30 9953 H 935.158 -3.04964 -2.90818 0
M  V30 9954 H 933.882 -1.82287 -2.70996 0
M  V30 9955 H 932.541 -3.42625 -1.30398 0
M  V30 9956 H 932.189 -3.32101 -3.77781 0
M  V30 9957 H 931.889 -4.96073 -3.14937 0
M  V30 9958 H 933.413 -4.60395 -4.01084 0
M  V30 9959 H 934.827 -5.41306 -1.8884 0
M  V30 9960 H 933.224 -5.87084 -1.24309 0
M  V30 9961 H 934.294 -4.84122 -0.274591 0
M  V30 9962 N 935.637 0.236453 -1.55816 0
M  V30 9963 C 936.883 0.964439 -1.784 0
M  V30 9964 C 937.216 1.84573 -0.603868 0
M  V30 9965 O 936.491 1.90395 0.397473 0
M  V30 9966 C 936.774 1.81608 -3.10951 0
M  V30 9967 C 936.627 0.962283 -4.39386 0
M  V30 9968 C 937.946 2.79665 -3.39817 0
M  V30 9969 H 935.065 0.349192 -0.649026 0
M  V30 9970 H 937.707 0.234247 -1.8855 0
M  V30 9971 H 935.857 2.43864 -3.02428 0
M  V30 9972 H 937.529 0.35762 -4.59912 0
M  V30 9973 H 935.772 0.267062 -4.32977 0
M  V30 9974 H 936.443 1.59222 -5.28538 0
M  V30 9975 H 938.919 2.27546 -3.4837 0
M  V30 9976 H 937.795 3.36367 -4.33761 0
M  V30 9977 H 938.056 3.56657 -2.61244 0
M  V30 9978 N 937.115 1.49373 0.502552 0
M  V30 9979 C 938.047 1.62045 1.62093 0
M  V30 9980 C 939.06 0.503221 1.54827 0
M  V30 9981 O 940.249 0.775208 1.60788 0
M  V30 9982 C 937.349 1.55971 3.00876 0
M  V30 9983 C 936.522 2.832 3.33341 0
M  V30 9984 C 935.581 2.702 4.51529 0
M  V30 9985 O 934.607 3.44132 4.53389 0
M  V30 9986 N 935.809 1.81642 5.5135 0
M  V30 9987 H 938.574 2.58501 1.51649 0
M  V30 9988 H 936.135 1.46442 0.690396 0
M  V30 9989 H 938.127 1.4493 3.77859 0
M  V30 9990 H 936.697 0.673795 3.05252 0
M  V30 9991 H 935.917 3.08604 2.4527 0
M  V30 9992 H 937.205 3.67551 3.51829 0
M  V30 9993 H 936.603 1.20829 5.52645 0
M  V30 9994 H 935.16 1.76524 6.27441 0
M  V30 9995 N 938.594 -0.753485 1.38421 0
M  V30 9996 C 940.005 -1.33081 1.30944 0
M  V30 9997 C 940.356 -1.96169 -0.0347124 0
M  V30 9998 O 939.481 -1.95073 -0.936768 0
M  V30 9999 C 940.076 -2.41973 2.37138 0
M  V30 10000 C 938.635 -2.95426 2.33239 0
M  V30 10001 C 937.782 -1.68808 2.19998 0
M  V30 10002 H 940.733 -0.552354 1.48777 0
M  V30 10003 H 940.754 -3.21913 2.02859 0
M  V30 10004 H 940.266 -1.96027 3.34956 0
M  V30 10005 H 938.367 -3.45701 1.39003 0
M  V30 10006 H 938.48 -3.49798 3.27381 0
M  V30 10007 H 936.844 -1.92438 1.66852 0
M  V30 10008 H 937.627 -1.24939 3.19758 0
M  V30 10009 N 940.072 -1.23292 -0.981677 0
M  V30 10010 C 941.349 -0.972514 -1.6971 0
M  V30 10011 C 941.729 0.509244 -2.04866 0
M  V30 10012 O 941.077 1.48013 -1.74082 0
M  V30 10013 C 941.287 -1.88144 -2.93943 0
M  V30 10014 C 942.635 -2.14416 -3.66485 0
M  V30 10015 O 943.659 -1.85684 -3.03974 0
M  V30 10016 O 942.518 -2.63139 -4.78978 0
M  V30 10017 H 939.612 -0.366673 -0.741269 0
M  V30 10018 H 942.158 -1.34328 -1.03701 0
M  V30 10019 H 940.93 -2.8832 -2.64551 0
M  V30 10020 H 940.553 -1.51296 -3.67689 0
M  V30 10021 N 941.55 1.18024 -1.04442 0
M  V30 10022 C 942.513 2.19992 -0.643136 0
M  V30 10023 C 943.513 1.57949 0.301444 0
M  V30 10024 O 944.703 1.73986 0.0863341 0
M  V30 10025 C 941.835 3.40853 0.0565208 0
M  V30 10026 H 943.028 2.57008 -1.54554 0
M  V30 10027 H 940.581 1.31974 -0.837408 0
M  V30 10028 H 941.316 3.09373 0.972553 0
M  V30 10029 H 941.101 3.87128 -0.622439 0
M  V30 10030 H 942.591 4.16344 0.323652 0
M  V30 10031 N 943.028 0.824394 1.34319 0
M  V30 10032 C 943.96 0.204805 2.28283 0
M  V30 10033 C 944.973 -0.606162 1.51094 0
M  V30 10034 O 946.162 -0.435602 1.73103 0
M  V30 10035 C 943.262 -0.73139 3.30914 0
M  V30 10036 C 942.435 0.0370723 4.37384 0
M  V30 10037 C 941.494 -0.820272 5.19767 0
M  V30 10038 O 940.52 -0.264721 5.68584 0
M  V30 10039 N 941.722 -2.13984 5.39621 0
M  V30 10040 H 944.487 1.0121 2.82093 0
M  V30 10041 H 942.048 0.681494 1.46858 0
M  V30 10042 H 944.04 -1.30958 3.82926 0
M  V30 10043 H 942.61 -1.43943 2.77487 0
M  V30 10044 H 941.83 0.796578 3.86068 0
M  V30 10045 H 943.118 0.566014 5.05642 0
M  V30 10046 H 942.516 -2.61492 5.01636 0
M  V30 10047 H 941.073 -2.66685 5.94746 0
M  V30 10048 N 944.506 -1.46559 0.579492 0
M  V30 10049 C 945.783 -1.956 -0.00287136 0
M  V30 10050 C 946.163 -1.52215 -1.46266 0
M  V30 10051 O 945.511 -0.771335 -2.15088 0
M  V30 10052 C 945.721 -3.48606 0.165824 0
M  V30 10053 C 947.069 -4.24588 0.0319807 0
M  V30 10054 O 948.093 -3.56075 0.094496 0
M  V30 10055 O 946.952 -5.46396 -0.106386 0
M  V30 10056 H 944.046 -0.825387 -0.0516274 0
M  V30 10057 H 946.592 -1.56858 0.647584 0
M  V30 10058 H 945.364 -3.7306 1.18076 0
M  V30 10059 H 944.987 -3.94169 -0.521212 0
M  V30 10060 N 945.984 -0.3171 -1.54377 0
M  V30 10061 C 947.233 0.288271 -1.99629 0
M  V30 10062 C 947.546 1.53754 -1.2091 0
M  V30 10063 O 948.752 2.2185 -1.56508 0
M  V30 10064 C 947.208 0.564188 -3.5545 0
M  V30 10065 C 946.816 -0.667659 -4.42997 0
M  V30 10066 C 948.56 1.12987 -4.09187 0
M  V30 10067 C 946.467 -0.364003 -5.90279 0
M  V30 10068 H 945.397 0.111492 -0.745711 0
M  V30 10069 H 948.048 -0.428317 -1.78431 0
M  V30 10070 H 946.43 1.34079 -3.72611 0
M  V30 10071 H 947.604 -1.44335 -4.37612 0
M  V30 10072 H 945.919 -1.1531 -4.00116 0
M  V30 10073 H 948.516 1.37157 -5.1681 0
M  V30 10074 H 948.859 2.07722 -3.60773 0
M  V30 10075 H 949.392 0.414595 -3.95634 0
M  V30 10076 H 946.131 -1.28035 -6.42874 0
M  V30 10077 H 945.651 0.374102 -5.98632 0
M  V30 10078 H 947.33 0.0285433 -6.46994 0
M  V30 10079 N 947.462 1.57535 -0.0451378 0
M  V30 10080 C 948.392 2.14208 0.929372 0
M  V30 10081 C 949.373 1.06221 1.32858 0
M  V30 10082 O 950.558 1.34132 1.40436 0
M  V30 10083 C 947.688 2.68217 2.20629 0
M  V30 10084 C 946.642 3.81134 1.94734 0
M  V30 10085 C 945.968 4.21636 3.28828 0
M  V30 10086 C 947.268 5.06531 1.27374 0
M  V30 10087 H 948.962 2.95886 0.457348 0
M  V30 10088 H 946.508 1.42332 0.218544 0
M  V30 10089 H 948.461 3.06502 2.89196 0
M  V30 10090 H 947.185 1.83722 2.70026 0
M  V30 10091 H 945.844 3.43312 1.28579 0
M  V30 10092 H 945.492 3.34099 3.76014 0
M  V30 10093 H 945.192 4.97736 3.12302 0
M  V30 10094 H 946.716 4.62516 3.98637 0
M  V30 10095 H 948.13 5.423 1.85967 0
M  V30 10096 H 946.527 5.87735 1.21194 0
M  V30 10097 H 947.597 4.84261 0.248913 0
M  V30 10098 N 948.94 -0.228186 1.55939 0
M  V30 10099 C 950.217 -0.977492 1.69424 0
M  V30 10100 C 950.597 -2.02674 0.590479 0
M  V30 10101 O 949.945 -2.2491 -0.403467 0
M  V30 10102 C 950.155 -1.59394 3.10475 0
M  V30 10103 C 951.503 -2.08871 3.69673 0
M  V30 10104 O 952.527 -1.693 3.13394 0
M  V30 10105 O 951.386 -2.81584 4.68372 0
M  V30 10106 H 948.48 -0.456185 0.6898 0
M  V30 10107 H 951.026 -0.220492 1.68261 0
M  V30 10108 H 949.798 -0.835971 3.82266 0
M  V30 10109 H 949.421 -2.41665 3.15727 0
M  V30 10110 N 950.418 -1.49637 -0.494624 0
M  V30 10111 C 951.646 -1.63164 -1.2722 0
M  V30 10112 C 952.061 -0.305552 -1.86311 0
M  V30 10113 O 951.418 0.709758 -1.68133 0
M  V30 10114 C 951.469 -2.70524 -2.39789 0
M  V30 10115 O 951.19 -3.97991 -1.83126 0
M  V30 10116 C 952.691 -2.94814 -3.31058 0
M  V30 10117 H 949.911 -0.54912 -0.385627 0
M  V30 10118 H 952.455 -1.95711 -0.593081 0
M  V30 10119 H 950.61 -2.40738 -3.03519 0
M  V30 10120 H 951.024 -4.57179 -2.57075 0
M  V30 10121 H 952.498 -3.73653 -4.06309 0
M  V30 10122 H 952.975 -2.04974 -3.88436 0
M  V30 10123 H 953.581 -3.26042 -2.73088 0
M  V30 10124 N 951.896 0.746133 -1.38819 0
M  V30 10125 C 952.826 1.87344 -1.39372 0
M  V30 10126 C 953.807 1.68123 -0.258583 0
M  V30 10127 O 954.992 1.88606 -0.462769 0
M  V30 10128 C 952.122 3.24962 -1.22543 0
M  V30 10129 C 951.076 3.58799 -2.33339 0
M  V30 10130 C 950.402 4.95235 -2.01609 0
M  V30 10131 C 951.702 3.62911 -3.75624 0
M  V30 10132 H 953.396 1.87138 -2.33709 0
M  V30 10133 H 950.942 0.898937 -1.12495 0
M  V30 10134 H 952.895 4.03488 -1.21554 0
M  V30 10135 H 951.619 3.25667 -0.246707 0
M  V30 10136 H 950.278 2.82596 -2.33527 0
M  V30 10137 H 949.926 4.92508 -1.02202 0
M  V30 10138 H 949.626 5.18843 -2.75819 0
M  V30 10139 H 951.15 5.76131 -2.02251 0
M  V30 10140 H 952.564 4.31535 -3.77426 0
M  V30 10141 H 950.961 3.98031 -4.491 0
M  V30 10142 H 952.031 2.62967 -4.07402 0
M  V30 10143 N 953.375 1.23811 0.975125 0
M  V30 10144 C 954.285 1.0408 2.10249 0
M  V30 10145 C 955.301 -0.0162404 1.73992 0
M  V30 10146 O 956.477 0.180346 2.00591 0
M  V30 10147 C 953.542 0.640013 3.40741 0
M  V30 10148 C 952.603 1.7727 3.90991 0
M  V30 10149 C 951.836 1.39094 5.15256 0
M  V30 10150 O 952.059 0.277483 5.69725 0
M  V30 10151 O 950.993 2.21392 5.59704 0
M  V30 10152 H 954.819 1.98575 2.29786 0
M  V30 10153 H 952.404 1.02563 1.08633 0
M  V30 10154 H 954.286 0.427684 4.19224 0
M  V30 10155 H 952.961 -0.27589 3.22522 0
M  V30 10156 H 951.868 2.03971 3.13602 0
M  V30 10157 H 953.201 2.66711 4.13674 0
M  V30 10158 N 954.853 -1.17469 1.05066 0
M  V30 10159 C 956.13 -1.83625 0.673872 0
M  V30 10160 C 956.51 -1.93412 -0.845871 0
M  V30 10161 O 955.858 -1.4677 -1.75131 0
M  V30 10162 C 956.068 -3.21352 1.36139 0
M  V30 10163 C 957.416 -3.97274 1.49863 0
M  V30 10164 O 958.44 -3.30827 1.3203 0
M  V30 10165 O 957.299 -5.16349 1.79013 0
M  V30 10166 H 954.393 -0.792297 0.237055 0
M  V30 10167 H 956.939 -1.24776 1.15017 0
M  V30 10168 H 955.711 -3.0919 2.39827 0
M  V30 10169 H 955.334 -3.87867 0.874364 0
M  V30 10170 N 956.331 -0.831506 -1.3388 0
M  V30 10171 C 957.279 -0.247896 -2.31275 0
M  V30 10172 C 958.273 0.616083 -1.578 0
M  V30 10173 O 959.479 0.506465 -1.72728 0
M  V30 10174 H 955.854 -0.0614293 -0.749487 0
M  V30 10175 H 957.825 -1.08401 -2.78014 0
M  V30 10176 C 956.574 0.568434 -3.43022 0
M  V30 10177 H 955.897 -0.0870654 -3.99705 0
M  V30 10178 H 957.337 0.942751 -4.13386 0
M  V30 10179 C 955.796 1.74431 -2.88228 0
M  V30 10180 O 956.326 2.84278 -2.83811 0
M  V30 10181 N 954.532 1.56382 -2.44935 0
M  V30 10182 H 954.079 0.670255 -2.48727 0
M  V30 10183 H 954.037 2.35208 -2.08625 0
M  V30 10184 N 957.809 1.4625 -0.587256 0
M  V30 10185 C 959.225 1.57641 -0.249284 0
M  V30 10186 C 959.425 1.58169 1.24839 0
M  V30 10187 O 958.481 1.50109 2.03036 0
M  V30 10188 C 959.794 2.86837 -0.902509 0
M  V30 10189 C 961.342 3.00476 -0.876524 0
M  V30 10190 C 961.817 4.32414 -1.50938 0
M  V30 10191 N 963.308 4.39124 -1.47392 0
M  V30 10192 C 964.043 5.39838 -1.93293 0
M  V30 10193 N 963.539 6.47202 -2.47188 0
M  V30 10194 N 965.332 5.31068 -1.84183 0
M  V30 10195 H 957.483 1.44151 -1.55994 0
M  V30 10196 H 959.746 0.687905 -0.652297 0
M  V30 10197 H 959.452 2.92274 -1.95624 0
M  V30 10198 H 959.326 3.74927 -0.413466 0
M  V30 10199 H 961.713 2.94618 0.168601 0
M  V30 10200 H 961.794 2.1385 -1.40363 0
M  V30 10201 H 961.438 4.3903 -2.55372 0
M  V30 10202 H 961.368 5.17823 -0.957455 0
M  V30 10203 H 963.859 3.62138 -1.08002 0
M  V30 10204 H 964.172 7.20269 -2.80058 0
M  V30 10205 H 962.517 6.48009 -2.51216 0
M  V30 10206 H 965.708 4.46095 -1.41833 0
M  V30 10207 H 965.881 6.09414 -2.2027 0
M  V30 10208 N 959.287 0.325282 1.54207 0
M  V30 10209 C 960.235 -0.5554 2.25872 0
M  V30 10210 C 961.229 -1.11714 1.27344 0
M  V30 10211 O 962.435 -1.06498 1.45115 0
M  V30 10212 H 958.81 -0.19776 0.725531 0
M  V30 10213 H 960.781 0.0712858 2.98315 0
M  V30 10214 C 959.53 -1.70379 3.03095 0
M  V30 10215 H 958.853 -1.2808 3.78729 0
M  V30 10216 H 960.293 -2.29556 3.56483 0
M  V30 10217 C 958.752 -2.62242 2.11496 0
M  V30 10218 O 959.282 -3.64003 1.69895 0
M  V30 10219 N 957.488 -2.30515 1.7695 0
M  V30 10220 H 957.035 -1.47805 2.10978 0
M  V30 10221 H 956.993 -2.92241 1.15942 0
M  V30 10222 N 960.765 -1.57509 0.0534917 0
M  V30 10223 C 962.011 -1.93887 -0.614776 0
M  V30 10224 C 962.366 -0.932098 -1.68314 0
M  V30 10225 O 961.659 0.0483848 -1.91539 0
M  V30 10226 C 961.853 -3.34734 -1.25251 0
M  V30 10227 C 961.682 -4.49019 -0.247444 0
M  V30 10228 C 960.452 -5.05042 0.161406 0
M  V30 10229 C 962.65 -5.11784 0.508059 0
M  V30 10230 N 960.632 -6.02858 1.15909 0
M  V30 10231 C 962.003 -6.04928 1.35876 0
M  V30 10232 C 964.058 -4.94671 0.56612 0
M  V30 10233 C 962.761 -6.82797 2.26232 0
M  V30 10234 C 964.787 -5.73168 1.45712 0
M  V30 10235 C 964.149 -6.65946 2.29554 0
M  V30 10236 H 960.248 -0.756899 -0.196538 0
M  V30 10237 H 962.832 -1.94289 0.126365 0
M  V30 10238 H 961.003 -3.35104 -1.96367 0
M  V30 10239 H 962.735 -3.58395 -1.87977 0
M  V30 10240 H 959.49 -4.73098 -0.218025 0
M  V30 10241 H 959.914 -6.56462 1.6549 0
M  V30 10242 H 964.556 -4.22746 -0.0678652 0
M  V30 10243 H 962.274 -7.54012 2.90675 0
M  V30 10244 H 965.86 -5.61953 1.50664 0
M  V30 10245 H 964.74 -7.25627 2.97381 0
M  V30 10246 N 962.243 0.219913 -1.56058 0
M  V30 10247 C 963.473 0.959521 -1.82967 0
M  V30 10248 C 963.881 1.78382 -0.630602 0
M  V30 10249 O 963.224 1.79062 0.410203 0
M  V30 10250 C 963.286 1.92481 -3.0363 0
M  V30 10251 C 962.95 1.28487 -4.38566 0
M  V30 10252 C 963.947 0.673946 -5.15513 0
M  V30 10253 C 961.632 1.29615 -4.85289 0
M  V30 10254 C 963.626 0.0828324 -6.37346 0
M  V30 10255 C 961.313 0.701191 -6.07064 0
M  V30 10256 C 962.311 0.0955877 -6.82933 0
M  V30 10257 O 961.999 -0.490109 -8.02405 0
M  V30 10258 H 961.731 0.286709 -0.612188 0
M  V30 10259 H 964.285 0.239761 -2.03996 0
M  V30 10260 H 962.515 2.6836 -2.78424 0
M  V30 10261 H 964.204 2.5301 -3.17397 0
M  V30 10262 H 964.97 0.657548 -4.80522 0
M  V30 10263 H 960.849 1.75691 -4.26208 0
M  V30 10264 H 964.393 -0.390482 -6.96506 0
M  V30 10265 H 960.29 0.715007 -6.41528 0
M  V30 10266 H 961.058 -0.384588 -8.17596 0
M  V30 10267 N 963.721 1.49897 0.486681 0
M  V30 10268 C 964.653 1.63755 1.60365 0
M  V30 10269 C 965.666 0.519614 1.54285 0
M  V30 10270 O 966.855 0.792219 1.59957 0
M  V30 10271 C 963.955 1.59153 2.99205 0
M  V30 10272 C 963.128 2.8672 3.30319 0
M  V30 10273 C 962.187 2.74974 4.48638 0
M  V30 10274 O 961.213 3.48922 4.49714 0
M  V30 10275 N 962.415 1.87479 5.49392 0
M  V30 10276 H 965.18 2.60094 1.48899 0
M  V30 10277 H 962.741 1.47166 0.674825 0
M  V30 10278 H 964.733 1.4893 3.76301 0
M  V30 10279 H 963.303 0.706133 3.0452 0
M  V30 10280 H 962.523 3.11188 2.41983 0
M  V30 10281 H 963.811 3.71262 3.47911 0
M  V30 10282 H 963.209 1.26684 5.51333 0
M  V30 10283 H 961.766 1.83169 6.25534 0
M  V30 10284 N 965.199 -0.738761 1.39212 0
M  V30 10285 C 966.424 -1.5331 1.39681 0
M  V30 10286 C 966.849 -1.88098 -0.00768715 0
M  V30 10287 O 966.207 -1.51642 -0.993699 0
M  V30 10288 C 966.255 -2.79958 2.27279 0
M  V30 10289 O 965.359 -3.75727 1.70008 0
M  V30 10290 H 964.7 -0.463131 0.475821 0
M  V30 10291 H 967.23 -0.911768 1.83161 0
M  V30 10292 H 967.24 -3.28732 2.41659 0
M  V30 10293 H 965.915 -2.5397 3.29351 0
M  V30 10294 H 964.492 -3.34483 1.64851 0
M  V30 10295 N 966.677 -1.24326 -0.968545 0
M  V30 10296 C 967.61 -0.978121 -2.06175 0
M  V30 10297 C 968.588 0.0878107 -1.62363 0
M  V30 10298 O 969.772 -0.0489472 -1.88436 0
M  V30 10299 C 966.899 -0.475884 -3.3534 0
M  V30 10300 C 965.945 -1.53023 -3.98103 0
M  V30 10301 S 966.778 -3.11131 -4.35841 0
M  V30 10302 C 967.934 -2.62608 -5.68144 0
M  V30 10303 H 968.167 -1.9038 -2.28348 0
M  V30 10304 H 965.7 -1.07701 -1.10633 0
M  V30 10305 H 967.658 -0.192739 -4.10047 0
M  V30 10306 H 966.319 0.429067 -3.11156 0
M  V30 10307 H 965.512 -1.12922 -4.91187 0
M  V30 10308 H 965.114 -1.76334 -3.29822 0
M  V30 10309 H 967.406 -2.05367 -6.45624 0
M  V30 10310 H 968.349 -3.54277 -6.13101 0
M  V30 10311 H 968.757 -2.03063 -5.26712 0
M  V30 10312 N 968.156 1.1691 -1.05688 0
M  V30 10313 C 969.405 1.86629 -0.765022 0
M  V30 10314 C 969.718 1.82223 0.710918 0
M  V30 10315 O 970.924 2.47462 1.11691 0
M  V30 10316 C 969.38 3.34886 -1.3183 0
M  V30 10317 C 968.988 3.47781 -2.82404 0
M  V30 10318 C 970.732 4.099 -1.10372 0
M  V30 10319 C 968.639 4.9009 -3.31008 0
M  V30 10320 H 967.569 0.699082 -0.282491 0
M  V30 10321 H 970.22 1.31989 -1.27481 0
M  V30 10322 H 968.602 3.89094 -0.736312 0
M  V30 10323 H 969.776 3.03765 -3.46502 0
M  V30 10324 H 968.091 2.86193 -3.02461 0
M  V30 10325 H 970.688 5.14894 -1.4418 0
M  V30 10326 H 971.031 4.16279 -0.0417372 0
M  V30 10327 H 971.564 3.61913 -1.65117 0
M  V30 10328 H 968.303 4.88887 -4.36657 0
M  V30 10329 H 967.823 5.34756 -2.71655 0
M  V30 10330 H 969.502 5.58881 -3.25977 0
M  V30 10331 N 969.634 0.838594 1.33437 0
M  V30 10332 C 971.045 0.490934 1.8013 0
M  V30 10333 C 971.396 -0.990024 1.6939 0
M  V30 10334 O 970.521 -1.77139 1.24302 0
M  V30 10335 C 971.116 0.884347 3.27055 0
M  V30 10336 C 969.675 0.588829 3.71766 0
M  V30 10337 C 968.822 1.09282 2.54858 0
M  V30 10338 H 971.773 1.02732 1.20962 0
M  V30 10339 H 971.794 0.194283 3.80004 0
M  V30 10340 H 971.306 1.96225 3.34839 0
M  V30 10341 H 969.407 -0.479018 3.69508 0
M  V30 10342 H 969.52 1.14387 4.65245 0
M  V30 10343 H 967.884 0.513702 2.49466 0
M  V30 10344 H 968.667 2.1775 2.65405 0
M  V30 10345 N 971.112 -1.45937 0.595003 0
M  V30 10346 C 972.044 -2.28575 -0.169137 0
M  V30 10347 C 973.057 -1.39226 -0.843792 0
M  V30 10348 O 974.246 -1.63716 -0.711291 0
M  V30 10349 C 971.346 -3.14616 -1.25976 0
M  V30 10350 C 970.519 -4.32166 -0.67466 0
M  V30 10351 C 969.578 -4.99511 -1.65456 0
M  V30 10352 O 968.604 -5.56712 -1.18578 0
M  V30 10353 N 969.806 -4.97643 -2.98885 0
M  V30 10354 H 972.571 -2.94797 0.539908 0
M  V30 10355 H 970.132 -1.55985 0.433614 0
M  V30 10356 H 972.124 -3.56534 -1.91483 0
M  V30 10357 H 970.694 -2.50387 -1.8715 0
M  V30 10358 H 969.914 -3.93882 0.158184 0
M  V30 10359 H 971.202 -5.08116 -0.263753 0
M  V30 10360 H 970.6 -4.52438 -3.39583 0
M  V30 10361 H 969.157 -5.43463 -3.59848 0
M  V30 10362 N 972.59 -0.333456 -1.54032 0
M  V30 10363 C 973.815 0.270517 -2.05628 0
M  V30 10364 C 974.24 1.44231 -1.20744 0
M  V30 10365 O 973.598 1.79975 -0.218822 0
M  V30 10366 C 973.646 0.673251 -3.54259 0
M  V30 10367 O 972.75 1.77448 -3.72271 0
M  V30 10368 H 972.091 0.0469753 -0.662336 0
M  V30 10369 H 974.621 -0.484739 -1.98775 0
M  V30 10370 H 974.631 0.953194 -3.96709 0
M  V30 10371 H 973.306 -0.183747 -4.15494 0
M  V30 10372 H 971.883 1.49259 -3.41725 0
M  V30 10373 N 974.068 1.57479 -0.061844 0
M  V30 10374 C 975.479 1.80627 0.472295 0
M  V30 10375 C 975.83 0.97496 1.70261 0
M  V30 10376 O 974.955 0.1946 2.15523 0
M  V30 10377 C 975.55 3.27608 0.863616 0
M  V30 10378 C 974.109 3.51638 1.34267 0
M  V30 10379 C 973.256 2.75412 0.323009 0
M  V30 10380 H 976.207 1.56072 -0.287634 0
M  V30 10381 H 976.228 3.39113 1.72577 0
M  V30 10382 H 975.74 3.88087 -0.0320226 0
M  V30 10383 H 973.841 2.96452 2.25714 0
M  V30 10384 H 973.954 4.60342 1.32747 0
M  V30 10385 H 972.318 2.4187 0.798175 0
M  V30 10386 H 973.101 3.38623 -0.564729 0
M  V30 10387 N 975.546 -0.211634 1.56173 0
M  V30 10388 C 976.771 -0.955324 1.84088 0
M  V30 10389 C 977.196 -1.76754 0.643407 0
M  V30 10390 O 976.554 -1.76653 -0.407842 0
M  V30 10391 C 976.602 -1.84063 3.10085 0
M  V30 10392 O 975.706 -2.9373 2.89476 0
M  V30 10393 H 975.047 -0.26996 0.606645 0
M  V30 10394 H 977.577 -0.221947 2.03393 0
M  V30 10395 H 977.587 -2.24852 3.40449 0
M  V30 10396 H 976.262 -1.24373 3.96868 0
M  V30 10397 H 974.839 -2.56816 2.7037 0
M  V30 10398 N 977.024 -1.50153 -0.478725 0
M  V30 10399 C 978.435 -1.53706 -1.05978 0
M  V30 10400 C 978.786 -0.336112 -1.933 0
M  V30 10401 O 977.911 0.551803 -2.09246 0
M  V30 10402 C 978.506 -2.78541 -1.92874 0
M  V30 10403 C 977.065 -2.848 -2.46102 0
M  V30 10404 C 976.212 -2.47902 -1.24257 0
M  V30 10405 H 979.163 -1.56528 -0.261664 0
M  V30 10406 H 979.184 -2.59964 -2.77847 0
M  V30 10407 H 978.696 -3.6593 -1.29293 0
M  V30 10408 H 976.797 -2.01744 -3.13257 0
M  V30 10409 H 976.91 -3.87511 -2.81731 0
M  V30 10410 H 975.274 -2.0017 -1.57493 0
M  V30 10411 H 976.057 -3.3759 -0.62351 0
M  V30 10412 N 978.502 0.731368 -1.39602 0
M  V30 10413 C 979.913 1.30981 -1.33045 0
M  V30 10414 C 980.264 1.962 0.00349918 0
M  V30 10415 O 979.389 1.96539 0.905615 0
M  V30 10416 C 979.984 2.3817 -2.40958 0
M  V30 10417 C 978.543 2.91678 -2.3791 0
M  V30 10418 C 977.69 1.65286 -2.22656 0
M  V30 10419 H 980.641 0.528615 -1.49637 0
M  V30 10420 H 980.662 3.18645 -2.07955 0
M  V30 10421 H 980.174 1.90673 -3.38032 0
M  V30 10422 H 978.275 3.43446 -1.44485 0
M  V30 10423 H 978.388 3.44545 -3.32904 0
M  V30 10424 H 976.752 1.89759 -1.69893 0
M  V30 10425 H 977.535 1.19836 -3.21705 0
M  V30 10426 N 979.98 1.24838 0.961938 0
M  V30 10427 C 980.91 1.07053 2.07514 0
M  V30 10428 C 981.891 -0.0182465 1.7009 0
M  V30 10429 O 983.076 0.149915 1.9362 0
M  V30 10430 C 980.206 0.680693 3.40564 0
M  V30 10431 C 979.16 1.71889 3.91967 0
M  V30 10432 C 978.486 1.18395 5.21428 0
M  V30 10433 C 979.786 3.1161 4.19161 0
M  V30 10434 H 981.48 2.00167 2.22651 0
M  V30 10435 H 979.026 0.963799 1.0699 0
M  V30 10436 H 980.979 0.54324 4.17884 0
M  V30 10437 H 979.703 -0.28615 3.25344 0
M  V30 10438 H 978.362 1.84465 3.16809 0
M  V30 10439 H 978.01 0.207543 5.02572 0
M  V30 10440 H 977.71 1.87778 5.56788 0
M  V30 10441 H 979.234 1.05873 6.01351 0
M  V30 10442 H 980.648 3.0223 4.87165 0
M  V30 10443 H 979.045 3.78398 4.65763 0
M  V30 10444 H 980.115 3.59218 3.25715 0
M  V30 10445 N 981.458 -1.16348 1.06306 0
M  V30 10446 C 982.735 -1.829 0.69331 0
M  V30 10447 C 983.115 -1.94298 -0.82531 0
M  V30 10448 O 982.463 -1.48619 -1.73565 0
M  V30 10449 C 982.673 -3.1989 1.3954 0
M  V30 10450 C 984.021 -3.95662 1.54068 0
M  V30 10451 O 985.045 -3.29408 1.35532 0
M  V30 10452 O 983.904 -5.14422 1.84479 0
M  V30 10453 H 980.998 -0.789738 0.245445 0
M  V30 10454 H 983.544 -1.23549 1.16334 0
M  V30 10455 H 982.316 -3.06629 2.43093 0
M  V30 10456 H 981.939 -3.86918 0.915453 0
M  V30 10457 N 982.937 -0.845659 -1.3299 0
M  V30 10458 C 983.847 -0.2864 -2.32845 0
M  V30 10459 C 984.863 0.591105 -1.63652 0
M  V30 10460 O 986.039 0.493615 -1.95257 0
M  V30 10461 C 983.104 0.523636 -3.42723 0
M  V30 10462 C 982.165 -0.378945 -4.27624 0
M  V30 10463 C 981.398 0.392526 -5.32255 0
M  V30 10464 O 981.621 1.6235 -5.46808 0
M  V30 10465 O 980.555 -0.237 -6.01433 0
M  V30 10466 H 984.381 -1.11346 -2.82552 0
M  V30 10467 H 981.966 -0.608356 -1.36453 0
M  V30 10468 H 983.848 0.983718 -4.09757 0
M  V30 10469 H 982.523 1.32764 -2.95221 0
M  V30 10470 H 981.43 -0.887012 -3.63432 0
M  V30 10471 H 982.763 -1.1479 -4.78627 0
M  V30 10472 N 984.415 1.45619 -0.602734 0
M  V30 10473 C 985.347 2.28662 0.157012 0
M  V30 10474 C 986.36 1.39672 0.836396 0
M  V30 10475 O 987.549 1.64091 0.702599 0
M  V30 10476 C 984.649 3.1528 1.24306 0
M  V30 10477 C 983.822 4.32517 0.651731 0
M  V30 10478 C 982.881 5.00381 1.62804 0
M  V30 10479 O 981.907 5.57333 1.15624 0
M  V30 10480 N 983.109 4.99221 2.96241 0
M  V30 10481 H 985.874 2.94506 -0.555535 0
M  V30 10482 H 983.435 1.55753 -0.441881 0
M  V30 10483 H 985.427 3.57544 1.8959 0
M  V30 10484 H 983.997 2.51376 1.85819 0
M  V30 10485 H 983.217 3.93793 -0.17907 0
M  V30 10486 H 984.505 5.08249 0.236802 0
M  V30 10487 H 983.903 4.54232 3.37179 0
M  V30 10488 H 982.46 5.45364 3.56961 0
M  V30 10489 N 985.893 0.34162 1.53853 0
M  V30 10490 C 986.841 -0.531412 2.26448 0
M  V30 10491 C 987.835 -1.10357 1.28521 0
M  V30 10492 O 989.041 -1.04953 1.46236 0
M  V30 10493 H 985.416 -0.190054 0.727588 0
M  V30 10494 H 987.387 0.102922 2.98222 0
M  V30 10495 C 986.136 -1.67154 3.04885 0
M  V30 10496 H 985.459 -1.24055 3.80066 0
M  V30 10497 H 986.899 -2.25762 3.58898 0
M  V30 10498 C 985.358 -2.59984 2.14266 0
M  V30 10499 O 985.888 -3.62181 1.73746 0
M  V30 10500 N 984.094 -2.28625 1.79385 0
M  V30 10501 H 983.641 -1.45559 2.12533 0
M  V30 10502 H 983.599 -2.90995 1.19035 0
M  V30 10503 N 987.371 -1.57444 0.0701946 0
M  V30 10504 C 988.787 -1.57009 -0.286431 0
M  V30 10505 C 988.987 -1.07946 -1.70147 0
M  V30 10506 O 988.043 -0.744622 -2.41271 0
M  V30 10507 C 989.356 -3.00542 -0.0975466 0
M  V30 10508 C 990.904 -3.12553 -0.167205 0
M  V30 10509 C 991.379 -4.58 -0.00662047 0
M  V30 10510 N 992.87 -4.63158 -0.0622778 0
M  V30 10511 C 993.605 -5.73388 0.0375831 0
M  V30 10512 N 993.101 -6.92537 0.190873 0
M  V30 10513 N 994.894 -5.62097 -0.0193672 0
M  V30 10514 H 987.045 -1.87651 0.995023 0
M  V30 10515 H 989.308 -0.865006 0.387902 0
M  V30 10516 H 989.014 -3.40543 0.878822 0
M  V30 10517 H 988.888 -3.67485 -0.850547 0
M  V30 10518 H 991.275 -2.72439 -1.13406 0
M  V30 10519 H 991.356 -2.48251 0.616871 0
M  V30 10520 H 991 -4.98803 0.956992 0
M  V30 10521 H 990.93 -5.20332 -0.810081 0
M  V30 10522 H 993.421 -3.77475 -0.179229 0
M  V30 10523 H 993.734 -7.72365 0.25926 0
M  V30 10524 H 992.079 -6.94632 0.226214 0
M  V30 10525 H 995.27 -4.67897 -0.137815 0
M  V30 10526 H 995.443 -6.4797 0.0619121 0
M  V30 10527 N 988.849 0.203349 -1.56283 0
M  V30 10528 C 990.126 0.950415 -1.70958 0
M  V30 10529 C 990.506 2.01708 -0.622647 0
M  V30 10530 O 989.854 2.25523 0.367635 0
M  V30 10531 C 990.064 1.54434 -3.12971 0
M  V30 10532 C 991.412 2.02964 -3.72949 0
M  V30 10533 O 992.436 1.64293 -3.16048 0
M  V30 10534 O 991.295 2.74097 -4.72793 0
M  V30 10535 H 988.389 0.445154 -0.69697 0
M  V30 10536 H 990.935 0.193695 -1.68591 0
M  V30 10537 H 989.707 0.77505 -3.83547 0
M  V30 10538 H 989.33 2.36611 -3.19532 0
M  V30 10539 N 990.327 1.50405 0.470755 0
M  V30 10540 C 991.567 1.63049 1.23266 0
M  V30 10541 C 991.931 0.323815 1.8925 0
M  V30 10542 O 993.132 0.325692 2.6682 0
M  V30 10543 C 991.403 2.7783 2.24823 0
M  V30 10544 S 992.962 3.10609 3.09948 0
M  V30 10545 H 989.78 0.574787 0.418499 0
M  V30 10546 H 992.382 1.8819 0.529619 0
M  V30 10547 H 991.086 3.71252 1.74929 0
M  V30 10548 H 990.617 2.54776 2.99755 0
M  V30 10549 H 992.632 2.5446 4.25987 0
M  V30 10550 N 991.805 -0.723954 1.39988 0
M  V30 10551 C 992.737 -1.84859 1.35498 0
M  V30 10552 C 993.75 -1.60681 0.261812 0
M  V30 10553 O 994.939 -1.7071 0.521566 0
M  V30 10554 C 992.039 -3.21103 1.08381 0
M  V30 10555 C 991.212 -3.72546 2.2919 0
M  V30 10556 C 990.271 -4.8738 1.9836 0
M  V30 10557 O 989.297 -5.00467 2.71149 0
M  V30 10558 N 990.499 -5.72566 0.956461 0
M  V30 10559 H 993.264 -1.89212 2.3242 0
M  V30 10560 H 990.825 -0.905152 1.34233 0
M  V30 10561 H 992.817 -3.9551 0.857564 0
M  V30 10562 H 991.387 -3.1195 0.201549 0
M  V30 10563 H 990.607 -2.89365 2.67697 0
M  V30 10564 H 991.895 -4.03652 3.09746 0
M  V30 10565 H 991.293 -5.64595 0.353444 0
M  V30 10566 H 989.85 -6.46993 0.790118 0
M  V30 10567 N 993.283 -1.25346 -0.955304 0
M  V30 10568 C 994.531 -1.09837 -1.69647 0
M  V30 10569 C 994.852 0.361425 -1.91621 0
M  V30 10570 O 994.122 1.25666 -1.50283 0
M  V30 10571 H 992.702 -0.403467 -0.628668 0
M  V30 10572 H 995.364 -1.57459 -1.14859 0
M  V30 10573 H 994.46 -1.60616 -2.67598 0
M  V30 10574 N 994.761 1.15782 -1.06922 0
M  V30 10575 C 995.691 2.22538 -0.707045 0
M  V30 10576 C 996.672 1.67371 0.303471 0
M  V30 10577 O 997.857 1.9339 0.177189 0
M  V30 10578 C 994.987 3.47158 -0.0994269 0
M  V30 10579 C 993.941 4.15257 -1.03661 0
M  V30 10580 C 993.267 5.33902 -0.291974 0
M  V30 10581 C 994.567 4.65516 -2.36837 0
M  V30 10582 H 996.261 2.53089 -1.59958 0
M  V30 10583 H 993.807 1.21649 -0.770552 0
M  V30 10584 H 995.76 4.21073 0.165852 0
M  V30 10585 H 994.484 3.15926 0.828155 0
M  V30 10586 H 993.143 3.43276 -1.28674 0
M  V30 10587 H 992.791 4.98926 0.638928 0
M  V30 10588 H 992.491 5.80407 -0.916613 0
M  V30 10589 H 994.015 6.1059 -0.0343915 0
M  V30 10590 H 995.429 5.30981 -2.16175 0
M  V30 10591 H 993.826 5.22666 -2.94856 0
M  V30 10592 H 994.896 3.81387 -2.99453 0
M  V30 10593 N 996.239 0.8527 1.3254 0
M  V30 10594 C 997.172 0.240733 2.26927 0
M  V30 10595 C 998.15 -0.620158 1.50309 0
M  V30 10596 O 999.334 -0.577389 1.79439 0
M  V30 10597 C 996.461 -0.660644 3.32195 0
M  V30 10598 C 995.507 0.126604 4.26312 0
M  V30 10599 S 996.34 1.49372 5.14245 0
M  V30 10600 C 997.496 0.598002 6.23037 0
M  V30 10601 H 997.729 1.04088 2.78483 0
M  V30 10602 H 995.262 0.650222 1.40041 0
M  V30 10603 H 997.22 -1.17506 3.93323 0
M  V30 10604 H 995.881 -1.43458 2.79426 0
M  V30 10605 H 995.074 -0.559851 5.00881 0
M  V30 10606 H 994.676 0.572536 3.69592 0
M  V30 10607 H 996.968 -0.198555 6.77209 0
M  V30 10608 H 997.911 1.31428 6.95796 0
M  V30 10609 H 998.319 0.173211 5.64234 0
M  V30 10610 N 997.718 -1.45297 0.610449 0
M  V30 10611 C 998.628 -2.34349 -0.108475 0
M  V30 10612 C 999.644 -1.51409 -0.857397 0
M  V30 10613 O 1000.82 -1.84202 -0.814337 0
M  V30 10614 C 997.885 -3.29072 -1.09144 0
M  V30 10615 C 996.946 -4.27918 -0.344165 0
M  V30 10616 C 996.179 -5.18116 -1.28031 0
M  V30 10617 O 996.402 -5.11802 -2.51824 0
M  V30 10618 O 995.336 -5.96879 -0.775821 0
M  V30 10619 H 999.162 -2.97232 0.623421 0
M  V30 10620 H 996.747 -1.44728 0.3707 0
M  V30 10621 H 998.629 -3.87433 -1.65751 0
M  V30 10622 H 997.304 -2.68749 -1.80431 0
M  V30 10623 H 996.211 -3.73164 0.264437 0
M  V30 10624 H 997.544 -4.91104 0.328275 0
M  V30 10625 N 999.196 -0.349774 -1.5367 0
M  V30 10626 C 1000.14 0.504121 -2.25227 0
M  V30 10627 C 1001.11 1.09048 -1.2529 0
M  V30 10628 O 1002.3 1.12594 -1.54037 0
M  V30 10629 C 999.438 1.64601 -3.03316 0
M  V30 10630 C 998.551 1.08635 -4.18118 0
M  V30 10631 C 997.686 2.19605 -4.83681 0
M  V30 10632 C 996.725 1.61023 -5.90541 0
M  V30 10633 N 995.862 2.6576 -6.49858 0
M  V30 10634 H 1000.7 -0.112621 -2.97787 0
M  V30 10635 H 998.239 -0.0673503 -1.46946 0
M  V30 10636 H 1000.2 2.31836 -3.46854 0
M  V30 10637 H 998.827 2.23364 -2.33041 0
M  V30 10638 H 997.879 0.304748 -3.79177 0
M  V30 10639 H 999.191 0.617911 -4.94958 0
M  V30 10640 H 998.345 2.94693 -5.30322 0
M  V30 10641 H 997.084 2.69795 -4.06278 0
M  V30 10642 H 996.089 0.844428 -5.43277 0
M  V30 10643 H 997.314 1.11677 -6.69855 0
M  V30 10644 H 995.26 3.15193 -5.75317 0
M  V30 10645 H 995.177 2.23557 -7.2219 0
M  V30 10646 H 996.445 3.40598 -7.01151 0
M  V30 10647 N 1000.67 1.57404 -0.0785433 0
M  V30 10648 C 1001.92 1.93744 0.589024 0
M  V30 10649 C 1002.25 0.959087 1.69209 0
M  V30 10650 O 1001.5 -0.0241604 1.95685 0
M  V30 10651 C 1001.8 3.36684 1.1991 0
M  V30 10652 C 1001.47 4.50356 0.221493 0
M  V30 10653 C 1000.13 4.81177 -0.0474347 0
M  V30 10654 C 1002.48 5.1928 -0.446941 0
M  V30 10655 C 999.811 5.78257 -0.99177 0
M  V30 10656 C 1002.16 6.17372 -1.37964 0
M  V30 10657 C 1000.83 6.46607 -1.65697 0
M  V30 10658 H 1000.1 0.70896 0.215539 0
M  V30 10659 H 1002.74 1.90905 -0.150856 0
M  V30 10660 H 1001.05 3.36022 2.01486 0
M  V30 10661 H 1002.75 3.62095 1.72303 0
M  V30 10662 H 999.336 4.26322 0.441284 0
M  V30 10663 H 1003.52 4.95658 -0.252298 0
M  V30 10664 H 998.776 5.9923 -1.21381 0
M  V30 10665 H 1002.95 6.6988 -1.9035 0
M  V30 10666 H 1000.58 7.21643 -2.39031 0
M  V30 10667 N 1002.15 -0.195058 1.56388 0
M  V30 10668 C 1003.08 -1.26581 1.91076 0
M  V30 10669 C 1004.1 -1.41707 0.801436 0
M  V30 10670 O 1005.29 -1.42132 1.07985 0
M  V30 10671 C 1002.39 -2.63794 2.12758 0
M  V30 10672 C 1001.56 -2.70275 3.43904 0
M  V30 10673 C 1000.62 -3.88685 3.54698 0
M  V30 10674 O 999.644 -3.75786 4.2752 0
M  V30 10675 N 1000.85 -5.04141 2.87789 0
M  V30 10676 H 1003.61 -0.971401 2.83521 0
M  V30 10677 H 1001.17 -0.384976 1.57256 0
M  V30 10678 H 1003.16 -3.41434 2.17267 0
M  V30 10679 H 1001.73 -2.85723 1.26812 0
M  V30 10680 H 1000.95 -1.78909 3.51262 0
M  V30 10681 H 1002.24 -2.71597 4.30247 0
M  V30 10682 H 1001.64 -5.17519 2.28452 0
M  V30 10683 H 1000.2 -5.79727 2.97925 0
M  V30 10684 N 1003.63 -1.50653 -0.462772 0
M  V30 10685 C 1004.88 -1.62057 -1.21424 0
M  V30 10686 C 1005.2 -0.324778 -1.91769 0
M  V30 10687 O 1004.46 0.689828 -1.83139 0
M  V30 10688 C 1004.76 -2.75637 -2.27507 0
M  V30 10689 C 1004.42 -4.15826 -1.74354 0
M  V30 10690 C 1003.09 -4.53969 -1.5958 0
M  V30 10691 C 1005.44 -5.03409 -1.35012 0
M  V30 10692 C 1002.77 -5.77427 -1.03899 0
M  V30 10693 C 1005.12 -6.27422 -0.807704 0
M  V30 10694 C 1003.78 -6.6436 -0.646657 0
M  V30 10695 H 1003.05 -0.59301 -0.44432 0
M  V30 10696 H 1005.7 -1.84612 -0.508999 0
M  V30 10697 H 1004 -2.47203 -3.0397 0
M  V30 10698 H 1005.7 -2.81663 -2.85424 0
M  V30 10699 H 1002.29 -3.85739 -1.86823 0
M  V30 10700 H 1006.48 -4.74567 -1.45258 0
M  V30 10701 H 1001.73 -6.04713 -0.901751 0
M  V30 10702 H 1005.91 -6.94644 -0.494234 0
M  V30 10703 H 1003.53 -7.59901 -0.213053 0
M  V30 10704 N 1005.11 0.71652 -1.4037 0
M  V30 10705 C 1006.02 1.86074 -1.42876 0
M  V30 10706 C 1007.03 1.71005 -0.321475 0
M  V30 10707 O 1008.21 1.93286 -0.565909 0
M  V30 10708 C 1005.28 3.21862 -1.28863 0
M  V30 10709 C 1004.34 3.49193 -2.49726 0
M  V30 10710 C 1003.57 4.78502 -2.36372 0
M  V30 10711 O 1003.79 5.53529 -1.37703 0
M  V30 10712 O 1002.73 5.06147 -3.25728 0
M  V30 10713 H 1006.55 1.86916 -2.39366 0
M  V30 10714 H 1004.14 0.866818 -1.21683 0
M  V30 10715 H 1006.02 4.02972 -1.23253 0
M  V30 10716 H 1004.69 3.2175 -0.354783 0
M  V30 10717 H 1003.6 2.68095 -2.60913 0
M  V30 10718 H 1004.93 3.54101 -3.41868 0
M  V30 10719 N 1006.59 1.25851 0.948643 0
M  V30 10720 C 1007.52 1.09248 2.06367 0
M  V30 10721 C 1008.5 -0.000205168 1.701 0
M  V30 10722 O 1009.68 0.170442 1.93451 0
M  V30 10723 C 1006.81 0.716777 3.39823 0
M  V30 10724 C 1005.77 1.76036 3.90122 0
M  V30 10725 C 1005.09 1.23918 5.20143 0
M  V30 10726 C 1006.39 3.16039 4.15833 0
M  V30 10727 H 1008.09 2.02518 2.20515 0
M  V30 10728 H 1005.63 0.975093 1.05962 0
M  V30 10729 H 1007.59 0.587531 4.17284 0
M  V30 10730 H 1006.31 -0.251626 3.25629 0
M  V30 10731 H 1004.97 1.87815 3.14835 0
M  V30 10732 H 1004.62 0.260836 5.02323 0
M  V30 10733 H 1004.32 1.93673 5.54765 0
M  V30 10734 H 1005.84 1.12245 6.00194 0
M  V30 10735 H 1007.25 3.0738 4.83933 0
M  V30 10736 H 1005.65 3.83317 4.61723 0
M  V30 10737 H 1006.72 3.62652 3.21887 0
M  V30 10738 N 1008.06 -1.15214 1.07534 0
M  V30 10739 C 1009.29 -1.89922 0.820804 0
M  V30 10740 C 1009.71 -1.78114 -0.626177 0
M  V30 10741 O 1009.06 -1.13435 -1.42964 0
M  V30 10742 C 1009.12 -3.40207 1.22236 0
M  V30 10743 O 1008.84 -3.51676 2.61257 0
M  V30 10744 C 1010.34 -4.31934 0.997393 0
M  V30 10745 H 1007.56 -0.601865 0.296647 0
M  V30 10746 H 1010.1 -1.45965 1.43229 0
M  V30 10747 H 1008.26 -3.8182 0.655167 0
M  V30 10748 H 1008.67 -4.44959 2.77689 0
M  V30 10749 H 1010.14 -5.35791 1.32785 0
M  V30 10750 H 1010.62 -4.3915 -0.0661599 0
M  V30 10751 H 1011.23 -3.96066 1.54958 0
M  V30 10752 N 1009.54 -0.859717 -1.32086 0
M  V30 10753 C 1010.47 -0.323502 -2.31248 0
M  V30 10754 C 1011.45 0.580085 -1.59903 0
M  V30 10755 O 1012.64 0.499265 -1.87673 0
M  V30 10756 C 1009.77 0.484661 -3.43902 0
M  V30 10757 C 1008.72 -0.324933 -4.26765 0
M  V30 10758 C 1008.05 0.608281 -5.31229 0
M  V30 10759 C 1009.35 -1.55344 -4.98664 0
M  V30 10760 H 1011.04 -1.15209 -2.76346 0
M  V30 10761 H 1008.59 -0.555442 -1.32856 0
M  V30 10762 H 1010.54 0.870238 -4.12316 0
M  V30 10763 H 1009.27 1.34666 -2.97544 0
M  V30 10764 H 1007.92 -0.692328 -3.60003 0
M  V30 10765 H 1007.57 1.46727 -4.81124 0
M  V30 10766 H 1007.27 0.0705571 -5.87558 0
M  V30 10767 H 1008.8 0.990925 -6.02506 0
M  V30 10768 H 1010.21 -1.23987 -5.59732 0
M  V30 10769 H 1008.61 -2.02947 -5.64741 0
M  V30 10770 H 1009.68 -2.31192 -4.26237 0
M  V30 10771 N 1011.02 1.44971 -0.618145 0
M  V30 10772 C 1012.3 1.95539 -0.0489895 0
M  V30 10773 C 1012.68 1.5604 1.42179 0
M  V30 10774 O 1012.03 0.82809 2.12967 0
M  V30 10775 C 1012.24 3.48044 -0.258193 0
M  V30 10776 C 1013.58 4.24354 -0.144541 0
M  V30 10777 O 1014.61 3.55699 -0.18887 0
M  V30 10778 O 1013.47 5.46486 -0.038519 0
M  V30 10779 H 1010.56 0.826466 0.0297256 0
M  V30 10780 H 1013.11 1.55086 -0.688944 0
M  V30 10781 H 1011.88 3.69798 -1.27926 0
M  V30 10782 H 1011.5 3.95412 0.416522 0
M  V30 10783 N 1012.5 0.357919 1.53482 0
M  V30 10784 C 1013.41 -0.500273 2.29204 0
M  V30 10785 C 1014.42 -1.09936 1.3487 0
M  V30 10786 O 1015.6 -1.11195 1.67921 0
M  V30 10787 C 1012.67 -1.62828 3.06085 0
M  V30 10788 C 1011.73 -1.05751 4.16071 0
M  V30 10789 C 1010.96 -2.13176 4.89277 0
M  V30 10790 O 1011.18 -3.34153 4.62274 0
M  V30 10791 O 1010.12 -1.76663 5.7539 0
M  V30 10792 H 1013.94 0.115696 3.0348 0
M  V30 10793 H 1011.53 0.122527 1.48897 0
M  V30 10794 H 1013.41 -2.28427 3.54117 0
M  V30 10795 H 1012.08 -2.22979 2.34653 0
M  V30 10796 H 1010.99 -0.365642 3.72309 0
M  V30 10797 H 1012.32 -0.500661 4.89647 0
M  V30 10798 N 1013.98 -1.5736 0.0868897 0
M  V30 10799 C 1014.89 -2.17087 -0.889402 0
M  V30 10800 C 1015.9 -1.13809 -1.31619 0
M  V30 10801 O 1017.08 -1.46143 -1.38579 0
M  V30 10802 C 1014.14 -2.73286 -2.13344 0
M  V30 10803 C 1013.2 -3.91491 -1.76164 0
M  V30 10804 C 1012.44 -4.45 -2.94637 0
M  V30 10805 O 1012.66 -3.97467 -4.09116 0
M  V30 10806 O 1011.59 -5.36133 -2.73579 0
M  V30 10807 H 1015.42 -3.00902 -0.411275 0
M  V30 10808 H 1013.01 -1.4877 -0.137015 0
M  V30 10809 H 1014.89 -3.0924 -2.86266 0
M  V30 10810 H 1013.56 -1.92521 -2.60225 0
M  V30 10811 H 1012.47 -3.60363 -1.00447 0
M  V30 10812 H 1013.8 -4.73593 -1.34053 0
M  V30 10813 N 1015.45 0.186762 -1.56489 0
M  V30 10814 C 1016.73 0.932229 -1.71956 0
M  V30 10815 C 1017.11 2.01037 -0.644006 0
M  V30 10816 O 1016.46 2.259 0.343694 0
M  V30 10817 C 1016.67 1.51106 -3.14592 0
M  V30 10818 C 1018.02 1.98997 -3.75081 0
M  V30 10819 O 1019.04 1.60931 -3.17773 0
M  V30 10820 O 1017.9 2.69067 -4.75673 0
M  V30 10821 H 1014.99 0.437736 -0.701652 0
M  V30 10822 H 1017.54 0.175803 -1.68787 0
M  V30 10823 H 1016.31 0.734327 -3.84348 0
M  V30 10824 H 1015.94 2.33209 -3.22024 0
M  V30 10825 N 1016.93 1.50896 0.454776 0
M  V30 10826 C 1018.16 1.66759 1.23313 0
M  V30 10827 C 1018.58 0.35722 1.84677 0
M  V30 10828 O 1017.94 -0.680771 1.68033 0
M  V30 10829 C 1017.99 2.77254 2.3057 0
M  V30 10830 O 1017.09 2.39642 3.35627 0
M  V30 10831 H 1016.43 0.556599 0.362068 0
M  V30 10832 H 1018.96 1.97365 0.539274 0
M  V30 10833 H 1018.97 3.0082 2.75629 0
M  V30 10834 H 1017.65 3.72349 1.85281 0
M  V30 10835 H 1016.23 2.26584 2.96165 0
M  V30 10836 N 1018.41 -0.709066 1.40748 0
M  V30 10837 C 1019.32 -1.85314 1.43861 0
M  V30 10838 C 1020.34 -1.70832 0.330539 0
M  V30 10839 O 1021.51 -1.92983 0.576152 0
M  V30 10840 C 1018.58 -3.21174 1.30568 0
M  V30 10841 C 1017.64 -3.47863 2.51574 0
M  V30 10842 C 1016.87 -4.77241 2.38906 0
M  V30 10843 O 1017.09 -5.52791 1.40636 0
M  V30 10844 O 1016.03 -5.04413 3.28407 0
M  V30 10845 H 1019.85 -1.85644 2.40354 0
M  V30 10846 H 1017.44 -0.860352 1.2214 0
M  V30 10847 H 1019.32 -4.02313 1.25388 0
M  V30 10848 H 1018 -3.21557 0.371841 0
M  V30 10849 H 1016.9 -2.66708 2.62331 0
M  V30 10850 H 1018.24 -3.52283 3.43741 0
M  V30 10851 N 1019.89 -1.26353 -0.941956 0
M  V30 10852 C 1021.14 -1.1163 -1.68473 0
M  V30 10853 C 1021.46 0.34108 -1.91994 0
M  V30 10854 O 1020.73 1.24065 -1.51607 0
M  V30 10855 H 1019.31 -0.410113 -0.624353 0
M  V30 10856 H 1021.97 -1.58669 -1.13182 0
M  V30 10857 H 1021.07 -1.63445 -2.6588 0
M  V30 10858 N 1021.37 1.14642 -1.08144 0
M  V30 10859 C 1022.78 1.6719 -0.830923 0
M  V30 10860 C 1023.13 1.85373 0.642749 0
M  V30 10861 O 1022.25 1.56293 1.49671 0
M  V30 10862 C 1022.85 3.03697 -1.50179 0
M  V30 10863 C 1021.41 3.5329 -1.29858 0
M  V30 10864 C 1020.56 2.28828 -1.5663 0
M  V30 10865 H 1023.51 0.987441 -1.24239 0
M  V30 10866 H 1023.53 3.69023 -0.9275 0
M  V30 10867 H 1023.04 2.90431 -2.57432 0
M  V30 10868 H 1021.14 3.71783 -0.246626 0
M  V30 10869 H 1021.25 4.34231 -2.02436 0
M  V30 10870 H 1019.62 2.34769 -0.987716 0
M  V30 10871 H 1020.4 2.18141 -2.65084 0
M  V30 10872 N 1022.85 0.866709 1.31628 0
M  V30 10873 C 1023.76 0.323408 2.3236 0
M  V30 10874 C 1024.77 -0.564995 1.64572 0
M  V30 10875 O 1025.95 -0.462489 1.96018 0
M  V30 10876 C 1023.01 -0.469045 3.43513 0
M  V30 10877 C 1022.07 0.446928 4.26967 0
M  V30 10878 C 1021.31 -0.307799 5.32812 0
M  V30 10879 O 1021.53 -1.5363 5.49321 0
M  V30 10880 O 1020.46 0.332653 6.0098 0
M  V30 10881 H 1024.29 1.15827 2.80745 0
M  V30 10882 H 1021.87 0.629987 1.35468 0
M  V30 10883 H 1023.76 -0.918405 4.1127 0
M  V30 10884 H 1022.43 -1.28051 2.97296 0
M  V30 10885 H 1021.34 0.944719 3.61975 0
M  V30 10886 H 1022.67 1.2239 4.76741 0
M  V30 10887 N 1024.32 -1.44642 0.625825 0
M  V30 10888 C 1025.27 -2.30653 -0.082259 0
M  V30 10889 C 1026.24 -1.43174 -0.842052 0
M  V30 10890 O 1027.43 -1.72082 -0.824151 0
M  V30 10891 C 1024.57 -3.2837 -1.06146 0
M  V30 10892 C 1023.68 -4.30953 -0.300638 0
M  V30 10893 C 1022.81 -5.15766 -1.27118 0
M  V30 10894 C 1021.85 -6.10061 -0.499215 0
M  V30 10895 N 1020.99 -6.87591 -1.41995 0
M  V30 10896 H 1025.83 -2.90664 0.657161 0
M  V30 10897 H 1023.37 -1.43215 0.335859 0
M  V30 10898 H 1025.32 -3.83507 -1.6425 0
M  V30 10899 H 1023.95 -2.70072 -1.76807 0
M  V30 10900 H 1023.01 -3.78331 0.396234 0
M  V30 10901 H 1024.32 -4.97892 0.300851 0
M  V30 10902 H 1023.47 -5.75394 -1.92372 0
M  V30 10903 H 1022.21 -4.48888 -1.9066 0
M  V30 10904 H 1021.22 -5.49547 0.166848 0
M  V30 10905 H 1022.44 -6.78973 0.131409 0
M  V30 10906 H 1020.39 -6.23387 -2.04267 0
M  V30 10907 H 1020.3 -7.5095 -0.872354 0
M  V30 10908 H 1021.57 -7.51746 -2.0615 0
M  V30 10909 N 1025.8 -0.366053 -1.5329 0
M  V30 10910 C 1026.71 0.488111 -2.29466 0
M  V30 10911 C 1027.73 1.09219 -1.35452 0
M  V30 10912 O 1028.9 1.10303 -1.68509 0
M  V30 10913 C 1025.97 1.61202 -3.06944 0
M  V30 10914 C 1025.03 1.03543 -4.16626 0
M  V30 10915 C 1024.26 2.10578 -4.904 0
M  V30 10916 O 1024.49 3.31697 -4.6404 0
M  V30 10917 O 1023.42 1.73609 -5.76319 0
M  V30 10918 H 1027.25 -0.131789 -3.03414 0
M  V30 10919 H 1024.83 -0.130421 -1.4883 0
M  V30 10920 H 1026.71 2.26546 -3.55324 0
M  V30 10921 H 1025.39 2.21732 -2.35832 0
M  V30 10922 H 1024.29 0.345892 -3.72498 0
M  V30 10923 H 1025.63 0.474687 -4.89906 0
M  V30 10924 N 1027.28 1.57312 -0.0952337 0
M  V30 10925 C 1028.53 1.93974 0.567319 0
M  V30 10926 C 1028.85 0.977805 1.68713 0
M  V30 10927 O 1028.12 0.0298944 1.95877 0
M  V30 10928 H 1026.7 0.71612 0.212558 0
M  V30 10929 H 1029.36 1.94254 -0.158598 0
M  V30 10930 H 1028.46 2.964 0.977423 0
M  V30 10931 N 1028.76 -0.17846 1.56586 0
M  V30 10932 C 1029.67 -1.24115 1.9908 0
M  V30 10933 C 1030.68 -1.48854 0.901031 0
M  V30 10934 O 1031.86 -1.61142 1.2081 0
M  V30 10935 C 1028.92 -2.56187 2.33601 0
M  V30 10936 C 1027.99 -2.39373 3.56369 0
M  V30 10937 C 1027.22 -3.65147 3.89234 0
M  V30 10938 O 1027.44 -4.70024 3.23162 0
M  V30 10939 O 1026.38 -3.59683 4.82609 0
M  V30 10940 H 1030.2 -0.910482 2.89731 0
M  V30 10941 H 1027.79 -0.38477 1.4436 0
M  V30 10942 H 1029.67 -3.34109 2.56806 0
M  V30 10943 H 1028.34 -2.88847 1.46113 0
M  V30 10944 H 1027.25 -1.59506 3.38391 0
M  V30 10945 H 1028.58 -2.1164 4.44375 0
M  V30 10946 N 1030.24 -1.51135 -0.446768 0
M  V30 10947 C 1031.48 -1.63013 -1.19461 0
M  V30 10948 C 1031.8 -0.344067 -1.91941 0
M  V30 10949 O 1031.07 0.639666 -1.85162 0
M  V30 10950 H 1029.65 -0.600757 -0.443959 0
M  V30 10951 H 1032.32 -1.88024 -0.513137 0
M  V30 10952 H 1031.41 -2.45322 -1.92933 0
M  V30 10953 N 1031.71 0.701592 -1.41122 0
M  V30 10954 C 1032.66 1.80755 -1.38966 0
M  V30 10955 C 1033.65 1.58703 -0.264964 0
M  V30 10956 O 1034.84 1.69638 -0.505168 0
M  V30 10957 C 1031.97 3.1901 -1.26836 0
M  V30 10958 C 1031.05 3.46777 -2.44144 0
M  V30 10959 N 1031.45 3.45278 -3.69617 0
M  V30 10960 C 1029.74 3.77299 -2.37826 0
M  V30 10961 C 1030.44 3.71782 -4.47385 0
M  V30 10962 N 1029.42 3.91228 -3.77415 0
M  V30 10963 H 1033.22 1.7795 -2.33904 0
M  V30 10964 H 1030.74 0.901325 -1.35092 0
M  V30 10965 H 1032.73 3.98227 -1.23373 0
M  V30 10966 H 1031.39 3.23031 -0.328777 0
M  V30 10967 H 1032.4 3.258 -4.02585 0
M  V30 10968 H 1029.08 3.88727 -1.52309 0
M  V30 10969 H 1030.47 3.7681 -5.56295 0
M  V30 10970 N 1033.19 1.2685 0.935242 0
M  V30 10971 C 1034.42 1.15645 1.72165 0
M  V30 10972 C 1034.84 -0.283909 1.85945 0
M  V30 10973 O 1034.2 -1.20567 1.354 0
M  V30 10974 C 1034.25 1.83689 3.10307 0
M  V30 10975 O 1033.35 1.12972 3.96625 0
M  V30 10976 H 1032.69 0.402629 0.528002 0
M  V30 10977 H 1035.22 1.67781 1.17093 0
M  V30 10978 H 1035.23 1.90749 3.60664 0
M  V30 10979 H 1033.91 2.88472 2.99595 0
M  V30 10980 H 1032.48 1.13929 3.5507 0
M  V30 10981 N 1034.67 -1.14067 1.0875 0
M  V30 10982 C 1035.9 -1.88767 0.839682 0
M  V30 10983 C 1036.31 -1.79024 -0.612119 0
M  V30 10984 O 1035.65 -1.14986 -1.43262 0
M  V30 10985 C 1035.71 -3.39333 1.18716 0
M  V30 10986 C 1035.38 -3.72858 2.64245 0
M  V30 10987 C 1036.37 -3.72683 3.62496 0
M  V30 10988 C 1034.06 -4.0273 3.0019 0
M  V30 10989 C 1036.05 -4.01909 4.9472 0
M  V30 10990 C 1033.74 -4.31618 4.32607 0
M  V30 10991 C 1034.74 -4.31192 5.29682 0
M  V30 10992 O 1034.43 -4.59377 6.59718 0
M  V30 10993 H 1034.16 -0.604665 0.302253 0
M  V30 10994 H 1036.71 -1.45364 1.45115 0
M  V30 10995 H 1034.94 -3.83205 0.518707 0
M  V30 10996 H 1036.63 -3.95346 0.919599 0
M  V30 10997 H 1037.4 -3.49688 3.3607 0
M  V30 10998 H 1033.28 -4.02213 2.25268 0
M  V30 10999 H 1036.82 -4.01491 5.70483 0
M  V30 11000 H 1032.72 -4.54083 4.58779 0
M  V30 11001 H 1033.49 -4.77078 6.65086 0
M  V30 11002 N 1036.15 -0.873678 -1.31166 0
M  V30 11003 C 1037.4 -0.486457 -1.9657 0
M  V30 11004 C 1037.72 0.962042 -1.69041 0
M  V30 11005 O 1036.98 1.69305 -0.981543 0
M  V30 11006 C 1037.28 -0.69462 -3.50585 0
M  V30 11007 C 1036.94 -2.11647 -3.98141 0
M  V30 11008 C 1035.61 -2.50531 -4.10838 0
M  V30 11009 C 1037.96 -3.0436 -4.23101 0
M  V30 11010 C 1035.29 -3.81361 -4.45848 0
M  V30 11011 C 1037.64 -4.34709 -4.59577 0
M  V30 11012 C 1036.3 -4.73502 -4.70481 0
M  V30 11013 H 1035.57 -0.178007 -0.719301 0
M  V30 11014 H 1038.22 -1.10737 -1.56235 0
M  V30 11015 H 1036.52 0.00940878 -3.91799 0
M  V30 11016 H 1038.22 -0.374782 -3.99245 0
M  V30 11017 H 1034.81 -1.8046 -3.88757 0
M  V30 11018 H 1038.99 -2.75544 -4.12782 0
M  V30 11019 H 1034.25 -4.11174 -4.52488 0
M  V30 11020 H 1038.42 -5.06596 -4.77842 0
M  V30 11021 H 1036.05 -5.74919 -4.97365 0
M  V30 11022 N 1037.63 1.44308 -0.633487 0
M  V30 11023 C 1038.85 2.06897 -0.144347 0
M  V30 11024 C 1039.28 1.47045 1.173 0
M  V30 11025 O 1038.63 0.572806 1.72013 0
M  V30 11026 C 1038.68 3.60571 -0.0456324 0
M  V30 11027 O 1037.79 4.0015 0.997682 0
M  V30 11028 H 1037.13 0.658427 -0.0858499 0
M  V30 11029 H 1039.66 1.85142 -0.870833 0
M  V30 11030 H 1039.67 4.07745 0.144178 0
M  V30 11031 H 1038.34 4.03515 -1.0074 0
M  V30 11032 H 1036.92 3.64603 0.782252 0
M  V30 11033 N 1039.1 0.374177 1.53094 0
M  V30 11034 C 1040.33 -0.215903 2.06273 0
M  V30 11035 C 1040.75 -1.40979 1.24526 0
M  V30 11036 O 1040.11 -1.79331 0.266462 0
M  V30 11037 C 1040.16 -0.579089 3.5592 0
M  V30 11038 O 1039.26 -1.67516 3.76845 0
M  V30 11039 H 1038.61 -0.0293981 0.663349 0
M  V30 11040 H 1041.14 0.537271 1.9742 0
M  V30 11041 H 1041.15 -0.847678 3.99097 0
M  V30 11042 H 1039.82 0.293843 4.14861 0
M  V30 11043 H 1038.4 -1.40146 3.45563 0
M  V30 11044 N 1040.58 -1.57259 0.103575 0
M  V30 11045 C 1041.81 -1.99 -0.566275 0
M  V30 11046 C 1042.23 -0.982909 -1.61197 0
M  V30 11047 O 1041.58 0.026345 -1.82481 0
M  V30 11048 C 1041.63 -3.40778 -1.20635 0
M  V30 11049 O 1041.35 -4.37632 -0.202472 0
M  V30 11050 C 1042.86 -3.97567 -1.961 0
M  V30 11051 H 1040.08 -0.653751 -0.151164 0
M  V30 11052 H 1042.62 -2.03658 0.185365 0
M  V30 11053 H 1040.77 -3.37107 -1.90886 0
M  V30 11054 H 1041.19 -5.2026 -0.665535 0
M  V30 11055 H 1042.66 -4.98897 -2.36233 0
M  V30 11056 H 1043.14 -3.35853 -2.83018 0
M  V30 11057 H 1043.75 -4.04737 -1.30645 0
M  V30 11058 N 1042.06 0.170153 -1.56679 0
M  V30 11059 C 1043.01 1.21064 -1.965 0
M  V30 11060 C 1043.98 1.43928 -0.829092 0
M  V30 11061 O 1045.16 1.56649 -1.08931 0
M  V30 11062 C 1042.3 2.54468 -2.33109 0
M  V30 11063 C 1041.42 2.38974 -3.59883 0
M  V30 11064 C 1040.55 3.65252 -3.857 0
M  V30 11065 C 1039.59 3.44696 -5.05817 0
M  V30 11066 N 1038.73 4.63047 -5.27761 0
M  V30 11067 H 1043.57 0.864055 -2.85198 0
M  V30 11068 H 1041.1 0.415243 -1.41117 0
M  V30 11069 H 1043.06 3.32222 -2.52358 0
M  V30 11070 H 1041.69 2.8712 -1.4752 0
M  V30 11071 H 1040.74 1.5239 -3.48542 0
M  V30 11072 H 1042.06 2.19731 -4.47794 0
M  V30 11073 H 1041.21 4.51441 -4.05322 0
M  V30 11074 H 1039.95 3.87475 -2.96166 0
M  V30 11075 H 1038.95 2.56893 -4.86092 0
M  V30 11076 H 1040.18 3.23894 -5.96883 0
M  V30 11077 H 1038.12 4.85487 -4.41179 0
M  V30 11078 H 1038.04 4.46722 -6.09898 0
M  V30 11079 H 1039.31 5.50516 -5.51863 0
M  V30 11080 N 1043.54 1.5137 0.438746 0
M  V30 11081 C 1044.77 1.67774 1.21077 0
M  V30 11082 C 1045.18 0.374489 1.85049 0
M  V30 11083 O 1044.54 -0.646867 1.70651 0
M  V30 11084 C 1044.59 2.79238 2.29584 0
M  V30 11085 O 1044.31 4.04513 1.68228 0
M  V30 11086 C 1045.81 3.06898 3.19888 0
M  V30 11087 H 1043.03 0.563054 0.364981 0
M  V30 11088 H 1045.58 1.97777 0.520035 0
M  V30 11089 H 1043.73 2.51837 2.94375 0
M  V30 11090 H 1044.14 4.66405 2.3993 0
M  V30 11091 H 1045.62 3.88476 3.92162 0
M  V30 11092 H 1046.1 2.19249 3.80561 0
M  V30 11093 H 1046.7 3.35952 2.60799 0
M  V30 11094 N 1045.02 -0.694098 1.41492 0
M  V30 11095 C 1045.95 -1.82042 1.46229 0
M  V30 11096 C 1046.93 -1.67047 0.320803 0
M  V30 11097 O 1048.11 -1.86758 0.53245 0
M  V30 11098 C 1045.24 -3.2019 1.34519 0
M  V30 11099 C 1044.2 -3.49892 2.46495 0
M  V30 11100 C 1043.52 -4.87411 2.1985 0
M  V30 11101 C 1044.82 -3.4872 3.88834 0
M  V30 11102 H 1046.52 -1.78335 2.40493 0
M  V30 11103 H 1044.06 -0.856566 1.15754 0
M  V30 11104 H 1046.02 -3.98699 1.36445 0
M  V30 11105 H 1044.74 -3.24527 0.367406 0
M  V30 11106 H 1043.4 -2.73734 2.43854 0
M  V30 11107 H 1043.05 -4.88375 1.20411 0
M  V30 11108 H 1042.75 -5.08248 2.94885 0
M  V30 11109 H 1044.27 -5.68228 2.23494 0
M  V30 11110 H 1045.68 -4.1723 3.93182 0
M  V30 11111 H 1044.08 -3.81089 4.63564 0
M  V30 11112 H 1045.15 -2.47665 4.16881 0
M  V30 11113 N 1046.49 -1.27344 -0.928501 0
M  V30 11114 C 1047.73 -1.14871 -1.69068 0
M  V30 11115 C 1048.1 0.300603 -1.89632 0
M  V30 11116 O 1049.3 0.547743 -2.6316 0
M  V30 11117 C 1047.57 -1.90992 -3.02087 0
M  V30 11118 S 1049.13 -1.94722 -3.93229 0
M  V30 11119 H 1045.95 -0.410095 -0.580812 0
M  V30 11120 H 1048.55 -1.61242 -1.1055 0
M  V30 11121 H 1047.25 -2.95484 -2.84811 0
M  V30 11122 H 1046.78 -1.45112 -3.65658 0
M  V30 11123 H 1048.8 -1.04306 -4.85113 0
M  V30 11124 N 1047.97 1.13488 -1.09353 0
M  V30 11125 C 1049.22 1.85022 -0.830354 0
M  V30 11126 C 1049.55 1.83266 0.64242 0
M  V30 11127 O 1048.83 1.27024 1.47293 0
M  V30 11128 C 1049.11 3.33218 -1.36521 0
M  V30 11129 C 1048.96 3.43491 -2.90404 0
M  V30 11130 C 1050.28 4.28626 -0.998381 0
M  V30 11131 H 1047.4 0.671786 -0.303105 0
M  V30 11132 H 1050.04 1.33211 -1.3548 0
M  V30 11133 H 1048.19 3.77471 -0.919117 0
M  V30 11134 H 1049.86 3.07954 -3.43456 0
M  V30 11135 H 1048.11 2.84391 -3.27573 0
M  V30 11136 H 1048.78 4.47702 -3.22905 0
M  V30 11137 H 1051.25 3.9244 -1.38311 0
M  V30 11138 H 1050.13 5.30754 -1.39968 0
M  V30 11139 H 1050.39 4.42001 0.093517 0
M  V30 11140 N 1049.45 0.880621 1.30701 0
M  V30 11141 C 1050.7 0.492957 1.95583 0
M  V30 11142 C 1051.01 -0.961863 1.70316 0
M  V30 11143 O 1052.22 -1.45617 2.29146 0
M  V30 11144 C 1050.68 0.830656 3.50183 0
M  V30 11145 C 1050.28 2.30295 3.84276 0
M  V30 11146 C 1052.03 0.511979 4.21401 0
M  V30 11147 C 1049.93 2.58251 5.32034 0
M  V30 11148 H 1048.86 0.18062 0.732047 0
M  V30 11149 H 1051.52 1.075 1.48715 0
M  V30 11150 H 1049.9 0.177752 3.95601 0
M  V30 11151 H 1051.07 2.99981 3.49783 0
M  V30 11152 H 1049.39 2.58873 3.2615 0
M  V30 11153 H 1051.98 0.697935 5.30125 0
M  V30 11154 H 1052.33 -0.548327 4.12673 0
M  V30 11155 H 1052.86 1.12189 3.81652 0
M  V30 11156 H 1049.6 3.63005 5.45809 0
M  V30 11157 H 1049.12 1.9317 5.67843 0
M  V30 11158 H 1050.8 2.43527 5.99419 0
M  V30 11159 N 1050.93 -1.4397 0.641131 0
M  V30 11160 C 1052.21 -1.95436 0.0800918 0
M  V30 11161 C 1052.59 -1.58282 -1.39678 0
M  V30 11162 O 1051.93 -0.861867 -2.11623 0
M  V30 11163 C 1052.14 -3.47589 0.313531 0
M  V30 11164 C 1053.49 -4.2407 0.212034 0
M  V30 11165 O 1054.52 -3.55353 0.245434 0
M  V30 11166 O 1053.38 -5.46356 0.125455 0
M  V30 11167 H 1050.47 -0.826834 -0.0165735 0
M  V30 11168 H 1053.02 -1.5397 0.71353 0
M  V30 11169 H 1051.79 -3.67716 1.33793 0
M  V30 11170 H 1051.41 -3.96025 -0.353563 0
M  V30 11171 N 1052.41 -0.382291 -1.52893 0
M  V30 11172 C 1053.82 0.0932841 -1.86467 0
M  V30 11173 C 1054.17 1.4675 -1.30226 0
M  V30 11174 O 1053.29 2.07001 -0.63084 0
M  V30 11175 C 1053.89 0.176048 -3.38342 0
M  V30 11176 C 1052.45 0.595904 -3.71653 0
M  V30 11177 C 1051.6 -0.246511 -2.76202 0
M  V30 11178 H 1054.55 -0.600443 -1.46903 0
M  V30 11179 H 1054.57 0.996512 -3.67219 0
M  V30 11180 H 1054.08 -0.824264 -3.79246 0
M  V30 11181 H 1052.18 1.60384 -3.36315 0
M  V30 11182 H 1052.29 0.358919 -4.77754 0
M  V30 11183 H 1050.66 0.287162 -2.53076 0
M  V30 11184 H 1051.44 -1.24467 -3.19942 0
M  V30 11185 N 1053.89 1.57202 -0.111913 0
M  V30 11186 C 1054.8 2.18475 0.854753 0
M  V30 11187 C 1055.81 1.15888 1.29792 0
M  V30 11188 O 1056.99 1.48329 1.36237 0
M  V30 11189 C 1054.05 2.76645 2.0897 0
M  V30 11190 C 1053.11 3.94244 1.69913 0
M  V30 11191 C 1052.35 4.49631 2.8752 0
M  V30 11192 O 1052.57 4.03926 4.02741 0
M  V30 11193 O 1051.5 5.40417 2.65015 0
M  V30 11194 H 1055.33 3.01519 0.363352 0
M  V30 11195 H 1052.91 1.4897 0.113329 0
M  V30 11196 H 1054.8 3.13755 2.81311 0
M  V30 11197 H 1053.47 1.96637 2.5713 0
M  V30 11198 H 1052.38 3.61915 0.947013 0
M  V30 11199 H 1053.71 4.75666 1.26501 0
M  V30 11200 N 1055.36 -0.161842 1.56767 0
M  V30 11201 C 1056.31 -1.21948 1.98069 0
M  V30 11202 C 1057.31 -1.45303 0.870835 0
M  V30 11203 O 1058.51 -1.45771 1.05598 0
M  V30 11204 H 1054.89 -0.410145 0.630306 0
M  V30 11205 H 1056.86 -0.844336 2.86205 0
M  V30 11206 C 1055.61 -2.549 2.36477 0
M  V30 11207 H 1054.93 -2.37755 3.21423 0
M  V30 11208 H 1056.37 -3.27568 2.69212 0
M  V30 11209 C 1054.83 -3.14353 1.21176 0
M  V30 11210 O 1055.36 -3.98519 0.504499 0
M  V30 11211 N 1053.56 -2.73582 0.979855 0
M  V30 11212 H 1053.11 -2.05239 1.55675 0
M  V30 11213 H 1053.07 -3.13696 0.21025 0
M  V30 11214 N 1056.84 -1.516 -0.430713 0
M  V30 11215 C 1058.26 -1.39923 -0.767706 0
M  V30 11216 C 1058.46 -0.486756 -1.95532 0
M  V30 11217 O 1057.51 0.0555965 -2.52439 0
M  V30 11218 C 1058.83 -2.82074 -1.04187 0
M  V30 11219 C 1060.37 -2.9127 -1.1459 0
M  V30 11220 C 1060.85 -4.34342 -1.45295 0
M  V30 11221 N 1062.34 -4.37479 -1.52206 0
M  V30 11222 C 1063.08 -5.45219 -1.77549 0
M  V30 11223 N 1062.57 -6.6311 -2.0064 0
M  V30 11224 N 1064.36 -5.32707 -1.79386 0
M  V30 11225 H 1056.52 -2.09474 0.351351 0
M  V30 11226 H 1058.78 -0.943247 0.0948151 0
M  V30 11227 H 1058.48 -3.50868 -0.241837 0
M  V30 11228 H 1058.36 -3.21805 -1.96777 0
M  V30 11229 H 1060.75 -2.2267 -1.93655 0
M  V30 11230 H 1060.83 -2.55026 -0.198854 0
M  V30 11231 H 1060.47 -5.03494 -0.667559 0
M  V30 11232 H 1060.4 -4.68105 -2.41217 0
M  V30 11233 H 1062.89 -3.52488 -1.36237 0
M  V30 11234 H 1063.2 -7.41012 -2.19366 0
M  V30 11235 H 1061.55 -6.66214 -1.97948 0
M  V30 11236 H 1064.74 -4.39589 -1.60869 0
M  V30 11237 H 1064.91 -6.16752 -1.98799 0
M  V30 11238 N 1058.32 0.686584 -1.41858 0
M  V30 11239 C 1059.6 1.44176 -1.32185 0
M  V30 11240 C 1059.98 2.11049 0.046362 0
M  V30 11241 O 1059.32 2.02365 1.06117 0
M  V30 11242 C 1059.53 2.45385 -2.48168 0
M  V30 11243 C 1060.88 3.10375 -2.89746 0
M  V30 11244 O 1061.91 2.55711 -2.47973 0
M  V30 11245 O 1060.77 4.09404 -3.62009 0
M  V30 11246 H 1057.86 0.642513 -0.520678 0
M  V30 11247 H 1060.41 0.716303 -1.53841 0
M  V30 11248 H 1059.18 1.94687 -3.3943 0
M  V30 11249 H 1058.8 3.25428 -2.28435 0
M  V30 11250 N 1059.8 1.27835 0.921735 0
M  V30 11251 C 1061.02 1.17465 1.70929 0
M  V30 11252 C 1061.45 -0.264171 1.86236 0
M  V30 11253 O 1060.81 -1.19124 1.36671 0
M  V30 11254 C 1060.85 1.8697 3.08342 0
M  V30 11255 O 1059.96 1.17173 3.95404 0
M  V30 11256 H 1059.3 0.408206 0.523702 0
M  V30 11257 H 1061.83 1.69013 1.15307 0
M  V30 11258 H 1061.84 1.94564 3.58621 0
M  V30 11259 H 1060.51 2.91633 2.96518 0
M  V30 11260 H 1059.09 1.17688 3.53842 0
M  V30 11261 N 1061.28 -1.12907 1.09954 0
M  V30 11262 C 1062.21 -2.20585 0.765799 0
M  V30 11263 C 1063.19 -1.68117 -0.258989 0
M  V30 11264 O 1064.37 -1.93792 -0.125853 0
M  V30 11265 C 1061.5 -3.46772 0.191435 0
M  V30 11266 C 1060.46 -4.12363 1.14635 0
M  V30 11267 C 1059.78 -5.3294 0.433426 0
M  V30 11268 C 1061.08 -4.59073 2.49096 0
M  V30 11269 H 1062.78 -2.48759 1.66612 0
M  V30 11270 H 1060.32 -1.19563 0.802534 0
M  V30 11271 H 1062.27 -4.21365 -0.0541535 0
M  V30 11272 H 1061 -3.18011 -0.744101 0
M  V30 11273 H 1059.66 -3.39744 1.37731 0
M  V30 11274 H 1059.31 -5.00444 -0.506422 0
M  V30 11275 H 1059.01 -5.77772 1.07018 0
M  V30 11276 H 1060.53 -6.10284 0.196267 0
M  V30 11277 H 1061.94 -5.25063 2.30177 0
M  V30 11278 H 1060.34 -5.14665 3.0861 0
M  V30 11279 H 1061.41 -3.73313 3.0946 0
M  V30 11280 N 1062.75 -0.88754 -1.30232 0
M  V30 11281 C 1064 -0.506277 -1.95656 0
M  V30 11282 C 1064.32 0.948191 -1.70395 0
M  V30 11283 O 1063.59 1.66701 -1.02895 0
M  V30 11284 H 1062.17 -0.184235 -0.723924 0
M  V30 11285 H 1064.83 -1.13118 -1.58715 0
M  V30 11286 H 1063.93 -0.678673 -3.04632 0
M  V30 11287 N 1064.23 1.43628 -0.648757 0
M  V30 11288 C 1065.14 2.34554 0.0463037 0
M  V30 11289 C 1066.16 1.53629 0.816952 0
M  V30 11290 O 1067.33 1.86297 0.765212 0
M  V30 11291 C 1064.4 3.3185 1.00381 0
M  V30 11292 C 1063.46 4.2868 0.230589 0
M  V30 11293 C 1062.69 5.21328 1.14249 0
M  V30 11294 O 1062.92 5.18298 2.38166 0
M  V30 11295 O 1061.85 5.98726 0.617296 0
M  V30 11296 H 1065.68 2.95475 -0.702008 0
M  V30 11297 H 1063.26 1.43694 -0.408942 0
M  V30 11298 H 1065.14 3.91692 1.5542 0
M  V30 11299 H 1063.82 2.73439 1.73243 0
M  V30 11300 H 1062.73 3.72332 -0.363282 0
M  V30 11301 H 1064.06 4.90061 -0.458368 0
M  V30 11302 N 1065.71 0.390394 1.52688 0
M  V30 11303 C 1066.94 -0.191485 2.06012 0
M  V30 11304 C 1067.35 -1.40422 1.26202 0
M  V30 11305 O 1066.71 -1.79866 0.308963 0
M  V30 11306 C 1066.76 -0.560521 3.57128 0
M  V30 11307 O 1066.48 0.60404 4.33916 0
M  V30 11308 C 1067.98 -1.19814 4.26801 0
M  V30 11309 H 1065.2 -0.0286311 0.670389 0
M  V30 11310 H 1067.75 0.555939 1.96798 0
M  V30 11311 H 1065.9 -1.25784 3.66411 0
M  V30 11312 H 1066.32 0.300467 5.23639 0
M  V30 11313 H 1067.79 -1.40672 5.33775 0
M  V30 11314 H 1068.27 -2.16582 3.82085 0
M  V30 11315 H 1068.87 -0.541558 4.21838 0
M  V30 11316 N 1067.19 -1.57141 0.120249 0
M  V30 11317 C 1068.47 -1.8677 -0.581075 0
M  V30 11318 C 1068.85 -1.02163 -1.84732 0
M  V30 11319 O 1068.19 -0.100897 -2.28277 0
M  V30 11320 C 1068.4 -3.37923 -0.872316 0
M  V30 11321 C 1069.75 -4.0655 -1.22483 0
M  V30 11322 O 1070.78 -3.42948 -0.962539 0
M  V30 11323 O 1069.63 -5.18821 -1.71717 0
M  V30 11324 H 1066.73 -0.773219 -0.293362 0
M  V30 11325 H 1069.27 -1.68992 0.154846 0
M  V30 11326 H 1068.05 -3.91292 0.0249416 0
M  V30 11327 H 1067.67 -3.61135 -1.66335 0
M  V30 11328 N 1068.67 0.153526 -1.5685 0
M  V30 11329 C 1069.92 0.865628 -1.82181 0
M  V30 11330 C 1070.23 1.82629 -0.700434 0
M  V30 11331 O 1071.43 2.58206 -0.839155 0
M  V30 11332 C 1069.89 1.58993 -3.22877 0
M  V30 11333 C 1069.5 0.672006 -4.42931 0
M  V30 11334 C 1071.24 2.2892 -3.57486 0
M  V30 11335 C 1069.15 1.39755 -5.7465 0
M  V30 11336 H 1068.08 0.326993 -0.679406 0
M  V30 11337 H 1070.73 0.118403 -1.83118 0
M  V30 11338 H 1069.11 2.38255 -3.16308 0
M  V30 11339 H 1070.29 -0.0849226 -4.60722 0
M  V30 11340 H 1068.6 0.0814825 -4.1632 0
M  V30 11341 H 1071.2 2.8383 -4.5315 0
M  V30 11342 H 1071.54 3.05105 -2.83226 0
M  V30 11343 H 1072.07 1.56583 -3.65686 0
M  V30 11344 H 1068.81 0.677686 -6.51987 0
M  V30 11345 H 1068.33 2.12736 -5.60806 0
M  V30 11346 H 1070.01 1.94024 -6.17223 0
M  V30 11347 N 1070.14 1.51827 0.422667 0
M  V30 11348 C 1071.42 1.55772 1.18299 0
M  V30 11349 C 1071.8 0.330657 2.08494 0
M  V30 11350 O 1071.15 -0.683373 2.18042 0
M  V30 11351 C 1071.36 2.87941 1.97208 0
M  V30 11352 C 1072.71 3.4044 2.53744 0
M  V30 11353 O 1073.73 2.8959 2.07403 0
M  V30 11354 O 1072.59 4.29201 3.38303 0
M  V30 11355 H 1069.68 0.626889 0.539388 0
M  V30 11356 H 1072.23 1.64147 0.430545 0
M  V30 11357 H 1071 3.68702 1.31052 0
M  V30 11358 H 1070.63 2.82795 2.79486 0
M  V30 11359 N 1071.62 -0.679052 1.4222 0
M  V30 11360 C 1072.87 -1.43485 1.41757 0
M  V30 11361 C 1073.18 -1.95567 0.0358698 0
M  V30 11362 O 1074.39 -2.71346 -0.0913713 0
M  V30 11363 C 1072.85 -2.59541 2.49332 0
M  V30 11364 C 1072.45 -2.14176 3.93488 0
M  V30 11365 C 1074.2 -3.37078 2.58029 0
M  V30 11366 C 1072.11 -3.27289 4.92581 0
M  V30 11367 H 1071.04 -0.539022 0.52723 0
M  V30 11368 H 1073.69 -0.735581 1.68111 0
M  V30 11369 H 1072.07 -3.31815 2.16135 0
M  V30 11370 H 1073.24 -1.49082 4.36017 0
M  V30 11371 H 1071.56 -1.49589 3.88603 0
M  V30 11372 H 1074.15 -4.21312 3.29242 0
M  V30 11373 H 1074.5 -3.83383 1.62245 0
M  V30 11374 H 1075.03 -2.7187 2.90399 0
M  V30 11375 H 1071.77 -2.8598 5.89827 0
M  V30 11376 H 1071.29 -3.91178 4.54687 0
M  V30 11377 H 1072.97 -3.9282 5.14103 0
M  V30 11378 N 1073.1 -1.28322 -0.914942 0
M  V30 11379 C 1074.06 -1.12169 -1.99877 0
M  V30 11380 C 1075.06 -0.0617252 -1.60681 0
M  V30 11381 O 1076.25 -0.307405 -1.71466 0
M  V30 11382 C 1073.39 -0.711959 -3.33383 0
M  V30 11383 H 1074.58 -2.08425 -2.15636 0
M  V30 11384 H 1072.13 -1.11291 -1.09745 0
M  V30 11385 H 1072.87 0.251418 -3.23324 0
M  V30 11386 H 1072.65 -1.47764 -3.63192 0
M  V30 11387 H 1074.14 -0.621558 -4.12948 0
M  V30 11388 N 1074.58 1.12322 -1.10551 0
M  V30 11389 C 1075.81 1.87679 -0.87087 0
M  V30 11390 C 1076.22 1.79711 0.578733 0
M  V30 11391 O 1075.58 1.17185 1.39907 0
M  V30 11392 C 1075.63 3.36846 -1.31213 0
M  V30 11393 O 1075.35 3.44626 -2.70489 0
M  V30 11394 C 1076.85 4.29138 -1.11156 0
M  V30 11395 H 1074.07 0.593788 -0.3125 0
M  V30 11396 H 1076.62 1.42116 -1.47048 0
M  V30 11397 H 1074.77 3.79948 -0.756169 0
M  V30 11398 H 1075.18 4.37441 -2.89389 0
M  V30 11399 H 1076.66 5.32082 -1.46944 0
M  V30 11400 H 1077.14 4.39171 -0.0502963 0
M  V30 11401 H 1077.74 3.91818 -1.65405 0
M  V30 11402 N 1076.06 0.894434 1.2976 0
M  V30 11403 C 1076.97 0.372622 2.31622 0
M  V30 11404 C 1077.98 -0.52996 1.65733 0
M  V30 11405 O 1079.16 -0.420807 1.96955 0
M  V30 11406 C 1076.22 -0.396076 3.4443 0
M  V30 11407 C 1075.28 0.537394 4.25923 0
M  V30 11408 C 1074.52 -0.194713 5.33345 0
M  V30 11409 O 1074.74 -1.41943 5.52457 0
M  V30 11410 O 1073.67 0.460055 6.00139 0
M  V30 11411 H 1077.5 1.21756 2.78225 0
M  V30 11412 H 1075.09 0.65858 1.34101 0
M  V30 11413 H 1076.97 -0.830962 4.13126 0
M  V30 11414 H 1075.64 -1.21716 2.99945 0
M  V30 11415 H 1074.55 1.02129 3.5989 0
M  V30 11416 H 1075.88 1.32475 4.74037 0
M  V30 11417 N 1077.53 -1.43282 0.656365 0
M  V30 11418 C 1078.81 -1.9534 0.100816 0
M  V30 11419 C 1079.19 -1.59755 -1.37992 0
M  V30 11420 O 1078.54 -0.884264 -2.10697 0
M  V30 11421 C 1078.75 -3.47237 0.35038 0
M  V30 11422 C 1080.1 -4.23822 0.257001 0
M  V30 11423 O 1081.12 -3.55073 0.283111 0
M  V30 11424 O 1079.98 -5.46192 0.183397 0
M  V30 11425 H 1077.07 -0.826963 -0.00780287 0
M  V30 11426 H 1079.62 -1.53205 0.72982 0
M  V30 11427 H 1078.39 -3.66276 1.37685 0
M  V30 11428 H 1078.02 -3.96378 -0.311539 0
M  V30 11429 N 1079.01 -0.398486 -1.52479 0
M  V30 11430 C 1079.96 0.432212 -2.26717 0
M  V30 11431 C 1080.93 1.05007 -1.28696 0
M  V30 11432 O 1082.12 1.07636 -1.57541 0
M  V30 11433 C 1079.26 1.54868 -3.08399 0
M  V30 11434 C 1078.37 0.952779 -4.21362 0
M  V30 11435 C 1077.5 2.04106 -4.90423 0
M  V30 11436 C 1076.54 1.42153 -5.95364 0
M  V30 11437 N 1075.68 2.44951 -6.57984 0
M  V30 11438 H 1080.52 -0.207303 -2.97278 0
M  V30 11439 H 1078.06 -0.114066 -1.46657 0
M  V30 11440 H 1080.01 2.20684 -3.54054 0
M  V30 11441 H 1078.64 2.15837 -2.4003 0
M  V30 11442 H 1077.7 0.183962 -3.79955 0
M  V30 11443 H 1079.01 0.460131 -4.96673 0
M  V30 11444 H 1078.16 2.77672 -5.39429 0
M  V30 11445 H 1076.9 2.56733 -4.14656 0
M  V30 11446 H 1075.91 0.671161 -5.45688 0
M  V30 11447 H 1077.13 0.903093 -6.73068 0
M  V30 11448 H 1075.08 2.9673 -5.85053 0
M  V30 11449 H 1074.99 2.00468 -7.28937 0
M  V30 11450 H 1076.26 3.18119 -7.11632 0
M  V30 11451 N 1080.49 1.57075 -0.12858 0
M  V30 11452 C 1081.72 2.00305 0.537839 0
M  V30 11453 C 1082.14 1.00787 1.58819 0
M  V30 11454 O 1081.5 -0.0190839 1.8129 0
M  V30 11455 C 1081.55 3.42371 1.13201 0
M  V30 11456 O 1080.65 3.45786 2.24735 0
M  V30 11457 H 1079.99 0.650456 0.133428 0
M  V30 11458 H 1082.52 2.03415 -0.219882 0
M  V30 11459 H 1082.53 3.80783 1.4652 0
M  V30 11460 H 1081.21 4.14315 0.362713 0
M  V30 11461 H 1079.78 3.19201 1.92783 0
M  V30 11462 N 1081.97 -0.145205 1.5693 0
M  V30 11463 C 1083.38 -0.705089 1.72874 0
M  V30 11464 C 1083.73 -1.81577 0.743261 0
M  V30 11465 O 1082.86 -2.16214 -0.0897153 0
M  V30 11466 C 1083.45 -1.28578 3.13454 0
M  V30 11467 C 1082.01 -1.79221 3.30994 0
M  V30 11468 C 1081.16 -0.681392 2.68798 0
M  V30 11469 H 1084.11 0.0804798 1.58496 0
M  V30 11470 H 1084.13 -2.15558 3.13552 0
M  V30 11471 H 1083.64 -0.477186 3.85155 0
M  V30 11472 H 1081.74 -2.62642 2.64292 0
M  V30 11473 H 1081.86 -1.91969 4.38959 0
M  V30 11474 H 1080.22 -1.10847 2.29314 0
M  V30 11475 H 1081 0.115786 3.43105 0
M  V30 11476 N 1083.45 -1.52049 -0.414609 0
M  V30 11477 C 1084.69 -1.66084 -1.16379 0
M  V30 11478 C 1085.03 -0.386932 -1.90306 0
M  V30 11479 O 1084.3 0.614441 -1.8454 0
M  V30 11480 C 1084.58 -2.87927 -2.16264 0
M  V30 11481 C 1084.44 -4.25353 -1.46269 0
M  V30 11482 C 1085.76 -3.05289 -3.16996 0
M  V30 11483 H 1082.88 -0.604414 -0.421726 0
M  V30 11484 H 1085.52 -1.8459 -0.450177 0
M  V30 11485 H 1083.67 -2.7228 -2.77121 0
M  V30 11486 H 1085.34 -4.52717 -0.885743 0
M  V30 11487 H 1083.58 -4.27006 -0.76472 0
M  V30 11488 H 1084.25 -5.06644 -2.19126 0
M  V30 11489 H 1086.73 -3.19798 -2.66212 0
M  V30 11490 H 1085.61 -3.92065 -3.84156 0
M  V30 11491 H 1085.87 -2.1836 -3.84411 0
M  V30 11492 N 1084.93 0.6715 -1.42579 0
M  V30 11493 C 1086.2 1.42766 -1.33706 0
M  V30 11494 C 1086.58 2.11086 0.0239748 0
M  V30 11495 O 1085.93 2.03479 1.03964 0
M  V30 11496 C 1086.14 2.42739 -2.50756 0
M  V30 11497 C 1087.49 3.07284 -2.93021 0
M  V30 11498 O 1088.51 2.53066 -2.50671 0
M  V30 11499 O 1087.37 4.05541 -3.66331 0
M  V30 11500 H 1084.47 0.636955 -0.527463 0
M  V30 11501 H 1087.01 0.699946 -1.54593 0
M  V30 11502 H 1085.78 1.91076 -3.41476 0
M  V30 11503 H 1085.41 3.22986 -2.31874 0
M  V30 11504 N 1086.4 1.28806 0.908124 0
M  V30 11505 C 1087.63 1.19153 1.69146 0
M  V30 11506 C 1088.05 -0.249056 1.8715 0
M  V30 11507 O 1087.4 -1.16772 1.40251 0
M  V30 11508 C 1087.45 1.89167 3.08055 0
M  V30 11509 O 1087.18 3.27599 2.90879 0
M  V30 11510 C 1088.68 1.85886 4.02444 0
M  V30 11511 H 1085.9 0.413359 0.528559 0
M  V30 11512 H 1088.44 1.7003 1.13622 0
M  V30 11513 H 1086.6 1.42146 3.60379 0
M  V30 11514 H 1087.01 3.62743 3.78837 0
M  V30 11515 H 1088.48 2.39454 4.97359 0
M  V30 11516 H 1088.96 0.832483 4.31238 0
M  V30 11517 H 1089.57 2.32612 3.5605 0
M  V30 11518 O 1087.92 -1.04325 1.23282 0
M  V30 11519 H 1088.61 -1.65689 1.00334 0
M  V30 END ATOM
M  V30 BEGIN BOND
M  V30 END BOND
M  V30 END CTAB
M  END
$$$$
