drugbank_target|Q8TF76 Serine/threonine-protein kinase haspin (DB04604; DB07698; DB07995; DB08004)
 OpenBabel12092120403D

  0  0  0     0  0            999 V3000
M  V30 BEGIN CTAB
M  V30 COUNTS 12412 12548 0 0 0
M  V30 BEGIN ATOM
M  V30 1 H -0.908 1.98254 -0.117106 0
M  V30 2 N 0 1.576 0 0
M  V30 3 C 0.933 2.03868 1.02534 0
M  V30 4 C 1.911 0.928543 1.3348 0
M  V30 5 O 3.095 1.19667 1.45644 0
M  V30 6 C 0.222 2.43627 2.35294 0
M  V30 7 C -0.732 3.65373 2.2001 0
M  V30 8 S 0.101 5.13292 1.52614 0
M  V30 9 C 1.257 5.56322 2.86805 0
M  V30 10 H 1.49 2.90518 0.631377 0
M  V30 11 H -0.977 1.52953 0.210867 0
M  V30 12 H 0.981 2.67203 3.11629 0
M  V30 13 H -0.358 1.57376 2.7183 0
M  V30 14 H -1.165 3.90944 3.18086 0
M  V30 15 H -1.563 3.418 1.51819 0
M  V30 16 H 0.729 5.58782 3.83104 0
M  V30 17 H 1.672 6.56266 2.65933 0
M  V30 18 H 2.08 4.83886 2.90714 0
M  V30 19 N 1.4781 -0.272755 1.55222 0
M  V30 20 C 2.4411 -1.32041 1.87344 0
M  V30 21 C 3.4411 -1.42342 0.74803 0
M  V30 22 O 4.6311 -1.41488 1.0162 0
M  V30 23 C 1.7631 -2.70173 2.07893 0
M  V30 24 H 2.9561 -1.04789 2.80997 0
M  V30 25 H 0.5091 -0.51083 1.47717 0
M  V30 26 H 1.2441 -3.02605 1.16622 0
M  V30 27 H 1.0291 -2.64082 2.89833 0
M  V30 28 H 2.5191 -3.45869 2.34017 0
M  V30 29 N 2.9562 -1.48159 -0.537278 0
M  V30 30 C 3.9192 -1.61665 -1.62472 0
M  V30 31 C 4.9192 -0.490395 -1.5314 0
M  V30 32 O 6.1092 -0.755998 -1.5694 0
M  V30 33 C 3.2412 -1.57997 -3.02076 0
M  V30 34 H 4.4342 -2.58621 -1.51839 0
M  V30 35 H 1.9872 -1.36647 -0.758771 0
M  V30 36 H 2.7222 -0.624913 -3.18222 0
M  V30 37 H 2.5072 -2.39755 -3.10258 0
M  V30 38 H 3.9972 -1.70627 -3.81151 0
M  V30 39 N 4.4343 0.785586 -1.36625 0
M  V30 40 C 5.6593 1.57963 -1.34397 0
M  V30 41 C 6.0843 1.87964 0.071526 0
M  V30 42 O 5.4423 1.48182 1.0446 0
M  V30 43 C 5.4903 2.87511 -2.17646 0
M  V30 44 O 4.5943 3.81281 -1.57158 0
M  V30 45 H 3.9353 0.479014 -0.459828 0
M  V30 46 H 6.4653 0.973411 -1.79961 0
M  V30 47 H 6.4753 3.36745 -2.30362 0
M  V30 48 H 5.1503 2.65002 -3.20541 0
M  V30 49 H 3.7273 3.39885 -1.53403 0
M  V30 50 N 5.9124 1.20967 1.01018 0
M  V30 51 C 6.8424 0.988272 2.11555 0
M  V30 52 C 7.8234 -0.0849778 1.69888 0
M  V30 53 O 9.0084 0.0738202 1.9406 0
M  V30 54 C 6.1384 0.546528 3.42973 0
M  V30 55 C 5.0924 1.56375 3.9841 0
M  V30 56 C 4.4184 0.97842 5.25672 0
M  V30 57 C 5.7184 2.94922 4.31066 0
M  V30 58 H 7.4124 1.91276 2.30334 0
M  V30 59 H 4.9584 0.921073 1.1069 0
M  V30 60 H 6.9114 0.378839 4.19694 0
M  V30 61 H 5.6354 -0.413598 3.23971 0
M  V30 62 H 4.2944 1.71891 3.23804 0
M  V30 63 H 3.9424 0.0101688 5.02999 0
M  V30 64 H 3.6424 1.65784 5.63728 0
M  V30 65 H 5.1664 0.821939 6.05043 0
M  V30 66 H 6.5804 2.8288 4.9865 0
M  V30 67 H 4.9774 3.5983 4.80253 0
M  V30 68 H 6.0474 3.4616 3.39561 0
M  V30 69 N 7.3905 -1.2043 1.01659 0
M  V30 70 C 8.8015 -1.71517 0.737482 0
M  V30 71 C 9.1525 -1.81547 -0.743973 0
M  V30 72 O 8.2775 -1.47803 -1.58061 0
M  V30 73 C 8.8725 -3.11515 1.33206 0
M  V30 74 C 7.4315 -3.59912 1.10183 0
M  V30 75 C 6.5785 -2.37116 1.43776 0
M  V30 76 H 9.5295 -1.05444 1.18606 0
M  V30 77 H 9.5505 -3.73575 0.722636 0
M  V30 78 H 9.0625 -3.04182 2.41028 0
M  V30 79 H 7.1635 -3.72577 0.0412756 0
M  V30 80 H 7.2765 -4.44731 1.78188 0
M  V30 81 H 5.6405 -2.39857 0.856778 0
M  V30 82 H 6.4235 -2.32424 2.52654 0
M  V30 83 N 8.8686 -0.792821 -1.36206 0
M  V30 84 C 10.1166 -0.366062 -1.98757 0
M  V30 85 C 10.4376 1.0668 -1.63231 0
M  V30 86 O 9.7076 1.73587 -0.907978 0
M  V30 87 H 8.2876 -0.132364 -0.735179 0
M  V30 88 H 10.9496 -1.01562 -1.66347 0
M  V30 89 H 10.0456 -0.460638 -3.08682 0
M  V30 90 N 10.3467 1.47872 -0.545128 0
M  V30 91 C 11.7577 1.86384 -0.108581 0
M  V30 92 C 12.1087 1.45309 1.31832 0
M  V30 93 O 11.2337 0.850641 1.9898 0
M  V30 94 C 11.8287 3.38265 -0.190274 0
M  V30 95 C 10.3877 3.75914 0.191164 0
M  V30 96 C 9.5347 2.71926 -0.543273 0
M  V30 97 H 12.4857 1.39561 -0.755537 0
M  V30 98 H 12.5067 3.75831 0.594217 0
M  V30 99 H 12.0187 3.6813 -1.2289 0
M  V30 100 H 10.1197 3.51665 1.23136 0
M  V30 101 H 10.2327 4.78836 -0.158987 0
M  V30 102 H 8.5967 2.54697 0.0122495 0
M  V30 103 H 9.3797 3.04634 -1.58282 0
M  V30 104 N 11.8248 0.280983 1.55075 0
M  V30 105 C 13.0728 -0.333455 1.9933 0
M  V30 106 C 13.3938 -1.55937 1.17085 0
M  V30 107 O 12.6638 -1.94143 0.261805 0
M  V30 108 H 11.2438 -0.126197 0.736263 0
M  V30 109 H 13.9058 0.387678 1.91005 0
M  V30 110 H 13.0018 -0.619292 3.05894 0
M  V30 111 N 13.3029 -1.57598 0.00835791 0
M  V30 112 C 14.5279 -1.95617 -0.689103 0
M  V30 113 C 14.9529 -0.883753 -1.66046 0
M  V30 114 O 14.3109 0.157352 -1.80616 0
M  V30 115 C 14.3589 -3.32736 -1.38994 0
M  V30 116 O 13.4629 -3.27631 -2.50463 0
M  V30 117 H 12.8039 -0.638379 -0.182668 0
M  V30 118 H 15.3339 -2.045 0.064036 0
M  V30 119 H 15.3439 -3.68494 -1.75147 0
M  V30 120 H 14.0189 -4.1034 -0.677778 0
M  V30 121 H 12.5959 -3.03561 -2.16576 0
M  V30 122 N 14.781 0.264519 -1.55364 0
M  V30 123 C 16.197 0.61215 -1.47394 0
M  V30 124 C 16.397 1.89134 -0.695018 0
M  V30 125 O 15.453 2.51563 -0.217275 0
M  V30 126 C 16.766 0.731235 -2.91674 0
M  V30 127 C 18.314 0.82473 -3.01939 0
M  V30 128 C 18.789 0.975522 -4.4749 0
M  V30 129 N 20.28 1.04083 -4.51354 0
M  V30 130 C 21.015 1.17646 -5.61201 0
M  V30 131 N 20.511 1.27874 -6.80896 0
M  V30 132 N 22.304 1.20823 -5.48961 0
M  V30 133 H 14.455 -0.575456 -2.04456 0
M  V30 134 H 16.718 -0.196099 -0.927496 0
M  V30 135 H 16.424 -0.138392 -3.51428 0
M  V30 136 H 16.298 1.60883 -3.41169 0
M  V30 137 H 18.685 1.68482 -2.42276 0
M  V30 138 H 18.766 -0.0776479 -2.55682 0
M  V30 139 H 18.41 0.120058 -5.07758 0
M  V30 140 H 18.34 1.89268 -4.91412 0
M  V30 141 H 20.831 0.973846 -3.65136 0
M  V30 142 H 21.144 1.38081 -7.60364 0
M  V30 143 H 19.489 1.24863 -6.83692 0
M  V30 144 H 22.68 1.12469 -4.54388 0
M  V30 145 H 22.853 1.31049 -6.3461 0
M  V30 146 N 16.2591 1.48442 0.529413 0
M  V30 147 C 17.1891 1.65902 1.64313 0
M  V30 148 C 18.1701 0.507897 1.6234 0
M  V30 149 O 19.3551 0.740503 1.79528 0
M  V30 150 C 16.4851 1.69911 3.02898 0
M  V30 151 C 15.4391 2.8453 3.19729 0
M  V30 152 C 14.7651 2.73629 4.59381 0
M  V30 153 C 16.0651 4.25821 3.02447 0
M  V30 154 H 17.7591 2.5914 1.49955 0
M  V30 155 H 15.3051 1.24709 0.719982 0
M  V30 156 H 17.2581 1.80715 3.80684 0
M  V30 157 H 15.9821 0.732524 3.18279 0
M  V30 158 H 14.6411 2.73283 2.44361 0
M  V30 159 H 14.2891 1.74938 4.71599 0
M  V30 160 H 13.9891 3.50541 4.71588 0
M  V30 161 H 15.5131 2.86401 5.39265 0
M  V30 162 H 16.9271 4.37898 3.70024 0
M  V30 163 H 15.3241 5.03735 3.26146 0
M  V30 164 H 16.3941 4.42244 1.98867 0
M  V30 165 N 17.7372 -0.778329 1.37039 0
M  V30 166 C 18.9842 -1.53665 1.31884 0
M  V30 167 C 19.3122 -1.9425 -0.0986303 0
M  V30 168 O 18.5672 -1.63832 -1.07041 0
M  V30 169 C 18.8662 -2.81845 2.19768 0
M  V30 170 C 18.5322 -2.60345 3.68146 0
M  V30 171 C 17.1942 -2.5419 4.08584 0
M  V30 172 C 19.5462 -2.40923 4.62175 0
M  V30 173 C 16.8742 -2.26594 5.41177 0
M  V30 174 C 19.2262 -2.14852 5.94997 0
M  V30 175 C 17.8902 -2.07137 6.34547 0
M  V30 176 H 17.1602 -0.562299 0.482598 0
M  V30 177 H 19.8072 -0.897069 1.69189 0
M  V30 178 H 18.1122 -3.50328 1.75436 0
M  V30 179 H 19.8092 -3.39692 2.13097 0
M  V30 180 H 16.3992 -2.65996 3.36072 0
M  V30 181 H 20.5832 -2.44673 4.31797 0
M  V30 182 H 15.8392 -2.19111 5.70789 0
M  V30 183 H 20.0132 -1.98822 6.67415 0
M  V30 184 H 17.6402 -1.85518 7.37216 0
M  V30 185 N 19.2153 -1.21501 -1.00376 0
M  V30 186 C 20.6313 -0.972629 -1.26539 0
M  V30 187 C 20.8313 0.340257 -1.98606 0
M  V30 188 O 19.8873 1.06561 -2.28913 0
M  V30 189 C 21.2003 -2.16404 -2.08781 0
M  V30 190 C 22.7483 -2.20643 -2.22004 0
M  V30 191 C 23.2233 -3.39306 -3.07629 0
M  V30 192 N 24.7143 -3.39401 -3.15217 0
M  V30 193 C 25.4493 -4.27867 -3.81729 0
M  V30 194 N 24.9453 -5.26533 -4.5026 0
M  V30 195 N 26.7383 -4.15672 -3.78382 0
M  V30 196 H 18.8893 -2.05929 -0.520281 0
M  V30 197 H 21.1523 -0.901803 -0.292328 0
M  V30 198 H 20.8583 -3.11554 -1.63178 0
M  V30 199 H 20.7323 -2.15567 -3.09533 0
M  V30 200 H 23.1193 -1.26048 -2.66825 0
M  V30 201 H 23.2003 -2.25523 -1.20718 0
M  V30 202 H 22.8443 -4.34195 -2.63509 0
M  V30 203 H 22.7743 -3.31665 -4.09031 0
M  V30 204 H 25.2653 -2.67997 -2.66432 0
M  V30 205 H 25.5783 -5.90337 -4.98721 0
M  V30 206 H 23.9233 -5.30457 -4.49044 0
M  V30 207 H 27.1143 -3.3785 -3.23998 0
M  V30 208 H 27.2873 -4.84825 -4.2994 0
M  V30 209 N 20.6934 1.19889 -1.02296 0
M  V30 210 C 21.9214 1.9339 -0.735399 0
M  V30 211 C 22.3364 1.75148 0.704887 0
M  V30 212 O 21.6934 1.06954 1.47875 0
M  V30 213 C 21.7444 3.45313 -1.06962 0
M  V30 214 O 21.4654 3.62964 -2.45334 0
M  V30 215 C 22.9664 4.35948 -0.804021 0
M  V30 216 H 20.1864 0.61448 -0.269546 0
M  V30 217 H 22.7304 1.522 -1.36585 0
M  V30 218 H 20.8854 3.84359 -0.484455 0
M  V30 219 H 21.2994 4.56886 -2.57595 0
M  V30 220 H 22.7734 5.41174 -1.0879 0
M  V30 221 H 23.2504 4.3842 0.261691 0
M  V30 222 H 23.8564 4.02574 -1.37164 0
M  V30 223 N 22.1715 0.800033 1.35784 0
M  V30 224 C 23.4015 0.389041 2.02904 0
M  V30 225 C 23.8095 -1.0027 1.60445 0
M  V30 226 O 23.1525 -1.65633 0.794453 0
M  V30 227 C 23.2145 0.385495 3.57427 0
M  V30 228 C 22.8785 1.72662 4.23127 0
M  V30 229 C 23.8755 2.68385 4.4527 0
M  V30 230 C 21.5605 2.00883 4.60381 0
M  V30 231 C 23.5545 3.90517 5.03761 0
M  V30 232 C 21.2415 3.2328 5.18588 0
M  V30 233 C 22.2395 4.17915 5.40218 0
M  V30 234 O 21.9275 5.38153 5.97199 0
M  V30 235 H 21.6595 0.157032 0.657508 0
M  V30 236 H 24.2135 1.08311 1.74522 0
M  V30 237 H 22.4435 -0.365128 3.84972 0
M  V30 238 H 24.1325 -0.00228296 4.059 0
M  V30 239 H 24.8985 2.47872 4.16874 0
M  V30 240 H 20.7775 1.28037 4.42863 0
M  V30 241 H 24.3215 4.64395 5.2056 0
M  V30 242 H 20.2185 3.43667 5.4641 0
M  V30 243 H 20.9865 5.3936 6.15656 0
M  V30 244 N 23.6496 -1.47581 0.552962 0
M  V30 245 C 24.8976 -2.02082 0.0272703 0
M  V30 246 C 25.2186 -1.4301 -1.32563 0
M  V30 247 O 24.4886 -0.603745 -1.86365 0
M  V30 248 H 23.0686 -0.746966 0.00709182 0
M  V30 249 H 25.7306 -1.81033 0.722008 0
M  V30 250 H 24.8266 -3.12034 -0.0639951 0
M  V30 251 N 25.1277 -0.289203 -1.54924 0
M  V30 252 C 26.0907 0.579144 -2.21762 0
M  V30 253 C 27.0907 1.07047 -1.1999 0
M  V30 254 O 28.2807 0.968384 -1.44803 0
M  V30 255 C 25.4127 1.80055 -2.8947 0
M  V30 256 H 26.6057 -0.00464908 -2.999 0
M  V30 257 H 24.1587 -0.0399306 -1.56249 0
M  V30 258 H 24.8937 2.42449 -2.15381 0
M  V30 259 H 24.6787 1.45602 -3.64064 0
M  V30 260 H 26.1687 2.41773 -3.40493 0
M  V30 261 N 26.6058 1.57591 -0.0167156 0
M  V30 262 C 27.5688 2.08393 0.954204 0
M  V30 263 C 28.5688 0.996531 1.26198 0
M  V30 264 O 29.7588 1.25858 1.20438 0
M  V30 265 C 26.8908 2.5394 2.27436 0
M  V30 266 H 28.0838 2.95455 0.514451 0
M  V30 267 H 25.6368 1.54582 0.231089 0
M  V30 268 H 26.3718 1.70171 2.76066 0
M  V30 269 H 26.1568 3.33371 2.06412 0
M  V30 270 H 27.6468 2.93512 2.97053 0
M  V30 271 N 28.0839 -0.256276 1.55502 0
M  V30 272 C 29.3609 -1.00789 1.67633 0
M  V30 273 C 29.7409 -2.03706 0.553826 0
M  V30 274 O 29.0889 -2.24145 -0.443969 0
M  V30 275 C 29.2989 -1.64968 3.07549 0
M  V30 276 C 30.6469 -2.15505 3.65845 0
M  V30 277 O 31.6709 -1.74925 3.1029 0
M  V30 278 O 30.5299 -2.89986 4.63217 0
M  V30 279 H 27.6239 -0.468553 0.681459 0
M  V30 280 H 30.1699 -0.250806 1.67836 0
M  V30 281 H 28.9419 -0.904785 3.80696 0
M  V30 282 H 28.5649 -2.47321 3.11317 0
M  V30 283 N 29.562 -1.4872 -0.521534 0
M  V30 284 C 30.81 -1.56857 -1.27437 0
M  V30 285 C 31.131 -0.247982 -1.93417 0
M  V30 286 O 30.401 0.731151 -1.81744 0
M  V30 287 H 28.981 -0.577885 -0.473347 0
M  V30 288 H 31.643 -1.85233 -0.606205 0
M  V30 289 H 30.739 -2.35402 -2.0492 0
M  V30 290 N 31.0401 0.771051 -1.3745 0
M  V30 291 C 32.4561 1.07171 -1.18265 0
M  V30 292 C 32.6561 2.01491 -0.019287 0
M  V30 293 O 31.7121 2.44244 0.640408 0
M  V30 294 C 33.0251 1.66854 -2.50161 0
M  V30 295 C 34.5731 1.79109 -2.56689 0
M  V30 296 C 35.0481 2.42205 -3.88717 0
M  V30 297 N 36.5391 2.49655 -3.90162 0
M  V30 298 C 37.2741 2.9933 -4.8907 0
M  V30 299 N 36.7701 3.49172 -5.98374 0
M  V30 300 N 38.5631 2.9821 -4.76474 0
M  V30 301 H 30.7141 0.144796 -2.11906 0
M  V30 302 H 32.9771 0.126863 -0.939473 0
M  V30 303 H 32.6831 1.05017 -3.35655 0
M  V30 304 H 32.5571 2.6614 -2.673 0
M  V30 305 H 34.9441 2.40077 -1.71601 0
M  V30 306 H 35.0251 0.785757 -2.43433 0
M  V30 307 H 34.6691 1.81875 -4.74219 0
M  V30 308 H 34.5991 3.43345 -3.99276 0
M  V30 309 H 37.0901 2.14383 -3.11205 0
M  V30 310 H 37.4031 3.8548 -6.69795 0
M  V30 311 H 35.7481 3.47275 -6.02018 0
M  V30 312 H 38.9391 2.58572 -3.90203 0
M  V30 313 H 39.1121 3.36613 -5.53711 0
M  V30 314 N 32.5182 1.22032 0.997298 0
M  V30 315 C 33.9342 0.979326 1.26021 0
M  V30 316 C 34.1342 -0.32972 1.98784 0
M  V30 317 O 33.1902 -1.05345 2.29475 0
M  V30 318 C 34.5032 2.17509 2.07631 0
M  V30 319 C 36.0512 2.21817 2.2083 0
M  V30 320 C 36.5262 3.40933 3.05825 0
M  V30 321 N 38.0172 3.41067 3.13412 0
M  V30 322 C 38.7522 4.29885 3.79455 0
M  V30 323 N 38.2482 5.28914 4.47462 0
M  V30 324 N 40.0412 4.17673 3.76173 0
M  V30 325 H 32.1922 2.06202 0.509352 0
M  V30 326 H 34.4552 0.90334 0.287541 0
M  V30 327 H 34.1612 3.12415 1.61524 0
M  V30 328 H 34.0352 2.17206 3.08385 0
M  V30 329 H 36.4222 1.27462 2.66153 0
M  V30 330 H 36.5032 2.2616 1.1952 0
M  V30 331 H 36.1472 4.35586 2.61203 0
M  V30 332 H 36.0772 3.33829 4.07266 0
M  V30 333 H 38.5682 2.69406 2.65007 0
M  V30 334 H 38.8812 5.92973 4.95583 0
M  V30 335 H 37.2262 5.32831 4.46224 0
M  V30 336 H 40.4172 3.39564 3.22202 0
M  V30 337 H 40.5902 4.87098 4.27363 0
M  V30 338 N 33.9963 -1.19345 1.0293 0
M  V30 339 C 34.9283 -2.22036 0.56857 0
M  V30 340 C 35.9413 -1.58865 -0.355779 0
M  V30 341 O 37.1303 -1.77851 -0.152103 0
M  V30 342 C 34.2303 -3.38363 -0.190752 0
M  V30 343 C 33.4033 -4.31118 0.738643 0
M  V30 344 C 32.4623 -5.26194 0.0246497 0
M  V30 345 O 31.4883 -5.65461 0.651354 0
M  V30 346 N 32.6903 -5.66971 -1.24594 0
M  V30 347 H 35.4553 -2.6219 1.45177 0
M  V30 348 H 33.0163 -1.34015 0.908381 0
M  V30 349 H 35.0083 -3.98981 -0.677961 0
M  V30 350 H 33.5783 -2.96994 -0.975366 0
M  V30 351 H 32.7983 -3.68276 1.40593 0
M  V30 352 H 34.0863 -4.90001 1.37029 0
M  V30 353 H 33.4843 -5.37104 -1.77583 0
M  V30 354 H 32.0413 -6.2984 -1.67764 0
M  V30 355 N 35.4744 -0.807222 -1.35358 0
M  V30 356 C 36.8904 -0.491038 -1.51858 0
M  V30 357 C 37.0904 0.987648 -1.75635 0
M  V30 358 O 36.1464 1.77265 -1.79815 0
M  V30 359 C 37.4594 -1.33695 -2.69344 0
M  V30 360 C 39.0074 -1.33246 -2.83222 0
M  V30 361 C 39.4824 -2.1625 -4.03733 0
M  V30 362 N 40.9734 -2.1379 -4.10911 0
M  V30 363 C 41.7084 -2.74772 -5.03277 0
M  V30 364 N 41.2044 -3.44684 -6.0097 0
M  V30 365 N 42.9974 -2.6441 -4.96028 0
M  V30 366 H 35.1484 -1.76485 -1.18181 0
M  V30 367 H 37.4114 -0.751199 -0.578276 0
M  V30 368 H 37.1174 -2.38634 -2.58354 0
M  V30 369 H 36.9914 -0.990618 -3.6396 0
M  V30 370 H 39.3784 -0.290911 -2.93663 0
M  V30 371 H 39.4594 -1.71866 -1.89461 0
M  V30 372 H 39.1034 -3.20445 -3.94052 0
M  V30 373 H 39.0334 -1.74989 -4.96675 0
M  V30 374 H 41.5244 -1.62923 -3.40976 0
M  V30 375 H 41.8374 -3.88501 -6.68047 0
M  V30 376 H 40.1824 -3.48788 -6.01142 0
M  V30 377 H 43.3734 -2.0938 -4.18662 0
M  V30 378 H 43.5464 -3.12225 -5.6782 0
M  V30 379 N 36.9525 1.47285 -0.560781 0
M  V30 380 C 38.3685 1.58065 -0.22081 0
M  V30 381 C 38.5685 1.55892 1.27671 0
M  V30 382 O 37.6245 1.46422 2.0571 0
M  V30 383 C 38.9375 2.88418 -0.850625 0
M  V30 384 C 40.4855 3.02009 -0.822184 0
M  V30 385 C 40.9605 4.35066 -1.43113 0
M  V30 386 N 42.4515 4.41711 -1.39448 0
M  V30 387 C 43.1865 5.43237 -1.83525 0
M  V30 388 N 42.6825 6.51555 -2.35474 0
M  V30 389 N 44.4755 5.34304 -1.74574 0
M  V30 390 H 36.6265 1.46941 -1.53369 0
M  V30 391 H 38.8895 0.699558 -0.639783 0
M  V30 392 H 38.5955 2.95755 -1.9032 0
M  V30 393 H 38.4695 3.75612 -0.345773 0
M  V30 394 H 40.8565 2.94266 0.221714 0
M  V30 395 H 40.9375 2.16347 -1.36483 0
M  V30 396 H 40.5815 4.43565 -2.47412 0
M  V30 397 H 40.5115 5.19465 -0.863899 0
M  V30 398 H 43.0025 3.64027 -1.01452 0
M  V30 399 H 43.3155 7.25203 -2.67021 0
M  V30 400 H 41.6605 6.52435 -2.39487 0
M  V30 401 H 44.8515 4.48581 -1.33763 0
M  V30 402 H 45.0245 6.13288 -2.09242 0
M  V30 403 N 38.4306 0.297415 1.54768 0
M  V30 404 C 39.8416 -0.195947 1.85669 0
M  V30 405 C 40.1926 -1.53707 1.21937 0
M  V30 406 O 39.3176 -2.10164 0.515754 0
M  V30 407 C 39.9126 -0.362318 3.36857 0
M  V30 408 C 38.4716 -0.799901 3.67802 0
M  V30 409 C 37.6186 0.0938578 2.77141 0
M  V30 410 H 40.5696 0.518538 1.4999 0
M  V30 411 H 40.5906 -1.19745 3.61167 0
M  V30 412 H 40.1026 0.613921 3.83214 0
M  V30 413 H 38.2036 -1.78682 3.26961 0
M  V30 414 H 38.3166 -0.621773 4.75048 0
M  V30 415 H 36.6806 -0.426254 2.51108 0
M  V30 416 H 37.4636 1.06639 3.26318 0
M  V30 417 N 39.9087 -1.5758 0.0250728 0
M  V30 418 C 41.1567 -1.91255 -0.653151 0
M  V30 419 C 41.4777 -0.901691 -1.729 0
M  V30 420 O 40.7477 0.0573785 -1.95816 0
M  V30 421 H 39.3277 -0.705942 -0.244243 0
M  V30 422 H 41.9897 -1.94767 0.0719209 0
M  V30 423 H 41.0857 -2.91752 -1.10847 0
M  V30 424 N 41.3868 0.248026 -1.55636 0
M  V30 425 C 42.8028 0.596483 -1.48035 0
M  V30 426 C 43.0028 1.88386 -0.715039 0
M  V30 427 O 42.0588 2.51319 -0.243944 0
M  V30 428 C 43.3718 0.700258 -2.92433 0
M  V30 429 C 44.9198 0.792659 -3.02797 0
M  V30 430 C 45.3948 0.928005 -4.485 0
M  V30 431 N 46.8858 0.992903 -4.52433 0
M  V30 432 C 47.6208 1.11687 -5.62418 0
M  V30 433 N 47.1168 1.20645 -6.82214 0
M  V30 434 N 48.9098 1.14994 -5.50212 0
M  V30 435 H 41.0608 -0.597109 -2.03834 0
M  V30 436 H 43.3238 -0.205925 -0.925364 0
M  V30 437 H 43.0298 -0.175658 -3.51261 0
M  V30 438 H 42.9038 1.57255 -3.42857 0
M  V30 439 H 45.2908 1.65903 -2.4405 0
M  V30 440 H 45.3718 -0.104762 -2.55585 0
M  V30 441 H 45.0158 0.0661971 -5.07857 0
M  V30 442 H 44.9458 1.84045 -4.93391 0
M  V30 443 H 47.4368 0.935064 -3.66149 0
M  V30 444 H 47.7498 1.30008 -7.61786 0
M  V30 445 H 46.0948 1.17605 -6.84977 0
M  V30 446 H 49.2858 1.07643 -4.55555 0
M  V30 447 H 49.4588 1.24311 -6.35965 0
M  V30 448 N 42.8649 1.48995 0.513639 0
M  V30 449 C 43.7749 1.67443 1.64317 0
M  V30 450 C 44.7909 0.556947 1.64846 0
M  V30 451 O 45.9669 0.830082 1.83498 0
M  V30 452 C 43.0319 1.72515 3.00732 0
M  V30 453 C 42.0929 2.96009 3.1093 0
M  V30 454 C 41.3259 3.00829 4.40837 0
M  V30 455 O 41.5489 2.13594 5.28898 0
M  V30 456 O 40.4829 3.93168 4.55744 0
M  V30 457 H 44.3089 2.63106 1.51687 0
M  V30 458 H 41.8939 1.32588 0.688543 0
M  V30 459 H 43.7759 1.78277 3.81831 0
M  V30 460 H 42.4509 0.800278 3.13651 0
M  V30 461 H 41.3579 2.9577 2.29065 0
M  V30 462 H 42.6909 3.87934 3.02933 0
M  V30 463 N 44.343 -0.763751 1.37857 0
M  V30 464 C 45.306 -1.85889 1.34081 0
M  V30 465 C 46.306 -1.58949 0.243277 0
M  V30 466 O 47.496 -1.66882 0.499589 0
M  V30 467 C 44.628 -3.23176 1.08489 0
M  V30 468 H 45.821 -1.90648 2.31502 0
M  V30 469 H 43.374 -0.964367 1.23003 0
M  V30 470 H 44.109 -3.24091 0.116318 0
M  V30 471 H 43.894 -3.44124 1.8794 0
M  V30 472 H 45.384 -4.03254 1.08517 0
M  V30 473 N 45.8211 -1.22559 -0.990812 0
M  V30 474 C 46.7841 -0.998863 -2.0629 0
M  V30 475 C 47.7841 0.0354834 -1.60761 0
M  V30 476 O 48.9741 -0.203231 -1.7301 0
M  V30 477 C 46.1061 -0.509203 -3.37076 0
M  V30 478 H 47.2991 -1.95014 -2.27837 0
M  V30 479 H 44.8521 -1.04456 -1.16269 0
M  V30 480 H 45.5871 0.446335 -3.21214 0
M  V30 481 H 45.3721 -1.25547 -3.71457 0
M  V30 482 H 46.8621 -0.370888 -4.1595 0
M  V30 483 N 47.2992 1.18797 -1.03562 0
M  V30 484 C 48.2312 2.21731 -0.580337 0
M  V30 485 C 49.2442 1.59051 0.347349 0
M  V30 486 O 50.4332 1.77929 0.142669 0
M  V30 487 C 47.5332 3.38459 0.172805 0
M  V30 488 C 46.7062 4.3072 -0.761496 0
M  V30 489 C 45.7652 5.26174 -0.0525547 0
M  V30 490 O 44.7912 5.65108 -0.681333 0
M  V30 491 N 45.9932 5.67624 1.21586 0
M  V30 492 H 48.7582 2.61417 -1.46565 0
M  V30 493 H 46.3192 1.33531 -0.915476 0
M  V30 494 H 48.3112 3.99335 0.656793 0
M  V30 495 H 46.8812 2.97507 0.959602 0
M  V30 496 H 46.1012 3.67525 -1.42544 0
M  V30 497 H 47.3892 4.89267 -1.39626 0
M  V30 498 H 46.7872 5.38038 1.74732 0
M  V30 499 H 45.3442 6.30721 1.64421 0
M  V30 500 N 48.7773 0.814389 1.34928 0
M  V30 501 C 50.0233 0.408167 1.99263 0
M  V30 502 C 50.3783 -1.0154 1.63424 0
M  V30 503 O 49.6713 -1.69607 0.891289 0
M  V30 504 C 49.8653 0.537781 3.53331 0
M  V30 505 C 49.6943 1.9724 4.04137 0
M  V30 506 C 48.4643 2.60245 4.33129 0
M  V30 507 C 50.6623 2.93801 4.2212 0
M  V30 508 N 48.6443 3.95036 4.69914 0
M  V30 509 C 50.0153 4.1348 4.6199 0
M  V30 510 C 52.0703 2.9053 4.04348 0
M  V30 511 C 50.7733 5.3033 4.85945 0
M  V30 512 C 52.7993 4.06589 4.29464 0
M  V30 513 C 52.1613 5.25017 4.69613 0
M  V30 514 H 48.2603 0.197289 0.756704 0
M  V30 515 H 50.8443 1.05728 1.63492 0
M  V30 516 H 49.0153 -0.0813868 3.88315 0
M  V30 517 H 50.7473 0.105389 4.04563 0
M  V30 518 H 47.5023 2.11545 4.23728 0
M  V30 519 H 47.9263 4.64455 4.92555 0
M  V30 520 H 52.5683 2.00115 3.72443 0
M  V30 521 H 50.2863 6.21309 5.16721 0
M  V30 522 H 53.8723 4.05447 4.17257 0
M  V30 523 H 52.7523 6.1333 4.88667 0
M  V30 524 N 50.2554 -1.46986 0.568584 0
M  V30 525 C 51.5024 -2.02441 0.0487986 0
M  V30 526 C 51.8304 -1.44169 -1.30559 0
M  V30 527 O 51.0854 -0.591213 -1.86556 0
M  V30 528 C 51.3844 -3.57306 -0.081836 0
M  V30 529 C 51.0504 -4.34552 1.20313 0
M  V30 530 C 49.7124 -4.55376 1.5552 0
M  V30 531 C 52.0644 -4.79016 2.05411 0
M  V30 532 C 49.3924 -5.17913 2.7565 0
M  V30 533 C 51.7444 -5.42879 3.24754 0
M  V30 534 C 50.4084 -5.61933 3.60261 0
M  V30 535 H 49.6784 -0.740785 0.0178567 0
M  V30 536 H 52.3254 -1.76525 0.742384 0
M  V30 537 H 50.6304 -3.8228 -0.858463 0
M  V30 538 H 52.3274 -3.97876 -0.499546 0
M  V30 539 H 48.9174 -4.18631 0.919014 0
M  V30 540 H 53.1014 -4.62696 1.79516 0
M  V30 541 H 48.3574 -5.30858 3.03315 0
M  V30 542 H 52.5314 -5.76293 3.90973 0
M  V30 543 H 50.1584 -6.10161 4.53439 0
M  V30 544 N 51.7335 -0.305618 -1.54608 0
M  V30 545 C 53.1445 0.186098 -1.8577 0
M  V30 546 C 53.4955 1.53058 -1.22751 0
M  V30 547 O 52.6205 2.09888 -0.526893 0
M  V30 548 C 53.2155 0.344449 -3.37044 0
M  V30 549 C 51.7745 0.780384 -3.68221 0
M  V30 550 C 50.9215 -0.108554 -2.77087 0
M  V30 551 H 53.8725 -0.526485 -1.49712 0
M  V30 552 H 53.8935 1.17828 -3.61796 0
M  V30 553 H 53.4055 -0.634235 -3.82883 0
M  V30 554 H 51.5065 1.76945 -3.27904 0
M  V30 555 H 51.6195 0.596572 -4.75371 0
M  V30 556 H 49.9835 0.412931 -2.5133 0
M  V30 557 H 50.7665 -1.08368 -3.25747 0
M  V30 558 N 53.2116 1.57565 -0.0334293 0
M  V30 559 C 54.6226 1.79746 0.504798 0
M  V30 560 C 54.9736 0.944091 1.71992 0
M  V30 561 O 54.0986 0.155694 2.15839 0
M  V30 562 C 54.6936 3.25997 0.922567 0
M  V30 563 C 53.2526 3.49159 1.40588 0
M  V30 564 C 52.3996 2.74785 0.372633 0
M  V30 565 H 55.3506 1.56565 -0.259436 0
M  V30 566 H 55.3716 3.35945 1.78666 0
M  V30 567 H 54.8836 3.88081 0.0379825 0
M  V30 568 H 52.9846 2.92332 2.31025 0
M  V30 569 H 53.0976 4.57873 1.41028 0
M  V30 570 H 51.4616 2.40391 0.841672 0
M  V30 571 H 52.2446 3.39587 -0.503559 0
M  V30 572 N 54.6897 -0.239769 1.55765 0
M  V30 573 C 55.6217 -1.32001 1.87372 0
M  V30 574 C 56.6347 -1.43944 0.760522 0
M  V30 575 O 57.8237 -1.45167 1.0387 0
M  V30 576 C 54.9237 -2.69779 2.05115 0
M  V30 577 C 54.0967 -2.80014 3.36022 0
M  V30 578 C 53.1557 -3.98684 3.4342 0
M  V30 579 O 52.1817 -3.87877 4.16582 0
M  V30 580 N 53.3837 -5.12176 2.73232 0
M  V30 581 H 56.1487 -1.0522 2.80622 0
M  V30 582 H 53.7097 -0.429857 1.56089 0
M  V30 583 H 55.7017 -3.47517 2.07399 0
M  V30 584 H 54.2717 -2.89237 1.18577 0
M  V30 585 H 53.4917 -1.88896 3.45994 0
M  V30 586 H 54.7797 -2.83808 4.22292 0
M  V30 587 H 54.1777 -5.2385 2.13536 0
M  V30 588 H 52.7347 -5.88022 2.81199 0
M  V30 589 N 56.1678 -1.49265 -0.50573 0
M  V30 590 C 57.4448 -1.49012 -1.26707 0
M  V30 591 C 57.8248 -0.215205 -2.1 0
M  V30 592 O 57.1728 0.802547 -2.13943 0
M  V30 593 C 57.3828 -2.7663 -2.12783 0
M  V30 594 C 58.7308 -3.25932 -2.72127 0
M  V30 595 O 59.7548 -2.77715 -2.23054 0
M  V30 596 O 58.6138 -4.09897 -3.61451 0
M  V30 597 H 55.7078 -0.596197 -0.57313 0
M  V30 598 H 58.2538 -1.61524 -0.52039 0
M  V30 599 H 57.0258 -3.60916 -1.5118 0
M  V30 600 H 56.6488 -2.66956 -2.94653 0
M  V30 601 N 57.6459 0.756429 -1.3826 0
M  V30 602 C 59.0619 1.0591 -1.19395 0
M  V30 603 C 59.2619 2.01459 -0.0406567 0
M  V30 604 O 58.3179 2.44909 0.614467 0
M  V30 605 C 59.6309 1.64191 -2.51916 0
M  V30 606 C 61.1789 1.76376 -2.58574 0
M  V30 607 C 61.6539 2.38069 -3.91264 0
M  V30 608 N 63.1449 2.45503 -3.92788 0
M  V30 609 C 63.8799 2.94126 -4.92217 0
M  V30 610 N 63.3759 3.42805 -6.02043 0
M  V30 611 N 65.1689 2.9314 -4.7961 0
M  V30 612 H 57.3199 0.122313 -2.12048 0
M  V30 613 H 59.5829 0.116892 -0.940766 0
M  V30 614 H 59.2889 1.01451 -3.3675 0
M  V30 615 H 59.1629 2.6329 -2.70108 0
M  V30 616 H 61.5499 2.38244 -1.74137 0
M  V30 617 H 61.6309 0.759894 -2.44252 0
M  V30 618 H 61.2749 1.76835 -4.76121 0
M  V30 619 H 61.2049 3.39091 -4.02895 0
M  V30 620 H 63.6959 2.1107 -3.13461 0
M  V30 621 H 64.0089 3.78354 -6.73846 0
M  V30 622 H 62.3539 3.4087 -6.05667 0
M  V30 623 H 65.5449 2.54419 -3.92923 0
M  V30 624 H 65.7179 3.30721 -5.5725 0
M  V30 625 N 59.124 1.23083 0.984299 0
M  V30 626 C 60.54 0.992637 1.24975 0
M  V30 627 C 60.74 -0.308618 1.99123 0
M  V30 628 O 59.796 -1.02905 2.30579 0
M  V30 629 C 61.109 2.19698 2.05312 0
M  V30 630 C 62.657 2.24147 2.18465 0
M  V30 631 C 63.132 3.44157 3.02192 0
M  V30 632 N 64.623 3.44372 3.09777 0
M  V30 633 C 65.358 4.33886 3.74874 0
M  V30 634 N 64.854 5.3363 4.41827 0
M  V30 635 N 66.647 4.21639 3.71721 0
M  V30 636 H 58.798 2.06731 0.487453 0
M  V30 637 H 61.061 0.906339 0.277944 0
M  V30 638 H 60.767 3.1411 1.58201 0
M  V30 639 H 60.641 2.20465 3.06064 0
M  V30 640 H 63.028 1.30277 2.64786 0
M  V30 641 H 63.109 2.27415 1.17115 0
M  V30 642 H 62.753 4.38332 2.56568 0
M  V30 643 H 62.683 3.3813 4.03702 0
M  V30 644 H 65.174 2.72201 2.62135 0
M  V30 645 H 65.487 5.98196 4.89266 0
M  V30 646 H 63.832 5.37534 4.40548 0
M  V30 647 H 67.023 3.42962 3.18582 0
M  V30 648 H 67.196 4.91604 4.22173 0
M  V30 649 N 60.6021 -1.18246 1.0419 0
M  V30 650 C 62.0181 -1.40269 0.761366 0
M  V30 651 C 62.2181 -1.90777 -0.648578 0
M  V30 652 O 61.2741 -2.0929 -1.41258 0
M  V30 653 C 62.5871 -2.40237 1.8085 0
M  V30 654 C 64.1351 -2.53961 1.82955 0
M  V30 655 C 64.6101 -3.57194 2.86664 0
M  V30 656 N 66.1011 -3.64702 2.85563 0
M  V30 657 C 66.8361 -4.44309 3.6246 0
M  V30 658 N 66.3321 -5.27514 4.49111 0
M  V30 659 N 68.1251 -4.39084 3.50944 0
M  V30 660 H 60.2761 -0.837882 1.95175 0
M  V30 661 H 62.5391 -0.430608 0.84456 0
M  V30 662 H 62.2451 -2.10176 2.81991 0
M  V30 663 H 62.1191 -3.39601 1.64168 0
M  V30 664 H 64.5061 -2.83338 0.824855 0
M  V30 665 H 64.5871 -1.54706 2.03715 0
M  V30 666 H 64.2311 -3.28558 3.87314 0
M  V30 667 H 64.1611 -4.5613 2.6316 0
M  V30 668 H 66.6521 -3.05289 2.22727 0
M  V30 669 H 66.9651 -5.85411 5.04493 0
M  V30 670 H 65.3101 -5.2693 4.53178 0
M  V30 671 H 68.5011 -3.7313 2.82651 0
M  V30 672 H 68.6741 -5.00883 4.11121 0
M  V30 673 N 62.0802 -0.821533 -1.34494 0
M  V30 674 C 63.3272 -0.408946 -1.98328 0
M  V30 675 C 63.6552 1.02764 -1.65136 0
M  V30 676 O 62.9102 1.73026 -0.914349 0
M  V30 677 C 63.2092 -0.556512 -3.53041 0
M  V30 678 C 62.8752 -1.95861 -4.0614 0
M  V30 679 C 61.5372 -2.34217 -4.20352 0
M  V30 680 C 63.8892 -2.87523 -4.34718 0
M  V30 681 C 61.2172 -3.63572 -4.6047 0
M  V30 682 C 63.5692 -4.1634 -4.76281 0
M  V30 683 C 62.2332 -4.54675 -4.88699 0
M  V30 684 H 61.5032 -0.149644 -0.725732 0
M  V30 685 H 64.1502 -1.04521 -1.6046 0
M  V30 686 H 62.4552 0.163148 -3.9146 0
M  V30 687 H 64.1522 -0.217826 -4.00408 0
M  V30 688 H 60.7422 -1.65066 -3.95539 0
M  V30 689 H 64.9262 -2.59133 -4.23277 0
M  V30 690 H 60.1822 -3.93101 -4.68275 0
M  V30 691 H 64.3562 -4.87455 -4.97354 0
M  V30 692 H 61.9832 -5.54959 -5.19542 0
M  V30 693 N 63.5583 1.46682 -0.576371 0
M  V30 694 C 64.8053 2.02412 -0.0595339 0
M  V30 695 C 65.1333 1.44859 1.29793 0
M  V30 696 O 64.3883 0.601099 1.8624 0
M  V30 697 C 64.6873 3.57345 0.062886 0
M  V30 698 C 64.3533 4.33908 -1.22616 0
M  V30 699 C 63.0153 4.54544 -1.57933 0
M  V30 700 C 65.3673 4.77919 -2.07948 0
M  V30 701 C 62.6953 5.16444 -2.78393 0
M  V30 702 C 65.0473 5.41149 -3.27629 0
M  V30 703 C 63.7113 5.60014 -3.63236 0
M  V30 704 H 62.9813 0.74068 -0.021785 0
M  V30 705 H 65.6283 1.76128 -0.751735 0
M  V30 706 H 63.9333 3.82729 0.838178 0
M  V30 707 H 65.6303 3.98136 0.478439 0
M  V30 708 H 62.2203 4.18138 -0.941202 0
M  V30 709 H 66.4043 4.61738 -1.81967 0
M  V30 710 H 61.6603 5.29242 -3.06126 0
M  V30 711 H 65.8343 5.74211 -3.94023 0
M  V30 712 H 63.4613 6.07748 -4.56669 0
M  V30 713 N 65.0364 0.313813 1.54444 0
M  V30 714 C 65.9844 -0.572171 2.25453 0
M  V30 715 C 66.9784 -1.12657 1.2651 0
M  V30 716 O 68.1844 -1.07573 1.44319 0
M  V30 717 H 64.5594 -0.203146 0.724041 0
M  V30 718 H 66.5304 0.0491145 2.9836 0
M  V30 719 C 65.2794 -1.72626 3.0182 0
M  V30 720 H 64.6024 -1.30891 3.77767 0
M  V30 721 H 66.0424 -2.32199 3.54767 0
M  V30 722 C 64.5014 -2.63806 2.09542 0
M  V30 723 O 65.0314 -3.65256 1.67185 0
M  V30 724 N 63.2374 -2.31824 1.75232 0
M  V30 725 H 62.7844 -1.49368 2.09873 0
M  V30 726 H 62.7424 -2.93095 1.13767 0
M  V30 727 N 66.5145 -1.57545 0.0417849 0
M  V30 728 C 67.7395 -1.97035 -0.647455 0
M  V30 729 C 68.1645 -0.918775 -1.64135 0
M  V30 730 O 67.5225 0.119006 -1.80909 0
M  V30 731 C 67.5705 -3.35609 -1.31905 0
M  V30 732 O 66.6745 -3.3287 -2.43457 0
M  V30 733 H 66.0155 -0.64211 -0.169086 0
M  V30 734 H 68.5455 -2.04318 0.107399 0
M  V30 735 H 68.5555 -3.72126 -1.67291 0
M  V30 736 H 67.2305 -4.11685 -0.590586 0
M  V30 737 H 65.8075 -3.08087 -2.10088 0
M  V30 738 N 67.9926 0.231505 -1.5589 0
M  V30 739 C 69.2176 0.978689 -1.82856 0
M  V30 740 C 69.6426 1.77559 -0.620846 0
M  V30 741 O 69.0006 1.76119 0.430305 0
M  V30 742 C 69.0486 1.87997 -3.07716 0
M  V30 743 O 68.1526 2.97393 -2.85712 0
M  V30 744 H 67.4936 0.277663 -0.603158 0
M  V30 745 H 70.0236 0.24783 -2.03093 0
M  V30 746 H 70.0336 2.2917 -3.37558 0
M  V30 747 H 68.7086 1.29417 -3.95252 0
M  V30 748 H 67.2856 2.60238 -2.67078 0
M  V30 749 N 69.4707 1.49531 0.497807 0
M  V30 750 C 70.7187 1.58865 1.24926 0
M  V30 751 C 71.0397 0.278721 1.92998 0
M  V30 752 O 70.3097 -0.702144 1.82885 0
M  V30 753 H 68.8897 0.585343 0.464094 0
M  V30 754 H 71.5517 1.86174 0.57666 0
M  V30 755 H 70.6477 2.38633 2.01149 0
M  V30 756 N 70.9488 -0.749086 1.3866 0
M  V30 757 C 72.1738 -1.54344 1.38538 0
M  V30 758 C 72.5988 -1.88088 -0.0216655 0
M  V30 759 O 71.9568 -1.50899 -1.00494 0
M  V30 760 C 72.0048 -2.8164 2.25192 0
M  V30 761 O 71.1088 -3.7698 1.67212 0
M  V30 762 H 70.4498 -0.466654 0.472367 0
M  V30 763 H 72.9798 -0.925355 1.82478 0
M  V30 764 H 72.9898 -3.30519 2.3921 0
M  V30 765 H 71.6648 -2.56411 3.27454 0
M  V30 766 H 70.2418 -3.35699 1.6236 0
M  V30 767 N 72.4269 -1.23603 -0.977757 0
M  V30 768 C 73.6519 -1.09735 -1.75991 0
M  V30 769 C 74.0769 0.346858 -1.84874 0
M  V30 770 O 73.4349 1.25093 -1.3123 0
M  V30 771 C 73.4829 -1.73051 -3.16363 0
M  V30 772 O 72.5869 -0.994452 -4.0023 0
M  V30 773 H 71.9279 -0.384476 -0.541364 0
M  V30 774 H 74.4579 -1.6371 -1.2272 0
M  V30 775 H 74.4679 -1.78398 -3.66931 0
M  V30 776 H 73.1429 -2.78137 -3.09213 0
M  V30 777 H 71.7199 -1.01812 -3.58732 0
M  V30 778 N 73.905 1.17692 -1.04816 0
M  V30 779 C 75.182 1.83768 -0.669963 0
M  V30 780 C 75.562 1.93232 0.849986 0
M  V30 781 O 74.91 1.46397 1.75443 0
M  V30 782 C 75.12 3.21641 -1.35455 0
M  V30 783 C 76.468 3.97592 -1.49017 0
M  V30 784 O 77.492 3.31107 -1.31326 0
M  V30 785 O 76.351 5.16729 -1.77914 0
M  V30 786 H 73.445 0.792799 -0.235368 0
M  V30 787 H 75.991 1.25021 -1.14751 0
M  V30 788 H 74.763 3.097 -2.39168 0
M  V30 789 H 74.386 3.88052 -0.866107 0
M  V30 790 N 75.3831 0.828654 1.34056 0
M  V30 791 C 76.3461 0.259927 2.27721 0
M  V30 792 C 77.3461 -0.565478 1.50529 0
M  V30 793 O 78.5361 -0.38075 1.69988 0
M  V30 794 C 75.6681 -0.634944 3.34935 0
M  V30 795 H 76.8611 1.0863 2.79534 0
M  V30 796 H 74.4141 0.600951 1.44285 0
M  V30 797 H 75.1491 -1.48416 2.88346 0
M  V30 798 H 74.9341 -0.0444999 3.92075 0
M  V30 799 H 76.4241 -1.02648 4.04788 0
M  V30 800 N 76.8612 -1.46375 0.584142 0
M  V30 801 C 78.0862 -2.07268 0.0740405 0
M  V30 802 C 78.5112 -1.42979 -1.22223 0
M  V30 803 O 77.8692 -0.514092 -1.73859 0
M  V30 804 C 77.9172 -3.60518 -0.0767769 0
M  V30 805 O 77.0212 -3.96533 -1.13292 0
M  V30 806 H 76.3622 -0.660961 0.0634524 0
M  V30 807 H 78.8922 -1.87991 0.807492 0
M  V30 808 H 78.9022 -4.07021 -0.282489 0
M  V30 809 H 77.5772 -4.06702 0.86986 0
M  V30 810 H 76.1542 -3.61738 -0.905553 0
M  V30 811 N 78.3393 -0.321999 -1.54275 0
M  V30 812 C 79.5883 0.281931 -1.9972 0
M  V30 813 C 79.9013 1.53369 -1.21397 0
M  V30 814 O 81.1073 2.21352 -1.57211 0
M  V30 815 C 79.5633 0.5529 -3.55628 0
M  V30 816 C 79.1713 -0.681721 -4.42783 0
M  V30 817 C 80.9153 1.11687 -4.09544 0
M  V30 818 C 78.8223 -0.382742 -5.9016 0
M  V30 819 H 77.7523 0.109124 -0.746062 0
M  V30 820 H 80.4033 -0.43398 -1.78294 0
M  V30 821 H 78.7853 1.32896 -3.73035 0
M  V30 822 H 79.9593 -1.45723 -4.37151 0
M  V30 823 H 78.2743 -1.1658 -3.99748 0
M  V30 824 H 80.8713 1.35515 -5.17242 0
M  V30 825 H 81.2143 2.06575 -3.61431 0
M  V30 826 H 81.7473 0.402032 -3.95763 0
M  V30 827 H 78.4863 -1.30076 -6.42464 0
M  V30 828 H 78.0063 0.355094 -5.98748 0
M  V30 829 H 79.6853 0.00800157 -6.47 0
M  V30 830 N 79.8174 1.5752 -0.0501392 0
M  V30 831 C 81.0654 1.9227 0.622642 0
M  V30 832 C 81.3864 0.929083 1.71444 0
M  V30 833 O 80.6564 -0.0262186 1.95882 0
M  V30 834 H 79.2364 0.709739 0.232981 0
M  V30 835 H 81.8984 1.94628 -0.102898 0
M  V30 836 H 80.9944 2.93479 1.06191 0
M  V30 837 N 81.2955 -0.223234 1.56011 0
M  V30 838 C 82.5725 -0.972108 1.69733 0
M  V30 839 C 82.9525 -2.02485 0.59691 0
M  V30 840 O 82.3005 -2.25037 -0.396324 0
M  V30 841 C 82.5105 -1.58407 3.10979 0
M  V30 842 C 83.8585 -2.07696 3.70334 0
M  V30 843 O 84.8825 -1.68304 3.1393 0
M  V30 844 O 83.7415 -2.80096 4.69264 0
M  V30 845 H 80.8355 -0.453993 0.691245 0
M  V30 846 H 83.3815 -0.215149 1.68331 0
M  V30 847 H 82.1535 -0.823831 3.82529 0
M  V30 848 H 81.7765 -2.40661 3.16493 0
M  V30 849 N 82.7736 -1.49793 -0.48987 0
M  V30 850 C 84.1846 -1.52914 -1.07118 0
M  V30 851 C 84.5356 -0.321738 -1.93544 0
M  V30 852 O 83.6606 0.567338 -2.08831 0
M  V30 853 C 84.2556 -2.771 -1.94938 0
M  V30 854 C 82.8146 -2.82963 -2.48212 0
M  V30 855 C 81.9616 -2.46972 -1.26096 0
M  V30 856 H 84.9126 -1.56329 -0.273289 0
M  V30 857 H 84.9336 -2.57892 -2.79771 0
M  V30 858 H 84.4456 -3.64959 -1.32009 0
M  V30 859 H 82.5466 -1.99411 -3.14748 0
M  V30 860 H 82.6596 -3.85406 -2.84603 0
M  V30 861 H 81.0236 -1.98994 -1.58976 0
M  V30 862 H 81.8066 -3.37118 -0.648581 0
M  V30 863 N 84.2517 0.741722 -1.39055 0
M  V30 864 C 85.4767 1.53607 -1.39354 0
M  V30 865 C 85.9017 1.88096 0.0116905 0
M  V30 866 O 85.2597 1.5143 0.996924 0
M  V30 867 C 85.3077 2.80441 -2.26682 0
M  V30 868 O 84.4117 3.76088 -1.69208 0
M  V30 869 H 83.7527 0.464142 -0.474835 0
M  V30 870 H 86.2827 0.915665 -1.82967 0
M  V30 871 H 86.2927 3.29246 -2.40959 0
M  V30 872 H 84.9677 2.5467 -3.2881 0
M  V30 873 H 83.5447 3.34833 -1.64138 0
M  V30 874 N 85.7298 1.2412 0.971189 0
M  V30 875 C 86.6618 0.988349 2.06795 0
M  V30 876 C 87.6748 -0.0409541 1.62748 0
M  V30 877 O 88.8638 0.195673 1.77424 0
M  V30 878 C 85.9638 0.469023 3.35639 0
M  V30 879 C 85.1368 1.56065 4.08611 0
M  V30 880 C 84.1958 1.04458 5.15728 0
M  V30 881 O 83.2218 1.73553 5.42096 0
M  V30 882 N 84.4238 -0.122817 5.8037 0
M  V30 883 H 87.1888 1.93265 2.29061 0
M  V30 884 H 84.7498 1.15102 1.13856 0
M  V30 885 H 86.7418 0.108613 4.04554 0
M  V30 886 H 85.3118 -0.380919 3.1027 0
M  V30 887 H 84.5318 2.09341 3.34021 0
M  V30 888 H 85.8198 2.29449 4.54126 0
M  V30 889 H 85.2178 -0.700563 5.61345 0
M  V30 890 H 83.7748 -0.424404 6.50417 0
M  V30 891 N 87.2079 -1.17134 1.05439 0
M  V30 892 C 88.4329 -1.91913 0.786396 0
M  V30 893 C 88.8579 -1.7643 -0.652234 0
M  V30 894 O 88.2159 -1.08372 -1.45345 0
M  V30 895 C 88.2639 -3.40921 1.17497 0
M  V30 896 O 87.3679 -4.11244 0.308589 0
M  V30 897 H 86.7089 -0.598215 0.288158 0
M  V30 898 H 89.2389 -1.48457 1.4079 0
M  V30 899 H 89.2489 -3.91668 1.14281 0
M  V30 900 H 87.9239 -3.5151 2.22292 0
M  V30 901 H 86.5009 -3.70731 0.40157 0
M  V30 902 N 88.686 -0.835752 -1.33615 0
M  V30 903 C 89.963 -0.352017 -1.92406 0
M  V30 904 C 90.343 1.16225 -1.76224 0
M  V30 905 O 89.691 1.97526 -1.14873 0
M  V30 906 C 89.901 -0.795485 -3.39813 0
M  V30 907 C 91.249 -0.801703 -4.16963 0
M  V30 908 O 92.273 -0.738889 -3.48452 0
M  V30 909 O 91.132 -0.886607 -5.3926 0
M  V30 910 H 88.226 -0.0989641 -0.821057 0
M  V30 911 H 90.772 -0.921397 -1.42507 0
M  V30 912 H 89.544 -1.83795 -3.45449 0
M  V30 913 H 89.167 -0.202505 -3.97084 0
M  V30 914 N 90.1641 1.46063 -0.591896 0
M  V30 915 C 91.4411 1.95595 -0.0137119 0
M  V30 916 C 91.8211 1.5345 1.4497 0
M  V30 917 O 91.1691 0.789543 2.14426 0
M  V30 918 C 91.3791 3.48453 -0.195373 0
M  V30 919 C 92.7271 4.24546 -0.0679765 0
M  V30 920 O 93.7511 3.55982 -0.124681 0
M  V30 921 O 92.6101 5.46467 0.0600579 0
M  V30 922 H 89.7041 0.825795 0.0446279 0
M  V30 923 H 92.2501 1.56303 -0.660859 0
M  V30 924 H 91.0221 3.72045 -1.21235 0
M  V30 925 H 90.6451 3.94597 0.487775 0
M  V30 926 N 91.6422 0.330177 1.54103 0
M  V30 927 C 93.0532 -0.15652 1.86043 0
M  V30 928 C 93.4042 -1.51086 1.2517 0
M  V30 929 O 92.5292 -2.09023 0.560217 0
M  V30 930 C 93.1242 -0.290784 3.3755 0
M  V30 931 C 91.6832 -0.721705 3.69416 0
M  V30 932 C 90.8302 0.152622 2.7688 0
M  V30 933 H 93.7812 0.550237 1.48856 0
M  V30 934 H 93.8022 -1.12058 3.63625 0
M  V30 935 H 93.3142 0.695068 3.81825 0
M  V30 936 H 91.4152 -1.71706 3.30678 0
M  V30 937 H 91.5282 -0.520869 4.7626 0
M  V30 938 H 89.8922 -0.372894 2.51956 0
M  V30 939 H 90.6752 1.13536 3.23982 0
M  V30 940 N 93.1203 -1.57491 0.0584922 0
M  V30 941 C 94.3973 -1.84346 -0.653918 0
M  V30 942 C 94.7773 -0.948355 -1.88599 0
M  V30 943 O 94.1253 -0.0112403 -2.28497 0
M  V30 944 C 94.3353 -3.34239 -1.00425 0
M  V30 945 C 95.6833 -4.01431 -1.38342 0
M  V30 946 O 96.7073 -3.38907 -1.09637 0
M  V30 947 O 95.5663 -5.11683 -1.91943 0
M  V30 948 H 92.6603 -0.761112 -0.323478 0
M  V30 949 H 95.2063 -1.6947 0.0884125 0
M  V30 950 H 93.9783 -3.91089 -0.128625 0
M  V30 951 H 93.6013 -3.54329 -1.80378 0
M  V30 952 N 94.5984 0.214957 -1.56127 0
M  V30 953 C 95.8754 0.963093 -1.70247 0
M  V30 954 C 96.2554 2.02166 -0.60764 0
M  V30 955 O 95.6034 2.25244 0.384385 0
M  V30 956 C 95.8134 1.56756 -3.11815 0
M  V30 957 C 97.1614 2.0573 -3.7143 0
M  V30 958 O 98.1854 1.66637 -3.14818 0
M  V30 959 O 97.0444 2.77603 -4.70743 0
M  V30 960 H 94.1384 0.450321 -0.693643 0
M  V30 961 H 96.6844 0.206219 -1.68442 0
M  V30 962 H 95.4564 0.803533 -3.82961 0
M  V30 963 H 95.0794 2.3898 -3.17765 0
M  V30 964 N 96.0765 1.50051 0.48192 0
M  V30 965 C 97.4875 1.5348 1.06305 0
M  V30 966 C 97.8385 0.331997 1.93371 0
M  V30 967 O 96.9635 -0.556256 2.09129 0
M  V30 968 C 97.5585 2.7813 1.93466 0
M  V30 969 C 96.1175 2.84275 2.46707 0
M  V30 970 C 95.2645 2.47637 1.24785 0
M  V30 971 H 98.2155 1.56472 0.264995 0
M  V30 972 H 98.2365 2.59372 2.78399 0
M  V30 973 H 97.7485 3.65654 1.30072 0
M  V30 974 H 95.8495 2.01077 3.13686 0
M  V30 975 H 95.9625 3.8691 2.82555 0
M  V30 976 H 94.3265 1.99835 1.57918 0
M  V30 977 H 95.1095 3.37457 0.630694 0
M  V30 978 N 97.5546 -0.734337 1.39446 0
M  V30 979 C 98.8316 -1.48579 1.27215 0
M  V30 980 C 99.2116 -2.1077 -0.117968 0
M  V30 981 O 98.5596 -1.98646 -1.12924 0
M  V30 982 C 98.7696 -2.53667 2.39696 0
M  V30 983 C 100.118 -3.20031 2.79044 0
M  V30 984 O 101.142 -2.6398 2.39151 0
M  V30 985 O 100.001 -4.21455 3.47905 0
M  V30 986 H 97.0946 -0.659816 0.49857 0
M  V30 987 H 99.6406 -0.768106 1.51322 0
M  V30 988 H 98.4126 -2.06096 3.32626 0
M  V30 989 H 98.0356 -3.32994 2.17258 0
M  V30 990 N 99.0327 -1.24633 -0.964593 0
M  V30 991 C 100.31 -0.995809 -1.68354 0
M  V30 992 C 100.69 0.480964 -2.05548 0
M  V30 993 O 100.038 1.45599 -1.76105 0
M  V30 994 C 100.248 -1.92177 -2.91323 0
M  V30 995 C 101.596 -2.19446 -3.63495 0
M  V30 996 O 102.62 -1.89855 -3.01386 0
M  V30 997 O 101.479 -2.69714 -4.75307 0
M  V30 998 H 98.5727 -0.376854 -0.736146 0
M  V30 999 H 101.119 -1.35745 -1.0184 0
M  V30 1000 H 99.8907 -2.91938 -2.60553 0
M  V30 1001 H 99.5137 -1.56349 -3.65569 0
M  V30 1002 N 100.511 1.16574 -1.06058 0
M  V30 1003 C 101.922 1.68662 -0.800632 0
M  V30 1004 C 102.273 1.84184 0.67608 0
M  V30 1005 O 101.398 1.53568 1.52466 0
M  V30 1006 C 101.993 3.06356 -1.44676 0
M  V30 1007 C 100.552 3.55575 -1.23465 0
M  V30 1008 C 99.6988 2.31616 -1.52477 0
M  V30 1009 H 102.65 1.00969 -1.22438 0
M  V30 1010 H 102.671 3.70636 -0.860788 0
M  V30 1011 H 102.183 2.95027 -2.52152 0
M  V30 1012 H 100.284 3.72167 -0.179527 0
M  V30 1013 H 100.397 4.37812 -1.94571 0
M  V30 1014 H 98.7608 2.36512 -0.945209 0
M  V30 1015 H 99.5438 2.22887 -2.61106 0
M  V30 1016 N 101.989 0.842826 1.3317 0
M  V30 1017 C 103.266 0.362216 1.92217 0
M  V30 1018 C 103.646 -1.15289 1.76838 0
M  V30 1019 O 102.994 -1.96914 1.15919 0
M  V30 1020 C 103.204 0.813495 3.39387 0
M  V30 1021 C 104.552 0.823804 4.16532 0
M  V30 1022 O 105.576 0.757358 3.48055 0
M  V30 1023 O 104.435 0.915193 5.38782 0
M  V30 1024 H 101.529 0.103317 0.820521 0
M  V30 1025 H 104.075 0.928942 1.42017 0
M  V30 1026 H 102.847 1.85624 3.4447 0
M  V30 1027 H 102.47 0.223561 3.96971 0
M  V30 1028 N 103.467 -1.45747 0.599634 0
M  V30 1029 C 104.714 -2.02292 0.0917284 0
M  V30 1030 C 105.042 -1.46906 -1.27472 0
M  V30 1031 O 104.297 -0.630652 -1.8526 0
M  V30 1032 C 104.596 -3.57399 -0.00602758 0
M  V30 1033 C 104.262 -4.31902 1.29503 0
M  V30 1034 C 102.924 -4.51974 1.65144 0
M  V30 1035 C 105.276 -4.74551 2.15525 0
M  V30 1036 C 102.604 -5.11949 2.86574 0
M  V30 1037 C 104.956 -5.35868 3.36196 0
M  V30 1038 C 103.62 -5.54165 3.72099 0
M  V30 1039 H 102.89 -0.740239 0.0335658 0
M  V30 1040 H 105.537 -1.7491 0.779661 0
M  V30 1041 H 103.842 -3.84014 -0.777183 0
M  V30 1042 H 105.539 -3.98846 -0.415038 0
M  V30 1043 H 102.129 -4.16588 1.00761 0
M  V30 1044 H 106.313 -4.58784 1.8929 0
M  V30 1045 H 101.569 -5.24305 3.14507 0
M  V30 1046 H 105.743 -5.6787 4.03109 0
M  V30 1047 H 103.37 -6.00406 4.6628 0
M  V30 1048 N 104.945 -0.338344 -1.53925 0
M  V30 1049 C 106.356 0.146651 -1.86123 0
M  V30 1050 C 106.707 1.5042 -1.2597 0
M  V30 1051 O 105.832 2.08723 -0.571294 0
M  V30 1052 C 106.427 0.272879 -3.37699 0
M  V30 1053 C 104.986 0.702103 -3.69794 0
M  V30 1054 C 104.133 -0.167304 -2.76795 0
M  V30 1055 H 107.084 -0.558123 -1.48562 0
M  V30 1056 H 107.105 1.10128 -3.64214 0
M  V30 1057 H 106.617 -0.715307 -3.81451 0
M  V30 1058 H 104.718 1.6995 -3.31584 0
M  V30 1059 H 104.831 0.495604 -4.7653 0
M  V30 1060 H 103.195 0.359527 -2.5215 0
M  V30 1061 H 103.978 -1.15253 -3.23375 0
M  V30 1062 N 106.423 1.57458 -0.0668435 0
M  V30 1063 C 107.671 1.92919 0.602214 0
M  V30 1064 C 107.992 0.947215 1.70449 0
M  V30 1065 O 107.262 -0.00544117 1.95899 0
M  V30 1066 H 105.842 0.71217 0.22544 0
M  V30 1067 H 108.504 1.94508 -0.123535 0
M  V30 1068 H 107.6 2.94589 1.03073 0
M  V30 1069 N 107.901 -0.206675 1.56239 0
M  V30 1070 C 109.126 -0.949474 1.8439 0
M  V30 1071 C 109.551 -1.76549 0.649016 0
M  V30 1072 O 108.909 -1.76782 -0.402231 0
M  V30 1073 C 108.957 -1.83078 3.10668 0
M  V30 1074 O 108.061 -2.9281 2.90407 0
M  V30 1075 H 107.402 -0.268033 0.607499 0
M  V30 1076 H 109.932 -0.215488 2.03462 0
M  V30 1077 H 109.942 -2.2377 3.41161 0
M  V30 1078 H 108.617 -1.23112 3.97261 0
M  V30 1079 H 107.194 -2.55956 2.71184 0
M  V30 1080 N 109.379 -1.50304 -0.473955 0
M  V30 1081 C 110.79 -1.54042 -1.0549 0
M  V30 1082 C 111.141 -0.342248 -1.93192 0
M  V30 1083 O 110.266 0.545157 -2.09421 0
M  V30 1084 C 110.861 -2.79152 -1.91989 0
M  V30 1085 C 109.42 -2.8558 -2.45196 0
M  V30 1086 C 108.567 -2.48295 -1.2347 0
M  V30 1087 H 111.518 -1.5661 -0.256693 0
M  V30 1088 H 111.539 -2.60845 -2.7702 0
M  V30 1089 H 111.051 -3.66339 -1.28131 0
M  V30 1090 H 109.152 -2.02738 -3.12615 0
M  V30 1091 H 109.265 -3.88403 -2.80499 0
M  V30 1092 H 107.629 -2.00669 -1.56856 0
M  V30 1093 H 108.412 -3.37787 -0.612789 0
M  V30 1094 N 110.857 0.726932 -1.39834 0
M  V30 1095 C 112.103 1.48884 -1.377 0
M  V30 1096 C 112.436 1.94185 0.0244852 0
M  V30 1097 O 111.711 1.67361 0.990986 0
M  V30 1098 C 111.994 2.72288 -2.3565 0
M  V30 1099 C 111.847 2.32956 -3.84775 0
M  V30 1100 C 113.166 3.74414 -2.31306 0
M  V30 1101 H 110.285 0.540062 -0.5015 0
M  V30 1102 H 112.927 0.830547 -1.70886 0
M  V30 1103 H 111.077 3.28457 -2.07481 0
M  V30 1104 H 112.749 1.82356 -4.23726 0
M  V30 1105 H 110.992 1.65088 -4.01159 0
M  V30 1106 H 111.663 3.21362 -4.4881 0
M  V30 1107 H 114.139 3.27849 -2.56231 0
M  V30 1108 H 113.015 4.58414 -3.01907 0
M  V30 1109 H 113.276 4.21909 -1.32081 0
M  V30 1110 N 112.336 1.25143 0.95797 0
M  V30 1111 C 113.752 1.01892 1.22842 0
M  V30 1112 C 113.952 -0.266311 1.99732 0
M  V30 1113 O 113.008 -0.979913 2.3271 0
M  V30 1114 C 114.321 2.24004 2.00606 0
M  V30 1115 C 115.869 2.28731 2.13662 0
M  V30 1116 C 116.344 3.5049 2.94823 0
M  V30 1117 N 117.835 3.50866 3.02403 0
M  V30 1118 C 118.57 4.4174 3.65586 0
M  V30 1119 N 118.066 5.42882 4.30408 0
M  V30 1120 N 119.859 4.29429 3.62694 0
M  V30 1121 H 112.01 2.07718 0.443493 0
M  V30 1122 H 114.273 0.912031 0.258657 0
M  V30 1123 H 113.979 3.17395 1.51503 0
M  V30 1124 H 113.853 2.26907 3.01319 0
M  V30 1125 H 116.24 1.35865 2.61963 0
M  V30 1126 H 116.321 2.29848 1.12265 0
M  V30 1127 H 115.965 4.43676 2.47213 0
M  V30 1128 H 115.895 3.46617 3.96439 0
M  V30 1129 H 118.386 2.777 2.56302 0
M  V30 1130 H 118.699 6.0844 4.76467 0
M  V30 1131 H 117.044 5.46758 4.29047 0
M  V30 1132 H 120.235 3.49643 3.11236 0
M  V30 1133 H 120.408 5.00448 4.1165 0
M  V30 1134 N 113.814 -1.1601 1.06675 0
M  V30 1135 C 115.23 -1.38622 0.790948 0
M  V30 1136 C 115.43 -1.92109 -0.607965 0
M  V30 1137 O 114.486 -2.12239 -1.36787 0
M  V30 1138 C 115.799 -2.36347 1.85905 0
M  V30 1139 C 117.347 -2.50023 1.88301 0
M  V30 1140 C 117.822 -3.51033 2.94176 0
M  V30 1141 N 119.313 -3.58563 2.93235 0
M  V30 1142 C 120.048 -4.36521 3.71803 0
M  V30 1143 N 119.544 -5.17869 4.602 0
M  V30 1144 N 121.337 -4.31541 3.60178 0
M  V30 1145 H 113.488 -0.796294 1.96908 0
M  V30 1146 H 115.751 -0.412597 0.853503 0
M  V30 1147 H 115.457 -2.04147 2.86386 0
M  V30 1148 H 115.331 -3.36042 1.71334 0
M  V30 1149 H 117.718 -2.81524 0.884769 0
M  V30 1150 H 117.799 -1.5035 2.06951 0
M  V30 1151 H 117.443 -3.20268 3.94196 0
M  V30 1152 H 117.373 -4.50445 2.72776 0
M  V30 1153 H 119.864 -3.00496 2.29152 0
M  V30 1154 H 120.177 -5.74578 5.16797 0
M  V30 1155 H 118.522 -5.17199 4.64253 0
M  V30 1156 H 121.713 -3.67051 2.90502 0
M  V30 1157 H 121.886 -4.9205 4.21653 0
M  V30 1158 N 115.292 -0.849877 -1.32721 0
M  V30 1159 C 116.708 -0.539102 -1.50219 0
M  V30 1160 C 116.908 0.931271 -1.78689 0
M  V30 1161 O 115.964 1.71455 -1.85363 0
M  V30 1162 C 117.277 -1.42196 -2.64954 0
M  V30 1163 C 118.825 -1.42189 -2.78839 0
M  V30 1164 C 119.3 -2.28985 -3.96648 0
M  V30 1165 N 120.791 -2.26754 -4.03902 0
M  V30 1166 C 121.526 -2.90644 -4.94281 0
M  V30 1167 N 121.022 -3.63629 -5.897 0
M  V30 1168 N 122.815 -2.80057 -4.87365 0
M  V30 1169 H 114.966 -1.80156 -1.12506 0
M  V30 1170 H 117.229 -0.769217 -0.554085 0
M  V30 1171 H 116.935 -2.46733 -2.50631 0
M  V30 1172 H 116.809 -1.10591 -3.60624 0
M  V30 1173 H 119.196 -0.38419 -2.92588 0
M  V30 1174 H 119.277 -1.77807 -1.83898 0
M  V30 1175 H 118.921 -3.32819 -3.83658 0
M  V30 1176 H 118.851 -1.90702 -4.90857 0
M  V30 1177 H 121.342 -1.73688 -3.3562 0
M  V30 1178 H 121.655 -4.09558 -6.55349 0
M  V30 1179 H 120 -3.67737 -5.89741 0
M  V30 1180 H 123.191 -2.22593 -4.11789 0
M  V30 1181 H 123.364 -3.30132 -5.57599 0
M  V30 1182 N 116.77 1.45427 -0.607355 0
M  V30 1183 C 118.186 1.57283 -0.270985 0
M  V30 1184 C 118.386 1.59875 1.22647 0
M  V30 1185 O 117.442 1.52893 2.00948 0
M  V30 1186 C 118.755 2.85566 -0.941952 0
M  V30 1187 C 120.303 2.9924 -0.917849 0
M  V30 1188 C 120.778 4.30293 -1.56882 0
M  V30 1189 N 122.269 4.37051 -1.5343 0
M  V30 1190 C 123.004 5.37123 -2.00715 0
M  V30 1191 N 122.5 6.43734 -2.56084 0
M  V30 1192 N 124.293 5.28479 -1.91484 0
M  V30 1193 H 116.444 1.41988 -1.57966 0
M  V30 1194 H 118.707 0.67885 -0.661715 0
M  V30 1195 H 118.413 2.8955 -1.99633 0
M  V30 1196 H 118.287 3.74322 -0.465096 0
M  V30 1197 H 120.674 2.94822 0.127984 0
M  V30 1198 H 120.755 2.11895 -1.43297 0
M  V30 1199 H 120.399 4.35469 -2.61398 0
M  V30 1200 H 120.329 5.16454 -1.02873 0
M  V30 1201 H 122.82 3.60615 -1.12982 0
M  V30 1202 H 123.133 7.16341 -2.89958 0
M  V30 1203 H 121.478 6.44485 -2.60122 0
M  V30 1204 H 124.669 4.44098 -1.47967 0
M  V30 1205 H 124.842 6.0632 -2.28648 0
M  V30 1206 N 118.248 0.346503 1.53744 0
M  V30 1207 C 119.664 -0.00530975 1.59599 0
M  V30 1208 C 119.864 -1.48465 1.36236 0
M  V30 1209 O 118.92 -2.24376 1.15808 0
M  V30 1210 C 120.233 0.433516 2.97559 0
M  V30 1211 C 121.781 0.386111 3.10609 0
M  V30 1212 C 122.256 0.800451 4.50951 0
M  V30 1213 N 123.747 0.754753 4.5701 0
M  V30 1214 C 124.482 1.04727 5.63755 0
M  V30 1215 N 123.978 1.4081 6.7834 0
M  V30 1216 N 125.771 0.971316 5.53644 0
M  V30 1217 H 117.922 1.31009 1.67184 0
M  V30 1218 H 120.185 0.534242 0.783128 0
M  V30 1219 H 119.891 1.46509 3.19731 0
M  V30 1220 H 119.765 -0.189753 3.76722 0
M  V30 1221 H 122.152 -0.636295 2.88158 0
M  V30 1222 H 122.233 1.04462 2.33498 0
M  V30 1223 H 121.877 1.82088 4.74137 0
M  V30 1224 H 121.807 0.119386 5.26465 0
M  V30 1225 H 124.298 0.488662 3.74727 0
M  V30 1226 H 124.611 1.61607 7.55714 0
M  V30 1227 H 122.956 1.44657 6.79779 0
M  V30 1228 H 126.147 0.688748 4.63005 0
M  V30 1229 H 126.32 1.20263 6.36742 0
M  V30 1230 N 119.726 -1.57421 0.075193 0
M  V30 1231 C 121.142 -1.57099 -0.281444 0
M  V30 1232 C 121.342 -1.08486 -1.69803 0
M  V30 1233 O 120.398 -0.752279 -2.41033 0
M  V30 1234 C 121.711 -3.00571 -0.0880041 0
M  V30 1235 C 123.259 -3.12605 -0.157281 0
M  V30 1236 C 123.734 -4.57999 0.0079207 0
M  V30 1237 N 125.225 -4.63176 -0.0475725 0
M  V30 1238 C 125.96 -5.73373 0.0557876 0
M  V30 1239 N 125.456 -6.92473 0.21286 0
M  V30 1240 N 127.249 -5.621 -0.00152098 0
M  V30 1241 H 119.4 -1.87335 1.00098 0
M  V30 1242 H 121.663 -0.86377 0.390646 0
M  V30 1243 H 121.369 -3.40262 0.889629 0
M  V30 1244 H 121.243 -3.67754 -0.838875 0
M  V30 1245 H 123.63 -2.72798 -1.1254 0
M  V30 1246 H 123.711 -2.48053 0.62475 0
M  V30 1247 H 123.355 -4.98496 0.972824 0
M  V30 1248 H 123.285 -5.20586 -0.793556 0
M  V30 1249 H 125.776 -3.7753 -0.167244 0
M  V30 1250 H 126.089 -7.72279 0.283781 0
M  V30 1251 H 124.434 -6.94556 0.248267 0
M  V30 1252 H 127.625 -4.67938 -0.122958 0
M  V30 1253 H 127.798 -6.47948 0.0824844 0
M  V30 1254 N 121.204 0.198386 -1.56346 0
M  V30 1255 C 122.615 0.763358 -1.70381 0
M  V30 1256 C 122.966 1.83995 -0.681203 0
M  V30 1257 O 122.091 2.15785 0.16305 0
M  V30 1258 C 122.686 1.39143 -3.08909 0
M  V30 1259 C 121.245 1.90352 -3.2472 0
M  V30 1260 C 120.392 0.772233 -2.6633 0
M  V30 1261 H 123.343 -0.0266377 -1.58678 0
M  V30 1262 H 123.364 2.26076 -3.06055 0
M  V30 1263 H 122.876 0.607638 -3.83314 0
M  V30 1264 H 120.977 2.71461 -2.55225 0
M  V30 1265 H 121.09 2.06757 -4.3219 0
M  V30 1266 H 119.454 1.18566 -2.2542 0
M  V30 1267 H 120.237 0.00073556 -3.433 0
M  V30 1268 N 122.682 1.50554 0.465978 0
M  V30 1269 C 123.93 1.61479 1.21528 0
M  V30 1270 C 124.251 0.319596 1.92363 0
M  V30 1271 O 123.521 -0.663194 1.84333 0
M  V30 1272 H 122.101 0.595055 0.451573 0
M  V30 1273 H 124.763 1.87355 0.53704 0
M  V30 1274 H 123.859 2.42846 1.96042 0
M  V30 1275 N 124.16 -0.719506 1.40217 0
M  V30 1276 C 125.408 -1.47641 1.3801 0
M  V30 1277 C 125.729 -1.94992 -0.018145 0
M  V30 1278 O 124.999 -1.70073 -0.972207 0
M  V30 1279 H 123.579 -0.547744 0.507923 0
M  V30 1280 H 126.241 -0.853187 1.75233 0
M  V30 1281 H 125.337 -2.35112 2.05253 0
M  V30 1282 N 125.638 -1.25649 -0.95132 0
M  V30 1283 C 127.054 -1.02542 -1.223 0
M  V30 1284 C 127.254 0.255715 -1.99871 0
M  V30 1285 O 126.31 0.967558 -2.33226 0
M  V30 1286 C 127.623 -2.25065 -1.99415 0
M  V30 1287 C 129.171 -2.29861 -2.12446 0
M  V30 1288 C 129.646 -3.52048 -2.92961 0
M  V30 1289 N 131.137 -3.52465 -3.00538 0
M  V30 1290 C 131.872 -4.43672 -3.63239 0
M  V30 1291 N 131.368 -5.45157 -4.27523 0
M  V30 1292 N 133.161 -4.31346 -3.60412 0
M  V30 1293 H 125.312 -2.07951 -0.432471 0
M  V30 1294 H 127.575 -0.91339 -0.253816 0
M  V30 1295 H 127.281 -3.18194 -1.49817 0
M  V30 1296 H 127.155 -2.28502 -3.00111 0
M  V30 1297 H 129.542 -1.37252 -2.61239 0
M  V30 1298 H 129.623 -2.3044 -1.11044 0
M  V30 1299 H 129.267 -4.44981 -2.44856 0
M  V30 1300 H 129.197 -3.48715 -3.94596 0
M  V30 1301 H 131.688 -2.79056 -2.54826 0
M  V30 1302 H 132.001 -6.10958 -4.73234 0
M  V30 1303 H 130.346 -5.49025 -4.26141 0
M  V30 1304 H 133.537 -3.51288 -3.09377 0
M  V30 1305 H 133.71 -5.02624 -4.0899 0
M  V30 1306 N 127.117 1.15442 -1.07289 0
M  V30 1307 C 128.363 1.86489 -0.796846 0
M  V30 1308 C 128.696 1.82078 0.675371 0
M  V30 1309 O 127.971 1.24346 1.4956 0
M  V30 1310 C 128.254 3.35626 -1.30489 0
M  V30 1311 C 128.107 3.48673 -2.84161 0
M  V30 1312 C 129.426 4.30357 -0.920907 0
M  V30 1313 H 126.545 0.677144 -0.290939 0
M  V30 1314 H 129.187 1.35633 -1.33056 0
M  V30 1315 H 127.337 3.79068 -0.850883 0
M  V30 1316 H 129.009 3.14099 -3.37846 0
M  V30 1317 H 127.252 2.90253 -3.22391 0
M  V30 1318 H 127.923 4.53453 -3.14777 0
M  V30 1319 H 130.399 3.94871 -1.3121 0
M  V30 1320 H 129.275 5.33193 -1.30372 0
M  V30 1321 H 129.536 4.4176 0.173226 0
M  V30 1322 N 128.595 0.856903 1.32268 0
M  V30 1323 C 130.006 0.515711 1.79436 0
M  V30 1324 C 130.357 -0.966586 1.70738 0
M  V30 1325 O 129.482 -1.75409 1.26731 0
M  V30 1326 C 130.077 0.929335 3.25805 0
M  V30 1327 C 128.636 0.640006 3.70919 0
M  V30 1328 C 127.783 1.12784 2.53328 0
M  V30 1329 H 130.734 1.04389 1.19535 0
M  V30 1330 H 130.755 0.246633 3.797 0
M  V30 1331 H 130.267 2.00821 3.32103 0
M  V30 1332 H 128.368 -0.428051 3.70133 0
M  V30 1333 H 128.481 1.20788 4.63624 0
M  V30 1334 H 126.845 0.548033 2.48734 0
M  V30 1335 H 127.628 2.21387 2.62379 0
M  V30 1336 N 130.073 -1.45103 0.615059 0
M  V30 1337 C 131.02 -2.30586 -0.0993978 0
M  V30 1338 C 131.99 -1.42544 -0.852669 0
M  V30 1339 O 133.175 -1.71465 -0.836917 0
M  V30 1340 C 130.315 -3.27572 -1.08583 0
M  V30 1341 C 129.428 -4.30717 -0.332656 0
M  V30 1342 C 128.563 -5.14807 -1.30947 0
M  V30 1343 C 127.602 -6.09673 -0.544538 0
M  V30 1344 N 126.739 -6.86517 -1.47101 0
M  V30 1345 H 131.579 -2.91144 0.635542 0
M  V30 1346 H 129.116 -1.4346 0.325206 0
M  V30 1347 H 131.074 -3.82276 -1.67095 0
M  V30 1348 H 129.704 -2.68751 -1.78809 0
M  V30 1349 H 128.756 -3.78615 0.368107 0
M  V30 1350 H 130.068 -4.98102 0.263842 0
M  V30 1351 H 129.222 -5.73948 -1.96643 0
M  V30 1352 H 127.961 -4.47458 -1.9399 0
M  V30 1353 H 126.966 -5.49656 0.126003 0
M  V30 1354 H 128.191 -6.79052 0.080947 0
M  V30 1355 H 126.137 -6.21851 -2.08895 0
M  V30 1356 H 126.054 -7.50281 -0.928137 0
M  V30 1357 H 127.322 -7.50194 -2.11731 0
M  V30 1358 N 131.551 -0.354651 -1.53558 0
M  V30 1359 C 132.828 0.294281 -1.93374 0
M  V30 1360 C 133.208 1.67313 -1.28723 0
M  V30 1361 O 132.556 2.24179 -0.442247 0
M  V30 1362 C 132.766 0.355445 -3.47185 0
M  V30 1363 C 134.114 0.601007 -4.20325 0
M  V30 1364 O 135.138 0.437106 -3.53508 0
M  V30 1365 O 133.997 0.919322 -5.38712 0
M  V30 1366 H 131.091 0.174033 -0.808481 0
M  V30 1367 H 133.637 -0.406638 -1.64756 0
M  V30 1368 H 132.409 -0.611729 -3.86489 0
M  V30 1369 H 132.032 1.1027 -3.82003 0
M  V30 1370 N 133.029 1.57378 -0.0835403 0
M  V30 1371 C 134.445 1.57246 0.273109 0
M  V30 1372 C 134.645 1.09385 1.69225 0
M  V30 1373 O 133.701 0.765051 2.40631 0
M  V30 1374 C 135.014 3.00614 0.0720628 0
M  V30 1375 C 136.562 3.12684 0.1407 0
M  V30 1376 C 137.037 4.57989 -0.0322094 0
M  V30 1377 N 138.528 4.63194 0.0230085 0
M  V30 1378 C 139.263 5.73335 -0.0861941 0
M  V30 1379 N 138.759 6.9235 -0.24958 0
M  V30 1380 N 140.552 5.62093 -0.0282886 0
M  V30 1381 H 132.703 1.86801 -1.0109 0
M  V30 1382 H 134.966 0.861687 -0.395222 0
M  V30 1383 H 134.672 3.39786 -0.907662 0
M  V30 1384 H 134.546 3.68193 0.81936 0
M  V30 1385 H 136.933 2.73391 1.11092 0
M  V30 1386 H 137.014 2.47719 -0.637896 0
M  V30 1387 H 136.658 4.97973 -0.999247 0
M  V30 1388 H 136.588 5.21 0.765937 0
M  V30 1389 H 139.079 3.77613 0.14722 0
M  V30 1390 H 139.392 7.72117 -0.324733 0
M  V30 1391 H 137.737 6.94415 -0.285097 0
M  V30 1392 H 140.928 4.67997 0.0981408 0
M  V30 1393 H 141.101 6.47895 -0.116845 0
M  V30 1394 N 134.507 -0.190092 1.56449 0
M  V30 1395 C 135.918 -0.754312 1.70784 0
M  V30 1396 C 136.269 -1.83631 0.690951 0
M  V30 1397 O 135.394 -2.15868 -0.151604 0
M  V30 1398 C 135.989 -1.37503 3.09642 0
M  V30 1399 C 134.548 -1.88628 3.25725 0
M  V30 1400 C 133.695 -0.758098 2.66736 0
M  V30 1401 H 136.646 0.0350524 1.58661 0
M  V30 1402 H 136.667 -2.2445 3.0725 0
M  V30 1403 H 136.179 -0.587302 3.83631 0
M  V30 1404 H 134.28 -2.70103 2.56661 0
M  V30 1405 H 134.393 -2.04462 4.3328 0
M  V30 1406 H 132.757 -1.17369 2.26046 0
M  V30 1407 H 133.54 0.0174705 3.43296 0
M  V30 1408 N 135.985 -1.50799 -0.457987 0
M  V30 1409 C 137.21 -1.66496 -1.23668 0
M  V30 1410 C 137.635 -0.353288 -1.84752 0
M  V30 1411 O 136.993 0.684346 -1.67888 0
M  V30 1412 C 137.041 -2.76763 -2.3116 0
M  V30 1413 O 136.145 -2.38928 -3.36136 0
M  V30 1414 H 135.486 -0.555828 -0.363252 0
M  V30 1415 H 138.016 -1.9725 -0.543474 0
M  V30 1416 H 138.026 -3.00232 -2.76269 0
M  V30 1417 H 136.701 -3.71954 -1.86073 0
M  V30 1418 H 135.278 -2.25953 -2.96647 0
M  V30 1419 N 137.463 0.71206 -1.40597 0
M  V30 1420 C 138.393 1.83889 -1.43899 0
M  V30 1421 C 139.374 1.67442 -0.299504 0
M  V30 1422 O 140.559 1.87421 -0.508624 0
M  V30 1423 C 137.689 3.21877 -1.30431 0
M  V30 1424 C 136.643 3.53002 -2.42019 0
M  V30 1425 C 135.969 4.90172 -2.13626 0
M  V30 1426 C 137.269 3.53643 -3.84362 0
M  V30 1427 H 138.963 1.81383 -2.38203 0
M  V30 1428 H 136.509 0.871237 -1.14654 0
M  V30 1429 H 138.462 4.00404 -1.31357 0
M  V30 1430 H 137.186 3.24968 -0.326049 0
M  V30 1431 H 135.845 2.76818 -2.40349 0
M  V30 1432 H 135.493 4.89869 -1.14182 0
M  V30 1433 H 135.193 5.11962 -2.88389 0
M  V30 1434 H 136.717 5.71028 -2.1624 0
M  V30 1435 H 138.131 4.22203 -3.87837 0
M  V30 1436 H 136.528 3.86961 -4.58673 0
M  V30 1437 H 137.598 2.52954 -4.13693 0
M  V30 1438 N 138.941 1.26152 0.944643 0
M  V30 1439 C 140.169 1.14259 1.72489 0
M  V30 1440 C 140.584 -0.302555 1.8636 0
M  V30 1441 O 139.941 -1.20741 1.36849 0
M  V30 1442 C 139.992 1.80266 3.13347 0
M  V30 1443 O 139.713 3.19133 3.00143 0
M  V30 1444 C 141.214 1.74283 4.07603 0
M  V30 1445 H 138.434 0.398051 0.540181 0
M  V30 1446 H 140.978 1.66706 1.18446 0
M  V30 1447 H 139.133 1.31766 3.64303 0
M  V30 1448 H 139.547 3.51744 3.89071 0
M  V30 1449 H 141.021 2.25111 5.04013 0
M  V30 1450 H 141.498 0.708631 4.33446 0
M  V30 1451 H 142.104 2.22319 3.62567 0
M  V30 1452 N 140.419 -1.14872 1.07899 0
M  V30 1453 C 141.665 -1.86064 0.806725 0
M  V30 1454 C 141.998 -1.82434 -0.665706 0
M  V30 1455 O 141.273 -1.25138 -1.48899 0
M  V30 1456 C 141.556 -3.34929 1.32267 0
M  V30 1457 C 141.409 -3.47161 2.86006 0
M  V30 1458 C 142.728 -4.29863 0.943717 0
M  V30 1459 H 139.847 -0.675591 0.294526 0
M  V30 1460 H 142.489 -1.34925 1.33773 0
M  V30 1461 H 140.639 -3.78611 0.870974 0
M  V30 1462 H 142.311 -3.12302 3.39507 0
M  V30 1463 H 140.554 -2.88539 3.23925 0
M  V30 1464 H 141.225 -4.51777 3.17177 0
M  V30 1465 H 143.701 -3.9417 1.33302 0
M  V30 1466 H 142.577 -5.32494 1.33198 0
M  V30 1467 H 142.838 -4.41846 -0.149796 0
M  V30 1468 N 141.898 -0.863906 -1.31812 0
M  V30 1469 C 143.126 -0.486111 -2.01108 0
M  V30 1470 C 143.541 0.919755 -1.64882 0
M  V30 1471 O 142.898 1.60162 -0.874893 0
M  V30 1472 C 142.949 -0.626435 -3.56031 0
M  V30 1473 O 142.67 -1.97693 -3.90959 0
M  V30 1474 C 144.171 -0.248857 -4.42601 0
M  V30 1475 H 141.391 -0.190052 -0.643523 0
M  V30 1476 H 143.935 -1.1634 -1.68182 0
M  V30 1477 H 142.09 0.00322717 -3.874 0
M  V30 1478 H 142.504 -1.98034 -4.85678 0
M  V30 1479 H 143.978 -0.398016 -5.50563 0
M  V30 1480 H 144.455 0.811489 -4.31638 0
M  V30 1481 H 145.061 -0.853971 -4.16638 0
M  V30 1482 N 143.376 1.44774 -0.622745 0
M  V30 1483 C 144.787 1.85546 -0.207226 0
M  V30 1484 C 145.138 1.52093 1.23944 0
M  V30 1485 O 144.263 0.95492 1.94191 0
M  V30 1486 C 144.858 3.36781 -0.369313 0
M  V30 1487 C 143.417 3.76399 -0.00836847 0
M  V30 1488 C 142.564 2.68664 -0.686651 0
M  V30 1489 H 145.515 1.3536 -0.828454 0
M  V30 1490 H 145.536 3.78453 0.394162 0
M  V30 1491 H 145.048 3.61098 -1.42231 0
M  V30 1492 H 143.149 3.57698 1.04322 0
M  V30 1493 H 143.262 4.7732 -0.412584 0
M  V30 1494 H 141.626 2.54404 -0.122777 0
M  V30 1495 H 142.409 2.95815 -1.74208 0
M  V30 1496 N 144.854 0.36279 1.53368 0
M  V30 1497 C 145.801 -0.485008 2.25646 0
M  V30 1498 C 146.771 -1.07982 1.2621 0
M  V30 1499 O 147.956 -1.11284 1.54986 0
M  V30 1500 C 145.096 -1.62023 3.04701 0
M  V30 1501 C 144.209 -1.05086 4.19024 0
M  V30 1502 C 143.344 -2.15496 4.85525 0
M  V30 1503 C 142.383 -1.5601 5.91884 0
M  V30 1504 N 141.52 -2.60241 6.52088 0
M  V30 1505 H 146.36 0.137864 2.97681 0
M  V30 1506 H 143.897 0.0798061 1.46883 0
M  V30 1507 H 145.855 -2.28887 3.48807 0
M  V30 1508 H 144.485 -2.2138 2.34927 0
M  V30 1509 H 143.537 -0.27259 3.79422 0
M  V30 1510 H 144.849 -0.575926 4.95464 0
M  V30 1511 H 144.003 -2.90186 5.32801 0
M  V30 1512 H 142.742 -2.66341 4.08551 0
M  V30 1513 H 141.747 -0.798338 5.43973 0
M  V30 1514 H 142.972 -1.05994 6.70777 0
M  V30 1515 H 140.918 -3.10304 5.77968 0
M  V30 1516 H 140.835 -2.17426 7.24059 0
M  V30 1517 H 142.103 -3.34641 7.04014 0
M  V30 1518 N 146.332 -1.57332 0.0918853 0
M  V30 1519 C 147.748 -1.57389 -0.264766 0
M  V30 1520 C 147.948 -1.10281 -1.68643 0
M  V30 1521 O 147.004 -0.777801 -2.40222 0
M  V30 1522 C 148.317 -3.00648 -0.0561195 0
M  V30 1523 C 149.865 -3.12754 -0.124116 0
M  V30 1524 C 150.34 -4.57965 0.0564972 0
M  V30 1525 N 151.831 -4.632 0.00155611 0
M  V30 1526 C 152.566 -5.73281 0.116598 0
M  V30 1527 N 152.062 -6.92208 0.286294 0
M  V30 1528 N 153.855 -5.6207 0.0580973 0
M  V30 1529 H 146.006 -1.86262 1.02079 0
M  V30 1530 H 148.269 -0.859579 0.399786 0
M  V30 1531 H 147.975 -3.393 0.925669 0
M  V30 1532 H 147.849 -3.68623 -0.799823 0
M  V30 1533 H 150.236 -2.73976 -1.09641 0
M  V30 1534 H 150.317 -2.47377 0.651024 0
M  V30 1535 H 149.961 -4.97436 1.02564 0
M  V30 1536 H 149.891 -5.21399 -0.738297 0
M  V30 1537 H 152.382 -3.77686 -0.127192 0
M  V30 1538 H 152.695 -7.71934 0.365676 0
M  V30 1539 H 151.04 -6.94254 0.32192 0
M  V30 1540 H 154.231 -4.68043 -0.0733204 0
M  V30 1541 H 154.404 -6.47824 0.151203 0
M  V30 1542 N 147.81 0.181792 -1.56548 0
M  V30 1543 C 149.056 0.896803 -1.82562 0
M  V30 1544 C 149.411 1.80324 -0.670908 0
M  V30 1545 O 148.704 1.8868 0.333235 0
M  V30 1546 C 148.898 1.73728 -3.12335 0
M  V30 1547 C 148.727 0.913714 -4.4032 0
M  V30 1548 C 147.497 0.592903 -5.01809 0
M  V30 1549 C 149.695 0.260164 -5.13642 0
M  V30 1550 N 147.677 -0.247901 -6.13399 0
M  V30 1551 C 149.048 -0.442256 -6.18421 0
M  V30 1552 C 151.103 0.177253 -4.97584 0
M  V30 1553 C 149.806 -1.21971 -7.08883 0
M  V30 1554 C 151.832 -0.586839 -5.88481 0
M  V30 1555 C 151.194 -1.27766 -6.92716 0
M  V30 1556 H 147.293 0.307122 -0.719166 0
M  V30 1557 H 149.877 0.164535 -1.94004 0
M  V30 1558 H 148.048 2.44105 -3.02105 0
M  V30 1559 H 149.78 2.39279 -3.26386 0
M  V30 1560 H 146.535 0.920502 -4.64568 0
M  V30 1561 H 146.959 -0.658304 -6.73792 0
M  V30 1562 H 151.601 0.696993 -4.17015 0
M  V30 1563 H 149.319 -1.75083 -7.88905 0
M  V30 1564 H 152.905 -0.652522 -5.78129 0
M  V30 1565 H 151.785 -1.85943 -7.61836 0
M  V30 1566 N 149.288 1.51039 0.449983 0
M  V30 1567 C 150.235 1.71439 1.54523 0
M  V30 1568 C 151.205 0.555871 1.56522 0
M  V30 1569 O 152.39 0.788871 1.73728 0
M  V30 1570 C 149.53 1.83384 2.92343 0
M  V30 1571 C 148.643 3.10873 2.9997 0
M  V30 1572 C 147.778 3.13488 4.28834 0
M  V30 1573 C 146.817 4.35343 4.30282 0
M  V30 1574 N 145.954 4.35579 5.5065 0
M  V30 1575 H 150.794 2.64934 1.36433 0
M  V30 1576 H 148.331 1.31312 0.662982 0
M  V30 1577 H 150.289 1.88291 3.72293 0
M  V30 1578 H 148.919 0.933086 3.0902 0
M  V30 1579 H 147.971 3.15336 2.12761 0
M  V30 1580 H 149.283 4.00814 2.96901 0
M  V30 1581 H 148.437 3.17241 5.17149 0
M  V30 1582 H 147.176 2.21414 4.34543 0
M  V30 1583 H 146.181 4.3178 3.40362 0
M  V30 1584 H 147.406 5.28668 4.26248 0
M  V30 1585 H 145.352 3.46369 5.57104 0
M  V30 1586 H 145.269 5.19313 5.49409 0
M  V30 1587 H 146.537 4.43507 6.41032 0
M  V30 1588 N 150.766 -0.704594 1.40972 0
M  V30 1589 C 151.696 -1.83124 1.44872 0
M  V30 1590 C 152.677 -1.67281 0.30838 0
M  V30 1591 O 153.862 -1.87149 0.518556 0
M  V30 1592 C 150.992 -3.21181 1.32136 0
M  V30 1593 C 149.946 -3.51714 2.43888 0
M  V30 1594 C 149.272 -4.89032 2.16222 0
M  V30 1595 C 150.572 -3.516 3.86232 0
M  V30 1596 H 152.266 -1.80117 2.39161 0
M  V30 1597 H 149.812 -0.865145 1.15114 0
M  V30 1598 H 151.765 -3.99702 1.33479 0
M  V30 1599 H 150.489 -3.24791 0.343279 0
M  V30 1600 H 149.148 -2.75539 2.41813 0
M  V30 1601 H 148.796 -4.89256 1.16778 0
M  V30 1602 H 148.496 -5.10426 2.911 0
M  V30 1603 H 150.02 -5.69873 2.19265 0
M  V30 1604 H 151.434 -4.2014 3.9007 0
M  V30 1605 H 149.831 -3.84523 4.60719 0
M  V30 1606 H 150.901 -2.50757 4.15029 0
M  V30 1607 N 152.244 -1.26651 -0.937939 0
M  V30 1608 C 153.66 -1.03834 -1.21205 0
M  V30 1609 C 153.86 0.234502 -2.00131 0
M  V30 1610 O 152.916 0.942767 -2.3424 0
M  V30 1611 C 154.229 -2.27167 -1.97017 0
M  V30 1612 C 155.777 -2.32101 -2.09996 0
M  V30 1613 C 156.252 -3.55136 -2.8921 0
M  V30 1614 N 157.743 -3.55632 -2.96783 0
M  V30 1615 C 158.478 -4.475 -3.58512 0
M  V30 1616 N 157.974 -5.4966 -4.21717 0
M  V30 1617 N 159.767 -4.35145 -3.55816 0
M  V30 1618 H 151.918 -2.08398 -0.410391 0
M  V30 1619 H 154.181 -0.916031 -0.244114 0
M  V30 1620 H 153.887 -3.19765 -1.46434 0
M  V30 1621 H 153.761 -2.31672 -2.97671 0
M  V30 1622 H 156.148 -1.40015 -2.59769 0
M  V30 1623 H 156.229 -2.31605 -1.08594 0
M  V30 1624 H 155.873 -4.47553 -2.40123 0
M  V30 1625 H 155.803 -3.5288 -3.90875 0
M  V30 1626 H 158.294 -2.81743 -2.51852 0
M  V30 1627 H 158.607 -6.15943 -4.66727 0
M  V30 1628 H 156.952 -5.53514 -4.20294 0
M  V30 1629 H 160.143 -3.5455 -3.05634 0
M  V30 1630 H 160.316 -5.06934 -4.03636 0
M  V30 1631 N 153.722 1.14298 -1.08507 0
M  V30 1632 C 154.685 2.17607 -0.719711 0
M  V30 1633 C 155.685 1.58907 0.245997 0
M  V30 1634 O 156.875 1.74181 0.0254081 0
M  V30 1635 C 154.007 3.40842 -0.0627695 0
M  V30 1636 H 155.2 2.51443 -1.63452 0
M  V30 1637 H 152.753 1.28963 -0.88307 0
M  V30 1638 H 153.488 3.12587 0.863716 0
M  V30 1639 H 153.273 3.84713 -0.757504 0
M  V30 1640 H 154.763 4.17221 0.177786 0
M  V30 1641 N 155.201 0.870884 1.31352 0
M  V30 1642 C 156.617 0.562932 1.49343 0
M  V30 1643 C 156.817 -0.902725 1.80148 0
M  V30 1644 O 155.873 -1.68484 1.88067 0
M  V30 1645 C 157.186 1.46393 2.62659 0
M  V30 1646 C 158.734 1.46607 2.76542 0
M  V30 1647 C 159.209 2.35266 3.92955 0
M  V30 1648 N 160.7 2.33151 4.00243 0
M  V30 1649 C 161.435 2.98471 4.89594 0
M  V30 1650 N 160.931 3.72964 5.8384 0
M  V30 1651 N 162.724 2.87775 4.82848 0
M  V30 1652 H 154.875 1.81923 1.09626 0
M  V30 1653 H 157.138 0.777934 0.541777 0
M  V30 1654 H 156.844 2.50689 2.46674 0
M  V30 1655 H 156.718 1.16314 3.58819 0
M  V30 1656 H 159.105 0.43069 2.9194 0
M  V30 1657 H 159.186 1.8071 1.81046 0
M  V30 1658 H 158.83 3.38881 3.78315 0
M  V30 1659 H 158.76 1.98487 4.87761 0
M  V30 1660 H 161.251 1.79006 3.32814 0
M  V30 1661 H 161.564 4.19932 6.4875 0
M  V30 1662 H 159.909 3.77073 5.83816 0
M  V30 1663 H 163.1 2.29116 4.08195 0
M  V30 1664 H 163.273 3.38961 5.52277 0
M  V30 1665 N 156.679 -1.44442 0.630414 0
M  V30 1666 C 158.09 -1.85434 0.217063 0
M  V30 1667 C 158.441 -1.52748 -1.23136 0
M  V30 1668 O 157.566 -0.965205 -1.93682 0
M  V30 1669 C 158.161 -3.36581 0.387168 0
M  V30 1670 C 156.72 -3.76389 0.0283297 0
M  V30 1671 C 155.867 -2.68296 0.700889 0
M  V30 1672 H 158.818 -1.34919 0.83562 0
M  V30 1673 H 158.839 -3.78657 -0.374086 0
M  V30 1674 H 158.351 -3.60339 1.44144 0
M  V30 1675 H 156.452 -3.58246 -1.02423 0
M  V30 1676 H 156.565 -4.77095 0.437892 0
M  V30 1677 H 154.929 -2.54335 0.136267 0
M  V30 1678 H 155.712 -2.94887 1.75774 0
M  V30 1679 N 158.157 -0.370918 -1.53173 0
M  V30 1680 C 159.382 0.220293 -2.06227 0
M  V30 1681 C 159.807 1.41243 -1.24225 0
M  V30 1682 O 159.165 1.79387 -0.262645 0
M  V30 1683 C 159.213 0.586663 -3.55796 0
M  V30 1684 O 158.317 1.68317 -3.76488 0
M  V30 1685 H 157.658 0.0308099 -0.663285 0
M  V30 1686 H 160.188 -0.533068 -1.97534 0
M  V30 1687 H 160.198 0.85617 -3.98916 0
M  V30 1688 H 158.873 -0.285013 -4.14922 0
M  V30 1689 H 157.45 1.40881 -3.45264 0
M  V30 1690 N 159.635 1.57281 -0.100228 0
M  V30 1691 C 160.565 2.17328 0.853857 0
M  V30 1692 C 161.546 1.10804 1.2906 0
M  V30 1693 O 162.731 1.38963 1.35657 0
M  V30 1694 C 159.861 2.75772 2.11109 0
M  V30 1695 C 158.815 3.87713 1.81279 0
M  V30 1696 C 158.141 4.32882 3.13874 0
M  V30 1697 C 159.441 5.10677 1.09574 0
M  V30 1698 H 161.135 2.97305 0.353545 0
M  V30 1699 H 158.681 1.43009 0.168612 0
M  V30 1700 H 160.634 3.16433 2.78296 0
M  V30 1701 H 159.358 1.93057 2.63432 0
M  V30 1702 H 158.017 3.476 1.16489 0
M  V30 1703 H 157.665 3.47051 3.64095 0
M  V30 1704 H 157.365 5.08358 2.94696 0
M  V30 1705 H 158.889 4.7618 3.82211 0
M  V30 1706 H 160.303 5.48474 1.66879 0
M  V30 1707 H 158.7 5.91615 1.00557 0
M  V30 1708 H 159.77 4.84835 0.0793299 0
M  V30 1709 N 161.113 -0.173488 1.56642 0
M  V30 1710 C 162.341 -0.906095 1.86004 0
M  V30 1711 C 162.756 -1.75921 0.685355 0
M  V30 1712 O 162.113 -1.79198 -0.345578 0
M  V30 1713 C 162.164 -1.78462 3.14378 0
M  V30 1714 O 161.885 -0.965914 4.27319 0
M  V30 1715 C 163.386 -2.62707 3.57071 0
M  V30 1716 H 160.606 -0.263341 0.617165 0
M  V30 1717 H 163.15 -0.174236 2.03756 0
M  V30 1718 H 161.305 -2.46984 2.98459 0
M  V30 1719 H 161.719 -1.56655 5.00559 0
M  V30 1720 H 163.193 -3.19969 4.49804 0
M  V30 1721 H 163.67 -3.37472 2.81086 0
M  V30 1722 H 164.276 -1.99521 3.75595 0
M  V30 1723 N 162.591 -1.51276 -0.441967 0
M  V30 1724 C 163.837 -1.63958 -1.19355 0
M  V30 1725 C 164.17 -0.352543 -1.90973 0
M  V30 1726 O 163.445 0.647627 -1.83401 0
M  V30 1727 C 163.728 -2.83979 -2.21422 0
M  V30 1728 C 163.581 -4.22646 -1.53918 0
M  V30 1729 C 164.9 -2.99521 -3.22451 0
M  V30 1730 H 162.019 -0.596709 -0.432559 0
M  V30 1731 H 164.661 -1.83748 -0.483398 0
M  V30 1732 H 162.811 -2.67237 -2.81987 0
M  V30 1733 H 164.483 -4.51045 -0.967256 0
M  V30 1734 H 162.726 -4.25558 -0.841615 0
M  V30 1735 H 163.397 -5.02609 -2.28229 0
M  V30 1736 H 165.873 -3.14944 -2.71937 0
M  V30 1737 H 164.749 -3.85072 -3.91166 0
M  V30 1738 H 165.01 -2.11391 -3.88287 0
M  V30 1739 N 164.069 0.697108 -1.41344 0
M  V30 1740 C 165.297 1.48593 -1.43972 0
M  V30 1741 C 165.712 1.88747 -0.0445612 0
M  V30 1742 O 165.069 1.56682 0.935785 0
M  V30 1743 C 165.12 2.74946 -2.34706 0
M  V30 1744 O 164.841 2.36484 -3.68791 0
M  V30 1745 C 166.342 3.687 -2.46121 0
M  V30 1746 H 163.562 0.457964 -0.490418 0
M  V30 1747 H 166.106 0.858429 -1.8561 0
M  V30 1748 H 164.261 3.33937 -1.9638 0
M  V30 1749 H 164.675 3.17918 -4.17167 0
M  V30 1750 H 166.149 4.54145 -3.13777 0
M  V30 1751 H 166.626 4.13081 -1.49199 0
M  V30 1752 H 167.232 3.15613 -2.85076 0
M  V30 1753 N 165.547 1.27147 0.931209 0
M  V30 1754 C 166.958 1.12044 1.49342 0
M  V30 1755 C 167.309 -0.295795 1.93957 0
M  V30 1756 O 166.434 -1.18835 1.80852 0
M  V30 1757 C 167.029 2.02781 2.71414 0
M  V30 1758 C 165.588 1.91794 3.2387 0
M  V30 1759 C 164.735 1.95543 1.96617 0
M  V30 1760 H 167.686 1.40091 0.745672 0
M  V30 1761 H 167.707 1.58156 3.46074 0
M  V30 1762 H 167.219 3.05848 2.38911 0
M  V30 1763 H 165.32 0.916992 3.6114 0
M  V30 1764 H 165.433 2.77852 3.90302 0
M  V30 1765 H 163.797 1.39722 2.12955 0
M  V30 1766 H 164.58 3.00259 1.66432 0
M  V30 1767 N 167.025 -1.13721 1.09112 0
M  V30 1768 C 168.441 -1.36914 0.820174 0
M  V30 1769 C 168.641 -1.93356 -0.567079 0
M  V30 1770 O 167.697 -2.15093 -1.32255 0
M  V30 1771 C 169.01 -2.3235 1.90877 0
M  V30 1772 C 170.558 -2.45973 1.93562 0
M  V30 1773 C 171.033 -3.44714 3.01556 0
M  V30 1774 N 172.524 -3.52263 3.00775 0
M  V30 1775 C 173.259 -4.28536 3.80978 0
M  V30 1776 N 172.755 -5.07991 4.71081 0
M  V30 1777 N 174.548 -4.23804 3.69251 0
M  V30 1778 H 166.699 -0.754348 1.98553 0
M  V30 1779 H 168.962 -0.3944 0.862063 0
M  V30 1780 H 168.668 -1.98027 2.90651 0
M  V30 1781 H 168.542 -3.32332 1.78424 0
M  V30 1782 H 170.929 -2.79584 0.944286 0
M  V30 1783 H 171.01 -1.45926 2.10093 0
M  V30 1784 H 170.654 -3.11835 4.00901 0
M  V30 1785 H 170.584 -4.44558 2.82269 0
M  V30 1786 H 173.075 -2.95567 2.35475 0
M  V30 1787 H 173.388 -5.63487 5.28869 0
M  V30 1788 H 171.733 -5.07235 4.75119 0
M  V30 1789 H 174.924 -3.60806 2.98222 0
M  V30 1790 H 175.097 -4.82995 4.31995 0
M  V30 1791 N 168.503 -0.877838 -1.30888 0
M  V30 1792 C 169.919 -0.570844 -1.49042 0
M  V30 1793 C 170.119 0.893159 -1.80624 0
M  V30 1794 O 169.175 1.67485 -1.88958 0
M  V30 1795 C 170.488 -1.47784 -2.61878 0
M  V30 1796 C 172.036 -1.48071 -2.75761 0
M  V30 1797 C 172.511 -2.37347 -3.91702 0
M  V30 1798 N 174.002 -2.35271 -3.99001 0
M  V30 1799 C 174.737 -3.01063 -4.88004 0
M  V30 1800 N 174.233 -3.76055 -5.81854 0
M  V30 1801 N 176.026 -2.90332 -4.81315 0
M  V30 1802 H 168.177 -1.82502 -1.0866 0
M  V30 1803 H 170.44 -0.780797 -0.537644 0
M  V30 1804 H 170.146 -2.51993 -2.45341 0
M  V30 1805 H 170.02 -1.18215 -3.58197 0
M  V30 1806 H 172.407 -0.446166 -2.91708 0
M  V30 1807 H 172.488 -1.81668 -1.80085 0
M  V30 1808 H 172.132 -3.40883 -3.76512 0
M  V30 1809 H 172.062 -2.01071 -4.86701 0
M  V30 1810 H 174.553 -1.80768 -3.3186 0
M  V30 1811 H 174.866 -4.23366 -6.46514 0
M  V30 1812 H 173.211 -3.80163 -5.81808 0
M  V30 1813 H 176.402 -2.31278 -4.06974 0
M  V30 1814 H 176.575 -3.41885 -5.50471 0
M  V30 1815 N 169.982 1.44106 -0.638065 0
M  V30 1816 C 170.912 2.33448 0.0494287 0
M  V30 1817 C 171.893 1.48606 0.827672 0
M  V30 1818 O 173.078 1.77308 0.792173 0
M  V30 1819 C 170.208 3.31771 1.02691 0
M  V30 1820 C 169.162 4.26485 0.359823 0
M  V30 1821 C 168.488 5.14729 1.44769 0
M  V30 1822 C 169.788 5.17056 -0.738296 0
M  V30 1823 H 171.482 2.91183 -0.696636 0
M  V30 1824 H 169.028 1.40014 -0.336456 0
M  V30 1825 H 170.981 3.93161 1.51666 0
M  V30 1826 H 169.705 2.7226 1.80395 0
M  V30 1827 H 168.364 3.66437 -0.10934 0
M  V30 1828 H 168.012 4.51566 2.21578 0
M  V30 1829 H 167.712 5.78913 1.00668 0
M  V30 1830 H 169.236 5.78991 1.93911 0
M  V30 1831 H 170.65 5.72342 -0.331354 0
M  V30 1832 H 169.047 5.89879 -1.10286 0
M  V30 1833 H 170.117 4.57652 -1.60258 0
M  V30 1834 N 171.46 0.379036 1.52974 0
M  V30 1835 C 172.708 -0.206014 2.01047 0
M  V30 1836 C 173.029 -1.48175 1.26765 0
M  V30 1837 O 172.299 -1.92085 0.384743 0
M  V30 1838 H 170.879 -0.0791184 0.742798 0
M  V30 1839 H 173.541 0.508366 1.88153 0
M  V30 1840 H 172.637 -0.423501 3.09213 0
M  V30 1841 N 172.938 -1.57226 0.108567 0
M  V30 1842 C 173.868 -2.17778 -0.84232 0
M  V30 1843 C 174.849 -1.11487 -1.2847 0
M  V30 1844 O 176.034 -1.39681 -1.34918 0
M  V30 1845 C 173.164 -2.76888 -2.09644 0
M  V30 1846 C 172.118 -3.88669 -1.79221 0
M  V30 1847 C 171.444 -4.34541 -3.11574 0
M  V30 1848 C 172.744 -5.11251 -1.06864 0
M  V30 1849 H 174.438 -2.97489 -0.337774 0
M  V30 1850 H 171.984 -1.43097 -0.161025 0
M  V30 1851 H 173.937 -3.17904 -2.76614 0
M  V30 1852 H 172.661 -1.94451 -2.62405 0
M  V30 1853 H 171.32 -3.48213 -1.14644 0
M  V30 1854 H 170.968 -3.48977 -3.62249 0
M  V30 1855 H 170.668 -5.09914 -2.91996 0
M  V30 1856 H 172.192 -4.782 -3.7968 0
M  V30 1857 H 173.606 -5.49352 -1.63968 0
M  V30 1858 H 172.003 -5.9214 -0.974178 0
M  V30 1859 H 173.073 -4.8487 -0.0536168 0
M  V30 1860 N 174.416 0.165178 -1.56732 0
M  V30 1861 C 175.832 0.517174 -1.50988 0
M  V30 1862 C 176.032 1.84331 -0.813894 0
M  V30 1863 O 175.088 2.49672 -0.37682 0
M  V30 1864 C 176.401 0.544261 -2.95733 0
M  V30 1865 C 177.949 0.631039 -3.06573 0
M  V30 1866 C 178.424 0.68896 -4.52788 0
M  V30 1867 N 179.915 0.751683 -4.5706 0
M  V30 1868 C 180.65 0.817177 -5.67547 0
M  V30 1869 N 180.146 0.843129 -6.8765 0
M  V30 1870 N 181.939 0.856668 -5.55534 0
M  V30 1871 H 174.09 -0.704318 -2.00382 0
M  V30 1872 H 176.353 -0.254687 -0.913148 0
M  V30 1873 H 176.059 -0.361607 -3.49836 0
M  V30 1874 H 175.933 1.3886 -3.5071 0
M  V30 1875 H 178.32 1.52733 -2.52501 0
M  V30 1876 H 178.401 -0.240095 -2.54671 0
M  V30 1877 H 178.045 -0.2031 -5.07494 0
M  V30 1878 H 177.975 1.57633 -5.02454 0
M  V30 1879 H 180.466 0.739661 -3.70591 0
M  V30 1880 H 180.779 0.894448 -7.67606 0
M  V30 1881 H 179.124 0.811304 -6.90248 0
M  V30 1882 H 182.315 0.833437 -4.60621 0
M  V30 1883 H 182.488 0.904247 -6.4166 0
M  V30 1884 N 175.894 1.51508 0.433938 0
M  V30 1885 C 176.857 1.72473 1.50949 0
M  V30 1886 C 177.857 0.594725 1.49398 0
M  V30 1887 O 179.047 0.862315 1.5136 0
M  V30 1888 C 176.179 1.78431 2.90474 0
M  V30 1889 H 177.372 2.68467 1.33662 0
M  V30 1890 H 174.925 1.41549 0.662836 0
M  V30 1891 H 175.66 0.842645 3.13161 0
M  V30 1892 H 175.445 2.60558 2.93005 0
M  V30 1893 H 176.935 1.96479 3.68491 0
M  V30 1894 N 177.372 -0.689602 1.41712 0
M  V30 1895 C 178.788 -1.00093 1.24312 0
M  V30 1896 C 178.988 -2.01036 0.136729 0
M  V30 1897 O 178.044 -2.47562 -0.496918 0
M  V30 1898 C 179.357 -1.51985 2.59463 0
M  V30 1899 C 180.905 -1.63838 2.66695 0
M  V30 1900 C 181.38 -2.1913 4.02177 0
M  V30 1901 N 182.871 -2.26483 4.04054 0
M  V30 1902 C 183.606 -2.70306 5.0569 0
M  V30 1903 N 183.102 -3.13691 6.17713 0
M  V30 1904 N 184.895 -2.69923 4.9305 0
M  V30 1905 H 177.046 -0.0210029 2.1239 0
M  V30 1906 H 179.309 -0.0718733 0.945272 0
M  V30 1907 H 179.015 -0.85269 3.41207 0
M  V30 1908 H 178.889 -2.50103 2.82362 0
M  V30 1909 H 181.276 -2.29664 1.85306 0
M  V30 1910 H 181.357 -0.642492 2.476 0
M  V30 1911 H 181.001 -1.53918 4.84016 0
M  V30 1912 H 180.931 -3.19482 4.18615 0
M  V30 1913 H 183.422 -1.95874 3.23174 0
M  V30 1914 H 183.735 -3.45773 6.9113 0
M  V30 1915 H 182.08 -3.11585 6.21241 0
M  V30 1916 H 185.271 -2.35382 4.04614 0
M  V30 1917 H 185.444 -3.03758 5.72394 0
M  V30 1918 N 178.85 -1.27639 -0.924453 0
M  V30 1919 C 180.261 -1.12834 -1.48746 0
M  V30 1920 C 180.612 0.285505 -1.94112 0
M  V30 1921 O 179.737 1.17874 -1.81479 0
M  V30 1922 C 180.332 -2.04217 -2.70334 0
M  V30 1923 C 178.891 -1.93509 -3.22848 0
M  V30 1924 C 178.038 -1.96583 -1.95577 0
M  V30 1925 H 180.989 -1.40484 -0.738233 0
M  V30 1926 H 181.01 -1.59989 -3.4523 0
M  V30 1927 H 180.522 -3.07111 -2.37285 0
M  V30 1928 H 178.623 -0.936131 -3.60649 0
M  V30 1929 H 178.736 -2.79917 -3.88823 0
M  V30 1930 H 177.1 -1.4085 -2.12211 0
M  V30 1931 H 177.883 -3.01137 -1.64837 0
M  V30 1932 N 180.328 1.1314 -1.09713 0
M  V30 1933 C 181.739 1.66029 -0.853885 0
M  V30 1934 C 182.09 1.86241 0.617142 0
M  V30 1935 O 181.215 1.5834 1.47503 0
M  V30 1936 C 181.81 3.01599 -1.5435 0
M  V30 1937 C 180.369 3.51467 -1.34714 0
M  V30 1938 C 179.516 2.26648 -1.59769 0
M  V30 1939 H 182.467 0.970226 -1.25588 0
M  V30 1940 H 182.488 3.67709 -0.978267 0
M  V30 1941 H 182 2.86856 -2.6141 0
M  V30 1942 H 180.101 3.71408 -0.297838 0
M  V30 1943 H 180.214 4.314 -2.08401 0
M  V30 1944 H 178.578 2.33385 -1.01998 0
M  V30 1945 H 179.361 2.14467 -2.68065 0
M  V30 1946 N 181.806 0.884767 1.30421 0
M  V30 1947 C 182.738 0.308655 2.27112 0
M  V30 1948 C 183.751 -0.536655 1.53701 0
M  V30 1949 O 184.94 -0.35624 1.74909 0
M  V30 1950 C 182.04 -0.579782 3.33904 0
M  V30 1951 C 181.213 0.236417 4.36761 0
M  V30 1952 C 180.272 -0.582482 5.22966 0
M  V30 1953 O 179.298 -0.00525502 5.692 0
M  V30 1954 N 180.5 -1.89163 5.48815 0
M  V30 1955 H 183.265 1.13964 2.77186 0
M  V30 1956 H 180.826 0.747731 1.43599 0
M  V30 1957 H 182.818 -1.13366 3.88497 0
M  V30 1958 H 181.388 -1.31144 2.83761 0
M  V30 1959 H 180.608 0.97174 3.82035 0
M  V30 1960 H 181.896 0.795924 5.02536 0
M  V30 1961 H 181.294 -2.38352 5.13035 0
M  V30 1962 H 179.851 -2.39296 6.06284 0
M  V30 1963 N 183.284 -1.43765 0.645699 0
M  V30 1964 C 184.231 -2.30745 -0.0504648 0
M  V30 1965 C 185.201 -1.4432 -0.822241 0
M  V30 1966 O 186.386 -1.73202 -0.800358 0
M  V30 1967 C 183.526 -3.29802 -1.0161 0
M  V30 1968 C 182.639 -4.31326 -0.241219 0
M  V30 1969 C 181.774 -5.17469 -1.19998 0
M  V30 1970 C 180.813 -6.10691 -0.415094 0
M  V30 1971 N 179.95 -6.89483 -1.32506 0
M  V30 1972 H 184.79 -2.8973 0.697155 0
M  V30 1973 H 182.327 -1.42738 0.355563 0
M  V30 1974 H 184.285 -3.85734 -1.58949 0
M  V30 1975 H 182.915 -2.72483 -1.73069 0
M  V30 1976 H 181.967 -3.77749 0.448334 0
M  V30 1977 H 183.279 -4.9743 0.369437 0
M  V30 1978 H 182.433 -5.7799 -1.84424 0
M  V30 1979 H 181.172 -4.51473 -1.84455 0
M  V30 1980 H 180.177 -5.49265 0.242565 0
M  V30 1981 H 181.402 -6.78727 0.224966 0
M  V30 1982 H 179.348 -6.26142 -1.95657 0
M  V30 1983 H 179.265 -7.52081 -0.768783 0
M  V30 1984 H 180.533 -7.54516 -1.9577 0
M  V30 1985 N 184.763 -0.387143 -1.52771 0
M  V30 1986 C 186.003 0.195537 -2.03463 0
M  V30 1987 C 186.367 1.44222 -1.26744 0
M  V30 1988 O 187.568 2.10192 -1.67549 0
M  V30 1989 C 185.839 0.459097 -3.54439 0
M  V30 1990 S 187.398 1.01237 -4.26962 0
M  V30 1991 H 184.216 0.0552675 -0.708849 0
M  V30 1992 H 186.818 -0.534992 -1.88037 0
M  V30 1993 H 185.522 -0.455382 -4.07866 0
M  V30 1994 H 185.053 1.21811 -3.74066 0
M  V30 1995 H 187.068 2.29492 -4.39941 0
M  V30 1996 N 186.241 1.57166 -0.116904 0
M  V30 1997 C 187.466 1.999 0.55271 0
M  V30 1998 C 187.891 0.996039 1.59564 0
M  V30 1999 O 187.249 -0.032556 1.81271 0
M  V30 2000 C 187.297 3.4152 1.15742 0
M  V30 2001 O 186.401 3.44106 2.27299 0
M  V30 2002 H 185.742 0.649447 0.138258 0
M  V30 2003 H 188.272 2.03573 -0.204759 0
M  V30 2004 H 188.282 3.79684 1.49346 0
M  V30 2005 H 186.957 4.14034 0.393493 0
M  V30 2006 H 185.534 3.17759 1.9515 0
M  V30 2007 N 187.719 -0.156864 1.56817 0
M  V30 2008 C 188.947 -0.886316 1.86955 0
M  V30 2009 C 189.362 -1.75185 0.703975 0
M  V30 2010 O 188.719 -1.79555 -0.326552 0
M  V30 2011 C 188.77 -1.75117 3.16253 0
M  V30 2012 O 188.491 -0.920537 4.2832 0
M  V30 2013 C 189.992 -2.58905 3.59837 0
M  V30 2014 H 187.212 -0.25678 0.619923 0
M  V30 2015 H 189.756 -0.152615 2.0393 0
M  V30 2016 H 187.911 -2.43805 3.01062 0
M  V30 2017 H 188.325 -1.51337 5.02192 0
M  V30 2018 H 189.799 -3.1518 4.53172 0
M  V30 2019 H 190.276 -3.34472 2.84649 0
M  V30 2020 H 190.882 -1.95526 3.7769 0
M  V30 2021 N 189.197 -1.51736 -0.425897 0
M  V30 2022 C 190.608 -1.5732 -1.00536 0
M  V30 2023 C 190.959 -0.403537 -1.92005 0
M  V30 2024 O 190.084 0.478256 -2.11049 0
M  V30 2025 C 190.679 -2.85119 -1.8301 0
M  V30 2026 C 189.238 -2.93236 -2.35987 0
M  V30 2027 C 188.385 -2.52098 -1.15508 0
M  V30 2028 H 191.336 -1.57348 -0.206739 0
M  V30 2029 H 191.357 -2.69526 -2.68581 0
M  V30 2030 H 190.869 -3.7023 -1.16411 0
M  V30 2031 H 188.97 -2.12581 -3.06007 0
M  V30 2032 H 189.083 -3.9713 -2.68001 0
M  V30 2033 H 187.447 -2.05558 -1.50393 0
M  V30 2034 H 188.23 -3.39565 -0.505014 0
M  V30 2035 N 190.675 0.682077 -1.42076 0
M  V30 2036 C 191.915 1.45424 -1.43636 0
M  V30 2037 C 192.279 1.91939 -0.0484001 0
M  V30 2038 O 193.48 2.6873 0.0612514 0
M  V30 2039 C 191.751 2.62427 -2.42625 0
M  V30 2040 S 193.31 3.51379 -2.62827 0
M  V30 2041 H 190.128 0.496779 -0.508657 0
M  V30 2042 H 192.73 0.794645 -1.78621 0
M  V30 2043 H 191.434 2.26481 -3.42249 0
M  V30 2044 H 190.965 3.33266 -2.09039 0
M  V30 2045 H 192.98 4.58141 -1.9058 0
M  V30 2046 N 192.153 1.28127 0.917671 0
M  V30 2047 C 193.401 1.14825 1.66312 0
M  V30 2048 C 193.722 -0.304379 1.9261 0
M  V30 2049 O 192.992 -1.21149 1.53947 0
M  V30 2050 H 191.572 0.421953 0.616413 0
M  V30 2051 H 194.234 1.608 1.10134 0
M  V30 2052 H 193.33 1.68489 2.62712 0
M  V30 2053 N 193.631 -1.12557 1.10312 0
M  V30 2054 C 195.042 -1.65574 0.862678 0
M  V30 2055 C 195.393 -1.86566 -0.607256 0
M  V30 2056 O 194.518 -1.59121 -1.46662 0
M  V30 2057 C 195.113 -3.00776 1.55947 0
M  V30 2058 C 193.672 -3.50748 1.36576 0
M  V30 2059 C 192.819 -2.25797 1.60968 0
M  V30 2060 H 195.77 -0.963552 1.26101 0
M  V30 2061 H 195.791 -3.67185 0.997753 0
M  V30 2062 H 195.303 -2.85465 2.62928 0
M  V30 2063 H 193.404 -3.71245 0.317531 0
M  V30 2064 H 193.517 -4.30289 2.10686 0
M  V30 2065 H 191.881 -2.32841 1.03234 0
M  V30 2066 H 192.664 -2.13043 2.69198 0
M  V30 2067 N 195.109 -0.891671 -1.2995 0
M  V30 2068 C 196.039 -0.379797 -2.30391 0
M  V30 2069 C 197.02 0.540919 -1.6127 0
M  V30 2070 O 198.205 0.453352 -1.88834 0
M  V30 2071 C 195.335 0.400654 -3.44981 0
M  V30 2072 C 194.289 -0.428905 -4.25846 0
M  V30 2073 C 193.615 0.478557 -5.32554 0
M  V30 2074 C 194.915 -1.67458 -4.94727 0
M  V30 2075 H 196.609 -1.21914 -2.73454 0
M  V30 2076 H 194.155 -0.587675 -1.31462 0
M  V30 2077 H 196.108 0.769434 -4.14316 0
M  V30 2078 H 194.832 1.27371 -3.0074 0
M  V30 2079 H 193.491 -0.779911 -3.58208 0
M  V30 2080 H 193.139 1.34951 -4.84559 0
M  V30 2081 H 192.839 -0.0727433 -5.87555 0
M  V30 2082 H 194.363 0.843705 -6.04743 0
M  V30 2083 H 195.777 -1.376 -5.56542 0
M  V30 2084 H 194.174 -2.16659 -5.59624 0
M  V30 2085 H 195.244 -2.41518 -4.20473 0
M  V30 2086 N 196.587 1.43421 -0.653314 0
M  V30 2087 C 198.003 1.56341 -0.320886 0
M  V30 2088 C 198.203 1.63696 1.17499 0
M  V30 2089 O 197.259 1.59208 1.95982 0
M  V30 2090 C 198.572 2.82424 -1.03233 0
M  V30 2091 C 200.12 2.96168 -1.01259 0
M  V30 2092 C 200.595 4.25084 -1.70492 0
M  V30 2093 N 202.086 4.31948 -1.67257 0
M  V30 2094 C 202.821 5.30466 -2.17701 0
M  V30 2095 N 202.317 6.35261 -2.76434 0
M  V30 2096 N 204.11 5.2212 -2.082 0
M  V30 2097 H 196.261 1.3689 -1.62403 0
M  V30 2098 H 198.524 0.657455 -0.682977 0
M  V30 2099 H 198.23 2.83053 -2.08744 0
M  V30 2100 H 198.104 3.72653 -0.583948 0
M  V30 2101 H 200.491 2.9508 0.0341235 0
M  V30 2102 H 200.572 2.07229 -1.49966 0
M  V30 2103 H 200.216 4.26932 -2.7512 0
M  V30 2104 H 200.146 5.1292 -1.19251 0
M  V30 2105 H 202.637 3.56838 -1.24398 0
M  V30 2106 H 202.95 7.06754 -3.12601 0
M  V30 2107 H 201.295 6.35884 -2.80495 0
M  V30 2108 H 204.486 4.39166 -1.62021 0
M  V30 2109 H 204.659 5.98739 -2.47822 0
M  V30 2110 N 198.065 0.39524 1.52563 0
M  V30 2111 C 198.995 -0.428384 2.29537 0
M  V30 2112 C 199.976 -1.05831 1.33169 0
M  V30 2113 O 201.161 -1.06995 1.62067 0
M  V30 2114 C 198.291 -1.55274 3.10656 0
M  V30 2115 C 197.245 -1.04855 4.14957 0
M  V30 2116 C 196.571 -2.26543 4.84337 0
M  V30 2117 C 197.871 -0.112324 5.22179 0
M  V30 2118 H 199.565 0.213867 2.98635 0
M  V30 2119 H 197.111 0.104298 1.43622 0
M  V30 2120 H 199.064 -2.1358 3.63265 0
M  V30 2121 H 197.788 -2.22266 2.39302 0
M  V30 2122 H 196.447 -0.487985 3.63338 0
M  V30 2123 H 196.095 -2.92059 4.09525 0
M  V30 2124 H 195.795 -1.93466 5.54837 0
M  V30 2125 H 197.319 -2.85481 5.39753 0
M  V30 2126 H 198.733 -0.603752 5.70112 0
M  V30 2127 H 197.13 0.128968 5.99961 0
M  V30 2128 H 198.2 0.837052 4.77621 0
M  V30 2129 N 199.544 -1.57102 0.125237 0
M  V30 2130 C 200.955 -1.82384 -0.399142 0
M  V30 2131 C 201.306 -1.04276 -1.66195 0
M  V30 2132 O 200.431 -0.281269 -2.14564 0
M  V30 2133 C 201.026 -3.30821 -0.730932 0
M  V30 2134 C 199.585 -3.56762 -1.19992 0
M  V30 2135 C 198.732 -2.7649 -0.211792 0
M  V30 2136 H 201.683 -1.54786 0.350277 0
M  V30 2137 H 201.704 -3.4579 -1.58775 0
M  V30 2138 H 201.216 -3.87643 0.188345 0
M  V30 2139 H 199.317 -3.05305 -2.13588 0
M  V30 2140 H 199.43 -4.65317 -1.14093 0
M  V30 2141 H 197.794 -2.4489 -0.700085 0
M  V30 2142 H 198.577 -3.36073 0.700691 0
M  V30 2143 N 201.022 0.148545 -1.56898 0
M  V30 2144 C 202.433 0.708766 -1.72723 0
M  V30 2145 C 202.784 1.81734 -0.739395 0
M  V30 2146 O 201.909 2.16194 0.0943169 0
M  V30 2147 C 202.504 1.29245 -3.13179 0
M  V30 2148 C 201.063 1.79925 -3.30611 0
M  V30 2149 C 200.21 0.687111 -2.68652 0
M  V30 2150 H 203.161 -0.0771063 -1.58513 0
M  V30 2151 H 203.182 2.16224 -3.13093 0
M  V30 2152 H 202.694 0.485382 -3.85053 0
M  V30 2153 H 200.795 2.63203 -2.63732 0
M  V30 2154 H 200.908 1.92903 -4.38549 0
M  V30 2155 H 199.272 1.11335 -2.29078 0
M  V30 2156 H 200.055 -0.108483 -3.43129 0
M  V30 2157 N 202.5 1.5196 0.417844 0
M  V30 2158 C 203.747 1.65591 1.16559 0
M  V30 2159 C 204.075 0.381565 1.90721 0
M  V30 2160 O 203.33 -0.635156 1.85106 0
M  V30 2161 C 203.629 2.82269 2.19223 0
M  V30 2162 C 203.295 4.20819 1.61933 0
M  V30 2163 C 201.957 4.58506 1.46033 0
M  V30 2164 C 204.309 5.07196 1.20008 0
M  V30 2165 C 201.637 5.80257 0.867113 0
M  V30 2166 C 203.989 6.29544 0.621086 0
M  V30 2167 C 202.653 6.65987 0.449144 0
M  V30 2168 H 201.923 0.605939 0.42652 0
M  V30 2169 H 204.57 1.86041 0.45397 0
M  V30 2170 H 202.875 2.56118 2.96498 0
M  V30 2171 H 204.572 2.90012 2.76936 0
M  V30 2172 H 201.162 3.91116 1.7529 0
M  V30 2173 H 205.346 4.7867 1.31105 0
M  V30 2174 H 200.602 6.07124 0.721833 0
M  V30 2175 H 204.776 6.95805 0.287798 0
M  V30 2176 H 202.403 7.60199 -0.012632 0
M  V30 2177 N 203.978 -0.674533 1.42435 0
M  V30 2178 C 205.389 -1.25514 1.38214 0
M  V30 2179 C 205.74 -1.96055 0.0755464 0
M  V30 2180 O 204.865 -2.00028 -0.8257 0
M  V30 2181 C 205.46 -2.28269 2.50357 0
M  V30 2182 C 204.019 -2.81856 2.49467 0
M  V30 2183 C 203.166 -1.56182 2.29134 0
M  V30 2184 H 206.117 -0.467902 1.51646 0
M  V30 2185 H 206.138 -3.10009 2.20624 0
M  V30 2186 H 205.65 -1.769 3.45439 0
M  V30 2187 H 203.751 -3.37346 1.58204 0
M  V30 2188 H 203.864 -3.30854 3.46515 0
M  V30 2189 H 202.228 -1.82761 1.774 0
M  V30 2190 H 203.011 -1.06778 3.26272 0
M  V30 2191 N 205.456 -1.28612 -0.910864 0
M  V30 2192 C 206.681 -1.1891 -1.69927 0
M  V30 2193 C 207.106 0.248372 -1.86453 0
M  V30 2194 O 206.464 1.17961 -1.37676 0
M  V30 2195 C 206.512 -1.89578 -3.06745 0
M  V30 2196 O 205.616 -1.20521 -3.94396 0
M  V30 2197 H 204.957 -0.412632 -0.520222 0
M  V30 2198 H 207.487 -1.69985 -1.1387 0
M  V30 2199 H 207.497 -1.97597 -3.56958 0
M  V30 2200 H 206.172 -2.94136 -2.94035 0
M  V30 2201 H 204.749 -1.20684 -3.52831 0
M  V30 2202 N 206.934 1.1197 -1.10907 0
M  V30 2203 C 208.35 1.35591 -0.841852 0
M  V30 2204 C 208.55 1.94233 0.536246 0
M  V30 2205 O 207.606 2.1717 1.28816 0
M  V30 2206 C 208.919 2.29284 -1.94549 0
M  V30 2207 C 210.467 2.42862 -1.97451 0
M  V30 2208 C 210.942 3.39873 -3.07002 0
M  V30 2209 N 212.433 3.47433 -3.06341 0
M  V30 2210 C 213.168 4.22421 -3.87748 0
M  V30 2211 N 212.664 5.00432 -4.79103 0
M  V30 2212 N 214.457 4.17876 -3.75946 0
M  V30 2213 H 206.608 0.722664 -1.99728 0
M  V30 2214 H 208.871 0.380635 -0.868229 0
M  V30 2215 H 208.577 1.93378 -2.93765 0
M  V30 2216 H 208.451 3.29452 -1.83688 0
M  V30 2217 H 210.838 2.78046 -0.988645 0
M  V30 2218 H 210.919 1.42566 -2.12388 0
M  V30 2219 H 210.563 3.05417 -4.05811 0
M  V30 2220 H 210.493 4.40011 -2.89306 0
M  V30 2221 H 212.984 2.91784 -2.40147 0
M  V30 2222 H 213.297 5.55002 -5.37766 0
M  V30 2223 H 211.642 4.99612 -4.83128 0
M  V30 2224 H 214.833 3.56016 -3.03924 0
M  V30 2225 H 215.006 4.76061 -4.39624 0
M  V30 2226 N 208.412 0.89855 1.29475 0
M  V30 2227 C 209.689 0.443416 1.90508 0
M  V30 2228 C 210.069 -1.07685 1.81569 0
M  V30 2229 O 209.417 -1.9182 1.24166 0
M  V30 2230 C 209.627 0.956708 3.35631 0
M  V30 2231 C 210.975 0.999728 4.12663 0
M  V30 2232 O 211.999 0.904299 3.4453 0
M  V30 2233 O 210.858 1.14289 5.34416 0
M  V30 2234 H 207.952 0.138025 0.815401 0
M  V30 2235 H 210.498 0.98834 1.37949 0
M  V30 2236 H 209.27 2.00067 3.36287 0
M  V30 2237 H 208.893 0.391728 3.95666 0
M  V30 2238 N 209.89 -1.43072 0.660911 0
M  V30 2239 C 211.115 -2.06584 0.183805 0
M  V30 2240 C 211.54 -1.49257 -1.14472 0
M  V30 2241 O 210.898 -0.605528 -1.70889 0
M  V30 2242 C 210.946 -3.60418 0.114434 0
M  V30 2243 O 210.05 -4.01981 -0.921137 0
M  V30 2244 H 209.391 -0.656669 0.0983994 0
M  V30 2245 H 211.921 -1.83447 0.906006 0
M  V30 2246 H 211.931 -4.07946 -0.0663394 0
M  V30 2247 H 210.606 -4.01519 1.08422 0
M  V30 2248 H 209.183 -3.66029 -0.71253 0
M  V30 2249 N 211.368 -0.403325 -1.52352 0
M  V30 2250 C 212.616 0.174003 -2.0135 0
M  V30 2251 C 212.937 1.46139 -1.29106 0
M  V30 2252 O 212.207 1.91448 -0.415253 0
M  V30 2253 H 210.787 0.0672911 -0.743963 0
M  V30 2254 H 213.449 -0.538235 -1.87321 0
M  V30 2255 H 212.545 0.374254 -3.09848 0
M  V30 2256 N 212.846 1.57033 -0.133567 0
M  V30 2257 C 214.262 1.58035 0.222944 0
M  V30 2258 C 214.462 1.14713 1.6566 0
M  V30 2259 O 213.518 0.841218 2.38075 0
M  V30 2260 C 214.831 3.00691 -0.0236116 0
M  V30 2261 C 216.379 3.12973 0.0411512 0
M  V30 2262 C 216.854 4.57654 -0.177899 0
M  V30 2263 N 218.345 4.63033 -0.124365 0
M  V30 2264 C 219.08 5.72771 -0.268553 0
M  V30 2265 N 218.576 6.91206 -0.46972 0
M  V30 2266 N 220.369 5.61718 -0.2071 0
M  V30 2267 H 212.52 1.8349 -1.06981 0
M  V30 2268 H 214.783 0.848677 -0.422436 0
M  V30 2269 H 214.489 3.36726 -1.0153 0
M  V30 2270 H 214.363 3.70614 0.701808 0
M  V30 2271 H 216.75 2.76787 1.02338 0
M  V30 2272 H 216.831 2.45564 -0.716383 0
M  V30 2273 H 216.475 4.94542 -1.15717 0
M  V30 2274 H 216.405 5.23173 0.599797 0
M  V30 2275 H 218.896 3.7789 0.027011 0
M  V30 2276 H 219.209 7.70693 -0.570212 0
M  V30 2277 H 217.554 6.93156 -0.505876 0
M  V30 2278 H 220.745 4.68072 -0.0507986 0
M  V30 2279 H 220.918 6.47195 -0.322909 0
M  V30 2280 N 214.325 -0.140222 1.56975 0
M  V30 2281 C 215.255 -1.17456 2.01808 0
M  V30 2282 C 216.236 -1.44415 0.898794 0
M  V30 2283 O 217.421 -1.5522 1.16707 0
M  V30 2284 C 214.551 -2.50607 2.40444 0
M  V30 2285 C 213.505 -2.38155 3.55621 0
M  V30 2286 C 212.831 -3.76078 3.80091 0
M  V30 2287 C 214.131 -1.85991 4.88062 0
M  V30 2288 H 215.825 -0.801743 2.88466 0
M  V30 2289 H 213.371 -0.38422 1.38779 0
M  V30 2290 H 215.324 -3.23197 2.7041 0
M  V30 2291 H 214.048 -2.89737 1.50732 0
M  V30 2292 H 212.707 -1.68016 3.25832 0
M  V30 2293 H 212.355 -4.12656 2.87618 0
M  V30 2294 H 212.055 -3.68606 4.57606 0
M  V30 2295 H 213.579 -4.50206 4.12488 0
M  V30 2296 H 214.993 -2.4838 5.16701 0
M  V30 2297 H 213.39 -1.89393 5.6943 0
M  V30 2298 H 214.46 -0.816023 4.77984 0
M  V30 2299 N 215.803 -1.52179 -0.40978 0
M  V30 2300 C 217.028 -1.70347 -1.18308 0
M  V30 2301 C 217.453 -0.411887 -1.83535 0
M  V30 2302 O 216.811 0.630587 -1.6998 0
M  V30 2303 C 216.859 -2.83977 -2.22238 0
M  V30 2304 O 215.963 -2.495 -3.28365 0
M  V30 2305 H 215.304 -0.567103 -0.345384 0
M  V30 2306 H 217.834 -1.98879 -0.480445 0
M  V30 2307 H 217.844 -3.0887 -2.66577 0
M  V30 2308 H 216.519 -3.77685 -1.74146 0
M  V30 2309 H 215.096 -2.35277 -2.89308 0
M  V30 2310 N 217.281 0.66697 -1.42791 0
M  V30 2311 C 218.692 1.2478 -1.38877 0
M  V30 2312 C 219.043 1.96012 -0.0859426 0
M  V30 2313 O 218.168 2.00463 0.815081 0
M  V30 2314 C 218.763 2.26938 -2.51564 0
M  V30 2315 C 217.322 2.80529 -2.50959 0
M  V30 2316 C 216.469 1.54965 -2.29959 0
M  V30 2317 H 219.42 0.459853 -1.51892 0
M  V30 2318 H 219.441 3.08834 -2.22265 0
M  V30 2319 H 218.953 1.75065 -3.46372 0
M  V30 2320 H 217.054 3.36502 -1.59991 0
M  V30 2321 H 217.167 3.29012 -3.48265 0
M  V30 2322 H 215.531 1.81817 -1.78366 0
M  V30 2323 H 216.314 1.05047 -3.26833 0
M  V30 2324 N 218.759 1.29093 0.90403 0
M  V30 2325 C 220.036 1.075 1.63411 0
M  V30 2326 C 220.416 -0.382346 2.07609 0
M  V30 2327 O 219.764 -1.37031 1.82851 0
M  V30 2328 C 219.974 2.05858 2.81822 0
M  V30 2329 C 221.322 2.36539 3.52611 0
M  V30 2330 O 222.346 2.04019 2.91984 0
M  V30 2331 O 221.205 2.92085 4.61897 0
M  V30 2332 H 218.299 0.411547 0.717327 0
M  V30 2333 H 220.845 1.40449 0.952479 0
M  V30 2334 H 219.617 3.04037 2.46327 0
M  V30 2335 H 219.24 1.73613 3.57693 0
M  V30 2336 N 220.237 -1.11381 1.11499 0
M  V30 2337 C 221.167 -2.19509 0.796125 0
M  V30 2338 C 222.148 -1.68458 -0.235796 0
M  V30 2339 O 223.333 -1.93947 -0.0991344 0
M  V30 2340 C 220.463 -3.46475 0.239205 0
M  V30 2341 C 219.417 -4.10744 1.20307 0
M  V30 2342 C 218.743 -5.32293 0.50683 0
M  V30 2343 C 220.043 -4.55597 2.55399 0
M  V30 2344 H 221.737 -2.46439 1.70024 0
M  V30 2345 H 219.283 -1.18446 0.818935 0
M  V30 2346 H 221.236 -4.214 0.00392006 0
M  V30 2347 H 219.96 -3.19006 -0.700206 0
M  V30 2348 H 218.619 -3.37813 1.42399 0
M  V30 2349 H 218.267 -5.01095 -0.437408 0
M  V30 2350 H 217.967 -5.76243 1.1497 0
M  V30 2351 H 219.491 -6.09956 0.280351 0
M  V30 2352 H 220.905 -5.21841 2.37391 0
M  V30 2353 H 219.302 -5.10363 3.15673 0
M  V30 2354 H 220.372 -3.69013 3.14575 0
M  V30 2355 N 221.715 -0.905404 -1.28997 0
M  V30 2356 C 222.94 -0.549175 -1.99997 0
M  V30 2357 C 223.365 0.860276 -1.67275 0
M  V30 2358 O 222.723 1.57355 -0.900502 0
M  V30 2359 C 222.771 -0.755185 -3.52604 0
M  V30 2360 O 221.875 0.189692 -4.11964 0
M  V30 2361 H 221.216 -0.213899 -0.628604 0
M  V30 2362 H 223.746 -1.21856 -1.64354 0
M  V30 2363 H 223.756 -0.662045 -4.02593 0
M  V30 2364 H 222.431 -1.78271 -3.75755 0
M  V30 2365 H 221.008 0.0485257 -3.72868 0
M  V30 2366 N 223.193 1.4272 -0.668489 0
M  V30 2367 C 224.439 2.01923 -0.188419 0
M  V30 2368 C 224.772 1.52704 1.19979 0
M  V30 2369 O 224.047 0.726566 1.8042 0
M  V30 2370 C 224.33 3.59451 -0.216085 0
M  V30 2371 C 224.183 4.18864 -1.6393 0
M  V30 2372 C 225.502 4.37903 0.439179 0
M  V30 2373 H 222.621 0.733674 -0.0699412 0
M  V30 2374 H 225.263 1.69822 -0.852076 0
M  V30 2375 H 223.413 3.86929 0.349012 0
M  V30 2376 H 225.085 4.02362 -2.25616 0
M  V30 2377 H 223.328 3.74933 -2.18193 0
M  V30 2378 H 223.999 5.27987 -1.61039 0
M  V30 2379 H 226.475 4.16079 -0.0417878 0
M  V30 2380 H 225.351 5.47519 0.389157 0
M  V30 2381 H 225.612 4.15303 1.51577 0
M  V30 2382 N 224.671 0.411399 1.52136 0
M  V30 2383 C 225.911 -0.163143 2.03748 0
M  V30 2384 C 226.275 -1.42187 1.29022 0
M  V30 2385 O 227.476 -2.075 1.70872 0
M  V30 2386 C 225.747 -0.402651 3.55125 0
M  V30 2387 S 227.306 -0.944315 4.28519 0
M  V30 2388 H 224.124 -0.0439833 0.709638 0
M  V30 2389 H 226.726 0.56484 1.87163 0
M  V30 2390 H 225.43 0.520212 4.0709 0
M  V30 2391 H 224.961 -1.15844 3.75957 0
M  V30 2392 H 226.976 -2.22463 4.43536 0
M  V30 2393 N 226.149 -1.5696 0.141893 0
M  V30 2394 C 227.397 -1.95573 -0.509484 0
M  V30 2395 C 227.718 -1.02746 -1.65736 0
M  V30 2396 O 226.988 -0.0880311 -1.95702 0
M  V30 2397 H 225.568 -0.722115 -0.191205 0
M  V30 2398 H 228.23 -1.93697 0.216196 0
M  V30 2399 H 227.326 -2.99171 -0.889 0
M  V30 2400 N 227.627 0.131896 -1.57047 0
M  V30 2401 C 228.559 1.1878 -1.9602 0
M  V30 2402 C 229.572 1.38363 -0.857875 0
M  V30 2403 O 230.761 1.37666 -1.13623 0
M  V30 2404 C 227.861 2.55008 -2.23213 0
M  V30 2405 C 227.034 2.56201 -3.54513 0
M  V30 2406 C 226.093 3.7408 -3.70069 0
M  V30 2407 O 225.119 3.58258 -4.42312 0
M  V30 2408 N 226.321 4.92137 -3.07866 0
M  V30 2409 H 229.086 0.85639 -2.87204 0
M  V30 2410 H 226.647 0.321309 -1.5868 0
M  V30 2411 H 228.639 3.32404 -2.30846 0
M  V30 2412 H 227.209 2.80382 -1.3822 0
M  V30 2413 H 226.429 1.64613 -3.58185 0
M  V30 2414 H 227.717 2.54043 -4.4084 0
M  V30 2415 H 227.115 5.07895 -2.49116 0
M  V30 2416 H 225.672 5.67254 -3.21039 0
M  V30 2417 N 229.106 1.52395 0.401703 0
M  V30 2418 C 230.517 1.58899 0.980202 0
M  V30 2419 C 230.868 0.434032 1.91339 0
M  V30 2420 O 229.993 -0.444619 2.11783 0
M  V30 2421 C 230.588 2.87994 1.78451 0
M  V30 2422 C 229.147 2.96953 2.31292 0
M  V30 2423 C 228.294 2.53903 1.11483 0
M  V30 2424 H 231.245 1.57657 0.18168 0
M  V30 2425 H 231.266 2.73765 2.64259 0
M  V30 2426 H 230.778 3.72035 1.10506 0
M  V30 2427 H 228.879 2.17422 3.02586 0
M  V30 2428 H 228.992 4.01344 2.61649 0
M  V30 2429 H 227.356 2.07925 1.47104 0
M  V30 2430 H 228.139 3.40326 0.450928 0
M  V30 2431 N 230.584 -0.659388 1.43143 0
M  V30 2432 C 232 -0.974337 1.26407 0
M  V30 2433 C 232.2 -2.007 0.179341 0
M  V30 2434 O 231.256 -2.4856 -0.444295 0
M  V30 2435 C 232.569 -1.46447 2.62628 0
M  V30 2436 C 234.117 -1.58144 2.7011 0
M  V30 2437 C 234.592 -2.1055 4.06734 0
M  V30 2438 N 236.083 -2.17861 4.08767 0
M  V30 2439 C 236.818 -2.59519 5.1131 0
M  V30 2440 N 236.314 -3.00518 6.24228 0
M  V30 2441 N 238.107 -2.59404 4.98664 0
M  V30 2442 H 230.258 0.0240528 2.12386 0
M  V30 2443 H 232.521 -0.0518065 0.946583 0
M  V30 2444 H 232.227 -0.780123 3.42939 0
M  V30 2445 H 232.101 -2.44058 2.87603 0
M  V30 2446 H 234.488 -2.25682 1.90136 0
M  V30 2447 H 234.569 -0.589828 2.48907 0
M  V30 2448 H 234.213 -1.43616 4.87172 0
M  V30 2449 H 234.143 -3.10531 4.25298 0
M  V30 2450 H 236.634 -1.88975 3.27257 0
M  V30 2451 H 236.947 -3.31036 6.98309 0
M  V30 2452 H 235.292 -2.98337 6.2771 0
M  V30 2453 H 238.483 -2.26747 4.09516 0
M  V30 2454 H 238.656 -2.91548 5.78709 0
M  V30 2455 N 232.062 -1.29571 -0.897171 0
M  V30 2456 C 233.339 -1.08365 -1.62839 0
M  V30 2457 C 233.719 0.371331 -2.07808 0
M  V30 2458 O 233.067 1.3606 -1.83576 0
M  V30 2459 C 233.277 -2.0735 -2.80726 0
M  V30 2460 C 234.625 -2.38406 -3.51351 0
M  V30 2461 O 235.649 -2.05564 -2.90898 0
M  V30 2462 O 234.508 -2.9453 -4.60341 0
M  V30 2463 H 231.602 -0.415345 -0.715134 0
M  V30 2464 H 234.148 -1.40952 -0.945018 0
M  V30 2465 H 232.92 -3.05339 -2.44711 0
M  V30 2466 H 232.543 -1.75507 -3.56767 0
M  V30 2467 N 233.54 1.10788 -1.12088 0
M  V30 2468 C 234.788 1.8231 -0.872205 0
M  V30 2469 C 235.109 1.85419 0.603709 0
M  V30 2470 O 234.379 1.32963 1.43867 0
M  V30 2471 H 232.959 0.675137 -0.319686 0
M  V30 2472 H 235.621 1.34068 -1.41463 0
M  V30 2473 H 234.717 2.85955 -1.25045 0
M  V30 2474 N 235.018 0.912232 1.28515 0
M  V30 2475 C 236.295 0.463597 1.90027 0
M  V30 2476 C 236.675 -1.05753 1.82701 0
M  V30 2477 O 236.023 -1.90492 1.26194 0
M  V30 2478 C 236.233 0.992253 3.34597 0
M  V30 2479 C 237.581 1.04344 4.11579 0
M  V30 2480 O 238.605 0.94079 3.43551 0
M  V30 2481 O 237.464 1.1995 5.33174 0
M  V30 2482 H 234.558 0.146666 0.813891 0
M  V30 2483 H 237.104 1.00292 1.36893 0
M  V30 2484 H 235.876 2.03623 3.34146 0
M  V30 2485 H 235.499 0.433672 3.95228 0
M  V30 2486 N 236.496 -1.42363 0.676048 0
M  V30 2487 C 237.406 -2.346 -0.00153389 0
M  V30 2488 C 238.422 -1.5516 -0.787485 0
M  V30 2489 O 239.598 -1.87723 -0.729521 0
M  V30 2490 C 236.663 -3.33705 -0.940298 0
M  V30 2491 C 235.724 -4.29042 -0.148739 0
M  V30 2492 C 234.957 -5.23413 -1.04279 0
M  V30 2493 O 235.18 -5.22749 -2.28232 0
M  V30 2494 O 234.114 -5.99795 -0.502925 0
M  V30 2495 H 237.94 -2.94082 0.758268 0
M  V30 2496 H 235.525 -1.42888 0.436289 0
M  V30 2497 H 237.407 -3.94586 -1.47917 0
M  V30 2498 H 236.082 -2.76695 -1.67993 0
M  V30 2499 H 234.989 -3.71571 0.43427 0
M  V30 2500 H 236.322 -4.89097 0.551805 0
M  V30 2501 N 237.974 -0.419461 -1.51915 0
M  V30 2502 C 238.904 0.391813 -2.30189 0
M  V30 2503 C 239.885 1.03699 -1.34836 0
M  V30 2504 O 241.07 1.04403 -1.63748 0
M  V30 2505 C 238.2 1.50312 -3.13087 0
M  V30 2506 C 237.154 0.9824 -4.16573 0
M  V30 2507 C 236.48 2.18809 -4.8788 0
M  V30 2508 C 237.78 0.0292356 -5.22292 0
M  V30 2509 H 239.474 -0.26135 -2.98257 0
M  V30 2510 H 237.02 -0.127134 -1.43438 0
M  V30 2511 H 238.973 2.07773 -3.66617 0
M  V30 2512 H 237.697 2.18431 -2.42807 0
M  V30 2513 H 236.356 0.430119 -3.64068 0
M  V30 2514 H 236.004 2.85507 -4.14119 0
M  V30 2515 H 235.704 1.84615 -5.57845 0
M  V30 2516 H 237.228 2.76858 -5.44226 0
M  V30 2517 H 238.642 0.512976 -5.71 0
M  V30 2518 H 237.039 -0.2244 -5.9968 0
M  V30 2519 H 238.109 -0.912931 -4.76228 0
M  V30 2520 N 239.452 1.56882 -0.150215 0
M  V30 2521 C 240.7 1.9584 0.499105 0
M  V30 2522 C 241.021 1.03623 1.65188 0
M  V30 2523 O 240.291 0.0984084 1.95653 0
M  V30 2524 H 238.871 0.723119 0.187373 0
M  V30 2525 H 241.533 1.9358 -0.226466 0
M  V30 2526 H 240.629 2.99638 0.873122 0
M  V30 2527 N 240.93 -0.123565 1.57115 0
M  V30 2528 C 242.179 -0.830704 1.83799 0
M  V30 2529 C 242.492 -1.81259 0.735158 0
M  V30 2530 O 243.698 -2.56558 0.888278 0
M  V30 2531 C 242.154 -1.52802 3.25852 0
M  V30 2532 C 241.762 -0.587356 4.44133 0
M  V30 2533 C 243.506 -2.22056 3.61789 0
M  V30 2534 C 241.413 -1.28764 5.77212 0
M  V30 2535 H 240.343 -0.313967 0.685522 0
M  V30 2536 H 242.994 -0.0834359 1.8331 0
M  V30 2537 H 241.376 -2.32175 3.20797 0
M  V30 2538 H 242.55 0.172829 4.60476 0
M  V30 2539 H 240.865 -0.00201892 4.164 0
M  V30 2540 H 243.462 -2.75131 4.58483 0
M  V30 2541 H 243.805 -2.99644 2.88997 0
M  V30 2542 H 244.338 -1.49576 3.68608 0
M  V30 2543 H 241.077 -0.55314 6.53162 0
M  V30 2544 H 240.597 -2.01995 5.64764 0
M  V30 2545 H 242.276 -1.8221 6.20813 0
M  V30 2546 N 242.408 -1.52605 -0.393616 0
M  V30 2547 C 243.633 -1.71592 -1.16495 0
M  V30 2548 C 244.058 -0.43133 -1.83088 0
M  V30 2549 O 243.416 0.612523 -1.7064 0
M  V30 2550 C 243.464 -2.86318 -2.19213 0
M  V30 2551 O 242.568 -2.52969 -3.257 0
M  V30 2552 H 241.909 -0.570734 -0.33935 0
M  V30 2553 H 244.439 -1.99377 -0.459324 0
M  V30 2554 H 244.449 -3.1168 -2.63286 0
M  V30 2555 H 243.124 -3.79511 -1.7013 0
M  V30 2556 H 241.701 -2.38332 -2.86797 0
M  V30 2557 N 243.887 0.651787 -1.4349 0
M  V30 2558 C 244.85 1.74647 -1.48429 0
M  V30 2559 C 245.85 1.56513 -0.368817 0
M  V30 2560 O 247.04 1.62385 -0.630623 0
M  V30 2561 C 244.172 3.13533 -1.33827 0
M  V30 2562 H 245.365 1.71649 -2.4592 0
M  V30 2563 H 242.918 0.863573 -1.30277 0
M  V30 2564 H 243.653 3.22142 -0.37349 0
M  V30 2565 H 243.438 3.28101 -2.14691 0
M  V30 2566 H 244.928 3.93356 -1.40218 0
M  V30 2567 N 245.365 1.30045 0.890287 0
M  V30 2568 C 246.59 1.21598 1.68014 0
M  V30 2569 C 247.015 -0.218678 1.86825 0
M  V30 2570 O 246.373 -1.15756 1.39536 0
M  V30 2571 C 246.421 1.94434 3.03691 0
M  V30 2572 O 245.525 1.2678 3.92429 0
M  V30 2573 H 244.866 0.420856 0.513592 0
M  V30 2574 H 247.396 1.71775 1.11151 0
M  V30 2575 H 247.406 2.03251 3.5377 0
M  V30 2576 H 246.081 2.98777 2.89318 0
M  V30 2577 H 244.658 1.26282 3.50866 0
M  V30 2578 N 246.843 -1.10192 1.12674 0
M  V30 2579 C 247.773 -2.18652 0.819362 0
M  V30 2580 C 248.754 -1.68698 -0.217915 0
M  V30 2581 O 249.939 -1.94041 -0.0785581 0
M  V30 2582 C 247.069 -3.46202 0.27594 0
M  V30 2583 C 246.023 -4.09444 1.24656 0
M  V30 2584 C 245.349 -5.31725 0.563258 0
M  V30 2585 C 246.649 -4.52863 2.60217 0
M  V30 2586 H 248.343 -2.44622 1.72628 0
M  V30 2587 H 245.889 -1.17571 0.831451 0
M  V30 2588 H 247.842 -4.21372 0.0486149 0
M  V30 2589 H 246.566 -3.1973 -0.666331 0
M  V30 2590 H 245.225 -3.36284 1.45974 0
M  V30 2591 H 244.873 -5.0153 -0.384235 0
M  V30 2592 H 244.573 -5.74991 1.21075 0
M  V30 2593 H 246.097 -6.09624 0.34503 0
M  V30 2594 H 247.511 -5.19294 2.42913 0
M  V30 2595 H 245.908 -5.06986 3.21068 0
M  V30 2596 H 246.978 -3.65656 3.18471 0
M  V30 2597 N 248.321 -0.919034 -1.28029 0
M  V30 2598 C 249.568 -0.554934 -1.94748 0
M  V30 2599 C 249.896 0.90231 -1.72304 0
M  V30 2600 O 249.151 1.65767 -1.04018 0
M  V30 2601 C 249.45 -0.816855 -3.4794 0
M  V30 2602 C 249.116 -2.25448 -3.90492 0
M  V30 2603 C 247.778 -2.64752 -4.01821 0
M  V30 2604 C 250.13 -3.18977 -4.12193 0
M  V30 2605 C 247.458 -3.96727 -4.32232 0
M  V30 2606 C 249.81 -4.50523 -4.44086 0
M  V30 2607 C 248.474 -4.89673 -4.53626 0
M  V30 2608 H 247.744 -0.203065 -0.712633 0
M  V30 2609 H 250.391 -1.16136 -1.52265 0
M  V30 2610 H 248.696 -0.127677 -3.91592 0
M  V30 2611 H 250.393 -0.514238 -3.97689 0
M  V30 2612 H 246.983 -1.93952 -3.82205 0
M  V30 2613 H 251.167 -2.89817 -4.02889 0
M  V30 2614 H 246.423 -4.26754 -4.37825 0
M  V30 2615 H 250.597 -5.23005 -4.59825 0
M  V30 2616 H 248.224 -5.91969 -4.76946 0
M  V30 2617 N 249.799 1.42003 -0.683588 0
M  V30 2618 C 251.024 2.06265 -0.216647 0
M  V30 2619 C 251.449 1.51059 1.12083 0
M  V30 2620 O 250.807 0.632638 1.69904 0
M  V30 2621 C 250.855 3.60191 -0.171759 0
M  V30 2622 O 249.959 4.03396 0.857069 0
M  V30 2623 H 249.3 0.65502 -0.108834 0
M  V30 2624 H 251.83 1.81982 -0.935077 0
M  V30 2625 H 251.84 4.08 0.0014303 0
M  V30 2626 H 250.515 3.99743 -1.14796 0
M  V30 2627 H 249.092 3.67117 0.654208 0
M  V30 2628 N 251.277 0.427512 1.51691 0
M  V30 2629 C 252.502 -0.143601 2.06902 0
M  V30 2630 C 252.927 -1.36536 1.29382 0
M  V30 2631 O 252.285 -1.78289 0.329043 0
M  V30 2632 C 252.333 -0.454207 3.57728 0
M  V30 2633 O 251.437 -1.54228 3.82475 0
M  V30 2634 H 250.778 -0.00617128 0.663971 0
M  V30 2635 H 253.308 0.606014 1.95419 0
M  V30 2636 H 253.318 -0.707525 4.01818 0
M  V30 2637 H 251.993 0.438812 4.13579 0
M  V30 2638 H 250.57 -1.2797 3.50254 0
M  V30 2639 N 252.755 -1.56801 0.158532 0
M  V30 2640 C 253.685 -2.20347 -0.772609 0
M  V30 2641 C 254.666 -1.15518 -1.24859 0
M  V30 2642 O 255.851 -1.43902 -1.30406 0
M  V30 2643 C 252.981 -2.83417 -2.00729 0
M  V30 2644 C 251.935 -3.94174 -1.66765 0
M  V30 2645 C 251.261 -4.44233 -2.97592 0
M  V30 2646 C 252.561 -5.14392 -0.905447 0
M  V30 2647 H 254.255 -2.98413 -0.242959 0
M  V30 2648 H 251.801 -1.43537 -0.115419 0
M  V30 2649 H 253.754 -3.26543 -2.6636 0
M  V30 2650 H 252.478 -2.02701 -2.56086 0
M  V30 2651 H 251.137 -3.51684 -1.03508 0
M  V30 2652 H 250.785 -3.60325 -3.50963 0
M  V30 2653 H 250.485 -5.18945 -2.75626 0
M  V30 2654 H 252.009 -4.90037 -3.64274 0
M  V30 2655 H 253.423 -5.5429 -1.46408 0
M  V30 2656 H 251.82 -5.9494 -0.7853 0
M  V30 2657 H 252.89 -4.84795 0.100668 0
M  V30 2658 N 254.233 0.115231 -1.57178 0
M  V30 2659 C 255.196 1.12526 -1.99676 0
M  V30 2660 C 256.196 1.34095 -0.88742 0
M  V30 2661 O 257.386 1.30548 -1.15337 0
M  V30 2662 C 254.518 2.4789 -2.34015 0
M  V30 2663 H 255.711 0.759912 -2.90113 0
M  V30 2664 H 253.264 0.359648 -1.52106 0
M  V30 2665 H 253.999 2.89339 -1.4647 0
M  V30 2666 H 253.784 2.33588 -3.14927 0
M  V30 2667 H 255.274 3.20575 -2.67622 0
M  V30 2668 N 255.711 1.52812 0.385517 0
M  V30 2669 C 256.936 1.72207 1.15583 0
M  V30 2670 C 257.361 0.441034 1.82857 0
M  V30 2671 O 256.719 -0.603465 1.70962 0
M  V30 2672 C 256.767 2.87476 2.17692 0
M  V30 2673 O 255.871 2.54693 3.24354 0
M  V30 2674 H 255.212 0.572526 0.336319 0
M  V30 2675 H 257.742 1.99618 0.448744 0
M  V30 2676 H 257.752 3.13072 2.6163 0
M  V30 2677 H 256.427 3.80408 1.68115 0
M  V30 2678 H 255.004 2.3985 2.85529 0
M  V30 2679 N 257.189 -0.644168 1.43834 0
M  V30 2680 C 258.6 -1.22554 1.40845 0
M  V30 2681 C 258.951 -1.9585 0.117115 0
M  V30 2682 O 258.076 -2.01734 -0.783086 0
M  V30 2683 C 258.671 -2.22907 2.55143 0
M  V30 2684 C 257.23 -2.76501 2.5539 0
M  V30 2685 C 256.377 -1.51287 2.32396 0
M  V30 2686 H 259.328 -0.43563 1.52604 0
M  V30 2687 H 259.349 -3.05259 2.2715 0
M  V30 2688 H 258.861 -1.69533 3.49114 0
M  V30 2689 H 256.962 -3.33914 1.65324 0
M  V30 2690 H 257.075 -3.23429 3.53455 0
M  V30 2691 H 255.439 -1.78957 1.81236 0
M  V30 2692 H 256.222 -0.998336 3.28463 0
M  V30 2693 N 258.668 -1.30515 -0.883378 0
M  V30 2694 C 259.908 -1.20716 -1.64946 0
M  V30 2695 C 260.272 0.234072 -1.90568 0
M  V30 2696 O 261.473 0.455335 -2.64915 0
M  V30 2697 C 259.744 -2.01444 -2.9522 0
M  V30 2698 S 261.303 -2.0836 -3.86175 0
M  V30 2699 H 258.121 -0.430165 -0.566109 0
M  V30 2700 H 260.723 -1.65011 -1.04841 0
M  V30 2701 H 259.427 -3.05268 -2.74298 0
M  V30 2702 H 258.958 -1.57817 -3.60357 0
M  V30 2703 H 260.973 -1.21215 -4.81167 0
M  V30 2704 N 260.146 1.09593 -1.13257 0
M  V30 2705 C 261.557 1.63229 -0.906274 0
M  V30 2706 C 261.908 1.8811 0.557578 0
M  V30 2707 O 261.033 1.62953 1.42391 0
M  V30 2708 C 261.628 2.96535 -1.63867 0
M  V30 2709 C 260.187 3.47003 -1.45828 0
M  V30 2710 C 259.334 2.2145 -1.66898 0
M  V30 2711 H 262.285 0.92978 -1.28611 0
M  V30 2712 H 262.306 3.64411 -1.09476 0
M  V30 2713 H 261.818 2.78394 -2.70404 0
M  V30 2714 H 259.919 3.70272 -0.415848 0
M  V30 2715 H 260.032 4.24551 -2.2202 0
M  V30 2716 H 258.396 2.30022 -1.09371 0
M  V30 2717 H 259.179 2.0583 -2.74752 0
M  V30 2718 N 261.624 0.925811 1.2754 0
M  V30 2719 C 262.872 0.564138 1.94067 0
M  V30 2720 C 263.193 -0.897188 1.73134 0
M  V30 2721 O 262.463 -1.63573 1.07799 0
M  V30 2722 H 261.043 0.205645 0.718136 0
M  V30 2723 H 263.705 1.1778 1.55287 0
M  V30 2724 H 262.801 0.76881 3.02483 0
M  V30 2725 N 263.102 -1.41638 0.69111 0
M  V30 2726 C 264.327 -2.06148 0.227583 0
M  V30 2727 C 264.752 -1.51652 -1.11281 0
M  V30 2728 O 264.11 -0.64164 -1.69566 0
M  V30 2729 C 264.158 -3.60095 0.190858 0
M  V30 2730 O 263.262 -4.03845 -0.835664 0
M  V30 2731 H 262.603 -0.654434 0.112306 0
M  V30 2732 H 265.133 -1.81484 0.944714 0
M  V30 2733 H 265.143 -4.07995 0.020207 0
M  V30 2734 H 263.818 -3.99129 1.16915 0
M  V30 2735 H 262.395 -3.67458 -0.63473 0
M  V30 2736 N 264.58 -0.43555 -1.51462 0
M  V30 2737 C 265.991 0.0279871 -1.86679 0
M  V30 2738 C 266.342 1.42104 -1.35281 0
M  V30 2739 O 265.467 2.04667 -0.702878 0
M  V30 2740 C 266.062 0.0575626 -3.38751 0
M  V30 2741 C 264.621 0.465507 -3.7351 0
M  V30 2742 C 263.768 -0.342996 -2.75171 0
M  V30 2743 H 266.719 -0.651473 -1.44712 0
M  V30 2744 H 266.74 0.867421 -3.70481 0
M  V30 2745 H 266.252 -0.956448 -3.7613 0
M  V30 2746 H 264.353 1.48519 -3.41721 0
M  V30 2747 H 264.466 0.191546 -4.78717 0
M  V30 2748 H 262.83 0.198442 -2.53926 0
M  V30 2749 H 263.613 -1.35585 -3.15391 0
M  V30 2750 N 266.058 1.56714 -0.166846 0
M  V30 2751 C 267.286 2.0112 0.485644 0
M  V30 2752 C 267.701 1.04705 1.57106 0
M  V30 2753 O 267.058 0.0471923 1.82439 0
M  V30 2754 C 267.109 3.45361 1.06808 0
M  V30 2755 O 266.83 4.38092 0.0259995 0
M  V30 2756 C 268.331 4.05145 1.79924 0
M  V30 2757 H 265.551 0.65931 0.124704 0
M  V30 2758 H 268.095 2.02746 -0.267262 0
M  V30 2759 H 266.25 3.44524 1.7715 0
M  V30 2760 H 266.664 5.22519 0.455398 0
M  V30 2761 H 268.138 5.08009 2.15942 0
M  V30 2762 H 268.615 3.46982 2.69258 0
M  V30 2763 H 269.221 4.09672 1.14234 0
M  V30 2764 N 267.536 -0.106894 1.57237 0
M  V30 2765 C 268.947 -0.662723 1.74542 0
M  V30 2766 C 269.298 -1.7971 0.787319 0
M  V30 2767 O 268.423 -2.16368 -0.0369636 0
M  V30 2768 C 269.018 -1.20896 3.16496 0
M  V30 2769 C 267.577 -1.71096 3.35266 0
M  V30 2770 C 266.724 -0.615642 2.7038 0
M  V30 2771 H 269.675 0.119106 1.58252 0
M  V30 2772 H 269.696 -2.07847 3.18716 0
M  V30 2773 H 269.208 -0.383122 3.86204 0
M  V30 2774 H 267.309 -2.56119 2.70618 0
M  V30 2775 H 267.422 -1.81208 4.43509 0
M  V30 2776 H 265.786 -1.05222 2.31949 0
M  V30 2777 H 266.569 0.199419 3.4272 0
M  V30 2778 N 269.014 -1.53014 -0.377408 0
M  V30 2779 C 270.43 -1.42523 -0.718281 0
M  V30 2780 C 270.63 -0.55487 -1.9371 0
M  V30 2781 O 269.686 -0.0327593 -2.52479 0
M  V30 2782 C 270.999 -2.85546 -0.942539 0
M  V30 2783 C 272.547 -2.95101 -1.04329 0
M  V30 2784 C 273.022 -4.3916 -1.3001 0
M  V30 2785 N 274.513 -4.42536 -1.36806 0
M  V30 2786 C 275.248 -5.51097 -1.58364 0
M  V30 2787 N 274.744 -6.69724 -1.77317 0
M  V30 2788 N 276.537 -5.38657 -1.60638 0
M  V30 2789 H 268.688 -2.08116 0.424426 0
M  V30 2790 H 270.951 -0.939352 0.127759 0
M  V30 2791 H 270.657 -3.51499 -0.118929 0
M  V30 2792 H 270.531 -3.28493 -1.85397 0
M  V30 2793 H 272.918 -2.29309 -1.85745 0
M  V30 2794 H 272.999 -2.55566 -0.109505 0
M  V30 2795 H 272.643 -5.05521 -0.490991 0
M  V30 2796 H 272.573 -4.76258 -2.24691 0
M  V30 2797 H 275.064 -3.57039 -1.23821 0
M  V30 2798 H 275.377 -7.48233 -1.93306 0
M  V30 2799 H 273.722 -6.72732 -1.74518 0
M  V30 2800 H 276.913 -4.44948 -1.45391 0
M  V30 2801 H 277.086 -6.2333 -1.77098 0
M  V30 2802 N 270.492 0.636531 -1.44174 0
M  V30 2803 C 271.769 1.39463 -1.37148 0
M  V30 2804 C 272.149 2.11082 -0.027507 0
M  V30 2805 O 271.497 2.05954 0.989716 0
M  V30 2806 C 271.707 2.36552 -2.56601 0
M  V30 2807 C 273.055 3.00048 -3.00427 0
M  V30 2808 O 274.079 2.46878 -2.56767 0
M  V30 2809 O 272.938 3.96488 -3.76111 0
M  V30 2810 H 270.032 0.623903 -0.542839 0
M  V30 2811 H 272.578 0.662039 -1.56253 0
M  V30 2812 H 271.35 1.82692 -3.46034 0
M  V30 2813 H 270.973 3.17236 -2.39681 0
M  V30 2814 N 271.97 1.30982 0.876444 0
M  V30 2815 C 273.195 1.23373 1.66715 0
M  V30 2816 C 273.62 -0.19885 1.87046 0
M  V30 2817 O 272.978 -1.1427 1.40756 0
M  V30 2818 C 273.026 1.97644 3.01611 0
M  V30 2819 O 272.13 1.30935 3.91062 0
M  V30 2820 H 271.471 0.426279 0.509099 0
M  V30 2821 H 274.001 1.72944 1.09323 0
M  V30 2822 H 274.011 2.06992 3.51594 0
M  V30 2823 H 272.686 3.01829 2.86133 0
M  V30 2824 H 271.263 1.29996 3.49507 0
M  V30 2825 N 273.449 -1.08991 1.13837 0
M  V30 2826 C 274.695 -1.81526 0.90422 0
M  V30 2827 C 275.028 -1.85706 -0.568066 0
M  V30 2828 O 274.303 -1.32855 -1.42056 0
M  V30 2829 C 274.586 -3.27447 1.49835 0
M  V30 2830 C 274.439 -3.31512 3.04006 0
M  V30 2831 C 275.758 -4.24256 1.17025 0
M  V30 2832 H 272.877 -0.659029 0.329923 0
M  V30 2833 H 275.519 -1.27644 1.40737 0
M  V30 2834 H 273.669 -3.73462 1.07044 0
M  V30 2835 H 275.341 -2.93867 3.55584 0
M  V30 2836 H 273.584 -2.70963 3.38765 0
M  V30 2837 H 274.255 -4.34329 3.40679 0
M  V30 2838 H 276.731 -3.86549 1.54009 0
M  V30 2839 H 275.607 -5.24684 1.61237 0
M  V30 2840 H 275.868 -4.42019 0.0846274 0
M  V30 2841 N 274.927 -0.932562 -1.27047 0
M  V30 2842 C 276.176 -0.571351 -1.93439 0
M  V30 2843 C 276.489 0.892467 -1.74053 0
M  V30 2844 O 277.695 1.36267 -2.34826 0
M  V30 2845 C 276.151 -0.97106 -3.46552 0
M  V30 2846 C 275.759 -2.4559 -3.74686 0
M  V30 2847 C 277.503 -0.681333 -4.18997 0
M  V30 2848 C 275.41 -2.79475 -5.21198 0
M  V30 2849 H 274.34 -0.209966 -0.724176 0
M  V30 2850 H 276.991 -1.13403 -1.44263 0
M  V30 2851 H 275.373 -0.336983 -3.94564 0
M  V30 2852 H 276.547 -3.13829 -3.37414 0
M  V30 2853 H 274.862 -2.71802 -3.15456 0
M  V30 2854 H 277.459 -0.910939 -5.26883 0
M  V30 2855 H 277.802 0.381628 -4.14547 0
M  V30 2856 H 278.335 -1.27473 -3.76823 0
M  V30 2857 H 275.074 -3.847 -5.30741 0
M  V30 2858 H 274.594 -2.1589 -5.596 0
M  V30 2859 H 276.273 -2.67478 -5.89122 0
M  V30 2860 N 276.405 1.4127 -0.698611 0
M  V30 2861 C 277.63 2.06024 -0.238512 0
M  V30 2862 C 278.055 1.5224 1.10475 0
M  V30 2863 O 277.413 0.650623 1.69223 0
M  V30 2864 C 277.461 3.59988 -0.209952 0
M  V30 2865 O 276.565 4.04282 0.814235 0
M  V30 2866 H 275.906 0.653829 -0.115775 0
M  V30 2867 H 278.436 1.8098 -0.954326 0
M  V30 2868 H 278.446 4.07979 -0.0418436 0
M  V30 2869 H 277.121 3.98503 -1.1903 0
M  V30 2870 H 275.698 3.6779 0.615234 0
M  V30 2871 N 277.883 0.443576 1.51229 0
M  V30 2872 C 279.132 -0.122332 2.01329 0
M  V30 2873 C 279.445 -1.43237 1.33201 0
M  V30 2874 O 280.651 -2.0816 1.74304 0
M  V30 2875 C 279.107 -0.268551 3.58897 0
M  V30 2876 C 278.715 1.03142 4.35965 0
M  V30 2877 C 280.459 -0.787894 4.17124 0
M  V30 2878 C 278.366 0.850504 5.85252 0
M  V30 2879 H 277.296 -0.0494929 0.752374 0
M  V30 2880 H 279.947 0.574289 1.74282 0
M  V30 2881 H 278.329 -1.02832 3.82415 0
M  V30 2882 H 279.503 1.80001 4.24189 0
M  V30 2883 H 277.818 1.47977 3.89219 0
M  V30 2884 H 280.415 -0.939841 5.26375 0
M  V30 2885 H 280.758 -1.77201 3.76703 0
M  V30 2886 H 281.291 -0.0862669 3.97706 0
M  V30 2887 H 278.03 1.80718 6.30096 0
M  V30 2888 H 277.55 0.121825 5.99676 0
M  V30 2889 H 279.229 0.506163 6.45017 0
M  V30 2890 N 279.361 -1.56624 0.175154 0
M  V30 2891 C 280.609 -1.96609 -0.467885 0
M  V30 2892 C 280.93 -1.06238 -1.63519 0
M  V30 2893 O 280.2 -0.129523 -1.95471 0
M  V30 2894 H 278.78 -0.726008 -0.175845 0
M  V30 2895 H 281.442 -1.93195 0.257234 0
M  V30 2896 H 280.538 -3.00989 -0.825342 0
M  V30 2897 N 280.839 0.0985539 -1.57292 0
M  V30 2898 C 282.067 0.816318 -1.90115 0
M  V30 2899 C 282.482 1.72451 -0.768509 0
M  V30 2900 O 281.839 1.80643 0.259687 0
M  V30 2901 C 281.89 1.63259 -3.22535 0
M  V30 2902 O 281.611 0.760934 -4.31441 0
M  V30 2903 C 283.112 2.45372 -3.69199 0
M  V30 2904 H 280.332 0.233595 -0.629027 0
M  V30 2905 H 282.876 0.0768229 -2.04356 0
M  V30 2906 H 281.031 2.32463 -3.09903 0
M  V30 2907 H 281.445 1.32595 -5.07463 0
M  V30 2908 H 282.919 2.98144 -4.64558 0
M  V30 2909 H 283.396 3.23677 -2.96867 0
M  V30 2910 H 284.002 1.81373 -3.84687 0
M  V30 2911 N 282.317 1.53212 0.369288 0
M  V30 2912 C 283.542 1.73423 1.1375 0
M  V30 2913 C 283.967 0.460404 1.82378 0
M  V30 2914 O 283.325 -0.585298 1.71592 0
M  V30 2915 C 283.373 2.89769 2.1463 0
M  V30 2916 O 282.477 2.58119 3.21634 0
M  V30 2917 H 281.818 0.576061 0.330227 0
M  V30 2918 H 284.348 2.00083 0.427547 0
M  V30 2919 H 284.358 3.15829 2.58294 0
M  V30 2920 H 283.033 3.8217 1.64071 0
M  V30 2921 H 281.61 2.42864 2.82969 0
M  V30 2922 N 283.795 -0.628877 1.44509 0
M  V30 2923 C 284.758 -1.72263 1.51188 0
M  V30 2924 C 285.758 -1.55907 0.39367 0
M  V30 2925 O 286.948 -1.61361 0.656377 0
M  V30 2926 C 284.08 -3.11365 1.38798 0
M  V30 2927 H 285.273 -1.67714 2.4862 0
M  V30 2928 H 282.826 -0.842737 1.31634 0
M  V30 2929 H 283.561 -3.21507 0.424693 0
M  V30 2930 H 283.346 -3.24644 2.19884 0
M  V30 2931 H 284.836 -3.91075 1.46458 0
M  V30 2932 N 285.273 -1.31445 -0.869486 0
M  V30 2933 C 286.513 -1.22458 -1.63656 0
M  V30 2934 C 286.877 0.213846 -1.90805 0
M  V30 2935 O 288.078 0.427212 -2.65383 0
M  V30 2936 C 286.349 -2.04564 -2.93067 0
M  V30 2937 S 287.908 -2.12445 -3.83944 0
M  V30 2938 H 284.726 -0.436145 -0.561514 0
M  V30 2939 H 287.328 -1.66114 -1.03085 0
M  V30 2940 H 286.032 -3.0816 -2.71045 0
M  V30 2941 H 285.563 -1.6163 -3.58663 0
M  V30 2942 H 287.578 -1.26312 -4.79854 0
M  V30 2943 N 286.751 1.08385 -1.14413 0
M  V30 2944 C 287.681 2.17321 -0.854044 0
M  V30 2945 C 288.662 1.69024 0.191049 0
M  V30 2946 O 289.847 1.94141 0.0476779 0
M  V30 2947 C 286.977 3.45719 -0.330983 0
M  V30 2948 C 285.931 4.07409 -1.31155 0
M  V30 2949 C 285.257 5.30762 -0.64778 0
M  V30 2950 C 286.557 4.48665 -2.67388 0
M  V30 2951 H 288.251 2.41845 -1.76498 0
M  V30 2952 H 285.797 1.16233 -0.850051 0
M  V30 2953 H 287.75 4.21241 -0.115645 0
M  V30 2954 H 286.474 3.2075 0.615381 0
M  V30 2955 H 285.133 3.33919 -1.51306 0
M  V30 2956 H 284.781 5.02078 0.304398 0
M  V30 2957 H 284.481 5.72992 -1.30207 0
M  V30 2958 H 286.005 6.08998 -0.441972 0
M  V30 2959 H 287.419 5.15364 -2.51143 0
M  V30 2960 H 285.816 5.01814 -3.29093 0
M  V30 2961 H 286.886 3.60543 -3.24248 0
M  V30 2962 N 288.23 0.939286 1.26551 0
M  V30 2963 C 289.476 0.586715 1.94128 0
M  V30 2964 C 289.809 -0.8717 1.73537 0
M  V30 2965 O 289.084 -1.62339 1.07127 0
M  V30 2966 C 289.367 0.927497 3.4795 0
M  V30 2967 C 289.22 2.44052 3.77834 0
M  V30 2968 C 290.539 0.441569 4.37879 0
M  V30 2969 H 287.658 0.21463 0.705055 0
M  V30 2970 H 290.3 1.17316 1.49455 0
M  V30 2971 H 288.45 0.428431 3.8613 0
M  V30 2972 H 290.122 3.01216 3.4938 0
M  V30 2973 H 288.365 2.8848 3.23978 0
M  V30 2974 H 289.036 2.62947 4.85348 0
M  V30 2975 H 291.512 0.869448 4.06915 0
M  V30 2976 H 290.388 0.708856 5.44304 0
M  V30 2977 H 290.649 -0.658467 4.37169 0
M  V30 2978 N 289.708 -1.40897 0.706093 0
M  V30 2979 C 290.671 -2.29131 0.0562841 0
M  V30 2980 C 291.671 -1.44901 -0.697166 0
M  V30 2981 O 292.861 -1.65926 -0.530484 0
M  V30 2982 C 289.993 -3.27957 -0.93043 0
M  V30 2983 H 291.186 -2.88091 0.833284 0
M  V30 2984 H 288.739 -1.4906 0.470192 0
M  V30 2985 H 289.474 -2.73997 -1.73482 0
M  V30 2986 H 289.259 -3.90124 -0.393166 0
M  V30 2987 H 290.749 -3.94049 -1.38256 0
M  V30 2988 N 291.186 -0.45159 -1.50991 0
M  V30 2989 C 292.149 0.341117 -2.26647 0
M  V30 2990 C 293.149 0.937422 -1.30649 0
M  V30 2991 O 294.339 0.809644 -1.54241 0
M  V30 2992 C 291.471 1.48398 -3.06905 0
M  V30 2993 H 292.664 -0.322117 -2.98165 0
M  V30 2994 H 290.217 -0.205122 -1.54948 0
M  V30 2995 H 290.952 2.18284 -2.39838 0
M  V30 2996 H 290.737 1.06241 -3.77432 0
M  V30 2997 H 292.227 2.04367 -3.64176 0
M  V30 2998 N 292.664 1.56529 -0.183458 0
M  V30 2999 C 293.889 2.02064 0.467428 0
M  V30 3000 C 294.314 1.06282 1.55196 0
M  V30 3001 O 293.672 0.0443565 1.81246 0
M  V30 3002 C 293.72 3.46122 1.01153 0
M  V30 3003 O 292.824 3.53437 2.12499 0
M  V30 3004 H 292.165 0.654726 0.110588 0
M  V30 3005 H 294.695 2.02521 -0.290917 0
M  V30 3006 H 294.705 3.85676 1.33108 0
M  V30 3007 H 293.38 4.15331 0.217533 0
M  V30 3008 H 291.957 3.2575 1.81497 0
M  V30 3009 N 294.142 -0.090211 1.57342 0
M  V30 3010 C 295.105 -1.09335 2.01441 0
M  V30 3011 C 296.105 -1.32666 0.908641 0
M  V30 3012 O 297.295 -1.28697 1.174 0
M  V30 3013 C 294.427 -2.44136 2.3793 0
M  V30 3014 H 295.62 -0.713662 2.91285 0
M  V30 3015 H 293.173 -0.335404 1.52659 0
M  V30 3016 H 293.908 -2.86972 1.51055 0
M  V30 3017 H 293.693 -2.28548 3.18603 0
M  V30 3018 H 295.183 -3.16277 2.72688 0
M  V30 3019 N 295.62 -1.53406 -0.361157 0
M  V30 3020 C 296.866 -1.70054 -1.10496 0
M  V30 3021 C 297.199 -0.453278 -1.88836 0
M  V30 3022 O 296.474 0.5495 -1.86576 0
M  V30 3023 C 296.757 -2.95317 -2.06058 0
M  V30 3024 C 296.61 -4.3021 -1.31298 0
M  V30 3025 C 297.929 -3.16193 -3.06121 0
M  V30 3026 H 295.048 -0.618799 -0.400321 0
M  V30 3027 H 297.69 -1.86052 -0.385318 0
M  V30 3028 H 295.84 -2.81809 -2.67425 0
M  V30 3029 H 297.512 -4.55538 -0.726807 0
M  V30 3030 H 295.755 -4.29421 -0.614853 0
M  V30 3031 H 296.426 -5.14 -2.01265 0
M  V30 3032 H 298.902 -3.28916 -2.5486 0
M  V30 3033 H 297.778 -4.05266 -3.70204 0
M  V30 3034 H 298.039 -2.31676 -3.76535 0
M  V30 3035 N 297.098 0.621204 -1.44841 0
M  V30 3036 C 298.509 1.20298 -1.42777 0
M  V30 3037 C 298.86 1.95639 -0.148259 0
M  V30 3038 O 297.985 2.02955 0.750892 0
M  V30 3039 C 298.58 2.1882 -2.58657 0
M  V30 3040 C 297.139 2.72403 -2.59756 0
M  V30 3041 C 296.286 1.4757 -2.34773 0
M  V30 3042 H 299.237 0.411297 -1.53278 0
M  V30 3043 H 299.258 3.01607 -2.31977 0
M  V30 3044 H 298.77 1.63957 -3.51766 0
M  V30 3045 H 296.871 3.31242 -1.70615 0
M  V30 3046 H 296.984 3.17765 -3.58556 0
M  V30 3047 H 295.348 1.76051 -1.8406 0
M  V30 3048 H 296.131 0.945954 -3.3001 0
M  V30 3049 N 298.576 1.31904 0.862503 0
M  V30 3050 C 299.801 1.25135 1.65397 0
M  V30 3051 C 300.226 -0.179 1.87246 0
M  V30 3052 O 299.584 -1.1277 1.4196 0
M  V30 3053 C 299.632 2.00832 2.99498 0
M  V30 3054 O 298.736 1.35075 3.89652 0
M  V30 3055 H 298.077 0.431655 0.504549 0
M  V30 3056 H 300.607 1.74094 1.07483 0
M  V30 3057 H 300.617 2.10709 3.49379 0
M  V30 3058 H 299.292 3.04847 2.82916 0
M  V30 3059 H 297.869 1.33696 3.48109 0
M  V30 3060 N 300.054 -1.07777 1.14986 0
M  V30 3061 C 301.302 -1.79934 0.920235 0
M  V30 3062 C 301.623 -1.86955 -0.554336 0
M  V30 3063 O 300.893 -1.36731 -1.40291 0
M  V30 3064 H 299.473 -0.666424 0.337473 0
M  V30 3065 H 302.135 -1.3027 1.44968 0
M  V30 3066 H 301.231 -2.82539 1.32583 0
M  V30 3067 N 301.532 -0.945985 -1.26051 0
M  V30 3068 C 302.462 -0.477172 -2.28572 0
M  V30 3069 C 303.443 0.472032 -1.63419 0
M  V30 3070 O 304.628 0.372853 -1.90587 0
M  V30 3071 C 301.758 0.253975 -3.4637 0
M  V30 3072 C 300.712 -0.609135 -4.23643 0
M  V30 3073 C 300.038 0.252252 -5.34105 0
M  V30 3074 C 301.338 -1.8829 -4.8718 0
M  V30 3075 H 303.032 -1.33402 -2.68038 0
M  V30 3076 H 300.578 -0.642904 -1.28852 0
M  V30 3077 H 302.531 0.593016 -4.17207 0
M  V30 3078 H 301.255 1.145 -3.05871 0
M  V30 3079 H 299.914 -0.931138 -3.54578 0
M  V30 3080 H 299.562 1.14278 -4.89846 0
M  V30 3081 H 299.262 -0.32188 -5.86718 0
M  V30 3082 H 300.786 0.586454 -6.07777 0
M  V30 3083 H 302.2 -1.61081 -5.50205 0
M  V30 3084 H 300.597 -2.40199 -5.49931 0
M  V30 3085 H 301.667 -2.59134 -4.09851 0
M  V30 3086 N 303.011 1.40521 -0.713556 0
M  V30 3087 C 303.961 2.27971 -0.036165 0
M  V30 3088 C 304.945 1.43151 0.734623 0
M  V30 3089 O 306.137 1.66261 0.607158 0
M  V30 3090 C 303.266 3.31661 0.886331 0
M  V30 3091 C 302.352 4.23955 0.110836 0
M  V30 3092 N 302.743 4.97641 -0.904847 0
M  V30 3093 C 301.041 4.44674 0.343692 0
M  V30 3094 C 301.742 5.65322 -1.37064 0
M  V30 3095 N 300.718 5.39162 -0.693168 0
M  V30 3096 H 304.52 2.82384 -0.814645 0
M  V30 3097 H 302.034 1.52948 -0.545963 0
M  V30 3098 H 304.031 3.93154 1.38692 0
M  V30 3099 H 302.691 2.78808 1.66421 0
M  V30 3100 H 303.702 5.01689 -1.28563 0
M  V30 3101 H 300.379 4.02801 1.09805 0
M  V30 3102 H 301.769 6.34359 -2.21447 0
M  V30 3103 N 304.489 0.459591 1.5075 0
M  V30 3104 C 305.419 -0.330644 2.31147 0
M  V30 3105 C 306.4 -1.00087 1.37538 0
M  V30 3106 O 307.585 -1.00025 1.66459 0
M  V30 3107 C 304.715 -1.41958 3.16962 0
M  V30 3108 C 303.669 -0.871608 4.19031 0
M  V30 3109 C 302.995 -2.05797 4.9351 0
M  V30 3110 C 304.295 0.109251 5.22186 0
M  V30 3111 H 305.989 0.340336 2.97459 0
M  V30 3112 H 303.535 0.165119 1.4305 0
M  V30 3113 H 305.488 -1.9798 3.71997 0
M  V30 3114 H 304.212 -2.11917 2.48513 0
M  V30 3115 H 302.871 -0.333442 3.6508 0
M  V30 3116 H 302.519 -2.74427 4.21544 0
M  V30 3117 H 302.219 -1.6976 5.62544 0
M  V30 3118 H 303.743 -2.62331 5.51375 0
M  V30 3119 H 305.157 -0.361405 5.7216 0
M  V30 3120 H 303.554 0.383316 5.98875 0
M  V30 3121 H 304.624 1.03887 4.73641 0
M  V30 3122 N 305.967 -1.56429 0.191757 0
M  V30 3123 C 307.378 -1.83912 -0.321428 0
M  V30 3124 C 307.729 -1.11231 -1.61623 0
M  V30 3125 O 306.854 -0.37202 -2.13178 0
M  V30 3126 C 307.449 -3.33624 -0.589961 0
M  V30 3127 C 306.008 -3.6153 -1.04753 0
M  V30 3128 C 305.155 -2.7714 -0.0943327 0
M  V30 3129 H 308.106 -1.53161 0.415612 0
M  V30 3130 H 308.127 -3.52213 -1.43966 0
M  V30 3131 H 307.639 -3.86495 0.352588 0
M  V30 3132 H 305.74 -3.14089 -2.00447 0
M  V30 3133 H 305.853 -4.69737 -0.942549 0
M  V30 3134 H 304.217 -2.47638 -0.595589 0
M  V30 3135 H 305 -3.32799 0.842601 0
M  V30 3136 N 307.445 0.0818655 -1.57387 0
M  V30 3137 C 308.355 1.11642 -2.06333 0
M  V30 3138 C 309.371 1.43033 -0.99083 0
M  V30 3139 O 310.547 1.53411 -1.30488 0
M  V30 3140 C 307.612 2.41342 -2.48907 0
M  V30 3141 C 306.673 2.17014 -3.7041 0
M  V30 3142 C 305.906 3.4053 -4.10944 0
M  V30 3143 O 306.129 4.4927 -3.51444 0
M  V30 3144 O 305.063 3.29336 -5.03807 0
M  V30 3145 H 308.889 0.730657 -2.9478 0
M  V30 3146 H 306.474 0.295301 -1.46452 0
M  V30 3147 H 308.356 3.17691 -2.76858 0
M  V30 3148 H 307.031 2.79319 -1.63593 0
M  V30 3149 H 305.938 1.38403 -3.47556 0
M  V30 3150 H 307.271 1.83923 -4.56545 0
M  V30 3151 N 308.923 1.53595 0.353017 0
M  V30 3152 C 310.169 1.70638 1.09593 0
M  V30 3153 C 310.502 0.463286 1.88593 0
M  V30 3154 O 309.777 -0.539597 1.86865 0
M  V30 3155 C 310.06 2.96406 2.04489 0
M  V30 3156 C 309.913 4.30901 1.29014 0
M  V30 3157 C 311.232 3.17812 3.0444 0
M  V30 3158 H 308.351 0.620913 0.397034 0
M  V30 3159 H 310.993 1.86254 0.375446 0
M  V30 3160 H 309.143 2.83223 2.65927 0
M  V30 3161 H 310.815 4.55917 0.702638 0
M  V30 3162 H 309.058 4.29741 0.592071 0
M  V30 3163 H 309.729 5.1506 1.98537 0
M  V30 3164 H 312.205 3.30263 2.53112 0
M  V30 3165 H 311.081 4.07223 3.6805 0
M  V30 3166 H 311.342 2.33669 3.75301 0
M  V30 3167 N 310.401 -0.613514 1.45168 0
M  V30 3168 C 311.626 -1.40437 1.52618 0
M  V30 3169 C 312.051 -1.87438 0.157707 0
M  V30 3170 O 311.409 -1.59791 -0.856537 0
M  V30 3171 C 311.457 -2.58894 2.51011 0
M  V30 3172 O 310.561 -3.59326 2.02382 0
M  V30 3173 H 309.902 -0.419506 0.514695 0
M  V30 3174 H 312.432 -0.747215 1.90467 0
M  V30 3175 H 312.442 -3.06214 2.69624 0
M  V30 3176 H 311.117 -2.24032 3.50403 0
M  V30 3177 H 309.694 -3.18695 1.93618 0
M  V30 3178 N 311.879 -1.3236 -0.855495 0
M  V30 3179 C 312.809 -1.23833 -1.97958 0
M  V30 3180 C 313.79 -0.122361 -1.69659 0
M  V30 3181 O 314.975 -0.30939 -1.9172 0
M  V30 3182 C 312.105 -0.959772 -3.33775 0
M  V30 3183 C 311.059 -2.03689 -3.76424 0
M  V30 3184 C 310.385 -1.61075 -5.09862 0
M  V30 3185 C 311.685 -3.4518 -3.9198 0
M  V30 3186 H 313.379 -2.1788 -2.0535 0
M  V30 3187 H 310.925 -1.04891 -0.986605 0
M  V30 3188 H 312.878 -0.886678 -4.11966 0
M  V30 3189 H 311.602 0.0163404 -3.26596 0
M  V30 3190 H 310.261 -2.10012 -3.00484 0
M  V30 3191 H 309.909 -0.622107 -4.99138 0
M  V30 3192 H 309.609 -2.33143 -5.39368 0
M  V30 3193 H 311.133 -1.55201 -5.90546 0
M  V30 3194 H 312.547 -3.4145 -4.60526 0
M  V30 3195 H 310.944 -4.1559 -4.32903 0
M  V30 3196 H 312.014 -3.84903 -2.94919 0
M  V30 3197 N 313.357 1.07166 -1.15556 0
M  V30 3198 C 314.634 1.76546 -0.842069 0
M  V30 3199 C 315.014 2.00453 0.661939 0
M  V30 3200 O 314.362 1.62452 1.60691 0
M  V30 3201 C 314.572 3.07266 -1.65495 0
M  V30 3202 C 315.92 3.81578 -1.86234 0
M  V30 3203 O 316.944 3.17083 -1.62287 0
M  V30 3204 O 315.803 4.97419 -2.26355 0
M  V30 3205 H 312.897 0.766756 -0.309862 0
M  V30 3206 H 315.443 1.13514 -1.26145 0
M  V30 3207 H 314.215 2.85494 -2.67598 0
M  V30 3208 H 313.838 3.7803 -1.23203 0
M  V30 3209 N 314.835 0.952656 1.25548 0
M  V30 3210 C 316.251 0.656769 1.4546 0
M  V30 3211 C 316.451 -0.78633 1.85524 0
M  V30 3212 O 315.507 -1.56183 1.98402 0
M  V30 3213 C 316.82 1.62801 2.52817 0
M  V30 3214 C 318.368 1.63897 2.66659 0
M  V30 3215 C 318.843 2.5978 3.77198 0
M  V30 3216 N 320.334 2.58133 3.84606 0
M  V30 3217 C 321.069 3.29003 4.69621 0
M  V30 3218 N 320.565 4.09339 5.58939 0
M  V30 3219 N 322.358 3.179 4.63569 0
M  V30 3220 H 314.509 1.88526 0.978344 0
M  V30 3221 H 316.772 0.810815 0.491206 0
M  V30 3222 H 316.478 2.65869 2.30232 0
M  V30 3223 H 316.352 1.38898 3.50695 0
M  V30 3224 H 318.739 0.615481 2.8861 0
M  V30 3225 H 318.82 1.91858 1.69187 0
M  V30 3226 H 318.464 3.62254 3.55997 0
M  V30 3227 H 318.394 2.29105 4.7415 0
M  V30 3228 H 320.885 1.99809 3.20757 0
M  V30 3229 H 321.198 4.6034 6.20731 0
M  V30 3230 H 319.543 4.13438 5.58654 0
M  V30 3231 H 322.734 2.54612 3.92798 0
M  V30 3232 H 322.907 3.73398 5.29602 0
M  V30 3233 N 316.313 -1.40141 0.720998 0
M  V30 3234 C 317.276 -2.29058 0.0805834 0
M  V30 3235 C 318.276 -1.45632 -0.681758 0
M  V30 3236 O 319.466 -1.6648 -0.512856 0
M  V30 3237 C 316.598 -3.28925 -0.895593 0
M  V30 3238 H 317.791 -2.87191 0.863793 0
M  V30 3239 H 315.344 -1.48553 0.485975 0
M  V30 3240 H 316.079 -2.75822 -1.70566 0
M  V30 3241 H 315.864 -3.90519 -0.351766 0
M  V30 3242 H 317.354 -3.95494 -1.34069 0
M  V30 3243 N 317.792 -0.46758 -1.50504 0
M  V30 3244 C 319.017 0.0886943 -2.0721 0
M  V30 3245 C 319.442 1.33057 -1.32956 0
M  V30 3246 O 318.8 1.77354 -0.376197 0
M  V30 3247 C 318.848 0.359202 -3.58806 0
M  V30 3248 O 317.952 1.44034 -3.8643 0
M  V30 3249 H 317.293 -0.0114349 -0.663902 0
M  V30 3250 H 319.823 -0.657613 -1.93744 0
M  V30 3251 H 319.833 0.600742 -4.03553 0
M  V30 3252 H 318.508 -0.548311 -4.1227 0
M  V30 3253 H 317.085 1.18638 -3.53524 0
M  V30 3254 N 319.27 1.56325 -0.20005 0
M  V30 3255 C 320.2 2.22318 0.713916 0
M  V30 3256 C 321.181 1.18788 1.21752 0
M  V30 3257 O 322.366 1.47309 1.26545 0
M  V30 3258 C 319.496 2.88639 1.93144 0
M  V30 3259 C 318.45 3.98457 1.56255 0
M  V30 3260 C 317.776 4.51967 2.85709 0
M  V30 3261 C 319.076 5.16612 0.768747 0
M  V30 3262 H 320.77 2.98952 0.163755 0
M  V30 3263 H 318.316 1.43792 0.0773219 0
M  V30 3264 H 320.269 3.33491 2.57608 0
M  V30 3265 H 318.993 2.09419 2.50621 0
M  V30 3266 H 317.652 3.54305 0.941471 0
M  V30 3267 H 317.3 3.69503 3.41287 0
M  V30 3268 H 317 5.26071 2.6177 0
M  V30 3269 H 318.524 4.99523 3.51154 0
M  V30 3270 H 319.938 5.57977 1.3166 0
M  V30 3271 H 318.335 5.96812 0.627286 0
M  V30 3272 H 319.405 4.84358 -0.229168 0
M  V30 3273 N 320.748 -0.0735177 1.57428 0
M  V30 3274 C 322.159 -0.625551 1.75908 0
M  V30 3275 C 322.51 -1.78 0.825261 0
M  V30 3276 O 321.635 -2.16398 0.00893964 0
M  V30 3277 C 322.23 -1.14155 3.18989 0
M  V30 3278 C 320.789 -1.63946 3.38819 0
M  V30 3279 C 319.936 -0.558151 2.71625 0
M  V30 3280 H 322.887 0.152647 1.57964 0
M  V30 3281 H 322.908 -2.0104 3.23053 0
M  V30 3282 H 322.42 -0.301116 3.8693 0
M  V30 3283 H 320.521 -2.50321 2.7599 0
M  V30 3284 H 320.634 -1.71759 4.47253 0
M  V30 3285 H 318.998 -1.00278 2.34129 0
M  V30 3286 H 319.781 0.272071 3.4222 0
M  V30 3287 N 322.226 -1.5378 -0.344866 0
M  V30 3288 C 323.466 -1.72677 -1.09371 0
M  V30 3289 C 323.83 -0.479084 -1.85927 0
M  V30 3290 O 325.031 -0.54505 -2.63216 0
M  V30 3291 C 323.302 -2.95457 -2.01097 0
M  V30 3292 S 324.861 -3.35158 -2.83222 0
M  V30 3293 H 321.679 -0.607402 -0.369573 0
M  V30 3294 H 324.281 -1.91922 -0.372307 0
M  V30 3295 H 322.985 -3.84437 -1.43655 0
M  V30 3296 H 322.516 -2.78673 -2.77678 0
M  V30 3297 H 324.531 -2.88789 -4.03504 0
M  V30 3298 N 323.704 0.605807 -1.45491 0
M  V30 3299 C 324.929 1.39625 -1.53361 0
M  V30 3300 C 325.354 1.87351 -0.167645 0
M  V30 3301 O 324.712 1.60243 0.848051 0
M  V30 3302 C 324.76 2.57559 -2.5238 0
M  V30 3303 O 323.864 3.58248 -2.04285 0
M  V30 3304 H 323.205 0.416771 -0.516912 0
M  V30 3305 H 325.735 0.737103 -1.90861 0
M  V30 3306 H 325.745 3.0478 -2.71244 0
M  V30 3307 H 324.42 2.22171 -3.51586 0
M  V30 3308 H 322.997 3.17664 -1.95305 0
M  V30 3309 N 325.182 1.32811 0.848464 0
M  V30 3310 C 326.114 1.18095 1.96433 0
M  V30 3311 C 327.127 0.114354 1.62398 0
M  V30 3312 O 328.316 0.363892 1.74751 0
M  V30 3313 C 325.416 0.786798 3.2964 0
M  V30 3314 C 324.589 1.943 3.91875 0
M  V30 3315 C 323.648 1.53138 5.03423 0
M  V30 3316 O 322.674 2.24432 5.23086 0
M  V30 3317 N 323.876 0.430915 5.78898 0
M  V30 3318 H 326.641 2.14218 2.09597 0
M  V30 3319 H 324.202 1.2543 1.02367 0
M  V30 3320 H 326.194 0.493715 4.01677 0
M  V30 3321 H 324.764 -0.0834541 3.12489 0
M  V30 3322 H 323.984 2.40224 3.12547 0
M  V30 3323 H 325.272 2.71689 4.30189 0
M  V30 3324 H 324.67 -0.162333 5.65467 0
M  V30 3325 H 323.227 0.197466 6.51501 0
M  V30 3326 N 326.66 -1.06551 1.16123 0
M  V30 3327 C 327.57 -2.17484 0.879662 0
M  V30 3328 C 328.586 -1.73377 -0.147104 0
M  V30 3329 O 329.762 -2.01379 0.0289128 0
M  V30 3330 C 326.827 -3.44591 0.381829 0
M  V30 3331 C 325.888 -4.0322 1.4735 0
M  V30 3332 C 325.121 -5.24261 0.999324 0
M  V30 3333 O 325.344 -5.70198 -0.151957 0
M  V30 3334 O 324.278 -5.74775 1.78653 0
M  V30 3335 H 328.104 -2.44075 1.80724 0
M  V30 3336 H 325.689 -1.16042 0.940992 0
M  V30 3337 H 327.571 -4.21254 0.111053 0
M  V30 3338 H 326.246 -3.19532 -0.51777 0
M  V30 3339 H 325.153 -3.2806 1.79798 0
M  V30 3340 H 326.486 -4.32568 2.34831 0
M  V30 3341 N 328.138 -0.959301 -1.25041 0
M  V30 3342 C 329.048 -0.489994 -2.29426 0
M  V30 3343 C 330.064 0.444944 -1.68215 0
M  V30 3344 O 331.24 0.320046 -1.98841 0
M  V30 3345 C 328.305 0.220309 -3.45999 0
M  V30 3346 C 327.366 -0.753418 -4.22637 0
M  V30 3347 C 326.599 -0.076918 -5.33645 0
M  V30 3348 O 326.822 1.13649 -5.58963 0
M  V30 3349 O 325.756 -0.764824 -5.97021 0
M  V30 3350 H 329.582 -1.35755 -2.71669 0
M  V30 3351 H 327.167 -0.725961 -1.30576 0
M  V30 3352 H 329.049 0.619677 -4.16819 0
M  V30 3353 H 327.724 1.06296 -3.0575 0
M  V30 3354 H 326.631 -1.20308 -3.54227 0
M  V30 3355 H 327.964 -1.56423 -4.66683 0
M  V30 3356 N 329.616 1.39756 -0.72842 0
M  V30 3357 C 330.579 2.29012 -0.0927297 0
M  V30 3358 C 331.579 1.45992 0.674025 0
M  V30 3359 O 332.769 1.66749 0.50402 0
M  V30 3360 C 329.901 3.29396 0.878137 0
M  V30 3361 H 331.094 2.86729 -0.879011 0
M  V30 3362 H 328.647 1.48293 -0.493847 0
M  V30 3363 H 329.382 2.76722 1.69101 0
M  V30 3364 H 329.167 3.907 0.331051 0
M  V30 3365 H 330.657 3.96199 1.3197 0
M  V30 3366 N 331.094 0.475555 1.50254 0
M  V30 3367 C 332.322 -0.0754493 2.06762 0
M  V30 3368 C 332.737 -1.33111 1.33891 0
M  V30 3369 O 332.094 -1.77846 0.40952 0
M  V30 3370 C 332.145 -0.359008 3.59713 0
M  V30 3371 O 331.866 0.846851 4.29837 0
M  V30 3372 C 333.367 -0.956484 4.32858 0
M  V30 3373 H 330.587 0.00907525 0.670939 0
M  V30 3374 H 333.131 0.665618 1.93364 0
M  V30 3375 H 331.286 -1.05001 3.72899 0
M  V30 3376 H 331.7 0.594162 5.21124 0
M  V30 3377 H 333.174 -1.10463 5.40834 0
M  V30 3378 H 333.651 -1.94775 3.93649 0
M  V30 3379 H 334.257 -0.303723 4.24214 0
M  V30 3380 N 332.573 -1.56217 0.208337 0
M  V30 3381 C 333.821 -1.97558 -0.426076 0
M  V30 3382 C 334.142 -1.09683 -1.61229 0
M  V30 3383 O 333.412 -0.170956 -1.95153 0
M  V30 3384 H 331.992 -0.729575 -0.160405 0
M  V30 3385 H 334.654 -1.92606 0.298155 0
M  V30 3386 H 333.75 -3.02672 -0.761312 0
M  V30 3387 N 334.051 0.0651679 -1.57465 0
M  V30 3388 C 335.299 0.761555 -1.87202 0
M  V30 3389 C 335.62 1.77778 -0.801243 0
M  V30 3390 O 334.89 1.95166 0.16937 0
M  V30 3391 H 333.47 0.284251 -0.690804 0
M  V30 3392 H 336.132 0.0396827 -1.9486 0
M  V30 3393 H 335.228 1.27365 -2.84929 0
M  V30 3394 N 335.529 1.53961 0.336706 0
M  V30 3395 C 336.492 1.81724 1.39675 0
M  V30 3396 C 337.492 0.688532 1.45313 0
M  V30 3397 O 338.682 0.956829 1.45569 0
M  V30 3398 C 335.814 1.96543 2.78538 0
M  V30 3399 H 337.007 2.76424 1.16318 0
M  V30 3400 H 334.56 1.45478 0.571474 0
M  V30 3401 H 335.295 1.0401 3.07168 0
M  V30 3402 H 335.08 2.78665 2.75841 0
M  V30 3403 H 336.57 2.19516 3.5525 0
M  V30 3404 N 337.007 -0.598083 1.45811 0
M  V30 3405 C 337.954 -1.7082 1.55207 0
M  V30 3406 C 338.924 -1.61278 0.39732 0
M  V30 3407 O 340.109 -1.80717 0.612038 0
M  V30 3408 C 337.249 -3.09144 1.53376 0
M  V30 3409 C 336.362 -3.29423 2.79472 0
M  V30 3410 C 335.497 -4.57907 2.69248 0
M  V30 3411 C 334.536 -4.71476 3.90354 0
M  V30 3412 N 333.673 -5.9127 3.78608 0
M  V30 3413 H 338.513 -1.62125 2.50039 0
M  V30 3414 H 336.05 -0.790389 1.24062 0
M  V30 3415 H 338.008 -3.89186 1.50301 0
M  V30 3416 H 336.638 -3.16773 0.620876 0
M  V30 3417 H 335.69 -2.43091 2.92594 0
M  V30 3418 H 337.002 -3.3532 3.69272 0
M  V30 3419 H 336.156 -5.46157 2.64192 0
M  V30 3420 H 334.895 -4.54423 1.77063 0
M  V30 3421 H 333.9 -3.81648 3.95759 0
M  V30 3422 H 335.125 -4.76751 4.83617 0
M  V30 3423 H 333.071 -5.88813 2.89199 0
M  V30 3424 H 332.988 -5.98369 4.6205 0
M  V30 3425 H 334.256 -6.81992 3.77501 0
M  V30 3426 N 338.485 -1.33259 -0.841409 0
M  V30 3427 C 339.762 -1.15174 -1.58096 0
M  V30 3428 C 340.142 0.282858 -2.09196 0
M  V30 3429 O 339.49 1.28151 -1.89181 0
M  V30 3430 C 339.7 -2.1907 -2.71679 0
M  V30 3431 C 341.048 -2.53093 -3.40924 0
M  V30 3432 O 342.072 -2.17717 -2.81918 0
M  V30 3433 O 340.931 -3.1379 -4.47435 0
M  V30 3434 H 338.025 -0.445303 -0.696875 0
M  V30 3435 H 340.571 -1.44833 -0.884385 0
M  V30 3436 H 339.343 -3.15443 -2.31541 0
M  V30 3437 H 338.966 -1.90481 -3.49002 0
M  V30 3438 N 339.963 1.05934 -1.16686 0
M  V30 3439 C 341.191 1.8249 -0.974929 0
M  V30 3440 C 341.606 1.82679 0.476861 0
M  V30 3441 O 340.963 1.2486 1.33103 0
M  V30 3442 C 341.014 3.28943 -1.49929 0
M  V30 3443 O 340.735 3.28886 -2.89423 0
M  V30 3444 C 342.236 4.22215 -1.35089 0
M  V30 3445 H 339.456 0.575295 -0.345365 0
M  V30 3446 H 342 1.33631 -1.548 0
M  V30 3447 H 340.155 3.751 -0.968423 0
M  V30 3448 H 340.569 4.20493 -3.13506 0
M  V30 3449 H 342.043 5.22987 -1.76603 0
M  V30 3450 H 342.52 4.38195 -0.296935 0
M  V30 3451 H 343.126 3.81907 -1.87155 0
M  V30 3452 N 341.441 0.965919 1.2453 0
M  V30 3453 C 342.857 0.67216 1.44756 0
M  V30 3454 C 343.057 -0.766609 1.86347 0
M  V30 3455 O 342.113 -1.5407 2.00047 0
M  V30 3456 C 343.426 1.65473 2.51076 0
M  V30 3457 C 344.974 1.66716 2.64905 0
M  V30 3458 C 345.449 2.63766 3.74421 0
M  V30 3459 N 346.94 2.62198 3.81846 0
M  V30 3460 C 347.675 3.33966 4.66106 0
M  V30 3461 N 347.171 4.15245 5.54566 0
M  V30 3462 N 348.964 3.22799 4.60171 0
M  V30 3463 H 341.115 1.89553 0.958293 0
M  V30 3464 H 343.378 0.815979 0.482579 0
M  V30 3465 H 343.084 2.68296 2.27399 0
M  V30 3466 H 342.958 1.4261 3.49202 0
M  V30 3467 H 345.345 0.646057 2.87941 0
M  V30 3468 H 345.426 1.93642 1.67142 0
M  V30 3469 H 345.07 3.6601 3.52135 0
M  V30 3470 H 345 2.34121 4.71694 0
M  V30 3471 H 347.491 2.032 3.18619 0
M  V30 3472 H 347.804 4.66898 6.15814 0
M  V30 3473 H 346.149 4.1934 5.54237 0
M  V30 3474 H 349.34 2.58764 3.90075 0
M  V30 3475 H 349.513 3.78994 5.25612 0
M  V30 3476 N 342.919 -1.39368 0.735821 0
M  V30 3477 C 343.852 -2.28155 0.0451175 0
M  V30 3478 C 344.83 -1.44433 -0.746852 0
M  V30 3479 O 346.014 -1.73823 -0.729237 0
M  V30 3480 C 343.141 -3.253 -0.943266 0
M  V30 3481 C 342.187 -4.25826 -0.239685 0
M  V30 3482 S 343.02 -5.25166 1.04693 0
M  V30 3483 C 344.176 -6.2587 0.0611639 0
M  V30 3484 H 344.409 -2.86388 0.79807 0
M  V30 3485 H 341.942 -1.45104 0.527653 0
M  V30 3486 H 343.9 -3.81789 -1.50824 0
M  V30 3487 H 342.561 -2.66085 -1.66906 0
M  V30 3488 H 341.754 -4.94229 -0.987596 0
M  V30 3489 H 341.356 -3.73141 0.253274 0
M  V30 3490 H 343.648 -6.73007 -0.778941 0
M  V30 3491 H 344.591 -7.04508 0.712362 0
M  V30 3492 H 344.999 -5.63639 -0.311602 0
M  V30 3493 N 344.397 -0.483516 -1.5 0
M  V30 3494 C 345.643 0.0672592 -2.02688 0
M  V30 3495 C 345.976 1.38247 -1.36387 0
M  V30 3496 O 345.251 1.88131 -0.493675 0
M  V30 3497 C 345.534 0.238109 -3.59312 0
M  V30 3498 C 345.387 -1.099 -4.36168 0
M  V30 3499 C 346.706 0.986916 -4.28892 0
M  V30 3500 H 343.825 0.0229696 -0.736642 0
M  V30 3501 H 346.467 -0.631527 -1.79197 0
M  V30 3502 H 344.617 0.8333 -3.79458 0
M  V30 3503 H 346.289 -1.73172 -4.27562 0
M  V30 3504 H 344.532 -1.69261 -3.99416 0
M  V30 3505 H 345.203 -0.932954 -5.44059 0
M  V30 3506 H 347.679 0.482302 -4.13295 0
M  V30 3507 H 346.555 1.07527 -5.38265 0
M  V30 3508 H 346.816 2.0265 -3.92919 0
M  V30 3509 N 345.875 1.56104 -0.216619 0
M  V30 3510 C 346.825 2.16703 0.708798 0
M  V30 3511 C 347.809 1.11392 1.16106 0
M  V30 3512 O 349.001 1.37395 1.11587 0
M  V30 3513 C 346.13 2.84666 1.91886 0
M  V30 3514 C 345.216 3.97195 1.48651 0
M  V30 3515 N 345.607 4.99959 0.766434 0
M  V30 3516 C 343.905 4.09193 1.77418 0
M  V30 3517 C 344.606 5.79126 0.546659 0
M  V30 3518 N 343.582 5.32315 1.10188 0
M  V30 3519 H 347.384 2.93516 0.150162 0
M  V30 3520 H 344.898 1.6239 -0.0176768 0
M  V30 3521 H 346.895 3.26486 2.59253 0
M  V30 3522 H 345.555 2.09347 2.48202 0
M  V30 3523 H 346.566 5.16197 0.419634 0
M  V30 3524 H 343.243 3.45021 2.35088 0
M  V30 3525 H 344.633 6.71895 -0.026103 0
M  V30 3526 N 347.353 -0.0568162 1.57498 0
M  V30 3527 C 348.285 -1.09292 2.01464 0
M  V30 3528 C 349.298 -1.34112 0.922913 0
M  V30 3529 O 350.487 -1.32089 1.20062 0
M  V30 3530 C 347.587 -2.44068 2.35125 0
M  V30 3531 C 346.76 -2.38995 3.66333 0
M  V30 3532 C 345.819 -3.55997 3.87495 0
M  V30 3533 O 344.845 -3.36746 4.58901 0
M  V30 3534 N 346.047 -4.76888 3.30996 0
M  V30 3535 H 348.812 -0.718386 2.90963 0
M  V30 3536 H 346.373 -0.245235 1.60032 0
M  V30 3537 H 348.365 -3.21011 2.46443 0
M  V30 3538 H 346.935 -2.73468 1.5144 0
M  V30 3539 H 346.155 -1.47336 3.65631 0
M  V30 3540 H 347.443 -2.3272 4.52458 0
M  V30 3541 H 346.841 -4.95431 2.73065 0
M  V30 3542 H 345.398 -5.51291 3.47738 0
M  V30 3543 N 348.832 -1.54138 -0.328536 0
M  V30 3544 C 350.06 -1.76062 -1.08673 0
M  V30 3545 C 350.475 -0.506852 -1.81869 0
M  V30 3546 O 349.832 0.522223 -1.74869 0
M  V30 3547 C 349.883 -2.95054 -2.08866 0
M  V30 3548 O 349.604 -4.15583 -1.38644 0
M  V30 3549 C 351.105 -3.2915 -2.96943 0
M  V30 3550 H 348.325 -0.587889 -0.323461 0
M  V30 3551 H 350.869 -2.0101 -0.376175 0
M  V30 3552 H 349.024 -2.72394 -2.75464 0
M  V30 3553 H 349.438 -4.82481 -2.05699 0
M  V30 3554 H 350.912 -4.15723 -3.63151 0
M  V30 3555 H 351.389 -2.461 -3.63774 0
M  V30 3556 H 351.995 -3.53871 -2.35914 0
M  V30 3557 N 350.31 0.590341 -1.46126 0
M  V30 3558 C 351.726 0.912917 -1.30912 0
M  V30 3559 C 351.926 1.99616 -0.274893 0
M  V30 3560 O 350.982 2.50397 0.325197 0
M  V30 3561 C 352.295 1.3375 -2.69317 0
M  V30 3562 C 353.843 1.45077 -2.77348 0
M  V30 3563 C 354.318 1.90904 -4.16317 0
M  V30 3564 N 355.809 1.9811 -4.18696 0
M  V30 3565 C 356.544 2.34828 -5.23109 0
M  V30 3566 N 356.04 2.70393 -6.37856 0
M  V30 3567 N 357.833 2.35317 -5.10473 0
M  V30 3568 H 349.984 -0.125358 -2.1203 0
M  V30 3569 H 352.247 0.00658481 -0.947977 0
M  V30 3570 H 351.953 0.615614 -3.4627 0
M  V30 3571 H 351.827 2.30058 -2.9892 0
M  V30 3572 H 354.214 2.16353 -2.00687 0
M  V30 3573 H 354.295 0.4704 -2.51438 0
M  V30 3574 H 353.939 1.20209 -4.9347 0
M  V30 3575 H 353.869 2.89886 -4.39629 0
M  V30 3576 H 356.36 1.73146 -3.359 0
M  V30 3577 H 356.673 2.97341 -7.13308 0
M  V30 3578 H 355.018 2.68048 -6.41229 0
M  V30 3579 H 358.209 2.0695 -4.19868 0
M  V30 3580 H 358.382 2.63605 -5.9196 0
M  V30 3581 N 351.788 1.33704 0.83433 0
M  V30 3582 C 352.751 1.24244 1.92603 0
M  V30 3583 C 353.751 0.160383 1.59998 0
M  V30 3584 O 354.941 0.412228 1.69252 0
M  V30 3585 C 352.073 0.91555 3.28376 0
M  V30 3586 H 353.266 2.21287 2.02416 0
M  V30 3587 H 350.819 1.17827 1.02696 0
M  V30 3588 H 351.554 -0.0521886 3.24258 0
M  V30 3589 H 351.339 1.69811 3.53422 0
M  V30 3590 H 352.829 0.874231 4.08347 0
M  V30 3591 N 353.266 -1.05314 1.17247 0
M  V30 3592 C 354.491 -1.82509 0.985148 0
M  V30 3593 C 354.916 -1.82343 -0.461788 0
M  V30 3594 O 354.274 -1.23151 -1.33055 0
M  V30 3595 C 354.322 -3.26566 1.52929 0
M  V30 3596 O 353.426 -4.05666 0.742225 0
M  V30 3597 H 352.767 -0.564347 0.349869 0
M  V30 3598 H 355.297 -1.32718 1.55715 0
M  V30 3599 H 355.307 -3.77369 1.55103 0
M  V30 3600 H 353.982 -3.26001 2.58256 0
M  V30 3601 H 352.559 -3.64397 0.791794 0
M  V30 3602 N 354.744 -0.972509 -1.24016 0
M  V30 3603 C 355.674 -0.525548 -2.27509 0
M  V30 3604 C 356.655 0.437262 -1.64384 0
M  V30 3605 O 357.84 0.332343 -1.91335 0
M  V30 3606 C 354.97 0.180448 -3.46831 0
M  V30 3607 C 353.924 -0.698859 -4.22256 0
M  V30 3608 C 353.25 0.138903 -5.3452 0
M  V30 3609 C 354.55 -1.98582 -4.83076 0
M  V30 3610 H 356.244 -1.39058 -2.65148 0
M  V30 3611 H 353.79 -0.67009 -1.27459 0
M  V30 3612 H 355.743 0.504387 -4.18371 0
M  V30 3613 H 354.467 1.07987 -3.08231 0
M  V30 3614 H 353.126 -1.00614 -3.52523 0
M  V30 3615 H 352.774 1.03862 -4.9216 0
M  V30 3616 H 352.474 -0.446259 -5.85903 0
M  V30 3617 H 353.998 0.457404 -6.08884 0
M  V30 3618 H 355.412 -1.72715 -5.46665 0
M  V30 3619 H 353.809 -2.5181 -5.44713 0
M  V30 3620 H 354.879 -2.67769 -4.04262 0
M  V30 3621 N 356.222 1.38976 -0.743202 0
M  V30 3622 C 357.638 1.53984 -0.419664 0
M  V30 3623 C 357.838 1.70837 1.0685 0
M  V30 3624 O 356.894 1.7135 1.8546 0
M  V30 3625 C 358.207 2.75287 -1.20985 0
M  V30 3626 C 359.755 2.89129 -1.19889 0
M  V30 3627 C 360.23 4.13381 -1.97181 0
M  V30 3628 N 361.721 4.20437 -1.94389 0
M  V30 3629 C 362.456 5.15547 -2.50996 0
M  V30 3630 N 361.952 6.16395 -3.16274 0
M  V30 3631 N 363.745 5.07822 -2.40984 0
M  V30 3632 H 355.896 1.26285 -1.7078 0
M  V30 3633 H 358.159 0.612689 -0.723406 0
M  V30 3634 H 357.865 2.69204 -2.26323 0
M  V30 3635 H 357.739 3.68184 -0.819759 0
M  V30 3636 H 360.126 2.947 -0.153606 0
M  V30 3637 H 360.207 1.97272 -1.62841 0
M  V30 3638 H 359.851 4.08572 -3.01714 0
M  V30 3639 H 359.781 5.04298 -1.51629 0
M  V30 3640 H 362.272 3.48205 -1.46839 0
M  V30 3641 H 362.585 6.85443 -3.56915 0
M  V30 3642 H 360.93 6.16758 -3.20367 0
M  V30 3643 H 364.121 4.27973 -1.89622 0
M  V30 3644 H 364.294 5.81767 -2.85397 0
M  V30 3645 N 357.7 0.491464 1.49741 0
M  V30 3646 C 358.925 -0.0557177 2.07325 0
M  V30 3647 C 359.35 -1.30925 1.35056 0
M  V30 3648 O 358.708 -1.76733 0.404365 0
M  V30 3649 C 358.756 -0.302074 3.59333 0
M  V30 3650 O 357.86 -1.37868 3.88672 0
M  V30 3651 H 357.201 0.0219956 0.663636 0
M  V30 3652 H 359.731 0.688352 1.92673 0
M  V30 3653 H 359.741 -0.536464 4.04458 0
M  V30 3654 H 358.416 0.61383 4.11345 0
M  V30 3655 H 356.993 -1.12999 3.55367 0
M  V30 3656 N 359.178 -1.55987 0.224894 0
M  V30 3657 C 360.424 -1.98684 -0.406502 0
M  V30 3658 C 360.757 -1.11248 -1.59177 0
M  V30 3659 O 360.032 -0.170909 -1.93748 0
M  V30 3660 C 360.315 -3.50218 -0.837808 0
M  V30 3661 C 360.168 -4.48426 0.351332 0
M  V30 3662 C 361.487 -4.06243 -1.69278 0
M  V30 3663 H 358.606 -0.722337 -0.146283 0
M  V30 3664 H 361.248 -1.87255 0.321799 0
M  V30 3665 H 359.398 -3.60089 -1.45837 0
M  V30 3666 H 361.07 -4.50562 0.989526 0
M  V30 3667 H 359.313 -4.22159 0.998207 0
M  V30 3668 H 359.984 -5.52 0.00655905 0
M  V30 3669 H 362.46 -3.99337 -1.16914 0
M  V30 3670 H 361.336 -5.12581 -1.96346 0
M  V30 3671 H 361.597 -3.53332 -2.65723 0
M  V30 3672 N 360.656 0.0484629 -1.57525 0
M  V30 3673 C 361.586 1.0549 -2.08313 0
M  V30 3674 C 362.567 1.38929 -0.981463 0
M  V30 3675 O 363.752 1.48151 -1.25558 0
M  V30 3676 C 360.882 2.36162 -2.54646 0
M  V30 3677 C 359.836 2.17016 -3.68901 0
M  V30 3678 C 359.162 3.53278 -4.01371 0
M  V30 3679 C 360.462 1.57219 -4.98076 0
M  V30 3680 H 362.156 0.632195 -2.92649 0
M  V30 3681 H 359.702 0.302654 -1.40784 0
M  V30 3682 H 361.655 3.06882 -2.88793 0
M  V30 3683 H 360.379 2.80456 -1.67368 0
M  V30 3684 H 359.038 1.48733 -3.35073 0
M  V30 3685 H 358.686 3.95185 -3.11188 0
M  V30 3686 H 358.386 3.41299 -4.78318 0
M  V30 3687 H 359.91 4.25391 -4.38035 0
M  V30 3688 H 361.324 2.17832 -5.30304 0
M  V30 3689 H 359.721 1.55871 -5.79503 0
M  V30 3690 H 360.791 0.535956 -4.81929 0
M  V30 3691 N 362.134 1.5431 0.320358 0
M  V30 3692 C 363.381 1.72668 1.05792 0
M  V30 3693 C 363.709 0.502084 1.87908 0
M  V30 3694 O 362.964 -0.516149 1.88771 0
M  V30 3695 C 363.263 2.95639 2.00828 0
M  V30 3696 C 362.929 4.30265 1.34843 0
M  V30 3697 C 361.591 4.66865 1.16578 0
M  V30 3698 C 363.943 5.13801 0.875095 0
M  V30 3699 C 361.271 5.84597 0.496336 0
M  V30 3700 C 363.623 6.32219 0.219463 0
M  V30 3701 C 362.287 6.67495 0.0246915 0
M  V30 3702 H 361.557 0.631837 0.387121 0
M  V30 3703 H 364.204 1.88552 0.334735 0
M  V30 3704 H 362.509 2.74456 2.79609 0
M  V30 3705 H 364.206 3.07038 2.57932 0
M  V30 3706 H 360.796 4.01472 1.50061 0
M  V30 3707 H 364.98 4.86039 1.00398 0
M  V30 3708 H 360.236 6.10486 0.334264 0
M  V30 3709 H 364.41 6.96227 -0.155291 0
M  V30 3710 H 362.037 7.5858 -0.496065 0
M  V30 3711 N 363.613 -0.582584 1.46437 0
M  V30 3712 C 364.861 -1.33814 1.51453 0
M  V30 3713 C 365.182 -1.94277 0.167792 0
M  V30 3714 O 364.452 -1.78566 -0.805677 0
M  V30 3715 H 363.032 -0.496838 0.557818 0
M  V30 3716 H 365.694 -0.682281 1.82568 0
M  V30 3717 H 364.79 -2.14479 2.26728 0
M  V30 3718 N 365.091 -1.34144 -0.827227 0
M  V30 3719 C 366.021 -1.28005 -1.95287 0
M  V30 3720 C 367.002 -0.158321 -1.69362 0
M  V30 3721 O 368.187 -0.349987 -1.9102 0
M  V30 3722 C 365.317 -1.03036 -3.31664 0
M  V30 3723 C 364.271 -2.11628 -3.72019 0
M  V30 3724 C 363.597 -1.71854 -5.0633 0
M  V30 3725 C 364.897 -3.53417 -3.8457 0
M  V30 3726 H 366.591 -2.22187 -2.00682 0
M  V30 3727 H 364.137 -1.0696 -0.964135 0
M  V30 3728 H 366.09 -0.973863 -4.09993 0
M  V30 3729 H 364.814 -0.0529391 -3.26557 0
M  V30 3730 H 363.473 -2.16339 -2.95961 0
M  V30 3731 H 363.121 -0.727841 -4.97706 0
M  V30 3732 H 362.821 -2.44531 -5.34302 0
M  V30 3733 H 364.345 -1.67692 -5.87122 0
M  V30 3734 H 365.759 -3.51142 -4.5318 0
M  V30 3735 H 364.156 -4.24679 -4.2399 0
M  V30 3736 H 365.226 -3.91072 -2.86689 0
M  V30 3737 N 366.569 1.04691 -1.17803 0
M  V30 3738 C 367.502 2.12068 -0.842765 0
M  V30 3739 C 368.48 1.61455 0.192608 0
M  V30 3740 O 369.664 1.88359 0.072995 0
M  V30 3741 C 366.791 3.37715 -0.258063 0
M  V30 3742 C 365.837 4.07164 -1.26962 0
M  V30 3743 S 366.67 4.55047 -2.82299 0
M  V30 3744 C 367.826 5.83935 -2.25323 0
M  V30 3745 H 368.059 2.4018 -1.75217 0
M  V30 3746 H 365.592 1.17366 -1.00323 0
M  V30 3747 H 367.55 4.10435 0.0727935 0
M  V30 3748 H 366.211 3.0773 0.629357 0
M  V30 3749 H 365.404 4.9746 -0.809263 0
M  V30 3750 H 365.006 3.40533 -1.54639 0
M  V30 3751 H 367.298 6.57552 -1.63192 0
M  V30 3752 H 368.241 6.34725 -3.13894 0
M  V30 3753 H 368.649 5.3874 -1.68582 0
M  V30 3754 N 368.047 0.979072 1.23499 0
M  V30 3755 C 368.995 0.510604 2.26926 0
M  V30 3756 C 369.989 -0.431691 1.63807 0
M  V30 3757 O 371.195 -0.30573 1.77385 0
M  V30 3758 H 367.57 0.146688 0.737554 0
M  V30 3759 H 369.541 1.39466 2.63803 0
M  V30 3760 C 368.29 -0.172658 3.47271 0
M  V30 3761 H 367.613 0.543331 3.96091 0
M  V30 3762 H 369.053 -0.464101 4.21452 0
M  V30 3763 C 367.512 -1.40345 3.06276 0
M  V30 3764 O 368.042 -2.49978 3.14442 0
M  V30 3765 N 366.248 -1.27362 2.61203 0
M  V30 3766 H 365.795 -0.381584 2.54758 0
M  V30 3767 H 365.753 -2.09822 2.34141 0
M  V30 3768 N 369.525 -1.3858 0.750561 0
M  V30 3769 C 370.75 -2.04997 0.314812 0
M  V30 3770 C 371.175 -1.56235 -1.04749 0
M  V30 3771 O 370.533 -0.712981 -1.66692 0
M  V30 3772 C 370.581 -3.58961 0.343415 0
M  V30 3773 O 369.685 -4.07025 -0.663628 0
M  V30 3774 H 369.026 -0.649081 0.139962 0
M  V30 3775 H 371.556 -1.77313 1.02084 0
M  V30 3776 H 371.566 -4.07542 0.193233 0
M  V30 3777 H 370.241 -3.93811 1.33738 0
M  V30 3778 H 368.818 -3.6982 -0.478307 0
M  V30 3779 N 371.003 -0.499398 -1.49478 0
M  V30 3780 C 372.251 0.0455996 -2.02049 0
M  V30 3781 C 372.572 1.37633 -1.38138 0
M  V30 3782 O 371.842 1.8842 -0.536166 0
M  V30 3783 H 370.422 0.0198416 -0.746736 0
M  V30 3784 H 373.084 -0.656274 -1.83519 0
M  V30 3785 H 372.18 0.176445 -3.11601 0
M  V30 3786 N 372.481 1.55866 -0.233164 0
M  V30 3787 C 373.709 2.02998 0.399905 0
M  V30 3788 C 374.124 1.11274 1.52524 0
M  V30 3789 O 373.481 0.124528 1.82075 0
M  V30 3790 C 373.532 3.4958 0.920639 0
M  V30 3791 O 373.253 4.37808 -0.159834 0
M  V30 3792 C 374.754 4.12411 1.62578 0
M  V30 3793 H 371.974 0.664006 0.0966281 0
M  V30 3794 H 374.518 2.0143 -0.353013 0
M  V30 3795 H 372.673 3.51727 1.62379 0
M  V30 3796 H 373.087 5.23981 0.23337 0
M  V30 3797 H 374.561 5.16711 1.94201 0
M  V30 3798 H 375.038 3.5809 2.54299 0
M  V30 3799 H 375.644 4.14148 0.967553 0
M  V30 3800 N 373.959 -0.0401083 1.57549 0
M  V30 3801 C 375.37 -0.588097 1.77196 0
M  V30 3802 C 375.721 -1.76209 0.862832 0
M  V30 3803 O 374.846 -2.16331 0.0548389 0
M  V30 3804 C 375.441 -1.07363 3.21339 0
M  V30 3805 C 374 -1.56723 3.42221 0
M  V30 3806 C 373.147 -0.50041 2.72747 0
M  V30 3807 H 376.098 0.186119 1.57605 0
M  V30 3808 H 376.119 -1.94143 3.27244 0
M  V30 3809 H 375.631 -0.218975 3.87482 0
M  V30 3810 H 373.732 -2.4441 2.81237 0
M  V30 3811 H 373.845 -1.62234 4.50796 0
M  V30 3812 H 372.209 -0.952894 2.36203 0
M  V30 3813 H 372.992 0.344599 3.41566 0
M  V30 3814 N 375.437 -1.54477 -0.31217 0
M  V30 3815 C 376.347 -1.87695 -1.4074 0
M  V30 3816 C 377.363 -0.769975 -1.56036 0
M  V30 3817 O 378.539 -1.06537 -1.70915 0
M  V30 3818 C 375.604 -2.10755 -2.75287 0
M  V30 3819 C 374.665 -3.34514 -2.69071 0
M  V30 3820 C 373.898 -3.56465 -3.97201 0
M  V30 3821 O 374.121 -2.81637 -4.96021 0
M  V30 3822 O 373.055 -4.49964 -3.9977 0
M  V30 3823 H 376.881 -2.80849 -1.15574 0
M  V30 3824 H 374.466 -1.40526 -0.507228 0
M  V30 3825 H 376.348 -2.27188 -3.54913 0
M  V30 3826 H 375.023 -1.20788 -3.0032 0
M  V30 3827 H 373.93 -3.23456 -1.87955 0
M  V30 3828 H 375.263 -4.24575 -2.48992 0
M  V30 3829 N 376.915 0.57481 -1.46744 0
M  V30 3830 C 378.192 1.3352 -1.4294 0
M  V30 3831 C 378.572 2.10775 -0.117009 0
M  V30 3832 O 377.92 2.09966 0.901474 0
M  V30 3833 C 378.13 2.25456 -2.66403 0
M  V30 3834 C 379.478 2.87035 -3.12883 0
M  V30 3835 O 380.502 2.35766 -2.67007 0
M  V30 3836 O 379.361 3.80179 -3.92589 0
M  V30 3837 H 376.455 0.600318 -0.568812 0
M  V30 3838 H 379.001 0.595171 -1.58921 0
M  V30 3839 H 377.773 1.67851 -3.53471 0
M  V30 3840 H 377.396 3.06785 -2.52921 0
M  V30 3841 N 378.394 1.34581 0.820102 0
M  V30 3842 C 379.619 1.30333 1.61332 0
M  V30 3843 C 380.044 -0.119339 1.87721 0
M  V30 3844 O 379.402 -1.08197 1.45475 0
M  V30 3845 C 379.45 2.10258 2.92957 0
M  V30 3846 O 378.554 1.47404 3.85157 0
M  V30 3847 H 377.895 0.447488 0.490561 0
M  V30 3848 H 380.425 1.77425 1.01889 0
M  V30 3849 H 380.435 2.21718 3.42498 0
M  V30 3850 H 379.11 3.13693 2.73074 0
M  V30 3851 H 377.687 1.44703 3.43679 0
M  V30 3852 N 379.872 -1.04064 1.18357 0
M  V30 3853 C 380.782 -2.15569 0.925596 0
M  V30 3854 C 381.798 -1.7365 -0.110295 0
M  V30 3855 O 382.974 -2.01273 0.0716218 0
M  V30 3856 C 380.039 -3.43704 0.454836 0
M  V30 3857 C 379.1 -4.00004 1.55869 0
M  V30 3858 C 378.333 -5.22023 1.1103 0
M  V30 3859 O 378.556 -5.70392 -0.0309756 0
M  V30 3860 O 377.49 -5.70856 1.90805 0
M  V30 3861 H 381.316 -2.40187 1.8586 0
M  V30 3862 H 378.901 -1.1402 0.965394 0
M  V30 3863 H 380.783 -4.20923 0.200382 0
M  V30 3864 H 379.458 -3.20559 -0.449876 0
M  V30 3865 H 378.365 -3.24172 1.86716 0
M  V30 3866 H 379.698 -4.2749 2.43953 0
M  V30 3867 N 381.35 -0.985608 -1.22978 0
M  V30 3868 C 382.597 -0.657386 -1.91532 0
M  V30 3869 C 382.925 0.809707 -1.76845 0
M  V30 3870 O 382.18 1.60021 -1.12658 0
M  V30 3871 C 382.479 -1.00014 -3.43121 0
M  V30 3872 C 382.145 -2.4583 -3.77993 0
M  V30 3873 C 380.807 -2.85679 -3.87222 0
M  V30 3874 C 383.159 -3.40378 -3.94705 0
M  V30 3875 C 380.487 -4.19081 -4.10595 0
M  V30 3876 C 382.839 -4.73429 -4.1958 0
M  V30 3877 C 381.503 -5.1303 -4.27032 0
M  V30 3878 H 380.773 -0.240555 -0.700867 0
M  V30 3879 H 383.42 -1.24044 -1.45895 0
M  V30 3880 H 381.725 -0.335072 -3.90365 0
M  V30 3881 H 383.422 -0.724322 -3.94404 0
M  V30 3882 H 380.012 -2.13939 -3.71387 0
M  V30 3883 H 384.196 -3.10766 -3.8696 0
M  V30 3884 H 379.452 -4.49362 -4.14589 0
M  V30 3885 H 383.626 -5.46644 -4.31455 0
M  V30 3886 H 381.253 -6.16418 -4.44896 0
M  V30 3887 N 382.828 1.3818 -0.7579 0
M  V30 3888 C 384.244 1.5353 -0.435972 0
M  V30 3889 C 384.444 1.71961 1.05032 0
M  V30 3890 O 383.5 1.73307 1.83633 0
M  V30 3891 C 384.813 2.73989 -1.23898 0
M  V30 3892 C 386.361 2.87841 -1.22949 0
M  V30 3893 C 386.836 4.11266 -2.01554 0
M  V30 3894 N 388.327 4.18352 -1.98837 0
M  V30 3895 C 389.062 5.12856 -2.5645 0
M  V30 3896 N 388.558 6.13005 -3.22794 0
M  V30 3897 N 390.351 5.05238 -2.46356 0
M  V30 3898 H 382.502 1.24467 -1.7211 0
M  V30 3899 H 384.765 0.604982 -0.729864 0
M  V30 3900 H 384.471 2.66789 -2.29165 0
M  V30 3901 H 384.345 3.67294 -0.858764 0
M  V30 3902 H 386.732 2.9452 -0.184854 0
M  V30 3903 H 386.813 1.95534 -1.64924 0
M  V30 3904 H 386.457 4.05349 -3.06031 0
M  V30 3905 H 386.387 5.02661 -1.5697 0
M  V30 3906 H 388.878 3.46628 -1.50524 0
M  V30 3907 H 389.191 6.81619 -3.64165 0
M  V30 3908 H 387.536 6.13325 -3.2689 0
M  V30 3909 H 390.727 4.25938 -1.9415 0
M  V30 3910 H 390.9 5.78707 -2.91552 0
M  V30 3911 N 384.306 0.507319 1.49211 0
M  V30 3912 C 385.269 -0.256763 2.27757 0
M  V30 3913 C 386.269 -0.888287 1.34038 0
M  V30 3914 O 387.459 -0.751841 1.5714 0
M  V30 3915 C 384.591 -1.36905 3.12202 0
M  V30 3916 H 385.784 0.432557 2.96764 0
M  V30 3917 H 383.337 0.262488 1.5408 0
M  V30 3918 H 384.072 -2.09233 2.47775 0
M  V30 3919 H 383.857 -0.921599 3.81115 0
M  V30 3920 H 385.347 -1.9071 3.7151 0
M  V30 3921 N 385.784 -1.5574 0.241426 0
M  V30 3922 C 387.061 -1.90704 -0.434881 0
M  V30 3923 C 387.441 -1.16145 -1.76277 0
M  V30 3924 O 386.789 -0.277152 -2.26813 0
M  V30 3925 C 386.999 -3.43657 -0.608343 0
M  V30 3926 C 388.347 -4.14806 -0.906725 0
M  V30 3927 O 389.371 -3.49366 -0.694408 0
M  V30 3928 O 388.23 -5.30548 -1.31075 0
M  V30 3929 H 385.324 -0.793592 -0.23268 0
M  V30 3930 H 387.87 -1.67288 0.285086 0
M  V30 3931 H 386.642 -3.89927 0.327505 0
M  V30 3932 H 386.265 -3.72918 -1.37906 0
M  V30 3933 N 387.262 0.0317525 -1.57568 0
M  V30 3934 C 388.51 0.721676 -1.88776 0
M  V30 3935 C 388.831 1.76039 -0.838772 0
M  V30 3936 O 388.101 1.95482 0.127935 0
M  V30 3937 H 386.681 0.269534 -0.696678 0
M  V30 3938 H 389.343 -0.00165879 -1.949 0
M  V30 3939 H 388.439 1.21293 -2.87566 0
M  V30 3940 N 388.74 1.54641 0.303973 0
M  V30 3941 C 389.687 1.85386 1.37479 0
M  V30 3942 C 390.657 0.702528 1.50512 0
M  V30 3943 O 391.842 0.950867 1.65418 0
M  V30 3944 C 388.982 2.10413 2.73533 0
M  V30 3945 C 388.095 3.38049 2.68974 0
M  V30 3946 C 387.23 3.52934 3.97002 0
M  V30 3947 C 386.269 4.74373 3.86829 0
M  V30 3948 N 385.406 4.8608 5.06627 0
M  V30 3949 H 390.246 2.76732 1.1056 0
M  V30 3950 H 387.783 1.37034 0.534805 0
M  V30 3951 H 389.741 2.22919 3.52652 0
M  V30 3952 H 388.371 1.22338 2.98719 0
M  V30 3953 H 387.423 3.3418 1.81736 0
M  V30 3954 H 388.735 4.27288 2.57346 0
M  V30 3955 H 387.889 3.65088 4.84557 0
M  V30 3956 H 386.628 2.61824 4.1146 0
M  V30 3957 H 385.633 4.62255 2.97658 0
M  V30 3958 H 386.858 5.66888 3.73918 0
M  V30 3959 H 384.804 3.97891 5.21554 0
M  V30 3960 H 384.721 5.69315 4.9741 0
M  V30 3961 H 385.989 5.02587 5.95841 0
M  V30 3962 N 390.218 -0.567019 1.47046 0
M  V30 3963 C 391.166 -1.69593 1.59188 0
M  V30 3964 C 392.16 -1.63046 0.459609 0
M  V30 3965 O 393.366 -1.6835 0.637058 0
M  V30 3966 H 389.741 -0.560993 0.500791 0
M  V30 3967 H 391.712 -1.56488 2.54075 0
M  V30 3968 C 390.461 -3.07964 1.61411 0
M  V30 3969 H 389.784 -3.13679 2.47881 0
M  V30 3970 H 391.224 -3.86671 1.73958 0
M  V30 3971 C 389.683 -3.35123 0.34559 0
M  V30 3972 O 390.213 -3.97812 -0.557521 0
M  V30 3973 N 388.419 -2.89699 0.22864 0
M  V30 3974 H 387.966 -2.38863 0.964479 0
M  V30 3975 H 387.924 -3.08242 -0.619192 0
M  V30 3976 N 391.696 -1.35014 -0.812953 0
M  V30 3977 C 392.629 -1.21761 -1.93001 0
M  V30 3978 C 393.607 -0.10694 -1.62248 0
M  V30 3979 O 394.791 -0.273891 -1.865 0
M  V30 3980 C 391.918 -0.873404 -3.27245 0
M  V30 3981 C 390.964 -1.99523 -3.76952 0
M  V30 3982 S 391.797 -3.61009 -3.95516 0
M  V30 3983 C 392.953 -3.28651 -5.32672 0
M  V30 3984 H 393.186 -2.16315 -2.03948 0
M  V30 3985 H 390.719 -1.20156 -0.969631 0
M  V30 3986 H 392.677 -0.68161 -4.04802 0
M  V30 3987 H 391.338 0.053971 -3.14054 0
M  V30 3988 H 390.531 -1.70838 -4.74163 0
M  V30 3989 H 390.133 -2.14503 -3.06373 0
M  V30 3990 H 392.425 -2.81085 -6.1644 0
M  V30 3991 H 393.368 -4.25039 -5.66346 0
M  V30 3992 H 393.776 -2.6458 -4.98656 0
M  V30 3993 N 393.175 1.03435 -1.18907 0
M  V30 3994 C 394.591 1.28973 -0.940111 0
M  V30 3995 C 394.791 1.97676 0.390691 0
M  V30 3996 O 393.847 2.26127 1.12352 0
M  V30 3997 C 395.16 2.14221 -2.11021 0
M  V30 3998 C 396.708 2.27547 -2.14922 0
M  V30 3999 C 397.183 3.16164 -3.31367 0
M  V30 4000 N 398.674 3.23752 -3.31269 0
M  V30 4001 C 399.409 3.92495 -4.18014 0
M  V30 4002 N 398.905 4.63515 -5.14904 0
M  V30 4003 N 400.698 3.88838 -4.05908 0
M  V30 4004 H 392.849 0.57252 -2.04538 0
M  V30 4005 H 395.112 0.315184 -0.894071 0
M  V30 4006 H 394.818 1.71054 -3.073 0
M  V30 4007 H 394.692 3.14919 -2.0762 0
M  V30 4008 H 397.079 2.69947 -1.19217 0
M  V30 4009 H 397.16 1.26418 -2.22378 0
M  V30 4010 H 396.804 2.74474 -4.27348 0
M  V30 4011 H 396.734 4.17339 -3.21148 0
M  V30 4012 H 399.225 2.73167 -2.61129 0
M  V30 4013 H 399.538 5.13583 -5.77453 0
M  V30 4014 H 397.883 4.62398 -5.18857 0
M  V30 4015 H 401.074 3.32491 -3.29495 0
M  V30 4016 H 401.247 4.4214 -4.73726 0
M  V30 4017 N 394.653 0.992116 1.22453 0
M  V30 4018 C 395.563 0.55065 2.28046 0
M  V30 4019 C 396.579 -0.400189 1.69335 0
M  V30 4020 O 397.755 -0.267215 1.99619 0
M  V30 4021 C 394.82 -0.128496 3.46462 0
M  V30 4022 C 393.881 0.865208 4.20491 0
M  V30 4023 C 393.114 0.218377 5.33253 0
M  V30 4024 O 393.337 -0.987894 5.6178 0
M  V30 4025 O 392.271 0.922845 5.94783 0
M  V30 4026 H 396.097 1.4291 2.67975 0
M  V30 4027 H 393.682 0.760326 1.28606 0
M  V30 4028 H 395.564 -0.508947 4.18315 0
M  V30 4029 H 394.239 -0.981526 3.0846 0
M  V30 4030 H 393.146 1.29658 3.50913 0
M  V30 4031 H 394.479 1.68741 4.62371 0
M  V30 4032 N 396.131 -1.37776 0.765217 0
M  V30 4033 C 397.356 -2.04651 0.336537 0
M  V30 4034 C 397.781 -1.57337 -1.03086 0
M  V30 4035 O 397.139 -0.730621 -1.65927 0
M  V30 4036 C 397.187 -3.58577 0.381468 0
M  V30 4037 O 396.291 -4.07706 -0.62042 0
M  V30 4038 H 395.632 -0.64756 0.146838 0
M  V30 4039 H 398.162 -1.76221 1.03959 0
M  V30 4040 H 398.172 -4.07314 0.236448 0
M  V30 4041 H 396.847 -3.9237 1.37907 0
M  V30 4042 H 395.424 -3.70306 -0.439056 0
M  V30 4043 N 397.609 -0.515225 -1.4894 0
M  V30 4044 C 398.849 0.0223983 -2.04388 0
M  V30 4045 C 399.213 1.32961 -1.38511 0
M  V30 4046 O 400.414 1.95236 -1.8476 0
M  V30 4047 C 398.685 0.157056 -3.57055 0
M  V30 4048 S 400.244 0.646875 -4.34006 0
M  V30 4049 H 397.062 -0.00500662 -0.710982 0
M  V30 4050 H 399.664 -0.69243 -1.82827 0
M  V30 4051 H 398.368 -0.799412 -4.02539 0
M  V30 4052 H 397.899 0.896704 -3.83044 0
M  V30 4053 H 399.914 1.91381 -4.57808 0
M  V30 4054 N 399.087 1.5561 -0.249682 0
M  V30 4055 C 400.327 2.00916 0.37579 0
M  V30 4056 C 400.691 1.13409 1.54927 0
M  V30 4057 O 401.892 1.48183 2.24266 0
M  V30 4058 C 400.163 3.48949 0.772633 0
M  V30 4059 S 401.722 4.16261 1.38824 0
M  V30 4060 H 398.54 0.70112 0.118117 0
M  V30 4061 H 401.142 1.92052 -0.365567 0
M  V30 4062 H 399.846 4.103 -0.090683 0
M  V30 4063 H 399.377 3.61745 1.5461 0
M  V30 4064 H 401.392 4.17778 2.67724 0
M  V30 4065 N 400.565 -0.0233959 1.57583 0
M  V30 4066 C 401.512 -1.02224 2.06927 0
M  V30 4067 C 402.482 -1.35575 0.959617 0
M  V30 4068 O 403.667 -1.45815 1.23055 0
M  V30 4069 C 400.807 -2.31636 2.5581 0
M  V30 4070 C 399.92 -2.04394 3.80588 0
M  V30 4071 C 399.055 -3.27717 4.18061 0
M  V30 4072 C 398.094 -2.96056 5.3574 0
M  V30 4073 N 397.231 -4.11847 5.68618 0
M  V30 4074 H 402.071 -0.594504 2.9201 0
M  V30 4075 H 399.608 -0.281921 1.44373 0
M  V30 4076 H 401.566 -3.07258 2.82221 0
M  V30 4077 H 400.196 -2.72122 1.73636 0
M  V30 4078 H 399.248 -1.19244 3.61227 0
M  V30 4079 H 400.56 -1.77042 4.66323 0
M  V30 4080 H 399.714 -4.11702 4.4563 0
M  V30 4081 H 398.453 -3.58188 3.30988 0
M  V30 4082 H 397.458 -2.10474 5.07918 0
M  V30 4083 H 398.683 -2.66857 6.24471 0
M  V30 4084 H 396.629 -4.42258 4.84504 0
M  V30 4085 H 396.546 -3.87938 6.48876 0
M  V30 4086 H 397.814 -4.96689 6.00766 0
M  V30 4087 N 402.043 -1.548 -0.295768 0
M  V30 4088 C 403.459 -1.4613 -0.641722 0
M  V30 4089 C 403.659 -0.656771 -1.90496 0
M  V30 4090 O 402.715 -0.166547 -2.5195 0
M  V30 4091 C 404.028 -2.90141 -0.789852 0
M  V30 4092 C 405.576 -3.00216 -0.885396 0
M  V30 4093 C 406.051 -4.45434 -1.06548 0
M  V30 4094 N 407.542 -4.49166 -1.13156 0
M  V30 4095 C 408.277 -5.58717 -1.28929 0
M  V30 4096 N 407.773 -6.78182 -1.41567 0
M  V30 4097 N 409.566 -5.46415 -1.31859 0
M  V30 4098 H 401.717 -2.05574 0.534147 0
M  V30 4099 H 403.98 -0.931259 0.177372 0
M  V30 4100 H 403.686 -3.51635 0.0675598 0
M  V30 4101 H 403.56 -3.37859 -1.67724 0
M  V30 4102 H 405.947 -2.38833 -1.73329 0
M  V30 4103 H 406.028 -2.55787 0.0261185 0
M  V30 4104 H 405.672 -5.07413 -0.222335 0
M  V30 4105 H 405.602 -4.87499 -1.9913 0
M  V30 4106 H 408.093 -3.631 -1.04721 0
M  V30 4107 H 408.406 -7.57428 -1.53372 0
M  V30 4108 H 406.751 -6.81037 -1.38613 0
M  V30 4109 H 409.942 -4.5203 -1.21601 0
M  V30 4110 H 410.115 -6.31841 -1.43808 0
M  V30 4111 N 403.521 0.559213 -1.47345 0
M  V30 4112 C 404.468 1.66645 -1.59682 0
M  V30 4113 C 405.438 1.60168 -0.43994 0
M  V30 4114 O 406.623 1.79031 -0.659736 0
M  V30 4115 C 403.763 3.04969 -1.61518 0
M  V30 4116 C 402.876 3.21897 -2.88108 0
M  V30 4117 C 402.011 4.50608 -2.81294 0
M  V30 4118 C 401.05 4.60961 -4.02717 0
M  V30 4119 N 400.187 5.81024 -3.94151 0
M  V30 4120 H 405.027 1.55439 -2.54249 0
M  V30 4121 H 402.564 0.757219 -1.26113 0
M  V30 4122 H 404.522 3.85064 -1.60566 0
M  V30 4123 H 403.152 3.15015 -0.704645 0
M  V30 4124 H 402.204 2.35248 -2.98936 0
M  V30 4125 H 403.516 3.25412 -3.78032 0
M  V30 4126 H 402.67 5.3896 -2.7858 0
M  V30 4127 H 401.409 4.49568 -1.89049 0
M  V30 4128 H 400.414 3.71021 -4.05738 0
M  V30 4129 H 401.639 4.63761 -4.96087 0
M  V30 4130 H 399.585 5.80938 -3.04708 0
M  V30 4131 H 399.502 5.85909 -4.77752 0
M  V30 4132 H 400.77 6.71744 -3.9545 0
M  V30 4133 N 404.999 1.35443 0.805782 0
M  V30 4134 C 405.929 1.31095 1.93226 0
M  V30 4135 C 406.91 0.185244 1.69088 0
M  V30 4136 O 408.095 0.380332 1.90439 0
M  V30 4137 C 405.225 1.08299 3.29983 0
M  V30 4138 C 404.179 2.17519 3.68605 0
M  V30 4139 C 403.505 1.79887 5.03532 0
M  V30 4140 C 404.805 3.5949 3.78898 0
M  V30 4141 H 406.499 2.25352 1.97122 0
M  V30 4142 H 404.045 1.0848 0.946996 0
M  V30 4143 H 405.998 1.03897 4.08391 0
M  V30 4144 H 404.722 0.104885 3.26432 0
M  V30 4145 H 403.381 2.2102 2.92482 0
M  V30 4146 H 403.029 0.80693 4.96485 0
M  V30 4147 H 402.729 2.53001 5.30344 0
M  V30 4148 H 404.253 1.77011 5.84379 0
M  V30 4149 H 405.667 3.58307 4.47536 0
M  V30 4150 H 404.064 4.31371 4.1718 0
M  V30 4151 H 405.134 3.95584 2.80431 0
M  V30 4152 N 406.477 -1.02803 1.19454 0
M  V30 4153 C 407.723 -1.76478 0.999171 0
M  V30 4154 C 408.056 -1.88456 -0.468828 0
M  V30 4155 O 407.331 -1.40198 -1.34814 0
M  V30 4156 C 407.614 -3.19044 1.66981 0
M  V30 4157 C 407.467 -3.14932 3.21151 0
M  V30 4158 C 408.786 -4.17456 1.39349 0
M  V30 4159 H 405.905 -0.640614 0.364393 0
M  V30 4160 H 408.547 -1.20005 1.47305 0
M  V30 4161 H 406.697 -3.67263 1.2669 0
M  V30 4162 H 408.369 -2.74605 3.70661 0
M  V30 4163 H 406.612 -2.52625 3.52652 0
M  V30 4164 H 407.283 -4.1566 3.63223 0
M  V30 4165 H 409.759 -3.77842 1.74283 0
M  V30 4166 H 408.635 -5.154 1.88823 0
M  V30 4167 H 408.896 -4.40949 0.318813 0
M  V30 4168 N 407.956 -0.998596 -1.21925 0
M  V30 4169 C 409.202 -0.678667 -1.91107 0
M  V30 4170 C 409.535 0.78791 -1.77498 0
M  V30 4171 O 408.81 1.57043 -1.1475 0
M  V30 4172 C 409.093 -1.09245 -3.43129 0
M  V30 4173 C 408.946 -2.61801 -3.6576 0
M  V30 4174 C 410.265 -0.649984 -4.35274 0
M  V30 4175 H 407.384 -0.248025 -0.694012 0
M  V30 4176 H 410.026 -1.24314 -1.43688 0
M  V30 4177 H 408.176 -0.612171 -3.83647 0
M  V30 4178 H 409.848 -3.17543 -3.34611 0
M  V30 4179 H 408.091 -3.03609 -3.09845 0
M  V30 4180 H 408.762 -2.85804 -4.7225 0
M  V30 4181 H 411.238 -1.0626 -4.02303 0
M  V30 4182 H 410.114 -0.967743 -5.40302 0
M  V30 4183 H 410.375 0.449139 -4.39813 0
M  V30 4184 N 409.434 1.37368 -0.772513 0
M  V30 4185 C 410.682 1.99279 -0.336516 0
M  V30 4186 C 411.003 1.6163 1.09091 0
M  V30 4187 O 410.273 0.882109 1.74916 0
M  V30 4188 H 408.853 0.737063 -0.121435 0
M  V30 4189 H 411.515 1.67836 -0.990809 0
M  V30 4190 H 410.611 3.09332 -0.414763 0
M  V30 4191 N 410.912 0.523116 1.48665 0
M  V30 4192 C 411.86 -0.256859 2.31177 0
M  V30 4193 C 412.854 -0.94199 1.40794 0
M  V30 4194 O 414.06 -0.867157 1.57735 0
M  V30 4195 H 410.435 -0.1017 0.745091 0
M  V30 4196 H 412.406 0.458739 2.94853 0
M  V30 4197 C 411.155 -1.29503 3.22683 0
M  V30 4198 H 410.478 -0.777248 3.92172 0
M  V30 4199 H 411.918 -1.81233 3.83315 0
M  V30 4200 C 410.377 -2.32501 2.43813 0
M  V30 4201 O 410.907 -3.3881 2.15803 0
M  V30 4202 N 409.113 -2.05538 2.05432 0
M  V30 4203 H 408.66 -1.19104 2.28412 0
M  V30 4204 H 408.618 -2.74676 1.52973 0
M  V30 4205 N 412.39 -1.55475 0.257931 0
M  V30 4206 C 413.638 -1.98813 -0.363009 0
M  V30 4207 C 413.959 -1.14757 -1.57657 0
M  V30 4208 O 413.229 -0.232956 -1.9451 0
M  V30 4209 H 411.809 -0.734308 -0.137113 0
M  V30 4210 H 414.471 -1.9156 0.359281 0
M  V30 4211 H 413.567 -3.04941 -0.664634 0
M  V30 4212 N 413.868 0.0150385 -1.57593 0
M  V30 4213 C 415.279 0.559832 -1.78109 0
M  V30 4214 C 415.63 1.74814 -0.890756 0
M  V30 4215 O 414.755 2.16216 -0.0892482 0
M  V30 4216 C 415.35 1.02238 -3.23006 0
M  V30 4217 C 413.909 1.51258 -3.44671 0
M  V30 4218 C 413.056 0.456955 -2.73509 0
M  V30 4219 H 416.007 -0.211169 -1.57289 0
M  V30 4220 H 416.028 1.88912 -3.30292 0
M  V30 4221 H 415.54 0.157302 -3.87781 0
M  V30 4222 H 413.641 2.39905 -2.8509 0
M  V30 4223 H 413.754 1.55042 -4.5332 0
M  V30 4224 H 412.118 0.915196 -2.37689 0
M  V30 4225 H 412.901 -0.398896 -3.40975 0
M  V30 4226 N 415.346 1.54954 0.287554 0
M  V30 4227 C 416.256 1.8991 1.37736 0
M  V30 4228 C 417.272 0.794701 1.54792 0
M  V30 4229 O 418.448 1.09243 1.69198 0
M  V30 4230 C 415.513 2.15108 2.71899 0
M  V30 4231 C 414.574 3.38752 2.63715 0
M  V30 4232 C 413.807 3.62739 3.91479 0
M  V30 4233 O 414.03 2.89492 4.91478 0
M  V30 4234 O 412.964 4.56267 3.92561 0
M  V30 4235 H 416.79 2.82652 1.11092 0
M  V30 4236 H 414.375 1.41315 0.484807 0
M  V30 4237 H 416.257 2.32806 3.51254 0
M  V30 4238 H 414.932 1.25551 2.9836 0
M  V30 4239 H 413.839 3.26405 1.82786 0
M  V30 4240 H 415.172 4.28483 2.42205 0
M  V30 4241 N 416.824 -0.551391 1.4764 0
M  V30 4242 C 418.072 -1.30572 1.54258 0
M  V30 4243 C 418.393 -1.93877 0.208963 0
M  V30 4244 O 417.663 -1.80234 -0.767619 0
M  V30 4245 H 416.243 -0.484894 0.568231 0
M  V30 4246 H 418.905 -0.643402 1.83974 0
M  V30 4247 H 418.001 -2.09621 2.31226 0
M  V30 4248 N 418.302 -1.35869 -0.798587 0
M  V30 4249 C 419.713 -1.26498 -1.37314 0
M  V30 4250 C 420.064 0.0991899 -1.95949 0
M  V30 4251 O 419.189 1.0004 -1.91888 0
M  V30 4252 C 419.784 -2.29054 -2.49639 0
M  V30 4253 C 418.343 -2.234 -3.02935 0
M  V30 4254 C 417.49 -2.14329 -1.75949 0
M  V30 4255 H 420.441 -1.46881 -0.600971 0
M  V30 4256 H 420.462 -1.92166 -3.28409 0
M  V30 4257 H 419.974 -3.2833 -2.06933 0
M  V30 4258 H 418.075 -1.27562 -3.50084 0
M  V30 4259 H 418.188 -3.15703 -3.60372 0
M  V30 4260 H 416.552 -1.60435 -1.9782 0
M  V30 4261 H 417.335 -3.15477 -1.35384 0
M  V30 4262 N 419.78 1.02168 -1.19998 0
M  V30 4263 C 421.028 1.75338 -1.00504 0
M  V30 4264 C 421.349 1.89387 0.464506 0
M  V30 4265 O 420.619 1.43268 1.33608 0
M  V30 4266 H 419.199 0.649564 -0.368885 0
M  V30 4267 H 421.861 1.23205 -1.51018 0
M  V30 4268 H 420.957 2.75892 -1.45912 0
M  V30 4269 N 421.258 1.00505 1.21394 0
M  V30 4270 C 422.188 0.585684 2.26035 0
M  V30 4271 C 423.169 -0.393525 1.65485 0
M  V30 4272 O 424.354 -0.281497 1.92149 0
M  V30 4273 C 421.484 -0.0884283 3.47187 0
M  V30 4274 C 420.438 0.810567 4.20254 0
M  V30 4275 C 419.764 0.00286382 5.347 0
M  V30 4276 C 421.064 2.1132 4.77641 0
M  V30 4277 H 422.758 1.46039 2.61368 0
M  V30 4278 H 420.304 0.703648 1.25638 0
M  V30 4279 H 422.257 -0.393286 4.19561 0
M  V30 4280 H 420.981 -0.997766 3.10986 0
M  V30 4281 H 419.64 1.09925 3.49731 0
M  V30 4282 H 419.288 -0.907765 4.94741 0
M  V30 4283 H 418.988 0.601444 5.84514 0
M  V30 4284 H 420.512 -0.295808 6.09883 0
M  V30 4285 H 421.926 1.87148 5.41893 0
M  V30 4286 H 420.323 2.66164 5.37845 0
M  V30 4287 H 421.393 2.78393 3.9702 0
M  V30 4288 N 422.737 -1.36956 0.779787 0
M  V30 4289 C 423.962 -2.04283 0.358224 0
M  V30 4290 C 424.387 -1.58422 -1.01411 0
M  V30 4291 O 423.745 -0.748179 -1.65142 0
M  V30 4292 C 423.793 -3.58152 0.419479 0
M  V30 4293 O 422.897 -4.08342 -0.577142 0
M  V30 4294 H 422.238 -0.645967 0.153698 0
M  V30 4295 H 424.768 -1.75108 1.05822 0
M  V30 4296 H 424.778 -4.07041 0.279636 0
M  V30 4297 H 423.453 -3.90886 1.42061 0
M  V30 4298 H 422.03 -3.70751 -0.399755 0
M  V30 4299 N 424.215 -0.530993 -1.48385 0
M  V30 4300 C 425.44 0.000729535 -2.074 0
M  V30 4301 C 425.865 1.27298 -1.3848 0
M  V30 4302 O 425.223 1.75599 -0.451081 0
M  V30 4303 C 425.271 0.206697 -3.60007 0
M  V30 4304 O 424.375 1.27514 -3.92191 0
M  V30 4305 H 423.716 -0.039583 -0.662819 0
M  V30 4306 H 426.246 -0.739194 -1.9078 0
M  V30 4307 H 426.256 0.42904 -4.05738 0
M  V30 4308 H 424.931 -0.722675 -4.09573 0
M  V30 4309 H 423.508 1.03537 -3.58238 0
M  V30 4310 N 425.693 1.55336 -0.266172 0
M  V30 4311 C 426.921 2.03801 0.356756 0
M  V30 4312 C 427.336 1.14485 1.50129 0
M  V30 4313 O 426.693 0.163121 1.8177 0
M  V30 4314 C 426.744 3.51455 0.846281 0
M  V30 4315 O 426.465 4.37371 -0.252663 0
M  V30 4316 C 427.966 4.15767 1.53794 0
M  V30 4317 H 425.186 0.665906 0.0825218 0
M  V30 4318 H 427.73 2.00636 -0.39566 0
M  V30 4319 H 425.885 3.55092 1.54881 0
M  V30 4320 H 426.299 5.24358 0.122173 0
M  V30 4321 H 427.773 5.20714 1.83198 0
M  V30 4322 H 428.25 3.63404 2.46646 0
M  V30 4323 H 428.856 4.16107 0.879488 0
M  V30 4324 N 427.171 -0.0066808 1.57599 0
M  V30 4325 C 428.419 -0.691552 1.899 0
M  V30 4326 C 428.74 -1.74682 0.866672 0
M  V30 4327 O 428.01 -1.95661 -0.0968189 0
M  V30 4328 H 426.59 -0.258416 0.700878 0
M  V30 4329 H 429.252 0.0326655 1.94873 0
M  V30 4330 H 428.348 -1.16702 2.8946 0
M  V30 4331 N 428.649 -1.55105 -0.279332 0
M  V30 4332 C 429.596 -1.8755 -1.34513 0
M  V30 4333 C 430.566 -0.726384 -1.49375 0
M  V30 4334 O 431.751 -0.977063 -1.63884 0
M  V30 4335 C 428.891 -2.14738 -2.70151 0
M  V30 4336 C 428.004 -3.42285 -2.63562 0
M  V30 4337 C 427.139 -3.59206 -3.91337 0
M  V30 4338 C 426.178 -4.80467 -3.79233 0
M  V30 4339 N 425.315 -4.94079 -4.98829 0
M  V30 4340 H 430.155 -2.78456 -1.06143 0
M  V30 4341 H 427.692 -1.37867 -0.512936 0
M  V30 4342 H 429.65 -2.28501 -3.49061 0
M  V30 4343 H 428.28 -1.27075 -2.96735 0
M  V30 4344 H 427.332 -3.37029 -1.76397 0
M  V30 4345 H 428.644 -4.31328 -2.50515 0
M  V30 4346 H 427.798 -3.72751 -4.78687 0
M  V30 4347 H 426.537 -2.68337 -4.07243 0
M  V30 4348 H 425.542 -4.66932 -2.90266 0
M  V30 4349 H 426.767 -5.72765 -3.64852 0
M  V30 4350 H 424.713 -4.06139 -5.15158 0
M  V30 4351 H 424.63 -5.77156 -4.8829 0
M  V30 4352 H 425.898 -5.12003 -5.8777 0
M  V30 4353 N 430.127 0.543554 -1.4793 0
M  V30 4354 C 431.543 0.870806 -1.3375 0
M  V30 4355 C 431.743 1.9864 -0.338261 0
M  V30 4356 O 430.799 2.51305 0.245371 0
M  V30 4357 C 432.112 1.25114 -2.73435 0
M  V30 4358 C 433.66 1.3618 -2.81823 0
M  V30 4359 C 434.135 1.77563 -4.22179 0
M  V30 4360 N 435.626 1.8469 -4.24787 0
M  V30 4361 C 436.361 2.18067 -5.30315 0
M  V30 4362 N 435.857 2.49963 -6.46135 0
M  V30 4363 N 437.65 2.18958 -5.17701 0
M  V30 4364 H 429.801 -0.19275 -2.11524 0
M  V30 4365 H 432.064 -0.0235777 -0.947707 0
M  V30 4366 H 431.77 0.50514 -3.48053 0
M  V30 4367 H 431.644 2.20431 -3.06088 0
M  V30 4368 H 434.031 2.09859 -2.07468 0
M  V30 4369 H 434.112 0.390169 -2.52807 0
M  V30 4370 H 433.756 1.04449 -4.97044 0
M  V30 4371 H 433.686 2.75753 -4.48629 0
M  V30 4372 H 436.177 1.62372 -3.41239 0
M  V30 4373 H 436.49 2.74497 -7.22406 0
M  V30 4374 H 434.835 2.47513 -6.49432 0
M  V30 4375 H 438.026 1.93488 -4.2624 0
M  V30 4376 H 438.199 2.44639 -6.00047 0
M  V30 4377 N 431.605 1.3629 0.791371 0
M  V30 4378 C 433.021 1.16661 1.08914 0
M  V30 4379 C 433.221 -0.0106266 2.01497 0
M  V30 4380 O 432.277 -0.676596 2.43266 0
M  V30 4381 C 433.59 2.47656 1.70549 0
M  V30 4382 C 435.138 2.54002 1.82899 0
M  V30 4383 C 435.613 3.85078 2.47949 0
M  V30 4384 N 437.104 3.86413 2.5542 0
M  V30 4385 C 437.839 4.84572 3.06557 0
M  V30 4386 N 437.335 5.93124 3.58016 0
M  V30 4387 N 439.128 4.71994 3.05251 0
M  V30 4388 H 431.279 2.11668 0.176238 0
M  V30 4389 H 433.542 0.937486 0.140796 0
M  V30 4390 H 433.248 3.34059 1.09989 0
M  V30 4391 H 433.122 2.63319 2.70079 0
M  V30 4392 H 435.509 1.68018 2.42598 0
M  V30 4393 H 435.59 2.42239 0.821808 0
M  V30 4394 H 435.234 4.71467 1.88895 0
M  V30 4395 H 435.164 3.94135 3.49235 0
M  V30 4396 H 437.655 3.07988 2.18979 0
M  V30 4397 H 437.968 6.63999 3.95381 0
M  V30 4398 H 436.313 5.96796 3.56173 0
M  V30 4399 H 439.504 3.86321 2.64336 0
M  V30 4400 H 439.677 5.48653 3.44796 0
M  V30 4401 N 433.083 -1.0153 1.20538 0
M  V30 4402 C 434.046 -2.0826 0.957098 0
M  V30 4403 C 435.046 -1.60657 -0.0678655 0
M  V30 4404 O 436.236 -1.73385 0.168332 0
M  V30 4405 C 433.368 -3.38033 0.441188 0
M  V30 4406 H 434.561 -2.31719 1.90384 0
M  V30 4407 H 432.114 -1.1835 1.02093 0
M  V30 4408 H 432.849 -3.20249 -0.510961 0
M  V30 4409 H 432.634 -3.73911 1.18038 0
M  V30 4410 H 434.124 -4.16613 0.287009 0
M  V30 4411 N 434.561 -1.01147 -1.20859 0
M  V30 4412 C 435.789 -0.716911 -1.94082 0
M  V30 4413 C 436.204 0.721568 -1.74467 0
M  V30 4414 O 435.561 1.48889 -1.05539 0
M  V30 4415 C 435.612 -1.03662 -3.46318 0
M  V30 4416 O 435.333 -2.4186 -3.65288 0
M  V30 4417 C 436.834 -0.762386 -4.36695 0
M  V30 4418 H 434.054 -0.26367 -0.617024 0
M  V30 4419 H 436.598 -1.35127 -1.53496 0
M  V30 4420 H 434.753 -0.447757 -3.84804 0
M  V30 4421 H 435.167 -2.53224 -4.59323 0
M  V30 4422 H 436.641 -1.03621 -5.42187 0
M  V30 4423 H 437.118 0.303514 -4.3815 0
M  V30 4424 H 437.724 -1.33316 -4.03865 0
M  V30 4425 N 436.039 1.36541 -0.78704 0
M  V30 4426 C 437.287 1.98911 -0.357633 0
M  V30 4427 C 437.608 1.62778 1.07371 0
M  V30 4428 O 436.878 0.900612 1.73971 0
M  V30 4429 H 435.458 0.735734 -0.129246 0
M  V30 4430 H 438.12 1.66776 -1.00855 0
M  V30 4431 H 437.216 3.08874 -0.447549 0
M  V30 4432 N 437.518 0.538854 1.48102 0
M  V30 4433 C 438.45 -0.256278 2.27763 0
M  V30 4434 C 439.463 -0.89633 1.35904 0
M  V30 4435 O 440.652 -0.773275 1.60881 0
M  V30 4436 C 437.752 -1.37896 3.09577 0
M  V30 4437 C 436.925 -0.839159 4.29275 0
M  V30 4438 C 435.984 -1.84405 4.9283 0
M  V30 4439 O 435.01 -1.39746 5.51779 0
M  V30 4440 N 436.212 -3.17666 4.85869 0
M  V30 4441 H 438.977 0.426968 2.96643 0
M  V30 4442 H 436.538 0.373747 1.57527 0
M  V30 4443 H 438.53 -2.04955 3.48963 0
M  V30 4444 H 437.1 -1.96572 2.4306 0
M  V30 4445 H 436.32 0.00769287 3.94199 0
M  V30 4446 H 437.608 -0.457548 5.06739 0
M  V30 4447 H 437.006 -3.56609 4.39143 0
M  V30 4448 H 435.563 -3.80334 5.29329 0
M  V30 4449 N 438.996 -1.55193 0.274407 0
M  V30 4450 C 440.273 -1.91584 -0.394331 0
M  V30 4451 C 440.653 -1.19858 -1.73774 0
M  V30 4452 O 440.001 -0.3252 -2.26174 0
M  V30 4453 C 440.211 -3.4487 -0.535311 0
M  V30 4454 C 441.559 -4.16636 -0.818534 0
M  V30 4455 O 442.583 -3.5076 -0.620146 0
M  V30 4456 O 441.442 -5.33209 -1.19792 0
M  V30 4457 H 438.536 -0.798349 -0.215794 0
M  V30 4458 H 441.082 -1.66646 0.320507 0
M  V30 4459 H 439.854 -3.89145 0.410141 0
M  V30 4460 H 439.477 -3.75759 -1.29964 0
M  V30 4461 N 440.474 -0.00167713 -1.576 0
M  V30 4462 C 441.699 0.69739 -1.95323 0
M  V30 4463 C 442.124 1.6642 -0.876706 0
M  V30 4464 O 441.482 1.80548 0.165007 0
M  V30 4465 C 441.53 1.40403 -3.32144 0
M  V30 4466 O 440.634 2.5185 -3.26566 0
M  V30 4467 H 439.975 0.185373 -0.637599 0
M  V30 4468 H 442.505 -0.0553665 -2.04525 0
M  V30 4469 H 442.515 1.76707 -3.67748 0
M  V30 4470 H 441.19 0.695167 -4.10049 0
M  V30 4471 H 439.767 2.17861 -3.0264 0
M  V30 4472 N 441.952 1.55251 0.271103 0
M  V30 4473 C 443.192 1.77698 1.01008 0
M  V30 4474 C 443.556 0.567246 1.83429 0
M  V30 4475 O 444.757 0.670013 2.60316 0
M  V30 4476 C 443.028 3.04715 1.86772 0
M  V30 4477 S 444.587 3.48289 2.66909 0
M  V30 4478 H 441.405 0.624343 0.340172 0
M  V30 4479 H 444.007 1.9348 0.280315 0
M  V30 4480 H 442.711 3.90853 1.25149 0
M  V30 4481 H 442.242 2.91604 2.64066 0
M  V30 4482 H 444.257 3.07712 3.89266 0
M  V30 4483 N 443.43 -0.535701 1.48216 0
M  V30 4484 C 444.362 -1.65662 1.58394 0
M  V30 4485 C 445.375 -1.5591 0.468607 0
M  V30 4486 O 446.564 -1.62475 0.7392 0
M  V30 4487 C 443.664 -3.04276 1.4923 0
M  V30 4488 C 442.837 -3.39567 2.75705 0
M  V30 4489 C 441.896 -4.57436 2.60075 0
M  V30 4490 O 440.922 -4.60942 3.33948 0
M  V30 4491 N 442.124 -5.55259 1.69315 0
M  V30 4492 H 444.889 -1.5737 2.55058 0
M  V30 4493 H 442.45 -0.722845 1.44867 0
M  V30 4494 H 444.442 -3.80994 1.36477 0
M  V30 4495 H 443.012 -3.06677 0.605632 0
M  V30 4496 H 442.232 -2.52083 3.03064 0
M  V30 4497 H 443.52 -3.59929 3.59623 0
M  V30 4498 H 442.918 -5.552 1.08489 0
M  V30 4499 H 441.475 -6.31218 1.62504 0
M  V30 4500 N 444.908 -1.36708 -0.784132 0
M  V30 4501 C 445.818 -1.3363 -1.92822 0
M  V30 4502 C 446.834 -0.237686 -1.72369 0
M  V30 4503 O 448.01 -0.470962 -1.95816 0
M  V30 4504 C 445.075 -1.13011 -3.27764 0
M  V30 4505 C 444.136 -2.32397 -3.60957 0
M  V30 4506 C 443.369 -2.12752 -4.89461 0
M  V30 4507 O 443.592 -1.10541 -5.59586 0
M  V30 4508 O 442.526 -3.00653 -5.21432 0
M  V30 4509 H 446.352 -2.29964 -1.98369 0
M  V30 4510 H 443.937 -1.1731 -0.925136 0
M  V30 4511 H 445.819 -1.03451 -4.08504 0
M  V30 4512 H 444.494 -0.19743 -3.23097 0
M  V30 4513 H 443.401 -2.47527 -2.80502 0
M  V30 4514 H 444.734 -3.2419 -3.70354 0
M  V30 4515 N 446.386 1.0089 -1.21074 0
M  V30 4516 C 447.802 1.2695 -0.967257 0
M  V30 4517 C 448.002 1.9846 0.348673 0
M  V30 4518 O 447.058 2.28459 1.0753 0
M  V30 4519 C 448.371 2.09697 -2.15517 0
M  V30 4520 C 449.919 2.22937 -2.197 0
M  V30 4521 C 450.394 3.09064 -3.37999 0
M  V30 4522 N 451.885 3.16653 -3.38061 0
M  V30 4523 C 452.62 3.8354 -4.26245 0
M  V30 4524 N 452.116 4.52488 -5.2462 0
M  V30 4525 N 453.909 3.80141 -4.14064 0
M  V30 4526 H 446.06 0.529005 -2.05707 0
M  V30 4527 H 448.323 0.296148 -0.900556 0
M  V30 4528 H 448.029 1.64497 -3.10859 0
M  V30 4529 H 447.903 3.10444 -2.14253 0
M  V30 4530 H 450.29 2.67357 -1.24916 0
M  V30 4531 H 450.371 1.21673 -2.2501 0
M  V30 4532 H 450.015 2.65347 -4.33074 0
M  V30 4533 H 449.945 4.10433 -3.29928 0
M  V30 4534 H 452.436 2.67566 -2.66865 0
M  V30 4535 H 452.749 5.01219 -5.88217 0
M  V30 4536 H 451.094 4.51288 -5.28549 0
M  V30 4537 H 454.285 3.25427 -3.36474 0
M  V30 4538 H 454.458 4.31992 -4.82998 0
M  V30 4539 N 447.864 1.01787 1.20321 0
M  V30 4540 C 449.112 0.706538 1.89347 0
M  V30 4541 C 449.433 -0.766289 1.79313 0
M  V30 4542 O 448.703 -1.55126 1.19635 0
M  V30 4543 H 447.283 0.258348 0.700903 0
M  V30 4544 H 449.945 1.28974 1.46122 0
M  V30 4545 H 449.041 0.991066 2.95946 0
M  V30 4546 N 449.342 -1.36122 0.79427 0
M  V30 4547 C 450.272 -2.32551 0.210328 0
M  V30 4548 C 451.253 -1.56884 -0.657386 0
M  V30 4549 O 452.438 -1.85014 -0.590207 0
M  V30 4550 C 449.568 -3.41128 -0.651819 0
M  V30 4551 C 448.522 -4.27842 0.116395 0
M  V30 4552 C 447.848 -5.2763 -0.86666 0
M  V30 4553 C 449.148 -5.05647 1.30837 0
M  V30 4554 H 450.842 -2.81636 1.01594 0
M  V30 4555 H 448.388 -1.35407 0.489981 0
M  V30 4556 H 450.341 -4.07581 -1.07031 0
M  V30 4557 H 449.065 -2.90622 -1.49019 0
M  V30 4558 H 447.724 -3.62952 0.515915 0
M  V30 4559 H 447.372 -4.73395 -1.70019 0
M  V30 4560 H 447.072 -5.86514 -0.35705 0
M  V30 4561 H 448.596 -5.96955 -1.28361 0
M  V30 4562 H 450.01 -5.65113 0.965393 0
M  V30 4563 H 448.407 -5.73967 1.75161 0
M  V30 4564 H 449.477 -4.37006 2.10128 0
M  V30 4565 N 450.82 -0.546701 -1.47814 0
M  V30 4566 C 451.752 0.244196 -2.27895 0
M  V30 4567 C 452.765 0.88911 -1.36377 0
M  V30 4568 O 453.954 0.764733 -1.61289 0
M  V30 4569 C 451.054 1.36252 -3.10304 0
M  V30 4570 C 450.227 0.816382 -4.29714 0
M  V30 4571 C 449.286 1.81789 -4.93801 0
M  V30 4572 O 448.312 1.36818 -5.52512 0
M  V30 4573 N 449.514 3.15085 -4.87547 0
M  V30 4574 H 452.279 -0.442694 -2.96412 0
M  V30 4575 H 449.84 -0.382095 -1.57327 0
M  V30 4576 H 451.832 2.03102 -3.50045 0
M  V30 4577 H 450.402 1.95281 -2.44099 0
M  V30 4578 H 449.622 -0.0285981 -3.9419 0
M  V30 4579 H 450.91 0.430668 -5.06974 0
M  V30 4580 H 450.308 3.54275 -4.41028 0
M  V30 4581 H 448.865 3.77522 -5.31339 0
M  V30 4582 N 452.299 1.55045 -0.282633 0
M  V30 4583 C 453.209 2.26491 0.61147 0
M  V30 4584 C 454.225 1.29348 1.16384 0
M  V30 4585 O 455.401 1.62298 1.19253 0
M  V30 4586 C 452.466 2.97779 1.77563 0
M  V30 4587 C 451.527 4.10418 1.25919 0
M  V30 4588 C 450.76 4.78297 2.36786 0
M  V30 4589 O 450.983 4.45426 3.56303 0
M  V30 4590 O 449.917 5.66089 2.04517 0
M  V30 4591 H 453.743 3.03683 0.0324615 0
M  V30 4592 H 451.328 1.49317 -0.0497576 0
M  V30 4593 H 453.21 3.42554 2.45427 0
M  V30 4594 H 451.885 2.23498 2.34159 0
M  V30 4595 H 450.792 3.70082 0.546797 0
M  V30 4596 H 452.125 4.86622 0.738887 0
M  V30 4597 N 453.777 0.010035 1.57597 0
M  V30 4598 C 454.74 -0.963029 2.07986 0
M  V30 4599 C 455.74 -1.26619 0.991173 0
M  V30 4600 O 456.93 -1.2097 1.25347 0
M  V30 4601 C 454.062 -2.2851 2.52974 0
M  V30 4602 H 455.255 -0.526971 2.95234 0
M  V30 4603 H 452.808 -0.237639 1.54483 0
M  V30 4604 H 453.543 -2.76784 1.69 0
M  V30 4605 H 453.328 -2.07824 3.32493 0
M  V30 4606 H 454.818 -2.98294 2.9225 0
M  V30 4607 N 455.255 -1.55392 -0.262866 0
M  V30 4608 C 456.501 -1.76737 -0.99458 0
M  V30 4609 C 456.834 -0.572453 -1.85571 0
M  V30 4610 O 456.109 0.429732 -1.89693 0
M  V30 4611 C 456.392 -3.07824 -1.8686 0
M  V30 4612 C 456.245 -4.3769 -1.03672 0
M  V30 4613 C 457.564 -3.35021 -2.85393 0
M  V30 4614 H 454.683 -0.643005 -0.360157 0
M  V30 4615 H 457.325 -1.88126 -0.266216 0
M  V30 4616 H 455.475 -2.98245 -2.48962 0
M  V30 4617 H 457.147 -4.59238 -0.43563 0
M  V30 4618 H 455.39 -4.32461 -0.340513 0
M  V30 4619 H 456.061 -5.25759 -1.6817 0
M  V30 4620 H 458.537 -3.44458 -2.33426 0
M  V30 4621 H 457.413 -4.27989 -3.43681 0
M  V30 4622 H 457.674 -2.55153 -3.61039 0
M  V30 4623 N 456.733 0.527833 -1.48498 0
M  V30 4624 C 458.149 0.856571 -1.34666 0
M  V30 4625 C 458.349 1.98271 -0.35931 0
M  V30 4626 O 457.405 2.51551 0.218703 0
M  V30 4627 C 458.718 1.22207 -2.74747 0
M  V30 4628 C 460.266 1.33183 -2.83251 0
M  V30 4629 C 460.741 1.73075 -4.24039 0
M  V30 4630 N 462.232 1.80174 -4.26722 0
M  V30 4631 C 462.967 2.1243 -5.32598 0
M  V30 4632 N 462.463 2.43096 -6.4875 0
M  V30 4633 N 464.256 2.13454 -5.19994 0
M  V30 4634 H 456.407 -0.215174 -2.11307 0
M  V30 4635 H 458.67 -0.0336281 -0.947403 0
M  V30 4636 H 458.376 0.468195 -3.4857 0
M  V30 4637 H 458.25 2.17173 -3.08409 0
M  V30 4638 H 460.637 2.07647 -2.09683 0
M  V30 4639 H 460.718 0.363333 -2.53206 0
M  V30 4640 H 460.362 0.991712 -4.98124 0
M  V30 4641 H 460.292 2.70979 -4.51529 0
M  V30 4642 H 462.783 1.58744 -3.42942 0
M  V30 4643 H 463.096 2.6682 -7.25277 0
M  V30 4644 H 461.441 2.40611 -6.52021 0
M  V30 4645 H 464.632 1.88956 -4.28268 0
M  V30 4646 H 464.805 2.38261 -6.02608 0
M  V30 4647 N 458.211 1.37122 0.776871 0
M  V30 4648 C 459.627 1.1781 1.07671 0
M  V30 4649 C 459.827 0.0107454 2.01497 0
M  V30 4650 O 458.883 -0.650756 2.4397 0
M  V30 4651 C 460.196 2.49451 1.67913 0
M  V30 4652 C 461.744 2.55927 1.80195 0
M  V30 4653 C 462.219 3.87686 2.43851 0
M  V30 4654 N 463.71 3.891 2.51307 0
M  V30 4655 C 464.445 4.87797 3.014 0
M  V30 4656 N 463.941 5.96888 3.51705 0
M  V30 4657 N 465.734 4.75205 3.00227 0
M  V30 4658 H 457.885 2.11843 0.153778 0
M  V30 4659 H 460.148 0.938927 0.130844 0
M  V30 4660 H 459.854 3.35207 1.06439 0
M  V30 4661 H 459.728 2.66169 2.67271 0
M  V30 4662 H 462.115 1.70582 2.40803 0
M  V30 4663 H 462.196 2.43097 0.796069 0
M  V30 4664 H 461.84 4.73444 1.83884 0
M  V30 4665 H 461.77 3.97817 3.45035 0
M  V30 4666 H 464.261 3.10293 2.157 0
M  V30 4667 H 464.574 6.68155 3.88316 0
M  V30 4668 H 462.919 6.0054 3.49824 0
M  V30 4669 H 466.11 3.89103 2.60224 0
M  V30 4670 H 466.283 5.52279 3.38957 0
M  V30 4671 N 459.689 -1.00246 1.21608 0
M  V30 4672 C 460.599 -2.12515 0.993709 0
M  V30 4673 C 461.615 -1.73913 -0.0549939 0
M  V30 4674 O 462.791 -2.00943 0.135619 0
M  V30 4675 C 459.856 -3.42083 0.563953 0
M  V30 4676 C 458.917 -3.94843 1.68516 0
M  V30 4677 C 458.15 -5.18226 1.27582 0
M  V30 4678 O 458.373 -5.70201 0.150506 0
M  V30 4679 O 457.307 -5.64497 2.0887 0
M  V30 4680 H 461.133 -2.34152 1.93407 0
M  V30 4681 H 458.718 -1.10891 1.00118 0
M  V30 4682 H 460.6 -4.20073 0.334194 0
M  V30 4683 H 459.275 -3.21828 -0.347665 0
M  V30 4684 H 458.182 -3.18068 1.96935 0
M  V30 4685 H 459.515 -4.19512 2.5743 0
M  V30 4686 N 461.167 -1.02423 -1.1978 0
M  V30 4687 C 462.117 -0.571689 -2.20716 0
M  V30 4688 C 463.101 0.377077 -1.56419 0
M  V30 4689 O 464.293 0.198801 -1.7588 0
M  V30 4690 C 461.422 0.0808555 -3.43205 0
M  V30 4691 C 460.508 -0.890073 -4.14655 0
M  V30 4692 N 460.899 -2.05065 -4.62366 0
M  V30 4693 C 459.197 -0.71252 -4.40272 0
M  V30 4694 C 459.898 -2.66264 -5.17183 0
M  V30 4695 N 458.874 -1.94264 -5.07703 0
M  V30 4696 H 462.676 -1.45636 -2.55279 0
M  V30 4697 H 460.19 -0.890596 -1.35802 0
M  V30 4698 H 462.187 0.422654 -4.14752 0
M  V30 4699 H 460.847 0.961274 -3.10144 0
M  V30 4700 H 461.858 -2.43026 -4.57339 0
M  V30 4701 H 458.535 0.119199 -4.1733 0
M  V30 4702 H 459.925 -3.64526 -5.64421 0
M  V30 4703 N 462.645 1.35699 -0.801477 0
M  V30 4704 C 463.577 2.28598 -0.166028 0
M  V30 4705 C 464.59 1.50044 0.631721 0
M  V30 4706 O 465.779 1.72339 0.464921 0
M  V30 4707 C 462.879 3.29625 0.787451 0
M  V30 4708 C 462.052 4.37384 0.037171 0
M  V30 4709 C 461.111 5.183 0.908375 0
M  V30 4710 O 460.137 5.68053 0.361189 0
M  V30 4711 N 461.339 5.35912 2.23112 0
M  V30 4712 H 464.104 2.83771 -0.964071 0
M  V30 4713 H 461.665 1.47994 -0.656469 0
M  V30 4714 H 463.657 3.80648 1.37439 0
M  V30 4715 H 462.227 2.75004 1.48632 0
M  V30 4716 H 461.447 3.87364 -0.730935 0
M  V30 4717 H 462.735 5.0653 -0.480109 0
M  V30 4718 H 462.133 4.97125 2.69968 0
M  V30 4719 H 460.69 5.90133 2.76741 0
M  V30 4720 N 464.123 0.554532 1.47522 0
M  V30 4721 C 465.033 -0.197865 2.33764 0
M  V30 4722 C 466.049 -0.914576 1.48025 0
M  V30 4723 O 467.225 -0.884067 1.80959 0
M  V30 4724 C 464.29 -1.21628 3.24665 0
M  V30 4725 C 463.351 -0.507283 4.26292 0
M  V30 4726 C 462.584 -1.47718 5.1285 0
M  V30 4727 O 462.807 -2.7118 5.01814 0
M  V30 4728 O 461.741 -1.00313 5.93482 0
M  V30 4729 H 465.567 0.50949 2.99396 0
M  V30 4730 H 463.152 0.315176 1.46038 0
M  V30 4731 H 465.034 -1.80421 3.80823 0
M  V30 4732 H 463.709 -1.9056 2.61665 0
M  V30 4733 H 462.616 0.121778 3.73902 0
M  V30 4734 H 463.949 0.140544 4.91999 0
M  V30 4735 N 465.601 -1.54893 0.290851 0
M  V30 4736 C 466.564 -2.21824 -0.576784 0
M  V30 4737 C 467.564 -1.20104 -1.06919 0
M  V30 4738 O 468.754 -1.44906 -0.966843 0
M  V30 4739 C 465.886 -2.89662 -1.79747 0
M  V30 4740 H 467.079 -2.99899 0.00784051 0
M  V30 4741 H 464.632 -1.56245 0.0415934 0
M  V30 4742 H 465.367 -2.15639 -2.42219 0
M  V30 4743 H 465.152 -3.64219 -1.45214 0
M  V30 4744 H 466.642 -3.4075 -2.4141 0
M  V30 4745 N 467.08 -0.0183926 -1.57589 0
M  V30 4746 C 468.305 0.676634 -1.96052 0
M  V30 4747 C 468.73 1.6548 -0.894307 0
M  V30 4748 O 468.088 1.80712 0.145849 0
M  V30 4749 C 468.136 1.36872 -3.33614 0
M  V30 4750 O 467.24 2.48372 -3.29219 0
M  V30 4751 H 466.581 0.1786 -0.63953 0
M  V30 4752 H 469.111 -0.077056 -2.04455 0
M  V30 4753 H 469.121 1.72797 -3.69601 0
M  V30 4754 H 467.796 0.651636 -4.10763 0
M  V30 4755 H 466.373 2.14639 -3.04934 0
M  V30 4756 N 468.558 1.5553 0.254621 0
M  V30 4757 C 469.804 1.77262 0.985193 0
M  V30 4758 C 470.137 0.582286 1.85265 0
M  V30 4759 O 469.412 -0.419666 1.89919 0
M  V30 4760 C 469.695 3.0881 1.85225 0
M  V30 4761 C 469.548 4.38233 1.0135 0
M  V30 4762 C 470.867 3.3653 2.83612 0
M  V30 4763 H 467.986 0.644906 0.356742 0
M  V30 4764 H 470.628 1.88264 0.256236 0
M  V30 4765 H 468.778 2.99562 2.47376 0
M  V30 4766 H 470.45 4.59463 0.411269 0
M  V30 4767 H 468.693 4.32636 0.317574 0
M  V30 4768 H 469.364 5.26644 1.65379 0
M  V30 4769 H 471.84 3.45691 2.31596 0
M  V30 4770 H 470.716 4.29805 3.41407 0
M  V30 4771 H 470.977 2.57064 3.59681 0
M  V30 4772 N 470.036 -0.519951 1.48776 0
M  V30 4773 C 471.447 -1.10177 1.50725 0
M  V30 4774 C 471.798 -1.94153 0.282678 0
M  V30 4775 O 470.923 -2.07645 -0.609298 0
M  V30 4776 C 471.518 -2.00482 2.73116 0
M  V30 4777 C 470.077 -2.53862 2.77905 0
M  V30 4778 C 469.224 -1.31047 2.44381 0
M  V30 4779 H 472.175 -0.30473 1.55747 0
M  V30 4780 H 472.196 -2.8491 2.52203 0
M  V30 4781 H 471.708 -1.39335 3.62225 0
M  V30 4782 H 469.809 -3.18702 1.93029 0
M  V30 4783 H 469.922 -2.9231 3.79594 0
M  V30 4784 H 468.286 -1.62953 1.95751 0
M  V30 4785 H 469.069 -0.71637 3.35743 0
M  V30 4786 N 471.514 -1.37532 -0.769588 0
M  V30 4787 C 472.461 -1.3347 -1.88293 0
M  V30 4788 C 473.431 -0.199891 -1.64893 0
M  V30 4789 O 474.616 -0.389594 -1.8678 0
M  V30 4790 C 471.756 -1.14968 -3.25387 0
M  V30 4791 C 470.869 -2.37698 -3.60727 0
M  V30 4792 C 470.004 -2.12051 -4.8704 0
M  V30 4793 C 469.043 -3.30636 -5.15117 0
M  V30 4794 N 468.18 -3.04527 -6.3262 0
M  V30 4795 H 473.02 -2.28658 -1.911 0
M  V30 4796 H 470.557 -1.13622 -0.934257 0
M  V30 4797 H 472.515 -1.02261 -4.04473 0
M  V30 4798 H 471.145 -0.234263 -3.21949 0
M  V30 4799 H 470.197 -2.61137 -2.76608 0
M  V30 4800 H 471.509 -3.26131 -3.77413 0
M  V30 4801 H 470.663 -1.96388 -5.74035 0
M  V30 4802 H 469.402 -1.20959 -4.72462 0
M  V30 4803 H 468.407 -3.46836 -4.26597 0
M  V30 4804 H 469.632 -4.22582 -5.31603 0
M  V30 4805 H 467.578 -2.16067 -6.19396 0
M  V30 4806 H 467.495 -3.86503 -6.49732 0
M  V30 4807 H 468.763 -2.92485 -7.22546 0
M  V30 4808 N 472.992 0.995999 -1.22138 0
M  V30 4809 C 474.24 1.73167 -1.042 0
M  V30 4810 C 474.561 1.90329 0.42423 0
M  V30 4811 O 473.831 1.4607 1.30539 0
M  V30 4812 H 472.411 0.641593 -0.38258 0
M  V30 4813 H 475.073 1.19974 -1.53598 0
M  V30 4814 H 474.169 2.72734 -1.51731 0
M  V30 4815 N 474.47 1.03057 1.19235 0
M  V30 4816 C 475.886 0.747947 1.40989 0
M  V30 4817 C 476.086 -0.666752 1.90149 0
M  V30 4818 O 475.142 -1.43249 2.07933 0
M  V30 4819 C 476.455 1.7855 2.41951 0
M  V30 4820 C 478.003 1.80524 2.55695 0
M  V30 4821 C 478.478 2.83243 3.59913 0
M  V30 4822 N 479.969 2.8207 3.67411 0
M  V30 4823 C 480.704 3.58204 4.47747 0
M  V30 4824 N 480.2 4.44057 5.31775 0
M  V30 4825 N 481.993 3.46738 4.42413 0
M  V30 4826 H 474.144 1.94367 0.856468 0
M  V30 4827 H 476.407 0.840412 0.438647 0
M  V30 4828 H 476.113 2.79973 2.12857 0
M  V30 4829 H 475.987 1.6092 3.41152 0
M  V30 4830 H 478.374 0.79778 2.84112 0
M  V30 4831 H 478.455 2.02229 1.56643 0
M  V30 4832 H 478.099 3.84161 3.32239 0
M  V30 4833 H 478.029 2.58795 4.5862 0
M  V30 4834 H 480.52 2.19803 3.074 0
M  V30 4835 H 480.833 4.98884 5.90199 0
M  V30 4836 H 479.178 4.48129 5.3123 0
M  V30 4837 H 482.369 2.79077 3.75811 0
M  V30 4838 H 482.542 4.06322 5.04783 0
M  V30 4839 N 475.948 -1.35272 0.808662 0
M  V30 4840 C 477.197 -1.97963 0.386483 0
M  V30 4841 C 477.51 -1.64866 -1.05255 0
M  V30 4842 O 478.716 -2.20937 -1.57794 0
M  V30 4843 C 477.172 -3.54162 0.640096 0
M  V30 4844 C 476.78 -3.96166 2.0918 0
M  V30 4845 C 478.524 -4.23553 0.283376 0
M  V30 4846 C 476.431 -5.4522 2.29106 0
M  V30 4847 H 475.361 -0.740742 0.140774 0
M  V30 4848 H 478.012 -1.5431 0.993012 0
M  V30 4849 H 476.394 -3.95983 -0.0364117 0
M  V30 4850 H 477.568 -3.65491 2.80629 0
M  V30 4851 H 475.883 -3.3967 2.40859 0
M  V30 4852 H 478.48 -5.33124 0.410273 0
M  V30 4853 H 478.823 -4.09105 -0.770659 0
M  V30 4854 H 479.356 -3.8716 0.913884 0
M  V30 4855 H 476.095 -5.64638 3.32962 0
M  V30 4856 H 475.615 -5.77457 1.62184 0
M  V30 4857 H 477.294 -6.1171 2.1076 0
M  V30 4858 N 477.426 -0.562348 -1.47226 0
M  V30 4859 C 478.672 -0.0402761 -2.0276 0
M  V30 4860 C 479.005 1.30823 -1.43523 0
M  V30 4861 O 478.28 1.85249 -0.592705 0
M  V30 4862 C 478.563 0.047311 -3.60069 0
M  V30 4863 C 478.416 -1.32865 -4.29729 0
M  V30 4864 C 479.735 0.758182 -4.3352 0
M  V30 4865 H 476.854 -0.0161105 -0.736824 0
M  V30 4866 H 479.496 -0.725628 -1.75598 0
M  V30 4867 H 477.646 0.630986 -3.83342 0
M  V30 4868 H 479.318 -1.95593 -4.17781 0
M  V30 4869 H 477.561 -1.90195 -3.89882 0
M  V30 4870 H 478.232 -1.22004 -5.38349 0
M  V30 4871 H 480.708 0.262546 -4.15271 0
M  V30 4872 H 479.584 0.78844 -5.43208 0
M  V30 4873 H 479.845 1.81537 -4.03109 0
M  V30 4874 N 478.904 1.54736 -0.299062 0
M  V30 4875 C 480.315 1.8569 0.193971 0
M  V30 4876 C 480.666 1.22101 1.53577 0
M  V30 4877 O 479.791 0.51799 2.10109 0
M  V30 4878 C 480.386 3.36895 0.358733 0
M  V30 4879 C 478.945 3.67887 0.795986 0
M  V30 4880 C 478.092 2.77131 -0.096807 0
M  V30 4881 H 481.043 1.49934 -0.520134 0
M  V30 4882 H 481.064 3.61294 1.19361 0
M  V30 4883 H 480.576 3.83148 -0.617998 0
M  V30 4884 H 478.677 3.27151 1.78334 0
M  V30 4885 H 478.79 4.75114 0.616718 0
M  V30 4886 H 477.154 2.51153 0.423581 0
M  V30 4887 H 477.937 3.26204 -1.06986 0
M  V30 4888 N 480.382 0.0267497 1.57577 0
M  V30 4889 C 481.798 -0.32962 1.56159 0
M  V30 4890 C 481.998 -1.73059 1.03213 0
M  V30 4891 O 481.054 -2.43233 0.677804 0
M  V30 4892 C 482.367 -0.18039 3.00158 0
M  V30 4893 C 483.915 -0.253334 3.11973 0
M  V30 4894 C 484.39 -0.132921 4.57807 0
M  V30 4895 N 485.881 -0.189979 4.6281 0
M  V30 4896 C 486.616 -0.120554 5.73273 0
M  V30 4897 N 486.112 -0.000180315 6.928 0
M  V30 4898 N 487.905 -0.174369 5.61829 0
M  V30 4899 H 480.056 0.942896 1.90324 0
M  V30 4900 H 482.319 0.3639 0.875375 0
M  V30 4901 H 482.025 0.784576 3.42837 0
M  V30 4902 H 481.899 -0.951565 3.65 0
M  V30 4903 H 484.286 -1.20876 2.69208 0
M  V30 4904 H 484.367 0.548177 2.49857 0
M  V30 4905 H 484.011 0.819073 5.01252 0
M  V30 4906 H 483.941 -0.953264 5.179 0
M  V30 4907 H 486.432 -0.283257 3.76837 0
M  V30 4908 H 486.745 0.0461666 7.72786 0
M  V30 4909 H 485.09 0.034569 6.94991 0
M  V30 4910 H 488.281 -0.266794 4.67339 0
M  V30 4911 H 488.454 -0.116802 6.47895 0
M  V30 4912 N 481.861 -1.55662 -0.24637 0
M  V30 4913 C 483.109 -1.77168 -0.972411 0
M  V30 4914 C 483.43 -0.590827 -1.85834 0
M  V30 4915 O 482.7 0.393365 -1.9191 0
M  V30 4916 H 481.28 -0.653405 -0.362038 0
M  V30 4917 H 483.942 -1.93101 -0.264189 0
M  V30 4918 H 483.038 -2.68335 -1.59382 0
M  V30 4919 N 483.339 0.512053 -1.4905 0
M  V30 4920 C 484.588 1.26343 -1.57227 0
M  V30 4921 C 484.901 1.93876 -0.259155 0
M  V30 4922 O 486.107 2.70612 -0.219358 0
M  V30 4923 C 484.563 2.29343 -2.77362 0
M  V30 4924 C 484.171 1.67799 -4.15388 0
M  V30 4925 C 485.915 3.05378 -2.94864 0
M  V30 4926 C 483.822 2.68845 -5.2676 0
M  V30 4927 H 482.752 0.475231 -0.585382 0
M  V30 4928 H 485.403 0.53862 -1.75417 0
M  V30 4929 H 483.785 3.04938 -2.52643 0
M  V30 4930 H 484.959 0.982715 -4.50199 0
M  V30 4931 H 483.274 1.04194 -4.03153 0
M  V30 4932 H 485.871 3.80921 -3.75238 0
M  V30 4933 H 486.214 3.62327 -2.05 0
M  V30 4934 H 486.747 2.36898 -3.19569 0
M  V30 4935 H 483.486 2.16692 -6.18647 0
M  V30 4936 H 483.006 3.36647 -4.96416 0
M  V30 4937 H 484.685 3.31487 -5.5563 0
M  V30 4938 N 484.817 1.37938 0.762283 0
M  V30 4939 C 486.094 1.24196 1.51112 0
M  V30 4940 C 486.474 -0.160409 2.1049 0
M  V30 4941 O 485.822 -1.16904 1.96331 0
M  V30 4942 C 486.032 2.34537 2.58445 0
M  V30 4943 C 487.38 2.7254 3.25588 0
M  V30 4944 O 488.404 2.33783 2.68745 0
M  V30 4945 O 487.263 3.39343 4.28379 0
M  V30 4946 H 484.357 0.485175 0.669727 0
M  V30 4947 H 486.903 1.49743 0.798438 0
M  V30 4948 H 485.675 3.28406 2.12756 0
M  V30 4949 H 485.298 2.10505 3.37303 0
M  V30 4950 N 486.295 -0.989507 1.22664 0
M  V30 4951 C 487.711 -1.25395 0.987331 0
M  V30 4952 C 487.911 -1.9899 -0.317056 0
M  V30 4953 O 486.967 -2.30141 -1.03882 0
M  V30 4954 C 488.28 -2.06242 2.18826 0
M  V30 4955 C 489.828 -2.19413 2.23219 0
M  V30 4956 C 490.303 -3.03648 3.42873 0
M  V30 4957 N 491.794 -3.11234 3.43056 0
M  V30 4958 C 492.529 -3.7671 4.32293 0
M  V30 4959 N 492.025 -4.44085 5.31752 0
M  V30 4960 N 493.818 -3.73505 4.2006 0
M  V30 4961 H 485.969 -0.496212 2.06522 0
M  V30 4962 H 488.232 -0.281784 0.905153 0
M  V30 4963 H 487.938 -1.59531 3.13437 0
M  V30 4964 H 487.812 -3.06996 2.19165 0
M  V30 4965 H 490.199 -2.65336 1.29154 0
M  V30 4966 H 490.28 -1.18078 2.26917 0
M  V30 4967 H 489.924 -2.58424 4.37241 0
M  V30 4968 H 489.854 -4.05132 3.36416 0
M  V30 4969 H 492.345 -2.63287 2.71088 0
M  V30 4970 H 492.658 -4.91797 5.96117 0
M  V30 4971 H 491.003 -4.42822 5.35662 0
M  V30 4972 H 494.194 -3.20033 3.41609 0
M  V30 4973 H 494.367 -4.24253 4.8981 0
M  V30 4974 N 487.773 -1.03688 -1.18687 0
M  V30 4975 C 488.703 -0.645407 -2.24403 0
M  V30 4976 C 489.684 0.349511 -1.66471 0
M  V30 4977 O 490.869 0.230453 -1.92828 0
M  V30 4978 C 487.999 -0.00365337 -3.473 0
M  V30 4979 C 486.953 -0.921705 -4.17958 0
M  V30 4980 C 486.279 -0.144629 -5.34504 0
M  V30 4981 C 487.579 -2.23909 -4.71871 0
M  V30 4982 H 489.273 -1.52917 -2.57404 0
M  V30 4983 H 486.819 -0.736711 -1.23728 0
M  V30 4984 H 488.772 0.281908 -4.20456 0
M  V30 4985 H 487.496 0.914963 -3.13522 0
M  V30 4986 H 486.155 -1.19159 -3.46694 0
M  V30 4987 H 485.803 0.776274 -4.96974 0
M  V30 4988 H 485.503 -0.756206 -5.82714 0
M  V30 4989 H 487.027 0.134004 -6.10453 0
M  V30 4990 H 488.441 -2.0145 -5.36741 0
M  V30 4991 H 486.838 -2.8033 -5.30599 0
M  V30 4992 H 487.908 -2.88822 -3.895 0
M  V30 4993 N 489.251 1.34841 -0.815825 0
M  V30 4994 C 490.161 2.33425 -0.234462 0
M  V30 4995 C 491.177 1.62295 0.627413 0
M  V30 4996 O 492.353 1.94109 0.536987 0
M  V30 4997 C 489.418 3.41471 0.599849 0
M  V30 4998 C 488.479 4.28362 -0.283596 0
M  V30 4999 C 487.712 5.31248 0.51099 0
M  V30 5000 O 487.935 5.43056 1.7449 0
M  V30 5001 O 486.869 6.01812 -0.10297 0
M  V30 5002 H 490.695 2.84962 -1.05024 0
M  V30 5003 H 488.28 1.37774 -0.577809 0
M  V30 5004 H 490.162 4.07464 1.07475 0
M  V30 5005 H 488.837 2.9219 1.39308 0
M  V30 5006 H 487.744 3.65318 -0.805836 0
M  V30 5007 H 489.077 4.81066 -1.041 0
M  V30 5008 N 490.729 0.570148 1.46925 0
M  V30 5009 C 492.145 0.23087 1.57921 0
M  V30 5010 C 492.345 -1.26676 1.56702 0
M  V30 5011 O 491.401 -2.04774 1.47729 0
M  V30 5012 C 492.714 0.868973 2.8787 0
M  V30 5013 C 494.262 0.841397 3.01479 0
M  V30 5014 C 494.737 1.45881 4.34146 0
M  V30 5015 N 496.228 1.42258 4.40814 0
M  V30 5016 C 496.963 1.8698 5.42057 0
M  V30 5017 N 496.459 2.39618 6.50042 0
M  V30 5018 N 498.252 1.77972 5.33181 0
M  V30 5019 H 490.403 1.54301 1.45962 0
M  V30 5020 H 492.666 0.644224 0.69547 0
M  V30 5021 H 492.372 1.922 2.94537 0
M  V30 5022 H 492.246 0.369682 3.75384 0
M  V30 5023 H 494.633 -0.202973 2.94401 0
M  V30 5024 H 494.714 1.37858 2.15474 0
M  V30 5025 H 494.358 2.50231 4.4198 0
M  V30 5026 H 494.288 0.896958 5.18905 0
M  V30 5027 H 496.779 1.03768 3.63374 0
M  V30 5028 H 497.092 2.71633 7.23488 0
M  V30 5029 H 495.437 2.43636 6.50897 0
M  V30 5030 H 498.628 1.36617 4.4772 0
M  V30 5031 H 498.801 2.13143 6.11943 0
M  V30 5032 N 492.207 -1.54576 0.307264 0
M  V30 5033 C 493.435 -2.04675 -0.302597 0
M  V30 5034 C 493.85 -1.18425 -1.47041 0
M  V30 5035 O 493.207 -0.211257 -1.81273 0
M  V30 5036 C 493.258 -3.53575 -0.752801 0
M  V30 5037 O 492.979 -4.36547 0.368536 0
M  V30 5038 C 494.48 -4.19699 -1.42717 0
M  V30 5039 H 491.7 -0.66786 -0.0648374 0
M  V30 5040 H 494.244 -1.99516 0.448716 0
M  V30 5041 H 492.399 -3.59074 -1.45412 0
M  V30 5042 H 492.813 -5.24497 0.0168937 0
M  V30 5043 H 494.287 -5.25388 -1.69327 0
M  V30 5044 H 494.764 -3.69815 -2.36925 0
M  V30 5045 H 495.37 -4.18293 -0.768856 0
M  V30 5046 N 493.685 -0.035106 -1.57561 0
M  V30 5047 C 495.101 0.321334 -1.56332 0
M  V30 5048 C 495.301 1.72509 -1.04129 0
M  V30 5049 O 494.357 2.4287 -0.690694 0
M  V30 5050 C 495.67 0.164469 -3.0025 0
M  V30 5051 C 497.218 0.236786 -3.12103 0
M  V30 5052 C 497.693 0.10864 -4.57871 0
M  V30 5053 N 499.184 0.165433 -4.62904 0
M  V30 5054 C 499.919 0.0901506 -5.73329 0
M  V30 5055 N 499.415 -0.0365606 -6.9279 0
M  V30 5056 N 501.208 0.144572 -5.61914 0
M  V30 5057 H 493.359 -0.952976 -1.89821 0
M  V30 5058 H 495.622 -0.368537 -0.873432 0
M  V30 5059 H 495.328 -0.802746 -3.42416 0
M  V30 5060 H 495.202 0.932194 -3.655 0
M  V30 5061 H 497.589 1.19446 -2.69845 0
M  V30 5062 H 497.67 -0.561419 -2.49563 0
M  V30 5063 H 497.314 -0.845644 -5.00811 0
M  V30 5064 H 497.244 0.925786 -5.18398 0
M  V30 5065 H 499.735 0.263269 -3.76982 0
M  V30 5066 H 500.048 -0.0871487 -7.72751 0
M  V30 5067 H 498.393 -0.0714256 -6.94963 0
M  V30 5068 H 501.584 0.242006 -4.67474 0
M  V30 5069 H 501.757 0.0824413 -6.47948 0
M  V30 5070 N 495.163 1.55791 0.238111 0
M  V30 5071 C 496.388 1.8244 0.986432 0
M  V30 5072 C 496.813 0.613314 1.7782 0
M  V30 5073 O 496.171 -0.437767 1.75935 0
M  V30 5074 C 496.219 3.06917 1.893 0
M  V30 5075 O 495.323 2.84449 2.98601 0
M  V30 5076 H 494.664 0.601975 0.280218 0
M  V30 5077 H 497.194 2.02987 0.256437 0
M  V30 5078 H 497.204 3.36583 2.30598 0
M  V30 5079 H 495.879 3.947 1.31091 0
M  V30 5080 H 494.456 2.65972 2.61368 0
M  V30 5081 N 496.642 -0.504142 1.49319 0
M  V30 5082 C 497.867 -1.28729 1.62615 0
M  V30 5083 C 498.292 -1.85752 0.296309 0
M  V30 5084 O 497.65 -1.65704 -0.735649 0
M  V30 5085 C 497.698 -2.39561 2.69524 0
M  V30 5086 O 496.802 -3.43324 2.28478 0
M  V30 5087 H 496.143 -0.380172 0.544395 0
M  V30 5088 H 498.673 -0.603872 1.95485 0
M  V30 5089 H 498.683 -2.8537 2.91595 0
M  V30 5090 H 497.358 -1.97423 3.66056 0
M  V30 5091 H 495.935 -3.03455 2.16725 0
M  V30 5092 N 498.12 -1.38341 -0.754957 0
M  V30 5093 C 499.536 -1.19508 -1.05783 0
M  V30 5094 C 499.736 -0.0428005 -2.01455 0
M  V30 5095 O 498.792 0.611861 -2.44975 0
M  V30 5096 C 500.105 -2.52091 -1.63923 0
M  V30 5097 C 501.653 -2.58762 -1.76101 0
M  V30 5098 C 502.128 -3.91517 -2.37652 0
M  V30 5099 N 503.619 -3.93049 -2.45085 0
M  V30 5100 C 504.354 -4.9253 -2.93602 0
M  V30 5101 N 503.85 -6.02408 -3.42165 0
M  V30 5102 N 505.643 -4.79921 -2.92629 0
M  V30 5103 H 497.794 -2.1206 -0.120056 0
M  V30 5104 H 500.057 -0.94089 -0.11589 0
M  V30 5105 H 499.763 -3.36858 -1.01093 0
M  V30 5106 H 499.637 -2.70388 -2.63003 0
M  V30 5107 H 502.024 -1.74391 -2.38058 0
M  V30 5108 H 502.105 -2.44333 -0.757294 0
M  V30 5109 H 501.749 -4.76309 -1.76329 0
M  V30 5110 H 501.679 -4.03256 -3.38662 0
M  V30 5111 H 504.17 -3.13685 -2.10736 0
M  V30 5112 H 504.483 -6.74248 -3.77637 0
M  V30 5113 H 502.828 -6.0603 -3.40225 0
M  V30 5114 H 506.019 -3.93194 -2.54001 0
M  V30 5115 H 506.192 -5.57601 -3.30128 0
M  V30 5116 N 499.598 0.982988 -1.23187 0
M  V30 5117 C 500.545 2.07491 -1.01075 0
M  V30 5118 C 501.515 1.65949 0.070905 0
M  V30 5119 O 502.7 1.90629 -0.0806822 0
M  V30 5120 C 499.84 3.39751 -0.605261 0
M  V30 5121 C 498.953 3.94578 -1.75876 0
M  V30 5122 C 498.088 5.15039 -1.3003 0
M  V30 5123 C 497.127 5.62027 -2.42472 0
M  V30 5124 N 496.264 6.73719 -1.97602 0
M  V30 5125 H 501.104 2.25739 -1.9454 0
M  V30 5126 H 498.641 1.10659 -0.969179 0
M  V30 5127 H 500.599 4.15719 -0.351279 0
M  V30 5128 H 499.229 3.21473 0.292382 0
M  V30 5129 H 498.281 3.1539 -2.12681 0
M  V30 5130 H 499.593 4.25422 -2.60418 0
M  V30 5131 H 498.747 5.9833 -1.00429 0
M  V30 5132 H 497.486 4.85843 -0.425216 0
M  V30 5133 H 496.491 4.77318 -2.7285 0
M  V30 5134 H 497.716 5.93244 -3.30512 0
M  V30 5135 H 495.662 6.46287 -1.1247 0
M  V30 5136 H 495.579 7.03934 -2.75705 0
M  V30 5137 H 496.847 7.6049 -1.71098 0
M  V30 5138 N 501.076 1.04316 1.18135 0
M  V30 5139 C 502.301 0.768047 1.92655 0
M  V30 5140 C 502.726 -0.66904 1.758 0
M  V30 5141 O 502.084 -1.46372 1.06981 0
M  V30 5142 C 502.132 1.14239 3.42026 0
M  V30 5143 O 501.236 0.269333 4.1152 0
M  V30 5144 H 500.577 0.282436 0.600937 0
M  V30 5145 H 503.107 1.39367 1.49793 0
M  V30 5146 H 503.117 1.10538 3.92741 0
M  V30 5147 H 501.792 2.18928 3.53615 0
M  V30 5148 H 500.369 0.366175 3.71098 0
M  V30 5149 N 502.554 -1.34406 0.822964 0
M  V30 5150 C 503.501 -2.29519 0.24284 0
M  V30 5151 C 504.471 -1.5359 -0.632397 0
M  V30 5152 O 505.656 -1.8196 -0.57403 0
M  V30 5153 C 502.796 -3.40032 -0.58925 0
M  V30 5154 C 501.909 -4.30899 0.308236 0
M  V30 5155 C 501.044 -5.28515 -0.533425 0
M  V30 5156 C 500.083 -6.1102 0.363444 0
M  V30 5157 N 499.22 -7.00725 -0.439147 0
M  V30 5158 H 504.06 -2.78537 1.05929 0
M  V30 5159 H 501.597 -1.3707 0.533872 0
M  V30 5160 H 503.555 -4.0279 -1.087 0
M  V30 5161 H 502.185 -2.92248 -1.37081 0
M  V30 5162 H 501.237 -3.69002 0.924203 0
M  V30 5163 H 502.549 -4.88717 0.997862 0
M  V30 5164 H 501.703 -5.96725 -1.09565 0
M  V30 5165 H 500.442 -4.71235 -1.25656 0
M  V30 5166 H 499.447 -5.41743 0.937812 0
M  V30 5167 H 500.672 -6.70381 1.08469 0
M  V30 5168 H 498.618 -6.45913 -1.14595 0
M  V30 5169 H 498.535 -7.55756 0.19209 0
M  V30 5170 H 499.803 -7.73263 -0.984124 0
M  V30 5171 N 504.032 -0.577932 -1.46621 0
M  V30 5172 C 504.982 0.178869 -2.27297 0
M  V30 5173 C 505.966 0.866279 -1.35589 0
M  V30 5174 O 507.158 0.761163 -1.59798 0
M  V30 5175 C 504.287 1.19499 -3.2183 0
M  V30 5176 C 503.373 0.50994 -4.21023 0
M  V30 5177 N 503.764 -0.43177 -5.03954 0
M  V30 5178 C 502.062 0.761287 -4.39455 0
M  V30 5179 C 502.763 -0.831693 -5.75724 0
M  V30 5180 N 501.739 -0.181897 -5.43296 0
M  V30 5181 H 505.541 -0.544859 -2.88805 0
M  V30 5182 H 503.055 -0.399373 -1.57413 0
M  V30 5183 H 505.052 1.75131 -3.78332 0
M  V30 5184 H 503.712 1.91959 -2.61881 0
M  V30 5185 H 504.723 -0.807045 -5.11573 0
M  V30 5186 H 501.4 1.47282 -3.90659 0
M  V30 5187 H 502.79 -1.6067 -6.52407 0
M  V30 5188 N 505.51 1.54411 -0.315457 0
M  V30 5189 C 506.442 2.21527 0.588067 0
M  V30 5190 C 507.455 1.21263 1.08624 0
M  V30 5191 O 508.644 1.47777 1.00121 0
M  V30 5192 C 505.744 2.85963 1.81875 0
M  V30 5193 C 504.917 4.12291 1.46063 0
M  V30 5194 C 503.976 4.60396 2.54799 0
M  V30 5195 O 503.002 5.25265 2.19283 0
M  V30 5196 N 504.204 4.33935 3.85591 0
M  V30 5197 H 506.969 2.99697 0.013414 0
M  V30 5198 H 504.53 1.61308 -0.138295 0
M  V30 5199 H 506.522 3.15071 2.53993 0
M  V30 5200 H 505.092 2.11548 2.30144 0
M  V30 5201 H 504.312 3.90036 0.571445 0
M  V30 5202 H 505.6 4.9452 1.19695 0
M  V30 5203 H 504.998 3.81996 4.17248 0
M  V30 5204 H 503.555 4.67718 4.53964 0
M  V30 5205 N 506.988 0.0434614 1.5754 0
M  V30 5206 C 507.898 -0.94893 2.14552 0
M  V30 5207 C 508.914 -1.34707 1.10136 0
M  V30 5208 O 510.09 -1.42557 1.42266 0
M  V30 5209 C 507.155 -2.208 2.67298 0
M  V30 5210 C 506.216 -1.86893 3.86484 0
M  V30 5211 C 505.449 -3.06797 4.36705 0
M  V30 5212 O 505.672 -4.19921 3.86034 0
M  V30 5213 O 504.606 -2.8826 5.28384 0
M  V30 5214 H 508.432 -0.494099 2.99654 0
M  V30 5215 H 506.017 -0.177989 1.48336 0
M  V30 5216 H 507.899 -2.94686 3.01228 0
M  V30 5217 H 506.574 -2.65436 1.85272 0
M  V30 5218 H 505.481 -1.10347 3.57455 0
M  V30 5219 H 506.814 -1.47062 4.69716 0
M  V30 5220 N 508.466 -1.55915 -0.229846 0
M  V30 5221 C 509.429 -1.90914 -1.26824 0
M  V30 5222 C 510.429 -0.786999 -1.40225 0
M  V30 5223 O 511.619 -1.05484 -1.38632 0
M  V30 5224 C 508.751 -2.15264 -2.64337 0
M  V30 5225 H 509.944 -2.8378 -0.969998 0
M  V30 5226 H 507.497 -1.49069 -0.4699 0
M  V30 5227 H 508.232 -1.24923 -2.99274 0
M  V30 5228 H 508.017 -2.97005 -2.55989 0
M  V30 5229 H 509.507 -2.43467 -3.39284 0
M  V30 5230 N 509.944 0.496216 -1.49584 0
M  V30 5231 C 511.172 1.27394 -1.63029 0
M  V30 5232 C 511.587 1.86344 -0.303569 0
M  V30 5233 O 510.944 1.68057 0.711547 0
M  V30 5234 C 510.995 2.40077 -2.70269 0
M  V30 5235 O 510.716 1.83549 -3.97796 0
M  V30 5236 C 512.217 3.31372 -2.94462 0
M  V30 5237 H 509.437 0.386211 -0.54871 0
M  V30 5238 H 511.981 0.595163 -1.95648 0
M  V30 5239 H 510.136 3.03775 -2.40415 0
M  V30 5240 H 510.55 2.57561 -4.56905 0
M  V30 5241 H 512.024 4.06707 -3.73221 0
M  V30 5242 H 512.501 3.88654 -2.0456 0
M  V30 5243 H 513.107 2.73435 -3.25751 0
M  V30 5244 N 511.423 1.38739 0.74761 0
M  V30 5245 C 512.333 1.38696 1.89211 0
M  V30 5246 C 513.349 0.283303 1.71678 0
M  V30 5247 O 514.525 0.522713 1.94498 0
M  V30 5248 C 511.59 1.21662 3.24653 0
M  V30 5249 C 510.651 2.41886 3.54669 0
M  V30 5250 C 509.884 2.25655 4.83648 0
M  V30 5251 O 510.107 1.25339 5.56459 0
M  V30 5252 O 509.041 3.14372 5.13277 0
M  V30 5253 H 512.867 2.35143 1.92202 0
M  V30 5254 H 510.452 1.19721 0.893708 0
M  V30 5255 H 512.334 1.14246 4.05618 0
M  V30 5256 H 511.009 0.283024 3.2246 0
M  V30 5257 H 509.916 2.54877 2.73841 0
M  V30 5258 H 511.249 3.33895 3.61628 0
M  V30 5259 N 512.901 -0.976442 1.23707 0
M  V30 5260 C 514.129 -1.75341 1.09833 0
M  V30 5261 C 514.544 -1.8553 -0.349885 0
M  V30 5262 O 513.901 -1.33732 -1.24185 0
M  V30 5263 C 513.952 -3.17833 1.72233 0
M  V30 5264 O 513.673 -3.08167 3.11391 0
M  V30 5265 C 515.174 -4.11906 1.63853 0
M  V30 5266 H 512.394 -0.550137 0.384175 0
M  V30 5267 H 514.938 -1.2265 1.63638 0
M  V30 5268 H 513.093 -3.67538 1.22452 0
M  V30 5269 H 513.507 -3.97897 3.41729 0
M  V30 5270 H 514.981 -5.09579 2.12211 0
M  V30 5271 H 515.458 -4.35109 0.598092 0
M  V30 5272 H 516.064 -3.68107 2.13019 0
M  V30 5273 N 514.379 -1.04941 -1.1758 0
M  V30 5274 C 515.604 -0.778253 -1.92245 0
M  V30 5275 C 516.029 0.659707 -1.76152 0
M  V30 5276 O 515.387 1.45803 -1.07755 0
M  V30 5277 C 515.435 -1.16051 -3.41416 0
M  V30 5278 O 514.539 -0.291153 -4.11371 0
M  V30 5279 H 513.88 -0.285619 -0.599431 0
M  V30 5280 H 516.41 -1.40159 -1.49052 0
M  V30 5281 H 516.42 -1.12619 -3.92149 0
M  V30 5282 H 515.095 -2.208 -3.52449 0
M  V30 5283 H 513.672 -0.385851 -3.70898 0
M  V30 5284 N 515.857 1.33968 -0.830081 0
M  V30 5285 C 516.787 2.31911 -0.271911 0
M  V30 5286 C 517.768 1.58571 0.61556 0
M  V30 5287 O 518.953 1.86514 0.540946 0
M  V30 5288 C 516.083 3.42737 0.561146 0
M  V30 5289 C 515.037 4.27383 -0.229789 0
M  V30 5290 C 514.363 5.29742 0.726463 0
M  V30 5291 C 515.663 5.02 -1.44197 0
M  V30 5292 H 517.357 2.78844 -1.09025 0
M  V30 5293 H 514.903 1.34061 -0.52571 0
M  V30 5294 H 516.856 4.10276 0.961867 0
M  V30 5295 H 515.58 2.94471 1.41261 0
M  V30 5296 H 514.239 3.61456 -0.611964 0
M  V30 5297 H 513.887 4.77736 1.57408 0
M  V30 5298 H 513.587 5.87255 0.20142 0
M  V30 5299 H 515.111 6.00149 1.12489 0
M  V30 5300 H 516.525 5.62355 -1.11488 0
M  V30 5301 H 514.922 5.69122 -1.90317 0
M  V30 5302 H 515.992 4.31281 -2.2164 0
M  V30 5303 N 517.335 0.585699 1.46312 0
M  V30 5304 C 518.265 -0.133556 2.33118 0
M  V30 5305 C 519.246 -0.880707 1.45525 0
M  V30 5306 O 520.431 -0.855579 1.74337 0
M  V30 5307 C 517.561 -1.14585 3.27853 0
M  V30 5308 C 516.515 -0.513341 4.2491 0
M  V30 5309 C 515.841 -1.63231 5.09175 0
M  V30 5310 C 517.141 0.551413 5.19381 0
M  V30 5311 H 518.835 0.59121 2.93505 0
M  V30 5312 H 516.381 0.285761 1.41136 0
M  V30 5313 H 518.334 -1.65741 3.87438 0
M  V30 5314 H 517.058 -1.90093 2.65579 0
M  V30 5315 H 515.717 -0.0228349 3.66593 0
M  V30 5316 H 515.365 -2.37713 4.43285 0
M  V30 5317 H 515.065 -1.21473 5.74907 0
M  V30 5318 H 516.589 -2.14658 5.71624 0
M  V30 5319 H 518.003 0.124804 5.73164 0
M  V30 5320 H 516.4 0.889486 5.93471 0
M  V30 5321 H 517.47 1.43655 4.63132 0
M  V30 5322 N 518.813 -1.54241 0.323641 0
M  V30 5323 C 519.763 -2.21071 -0.557833 0
M  V30 5324 C 520.747 -1.19126 -1.08157 0
M  V30 5325 O 521.939 -1.44755 -1.01857 0
M  V30 5326 C 519.068 -2.97208 -1.71821 0
M  V30 5327 C 518.154 -4.06491 -1.20936 0
M  V30 5328 N 518.545 -5.04052 -0.420202 0
M  V30 5329 C 516.843 -4.20443 -1.48808 0
M  V30 5330 C 517.544 -5.81516 -0.146413 0
M  V30 5331 N 516.52 -5.38641 -0.732562 0
M  V30 5332 H 520.322 -2.93853 0.0523921 0
M  V30 5333 H 517.836 -1.61883 0.129502 0
M  V30 5334 H 519.833 -3.4357 -2.36146 0
M  V30 5335 H 518.493 -2.25947 -2.33191 0
M  V30 5336 H 519.504 -5.17862 -0.0630401 0
M  V30 5337 H 516.181 -3.60396 -2.10762 0
M  V30 5338 H 517.571 -6.70119 0.488895 0
M  V30 5339 N 520.291 -0.0518155 -1.57515 0
M  V30 5340 C 521.516 0.634896 -1.97443 0
M  V30 5341 C 521.941 1.63546 -0.929207 0
M  V30 5342 O 521.299 1.80981 0.107484 0
M  V30 5343 C 521.347 1.29765 -3.36442 0
M  V30 5344 O 520.451 2.41333 -3.34413 0
M  V30 5345 H 519.792 0.164994 -0.643174 0
M  V30 5346 H 522.322 -0.120407 -2.04245 0
M  V30 5347 H 522.332 1.64918 -3.73184 0
M  V30 5348 H 521.007 0.564361 -4.12053 0
M  V30 5349 H 519.584 2.08122 -3.09418 0
M  V30 5350 N 521.769 1.56035 0.221574 0
M  V30 5351 C 522.719 1.8881 1.27807 0
M  V30 5352 C 523.703 0.751177 1.42289 0
M  V30 5353 O 524.895 1.01359 1.45104 0
M  V30 5354 C 522.024 2.20828 2.6285 0
M  V30 5355 C 521.11 3.40912 2.52269 0
M  V30 5356 N 521.501 4.59531 2.1134 0
M  V30 5357 C 519.799 3.44526 2.83228 0
M  V30 5358 C 520.5 5.41689 2.1201 0
M  V30 5359 N 519.476 4.814 2.52497 0
M  V30 5360 H 523.278 2.78036 0.952529 0
M  V30 5361 H 520.792 1.566 0.430134 0
M  V30 5362 H 522.789 2.42483 3.39127 0
M  V30 5363 H 521.449 1.32914 2.9625 0
M  V30 5364 H 522.46 4.8469 1.82472 0
M  V30 5365 H 519.137 2.66956 3.21 0
M  V30 5366 H 520.527 6.46643 1.82491 0
M  V30 5367 N 523.247 -0.488276 1.49845 0
M  V30 5368 C 524.663 -0.820566 1.3689 0
M  V30 5369 C 524.863 -1.97248 0.411752 0
M  V30 5370 O 523.919 -2.52042 -0.151931 0
M  V30 5371 C 525.232 -1.1488 2.77891 0
M  V30 5372 C 526.78 -1.25626 2.86683 0
M  V30 5373 C 527.255 -1.61772 4.28479 0
M  V30 5374 N 528.746 -1.68797 4.31349 0
M  V30 5375 C 529.481 -1.98235 5.38043 0
M  V30 5376 N 528.977 -2.2581 6.54967 0
M  V30 5377 N 530.77 -1.99593 5.2547 0
M  V30 5378 H 522.921 0.271123 2.10662 0
M  V30 5379 H 525.184 0.058735 0.946179 0
M  V30 5380 H 524.89 -0.375614 3.49688 0
M  V30 5381 H 524.764 -2.08919 3.14058 0
M  V30 5382 H 527.151 -2.02014 2.15114 0
M  V30 5383 H 527.232 -0.296072 2.54081 0
M  V30 5384 H 526.876 -0.859295 5.00578 0
M  V30 5385 H 526.806 -2.58912 4.58554 0
M  V30 5386 H 529.297 -1.49595 3.4703 0
M  V30 5387 H 529.61 -2.47497 7.32096 0
M  V30 5388 H 527.955 -2.23239 6.58171 0
M  V30 5389 H 531.146 -1.77535 4.33127 0
M  V30 5390 H 531.319 -2.222 6.08713 0
M  V30 5391 N 524.725 -1.39134 -0.740242 0
M  V30 5392 C 525.972 -1.36071 -1.49969 0
M  V30 5393 C 526.3 0.0450245 -1.94448 0
M  V30 5394 O 525.555 1.02482 -1.66721 0
M  V30 5395 C 525.854 -2.27457 -2.75678 0
M  V30 5396 C 525.52 -3.75185 -2.50094 0
M  V30 5397 C 524.182 -4.15439 -2.42825 0
M  V30 5398 C 526.534 -4.68643 -2.28086 0
M  V30 5399 C 523.862 -5.4722 -2.11584 0
M  V30 5400 C 526.214 -6.00695 -1.98363 0
M  V30 5401 C 524.878 -6.40018 -1.8956 0
M  V30 5402 H 524.148 -0.497921 -0.548777 0
M  V30 5403 H 526.795 -1.71599 -0.85007 0
M  V30 5404 H 525.1 -1.8503 -3.45356 0
M  V30 5405 H 526.797 -2.22384 -3.33686 0
M  V30 5406 H 523.387 -3.43279 -2.56627 0
M  V30 5407 H 527.571 -4.3838 -2.32672 0
M  V30 5408 H 522.827 -5.76615 -2.03287 0
M  V30 5409 H 527.001 -6.72644 -1.80341 0
M  V30 5410 H 524.628 -7.42051 -1.65117 0
M  V30 5411 N 526.204 0.969867 -1.24223 0
M  V30 5412 C 527.151 2.06407 -1.0327 0
M  V30 5413 C 528.121 1.66014 0.0533 0
M  V30 5414 O 529.306 1.90533 -0.100896 0
M  V30 5415 C 526.446 3.3909 -0.641262 0
M  V30 5416 C 525.559 3.9269 -1.80051 0
M  V30 5417 C 524.694 5.13631 -1.35486 0
M  V30 5418 C 523.733 5.59423 -2.48419 0
M  V30 5419 N 522.87 6.71586 -2.04737 0
M  V30 5420 H 527.71 2.23663 -1.96923 0
M  V30 5421 H 525.247 1.09624 -0.980862 0
M  V30 5422 H 527.205 4.15323 -0.395351 0
M  V30 5423 H 525.835 3.21765 0.258269 0
M  V30 5424 H 524.887 3.13116 -2.16014 0
M  V30 5425 H 526.199 4.22636 -2.64916 0
M  V30 5426 H 525.353 5.97231 -1.0677 0
M  V30 5427 H 524.092 4.85364 -0.476722 0
M  V30 5428 H 523.097 4.74398 -2.77897 0
M  V30 5429 H 524.322 5.89705 -3.36786 0
M  V30 5430 H 522.268 6.45058 -1.19318 0
M  V30 5431 H 522.185 7.0097 -2.83156 0
M  V30 5432 H 523.453 7.58633 -1.79154 0
M  V30 5433 N 527.682 1.05563 1.17022 0
M  V30 5434 C 528.629 0.659893 2.21165 0
M  V30 5435 C 529.599 -0.339813 1.62587 0
M  V30 5436 O 530.784 -0.230378 1.89404 0
M  V30 5437 C 527.924 0.0447297 3.45071 0
M  V30 5438 C 527.037 1.09372 4.17926 0
M  V30 5439 C 526.172 0.445481 5.29329 0
M  V30 5440 C 525.211 1.47852 5.93975 0
M  V30 5441 N 524.348 0.854172 6.96885 0
M  V30 5442 H 529.188 1.55243 2.54369 0
M  V30 5443 H 526.725 0.776336 1.24946 0
M  V30 5444 H 528.683 -0.329404 4.15898 0
M  V30 5445 H 527.313 -0.811244 3.1244 0
M  V30 5446 H 526.365 1.58564 3.45777 0
M  V30 5447 H 527.677 1.87773 4.62107 0
M  V30 5448 H 526.831 0.0179688 6.06697 0
M  V30 5449 H 525.57 -0.370481 4.86291 0
M  V30 5450 H 524.575 1.91601 5.15334 0
M  V30 5451 H 525.8 2.29645 6.39093 0
M  V30 5452 H 523.746 0.0587882 6.55974 0
M  V30 5453 H 523.663 1.57567 7.39397 0
M  V30 5454 H 524.931 0.451559 7.78191 0
M  V30 5455 N 529.16 -1.33526 0.837174 0
M  V30 5456 C 530.408 -1.97446 0.431211 0
M  V30 5457 C 530.729 -1.6665 -1.01255 0
M  V30 5458 O 529.999 -0.964559 -1.70508 0
M  V30 5459 H 528.579 -0.73043 0.156463 0
M  V30 5460 H 531.241 -1.62918 1.06976 0
M  V30 5461 H 530.337 -3.07001 0.561877 0
M  V30 5462 N 530.638 -0.59345 -1.46 0
M  V30 5463 C 531.57 0.171569 -2.28557 0
M  V30 5464 C 532.583 0.845273 -1.39137 0
M  V30 5465 O 533.772 0.713033 -1.6364 0
M  V30 5466 C 530.872 1.26311 -3.14482 0
M  V30 5467 C 530.045 0.679258 -4.32094 0
M  V30 5468 C 529.104 1.65987 -4.99334 0
M  V30 5469 O 528.13 1.19171 -5.56585 0
M  V30 5470 N 529.332 2.99414 -4.97324 0
M  V30 5471 H 532.097 -0.536771 -2.94854 0
M  V30 5472 H 529.658 -0.431954 -1.56031 0
M  V30 5473 H 531.65 1.91863 -3.5633 0
M  V30 5474 H 530.22 1.87416 -2.50188 0
M  V30 5475 H 529.44 -0.153992 -3.93899 0
M  V30 5476 H 530.728 0.26916 -5.08088 0
M  V30 5477 H 530.126 3.40064 -4.52076 0
M  V30 5478 H 528.683 3.60426 -5.4308 0
M  V30 5479 N 532.116 1.54067 -0.331816 0
M  V30 5480 C 533.063 2.24623 0.530372 0
M  V30 5481 C 534.033 1.24009 1.10503 0
M  V30 5482 O 535.218 1.52712 1.14384 0
M  V30 5483 C 532.358 3.01374 1.68129 0
M  V30 5484 C 531.471 4.16821 1.13507 0
M  V30 5485 C 530.606 4.81085 2.25234 0
M  V30 5486 C 529.645 5.88621 1.67903 0
M  V30 5487 N 528.782 6.46713 2.73326 0
M  V30 5488 H 533.622 2.97898 -0.0778607 0
M  V30 5489 H 531.159 1.47014 -0.0501965 0
M  V30 5490 H 533.117 3.44125 2.35868 0
M  V30 5491 H 531.747 2.30419 2.26069 0
M  V30 5492 H 530.799 3.78796 0.348979 0
M  V30 5493 H 532.111 4.94203 0.675633 0
M  V30 5494 H 531.265 5.26846 3.00862 0
M  V30 5495 H 530.004 4.03102 2.74518 0
M  V30 5496 H 529.009 5.42254 0.907773 0
M  V30 5497 H 530.234 6.68506 1.19487 0
M  V30 5498 H 528.18 5.71599 3.21886 0
M  V30 5499 H 528.097 7.19532 2.3197 0
M  V30 5500 H 529.365 6.97129 3.48758 0
M  V30 5501 N 533.594 0.0601682 1.57485 0
M  V30 5502 C 534.524 -0.90889 2.15085 0
M  V30 5503 C 535.505 -1.31838 1.07484 0
M  V30 5504 O 536.69 -1.3915 1.35466 0
M  V30 5505 C 533.82 -2.18059 2.7031 0
M  V30 5506 C 532.774 -1.91088 3.82974 0
M  V30 5507 C 532.1 -3.24789 4.24754 0
M  V30 5508 C 533.4 -1.22535 5.07723 0
M  V30 5509 H 535.094 -0.429093 2.96309 0
M  V30 5510 H 532.64 -0.204952 1.42534 0
M  V30 5511 H 534.593 -2.86258 3.09248 0
M  V30 5512 H 533.317 -2.6826 1.8629 0
M  V30 5513 H 531.976 -1.25297 3.44523 0
M  V30 5514 H 531.624 -3.72809 3.37672 0
M  V30 5515 H 531.324 -3.07538 5.00694 0
M  V30 5516 H 532.848 -3.94205 4.66299 0
M  V30 5517 H 534.262 -1.80783 5.4405 0
M  V30 5518 H 532.659 -1.1558 5.88864 0
M  V30 5519 H 533.729 -0.202692 4.84476 0
M  V30 5520 N 535.072 -1.5615 -0.213296 0
M  V30 5521 C 536.32 -1.79191 -0.934612 0
M  V30 5522 C 536.641 -0.630112 -1.84539 0
M  V30 5523 O 535.911 0.35257 -1.92701 0
M  V30 5524 H 534.491 -0.660937 -0.348097 0
M  V30 5525 H 537.153 -1.93618 -0.22317 0
M  V30 5526 H 536.249 -2.71656 -1.53654 0
M  V30 5527 N 536.55 0.480323 -1.50102 0
M  V30 5528 C 537.497 1.57946 -1.6829 0
M  V30 5529 C 538.467 1.57611 -0.524223 0
M  V30 5530 O 539.652 1.75282 -0.753709 0
M  V30 5531 C 536.792 2.95978 -1.77457 0
M  V30 5532 C 535.905 3.06173 -3.04766 0
M  V30 5533 C 535.04 4.35063 -3.04784 0
M  V30 5534 C 534.079 4.38966 -4.26586 0
M  V30 5535 N 533.216 5.59314 -4.24396 0
M  V30 5536 H 538.056 1.41743 -2.62131 0
M  V30 5537 H 535.593 0.689304 -1.2995 0
M  V30 5538 H 537.551 3.76011 -1.80752 0
M  V30 5539 H 536.181 3.10837 -0.870637 0
M  V30 5540 H 535.233 2.19071 -3.10986 0
M  V30 5541 H 536.545 3.04916 -3.9475 0
M  V30 5542 H 535.699 5.23436 -3.06757 0
M  V30 5543 H 534.438 4.38915 -2.12614 0
M  V30 5544 H 533.443 3.48992 -4.24835 0
M  V30 5545 H 534.668 4.36813 -5.19972 0
M  V30 5546 H 532.614 5.63969 -3.35074 0
M  V30 5547 H 532.531 5.5976 -5.08138 0
M  V30 5548 H 533.799 6.49837 -4.30502 0
M  V30 5549 N 538.028 1.39524 0.732853 0
M  V30 5550 C 539.305 1.27373 1.48444 0
M  V30 5551 C 539.685 -0.115725 2.10783 0
M  V30 5552 O 539.033 -1.12713 1.98766 0
M  V30 5553 C 539.243 2.39966 2.53412 0
M  V30 5554 C 540.591 2.79384 3.19733 0
M  V30 5555 O 541.615 2.39431 2.63725 0
M  V30 5556 O 540.474 3.48353 4.21085 0
M  V30 5557 H 537.568 0.499272 0.659285 0
M  V30 5558 H 540.114 1.51403 0.766496 0
M  V30 5559 H 538.886 3.32845 2.05742 0
M  V30 5560 H 538.509 2.17612 3.32762 0
M  V30 5561 N 539.506 -0.963266 1.24736 0
M  V30 5562 C 540.731 -1.74699 1.11781 0
M  V30 5563 C 541.156 -1.85267 -0.325258 0
M  V30 5564 O 540.514 -1.32681 -1.23553 0
M  V30 5565 C 540.562 -3.14322 1.76731 0
M  V30 5566 O 539.666 -3.99043 1.04109 0
M  V30 5567 H 539.007 -0.53684 0.390767 0
M  V30 5568 H 541.537 -1.20801 1.65131 0
M  V30 5569 H 541.547 -3.64824 1.82668 0
M  V30 5570 H 540.222 -3.05946 2.81726 0
M  V30 5571 H 538.799 -3.5752 1.05991 0
M  V30 5572 N 540.985 -1.06182 -1.16461 0
M  V30 5573 C 542.232 -0.777863 -1.86964 0
M  V30 5574 C 542.56 0.695602 -1.81636 0
M  V30 5575 O 541.815 1.52532 -1.22607 0
M  V30 5576 C 542.114 -1.21633 -3.36066 0
M  V30 5577 C 541.78 -2.69371 -3.61594 0
M  V30 5578 C 540.442 -3.09727 -3.6827 0
M  V30 5579 C 542.794 -3.64791 -3.7226 0
M  V30 5580 C 540.122 -4.44345 -3.83112 0
M  V30 5581 C 542.474 -4.99155 -3.88623 0
M  V30 5582 C 541.138 -5.39149 -3.93541 0
M  V30 5583 H 540.408 -0.28464 -0.68415 0
M  V30 5584 H 543.055 -1.33071 -1.37711 0
M  V30 5585 H 541.36 -0.582651 -3.87443 0
M  V30 5586 H 543.057 -0.973682 -3.88999 0
M  V30 5587 H 539.647 -2.37124 -3.57029 0
M  V30 5588 H 543.831 -3.34746 -3.66413 0
M  V30 5589 H 539.087 -4.74819 -3.85172 0
M  V30 5590 H 543.261 -5.72976 -3.95817 0
M  V30 5591 H 540.888 -6.43464 -4.04794 0
M  V30 5592 N 542.463 1.3308 -0.844243 0
M  V30 5593 C 543.874 1.7992 -0.498566 0
M  V30 5594 C 544.225 1.69808 0.982834 0
M  V30 5595 O 543.35 1.25051 1.7661 0
M  V30 5596 C 543.945 3.26677 -0.898204 0
M  V30 5597 C 542.504 3.71513 -0.604583 0
M  V30 5598 C 541.651 2.54393 -1.10362 0
M  V30 5599 H 544.602 1.20526 -1.03244 0
M  V30 5600 H 544.623 3.79918 -0.21039 0
M  V30 5601 H 544.135 3.34004 -1.97643 0
M  V30 5602 H 542.236 3.69708 0.46335 0
M  V30 5603 H 542.349 4.64755 -1.16358 0
M  V30 5604 H 540.713 2.49246 -0.524273 0
M  V30 5605 H 541.496 2.6448 -2.18873 0
M  V30 5606 N 543.941 0.601185 1.45683 0
M  V30 5607 C 545.169 0.100054 2.06658 0
M  V30 5608 C 545.584 -1.21285 1.44691 0
M  V30 5609 O 544.941 -1.73735 0.558772 0
M  V30 5610 C 544.992 -0.0528579 3.61461 0
M  V30 5611 O 544.713 1.20809 4.21114 0
M  V30 5612 C 546.214 -0.586193 4.39407 0
M  V30 5613 H 543.434 0.065905 0.667756 0
M  V30 5614 H 545.978 0.827101 1.87028 0
M  V30 5615 H 544.133 -0.730203 3.80456 0
M  V30 5616 H 544.547 1.03368 5.14213 0
M  V30 5617 H 546.021 -0.642297 5.4825 0
M  V30 5618 H 546.498 -1.60713 4.0874 0
M  V30 5619 H 547.104 0.0568935 4.25262 0
M  V30 5620 N 545.419 -1.53889 0.339982 0
M  V30 5621 C 546.351 -2.22435 -0.55275 0
M  V30 5622 C 547.364 -1.22975 -1.06681 0
M  V30 5623 O 548.553 -1.49351 -0.977575 0
M  V30 5624 C 545.653 -2.8882 -1.77302 0
M  V30 5625 C 544.826 -4.14563 -1.39486 0
M  V30 5626 C 543.885 -4.64391 -2.47442 0
M  V30 5627 O 542.911 -5.28687 -2.10899 0
M  V30 5628 N 544.113 -4.40015 -3.78639 0
M  V30 5629 H 546.878 -2.9968 0.0342669 0
M  V30 5630 H 544.439 -1.61068 0.16394 0
M  V30 5631 H 546.431 -3.19072 -2.48948 0
M  V30 5632 H 545.001 -2.15182 -2.26749 0
M  V30 5633 H 544.221 -3.90896 -0.509321 0
M  V30 5634 H 545.509 -4.96362 -1.11813 0
M  V30 5635 H 544.907 -3.88586 -4.11118 0
M  V30 5636 H 543.464 -4.74881 -4.46465 0
M  V30 5637 N 546.897 -0.0685191 -1.57451 0
M  V30 5638 C 548.174 0.642167 -1.84758 0
M  V30 5639 C 548.554 1.87991 -0.960344 0
M  V30 5640 O 547.902 2.28485 -0.0257894 0
M  V30 5641 C 548.112 0.982946 -3.34872 0
M  V30 5642 C 549.46 1.35784 -4.02303 0
M  V30 5643 O 550.484 1.07477 -3.39598 0
M  V30 5644 O 549.343 1.88681 -5.12895 0
M  V30 5645 H 546.437 0.318625 -0.763156 0
M  V30 5646 H 548.983 -0.0992015 -1.6941 0
M  V30 5647 H 547.755 0.10372 -3.91163 0
M  V30 5648 H 547.378 1.78119 -3.55471 0
M  V30 5649 N 548.375 1.56261 0.205012 0
M  V30 5650 C 549.305 1.96779 1.257 0
M  V30 5651 C 550.286 0.838309 1.48008 0
M  V30 5652 O 551.471 1.10189 1.59913 0
M  V30 5653 C 548.601 2.29876 2.60335 0
M  V30 5654 C 547.555 3.45469 2.52656 0
M  V30 5655 C 546.881 3.64215 3.91473 0
M  V30 5656 C 548.181 4.79954 2.06014 0
M  V30 5657 H 549.875 2.84904 0.920338 0
M  V30 5658 H 547.421 1.37072 0.441277 0
M  V30 5659 H 549.374 2.56814 3.34102 0
M  V30 5660 H 548.098 1.38622 2.95722 0
M  V30 5661 H 546.757 3.18605 1.81345 0
M  V30 5662 H 546.405 2.70309 4.24196 0
M  V30 5663 H 546.105 4.41973 3.87213 0
M  V30 5664 H 547.629 3.93519 4.66878 0
M  V30 5665 H 549.043 5.05989 2.69533 0
M  V30 5666 H 547.44 5.61111 2.12777 0
M  V30 5667 H 548.51 4.74201 1.01297 0
M  V30 5668 N 549.853 -0.472356 1.50355 0
M  V30 5669 C 551.081 -1.24784 1.65035 0
M  V30 5670 C 551.496 -1.85837 0.333176 0
M  V30 5671 O 550.853 -1.69168 -0.68472 0
M  V30 5672 C 550.904 -2.35747 2.74054 0
M  V30 5673 O 550.625 -1.77197 4.00665 0
M  V30 5674 C 552.126 -3.26645 2.99696 0
M  V30 5675 H 549.346 -0.377432 0.554785 0
M  V30 5676 H 551.89 -0.563962 1.9657 0
M  V30 5677 H 550.045 -2.99912 2.45217 0
M  V30 5678 H 550.459 -2.5026 4.60945 0
M  V30 5679 H 551.933 -4.00718 3.79644 0
M  V30 5680 H 552.41 -3.8535 2.10718 0
M  V30 5681 H 553.016 -2.68218 3.3006 0
M  V30 5682 N 551.331 -1.39911 -0.725443 0
M  V30 5683 C 552.742 -1.33599 -1.30415 0
M  V30 5684 C 553.093 -0.00481792 -1.96199 0
M  V30 5685 O 552.218 0.897275 -1.96921 0
M  V30 5686 C 552.813 -2.41965 -2.37146 0
M  V30 5687 C 551.372 -2.39144 -2.90667 0
M  V30 5688 C 550.519 -2.23355 -1.64341 0
M  V30 5689 H 553.47 -1.4986 -0.522267 0
M  V30 5690 H 553.491 -2.09304 -3.17761 0
M  V30 5691 H 553.003 -3.38837 -1.89238 0
M  V30 5692 H 551.104 -1.4594 -3.4283 0
M  V30 5693 H 551.217 -3.34362 -3.43131 0
M  V30 5694 H 549.581 -1.70696 -1.89037 0
M  V30 5695 H 550.364 -3.2221 -1.18471 0
M  V30 5696 N 552.809 0.956637 -1.25245 0
M  V30 5697 C 553.739 2.07058 -1.07931 0
M  V30 5698 C 554.72 1.70096 0.0110361 0
M  V30 5699 O 555.905 1.93555 -0.158121 0
M  V30 5700 C 553.035 3.40272 -0.695124 0
M  V30 5701 C 551.989 3.91235 -1.73549 0
M  V30 5702 C 551.315 5.20921 -1.20604 0
M  V30 5703 C 552.615 4.17837 -3.13385 0
M  V30 5704 H 554.309 2.218 -2.01109 0
M  V30 5705 H 551.855 1.06581 -0.968326 0
M  V30 5706 H 553.808 4.1765 -0.560949 0
M  V30 5707 H 552.532 3.25462 0.272355 0
M  V30 5708 H 551.191 3.16025 -1.85807 0
M  V30 5709 H 550.839 5.02479 -0.228846 0
M  V30 5710 H 550.539 5.55987 -1.90136 0
M  V30 5711 H 552.063 6.00897 -1.08421 0
M  V30 5712 H 553.477 4.8588 -3.04292 0
M  V30 5713 H 551.874 4.64154 -3.80369 0
M  V30 5714 H 552.944 3.2419 -3.60595 0
M  V30 5715 N 554.287 1.06798 1.15896 0
M  V30 5716 C 555.219 0.641263 2.20046 0
M  V30 5717 C 556.232 -0.303355 1.59949 0
M  V30 5718 O 557.421 -0.0935478 1.78255 0
M  V30 5719 C 554.521 -0.0794029 3.38807 0
M  V30 5720 C 553.694 0.879986 4.28457 0
M  V30 5721 C 552.753 0.197638 5.25829 0
M  V30 5722 O 551.779 0.836913 5.63014 0
M  V30 5723 N 552.981 -1.05886 5.70761 0
M  V30 5724 H 555.746 1.53718 2.57276 0
M  V30 5725 H 553.307 0.951951 1.30956 0
M  V30 5726 H 555.299 -0.546418 4.00994 0
M  V30 5727 H 553.869 -0.877193 3.0004 0
M  V30 5728 H 553.089 1.52625 3.63454 0
M  V30 5729 H 554.377 1.53065 4.8523 0
M  V30 5730 H 553.775 -1.59828 5.42652 0
M  V30 5731 H 552.332 -1.46965 6.35015 0
M  V30 5732 N 555.766 -1.3263 0.851289 0
M  V30 5733 C 556.714 -2.30882 0.282202 0
M  V30 5734 C 557.708 -1.58697 -0.592589 0
M  V30 5735 O 558.914 -1.73461 -0.480768 0
M  V30 5736 H 555.289 -0.748492 0.0725487 0
M  V30 5737 H 557.26 -2.76374 1.12516 0
M  V30 5738 C 556.009 -3.43828 -0.517449 0
M  V30 5739 H 555.332 -3.99532 0.146392 0
M  V30 5740 H 556.772 -4.1474 -0.88128 0
M  V30 5741 C 555.231 -2.90786 -1.70133 0
M  V30 5742 O 555.761 -2.88 -2.80034 0
M  V30 5743 N 553.967 -2.4723 -1.52728 0
M  V30 5744 H 553.514 -2.49695 -0.633257 0
M  V30 5745 H 553.472 -2.12094 -2.32085 0
M  V30 5746 N 557.244 -0.608902 -1.45362 0
M  V30 5747 C 558.49 -0.104762 -2.02529 0
M  V30 5748 C 558.823 1.26191 -1.47613 0
M  V30 5749 O 558.098 1.8327 -0.65134 0
M  V30 5750 C 558.381 -0.0672661 -3.60037 0
M  V30 5751 C 558.234 -1.4647 -4.25284 0
M  V30 5752 C 559.553 0.619877 -4.35713 0
M  V30 5753 H 556.672 -0.0395438 -0.735938 0
M  V30 5754 H 559.314 -0.781126 -1.73201 0
M  V30 5755 H 557.464 0.50871 -3.85155 0
M  V30 5756 H 559.136 -2.08785 -4.11347 0
M  V30 5757 H 557.379 -2.02502 -3.83634 0
M  V30 5758 H 558.05 -1.39069 -5.34195 0
M  V30 5759 H 560.526 0.130297 -4.15896 0
M  V30 5760 H 559.402 0.615224 -5.45441 0
M  V30 5761 H 559.663 1.68621 -4.0868 0
M  V30 5762 N 558.722 1.53707 -0.348139 0
M  V30 5763 C 559.962 2.02899 0.247254 0
M  V30 5764 C 560.326 1.23033 1.47401 0
M  V30 5765 O 561.527 1.62146 2.14388 0
M  V30 5766 C 559.798 3.53156 0.549151 0
M  V30 5767 S 561.357 4.24247 1.1207 0
M  V30 5768 H 558.175 0.707213 0.0732894 0
M  V30 5769 H 560.777 1.89338 -0.486965 0
M  V30 5770 H 559.481 4.08893 -0.351435 0
M  V30 5771 H 559.012 3.70845 1.31291 0
M  V30 5772 H 561.027 4.33958 2.40613 0
M  V30 5773 N 560.2 0.0768682 1.57412 0
M  V30 5774 C 561.447 -0.591085 1.93681 0
M  V30 5775 C 561.775 -1.69311 0.957286 0
M  V30 5776 O 561.03 -1.95682 -0.0262428 0
M  V30 5777 C 561.329 -1.20268 3.36557 0
M  V30 5778 C 560.995 -0.226286 4.50332 0
M  V30 5779 C 559.657 0.0423142 4.81181 0
M  V30 5780 C 562.009 0.441415 5.19327 0
M  V30 5781 C 559.337 0.985616 5.78362 0
M  V30 5782 C 561.689 1.37307 6.17519 0
M  V30 5783 C 560.353 1.65009 6.46783 0
M  V30 5784 H 559.623 -0.216293 0.70873 0
M  V30 5785 H 562.27 0.148824 1.90921 0
M  V30 5786 H 560.575 -2.01844 3.35807 0
M  V30 5787 H 562.272 -1.72688 3.61911 0
M  V30 5788 H 558.862 -0.445821 4.26275 0
M  V30 5789 H 563.046 0.247023 4.95685 0
M  V30 5790 H 558.302 1.20743 5.99359 0
M  V30 5791 H 562.476 1.89637 6.70083 0
M  V30 5792 H 560.103 2.38263 7.21897 0
M  V30 5793 N 561.678 -1.56367 -0.196722 0
M  V30 5794 C 562.924 -1.81698 -0.914182 0
M  V30 5795 C 563.279 -0.65367 -1.80956 0
M  V30 5796 O 562.572 0.351224 -1.88353 0
M  V30 5797 C 562.766 -3.10663 -1.767 0
M  V30 5798 C 562.595 -4.39428 -0.955689 0
M  V30 5799 C 561.365 -5.01221 -0.64076 0
M  V30 5800 C 563.563 -5.1337 -0.309165 0
M  V30 5801 N 561.545 -6.13608 0.189358 0
M  V30 5802 C 562.916 -6.18815 0.383225 0
M  V30 5803 C 564.971 -4.97393 -0.224726 0
M  V30 5804 C 563.674 -7.10015 1.15201 0
M  V30 5805 C 565.7 -5.89014 0.530658 0
M  V30 5806 C 565.062 -6.93903 1.2115 0
M  V30 5807 H 561.161 -0.716203 -0.31397 0
M  V30 5808 H 563.745 -1.93838 -0.18304 0
M  V30 5809 H 561.916 -2.99762 -2.46976 0
M  V30 5810 H 563.648 -3.24088 -2.42382 0
M  V30 5811 H 560.403 -4.63669 -0.96479 0
M  V30 5812 H 560.827 -6.74389 0.593979 0
M  V30 5813 H 565.469 -4.16331 -0.736754 0
M  V30 5814 H 563.187 -7.9054 1.67547 0
M  V30 5815 H 566.773 -5.78726 0.597326 0
M  V30 5816 H 565.653 -7.63576 1.78665 0
M  V30 5817 N 563.156 0.464375 -1.50603 0
M  V30 5818 C 564.384 1.23907 -1.65695 0
M  V30 5819 C 564.799 1.85658 -0.343027 0
M  V30 5820 O 564.156 1.69529 0.675739 0
M  V30 5821 C 564.207 2.3429 -2.75301 0
M  V30 5822 O 563.928 1.7507 -4.01599 0
M  V30 5823 C 565.429 3.25051 -3.01424 0
M  V30 5824 H 562.649 0.374485 -0.556778 0
M  V30 5825 H 565.193 0.55353 -1.96866 0
M  V30 5826 H 563.348 2.98607 -2.46804 0
M  V30 5827 H 563.762 2.47812 -4.62266 0
M  V30 5828 H 565.236 3.98699 -3.81763 0
M  V30 5829 H 565.713 3.84227 -2.12758 0
M  V30 5830 H 566.319 2.66463 -3.31477 0
M  V30 5831 N 564.634 1.40294 0.718013 0
M  V30 5832 C 565.581 1.40367 1.8321 0
M  V30 5833 C 566.551 0.260952 1.64037 0
M  V30 5834 O 567.736 0.458648 1.85205 0
M  V30 5835 C 564.876 1.26965 3.20895 0
M  V30 5836 C 563.989 2.50922 3.51656 0
M  V30 5837 C 563.124 2.29981 4.78834 0
M  V30 5838 C 562.163 3.49527 5.02491 0
M  V30 5839 N 561.3 3.27796 6.20882 0
M  V30 5840 H 566.14 2.35593 1.82482 0
M  V30 5841 H 563.677 1.17012 0.891444 0
M  V30 5842 H 565.635 1.17202 4.00399 0
M  V30 5843 H 564.265 0.353591 3.20858 0
M  V30 5844 H 563.317 2.71223 2.66725 0
M  V30 5845 H 564.629 3.39913 3.65048 0
M  V30 5846 H 563.783 2.17558 5.66351 0
M  V30 5847 H 562.522 1.38411 4.67647 0
M  V30 5848 H 561.527 3.6243 4.1343 0
M  V30 5849 H 562.752 4.42021 5.15553 0
M  V30 5850 H 560.698 2.38906 6.1095 0
M  V30 5851 H 560.615 4.10351 6.34939 0
M  V30 5852 H 561.883 3.19101 7.11193 0
M  V30 5853 N 566.112 -0.949982 1.2575 0
M  V30 5854 C 567.34 -1.72972 1.13527 0
M  V30 5855 C 567.755 -1.8623 -0.310453 0
M  V30 5856 O 567.112 -1.36336 -1.2132 0
M  V30 5857 C 567.163 -3.14108 1.78936 0
M  V30 5858 O 566.884 -3.01493 3.17858 0
M  V30 5859 C 568.385 -4.08338 1.72554 0
M  V30 5860 H 565.605 -0.541864 0.395758 0
M  V30 5861 H 568.149 -1.19151 1.66202 0
M  V30 5862 H 566.304 -3.64858 1.30221 0
M  V30 5863 H 566.718 -3.90559 3.50092 0
M  V30 5864 H 568.192 -5.04963 2.22973 0
M  V30 5865 H 568.669 -4.33742 0.690251 0
M  V30 5866 H 569.275 -3.63506 2.2078 0
M  V30 5867 N 567.59 -1.07411 -1.15328 0
M  V30 5868 C 569.006 -0.799759 -1.38116 0
M  V30 5869 C 569.206 0.59572 -1.92493 0
M  V30 5870 O 568.262 1.35433 -2.13106 0
M  V30 5871 C 569.575 -1.87407 -2.35158 0
M  V30 5872 C 571.123 -1.89889 -2.48819 0
M  V30 5873 C 571.598 -2.96406 -3.49153 0
M  V30 5874 N 573.089 -2.95512 -3.56689 0
M  V30 5875 C 573.824 -3.74575 -4.34144 0
M  V30 5876 N 573.32 -4.63488 -5.14928 0
M  V30 5877 N 575.113 -3.62919 -4.29239 0
M  V30 5878 H 567.264 -1.97411 -0.78374 0
M  V30 5879 H 569.527 -0.856113 -0.407154 0
M  V30 5880 H 569.233 -2.8768 -2.0232 0
M  V30 5881 H 569.107 -1.73471 -3.34944 0
M  V30 5882 H 571.494 -0.902677 -2.80955 0
M  V30 5883 H 571.575 -2.07904 -1.49029 0
M  V30 5884 H 571.219 -3.96227 -3.17752 0
M  V30 5885 H 571.149 -2.75638 -4.48699 0
M  V30 5886 H 573.64 -2.31061 -2.99031 0
M  V30 5887 H 573.953 -5.20445 -5.71276 0
M  V30 5888 H 572.298 -4.67537 -5.14232 0
M  V30 5889 H 575.489 -2.92833 -3.65194 0
M  V30 5890 H 575.662 -4.24777 -4.89355 0
M  V30 5891 N 569.068 1.32177 -0.85831 0
M  V30 5892 C 570.031 2.27086 -0.310588 0
M  V30 5893 C 571.031 1.51751 0.531806 0
M  V30 5894 O 572.221 1.70794 0.34279 0
M  V30 5895 C 569.353 3.36266 0.560179 0
M  V30 5896 H 570.546 2.77045 -1.1483 0
M  V30 5897 H 568.099 1.42911 -0.632942 0
M  V30 5898 H 568.834 2.9158 1.41956 0
M  V30 5899 H 568.619 3.92077 -0.0428473 0
M  V30 5900 H 570.109 4.06974 0.936056 0
M  V30 5901 N 570.547 0.616602 1.45037 0
M  V30 5902 C 571.772 0.120192 2.07051 0
M  V30 5903 C 572.197 -1.19008 1.45666 0
M  V30 5904 O 571.555 -1.7267 0.552692 0
M  V30 5905 C 571.603 0.00354901 3.606 0
M  V30 5906 O 570.707 -1.04431 3.98958 0
M  V30 5907 H 570.048 0.0781599 0.659384 0
M  V30 5908 H 572.578 0.849167 1.86146 0
M  V30 5909 H 572.588 -0.191754 4.07549 0
M  V30 5910 H 571.263 0.960239 4.04663 0
M  V30 5911 H 569.84 -0.824749 3.63665 0
M  V30 5912 N 572.025 -1.5352 0.356285 0
M  V30 5913 C 573.272 -2.01117 -0.236303 0
M  V30 5914 C 573.6 -1.24381 -1.49531 0
M  V30 5915 O 572.855 -0.323057 -1.93015 0
M  V30 5916 C 573.154 -3.52607 -0.583369 0
M  V30 5917 C 572.82 -4.47151 0.58023 0
M  V30 5918 C 571.482 -4.72718 0.899528 0
M  V30 5919 C 573.834 -5.03137 1.36024 0
M  V30 5920 C 571.162 -5.51523 2.00098 0
M  V30 5921 C 573.514 -5.83145 2.45204 0
M  V30 5922 C 572.178 -6.07001 2.77679 0
M  V30 5923 H 571.448 -0.735938 -0.0864695 0
M  V30 5924 H 574.095 -1.85209 0.48683 0
M  V30 5925 H 572.4 -3.66413 -1.38739 0
M  V30 5926 H 574.097 -3.86901 -1.05397 0
M  V30 5927 H 570.687 -4.27394 0.321322 0
M  V30 5928 H 574.871 -4.83339 1.12682 0
M  V30 5929 H 570.127 -5.68229 2.25668 0
M  V30 5930 H 574.301 -6.25537 3.06067 0
M  V30 5931 H 571.928 -6.67851 3.63151 0
M  V30 5932 N 573.503 -0.0852151 -1.57369 0
M  V30 5933 C 574.728 0.592872 -1.98746 0
M  V30 5934 C 575.153 1.61538 -0.963689 0
M  V30 5935 O 574.511 1.81168 0.069071 0
M  V30 5936 C 574.559 1.22599 -3.39119 0
M  V30 5937 O 573.663 2.34185 -3.39457 0
M  V30 5938 H 573.004 0.151314 -0.646529 0
M  V30 5939 H 575.534 -0.163703 -2.03944 0
M  V30 5940 H 575.544 1.56965 -3.76598 0
M  V30 5941 H 574.219 0.476831 -4.13158 0
M  V30 5942 H 572.796 2.01512 -3.13763 0
M  V30 5943 N 574.981 1.5647 0.188427 0
M  V30 5944 C 576.228 1.81013 0.907779 0
M  V30 5945 C 576.556 0.65953 1.82977 0
M  V30 5946 O 575.811 -0.354308 1.92466 0
M  V30 5947 C 576.11 3.11596 1.7505 0
M  V30 5948 C 575.776 4.40145 0.978922 0
M  V30 5949 C 574.438 4.75066 0.765912 0
M  V30 5950 C 576.79 5.19369 0.436498 0
M  V30 5951 C 574.118 5.867 -0.00089868 0
M  V30 5952 C 576.47 6.31805 -0.317136 0
M  V30 5953 C 575.134 6.65303 -0.541103 0
M  V30 5954 H 574.404 0.662373 0.33218 0
M  V30 5955 H 577.051 1.9071 0.173732 0
M  V30 5956 H 575.356 2.97165 2.55343 0
M  V30 5957 H 577.053 3.27793 2.30983 0
M  V30 5958 H 573.643 4.12745 1.15497 0
M  V30 5959 H 577.827 4.92799 0.588449 0
M  V30 5960 H 573.083 6.11122 -0.184329 0
M  V30 5961 H 577.257 6.92406 -0.744788 0
M  V30 5962 H 574.884 7.51646 -1.13718 0
M  V30 5963 N 576.459 -0.456382 1.50847 0
M  V30 5964 C 577.409 -1.55045 1.67168 0
M  V30 5965 C 578.393 -1.52061 0.525958 0
M  V30 5966 O 579.585 -1.58836 0.781036 0
M  V30 5967 C 576.714 -2.93386 1.78268 0
M  V30 5968 C 575.8 -3.01198 2.98564 0
M  V30 5969 N 576.191 -2.78792 4.22029 0
M  V30 5970 C 574.489 -3.32346 2.97426 0
M  V30 5971 C 575.19 -2.91953 5.03128 0
M  V30 5972 N 574.166 -3.22797 4.37382 0
M  V30 5973 H 577.968 -1.36444 2.60308 0
M  V30 5974 H 575.482 -0.663375 1.48233 0
M  V30 5975 H 577.479 -3.72071 1.88067 0
M  V30 5976 H 576.139 -3.13022 0.862965 0
M  V30 5977 H 577.15 -2.54087 4.51287 0
M  V30 5978 H 573.827 -3.57877 2.15012 0
M  V30 5979 H 575.217 -2.78745 6.11351 0
M  V30 5980 N 577.937 -1.40673 -0.710563 0
M  V30 5981 C 578.884 -1.41336 -1.82463 0
M  V30 5982 C 579.854 -0.269648 -1.63897 0
M  V30 5983 O 581.039 -0.468463 -1.8496 0
M  V30 5984 C 578.179 -1.28665 -3.20218 0
M  V30 5985 C 577.292 -2.52784 -3.5032 0
M  V30 5986 C 576.427 -2.32517 -4.77608 0
M  V30 5987 C 575.466 -3.52187 -5.0063 0
M  V30 5988 N 574.603 -3.31084 -6.19135 0
M  V30 5989 H 579.443 -2.36558 -1.8123 0
M  V30 5990 H 576.98 -1.17483 -0.885226 0
M  V30 5991 H 578.938 -1.19324 -3.99772 0
M  V30 5992 H 577.568 -0.370602 -3.20666 0
M  V30 5993 H 576.62 -2.72634 -2.65283 0
M  V30 5994 H 577.932 -3.41845 -3.63241 0
M  V30 5995 H 577.086 -2.20558 -5.65189 0
M  V30 5996 H 575.825 -1.40889 -4.66906 0
M  V30 5997 H 574.83 -3.64617 -4.11502 0
M  V30 5998 H 576.055 -4.44749 -5.13201 0
M  V30 5999 H 574.001 -2.42143 -6.09674 0
M  V30 6000 H 573.918 -4.13713 -6.32754 0
M  V30 6001 H 575.186 -3.22868 -7.0949 0
M  V30 6002 N 579.415 0.9433 -1.26252 0
M  V30 6003 C 580.362 2.0417 -1.07625 0
M  V30 6004 C 581.332 1.6609 0.0180738 0
M  V30 6005 O 582.517 1.90276 -0.141289 0
M  V30 6006 C 579.657 3.37653 -0.713043 0
M  V30 6007 C 578.77 3.88783 -1.8834 0
M  V30 6008 C 577.905 5.10642 -1.4635 0
M  V30 6009 C 576.944 5.54028 -2.60229 0
M  V30 6010 N 576.081 6.67092 -2.18936 0
M  V30 6011 H 580.921 2.19436 -2.01623 0
M  V30 6012 H 578.458 1.07519 -1.00389 0
M  V30 6013 H 580.416 4.14391 -0.483358 0
M  V30 6014 H 579.046 3.22241 0.18996 0
M  V30 6015 H 578.098 3.08464 -2.22608 0
M  V30 6016 H 579.41 4.16922 -2.73821 0
M  V30 6017 H 578.564 5.94832 -1.19414 0
M  V30 6018 H 577.303 4.84244 -0.579568 0
M  V30 6019 H 576.308 4.68396 -2.87898 0
M  V30 6020 H 577.533 5.82429 -3.49219 0
M  V30 6021 H 575.479 6.42381 -1.32974 0
M  V30 6022 H 575.396 6.94806 -2.97961 0
M  V30 6023 H 576.664 7.54662 -1.95206 0
M  V30 6024 N 580.893 1.08022 1.14757 0
M  V30 6025 C 581.84 0.706657 2.19716 0
M  V30 6026 C 582.81 -0.30525 1.63271 0
M  V30 6027 O 583.995 -0.19015 1.8985 0
M  V30 6028 C 581.135 0.117914 3.44898 0
M  V30 6029 C 580.248 1.18212 4.15512 0
M  V30 6030 C 579.383 0.557659 5.28265 0
M  V30 6031 C 578.422 1.60418 5.90705 0
M  V30 6032 N 577.559 1.0018 6.94916 0
M  V30 6033 H 582.399 1.60603 2.51019 0
M  V30 6034 H 579.936 0.802664 1.23271 0
M  V30 6035 H 581.894 -0.241112 4.16503 0
M  V30 6036 H 580.524 -0.744788 3.1409 0
M  V30 6037 H 579.576 1.65863 3.42335 0
M  V30 6038 H 580.888 1.97533 4.5802 0
M  V30 6039 H 580.042 0.146654 6.06523 0
M  V30 6040 H 578.781 -0.267249 4.86967 0
M  V30 6041 H 577.786 2.02489 5.11154 0
M  V30 6042 H 579.011 2.43149 6.34078 0
M  V30 6043 H 576.957 0.197917 6.55701 0
M  V30 6044 H 576.874 1.73216 7.35889 0
M  V30 6045 H 578.142 0.616523 7.77058 0
M  V30 6046 N 582.371 -1.3172 0.865308 0
M  V30 6047 C 583.62 -1.96145 0.470098 0
M  V30 6048 C 583.933 -1.69182 -0.981674 0
M  V30 6049 O 585.139 -2.27431 -1.48281 0
M  V30 6050 C 583.595 -3.51129 0.789732 0
M  V30 6051 C 583.203 -3.86938 2.25795 0
M  V30 6052 C 584.947 -4.2197 0.462765 0
M  V30 6053 C 582.854 -5.35012 2.52024 0
M  V30 6054 H 581.784 -0.734105 0.172065 0
M  V30 6055 H 584.435 -1.49959 1.05757 0
M  V30 6056 H 582.817 -3.95781 0.131571 0
M  V30 6057 H 583.991 -3.5326 2.95879 0
M  V30 6058 H 582.306 -3.29149 2.55049 0
M  V30 6059 H 584.903 -5.30904 0.636019 0
M  V30 6060 H 585.246 -4.12005 -0.59645 0
M  V30 6061 H 585.779 -3.82936 1.07727 0
M  V30 6062 H 582.518 -5.50008 3.56611 0
M  V30 6063 H 582.038 -5.70058 1.8653 0
M  V30 6064 H 583.717 -6.0222 2.36515 0
M  V30 6065 N 583.85 -0.624285 -1.44708 0
M  V30 6066 C 585.096 -0.126237 -2.02407 0
M  V30 6067 C 585.428 1.24618 -1.48943 0
M  V30 6068 O 584.704 1.82569 -0.670742 0
M  V30 6069 C 584.986 -0.105449 -3.59946 0
M  V30 6070 C 584.84 -1.50972 -4.23707 0
M  V30 6071 C 586.159 0.573629 -4.36346 0
M  V30 6072 H 583.278 -0.0473472 -0.735478 0
M  V30 6073 H 585.92 -0.799452 -1.72362 0
M  V30 6074 H 584.07 0.46783 -3.85673 0
M  V30 6075 H 585.742 -2.13136 -4.0911 0
M  V30 6076 H 583.985 -2.0656 -3.81465 0
M  V30 6077 H 584.656 -1.44727 -5.32689 0
M  V30 6078 H 587.132 0.0861787 -4.16011 0
M  V30 6079 H 586.008 0.557338 -5.46063 0
M  V30 6080 H 586.269 1.64276 -4.10446 0
M  V30 6081 N 585.328 1.53329 -0.364422 0
M  V30 6082 C 586.556 2.05657 0.226424 0
M  V30 6083 C 586.971 1.23801 1.42544 0
M  V30 6084 O 586.328 0.27839 1.80364 0
M  V30 6085 C 586.379 3.56125 0.621056 0
M  V30 6086 O 586.1 4.34879 -0.530304 0
M  V30 6087 C 587.601 4.24706 1.27041 0
M  V30 6088 H 584.821 0.669806 0.0400056 0
M  V30 6089 H 587.365 1.97714 -0.522456 0
M  V30 6090 H 585.52 3.64223 1.31985 0
M  V30 6091 H 585.934 5.24073 -0.211546 0
M  V30 6092 H 587.408 5.3131 1.49711 0
M  V30 6093 H 587.885 3.78354 2.23036 0
M  V30 6094 H 588.491 4.20858 0.613079 0
M  V30 6095 N 586.806 0.0935595 1.57322 0
M  V30 6096 C 588.083 -0.612692 1.85756 0
M  V30 6097 C 588.463 -1.86439 0.99013 0
M  V30 6098 O 587.811 -2.28416 0.0621362 0
M  V30 6099 C 588.021 -0.929547 3.36393 0
M  V30 6100 C 589.369 -1.29366 4.04413 0
M  V30 6101 O 590.393 -1.02061 3.41265 0
M  V30 6102 O 589.252 -1.80498 5.15832 0
M  V30 6103 H 586.346 -0.306444 0.768128 0
M  V30 6104 H 588.892 0.126141 1.69231 0
M  V30 6105 H 587.664 -0.0414766 3.91278 0
M  V30 6106 H 587.287 -1.72441 3.5826 0
M  V30 6107 N 588.284 -1.56567 -0.180126 0
M  V30 6108 C 589.53 -1.81761 -0.899497 0
M  V30 6109 C 589.863 -0.670015 -1.82276 0
M  V30 6110 O 589.138 0.328575 -1.91705 0
M  V30 6111 C 589.421 -3.17296 -1.7028 0
M  V30 6112 C 589.274 -4.4257 -0.803255 0
M  V30 6113 C 590.593 -3.49678 -2.67233 0
M  V30 6114 H 587.712 -0.661192 -0.325567 0
M  V30 6115 H 590.354 -1.89272 -0.16612 0
M  V30 6116 H 588.504 -3.11023 -2.32802 0
M  V30 6117 H 590.176 -4.60902 -0.191585 0
M  V30 6118 H 588.419 -4.33658 -0.110796 0
M  V30 6119 H 589.09 -5.33935 -1.40064 0
M  V30 6120 H 591.566 -3.56347 -2.14839 0
M  V30 6121 H 590.442 -4.45605 -3.20511 0
M  V30 6122 H 590.703 -2.73932 -3.47007 0
M  V30 6123 N 589.762 0.448376 -1.51087 0
M  V30 6124 C 590.987 1.22605 -1.6728 0
M  V30 6125 C 591.412 1.84524 -0.365045 0
M  V30 6126 O 590.77 1.6832 0.673642 0
M  V30 6127 C 590.818 2.29393 -2.78229 0
M  V30 6128 O 589.922 3.34608 -2.41063 0
M  V30 6129 H 589.263 0.359705 -0.558129 0
M  V30 6130 H 591.793 0.530903 -1.97592 0
M  V30 6131 H 591.803 2.74352 -3.01986 0
M  V30 6132 H 590.478 1.83701 -3.73131 0
M  V30 6133 H 589.055 2.95202 -2.27838 0
M  V30 6134 N 591.24 1.41047 0.703093 0
M  V30 6135 C 592.15 1.44645 1.84703 0
M  V30 6136 C 593.166 0.337778 1.7069 0
M  V30 6137 O 594.342 0.584327 1.92737 0
M  V30 6138 C 591.407 1.31928 3.20618 0
M  V30 6139 C 590.468 2.53047 3.46794 0
M  V30 6140 C 589.701 2.40927 4.76224 0
M  V30 6141 O 589.924 1.42978 5.5219 0
M  V30 6142 O 588.858 3.30543 5.03016 0
M  V30 6143 H 592.684 2.41139 1.84624 0
M  V30 6144 H 590.269 1.22504 0.855167 0
M  V30 6145 H 592.151 1.27092 4.01778 0
M  V30 6146 H 590.826 0.385469 3.21397 0
M  V30 6147 H 589.733 2.6346 2.65593 0
M  V30 6148 H 591.066 3.45231 3.50822 0
M  V30 6149 N 592.718 -0.936591 1.26751 0
M  V30 6150 C 593.964 -1.6858 1.12733 0
M  V30 6151 C 594.297 -1.91414 -0.327745 0
M  V30 6152 O 593.572 -1.49812 -1.24043 0
M  V30 6153 C 593.855 -3.05779 1.90187 0
M  V30 6154 C 593.708 -2.90242 3.43627 0
M  V30 6155 C 595.027 -4.0597 1.69931 0
M  V30 6156 H 592.146 -0.61182 0.410908 0
M  V30 6157 H 594.788 -1.08747 1.55801 0
M  V30 6158 H 592.938 -3.56853 1.53584 0
M  V30 6159 H 594.61 -2.46354 3.9001 0
M  V30 6160 H 592.853 -2.2577 3.70419 0
M  V30 6161 H 593.524 -3.87572 3.93055 0
M  V30 6162 H 596 -3.63874 2.0183 0
M  V30 6163 H 594.876 -4.99974 2.26534 0
M  V30 6164 H 595.137 -4.37369 0.64502 0
M  V30 6165 N 594.196 -1.08629 -1.14182 0
M  V30 6166 C 595.436 -0.826884 -1.86928 0
M  V30 6167 C 595.8 0.635808 -1.81167 0
M  V30 6168 O 597.001 1.0108 -2.49071 0
M  V30 6169 C 595.272 -1.33721 -3.31442 0
M  V30 6170 S 596.831 -1.21045 -4.21774 0
M  V30 6171 H 593.649 -0.299286 -0.644941 0
M  V30 6172 H 596.251 -1.38802 -1.37674 0
M  V30 6173 H 594.955 -2.39617 -3.33184 0
M  V30 6174 H 594.486 -0.771839 -3.85754 0
M  V30 6175 H 596.501 -0.156168 -4.95954 0
M  V30 6176 N 595.674 1.31259 -0.872281 0
M  V30 6177 C 596.899 2.0133 -0.498099 0
M  V30 6178 C 597.324 1.65031 0.902568 0
M  V30 6179 O 596.682 0.860164 1.59596 0
M  V30 6180 C 596.73 3.54411 -0.665205 0
M  V30 6181 O 595.834 4.11347 0.294473 0
M  V30 6182 H 595.175 0.633844 -0.197832 0
M  V30 6183 H 597.705 1.67402 -1.17633 0
M  V30 6184 H 597.715 4.04147 -0.559373 0
M  V30 6185 H 596.39 3.80171 -1.68651 0
M  V30 6186 H 594.967 3.72624 0.143403 0
M  V30 6187 N 597.152 0.631951 1.44375 0
M  V30 6188 C 598.401 0.134214 2.01253 0
M  V30 6189 C 598.714 -1.25171 1.50305 0
M  V30 6190 O 599.92 -1.8435 1.99317 0
M  V30 6191 C 598.376 0.189187 3.59402 0
M  V30 6192 C 597.984 1.57647 4.19346 0
M  V30 6193 C 599.728 -0.252044 4.23751 0
M  V30 6194 C 597.635 1.58651 5.69722 0
M  V30 6195 H 596.565 0.0464101 0.75257 0
M  V30 6196 H 599.216 0.790868 1.65582 0
M  V30 6197 H 597.598 -0.534584 3.92375 0
M  V30 6198 H 598.772 2.32389 3.97909 0
M  V30 6199 H 597.087 1.96186 3.67288 0
M  V30 6200 H 599.684 -0.264084 5.34047 0
M  V30 6201 H 600.027 -1.27951 3.96149 0
M  V30 6202 H 600.56 0.41926 3.95584 0
M  V30 6203 H 597.299 2.59237 6.0206 0
M  V30 6204 H 596.819 0.882039 5.93279 0
M  V30 6205 H 598.498 1.32082 6.33375 0
M  V30 6206 N 598.631 -1.53133 0.372548 0
M  V30 6207 C 599.861 -2.05476 -0.215202 0
M  V30 6208 C 600.269 -1.24534 -1.42436 0
M  V30 6209 O 599.612 -0.280771 -1.81542 0
M  V30 6210 C 599.674 -3.53276 -0.666068 0
M  V30 6211 C 599.338 -4.54998 0.427342 0
M  V30 6212 C 600.335 -5.03911 1.27944 0
M  V30 6213 C 598.02 -4.98828 0.589579 0
M  V30 6214 C 600.014 -5.95263 2.27905 0
M  V30 6215 C 597.701 -5.89984 1.59255 0
M  V30 6216 C 598.699 -6.38093 2.43571 0
M  V30 6217 O 598.387 -7.27451 3.42156 0
M  V30 6218 H 598.119 -0.67481 -0.040099 0
M  V30 6219 H 600.673 -1.98409 0.531312 0
M  V30 6220 H 598.903 -3.57904 -1.4643 0
M  V30 6221 H 600.592 -3.88442 -1.1776 0
M  V30 6222 H 601.358 -4.70792 1.16532 0
M  V30 6223 H 597.237 -4.60965 -0.0569456 0
M  V30 6224 H 600.781 -6.32736 2.93753 0
M  V30 6225 H 596.678 -6.22518 1.70711 0
M  V30 6226 H 597.446 -7.45467 3.37967 0
M  V30 6227 N 600.109 -0.101901 -1.5727 0
M  V30 6228 C 601.337 0.568392 -1.98939 0
M  V30 6229 C 601.752 1.61301 -0.981194 0
M  V30 6230 O 601.109 1.82478 0.0282869 0
M  V30 6231 C 601.16 1.20997 -3.40649 0
M  V30 6232 O 600.881 0.207129 -4.3761 0
M  V30 6233 C 602.382 1.96523 -3.97358 0
M  V30 6234 H 599.602 0.15186 -0.65359 0
M  V30 6235 H 602.146 -0.183198 -2.03678 0
M  V30 6236 H 600.301 1.91245 -3.36904 0
M  V30 6237 H 600.715 0.671071 -5.20189 0
M  V30 6238 H 602.189 2.36764 -4.98645 0
M  V30 6239 H 602.666 2.83376 -3.35552 0
M  V30 6240 H 603.272 1.31076 -4.04598 0
M  V30 6241 N 601.587 1.56661 0.17182 0
M  V30 6242 C 602.815 1.861 0.904115 0
M  V30 6243 C 603.23 0.687227 1.75848 0
M  V30 6244 O 602.587 -0.343671 1.79235 0
M  V30 6245 C 602.638 3.14568 1.78127 0
M  V30 6246 O 602.359 4.27422 0.961366 0
M  V30 6247 C 603.86 3.5735 2.62327 0
M  V30 6248 H 601.08 0.617445 0.262684 0
M  V30 6249 H 603.624 2.03775 0.172068 0
M  V30 6250 H 601.779 2.98721 2.46666 0
M  V30 6251 H 602.193 5.00725 1.56123 0
M  V30 6252 H 603.667 4.50144 3.1949 0
M  V30 6253 H 604.144 2.81445 3.37173 0
M  V30 6254 H 604.75 3.75807 1.99121 0
M  V30 6255 N 603.065 -0.440357 1.51323 0
M  V30 6256 C 604.028 -1.51679 1.71832 0
M  V30 6257 C 605.028 -1.49648 0.588386 0
M  V30 6258 O 606.218 -1.51724 0.855891 0
M  V30 6259 C 603.35 -2.91228 1.77199 0
M  V30 6260 H 604.543 -1.34799 2.67898 0
M  V30 6261 H 602.096 -0.66883 1.41267 0
M  V30 6262 H 602.831 -3.13516 0.829363 0
M  V30 6263 H 602.616 -2.94107 2.59314 0
M  V30 6264 H 604.106 -3.69321 1.94915 0
M  V30 6265 N 604.543 -1.41418 -0.695603 0
M  V30 6266 C 605.771 -1.4413 -1.48439 0
M  V30 6267 C 606.186 -0.0465698 -1.88743 0
M  V30 6268 O 605.543 0.934117 -1.56782 0
M  V30 6269 C 605.594 -2.34998 -2.74696 0
M  V30 6270 O 605.315 -3.69043 -2.36091 0
M  V30 6271 C 606.816 -2.46513 -3.68438 0
M  V30 6272 H 604.036 -0.490905 -0.457442 0
M  V30 6273 H 606.58 -1.85702 -0.856454 0
M  V30 6274 H 604.735 -1.96735 -3.33728 0
M  V30 6275 H 605.149 -4.17505 -3.17474 0
M  V30 6276 H 606.623 -3.1426 -4.53811 0
M  V30 6277 H 607.1 -1.49638 -4.12922 0
M  V30 6278 H 607.706 -2.85412 -3.1531 0
M  V30 6279 N 606.021 0.929856 -1.27246 0
M  V30 6280 C 607.246 1.71674 -1.16374 0
M  V30 6281 C 607.671 1.86064 0.276024 0
M  V30 6282 O 607.029 1.3591 1.19992 0
M  V30 6283 C 607.077 3.09526 -1.85003 0
M  V30 6284 O 606.181 3.96142 -1.14653 0
M  V30 6285 H 605.522 0.52629 -0.404863 0
M  V30 6286 H 608.052 1.16381 -1.68276 0
M  V30 6287 H 608.062 3.59852 -1.92276 0
M  V30 6288 H 606.737 2.98369 -2.89739 0
M  V30 6289 H 605.314 3.54584 -1.15433 0
M  V30 6290 N 607.499 1.09233 1.13605 0
M  V30 6291 C 608.429 0.751738 2.21068 0
M  V30 6292 C 609.41 -0.269688 1.67948 0
M  V30 6293 O 610.595 -0.13819 1.93708 0
M  V30 6294 C 607.725 0.16935 3.46887 0
M  V30 6295 C 606.679 1.12007 4.13084 0
M  V30 6296 C 606.005 0.399483 5.33206 0
M  V30 6297 C 607.305 2.46168 4.6065 0
M  V30 6298 H 608.999 1.65024 2.49815 0
M  V30 6299 H 606.545 0.794905 1.20072 0
M  V30 6300 H 608.498 -0.0809824 4.21322 0
M  V30 6301 H 607.222 -0.764335 3.1753 0
M  V30 6302 H 605.881 1.35564 3.40614 0
M  V30 6303 H 605.529 -0.538277 5.00112 0
M  V30 6304 H 605.229 1.03337 5.78442 0
M  V30 6305 H 606.753 0.157403 6.10397 0
M  V30 6306 H 608.167 2.26829 5.26518 0
M  V30 6307 H 606.564 3.05326 5.1662 0
M  V30 6308 H 607.634 3.07076 3.75276 0
M  V30 6309 N 608.977 -1.30795 0.87923 0
M  V30 6310 C 610.202 -2.01063 0.508769 0
M  V30 6311 C 610.627 -1.65508 -0.893803 0
M  V30 6312 O 609.985 -0.868616 -1.59138 0
M  V30 6313 C 610.033 -3.54054 0.683991 0
M  V30 6314 O 609.137 -4.11498 -0.272654 0
M  V30 6315 H 608.478 -0.632786 0.201191 0
M  V30 6316 H 611.008 -1.66776 1.18519 0
M  V30 6317 H 611.018 -4.03845 0.580798 0
M  V30 6318 H 609.693 -3.79271 1.70665 0
M  V30 6319 H 608.27 -3.72695 -0.12364 0
M  V30 6320 N 610.455 -0.639598 -1.44038 0
M  V30 6321 C 611.703 -0.147188 -2.01563 0
M  V30 6322 C 612.024 1.2384 -1.50628 0
M  V30 6323 O 611.294 1.82452 -0.713316 0
M  V30 6324 H 609.874 -0.0514231 -0.745228 0
M  V30 6325 H 612.536 -0.828205 -1.76428 0
M  V30 6326 H 611.632 -0.121358 -3.11864 0
M  V30 6327 N 611.933 1.52934 -0.380664 0
M  V30 6328 C 613.158 2.06363 0.207157 0
M  V30 6329 C 613.583 1.25122 1.4045 0
M  V30 6330 O 612.941 0.274062 1.79217 0
M  V30 6331 C 612.989 3.56162 0.563996 0
M  V30 6332 O 612.093 3.77552 1.65917 0
M  V30 6333 H 611.434 0.663468 0.0265859 0
M  V30 6334 H 613.964 1.9719 -0.545635 0
M  V30 6335 H 613.974 3.99453 0.830752 0
M  V30 6336 H 612.649 4.14732 -0.311427 0
M  V30 6337 H 611.226 3.46154 1.3868 0
M  V30 6338 N 613.412 0.11024 1.57214 0
M  V30 6339 C 614.342 -0.840002 2.17867 0
M  V30 6340 C 615.323 -1.28352 1.11624 0
M  V30 6341 O 616.508 -1.3477 1.39824 0
M  V30 6342 C 613.638 -2.09349 2.77111 0
M  V30 6343 C 612.592 -1.78807 3.8886 0
M  V30 6344 C 611.918 -3.11112 4.34872 0
M  V30 6345 C 613.218 -1.0632 5.11364 0
M  V30 6346 H 614.912 -0.334608 2.97524 0
M  V30 6347 H 612.458 -0.159502 1.43114 0
M  V30 6348 H 614.411 -2.76275 3.18198 0
M  V30 6349 H 613.135 -2.62198 1.9473 0
M  V30 6350 H 611.794 -1.14273 3.48335 0
M  V30 6351 H 611.442 -3.61877 3.49362 0
M  V30 6352 H 611.142 -2.91453 5.10224 0
M  V30 6353 H 612.666 -3.79171 4.78604 0
M  V30 6354 H 614.08 -1.63383 5.49526 0
M  V30 6355 H 612.477 -0.967876 5.92243 0
M  V30 6356 H 613.547 -0.0484569 4.84876 0
M  V30 6357 N 614.89 -1.56749 -0.16351 0
M  V30 6358 C 615.82 -2.00042 -1.20438 0
M  V30 6359 C 616.801 -0.877256 -1.45733 0
M  V30 6360 O 617.986 -1.1439 -1.56935 0
M  V30 6361 C 615.116 -2.36697 -2.54149 0
M  V30 6362 C 614.07 -3.52046 -2.43408 0
M  V30 6363 C 613.396 -3.74466 -3.81679 0
M  V30 6364 C 614.696 -4.85247 -1.93216 0
M  V30 6365 H 616.39 -2.87244 -0.844477 0
M  V30 6366 H 613.936 -1.38194 -0.40478 0
M  V30 6367 H 615.889 -2.65582 -3.27176 0
M  V30 6368 H 614.613 -1.46414 -2.91943 0
M  V30 6369 H 613.272 -3.23301 -1.72834 0
M  V30 6370 H 612.92 -2.81461 -4.1688 0
M  V30 6371 H 612.62 -4.52084 -3.75359 0
M  V30 6372 H 614.144 -4.0576 -4.5628 0
M  V30 6373 H 615.558 -5.12957 -2.56023 0
M  V30 6374 H 613.955 -5.66556 -1.97825 0
M  V30 6375 H 615.025 -4.7672 -0.88689 0
M  V30 6376 N 616.368 0.432326 -1.51554 0
M  V30 6377 C 617.593 1.20824 -1.68571 0
M  V30 6378 C 618.018 1.84126 -0.384596 0
M  V30 6379 O 617.376 1.69025 0.655751 0
M  V30 6380 C 617.424 2.26429 -2.80646 0
M  V30 6381 O 616.528 3.32032 -2.44598 0
M  V30 6382 H 615.869 0.353765 -0.561913 0
M  V30 6383 H 618.399 0.509916 -1.98144 0
M  V30 6384 H 618.409 2.71133 -3.04878 0
M  V30 6385 H 617.084 1.79733 -3.75058 0
M  V30 6386 H 615.661 2.92769 -2.30956 0
M  V30 6387 N 617.846 1.41785 0.688094 0
M  V30 6388 C 618.756 1.46596 1.83158 0
M  V30 6389 C 619.772 0.355862 1.70322 0
M  V30 6390 O 620.948 0.604737 1.92106 0
M  V30 6391 C 618.013 1.35322 3.192 0
M  V30 6392 C 617.074 2.56711 3.4409 0
M  V30 6393 C 616.307 2.45965 4.73642 0
M  V30 6394 O 616.53 1.48827 5.50642 0
M  V30 6395 O 615.464 3.35859 4.99482 0
M  V30 6396 H 619.29 2.43083 1.82056 0
M  V30 6397 H 616.875 1.23404 0.842126 0
M  V30 6398 H 618.757 1.31347 4.00407 0
M  V30 6399 H 617.432 0.419536 3.2097 0
M  V30 6400 H 616.339 2.66262 2.62784 0
M  V30 6401 H 617.672 3.48933 3.47141 0
M  V30 6402 N 619.324 -0.923095 1.27737 0
M  V30 6403 C 620.564 -1.6858 1.15586 0
M  V30 6404 C 620.928 -1.89758 -0.292562 0
M  V30 6405 O 622.129 -2.6339 -0.536583 0
M  V30 6406 C 620.4 -3.01275 1.92271 0
M  V30 6407 S 621.959 -3.924 1.96387 0
M  V30 6408 H 618.777 -0.579069 0.412554 0
M  V30 6409 H 621.379 -1.09866 1.61709 0
M  V30 6410 H 620.083 -2.83556 2.96689 0
M  V30 6411 H 619.614 -3.6504 1.46661 0
M  V30 6412 H 621.629 -4.84667 1.06361 0
M  V30 6413 N 620.802 -1.09834 -1.13024 0
M  V30 6414 C 622.027 -0.85909 -1.88771 0
M  V30 6415 C 622.452 0.584402 -1.78791 0
M  V30 6416 O 621.81 1.41101 -1.13842 0
M  V30 6417 C 621.858 -1.30427 -3.36186 0
M  V30 6418 O 620.962 -0.465368 -4.09766 0
M  V30 6419 H 620.303 -0.310786 -0.586778 0
M  V30 6420 H 622.833 -1.46355 -1.42973 0
M  V30 6421 H 622.843 -1.2915 -3.8702 0
M  V30 6422 H 621.518 -2.3555 -3.42767 0
M  V30 6423 H 620.095 -0.542814 -3.68928 0
M  V30 6424 N 622.28 1.30327 -0.886154 0
M  V30 6425 C 623.228 2.30052 -0.343317 0
M  V30 6426 C 624.222 1.60212 0.550305 0
M  V30 6427 O 625.428 1.74674 0.434609 0
M  V30 6428 H 621.803 0.746306 -0.0923681 0
M  V30 6429 H 623.774 2.73294 -1.19804 0
M  V30 6430 C 622.523 3.45079 0.426107 0
M  V30 6431 H 621.846 3.99003 -0.25227 0
M  V30 6432 H 623.286 4.16931 0.771009 0
M  V30 6433 C 621.745 2.95195 1.62363 0
M  V30 6434 O 622.275 2.95323 2.723 0
M  V30 6435 N 620.481 2.51192 1.4612 0
M  V30 6436 H 620.028 2.51286 0.566832 0
M  V30 6437 H 619.986 2.18173 2.2638 0
M  V30 6438 N 623.758 0.647228 1.43697 0
M  V30 6439 C 625.174 0.314256 1.56476 0
M  V30 6440 C 625.374 -1.18191 1.63196 0
M  V30 6441 O 624.43 -1.96655 1.58376 0
M  V30 6442 C 625.743 1.02034 2.82859 0
M  V30 6443 C 627.291 1.00002 2.96595 0
M  V30 6444 C 627.766 1.68689 4.25803 0
M  V30 6445 N 629.257 1.65424 4.32654 0
M  V30 6446 C 629.992 2.1545 5.31384 0
M  V30 6447 N 629.488 2.73738 6.36427 0
M  V30 6448 N 631.281 2.05985 5.22998 0
M  V30 6449 H 623.432 1.61821 1.37578 0
M  V30 6450 H 625.695 0.680184 0.660344 0
M  V30 6451 H 625.401 2.07542 2.83935 0
M  V30 6452 H 625.275 0.568146 3.72897 0
M  V30 6453 H 627.662 -0.0466319 2.95063 0
M  V30 6454 H 627.743 1.49086 2.07863 0
M  V30 6455 H 627.387 2.73308 4.28095 0
M  V30 6456 H 627.317 1.17076 5.13421 0
M  V30 6457 H 629.808 1.22884 3.57363 0
M  V30 6458 H 630.121 3.09602 7.08072 0
M  V30 6459 H 628.466 2.77796 6.37067 0
M  V30 6460 H 631.657 1.60157 4.39849 0
M  V30 6461 H 631.83 2.45281 5.99784 0
M  V30 6462 N 625.236 -1.5273 0.388769 0
M  V30 6463 C 626.647 -1.86505 -0.0853788 0
M  V30 6464 C 626.998 -1.30847 -1.46197 0
M  V30 6465 O 626.123 -0.639609 -2.06732 0
M  V30 6466 C 626.718 -3.38414 -0.161703 0
M  V30 6467 C 625.277 -3.71902 -0.580144 0
M  V30 6468 C 624.424 -2.76095 0.258218 0
M  V30 6469 H 627.375 -1.46647 0.606665 0
M  V30 6470 H 627.396 -3.67638 -0.980936 0
M  V30 6471 H 626.908 -3.78893 0.840333 0
M  V30 6472 H 625.009 -3.36992 -1.58957 0
M  V30 6473 H 625.122 -4.77902 -0.338663 0
M  V30 6474 H 623.486 -2.53195 -0.276432 0
M  V30 6475 H 624.269 -3.19411 1.25822 0
M  V30 6476 N 626.714 -0.118576 -1.57153 0
M  V30 6477 C 627.96 0.540326 -1.95469 0
M  V30 6478 C 628.293 1.66356 -1.00196 0
M  V30 6479 O 627.568 1.94461 -0.039104 0
M  V30 6480 C 627.851 1.07342 -3.43729 0
M  V30 6481 C 627.704 -0.0463732 -4.49776 0
M  V30 6482 C 629.023 1.96442 -3.93826 0
M  V30 6483 H 626.142 0.19494 -0.710751 0
M  V30 6484 H 628.784 -0.19405 -1.89006 0
M  V30 6485 H 626.934 1.69925 -3.49368 0
M  V30 6486 H 628.606 -0.681648 -4.56236 0
M  V30 6487 H 626.849 -0.709574 -4.27957 0
M  V30 6488 H 627.52 0.367856 -5.50773 0
M  V30 6489 H 629.996 1.43731 -3.90488 0
M  V30 6490 H 628.872 2.3066 -4.98084 0
M  V30 6491 H 629.133 2.89077 -3.34495 0
M  V30 6492 N 628.193 1.56834 0.155195 0
M  V30 6493 C 629.126 1.9278 1.22111 0
M  V30 6494 C 630.104 0.792588 1.41975 0
M  V30 6495 O 631.288 1.04743 1.5672 0
M  V30 6496 C 628.415 2.19273 2.58142 0
M  V30 6497 C 627.461 3.41932 2.54921 0
M  V30 6498 S 628.294 4.95769 2.02418 0
M  V30 6499 C 629.45 5.25375 3.40194 0
M  V30 6500 H 629.683 2.82889 0.914393 0
M  V30 6501 H 627.216 1.50133 0.360461 0
M  V30 6502 H 629.174 2.35217 3.36427 0
M  V30 6503 H 627.835 1.29843 2.86007 0
M  V30 6504 H 627.028 3.57721 3.55038 0
M  V30 6505 H 626.63 3.25188 1.8474 0
M  V30 6506 H 628.922 5.1834 4.36268 0
M  V30 6507 H 629.865 6.26889 3.29266 0
M  V30 6508 H 630.273 4.52906 3.36951 0
M  V30 6509 N 629.671 -0.424282 1.51781 0
M  V30 6510 C 630.619 -1.53649 1.74628 0
M  V30 6511 C 631.613 -1.57923 0.612922 0
M  V30 6512 O 632.819 -1.61511 0.794618 0
M  V30 6513 H 629.194 -0.510706 0.551981 0
M  V30 6514 H 631.165 -1.31558 2.67834 0
M  V30 6515 C 629.914 -2.91177 1.9003 0
M  V30 6516 H 629.237 -2.88625 2.76651 0
M  V30 6517 H 630.677 -3.6833 2.10021 0
M  V30 6518 C 629.136 -3.30303 0.663435 0
M  V30 6519 O 629.666 -4.01315 -0.175812 0
M  V30 6520 N 627.872 -2.86201 0.503723 0
M  V30 6521 H 627.419 -2.28583 1.18776 0
M  V30 6522 H 627.377 -3.12741 -0.322575 0
M  V30 6523 N 631.149 -1.42148 -0.680565 0
M  V30 6524 C 632.565 -1.24947 -0.992995 0
M  V30 6525 C 632.765 -0.149527 -2.00944 0
M  V30 6526 O 631.821 0.481145 -2.47873 0
M  V30 6527 C 633.134 -2.60426 -1.5033 0
M  V30 6528 C 634.682 -2.67733 -1.62137 0
M  V30 6529 C 635.157 -4.03564 -2.16565 0
M  V30 6530 N 636.648 -4.05488 -2.23905 0
M  V30 6531 C 637.383 -5.07401 -2.67081 0
M  V30 6532 N 636.879 -6.19698 -3.09751 0
M  V30 6533 N 638.672 -4.94758 -2.66778 0
M  V30 6534 H 630.823 -2.12399 -0.0074788 0
M  V30 6535 H 633.086 -0.94571 -0.0658529 0
M  V30 6536 H 632.792 -3.41743 -0.830947 0
M  V30 6537 H 632.666 -2.83949 -2.483 0
M  V30 6538 H 635.053 -1.86765 -2.2848 0
M  V30 6539 H 635.134 -2.48004 -0.626713 0
M  V30 6540 H 634.778 -4.84987 -1.50833 0
M  V30 6541 H 634.708 -4.20641 -3.1681 0
M  V30 6542 H 637.199 -3.24415 -1.93812 0
M  V30 6543 H 637.512 -6.93318 -3.41365 0
M  V30 6544 H 635.857 -6.23212 -3.07623 0
M  V30 6545 H 639.048 -4.06105 -2.32801 0
M  V30 6546 H 639.221 -5.74317 -3.00107 0
M  V30 6547 N 632.627 0.916307 -1.28225 0
M  V30 6548 C 633.855 1.69901 -1.18073 0
M  V30 6549 C 634.27 1.86988 0.260968 0
M  V30 6550 O 633.627 1.39505 1.17663 0
M  V30 6551 C 633.678 3.09254 -1.87201 0
M  V30 6552 O 633.399 2.92959 -3.2574 0
M  V30 6553 C 634.9 4.0362 -1.83319 0
M  V30 6554 H 632.12 0.531181 -0.409985 0
M  V30 6555 H 634.664 1.14703 -1.69303 0
M  V30 6556 H 632.819 3.61277 -1.39848 0
M  V30 6557 H 633.233 3.81139 -3.60324 0
M  V30 6558 H 634.707 4.98873 -2.36282 0
M  V30 6559 H 635.184 4.3176 -0.805007 0
M  V30 6560 H 635.79 3.57524 -2.3034 0
M  V30 6561 N 634.105 1.10431 1.1244 0
M  V30 6562 C 635.33 0.869089 1.88313 0
M  V30 6563 C 635.755 -0.574912 1.79099 0
M  V30 6564 O 635.113 -1.40496 1.14589 0
M  V30 6565 C 635.161 1.32208 3.3549 0
M  V30 6566 O 634.265 0.487092 4.09513 0
M  V30 6567 H 633.606 0.313894 0.585121 0
M  V30 6568 H 636.136 1.47111 1.42195 0
M  V30 6569 H 636.146 1.31201 3.86329 0
M  V30 6570 H 634.821 2.37364 3.41513 0
M  V30 6571 H 633.398 0.562372 3.68635 0
M  V30 6572 N 635.583 -1.29855 0.893053 0
M  V30 6573 C 636.831 -1.9544 0.514566 0
M  V30 6574 C 637.152 -1.70795 -0.940959 0
M  V30 6575 O 636.422 -1.03601 -1.66264 0
M  V30 6576 H 635.002 -0.723137 0.187302 0
M  V30 6577 H 637.664 -1.58234 1.13789 0
M  V30 6578 H 636.76 -3.04341 0.691581 0
M  V30 6579 N 637.061 -0.65484 -1.43351 0
M  V30 6580 C 638.024 0.0263562 -2.29185 0
M  V30 6581 C 639.024 0.748951 -1.42293 0
M  V30 6582 O 640.214 0.589957 -1.63906 0
M  V30 6583 C 637.346 1.04806 -3.2439 0
M  V30 6584 H 638.539 -0.728883 -2.90908 0
M  V30 6585 H 636.092 -0.416149 -1.50658 0
M  V30 6586 H 636.827 1.83247 -2.67565 0
M  V30 6587 H 636.612 0.533554 -3.88453 0
M  V30 6588 H 638.102 1.52372 -3.88809 0
M  V30 6589 N 638.539 1.52521 -0.396863 0
M  V30 6590 C 639.95 1.86547 0.0754868 0
M  V30 6591 C 640.301 1.31621 1.45501 0
M  V30 6592 O 639.426 0.650563 2.0639 0
M  V30 6593 C 640.021 3.38495 0.143754 0
M  V30 6594 C 638.58 3.72205 0.560413 0
M  V30 6595 C 637.727 2.75954 -0.272856 0
M  V30 6596 H 640.678 1.46323 -0.614434 0
M  V30 6597 H 640.699 3.68153 0.961425 0
M  V30 6598 H 640.211 3.78442 -0.860415 0
M  V30 6599 H 638.312 3.3783 1.57167 0
M  V30 6600 H 638.425 4.78074 0.313314 0
M  V30 6601 H 636.789 2.53339 0.263 0
M  V30 6602 H 637.572 3.1874 -1.27515 0
M  V30 6603 N 640.017 0.126909 1.57088 0
M  V30 6604 C 641.242 -0.53997 2.00248 0
M  V30 6605 C 641.667 -1.58927 1.00618 0
M  V30 6606 O 641.025 -1.81288 -0.0210131 0
M  V30 6607 C 641.073 -1.13565 3.4225 0
M  V30 6608 O 640.177 -2.25103 3.45547 0
M  V30 6609 H 639.518 -0.13412 0.650314 0
M  V30 6610 H 642.048 0.217718 2.03438 0
M  V30 6611 H 642.058 -1.46925 3.80627 0
M  V30 6612 H 640.733 -0.367122 4.14277 0
M  V30 6613 H 639.31 -1.93123 3.18995 0
M  V30 6614 N 641.495 -1.56914 -0.146875 0
M  V30 6615 C 642.72 -1.87881 -0.878386 0
M  V30 6616 C 643.145 -0.715945 -1.73942 0
M  V30 6617 O 642.503 0.334447 -1.78189 0
M  V30 6618 C 642.551 -3.17431 -1.71084 0
M  V30 6619 O 641.655 -3.01374 -2.81509 0
M  V30 6620 H 640.996 -0.617289 -0.244644 0
M  V30 6621 H 643.526 -2.04136 -0.137654 0
M  V30 6622 H 643.536 -3.49455 -2.10582 0
M  V30 6623 H 642.211 -4.01671 -1.07856 0
M  V30 6624 H 640.788 -2.80758 -2.45416 0
M  V30 6625 N 642.974 0.416227 -1.52004 0
M  V30 6626 C 644.22 1.16233 -1.66917 0
M  V30 6627 C 644.575 1.8839 -0.390763 0
M  V30 6628 O 643.868 1.81479 0.614478 0
M  V30 6629 C 644.062 2.18923 -2.82502 0
M  V30 6630 C 643.891 1.56849 -4.2146 0
M  V30 6631 C 642.661 1.34426 -4.87091 0
M  V30 6632 C 644.859 1.03322 -5.03815 0
M  V30 6633 N 642.841 0.681703 -6.10103 0
M  V30 6634 C 644.212 0.497165 -6.18003 0
M  V30 6635 C 646.267 0.926997 -4.89194 0
M  V30 6636 C 644.97 -0.134687 -7.19174 0
M  V30 6637 C 646.996 0.309009 -5.90592 0
M  V30 6638 C 646.358 -0.216399 -7.04068 0
M  V30 6639 H 642.457 0.412252 -0.664509 0
M  V30 6640 H 645.041 0.455758 -1.89291 0
M  V30 6641 H 643.212 2.86946 -2.61756 0
M  V30 6642 H 644.944 2.85844 -2.86488 0
M  V30 6643 H 641.699 1.61183 -4.45328 0
M  V30 6644 H 642.123 0.367256 -6.76003 0
M  V30 6645 H 646.765 1.31904 -4.01698 0
M  V30 6646 H 644.483 -0.538811 -8.06302 0
M  V30 6647 H 648.069 0.228438 -5.81351 0
M  V30 6648 H 646.949 -0.687064 -7.81184 0
M  V30 6649 N 644.452 1.42507 0.673017 0
M  V30 6650 C 645.402 1.4258 1.77919 0
M  V30 6651 C 646.386 0.296885 1.58137 0
M  V30 6652 O 647.578 0.539243 1.68586 0
M  V30 6653 C 644.707 1.33238 3.1639 0
M  V30 6654 C 643.793 2.51081 3.41788 0
M  V30 6655 N 644.184 3.76498 3.37761 0
M  V30 6656 C 642.482 2.4538 3.72431 0
M  V30 6657 C 643.183 4.54784 3.62693 0
M  V30 6658 N 642.159 3.8522 3.83544 0
M  V30 6659 H 645.961 2.37442 1.73201 0
M  V30 6660 H 643.475 1.36881 0.873924 0
M  V30 6661 H 645.472 1.31372 3.9566 0
M  V30 6662 H 644.132 0.393794 3.22303 0
M  V30 6663 H 645.143 4.09068 3.17622 0
M  V30 6664 H 641.82 1.60109 3.85579 0
M  V30 6665 H 643.21 5.63774 3.65525 0
M  V30 6666 N 645.93 -0.909495 1.28709 0
M  V30 6667 C 647.155 -1.69801 1.1909 0
M  V30 6668 C 647.58 -1.86479 -0.246388 0
M  V30 6669 O 646.938 -1.37802 -1.17815 0
M  V30 6670 C 646.986 -3.06543 1.89904 0
M  V30 6671 O 646.09 -3.94268 1.2094 0
M  V30 6672 H 645.431 -0.519783 0.413185 0
M  V30 6673 H 647.961 -1.13689 1.70106 0
M  V30 6674 H 647.971 -3.56748 1.97977 0
M  V30 6675 H 646.646 -2.93722 2.94449 0
M  V30 6676 H 645.223 -3.52702 1.2106 0
M  V30 6677 N 647.408 -1.11026 -1.11852 0
M  V30 6678 C 648.633 -0.879064 -1.87849 0
M  V30 6679 C 649.058 0.565406 -1.79401 0
M  V30 6680 O 648.416 1.39886 -1.15333 0
M  V30 6681 C 648.464 -1.33985 -3.34784 0
M  V30 6682 O 647.568 -0.508803 -4.09249 0
M  V30 6683 H 646.909 -0.316992 -0.583448 0
M  V30 6684 H 649.439 -1.47863 -1.41413 0
M  V30 6685 H 649.449 -1.33248 -3.85628 0
M  V30 6686 H 648.124 -2.39172 -3.40249 0
M  V30 6687 H 646.701 -0.581913 -3.68332 0
M  V30 6688 N 648.886 1.2938 -0.899927 0
M  V30 6689 C 650.111 2.00228 -0.540692 0
M  V30 6690 C 650.536 1.66909 0.867359 0
M  V30 6691 O 649.894 0.893824 1.57735 0
M  V30 6692 C 649.942 3.52921 -0.740232 0
M  V30 6693 O 649.046 4.11879 0.207154 0
M  V30 6694 H 648.387 0.629505 -0.211233 0
M  V30 6695 H 650.917 1.6487 -1.21158 0
M  V30 6696 H 650.927 4.0287 -0.644973 0
M  V30 6697 H 649.602 3.76508 -1.76677 0
M  V30 6698 H 648.179 3.72845 0.0643315 0
M  V30 6699 N 650.364 0.662433 1.43002 0
M  V30 6700 C 651.297 -0.073459 2.28082 0
M  V30 6701 C 652.275 -0.820869 1.40358 0
M  V30 6702 O 653.459 -0.818545 1.698 0
M  V30 6703 C 650.586 -1.11097 3.19961 0
M  V30 6704 C 649.632 -0.460557 4.24006 0
M  V30 6705 S 650.465 0.772717 5.29896 0
M  V30 6706 C 651.621 -0.264028 6.25343 0
M  V30 6707 H 651.854 0.648227 2.90147 0
M  V30 6708 H 649.387 0.451566 1.47649 0
M  V30 6709 H 651.345 -1.70452 3.73439 0
M  V30 6710 H 650.006 -1.80503 2.57056 0
M  V30 6711 H 649.199 -1.24299 4.88432 0
M  V30 6712 H 648.801 0.0591038 3.73953 0
M  V30 6713 H 651.093 -1.12748 6.68052 0
M  V30 6714 H 652.036 0.345443 7.07257 0
M  V30 6715 H 652.444 -0.603964 5.6126 0
M  V30 6716 N 651.842 -1.52309 0.404946 0
M  V30 6717 C 653.072 -2.05886 -0.171569 0
M  V30 6718 C 653.48 -1.27527 -1.39762 0
M  V30 6719 O 652.823 -0.319215 -1.80905 0
M  V30 6720 C 652.885 -3.54609 -0.590983 0
M  V30 6721 C 652.549 -4.53989 0.523757 0
M  V30 6722 C 653.546 -5.01084 1.38604 0
M  V30 6723 C 651.231 -4.97465 0.695255 0
M  V30 6724 C 653.225 -5.90295 2.4048 0
M  V30 6725 C 650.912 -5.86473 1.71733 0
M  V30 6726 C 651.91 -6.32782 2.57051 0
M  V30 6727 O 651.598 -7.20029 3.57509 0
M  V30 6728 H 651.33 -0.675508 -0.0257763 0
M  V30 6729 H 653.884 -1.97238 0.573278 0
M  V30 6730 H 652.114 -3.60929 -1.38805 0
M  V30 6731 H 653.803 -3.90853 -1.09494 0
M  V30 6732 H 654.569 -4.68214 1.26492 0
M  V30 6733 H 650.448 -4.60982 0.0408447 0
M  V30 6734 H 653.992 -6.26363 3.07108 0
M  V30 6735 H 649.889 -6.18756 1.83877 0
M  V30 6736 H 650.657 -7.3813 3.53703 0
M  V30 6737 N 653.32 -0.135238 -1.57019 0
M  V30 6738 C 654.25 0.805235 -2.19176 0
M  V30 6739 C 655.231 1.2656 -1.13651 0
M  V30 6740 O 656.416 1.32528 -1.4195 0
M  V30 6741 C 653.546 2.04914 -2.80406 0
M  V30 6742 C 652.5 1.72598 -3.91655 0
M  V30 6743 C 651.826 3.04154 -4.39766 0
M  V30 6744 C 653.126 0.981709 -5.12991 0
M  V30 6745 H 654.82 0.287232 -2.98019 0
M  V30 6746 H 652.366 0.136714 -1.4335 0
M  V30 6747 H 654.319 2.71178 -3.22553 0
M  V30 6748 H 653.043 2.59067 -1.98877 0
M  V30 6749 H 651.702 1.08717 -3.50109 0
M  V30 6750 H 651.35 3.56274 -3.55075 0
M  V30 6751 H 651.05 2.83299 -5.14796 0
M  V30 6752 H 652.574 3.71509 -4.84576 0
M  V30 6753 H 653.988 1.5462 -5.52056 0
M  V30 6754 H 652.385 0.873533 -5.93708 0
M  V30 6755 H 653.455 -0.0286887 -4.84892 0
M  V30 6756 N 654.798 1.5699 0.138552 0
M  V30 6757 C 655.728 2.01933 1.17241 0
M  V30 6758 C 656.709 0.90033 1.44319 0
M  V30 6759 O 657.894 1.16872 1.55095 0
M  V30 6760 C 655.024 2.40711 2.50351 0
M  V30 6761 C 653.978 3.55874 2.37776 0
M  V30 6762 C 653.304 3.80491 3.75674 0
M  V30 6763 C 654.604 4.8826 1.85472 0
M  V30 6764 H 656.298 2.88551 0.798672 0
M  V30 6765 H 653.844 1.3882 0.382743 0
M  V30 6766 H 655.797 2.70754 3.22909 0
M  V30 6767 H 654.521 1.5104 2.89576 0
M  V30 6768 H 653.18 3.2601 1.67669 0
M  V30 6769 H 652.828 2.88057 4.12349 0
M  V30 6770 H 652.528 4.57998 3.68119 0
M  V30 6771 H 654.052 4.12967 4.49767 0
M  V30 6772 H 655.466 5.16965 2.4783 0
M  V30 6773 H 653.863 5.69631 1.88787 0
M  V30 6774 H 654.933 4.78071 0.810935 0
M  V30 6775 N 656.276 -0.40816 1.52223 0
M  V30 6776 C 657.501 -1.18127 1.70472 0
M  V30 6777 C 657.926 -1.83491 0.41384 0
M  V30 6778 O 657.284 -1.70047 -0.628778 0
M  V30 6779 C 657.332 -2.21935 2.84213 0
M  V30 6780 O 656.436 -3.28099 2.4985 0
M  V30 6781 H 655.777 -0.344781 0.56747 0
M  V30 6782 H 658.307 -0.478328 1.9893 0
M  V30 6783 H 658.317 -2.66248 3.09153 0
M  V30 6784 H 656.992 -1.73744 3.7787 0
M  V30 6785 H 655.569 -2.89058 2.35584 0
M  V30 6786 N 657.755 -1.42862 -0.66545 0
M  V30 6787 C 659.166 -1.3901 -1.24632 0
M  V30 6788 C 659.517 -0.0880285 -1.96002 0
M  V30 6789 O 658.642 0.812947 -2.0055 0
M  V30 6790 C 659.237 -2.51806 -2.2667 0
M  V30 6791 C 657.796 -2.51257 -2.80262 0
M  V30 6792 C 656.943 -2.30124 -1.5472 0
M  V30 6793 H 659.894 -1.5194 -0.458237 0
M  V30 6794 H 659.915 -2.22593 -3.08598 0
M  V30 6795 H 659.427 -3.46558 -1.74697 0
M  V30 6796 H 657.528 -1.60349 -3.36332 0
M  V30 6797 H 657.641 -3.48614 -3.28641 0
M  V30 6798 H 656.005 -1.7856 -1.81627 0
M  V30 6799 H 656.788 -3.26945 -1.04699 0
M  V30 6800 N 659.233 0.902656 -1.29189 0
M  V30 6801 C 660.163 2.02294 -1.16616 0
M  V30 6802 C 661.144 1.6999 -0.0611175 0
M  V30 6803 O 662.329 1.9271 -0.240072 0
M  V30 6804 C 659.459 3.37018 -0.83882 0
M  V30 6805 C 658.413 3.83522 -1.89986 0
M  V30 6806 C 657.739 5.15337 -1.42589 0
M  V30 6807 C 659.039 4.04169 -3.30824 0
M  V30 6808 H 660.733 2.13071 -2.10336 0
M  V30 6809 H 658.279 1.02378 -1.01266 0
M  V30 6810 H 660.232 4.14895 -0.737584 0
M  V30 6811 H 658.956 3.26325 0.134071 0
M  V30 6812 H 657.615 3.07859 -1.99043 0
M  V30 6813 H 657.263 5.01056 -0.441759 0
M  V30 6814 H 656.963 5.47423 -2.13547 0
M  V30 6815 H 658.487 5.95758 -1.3381 0
M  V30 6816 H 659.901 4.72537 -3.24626 0
M  V30 6817 H 658.298 4.47604 -3.99713 0
M  V30 6818 H 659.368 3.08604 -3.74021 0
M  V30 6819 N 660.711 1.11618 1.11262 0
M  V30 6820 C 661.659 0.771291 2.1944 0
M  V30 6821 C 662.653 -0.238073 1.67719 0
M  V30 6822 O 663.859 -0.0971628 1.79738 0
M  V30 6823 H 660.234 0.231548 0.715465 0
M  V30 6824 H 662.205 1.69226 2.45775 0
M  V30 6825 C 660.954 0.232765 3.4692 0
M  V30 6826 H 660.277 1.00072 3.87073 0
M  V30 6827 H 661.717 0.0296561 4.2399 0
M  V30 6828 C 660.176 -1.03738 3.20531 0
M  V30 6829 O 660.706 -2.11675 3.41404 0
M  V30 6830 N 658.912 -0.960906 2.74253 0
M  V30 6831 H 658.459 -0.0824323 2.57468 0
M  V30 6832 H 658.417 -1.8114 2.56974 0
M  V30 6833 N 662.189 -1.289 0.906776 0
M  V30 6834 C 663.417 -1.99401 0.551969 0
M  V30 6835 C 663.832 -1.67816 -0.865048 0
M  V30 6836 O 663.189 -0.927078 -1.57199 0
M  V30 6837 C 663.24 -3.53779 0.743152 0
M  V30 6838 O 662.961 -3.84248 2.1044 0
M  V30 6839 C 664.462 -4.41543 0.39424 0
M  V30 6840 H 661.682 -0.636926 0.211106 0
M  V30 6841 H 664.226 -1.64266 1.21807 0
M  V30 6842 H 662.381 -3.87201 0.124143 0
M  V30 6843 H 662.795 -4.78904 2.13895 0
M  V30 6844 H 664.269 -5.48957 0.578814 0
M  V30 6845 H 664.746 -4.34073 -0.669137 0
M  V30 6846 H 665.352 -4.13605 0.990491 0
M  V30 6847 N 663.667 -0.670007 -1.42649 0
M  V30 6848 C 664.597 -0.00258501 -2.335 0
M  V30 6849 C 665.578 0.794364 -1.50412 0
M  V30 6850 O 666.763 0.75248 -1.79029 0
M  V30 6851 C 663.893 0.952748 -3.33976 0
M  V30 6852 C 662.847 0.264733 -4.2718 0
M  V30 6853 C 662.173 1.33267 -5.17826 0
M  V30 6854 C 663.473 -0.853289 -5.15283 0
M  V30 6855 H 665.167 -0.761326 -2.89559 0
M  V30 6856 H 662.713 -0.367561 -1.3923 0
M  V30 6857 H 664.666 1.4287 -3.96442 0
M  V30 6858 H 663.39 1.74285 -2.7621 0
M  V30 6859 H 662.049 -0.190938 -3.66102 0
M  V30 6860 H 661.697 2.11464 -4.5639 0
M  V30 6861 H 661.397 0.877476 -5.81011 0
M  V30 6862 H 662.921 1.80965 -5.83167 0
M  V30 6863 H 664.335 -0.458763 -5.71462 0
M  V30 6864 H 662.732 -1.23398 -5.87276 0
M  V30 6865 H 663.802 -1.70412 -4.53969 0
M  V30 6866 N 665.145 1.52092 -0.413018 0
M  V30 6867 C 666.37 2.06756 0.163338 0
M  V30 6868 C 666.795 1.28073 1.37764 0
M  V30 6869 O 666.153 0.312015 1.78595 0
M  V30 6870 C 666.201 3.57278 0.488322 0
M  V30 6871 O 665.305 3.80986 1.57871 0
M  V30 6872 H 664.646 0.663882 0.0125068 0
M  V30 6873 H 667.176 1.95988 -0.587339 0
M  V30 6874 H 667.186 4.01125 0.745836 0
M  V30 6875 H 665.861 4.13978 -0.399327 0
M  V30 6876 H 664.438 3.49017 1.31306 0
M  V30 6877 N 666.623 0.143563 1.56945 0
M  V30 6878 C 667.872 -0.50835 1.95189 0
M  V30 6879 C 668.185 -1.66239 1.03073 0
M  V30 6880 O 669.391 -2.3787 1.30882 0
M  V30 6881 C 667.847 -0.955735 3.46978 0
M  V30 6882 C 667.455 0.171183 4.47673 0
M  V30 6883 C 669.199 -1.57763 3.94095 0
M  V30 6884 C 667.106 -0.294279 5.90667 0
M  V30 6885 H 666.036 -0.193679 0.728701 0
M  V30 6886 H 668.687 0.227357 1.82086 0
M  V30 6887 H 667.069 -1.7466 3.55401 0
M  V30 6888 H 668.243 0.948049 4.50942 0
M  V30 6889 H 666.558 0.701273 4.10452 0
M  V30 6890 H 669.155 -1.93745 4.98364 0
M  V30 6891 H 669.498 -2.46531 3.35452 0
M  V30 6892 H 670.031 -0.851728 3.88575 0
M  V30 6893 H 666.77 0.557939 6.53121 0
M  V30 6894 H 666.29 -1.0371 5.90766 0
M  V30 6895 H 667.969 -0.747426 6.42668 0
M  V30 6896 N 668.101 -1.57061 -0.130224 0
M  V30 6897 C 669.326 -1.88802 -0.858409 0
M  V30 6898 C 669.751 -0.734353 -1.73173 0
M  V30 6899 O 669.109 0.315529 -1.78533 0
M  V30 6900 C 669.157 -3.19228 -1.67708 0
M  V30 6901 O 668.261 -3.04343 -2.78297 0
M  V30 6902 H 667.602 -0.619849 -0.238083 0
M  V30 6903 H 670.132 -2.04271 -0.115995 0
M  V30 6904 H 670.142 -3.51669 -2.06864 0
M  V30 6905 H 668.817 -4.02793 -1.0359 0
M  V30 6906 H 667.394 -2.83346 -2.42425 0
M  V30 6907 N 669.579 0.400081 -1.52437 0
M  V30 6908 C 670.527 1.50851 -1.7705 0
M  V30 6909 C 671.521 1.56928 -0.637969 0
M  V30 6910 O 672.727 1.60226 -0.820212 0
M  V30 6911 H 669.102 0.50186 -0.560036 0
M  V30 6912 H 671.073 1.27281 -2.69893 0
M  V30 6913 C 669.822 2.88117 -1.94638 0
M  V30 6914 H 669.145 2.84187 -2.81208 0
M  V30 6915 H 670.585 3.64942 -2.15855 0
M  V30 6916 C 669.044 3.29206 -0.715899 0
M  V30 6917 O 669.574 4.01544 0.111944 0
M  V30 6918 N 667.78 2.85363 -0.549191 0
M  V30 6919 H 667.327 2.26664 -1.22397 0
M  V30 6920 H 667.285 3.13214 0.27278 0
M  V30 6921 N 671.057 1.43213 0.657864 0
M  V30 6922 C 672.004 1.48011 1.77092 0
M  V30 6923 C 672.974 0.330291 1.62783 0
M  V30 6924 O 674.159 0.536787 1.83094 0
M  V30 6925 C 671.299 1.40461 3.15222 0
M  V30 6926 C 670.412 2.65612 3.40697 0
M  V30 6927 C 669.547 2.50083 4.68649 0
M  V30 6928 C 668.586 3.70525 4.87214 0
M  V30 6929 N 667.723 3.53835 6.0642 0
M  V30 6930 H 672.563 2.43121 1.72326 0
M  V30 6931 H 670.1 1.20687 0.841013 0
M  V30 6932 H 672.058 1.34079 3.95068 0
M  V30 6933 H 670.688 0.489359 3.19069 0
M  V30 6934 H 669.74 2.82292 2.54982 0
M  V30 6935 H 671.052 3.5509 3.50303 0
M  V30 6936 H 670.206 2.41383 5.56614 0
M  V30 6937 H 668.945 1.58121 4.61356 0
M  V30 6938 H 667.95 3.79639 3.97686 0
M  V30 6939 H 669.175 4.63489 4.96341 0
M  V30 6940 H 667.121 2.64604 6.00267 0
M  V30 6941 H 667.038 4.36912 6.16963 0
M  V30 6942 H 668.306 3.48978 6.97019 0
M  V30 6943 N 672.536 -0.895792 1.29666 0
M  V30 6944 C 673.483 -2.00035 1.15129 0
M  V30 6945 C 674.453 -1.66043 0.0435819 0
M  V30 6946 O 675.638 -1.89621 0.211811 0
M  V30 6947 C 672.778 -3.34774 0.83787 0
M  V30 6948 C 671.891 -3.81525 2.0264 0
M  V30 6949 C 671.026 -5.04858 1.65201 0
M  V30 6950 C 670.065 -5.43988 2.80612 0
M  V30 6951 N 669.202 -6.58507 2.43544 0
M  V30 6952 H 674.042 -2.11802 2.09628 0
M  V30 6953 H 671.579 -1.03719 1.04311 0
M  V30 6954 H 673.537 -4.12311 0.636824 0
M  V30 6955 H 672.167 -3.22724 -0.0702314 0
M  V30 6956 H 671.219 -2.9999 2.33903 0
M  V30 6957 H 672.531 -4.06472 2.89106 0
M  V30 6958 H 671.685 -5.8999 1.41408 0
M  V30 6959 H 670.424 -4.81759 0.758893 0
M  V30 6960 H 669.429 -4.57388 3.05083 0
M  V30 6961 H 670.654 -5.69066 3.70595 0
M  V30 6962 H 668.6 -6.37004 1.56724 0
M  V30 6963 H 668.517 -6.83269 3.23542 0
M  V30 6964 H 669.785 -7.46897 2.2308 0
M  V30 6965 N 674.014 -1.12206 -1.10668 0
M  V30 6966 C 674.977 -0.790867 -2.15123 0
M  V30 6967 C 675.977 0.193618 -1.5963 0
M  V30 6968 O 677.167 -0.0318728 -1.74171 0
M  V30 6969 C 674.299 -0.174797 -3.40452 0
M  V30 6970 H 675.492 -1.7163 -2.45933 0
M  V30 6971 H 673.045 -0.924993 -1.2599 0
M  V30 6972 H 673.78 0.760478 -3.15257 0
M  V30 6973 H 673.565 -0.88358 -3.82015 0
M  V30 6974 H 675.055 0.0405162 -4.1758 0
M  V30 6975 N 675.492 1.28418 -0.913599 0
M  V30 6976 C 676.717 1.99643 -0.561899 0
M  V30 6977 C 677.142 1.67819 0.849608 0
M  V30 6978 O 676.5 0.910503 1.56779 0
M  V30 6979 C 676.548 3.52116 -0.777622 0
M  V30 6980 O 675.652 4.12076 0.163457 0
M  V30 6981 H 674.993 0.627229 -0.217898 0
M  V30 6982 H 677.523 1.63575 -1.229 0
M  V30 6983 H 677.533 4.02163 -0.687666 0
M  V30 6984 H 676.208 3.74613 -1.8066 0
M  V30 6985 H 674.785 3.72892 0.0247827 0
M  V30 6986 N 676.97 0.677563 1.42291 0
M  V30 6987 C 678.247 0.129803 1.95169 0
M  V30 6988 C 678.627 -1.35605 1.61786 0
M  V30 6989 O 677.975 -2.09361 0.915444 0
M  V30 6990 C 678.185 0.401889 3.46678 0
M  V30 6991 C 679.533 0.319889 4.23393 0
M  V30 6992 O 680.557 0.33579 3.54614 0
M  V30 6993 O 679.416 0.264459 5.4586 0
M  V30 6994 H 676.51 0.00447433 0.826988 0
M  V30 6995 H 679.056 0.752483 1.52105 0
M  V30 6996 H 677.828 1.43108 3.64192 0
M  V30 6997 H 677.451 -0.252662 3.96796 0
M  V30 6998 N 678.448 -1.51871 0.421078 0
M  V30 6999 C 679.411 -2.25914 -0.386712 0
M  V30 7000 C 680.411 -1.28733 -0.963555 0
M  V30 7001 O 681.601 -1.52579 -0.840556 0
M  V30 7002 C 678.733 -3.03853 -1.54551 0
M  V30 7003 H 679.926 -2.98754 0.261978 0
M  V30 7004 H 677.479 -1.5533 0.173862 0
M  V30 7005 H 678.214 -2.35392 -2.23072 0
M  V30 7006 H 677.999 -3.75215 -1.13824 0
M  V30 7007 H 679.489 -3.59984 -2.11663 0
M  V30 7008 N 679.926 -0.151884 -1.56866 0
M  V30 7009 C 680.836 0.798876 -2.20579 0
M  V30 7010 C 681.852 1.268 -1.19154 0
M  V30 7011 O 683.028 1.32418 -1.51748 0
M  V30 7012 C 680.093 2.01861 -2.81874 0
M  V30 7013 C 679.154 1.59825 -3.9844 0
M  V30 7014 C 678.387 2.75984 -4.56802 0
M  V30 7015 O 678.61 3.92331 -4.14044 0
M  V30 7016 O 677.544 2.51175 -5.46987 0
M  V30 7017 H 681.37 0.2865 -3.02346 0
M  V30 7018 H 678.955 0.0753806 -1.4921 0
M  V30 7019 H 680.837 2.73235 -3.20813 0
M  V30 7020 H 679.512 2.52042 -2.03117 0
M  V30 7021 H 678.419 0.854601 -3.64208 0
M  V30 7022 H 679.752 1.14355 -4.78731 0
M  V30 7023 N 681.404 1.57128 0.121893 0
M  V30 7024 C 682.351 2.0013 1.14964 0
M  V30 7025 C 683.321 0.872959 1.4131 0
M  V30 7026 O 684.506 1.13696 1.53225 0
M  V30 7027 C 681.646 2.40824 2.4718 0
M  V30 7028 C 680.759 3.67061 2.27794 0
M  V30 7029 C 679.894 3.96749 3.53219 0
M  V30 7030 C 678.933 5.16178 3.28978 0
M  V30 7031 N 678.07 5.41751 4.46599 0
M  V30 7032 H 682.91 2.8772 0.775947 0
M  V30 7033 H 680.447 1.42328 0.371652 0
M  V30 7034 H 682.405 2.62454 3.24305 0
M  V30 7035 H 681.035 1.56279 2.82448 0
M  V30 7036 H 680.087 3.53063 1.416 0
M  V30 7037 H 681.399 4.5434 2.05857 0
M  V30 7038 H 680.553 4.19012 4.38764 0
M  V30 7039 H 679.292 3.07941 3.78185 0
M  V30 7040 H 678.297 4.93762 2.41824 0
M  V30 7041 H 679.522 6.06561 3.05386 0
M  V30 7042 H 677.468 4.55899 4.71691 0
M  V30 7043 H 677.385 6.23347 4.27756 0
M  V30 7044 H 678.653 5.68531 5.33285 0
M  V30 7045 N 682.882 -0.391992 1.52647 0
M  V30 7046 C 684.128 -1.139 1.67793 0
M  V30 7047 C 684.461 -1.89711 0.41514 0
M  V30 7048 O 683.736 -1.85431 -0.586979 0
M  V30 7049 C 684.019 -2.11966 2.91105 0
M  V30 7050 C 683.872 -1.39939 4.27478 0
M  V30 7051 C 685.191 -3.1243 3.09961 0
M  V30 7052 H 682.31 -0.412707 0.610608 0
M  V30 7053 H 684.952 -0.422725 1.85238 0
M  V30 7054 H 683.102 -2.73048 2.76364 0
M  V30 7055 H 684.774 -0.818439 4.53982 0
M  V30 7056 H 683.017 -0.701246 4.28095 0
M  V30 7057 H 683.688 -2.1158 5.09841 0
M  V30 7058 H 686.164 -2.61435 3.23714 0
M  V30 7059 H 685.04 -3.78294 3.97725 0
M  V30 7060 H 685.301 -3.81127 2.24042 0
M  V30 7061 N 684.36 -1.4356 -0.65026 0
M  V30 7062 C 685.59 -1.48563 -1.4357 0
M  V30 7063 C 685.998 -0.103041 -1.88919 0
M  V30 7064 O 685.341 0.897602 -1.60277 0
M  V30 7065 C 685.403 -2.37181 -2.70158 0
M  V30 7066 C 685.067 -3.84673 -2.4673 0
M  V30 7067 C 686.064 -4.75704 -2.09765 0
M  V30 7068 C 683.749 -4.29189 -2.60963 0
M  V30 7069 C 685.743 -6.09249 -1.87334 0
M  V30 7070 C 683.43 -5.62787 -2.38147 0
M  V30 7071 C 684.428 -6.52634 -2.01389 0
M  V30 7072 O 684.116 -7.83761 -1.78813 0
M  V30 7073 H 683.848 -0.506743 -0.447423 0
M  V30 7074 H 686.402 -1.89001 -0.80423 0
M  V30 7075 H 684.632 -1.91636 -3.35876 0
M  V30 7076 H 686.321 -2.33354 -3.32116 0
M  V30 7077 H 687.087 -4.42589 -1.98343 0
M  V30 7078 H 682.966 -3.59529 -2.88548 0
M  V30 7079 H 686.51 -6.7934 -1.58567 0
M  V30 7080 H 682.407 -5.95469 -2.49173 0
M  V30 7081 H 683.175 -7.95368 -1.93214 0
M  V30 7082 N 685.838 0.888903 -1.30139 0
M  V30 7083 C 687.086 1.63713 -1.18501 0
M  V30 7084 C 687.407 1.9324 0.261399 0
M  V30 7085 O 686.677 1.56608 1.17689 0
M  V30 7086 H 685.257 0.606861 -0.435579 0
M  V30 7087 H 687.919 1.06525 -1.63213 0
M  V30 7088 H 687.015 2.58894 -1.743 0
M  V30 7089 N 687.317 1.12792 1.10072 0
M  V30 7090 C 688.227 0.812369 2.20086 0
M  V30 7091 C 689.243 -0.200349 1.72843 0
M  V30 7092 O 690.419 -0.0330262 2.01373 0
M  V30 7093 C 687.484 0.275685 3.45602 0
M  V30 7094 C 686.545 1.34881 4.07561 0
M  V30 7095 C 685.778 0.837639 5.27086 0
M  V30 7096 O 686.001 -0.327224 5.69461 0
M  V30 7097 O 684.935 1.60894 5.79997 0
M  V30 7098 H 688.761 1.73133 2.49517 0
M  V30 7099 H 686.346 0.904863 1.18881 0
M  V30 7100 H 688.228 -0.0185375 4.21396 0
M  V30 7101 H 686.903 -0.615783 3.17789 0
M  V30 7102 H 685.81 1.69625 3.33434 0
M  V30 7103 H 687.143 2.21418 4.39585 0
M  V30 7104 N 688.795 -1.27931 0.920396 0
M  V30 7105 C 690.035 -1.96459 0.564198 0
M  V30 7106 C 690.399 -1.70802 -0.876967 0
M  V30 7107 O 691.6 -2.32956 -1.34107 0
M  V30 7108 C 689.871 -3.46583 0.872641 0
M  V30 7109 S 691.43 -4.34343 0.623859 0
M  V30 7110 H 688.248 -0.679735 0.208523 0
M  V30 7111 H 690.85 -1.55319 1.18727 0
M  V30 7112 H 689.554 -3.62753 1.91933 0
M  V30 7113 H 689.085 -3.92677 0.238479 0
M  V30 7114 H 691.1 -4.93449 -0.521744 0
M  V30 7115 N 690.273 -0.685099 -1.4193 0
M  V30 7116 C 691.498 -0.218842 -2.06242 0
M  V30 7117 C 691.923 1.11923 -1.51178 0
M  V30 7118 O 691.281 1.69837 -0.634446 0
M  V30 7119 C 691.329 -0.175592 -3.60172 0
M  V30 7120 O 690.433 0.852776 -4.03487 0
M  V30 7121 H 689.774 -0.109531 -0.654904 0
M  V30 7122 H 692.304 -0.937013 -1.81882 0
M  V30 7123 H 692.314 -0.00291151 -4.08 0
M  V30 7124 H 690.989 -1.15222 -3.99621 0
M  V30 7125 H 689.566 0.650301 -3.67186 0
M  V30 7126 N 691.751 1.51645 -0.429126 0
M  V30 7127 C 692.683 2.25279 0.422124 0
M  V30 7128 C 693.696 1.28986 0.993299 0
M  V30 7129 O 694.885 1.54797 0.888836 0
M  V30 7130 C 691.985 2.98666 1.60162 0
M  V30 7131 C 691.158 4.2199 1.15078 0
M  V30 7132 C 690.217 4.78028 2.19946 0
M  V30 7133 O 689.243 5.40084 1.79716 0
M  V30 7134 N 690.445 4.61342 3.5234 0
M  V30 7135 H 693.21 2.98971 -0.208931 0
M  V30 7136 H 690.771 1.59838 -0.257568 0
M  V30 7137 H 692.763 3.33044 2.29922 0
M  V30 7138 H 691.333 2.28036 2.13818 0
M  V30 7139 H 690.553 3.932 0.280552 0
M  V30 7140 H 691.841 5.02037 0.826831 0
M  V30 7141 H 691.239 4.11894 3.87763 0
M  V30 7142 H 689.796 5.00104 4.18019 0
M  V30 7143 N 693.229 0.160201 1.56784 0
M  V30 7144 C 694.176 -0.774416 2.1742 0
M  V30 7145 C 695.146 -1.23483 1.11091 0
M  V30 7146 O 696.331 -1.30499 1.39193 0
M  V30 7147 C 693.471 -2.00283 2.81035 0
M  V30 7148 C 692.584 -1.58701 4.01793 0
M  V30 7149 C 691.719 -2.76824 4.53367 0
M  V30 7150 C 690.758 -2.31679 5.66561 0
M  V30 7151 N 689.895 -3.42856 6.12694 0
M  V30 7152 H 694.735 -0.250542 2.96945 0
M  V30 7153 H 692.272 -0.111943 1.46673 0
M  V30 7154 H 694.23 -2.72316 3.16069 0
M  V30 7155 H 692.86 -2.5006 2.04132 0
M  V30 7156 H 691.912 -0.76384 3.72652 0
M  V30 7157 H 693.224 -1.21555 4.83762 0
M  V30 7158 H 692.378 -3.57029 4.90525 0
M  V30 7159 H 691.117 -3.17223 3.70433 0
M  V30 7160 H 690.122 -1.49917 5.28966 0
M  V30 7161 H 691.347 -1.9235 6.5129 0
M  V30 7162 H 689.293 -3.82852 5.32692 0
M  V30 7163 H 689.21 -3.09767 6.89624 0
M  V30 7164 H 690.478 -4.23379 6.545 0
M  V30 7165 N 694.707 -1.5719 -0.113559 0
M  V30 7166 C 695.955 -1.84772 -0.818761 0
M  V30 7167 C 696.276 -0.746196 -1.80158 0
M  V30 7168 O 695.546 0.229305 -1.94553 0
M  V30 7169 H 694.126 -0.681737 -0.305359 0
M  V30 7170 H 696.788 -1.94645 -0.0995845 0
M  V30 7171 H 695.884 -2.80878 -1.36067 0
M  V30 7172 N 696.185 0.383891 -1.52853 0
M  V30 7173 C 697.596 0.961591 -1.60032 0
M  V30 7174 C 697.947 1.90819 -0.456333 0
M  V30 7175 O 697.072 2.12288 0.419873 0
M  V30 7176 C 697.667 1.75078 -2.90057 0
M  V30 7177 C 696.226 2.2781 -2.99632 0
M  V30 7178 C 695.373 1.08512 -2.55187 0
M  V30 7179 H 698.324 0.163269 -1.57858 0
M  V30 7180 H 698.345 2.61046 -2.7683 0
M  V30 7181 H 697.857 1.06157 -3.73299 0
M  V30 7182 H 695.958 3.00028 -2.20939 0
M  V30 7183 H 696.071 2.56947 -4.0437 0
M  V30 7184 H 694.435 1.44667 -2.09627 0
M  V30 7185 H 695.218 0.41118 -3.40829 0
M  V30 7186 N 697.663 1.43903 0.642637 0
M  V30 7187 C 698.909 1.46296 1.40447 0
M  V30 7188 C 699.242 0.0908361 1.93987 0
M  V30 7189 O 698.517 -0.889884 1.72949 0
M  V30 7190 C 698.8 2.51399 2.57819 0
M  V30 7191 C 698.653 3.97926 2.09702 0
M  V30 7192 C 699.972 2.53125 3.60022 0
M  V30 7193 H 697.091 0.532676 0.509338 0
M  V30 7194 H 699.733 1.75515 0.727635 0
M  V30 7195 H 697.883 2.26614 3.1556 0
M  V30 7196 H 699.555 4.33804 1.5688 0
M  V30 7197 H 697.798 4.10252 1.40982 0
M  V30 7198 H 698.469 4.67096 2.94152 0
M  V30 7199 H 700.945 2.75242 3.12059 0
M  V30 7200 H 699.821 3.28589 4.39682 0
M  V30 7201 H 700.082 1.56895 4.13324 0
M  V30 7202 N 699.141 -0.881989 1.30609 0
M  V30 7203 C 700.552 -1.44956 1.17664 0
M  V30 7204 C 700.903 -1.94945 -0.221531 0
M  V30 7205 O 700.028 -1.85257 -1.11844 0
M  V30 7206 C 700.623 -2.63474 2.12995 0
M  V30 7207 C 699.182 -3.16312 2.04019 0
M  V30 7208 C 698.329 -1.89008 2.02907 0
M  V30 7209 H 701.28 -0.691645 1.42835 0
M  V30 7210 H 701.301 -3.39783 1.71253 0
M  V30 7211 H 700.813 -2.2706 3.14746 0
M  V30 7212 H 698.914 -3.57376 1.0542 0
M  V30 7213 H 699.027 -3.79409 2.9255 0
M  V30 7214 H 697.391 -2.07465 1.47751 0
M  V30 7215 H 698.174 -1.54848 3.06394 0
M  V30 7216 N 700.619 -1.13374 -1.09472 0
M  V30 7217 C 701.866 -0.89519 -1.81639 0
M  V30 7218 C 702.194 0.57868 -1.85692 0
M  V30 7219 O 701.449 1.44426 -1.32059 0
M  V30 7220 C 701.748 -1.42759 -3.2765 0
M  V30 7221 C 701.414 -2.91822 -3.43731 0
M  V30 7222 C 700.076 -3.32521 -3.47827 0
M  V30 7223 C 702.428 -3.87727 -3.48307 0
M  V30 7224 C 699.756 -4.6781 -3.54078 0
M  V30 7225 C 702.108 -5.22859 -3.56091 0
M  V30 7226 C 700.772 -5.63086 -3.58456 0
M  V30 7227 H 700.042 -0.327573 -0.664663 0
M  V30 7228 H 702.689 -1.4156 -1.28969 0
M  V30 7229 H 700.994 -0.827871 -3.82954 0
M  V30 7230 H 702.691 -1.2191 -3.8202 0
M  V30 7231 H 699.281 -2.5935 -3.41226 0
M  V30 7232 H 703.465 -3.57371 -3.44383 0
M  V30 7233 H 698.721 -4.98353 -3.54195 0
M  V30 7234 H 702.895 -5.96989 -3.58577 0
M  V30 7235 H 700.522 -6.67905 -3.63052 0
M  V30 7236 N 702.098 1.27442 -0.927168 0
M  V30 7237 C 703.323 1.99036 -0.583042 0
M  V30 7238 C 703.748 1.68711 0.83176 0
M  V30 7239 O 703.106 0.927081 1.55804 0
M  V30 7240 C 703.154 3.51271 -0.814925 0
M  V30 7241 O 702.258 4.12226 0.119742 0
M  V30 7242 H 701.599 0.624883 -0.224538 0
M  V30 7243 H 704.129 1.62263 -1.24628 0
M  V30 7244 H 704.139 4.01411 -0.730282 0
M  V30 7245 H 702.814 3.72676 -1.84623 0
M  V30 7246 H 701.391 3.72897 -0.0147688 0
M  V30 7247 N 703.576 0.692616 1.41565 0
M  V30 7248 C 704.526 0.00231847 2.28 0
M  V30 7249 C 705.51 -0.755793 1.42044 0
M  V30 7250 O 706.702 -0.631772 1.65341 0
M  V30 7251 C 703.831 -0.935468 3.30309 0
M  V30 7252 C 702.917 -0.173761 4.23744 0
M  V30 7253 N 703.308 0.830872 4.98929 0
M  V30 7254 C 701.606 -0.409666 4.44115 0
M  V30 7255 C 702.307 1.28656 5.67294 0
M  V30 7256 N 701.283 0.613053 5.40132 0
M  V30 7257 H 705.085 0.772635 2.83562 0
M  V30 7258 H 702.599 0.523198 1.53741 0
M  V30 7259 H 704.596 -1.44513 3.91052 0
M  V30 7260 H 703.256 -1.70542 2.76307 0
M  V30 7261 H 704.267 1.21101 5.03542 0
M  V30 7262 H 700.944 -1.15773 4.01127 0
M  V30 7263 H 702.334 2.12006 6.37576 0
M  V30 7264 N 705.054 -1.51416 0.437162 0
M  V30 7265 C 706.294 -2.03995 -0.128538 0
M  V30 7266 C 706.658 -1.31417 -1.39977 0
M  V30 7267 O 707.859 -1.74369 -2.0457 0
M  V30 7268 C 706.13 -3.55757 -0.342317 0
M  V30 7269 S 707.689 -4.3006 -0.871446 0
M  V30 7270 H 704.507 -0.710283 -0.0319322 0
M  V30 7271 H 707.109 -1.86177 0.596526 0
M  V30 7272 H 705.813 -4.06148 0.589233 0
M  V30 7273 H 705.344 -3.77869 -1.09447 0
M  V30 7274 H 707.359 -4.47248 -2.14903 0
M  V30 7275 N 706.532 -0.168513 -1.56696 0
M  V30 7276 C 707.462 0.758563 -2.20835 0
M  V30 7277 C 708.443 1.24121 -1.1631 0
M  V30 7278 O 709.628 1.29487 -1.4473 0
M  V30 7279 C 706.758 1.9892 -2.8469 0
M  V30 7280 C 705.712 1.64252 -3.95228 0
M  V30 7281 C 705.038 2.94757 -4.46119 0
M  V30 7282 C 706.338 0.872675 -5.14958 0
M  V30 7283 H 708.032 0.223953 -2.98561 0
M  V30 7284 H 705.578 0.106277 -1.43607 0
M  V30 7285 H 707.531 2.64275 -3.28233 0
M  V30 7286 H 706.255 2.5479 -2.04327 0
M  V30 7287 H 704.914 1.01266 -3.52336 0
M  V30 7288 H 704.562 3.48662 -3.62552 0
M  V30 7289 H 704.262 2.72316 -5.2069 0
M  V30 7290 H 705.786 3.61147 -4.92347 0
M  V30 7291 H 707.2 1.42875 -5.55211 0
M  V30 7292 H 705.597 0.747402 -5.95428 0
M  V30 7293 H 706.667 -0.131535 -4.84722 0
M  V30 7294 N 708.01 1.57248 0.105221 0
M  V30 7295 C 709.421 1.74612 0.660865 0
M  V30 7296 C 709.772 0.789231 1.79626 0
M  V30 7297 O 708.897 -0.0346611 2.16372 0
M  V30 7298 C 709.492 3.16624 1.20559 0
M  V30 7299 C 708.051 3.35447 1.7074 0
M  V30 7300 C 707.198 2.70445 0.612764 0
M  V30 7301 H 710.149 1.5824 -0.12079 0
M  V30 7302 H 710.17 3.18937 2.07508 0
M  V30 7303 H 709.682 3.86245 0.379012 0
M  V30 7304 H 707.783 2.7089 2.5583 0
M  V30 7305 H 707.896 4.43702 1.80736 0
M  V30 7306 H 706.26 2.32061 1.04975 0
M  V30 7307 H 707.043 3.42699 -0.203066 0
M  V30 7308 N 709.488 -0.375779 1.53054 0
M  V30 7309 C 710.716 -1.14036 1.72637 0
M  V30 7310 C 711.131 -1.83342 0.450687 0
M  V30 7311 O 710.488 -1.7318 -0.575749 0
M  V30 7312 C 710.539 -2.17841 2.88492 0
M  V30 7313 O 710.26 -1.51358 4.11123 0
M  V30 7314 C 711.761 -3.06924 3.19863 0
M  V30 7315 H 708.981 -0.341386 0.577665 0
M  V30 7316 H 711.525 -0.437809 1.99759 0
M  V30 7317 H 709.68 -2.8371 2.63794 0
M  V30 7318 H 710.094 -2.20439 4.75928 0
M  V30 7319 H 711.568 -3.75763 4.04359 0
M  V30 7320 H 712.045 -3.71169 2.34798 0
M  V30 7321 H 712.651 -2.46684 3.46449 0
M  V30 7322 N 710.966 -1.44241 -0.634997 0
M  V30 7323 C 711.876 -1.53293 -1.77591 0
M  V30 7324 C 712.892 -0.418831 -1.68884 0
M  V30 7325 O 714.068 -0.675619 -1.8973 0
M  V30 7326 C 711.133 -1.47075 -3.13958 0
M  V30 7327 C 710.194 -2.69304 -3.34326 0
M  V30 7328 C 709.427 -2.63374 -4.64187 0
M  V30 7329 O 709.65 -1.69161 -5.44739 0
M  V30 7330 O 708.584 -3.54166 -4.86673 0
M  V30 7331 H 712.41 -2.49673 -1.72908 0
M  V30 7332 H 709.995 -1.26445 -0.795745 0
M  V30 7333 H 711.877 -1.46117 -3.95257 0
M  V30 7334 H 710.552 -0.538373 -3.19192 0
M  V30 7335 H 709.459 -2.75831 -2.52721 0
M  V30 7336 H 710.792 -3.61576 -3.33951 0
M  V30 7337 N 712.444 0.87505 -1.31075 0
M  V30 7338 C 713.391 1.98178 -1.18296 0
M  V30 7339 C 714.361 1.65952 -0.0699923 0
M  V30 7340 O 715.546 1.8926 -0.241951 0
M  V30 7341 C 712.686 3.33399 -0.891024 0
M  V30 7342 C 711.799 3.78253 -2.08684 0
M  V30 7343 C 710.934 5.02166 -1.73212 0
M  V30 7344 C 709.973 5.39455 -2.89231 0
M  V30 7345 N 709.11 6.54549 -2.53989 0
M  V30 7346 H 713.95 2.0844 -2.12971 0
M  V30 7347 H 711.487 1.02047 -1.05948 0
M  V30 7348 H 713.445 4.11246 -0.702338 0
M  V30 7349 H 712.075 3.22794 0.0188799 0
M  V30 7350 H 711.127 2.9623 -2.38646 0
M  V30 7351 H 712.439 4.01821 -2.95536 0
M  V30 7352 H 711.593 5.87666 -1.50777 0
M  V30 7353 H 710.332 4.80491 -0.83544 0
M  V30 7354 H 709.337 4.52477 -3.12321 0
M  V30 7355 H 710.562 5.63098 -3.79601 0
M  V30 7356 H 708.508 6.3443 -1.66838 0
M  V30 7357 H 708.425 6.78035 -3.34372 0
M  V30 7358 H 709.693 7.43254 -2.34934 0
M  V30 7359 N 713.922 1.13953 1.08869 0
M  V30 7360 C 714.852 0.844824 2.17681 0
M  V30 7361 C 715.833 -0.198213 1.68941 0
M  V30 7362 O 717.018 -0.0559073 1.9412 0
M  V30 7363 C 714.148 0.316325 3.45856 0
M  V30 7364 C 713.102 1.29426 4.07962 0
M  V30 7365 C 712.428 0.625275 5.31031 0
M  V30 7366 C 713.728 2.65484 4.49795 0
M  V30 7367 H 715.422 1.75471 2.42591 0
M  V30 7368 H 712.968 0.845116 1.16592 0
M  V30 7369 H 714.921 0.0977876 4.21287 0
M  V30 7370 H 713.645 -0.628972 3.20486 0
M  V30 7371 H 712.304 1.49889 3.34558 0
M  V30 7372 H 711.952 -0.325678 5.01945 0
M  V30 7373 H 711.652 1.27777 5.73539 0
M  V30 7374 H 713.176 0.416152 6.0918 0
M  V30 7375 H 714.59 2.48957 5.16424 0
M  V30 7376 H 712.987 3.26963 5.03205 0
M  V30 7377 H 714.057 3.22717 3.61914 0
M  V30 7378 N 715.4 -1.26948 0.933913 0
M  V30 7379 C 716.332 -2.25768 0.395137 0
M  V30 7380 C 717.345 -1.55637 -0.477585 0
M  V30 7381 O 718.534 -1.76142 -0.289204 0
M  V30 7382 C 715.634 -3.35874 -0.451882 0
M  V30 7383 C 714.807 -4.3554 0.40299 0
M  V30 7384 C 713.866 -5.24809 -0.3824 0
M  V30 7385 O 712.892 -5.68805 0.212057 0
M  V30 7386 N 714.094 -5.55636 -1.68072 0
M  V30 7387 H 716.859 -2.72634 1.24463 0
M  V30 7388 H 714.42 -1.40639 0.802008 0
M  V30 7389 H 716.412 -3.92542 -0.984516 0
M  V30 7390 H 714.982 -2.8856 -1.20215 0
M  V30 7391 H 714.202 -3.78047 1.11688 0
M  V30 7392 H 715.49 -4.99131 0.987201 0
M  V30 7393 H 714.888 -5.2176 -2.18592 0
M  V30 7394 H 713.445 -6.14978 -2.15975 0
M  V30 7395 N 716.879 -0.700114 -1.41195 0
M  V30 7396 C 718.295 -0.372114 -1.55201 0
M  V30 7397 C 718.495 1.12053 -1.6747 0
M  V30 7398 O 717.551 1.90642 -1.65566 0
M  V30 7399 C 718.864 -1.12462 -2.78878 0
M  V30 7400 C 720.412 -1.10941 -2.92679 0
M  V30 7401 C 720.887 -1.84376 -4.19249 0
M  V30 7402 N 722.378 -1.81368 -4.26216 0
M  V30 7403 C 723.113 -2.35024 -5.23021 0
M  V30 7404 N 722.609 -2.9717 -6.25829 0
M  V30 7405 N 724.402 -2.25254 -5.14992 0
M  V30 7406 H 716.553 -1.66816 -1.31477 0
M  V30 7407 H 718.816 -0.704223 -0.634644 0
M  V30 7408 H 718.522 -2.17937 -2.76037 0
M  V30 7409 H 718.396 -0.706152 -3.70531 0
M  V30 7410 H 720.783 -0.062911 -2.95033 0
M  V30 7411 H 720.864 -1.56698 -2.02187 0
M  V30 7412 H 720.508 -2.89008 -4.17656 0
M  V30 7413 H 720.438 -1.3605 -5.08722 0
M  V30 7414 H 722.929 -1.36062 -3.52556 0
M  V30 7415 H 723.242 -3.35668 -6.96094 0
M  V30 7416 H 721.587 -3.01249 -6.26318 0
M  V30 7417 H 724.778 -1.76372 -4.33602 0
M  V30 7418 H 724.951 -2.67373 -5.90268 0
M  V30 7419 N 718.357 1.51182 -0.445186 0
M  V30 7420 C 719.597 2.04061 0.117717 0
M  V30 7421 C 719.961 1.32158 1.39278 0
M  V30 7422 O 721.162 1.75452 2.03642 0
M  V30 7423 C 719.433 3.55933 0.323445 0
M  V30 7424 S 720.992 4.30516 0.848627 0
M  V30 7425 H 717.81 0.710442 0.028165 0
M  V30 7426 H 720.412 1.85858 -0.606391 0
M  V30 7427 H 719.116 4.0583 -0.610764 0
M  V30 7428 H 718.647 3.78444 1.07441 0
M  V30 7429 H 720.662 4.48382 2.12528 0
M  V30 7430 N 719.835 0.176821 1.56605 0
M  V30 7431 C 720.745 -0.763682 2.21822 0
M  V30 7432 C 721.761 -1.24889 1.21156 0
M  V30 7433 O 722.937 -1.29987 1.53836 0
M  V30 7434 C 720.002 -1.97352 2.8505 0
M  V30 7435 C 719.063 -1.53466 4.00932 0
M  V30 7436 C 718.296 -2.68682 4.61135 0
M  V30 7437 O 718.519 -3.85694 4.20234 0
M  V30 7438 O 717.453 -2.42442 5.50913 0
M  V30 7439 H 721.279 -0.238363 3.02763 0
M  V30 7440 H 718.864 -0.0516331 1.49311 0
M  V30 7441 H 720.746 -2.68096 3.25119 0
M  V30 7442 H 719.421 -2.48779 2.07101 0
M  V30 7443 H 718.328 -0.796551 3.65521 0
M  V30 7444 H 719.661 -1.06724 4.8049 0
M  V30 7445 N 721.313 -1.57302 -0.09688 0
M  V30 7446 C 722.26 -2.01933 -1.11766 0
M  V30 7447 C 723.23 -0.895329 -1.39904 0
M  V30 7448 O 724.415 -1.16119 -1.51397 0
M  V30 7449 C 721.555 -2.44726 -2.43317 0
M  V30 7450 C 720.668 -3.70639 -2.21925 0
M  V30 7451 C 719.803 -4.02318 -3.46862 0
M  V30 7452 C 718.842 -5.21346 -3.20725 0
M  V30 7453 N 717.979 -5.48787 -4.37924 0
M  V30 7454 H 722.819 -2.88919 -0.730075 0
M  V30 7455 H 720.356 -1.42901 -0.348962 0
M  V30 7456 H 722.314 -2.6758 -3.20088 0
M  V30 7457 H 720.944 -1.60753 -2.79926 0
M  V30 7458 H 719.996 -3.55271 -1.35965 0
M  V30 7459 H 721.308 -4.57557 -1.98603 0
M  V30 7460 H 720.462 -4.25939 -4.32042 0
M  V30 7461 H 719.201 -3.13918 -3.73238 0
M  V30 7462 H 718.206 -4.97547 -2.33938 0
M  V30 7463 H 719.431 -6.11343 -2.95697 0
M  V30 7464 H 717.377 -4.63346 -4.64378 0
M  V30 7465 H 717.294 -6.30073 -4.17785 0
M  V30 7466 H 718.562 -5.76943 -5.24173 0
M  V30 7467 N 722.791 0.367657 -1.53252 0
M  V30 7468 C 724.04 1.10782 -1.68554 0
M  V30 7469 C 724.353 1.90523 -0.442765 0
M  V30 7470 O 725.559 2.6729 -0.47629 0
M  V30 7471 C 724.015 2.01863 -2.97959 0
M  V30 7472 C 723.623 1.27443 -4.29491 0
M  V30 7473 C 725.367 2.75883 -3.22628 0
M  V30 7474 C 723.274 2.17414 -5.49987 0
M  V30 7475 H 722.204 0.417272 -0.628013 0
M  V30 7476 H 724.855 0.368971 -1.79752 0
M  V30 7477 H 723.237 2.7947 -2.80558 0
M  V30 7478 H 724.411 0.549138 -4.57516 0
M  V30 7479 H 722.726 0.652935 -4.11249 0
M  V30 7480 H 725.323 3.43421 -4.09837 0
M  V30 7481 H 725.666 3.41138 -2.38601 0
M  V30 7482 H 726.199 2.0536 -3.40693 0
M  V30 7483 H 722.938 1.5674 -6.36485 0
M  V30 7484 H 722.458 2.87799 -5.26243 0
M  V30 7485 H 724.137 2.77019 -5.84696 0
M  V30 7486 N 724.269 1.44576 0.627338 0
M  V30 7487 C 725.517 1.47267 1.38408 0
M  V30 7488 C 725.838 0.107971 1.94701 0
M  V30 7489 O 725.108 -0.860206 1.76004 0
M  V30 7490 H 723.688 0.542276 0.513756 0
M  V30 7491 H 726.35 1.80383 0.738099 0
M  V30 7492 H 725.446 2.20025 2.21349 0
M  V30 7493 N 725.747 -0.868086 1.31537 0
M  V30 7494 C 726.657 -2.00801 1.21311 0
M  V30 7495 C 727.673 -1.73518 0.129431 0
M  V30 7496 O 728.849 -1.98378 0.347588 0
M  V30 7497 C 725.914 -3.3419 0.922935 0
M  V30 7498 C 724.975 -3.74783 2.0937 0
M  V30 7499 C 724.208 -5.01807 1.81728 0
M  V30 7500 O 724.431 -5.65404 0.753313 0
M  V30 7501 O 723.365 -5.39213 2.67457 0
M  V30 7502 H 727.191 -2.12361 2.17109 0
M  V30 7503 H 724.776 -0.996684 1.11295 0
M  V30 7504 H 726.658 -4.14174 0.777033 0
M  V30 7505 H 725.333 -3.237 -0.00500301 0
M  V30 7506 H 724.24 -2.95432 2.29501 0
M  V30 7507 H 725.573 -3.89902 3.00396 0
M  V30 7508 N 727.225 -1.14528 -1.08264 0
M  V30 7509 C 728.473 -0.912599 -1.80322 0
M  V30 7510 C 728.794 0.562256 -1.86718 0
M  V30 7511 O 728.064 1.40869 -1.36135 0
M  V30 7512 H 726.644 -0.334645 -0.667849 0
M  V30 7513 H 729.306 -1.44415 -1.30883 0
M  V30 7514 H 728.402 -1.31384 -2.83098 0
M  V30 7515 N 728.703 1.26451 -0.940633 0
M  V30 7516 C 729.949 1.94065 -0.58878 0
M  V30 7517 C 730.282 1.7363 0.869853 0
M  V30 7518 O 729.557 1.073 1.62225 0
M  V30 7519 C 729.84 3.47852 -0.931199 0
M  V30 7520 C 729.693 3.77575 -2.44453 0
M  V30 7521 C 731.012 4.37832 -0.446229 0
M  V30 7522 H 728.131 0.704827 -0.21538 0
M  V30 7523 H 730.773 1.4933 -1.17475 0
M  V30 7524 H 728.923 3.86085 -0.432539 0
M  V30 7525 H 730.595 3.49059 -3.01588 0
M  V30 7526 H 728.838 3.23671 -2.88825 0
M  V30 7527 H 729.509 4.85068 -2.63464 0
M  V30 7528 H 731.985 4.06822 -0.873778 0
M  V30 7529 H 730.861 5.44228 -0.714648 0
M  V30 7530 H 731.122 4.37239 0.653815 0
M  V30 7531 N 730.181 0.707592 1.40822 0
M  V30 7532 C 731.428 0.243671 2.01029 0
M  V30 7533 C 731.756 -1.16057 1.5608 0
M  V30 7534 O 731.011 -1.7999 0.768251 0
M  V30 7535 C 731.31 0.262892 3.56432 0
M  V30 7536 C 730.976 1.61632 4.20935 0
M  V30 7537 C 729.638 1.98682 4.38268 0
M  V30 7538 C 731.99 2.50619 4.5699 0
M  V30 7539 C 729.318 3.2428 4.88937 0
M  V30 7540 C 731.67 3.75562 5.09054 0
M  V30 7541 C 730.334 4.12739 5.24598 0
M  V30 7542 H 729.604 0.0891654 0.735616 0
M  V30 7543 H 732.251 0.909051 1.68548 0
M  V30 7544 H 730.556 -0.486052 3.88773 0
M  V30 7545 H 732.253 -0.113775 4.00839 0
M  V30 7546 H 728.843 1.31818 4.07826 0
M  V30 7547 H 733.027 2.23272 4.43242 0
M  V30 7548 H 728.283 3.53064 4.99155 0
M  V30 7549 H 732.457 4.44692 5.35931 0
M  V30 7550 H 730.084 5.10132 5.63622 0
M  V30 7551 N 731.66 -1.50943 0.453197 0
M  V30 7552 C 732.908 -2.01813 -0.107709 0
M  V30 7553 C 733.229 -1.33841 -1.41816 0
M  V30 7554 O 732.499 -0.477973 -1.8998 0
M  V30 7555 H 731.079 -0.745773 -0.0427948 0
M  V30 7556 H 733.741 -1.8545 0.599531 0
M  V30 7557 H 732.837 -3.10911 -0.27218 0
M  V30 7558 N 733.138 -0.185124 -1.56509 0
M  V30 7559 C 734.048 0.751908 -2.22224 0
M  V30 7560 C 735.064 1.24244 -1.21817 0
M  V30 7561 O 736.24 1.29169 -1.54523 0
M  V30 7562 C 733.305 1.95837 -2.86092 0
M  V30 7563 C 732.366 1.51337 -4.01741 0
M  V30 7564 C 731.599 2.66233 -4.62554 0
M  V30 7565 O 731.822 3.8346 -4.22273 0
M  V30 7566 O 730.756 2.39517 -5.52191 0
M  V30 7567 H 734.582 0.222304 -3.02885 0
M  V30 7568 H 732.167 0.0437141 -1.49336 0
M  V30 7569 H 734.049 2.66368 -3.26536 0
M  V30 7570 H 732.724 2.47677 -2.08417 0
M  V30 7571 H 731.631 0.777155 -3.65939 0
M  V30 7572 H 732.964 1.04175 -4.81049 0
M  V30 7573 N 734.616 1.57351 0.0885366 0
M  V30 7574 C 735.862 1.86696 0.791996 0
M  V30 7575 C 736.195 0.775148 1.78059 0
M  V30 7576 O 735.47 -0.216247 1.93294 0
M  V30 7577 C 735.753 3.26684 1.51491 0
M  V30 7578 C 735.606 4.465 0.543858 0
M  V30 7579 C 736.925 3.64664 2.46391 0
M  V30 7580 H 734.044 0.679049 0.286463 0
M  V30 7581 H 736.686 1.89919 0.0554866 0
M  V30 7582 H 734.836 3.24067 2.14273 0
M  V30 7583 H 736.508 4.61235 -0.0774597 0
M  V30 7584 H 734.751 4.33567 -0.142228 0
M  V30 7585 H 735.422 5.41192 1.08696 0
M  V30 7586 H 737.898 3.68267 1.93698 0
M  V30 7587 H 736.774 4.63534 2.93986 0
M  V30 7588 H 737.035 2.93698 3.30445 0
M  V30 7589 N 736.094 -0.359525 1.53444 0
M  V30 7590 C 737.341 -1.10152 1.6992 0
M  V30 7591 C 737.669 -1.89125 0.4541 0
M  V30 7592 O 736.924 -1.87396 -0.564023 0
M  V30 7593 C 737.223 -2.08287 2.90433 0
M  V30 7594 C 736.889 -1.45749 4.26694 0
M  V30 7595 C 735.551 -1.28421 4.63747 0
M  V30 7596 C 737.903 -1.00557 5.11408 0
M  V30 7597 C 735.231 -0.644951 5.83144 0
M  V30 7598 C 737.583 -0.380288 6.31456 0
M  V30 7599 C 736.247 -0.194557 6.67216 0
M  V30 7600 H 735.517 -0.403076 0.621781 0
M  V30 7601 H 738.164 -0.382612 1.87639 0
M  V30 7602 H 736.469 -2.86503 2.67251 0
M  V30 7603 H 738.166 -2.65662 3.00374 0
M  V30 7604 H 734.756 -1.6023 3.97523 0
M  V30 7605 H 738.94 -1.12735 4.83326 0
M  V30 7606 H 734.196 -0.48952 6.09437 0
M  V30 7607 H 738.37 -0.0219455 6.96397 0
M  V30 7608 H 735.997 0.30285 7.59597 0
M  V30 7609 N 737.572 -1.44907 -0.619662 0
M  V30 7610 C 738.504 -1.48652 -1.74457 0
M  V30 7611 C 739.517 -0.378596 -1.58337 0
M  V30 7612 O 740.706 -0.644987 -1.6644 0
M  V30 7613 C 737.806 -1.31568 -3.12319 0
M  V30 7614 C 736.979 -2.55816 -3.54792 0
M  V30 7615 C 736.038 -2.33465 -4.71573 0
M  V30 7616 O 735.064 -3.07015 -4.79302 0
M  V30 7617 N 736.266 -1.37254 -5.6404 0
M  V30 7618 H 739.031 -2.45632 -1.71712 0
M  V30 7619 H 736.592 -1.40492 -0.804582 0
M  V30 7620 H 738.584 -1.14445 -3.88181 0
M  V30 7621 H 737.154 -0.429095 -3.09641 0
M  V30 7622 H 736.374 -2.88137 -2.69018 0
M  V30 7623 H 737.662 -3.38431 -3.79924 0
M  V30 7624 H 737.06 -0.765309 -5.60499 0
M  V30 7625 H 735.617 -1.26106 -6.39485 0
M  V30 7626 N 739.05 0.861098 -1.31996 0
M  V30 7627 C 740.278 1.6474 -1.25173 0
M  V30 7628 C 740.693 1.87926 0.181425 0
M  V30 7629 O 740.05 1.4437 1.1164 0
M  V30 7630 C 740.101 3.01036 -2.0015 0
M  V30 7631 O 739.822 2.7888 -3.37872 0
M  V30 7632 C 741.323 3.95481 -2.00273 0
M  V30 7633 H 738.543 0.513314 -0.432146 0
M  V30 7634 H 741.087 1.07419 -1.74016 0
M  V30 7635 H 739.242 3.55021 -1.55046 0
M  V30 7636 H 739.656 3.65514 -3.76165 0
M  V30 7637 H 741.13 4.88403 -2.57229 0
M  V30 7638 H 741.607 4.27957 -0.987407 0
M  V30 7639 H 742.213 3.47433 -2.45296 0
M  V30 7640 N 740.528 1.15101 1.07655 0
M  V30 7641 C 741.777 0.918528 1.79572 0
M  V30 7642 C 742.09 -0.555922 1.87534 0
M  V30 7643 O 743.296 -0.905893 2.55941 0
M  V30 7644 C 741.752 1.59394 3.22679 0
M  V30 7645 C 741.36 3.1052 3.22927 0
M  V30 7646 C 743.104 1.44289 3.99225 0
M  V30 7647 C 741.011 3.70862 4.60668 0
M  V30 7648 H 739.941 0.340006 0.672987 0
M  V30 7649 H 742.592 1.38079 1.20857 0
M  V30 7650 H 740.974 1.05936 3.81567 0
M  V30 7651 H 742.148 3.70708 2.737 0
M  V30 7652 H 740.463 3.25351 2.59876 0
M  V30 7653 H 743.06 1.86766 5.01022 0
M  V30 7654 H 743.403 0.389975 4.14469 0
M  V30 7655 H 743.936 1.94826 3.46825 0
M  V30 7656 H 740.675 4.7604 4.50628 0
M  V30 7657 H 740.195 3.15456 5.10145 0
M  V30 7658 H 741.874 3.71607 5.29639 0
M  V30 7659 N 742.006 -1.2595 0.947325 0
M  V30 7660 C 742.969 -2.24407 0.466285 0
M  V30 7661 C 743.969 -1.55054 -0.426005 0
M  V30 7662 O 745.159 -1.7275 -0.224319 0
M  V30 7663 C 742.291 -3.39326 -0.327201 0
M  V30 7664 H 743.484 -2.68477 1.33642 0
M  V30 7665 H 741.037 -1.38211 0.729887 0
M  V30 7666 H 741.772 -3.00667 -1.21532 0
M  V30 7667 H 741.557 -3.9085 0.312839 0
M  V30 7668 H 743.047 -4.12455 -0.653477 0
M  V30 7669 N 743.484 -0.715051 -1.40445 0
M  V30 7670 C 744.761 -0.181503 -1.94756 0
M  V30 7671 C 745.141 1.31268 -1.65324 0
M  V30 7672 O 744.489 2.0686 -0.970631 0
M  V30 7673 C 744.699 -0.493663 -3.45491 0
M  V30 7674 C 746.047 -0.432032 -4.22396 0
M  V30 7675 O 747.071 -0.429692 -3.53599 0
M  V30 7676 O 745.93 -0.409091 -5.44967 0
M  V30 7677 H 743.024 -0.0263989 -0.826579 0
M  V30 7678 H 745.57 -0.792546 -1.50056 0
M  V30 7679 H 744.342 -1.52713 -3.6027 0
M  V30 7680 H 743.965 0.14737 -3.97327 0
M  V30 7681 N 744.962 1.50701 -0.461195 0
M  V30 7682 C 745.912 2.25195 0.35653 0
M  V30 7683 C 746.896 1.2838 0.96992 0
M  V30 7684 O 748.088 1.53338 0.884108 0
M  V30 7685 C 745.217 3.11471 1.44364 0
M  V30 7686 C 744.303 4.15729 0.83847 0
M  V30 7687 N 744.694 5.05788 -0.0353198 0
M  V30 7688 C 742.992 4.32133 1.1035 0
M  V30 7689 C 743.693 5.80472 -0.37774 0
M  V30 7690 N 742.669 5.43049 0.24463 0
M  V30 7691 H 746.471 2.92188 -0.316746 0
M  V30 7692 H 743.985 1.60059 -0.274725 0
M  V30 7693 H 745.982 3.63436 2.04255 0
M  V30 7694 H 744.642 2.46025 2.11901 0
M  V30 7695 H 745.653 5.16326 -0.403465 0
M  V30 7696 H 742.33 3.77908 1.77458 0
M  V30 7697 H 743.72 6.62996 -1.09024 0
M  V30 7698 N 746.441 0.193421 1.56409 0
M  V30 7699 C 747.669 -0.451438 2.01915 0
M  V30 7700 C 748.084 -1.55306 1.07357 0
M  V30 7701 O 747.441 -1.82333 0.0781512 0
M  V30 7702 C 747.492 -1.00931 3.47124 0
M  V30 7703 O 747.213 0.0483623 4.38073 0
M  V30 7704 C 748.714 -1.73021 4.0814 0
M  V30 7705 H 745.934 -0.113495 0.661332 0
M  V30 7706 H 748.478 0.301636 2.02263 0
M  V30 7707 H 746.633 -1.71277 3.47481 0
M  V30 7708 H 747.047 -0.366644 5.23217 0
M  V30 7709 H 748.521 -2.07289 5.11601 0
M  V30 7710 H 748.998 -2.6333 3.51502 0
M  V30 7711 H 749.604 -1.07264 4.11551 0
M  V30 7712 N 747.919 -1.57396 -0.0801906 0
M  V30 7713 C 749.33 -1.75642 -0.633002 0
M  V30 7714 C 749.681 -0.817708 -1.78348 0
M  V30 7715 O 748.806 0.000233743 -2.164 0
M  V30 7716 C 749.401 -3.18502 -1.15507 0
M  V30 7717 C 747.96 -3.38121 -1.65381 0
M  V30 7718 C 747.107 -2.71386 -0.569661 0
M  V30 7719 H 750.058 -1.58027 0.145949 0
M  V30 7720 H 750.079 -3.22198 -2.02408 0
M  V30 7721 H 749.591 -3.86799 -0.317515 0
M  V30 7722 H 747.692 -2.74926 -2.51488 0
M  V30 7723 H 747.805 -4.46521 -1.73654 0
M  V30 7724 H 746.169 -2.33702 -1.0127 0
M  V30 7725 H 746.952 -3.42332 0.257561 0
M  V30 7726 N 749.397 0.351382 -1.53633 0
M  V30 7727 C 750.643 1.09411 -1.70754 0
M  V30 7728 C 750.976 1.88544 -0.465293 0
M  V30 7729 O 750.251 1.86923 0.537608 0
M  V30 7730 C 750.534 2.04173 -2.96623 0
M  V30 7731 C 750.387 1.28556 -4.31038 0
M  V30 7732 C 751.706 3.04102 -3.18136 0
M  V30 7733 H 748.825 0.396373 -0.621335 0
M  V30 7734 H 751.467 0.373464 -1.86293 0
M  V30 7735 H 749.617 2.65625 -2.83506 0
M  V30 7736 H 751.289 0.697786 -4.55992 0
M  V30 7737 H 749.532 0.587498 -4.29803 0
M  V30 7738 H 750.203 1.97989 -5.15271 0
M  V30 7739 H 752.679 2.5276 -3.30532 0
M  V30 7740 H 751.555 3.67616 -4.07615 0
M  V30 7741 H 751.816 3.75053 -2.34068 0
M  V30 7742 N 750.875 1.45233 0.611969 0
M  V30 7743 C 751.838 1.53189 1.70487 0
M  V30 7744 C 752.838 0.411839 1.55437 0
M  V30 7745 O 754.028 0.675164 1.60584 0
M  V30 7746 C 751.16 1.42422 3.09723 0
M  V30 7747 H 752.353 2.5056 1.64802 0
M  V30 7748 H 749.906 1.32609 0.827318 0
M  V30 7749 H 750.641 0.462185 3.2099 0
M  V30 7750 H 750.426 2.23658 3.22055 0
M  V30 7751 H 751.916 1.51012 3.89339 0
M  V30 7752 N 752.353 -0.854086 1.3245 0
M  V30 7753 C 753.602 -1.60318 1.22397 0
M  V30 7754 C 753.915 -1.9444 -0.212664 0
M  V30 7755 O 755.121 -2.67991 -0.435066 0
M  V30 7756 C 753.577 -2.8909 2.1437 0
M  V30 7757 C 753.185 -2.62391 3.63119 0
M  V30 7758 C 754.929 -3.67104 2.13155 0
M  V30 7759 C 752.836 -3.87167 4.47052 0
M  V30 7760 H 751.766 -0.601586 0.454544 0
M  V30 7761 H 754.417 -0.943023 1.57415 0
M  V30 7762 H 752.799 -3.56567 1.72268 0
M  V30 7763 H 753.973 -2.03222 4.13567 0
M  V30 7764 H 752.288 -1.97706 3.66471 0
M  V30 7765 H 754.885 -4.59696 2.731 0
M  V30 7766 H 755.228 -4.00876 1.12268 0
M  V30 7767 H 755.761 -3.06533 2.5354 0
M  V30 7768 H 752.5 -3.58536 5.48755 0
M  V30 7769 H 752.02 -4.45729 4.01355 0
M  V30 7770 H 753.699 -4.549 4.60081 0
M  V30 7771 N 753.831 -1.1567 -1.07043 0
M  V30 7772 C 754.778 -0.856336 -2.14326 0
M  V30 7773 C 755.748 0.192051 -1.64986 0
M  V30 7774 O 756.933 0.0589148 -1.90709 0
M  V30 7775 C 754.073 -0.355227 -3.43267 0
M  V30 7776 C 753.186 -1.46555 -4.06381 0
M  V30 7777 C 752.321 -0.920245 -5.23168 0
M  V30 7778 C 751.36 -2.00729 -5.78251 0
M  V30 7779 N 750.497 -1.47813 -6.86364 0
M  V30 7780 H 755.337 -1.77514 -2.39359 0
M  V30 7781 H 752.874 -0.885676 -1.17449 0
M  V30 7782 H 754.832 -0.0463804 -4.17174 0
M  V30 7783 H 753.462 0.526649 -3.18475 0
M  V30 7784 H 752.514 -1.89052 -3.30096 0
M  V30 7785 H 753.826 -2.28616 -4.43324 0
M  V30 7786 H 752.98 -0.564127 -6.04072 0
M  V30 7787 H 751.719 -0.0688477 -4.87651 0
M  V30 7788 H 750.724 -2.3722 -4.95991 0
M  V30 7789 H 751.949 -2.86252 -6.15822 0
M  V30 7790 H 749.895 -0.649145 -6.5278 0
M  V30 7791 H 749.812 -2.23498 -7.22208 0
M  V30 7792 H 751.08 -1.15036 -7.70965 0
M  V30 7793 N 755.309 1.25446 -0.953992 0
M  V30 7794 C 756.558 1.92441 -0.604101 0
M  V30 7795 C 756.871 1.75543 0.862796 0
M  V30 7796 O 758.077 2.37106 1.32262 0
M  V30 7797 C 756.533 3.44854 -1.02974 0
M  V30 7798 C 756.141 3.70464 -2.51914 0
M  V30 7799 C 757.885 4.1778 -0.752352 0
M  V30 7800 C 755.792 5.1638 -2.88281 0
M  V30 7801 H 754.722 0.720508 -0.222227 0
M  V30 7802 H 757.373 1.42318 -1.15836 0
M  V30 7803 H 755.755 3.93935 -0.403904 0
M  V30 7804 H 756.929 3.32038 -3.19511 0
M  V30 7805 H 755.244 3.10797 -2.77117 0
M  V30 7806 H 757.841 5.25261 -1.00024 0
M  V30 7807 H 758.184 4.15135 0.311212 0
M  V30 7808 H 758.717 3.74605 -1.33851 0
M  V30 7809 H 755.456 5.24135 -3.93653 0
M  V30 7810 H 754.976 5.55855 -2.25357 0
M  V30 7811 H 756.655 5.84497 -2.77439 0
M  V30 7812 N 756.787 0.722489 1.40064 0
M  V30 7813 C 758.036 0.261932 1.99992 0
M  V30 7814 C 758.349 -1.15358 1.57961 0
M  V30 7815 O 759.555 -1.71301 2.10637 0
M  V30 7816 C 758.011 0.41737 3.57472 0
M  V30 7817 C 757.619 1.83997 4.08472 0
M  V30 7818 C 759.363 0.0179561 4.24496 0
M  V30 7819 C 757.27 1.94563 5.5848 0
M  V30 7820 H 756.2 0.0941768 0.748095 0
M  V30 7821 H 758.851 0.894572 1.60218 0
M  V30 7822 H 757.233 -0.283965 3.94981 0
M  V30 7823 H 758.407 2.57224 3.82325 0
M  V30 7824 H 756.722 2.19147 3.54067 0
M  V30 7825 H 759.319 0.076085 5.34646 0
M  V30 7826 H 759.662 -1.02498 4.03485 0
M  V30 7827 H 760.195 0.669988 3.92117 0
M  V30 7828 H 756.934 2.97001 5.84355 0
M  V30 7829 H 756.454 1.25756 5.86469 0
M  V30 7830 H 758.133 1.72095 6.23692 0
M  V30 7831 N 758.265 -1.50454 0.469181 0
M  V30 7832 C 759.228 -2.2703 -0.314643 0
M  V30 7833 C 760.228 -1.31734 -0.922111 0
M  V30 7834 O 761.418 -1.55176 -0.791588 0
M  V30 7835 C 758.55 -3.08616 -1.44806 0
M  V30 7836 H 759.743 -2.97769 0.356892 0
M  V30 7837 H 757.296 -1.54698 0.223191 0
M  V30 7838 H 758.031 -2.42369 -2.1547 0
M  V30 7839 H 757.816 -3.78647 -1.01829 0
M  V30 7840 H 759.306 -3.66536 -2.00103 0
M  V30 7841 N 759.743 -0.201713 -1.56304 0
M  V30 7842 C 760.992 0.435557 -1.96941 0
M  V30 7843 C 761.305 1.62299 -1.09172 0
M  V30 7844 O 762.511 2.32849 -1.3962 0
M  V30 7845 C 760.967 0.826298 -3.50286 0
M  V30 7846 C 760.575 -0.337216 -4.46729 0
M  V30 7847 C 762.319 1.43028 -3.99679 0
M  V30 7848 C 760.226 0.0748539 -5.91353 0
M  V30 7849 H 759.156 0.1665 -0.735387 0
M  V30 7850 H 761.807 -0.294781 -1.81117 0
M  V30 7851 H 760.189 1.61349 -3.61639 0
M  V30 7852 H 761.363 -1.11476 -4.47113 0
M  V30 7853 H 759.678 -0.853126 -4.07567 0
M  V30 7854 H 762.275 1.75115 -5.05212 0
M  V30 7855 H 762.618 2.33911 -3.44371 0
M  V30 7856 H 763.151 0.706924 -3.91468 0
M  V30 7857 H 759.89 -0.799957 -6.506 0
M  V30 7858 H 759.41 0.817122 -5.94208 0
M  V30 7859 H 761.089 0.508389 -6.45 0
M  V30 7860 N 761.222 1.57436 0.0718424 0
M  V30 7861 C 762.132 2.07039 1.10326 0
M  V30 7862 C 763.148 0.999918 1.424 0
M  V30 7863 O 764.324 1.31462 1.52577 0
M  V30 7864 C 761.389 2.50439 2.39752 0
M  V30 7865 C 760.45 3.71784 2.14651 0
M  V30 7866 C 759.683 4.13104 3.37906 0
M  V30 7867 O 759.906 3.54298 4.47023 0
M  V30 7868 O 758.84 5.05894 3.26121 0
M  V30 7869 H 762.666 2.95239 0.711872 0
M  V30 7870 H 760.251 1.46638 0.28597 0
M  V30 7871 H 762.133 2.78876 3.15921 0
M  V30 7872 H 760.808 1.65368 2.78271 0
M  V30 7873 H 759.715 3.48431 1.36187 0
M  V30 7874 H 761.048 4.57707 1.81012 0
M  V30 7875 N 762.7 -0.34323 1.53817 0
M  V30 7876 C 763.948 -1.0813 1.70741 0
M  V30 7877 C 764.269 -1.89165 0.473461 0
M  V30 7878 O 763.539 -1.89075 -0.512605 0
M  V30 7879 H 762.119 -0.40219 0.629486 0
M  V30 7880 H 764.781 -0.384426 1.91071 0
M  V30 7881 H 763.877 -1.7585 2.57843 0
M  V30 7882 N 764.178 -1.45556 -0.604258 0
M  V30 7883 C 765.589 -1.44171 -1.18624 0
M  V30 7884 C 765.94 -0.171081 -1.95453 0
M  V30 7885 O 765.065 0.727156 -2.03817 0
M  V30 7886 C 765.66 -2.61193 -2.15786 0
M  V30 7887 C 764.219 -2.62918 -2.69353 0
M  V30 7888 C 763.366 -2.36479 -1.4482 0
M  V30 7889 H 766.317 -1.53747 -0.393381 0
M  V30 7890 H 766.338 -2.35481 -2.98879 0
M  V30 7891 H 765.85 -3.53656 -1.59841 0
M  V30 7892 H 763.951 -1.7447 -3.29228 0
M  V30 7893 H 764.064 -3.6224 -3.13559 0
M  V30 7894 H 762.428 -1.86103 -1.73891 0
M  V30 7895 H 763.211 -3.31091 -0.907376 0
M  V30 7896 N 765.656 0.84705 -1.32902 0
M  V30 7897 C 766.933 1.58583 -1.14503 0
M  V30 7898 C 767.313 2.09075 0.291724 0
M  V30 7899 O 766.661 1.88636 1.28952 0
M  V30 7900 C 766.871 2.72605 -2.17916 0
M  V30 7901 C 768.219 3.41993 -2.51646 0
M  V30 7902 O 769.243 2.82838 -2.1652 0
M  V30 7903 O 768.102 4.48761 -3.1189 0
M  V30 7904 H 765.196 0.698756 -0.442345 0
M  V30 7905 H 767.742 0.890516 -1.44457 0
M  V30 7906 H 766.514 2.32876 -3.14459 0
M  V30 7907 H 766.137 3.49807 -1.89 0
M  V30 7908 N 767.134 1.16236 1.06428 0
M  V30 7909 C 768.064 0.890807 2.1584 0
M  V30 7910 C 769.045 -0.162333 1.69324 0
M  V30 7911 O 770.23 -0.0147191 1.94194 0
M  V30 7912 C 767.36 0.389615 3.45108 0
M  V30 7913 C 766.314 1.38051 4.05125 0
M  V30 7914 C 765.64 0.737773 5.29586 0
M  V30 7915 C 766.94 2.74965 4.44062 0
M  V30 7916 H 768.634 1.80577 2.38814 0
M  V30 7917 H 766.18 0.869657 1.14774 0
M  V30 7918 H 768.133 0.187127 4.20984 0
M  V30 7919 H 766.857 -0.560851 3.21748 0
M  V30 7920 H 765.516 1.56952 3.31303 0
M  V30 7921 H 765.164 -0.219135 5.02522 0
M  V30 7922 H 764.864 1.39914 5.70699 0
M  V30 7923 H 766.388 0.545275 6.0816 0
M  V30 7924 H 767.802 2.59855 5.11027 0
M  V30 7925 H 766.199 3.37563 4.96156 0
M  V30 7926 H 767.269 3.30321 3.54987 0
M  V30 7927 N 768.612 -1.24939 0.960631 0
M  V30 7928 C 769.858 -1.93104 0.61958 0
M  V30 7929 C 770.191 -1.74991 -0.84212 0
M  V30 7930 O 769.466 -1.09867 -1.60498 0
M  V30 7931 C 769.749 -3.46326 0.986422 0
M  V30 7932 C 769.602 -3.73638 2.50429 0
M  V30 7933 C 770.921 -4.37067 0.515827 0
M  V30 7934 H 768.04 -0.701311 0.226566 0
M  V30 7935 H 770.682 -1.47442 1.19836 0
M  V30 7936 H 768.832 -3.85348 0.493907 0
M  V30 7937 H 770.504 -3.44217 3.07103 0
M  V30 7938 H 768.747 -3.19035 2.93937 0
M  V30 7939 H 769.418 -4.80815 2.71147 0
M  V30 7940 H 771.894 -4.05381 0.938389 0
M  V30 7941 H 770.77 -5.43022 0.80114 0
M  V30 7942 H 771.031 -4.38224 -0.584171 0
M  V30 7943 N 770.09 -0.729906 -1.39679 0
M  V30 7944 C 771.038 -0.0756589 -2.32477 0
M  V30 7945 C 772.032 0.731438 -1.52795 0
M  V30 7946 O 773.238 0.633195 -1.68495 0
M  V30 7947 H 769.613 -0.00566492 -0.751979 0
M  V30 7948 H 771.584 -0.874797 -2.85289 0
M  V30 7949 C 770.333 0.821313 -3.37861 0
M  V30 7950 H 769.656 0.209666 -3.9925 0
M  V30 7951 H 771.096 1.24679 -4.05254 0
M  V30 7952 C 769.555 1.9533 -2.74495 0
M  V30 7953 O 770.085 3.04548 -2.61942 0
M  V30 7954 N 768.291 1.74119 -2.3266 0
M  V30 7955 H 767.838 0.852908 -2.4307 0
M  V30 7956 H 767.796 2.50036 -1.90603 0
M  V30 7957 N 771.568 1.50203 -0.477153 0
M  V30 7958 C 772.816 2.01959 0.0755889 0
M  V30 7959 C 773.137 1.3608 1.39668 0
M  V30 7960 O 772.407 0.508136 1.89195 0
M  V30 7961 H 770.987 0.74636 0.0309248 0
M  V30 7962 H 773.649 1.84473 -0.628959 0
M  V30 7963 H 772.745 3.11305 0.222683 0
M  V30 7964 N 773.046 0.209999 1.56195 0
M  V30 7965 C 774.271 -0.433064 2.02828 0
M  V30 7966 C 774.696 -1.5337 1.08901 0
M  V30 7967 O 774.054 -1.81144 0.0751132 0
M  V30 7968 C 774.102 -0.952635 3.47789 0
M  V30 7969 O 773.206 -2.0647 3.56993 0
M  V30 7970 H 772.547 -0.0994594 0.656509 0
M  V30 7971 H 775.077 0.32525 2.01998 0
M  V30 7972 H 775.087 -1.26542 3.8788 0
M  V30 7973 H 773.762 -0.147007 4.1564 0
M  V30 7974 H 772.339 -1.75942 3.28784 0
M  V30 7975 N 774.524 -1.57472 -0.0634922 0
M  V30 7976 C 775.474 -2.00709 -1.08166 0
M  V30 7977 C 776.458 -0.890498 -1.34011 0
M  V30 7978 O 777.65 -1.15441 -1.34173 0
M  V30 7979 C 774.779 -2.46148 -2.39303 0
M  V30 7980 C 773.865 -3.64559 -2.16697 0
M  V30 7981 N 774.256 -4.78459 -1.64043 0
M  V30 7982 C 772.554 -3.71269 -2.47135 0
M  V30 7983 C 773.255 -5.60268 -1.56445 0
M  V30 7984 N 772.231 -5.04357 -2.02792 0
M  V30 7985 H 776.033 -2.86208 -0.668016 0
M  V30 7986 H 773.547 -1.60133 -0.270426 0
M  V30 7987 H 775.544 -2.75367 -3.13016 0
M  V30 7988 H 774.204 -1.62041 -2.81377 0
M  V30 7989 H 775.215 -5.00587 -1.32791 0
M  V30 7990 H 771.892 -2.97891 -2.92518 0
M  V30 7991 H 773.282 -6.6172 -1.16519 0
M  V30 7992 N 776.003 0.335068 -1.53997 0
M  V30 7993 C 776.935 1.4327 -1.78903 0
M  V30 7994 C 777.948 1.48347 -0.670598 0
M  V30 7995 O 779.137 1.51277 -0.947494 0
M  V30 7996 C 776.237 2.81878 -1.88144 0
M  V30 7997 C 775.41 3.00141 -3.18174 0
M  V30 7998 C 774.469 4.19041 -3.18263 0
M  V30 7999 O 773.495 4.12751 -3.9195 0
M  V30 8000 N 774.697 5.28004 -2.41231 0
M  V30 8001 H 777.462 1.22272 -2.73623 0
M  V30 8002 H 775.023 0.524996 -1.53152 0
M  V30 8003 H 777.015 3.59609 -1.85644 0
M  V30 8004 H 775.585 2.9598 -1.00572 0
M  V30 8005 H 774.805 2.09808 -3.33728 0
M  V30 8006 H 776.093 3.0923 -4.04047 0
M  V30 8007 H 775.491 5.35986 -1.8093 0
M  V30 8008 H 774.048 6.04196 -2.44521 0
M  V30 8009 N 777.481 1.45874 0.596531 0
M  V30 8010 C 778.428 1.55389 1.70655 0
M  V30 8011 C 779.398 0.399036 1.61236 0
M  V30 8012 O 780.583 0.61396 1.80652 0
M  V30 8013 C 777.723 1.53705 3.0898 0
M  V30 8014 C 776.836 2.79823 3.29125 0
M  V30 8015 C 775.971 2.69735 4.5762 0
M  V30 8016 C 775.01 3.90856 4.71061 0
M  V30 8017 N 774.147 3.79237 5.90867 0
M  V30 8018 H 778.987 2.50211 1.61859 0
M  V30 8019 H 776.524 1.24146 0.789069 0
M  V30 8020 H 778.482 1.50715 3.89026 0
M  V30 8021 H 777.112 0.624247 3.16706 0
M  V30 8022 H 776.164 2.92852 2.42779 0
M  V30 8023 H 777.476 3.69628 3.34927 0
M  V30 8024 H 776.63 2.64773 5.45875 0
M  V30 8025 H 775.369 1.77547 4.54234 0
M  V30 8026 H 774.374 3.96164 3.81227 0
M  V30 8027 H 775.599 4.84124 4.76236 0
M  V30 8028 H 773.545 2.89825 5.88504 0
M  V30 8029 H 773.462 4.62686 5.97877 0
M  V30 8030 H 774.73 3.78227 6.8159 0
M  V30 8031 N 778.959 -0.83999 1.33349 0
M  V30 8032 C 780.187 -1.62728 1.27778 0
M  V30 8033 C 780.602 -1.88191 -0.151505 0
M  V30 8034 O 779.959 -1.46128 -1.09329 0
M  V30 8035 C 780.01 -2.97813 2.04913 0
M  V30 8036 O 779.731 -2.73469 3.42266 0
M  V30 8037 C 781.232 -3.92245 2.0654 0
M  V30 8038 H 778.452 -0.506374 0.440257 0
M  V30 8039 H 780.996 -1.04637 1.75703 0
M  V30 8040 H 779.151 -3.52509 1.60674 0
M  V30 8041 H 779.565 -3.59483 3.81932 0
M  V30 8042 H 781.039 -4.84249 2.64966 0
M  V30 8043 H 781.516 -4.26332 1.05537 0
M  V30 8044 H 782.122 -3.43487 2.50793 0
M  V30 8045 N 780.437 -1.16799 -1.0581 0
M  V30 8046 C 781.684 -0.952524 -1.78699 0
M  V30 8047 C 782.012 0.51931 -1.87439 0
M  V30 8048 O 781.267 1.40151 -1.36587 0
M  V30 8049 C 781.566 -1.53111 -3.22942 0
M  V30 8050 C 781.232 -3.0261 -3.34273 0
M  V30 8051 C 779.894 -3.43418 -3.37072 0
M  V30 8052 C 782.246 -3.98611 -3.35795 0
M  V30 8053 C 779.574 -4.78838 -3.39015 0
M  V30 8054 C 781.926 -5.33923 -3.39277 0
M  V30 8055 C 780.59 -5.74205 -3.40361 0
M  V30 8056 H 779.86 -0.348553 -0.653905 0
M  V30 8057 H 782.507 -1.45591 -1.244 0
M  V30 8058 H 780.812 -0.949286 -3.80126 0
M  V30 8059 H 782.509 -1.34002 -3.77948 0
M  V30 8060 H 779.099 -2.70075 -3.32803 0
M  V30 8061 H 783.283 -3.68146 -3.32839 0
M  V30 8062 H 778.539 -5.09369 -3.38161 0
M  V30 8063 H 782.713 -6.08094 -3.39403 0
M  V30 8064 H 780.34 -6.79117 -3.4162 0
M  V30 8065 N 781.915 1.24427 -0.967243 0
M  V30 8066 C 782.825 2.29109 -0.504592 0
M  V30 8067 C 783.841 1.68495 0.434224 0
M  V30 8068 O 785.017 1.99041 0.307379 0
M  V30 8069 C 782.082 3.46133 0.198273 0
M  V30 8070 C 781.143 4.22149 -0.780313 0
M  V30 8071 C 780.376 5.33585 -0.110896 0
M  V30 8072 O 780.599 5.59676 1.10088 0
M  V30 8073 O 779.533 5.96522 -0.802823 0
M  V30 8074 H 783.359 2.708 -1.37482 0
M  V30 8075 H 780.944 1.30111 -0.73426 0
M  V30 8076 H 782.826 4.17205 0.593124 0
M  V30 8077 H 781.501 3.0642 1.04347 0
M  V30 8078 H 780.408 3.53454 -1.22561 0
M  V30 8079 H 781.741 4.65677 -1.59392 0
M  V30 8080 N 783.393 0.737304 1.3929 0
M  V30 8081 C 784.303 0.100464 2.34385 0
M  V30 8082 C 785.319 -0.719282 1.58437 0
M  V30 8083 O 786.495 -0.647216 1.90717 0
M  V30 8084 C 783.56 -0.794325 3.37478 0
M  V30 8085 C 782.621 0.0379345 4.29283 0
M  V30 8086 C 781.854 -0.814241 5.27452 0
M  V30 8087 O 782.077 -2.05288 5.32177 0
M  V30 8088 O 781.011 -0.241679 6.01415 0
M  V30 8089 H 784.837 0.885407 2.90507 0
M  V30 8090 H 782.422 0.497999 1.40856 0
M  V30 8091 H 784.304 -1.30622 4.00644 0
M  V30 8092 H 782.979 -1.55804 2.83737 0
M  V30 8093 H 781.886 0.595405 3.69331 0
M  V30 8094 H 783.219 0.763926 4.86236 0
M  V30 8095 N 784.871 -1.49948 0.485112 0
M  V30 8096 C 786.12 -2.01589 -0.066765 0
M  V30 8097 C 786.433 -1.371 -1.39509 0
M  V30 8098 O 787.639 -1.79978 -2.03274 0
M  V30 8099 C 786.095 -3.59501 -0.169476 0
M  V30 8100 C 785.703 -4.32955 1.15126 0
M  V30 8101 C 787.447 -4.19138 -0.672564 0
M  V30 8102 C 785.354 -5.82684 1.01158 0
M  V30 8103 H 784.284 -0.753453 -0.0287259 0
M  V30 8104 H 786.935 -1.72632 0.622132 0
M  V30 8105 H 785.317 -3.85106 -0.922471 0
M  V30 8106 H 786.491 -4.19064 1.9163 0
M  V30 8107 H 784.806 -3.84991 1.58654 0
M  V30 8108 H 787.403 -5.28767 -0.794325 0
M  V30 8109 H 787.746 -3.81447 -1.66745 0
M  V30 8110 H 788.279 -3.97793 0.0234415 0
M  V30 8111 H 785.018 -6.24873 1.98025 0
M  V30 8112 H 784.538 -5.99112 0.287151 0
M  V30 8113 H 786.217 -6.43376 0.683847 0
M  V30 8114 N 786.349 -0.21828 -1.56081 0
M  V30 8115 C 787.279 0.687922 -2.23136 0
M  V30 8116 C 788.26 1.20357 -1.202 0
M  V30 8117 O 789.445 1.24817 -1.48776 0
M  V30 8118 C 786.575 1.89762 -2.90874 0
M  V30 8119 C 785.529 1.51595 -4.00254 0
M  V30 8120 C 784.855 2.80415 -4.55271 0
M  V30 8121 C 786.155 0.708404 -5.17474 0
M  V30 8122 H 787.849 0.128854 -2.99123 0
M  V30 8123 H 785.395 0.0605354 -1.43873 0
M  V30 8124 H 787.348 2.53699 -3.36474 0
M  V30 8125 H 786.072 2.4816 -2.1233 0
M  V30 8126 H 784.731 0.900058 -3.55379 0
M  V30 8127 H 784.379 3.36951 -3.73461 0
M  V30 8128 H 784.079 2.55613 -5.2909 0
M  V30 8129 H 785.603 3.453 -5.03587 0
M  V30 8130 H 787.017 1.2514 -5.59476 0
M  V30 8131 H 785.414 0.557593 -5.97504 0
M  V30 8132 H 786.484 -0.285679 -4.84058 0
M  V30 8133 N 787.827 1.57504 0.0551401 0
M  V30 8134 C 789.238 1.76626 0.604979 0
M  V30 8135 C 789.589 0.845978 1.77024 0
M  V30 8136 O 788.714 0.0341936 2.16373 0
M  V30 8137 C 789.309 3.203 1.10425 0
M  V30 8138 C 787.868 3.4071 1.59981 0
M  V30 8139 C 787.015 2.72258 0.526414 0
M  V30 8140 H 789.966 1.57775 -0.171072 0
M  V30 8141 H 789.987 3.25377 1.97256 0
M  V30 8142 H 789.499 3.87255 0.255939 0
M  V30 8143 H 787.6 2.78892 2.47083 0
M  V30 8144 H 787.713 4.49227 1.66528 0
M  V30 8145 H 786.077 2.35283 0.97539 0
M  V30 8146 H 786.86 3.41879 -0.311991 0
M  V30 8147 N 789.305 -0.326896 1.54172 0
M  V30 8148 C 790.215 -1.42525 1.86343 0
M  V30 8149 C 791.231 -1.56764 0.75505 0
M  V30 8150 O 792.407 -1.71924 1.04901 0
M  V30 8151 C 789.472 -2.77286 2.08119 0
M  V30 8152 C 788.533 -2.7225 3.31931 0
M  V30 8153 C 787.766 -4.00584 3.52659 0
M  V30 8154 O 787.989 -4.98686 2.76891 0
M  V30 8155 O 786.923 -4.04045 4.46129 0
M  V30 8156 H 790.749 -1.18249 2.79734 0
M  V30 8157 H 788.334 -0.520614 1.40036 0
M  V30 8158 H 790.216 -3.57065 2.23791 0
M  V30 8159 H 788.891 -3.01459 1.17917 0
M  V30 8160 H 787.798 -1.91033 3.21647 0
M  V30 8161 H 789.131 -2.53032 4.2218 0
M  V30 8162 N 790.784 -1.46188 -0.588786 0
M  V30 8163 C 792.033 -1.50452 -1.34339 0
M  V30 8164 C 792.346 -0.158096 -1.9496 0
M  V30 8165 O 793.552 -0.0784918 -2.71387 0
M  V30 8166 C 792.008 -2.65074 -2.43441 0
M  V30 8167 C 791.616 -4.06111 -1.8915 0
M  V30 8168 C 793.36 -2.78603 -3.20282 0
M  V30 8169 C 791.267 -5.12084 -2.95845 0
M  V30 8170 H 790.197 -0.559905 -0.504997 0
M  V30 8171 H 792.848 -1.72382 -0.629014 0
M  V30 8172 H 791.23 -2.36462 -3.1765 0
M  V30 8173 H 792.404 -4.44487 -1.21524 0
M  V30 8174 H 790.719 -3.97197 -1.24995 0
M  V30 8175 H 793.316 -3.54944 -3.99898 0
M  V30 8176 H 793.659 -1.85902 -3.72486 0
M  V30 8177 H 794.192 -3.06832 -2.53178 0
M  V30 8178 H 790.931 -6.06556 -2.48535 0
M  V30 8179 H 790.451 -4.78259 -3.61979 0
M  V30 8180 H 792.13 -5.37661 -3.59902 0
M  V30 8181 N 792.262 0.832906 -1.33792 0
M  V30 8182 C 793.511 1.58351 -1.24932 0
M  V30 8183 C 793.824 1.94754 0.181703 0
M  V30 8184 O 795.03 2.6865 0.392375 0
M  V30 8185 C 793.486 2.85643 -2.18943 0
M  V30 8186 C 793.094 2.56581 -3.67247 0
M  V30 8187 C 794.838 3.63667 -2.18968 0
M  V30 8188 C 792.745 3.80006 -4.53155 0
M  V30 8189 H 791.675 0.594278 -0.464058 0
M  V30 8190 H 794.326 0.91786 -1.58895 0
M  V30 8191 H 792.708 3.53781 -1.77919 0
M  V30 8192 H 793.882 1.96617 -4.16747 0
M  V30 8193 H 792.197 1.91851 -3.6957 0
M  V30 8194 H 794.794 4.55293 -2.80379 0
M  V30 8195 H 795.137 3.99039 -1.18631 0
M  V30 8196 H 795.67 3.0246 -2.58384 0
M  V30 8197 H 792.409 3.4976 -5.5439 0
M  V30 8198 H 791.929 4.39288 -4.08395 0
M  V30 8199 H 793.608 4.47523 -4.6726 0
M  V30 8200 N 793.74 1.17359 1.05189 0
M  V30 8201 C 794.989 0.956412 1.77583 0
M  V30 8202 C 795.302 -0.516018 1.88671 0
M  V30 8203 O 796.508 -0.851401 2.57805 0
M  V30 8204 C 794.964 1.66203 3.19225 0
M  V30 8205 C 794.572 3.17299 3.16267 0
M  V30 8206 C 796.316 1.52725 3.96075 0
M  V30 8207 C 794.223 3.8055 4.52698 0
M  V30 8208 H 793.153 0.354204 0.665624 0
M  V30 8209 H 795.804 1.40612 1.17901 0
M  V30 8210 H 794.186 1.14006 3.79234 0
M  V30 8211 H 795.36 3.76431 2.65776 0
M  V30 8212 H 793.675 3.3079 2.52917 0
M  V30 8213 H 796.272 1.97351 4.96947 0
M  V30 8214 H 796.615 0.477803 4.13549 0
M  V30 8215 H 797.148 2.02139 3.42614 0
M  V30 8216 H 793.887 4.85492 4.4043 0
M  V30 8217 H 793.407 3.26206 5.03339 0
M  V30 8218 H 795.086 3.82757 5.21638 0
M  V30 8219 N 795.218 -1.23913 0.973828 0
M  V30 8220 C 796.443 -1.96735 0.656511 0
M  V30 8221 C 796.868 -1.71682 -0.768571 0
M  V30 8222 O 796.226 -0.984267 -1.52256 0
M  V30 8223 C 796.274 -3.48004 0.944735 0
M  V30 8224 O 795.378 -4.12387 0.0333357 0
M  V30 8225 H 794.719 -0.616119 0.247575 0
M  V30 8226 H 797.249 -1.57525 1.30564 0
M  V30 8227 H 797.259 -3.98424 0.87876 0
M  V30 8228 H 795.934 -3.65567 1.98328 0
M  V30 8229 H 794.511 -3.72585 0.153157 0
M  V30 8230 N 796.696 -0.74468 -1.38897 0
M  V30 8231 C 797.643 -0.111064 -2.30533 0
M  V30 8232 C 798.613 0.719276 -1.49719 0
M  V30 8233 O 799.798 0.677244 -1.78376 0
M  V30 8234 C 796.938 0.78292 -3.36102 0
M  V30 8235 C 796.051 -0.0610817 -4.31957 0
M  V30 8236 C 795.186 0.835075 -5.24595 0
M  V30 8237 C 794.225 -0.0130974 -6.12099 0
M  V30 8238 N 793.362 0.839525 -6.97063 0
M  V30 8239 H 798.202 -0.898113 -2.84144 0
M  V30 8240 H 795.739 -0.454537 -1.39901 0
M  V30 8241 H 797.697 1.31578 -3.95908 0
M  V30 8242 H 796.327 1.53585 -2.83922 0
M  V30 8243 H 795.379 -0.711469 -3.73687 0
M  V30 8244 H 796.691 -0.716482 -4.93627 0
M  V30 8245 H 795.845 1.43542 -5.89475 0
M  V30 8246 H 794.584 1.52423 -4.63269 0
M  V30 8247 H 793.589 -0.626179 -5.46223 0
M  V30 8248 H 794.814 -0.699181 -6.75491 0
M  V30 8249 H 792.76 1.5138 -6.38295 0
M  V30 8250 H 792.677 0.240823 -7.55616 0
M  V30 8251 H 793.945 1.42513 -7.66362 0
M  V30 8252 N 798.174 1.49689 -0.493057 0
M  V30 8253 C 799.084 2.32746 0.294358 0
M  V30 8254 C 800.1 1.44117 0.975003 0
M  V30 8255 O 801.276 1.77149 0.958138 0
M  V30 8256 C 798.341 3.19358 1.34949 0
M  V30 8257 C 797.402 4.2383 0.683122 0
M  V30 8258 C 796.635 5.06303 1.68798 0
M  V30 8259 O 796.858 4.90172 2.91698 0
M  V30 8260 O 795.792 5.88826 1.24768 0
M  V30 8261 H 799.618 3.01247 -0.385254 0
M  V30 8262 H 797.203 1.47216 -0.254519 0
M  V30 8263 H 799.085 3.73037 1.96014 0
M  V30 8264 H 797.76 2.53561 2.01217 0
M  V30 8265 H 796.667 3.74086 0.0329351 0
M  V30 8266 H 798 4.9216 0.0630192 0
M  V30 8267 N 799.652 0.226554 1.55963 0
M  V30 8268 C 800.582 -0.676079 2.23498 0
M  V30 8269 C 801.563 -1.19718 1.20837 0
M  V30 8270 O 802.748 -1.24027 1.49436 0
M  V30 8271 C 799.878 -1.88217 2.91876 0
M  V30 8272 C 798.832 -1.4947 4.01052 0
M  V30 8273 C 798.158 -2.77997 4.56751 0
M  V30 8274 C 799.458 -0.680951 5.17842 0
M  V30 8275 H 801.152 -0.112989 2.99187 0
M  V30 8276 H 798.698 -0.0529046 1.43903 0
M  V30 8277 H 800.651 -2.51911 3.37815 0
M  V30 8278 H 799.375 -2.47031 2.13643 0
M  V30 8279 H 798.034 -0.881199 3.55852 0
M  V30 8280 H 797.682 -3.34966 3.75243 0
M  V30 8281 H 797.382 -2.52803 5.30438 0
M  V30 8282 H 798.906 -3.42625 5.05411 0
M  V30 8283 H 800.32 -1.22171 5.60131 0
M  V30 8284 H 798.717 -0.525898 5.97791 0
M  V30 8285 H 799.787 0.311346 4.83899 0
M  V30 8286 N 801.13 -1.57531 -0.0467866 0
M  V30 8287 C 802.355 -1.93087 -0.757123 0
M  V30 8288 C 802.78 -0.825116 -1.69037 0
M  V30 8289 O 802.138 0.220449 -1.79955 0
M  V30 8290 C 802.186 -3.27669 -1.5055 0
M  V30 8291 O 801.29 -3.18667 -2.61773 0
M  V30 8292 H 800.631 -0.631597 -0.204892 0
M  V30 8293 H 803.161 -2.04599 -0.00755232 0
M  V30 8294 H 803.171 -3.6214 -1.87932 0
M  V30 8295 H 801.846 -4.07717 -0.820931 0
M  V30 8296 H 800.423 -2.95798 -2.27064 0
M  V30 8297 N 802.608 0.318715 -1.54344 0
M  V30 8298 C 803.538 1.39751 -1.87061 0
M  V30 8299 C 804.519 1.53741 -0.727848 0
M  V30 8300 O 805.704 1.67541 -0.982016 0
M  V30 8301 C 802.834 2.76446 -2.10226 0
M  V30 8302 C 801.788 2.77239 -3.26071 0
M  V30 8303 C 801.114 4.17056 -3.34617 0
M  V30 8304 C 802.414 2.40555 -4.63606 0
M  V30 8305 H 804.108 1.12619 -2.77412 0
M  V30 8306 H 801.654 0.540318 -1.33479 0
M  V30 8307 H 803.607 3.51985 -2.31699 0
M  V30 8308 H 802.331 3.05066 -1.16629 0
M  V30 8309 H 800.99 2.04155 -3.04493 0
M  V30 8310 H 800.638 4.42824 -2.3857 0
M  V30 8311 H 800.338 4.18492 -4.12478 0
M  V30 8312 H 801.862 4.94401 -3.5833 0
M  V30 8313 H 803.276 3.05808 -4.84927 0
M  V30 8314 H 801.673 2.53234 -5.44052 0
M  V30 8315 H 802.743 1.35698 -4.65526 0
M  V30 8316 N 804.086 1.46499 0.581025 0
M  V30 8317 C 805.016 1.60052 1.70017 0
M  V30 8318 C 805.997 0.450788 1.64018 0
M  V30 8319 O 807.182 0.677237 1.82009 0
M  V30 8320 C 804.312 1.5921 3.08658 0
M  V30 8321 C 803.266 2.73169 3.29488 0
M  V30 8322 C 802.592 2.57389 4.68674 0
M  V30 8323 C 803.892 4.14978 3.1716 0
M  V30 8324 H 805.586 2.53735 1.5893 0
M  V30 8325 H 803.132 1.22113 0.763173 0
M  V30 8326 H 805.085 1.67285 3.86773 0
M  V30 8327 H 803.809 0.620718 3.20647 0
M  V30 8328 H 802.468 2.64566 2.53773 0
M  V30 8329 H 802.116 1.58331 4.77431 0
M  V30 8330 H 801.816 3.33826 4.83564 0
M  V30 8331 H 803.34 2.67358 5.48956 0
M  V30 8332 H 804.754 4.24684 3.85119 0
M  V30 8333 H 803.151 4.92016 3.4357 0
M  V30 8334 H 804.221 4.35016 2.14218 0
M  V30 8335 N 805.565 -0.825799 1.34232 0
M  V30 8336 C 806.79 -1.61883 1.29648 0
M  V30 8337 C 807.215 -1.87669 -0.127295 0
M  V30 8338 O 806.573 -1.45016 -1.08813 0
M  V30 8339 C 806.621 -2.93846 2.09014 0
M  V30 8340 O 805.725 -3.85778 1.4577 0
M  V30 8341 H 805.066 -0.492454 0.445405 0
M  V30 8342 H 807.596 -1.02641 1.76992 0
M  V30 8343 H 807.606 -3.43435 2.20264 0
M  V30 8344 H 806.281 -2.74401 3.12533 0
M  V30 8345 H 804.858 -3.4429 1.43245 0
M  V30 8346 N 807.043 -1.17915 -1.04565 0
M  V30 8347 C 808.291 -0.969505 -1.77327 0
M  V30 8348 C 808.612 0.502569 -1.88412 0
M  V30 8349 O 807.882 1.36467 -1.40547 0
M  V30 8350 H 806.462 -0.355723 -0.656864 0
M  V30 8351 H 809.124 -1.48506 -1.26223 0
M  V30 8352 H 808.22 -1.40324 -2.78775 0
M  V30 8353 N 808.521 1.23394 -0.980386 0
M  V30 8354 C 809.431 2.28561 -0.528864 0
M  V30 8355 C 810.447 1.68946 0.416329 0
M  V30 8356 O 811.623 1.99355 0.286251 0
M  V30 8357 C 808.688 3.46323 0.16155 0
M  V30 8358 C 807.749 4.21297 -0.825044 0
M  V30 8359 C 806.982 5.33437 -0.167483 0
M  V30 8360 O 807.205 5.60812 1.04146 0
M  V30 8361 O 806.139 5.95637 -0.866047 0
M  V30 8362 H 809.965 2.69326 -1.40346 0
M  V30 8363 H 807.55 1.29325 -0.748019 0
M  V30 8364 H 809.432 4.17811 0.548841 0
M  V30 8365 H 808.107 3.0751 1.01092 0
M  V30 8366 H 807.014 3.52134 -1.26303 0
M  V30 8367 H 808.347 4.6396 -1.64322 0
M  V30 8368 N 809.999 0.752036 1.385 0
M  V30 8369 C 811.245 0.307958 2.00448 0
M  V30 8370 C 811.578 -1.10702 1.59558 0
M  V30 8371 O 810.853 -1.75788 0.832391 0
M  V30 8372 C 811.136 0.429092 3.57534 0
M  V30 8373 C 810.989 1.88507 4.08393 0
M  V30 8374 C 812.308 -0.178442 4.39738 0
M  V30 8375 H 809.427 0.113373 0.728228 0
M  V30 8376 H 812.069 0.951389 1.64465 0
M  V30 8377 H 810.219 -0.118695 3.88319 0
M  V30 8378 H 811.891 2.49104 3.88259 0
M  V30 8379 H 810.134 2.40066 3.61318 0
M  V30 8380 H 810.805 1.92099 5.17496 0
M  V30 8381 H 813.281 0.28872 4.15097 0
M  V30 8382 H 812.157 -0.0634349 5.48863 0
M  V30 8383 H 812.418 -1.26655 4.23569 0
M  V30 8384 N 811.477 -1.49425 0.500989 0
M  V30 8385 C 812.717 -2.04357 -0.0419004 0
M  V30 8386 C 813.081 -1.37236 -1.34277 0
M  V30 8387 O 814.282 -1.82889 -1.9699 0
M  V30 8388 C 812.553 -3.56889 -0.19112 0
M  V30 8389 S 814.112 -4.33369 -0.688259 0
M  V30 8390 H 810.93 -0.710998 -0.00177796 0
M  V30 8391 H 813.532 -1.83479 0.674953 0
M  V30 8392 H 812.236 -4.03283 0.760964 0
M  V30 8393 H 811.767 -3.82171 -0.933214 0
M  V30 8394 H 813.782 -4.55961 -1.9574 0
M  V30 8395 N 812.955 -0.234822 -1.55841 0
M  V30 8396 C 813.903 0.686145 -2.22249 0
M  V30 8397 C 814.897 1.18948 -1.20614 0
M  V30 8398 O 816.103 1.14777 -1.38659 0
M  V30 8399 H 812.478 0.239724 -0.712767 0
M  V30 8400 H 814.449 0.102762 -2.98223 0
M  V30 8401 C 813.198 1.8776 -2.92646 0
M  V30 8402 H 812.521 1.49943 -3.70617 0
M  V30 8403 H 813.961 2.4995 -3.42493 0
M  V30 8404 C 812.42 2.74127 -1.95847 0
M  V30 8405 O 812.95 3.7329 -1.48384 0
M  V30 8406 N 811.156 2.4044 -1.63209 0
M  V30 8407 H 810.703 1.59854 -2.02001 0
M  V30 8408 H 810.661 2.98504 -0.987063 0
M  V30 8409 N 814.433 1.57553 0.0384317 0
M  V30 8410 C 815.849 1.54663 0.39391 0
M  V30 8411 C 816.049 0.959685 1.77179 0
M  V30 8412 O 815.105 0.576647 2.45827 0
M  V30 8413 C 816.418 2.99156 0.304352 0
M  V30 8414 C 817.966 3.10659 0.382119 0
M  V30 8415 C 818.441 4.56866 0.322111 0
M  V30 8416 N 819.932 4.61629 0.38119 0
M  V30 8417 C 820.667 5.72284 0.357501 0
M  V30 8418 N 820.163 6.92207 0.286654 0
M  V30 8419 N 821.956 5.60628 0.406538 0
M  V30 8420 H 814.107 1.9406 -0.86339 0
M  V30 8421 H 816.37 0.889673 -0.327392 0
M  V30 8422 H 816.076 3.45788 -0.642141 0
M  V30 8423 H 815.95 3.60753 1.10168 0
M  V30 8424 H 818.337 2.6398 1.31904 0
M  V30 8425 H 818.418 2.5191 -0.444391 0
M  V30 8426 H 818.062 5.0421 -0.611104 0
M  V30 8427 H 817.992 5.13515 1.1666 0
M  V30 8428 H 820.483 3.75343 0.438838 0
M  V30 8429 H 820.796 7.72316 0.273421 0
M  V30 8430 H 819.141 6.9454 0.252841 0
M  V30 8431 H 822.332 4.65836 0.459812 0
M  V30 8432 H 822.505 6.46858 0.384608 0
M  V30 8433 N 815.911 -0.310526 1.54511 0
M  V30 8434 C 817.139 -1.06611 1.77318 0
M  V30 8435 C 817.554 -1.81265 0.528043 0
M  V30 8436 O 816.911 -1.75466 -0.50178 0
M  V30 8437 C 816.962 -2.05409 2.97472 0
M  V30 8438 O 816.683 -1.33785 4.17173 0
M  V30 8439 C 818.184 -2.93082 3.32593 0
M  V30 8440 H 815.404 -0.316578 0.591624 0
M  V30 8441 H 817.948 -0.352691 2.01436 0
M  V30 8442 H 816.103 -2.72266 2.7559 0
M  V30 8443 H 816.517 -2.00055 4.84849 0
M  V30 8444 H 817.991 -3.58274 4.19933 0
M  V30 8445 H 818.468 -3.60877 2.50329 0
M  V30 8446 H 819.074 -2.31768 3.566 0
M  V30 8447 N 817.389 -1.46805 -0.573248 0
M  V30 8448 C 818.299 -1.60687 -1.70929 0
M  V30 8449 C 819.315 -0.490084 -1.66956 0
M  V30 8450 O 820.491 -0.755482 -1.86693 0
M  V30 8451 C 817.556 -1.60259 -3.07438 0
M  V30 8452 C 816.617 -2.83242 -3.22603 0
M  V30 8453 C 815.85 -2.82825 -4.52599 0
M  V30 8454 O 816.073 -1.92113 -5.37074 0
M  V30 8455 O 815.007 -3.74489 -4.71213 0
M  V30 8456 H 818.833 -2.56782 -1.62163 0
M  V30 8457 H 816.418 -1.29706 -0.741399 0
M  V30 8458 H 818.3 -1.6275 -3.88704 0
M  V30 8459 H 816.975 -0.673268 -3.16621 0
M  V30 8460 H 815.882 -2.86302 -2.40794 0
M  V30 8461 H 817.215 -3.75415 -3.18315 0
M  V30 8462 N 818.867 0.818669 -1.34668 0
M  V30 8463 C 820.115 1.57201 -1.27013 0
M  V30 8464 C 820.436 1.94354 0.158599 0
M  V30 8465 O 819.706 1.62626 1.09223 0
M  V30 8466 H 818.286 0.582919 -0.467135 0
M  V30 8467 H 820.948 0.977234 -1.6863 0
M  V30 8468 H 820.044 2.49291 -1.87778 0
M  V30 8469 N 820.346 1.18468 1.03938 0
M  V30 8470 C 821.593 0.980833 1.77161 0
M  V30 8471 C 821.921 -0.489425 1.88242 0
M  V30 8472 O 821.176 -1.37961 1.388 0
M  V30 8473 C 821.475 1.58229 3.20466 0
M  V30 8474 C 821.141 3.07889 3.29416 0
M  V30 8475 C 819.803 3.48737 3.31566 0
M  V30 8476 C 822.155 4.03903 3.29411 0
M  V30 8477 C 819.483 4.84171 3.31355 0
M  V30 8478 C 821.835 5.39253 3.3074 0
M  V30 8479 C 820.499 5.79547 3.31182 0
M  V30 8480 H 819.769 0.358912 0.648277 0
M  V30 8481 H 822.416 1.47552 1.22069 0
M  V30 8482 H 820.721 1.00964 3.78568 0
M  V30 8483 H 822.418 1.39998 3.75768 0
M  V30 8484 H 819.008 2.75335 3.28464 0
M  V30 8485 H 823.192 3.73395 3.2694 0
M  V30 8486 H 818.448 5.14685 3.30015 0
M  V30 8487 H 822.622 6.13417 3.29686 0
M  V30 8488 H 820.249 6.84466 3.30772 0
M  V30 8489 N 821.824 -1.22873 0.986916 0
M  V30 8490 C 823.073 -1.90772 0.654911 0
M  V30 8491 C 823.386 -1.77768 -0.81595 0
M  V30 8492 O 824.592 -2.40529 -1.25929 0
M  V30 8493 C 823.048 -3.42003 1.12081 0
M  V30 8494 C 822.656 -3.63655 2.61647 0
M  V30 8495 C 824.4 -4.15638 0.862854 0
M  V30 8496 C 822.307 -5.08555 3.01871 0
M  V30 8497 H 821.237 -0.714362 0.241252 0
M  V30 8498 H 823.888 -1.39196 1.19568 0
M  V30 8499 H 822.27 -3.92725 0.508207 0
M  V30 8500 H 823.444 -3.2345 3.28202 0
M  V30 8501 H 821.759 -3.03341 2.8526 0
M  V30 8502 H 824.356 -5.22425 1.13915 0
M  V30 8503 H 824.699 -4.15814 -0.201036 0
M  V30 8504 H 825.232 -3.70924 1.43736 0
M  V30 8505 H 821.971 -5.13514 4.07411 0
M  V30 8506 H 821.491 -5.49684 2.40015 0
M  V30 8507 H 823.17 -5.76936 2.92839 0
M  V30 8508 N 823.302 -0.75937 -1.38099 0
M  V30 8509 C 824.55 -0.317485 -1.99591 0
M  V30 8510 C 824.871 1.10628 -1.60581 0
M  V30 8511 O 824.141 1.7575 -0.865378 0
M  V30 8512 H 822.721 -0.114397 -0.738189 0
M  V30 8513 H 825.383 -0.974749 -1.68774 0
M  V30 8514 H 824.479 -0.385227 -3.09713 0
M  V30 8515 N 824.78 1.49157 -0.508906 0
M  V30 8516 C 825.71 2.32109 0.254469 0
M  V30 8517 C 826.691 1.40754 0.955111 0
M  V30 8518 O 827.876 1.69658 0.944983 0
M  V30 8519 C 825.006 3.21458 1.3146 0
M  V30 8520 C 823.96 4.2167 0.733368 0
M  V30 8521 C 823.286 5.00009 1.8946 0
M  V30 8522 C 824.586 5.21544 -0.280875 0
M  V30 8523 H 826.28 2.9618 -0.43795 0
M  V30 8524 H 823.826 1.4243 -0.212062 0
M  V30 8525 H 825.779 3.78305 1.85643 0
M  V30 8526 H 824.503 2.55346 2.03632 0
M  V30 8527 H 823.162 3.65979 0.213231 0
M  V30 8528 H 822.81 4.30338 2.60419 0
M  V30 8529 H 822.51 5.67821 1.51173 0
M  V30 8530 H 824.034 5.59702 2.44061 0
M  V30 8531 H 825.448 5.73039 0.173095 0
M  V30 8532 H 823.845 5.97291 -0.580006 0
M  V30 8533 H 824.915 4.69969 -1.19404 0
M  V30 8534 N 826.258 0.243083 1.55714 0
M  V30 8535 C 827.206 -0.674349 2.2261 0
M  V30 8536 C 828.2 -1.18307 1.21243 0
M  V30 8537 O 829.406 -1.1404 1.39265 0
M  V30 8538 H 825.781 -0.235941 0.714028 0
M  V30 8539 H 827.752 -0.0869446 2.98273 0
M  V30 8540 C 826.501 -1.86206 2.93637 0
M  V30 8541 H 825.824 -1.47975 3.71407 0
M  V30 8542 H 827.264 -2.4813 3.43813 0
M  V30 8543 C 825.723 -2.73084 1.97298 0
M  V30 8544 O 826.253 -3.72497 1.50361 0
M  V30 8545 N 824.459 -2.39571 1.64482 0
M  V30 8546 H 824.006 -1.5878 2.02846 0
M  V30 8547 H 823.964 -2.97976 1.00288 0
M  V30 8548 N 827.736 -1.57571 -0.0300757 0
M  V30 8549 C 828.961 -1.93879 -0.736601 0
M  V30 8550 C 829.386 -0.842998 -1.68152 0
M  V30 8551 O 828.744 0.20135 -1.80178 0
M  V30 8552 C 828.792 -3.29247 -1.47066 0
M  V30 8553 O 827.896 -3.21426 -2.58378 0
M  V30 8554 H 827.237 -0.633735 -0.198181 0
M  V30 8555 H 829.767 -2.04595 0.0141485 0
M  V30 8556 H 829.777 -3.64113 -1.84081 0
M  V30 8557 H 828.452 -4.08565 -0.77764 0
M  V30 8558 H 827.029 -2.98189 -2.23914 0
M  V30 8559 N 829.214 0.302327 -1.54673 0
M  V30 8560 C 830.46 1.03924 -1.74149 0
M  V30 8561 C 830.793 1.86968 -0.525041 0
M  V30 8562 O 830.068 1.88538 0.477868 0
M  V30 8563 C 830.351 1.94633 -3.02969 0
M  V30 8564 C 830.204 1.14778 -4.34909 0
M  V30 8565 C 831.523 2.93826 -3.27649 0
M  V30 8566 H 828.642 0.376405 -0.633631 0
M  V30 8567 H 831.284 0.314007 -1.87387 0
M  V30 8568 H 829.434 2.56471 -2.91813 0
M  V30 8569 H 831.106 0.552363 -4.57981 0
M  V30 8570 H 829.349 0.450462 -4.31455 0
M  V30 8571 H 830.02 1.81495 -5.21309 0
M  V30 8572 H 832.496 2.42117 -3.38406 0
M  V30 8573 H 831.372 3.54462 -4.19104 0
M  V30 8574 H 831.633 3.67416 -2.45882 0
M  V30 8575 N 830.692 1.47107 0.565454 0
M  V30 8576 C 831.642 1.55384 1.66852 0
M  V30 8577 C 832.626 0.413369 1.55499 0
M  V30 8578 O 833.818 0.66281 1.64121 0
M  V30 8579 C 830.947 1.5634 3.05635 0
M  V30 8580 C 830.033 2.75742 3.22222 0
M  V30 8581 N 830.424 4.00515 3.08903 0
M  V30 8582 C 828.722 2.7233 3.53203 0
M  V30 8583 C 829.423 4.80435 3.27959 0
M  V30 8584 N 828.399 4.1261 3.53913 0
M  V30 8585 H 832.201 2.49635 1.55111 0
M  V30 8586 H 829.715 1.42986 0.769982 0
M  V30 8587 H 831.712 1.60359 3.84825 0
M  V30 8588 H 830.372 0.631785 3.18494 0
M  V30 8589 H 831.383 4.31501 2.86404 0
M  V30 8590 H 828.06 1.8827 3.7264 0
M  V30 8591 H 829.45 5.89334 3.22699 0
M  V30 8592 N 832.17 -0.811516 1.35101 0
M  V30 8593 C 833.41 -1.58177 1.29458 0
M  V30 8594 C 833.774 -1.91555 -0.130688 0
M  V30 8595 O 834.975 -2.6699 -0.311428 0
M  V30 8596 C 833.246 -2.83896 2.17112 0
M  V30 8597 S 834.805 -3.74344 2.28936 0
M  V30 8598 H 831.623 -0.542021 0.460146 0
M  V30 8599 H 834.225 -0.957653 1.70438 0
M  V30 8600 H 832.929 -2.57391 3.19653 0
M  V30 8601 H 832.46 -3.51297 1.7707 0
M  V30 8602 H 834.475 -4.73909 1.47054 0
M  V30 8603 N 833.648 -1.19017 -1.03309 0
M  V30 8604 C 834.894 -0.991681 -1.769 0
M  V30 8605 C 835.227 0.476813 -1.88255 0
M  V30 8606 O 834.502 1.35407 -1.39625 0
M  V30 8607 C 834.785 -1.65627 -3.19749 0
M  V30 8608 C 834.638 -3.19813 -3.1629 0
M  V30 8609 C 835.957 -1.37579 -4.18043 0
M  V30 8610 H 833.076 -0.361674 -0.642153 0
M  V30 8611 H 835.718 -1.46795 -1.20628 0
M  V30 8612 H 833.868 -1.25132 -3.67796 0
M  V30 8613 H 835.54 -3.69494 -2.76174 0
M  V30 8614 H 833.783 -3.51578 -2.54117 0
M  V30 8615 H 834.454 -3.61457 -4.17196 0
M  V30 8616 H 836.93 -1.72679 -3.78578 0
M  V30 8617 H 835.806 -1.86636 -5.16196 0
M  V30 8618 H 836.067 -0.300118 -4.4108 0
M  V30 8619 N 835.127 1.22348 -0.993418 0
M  V30 8620 C 836.059 2.23626 -0.502404 0
M  V30 8621 C 837.072 1.57739 0.402784 0
M  V30 8622 O 838.261 1.77321 0.204835 0
M  V30 8623 C 835.361 3.37647 0.291118 0
M  V30 8624 C 834.534 4.33121 -0.610332 0
M  V30 8625 C 833.593 5.26035 0.131572 0
M  V30 8626 O 832.619 5.67145 -0.483199 0
M  V30 8627 N 833.821 5.63023 1.41371 0
M  V30 8628 H 836.586 2.66385 -1.37329 0
M  V30 8629 H 834.147 1.36653 -0.868196 0
M  V30 8630 H 836.139 3.96792 0.796107 0
M  V30 8631 H 834.709 2.93967 1.0631 0
M  V30 8632 H 833.929 3.72287 -1.29598 0
M  V30 8633 H 835.217 4.93853 -1.22422 0
M  V30 8634 H 834.615 5.31596 1.93449 0
M  V30 8635 H 833.172 6.24582 1.86388 0
M  V30 8636 N 836.605 0.766683 1.37694 0
M  V30 8637 C 837.853 0.328065 1.9942 0
M  V30 8638 C 838.174 -1.09775 1.61166 0
M  V30 8639 O 837.444 -1.75288 0.874686 0
M  V30 8640 H 836.024 0.11831 0.737572 0
M  V30 8641 H 838.686 0.983686 1.68255 0
M  V30 8642 H 837.782 0.401647 3.09505 0
M  V30 8643 N 838.083 -1.48885 0.516809 0
M  V30 8644 C 839.308 -2.0739 -0.0205201 0
M  V30 8645 C 839.733 -1.37259 -1.28614 0
M  V30 8646 O 839.091 -0.434304 -1.76021 0
M  V30 8647 C 839.139 -3.59793 -0.24104 0
M  V30 8648 O 838.243 -3.90957 -1.31251 0
M  V30 8649 H 837.584 -0.663167 0.0332564 0
M  V30 8650 H 840.114 -1.91477 0.720956 0
M  V30 8651 H 840.124 -4.0531 -0.467737 0
M  V30 8652 H 838.799 -4.10244 0.68356 0
M  V30 8653 H 837.376 -3.57234 -1.06951 0
M  V30 8654 N 839.561 -0.251338 -1.55583 0
M  V30 8655 C 840.791 0.375642 -2.03156 0
M  V30 8656 C 841.199 1.51761 -1.12983 0
M  V30 8657 O 840.542 1.83184 -0.13757 0
M  V30 8658 C 840.604 0.941001 -3.46966 0
M  V30 8659 C 840.268 -0.0692886 -4.56947 0
M  V30 8660 C 841.265 -0.88041 -5.12391 0
M  V30 8661 C 838.95 -0.196661 -5.01915 0
M  V30 8662 C 840.944 -1.80532 -6.11299 0
M  V30 8663 C 838.631 -1.12507 -6.00654 0
M  V30 8664 C 839.629 -1.92792 -6.55225 0
M  V30 8665 O 839.317 -2.84067 -7.52038 0
M  V30 8666 H 839.049 0.0928836 -0.669588 0
M  V30 8667 H 841.603 -0.374115 -2.01964 0
M  V30 8668 H 839.833 1.7404 -3.45322 0
M  V30 8669 H 841.522 1.47853 -3.78014 0
M  V30 8670 H 842.288 -0.792615 -4.78479 0
M  V30 8671 H 838.167 0.418187 -4.59099 0
M  V30 8672 H 841.711 -2.43239 -6.5382 0
M  V30 8673 H 837.608 -1.21377 -6.33986 0
M  V30 8674 H 838.376 -2.78479 -7.6967 0
M  V30 8675 N 841.039 1.57585 0.0217189 0
M  V30 8676 C 842.45 1.7787 0.567377 0
M  V30 8677 C 842.801 0.883337 1.7519 0
M  V30 8678 O 841.926 0.0800819 2.16252 0
M  V30 8679 C 842.521 3.2257 1.03606 0
M  V30 8680 C 841.08 3.44026 1.52718 0
M  V30 8681 C 840.227 2.73313 0.468545 0
M  V30 8682 H 843.178 1.57377 -0.2045 0
M  V30 8683 H 843.199 3.29488 1.9031 0
M  V30 8684 H 842.711 3.87711 0.173739 0
M  V30 8685 H 840.812 2.8407 2.41111 0
M  V30 8686 H 840.925 4.52659 1.56962 0
M  V30 8687 H 839.289 2.37299 0.925263 0
M  V30 8688 H 840.072 3.41141 -0.384438 0
M  V30 8689 N 842.517 -0.29412 1.54831 0
M  V30 8690 C 843.928 -0.866651 1.65366 0
M  V30 8691 C 844.279 -1.87834 0.56681 0
M  V30 8692 O 843.404 -2.14374 -0.295389 0
M  V30 8693 C 843.999 -1.57869 2.99771 0
M  V30 8694 C 842.558 -2.09954 3.12404 0
M  V30 8695 C 841.705 -0.934492 2.6108 0
M  V30 8696 H 844.656 -0.0709551 1.58541 0
M  V30 8697 H 844.677 -2.44462 2.91579 0
M  V30 8698 H 844.189 -0.84212 3.78853 0
M  V30 8699 H 842.29 -2.86637 2.38055 0
M  V30 8700 H 842.403 -2.32934 4.18663 0
M  V30 8701 H 840.767 -1.32199 2.17705 0
M  V30 8702 H 841.55 -0.211768 3.42646 0
M  V30 8703 N 843.995 -1.47404 -0.557645 0
M  V30 8704 C 844.925 -1.62736 -1.67449 0
M  V30 8705 C 845.906 -0.476824 -1.6328 0
M  V30 8706 O 847.091 -0.706108 -1.80908 0
M  V30 8707 C 844.221 -1.641 -3.06086 0
M  V30 8708 C 843.175 -2.78377 -3.25101 0
M  V30 8709 C 842.501 -2.64812 -4.6452 0
M  V30 8710 C 843.801 -4.19971 -3.10518 0
M  V30 8711 H 845.495 -2.56232 -1.54873 0
M  V30 8712 H 843.041 -1.23312 -0.743649 0
M  V30 8713 H 844.994 -1.73417 -3.84063 0
M  V30 8714 H 843.718 -0.671652 -3.19619 0
M  V30 8715 H 842.377 -2.6857 -2.49531 0
M  V30 8716 H 842.025 -1.65906 -4.74852 0
M  V30 8717 H 841.725 -3.41477 -4.78191 0
M  V30 8718 H 843.249 -2.76057 -5.44633 0
M  V30 8719 H 844.663 -4.30757 -3.78313 0
M  V30 8720 H 843.06 -4.97419 -3.35699 0
M  V30 8721 H 844.13 -4.38369 -2.0727 0
M  V30 8722 N 845.473 0.80434 -1.35529 0
M  V30 8723 C 846.403 1.93086 -1.31301 0
M  V30 8724 C 847.384 1.69068 -0.187044 0
M  V30 8725 O 848.569 1.90399 -0.382359 0
M  V30 8726 C 845.699 3.29867 -1.0865 0
M  V30 8727 C 844.653 3.68373 -2.17911 0
M  V30 8728 C 843.979 5.0334 -1.80423 0
M  V30 8729 C 845.279 3.78516 -3.59893 0
M  V30 8730 H 846.973 1.96882 -2.25561 0
M  V30 8731 H 844.519 0.945841 -1.08581 0
M  V30 8732 H 846.472 4.08281 -1.04331 0
M  V30 8733 H 845.196 3.2642 -0.108359 0
M  V30 8734 H 843.855 2.92247 -2.21331 0
M  V30 8735 H 843.503 4.96399 -0.812213 0
M  V30 8736 H 843.203 5.30074 -2.53565 0
M  V30 8737 H 844.727 5.84191 -1.77633 0
M  V30 8738 H 846.141 4.47155 -3.58783 0
M  V30 8739 H 844.538 4.16721 -4.31814 0
M  V30 8740 H 845.608 2.8001 -3.95882 0
M  V30 8741 N 846.951 1.19563 1.02676 0
M  V30 8742 C 847.881 0.959024 2.12897 0
M  V30 8743 C 848.862 -0.108382 1.69754 0
M  V30 8744 O 850.047 0.0470698 1.94143 0
M  V30 8745 C 847.177 0.499211 3.43693 0
M  V30 8746 C 846.131 1.5087 4.00528 0
M  V30 8747 C 845.457 0.905884 5.2697 0
M  V30 8748 C 846.757 2.88954 4.3509 0
M  V30 8749 H 848.451 1.88084 2.32948 0
M  V30 8750 H 845.997 0.905731 1.11949 0
M  V30 8751 H 847.95 0.320965 4.20176 0
M  V30 8752 H 846.674 -0.458205 3.2337 0
M  V30 8753 H 845.333 1.67413 3.26142 0
M  V30 8754 H 844.981 -0.0591506 5.02965 0
M  V30 8755 H 844.681 1.58 5.65959 0
M  V30 8756 H 846.205 0.73848 6.06118 0
M  V30 8757 H 847.619 2.75981 5.02501 0
M  V30 8758 H 846.016 3.53177 4.85166 0
M  V30 8759 H 847.086 3.41447 3.44299 0
M  V30 8760 N 848.429 -1.21819 0.999893 0
M  V30 8761 C 849.376 -2.24003 0.556005 0
M  V30 8762 C 850.346 -1.60825 -0.415287 0
M  V30 8763 O 851.531 -1.88123 -0.318481 0
M  V30 8764 C 848.671 -3.44904 -0.116289 0
M  V30 8765 C 847.784 -4.22573 0.897574 0
M  V30 8766 C 846.919 -5.30831 0.198073 0
M  V30 8767 C 845.958 -6.00225 1.19983 0
M  V30 8768 N 845.095 -7.00111 0.528157 0
M  V30 8769 H 849.935 -2.61334 1.43208 0
M  V30 8770 H 847.472 -1.28431 0.717205 0
M  V30 8771 H 849.43 -4.13908 -0.523055 0
M  V30 8772 H 848.06 -3.08315 -0.956108 0
M  V30 8773 H 847.112 -3.52797 1.42262 0
M  V30 8774 H 848.424 -4.70363 1.66013 0
M  V30 8775 H 847.578 -6.06121 -0.265065 0
M  V30 8776 H 846.317 -4.84033 -0.596924 0
M  V30 8777 H 845.322 -5.23711 1.67353 0
M  V30 8778 H 846.547 -6.4911 1.99582 0
M  V30 8779 H 844.493 -6.55534 -0.247276 0
M  V30 8780 H 844.41 -7.45943 1.22904 0
M  V30 8781 H 845.678 -7.7945 0.0880543 0
M  V30 8782 N 849.908 -0.773975 -1.37286 0
M  V30 8783 C 850.871 -0.167974 -2.28584 0
M  V30 8784 C 851.871 0.625662 -1.48129 0
M  V30 8785 O 853.061 0.448924 -1.68316 0
M  V30 8786 C 850.193 0.769364 -3.32105 0
M  V30 8787 H 851.386 -0.972806 -2.83684 0
M  V30 8788 H 848.939 -0.542335 -1.46589 0
M  V30 8789 H 849.674 1.59912 -2.82132 0
M  V30 8790 H 849.459 0.202419 -3.91577 0
M  V30 8791 H 850.949 1.18872 -4.00324 0
M  V30 8792 N 851.386 1.48609 -0.524698 0
M  V30 8793 C 852.632 2.034 0.00323579 0
M  V30 8794 C 852.987 1.39513 1.32491 0
M  V30 8795 O 852.28 0.529876 1.84127 0
M  V30 8796 C 852.474 3.56906 0.187873 0
M  V30 8797 C 852.303 4.35674 -1.11436 0
M  V30 8798 C 851.073 4.76809 -1.67276 0
M  V30 8799 C 853.271 4.72814 -2.02365 0
M  V30 8800 N 851.253 5.40093 -2.91843 0
M  V30 8801 C 852.624 5.36062 -3.11508 0
M  V30 8802 C 854.679 4.54747 -2.02755 0
M  V30 8803 C 853.382 5.83154 -4.21099 0
M  V30 8804 C 855.408 5.02815 -3.11337 0
M  V30 8805 C 854.77 5.66084 -4.19199 0
M  V30 8806 H 850.869 0.780967 -0.0401842 0
M  V30 8807 H 853.453 1.81495 -0.704808 0
M  V30 8808 H 851.624 3.78645 0.864996 0
M  V30 8809 H 853.356 3.98335 0.714938 0
M  V30 8810 H 850.111 4.57754 -1.21483 0
M  V30 8811 H 850.535 5.76305 -3.55249 0
M  V30 8812 H 855.177 4.05217 -1.20661 0
M  V30 8813 H 852.895 6.31692 -5.03975 0
M  V30 8814 H 856.481 4.9063 -3.12688 0
M  V30 8815 H 855.361 6.02604 -5.01834 0
M  V30 8816 N 852.864 0.259585 1.55447 0
M  V30 8817 C 854.141 -0.412595 1.91199 0
M  V30 8818 C 854.521 -1.74909 1.18194 0
M  V30 8819 O 853.869 -2.26474 0.303603 0
M  V30 8820 C 854.079 -0.568195 3.44344 0
M  V30 8821 C 855.427 -0.858253 4.15836 0
M  V30 8822 O 856.451 -0.653588 3.50152 0
M  V30 8823 O 855.31 -1.24874 5.32042 0
M  V30 8824 H 852.404 -0.223403 0.796254 0
M  V30 8825 H 854.95 0.30459 1.66944 0
M  V30 8826 H 853.722 0.372989 3.89518 0
M  V30 8827 H 853.345 -1.33544 3.74502 0
M  V30 8828 N 854.342 -1.57594 -0.0133615 0
M  V30 8829 C 855.292 -2.04048 -1.01726 0
M  V30 8830 C 856.276 -0.932682 -1.3111 0
M  V30 8831 O 857.468 -1.19652 -1.30432 0
M  V30 8832 C 854.597 -2.53637 -2.31351 0
M  V30 8833 C 853.683 -3.71269 -2.04989 0
M  V30 8834 N 854.074 -4.83436 -1.48739 0
M  V30 8835 C 852.372 -3.78943 -2.35198 0
M  V30 8836 C 853.073 -5.64961 -1.38542 0
M  V30 8837 N 852.049 -5.10554 -1.86643 0
M  V30 8838 H 855.851 -2.88188 -0.576623 0
M  V30 8839 H 853.365 -1.60912 -0.219344 0
M  V30 8840 H 855.362 -2.85186 -3.04096 0
M  V30 8841 H 854.022 -1.7091 -2.76079 0
M  V30 8842 H 855.033 -5.04558 -1.16798 0
M  V30 8843 H 851.71 -3.07047 -2.82893 0
M  V30 8844 H 853.1 -6.65092 -0.954075 0
M  V30 8845 N 855.82 0.285905 -1.54985 0
M  V30 8846 C 857.05 1.03626 -1.78732 0
M  V30 8847 C 857.458 1.80896 -0.554377 0
M  V30 8848 O 856.801 1.77161 0.48578 0
M  V30 8849 C 856.863 2.05185 -2.95193 0
M  V30 8850 C 856.527 1.46973 -4.32722 0
M  V30 8851 C 857.524 0.891986 -5.12191 0
M  V30 8852 C 855.209 1.50081 -4.79355 0
M  V30 8853 C 857.203 0.353078 -6.36421 0
M  V30 8854 C 854.89 0.958037 -6.03544 0
M  V30 8855 C 855.888 0.385157 -6.81913 0
M  V30 8856 O 855.576 -0.149341 -8.03761 0
M  V30 8857 H 855.308 0.312416 -0.599477 0
M  V30 8858 H 857.862 0.326067 -2.02795 0
M  V30 8859 H 856.092 2.79928 -2.66791 0
M  V30 8860 H 857.781 2.66244 -3.0638 0
M  V30 8861 H 858.547 0.860762 -4.77301 0
M  V30 8862 H 854.426 1.9361 -4.18373 0
M  V30 8863 H 857.97 -0.0947181 -6.97536 0
M  V30 8864 H 853.867 0.986458 -6.37918 0
M  V30 8865 H 854.635 -0.0374719 -8.18491 0
M  V30 8866 N 857.298 1.47698 0.54982 0
M  V30 8867 C 858.246 1.61156 1.67724 0
M  V30 8868 C 859.24 0.478606 1.62498 0
M  V30 8869 O 860.446 0.656661 1.67595 0
M  V30 8870 H 856.821 0.507304 0.55511 0
M  V30 8871 H 858.792 2.55884 1.53512 0
M  V30 8872 C 857.541 1.64994 3.06059 0
M  V30 8873 H 856.864 2.51525 3.10765 0
M  V30 8874 H 858.304 1.78459 3.84615 0
M  V30 8875 C 856.763 0.384677 3.34697 0
M  V30 8876 O 857.293 -0.511057 3.98436 0
M  V30 8877 N 855.499 0.262434 2.89413 0
M  V30 8878 H 855.046 0.99229 2.37721 0
M  V30 8879 H 855.004 -0.583177 3.08944 0
M  V30 8880 N 858.776 -0.797141 1.35954 0
M  V30 8881 C 860.001 -1.59097 1.33053 0
M  V30 8882 C 860.426 -1.87897 -0.0874592 0
M  V30 8883 O 859.784 -1.47291 -1.05712 0
M  V30 8884 C 859.832 -2.89346 2.152 0
M  V30 8885 O 858.936 -3.826 1.5392 0
M  V30 8886 H 858.277 -0.482895 0.45575 0
M  V30 8887 H 860.807 -0.988633 1.79129 0
M  V30 8888 H 860.817 -3.38686 2.27499 0
M  V30 8889 H 859.492 -2.6771 3.18283 0
M  V30 8890 H 858.069 -3.41174 1.50516 0
M  V30 8891 N 860.254 -1.20106 -1.0204 0
M  V30 8892 C 861.482 -1.0344 -1.79186 0
M  V30 8893 C 861.897 0.416542 -1.84148 0
M  V30 8894 O 861.254 1.28925 -1.29168 0
M  V30 8895 C 861.305 -1.60663 -3.23836 0
M  V30 8896 O 861.026 -3.00079 -3.19193 0
M  V30 8897 C 862.527 -1.48897 -4.17546 0
M  V30 8898 H 859.747 -0.364093 -0.563629 0
M  V30 8899 H 862.291 -1.5911 -1.28469 0
M  V30 8900 H 860.446 -1.09122 -3.71714 0
M  V30 8901 H 860.86 -3.27162 -4.09958 0
M  V30 8902 H 862.334 -1.93703 -5.16898 0
M  V30 8903 H 862.811 -0.440843 -4.36982 0
M  V30 8904 H 863.417 -1.9961 -3.75547 0
M  V30 8905 N 861.732 1.21287 -1.00634 0
M  V30 8906 C 862.679 2.23705 -0.567876 0
M  V30 8907 C 863.649 1.61043 0.406753 0
M  V30 8908 O 864.834 1.88289 0.308499 0
M  V30 8909 C 861.974 3.44961 0.097996 0
M  V30 8910 C 861.087 4.22091 -0.919972 0
M  V30 8911 C 860.222 5.30718 -0.226222 0
M  V30 8912 C 859.261 5.99581 -1.23165 0
M  V30 8913 N 858.398 6.99821 -0.565278 0
M  V30 8914 H 863.238 2.60571 -1.44592 0
M  V30 8915 H 860.775 1.28049 -0.724006 0
M  V30 8916 H 862.733 4.1418 0.501097 0
M  V30 8917 H 861.363 3.08818 0.939744 0
M  V30 8918 H 860.415 3.52038 -1.44131 0
M  V30 8919 H 861.727 4.69476 -1.68505 0
M  V30 8920 H 860.881 6.06253 0.232917 0
M  V30 8921 H 859.62 4.84343 0.571247 0
M  V30 8922 H 858.625 5.22816 -1.70128 0
M  V30 8923 H 859.85 6.48042 -2.03022 0
M  V30 8924 H 857.796 6.55656 0.212508 0
M  V30 8925 H 857.713 7.4528 -1.26858 0
M  V30 8926 H 858.981 7.79393 -0.129389 0
M  V30 8927 N 863.21 0.781244 1.36873 0
M  V30 8928 C 864.458 0.349198 1.9906 0
M  V30 8929 C 864.779 -1.0806 1.62321 0
M  V30 8930 O 864.049 -1.74351 0.893229 0
M  V30 8931 H 862.629 0.126126 0.736275 0
M  V30 8932 H 865.291 1.00148 1.67202 0
M  V30 8933 H 864.387 0.434451 3.09061 0
M  V30 8934 N 864.689 -1.48329 0.532571 0
M  V30 8935 C 865.914 -2.074 0.00147755 0
M  V30 8936 C 866.339 -1.38615 -1.27151 0
M  V30 8937 O 865.697 -0.452949 -1.75551 0
M  V30 8938 C 865.745 -3.60029 -0.202866 0
M  V30 8939 O 864.849 -3.92327 -1.27097 0
M  V30 8940 H 864.19 -0.662777 0.0402883 0
M  V30 8941 H 866.72 -1.90701 0.741224 0
M  V30 8942 H 866.73 -4.05783 -0.424722 0
M  V30 8943 H 865.405 -4.09496 0.727033 0
M  V30 8944 H 863.982 -3.58348 -1.03156 0
M  V30 8945 N 866.167 -0.267825 -1.55308 0
M  V30 8946 C 867.13 0.60965 -2.20943 0
M  V30 8947 C 868.13 1.0869 -1.18504 0
M  V30 8948 O 869.32 0.988248 -1.43455 0
M  V30 8949 C 866.452 1.84027 -2.86961 0
M  V30 8950 H 867.645 0.0366806 -2.99878 0
M  V30 8951 H 865.198 -0.0183941 -1.56289 0
M  V30 8952 H 865.933 2.45394 -2.1202 0
M  V30 8953 H 865.718 1.50605 -3.62023 0
M  V30 8954 H 867.208 2.46442 -3.37129 0
M  V30 8955 N 867.645 1.57599 0.00500368 0
M  V30 8956 C 868.593 2.09223 1.01628 0
M  V30 8957 C 869.587 1.01113 1.35913 0
M  V30 8958 O 870.793 1.19583 1.34536 0
M  V30 8959 H 867.168 0.667999 0.345372 0
M  V30 8960 H 869.139 2.93188 0.555274 0
M  V30 8961 C 867.888 2.60674 2.30097 0
M  V30 8962 H 867.211 3.43491 2.04582 0
M  V30 8963 H 868.651 3.00479 2.99146 0
M  V30 8964 C 867.11 1.51862 3.00731 0
M  V30 8965 O 867.64 0.898651 3.91519 0
M  V30 8966 N 865.846 1.24729 2.62471 0
M  V30 8967 H 865.393 1.7533 1.88725 0
M  V30 8968 H 865.351 0.521437 3.10046 0
M  V30 8969 N 869.123 -0.277682 1.55134 0
M  V30 8970 C 870.4 -1.0309 1.66228 0
M  V30 8971 C 870.78 -2.0445 0.525701 0
M  V30 8972 O 870.128 -2.23512 -0.474816 0
M  V30 8973 C 870.338 -1.6919 3.05247 0
M  V30 8974 C 871.686 -2.20526 3.62841 0
M  V30 8975 O 872.71 -1.79185 3.07849 0
M  V30 8976 O 871.569 -2.96342 4.59177 0
M  V30 8977 H 868.663 -0.4779 0.674937 0
M  V30 8978 H 871.209 -0.273912 1.67475 0
M  V30 8979 H 869.981 -0.957163 3.79413 0
M  V30 8980 H 869.604 -2.51587 3.07879 0
M  V30 8981 N 870.601 -1.47988 -0.541979 0
M  V30 8982 C 872.017 -1.33843 -0.869383 0
M  V30 8983 C 872.217 -0.340374 -1.98604 0
M  V30 8984 O 871.273 0.242696 -2.51331 0
M  V30 8985 C 872.586 -2.73568 -1.24823 0
M  V30 8986 C 874.134 -2.81967 -1.3588 0
M  V30 8987 C 874.609 -4.22368 -1.77114 0
M  V30 8988 N 876.1 -4.24983 -1.84237 0
M  V30 8989 C 876.835 -5.30547 -2.17503 0
M  V30 8990 N 876.331 -6.46401 -2.49275 0
M  V30 8991 N 878.124 -5.17933 -2.18406 0
M  V30 8992 H 870.275 -2.11503 0.195001 0
M  V30 8993 H 872.538 -0.947681 0.0245862 0
M  V30 8994 H 872.244 -3.48107 -0.501435 0
M  V30 8995 H 872.118 -3.06322 -2.20106 0
M  V30 8996 H 874.505 -2.07692 -2.09638 0
M  V30 8997 H 874.586 -2.52848 -0.387478 0
M  V30 8998 H 874.23 -4.97155 -1.0392 0
M  V30 8999 H 874.16 -4.48922 -2.75275 0
M  V30 9000 H 876.651 -3.41411 -1.62009 0
M  V30 9001 H 876.964 -7.22698 -2.73729 0
M  V30 9002 H 875.309 -6.49696 -2.46821 0
M  V30 9003 H 878.5 -4.26445 -1.93034 0
M  V30 9004 H 878.673 -6.00307 -2.44 0
M  V30 9005 N 872.079 0.78992 -1.36375 0
M  V30 9006 C 873.49 1.36506 -1.2737 0
M  V30 9007 C 873.841 1.96008 0.086711 0
M  V30 9008 O 872.966 1.92521 0.988159 0
M  V30 9009 C 873.561 2.48175 -2.30639 0
M  V30 9010 C 872.12 3.01506 -2.25325 0
M  V30 9011 C 871.267 1.74581 -2.15445 0
M  V30 9012 H 874.218 0.591606 -1.47261 0
M  V30 9013 H 874.239 3.27179 -1.94253 0
M  V30 9014 H 873.751 2.04838 -3.2964 0
M  V30 9015 H 871.852 3.49265 -1.29788 0
M  V30 9016 H 871.965 3.58355 -3.17992 0
M  V30 9017 H 870.329 1.96794 -1.61692 0
M  V30 9018 H 871.112 1.33373 -3.16333 0
M  V30 9019 N 873.557 1.20646 1.01402 0
M  V30 9020 C 874.834 0.927176 1.72229 0
M  V30 9021 C 875.214 -0.563382 2.03443 0
M  V30 9022 O 874.562 -1.52576 1.70096 0
M  V30 9023 C 874.772 1.80285 2.98828 0
M  V30 9024 C 876.12 2.04624 3.72041 0
M  V30 9025 O 877.144 1.77559 3.0879 0
M  V30 9026 O 876.003 2.50347 4.85787 0
M  V30 9027 H 873.097 0.346891 0.75073 0
M  V30 9028 H 875.643 1.31532 1.07227 0
M  V30 9029 H 874.415 2.81204 2.72102 0
M  V30 9030 H 874.038 1.41495 3.71571 0
M  V30 9031 N 875.035 -1.20752 1.01276 0
M  V30 9032 C 876.282 -1.90021 0.699887 0
M  V30 9033 C 876.61 -1.78604 -0.770113 0
M  V30 9034 O 875.865 -1.16195 -1.57471 0
M  V30 9035 C 876.164 -3.40808 1.07633 0
M  V30 9036 C 875.83 -3.72423 2.54189 0
M  V30 9037 C 874.492 -3.80762 2.94234 0
M  V30 9038 C 876.844 -3.87025 3.49086 0
M  V30 9039 C 874.172 -4.01158 4.28123 0
M  V30 9040 C 876.524 -4.0893 4.82658 0
M  V30 9041 C 875.188 -4.15498 5.22415 0
M  V30 9042 H 874.458 -0.695335 0.256107 0
M  V30 9043 H 877.105 -1.43096 1.27263 0
M  V30 9044 H 875.41 -3.89521 0.421944 0
M  V30 9045 H 877.107 -3.92693 0.811997 0
M  V30 9046 H 873.697 -3.66529 2.22158 0
M  V30 9047 H 877.881 -3.79942 3.19309 0
M  V30 9048 H 873.137 -4.04476 4.58486 0
M  V30 9049 H 877.311 -4.19172 5.56119 0
M  V30 9050 H 874.938 -4.31055 6.26176 0
M  V30 9051 N 876.513 -0.788492 -1.36457 0
M  V30 9052 C 877.76 -0.360461 -1.99266 0
M  V30 9053 C 878.088 1.0676 -1.62581 0
M  V30 9054 O 877.343 1.75205 -0.871884 0
M  V30 9055 C 877.642 -0.470255 -3.54293 0
M  V30 9056 C 877.308 -1.85899 -4.10795 0
M  V30 9057 C 875.97 -2.23896 -4.25939 0
M  V30 9058 C 878.322 -2.76836 -4.41601 0
M  V30 9059 C 875.65 -3.52235 -4.69199 0
M  V30 9060 C 878.002 -4.04602 -4.86292 0
M  V30 9061 C 876.666 -4.42623 -4.99641 0
M  V30 9062 H 875.936 -0.131902 -0.729166 0
M  V30 9063 H 878.583 -1.00577 -1.62962 0
M  V30 9064 H 876.888 0.258559 -3.90946 0
M  V30 9065 H 878.585 -0.120119 -4.0082 0
M  V30 9066 H 875.175 -1.55372 -3.99447 0
M  V30 9067 H 879.359 -2.48735 -4.2947 0
M  V30 9068 H 874.615 -3.81565 -4.77722 0
M  V30 9069 H 878.789 -4.75182 -5.09092 0
M  V30 9070 H 876.416 -5.42125 -5.32921 0
M  V30 9071 N 877.991 1.48044 -0.54043 0
M  V30 9072 C 878.938 2.29781 0.216597 0
M  V30 9073 C 879.908 1.38021 0.924094 0
M  V30 9074 O 881.093 1.66985 0.923078 0
M  V30 9075 C 878.233 3.21623 1.2511 0
M  V30 9076 C 877.346 4.28467 0.551384 0
M  V30 9077 C 876.481 5.07477 1.56972 0
M  V30 9078 C 875.52 6.06113 0.854048 0
M  V30 9079 N 874.657 6.78143 1.81842 0
M  V30 9080 H 879.497 2.94001 -0.486578 0
M  V30 9081 H 877.034 1.44929 -0.251789 0
M  V30 9082 H 878.992 3.73279 1.8633 0
M  V30 9083 H 877.622 2.59305 1.92252 0
M  V30 9084 H 876.674 3.79997 -0.174982 0
M  V30 9085 H 877.986 4.98799 -0.0100542 0
M  V30 9086 H 877.14 5.63199 2.25592 0
M  V30 9087 H 875.879 4.37008 2.16507 0
M  V30 9088 H 874.884 5.49585 0.153838 0
M  V30 9089 H 876.109 6.78584 0.264675 0
M  V30 9090 H 874.055 6.10417 2.40265 0
M  V30 9091 H 873.972 7.44587 1.3087 0
M  V30 9092 H 875.24 7.38448 2.49628 0
M  V30 9093 N 879.47 0.276058 1.55163 0
M  V30 9094 C 880.747 -0.392292 1.91626 0
M  V30 9095 C 881.127 -1.73646 1.20043 0
M  V30 9096 O 880.475 -2.26139 0.327606 0
M  V30 9097 C 880.685 -0.531641 3.44927 0
M  V30 9098 C 882.033 -0.8141 4.16722 0
M  V30 9099 O 883.057 -0.616413 3.50826 0
M  V30 9100 O 881.916 -1.19224 5.33337 0
M  V30 9101 H 879.01 -0.214945 0.798579 0
M  V30 9102 H 881.556 0.32228 1.66612 0
M  V30 9103 H 880.328 0.414282 3.89101 0
M  V30 9104 H 879.951 -1.29564 3.75897 0
M  V30 9105 N 880.948 -1.576 0.00335426 0
M  V30 9106 C 882.225 -1.81945 -0.718015 0
M  V30 9107 C 882.605 -0.881788 -1.91801 0
M  V30 9108 O 881.953 0.0687118 -2.28397 0
M  V30 9109 C 882.163 -3.30521 -1.12058 0
M  V30 9110 C 883.511 -3.96345 -1.52303 0
M  V30 9111 O 884.535 -3.34864 -1.21428 0
M  V30 9112 O 883.394 -5.04655 -2.09728 0
M  V30 9113 H 880.488 -0.749328 -0.34991 0
M  V30 9114 H 883.034 -1.69675 0.0290654 0
M  V30 9115 H 881.806 -3.90399 -0.265378 0
M  V30 9116 H 881.429 -3.47802 -1.92665 0
M  V30 9117 N 882.426 0.269451 -1.5528 0
M  V30 9118 C 883.358 1.35553 -1.84819 0
M  V30 9119 C 884.371 1.45369 -0.732914 0
M  V30 9120 O 885.56 1.47122 -1.0108 0
M  V30 9121 C 882.66 2.73645 -1.9993 0
M  V30 9122 C 881.833 2.86376 -3.30617 0
M  V30 9123 C 880.892 4.05165 -3.35749 0
M  V30 9124 O 879.918 3.95756 -4.09104 0
M  V30 9125 N 881.12 5.17297 -2.63408 0
M  V30 9126 H 883.885 1.10557 -2.78563 0
M  V30 9127 H 881.446 0.459566 -1.5524 0
M  V30 9128 H 883.438 3.51411 -2.00729 0
M  V30 9129 H 882.008 2.91448 -1.13035 0
M  V30 9130 H 881.228 1.95465 -3.42326 0
M  V30 9131 H 882.516 2.91815 -4.16799 0
M  V30 9132 H 881.914 5.2783 -2.03501 0
M  V30 9133 H 880.471 5.93281 -2.69927 0
M  V30 9134 N 883.904 1.48273 0.534124 0
M  V30 9135 C 884.834 1.6538 1.64839 0
M  V30 9136 C 885.815 0.502741 1.62501 0
M  V30 9137 O 887 0.734799 1.79762 0
M  V30 9138 C 884.13 1.68949 3.03436 0
M  V30 9139 C 883.084 2.83513 3.20631 0
M  V30 9140 C 882.41 2.72169 4.60248 0
M  V30 9141 C 883.71 4.24858 3.03797 0
M  V30 9142 H 885.404 2.58663 1.50777 0
M  V30 9143 H 882.95 1.24479 0.723937 0
M  V30 9144 H 884.903 1.79505 3.81256 0
M  V30 9145 H 883.627 0.722415 3.1851 0
M  V30 9146 H 882.286 2.72505 2.45227 0
M  V30 9147 H 881.934 1.7344 4.72152 0
M  V30 9148 H 881.634 3.49042 4.72698 0
M  V30 9149 H 883.158 2.84687 5.40172 0
M  V30 9150 H 884.572 4.36721 3.71413 0
M  V30 9151 H 882.969 5.02697 3.27743 0
M  V30 9152 H 884.039 4.41611 2.0027 0
M  V30 9153 N 885.382 -0.782676 1.36792 0
M  V30 9154 C 886.629 -1.54083 1.31395 0
M  V30 9155 C 886.957 -1.94217 -0.104797 0
M  V30 9156 O 886.212 -1.63491 -1.0756 0
M  V30 9157 C 886.511 -2.82542 2.18872 0
M  V30 9158 C 886.177 -2.61512 3.67317 0
M  V30 9159 C 884.839 -2.55486 4.07775 0
M  V30 9160 C 887.191 -2.42389 4.61407 0
M  V30 9161 C 884.519 -2.28311 5.40454 0
M  V30 9162 C 886.871 -2.1674 5.94312 0
M  V30 9163 C 885.535 -2.09151 6.33887 0
M  V30 9164 H 884.805 -0.563829 0.48081 0
M  V30 9165 H 887.452 -0.902436 1.68903 0
M  V30 9166 H 885.757 -3.50883 1.74323 0
M  V30 9167 H 887.454 -3.40367 2.12017 0
M  V30 9168 H 884.044 -2.67062 3.35225 0
M  V30 9169 H 888.228 -2.46043 4.31018 0
M  V30 9170 H 883.484 -2.20922 5.70091 0
M  V30 9171 H 887.658 -2.0094 6.6678 0
M  V30 9172 H 885.285 -1.87857 7.36623 0
M  V30 9173 N 886.86 -1.21182 -1.00761 0
M  V30 9174 C 888.109 -1.02166 -1.73911 0
M  V30 9175 C 888.422 0.445638 -1.90456 0
M  V30 9176 O 889.628 0.755132 -2.60787 0
M  V30 9177 C 888.084 -1.77936 -3.12837 0
M  V30 9178 C 887.692 -3.28819 -3.04273 0
M  V30 9179 C 889.436 -1.67319 -3.90134 0
M  V30 9180 C 887.343 -3.97089 -4.38262 0
M  V30 9181 H 886.273 -0.378665 -0.652019 0
M  V30 9182 H 888.924 -1.44891 -1.12601 0
M  V30 9183 H 887.306 -1.28003 -3.74742 0
M  V30 9184 H 888.48 -3.86035 -2.51622 0
M  V30 9185 H 886.795 -3.39949 -2.40465 0
M  V30 9186 H 889.392 -2.15659 -4.8928 0
M  V30 9187 H 889.735 -0.630959 -4.11491 0
M  V30 9188 H 890.268 -2.14716 -3.34876 0
M  V30 9189 H 887.007 -5.01503 -4.22107 0
M  V30 9190 H 886.527 -3.44662 -4.90885 0
M  V30 9191 H 888.206 -4.01854 -5.07072 0
M  V30 9192 N 888.338 1.20213 -1.01915 0
M  V30 9193 C 889.584 1.89928 -0.711007 0
M  V30 9194 C 889.917 1.7881 0.75767 0
M  V30 9195 O 889.192 1.17399 1.55073 0
M  V30 9196 C 889.475 3.41225 -1.15053 0
M  V30 9197 C 889.328 3.61264 -2.67971 0
M  V30 9198 C 890.647 4.34108 -0.72377 0
M  V30 9199 H 887.766 0.689702 -0.259768 0
M  V30 9200 H 890.408 1.41557 -1.26734 0
M  V30 9201 H 888.558 3.82552 -0.677199 0
M  V30 9202 H 890.23 3.29173 -3.23176 0
M  V30 9203 H 888.473 3.04647 -3.08824 0
M  V30 9204 H 889.144 4.67331 -2.93779 0
M  V30 9205 H 891.62 4.00442 -1.13073 0
M  V30 9206 H 890.496 5.38581 -1.05931 0
M  V30 9207 H 890.757 4.40512 0.374424 0
M  V30 9208 N 889.816 0.795718 1.36037 0
M  V30 9209 C 890.746 0.212803 2.32528 0
M  V30 9210 C 891.727 -0.655716 1.56953 0
M  V30 9211 O 892.912 -0.588238 1.85077 0
M  V30 9212 C 890.042 -0.648189 3.41198 0
M  V30 9213 C 888.996 0.120948 4.27829 0
M  V30 9214 C 888.322 -0.861044 5.27722 0
M  V30 9215 C 889.622 1.31375 5.05508 0
M  V30 9216 H 891.316 1.01893 2.81528 0
M  V30 9217 H 888.862 0.491422 1.35355 0
M  V30 9218 H 890.815 -1.06597 4.07695 0
M  V30 9219 H 889.539 -1.48709 2.9078 0
M  V30 9220 H 888.198 0.519777 3.62897 0
M  V30 9221 H 887.846 -1.69515 4.73575 0
M  V30 9222 H 887.546 -0.350808 5.86552 0
M  V30 9223 H 889.07 -1.27726 5.97092 0
M  V30 9224 H 890.484 0.971406 5.6501 0
M  V30 9225 H 888.881 1.75772 5.73781 0
M  V30 9226 H 889.951 2.10593 4.36782 0
M  V30 9227 N 891.294 -1.47756 0.548274 0
M  V30 9228 C 892.204 -2.33678 -0.207773 0
M  V30 9229 C 893.22 -1.47636 -0.920843 0
M  V30 9230 O 894.396 -1.80583 -0.89173 0
M  V30 9231 C 891.461 -3.24147 -1.23003 0
M  V30 9232 C 890.522 -4.26073 -0.52535 0
M  V30 9233 C 889.755 -5.12219 -1.4989 0
M  V30 9234 O 889.978 -5.0066 -2.73305 0
M  V30 9235 O 888.912 -5.93051 -1.02828 0
M  V30 9236 H 892.738 -2.99609 0.496794 0
M  V30 9237 H 890.323 -1.4617 0.308982 0
M  V30 9238 H 892.205 -3.80055 -1.82034 0
M  V30 9239 H 890.88 -2.60855 -1.91668 0
M  V30 9240 H 889.787 -3.7395 0.105927 0
M  V30 9241 H 891.12 -4.92054 0.119686 0
M  V30 9242 N 892.772 -0.284283 -1.55015 0
M  V30 9243 C 894.019 0.329864 -1.99795 0
M  V30 9244 C 894.347 1.55171 -1.1727 0
M  V30 9245 O 893.602 1.94312 -0.232667 0
M  V30 9246 C 893.901 0.747219 -3.49502 0
M  V30 9247 C 893.567 -0.37101 -4.49371 0
M  V30 9248 C 892.229 -0.678034 -4.76399 0
M  V30 9249 C 894.581 -1.12406 -5.08935 0
M  V30 9250 C 891.909 -1.74152 -5.60257 0
M  V30 9251 C 894.261 -2.17734 -5.93948 0
M  V30 9252 C 892.925 -2.49061 -6.19294 0
M  V30 9253 H 892.195 0.120706 -0.731103 0
M  V30 9254 H 894.842 -0.399904 -1.87278 0
M  V30 9255 H 893.147 1.55681 -3.59542 0
M  V30 9256 H 894.844 1.2333 -3.81563 0
M  V30 9257 H 891.434 -0.1216 -4.28427 0
M  V30 9258 H 895.618 -0.900119 -4.88069 0
M  V30 9259 H 890.874 -1.98915 -5.78137 0
M  V30 9260 H 895.048 -2.76553 -6.39133 0
M  V30 9261 H 892.675 -3.31602 -6.84064 0
M  V30 9262 N 894.251 1.57596 -0.0117121 0
M  V30 9263 C 895.161 2.12596 0.991964 0
M  V30 9264 C 896.177 1.07399 1.36899 0
M  V30 9265 O 897.353 1.39365 1.45394 0
M  V30 9266 C 894.418 2.62796 2.2614 0
M  V30 9267 C 893.479 3.8264 1.94642 0
M  V30 9268 C 892.712 4.30435 3.15533 0
M  V30 9269 O 892.935 3.77495 4.27614 0
M  V30 9270 O 891.869 5.22469 2.98847 0
M  V30 9271 H 895.695 2.98597 0.554371 0
M  V30 9272 H 893.28 1.47947 0.207839 0
M  V30 9273 H 895.162 2.9523 3.00695 0
M  V30 9274 H 893.837 1.79886 2.69114 0
M  V30 9275 H 892.744 3.5516 1.17526 0
M  V30 9276 H 894.077 4.66658 1.56496 0
M  V30 9277 N 895.729 -0.261212 1.5542 0
M  V30 9278 C 896.976 -0.99123 1.76581 0
M  V30 9279 C 897.304 -1.85854 0.573457 0
M  V30 9280 O 896.559 -1.90604 -0.443705 0
M  V30 9281 C 896.858 -1.89395 3.03091 0
M  V30 9282 C 896.524 -1.18318 4.351 0
M  V30 9283 C 895.186 -0.986688 4.70975 0
M  V30 9284 C 897.538 -0.678299 5.16767 0
M  V30 9285 C 894.866 -0.272788 5.86065 0
M  V30 9286 C 897.218 0.0220646 6.32596 0
M  V30 9287 C 895.882 0.230161 6.67103 0
M  V30 9288 H 895.152 -0.362717 0.646156 0
M  V30 9289 H 897.799 -0.262506 1.89692 0
M  V30 9290 H 896.104 -2.68927 2.8493 0
M  V30 9291 H 897.801 -2.46022 3.16661 0
M  V30 9292 H 894.391 -1.34625 4.06908 0
M  V30 9293 H 898.575 -0.817691 4.89518 0
M  V30 9294 H 893.831 -0.10095 6.11317 0
M  V30 9295 H 898.005 0.420981 6.95126 0
M  V30 9296 H 895.632 0.785312 7.56133 0
M  V30 9297 N 897.207 -1.48554 -0.526253 0
M  V30 9298 C 898.455 -1.56452 -1.27935 0
M  V30 9299 C 898.776 -0.24184 -1.93495 0
M  V30 9300 O 898.046 0.736917 -1.81511 0
M  V30 9301 H 896.626 -0.576379 -0.47518 0
M  V30 9302 H 899.288 -1.85039 -0.612083 0
M  V30 9303 H 898.384 -2.34751 -2.05666 0
M  V30 9304 N 898.685 0.775411 -1.37205 0
M  V30 9305 C 899.933 1.53081 -1.3195 0
M  V30 9306 C 900.254 1.9476 0.0966864 0
M  V30 9307 O 899.524 1.66019 1.03993 0
M  V30 9308 H 898.104 0.567762 -0.485444 0
M  V30 9309 H 900.766 0.92309 -1.71654 0
M  V30 9310 H 899.862 2.4319 -1.95614 0
M  V30 9311 N 900.163 1.21714 1.00117 0
M  V30 9312 C 901.412 1.03087 1.73367 0
M  V30 9313 C 901.725 -0.435532 1.90689 0
M  V30 9314 O 902.931 -0.741291 2.61184 0
M  V30 9315 C 901.387 1.79593 3.11888 0
M  V30 9316 C 900.995 3.30428 3.02525 0
M  V30 9317 C 902.739 1.69386 3.89241 0
M  V30 9318 C 900.646 3.99408 4.3615 0
M  V30 9319 H 899.576 0.382117 0.650002 0
M  V30 9320 H 902.227 1.45486 1.11831 0
M  V30 9321 H 900.609 1.29988 3.74058 0
M  V30 9322 H 901.783 3.87364 2.49571 0
M  V30 9323 H 900.098 3.4122 2.38659 0
M  V30 9324 H 902.695 2.18251 4.8813 0
M  V30 9325 H 903.038 0.652773 4.1115 0
M  V30 9326 H 903.571 2.16489 3.33733 0
M  V30 9327 H 900.31 5.03735 4.19442 0
M  V30 9328 H 899.83 3.47261 4.8905 0
M  V30 9329 H 901.509 4.04537 5.04934 0
M  V30 9330 N 901.641 -1.19671 1.02551 0
M  V30 9331 C 902.918 -1.85014 0.634771 0
M  V30 9332 C 903.298 -1.91574 -0.886706 0
M  V30 9333 O 902.646 -1.43022 -1.78205 0
M  V30 9334 C 902.856 -3.24167 1.29292 0
M  V30 9335 C 904.204 -4.00363 1.41402 0
M  V30 9336 O 905.228 -3.33553 1.24983 0
M  V30 9337 O 904.087 -5.2003 1.6802 0
M  V30 9338 H 901.181 -0.797147 0.220196 0
M  V30 9339 H 903.727 -1.27188 1.12345 0
M  V30 9340 H 902.499 -3.14208 2.33215 0
M  V30 9341 H 902.122 -3.89634 0.791895 0
M  V30 9342 N 903.119 -0.802921 -1.35613 0
M  V30 9343 C 904.049 -0.225131 -2.32412 0
M  V30 9344 C 905.03 0.647383 -1.57299 0
M  V30 9345 O 906.215 0.578414 -1.85386 0
M  V30 9346 C 903.345 0.630085 -3.41537 0
M  V30 9347 C 902.299 -0.143635 -4.27759 0
M  V30 9348 C 901.625 0.833046 -5.28171 0
M  V30 9349 C 902.925 -1.34054 -5.04804 0
M  V30 9350 H 904.619 -1.03385 -2.80984 0
M  V30 9351 H 902.165 -0.498593 -1.35093 0
M  V30 9352 H 904.118 1.04433 -4.08254 0
M  V30 9353 H 902.842 1.47165 -2.91565 0
M  V30 9354 H 901.501 -0.539015 -3.62616 0
M  V30 9355 H 901.149 1.67001 -4.74468 0
M  V30 9356 H 900.849 0.319697 -5.8673 0
M  V30 9357 H 902.373 1.24558 -5.97761 0
M  V30 9358 H 903.787 -1.00136 -5.64487 0
M  V30 9359 H 902.184 -1.78812 -5.72841 0
M  V30 9360 H 903.254 -2.12906 -4.35659 0
M  V30 9361 N 904.597 1.47463 -0.556102 0
M  V30 9362 C 905.507 2.33785 0.195378 0
M  V30 9363 C 906.523 1.48123 0.913 0
M  V30 9364 O 907.699 1.81053 0.882141 0
M  V30 9365 C 904.764 3.24795 1.21282 0
M  V30 9366 C 903.825 4.26346 0.502747 0
M  V30 9367 C 903.058 5.13007 1.47172 0
M  V30 9368 O 903.281 5.02103 2.70646 0
M  V30 9369 O 902.215 5.93588 0.996814 0
M  V30 9370 H 906.041 2.99341 -0.512676 0
M  V30 9371 H 903.626 1.46004 -0.31673 0
M  V30 9372 H 905.508 3.81015 1.80016 0
M  V30 9373 H 904.183 2.61868 1.90282 0
M  V30 9374 H 903.09 3.73889 -0.125757 0
M  V30 9375 H 904.423 4.91984 -0.145779 0
M  V30 9376 N 906.075 0.2925 1.54862 0
M  V30 9377 C 907.007 -0.620889 2.2063 0
M  V30 9378 C 908.02 -1.10412 1.19637 0
M  V30 9379 O 909.209 -1.02304 1.46274 0
M  V30 9380 C 906.309 -1.861 2.83232 0
M  V30 9381 C 905.482 -1.52168 4.10078 0
M  V30 9382 C 904.541 -2.61605 4.56562 0
M  V30 9383 O 903.567 -2.27056 5.21952 0
M  V30 9384 N 904.769 -3.9199 4.28163 0
M  V30 9385 H 907.534 -0.0579028 2.99644 0
M  V30 9386 H 905.095 0.114333 1.61496 0
M  V30 9387 H 907.087 -2.58642 3.11266 0
M  V30 9388 H 905.657 -2.33259 2.08108 0
M  V30 9389 H 904.877 -0.629283 3.89145 0
M  V30 9390 H 906.165 -1.27023 4.92689 0
M  V30 9391 H 905.563 -4.22872 3.7576 0
M  V30 9392 H 904.12 -4.60857 4.60928 0
M  V30 9393 N 907.553 -1.57587 0.0200696 0
M  V30 9394 C 908.486 -2.05157 -0.999295 0
M  V30 9395 C 909.464 -0.945466 -1.32286 0
M  V30 9396 O 910.648 -1.21512 -1.44108 0
M  V30 9397 C 907.775 -2.46604 -2.32173 0
M  V30 9398 C 906.821 -3.68146 -2.15339 0
M  V30 9399 S 907.654 -5.15194 -1.46065 0
M  V30 9400 C 908.81 -5.59929 -2.79697 0
M  V30 9401 H 909.043 -2.91299 -0.59433 0
M  V30 9402 H 906.576 -1.53209 -0.191372 0
M  V30 9403 H 908.534 -2.7115 -3.08201 0
M  V30 9404 H 907.195 -1.60825 -2.69804 0
M  V30 9405 H 906.388 -3.94963 -3.13082 0
M  V30 9406 H 905.99 -3.43705 -1.47454 0
M  V30 9407 H 908.282 -5.63615 -3.75957 0
M  V30 9408 H 909.225 -6.59599 -2.57555 0
M  V30 9409 H 909.633 -4.87549 -2.84528 0
M  V30 9410 N 909.032 0.252966 -1.55557 0
M  V30 9411 C 910.448 0.60118 -1.47844 0
M  V30 9412 C 910.648 1.88612 -0.709055 0
M  V30 9413 O 909.704 2.51395 -0.235964 0
M  V30 9414 C 911.017 0.709539 -2.92209 0
M  V30 9415 C 912.565 0.802269 -3.02544 0
M  V30 9416 C 913.04 0.94224 -4.48203 0
M  V30 9417 N 914.531 1.00726 -4.52116 0
M  V30 9418 C 915.266 1.13472 -5.6206 0
M  V30 9419 N 914.762 1.22811 -6.81828 0
M  V30 9420 N 916.555 1.1674 -5.49844 0
M  V30 9421 H 908.706 -0.590635 -2.04023 0
M  V30 9422 H 910.969 -0.202986 -0.926013 0
M  V30 9423 H 910.675 -0.164505 -3.51315 0
M  V30 9424 H 910.549 1.58343 -3.42356 0
M  V30 9425 H 912.936 1.66677 -2.43522 0
M  V30 9426 H 913.017 -0.0966469 -2.55617 0
M  V30 9427 H 912.661 0.0823209 -5.07833 0
M  V30 9428 H 912.591 1.85611 -4.92805 0
M  V30 9429 H 915.082 0.946684 -3.6585 0
M  V30 9430 H 915.395 1.32426 -7.61369 0
M  V30 9431 H 913.74 1.19779 -6.84601 0
M  V30 9432 H 916.931 1.09089 -4.55211 0
M  V30 9433 H 917.104 1.26329 -6.35567 0
M  V30 9434 N 910.51 1.48831 0.518367 0
M  V30 9435 C 911.738 1.6112 1.298 0
M  V30 9436 C 912.153 0.275872 1.86774 0
M  V30 9437 O 911.51 -0.736416 1.66983 0
M  V30 9438 C 911.561 2.66675 2.44063 0
M  V30 9439 O 911.282 3.95027 1.89434 0
M  V30 9440 C 912.783 2.8951 3.35706 0
M  V30 9441 H 910.003 0.542916 0.394314 0
M  V30 9442 H 912.547 1.94743 0.624142 0
M  V30 9443 H 910.702 2.35879 3.07311 0
M  V30 9444 H 911.116 4.53031 2.64316 0
M  V30 9445 H 912.59 3.67142 4.12202 0
M  V30 9446 H 913.067 1.98768 3.91648 0
M  V30 9447 H 913.673 3.21656 2.7824 0
M  V30 9448 N 911.988 -0.768124 1.37614 0
M  V30 9449 C 912.935 -1.88151 1.33671 0
M  V30 9450 C 913.905 -1.64871 0.201645 0
M  V30 9451 O 915.09 -1.86739 0.391582 0
M  V30 9452 C 912.23 -3.25264 1.15314 0
M  V30 9453 C 911.343 -3.60473 2.38082 0
M  V30 9454 C 910.478 -4.86814 2.12569 0
M  V30 9455 C 909.517 -5.14765 3.31184 0
M  V30 9456 N 908.654 -6.32295 3.052 0
M  V30 9457 H 913.494 -1.90857 2.28862 0
M  V30 9458 H 911.031 -0.933048 1.13722 0
M  V30 9459 H 912.989 -4.04364 1.02691 0
M  V30 9460 H 911.619 -3.21924 0.237689 0
M  V30 9461 H 910.671 -2.7633 2.61431 0
M  V30 9462 H 911.983 -3.77065 3.26532 0
M  V30 9463 H 911.137 -5.73826 1.96999 0
M  V30 9464 H 909.876 -4.72333 1.21462 0
M  V30 9465 H 908.881 -4.26227 3.4729 0
M  V30 9466 H 910.106 -5.31153 4.23147 0
M  V30 9467 H 908.052 -6.19166 2.16726 0
M  V30 9468 H 907.969 -6.4932 3.87195 0
M  V30 9469 H 909.237 -7.22234 2.93254 0
M  V30 9470 N 913.466 -1.22244 -0.994698 0
M  V30 9471 C 914.396 -1.01513 -2.10279 0
M  V30 9472 C 915.377 0.0633365 -1.69982 0
M  V30 9473 O 916.562 -0.0985268 -1.9395 0
M  V30 9474 C 913.692 -0.59016 -3.42249 0
M  V30 9475 C 912.646 -1.61436 -3.96387 0
M  V30 9476 C 911.972 -1.04528 -5.24383 0
M  V30 9477 C 913.272 -3.00388 -4.27276 0
M  V30 9478 H 914.966 -1.94194 -2.2788 0
M  V30 9479 H 912.512 -0.935094 -1.09508 0
M  V30 9480 H 914.465 -0.432254 -4.19177 0
M  V30 9481 H 913.189 0.372308 -3.24471 0
M  V30 9482 H 911.848 -1.76001 -3.21589 0
M  V30 9483 H 911.496 -0.0742225 -5.02945 0
M  V30 9484 H 911.196 -1.72949 -5.61571 0
M  V30 9485 H 912.72 -0.898922 -6.03947 0
M  V30 9486 H 914.134 -2.89207 -4.95007 0
M  V30 9487 H 912.531 -3.65916 -4.75631 0
M  V30 9488 H 913.601 -3.50456 -3.35125 0
M  V30 9489 N 914.944 1.19125 -1.03184 0
M  V30 9490 C 916.169 1.93379 -0.749628 0
M  V30 9491 C 916.594 1.75153 0.685785 0
M  V30 9492 O 915.952 1.05579 1.47386 0
M  V30 9493 C 916 3.43101 -1.1097 0
M  V30 9494 O 915.104 4.11758 -0.230053 0
M  V30 9495 H 914.445 0.603605 -0.276689 0
M  V30 9496 H 916.975 1.51116 -1.37931 0
M  V30 9497 H 916.985 3.93778 -1.06785 0
M  V30 9498 H 915.66 3.55688 -2.15544 0
M  V30 9499 H 914.237 3.7143 -0.330748 0
M  V30 9500 N 916.422 0.810101 1.35185 0
M  V30 9501 C 917.647 0.40364 2.03434 0
M  V30 9502 C 918.072 -0.97857 1.60641 0
M  V30 9503 O 917.43 -1.63435 0.784779 0
M  V30 9504 C 917.478 0.499154 3.57129 0
M  V30 9505 O 916.582 -0.486039 4.09526 0
M  V30 9506 H 915.923 0.168049 0.642383 0
M  V30 9507 H 918.453 1.09696 1.72708 0
M  V30 9508 H 918.463 0.370236 4.06317 0
M  V30 9509 H 917.138 1.50733 3.87624 0
M  V30 9510 H 915.715 -0.31707 3.7155 0
M  V30 9511 N 917.9 -1.47166 0.563914 0
M  V30 9512 C 918.83 -2.32894 -0.168148 0
M  V30 9513 C 919.811 -1.44202 -0.902214 0
M  V30 9514 O 920.996 -1.73048 -0.881365 0
M  V30 9515 C 918.126 -3.26116 -1.19439 0
M  V30 9516 C 917.08 -4.24101 -0.576363 0
M  V30 9517 C 916.406 -5.06696 -1.70772 0
M  V30 9518 C 917.706 -5.20142 0.47425 0
M  V30 9519 H 919.4 -2.9435 0.547573 0
M  V30 9520 H 916.946 -1.41545 0.264778 0
M  V30 9521 H 918.899 -3.84935 -1.71474 0
M  V30 9522 H 917.623 -2.62728 -1.94014 0
M  V30 9523 H 916.282 -3.66519 -0.0772534 0
M  V30 9524 H 915.93 -4.39707 -2.44268 0
M  V30 9525 H 915.63 -5.7304 -1.29994 0
M  V30 9526 H 917.154 -5.68375 -2.2312 0
M  V30 9527 H 918.568 -5.73286 0.0397035 0
M  V30 9528 H 916.965 -5.94726 0.801287 0
M  V30 9529 H 918.035 -4.65214 1.36764 0
M  V30 9530 N 919.378 -0.300708 -1.54705 0
M  V30 9531 C 920.341 0.562648 -2.22187 0
M  V30 9532 C 921.341 1.06152 -1.20782 0
M  V30 9533 O 922.531 0.957596 -1.45519 0
M  V30 9534 C 919.663 1.77899 -2.908 0
M  V30 9535 H 920.856 -0.0269361 -2.99888 0
M  V30 9536 H 918.409 -0.0515412 -1.56215 0
M  V30 9537 H 919.144 2.40841 -2.17177 0
M  V30 9538 H 918.929 1.42892 -3.65136 0
M  V30 9539 H 920.419 2.39236 -3.42281 0
M  V30 9540 N 920.856 1.57574 -0.0284266 0
M  V30 9541 C 922.084 1.96071 0.660575 0
M  V30 9542 C 922.499 0.904881 1.65703 0
M  V30 9543 O 921.856 -0.113379 1.82147 0
M  V30 9544 C 921.907 3.34634 1.36756 0
M  V30 9545 O 921.628 4.36167 0.411041 0
M  V30 9546 C 923.129 3.87758 2.14845 0
M  V30 9547 H 920.349 0.645794 0.182183 0
M  V30 9548 H 922.893 2.04311 -0.0879858 0
M  V30 9549 H 921.048 3.27616 2.06753 0
M  V30 9550 H 921.462 5.16493 0.913 0
M  V30 9551 H 922.936 4.87058 2.59767 0
M  V30 9552 H 923.413 3.21967 2.9872 0
M  V30 9553 H 924.019 3.98043 1.49807 0
M  V30 9554 N 922.334 -0.244713 1.55689 0
M  V30 9555 C 923.297 -1.2864 1.89695 0
M  V30 9556 C 924.297 -1.40969 0.773583 0
M  V30 9557 O 925.487 -1.39632 1.04156 0
M  V30 9558 C 922.619 -2.66379 2.12732 0
M  V30 9559 H 923.812 -0.997033 2.82841 0
M  V30 9560 H 921.365 -0.484103 1.48614 0
M  V30 9561 H 922.1 -3.00452 1.22062 0
M  V30 9562 H 921.885 -2.58812 2.94549 0
M  V30 9563 H 923.375 -3.41592 2.40218 0
M  V30 9564 N 923.813 -1.49104 -0.510467 0
M  V30 9565 C 924.76 -1.65074 -1.61305 0
M  V30 9566 C 925.73 -0.492362 -1.58635 0
M  V30 9567 O 926.915 -0.718241 -1.76765 0
M  V30 9568 C 924.055 -1.71457 -2.99493 0
M  V30 9569 C 923.168 -2.98536 -3.12251 0
M  V30 9570 C 922.303 -2.95957 -4.41116 0
M  V30 9571 C 921.342 -4.17655 -4.47471 0
M  V30 9572 N 920.479 -4.13041 -5.67751 0
M  V30 9573 H 925.319 -2.59222 -1.46996 0
M  V30 9574 H 922.856 -1.28535 -0.715346 0
M  V30 9575 H 924.814 -1.7314 -3.79577 0
M  V30 9576 H 923.444 -0.807834 -3.12528 0
M  V30 9577 H 922.496 -3.06509 -2.25292 0
M  V30 9578 H 923.808 -3.88527 -3.12807 0
M  V30 9579 H 922.962 -2.96149 -5.2951 0
M  V30 9580 H 921.701 -2.03728 -4.4311 0
M  V30 9581 H 920.706 -4.17717 -3.57481 0
M  V30 9582 H 921.931 -5.11066 -4.472 0
M  V30 9583 H 919.877 -3.23643 -5.70606 0
M  V30 9584 H 919.794 -4.96757 -5.69884 0
M  V30 9585 H 921.062 -4.17322 -6.58379 0
M  V30 9586 N 925.291 0.760815 -1.38019 0
M  V30 9587 C 926.516 1.55513 -1.37224 0
M  V30 9588 C 926.941 1.88062 0.037611 0
M  V30 9589 O 926.299 1.50042 1.0177 0
M  V30 9590 C 926.347 2.83539 -2.22796 0
M  V30 9591 O 925.451 3.78384 -1.64009 0
M  V30 9592 H 924.792 0.470642 -0.468393 0
M  V30 9593 H 927.322 0.940792 -1.81687 0
M  V30 9594 H 927.332 3.32535 -2.36399 0
M  V30 9595 H 926.007 2.59178 -3.25269 0
M  V30 9596 H 924.584 3.37063 -1.59508 0
M  V30 9597 N 926.769 1.22769 0.988202 0
M  V30 9598 C 928.018 1.0492 1.72263 0
M  V30 9599 C 928.331 -0.415282 1.91141 0
M  V30 9600 O 929.537 -0.713547 2.61956 0
M  V30 9601 C 927.993 1.82891 3.09966 0
M  V30 9602 C 927.601 3.33618 2.99003 0
M  V30 9603 C 929.345 1.73505 3.87423 0
M  V30 9604 C 927.252 4.04012 4.3189 0
M  V30 9605 H 926.182 0.38899 0.645912 0
M  V30 9606 H 928.833 1.46664 1.10281 0
M  V30 9607 H 927.215 1.33948 3.72658 0
M  V30 9608 H 928.389 3.8999 2.45448 0
M  V30 9609 H 926.704 3.43732 2.35027 0
M  V30 9610 H 929.301 2.23416 4.85787 0
M  V30 9611 H 929.644 0.696344 4.10435 0
M  V30 9612 H 930.177 2.20016 3.31418 0
M  V30 9613 H 926.916 5.08155 4.14075 0
M  V30 9614 H 926.436 3.52428 4.8534 0
M  V30 9615 H 928.115 4.0987 5.00615 0
M  V30 9616 N 928.247 -1.18576 1.03814 0
M  V30 9617 C 929.177 -2.24334 0.647795 0
M  V30 9618 C 930.158 -1.66508 -0.34774 0
M  V30 9619 O 931.343 -1.92852 -0.228401 0
M  V30 9620 C 928.473 -3.47299 0.00734922 0
M  V30 9621 C 927.427 -4.17859 0.926152 0
M  V30 9622 C 926.753 -5.34489 0.150317 0
M  V30 9623 C 928.053 -4.71632 2.24411 0
M  V30 9624 H 929.747 -2.57241 1.53191 0
M  V30 9625 H 927.293 -1.23649 0.738028 0
M  V30 9626 H 929.246 -4.20486 -0.277434 0
M  V30 9627 H 927.97 -3.13619 -0.911626 0
M  V30 9628 H 926.629 -3.46567 1.19528 0
M  V30 9629 H 926.277 -4.97056 -0.770985 0
M  V30 9630 H 925.977 -5.82633 0.762407 0
M  V30 9631 H 927.501 -6.10467 -0.127508 0
M  V30 9632 H 928.915 -5.36526 2.02021 0
M  V30 9633 H 927.312 -5.303 2.80894 0
M  V30 9634 H 928.382 -3.89192 2.89236 0
M  V30 9635 N 929.725 -0.817259 -1.34754 0
M  V30 9636 C 930.675 -0.207585 -2.27053 0
M  V30 9637 C 931.659 0.624836 -1.48272 0
M  V30 9638 O 932.851 0.480344 -1.70358 0
M  V30 9639 C 929.98 0.634281 -3.3739 0
M  V30 9640 C 929.066 -0.208456 -4.23587 0
M  V30 9641 N 929.457 -1.2767 -4.89422 0
M  V30 9642 C 927.755 0.00815096 -4.45999 0
M  V30 9643 C 928.456 -1.79209 -5.53407 0
M  V30 9644 N 927.432 -1.09686 -5.32419 0
M  V30 9645 H 931.234 -1.0248 -2.75454 0
M  V30 9646 H 928.748 -0.659492 -1.48406 0
M  V30 9647 H 930.745 1.08718 -4.02475 0
M  V30 9648 H 929.405 1.44972 -2.90539 0
M  V30 9649 H 930.416 -1.65945 -4.90594 0
M  V30 9650 H 927.093 0.791879 -4.09921 0
M  V30 9651 H 928.483 -2.68548 -6.15899 0
M  V30 9652 N 931.203 1.46865 -0.571711 0
M  V30 9653 C 932.135 2.28277 0.205479 0
M  V30 9654 C 933.148 1.37866 0.865835 0
M  V30 9655 O 934.337 1.62564 0.737247 0
M  V30 9656 C 931.437 3.12572 1.30965 0
M  V30 9657 C 930.61 4.31038 0.743328 0
M  V30 9658 C 929.669 4.96815 1.73382 0
M  V30 9659 O 928.695 5.54755 1.2742 0
M  V30 9660 N 929.897 4.92825 3.06764 0
M  V30 9661 H 932.662 2.95618 -0.49294 0
M  V30 9662 H 930.223 1.56655 -0.408744 0
M  V30 9663 H 932.215 3.53442 1.97131 0
M  V30 9664 H 930.785 2.47378 1.91109 0
M  V30 9665 H 930.005 3.94084 -0.0955004 0
M  V30 9666 H 931.293 5.07632 0.344556 0
M  V30 9667 H 930.691 4.46978 3.46738 0
M  V30 9668 H 929.248 5.3767 3.68449 0
M  V30 9669 N 932.681 0.308908 1.54543 0
M  V30 9670 C 933.611 -0.556657 2.26768 0
M  V30 9671 C 934.592 -1.13145 1.27013 0
M  V30 9672 O 935.777 -1.15931 1.558 0
M  V30 9673 C 932.907 -1.72481 3.01443 0
M  V30 9674 C 931.861 -1.28001 4.08411 0
M  V30 9675 C 931.187 -2.53395 4.70845 0
M  V30 9676 C 932.487 -0.405497 5.20724 0
M  V30 9677 H 934.181 0.0457618 2.99365 0
M  V30 9678 H 931.727 0.0234495 1.43981 0
M  V30 9679 H 933.68 -2.3365 3.50693 0
M  V30 9680 H 932.404 -2.35359 2.26437 0
M  V30 9681 H 931.063 -0.69133 3.60022 0
M  V30 9682 H 930.711 -3.14604 3.92471 0
M  V30 9683 H 930.411 -2.2433 5.43093 0
M  V30 9684 H 931.935 -3.15352 5.22863 0
M  V30 9685 H 933.349 -0.923076 5.6582 0
M  V30 9686 H 931.746 -0.208282 5.99738 0
M  V30 9687 H 932.816 0.567412 4.81569 0
M  V30 9688 N 934.159 -1.57557 0.0367827 0
M  V30 9689 C 935.387 -1.96419 -0.650168 0
M  V30 9690 C 935.802 -0.913656 -1.6522 0
M  V30 9691 O 935.159 0.103718 -1.82205 0
M  V30 9692 C 935.21 -3.35355 -1.3498 0
M  V30 9693 O 934.931 -4.36379 -0.387905 0
M  V30 9694 C 936.432 -3.88892 -2.12786 0
M  V30 9695 H 933.652 -0.646751 -0.178756 0
M  V30 9696 H 936.196 -2.04261 0.0988197 0
M  V30 9697 H 934.351 -3.28708 -2.05012 0
M  V30 9698 H 934.765 -5.16969 -0.885596 0
M  V30 9699 H 936.239 -4.88428 -2.5718 0
M  V30 9700 H 936.716 -3.23547 -2.97008 0
M  V30 9701 H 937.322 -3.98831 -1.47694 0
M  V30 9702 N 935.637 0.236453 -1.55816 0
M  V30 9703 C 936.6 1.27633 -1.90375 0
M  V30 9704 C 937.6 1.40557 -0.781048 0
M  V30 9705 O 938.79 1.39078 -1.04895 0
M  V30 9706 C 935.922 2.65247 -2.14142 0
M  V30 9707 H 937.115 0.982019 -2.83366 0
M  V30 9708 H 934.668 0.476215 -1.48869 0
M  V30 9709 H 935.403 2.99801 -1.23653 0
M  V30 9710 H 935.188 2.57246 -2.95917 0
M  V30 9711 H 936.678 3.40313 -2.42026 0
M  V30 9712 N 937.115 1.49373 0.502552 0
M  V30 9713 C 938.34 1.62752 1.28556 0
M  V30 9714 C 938.765 0.298285 1.8572 0
M  V30 9715 O 938.123 -0.733885 1.65782 0
M  V30 9716 C 938.171 2.69778 2.39274 0
M  V30 9717 O 937.275 2.28843 3.43081 0
M  V30 9718 H 936.616 0.544799 0.379592 0
M  V30 9719 H 939.146 1.9555 0.601792 0
M  V30 9720 H 939.156 2.91899 2.8506 0
M  V30 9721 H 937.831 3.66266 1.97033 0
M  V30 9722 H 936.408 2.17047 3.03224 0
M  V30 9723 N 938.594 -0.753485 1.38421 0
M  V30 9724 C 939.524 -1.8808 1.38377 0
M  V30 9725 C 940.505 -1.68258 0.249664 0
M  V30 9726 O 941.69 -1.88848 0.45276 0
M  V30 9727 C 938.82 -3.25608 1.20818 0
M  V30 9728 C 937.774 -3.60032 2.31433 0
M  V30 9729 C 937.1 -4.96297 1.9898 0
M  V30 9730 C 938.4 -3.64898 3.73694 0
M  V30 9731 H 940.094 -1.88375 2.32713 0
M  V30 9732 H 937.64 -0.90489 1.12017 0
M  V30 9733 H 939.593 -4.04127 1.19412 0
M  V30 9734 H 938.317 -3.25793 0.229433 0
M  V30 9735 H 936.976 -2.83831 2.32025 0
M  V30 9736 H 936.624 -4.93043 0.995889 0
M  V30 9737 H 936.324 -5.20298 2.73063 0
M  V30 9738 H 937.848 -5.77196 1.99193 0
M  V30 9739 H 939.262 -4.33531 3.75132 0
M  V30 9740 H 937.659 -4.00407 4.46983 0
M  V30 9741 H 938.729 -2.65124 4.06002 0
M  V30 9742 N 940.072 -1.23292 -0.981677 0
M  V30 9743 C 941.035 -1.01417 -2.05542 0
M  V30 9744 C 942.035 0.0235354 -1.60783 0
M  V30 9745 O 943.225 -0.216082 -1.72855 0
M  V30 9746 C 940.357 -0.534239 -3.36688 0
M  V30 9747 H 941.55 -1.96702 -2.26381 0
M  V30 9748 H 939.103 -1.05318 -1.1549 0
M  V30 9749 H 939.838 0.422452 -3.21537 0
M  V30 9750 H 939.623 -1.28304 -3.70514 0
M  V30 9751 H 941.113 -0.40179 -4.15663 0
M  V30 9752 N 941.55 1.18024 -1.04442 0
M  V30 9753 C 942.796 1.88377 -0.751133 0
M  V30 9754 C 943.129 1.80377 0.719571 0
M  V30 9755 O 942.404 1.20662 1.52548 0
M  V30 9756 C 942.687 3.38708 -1.22265 0
M  V30 9757 C 942.54 3.55499 -2.75574 0
M  V30 9758 C 943.859 4.32475 -0.815688 0
M  V30 9759 H 940.978 0.684037 -0.27434 0
M  V30 9760 H 943.62 1.38837 -1.29709 0
M  V30 9761 H 941.77 3.8103 -0.758192 0
M  V30 9762 H 943.442 3.22244 -3.30086 0
M  V30 9763 H 941.685 2.98028 -3.15217 0
M  V30 9764 H 942.356 4.60994 -3.03625 0
M  V30 9765 H 944.832 3.97953 -1.21542 0
M  V30 9766 H 943.708 5.36213 -1.17331 0
M  V30 9767 H 943.969 4.41207 0.280901 0
M  V30 9768 N 943.028 0.824394 1.34319 0
M  V30 9769 C 943.991 0.252696 2.27803 0
M  V30 9770 C 944.991 -0.570254 1.50349 0
M  V30 9771 O 946.181 -0.386145 1.69866 0
M  V30 9772 C 943.313 -0.645575 3.34731 0
M  V30 9773 H 944.506 1.07742 2.79878 0
M  V30 9774 H 942.059 0.596367 1.44475 0
M  V30 9775 H 942.794 -1.4933 2.87873 0
M  V30 9776 H 942.579 -0.0569478 3.92059 0
M  V30 9777 H 944.069 -1.03933 4.0446 0
M  V30 9778 N 944.506 -1.46559 0.579492 0
M  V30 9779 C 945.416 -2.34066 -0.15816 0
M  V30 9780 C 946.432 -1.49556 -0.88932 0
M  V30 9781 O 947.608 -1.82434 -0.853226 0
M  V30 9782 C 944.673 -3.26683 -1.161 0
M  V30 9783 C 943.734 -4.27092 -0.434855 0
M  V30 9784 C 942.967 -5.15283 -1.38992 0
M  V30 9785 O 943.19 -5.06345 -2.62623 0
M  V30 9786 O 942.124 -5.95099 -0.902253 0
M  V30 9787 H 945.95 -2.98488 0.560234 0
M  V30 9788 H 943.535 -1.45482 0.339918 0
M  V30 9789 H 945.417 -3.8383 -1.73932 0
M  V30 9790 H 944.092 -2.64862 -1.86091 0
M  V30 9791 H 942.999 -3.73641 0.185224 0
M  V30 9792 H 944.332 -4.9169 0.224031 0
M  V30 9793 N 945.984 -0.3171 -1.54377 0
M  V30 9794 C 946.947 0.53905 -2.22771 0
M  V30 9795 C 947.947 1.04865 -1.21901 0
M  V30 9796 O 949.137 0.942108 -1.46526 0
M  V30 9797 C 946.269 1.74804 -2.92671 0
M  V30 9798 H 947.462 -0.0587417 -2.99842 0
M  V30 9799 H 945.015 -0.068107 -1.56152 0
M  V30 9800 H 945.75 2.38524 -2.1972 0
M  V30 9801 H 945.535 1.39011 -3.66631 0
M  V30 9802 H 947.025 2.35592 -3.44799 0
M  V30 9803 N 947.462 1.57535 -0.0451378 0
M  V30 9804 C 948.687 1.97172 0.64326 0
M  V30 9805 C 949.112 0.922266 1.63939 0
M  V30 9806 O 948.47 -0.115155 1.80934 0
M  V30 9807 C 948.518 3.35889 1.3119 0
M  V30 9808 O 947.622 3.33387 2.42748 0
M  V30 9809 H 946.963 0.642469 0.167719 0
M  V30 9810 H 949.493 2.04295 -0.111747 0
M  V30 9811 H 949.503 3.72481 1.66499 0
M  V30 9812 H 948.178 4.1181 0.581823 0
M  V30 9813 H 946.755 3.08533 2.09432 0
M  V30 9814 N 948.94 -0.228186 1.55939 0
M  V30 9815 C 949.87 -1.28607 1.94891 0
M  V30 9816 C 950.851 -1.49236 0.816245 0
M  V30 9817 O 952.036 -1.61531 1.07803 0
M  V30 9818 C 949.166 -2.63719 2.25986 0
M  V30 9819 C 948.12 -2.57757 3.4168 0
M  V30 9820 C 947.446 -3.96837 3.58364 0
M  V30 9821 C 948.746 -2.13116 4.76843 0
M  V30 9822 H 950.44 -0.962531 2.83506 0
M  V30 9823 H 947.986 -0.461577 1.36402 0
M  V30 9824 H 949.939 -3.37878 2.51826 0
M  V30 9825 H 948.663 -2.97747 1.34217 0
M  V30 9826 H 947.322 -1.86055 3.15878 0
M  V30 9827 H 946.97 -4.28162 2.63982 0
M  V30 9828 H 946.67 -3.93731 4.36176 0
M  V30 9829 H 948.194 -4.72668 3.86545 0
M  V30 9830 H 949.608 -2.77015 5.01932 0
M  V30 9831 H 948.005 -2.21083 5.57891 0
M  V30 9832 H 949.075 -1.08326 4.72645 0
M  V30 9833 N 950.418 -1.49637 -0.494624 0
M  V30 9834 C 951.834 -1.36541 -0.826361 0
M  V30 9835 C 952.034 -0.403386 -1.97421 0
M  V30 9836 O 951.09 0.162614 -2.51976 0
M  V30 9837 C 952.403 -2.77401 -1.16057 0
M  V30 9838 C 953.951 -2.86148 -1.26841 0
M  V30 9839 C 954.426 -4.27789 -1.63587 0
M  V30 9840 N 955.917 -4.3063 -1.70624 0
M  V30 9841 C 956.652 -5.37198 -2.00514 0
M  V30 9842 N 956.148 -6.54004 -2.28584 0
M  V30 9843 N 957.941 -5.2462 -2.01818 0
M  V30 9844 H 950.092 -2.10776 0.26219 0
M  V30 9845 H 952.355 -0.946419 0.0547235 0
M  V30 9846 H 952.061 -3.49526 -0.390434 0
M  V30 9847 H 951.935 -3.1317 -2.10249 0
M  V30 9848 H 954.322 -2.14256 -2.02925 0
M  V30 9849 H 954.403 -2.53953 -0.30684 0
M  V30 9850 H 954.047 -5.00209 -0.880507 0
M  V30 9851 H 953.977 -4.57453 -2.60854 0
M  V30 9852 H 956.468 -3.46393 -1.51065 0
M  V30 9853 H 956.781 -7.31041 -2.50598 0
M  V30 9854 H 955.126 -6.57219 -2.26027 0
M  V30 9855 H 958.317 -4.32371 -1.79369 0
M  V30 9856 H 958.49 -6.07765 -2.24778 0
M  V30 9857 N 951.896 0.746133 -1.38819 0
M  V30 9858 C 953.143 1.50545 -1.35434 0
M  V30 9859 C 953.471 1.94427 0.0532669 0
M  V30 9860 O 952.726 1.66285 1.03188 0
M  V30 9861 C 953.025 2.76639 -2.26286 0
M  V30 9862 C 952.691 2.51682 -3.74122 0
M  V30 9863 C 951.353 2.44584 -4.14406 0
M  V30 9864 C 953.705 2.30071 -4.67672 0
M  V30 9865 C 951.033 2.13902 -5.46318 0
M  V30 9866 C 953.385 2.00907 -5.99849 0
M  V30 9867 C 952.049 1.92271 -6.39209 0
M  V30 9868 H 951.319 0.550883 -0.49559 0
M  V30 9869 H 953.966 0.857337 -1.71237 0
M  V30 9870 H 952.271 3.46138 -1.83564 0
M  V30 9871 H 953.968 3.34626 -2.20967 0
M  V30 9872 H 950.558 2.5808 -3.42188 0
M  V30 9873 H 954.742 2.34528 -4.3739 0
M  V30 9874 H 949.998 2.0573 -5.75748 0
M  V30 9875 H 954.172 1.83191 -6.71874 0
M  V30 9876 H 951.799 1.68261 -7.41345 0
M  V30 9877 N 953.375 1.23811 0.975125 0
M  V30 9878 C 954.285 1.0408 2.10249 0
M  V30 9879 C 955.301 -0.0162404 1.73992 0
M  V30 9880 O 956.477 0.180346 2.00591 0
M  V30 9881 C 953.542 0.640013 3.40741 0
M  V30 9882 C 952.603 1.7727 3.90991 0
M  V30 9883 C 951.836 1.39094 5.15256 0
M  V30 9884 O 952.059 0.277483 5.69725 0
M  V30 9885 O 950.993 2.21392 5.59704 0
M  V30 9886 H 954.819 1.98575 2.29786 0
M  V30 9887 H 952.404 1.02563 1.08633 0
M  V30 9888 H 954.286 0.427684 4.19224 0
M  V30 9889 H 952.961 -0.27589 3.22522 0
M  V30 9890 H 951.868 2.03971 3.13602 0
M  V30 9891 H 953.201 2.66711 4.13674 0
M  V30 9892 N 954.853 -1.17469 1.05066 0
M  V30 9893 C 955.803 -2.19388 0.620713 0
M  V30 9894 C 956.787 -1.5722 -0.34214 0
M  V30 9895 O 957.979 -1.76279 -0.159574 0
M  V30 9896 C 955.108 -3.433 -0.00438518 0
M  V30 9897 C 954.194 -4.12569 0.982218 0
M  V30 9898 N 954.585 -4.57683 2.15313 0
M  V30 9899 C 952.883 -4.38575 0.810416 0
M  V30 9900 C 953.584 -5.11124 2.77719 0
M  V30 9901 N 952.56 -5.0325 2.05525 0
M  V30 9902 H 956.362 -2.51971 1.51287 0
M  V30 9903 H 953.876 -1.33784 0.920625 0
M  V30 9904 H 955.873 -4.15591 -0.330161 0
M  V30 9905 H 954.533 -3.12209 -0.89195 0
M  V30 9906 H 955.544 -4.51812 2.53154 0
M  V30 9907 H 952.221 -4.17492 -0.0262078 0
M  V30 9908 H 953.611 -5.56161 3.77008 0
M  V30 9909 N 956.331 -0.831506 -1.3388 0
M  V30 9910 C 957.747 -0.518349 -1.50948 0
M  V30 9911 C 957.947 0.955807 -1.77388 0
M  V30 9912 O 957.003 1.73993 -1.82983 0
M  V30 9913 C 958.316 -1.38531 -2.66889 0
M  V30 9914 C 959.864 -1.38332 -2.80772 0
M  V30 9915 C 960.339 -2.23497 -3.99766 0
M  V30 9916 N 961.83 -2.21167 -4.06988 0
M  V30 9917 C 962.565 -2.83805 -4.98239 0
M  V30 9918 N 962.061 -3.55468 -5.94655 0
M  V30 9919 N 963.854 -2.73314 -4.91178 0
M  V30 9920 H 956.005 -1.78588 -1.14978 0
M  V30 9921 H 958.268 -0.761508 -0.564633 0
M  V30 9922 H 957.974 -2.43255 -2.54007 0
M  V30 9923 H 957.848 -1.05611 -3.62114 0
M  V30 9924 H 960.235 -0.343832 -2.9309 0
M  V30 9925 H 960.316 -1.75256 -1.86331 0
M  V30 9926 H 959.96 -3.27501 -3.88208 0
M  V30 9927 H 959.89 -1.83919 -4.93438 0
M  V30 9928 H 962.381 -1.69046 -3.37982 0
M  V30 9929 H 962.694 -4.00487 -6.60931 0
M  V30 9930 H 961.039 -3.59575 -5.94753 0
M  V30 9931 H 964.23 -2.16897 -4.14817 0
M  V30 9932 H 964.403 -3.22416 -5.62096 0
M  V30 9933 N 957.809 1.4625 -0.587256 0
M  V30 9934 C 959.086 1.95599 -0.00750181 0
M  V30 9935 C 959.466 1.52989 1.45457 0
M  V30 9936 O 958.814 0.782731 2.14676 0
M  V30 9937 C 959.024 3.48513 -0.184309 0
M  V30 9938 C 960.372 4.24565 -0.0544972 0
M  V30 9939 O 961.396 3.5602 -0.113378 0
M  V30 9940 O 960.255 5.46445 0.0774075 0
M  V30 9941 H 957.349 0.825649 0.0472495 0
M  V30 9942 H 959.895 1.56512 -0.655893 0
M  V30 9943 H 958.667 3.72428 -1.20053 0
M  V30 9944 H 958.29 3.9444 0.500301 0
M  V30 9945 N 959.287 0.325282 1.54207 0
M  V30 9946 C 960.217 -0.532574 2.27345 0
M  V30 9947 C 961.198 -1.11791 1.28206 0
M  V30 9948 O 962.383 -1.14272 1.57021 0
M  V30 9949 C 959.513 -1.69274 3.03255 0
M  V30 9950 C 958.467 -1.23662 4.09746 0
M  V30 9951 C 957.793 -2.48386 4.73506 0
M  V30 9952 C 959.093 -0.350244 5.21124 0
M  V30 9953 H 960.787 0.0775108 2.993 0
M  V30 9954 H 958.333 0.0387193 1.43948 0
M  V30 9955 H 960.286 -2.29917 3.53152 0
M  V30 9956 H 959.01 -2.32944 2.28921 0
M  V30 9957 H 957.669 -0.653106 3.60735 0
M  V30 9958 H 957.317 -3.10424 3.95786 0
M  V30 9959 H 957.017 -2.18558 5.45441 0
M  V30 9960 H 958.541 -3.09789 5.26178 0
M  V30 9961 H 959.955 -0.863011 5.66767 0
M  V30 9962 H 958.352 -0.14466 5.99926 0
M  V30 9963 H 959.422 0.618457 4.8094 0
M  V30 9964 N 960.765 -1.57509 0.0534917 0
M  V30 9965 C 961.715 -2.08179 -0.929802 0
M  V30 9966 C 962.699 -0.987451 -1.27036 0
M  V30 9967 O 963.891 -1.25076 -1.2524 0
M  V30 9968 C 961.02 -2.63221 -2.20385 0
M  V30 9969 C 960.106 -3.79629 -1.89058 0
M  V30 9970 N 960.497 -4.8931 -1.28101 0
M  V30 9971 C 958.795 -3.88578 -2.18914 0
M  V30 9972 C 959.496 -5.70329 -1.14455 0
M  V30 9973 N 958.472 -5.18011 -1.64821 0
M  V30 9974 H 962.274 -2.90374 -0.453874 0
M  V30 9975 H 959.788 -1.61697 -0.150899 0
M  V30 9976 H 961.785 -2.97827 -2.91727 0
M  V30 9977 H 960.445 -1.82466 -2.68582 0
M  V30 9978 H 961.456 -5.09058 -0.952924 0
M  V30 9979 H 958.133 -3.18769 -2.69616 0
M  V30 9980 H 959.523 -6.6854 -0.671129 0
M  V30 9981 N 962.243 0.219913 -1.56058 0
M  V30 9982 C 963.489 0.941055 -1.80321 0
M  V30 9983 C 963.844 1.81906 -0.626735 0
M  V30 9984 O 963.137 1.87811 0.379147 0
M  V30 9985 C 963.331 1.81293 -3.08006 0
M  V30 9986 C 963.16 1.02082 -4.37961 0
M  V30 9987 C 961.93 0.715096 -5.00214 0
M  V30 9988 C 964.128 0.385342 -5.12854 0
M  V30 9989 N 962.11 -0.098246 -6.13821 0
M  V30 9990 C 963.481 -0.291319 -6.19315 0
M  V30 9991 C 965.536 0.29854 -4.97004 0
M  V30 9992 C 964.239 -1.04648 -7.11647 0
M  V30 9993 C 966.265 -0.443159 -5.89737 0
M  V30 9994 C 965.627 -1.10836 -6.95625 0
M  V30 9995 H 961.726 0.324568 -0.711463 0
M  V30 9996 H 964.31 0.211795 -1.93545 0
M  V30 9997 H 962.481 2.51399 -2.96063 0
M  V30 9998 H 964.213 2.47167 -3.20454 0
M  V30 9999 H 960.968 1.03352 -4.62185 0
M  V30 10000 H 961.392 -0.4938 -6.75197 0
M  V30 10001 H 966.034 0.798478 -4.15192 0
M  V30 10002 H 963.752 -1.55793 -7.9294 0
M  V30 10003 H 967.338 -0.511348 -5.79549 0
M  V30 10004 H 966.218 -1.6731 -7.66144 0
M  V30 10005 N 963.721 1.49897 0.486681 0
M  V30 10006 C 964.969 1.59789 1.23742 0
M  V30 10007 C 965.29 0.293056 1.92785 0
M  V30 10008 O 964.56 -0.688534 1.83401 0
M  V30 10009 H 963.14 0.588775 0.459731 0
M  V30 10010 H 965.802 1.86597 0.562808 0
M  V30 10011 H 964.898 2.40121 1.9937 0
M  V30 10012 N 965.199 -0.738761 1.39212 0
M  V30 10013 C 966.147 -1.8741 1.3777 0
M  V30 10014 C 967.141 -1.67371 0.261375 0
M  V30 10015 O 968.347 -1.74759 0.431209 0
M  V30 10016 H 964.722 -0.616843 0.430126 0
M  V30 10017 H 966.693 -1.85742 2.33543 0
M  V30 10018 C 965.442 -3.25053 1.23433 0
M  V30 10019 H 964.765 -3.41066 2.086 0
M  V30 10020 H 966.205 -4.04696 1.2648 0
M  V30 10021 C 964.664 -3.36851 -0.0575624 0
M  V30 10022 O 965.194 -3.88293 -1.02915 0
M  V30 10023 N 963.4 -2.90355 -0.119364 0
M  V30 10024 H 962.947 -2.48681 0.671976 0
M  V30 10025 H 962.905 -2.98628 -0.983286 0
M  V30 10026 N 966.677 -1.24326 -0.968545 0
M  V30 10027 C 967.923 -1.08406 -1.71394 0
M  V30 10028 C 968.256 0.376353 -1.90518 0
M  V30 10029 O 967.531 1.27816 -1.46606 0
M  V30 10030 C 967.814 -1.82344 -3.1052 0
M  V30 10031 C 967.667 -3.3613 -2.98893 0
M  V30 10032 C 968.986 -1.59545 -4.10163 0
M  V30 10033 H 966.105 -0.395205 -0.622079 0
M  V30 10034 H 968.747 -1.52983 -1.12677 0
M  V30 10035 H 966.897 -1.44452 -3.60646 0
M  V30 10036 H 968.569 -3.83614 -2.56199 0
M  V30 10037 H 966.812 -3.64553 -2.35124 0
M  V30 10038 H 967.483 -3.83064 -3.97449 0
M  V30 10039 H 969.959 -1.92504 -3.68892 0
M  V30 10040 H 968.835 -2.13736 -5.05577 0
M  V30 10041 H 969.096 -0.533503 -4.38869 0
M  V30 10042 N 968.156 1.1691 -1.05688 0
M  V30 10043 C 969.086 2.23275 -0.683402 0
M  V30 10044 C 970.067 1.6704 0.321206 0
M  V30 10045 O 971.252 1.93191 0.197691 0
M  V30 10046 C 968.382 3.47244 -0.0626006 0
M  V30 10047 C 967.336 4.16333 -0.992513 0
M  V30 10048 C 966.662 5.34182 -0.23533 0
M  V30 10049 C 967.962 4.68002 -2.31886 0
M  V30 10050 H 969.656 2.54771 -1.57264 0
M  V30 10051 H 967.202 1.2246 -0.757606 0
M  V30 10052 H 969.155 4.20874 0.210503 0
M  V30 10053 H 967.879 3.1503 0.861616 0
M  V30 10054 H 966.538 3.44622 -1.25026 0
M  V30 10055 H 966.186 4.9822 0.69181 0
M  V30 10056 H 965.886 5.81346 -0.855002 0
M  V30 10057 H 967.41 6.10592 0.0303717 0
M  V30 10058 H 968.824 5.33244 -2.10531 0
M  V30 10059 H 967.221 5.25764 -2.89296 0
M  V30 10060 H 968.291 3.84541 -2.95391 0
M  V30 10061 N 969.634 0.838594 1.33437 0
M  V30 10062 C 970.564 0.286672 2.31734 0
M  V30 10063 C 971.545 -0.605451 1.5896 0
M  V30 10064 O 972.73 -0.529059 1.86854 0
M  V30 10065 C 969.86 -0.539311 3.43087 0
M  V30 10066 C 968.814 0.256997 4.27228 0
M  V30 10067 C 968.14 -0.692718 5.30194 0
M  V30 10068 C 969.44 1.47391 5.01072 0
M  V30 10069 H 971.134 1.10798 2.78144 0
M  V30 10070 H 968.68 0.534235 1.33723 0
M  V30 10071 H 970.633 -0.935724 4.1088 0
M  V30 10072 H 969.357 -1.39383 2.95364 0
M  V30 10073 H 968.016 0.634967 3.61059 0
M  V30 10074 H 967.664 -1.54363 4.78729 0
M  V30 10075 H 967.364 -0.164023 5.87371 0
M  V30 10076 H 968.888 -1.08665 6.00853 0
M  V30 10077 H 970.302 1.15067 5.61634 0
M  V30 10078 H 968.699 1.93937 5.67898 0
M  V30 10079 H 969.769 2.24382 4.29861 0
M  V30 10080 N 971.112 -1.45937 0.595003 0
M  V30 10081 C 972.059 -2.30427 -0.131165 0
M  V30 10082 C 973.029 -1.41355 -0.872232 0
M  V30 10083 O 974.214 -1.70296 -0.860467 0
M  V30 10084 C 971.354 -3.26045 -1.13087 0
M  V30 10085 C 970.467 -4.30218 -0.391982 0
M  V30 10086 C 969.602 -5.12953 -1.3803 0
M  V30 10087 C 968.641 -6.08865 -0.628505 0
M  V30 10088 N 967.778 -6.84425 -1.56548 0
M  V30 10089 H 972.618 -2.91992 0.595359 0
M  V30 10090 H 970.155 -1.43895 0.305405 0
M  V30 10091 H 972.113 -3.79937 -1.72348 0
M  V30 10092 H 970.743 -2.66261 -1.82496 0
M  V30 10093 H 969.795 -3.79086 0.315895 0
M  V30 10094 H 971.107 -4.98418 0.195173 0
M  V30 10095 H 970.261 -5.71184 -2.04534 0
M  V30 10096 H 969 -4.44743 -2.00138 0
M  V30 10097 H 968.005 -5.49777 0.0502431 0
M  V30 10098 H 969.23 -6.79099 -0.012641 0
M  V30 10099 H 967.176 -6.18913 -2.17444 0
M  V30 10100 H 967.093 -7.48931 -1.03145 0
M  V30 10101 H 968.361 -7.47204 -2.22049 0
M  V30 10102 N 972.59 -0.333456 -1.54032 0
M  V30 10103 C 973.537 0.527981 -2.2468 0
M  V30 10104 C 974.507 1.10371 -1.24127 0
M  V30 10105 O 975.692 1.14221 -1.52834 0
M  V30 10106 C 972.832 1.67808 -3.01553 0
M  V30 10107 C 971.945 1.13064 -4.16942 0
M  V30 10108 C 971.08 2.24722 -4.81325 0
M  V30 10109 C 970.119 1.67277 -5.88799 0
M  V30 10110 N 969.256 2.72638 -6.47003 0
M  V30 10111 H 974.096 -0.0810308 -2.9789 0
M  V30 10112 H 971.633 -0.051761 -1.47009 0
M  V30 10113 H 973.591 2.35502 -3.44376 0
M  V30 10114 H 972.221 2.25823 -2.30659 0
M  V30 10115 H 971.273 0.344948 -3.78833 0
M  V30 10116 H 972.585 0.670373 -4.94275 0
M  V30 10117 H 971.739 3.00301 -5.27166 0
M  V30 10118 H 970.478 2.74089 -4.03394 0
M  V30 10119 H 969.483 0.902002 -5.4235 0
M  V30 10120 H 970.708 1.18775 -6.68632 0
M  V30 10121 H 968.654 3.21277 -5.71941 0
M  V30 10122 H 968.571 2.31204 -7.19778 0
M  V30 10123 H 969.839 3.48015 -6.97499 0
M  V30 10124 N 974.068 1.57479 -0.061844 0
M  V30 10125 C 975.296 1.97429 0.618837 0
M  V30 10126 C 975.711 0.939826 1.63746 0
M  V30 10127 O 975.068 -0.0747173 1.82347 0
M  V30 10128 C 975.119 3.3746 1.29628 0
M  V30 10129 O 974.84 4.36941 0.318431 0
M  V30 10130 C 976.341 3.92228 2.06572 0
M  V30 10131 H 973.561 0.649513 0.168444 0
M  V30 10132 H 976.105 2.04078 -0.131303 0
M  V30 10133 H 974.26 3.31928 1.99757 0
M  V30 10134 H 974.674 5.18313 0.803239 0
M  V30 10135 H 976.148 4.92458 2.49377 0
M  V30 10136 H 976.625 3.28231 2.91824 0
M  V30 10137 H 977.231 4.01131 1.4133 0
M  V30 10138 N 975.546 -0.211634 1.56173 0
M  V30 10139 C 976.771 -0.955324 1.84088 0
M  V30 10140 C 977.196 -1.76754 0.643407 0
M  V30 10141 O 976.554 -1.76653 -0.407842 0
M  V30 10142 C 976.602 -1.84063 3.10085 0
M  V30 10143 O 975.706 -2.9373 2.89476 0
M  V30 10144 H 975.047 -0.26996 0.606645 0
M  V30 10145 H 977.577 -0.221947 2.03393 0
M  V30 10146 H 977.587 -2.24852 3.40449 0
M  V30 10147 H 976.262 -1.24373 3.96868 0
M  V30 10148 H 974.839 -2.56816 2.7037 0
M  V30 10149 N 977.024 -1.50153 -0.478725 0
M  V30 10150 C 977.954 -1.71384 -1.58587 0
M  V30 10151 C 978.935 -0.562705 -1.60523 0
M  V30 10152 O 980.12 -0.80101 -1.76911 0
M  V30 10153 C 977.25 -1.80094 -2.96957 0
M  V30 10154 C 976.204 -2.95218 -3.09888 0
M  V30 10155 C 975.53 -2.89063 -4.49829 0
M  V30 10156 C 976.83 -4.35841 -2.8782 0
M  V30 10157 H 978.524 -2.64081 -1.41073 0
M  V30 10158 H 976.07 -1.27081 -0.677239 0
M  V30 10159 H 978.023 -1.93531 -3.74331 0
M  V30 10160 H 976.747 -0.840131 -3.1561 0
M  V30 10161 H 975.406 -2.81419 -2.34944 0
M  V30 10162 H 975.054 -1.90844 -4.6539 0
M  V30 10163 H 974.754 -3.66345 -4.59418 0
M  V30 10164 H 976.278 -3.04539 -5.29234 0
M  V30 10165 H 977.692 -4.50205 -3.54948 0
M  V30 10166 H 976.089 -5.14515 -3.0886 0
M  V30 10167 H 977.159 -4.48739 -1.83742 0
M  V30 10168 N 978.502 0.731368 -1.39602 0
M  V30 10169 C 979.449 1.84541 -1.38612 0
M  V30 10170 C 980.419 1.64279 -0.245287 0
M  V30 10171 O 981.604 1.85635 -0.440954 0
M  V30 10172 C 978.744 3.22092 -1.23897 0
M  V30 10173 C 977.857 3.54034 -2.47555 0
M  V30 10174 C 976.992 4.81007 -2.25402 0
M  V30 10175 C 976.031 5.05804 -3.44716 0
M  V30 10176 N 975.168 6.23981 -3.21857 0
M  V30 10177 H 980.008 1.84722 -2.33841 0
M  V30 10178 H 977.545 0.902569 -1.16156 0
M  V30 10179 H 979.503 4.01499 -1.13376 0
M  V30 10180 H 978.133 3.2118 -0.322958 0
M  V30 10181 H 977.185 2.69301 -2.68665 0
M  V30 10182 H 978.497 3.68275 -3.36415 0
M  V30 10183 H 977.651 5.68401 -2.12143 0
M  V30 10184 H 976.39 4.68946 -1.33943 0
M  V30 10185 H 975.395 4.1687 -3.58468 0
M  V30 10186 H 976.62 5.19747 -4.37081 0
M  V30 10187 H 974.566 6.13202 -2.33065 0
M  V30 10188 H 974.483 6.38826 -4.04274 0
M  V30 10189 H 975.751 7.14205 -3.123 0
M  V30 10190 N 979.98 1.24838 0.961938 0
M  V30 10191 C 980.927 1.04582 2.05745 0
M  V30 10192 C 981.897 -0.0427281 1.66045 0
M  V30 10193 O 983.082 0.113026 1.90465 0
M  V30 10194 C 980.222 0.66284 3.38675 0
M  V30 10195 C 979.335 1.82548 3.91536 0
M  V30 10196 C 978.47 1.38753 5.12758 0
M  V30 10197 C 977.509 2.51976 5.5783 0
M  V30 10198 N 976.646 2.09009 6.70268 0
M  V30 10199 H 981.486 1.98343 2.22405 0
M  V30 10200 H 979.023 0.987822 1.08998 0
M  V30 10201 H 980.981 0.421788 4.15062 0
M  V30 10202 H 979.611 -0.237776 3.21923 0
M  V30 10203 H 978.663 2.18004 3.11735 0
M  V30 10204 H 979.975 2.67601 4.20941 0
M  V30 10205 H 979.129 1.1057 5.96539 0
M  V30 10206 H 977.868 0.507618 4.85051 0
M  V30 10207 H 976.873 2.80912 4.72619 0
M  V30 10208 H 978.098 3.40534 5.87549 0
M  V30 10209 H 976.044 1.23423 6.44285 0
M  V30 10210 H 975.961 2.87613 6.99153 0
M  V30 10211 H 977.229 1.83981 7.57477 0
M  V30 10212 N 981.458 -1.16348 1.06306 0
M  V30 10213 C 982.388 -2.2291 0.695234 0
M  V30 10214 C 983.369 -1.67208 -0.312343 0
M  V30 10215 O 984.554 -1.93293 -0.187442 0
M  V30 10216 C 981.684 -3.47205 0.0810149 0
M  V30 10217 C 980.638 -4.15801 1.01458 0
M  V30 10218 C 979.964 -5.3405 0.263656 0
M  V30 10219 C 981.264 -4.66766 2.34365 0
M  V30 10220 H 982.958 -2.53934 1.58613 0
M  V30 10221 H 980.504 -1.22056 0.76409 0
M  V30 10222 H 982.457 -4.2098 -0.18818 0
M  V30 10223 H 981.181 -3.15482 -0.844897 0
M  V30 10224 H 979.84 -3.43954 1.26852 0
M  V30 10225 H 979.488 -4.9858 -0.665378 0
M  V30 10226 H 979.188 -5.80885 0.88582 0
M  V30 10227 H 980.712 -6.106 0.00200994 0
M  V30 10228 H 982.126 -5.3212 2.13356 0
M  V30 10229 H 980.523 -5.24223 2.9208 0
M  V30 10230 H 981.593 -3.82969 2.97426 0
M  V30 10231 N 982.937 -0.845659 -1.3299 0
M  V30 10232 C 983.887 -0.2557 -2.26562 0
M  V30 10233 C 984.871 0.593245 -1.49564 0
M  V30 10234 O 986.063 0.444101 -1.71338 0
M  V30 10235 C 983.192 0.562573 -3.38659 0
M  V30 10236 C 982.278 -0.298259 -4.2305 0
M  V30 10237 N 982.669 -1.38023 -4.86604 0
M  V30 10238 C 980.967 -0.0864539 -4.45916 0
M  V30 10239 C 981.668 -1.90907 -5.49481 0
M  V30 10240 N 980.644 -1.20955 -5.29973 0
M  V30 10241 H 984.446 -1.083 -2.73219 0
M  V30 10242 H 981.96 -0.690823 -1.46974 0
M  V30 10243 H 983.957 1.00157 -4.0469 0
M  V30 10244 H 982.617 1.38777 -2.93549 0
M  V30 10245 H 983.628 -1.76314 -4.86964 0
M  V30 10246 H 980.305 0.70475 -4.11509 0
M  V30 10247 H 981.695 -2.81552 -6.10064 0
M  V30 10248 N 984.415 1.45619 -0.602734 0
M  V30 10249 C 985.645 2.06348 -0.102105 0
M  V30 10250 C 986.053 1.44884 1.21677 0
M  V30 10251 O 985.396 0.555559 1.75098 0
M  V30 10252 C 985.458 3.59309 0.117026 0
M  V30 10253 C 985.122 4.43081 -1.11931 0
M  V30 10254 C 986.119 4.78364 -2.03627 0
M  V30 10255 C 983.804 4.83908 -1.34677 0
M  V30 10256 C 985.798 5.53325 -3.16403 0
M  V30 10257 C 983.485 5.58624 -2.47754 0
M  V30 10258 C 984.483 5.93249 -3.38445 0
M  V30 10259 O 984.171 6.6645 -4.49555 0
M  V30 10260 H 983.903 0.672988 -0.0637478 0
M  V30 10261 H 986.457 1.87928 -0.828983 0
M  V30 10262 H 984.687 3.76111 0.898742 0
M  V30 10263 H 986.376 4.01897 0.568649 0
M  V30 10264 H 987.142 4.47384 -1.87277 0
M  V30 10265 H 983.021 4.56396 -0.649875 0
M  V30 10266 H 986.565 5.80268 -3.87214 0
M  V30 10267 H 982.462 5.89019 -2.64059 0
M  V30 10268 H 983.23 6.84895 -4.48175 0
M  V30 10269 N 985.893 0.34162 1.53853 0
M  V30 10270 C 987.121 -0.256929 2.05299 0
M  V30 10271 C 987.536 -1.44366 1.21671 0
M  V30 10272 O 986.893 -1.80758 0.251584 0
M  V30 10273 C 986.944 -0.673854 3.55164 0
M  V30 10274 O 986.665 0.465687 4.35618 0
M  V30 10275 C 988.166 -1.33332 4.22773 0
M  V30 10276 H 985.386 -0.0499445 0.669139 0
M  V30 10277 H 987.93 0.493048 1.98467 0
M  V30 10278 H 986.085 -1.37378 3.62224 0
M  V30 10279 H 986.499 0.133723 5.2433 0
M  V30 10280 H 987.973 -1.57582 5.29029 0
M  V30 10281 H 988.45 -2.28628 3.75001 0
M  V30 10282 H 989.056 -0.675489 4.19901 0
M  V30 10283 N 987.371 -1.57444 0.0701946 0
M  V30 10284 C 988.301 -2.15659 -0.895176 0
M  V30 10285 C 989.282 -1.08321 -1.31151 0
M  V30 10286 O 990.467 -1.36349 -1.38284 0
M  V30 10287 C 987.597 -2.71693 -2.16334 0
M  V30 10288 C 986.551 -3.84183 -1.88645 0
M  V30 10289 C 985.877 -4.26814 -3.22078 0
M  V30 10290 C 987.177 -5.08493 -1.19299 0
M  V30 10291 H 988.871 -2.96576 -0.410217 0
M  V30 10292 H 986.417 -1.42662 -0.195872 0
M  V30 10293 H 988.37 -3.11064 -2.84284 0
M  V30 10294 H 987.094 -1.87994 -2.67069 0
M  V30 10295 H 985.753 -3.45314 -1.23101 0
M  V30 10296 H 985.401 -3.40039 -3.70651 0
M  V30 10297 H 985.101 -5.02642 -3.04344 0
M  V30 10298 H 986.625 -4.68799 -3.91228 0
M  V30 10299 H 988.039 -5.4519 -1.77316 0
M  V30 10300 H 986.436 -5.89588 -1.11828 0
M  V30 10301 H 987.506 -4.84595 -0.171839 0
M  V30 10302 N 988.849 0.203349 -1.56283 0
M  V30 10303 C 989.797 1.27157 -1.94766 0
M  V30 10304 C 990.791 1.4756 -0.832005 0
M  V30 10305 O 991.997 1.48519 -1.01696 0
M  V30 10306 H 988.372 0.426712 -0.61921 0
M  V30 10307 H 990.343 0.919921 -2.83866 0
M  V30 10308 C 989.092 2.6108 -2.29636 0
M  V30 10309 H 988.415 2.46193 -3.15006 0
M  V30 10310 H 989.855 3.34591 -2.60433 0
M  V30 10311 C 988.314 3.17456 -1.12799 0
M  V30 10312 O 988.844 3.99717 -0.398661 0
M  V30 10313 N 987.05 2.76084 -0.906975 0
M  V30 10314 H 986.597 2.09294 -1.50179 0
M  V30 10315 H 986.555 3.14143 -0.127005 0
M  V30 10316 N 990.327 1.50405 0.470755 0
M  V30 10317 C 991.575 1.61092 1.2204 0
M  V30 10318 C 991.896 0.313487 1.92464 0
M  V30 10319 O 991.166 -0.669043 1.84121 0
M  V30 10320 H 989.746 0.593618 0.45346 0
M  V30 10321 H 992.408 1.87184 0.542985 0
M  V30 10322 H 991.504 2.42222 1.96812 0
M  V30 10323 N 991.805 -0.723954 1.39988 0
M  V30 10324 C 992.752 -1.83803 1.39589 0
M  V30 10325 C 993.722 -1.64146 0.253996 0
M  V30 10326 O 994.907 -1.85398 0.450793 0
M  V30 10327 C 992.047 -3.21431 1.25604 0
M  V30 10328 C 991.16 -3.52717 2.49429 0
M  V30 10329 C 990.295 -4.79805 2.27949 0
M  V30 10330 C 989.334 -5.03968 3.47394 0
M  V30 10331 N 988.471 -6.22266 3.25161 0
M  V30 10332 H 993.311 -1.83479 2.34818 0
M  V30 10333 H 990.848 -0.896396 1.16633 0
M  V30 10334 H 992.806 -4.00892 1.15504 0
M  V30 10335 H 991.436 -3.21005 0.339986 0
M  V30 10336 H 990.488 -2.67872 2.7009 0
M  V30 10337 H 991.8 -3.66486 3.38363 0
M  V30 10338 H 990.954 -5.67268 2.15155 0
M  V30 10339 H 989.693 -4.68229 1.36428 0
M  V30 10340 H 988.698 -4.14963 3.60674 0
M  V30 10341 H 989.923 -5.17422 4.39831 0
M  V30 10342 H 987.869 -6.11957 2.36314 0
M  V30 10343 H 987.786 -6.36673 4.07656 0
M  V30 10344 H 989.054 -7.12539 3.16083 0
M  V30 10345 N 993.283 -1.25346 -0.955304 0
M  V30 10346 C 994.508 -1.12892 -1.73983 0
M  V30 10347 C 994.933 0.313455 -1.8547 0
M  V30 10348 O 994.291 1.22706 -1.33465 0
M  V30 10349 C 994.339 -1.78729 -3.1319 0
M  V30 10350 O 993.443 -1.06648 -3.98372 0
M  V30 10351 H 992.784 -0.394178 -0.534341 0
M  V30 10352 H 995.314 -1.65897 -1.19747 0
M  V30 10353 H 995.324 -1.84987 -3.63653 0
M  V30 10354 H 993.999 -2.83669 -3.04146 0
M  V30 10355 H 992.576 -1.08266 -3.56837 0
M  V30 10356 N 994.761 1.15782 -1.06922 0
M  V30 10357 C 995.986 1.90896 -0.810771 0
M  V30 10358 C 996.411 1.77246 0.629714 0
M  V30 10359 O 995.769 1.10215 1.43953 0
M  V30 10360 C 995.817 3.39397 -1.21829 0
M  V30 10361 O 994.921 4.10818 -0.360934 0
M  V30 10362 H 994.262 0.594497 -0.295752 0
M  V30 10363 H 996.792 1.46652 -1.42669 0
M  V30 10364 H 996.802 3.90181 -1.19259 0
M  V30 10365 H 995.477 3.4865 -2.2675 0
M  V30 10366 H 994.054 3.7019 -0.448748 0
M  V30 10367 N 996.239 0.8527 1.3254 0
M  V30 10368 C 997.467 0.469044 2.01513 0
M  V30 10369 C 997.882 -0.933701 1.64096 0
M  V30 10370 O 997.239 -1.60898 0.861283 0
M  V30 10371 C 997.29 0.596228 3.56549 0
M  V30 10372 O 997.011 1.94371 3.92621 0
M  V30 10373 C 998.512 0.211324 4.42796 0
M  V30 10374 H 995.732 0.184589 0.645111 0
M  V30 10375 H 998.276 1.1491 1.69163 0
M  V30 10376 H 996.431 -0.0360712 3.87383 0
M  V30 10377 H 996.845 1.93909 4.87339 0
M  V30 10378 H 998.319 0.351324 5.50881 0
M  V30 10379 H 998.796 -0.848055 4.30935 0
M  V30 10380 H 999.402 0.818617 4.17347 0
M  V30 10381 N 997.718 -1.45297 0.610449 0
M  V30 10382 C 998.967 -2.0143 0.104323 0
M  V30 10383 C 999.28 -1.48431 -1.27388 0
M  V30 10384 O 1000.49 -1.96558 -1.87289 0
M  V30 10385 C 998.942 -3.59644 0.135812 0
M  V30 10386 C 998.55 -4.2164 1.51405 0
M  V30 10387 C 1000.29 -4.2333 -0.314922 0
M  V30 10388 C 998.201 -5.72015 1.50176 0
M  V30 10389 H 997.131 -0.753176 0.035233 0
M  V30 10390 H 999.782 -1.66738 0.7662 0
M  V30 10391 H 998.164 -3.91538 -0.592773 0
M  V30 10392 H 999.338 -4.01315 2.26457 0
M  V30 10393 H 997.653 -3.70159 1.90712 0
M  V30 10394 H 1000.25 -5.33597 -0.343335 0
M  V30 10395 H 1000.59 -3.94206 -1.33817 0
M  V30 10396 H 1001.13 -3.96163 0.360489 0
M  V30 10397 H 997.865 -6.05842 2.50271 0
M  V30 10398 H 997.385 -5.94523 0.793869 0
M  V30 10399 H 999.064 -6.35266 1.22665 0
M  V30 10400 N 999.196 -0.349774 -1.5367 0
M  V30 10401 C 1000.61 0.132815 -1.86227 0
M  V30 10402 C 1000.96 1.49479 -1.27084 0
M  V30 10403 O 1000.08 2.08292 -0.58679 0
M  V30 10404 C 1000.68 0.247775 -3.37893 0
M  V30 10405 C 999.237 0.674603 -3.70305 0
M  V30 10406 C 998.384 -0.187869 -2.76663 0
M  V30 10407 H 1001.33 -0.569148 -1.48143 0
M  V30 10408 H 1001.36 1.07418 -3.65023 0
M  V30 10409 H 1000.87 -0.743635 -3.80909 0
M  V30 10410 H 998.969 1.67481 -3.32837 0
M  V30 10411 H 999.082 0.460177 -4.76885 0
M  V30 10412 H 997.446 0.340779 -2.5241 0
M  V30 10413 H 998.229 -1.17653 -3.2251 0
M  V30 10414 N 1000.67 1.57404 -0.0785433 0
M  V30 10415 C 1001.9 1.98492 0.601292 0
M  V30 10416 C 1002.32 0.956832 1.61945 0
M  V30 10417 O 1001.68 -0.0767502 1.81137 0
M  V30 10418 C 1001.73 3.38596 1.24036 0
M  V30 10419 O 1000.83 3.38461 2.35622 0
M  V30 10420 H 1000.17 0.645882 0.154054 0
M  V30 10421 H 1002.7 2.04012 -0.155056 0
M  V30 10422 H 1002.71 3.75929 1.5856 0
M  V30 10423 H 1001.39 4.12952 0.494341 0
M  V30 10424 H 999.967 3.12906 2.02841 0
M  V30 10425 N 1002.15 -0.195058 1.56388 0
M  V30 10426 C 1003.39 -0.92221 1.82413 0
M  V30 10427 C 1003.76 -1.80444 0.656037 0
M  V30 10428 O 1004.96 -2.56738 0.796182 0
M  V30 10429 C 1003.23 -1.71687 3.13462 0
M  V30 10430 S 1004.79 -2.49604 3.60892 0
M  V30 10431 H 1001.6 -0.309316 0.640191 0
M  V30 10432 H 1004.21 -0.185613 1.94617 0
M  V30 10433 H 1002.91 -1.05936 3.96492 0
M  V30 10434 H 1002.44 -2.49529 3.04137 0
M  V30 10435 H 1004.46 -3.73794 3.26332 0
M  V30 10436 N 1003.63 -1.50653 -0.462772 0
M  V30 10437 C 1004.88 -1.61737 -1.21184 0
M  V30 10438 C 1005.2 -0.32369 -1.92295 0
M  V30 10439 O 1004.47 0.659269 -1.84473 0
M  V30 10440 H 1003.05 -0.596015 -0.450306 0
M  V30 10441 H 1005.71 -1.87469 -0.533051 0
M  V30 10442 H 1004.81 -2.43262 -1.95525 0
M  V30 10443 N 1005.11 0.71652 -1.4037 0
M  V30 10444 C 1006.04 1.84345 -1.43315 0
M  V30 10445 C 1007.02 1.67537 -0.294186 0
M  V30 10446 O 1008.2 1.87582 -0.502671 0
M  V30 10447 C 1005.33 3.2229 -1.29408 0
M  V30 10448 C 1004.29 3.53769 -2.40897 0
M  V30 10449 C 1003.61 4.90847 -2.12068 0
M  V30 10450 C 1004.91 3.54862 -3.83237 0
M  V30 10451 H 1006.61 1.82138 -2.37626 0
M  V30 10452 H 1004.15 0.874873 -1.14376 0
M  V30 10453 H 1006.11 4.00819 -1.30085 0
M  V30 10454 H 1004.83 3.2507 -0.31573 0
M  V30 10455 H 1003.49 2.77579 -2.39469 0
M  V30 10456 H 1003.14 4.90229 -1.12626 0
M  V30 10457 H 1002.84 5.12875 -2.86762 0
M  V30 10458 H 1004.36 5.71711 -2.14426 0
M  V30 10459 H 1005.78 4.23432 -3.86494 0
M  V30 10460 H 1004.17 3.88416 -4.57442 0
M  V30 10461 H 1005.24 2.54266 -4.12888 0
M  V30 10462 N 1006.59 1.25851 0.948643 0
M  V30 10463 C 1007.52 1.02549 2.04979 0
M  V30 10464 C 1008.53 -0.0115923 1.62796 0
M  V30 10465 O 1009.72 0.227643 1.77042 0
M  V30 10466 C 1006.82 0.529486 3.34738 0
M  V30 10467 C 1005.99 1.6341 4.05729 0
M  V30 10468 C 1005.05 1.13743 5.1376 0
M  V30 10469 O 1004.08 1.83303 5.38877 0
M  V30 10470 N 1005.28 -0.0181151 5.80497 0
M  V30 10471 H 1008.05 1.97365 2.25537 0
M  V30 10472 H 1005.61 1.17137 1.11761 0
M  V30 10473 H 1007.6 0.181566 4.04293 0
M  V30 10474 H 1006.17 -0.324893 3.10907 0
M  V30 10475 H 1005.39 2.15331 3.30191 0
M  V30 10476 H 1006.68 2.37603 4.49914 0
M  V30 10477 H 1006.07 -0.599198 5.62518 0
M  V30 10478 H 1004.63 -0.307019 6.51077 0
M  V30 10479 N 1008.06 -1.15214 1.07534 0
M  V30 10480 C 1009.31 -1.86319 0.800814 0
M  V30 10481 C 1009.64 -1.82221 -0.671494 0
M  V30 10482 O 1008.92 -1.24664 -1.49295 0
M  V30 10483 C 1009.2 -3.35347 1.31203 0
M  V30 10484 C 1009.05 -3.48067 2.84902 0
M  V30 10485 C 1010.37 -4.3016 0.930064 0
M  V30 10486 H 1007.49 -0.676523 0.292379 0
M  V30 10487 H 1010.13 -1.35349 1.33344 0
M  V30 10488 H 1008.28 -3.78886 0.858949 0
M  V30 10489 H 1009.96 -3.13379 3.38514 0
M  V30 10490 H 1008.2 -2.89566 3.23008 0
M  V30 10491 H 1008.87 -4.52782 3.15741 0
M  V30 10492 H 1011.35 -3.94591 1.3205 0
M  V30 10493 H 1010.22 -5.32914 1.31507 0
M  V30 10494 H 1010.48 -4.41796 -0.163824 0
M  V30 10495 N 1009.54 -0.859717 -1.32086 0
M  V30 10496 C 1010.77 -0.478865 -2.01796 0
M  V30 10497 C 1011.19 0.918274 -1.64163 0
M  V30 10498 O 1010.55 1.60409 -0.844896 0
M  V30 10499 C 1010.6 -0.631356 -3.5503 0
M  V30 10500 O 1009.7 0.333712 -4.11048 0
M  V30 10501 H 1009.04 -0.191775 -0.635703 0
M  V30 10502 H 1011.57 -1.16031 -1.68517 0
M  V30 10503 H 1011.58 -0.520783 -4.04663 0
M  V30 10504 H 1010.26 -1.65015 -3.81763 0
M  V30 10505 H 1008.84 0.178953 -3.7247 0
M  V30 10506 N 1011.02 1.44971 -0.618145 0
M  V30 10507 C 1012.27 2.01372 -0.115004 0
M  V30 10508 C 1012.58 1.49104 1.26599 0
M  V30 10509 O 1013.79 1.97549 1.86244 0
M  V30 10510 C 1012.24 3.59567 -0.154883 0
M  V30 10511 C 1011.85 4.20832 -1.53639 0
M  V30 10512 C 1013.6 4.23491 0.292468 0
M  V30 10513 C 1011.5 5.7121 -1.53208 0
M  V30 10514 H 1010.43 0.752979 -0.0392267 0
M  V30 10515 H 1013.08 1.66329 -0.775032 0
M  V30 10516 H 1011.47 3.91847 0.572001 0
M  V30 10517 H 1012.64 4.00109 -2.28582 0
M  V30 10518 H 1010.96 3.69143 -1.92672 0
M  V30 10519 H 1013.55 5.33771 0.315032 0
M  V30 10520 H 1013.9 3.9491 1.31725 0
M  V30 10521 H 1014.43 3.95967 -0.381493 0
M  V30 10522 H 1011.17 6.04506 -2.53481 0
M  V30 10523 H 1010.69 5.94094 -0.825387 0
M  V30 10524 H 1012.37 6.34606 -1.26032 0
M  V30 10525 N 1012.5 0.357919 1.53482 0
M  V30 10526 C 1013.75 -0.235241 2.00324 0
M  V30 10527 C 1014.06 -1.50494 1.24944 0
M  V30 10528 O 1015.27 -2.17623 1.62335 0
M  V30 10529 C 1013.72 -0.469748 3.56821 0
M  V30 10530 C 1013.33 0.784877 4.41071 0
M  V30 10531 C 1015.07 -1.02098 4.12039 0
M  V30 10532 C 1012.98 0.520377 5.89106 0
M  V30 10533 H 1011.91 -0.0916816 0.748405 0
M  V30 10534 H 1014.56 0.475474 1.77233 0
M  V30 10535 H 1012.94 -1.24153 3.76035 0
M  V30 10536 H 1014.12 1.55886 4.33631 0
M  V30 10537 H 1012.43 1.25878 3.96918 0
M  V30 10538 H 1015.03 -1.23406 5.20264 0
M  V30 10539 H 1015.37 -1.98084 3.66154 0
M  V30 10540 H 1015.91 -0.309554 3.96594 0
M  V30 10541 H 1012.65 1.45035 6.39254 0
M  V30 10542 H 1012.17 -0.215254 5.99414 0
M  V30 10543 H 1013.84 0.143006 6.46842 0
M  V30 10544 N 1013.98 -1.5736 0.0868897 0
M  V30 10545 C 1015.25 -1.85495 -0.620561 0
M  V30 10546 C 1015.63 -0.982218 -1.86857 0
M  V30 10547 O 1014.98 -0.0524529 -2.2844 0
M  V30 10548 C 1015.19 -3.35996 -0.943798 0
M  V30 10549 C 1016.54 -4.03861 -1.31079 0
M  V30 10550 O 1017.56 -3.4083 -1.03507 0
M  V30 10551 O 1016.42 -5.15062 -1.82683 0
M  V30 10552 H 1013.52 -0.766822 -0.309697 0
M  V30 10553 H 1016.06 -1.69282 0.118966 0
M  V30 10554 H 1014.83 -3.91257 -0.0580628 0
M  V30 10555 H 1014.46 -3.57525 -1.73958 0
M  V30 10556 N 1015.45 0.186762 -1.56489 0
M  V30 10557 C 1016.68 0.920495 -1.84961 0
M  V30 10558 C 1017.09 1.77004 -0.668297 0
M  V30 10559 O 1016.44 1.79891 0.37213 0
M  V30 10560 C 1016.5 1.85997 -3.07645 0
M  V30 10561 C 1016.16 1.19156 -4.41193 0
M  V30 10562 C 1017.16 0.564446 -5.16827 0
M  V30 10563 C 1014.84 1.19292 -4.87929 0
M  V30 10564 C 1016.84 -0.0523768 -6.37378 0
M  V30 10565 C 1014.52 0.572266 -6.08415 0
M  V30 10566 C 1015.52 -0.049294 -6.82982 0
M  V30 10567 O 1015.21 -0.660201 -8.01184 0
M  V30 10568 H 1014.94 0.273659 -0.618132 0
M  V30 10569 H 1017.5 0.196437 -2.04459 0
M  V30 10570 H 1015.73 2.62394 -2.84053 0
M  V30 10571 H 1017.42 2.46221 -3.22692 0
M  V30 10572 H 1018.18 0.555474 -4.81809 0
M  V30 10573 H 1014.06 1.66611 -4.29839 0
M  V30 10574 H 1017.6 -0.538133 -6.95521 0
M  V30 10575 H 1013.5 0.578769 -6.429 0
M  V30 10576 H 1014.27 -0.557926 -8.16596 0
M  V30 10577 N 1016.93 1.50896 0.454776 0
M  V30 10578 C 1018.16 1.6648 1.22849 0
M  V30 10579 C 1018.58 0.354841 1.85435 0
M  V30 10580 O 1017.93 -0.664931 1.69956 0
M  V30 10581 C 1017.98 2.76787 2.32532 0
M  V30 10582 O 1017.7 4.02706 1.72509 0
M  V30 10583 C 1019.21 3.03488 3.23125 0
M  V30 10584 H 1016.43 0.559152 0.370932 0
M  V30 10585 H 1018.97 1.97215 0.540983 0
M  V30 10586 H 1017.12 2.48701 2.9703 0
M  V30 10587 H 1017.54 4.63834 2.44863 0
M  V30 10588 H 1019.01 3.84294 3.9626 0
M  V30 10589 H 1019.49 2.152 3.82865 0
M  V30 10590 H 1020.1 3.33167 2.64347 0
M  V30 10591 N 1018.41 -0.709066 1.40748 0
M  V30 10592 C 1019.34 -1.83583 1.4429 0
M  V30 10593 C 1020.32 -1.67378 0.303067 0
M  V30 10594 O 1021.51 -1.87312 0.512612 0
M  V30 10595 C 1018.64 -3.21599 1.31116 0
M  V30 10596 C 1017.59 -3.52486 2.4277 0
M  V30 10597 C 1016.92 -4.89716 2.14668 0
M  V30 10598 C 1018.22 -3.52824 3.85113 0
M  V30 10599 H 1019.91 -1.80876 2.38588 0
M  V30 10600 H 1017.46 -0.868795 1.14839 0
M  V30 10601 H 1019.41 -4.00123 1.32209 0
M  V30 10602 H 1018.13 -3.24898 0.332965 0
M  V30 10603 H 1016.79 -2.76305 2.40937 0
M  V30 10604 H 1016.44 -4.89625 1.15224 0
M  V30 10605 H 1016.14 -5.11347 2.89478 0
M  V30 10606 H 1017.66 -5.70566 2.17455 0
M  V30 10607 H 1019.08 -4.21377 3.88734 0
M  V30 10608 H 1017.48 -3.85984 4.59496 0
M  V30 10609 H 1018.55 -2.52073 4.14231 0
M  V30 10610 N 1019.89 -1.26353 -0.941956 0
M  V30 10611 C 1021.11 -1.14731 -1.72776 0
M  V30 10612 C 1021.54 0.293766 -1.85792 0
M  V30 10613 O 1020.9 1.21284 -1.34759 0
M  V30 10614 C 1020.95 -1.82041 -3.11277 0
M  V30 10615 O 1020.05 -1.10867 -3.97218 0
M  V30 10616 H 1019.39 -0.399823 -0.53013 0
M  V30 10617 H 1021.92 -1.67157 -1.17981 0
M  V30 10618 H 1021.93 -1.88834 -3.61671 0
M  V30 10619 H 1020.61 -2.86879 -3.0112 0
M  V30 10620 H 1019.18 -1.12044 -3.55669 0
M  V30 10621 N 1021.37 1.14642 -1.08144 0
M  V30 10622 C 1022.78 1.37604 -0.808537 0
M  V30 10623 C 1022.98 1.92868 0.583452 0
M  V30 10624 O 1022.04 2.13964 1.34073 0
M  V30 10625 C 1023.35 2.3396 -1.889 0
M  V30 10626 C 1024.9 2.47605 -1.9147 0
M  V30 10627 C 1025.38 3.47258 -2.98623 0
M  V30 10628 N 1026.87 3.548 -2.97777 0
M  V30 10629 C 1027.6 4.31751 -3.77331 0
M  V30 10630 N 1027.1 5.11966 -4.66757 0
M  V30 10631 N 1028.89 4.2692 -3.65645 0
M  V30 10632 H 1021.04 0.771154 -1.97906 0
M  V30 10633 H 1023.3 0.401694 -0.858688 0
M  V30 10634 H 1023.01 2.00484 -2.88962 0
M  V30 10635 H 1022.88 3.33833 -1.756 0
M  V30 10636 H 1025.27 2.80375 -0.920548 0
M  V30 10637 H 1025.35 1.47702 -2.08848 0
M  V30 10638 H 1025 3.15223 -3.98243 0
M  V30 10639 H 1024.93 4.46935 -2.7849 0
M  V30 10640 H 1027.42 2.97553 -2.3296 0
M  V30 10641 H 1027.73 5.67951 -5.24072 0
M  V30 10642 H 1026.08 5.11245 -4.70801 0
M  V30 10643 H 1029.27 3.63322 -2.95152 0
M  V30 10644 H 1029.44 4.8664 -4.27885 0
M  V30 10645 N 1022.85 0.866709 1.31628 0
M  V30 10646 C 1023.78 0.335762 2.31073 0
M  V30 10647 C 1024.76 -0.571597 1.60209 0
M  V30 10648 O 1025.94 -0.489306 1.87935 0
M  V30 10649 C 1023.07 -0.466416 3.44154 0
M  V30 10650 C 1022.03 0.347561 4.26586 0
M  V30 10651 C 1021.35 -0.5801 5.31544 0
M  V30 10652 C 1022.65 1.57986 4.97833 0
M  V30 10653 H 1024.35 1.16673 2.75731 0
M  V30 10654 H 1021.89 0.56248 1.3256 0
M  V30 10655 H 1023.84 -0.84836 4.12772 0
M  V30 10656 H 1022.57 -1.33086 2.98254 0
M  V30 10657 H 1021.23 0.71141 3.59631 0
M  V30 10658 H 1020.88 -1.44174 4.81895 0
M  V30 10659 H 1020.58 -0.0393965 5.87587 0
M  V30 10660 H 1022.1 -0.958958 6.03023 0
M  V30 10661 H 1023.51 1.26954 5.59067 0
M  V30 10662 H 1021.91 2.05939 5.63657 0
M  V30 10663 H 1022.98 2.3345 4.25005 0
M  V30 10664 N 1024.32 -1.44642 0.625825 0
M  V30 10665 C 1025.23 -2.34451 -0.0836134 0
M  V30 10666 C 1026.25 -1.5231 -0.841289 0
M  V30 10667 O 1027.43 -1.85056 -0.794754 0
M  V30 10668 C 1024.49 -3.30211 -1.05648 0
M  V30 10669 C 1023.55 -4.28259 -0.298759 0
M  V30 10670 C 1022.78 -5.19444 -1.22528 0
M  V30 10671 O 1023.01 -5.14444 -2.46382 0
M  V30 10672 O 1021.94 -5.97668 -0.71247 0
M  V30 10673 H 1025.77 -2.96555 0.654912 0
M  V30 10674 H 1023.35 -1.44327 0.386029 0
M  V30 10675 H 1025.23 -3.8917 -1.61632 0
M  V30 10676 H 1023.91 -2.70648 -1.77571 0
M  V30 10677 H 1022.82 -3.72863 0.304001 0
M  V30 10678 H 1024.15 -4.90728 0.380345 0
M  V30 10679 N 1025.8 -0.366053 -1.5329 0
M  V30 10680 C 1027.22 -0.0150149 -1.59593 0
M  V30 10681 C 1027.42 1.46719 -1.38116 0
M  V30 10682 O 1026.47 2.22884 -1.18656 0
M  V30 10683 C 1027.79 -0.471374 -2.96982 0
M  V30 10684 C 1029.33 -0.425634 -3.10092 0
M  V30 10685 C 1029.81 -0.857812 -4.49895 0
M  V30 10686 N 1031.3 -0.81289 -4.56011 0
M  V30 10687 C 1032.04 -1.11898 -5.62376 0
M  V30 10688 N 1031.53 -1.49436 -6.76491 0
M  V30 10689 N 1033.32 -1.04174 -5.52362 0
M  V30 10690 H 1025.48 -1.33127 -1.65502 0
M  V30 10691 H 1027.74 -0.544172 -0.776261 0
M  V30 10692 H 1027.44 -1.50569 -3.1784 0
M  V30 10693 H 1027.32 0.141764 -3.76934 0
M  V30 10694 H 1029.71 0.599548 -2.88945 0
M  V30 10695 H 1029.79 -1.07427 -2.32149 0
M  V30 10696 H 1029.43 -1.88111 -4.7178 0
M  V30 10697 H 1029.36 -0.186419 -5.2627 0
M  V30 10698 H 1031.85 -0.536343 -3.74075 0
M  V30 10699 H 1032.16 -1.71217 -7.53594 0
M  V30 10700 H 1030.51 -1.53302 -6.77882 0
M  V30 10701 H 1033.7 -0.747654 -4.62091 0
M  V30 10702 H 1033.87 -1.28362 -6.35159 0
M  V30 10703 N 1027.28 1.57312 -0.0952337 0
M  V30 10704 C 1028.56 1.85822 0.610715 0
M  V30 10705 C 1028.94 0.992114 1.86334 0
M  V30 10706 O 1028.28 0.0645669 2.28409 0
M  V30 10707 C 1028.49 3.36492 0.925967 0
M  V30 10708 C 1029.84 4.0455 1.28936 0
M  V30 10709 O 1030.87 3.41374 1.01698 0
M  V30 10710 O 1029.73 5.16024 1.79949 0
M  V30 10711 H 1026.82 0.768454 0.305626 0
M  V30 10712 H 1029.37 1.69217 -0.127941 0
M  V30 10713 H 1028.14 3.91282 0.0373127 0
M  V30 10714 H 1027.76 3.58443 1.7206 0
M  V30 10715 N 1028.76 -0.17846 1.56586 0
M  V30 10716 C 1030.01 -0.894464 1.81228 0
M  V30 10717 C 1030.33 -1.83089 0.671062 0
M  V30 10718 O 1029.6 -1.93439 -0.309557 0
M  V30 10719 H 1028.18 -0.333288 0.668527 0
M  V30 10720 H 1030.84 -0.179986 1.94067 0
M  V30 10721 H 1029.93 -1.47565 2.75011 0
M  V30 10722 N 1030.24 -1.51135 -0.446768 0
M  V30 10723 C 1031.48 -1.62571 -1.19388 0
M  V30 10724 C 1031.8 -0.3432 -1.92566 0
M  V30 10725 O 1033 -0.336804 -2.69403 0
M  V30 10726 C 1031.46 -2.87071 -2.17068 0
M  V30 10727 C 1031.07 -4.22291 -1.49581 0
M  V30 10728 C 1032.81 -3.07862 -2.9227 0
M  V30 10729 C 1030.72 -5.3795 -2.45689 0
M  V30 10730 H 1029.65 -0.60549 -0.449331 0
M  V30 10731 H 1032.3 -1.77593 -0.461846 0
M  V30 10732 H 1030.68 -2.65662 -2.93666 0
M  V30 10733 H 1031.86 -4.54046 -0.786054 0
M  V30 10734 H 1030.17 -4.07302 -0.865677 0
M  V30 10735 H 1032.77 -3.91444 -3.64246 0
M  V30 10736 H 1033.11 -2.20559 -3.53072 0
M  V30 10737 H 1033.64 -3.29566 -2.2278 0
M  V30 10738 H 1030.38 -6.27484 -1.89591 0
M  V30 10739 H 1029.9 -5.10583 -3.14746 0
M  V30 10740 H 1031.58 -5.69517 -3.07017 0
M  V30 10741 N 1031.71 0.701592 -1.41122 0
M  V30 10742 C 1032.96 1.46376 -1.40363 0
M  V30 10743 C 1033.29 1.94197 -0.0105442 0
M  V30 10744 O 1032.57 1.69121 0.960637 0
M  V30 10745 C 1032.85 2.67994 -2.40523 0
M  V30 10746 C 1032.7 2.25977 -3.88914 0
M  V30 10747 C 1034.02 3.70181 -2.38022 0
M  V30 10748 H 1031.14 0.530929 -0.511159 0
M  V30 10749 H 1033.78 0.799588 -1.72356 0
M  V30 10750 H 1031.93 3.24661 -2.13372 0
M  V30 10751 H 1033.61 1.74684 -4.26946 0
M  V30 10752 H 1031.85 1.57826 -4.04071 0
M  V30 10753 H 1032.52 3.13215 -4.54533 0
M  V30 10754 H 1035 3.23174 -2.62103 0
M  V30 10755 H 1033.87 4.52894 -3.10127 0
M  V30 10756 H 1034.13 4.19458 -1.3967 0
M  V30 10757 N 1033.19 1.2685 0.935242 0
M  V30 10758 C 1034.44 1.12912 1.6846 0
M  V30 10759 C 1034.77 -0.325708 1.91449 0
M  V30 10760 O 1034.05 -1.23884 1.49944 0
M  V30 10761 C 1034.33 1.90513 3.05576 0
M  V30 10762 C 1034.18 3.43936 2.89876 0
M  V30 10763 C 1035.5 1.70363 4.05789 0
M  V30 10764 H 1032.62 0.411559 0.611382 0
M  V30 10765 H 1035.26 1.55917 1.08582 0
M  V30 10766 H 1033.41 1.53963 3.5669 0
M  V30 10767 H 1035.08 3.90272 2.45939 0
M  V30 10768 H 1033.33 3.70659 2.25376 0
M  V30 10769 H 1034 3.93467 3.87153 0
M  V30 10770 H 1036.47 2.02217 3.63659 0
M  V30 10771 H 1035.35 2.27066 4.99732 0
M  V30 10772 H 1035.61 0.649674 4.373 0
M  V30 10773 N 1034.67 -1.14067 1.0875 0
M  V30 10774 C 1035.92 -1.85185 0.819317 0
M  V30 10775 C 1036.25 -1.8314 -0.654969 0
M  V30 10776 O 1035.5 -1.25974 -1.49763 0
M  V30 10777 C 1035.8 -3.33273 1.29089 0
M  V30 10778 C 1035.47 -3.55504 2.77359 0
M  V30 10779 C 1034.13 -3.61279 3.17853 0
M  V30 10780 C 1036.48 -3.64041 3.72992 0
M  V30 10781 C 1033.81 -3.73119 4.52768 0
M  V30 10782 C 1036.16 -3.77407 5.07687 0
M  V30 10783 C 1034.82 -3.81433 5.47782 0
M  V30 10784 H 1034.09 -0.67764 0.299809 0
M  V30 10785 H 1036.74 -1.34713 1.36106 0
M  V30 10786 H 1035.05 -3.86049 0.668811 0
M  V30 10787 H 1036.74 -3.86734 1.06009 0
M  V30 10788 H 1033.33 -3.51659 2.45019 0
M  V30 10789 H 1037.52 -3.58866 3.42825 0
M  V30 10790 H 1032.77 -3.74499 4.83281 0
M  V30 10791 H 1036.95 -3.82956 5.81651 0
M  V30 10792 H 1034.57 -3.9036 6.52321 0
M  V30 10793 N 1036.15 -0.873678 -1.31166 0
M  V30 10794 C 1037.39 -0.493006 -1.98365 0
M  V30 10795 C 1037.75 0.937973 -1.67529 0
M  V30 10796 O 1038.95 1.42419 -2.2797 0
M  V30 10797 C 1037.22 -0.747128 -3.49504 0
M  V30 10798 S 1038.78 -0.466869 -4.36309 0
M  V30 10799 H 1035.6 -0.183882 -0.68681 0
M  V30 10800 H 1038.2 -1.13051 -1.59499 0
M  V30 10801 H 1036.91 -1.78731 -3.69437 0
M  V30 10802 H 1036.44 -0.096761 -3.93281 0
M  V30 10803 H 1038.45 0.699298 -4.91248 0
M  V30 10804 N 1037.63 1.44308 -0.633487 0
M  V30 10805 C 1038.9 1.95476 -0.0697262 0
M  V30 10806 C 1039.28 1.57539 1.40516 0
M  V30 10807 O 1038.63 0.850632 2.12077 0
M  V30 10808 C 1038.84 3.4775 -0.295093 0
M  V30 10809 C 1040.19 4.24177 -0.189542 0
M  V30 10810 O 1041.21 3.55479 -0.226586 0
M  V30 10811 O 1040.07 5.46415 -0.096479 0
M  V30 10812 H 1037.17 0.826734 0.0209582 0
M  V30 10813 H 1039.71 1.54347 -0.705354 0
M  V30 10814 H 1038.48 3.6842 -1.31841 0
M  V30 10815 H 1038.11 3.95832 0.37456 0
M  V30 10816 N 1039.1 0.374177 1.53094 0
M  V30 10817 C 1040.35 -0.213131 2.01677 0
M  V30 10818 C 1040.68 -1.47715 1.26071 0
M  V30 10819 O 1039.96 -1.91199 0.356834 0
M  V30 10820 C 1040.24 -0.496392 3.56662 0
M  V30 10821 C 1040.09 0.781859 4.42953 0
M  V30 10822 C 1041.41 -1.29339 4.20666 0
M  V30 10823 H 1038.53 -0.0759885 0.733072 0
M  V30 10824 H 1041.17 0.500765 1.83282 0
M  V30 10825 H 1039.32 -1.10455 3.72467 0
M  V30 10826 H 1041 1.41914 4.38928 0
M  V30 10827 H 1039.24 1.40041 4.10574 0
M  V30 10828 H 1039.91 0.538508 5.49367 0
M  V30 10829 H 1042.39 -0.778848 4.08746 0
M  V30 10830 H 1041.26 -1.46033 5.29118 0
M  V30 10831 H 1041.52 -2.30435 3.77296 0
M  V30 10832 N 1040.58 -1.57259 0.103575 0
M  V30 10833 C 1041.81 -1.99424 -0.569638 0
M  V30 10834 C 1042.23 -0.982475 -1.60403 0
M  V30 10835 O 1041.59 0.0479231 -1.81237 0
M  V30 10836 C 1041.64 -3.40527 -1.18633 0
M  V30 10837 O 1040.74 -3.42167 -2.30208 0
M  V30 10838 H 1040.08 -0.648251 -0.143759 0
M  V30 10839 H 1042.61 -2.03739 0.187493 0
M  V30 10840 H 1042.62 -3.78404 -1.5256 0
M  V30 10841 H 1041.3 -4.13686 -0.428582 0
M  V30 10842 H 1039.88 -3.16093 -1.97837 0
M  V30 10843 N 1042.06 0.170153 -1.56679 0
M  V30 10844 C 1042.99 1.23945 -1.91606 0
M  V30 10845 C 1043.97 1.42725 -0.779004 0
M  V30 10846 O 1045.16 1.57712 -1.03243 0
M  V30 10847 C 1042.28 2.60222 -2.168 0
M  V30 10848 C 1041.33 2.58172 -3.39484 0
M  V30 10849 S 1042.16 2.0714 -4.93815 0
M  V30 10850 C 1043.32 3.45192 -5.22105 0
M  V30 10851 H 1043.55 0.941345 -2.82004 0
M  V30 10852 H 1041.08 0.374771 -1.49783 0
M  V30 10853 H 1043.04 3.38656 -2.31996 0
M  V30 10854 H 1041.7 2.87232 -1.27107 0
M  V30 10855 H 1040.9 3.58435 -3.54317 0
M  V30 10856 H 1040.5 1.87834 -3.2341 0
M  V30 10857 H 1042.79 4.41194 -5.14154 0
M  V30 10858 H 1043.73 3.35233 -6.23718 0
M  V30 10859 H 1044.14 3.41257 -4.49671 0
M  V30 10860 N 1043.54 1.5137 0.438746 0
M  V30 10861 C 1044.82 1.54508 1.19944 0
M  V30 10862 C 1045.2 0.308525 2.08833 0
M  V30 10863 O 1044.54 -0.706461 2.17305 0
M  V30 10864 C 1044.75 2.85833 2.00251 0
M  V30 10865 C 1046.1 3.37729 2.5734 0
M  V30 10866 O 1047.13 2.87374 2.10463 0
M  V30 10867 O 1045.98 4.25589 3.42836 0
M  V30 10868 H 1043.08 0.621132 0.546007 0
M  V30 10869 H 1045.62 1.63682 0.447931 0
M  V30 10870 H 1044.4 3.67291 1.34955 0
M  V30 10871 H 1044.02 2.79815 2.8247 0
M  V30 10872 N 1045.02 -0.694098 1.41492 0
M  V30 10873 C 1045.93 -1.83778 1.45818 0
M  V30 10874 C 1046.94 -1.70471 0.348639 0
M  V30 10875 O 1048.12 -1.92361 0.596588 0
M  V30 10876 C 1045.18 -3.19771 1.33967 0
M  V30 10877 C 1044.24 -3.45175 2.5525 0
M  V30 10878 C 1043.48 -4.74681 2.43955 0
M  V30 10879 O 1043.7 -5.51268 1.46491 0
M  V30 10880 O 1042.63 -5.00901 3.33739 0
M  V30 10881 H 1046.46 -1.83084 2.42309 0
M  V30 10882 H 1044.05 -0.847349 1.23046 0
M  V30 10883 H 1045.93 -4.00961 1.29648 0
M  V30 10884 H 1044.6 -3.21145 0.405926 0
M  V30 10885 H 1043.51 -2.6391 2.65146 0
M  V30 10886 H 1044.84 -3.48617 3.47458 0
M  V30 10887 N 1046.49 -1.27344 -0.928501 0
M  V30 10888 C 1047.77 -1.04362 -1.65433 0
M  V30 10889 C 1048.15 0.421896 -2.06841 0
M  V30 10890 O 1047.5 1.40496 -1.80203 0
M  V30 10891 C 1047.71 -2.00442 -2.85699 0
M  V30 10892 C 1049.06 -2.29767 -3.57061 0
M  V30 10893 O 1050.08 -1.98409 -2.95825 0
M  V30 10894 O 1048.94 -2.83217 -4.67387 0
M  V30 10895 H 1046.03 -0.397783 -0.72505 0
M  V30 10896 H 1048.58 -1.38606 -0.979109 0
M  V30 10897 H 1047.35 -2.99281 -2.52085 0
M  V30 10898 H 1046.98 -1.66755 -3.60941 0
M  V30 10899 N 1047.97 1.13488 -1.09353 0
M  V30 10900 C 1048.9 2.20988 -0.75409 0
M  V30 10901 C 1049.88 1.67977 0.267901 0
M  V30 10902 O 1051.07 1.93722 0.136128 0
M  V30 10903 C 1048.2 3.46869 -0.173042 0
M  V30 10904 C 1047.15 4.12965 -1.12446 0
M  V30 10905 C 1046.48 5.33163 -0.405157 0
M  V30 10906 C 1047.78 4.60388 -2.46658 0
M  V30 10907 H 1049.47 2.49639 -1.6529 0
M  V30 10908 H 1047.02 1.19987 -0.796182 0
M  V30 10909 H 1048.97 4.21331 0.0764988 0
M  V30 10910 H 1047.7 3.17611 0.760956 0
M  V30 10911 H 1046.35 3.40469 -1.35927 0
M  V30 10912 H 1046 5.00169 0.532955 0
M  V30 10913 H 1045.7 5.78332 -1.03952 0
M  V30 10914 H 1047.23 6.1038 -0.163899 0
M  V30 10915 H 1048.64 5.26276 -2.27389 0
M  V30 10916 H 1047.04 5.16294 -3.05876 0
M  V30 10917 H 1048.11 3.74949 -3.07476 0
M  V30 10918 N 1049.45 0.880621 1.30701 0
M  V30 10919 C 1050.7 0.496875 1.96309 0
M  V30 10920 C 1051.03 -0.953064 1.69549 0
M  V30 10921 O 1050.28 -1.68782 0.990507 0
M  V30 10922 C 1050.58 0.713203 3.50212 0
M  V30 10923 C 1050.25 2.13756 3.97013 0
M  V30 10924 C 1048.91 2.52706 4.09503 0
M  V30 10925 C 1051.26 3.066 4.21481 0
M  V30 10926 C 1048.59 3.8372 4.43819 0
M  V30 10927 C 1050.94 4.3714 4.57265 0
M  V30 10928 C 1049.6 4.7599 4.67963 0
M  V30 10929 H 1048.87 0.18182 0.718347 0
M  V30 10930 H 1051.52 1.11564 1.55646 0
M  V30 10931 H 1049.83 0.0113694 3.91798 0
M  V30 10932 H 1051.52 0.39595 3.9904 0
M  V30 10933 H 1048.11 1.8252 3.87794 0
M  V30 10934 H 1052.3 2.77729 4.11315 0
M  V30 10935 H 1047.55 4.13568 4.50301 0
M  V30 10936 H 1051.73 5.09123 4.75149 0
M  V30 10937 H 1049.35 5.77549 4.94309 0
M  V30 10938 N 1050.93 -1.4397 0.641131 0
M  V30 10939 C 1052.16 -2.06303 0.157006 0
M  V30 10940 C 1052.57 -1.47981 -1.17248 0
M  V30 10941 O 1051.93 -0.606471 -1.72128 0
M  V30 10942 C 1051.98 -3.6147 0.0468425 0
M  V30 10943 O 1051.7 -4.17622 1.32376 0
M  V30 10944 C 1053.2 -4.40857 -0.464795 0
M  V30 10945 H 1050.42 -0.665684 0.0842946 0
M  V30 10946 H 1052.97 -1.84675 0.878363 0
M  V30 10947 H 1051.12 -3.82325 -0.625006 0
M  V30 10948 H 1051.54 -5.11167 1.17509 0
M  V30 10949 H 1053.01 -5.49813 -0.490862 0
M  V30 10950 H 1053.49 -4.13016 -1.4938 0
M  V30 10951 H 1054.09 -4.24943 0.174146 0
M  V30 10952 N 1052.41 -0.382291 -1.52893 0
M  V30 10953 C 1053.66 0.201734 -2.01091 0
M  V30 10954 C 1053.98 1.47905 -1.2708 0
M  V30 10955 O 1053.25 1.92002 -0.38883 0
M  V30 10956 H 1051.83 0.0775373 -0.742965 0
M  V30 10957 H 1054.49 -0.512369 -1.88045 0
M  V30 10958 H 1053.58 0.416919 -3.09303 0
M  V30 10959 N 1053.89 1.57202 -0.111913 0
M  V30 10960 C 1055.16 1.86459 0.590972 0
M  V30 10961 C 1055.54 1.01182 1.85271 0
M  V30 10962 O 1054.89 0.0887891 2.28327 0
M  V30 10963 C 1055.1 3.37455 0.890225 0
M  V30 10964 C 1056.45 4.05895 1.24638 0
M  V30 10965 O 1057.47 3.42433 0.980713 0
M  V30 10966 O 1056.33 5.17903 1.74466 0
M  V30 10967 H 1053.43 0.771652 0.297459 0
M  V30 10968 H 1055.97 1.69072 -0.145882 0
M  V30 10969 H 1054.74 3.913 -0.00419012 0
M  V30 10970 H 1054.37 3.60248 1.68248 0
M  V30 10971 N 1055.36 -0.161842 1.56767 0
M  V30 10972 C 1056.61 -0.875192 1.82167 0
M  V30 10973 C 1056.93 -1.82367 0.690444 0
M  V30 10974 O 1056.2 -1.93756 -0.289023 0
M  V30 10975 H 1054.78 -0.326178 0.672024 0
M  V30 10976 H 1057.44 -0.159392 1.94247 0
M  V30 10977 H 1056.54 -1.44639 2.76561 0
M  V30 10978 N 1056.84 -1.516 -0.430713 0
M  V30 10979 C 1058.12 -1.55142 -1.19123 0
M  V30 10980 C 1058.5 -0.319596 -2.08667 0
M  V30 10981 O 1057.85 0.694927 -2.17676 0
M  V30 10982 C 1058.06 -2.86891 -1.98732 0
M  V30 10983 C 1059.4 -3.39089 -2.55546 0
M  V30 10984 O 1060.43 -2.88486 -2.08936 0
M  V30 10985 O 1059.29 -4.27401 -3.40574 0
M  V30 10986 H 1056.38 -0.624019 -0.542705 0
M  V30 10987 H 1058.93 -1.63917 -0.439244 0
M  V30 10988 H 1057.7 -3.68002 -1.33005 0
M  V30 10989 H 1057.32 -2.81309 -2.80982 0
M  V30 10990 N 1058.32 0.686584 -1.41858 0
M  V30 10991 C 1059.55 1.47305 -1.44862 0
M  V30 10992 C 1059.96 1.8912 -0.0549286 0
M  V30 10993 O 1059.3 1.57941 0.938101 0
M  V30 10994 C 1059.36 2.76107 -2.30229 0
M  V30 10995 C 1059.03 2.5644 -3.78269 0
M  V30 10996 C 1060.02 2.21803 -4.70212 0
M  V30 10997 C 1057.71 2.71801 -4.22409 0
M  V30 10998 C 1059.7 2.02778 -6.04284 0
M  V30 10999 C 1057.39 2.52392 -5.56544 0
M  V30 11000 C 1058.39 2.17933 -6.47298 0
M  V30 11001 O 1058.08 1.98701 -7.78956 0
M  V30 11002 H 1057.81 0.460174 -0.495193 0
M  V30 11003 H 1060.36 0.852069 -1.86893 0
M  V30 11004 H 1058.59 3.40644 -1.83026 0
M  V30 11005 H 1060.28 3.37947 -2.24826 0
M  V30 11006 H 1061.05 2.09542 -4.37398 0
M  V30 11007 H 1056.93 2.97605 -3.52069 0
M  V30 11008 H 1060.47 1.75805 -6.75084 0
M  V30 11009 H 1056.37 2.64246 -5.88935 0
M  V30 11010 H 1057.13 2.13393 -7.90193 0
M  V30 11011 N 1059.8 1.27835 0.921735 0
M  V30 11012 C 1060.73 1.06874 2.02758 0
M  V30 11013 C 1061.74 0.0229418 1.62784 0
M  V30 11014 O 1062.93 0.265145 1.7652 0
M  V30 11015 C 1060.03 0.60037 3.3354 0
M  V30 11016 C 1059.2 1.71979 4.02172 0
M  V30 11017 C 1058.26 1.24615 5.11231 0
M  V30 11018 O 1057.29 1.94692 5.34868 0
M  V30 11019 N 1058.49 0.105021 5.80405 0
M  V30 11020 H 1061.26 2.02105 2.213 0
M  V30 11021 H 1058.82 1.19481 1.09251 0
M  V30 11022 H 1060.81 0.267281 4.03816 0
M  V30 11023 H 1059.38 -0.258872 3.11526 0
M  V30 11024 H 1058.6 2.22287 3.25549 0
M  V30 11025 H 1059.89 2.47092 4.44773 0
M  V30 11026 H 1059.29 -0.479745 5.63662 0
M  V30 11027 H 1057.84 -0.168846 6.51581 0
M  V30 11028 N 1061.28 -1.12907 1.09954 0
M  V30 11029 C 1062.52 -1.84306 0.838912 0
M  V30 11030 C 1062.85 -1.83825 -0.635508 0
M  V30 11031 O 1062.11 -1.27556 -1.48418 0
M  V30 11032 C 1062.4 -3.31885 1.32616 0
M  V30 11033 C 1062.07 -3.52542 2.81114 0
M  V30 11034 C 1060.73 -3.57888 3.21667 0
M  V30 11035 C 1063.08 -3.60065 3.76833 0
M  V30 11036 C 1060.41 -3.68296 4.567 0
M  V30 11037 C 1062.76 -3.72001 5.11662 0
M  V30 11038 C 1061.43 -3.75602 5.51797 0
M  V30 11039 H 1060.7 -0.674422 0.30698 0
M  V30 11040 H 1063.35 -1.33261 1.37527 0
M  V30 11041 H 1061.65 -3.85318 0.709719 0
M  V30 11042 H 1063.35 -3.85588 1.10105 0
M  V30 11043 H 1059.94 -3.4904 2.48735 0
M  V30 11044 H 1064.12 -3.55209 3.46612 0
M  V30 11045 H 1059.38 -3.69352 4.87226 0
M  V30 11046 H 1063.55 -3.76765 5.8568 0
M  V30 11047 H 1061.18 -3.83419 6.56425 0
M  V30 11048 N 1062.75 -0.88754 -1.30232 0
M  V30 11049 C 1064.03 -0.427249 -1.90877 0
M  V30 11050 C 1064.41 1.0922 -1.80649 0
M  V30 11051 O 1063.76 1.92866 -1.22536 0
M  V30 11052 C 1063.97 -0.928219 -3.3643 0
M  V30 11053 C 1065.32 -0.964706 -4.13496 0
M  V30 11054 O 1066.34 -0.875057 -3.45284 0
M  V30 11055 O 1065.2 -1.09754 -5.35366 0
M  V30 11056 H 1062.29 -0.131107 -0.816541 0
M  V30 11057 H 1064.84 -0.976609 -1.38782 0
M  V30 11058 H 1063.61 -1.97209 -3.37971 0
M  V30 11059 H 1063.23 -0.358169 -3.95983 0
M  V30 11060 N 1064.23 1.43628 -0.648757 0
M  V30 11061 C 1065.48 2.01083 -0.157692 0
M  V30 11062 C 1065.79 1.51756 1.23408 0
M  V30 11063 O 1067 2.01455 1.82012 0
M  V30 11064 C 1065.46 3.59157 -0.231118 0
M  V30 11065 C 1065.06 4.17478 -1.6253 0
M  V30 11066 C 1066.81 4.24016 0.202573 0
M  V30 11067 C 1064.72 5.67832 -1.6529 0
M  V30 11068 H 1063.65 0.751977 -0.0551897 0
M  V30 11069 H 1066.3 1.64648 -0.810139 0
M  V30 11070 H 1064.68 3.92972 0.488755 0
M  V30 11071 H 1065.85 3.9517 -2.37017 0
M  V30 11072 H 1064.17 3.64973 -2.00459 0
M  V30 11073 H 1066.76 5.34319 0.20174 0
M  V30 11074 H 1067.11 3.97616 1.23319 0
M  V30 11075 H 1067.64 3.95068 -0.465398 0
M  V30 11076 H 1064.38 5.98994 -2.66246 0
M  V30 11077 H 1063.9 5.92209 -0.951217 0
M  V30 11078 H 1065.58 6.3179 -1.39465 0
M  V30 11079 N 1065.71 0.390394 1.52688 0
M  V30 11080 C 1066.94 -0.191207 2.05713 0
M  V30 11081 C 1067.35 -1.40973 1.26188 0
M  V30 11082 O 1066.69 -1.81202 0.301938 0
M  V30 11083 C 1066.75 -0.624794 3.54029 0
M  V30 11084 C 1066.42 0.480413 4.54468 0
M  V30 11085 C 1067.41 1.33816 5.02384 0
M  V30 11086 C 1065.1 0.647754 4.98106 0
M  V30 11087 C 1067.09 2.34836 5.92563 0
M  V30 11088 C 1064.78 1.66129 5.88085 0
M  V30 11089 C 1065.78 2.51001 6.35206 0
M  V30 11090 O 1065.47 3.50622 7.23408 0
M  V30 11091 H 1065.2 -0.032221 0.675232 0
M  V30 11092 H 1067.75 0.554431 1.97776 0
M  V30 11093 H 1065.98 -1.42243 3.59589 0
M  V30 11094 H 1067.67 -1.13219 3.8979 0
M  V30 11095 H 1068.44 1.22019 4.694 0
M  V30 11096 H 1064.32 -0.00314511 4.61 0
M  V30 11097 H 1067.86 3.01117 6.29265 0
M  V30 11098 H 1063.76 1.77964 6.20483 0
M  V30 11099 H 1064.53 3.46644 7.41472 0
M  V30 11100 N 1067.19 -1.57141 0.120249 0
M  V30 11101 C 1068.6 -1.5784 -0.236335 0
M  V30 11102 C 1068.8 -1.13304 -1.66626 0
M  V30 11103 O 1067.86 -0.821004 -2.3878 0
M  V30 11104 C 1069.17 -3.007 -0.00188211 0
M  V30 11105 C 1070.72 -3.12927 -0.0676838 0
M  V30 11106 C 1071.2 -4.57789 0.139092 0
M  V30 11107 N 1072.69 -4.63122 0.085104 0
M  V30 11108 C 1073.42 -5.72978 0.219983 0
M  V30 11109 N 1072.92 -6.91579 0.411102 0
M  V30 11110 N 1074.71 -5.61874 0.159469 0
M  V30 11111 H 1066.86 -1.84391 1.05422 0
M  V30 11112 H 1069.13 -0.852228 0.415225 0
M  V30 11113 H 1068.83 -3.37575 0.986718 0
M  V30 11114 H 1068.71 -3.70005 -0.733203 0
M  V30 11115 H 1071.09 -2.75909 -1.04681 0
M  V30 11116 H 1071.17 -2.46162 0.695538 0
M  V30 11117 H 1070.82 -4.95506 1.1152 0
M  V30 11118 H 1070.75 -5.22646 -0.644131 0
M  V30 11119 H 1073.24 -3.77854 -0.0590479 0
M  V30 11120 H 1073.55 -7.71149 0.504851 0
M  V30 11121 H 1071.9 -6.9356 0.447091 0
M  V30 11122 H 1075.09 -4.68099 0.0111131 0
M  V30 11123 H 1075.26 -6.47445 0.268028 0
M  V30 11124 N 1068.67 0.153526 -1.5685 0
M  V30 11125 C 1069.6 1.19162 -2.00805 0
M  V30 11126 C 1070.58 1.45172 -0.886518 0
M  V30 11127 O 1071.76 1.56203 -1.15387 0
M  V30 11128 C 1068.89 2.52637 -2.38311 0
M  V30 11129 C 1067.85 2.41161 -3.53589 0
M  V30 11130 C 1067.17 3.79287 -3.76889 0
M  V30 11131 C 1068.47 1.90122 -4.86468 0
M  V30 11132 H 1070.17 0.82617 -2.87776 0
M  V30 11133 H 1067.71 0.395972 -1.38449 0
M  V30 11134 H 1069.67 3.25478 -2.6766 0
M  V30 11135 H 1068.39 2.91005 -1.4827 0
M  V30 11136 H 1067.05 1.70772 -3.24395 0
M  V30 11137 H 1066.7 4.15079 -2.84109 0
M  V30 11138 H 1066.4 3.72472 -4.54465 0
M  V30 11139 H 1067.92 4.53687 -4.08657 0
M  V30 11140 H 1069.33 2.52752 -5.14577 0
M  V30 11141 H 1067.73 1.94214 -5.67804 0
M  V30 11142 H 1068.8 0.856517 -4.77275 0
M  V30 11143 N 1070.14 1.51827 0.422667 0
M  V30 11144 C 1071.08 1.68901 1.53453 0
M  V30 11145 C 1072.06 0.536549 1.53492 0
M  V30 11146 O 1073.24 0.762226 1.72402 0
M  V30 11147 C 1070.37 1.71599 2.92013 0
M  V30 11148 C 1069.41 2.92984 3.0994 0
M  V30 11149 S 1070.25 4.53559 2.84683 0
M  V30 11150 C 1071.4 4.59024 4.25498 0
M  V30 11151 H 1071.63 2.62943 1.38739 0
M  V30 11152 H 1069.17 1.41695 0.613347 0
M  V30 11153 H 1071.13 1.73838 3.71874 0
M  V30 11154 H 1069.79 0.787083 3.04079 0
M  V30 11155 H 1068.98 2.91315 4.1128 0
M  V30 11156 H 1068.58 2.88562 2.37924 0
M  V30 11157 H 1070.87 4.35567 5.18929 0
M  V30 11158 H 1071.82 5.60904 4.32195 0
M  V30 11159 H 1072.22 3.88193 4.09837 0
M  V30 11160 N 1071.62 -0.679052 1.4222 0
M  V30 11161 C 1072.57 -1.79269 1.45366 0
M  V30 11162 C 1073.54 -1.63255 0.306089 0
M  V30 11163 O 1074.72 -1.8387 0.509548 0
M  V30 11164 C 1071.86 -3.17272 1.35766 0
M  V30 11165 C 1070.98 -3.44603 2.60525 0
M  V30 11166 C 1070.11 -4.7231 2.43098 0
M  V30 11167 C 1069.15 -4.92661 3.63251 0
M  V30 11168 N 1068.29 -6.11606 3.44794 0
M  V30 11169 H 1073.13 -1.75916 2.40536 0
M  V30 11170 H 1070.67 -0.858836 1.19425 0
M  V30 11171 H 1072.62 -3.97015 1.282 0
M  V30 11172 H 1071.25 -3.1976 0.441939 0
M  V30 11173 H 1070.31 -2.59144 2.78475 0
M  V30 11174 H 1071.62 -3.55536 3.49851 0
M  V30 11175 H 1070.77 -5.60136 2.33093 0
M  V30 11176 H 1069.51 -4.63652 1.51255 0
M  V30 11177 H 1068.52 -4.03278 3.73693 0
M  V30 11178 H 1069.74 -5.03167 4.5607 0
M  V30 11179 H 1067.69 -6.04129 2.55663 0
M  V30 11180 H 1067.6 -6.23381 4.27705 0
M  V30 11181 H 1068.87 -7.02122 3.38592 0
M  V30 11182 N 1073.1 -1.28322 -0.914942 0
M  V30 11183 C 1074.05 -1.12146 -2.01722 0
M  V30 11184 C 1075.02 -0.0189279 -1.66089 0
M  V30 11185 O 1076.2 -0.183638 -1.89914 0
M  V30 11186 C 1073.34 -0.78808 -3.35981 0
M  V30 11187 C 1072.46 -1.96954 -3.84491 0
M  V30 11188 C 1071.59 -1.57688 -5.07255 0
M  V30 11189 C 1070.63 -2.72506 -5.48094 0
M  V30 11190 N 1069.77 -2.33741 -6.62049 0
M  V30 11191 H 1074.61 -2.06461 -2.1489 0
M  V30 11192 H 1072.14 -1.0276 -1.05256 0
M  V30 11193 H 1074.1 -0.575546 -4.13211 0
M  V30 11194 H 1072.73 0.118132 -3.22584 0
M  V30 11195 H 1071.78 -2.29423 -3.03429 0
M  V30 11196 H 1073.1 -2.8304 -4.10719 0
M  V30 11197 H 1072.25 -1.32634 -5.92025 0
M  V30 11198 H 1070.99 -0.687291 -4.82833 0
M  V30 11199 H 1069.99 -2.9826 -4.61867 0
M  V30 11200 H 1071.22 -3.62106 -5.74505 0
M  V30 11201 H 1069.16 -1.4725 -6.3926 0
M  V30 11202 H 1069.08 -3.13364 -6.87997 0
M  V30 11203 H 1070.35 -2.11968 -7.50127 0
M  V30 11204 N 1074.58 1.12322 -1.10551 0
M  V30 11205 C 1075.49 2.21678 -0.767862 0
M  V30 11206 C 1076.5 1.72404 0.235132 0
M  V30 11207 O 1077.68 2.01266 0.0735912 0
M  V30 11208 C 1074.75 3.46087 -0.205999 0
M  V30 11209 C 1073.81 4.10195 -1.26642 0
M  V30 11210 C 1073.04 5.28666 -0.731274 0
M  V30 11211 O 1073.26 5.68686 0.44189 0
M  V30 11212 O 1072.2 5.83121 -1.49176 0
M  V30 11213 H 1076.02 2.52955 -1.6807 0
M  V30 11214 H 1073.61 1.2068 -0.880728 0
M  V30 11215 H 1075.49 4.21273 0.103435 0
M  V30 11216 H 1074.16 3.16484 0.679685 0
M  V30 11217 H 1073.07 3.36784 -1.62873 0
M  V30 11218 H 1074.4 4.43957 -2.12516 0
M  V30 11219 N 1076.06 0.894434 1.2976 0
M  V30 11220 C 1077 0.357958 2.29829 0
M  V30 11221 C 1078 -0.540093 1.6056 0
M  V30 11222 O 1079.2 -0.423478 1.74948 0
M  V30 11223 H 1075.58 0.0971183 0.745702 0
M  V30 11224 H 1077.55 1.21542 2.72526 0
M  V30 11225 C 1076.3 -0.404126 3.45343 0
M  V30 11226 H 1075.62 0.277671 3.98835 0
M  V30 11227 H 1077.06 -0.744446 4.17413 0
M  V30 11228 C 1075.52 -1.6048 2.96222 0
M  V30 11229 O 1076.05 -2.70414 2.97051 0
M  V30 11230 N 1074.26 -1.44517 2.52117 0
M  V30 11231 H 1073.8 -0.55082 2.51642 0
M  V30 11232 H 1073.76 -2.24987 2.1961 0
M  V30 11233 N 1077.53 -1.43282 0.656365 0
M  V30 11234 C 1078.48 -2.32556 -0.0452037 0
M  V30 11235 C 1079.48 -1.48789 -0.80982 0
M  V30 11236 O 1080.68 -1.64979 -0.719865 0
M  V30 11237 H 1077.06 -0.751258 -0.0334043 0
M  V30 11238 H 1079.03 -2.89448 0.725423 0
M  V30 11239 C 1077.78 -3.33138 -0.995706 0
M  V30 11240 H 1077.1 -3.97622 -0.416774 0
M  V30 11241 H 1078.54 -3.98231 -1.45562 0
M  V30 11242 C 1077 -2.63978 -2.09325 0
M  V30 11243 O 1077.53 -2.45769 -3.17743 0
M  V30 11244 N 1075.74 -2.23301 -1.8597 0
M  V30 11245 H 1075.28 -2.38312 -0.97802 0
M  V30 11246 H 1075.24 -1.77358 -2.59599 0
M  V30 11247 N 1079.01 -0.398486 -1.52479 0
M  V30 11248 C 1079.96 0.447001 -2.28264 0
M  V30 11249 C 1080.96 1.05511 -1.32529 0
M  V30 11250 O 1082.16 0.994528 -1.5003 0
M  V30 11251 H 1078.54 0.162919 -0.73414 0
M  V30 11252 H 1080.51 -0.213534 -2.97635 0
M  V30 11253 C 1079.26 1.55724 -3.10879 0
M  V30 11254 H 1078.58 1.09864 -3.84409 0
M  V30 11255 H 1080.02 2.12286 -3.67029 0
M  V30 11256 C 1078.48 2.51853 -2.23768 0
M  V30 11257 O 1079.01 3.55483 -1.87069 0
M  V30 11258 N 1077.21 2.2181 -1.87746 0
M  V30 11259 H 1076.76 1.3757 -2.17789 0
M  V30 11260 H 1076.72 2.86376 -1.29753 0
M  V30 11261 N 1080.49 1.57075 -0.12858 0
M  V30 11262 C 1081.91 1.57964 0.227961 0
M  V30 11263 C 1082.11 1.14186 1.66023 0
M  V30 11264 O 1081.16 0.833655 2.38341 0
M  V30 11265 C 1082.48 3.00697 -0.0140648 0
M  V30 11266 C 1084.02 3.12958 0.0510876 0
M  V30 11267 C 1084.5 4.57709 -0.163368 0
M  V30 11268 N 1085.99 4.6307 -0.109663 0
M  V30 11269 C 1086.73 5.72853 -0.250366 0
M  V30 11270 N 1086.22 6.91351 -0.447772 0
M  V30 11271 N 1088.01 5.61781 -0.189265 0
M  V30 11272 H 1080.17 1.83829 -1.06398 0
M  V30 11273 H 1082.43 0.850014 -0.419739 0
M  V30 11274 H 1082.13 3.37047 -1.00461 0
M  V30 11275 H 1082.01 3.70389 0.713571 0
M  V30 11276 H 1084.4 2.7646 1.03216 0
M  V30 11277 H 1084.48 2.4579 -0.708583 0
M  V30 11278 H 1084.12 4.94907 -1.14146 0
M  V30 11279 H 1084.05 5.2298 0.616405 0
M  V30 11280 H 1086.54 3.7788 0.0390086 0
M  V30 11281 H 1086.85 7.70871 -0.54574 0
M  V30 11282 H 1085.2 6.93314 -0.483866 0
M  V30 11283 H 1088.39 4.68086 -0.0359374 0
M  V30 11284 H 1088.56 6.47294 -0.302359 0
M  V30 11285 N 1081.97 -0.145205 1.5693 0
M  V30 11286 C 1083.22 -0.85395 1.84606 0
M  V30 11287 C 1083.57 -1.78709 0.712811 0
M  V30 11288 O 1082.86 -1.89406 -0.289108 0
M  V30 11289 C 1083.06 -1.66391 3.16305 0
M  V30 11290 C 1082.89 -0.810698 4.42332 0
M  V30 11291 C 1081.66 -0.475623 5.03057 0
M  V30 11292 C 1083.85 -0.140213 5.14109 0
M  V30 11293 N 1081.84 0.390996 6.12654 0
M  V30 11294 C 1083.21 0.586471 6.1722 0
M  V30 11295 C 1085.26 -0.0610725 4.97863 0
M  V30 11296 C 1083.97 1.38483 7.05844 0
M  V30 11297 C 1085.99 0.724026 5.86951 0
M  V30 11298 C 1085.35 1.43899 6.89545 0
M  V30 11299 H 1081.45 -0.290253 0.726138 0
M  V30 11300 H 1084.04 -0.119211 1.94335 0
M  V30 11301 H 1082.21 -2.36987 3.0772 0
M  V30 11302 H 1083.94 -2.31596 3.31882 0
M  V30 11303 H 1080.69 -0.811824 4.6659 0
M  V30 11304 H 1081.12 0.815383 6.72072 0
M  V30 11305 H 1085.76 -0.599475 4.18529 0
M  V30 11306 H 1083.48 1.93448 7.84604 0
M  V30 11307 H 1087.06 0.787276 5.76449 0
M  V30 11308 H 1085.94 2.03674 7.57289 0
M  V30 11309 N 1083.45 -1.52049 -0.414609 0
M  V30 11310 C 1084.7 -1.65511 -1.15977 0
M  V30 11311 C 1085.02 -0.384703 -1.91168 0
M  V30 11312 O 1084.29 0.600247 -1.86477 0
M  V30 11313 H 1082.87 -0.610039 -0.431116 0
M  V30 11314 H 1085.53 -1.8907 -0.473139 0
M  V30 11315 H 1084.62 -2.4936 -1.87686 0
M  V30 11316 N 1084.93 0.6715 -1.42579 0
M  V30 11317 C 1085.84 1.81435 -1.48723 0
M  V30 11318 C 1086.85 1.69895 -0.375716 0
M  V30 11319 O 1088.03 1.91388 -0.627115 0
M  V30 11320 C 1085.09 3.17599 -1.39038 0
M  V30 11321 C 1084.15 3.41071 -2.60709 0
M  V30 11322 C 1083.39 4.7074 -2.51476 0
M  V30 11323 O 1083.61 5.48868 -1.55243 0
M  V30 11324 O 1082.54 4.95528 -3.41666 0
M  V30 11325 H 1086.37 1.79206 -2.45191 0
M  V30 11326 H 1083.95 0.827666 -1.24379 0
M  V30 11327 H 1085.84 3.98847 -1.3601 0
M  V30 11328 H 1084.51 3.20458 -0.456966 0
M  V30 11329 H 1083.42 2.59659 -2.69311 0
M  V30 11330 H 1084.75 3.43045 -3.5296 0
M  V30 11331 N 1086.4 1.28806 0.908124 0
M  V30 11332 C 1087.63 1.1898 1.689 0
M  V30 11333 C 1088.04 -0.253334 1.87496 0
M  V30 11334 O 1087.38 -1.18245 1.40584 0
M  V30 11335 C 1087.45 1.82266 3.0987 0
M  V30 11336 C 1087.11 3.31534 3.14538 0
M  V30 11337 C 1088.11 4.27886 2.95313 0
M  V30 11338 C 1085.79 3.72589 3.36872 0
M  V30 11339 C 1087.79 5.63267 2.98343 0
M  V30 11340 C 1085.47 5.08095 3.39534 0
M  V30 11341 C 1086.47 6.03244 3.2029 0
M  V30 11342 O 1086.16 7.36277 3.22724 0
M  V30 11343 H 1085.89 0.413772 0.534574 0
M  V30 11344 H 1088.45 1.7055 1.14464 0
M  V30 11345 H 1086.68 1.25197 3.65872 0
M  V30 11346 H 1088.36 1.6688 3.70008 0
M  V30 11347 H 1089.13 3.97502 2.77879 0
M  V30 11348 H 1085.01 2.98989 3.50894 0
M  V30 11349 H 1088.55 6.37511 2.83241 0
M  V30 11350 H 1084.45 5.38126 3.56497 0
M  V30 11351 H 1085.22 7.44976 3.39048 0
M  V30 11352 N 1087.88 -1.11734 1.11145 0
M  V30 11353 C 1088.83 -2.15789 0.736133 0
M  V30 11354 C 1089.82 -1.58813 -0.25832 0
M  V30 11355 O 1091.01 -1.76877 -0.0659078 0
M  V30 11356 C 1088.14 -3.4284 0.177597 0
M  V30 11357 C 1087.22 -4.06783 1.19953 0
M  V30 11358 N 1087.61 -4.45626 2.39271 0
M  V30 11359 C 1085.91 -4.33663 1.04176 0
M  V30 11360 C 1086.61 -4.95684 3.04422 0
M  V30 11361 N 1085.59 -4.91648 2.31912 0
M  V30 11362 H 1089.39 -2.43598 1.6443 0
M  V30 11363 H 1086.9 -1.28716 0.990247 0
M  V30 11364 H 1088.9 -4.16756 -0.109402 0
M  V30 11365 H 1087.56 -3.16498 -0.725201 0
M  V30 11366 H 1088.57 -4.37757 2.76747 0
M  V30 11367 H 1085.25 -4.17044 0.195132 0
M  V30 11368 H 1086.64 -5.35394 4.05959 0
M  V30 11369 N 1089.36 -0.901303 -1.29284 0
M  V30 11370 C 1090.77 -0.576317 -1.77582 0
M  V30 11371 C 1091.12 0.908078 -1.73921 0
M  V30 11372 O 1090.25 1.71006 -1.32611 0
M  V30 11373 C 1090.84 -1.03938 -3.22463 0
M  V30 11374 C 1089.4 -0.765533 -3.68533 0
M  V30 11375 C 1088.55 -1.21318 -2.49354 0
M  V30 11376 H 1091.5 -1.08386 -1.15923 0
M  V30 11377 H 1091.52 -0.375367 -3.78644 0
M  V30 11378 H 1091.03 -2.11977 -3.25096 0
M  V30 11379 H 1089.13 0.302176 -3.71373 0
M  V30 11380 H 1089.25 -1.36454 -4.59257 0
M  V30 11381 H 1087.61 -0.632141 -2.46731 0
M  V30 11382 H 1088.39 -2.30165 -2.54714 0
M  V30 11383 N 1090.84 1.42931 -0.663954 0
M  V30 11384 C 1092.07 2.05729 -0.189532 0
M  V30 11385 C 1092.48 1.49914 1.15423 0
M  V30 11386 O 1091.82 0.629324 1.72584 0
M  V30 11387 C 1091.88 3.59482 -0.0354748 0
M  V30 11388 C 1091.54 4.37935 -1.30622 0
M  V30 11389 C 1092.54 4.69297 -2.23733 0
M  V30 11390 C 1090.23 4.77761 -1.5508 0
M  V30 11391 C 1092.22 5.39407 -3.39586 0
M  V30 11392 C 1089.91 5.47613 -2.71224 0
M  V30 11393 C 1090.91 5.7836 -3.63302 0
M  V30 11394 O 1090.59 6.46783 -4.77417 0
M  V30 11395 H 1090.33 0.669678 -0.0922342 0
M  V30 11396 H 1092.88 1.84243 -0.907943 0
M  V30 11397 H 1091.11 3.79584 0.738412 0
M  V30 11398 H 1092.8 4.03947 0.397679 0
M  V30 11399 H 1093.56 4.39038 -2.06084 0
M  V30 11400 H 1089.44 4.53229 -0.842863 0
M  V30 11401 H 1092.99 5.63323 -4.11476 0
M  V30 11402 H 1088.88 5.77289 -2.88804 0
M  V30 11403 H 1089.65 6.6527 -4.76821 0
M  V30 11404 N 1092.32 0.406567 1.52266 0
M  V30 11405 C 1093.54 -0.172101 2.06685 0
M  V30 11406 C 1093.97 -1.38306 1.27488 0
M  V30 11407 O 1093.32 -1.78726 0.304441 0
M  V30 11408 C 1093.37 -0.503463 3.57068 0
M  V30 11409 O 1092.48 -1.59485 3.80314 0
M  V30 11410 H 1091.82 -0.0153209 0.663823 0
M  V30 11411 H 1094.35 0.579025 1.96236 0
M  V30 11412 H 1094.36 -0.762833 4.00805 0
M  V30 11413 H 1093.03 0.381775 4.14144 0
M  V30 11414 H 1091.61 -1.32784 3.48458 0
M  V30 11415 N 1093.79 -1.57004 0.136909 0
M  V30 11416 C 1094.74 -2.17524 -0.823784 0
M  V30 11417 C 1095.74 -1.1294 -1.26258 0
M  V30 11418 O 1096.94 -1.3121 -1.23223 0
M  V30 11419 H 1093.32 -0.696381 -0.283827 0
M  V30 11420 H 1095.29 -2.96997 -0.289052 0
M  V30 11421 C 1094.04 -2.80331 -2.05693 0
M  V30 11422 H 1093.36 -3.60515 -1.72825 0
M  V30 11423 H 1094.8 -3.26192 -2.70878 0
M  V30 11424 C 1093.26 -1.78322 -2.85837 0
M  V30 11425 O 1093.79 -1.2475 -3.81838 0
M  V30 11426 N 1092 -1.47854 -2.50175 0
M  V30 11427 H 1091.54 -1.9161 -1.72173 0
M  V30 11428 H 1091.5 -0.798464 -3.04092 0
M  V30 11429 N 1095.27 0.136881 -1.57004 0
M  V30 11430 C 1096.52 0.849031 -1.84172 0
M  V30 11431 C 1096.85 1.80359 -0.720027 0
M  V30 11432 O 1096.13 1.92538 0.275584 0
M  V30 11433 C 1096.41 1.61465 -3.21871 0
M  V30 11434 C 1096.26 0.680902 -4.44616 0
M  V30 11435 C 1097.58 2.57488 -3.56914 0
M  V30 11436 H 1094.7 0.307209 -0.669919 0
M  V30 11437 H 1097.34 0.113862 -1.89659 0
M  V30 11438 H 1095.49 2.24137 -3.17325 0
M  V30 11439 H 1097.16 0.0644094 -4.61255 0
M  V30 11440 H 1095.41 -0.00883629 -4.33799 0
M  V30 11441 H 1096.08 1.25286 -5.37594 0
M  V30 11442 H 1098.55 2.0493 -3.62136 0
M  V30 11443 H 1097.43 3.08101 -4.54274 0
M  V30 11444 H 1097.69 3.39321 -2.83397 0
M  V30 11445 N 1096.75 1.52266 0.40654 0
M  V30 11446 C 1097.68 1.78755 1.50229 0
M  V30 11447 C 1098.66 0.638652 1.57655 0
M  V30 11448 O 1099.85 0.884505 1.72888 0
M  V30 11449 C 1096.98 1.94057 2.88026 0
M  V30 11450 C 1095.93 3.09667 2.95449 0
M  V30 11451 C 1095.26 3.10196 4.35526 0
M  V30 11452 C 1096.56 4.49077 2.66697 0
M  V30 11453 H 1098.25 2.70511 1.28313 0
M  V30 11454 H 1095.8 1.30167 0.615836 0
M  V30 11455 H 1097.75 2.11171 3.64671 0
M  V30 11456 H 1096.47 0.989755 3.11242 0
M  V30 11457 H 1095.13 2.92308 2.2125 0
M  V30 11458 H 1094.78 2.12831 4.55754 0
M  V30 11459 H 1094.48 3.87847 4.41416 0
M  V30 11460 H 1096 3.29443 5.14101 0
M  V30 11461 H 1097.42 4.66628 3.33064 0
M  V30 11462 H 1095.82 5.28665 2.8396 0
M  V30 11463 H 1096.89 4.56995 1.62122 0
M  V30 11464 N 1098.23 -0.663929 1.42933 0
M  V30 11465 C 1099.47 -1.42446 1.45192 0
M  V30 11466 C 1099.83 -1.92269 0.0710678 0
M  V30 11467 O 1099.12 -1.68688 -0.908565 0
M  V30 11468 C 1099.32 -2.62976 2.4203 0
M  V30 11469 C 1099.15 -2.24948 3.89395 0
M  V30 11470 C 1097.92 -2.13786 4.57847 0
M  V30 11471 C 1100.11 -1.85907 4.79524 0
M  V30 11472 N 1098.1 -1.68976 5.90187 0
M  V30 11473 C 1099.47 -1.52099 6.01054 0
M  V30 11474 C 1101.52 -1.72995 4.6688 0
M  V30 11475 C 1100.22 -1.06673 7.11346 0
M  V30 11476 C 1102.25 -1.28975 5.77165 0
M  V30 11477 C 1101.61 -0.960968 6.97814 0
M  V30 11478 H 1097.71 -0.517312 0.58644 0
M  V30 11479 H 1100.3 -0.765097 1.79037 0
M  V30 11480 H 1098.47 -3.26586 2.10229 0
M  V30 11481 H 1100.2 -3.29624 2.34798 0
M  V30 11482 H 1096.95 -2.33203 4.12206 0
M  V30 11483 H 1097.38 -1.48964 6.60408 0
M  V30 11484 H 1102.02 -1.97057 3.7407 0
M  V30 11485 H 1099.74 -0.813591 8.03994 0
M  V30 11486 H 1103.32 -1.19489 5.69398 0
M  V30 11487 H 1102.2 -0.625522 7.81701 0
M  V30 11488 N 1099.71 -1.29285 -0.901281 0
M  V30 11489 C 1100.64 -1.16832 -2.0217 0
M  V30 11490 C 1101.62 -0.0629265 -1.69984 0
M  V30 11491 O 1102.8 -0.242123 -1.92685 0
M  V30 11492 C 1099.93 -0.842406 -3.36929 0
M  V30 11493 C 1098.89 -1.90394 -3.8332 0
M  V30 11494 C 1098.21 -1.43138 -5.15185 0
M  V30 11495 C 1099.51 -3.31254 -4.03817 0
M  V30 11496 H 1101.21 -2.10562 -2.12847 0
M  V30 11497 H 1098.75 -1.01375 -1.0227 0
M  V30 11498 H 1100.71 -0.741999 -4.14816 0
M  V30 11499 H 1099.43 0.130598 -3.26339 0
M  V30 11500 H 1098.09 -1.99371 -3.07647 0
M  V30 11501 H 1097.74 -0.447091 -5.01009 0
M  V30 11502 H 1097.44 -2.14129 -5.47195 0
M  V30 11503 H 1098.96 -1.34444 -5.95615 0
M  V30 11504 H 1100.37 -3.25129 -4.72191 0
M  V30 11505 H 1098.77 -4.00189 -4.47178 0
M  V30 11506 H 1099.84 -3.74349 -3.08206 0
M  V30 11507 N 1101.18 1.11143 -1.11736 0
M  V30 11508 C 1102.13 2.15396 -0.747566 0
M  V30 11509 C 1103.12 1.58948 0.249894 0
M  V30 11510 O 1104.31 1.7691 0.0565267 0
M  V30 11511 C 1101.44 3.42741 -0.195776 0
M  V30 11512 C 1100.53 4.06141 -1.22109 0
M  V30 11513 N 1100.92 4.44351 -2.41631 0
M  V30 11514 C 1099.21 4.33104 -1.06474 0
M  V30 11515 C 1099.92 4.94062 -3.07046 0
M  V30 11516 N 1098.89 4.90411 -2.34516 0
M  V30 11517 H 1102.69 2.42722 -1.6572 0
M  V30 11518 H 1100.21 1.28189 -0.997059 0
M  V30 11519 H 1102.2 4.16809 0.0872984 0
M  V30 11520 H 1100.86 3.16878 0.708406 0
M  V30 11521 H 1101.88 4.36283 -2.79065 0
M  V30 11522 H 1098.55 4.16934 -0.217246 0
M  V30 11523 H 1099.94 5.33234 -4.08792 0
M  V30 11524 N 1102.66 0.908147 1.28804 0
M  V30 11525 C 1103.89 0.553287 1.99054 0
M  V30 11526 C 1104.3 -0.868455 1.68091 0
M  V30 11527 O 1103.64 -1.58599 0.926939 0
M  V30 11528 C 1103.71 0.675823 3.5309 0
M  V30 11529 C 1103.37 2.06608 4.0763 0
M  V30 11530 C 1104.37 3.03819 4.21889 0
M  V30 11531 C 1102.05 2.37775 4.42457 0
M  V30 11532 C 1104.05 4.30316 4.7022 0
M  V30 11533 C 1101.73 3.64512 4.90484 0
M  V30 11534 C 1102.73 4.60597 5.04321 0
M  V30 11535 O 1102.42 5.85082 5.51302 0
M  V30 11536 H 1102.15 0.210152 0.642504 0
M  V30 11537 H 1104.7 1.22188 1.65104 0
M  V30 11538 H 1102.93 -0.0498253 3.86668 0
M  V30 11539 H 1104.62 0.328884 4.04565 0
M  V30 11540 H 1105.39 2.81057 3.95262 0
M  V30 11541 H 1101.27 1.63742 4.3094 0
M  V30 11542 H 1104.81 5.05318 4.80936 0
M  V30 11543 H 1100.71 3.87101 5.1655 0
M  V30 11544 H 1101.48 5.87791 5.69599 0
M  V30 11545 N 1104.14 -1.42577 0.671525 0
M  V30 11546 C 1105.07 -2.33499 0.00506984 0
M  V30 11547 C 1106.05 -1.50497 -0.792763 0
M  V30 11548 O 1107.24 -1.79109 -0.750574 0
M  V30 11549 C 1104.37 -3.34077 -0.949194 0
M  V30 11550 C 1103.32 -4.27208 -0.260187 0
M  V30 11551 C 1102.65 -5.17968 -1.32716 0
M  V30 11552 C 1103.95 -5.15192 0.858772 0
M  V30 11553 H 1105.64 -2.89477 0.764407 0
M  V30 11554 H 1103.19 -1.39191 0.369043 0
M  V30 11555 H 1105.14 -3.96594 -1.42448 0
M  V30 11556 H 1103.86 -2.76396 -1.73991 0
M  V30 11557 H 1102.52 -3.66082 0.194834 0
M  V30 11558 H 1102.17 -4.56615 -2.10979 0
M  V30 11559 H 1101.87 -5.81104 -0.871293 0
M  V30 11560 H 1103.39 -5.83359 -1.80345 0
M  V30 11561 H 1104.81 -5.71412 0.464844 0
M  V30 11562 H 1103.21 -5.87144 1.24023 0
M  V30 11563 H 1104.28 -4.53787 1.70895 0
M  V30 11564 N 1105.62 -0.414636 -1.52048 0
M  V30 11565 C 1106.85 0.158686 -2.06291 0
M  V30 11566 C 1107.26 1.38397 -1.2842 0
M  V30 11567 O 1106.62 1.79351 -0.337539 0
M  V30 11568 C 1106.67 0.503634 -3.57975 0
M  V30 11569 O 1106.39 -0.672996 -4.329 0
M  V30 11570 C 1107.89 1.13009 -4.28653 0
M  V30 11571 H 1105.11 0.0179622 -0.67076 0
M  V30 11572 H 1107.66 -0.587177 -1.95889 0
M  V30 11573 H 1105.81 1.19939 -3.68366 0
M  V30 11574 H 1106.22 -0.383735 -5.23094 0
M  V30 11575 H 1107.7 1.32162 -5.35945 0
M  V30 11576 H 1108.18 2.10476 -3.85482 0
M  V30 11577 H 1108.78 0.474379 -4.22646 0
M  V30 11578 N 1107.1 1.56929 -0.145233 0
M  V30 11579 C 1108.37 1.8767 0.551288 0
M  V30 11580 C 1108.75 1.05089 1.83083 0
M  V30 11581 O 1108.1 0.137201 2.28088 0
M  V30 11582 C 1108.31 3.39268 0.818445 0
M  V30 11583 C 1109.66 4.08447 1.16 0
M  V30 11584 O 1110.68 3.44436 0.907857 0
M  V30 11585 O 1109.54 5.21488 1.63441 0
M  V30 11586 H 1106.64 0.777788 0.281024 0
M  V30 11587 H 1109.18 1.68724 -0.181712 0
M  V30 11588 H 1107.95 3.91203 -0.0871897 0
M  V30 11589 H 1107.58 3.63735 1.60569 0
M  V30 11590 N 1108.58 -0.128553 1.57075 0
M  V30 11591 C 1109.52 -1.15812 1.9964 0
M  V30 11592 C 1110.49 -1.41679 0.86696 0
M  V30 11593 O 1111.68 -1.53705 1.13046 0
M  V30 11594 C 1108.82 -2.48198 2.39774 0
M  V30 11595 C 1107.93 -2.29348 3.66092 0
M  V30 11596 C 1107.07 -3.54898 3.95248 0
M  V30 11597 C 1106.1 -3.31164 5.14779 0
M  V30 11598 N 1105.24 -4.48891 5.39853 0
M  V30 11599 H 1110.08 -0.788136 2.87389 0
M  V30 11600 H 1107.62 -0.377682 1.42169 0
M  V30 11601 H 1109.58 -3.25414 2.61077 0
M  V30 11602 H 1108.21 -2.83108 1.5508 0
M  V30 11603 H 1107.26 -1.43095 3.5246 0
M  V30 11604 H 1108.57 -2.07781 4.53463 0
M  V30 11605 H 1107.72 -4.40536 4.17148 0
M  V30 11606 H 1106.46 -3.79487 3.06335 0
M  V30 11607 H 1105.47 -2.43915 4.92733 0
M  V30 11608 H 1106.69 -3.07954 6.05261 0
M  V30 11609 H 1104.64 -4.73619 4.53895 0
M  V30 11610 H 1104.56 -4.30394 6.21528 0
M  V30 11611 H 1105.82 -5.35691 5.66265 0
M  V30 11612 N 1110.05 -1.5248 -0.398459 0
M  V30 11613 C 1110.99 -1.71321 -1.50746 0
M  V30 11614 C 1111.96 -0.5609 -1.52619 0
M  V30 11615 O 1113.15 -0.789557 -1.71167 0
M  V30 11616 C 1110.28 -1.76223 -2.89246 0
M  V30 11617 C 1109.32 -2.97878 -3.05239 0
M  V30 11618 S 1110.15 -4.58031 -2.77431 0
M  V30 11619 C 1111.31 -4.65735 -4.18141 0
M  V30 11620 H 1111.54 -2.65117 -1.34538 0
M  V30 11621 H 1109.08 -1.42653 -0.590727 0
M  V30 11622 H 1111.03 -1.79733 -3.69062 0
M  V30 11623 H 1109.7 -0.83536 -3.02788 0
M  V30 11624 H 1108.89 -2.97821 -4.06594 0
M  V30 11625 H 1108.49 -2.92311 -2.33304 0
M  V30 11626 H 1110.78 -4.43768 -5.11934 0
M  V30 11627 H 1111.73 -5.67709 -4.23217 0
M  V30 11628 H 1112.13 -3.94664 -4.03609 0
M  V30 11629 N 1111.53 0.65634 -1.43283 0
M  V30 11630 C 1112.46 1.78101 -1.51004 0
M  V30 11631 C 1113.44 1.66138 -0.36498 0
M  V30 11632 O 1114.63 1.85281 -0.581778 0
M  V30 11633 C 1111.76 3.16511 -1.42961 0
M  V30 11634 C 1110.71 3.43233 -2.55685 0
M  V30 11635 C 1110.04 4.81411 -2.32696 0
M  V30 11636 C 1111.34 3.38288 -3.97943 0
M  V30 11637 H 1113.03 1.71896 -2.45137 0
M  V30 11638 H 1110.58 0.825575 -1.17984 0
M  V30 11639 H 1112.53 3.94941 -1.46968 0
M  V30 11640 H 1111.25 3.23439 -0.45332 0
M  V30 11641 H 1109.91 2.67173 -2.51026 0
M  V30 11642 H 1109.56 4.85011 -1.33317 0
M  V30 11643 H 1109.26 5.00251 -3.08257 0
M  V30 11644 H 1110.79 5.62102 -2.38481 0
M  V30 11645 H 1112.2 4.06659 -4.04106 0
M  V30 11646 H 1110.6 3.68664 -4.73505 0
M  V30 11647 H 1111.67 2.36525 -4.23301 0
M  V30 11648 N 1113.01 1.29761 0.894412 0
M  V30 11649 C 1113.96 1.15341 1.99912 0
M  V30 11650 C 1114.93 0.0453488 1.66038 0
M  V30 11651 O 1116.11 0.213829 1.89598 0
M  V30 11652 C 1113.25 0.841432 3.34685 0
M  V30 11653 C 1112.36 2.03046 3.81309 0
M  V30 11654 C 1111.5 1.65739 5.04682 0
M  V30 11655 C 1110.54 2.81191 5.43689 0
M  V30 11656 N 1109.68 2.44244 6.58247 0
M  V30 11657 H 1114.52 2.09854 2.11578 0
M  V30 11658 H 1112.05 1.04421 1.03608 0
M  V30 11659 H 1114.01 0.641211 4.12243 0
M  V30 11660 H 1112.64 -0.066797 3.22731 0
M  V30 11661 H 1111.69 2.34222 2.9974 0
M  V30 11662 H 1113 2.89538 4.06164 0
M  V30 11663 H 1112.16 1.42036 5.8984 0
M  V30 11664 H 1110.9 0.764019 4.81678 0
M  V30 11665 H 1109.9 3.0557 4.57064 0
M  V30 11666 H 1111.13 3.712 5.68672 0
M  V30 11667 H 1109.07 1.57402 6.36837 0
M  V30 11668 H 1108.99 3.24269 6.82924 0
M  V30 11669 H 1110.26 2.23875 7.46659 0
M  V30 11670 N 1114.49 -1.10549 1.12324 0
M  V30 11671 C 1115.42 -2.16657 0.747826 0
M  V30 11672 C 1116.43 -1.61238 -0.224981 0
M  V30 11673 O 1117.62 -1.78499 -0.00649408 0
M  V30 11674 C 1114.72 -3.38791 0.0859421 0
M  V30 11675 C 1113.89 -4.23655 1.08792 0
M  V30 11676 C 1112.95 -5.24239 0.453871 0
M  V30 11677 O 1111.98 -5.58262 1.11052 0
M  V30 11678 N 1113.18 -5.75246 -0.779215 0
M  V30 11679 H 1115.95 -2.49472 1.66084 0
M  V30 11680 H 1113.51 -1.26157 1.01469 0
M  V30 11681 H 1115.5 -4.03182 -0.350186 0
M  V30 11682 H 1114.07 -3.03961 -0.729807 0
M  V30 11683 H 1113.29 -3.55578 1.70171 0
M  V30 11684 H 1114.58 -4.77187 1.76549 0
M  V30 11685 H 1113.98 -5.49802 -1.3317 0
M  V30 11686 H 1112.53 -6.41428 -1.15818 0
M  V30 11687 N 1115.97 -0.914965 -1.28321 0
M  V30 11688 C 1116.9 -0.348729 -2.2552 0
M  V30 11689 C 1117.88 0.547737 -1.53097 0
M  V30 11690 O 1119.06 0.491119 -1.8199 0
M  V30 11691 C 1116.19 0.501397 -3.34968 0
M  V30 11692 C 1115.23 -0.329859 -4.25223 0
M  V30 11693 S 1116.07 -1.73737 -5.06533 0
M  V30 11694 C 1117.22 -0.89458 -6.19474 0
M  V30 11695 H 1117.46 -1.17256 -2.732 0
M  V30 11696 H 1114.99 -0.716297 -1.36779 0
M  V30 11697 H 1116.95 0.986061 -3.98481 0
M  V30 11698 H 1115.61 1.29962 -2.85952 0
M  V30 11699 H 1114.8 0.320236 -5.02982 0
M  V30 11700 H 1114.4 -0.748221 -3.66439 0
M  V30 11701 H 1116.69 -0.124776 -6.77385 0
M  V30 11702 H 1117.64 -1.64475 -6.88733 0
M  V30 11703 H 1118.05 -0.442217 -5.62765 0
M  V30 11704 N 1117.44 1.42219 -0.679077 0
M  V30 11705 C 1118.67 2.05815 -0.211649 0
M  V30 11706 C 1119.09 1.51037 1.13284 0
M  V30 11707 O 1118.44 0.651894 1.7046 0
M  V30 11708 C 1118.49 3.61218 -0.142663 0
M  V30 11709 O 1118.22 4.13965 -1.43402 0
M  V30 11710 C 1119.72 4.41934 0.347746 0
M  V30 11711 H 1116.94 0.663215 -0.101914 0
M  V30 11712 H 1119.48 1.82282 -0.927017 0
M  V30 11713 H 1117.64 3.83848 0.52342 0
M  V30 11714 H 1118.05 5.07872 -1.31021 0
M  V30 11715 H 1119.52 5.50921 0.344916 0
M  V30 11716 H 1120 4.16832 1.38377 0
M  V30 11717 H 1120.61 4.24332 -0.286751 0
M  V30 11718 N 1118.92 0.422693 1.51826 0
M  V30 11719 C 1120.17 -0.148641 2.01954 0
M  V30 11720 C 1120.5 -1.43982 1.30765 0
M  V30 11721 O 1119.75 -1.91428 0.406668 0
M  V30 11722 C 1120.05 -0.429516 3.5481 0
M  V30 11723 C 1119.72 0.774088 4.44206 0
M  V30 11724 C 1118.38 1.1042 4.6836 0
M  V30 11725 C 1120.73 1.5777 4.96747 0
M  V30 11726 C 1118.06 2.23887 5.42302 0
M  V30 11727 C 1120.41 2.70325 5.71933 0
M  V30 11728 C 1119.07 3.03807 5.94355 0
M  V30 11729 H 1118.34 -0.0543917 0.739001 0
M  V30 11730 H 1120.99 0.566892 1.82917 0
M  V30 11731 H 1119.3 -1.22678 3.72099 0
M  V30 11732 H 1120.99 -0.884761 3.91118 0
M  V30 11733 H 1117.58 0.506834 4.25593 0
M  V30 11734 H 1121.77 1.33589 4.77983 0
M  V30 11735 H 1117.02 2.50159 5.5788 0
M  V30 11736 H 1121.2 3.32974 6.11638 0
M  V30 11737 H 1118.82 3.91844 6.51431 0
M  V30 11738 N 1120.4 -1.5685 0.153553 0
M  V30 11739 C 1121.35 -2.1709 -0.783626 0
M  V30 11740 C 1122.32 -1.10567 -1.23952 0
M  V30 11741 O 1123.5 -1.38638 -1.31088 0
M  V30 11742 C 1120.64 -2.80183 -2.01473 0
M  V30 11743 C 1119.75 -4.01117 -1.60403 0
M  V30 11744 C 1118.89 -4.5219 -2.78743 0
M  V30 11745 C 1117.93 -5.65574 -2.34079 0
M  V30 11746 N 1117.07 -6.11235 -3.4545 0
M  V30 11747 H 1121.91 -2.96836 -0.263127 0
M  V30 11748 H 1119.44 -1.46625 -0.11816 0
M  V30 11749 H 1121.4 -3.14912 -2.73654 0
M  V30 11750 H 1120.03 -2.03071 -2.50923 0
M  V30 11751 H 1119.08 -3.72325 -0.779631 0
M  V30 11752 H 1120.39 -4.83243 -1.23605 0
M  V30 11753 H 1119.55 -4.89008 -3.59105 0
M  V30 11754 H 1118.29 -3.69085 -3.18791 0
M  V30 11755 H 1117.29 -5.28326 -1.52158 0
M  V30 11756 H 1118.52 -6.50468 -1.95109 0
M  V30 11757 H 1116.46 -5.31064 -3.85106 0
M  V30 11758 H 1116.38 -6.88304 -3.12687 0
M  V30 11759 H 1117.65 -6.527 -4.26149 0
M  V30 11760 N 1121.88 0.120221 -1.57141 0
M  V30 11761 C 1123.11 0.842441 -1.88972 0
M  V30 11762 C 1123.52 1.73494 -0.744671 0
M  V30 11763 O 1122.88 1.80268 0.284557 0
M  V30 11764 C 1122.93 1.67688 -3.20254 0
M  V30 11765 O 1122.65 0.820319 -4.30351 0
M  V30 11766 C 1124.15 2.50436 -3.65782 0
M  V30 11767 H 1121.37 0.242241 -0.625748 0
M  V30 11768 H 1123.91 0.104978 -2.0423 0
M  V30 11769 H 1122.07 2.36712 -3.0667 0
M  V30 11770 H 1122.48 1.39575 -5.05588 0
M  V30 11771 H 1123.96 3.04518 -4.60405 0
M  V30 11772 H 1124.43 3.27737 -2.92378 0
M  V30 11773 H 1125.04 1.86657 -3.82151 0
M  V30 11774 N 1123.36 1.52689 0.390367 0
M  V30 11775 C 1124.3 1.7737 1.47677 0
M  V30 11776 C 1125.27 0.616864 1.54221 0
M  V30 11777 O 1126.46 0.856437 1.70499 0
M  V30 11778 C 1123.6 1.94715 2.84921 0
M  V30 11779 C 1122.71 3.22405 2.8754 0
M  V30 11780 C 1121.85 3.30074 4.16202 0
M  V30 11781 C 1120.89 4.51893 4.12867 0
M  V30 11782 N 1120.02 4.56851 5.33134 0
M  V30 11783 H 1124.86 2.70084 1.25932 0
M  V30 11784 H 1122.4 1.33813 0.610943 0
M  V30 11785 H 1124.36 2.02755 3.64618 0
M  V30 11786 H 1122.99 1.05363 3.0512 0
M  V30 11787 H 1122.04 3.23442 2.00223 0
M  V30 11788 H 1123.35 4.12156 2.80943 0
M  V30 11789 H 1122.51 3.3729 5.04302 0
M  V30 11790 H 1121.24 2.38295 4.25519 0
M  V30 11791 H 1120.25 4.44803 3.23156 0
M  V30 11792 H 1121.47 5.44987 4.05174 0
M  V30 11793 H 1119.42 3.67963 5.43083 0
M  V30 11794 H 1119.34 5.40472 5.28607 0
M  V30 11795 H 1120.61 4.6832 6.23134 0
M  V30 11796 N 1124.83 -0.648732 1.43629 0
M  V30 11797 C 1126.07 -1.42032 1.46991 0
M  V30 11798 C 1126.44 -1.91774 0.0931841 0
M  V30 11799 O 1127.64 -2.688 0.00148504 0
M  V30 11800 C 1125.91 -2.56693 2.48684 0
M  V30 11801 S 1127.47 -3.45149 2.70956 0
M  V30 11802 H 1124.29 -0.484772 0.520113 0
M  V30 11803 H 1126.89 -0.75274 1.80427 0
M  V30 11804 H 1125.59 -2.18431 3.47442 0
M  V30 11805 H 1125.12 -3.28296 2.1676 0
M  V30 11806 H 1127.14 -4.53569 2.01221 0
M  V30 11807 N 1126.31 -1.30234 -0.887518 0
M  V30 11808 C 1127.26 -1.16302 -2.01436 0
M  V30 11809 C 1128.25 -0.0755422 -1.69231 0
M  V30 11810 O 1129.46 -0.236213 -1.78443 0
M  V30 11811 H 1125.84 -0.35961 -0.660443 0
M  V30 11812 H 1127.81 -2.11677 -2.10322 0
M  V30 11813 C 1126.56 -0.869009 -3.36665 0
M  V30 11814 H 1125.88 -1.69787 -3.61956 0
M  V30 11815 H 1127.32 -0.811621 -4.16159 0
M  V30 11816 C 1125.78 0.428021 -3.3417 0
M  V30 11817 O 1126.31 1.45033 -3.74604 0
M  V30 11818 N 1124.51 0.438264 -2.87276 0
M  V30 11819 H 1124.06 -0.394142 -2.54567 0
M  V30 11820 H 1124.02 1.30604 -2.85989 0
M  V30 11821 N 1127.79 1.09952 -1.12909 0
M  V30 11822 C 1129.02 1.8579 -0.910483 0
M  V30 11823 C 1129.43 1.80898 0.540484 0
M  V30 11824 O 1128.79 1.20126 1.3739 0
M  V30 11825 C 1128.84 3.33987 -1.38329 0
M  V30 11826 O 1128.56 3.38811 -2.77739 0
M  V30 11827 C 1130.06 4.26683 -1.20234 0
M  V30 11828 H 1127.28 0.587026 -0.325025 0
M  V30 11829 H 1129.83 1.38965 -1.5003 0
M  V30 11830 H 1127.98 3.78259 -0.836592 0
M  V30 11831 H 1128.4 4.31204 -2.98603 0
M  V30 11832 H 1129.87 5.28846 -1.58197 0
M  V30 11833 H 1130.35 4.38966 -0.14344 0
M  V30 11834 H 1130.95 3.88221 -1.73679 0
M  V30 11835 N 1129.27 0.921757 1.27833 0
M  V30 11836 C 1130.68 0.604496 1.76643 0
M  V30 11837 C 1131.03 -0.880294 1.75343 0
M  V30 11838 O 1130.16 -1.68875 1.35315 0
M  V30 11839 C 1130.75 1.09055 3.20768 0
M  V30 11840 C 1129.31 0.824066 3.67268 0
M  V30 11841 C 1128.46 1.25269 2.47392 0
M  V30 11842 H 1131.41 1.10217 1.14184 0
M  V30 11843 H 1131.43 0.435558 3.77999 0
M  V30 11844 H 1130.94 2.17122 3.21682 0
M  V30 11845 H 1129.04 -0.243055 3.71806 0
M  V30 11846 H 1129.15 1.43743 4.57028 0
M  V30 11847 H 1127.52 0.671313 2.45694 0
M  V30 11848 H 1128.3 2.34188 2.5102 0
M  V30 11849 N 1130.75 -1.41857 0.686609 0
M  V30 11850 C 1131.71 -2.29187 0.0247022 0
M  V30 11851 C 1132.71 -1.43926 -0.717069 0
M  V30 11852 O 1133.9 -1.65179 -0.5533 0
M  V30 11853 C 1131.03 -3.26644 -0.975537 0
M  V30 11854 H 1132.22 -2.89212 0.793503 0
M  V30 11855 H 1129.78 -1.49694 0.449605 0
M  V30 11856 H 1130.51 -2.7158 -1.77242 0
M  V30 11857 H 1130.3 -3.89545 -0.446892 0
M  V30 11858 H 1131.79 -3.92107 -1.43673 0
M  V30 11859 N 1132.22 -0.430739 -1.51599 0
M  V30 11860 C 1133.16 0.429107 -2.24129 0
M  V30 11861 C 1134.14 1.03019 -1.25801 0
M  V30 11862 O 1135.32 1.07392 -1.54917 0
M  V30 11863 C 1132.45 1.59749 -2.9866 0
M  V30 11864 C 1131.49 1.11773 -4.11593 0
M  V30 11865 S 1132.33 0.0651468 -5.3546 0
M  V30 11866 C 1133.48 1.23835 -6.13527 0
M  V30 11867 H 1133.71 -0.186683 -2.96713 0
M  V30 11868 H 1131.25 -0.215201 -1.52893 0
M  V30 11869 H 1133.21 2.26735 -3.42201 0
M  V30 11870 H 1131.87 2.18468 -2.25678 0
M  V30 11871 H 1131.06 1.99125 -4.62996 0
M  V30 11872 H 1130.66 0.526209 -3.7028 0
M  V30 11873 H 1132.95 2.15796 -6.42214 0
M  V30 11874 H 1133.9 0.76443 -7.03962 0
M  V30 11875 H 1134.3 1.47393 -5.44918 0
M  V30 11876 N 1133.7 1.56767 -0.161869 0
M  V30 11877 C 1134.65 2.17502 0.772102 0
M  V30 11878 C 1135.62 1.11223 1.23364 0
M  V30 11879 O 1136.8 1.39332 1.30351 0
M  V30 11880 C 1133.94 2.81248 1.99984 0
M  V30 11881 C 1133.06 4.01962 1.58274 0
M  V30 11882 C 1132.19 4.53662 2.76341 0
M  V30 11883 C 1131.23 5.66807 2.31076 0
M  V30 11884 N 1130.37 6.13059 3.42203 0
M  V30 11885 H 1135.21 2.96971 0.247382 0
M  V30 11886 H 1132.75 1.46685 0.110382 0
M  V30 11887 H 1134.7 3.16359 2.7198 0
M  V30 11888 H 1133.33 2.04398 2.49842 0
M  V30 11889 H 1132.39 3.72733 0.759874 0
M  V30 11890 H 1133.7 4.83891 1.2104 0
M  V30 11891 H 1132.85 4.90905 3.56507 0
M  V30 11892 H 1131.59 3.7077 3.16829 0
M  V30 11893 H 1130.6 5.29125 1.49354 0
M  V30 11894 H 1131.82 6.51494 1.91657 0
M  V30 11895 H 1129.77 5.33099 3.82285 0
M  V30 11896 H 1129.68 6.89953 3.09033 0
M  V30 11897 H 1130.95 6.54951 4.22682 0
M  V30 11898 N 1135.18 -0.111886 1.57202 0
M  V30 11899 C 1136.11 -1.16274 1.97517 0
M  V30 11900 C 1137.13 -1.37259 0.875425 0
M  V30 11901 O 1138.31 -1.36208 1.15367 0
M  V30 11902 C 1135.41 -2.52145 2.26442 0
M  V30 11903 C 1134.59 -2.51666 3.57747 0
M  V30 11904 C 1133.65 -3.69337 3.74802 0
M  V30 11905 O 1132.67 -3.52596 4.46839 0
M  V30 11906 N 1133.87 -4.88177 3.14108 0
M  V30 11907 H 1136.64 -0.819747 2.88271 0
M  V30 11908 H 1134.2 -0.301076 1.59076 0
M  V30 11909 H 1136.19 -3.29437 2.3506 0
M  V30 11910 H 1134.76 -2.78599 1.41779 0
M  V30 11911 H 1133.98 -1.60038 3.60252 0
M  V30 11912 H 1135.27 -2.48408 4.44039 0
M  V30 11913 H 1134.67 -5.04682 2.55564 0
M  V30 11914 H 1133.23 -5.6312 3.28237 0
M  V30 11915 N 1136.66 -1.52894 -0.382264 0
M  V30 11916 C 1137.91 -1.67489 -1.12385 0
M  V30 11917 C 1138.22 -0.424565 -1.90937 0
M  V30 11918 O 1139.43 -0.450763 -2.67732 0
M  V30 11919 C 1137.88 -2.96019 -2.04697 0
M  V30 11920 C 1137.49 -4.28255 -1.31535 0
M  V30 11921 C 1139.23 -3.19981 -2.78949 0
M  V30 11922 C 1137.14 -5.47887 -2.22652 0
M  V30 11923 H 1136.07 -0.624002 -0.423246 0
M  V30 11924 H 1138.72 -1.79392 -0.386107 0
M  V30 11925 H 1137.1 -2.77878 -2.82134 0
M  V30 11926 H 1138.28 -4.56971 -0.592771 0
M  V30 11927 H 1136.59 -4.10607 -0.692148 0
M  V30 11928 H 1139.19 -4.06541 -3.47316 0
M  V30 11929 H 1139.53 -2.35335 -3.43399 0
M  V30 11930 H 1140.07 -3.38718 -2.08602 0
M  V30 11931 H 1136.81 -6.3496 -1.62806 0
M  V30 11932 H 1136.33 -5.23473 -2.92807 0
M  V30 11933 H 1138 -5.82026 -2.82586 0
M  V30 11934 N 1138.14 0.641106 -1.43971 0
M  V30 11935 C 1139.08 1.75352 -1.50068 0
M  V30 11936 C 1140.05 1.62386 -0.349266 0
M  V30 11937 O 1141.24 1.82455 -0.558118 0
M  V30 11938 C 1138.38 3.13561 -1.4413 0
M  V30 11939 C 1137.49 3.37574 -2.6957 0
M  V30 11940 C 1136.63 4.65698 -2.55535 0
M  V30 11941 C 1135.67 4.82857 -3.76186 0
M  V30 11942 N 1134.8 6.02249 -3.60888 0
M  V30 11943 H 1139.64 1.69477 -2.45116 0
M  V30 11944 H 1137.18 0.826871 -1.2166 0
M  V30 11945 H 1139.14 3.93476 -1.38681 0
M  V30 11946 H 1137.77 3.18476 -0.526563 0
M  V30 11947 H 1136.82 2.5167 -2.85248 0
M  V30 11948 H 1138.13 3.46135 -3.59154 0
M  V30 11949 H 1137.29 5.53759 -2.47862 0
M  V30 11950 H 1136.03 4.59479 -1.63495 0
M  V30 11951 H 1135.03 3.93229 -3.84254 0
M  V30 11952 H 1136.26 4.90898 -4.6925 0
M  V30 11953 H 1134.2 5.97138 -2.71591 0
M  V30 11954 H 1134.12 6.11822 -4.44083 0
M  V30 11955 H 1135.39 6.92898 -3.57088 0
M  V30 11956 N 1139.62 1.30703 0.880598 0
M  V30 11957 C 1141.03 1.09129 1.1646 0
M  V30 11958 C 1141.23 -0.145131 2.00977 0
M  V30 11959 O 1140.29 -0.837502 2.38206 0
M  V30 11960 C 1141.6 2.35717 1.86703 0
M  V30 11961 C 1143.15 2.41224 1.9945 0
M  V30 11962 C 1143.62 3.67665 2.73105 0
M  V30 11963 N 1145.11 3.68498 2.80648 0
M  V30 11964 C 1145.85 4.63024 3.38225 0
M  V30 11965 N 1145.35 5.67898 3.96817 0
M  V30 11966 N 1147.14 4.50561 3.36082 0
M  V30 11967 H 1139.29 2.10019 0.317164 0
M  V30 11968 H 1141.55 0.925994 0.203072 0
M  V30 11969 H 1141.26 3.2597 1.32046 0
M  V30 11970 H 1141.13 2.447 2.87057 0
M  V30 11971 H 1143.52 1.51446 2.53275 0
M  V30 11972 H 1143.6 2.36212 0.981704 0
M  V30 11973 H 1143.24 4.57803 2.19951 0
M  V30 11974 H 1143.17 3.69939 3.7477 0
M  V30 11975 H 1145.67 2.92681 2.39053 0
M  V30 11976 H 1145.98 6.3612 4.3883 0
M  V30 11977 H 1144.32 5.71685 3.95223 0
M  V30 11978 H 1147.51 3.67811 2.89539 0
M  V30 11979 H 1147.69 5.24408 3.80657 0
M  V30 11980 N 1141.09 -1.09351 1.1349 0
M  V30 11981 C 1142.04 -2.16008 0.812981 0
M  V30 11982 C 1143.01 -1.64566 -0.225252 0
M  V30 11983 O 1144.2 -1.90552 -0.0973261 0
M  V30 11984 C 1141.34 -3.43913 0.285996 0
M  V30 11985 C 1140.45 -4.09251 1.38338 0
M  V30 11986 C 1139.58 -5.24916 0.814652 0
M  V30 11987 C 1138.62 -5.82178 1.89038 0
M  V30 11988 N 1137.76 -6.89203 1.33955 0
M  V30 11989 H 1142.6 -2.42887 1.72655 0
M  V30 11990 H 1140.14 -1.19209 0.861833 0
M  V30 11991 H 1142.09 -4.17183 -0.0376794 0
M  V30 11992 H 1140.72 -3.17349 -0.590707 0
M  V30 11993 H 1139.78 -3.33838 1.82363 0
M  V30 11994 H 1141.09 -4.4784 2.19638 0
M  V30 11995 H 1140.24 -6.05086 0.442306 0
M  V30 11996 H 1138.98 -4.87691 -0.029416 0
M  V30 11997 H 1137.99 -5.00669 2.27179 0
M  V30 11998 H 1139.21 -6.21464 2.73787 0
M  V30 11999 H 1137.16 -6.53956 0.517494 0
M  V30 12000 H 1137.07 -7.26565 2.08902 0
M  V30 12001 H 1138.34 -7.73126 0.994793 0
M  V30 12002 N 1142.57 -0.928524 -1.27343 0
M  V30 12003 C 1143.82 -0.565207 -1.93619 0
M  V30 12004 C 1144.13 0.897988 -1.73769 0
M  V30 12005 O 1145.34 1.37012 -2.34393 0
M  V30 12006 C 1143.8 -0.960052 -3.46859 0
M  V30 12007 C 1143.4 -2.44399 -3.75464 0
M  V30 12008 C 1145.15 -0.668026 -4.19211 0
M  V30 12009 C 1143.05 -2.77819 -5.22083 0
M  V30 12010 H 1141.98 -0.207665 -0.724839 0
M  V30 12011 H 1144.64 -1.12945 -1.44623 0
M  V30 12012 H 1143.02 -0.324454 -3.94669 0
M  V30 12013 H 1144.19 -3.12756 -3.38408 0
M  V30 12014 H 1142.51 -2.70799 -3.16317 0
M  V30 12015 H 1145.1 -0.894207 -5.2717 0
M  V30 12016 H 1145.45 0.394788 -4.14424 0
M  V30 12017 H 1145.98 -1.26276 -3.77226 0
M  V30 12018 H 1142.72 -3.83013 -5.3196 0
M  V30 12019 H 1142.24 -2.14112 -5.60282 0
M  V30 12020 H 1143.92 -2.65607 -5.89968 0
M  V30 12021 N 1144.05 1.41491 -0.694123 0
M  V30 12022 C 1144.98 2.29197 0.0112742 0
M  V30 12023 C 1145.99 1.44708 0.745877 0
M  V30 12024 O 1147.18 1.68227 0.596821 0
M  V30 12025 C 1144.28 3.22547 1.04004 0
M  V30 12026 C 1143.46 4.35787 0.375347 0
M  V30 12027 C 1142.52 5.09722 1.30652 0
M  V30 12028 O 1141.54 5.63558 0.799459 0
M  V30 12029 N 1142.74 5.1705 2.63893 0
M  V30 12030 H 1145.51 2.90377 -0.741705 0
M  V30 12031 H 1143.07 1.52628 -0.540039 0
M  V30 12032 H 1145.06 3.68878 1.66468 0
M  V30 12033 H 1143.63 2.62685 1.69456 0
M  V30 12034 H 1142.85 3.91857 -0.429145 0
M  V30 12035 H 1144.14 5.08726 -0.0869041 0
M  V30 12036 H 1143.54 4.74756 3.07609 0
M  V30 12037 H 1142.09 5.66962 3.21555 0
M  V30 12038 N 1145.53 0.438773 1.51369 0
M  V30 12039 C 1146.44 -0.378074 2.31534 0
M  V30 12040 C 1147.45 -1.02632 1.40508 0
M  V30 12041 O 1148.63 -1.02138 1.73579 0
M  V30 12042 C 1145.69 -1.46374 3.14286 0
M  V30 12043 C 1144.76 -0.835473 4.21092 0
M  V30 12044 C 1143.99 -1.86941 4.99889 0
M  V30 12045 O 1144.21 -3.0918 4.79337 0
M  V30 12046 O 1143.15 -1.45914 5.83946 0
M  V30 12047 H 1146.97 0.276401 3.0244 0
M  V30 12048 H 1144.56 0.201281 1.48038 0
M  V30 12049 H 1146.44 -2.09335 3.65728 0
M  V30 12050 H 1145.11 -2.10227 2.46143 0
M  V30 12051 H 1144.02 -0.167775 3.73724 0
M  V30 12052 H 1145.35 -0.240406 4.91613 0
M  V30 12053 N 1147.01 -1.56678 0.170181 0
M  V30 12054 C 1148.25 -1.96849 -0.475064 0
M  V30 12055 C 1148.58 -1.05611 -1.6333 0
M  V30 12056 O 1147.84 -0.0899708 -1.95493 0
M  V30 12057 C 1148.13 -3.43103 -1.00076 0
M  V30 12058 C 1147.8 -4.50881 0.0414538 0
M  V30 12059 C 1146.46 -4.80082 0.327894 0
M  V30 12060 C 1148.81 -5.15791 0.748936 0
M  V30 12061 C 1146.14 -5.71491 1.32722 0
M  V30 12062 C 1148.49 -6.08278 1.73724 0
M  V30 12063 C 1147.16 -6.35847 2.03114 0
M  V30 12064 H 1146.43 -0.72032 -0.173838 0
M  V30 12065 H 1149.08 -1.89701 0.261903 0
M  V30 12066 H 1147.38 -3.47197 -1.81553 0
M  V30 12067 H 1149.08 -3.71525 -1.50899 0
M  V30 12068 H 1145.67 -4.2817 -0.191976 0
M  V30 12069 H 1149.85 -4.93344 0.540852 0
M  V30 12070 H 1145.11 -5.91134 1.56112 0
M  V30 12071 H 1149.28 -6.57643 2.29082 0
M  V30 12072 H 1146.91 -7.06479 2.80698 0
M  V30 12073 N 1148.48 0.103547 -1.57259 0
M  V30 12074 C 1149.43 1.13239 -1.97891 0
M  V30 12075 C 1150.42 1.36234 -0.856105 0
M  V30 12076 O 1151.61 1.37067 -1.11989 0
M  V30 12077 C 1148.74 2.4549 -2.39979 0
M  V30 12078 C 1147.82 2.25905 -3.58926 0
M  V30 12079 N 1148.22 1.76167 -4.7413 0
M  V30 12080 C 1146.51 2.56503 -3.64859 0
M  V30 12081 C 1147.21 1.70653 -5.56105 0
M  V30 12082 N 1146.19 2.15562 -4.99033 0
M  V30 12083 H 1149.99 0.740638 -2.84415 0
M  V30 12084 H 1147.51 0.311091 -1.59393 0
M  V30 12085 H 1149.5 3.19922 -2.67312 0
M  V30 12086 H 1148.16 2.8541 -1.54827 0
M  V30 12087 H 1149.17 1.45487 -4.97045 0
M  V30 12088 H 1145.85 3.00005 -2.9035 0
M  V30 12089 H 1147.24 1.33321 -6.5854 0
M  V30 12090 N 1149.96 1.53094 0.37415 0
M  V30 12091 C 1151.38 1.42676 0.715246 0
M  V30 12092 C 1151.58 0.558992 1.93591 0
M  V30 12093 O 1150.63 0.0381328 2.52471 0
M  V30 12094 C 1151.95 2.85746 0.936459 0
M  V30 12095 C 1153.49 2.95322 1.03701 0
M  V30 12096 C 1153.97 4.39436 1.29075 0
M  V30 12097 N 1155.46 4.42826 1.35864 0
M  V30 12098 C 1156.2 5.51433 1.57191 0
M  V30 12099 N 1155.69 6.701 1.75891 0
M  V30 12100 N 1157.48 5.38998 1.59491 0
M  V30 12101 H 1149.64 2.08025 -0.428854 0
M  V30 12102 H 1151.9 0.939078 -0.129758 0
M  V30 12103 H 1151.6 3.51523 0.111448 0
M  V30 12104 H 1151.48 3.28887 1.84698 0
M  V30 12105 H 1153.87 2.29704 1.85257 0
M  V30 12106 H 1153.95 2.55588 0.104066 0
M  V30 12107 H 1153.59 5.05625 0.480231 0
M  V30 12108 H 1153.52 4.76735 2.23677 0
M  V30 12109 H 1156.01 3.57301 1.23061 0
M  V30 12110 H 1156.32 7.48643 1.91713 0
M  V30 12111 H 1154.67 6.73102 1.73086 0
M  V30 12112 H 1157.86 4.45257 1.44444 0
M  V30 12113 H 1158.03 6.23705 1.75771 0
M  V30 12114 N 1151.44 -0.633461 1.44309 0
M  V30 12115 C 1152.67 -1.42033 1.50447 0
M  V30 12116 C 1153.08 -1.88362 0.128585 0
M  V30 12117 O 1152.44 -1.60695 -0.865071 0
M  V30 12118 C 1152.49 -2.6422 2.46719 0
M  V30 12119 O 1152.21 -2.19823 3.78958 0
M  V30 12120 C 1153.71 -3.57372 2.62298 0
M  V30 12121 H 1150.93 -0.435667 0.510329 0
M  V30 12122 H 1153.48 -0.774907 1.8925 0
M  V30 12123 H 1151.63 -3.24859 2.11058 0
M  V30 12124 H 1152.05 -2.99022 4.30913 0
M  V30 12125 H 1153.52 -4.39719 3.33693 0
M  V30 12126 H 1154 -4.06026 1.67449 0
M  V30 12127 H 1154.6 -3.02603 2.9885 0
M  V30 12128 N 1152.92 -1.31168 -0.873655 0
M  V30 12129 C 1153.85 -1.12836 -1.98351 0
M  V30 12130 C 1154.83 -0.0328679 -1.62567 0
M  V30 12131 O 1156.01 -0.18859 -1.87554 0
M  V30 12132 C 1153.14 -0.72332 -3.30886 0
M  V30 12133 C 1152.19 -1.82132 -3.85656 0
M  V30 12134 S 1153.02 -3.42604 -4.11562 0
M  V30 12135 C 1154.18 -3.04028 -5.471 0
M  V30 12136 H 1154.41 -2.06793 -2.13597 0
M  V30 12137 H 1151.94 -1.15611 -1.0234 0
M  V30 12138 H 1153.9 -0.496371 -4.07488 0
M  V30 12139 H 1152.56 0.197077 -3.13481 0
M  V30 12140 H 1151.75 -1.49046 -4.81458 0
M  V30 12141 H 1151.36 -2.00314 -3.15833 0
M  V30 12142 H 1153.65 -2.52692 -6.28612 0
M  V30 12143 H 1154.59 -3.9878 -5.85133 0
M  V30 12144 H 1155 -2.41574 -5.10198 0
M  V30 12145 N 1154.4 1.08748 -1.14068 0
M  V30 12146 C 1155.33 2.17591 -0.84714 0
M  V30 12147 C 1156.31 1.68962 0.196415 0
M  V30 12148 O 1157.49 1.94125 0.0538415 0
M  V30 12149 C 1154.62 3.45823 -0.320005 0
M  V30 12150 C 1153.58 4.07824 -1.2986 0
M  V30 12151 C 1152.9 5.30965 -0.630925 0
M  V30 12152 C 1154.2 4.49512 -2.65963 0
M  V30 12153 H 1155.9 2.42404 -1.75729 0
M  V30 12154 H 1153.44 1.16502 -0.846356 0
M  V30 12155 H 1155.4 4.21276 -0.102271 0
M  V30 12156 H 1154.12 3.20553 0.625561 0
M  V30 12157 H 1152.78 3.34398 -1.50245 0
M  V30 12158 H 1152.43 5.01979 0.320337 0
M  V30 12159 H 1152.13 5.73402 -1.28388 0
M  V30 12160 H 1153.65 6.09136 -0.422635 0
M  V30 12161 H 1155.06 5.16159 -2.49506 0
M  V30 12162 H 1153.46 5.02857 -3.27498 0
M  V30 12163 H 1154.53 3.6157 -3.23102 0
M  V30 12164 N 1155.87 0.935264 1.26849 0
M  V30 12165 C 1156.82 0.430895 2.28574 0
M  V30 12166 C 1157.82 -0.488739 1.62196 0
M  V30 12167 O 1159.02 -0.367605 1.76206 0
M  V30 12168 H 1155.4 0.120793 0.742235 0
M  V30 12169 H 1157.37 1.3015 2.68521 0
M  V30 12170 C 1156.12 -0.294053 3.46454 0
M  V30 12171 H 1155.44 0.404416 3.97749 0
M  V30 12172 H 1156.88 -0.611272 4.19571 0
M  V30 12173 C 1155.34 -1.50975 3.01178 0
M  V30 12174 O 1155.87 -2.60826 3.05504 0
M  V30 12175 N 1154.08 -1.36423 2.56587 0
M  V30 12176 H 1153.62 -0.470483 2.53267 0
M  V30 12177 H 1153.58 -2.17886 2.26656 0
M  V30 12178 N 1157.35 -1.41121 0.701616 0
M  V30 12179 C 1158.6 -2.0113 0.235147 0
M  V30 12180 C 1158.93 -1.55587 -1.16718 0
M  V30 12181 O 1158.18 -0.760615 -1.80314 0
M  V30 12182 C 1158.48 -3.5654 0.247781 0
M  V30 12183 C 1158.15 -4.21616 1.59846 0
M  V30 12184 C 1156.81 -4.39106 1.96822 0
M  V30 12185 C 1159.16 -4.58048 2.48679 0
M  V30 12186 C 1156.49 -4.90307 3.22205 0
M  V30 12187 C 1158.84 -5.10642 3.734 0
M  V30 12188 C 1157.51 -5.26343 4.10512 0
M  V30 12189 H 1156.78 -0.735987 0.0860462 0
M  V30 12190 H 1159.42 -1.68932 0.901898 0
M  V30 12191 H 1157.73 -3.88564 -0.502528 0
M  V30 12192 H 1159.42 -4.00787 -0.130766 0
M  V30 12193 H 1156.01 -4.08381 1.30088 0
M  V30 12194 H 1160.2 -4.44184 2.21391 0
M  V30 12195 H 1155.45 -5.00647 3.50945 0
M  V30 12196 H 1159.63 -5.37811 4.42416 0
M  V30 12197 H 1157.26 -5.65779 5.07738 0
M  V30 12198 N 1158.83 -0.446794 -1.51134 0
M  V30 12199 C 1160.06 0.117242 -2.07068 0
M  V30 12200 C 1160.48 1.34877 -1.3111 0
M  V30 12201 O 1159.84 1.77856 -0.35172 0
M  V30 12202 C 1159.89 0.408616 -3.58277 0
M  V30 12203 O 1158.99 1.49345 -3.84408 0
M  V30 12204 H 1158.33 -0.00228458 -0.663996 0
M  V30 12205 H 1160.86 -0.63085 -1.94632 0
M  V30 12206 H 1160.87 0.656298 -4.02687 0
M  V30 12207 H 1159.55 -0.491444 -4.12986 0
M  V30 12208 H 1158.12 1.23499 -3.51856 0
M  V30 12209 N 1160.31 1.56586 -0.178487 0
M  V30 12210 C 1161.53 2.01915 0.473841 0
M  V30 12211 C 1161.96 1.05789 1.55533 0
M  V30 12212 O 1161.32 0.0386018 1.81259 0
M  V30 12213 C 1161.36 3.45799 1.02251 0
M  V30 12214 O 1160.47 3.52761 2.1362 0
M  V30 12215 H 1159.81 0.654372 0.112666 0
M  V30 12216 H 1162.34 2.02613 -0.284486 0
M  V30 12217 H 1162.35 3.85252 1.34332 0
M  V30 12218 H 1161.02 4.1526 0.230719 0
M  V30 12219 H 1159.6 3.25172 1.8253 0
M  V30 12220 N 1161.79 -0.095206 1.57312 0
M  V30 12221 C 1162.75 -1.09974 2.01093 0
M  V30 12222 C 1163.75 -1.32954 0.904424 0
M  V30 12223 O 1164.94 -1.29069 1.16991 0
M  V30 12224 C 1162.07 -2.4489 2.37153 0
M  V30 12225 H 1163.26 -0.722906 2.91057 0
M  V30 12226 H 1160.82 -0.340249 1.52552 0
M  V30 12227 H 1161.55 -2.8745 1.50143 0
M  V30 12228 H 1161.34 -2.29559 3.17876 0
M  V30 12229 H 1162.83 -3.17141 2.71683 0
M  V30 12230 N 1163.26 -1.53291 -0.366026 0
M  V30 12231 C 1164.49 -1.73359 -1.12934 0
M  V30 12232 C 1164.91 -0.462352 -1.83051 0
M  V30 12233 O 1164.26 0.564711 -1.73543 0
M  V30 12234 C 1164.32 -2.89873 -2.15999 0
M  V30 12235 O 1164.04 -4.12079 -1.48737 0
M  V30 12236 C 1165.54 -3.21811 -3.04881 0
M  V30 12237 H 1162.76 -0.579827 -0.337701 0
M  V30 12238 H 1165.3 -2.00033 -0.425081 0
M  V30 12239 H 1163.46 -2.65595 -2.82025 0
M  V30 12240 H 1163.87 -4.77322 -2.17404 0
M  V30 12241 H 1165.34 -4.06744 -3.7318 0
M  V30 12242 H 1165.82 -2.37156 -3.69667 0
M  V30 12243 H 1166.43 -3.48013 -2.44473 0
M  V30 12244 N 1164.74 0.6258 -1.44643 0
M  V30 12245 C 1166.02 1.38439 -1.38181 0
M  V30 12246 C 1166.4 2.11056 -0.0431928 0
M  V30 12247 O 1165.75 2.06683 0.974383 0
M  V30 12248 C 1165.96 2.34639 -2.58352 0
M  V30 12249 C 1167.31 2.97807 -3.02649 0
M  V30 12250 O 1168.33 2.44963 -2.58595 0
M  V30 12251 O 1167.19 3.93682 -3.79048 0
M  V30 12252 H 1164.28 0.619852 -0.54746 0
M  V30 12253 H 1166.83 0.650409 -1.56741 0
M  V30 12254 H 1165.6 1.80116 -3.47382 0
M  V30 12255 H 1165.22 3.15446 -2.42032 0
M  V30 12256 N 1166.22 1.31629 0.866686 0
M  V30 12257 C 1167.15 1.22151 1.99001 0
M  V30 12258 C 1168.13 0.107972 1.69757 0
M  V30 12259 O 1169.32 0.293125 1.91975 0
M  V30 12260 C 1166.45 0.93144 3.34577 0
M  V30 12261 C 1165.4 2.0049 3.78137 0
M  V30 12262 C 1164.73 1.56747 5.11209 0
M  V30 12263 C 1166.03 3.41844 3.94892 0
M  V30 12264 H 1167.72 2.16132 2.0719 0
M  V30 12265 H 1165.27 1.04051 0.995463 0
M  V30 12266 H 1167.22 0.851719 4.12703 0
M  V30 12267 H 1165.94 -0.0440289 3.2657 0
M  V30 12268 H 1164.6 2.07457 3.02253 0
M  V30 12269 H 1164.25 0.579767 4.99648 0
M  V30 12270 H 1163.95 2.28562 5.41326 0
M  V30 12271 H 1165.47 1.50188 5.91841 0
M  V30 12272 H 1166.89 3.37534 4.63405 0
M  V30 12273 H 1165.29 4.11905 4.36411 0
M  V30 12274 H 1166.36 3.82389 2.98172 0
M  V30 12275 N 1167.7 -1.08142 1.14644 0
M  V30 12276 C 1168.63 -2.17139 0.858667 0
M  V30 12277 C 1169.61 -1.69064 -0.187452 0
M  V30 12278 O 1170.8 -1.94151 -0.0435458 0
M  V30 12279 C 1167.93 -3.45648 0.33834 0
M  V30 12280 C 1166.88 -4.07129 1.32021 0
M  V30 12281 C 1166.21 -5.30623 0.659075 0
M  V30 12282 C 1167.51 -4.48095 2.68343 0
M  V30 12283 H 1169.2 -2.41468 1.77012 0
M  V30 12284 H 1166.75 -1.16052 0.852523 0
M  V30 12285 H 1168.7 -4.21216 0.124611 0
M  V30 12286 H 1167.42 -3.2088 -0.608553 0
M  V30 12287 H 1166.08 -3.33596 1.52016 0
M  V30 12288 H 1165.73 -5.02142 -0.293711 0
M  V30 12289 H 1165.43 -5.72714 1.31427 0
M  V30 12290 H 1166.95 -6.08903 0.454933 0
M  V30 12291 H 1168.37 -5.14828 2.5224 0
M  V30 12292 H 1166.76 -5.01113 3.30161 0
M  V30 12293 H 1167.83 -3.59852 3.25015 0
M  V30 12294 N 1169.18 -0.941978 -1.26351 0
M  V30 12295 C 1170.42 -0.597462 -1.95473 0
M  V30 12296 C 1170.78 0.847851 -1.72266 0
M  V30 12297 O 1171.98 1.30134 -2.35199 0
M  V30 12298 C 1170.25 -0.931342 -3.45052 0
M  V30 12299 S 1171.81 -0.697491 -4.33221 0
M  V30 12300 H 1168.63 -0.22003 -0.676097 0
M  V30 12301 H 1171.23 -1.21346 -1.53282 0
M  V30 12302 H 1169.94 -1.98063 -3.59443 0
M  V30 12303 H 1169.47 -0.305095 -3.92215 0
M  V30 12304 H 1171.48 0.437915 -4.94264 0
M  V30 12305 N 1170.66 1.40747 -0.709091 0
M  V30 12306 C 1171.59 2.29196 -0.0130359 0
M  V30 12307 C 1172.6 1.45491 0.730487 0
M  V30 12308 O 1173.79 1.6885 0.578944 0
M  V30 12309 C 1170.89 3.23632 1.00577 0
M  V30 12310 C 1170.06 4.3616 0.329105 0
M  V30 12311 C 1169.12 5.11079 1.25239 0
M  V30 12312 O 1168.15 5.64374 0.739641 0
M  V30 12313 N 1169.35 5.1982 2.58394 0
M  V30 12314 H 1172.11 2.89574 -0.772462 0
M  V30 12315 H 1169.68 1.52046 -0.556197 0
M  V30 12316 H 1171.67 3.70622 1.62546 0
M  V30 12317 H 1170.24 2.64467 1.66661 0
M  V30 12318 H 1169.46 3.9138 -0.470683 0
M  V30 12319 H 1170.75 5.08605 -0.140856 0
M  V30 12320 H 1170.14 4.77992 3.02556 0
M  V30 12321 H 1168.7 5.7034 3.15524 0
M  V30 12322 N 1172.13 0.454803 1.50895 0
M  V30 12323 C 1173.08 -0.366073 2.25042 0
M  V30 12324 C 1174.07 -0.975353 1.27967 0
M  V30 12325 O 1175.26 -0.8906 1.52962 0
M  V30 12326 C 1172.39 -1.45683 3.10856 0
M  V30 12327 C 1171.47 -0.856086 4.1537 0
M  V30 12328 N 1171.87 0.0138787 5.05798 0
M  V30 12329 C 1170.16 -1.1218 4.31661 0
M  V30 12330 C 1170.86 0.35313 5.80627 0
M  V30 12331 N 1169.84 -0.267648 5.42941 0
M  V30 12332 H 1173.64 0.304357 2.9232 0
M  V30 12333 H 1171.16 0.267937 1.60174 0
M  V30 12334 H 1173.15 -2.05793 3.62567 0
M  V30 12335 H 1171.81 -2.12942 2.45124 0
M  V30 12336 H 1172.82 0.381574 5.16492 0
M  V30 12337 H 1169.5 -1.79059 3.77153 0
M  V30 12338 H 1170.89 1.06213 6.63452 0
M  V30 12339 N 1173.61 -1.56489 0.186789 0
M  V30 12340 C 1174.84 -2.02163 -0.463126 0
M  V30 12341 C 1175.26 -1.06612 -1.54969 0
M  V30 12342 O 1174.62 -0.0482139 -1.81236 0
M  V30 12343 C 1174.67 -3.46337 -1.00416 0
M  V30 12344 O 1173.77 -3.53889 -2.11747 0
M  V30 12345 H 1173.11 -0.65496 -0.109194 0
M  V30 12346 H 1175.64 -2.02459 0.295227 0
M  V30 12347 H 1175.65 -3.85959 -1.32287 0
M  V30 12348 H 1174.33 -4.15376 -0.208693 0
M  V30 12349 H 1172.9 -3.26136 -1.80803 0
M  V30 12350 N 1175.09 0.086862 -1.5736 0
M  V30 12351 C 1176.02 1.10538 -2.05678 0
M  V30 12352 C 1177 1.41281 -0.947293 0
M  V30 12353 O 1178.19 1.51169 -1.21908 0
M  V30 12354 C 1175.32 2.42302 -2.48812 0
M  V30 12355 C 1174.27 2.25948 -3.63499 0
M  V30 12356 C 1173.6 3.62961 -3.92637 0
M  V30 12357 C 1174.9 1.69319 -4.94094 0
M  V30 12358 H 1176.59 0.703371 -2.91021 0
M  V30 12359 H 1174.14 0.336895 -1.40004 0
M  V30 12360 H 1176.09 3.13833 -2.81224 0
M  V30 12361 H 1174.81 2.84454 -1.60479 0
M  V30 12362 H 1173.47 1.5686 -3.31347 0
M  V30 12363 H 1173.12 4.02656 -3.01459 0
M  V30 12364 H 1172.82 3.52862 -4.69853 0
M  V30 12365 H 1174.34 4.35946 -4.27531 0
M  V30 12366 H 1175.76 2.30699 -5.24834 0
M  V30 12367 H 1174.15 1.69957 -5.7553 0
M  V30 12368 H 1175.22 0.653318 -4.80479 0
M  V30 12369 N 1176.57 1.53483 0.357892 0
M  V30 12370 C 1177.81 1.70037 1.09971 0
M  V30 12371 C 1178.14 0.456112 1.89076 0
M  V30 12372 O 1177.4 -0.562029 1.87456 0
M  V30 12373 C 1177.7 2.90654 2.07978 0
M  V30 12374 C 1177.36 4.26849 1.45295 0
M  V30 12375 C 1176.02 4.63884 1.27928 0
M  V30 12376 C 1178.38 5.11514 1.00013 0
M  V30 12377 C 1175.7 5.83213 0.638745 0
M  V30 12378 C 1178.06 6.31496 0.373568 0
M  V30 12379 C 1176.72 6.67237 0.187457 0
M  V30 12380 H 1175.99 0.622209 0.402414 0
M  V30 12381 H 1178.64 1.87679 0.380615 0
M  V30 12382 H 1176.94 2.67556 2.86219 0
M  V30 12383 H 1178.64 3.00656 2.65343 0
M  V30 12384 H 1175.23 3.97693 1.59807 0
M  V30 12385 H 1179.41 4.83446 1.12221 0
M  V30 12386 H 1174.67 6.09489 0.483035 0
M  V30 12387 H 1178.84 6.96398 0.0145346 0
M  V30 12388 H 1176.47 7.59564 -0.310933 0
M  V30 12389 N 1178.05 -0.61812 1.44973 0
M  V30 12390 C 1178.99 -1.72942 1.52838 0
M  V30 12391 C 1179.96 -1.6181 0.375056 0
M  V30 12392 O 1181.15 -1.81544 0.587075 0
M  V30 12393 C 1178.29 -3.11228 1.49101 0
M  V30 12394 C 1177.4 -3.33243 2.74906 0
M  V30 12395 C 1176.54 -4.61574 2.62912 0
M  V30 12396 C 1175.57 -4.76811 3.8382 0
M  V30 12397 N 1174.71 -5.96432 3.70424 0
M  V30 12398 H 1179.55 -1.65556 2.47781 0
M  V30 12399 H 1177.09 -0.807411 1.2296 0
M  V30 12400 H 1179.05 -3.9122 1.44923 0
M  V30 12401 H 1177.68 -3.17598 0.577163 0
M  V30 12402 H 1176.73 -2.471 2.89216 0
M  V30 12403 H 1178.04 -3.40377 3.64616 0
M  V30 12404 H 1177.19 -5.49746 2.56641 0
M  V30 12405 H 1175.93 -4.5682 1.70784 0
M  V30 12406 H 1174.94 -3.87066 3.90461 0
M  V30 12407 H 1176.16 -4.83371 4.77001 0
M  V30 12408 H 1174.11 -5.92742 2.81057 0
M  V30 12409 H 1174.03 -6.0468 4.5376 0
M  V30 12410 H 1175.29 -6.8713 3.68067 0
M  V30 12411 O 1179.56 -1.42403 -0.761819 0
M  V30 12412 H 1180.25 -1.3282 -1.40992 0
M  V30 END ATOM
M  V30 BEGIN BOND
M  V30 END BOND
M  V30 END CTAB
M  END
$$$$
