drugbank_target|P0A820 S-adenosylmethionine synthase (DB03075; DB04395; DB04554)
 OpenBabel12092119553D

  0  0  0     0  0            999 V3000
M  V30 BEGIN CTAB
M  V30 COUNTS 5867 5926 0 0 0
M  V30 BEGIN ATOM
M  V30 1 H -0.908 1.98254 -0.117106 0
M  V30 2 N 0 1.576 0 0
M  V30 3 C 0.933 2.03868 1.02534 0
M  V30 4 C 1.911 0.928543 1.3348 0
M  V30 5 O 3.095 1.19667 1.45644 0
M  V30 6 C 0.222 2.43627 2.35294 0
M  V30 7 C -0.732 3.65373 2.2001 0
M  V30 8 S 0.101 5.13292 1.52614 0
M  V30 9 C 1.257 5.56322 2.86805 0
M  V30 10 H 1.49 2.90518 0.631377 0
M  V30 11 H -0.977 1.52953 0.210867 0
M  V30 12 H 0.981 2.67203 3.11629 0
M  V30 13 H -0.358 1.57376 2.7183 0
M  V30 14 H -1.165 3.90944 3.18086 0
M  V30 15 H -1.563 3.418 1.51819 0
M  V30 16 H 0.729 5.58782 3.83104 0
M  V30 17 H 1.672 6.56266 2.65933 0
M  V30 18 H 2.08 4.83886 2.90714 0
M  V30 19 N 1.4781 -0.272755 1.55222 0
M  V30 20 C 2.4411 -1.32041 1.87344 0
M  V30 21 C 3.4411 -1.42342 0.74803 0
M  V30 22 O 4.6311 -1.41488 1.0162 0
M  V30 23 C 1.7631 -2.70173 2.07893 0
M  V30 24 H 2.9561 -1.04789 2.80997 0
M  V30 25 H 0.5091 -0.51083 1.47717 0
M  V30 26 H 1.2441 -3.02605 1.16622 0
M  V30 27 H 1.0291 -2.64082 2.89833 0
M  V30 28 H 2.5191 -3.45869 2.34017 0
M  V30 29 N 2.9562 -1.48159 -0.537278 0
M  V30 30 C 3.9032 -1.62138 -1.64256 0
M  V30 31 C 4.8732 -0.463668 -1.59497 0
M  V30 32 O 6.0582 -0.686241 -1.78032 0
M  V30 33 C 3.1982 -1.66028 -3.02537 0
M  V30 34 C 2.3112 -2.92855 -3.17585 0
M  V30 35 C 1.4462 -2.87952 -4.46382 0
M  V30 36 C 0.4852 -4.09516 -4.54932 0
M  V30 37 N -0.3778 -4.02733 -5.75109 0
M  V30 38 H 4.4622 -2.56529 -1.51647 0
M  V30 39 H 1.9992 -1.27224 -0.738414 0
M  V30 40 H 3.9572 -1.66265 -3.82638 0
M  V30 41 H 2.5872 -0.751331 -3.13934 0
M  V30 42 H 1.6392 -3.02395 -2.30784 0
M  V30 43 H 2.9512 -3.82822 -3.19764 0
M  V30 44 H 2.1052 -2.8655 -5.34765 0
M  V30 45 H 0.8442 -1.95702 -4.46712 0
M  V30 46 H -0.1508 -4.11201 -3.64957 0
M  V30 47 H 1.0742 -5.02917 -4.56346 0
M  V30 48 H -0.9798 -3.13299 -5.76351 0
M  V30 49 H -1.0628 -4.86397 -5.78752 0
M  V30 50 H 0.2052 -4.05379 -6.65799 0
M  V30 51 N 4.4343 0.785586 -1.36625 0
M  V30 52 C 5.3843 1.88822 -1.27789 0
M  V30 53 C 6.3683 1.60014 -0.168579 0
M  V30 54 O 7.5603 1.72381 -0.401737 0
M  V30 55 C 4.6893 3.26092 -1.07327 0
M  V30 56 C 3.7753 3.60897 -2.22743 0
M  V30 57 N 4.1663 3.66982 -3.48077 0
M  V30 58 C 2.4643 3.90981 -2.14593 0
M  V30 59 C 3.1653 3.98137 -4.24101 0
M  V30 60 N 2.1413 4.13319 -3.53084 0
M  V30 61 H 5.9433 1.91759 -2.22723 0
M  V30 62 H 3.4573 0.981311 -1.29399 0
M  V30 63 H 5.4543 4.04954 -0.990842 0
M  V30 64 H 4.1143 3.24428 -0.132977 0
M  V30 65 H 5.1253 3.49531 -3.82163 0
M  V30 66 H 1.8023 3.9722 -1.2854 0
M  V30 67 H 3.1923 4.09737 -5.32509 0
M  V30 68 N 5.9124 1.20967 1.01018 0
M  V30 69 C 6.8424 0.988272 2.11555 0
M  V30 70 C 7.8234 -0.0849778 1.69888 0
M  V30 71 O 9.0084 0.0738202 1.9406 0
M  V30 72 C 6.1384 0.546528 3.42973 0
M  V30 73 C 5.0924 1.56375 3.9841 0
M  V30 74 C 4.4184 0.97842 5.25672 0
M  V30 75 C 5.7184 2.94922 4.31066 0
M  V30 76 H 7.4124 1.91276 2.30334 0
M  V30 77 H 4.9584 0.921073 1.1069 0
M  V30 78 H 6.9114 0.378839 4.19694 0
M  V30 79 H 5.6354 -0.413598 3.23971 0
M  V30 80 H 4.2944 1.71891 3.23804 0
M  V30 81 H 3.9424 0.0101688 5.02999 0
M  V30 82 H 3.6424 1.65784 5.63728 0
M  V30 83 H 5.1664 0.821939 6.05043 0
M  V30 84 H 6.5804 2.8288 4.9865 0
M  V30 85 H 4.9774 3.5983 4.80253 0
M  V30 86 H 6.0474 3.4616 3.39561 0
M  V30 87 N 7.3905 -1.2043 1.01659 0
M  V30 88 C 8.6375 -1.89797 0.705917 0
M  V30 89 C 8.9655 -1.78848 -0.764439 0
M  V30 90 O 8.2205 -1.16694 -1.57102 0
M  V30 91 C 8.5195 -3.40464 1.08714 0
M  V30 92 C 8.1855 -3.71614 2.5537 0
M  V30 93 C 6.8475 -3.79826 2.95441 0
M  V30 94 C 9.1995 -3.85915 3.50313 0
M  V30 95 C 6.5275 -3.99797 4.29394 0
M  V30 96 C 8.8795 -4.07396 4.83954 0
M  V30 97 C 7.5435 -4.13837 5.23732 0
M  V30 98 H 6.8135 -0.694518 0.258313 0
M  V30 99 H 9.4605 -1.42691 1.27717 0
M  V30 100 H 7.7655 -3.89385 0.434309 0
M  V30 101 H 9.4625 -3.92433 0.824461 0
M  V30 102 H 6.0525 -3.65822 2.23321 0
M  V30 103 H 10.2365 -3.78926 3.20513 0
M  V30 104 H 5.4925 -4.03018 4.59768 0
M  V30 105 H 9.6665 -4.17404 5.57447 0
M  V30 106 H 7.2935 -4.29064 6.27541 0
M  V30 107 N 8.8686 -0.792821 -1.36206 0
M  V30 108 C 10.0966 -0.378825 -2.03402 0
M  V30 109 C 10.5116 1.00586 -1.59774 0
M  V30 110 O 9.8686 1.64574 -0.788764 0
M  V30 111 C 9.9196 -0.43683 -3.58851 0
M  V30 112 O 9.6406 -1.76691 -4.00889 0
M  V30 113 C 11.1416 -0.0138943 -4.43298 0
M  V30 114 H 8.3616 -0.155673 -0.652692 0
M  V30 115 H 10.9056 -1.07261 -1.74113 0
M  V30 116 H 9.0606 0.208575 -3.86838 0
M  V30 117 H 9.4746 -1.72011 -4.95492 0
M  V30 118 H 10.9486 -0.105615 -5.51899 0
M  V30 119 H 11.4256 1.03915 -4.2673 0
M  V30 120 H 12.0316 -0.63192 -4.20579 0
M  V30 121 N 10.3467 1.47872 -0.545128 0
M  V30 122 C 11.5717 2.07391 -0.0190611 0
M  V30 123 C 11.9967 1.39688 1.25971 0
M  V30 124 O 11.3547 0.467816 1.7516 0
M  V30 125 C 11.4027 3.60188 0.172335 0
M  V30 126 O 10.5067 3.9339 1.23766 0
M  V30 127 H 9.8477 0.662411 -0.0459059 0
M  V30 128 H 12.3777 1.90066 -0.757365 0
M  V30 129 H 12.3877 4.06129 0.390305 0
M  V30 130 H 11.0627 4.08865 -0.761725 0
M  V30 131 H 9.6397 3.5921 1.00114 0
M  V30 132 N 11.8248 0.280983 1.55075 0
M  V30 133 C 12.7348 -0.61388 2.26426 0
M  V30 134 C 13.7508 -1.16521 1.29224 0
M  V30 135 O 14.9268 -1.19426 1.62171 0
M  V30 136 C 11.9918 -1.7788 2.9759 0
M  V30 137 C 11.0528 -1.26355 4.10284 0
M  V30 138 C 10.2858 -2.37295 4.78045 0
M  V30 139 O 10.5088 -3.56777 4.45047 0
M  V30 140 O 9.4428 -2.05119 5.65871 0
M  V30 141 H 13.2688 -0.0356932 3.03679 0
M  V30 142 H 10.8538 0.0481686 1.49322 0
M  V30 143 H 12.7358 -2.45791 3.42293 0
M  V30 144 H 11.4108 -2.34397 2.23249 0
M  V30 145 H 10.3178 -0.550735 3.70024 0
M  V30 146 H 11.6508 -0.744065 4.86543 0
M  V30 147 N 13.3029 -1.57598 0.00835791 0
M  V30 148 C 14.5279 -1.95617 -0.689103 0
M  V30 149 C 14.9529 -0.883753 -1.66046 0
M  V30 150 O 14.3109 0.157352 -1.80616 0
M  V30 151 C 14.3589 -3.32736 -1.38994 0
M  V30 152 O 13.4629 -3.27631 -2.50463 0
M  V30 153 H 12.8039 -0.638379 -0.182668 0
M  V30 154 H 15.3339 -2.045 0.064036 0
M  V30 155 H 15.3439 -3.68494 -1.75147 0
M  V30 156 H 14.0189 -4.1034 -0.677778 0
M  V30 157 H 12.5959 -3.03561 -2.16576 0
M  V30 158 N 14.781 0.264519 -1.55364 0
M  V30 159 C 16.027 0.99646 -1.76631 0
M  V30 160 C 16.36 1.85632 -0.570478 0
M  V30 161 O 15.635 1.89647 0.43175 0
M  V30 162 C 15.918 1.87187 -3.07625 0
M  V30 163 C 15.771 1.04138 -4.37579 0
M  V30 164 C 17.09 2.85749 -3.34717 0
M  V30 165 H 14.209 0.360841 -0.642622 0
M  V30 166 H 16.851 0.268218 -1.88097 0
M  V30 167 H 15.001 2.49279 -2.9798 0
M  V30 168 H 16.673 0.440517 -4.59192 0
M  V30 169 H 14.916 0.345115 -4.32425 0
M  V30 170 H 15.587 1.68729 -5.2558 0
M  V30 171 H 18.063 2.33793 -3.4421 0
M  V30 172 H 16.939 3.44136 -4.27623 0
M  V30 173 H 17.2 3.61311 -2.54768 0
M  V30 174 N 16.2591 1.48442 0.529413 0
M  V30 175 C 17.4841 1.60406 1.31471 0
M  V30 176 C 17.9091 0.264738 1.86228 0
M  V30 177 O 17.2671 -0.763668 1.64432 0
M  V30 178 C 17.3151 2.65419 2.44101 0
M  V30 179 O 16.4191 2.22618 3.47153 0
M  V30 180 H 15.7601 0.537863 0.389357 0
M  V30 181 H 18.2901 1.94432 0.636965 0
M  V30 182 H 18.3001 2.86709 2.90279 0
M  V30 183 H 16.9751 3.62652 2.03608 0
M  V30 184 H 15.5521 2.11543 3.0709 0
M  V30 185 N 17.7372 -0.778329 1.37039 0
M  V30 186 C 18.6472 -1.92253 1.34446 0
M  V30 187 C 19.6632 -1.72267 0.244991 0
M  V30 188 O 20.8392 -1.95615 0.479258 0
M  V30 189 C 17.9042 -3.27282 1.144 0
M  V30 190 C 16.9652 -3.59969 2.33925 0
M  V30 191 C 16.1982 -4.88555 2.14825 0
M  V30 192 O 16.4212 -5.59113 1.12912 0
M  V30 193 O 15.3552 -5.20153 3.02861 0
M  V30 194 H 19.1812 -1.97392 2.30803 0
M  V30 195 H 16.7662 -0.920154 1.17701 0
M  V30 196 H 18.6482 -4.08062 1.05182 0
M  V30 197 H 17.3232 -3.23011 0.211124 0
M  V30 198 H 16.2302 -2.7945 2.48714 0
M  V30 199 H 17.5632 -3.68976 3.25757 0
M  V30 200 N 19.2153 -1.21501 -1.00376 0
M  V30 201 C 20.4633 -1.03095 -1.73827 0
M  V30 202 C 20.7843 0.436341 -1.90055 0
M  V30 203 O 20.0543 1.31466 -1.45236 0
M  V30 204 H 18.6343 -0.378487 -0.644016 0
M  V30 205 H 21.2963 -1.52831 -1.20949 0
M  V30 206 H 20.3923 -1.49991 -2.73695 0
M  V30 207 N 20.6934 1.19889 -1.02296 0
M  V30 208 C 21.6434 2.20777 -0.56934 0
M  V30 209 C 22.6274 1.56379 0.378741 0
M  V30 210 O 23.8194 1.75859 0.200673 0
M  V30 211 C 20.9484 3.43196 0.0845077 0
M  V30 212 C 20.0344 4.14749 -0.88566 0
M  V30 213 N 20.4254 4.62584 -2.04573 0
M  V30 214 C 18.7234 4.40347 -0.707835 0
M  V30 215 C 19.4244 5.17466 -2.65714 0
M  V30 216 N 18.4004 5.0791 -1.93723 0
M  V30 217 H 22.2024 2.55434 -1.45365 0
M  V30 218 H 19.7164 1.35897 -0.88915 0
M  V30 219 H 21.7134 4.14707 0.427067 0
M  V30 220 H 20.3734 3.10042 0.964574 0
M  V30 221 H 21.3844 4.57597 -2.4254 0
M  V30 222 H 18.0614 4.17317 0.12364 0
M  V30 223 H 19.4514 5.64808 -3.63925 0
M  V30 224 N 22.1715 0.800033 1.35784 0
M  V30 225 C 23.5825 0.439142 1.81462 0
M  V30 226 C 23.9335 -1.03813 1.66485 0
M  V30 227 O 23.0585 -1.80626 1.19177 0
M  V30 228 C 23.6535 0.790314 3.29453 0
M  V30 229 C 22.2125 0.482111 3.733 0
M  V30 230 C 21.3595 1.01938 2.57883 0
M  V30 231 H 24.3105 0.992254 1.23855 0
M  V30 232 H 24.3315 0.0853677 3.80404 0
M  V30 233 H 23.8435 1.86554 3.40322 0
M  V30 234 H 21.9445 -0.584652 3.67984 0
M  V30 235 H 22.0575 1.01015 4.6833 0
M  V30 236 H 20.4215 0.442043 2.50835 0
M  V30 237 H 21.2045 2.10059 2.71533 0
M  V30 238 N 23.6496 -1.47581 0.552962 0
M  V30 239 C 24.9266 -1.95563 -0.0381515 0
M  V30 240 C 25.3066 -1.49552 -1.48988 0
M  V30 241 O 24.6546 -0.732414 -2.16444 0
M  V30 242 C 24.8646 -3.48848 0.102919 0
M  V30 243 C 26.2126 -4.24577 -0.0446082 0
M  V30 244 O 27.2366 -3.56187 0.0302548 0
M  V30 245 O 26.0956 -5.46116 -0.204923 0
M  V30 246 H 23.1896 -0.824321 -0.0665067 0
M  V30 247 H 25.7356 -1.58001 0.619186 0
M  V30 248 H 24.5076 -3.75129 1.11328 0
M  V30 249 H 24.1306 -3.93165 -0.592224 0
M  V30 250 N 25.1277 -0.289203 -1.54924 0
M  V30 251 C 26.0747 0.592115 -2.23075 0
M  V30 252 C 27.0447 1.13881 -1.20915 0
M  V30 253 O 28.2297 1.18551 -1.495 0
M  V30 254 C 25.3697 1.76376 -2.96623 0
M  V30 255 C 24.4827 1.24959 -4.13533 0
M  V30 256 C 23.6177 2.38416 -4.74691 0
M  V30 257 C 22.6567 1.84072 -5.83767 0
M  V30 258 N 21.7937 2.91057 -6.38929 0
M  V30 259 H 26.6337 0.00432038 -2.98 0
M  V30 260 H 24.1707 -0.00963529 -1.47097 0
M  V30 261 H 26.1287 2.45268 -3.3749 0
M  V30 262 H 24.7587 2.32337 -2.24097 0
M  V30 263 H 23.8107 0.453307 -3.77689 0
M  V30 264 H 25.1227 0.811662 -4.92152 0
M  V30 265 H 24.2767 3.15276 -5.18349 0
M  V30 266 H 23.0157 2.8553 -3.95378 0
M  V30 267 H 22.0207 1.05697 -5.39545 0
M  V30 268 H 23.2457 1.37877 -6.64956 0
M  V30 269 H 21.1917 3.37526 -5.62505 0
M  V30 270 H 21.1087 2.51724 -7.12861 0
M  V30 271 H 22.3767 3.6785 -6.87246 0
M  V30 272 N 26.6058 1.57591 -0.0167156 0
M  V30 273 C 27.8548 1.90461 0.663877 0
M  V30 274 C 28.1678 0.893515 1.73999 0
M  V30 275 O 29.3738 1.11302 2.47637 0
M  V30 276 C 27.8298 3.38155 1.23204 0
M  V30 277 C 27.4378 4.47597 0.189866 0
M  V30 278 C 29.1818 3.80111 1.88986 0
M  V30 279 C 27.0888 5.86379 0.768964 0
M  V30 280 H 26.0188 0.710738 0.251729 0
M  V30 281 H 28.6698 1.83326 -0.0799926 0
M  V30 282 H 27.0518 3.40182 2.02712 0
M  V30 283 H 28.2258 4.57112 -0.581846 0
M  V30 284 H 26.5408 4.14766 -0.368475 0
M  V30 285 H 29.1378 4.81145 2.33247 0
M  V30 286 H 29.4808 3.14511 2.72743 0
M  V30 287 H 30.0138 3.80454 1.16187 0
M  V30 288 H 26.7528 6.55493 -0.0301957 0
M  V30 289 H 26.2728 5.80496 1.50945 0
M  V30 290 H 27.9518 6.34563 1.26251 0
M  V30 291 N 28.0839 -0.256276 1.55502 0
M  V30 292 C 29.0469 -1.30047 1.88734 0
M  V30 293 C 30.0469 -1.4154 0.763086 0
M  V30 294 O 31.2369 -1.40403 1.03115 0
M  V30 295 C 28.3689 -2.67953 2.10747 0
M  V30 296 H 29.5619 -1.01802 2.82093 0
M  V30 297 H 27.1149 -0.495134 1.4825 0
M  V30 298 H 27.8499 -3.01351 1.19825 0
M  V30 299 H 27.6349 -2.60993 2.92617 0
M  V30 300 H 29.1249 -3.43368 2.37673 0
M  V30 301 N 29.562 -1.4872 -0.521534 0
M  V30 302 C 30.839 -1.4766 -1.2828 0
M  V30 303 C 31.219 -0.19292 -2.10217 0
M  V30 304 O 30.567 0.825193 -2.13079 0
M  V30 305 C 30.777 -2.74358 -2.15705 0
M  V30 306 C 32.125 -3.23028 -2.75569 0
M  V30 307 O 33.149 -2.75333 -2.25987 0
M  V30 308 O 32.008 -4.0604 -3.65778 0
M  V30 309 H 29.102 -0.590085 -0.579421 0
M  V30 310 H 31.648 -1.60963 -0.537492 0
M  V30 311 H 30.42 -3.59292 -1.54999 0
M  V30 312 H 30.043 -2.63816 -2.97467 0
M  V30 313 N 31.0401 0.771051 -1.3745 0
M  V30 314 C 31.9721 1.89352 -1.29146 0
M  V30 315 C 32.9851 1.61477 -0.207124 0
M  V30 316 O 34.1741 1.72382 -0.463324 0
M  V30 317 C 31.2741 3.24596 -0.974195 0
M  V30 318 C 30.4471 3.80111 -2.16413 0
M  V30 319 C 29.5061 4.93832 -1.81703 0
M  V30 320 O 28.5321 5.09382 -2.54006 0
M  V30 321 N 29.7341 5.75483 -0.761573 0
M  V30 322 H 32.4991 1.96991 -2.25864 0
M  V30 323 H 30.0601 0.950191 -1.31084 0
M  V30 324 H 32.0521 3.98193 -0.722828 0
M  V30 325 H 30.6221 3.12454 -0.0955527 0
M  V30 326 H 29.8421 2.98284 -2.57721 0
M  V30 327 H 31.1301 4.13932 -2.95867 0
M  V30 328 H 30.5281 5.65469 -0.161609 0
M  V30 329 H 29.0851 6.49302 -0.570064 0
M  V30 330 N 32.5182 1.22032 0.997298 0
M  V30 331 C 33.7672 1.03637 1.73038 0
M  V30 332 C 34.0802 -0.429475 1.90827 0
M  V30 333 O 35.2862 -0.732995 2.61418 0
M  V30 334 C 33.7422 1.80582 3.11317 0
M  V30 335 C 33.3502 3.31387 3.01474 0
M  V30 336 C 35.0942 1.70621 3.88701 0
M  V30 337 C 33.0012 4.00791 4.3488 0
M  V30 338 H 31.9312 0.384179 0.648785 0
M  V30 339 H 34.5822 1.4584 1.11368 0
M  V30 340 H 32.9642 1.31175 3.73643 0
M  V30 341 H 34.1382 3.88155 2.4834 0
M  V30 342 H 32.4532 3.41976 2.37575 0
M  V30 343 H 35.0502 2.19799 4.87434 0
M  V30 344 H 35.3932 0.665823 4.10941 0
M  V30 345 H 35.9262 2.17547 3.33044 0
M  V30 346 H 32.6652 5.05064 4.1784 0
M  V30 347 H 32.1852 3.48811 4.87945 0
M  V30 348 H 33.8642 4.06139 5.03647 0
M  V30 349 N 33.9963 -1.19345 1.0293 0
M  V30 350 C 35.2213 -1.93538 0.745511 0
M  V30 351 C 35.6463 -1.75007 -0.689511 0
M  V30 352 O 35.0043 -1.05265 -1.47611 0
M  V30 353 C 35.0523 -3.43336 1.10239 0
M  V30 354 O 34.1563 -4.11806 0.221289 0
M  V30 355 H 33.4973 -0.604193 0.275404 0
M  V30 356 H 36.0273 -1.5141 1.37609 0
M  V30 357 H 36.0373 -3.94004 1.05947 0
M  V30 358 H 34.7123 -3.56146 2.14786 0
M  V30 359 H 33.2893 -3.715 0.322842 0
M  V30 360 N 35.4744 -0.807222 -1.35358 0
M  V30 361 C 36.7514 -0.311126 -1.9311 0
M  V30 362 C 37.1314 1.19937 -1.73719 0
M  V30 363 O 36.4794 1.99918 -1.10657 0
M  V30 364 C 36.6894 -0.723226 -3.41424 0
M  V30 365 C 38.0374 -0.713078 -4.18569 0
M  V30 366 O 39.0614 -0.664811 -3.49941 0
M  V30 367 O 37.9204 -0.772022 -5.41019 0
M  V30 368 H 35.0144 -0.081526 -0.822972 0
M  V30 369 H 37.5604 -0.890962 -1.4443 0
M  V30 370 H 36.3324 -1.76426 -3.4927 0
M  V30 371 H 35.9554 -0.118232 -3.97424 0
M  V30 372 N 36.9525 1.47285 -0.560781 0
M  V30 373 C 37.9155 2.28535 0.174488 0
M  V30 374 C 38.9155 1.37153 0.839388 0
M  V30 375 O 40.1055 1.59748 0.694702 0
M  V30 376 C 37.2375 3.16934 1.25561 0
M  V30 377 H 38.4305 2.95012 -0.539262 0
M  V30 378 H 35.9835 1.53034 -0.317865 0
M  V30 379 H 36.7185 2.55157 2.00164 0
M  V30 380 H 36.5035 3.8419 0.783604 0
M  V30 381 H 37.9935 3.78143 1.77193 0
M  V30 382 N 38.4306 0.297415 1.54768 0
M  V30 383 C 39.6766 -0.313376 2.00364 0
M  V30 384 C 40.0096 -1.53815 1.18553 0
M  V30 385 O 39.2846 -1.92739 0.261103 0
M  V30 386 C 39.5676 -0.673525 3.53745 0
M  V30 387 C 39.4206 0.560133 4.46299 0
M  V30 388 C 40.7396 -1.50143 4.13697 0
M  V30 389 H 37.8586 -0.112428 0.728374 0
M  V30 390 H 40.5006 0.4088 1.8555 0
M  V30 391 H 38.6506 -1.28881 3.665 0
M  V30 392 H 40.3226 1.19863 4.45455 0
M  V30 393 H 38.5656 1.19405 4.17043 0
M  V30 394 H 39.2366 0.26405 5.51368 0
M  V30 395 H 41.7126 -0.981588 4.04356 0
M  V30 396 H 40.5886 -1.72221 5.21182 0
M  V30 397 H 40.8496 -2.48952 3.65343 0
M  V30 398 N 39.9087 -1.5758 0.0250728 0
M  V30 399 C 40.8387 -2.13007 -0.956575 0
M  V30 400 C 41.8197 -1.0452 -1.342 0
M  V30 401 O 43.0047 -1.32332 -1.42133 0
M  V30 402 C 40.1347 -2.65386 -2.24026 0
M  V30 403 C 39.0887 -3.78623 -1.99571 0
M  V30 404 C 38.4147 -4.17414 -3.3417 0
M  V30 405 C 39.7147 -5.04867 -1.33814 0
M  V30 406 H 41.4087 -2.9528 -0.494991 0
M  V30 407 H 38.9547 -1.42042 -0.236651 0
M  V30 408 H 40.9077 -3.02794 -2.93076 0
M  V30 409 H 39.6317 -1.80268 -2.72343 0
M  V30 410 H 38.2907 -3.41646 -1.32941 0
M  V30 411 H 37.9387 -3.29284 -3.80238 0
M  V30 412 H 37.6387 -4.93719 -3.18615 0
M  V30 413 H 39.1627 -4.57402 -4.04495 0
M  V30 414 H 40.5767 -5.39888 -1.92857 0
M  V30 415 H 38.9737 -5.86144 -1.28669 0
M  V30 416 H 40.0437 -4.83904 -0.310561 0
M  V30 417 N 41.3868 0.248026 -1.55636 0
M  V30 418 C 42.6638 0.998988 -1.68165 0
M  V30 419 C 43.0438 2.03409 -0.564621 0
M  V30 420 O 42.3918 2.24378 0.432076 0
M  V30 421 C 42.6018 1.63334 -3.0842 0
M  V30 422 C 43.9498 2.13562 -3.66983 0
M  V30 423 O 44.9738 1.73277 -3.11213 0
M  V30 424 O 43.8328 2.87526 -4.64749 0
M  V30 425 H 40.9268 0.464933 -0.683935 0
M  V30 426 H 43.4728 0.241902 -1.67967 0
M  V30 427 H 42.2448 0.884583 -3.8117 0
M  V30 428 H 41.8678 2.45666 -3.12624 0
M  V30 429 N 42.8649 1.48995 0.513639 0
M  V30 430 C 43.8279 1.64229 1.59879 0
M  V30 431 C 44.8279 0.514696 1.5234 0
M  V30 432 O 46.0179 0.78087 1.55718 0
M  V30 433 C 43.1499 1.62783 2.99524 0
M  V30 434 H 44.3429 2.61004 1.47705 0
M  V30 435 H 41.8959 1.37837 0.736936 0
M  V30 436 H 42.6309 0.675461 3.17188 0
M  V30 437 H 42.4159 2.4466 3.06404 0
M  V30 438 H 43.9059 1.76669 3.78388 0
M  V30 439 N 44.343 -0.763751 1.37857 0
M  V30 440 C 45.592 -1.51789 1.32827 0
M  V30 441 C 45.905 -1.95426 -0.0823719 0
M  V30 442 O 47.111 -2.70298 -0.255172 0
M  V30 443 C 45.567 -2.74133 2.33193 0
M  V30 444 C 45.175 -2.37562 3.79827 0
M  V30 445 C 46.919 -3.52054 2.37188 0
M  V30 446 C 44.826 -3.56456 4.71904 0
M  V30 447 H 43.756 -0.569896 0.493695 0
M  V30 448 H 46.407 -0.835822 1.63359 0
M  V30 449 H 44.789 -3.4427 1.9569 0
M  V30 450 H 45.963 -1.75157 4.26212 0
M  V30 451 H 44.278 -1.72798 3.78853 0
M  V30 452 H 46.875 -4.40437 3.03182 0
M  V30 453 H 47.218 -3.92486 1.38782 0
M  V30 454 H 47.751 -2.88921 2.7344 0
M  V30 455 H 44.49 -3.21099 5.71468 0
M  V30 456 H 44.01 -4.17938 4.30218 0
M  V30 457 H 45.689 -4.23168 4.89426 0
M  V30 458 N 45.8211 -1.22559 -0.990812 0
M  V30 459 C 46.7511 -1.0218 -2.09956 0
M  V30 460 C 47.7321 0.0579394 -1.70001 0
M  V30 461 O 48.9171 -0.104684 -1.93918 0
M  V30 462 C 46.0471 -0.601023 -3.4206 0
M  V30 463 C 45.0011 -1.62694 -3.95872 0
M  V30 464 C 44.3271 -1.06193 -5.24049 0
M  V30 465 C 45.6271 -3.01743 -4.2632 0
M  V30 466 H 47.3211 -1.94916 -2.27262 0
M  V30 467 H 44.8671 -0.938566 -1.09211 0
M  V30 468 H 46.8201 -0.445561 -4.19038 0
M  V30 469 H 45.5441 0.362005 -3.24588 0
M  V30 470 H 44.2031 -1.77021 -3.21028 0
M  V30 471 H 43.8511 -0.0901903 -5.02919 0
M  V30 472 H 43.5511 -1.74732 -5.61019 0
M  V30 473 H 45.0751 -0.918092 -6.03658 0
M  V30 474 H 46.4891 -2.90777 -4.94087 0
M  V30 475 H 44.8861 -3.67425 -4.74467 0
M  V30 476 H 45.9561 -3.51518 -3.34011 0
M  V30 477 N 47.2992 1.18797 -1.03562 0
M  V30 478 C 48.2092 2.25913 -0.632505 0
M  V30 479 C 49.2252 1.70668 0.338882 0
M  V30 480 O 50.4012 2.00453 0.195076 0
M  V30 481 C 47.4662 3.467 0.00350942 0
M  V30 482 C 46.5272 4.17098 -1.01624 0
M  V30 483 C 45.7602 5.32119 -0.410478 0
M  V30 484 O 45.9832 5.64976 0.784725 0
M  V30 485 O 44.9172 5.9107 -1.13667 0
M  V30 486 H 48.7432 2.62648 -1.52478 0
M  V30 487 H 46.3282 1.25781 -0.806195 0
M  V30 488 H 48.2102 4.19878 0.35781 0
M  V30 489 H 46.8852 3.11798 0.869686 0
M  V30 490 H 45.7922 3.4601 -1.42224 0
M  V30 491 H 47.1252 4.55987 -1.85301 0
M  V30 492 N 48.7773 0.814389 1.34928 0
M  V30 493 C 49.7093 0.187834 2.28429 0
M  V30 494 C 50.7223 -0.617374 1.5064 0
M  V30 495 O 51.9113 -0.448454 1.72775 0
M  V30 496 C 49.0113 -0.755962 3.30361 0
M  V30 497 C 48.1843 0.00456686 4.374 0
M  V30 498 C 47.2433 -0.858876 5.19143 0
M  V30 499 O 46.2693 -0.306968 5.68372 0
M  V30 500 N 47.4713 -2.17988 5.38016 0
M  V30 501 H 50.2363 0.991105 2.82838 0
M  V30 502 H 47.7973 0.670561 1.4736 0
M  V30 503 H 49.7893 -1.338 3.81942 0
M  V30 504 H 48.3593 -1.46001 2.7641 0
M  V30 505 H 47.5793 0.767865 3.86649 0
M  V30 506 H 48.8673 0.528422 5.06049 0
M  V30 507 H 48.2653 -2.65212 4.99679 0
M  V30 508 H 46.8223 -2.71098 5.92747 0
M  V30 509 N 50.2554 -1.46986 0.568584 0
M  V30 510 C 51.5324 -1.95592 -0.0174074 0
M  V30 511 C 51.9124 -1.51124 -1.47393 0
M  V30 512 O 51.2604 -0.755329 -2.15655 0
M  V30 513 C 51.4704 -3.48719 0.139913 0
M  V30 514 C 52.8184 -4.246 0.000426376 0
M  V30 515 O 53.8424 -3.56135 0.0680316 0
M  V30 516 O 52.7014 -5.46302 -0.146988 0
M  V30 517 H 49.7954 -0.82498 -0.0577599 0
M  V30 518 H 52.3414 -1.57335 0.635909 0
M  V30 519 H 51.1134 -3.73927 1.15301 0
M  V30 520 H 50.7364 -3.93771 -0.550491 0
M  V30 521 N 51.7335 -0.305618 -1.54608 0
M  V30 522 C 53.1445 0.186098 -1.8577 0
M  V30 523 C 53.4955 1.53058 -1.22751 0
M  V30 524 O 52.6205 2.09888 -0.526893 0
M  V30 525 C 53.2155 0.344449 -3.37044 0
M  V30 526 C 51.7745 0.780384 -3.68221 0
M  V30 527 C 50.9215 -0.108554 -2.77087 0
M  V30 528 H 53.8725 -0.526485 -1.49712 0
M  V30 529 H 53.8935 1.17828 -3.61796 0
M  V30 530 H 53.4055 -0.634235 -3.82883 0
M  V30 531 H 51.5065 1.76945 -3.27904 0
M  V30 532 H 51.6195 0.596572 -4.75371 0
M  V30 533 H 49.9835 0.412931 -2.5133 0
M  V30 534 H 50.7665 -1.08368 -3.25747 0
M  V30 535 N 53.2116 1.57565 -0.0334293 0
M  V30 536 C 54.1586 2.10478 0.946981 0
M  V30 537 C 55.1286 1.00787 1.32027 0
M  V30 538 O 56.3136 1.28232 1.41284 0
M  V30 539 C 53.4536 2.63994 2.22263 0
M  V30 540 C 52.5666 3.87709 1.90541 0
M  V30 541 C 51.7016 4.29604 3.12433 0
M  V30 542 C 50.7406 5.46065 2.76549 0
M  V30 543 N 49.8776 5.83096 3.9108 0
M  V30 544 H 54.7176 2.93963 0.488846 0
M  V30 545 H 52.2546 1.45296 0.22969 0
M  V30 546 H 54.2126 2.93114 2.96884 0
M  V30 547 H 52.8426 1.83333 2.65685 0
M  V30 548 H 51.8946 3.65291 1.06144 0
M  V30 549 H 53.2066 4.72403 1.60116 0
M  V30 550 H 52.3606 4.60182 3.9537 0
M  V30 551 H 51.0996 3.43685 3.46023 0
M  V30 552 H 50.1046 5.15176 1.92026 0
M  V30 553 H 51.3296 6.33685 2.44171 0
M  V30 554 H 49.2756 5.00132 4.24504 0
M  V30 555 H 49.1926 6.6244 3.64293 0
M  V30 556 H 50.4606 6.18282 4.74708 0
M  V30 557 N 54.6897 -0.239769 1.55765 0
M  V30 558 C 55.6527 -1.28038 1.90103 0
M  V30 559 C 56.6527 -1.40723 0.778055 0
M  V30 560 O 57.8427 -1.39301 1.04599 0
M  V30 561 C 54.9747 -2.65702 2.13577 0
M  V30 562 H 56.1677 -0.988048 2.83157 0
M  V30 563 H 53.7207 -0.479382 1.48767 0
M  V30 564 H 54.4557 -3.00063 1.23015 0
M  V30 565 H 54.2407 -2.57875 2.95369 0
M  V30 566 H 55.7307 -3.40828 2.41301 0
M  V30 567 N 56.1678 -1.49265 -0.50573 0
M  V30 568 C 57.5838 -1.35923 -0.836486 0
M  V30 569 C 57.7838 -0.388704 -1.97715 0
M  V30 570 O 56.8398 0.181336 -2.51848 0
M  V30 571 C 58.1528 -2.76531 -1.18115 0
M  V30 572 C 59.7008 -2.85197 -1.28964 0
M  V30 573 C 60.1758 -4.26561 -1.66761 0
M  V30 574 N 61.6668 -4.2935 -1.73819 0
M  V30 575 C 62.4018 -5.35693 -2.045 0
M  V30 576 N 61.8978 -6.52287 -2.33438 0
M  V30 577 N 63.6908 -5.23105 -2.05711 0
M  V30 578 H 55.8418 -2.10965 0.246519 0
M  V30 579 H 58.1048 -0.9468 0.0476887 0
M  V30 580 H 57.8108 -3.49226 -0.416398 0
M  V30 581 H 57.6848 -3.11599 -2.1257 0
M  V30 582 H 60.0718 -2.12742 -2.04511 0
M  V30 583 H 60.1528 -2.53718 -0.325704 0
M  V30 584 H 59.7968 -4.99541 -0.917656 0
M  V30 585 H 59.7268 -4.55502 -2.64246 0
M  V30 586 H 62.2178 -3.4526 -1.53635 0
M  V30 587 H 62.5308 -7.29158 -2.56024 0
M  V30 588 H 60.8758 -6.55521 -2.30905 0
M  V30 589 H 64.0668 -4.31026 -1.82577 0
M  V30 590 H 64.2398 -6.06078 -2.29289 0
M  V30 591 N 57.6459 0.756429 -1.3826 0
M  V30 592 C 58.8919 1.51772 -1.34511 0
M  V30 593 C 59.2249 1.94089 0.0656691 0
M  V30 594 O 58.4999 1.65221 1.02626 0
M  V30 595 C 58.7829 2.77226 -2.29821 0
M  V30 596 C 58.6359 2.41065 -3.79747 0
M  V30 597 C 59.9549 3.79236 -2.23312 0
M  V30 598 H 57.0739 0.550578 -0.489931 0
M  V30 599 H 59.7159 0.866607 -1.69086 0
M  V30 600 H 57.8659 3.32784 -2.00467 0
M  V30 601 H 59.5379 1.91303 -4.19763 0
M  V30 602 H 57.7809 1.7356 -3.97567 0
M  V30 603 H 58.4519 3.3081 -4.41892 0
M  V30 604 H 60.9279 3.3321 -2.49219 0
M  V30 605 H 59.8039 4.64714 -2.92116 0
M  V30 606 H 60.0649 4.24615 -1.23102 0
M  V30 607 N 59.124 1.23083 0.984299 0
M  V30 608 C 60.087 1.00979 2.05757 0
M  V30 609 C 61.087 -0.0269573 1.60777 0
M  V30 610 O 62.277 0.212403 1.729 0
M  V30 611 C 59.409 0.527072 3.36801 0
M  V30 612 H 60.602 1.9622 2.26799 0
M  V30 613 H 58.155 1.05072 1.15714 0
M  V30 614 H 58.89 -0.429294 3.21446 0
M  V30 615 H 58.675 1.27515 3.70786 0
M  V30 616 H 60.165 0.392942 4.15747 0
M  V30 617 N 60.6021 -1.18246 1.0419 0
M  V30 618 C 61.8421 -1.89948 0.754916 0
M  V30 619 C 62.2061 -1.78608 -0.70451 0
M  V30 620 O 63.4071 -2.4503 -1.10516 0
M  V30 621 C 61.6781 -3.36305 1.20969 0
M  V30 622 S 63.2371 -4.26088 1.04854 0
M  V30 623 H 60.0551 -0.655897 0.274446 0
M  V30 624 H 62.6571 -1.42873 1.33445 0
M  V30 625 H 61.3611 -3.42089 2.26722 0
M  V30 626 H 60.8921 -3.8842 0.624004 0
M  V30 627 H 62.9071 -4.96189 -0.0332896 0
M  V30 628 N 62.0802 -0.821533 -1.34494 0
M  V30 629 C 62.9902 -0.244355 -2.33324 0
M  V30 630 C 64.0062 0.620527 -1.62559 0
M  V30 631 O 65.1822 0.528754 -1.94335 0
M  V30 632 C 62.2472 0.585368 -3.41723 0
M  V30 633 C 61.3082 -0.301752 -4.28238 0
M  V30 634 C 60.5412 0.488466 -5.3146 0
M  V30 635 O 60.7642 1.72186 -5.4379 0
M  V30 636 O 59.6982 -0.12848 -6.01763 0
M  V30 637 H 63.5242 -1.06231 -2.84515 0
M  V30 638 H 61.1092 -0.583645 -1.37528 0
M  V30 639 H 62.9912 1.05747 -4.07916 0
M  V30 640 H 61.6662 1.38068 -2.92778 0
M  V30 641 H 60.5732 -0.821315 -3.64973 0
M  V30 642 H 61.9062 -1.06138 -4.8062 0
M  V30 643 N 63.5583 1.46682 -0.576371 0
M  V30 644 C 64.7863 2.06798 -0.0649635 0
M  V30 645 C 65.2013 1.42612 1.23723 0
M  V30 646 O 64.5583 0.529203 1.74659 0
M  V30 647 C 64.6093 3.6132 0.114202 0
M  V30 648 O 64.3303 4.23104 -1.13644 0
M  V30 649 C 65.8313 4.38349 0.66069 0
M  V30 650 H 63.0513 0.668778 -0.0545616 0
M  V30 651 H 65.5953 1.88404 -0.795237 0
M  V30 652 H 63.7503 3.79162 0.794673 0
M  V30 653 H 64.1643 5.15894 -0.946253 0
M  V30 654 H 65.6383 5.47081 0.73526 0
M  V30 655 H 66.1153 4.05953 1.67627 0
M  V30 656 H 66.7213 4.25297 0.0152951 0
M  V30 657 N 65.0364 0.313813 1.54444 0
M  V30 658 C 66.2664 -0.293491 2.04505 0
M  V30 659 C 66.6744 -1.47086 1.19005 0
M  V30 660 O 66.0174 -1.82481 0.211257 0
M  V30 661 C 66.0794 -0.800455 3.50475 0
M  V30 662 C 65.7434 0.253322 4.56297 0
M  V30 663 C 66.7404 1.08612 5.08428 0
M  V30 664 C 64.4254 0.398708 5.00715 0
M  V30 665 C 66.4194 2.05013 6.0353 0
M  V30 666 C 64.1064 1.36614 5.95634 0
M  V30 667 C 65.1044 2.19033 6.46926 0
M  V30 668 O 64.7924 3.14134 7.39983 0
M  V30 669 H 64.5244 -0.0658325 0.672787 0
M  V30 670 H 67.0784 0.455177 2.00293 0
M  V30 671 H 65.3084 -1.59987 3.52053 0
M  V30 672 H 66.9974 -1.32504 3.83663 0
M  V30 673 H 67.7634 0.984736 4.74898 0
M  V30 674 H 63.6424 -0.23289 4.60411 0
M  V30 675 H 67.1864 2.69382 6.4349 0
M  V30 676 H 63.0834 1.4682 6.28581 0
M  V30 677 H 63.8514 3.0926 7.57826 0
M  V30 678 N 66.5145 -1.57545 0.0417849 0
M  V30 679 C 67.7605 -1.92601 -0.635021 0
M  V30 680 C 68.0935 -0.919627 -1.71045 0
M  V30 681 O 67.3685 0.0557892 -1.9442 0
M  V30 682 C 67.6515 -3.38085 -1.23979 0
M  V30 683 C 67.5045 -4.49467 -0.173057 0
M  V30 684 C 68.8235 -3.83776 -2.15416 0
M  V30 685 H 65.9425 -0.700397 -0.229374 0
M  V30 686 H 68.5845 -1.89728 0.101633 0
M  V30 687 H 66.7345 -3.40664 -1.86762 0
M  V30 688 H 68.4065 -4.59018 0.458312 0
M  V30 689 H 66.6495 -4.30909 0.499996 0
M  V30 690 H 67.3205 -5.48323 -0.636054 0
M  V30 691 H 69.7965 -3.83013 -1.62605 0
M  V30 692 H 68.6725 -4.8624 -2.54679 0
M  V30 693 H 68.9335 -3.19998 -3.05047 0
M  V30 694 N 67.9926 0.231505 -1.5589 0
M  V30 695 C 68.9396 1.28682 -1.91598 0
M  V30 696 C 69.9096 1.47071 -0.771974 0
M  V30 697 O 71.0946 1.60802 -1.027 0
M  V30 698 C 68.2346 2.6342 -2.22944 0
M  V30 699 C 67.3476 2.52912 -3.50228 0
M  V30 700 C 66.4826 3.80106 -3.7107 0
M  V30 701 C 65.5216 3.64279 -4.91902 0
M  V30 702 N 64.6586 4.834 -5.09184 0
M  V30 703 H 69.4986 0.975305 -2.81588 0
M  V30 704 H 67.0356 0.470299 -1.39379 0
M  V30 705 H 68.9936 3.41869 -2.39126 0
M  V30 706 H 67.6236 2.92687 -1.36139 0
M  V30 707 H 66.6756 1.6595 -3.42294 0
M  V30 708 H 67.9876 2.37133 -4.38827 0
M  V30 709 H 67.1416 4.66999 -3.87295 0
M  V30 710 H 65.8806 3.98799 -2.80733 0
M  V30 711 H 64.8856 2.7577 -4.75637 0
M  V30 712 H 66.1106 3.47067 -5.83714 0
M  V30 713 H 64.0566 5.02425 -4.21788 0
M  V30 714 H 63.9736 4.70311 -5.91898 0
M  V30 715 H 65.2416 5.71747 -5.29835 0
M  V30 716 N 69.4707 1.49531 0.497807 0
M  V30 717 C 70.6987 1.62893 1.27567 0
M  V30 718 C 71.1137 0.301585 1.86376 0
M  V30 719 O 70.4707 -0.713335 1.67982 0
M  V30 720 C 70.5217 2.70013 2.40364 0
M  V30 721 O 70.2427 3.976 1.83972 0
M  V30 722 C 71.7437 2.94109 3.31685 0
M  V30 723 H 68.9637 0.548298 0.386794 0
M  V30 724 H 71.5077 1.95584 0.597245 0
M  V30 725 H 69.6627 2.40092 3.04031 0
M  V30 726 H 70.0767 4.56631 2.58047 0
M  V30 727 H 71.5507 3.72788 4.07104 0
M  V30 728 H 72.0277 2.04147 3.88871 0
M  V30 729 H 72.6337 3.2546 2.73781 0
M  V30 730 N 70.9488 -0.749086 1.3866 0
M  V30 731 C 72.1968 -1.50535 1.34847 0
M  V30 732 C 72.5178 -1.94909 -0.0595016 0
M  V30 733 O 71.7878 -1.67973 -1.00806 0
M  V30 734 H 70.3678 -0.558395 0.49619 0
M  V30 735 H 73.0298 -0.890165 1.73384 0
M  V30 736 H 72.1258 -2.39413 2.00219 0
M  V30 737 N 72.4269 -1.23603 -0.977757 0
M  V30 738 C 73.3599 -0.962772 -2.06896 0
M  V30 739 C 74.3379 0.0998743 -1.62293 0
M  V30 740 O 75.5219 -0.0349421 -1.88468 0
M  V30 741 C 72.6489 -0.45095 -3.35685 0
M  V30 742 C 71.6949 -1.50061 -3.99229 0
M  V30 743 S 72.5279 -3.07884 -4.38142 0
M  V30 744 C 73.6839 -2.58378 -5.7008 0
M  V30 745 H 73.9169 -1.88677 -2.29757 0
M  V30 746 H 71.4499 -1.06876 -1.11431 0
M  V30 747 H 73.4079 -0.162261 -4.10179 0
M  V30 748 H 72.0689 0.452179 -3.10828 0
M  V30 749 H 71.2619 -1.09269 -4.92013 0
M  V30 750 H 70.8639 -1.73878 -3.31123 0
M  V30 751 H 73.1559 -2.00563 -6.47133 0
M  V30 752 H 74.0989 -3.49711 -6.15717 0
M  V30 753 H 74.5069 -1.99143 -5.28207 0
M  V30 754 N 73.905 1.17692 -1.04816 0
M  V30 755 C 75.151 1.88137 -0.75711 0
M  V30 756 C 75.484 1.80604 0.713841 0
M  V30 757 O 74.759 1.21146 1.52164 0
M  V30 758 C 75.042 3.38318 -1.2334 0
M  V30 759 C 74.895 3.54622 -2.76701 0
M  V30 760 C 76.214 4.32214 -0.829415 0
M  V30 761 H 73.333 0.683163 -0.27651 0
M  V30 762 H 75.975 1.38424 -1.30149 0
M  V30 763 H 74.125 3.80787 -0.770286 0
M  V30 764 H 75.797 3.21194 -3.31107 0
M  V30 765 H 74.04 2.97026 -3.16161 0
M  V30 766 H 74.711 4.60028 -3.05088 0
M  V30 767 H 77.187 3.97565 -1.22805 0
M  V30 768 H 76.063 5.35838 -1.19033 0
M  V30 769 H 76.324 4.41294 0.266891 0
M  V30 770 N 75.3831 0.828654 1.34056 0
M  V30 771 C 76.3131 0.269443 2.3194 0
M  V30 772 C 77.2941 -0.617247 1.58506 0
M  V30 773 O 78.4791 -0.542931 1.86456 0
M  V30 774 C 75.6091 -0.564793 3.42677 0
M  V30 775 C 74.5631 0.225241 4.27407 0
M  V30 776 C 73.8891 -0.7321 5.29664 0
M  V30 777 C 75.1891 1.43663 5.02154 0
M  V30 778 H 76.8831 1.08728 2.7896 0
M  V30 779 H 74.4291 0.524283 1.34117 0
M  V30 780 H 76.3821 -0.966233 4.10173 0
M  V30 781 H 75.1061 -1.41574 2.9432 0
M  V30 782 H 73.7651 0.608117 3.61521 0
M  V30 783 H 73.4131 -1.57916 4.77568 0
M  V30 784 H 73.1131 -0.20767 5.87233 0
M  V30 785 H 74.6371 -1.13128 6.00029 0
M  V30 786 H 76.0511 1.1089 5.62473 0
M  V30 787 H 74.4481 1.89711 5.69324 0
M  V30 788 H 75.5181 2.21181 4.31517 0
M  V30 789 N 76.8612 -1.46375 0.584142 0
M  V30 790 C 78.1072 -2.02678 0.0703716 0
M  V30 791 C 78.4402 -1.4545 -1.28678 0
M  V30 792 O 77.7152 -0.62014 -1.84349 0
M  V30 793 C 77.9982 -3.60099 0.00614674 0
M  V30 794 C 77.8512 -4.27709 1.3923 0
M  V30 795 C 79.1702 -4.34598 -0.693742 0
M  V30 796 H 76.2892 -0.736504 0.027047 0
M  V30 797 H 78.9312 -1.74501 0.751615 0
M  V30 798 H 77.0812 -3.84236 -0.574009 0
M  V30 799 H 78.7532 -4.14832 2.01773 0
M  V30 800 H 76.9962 -3.87016 1.95962 0
M  V30 801 H 77.6672 -5.36478 1.29982 0
M  V30 802 H 80.1432 -4.15615 -0.200869 0
M  V30 803 H 79.0192 -5.44318 -0.707714 0
M  V30 804 H 79.2802 -4.05759 -1.75533 0
M  V30 805 N 78.3393 -0.321999 -1.54275 0
M  V30 806 C 79.5873 0.280489 -2.00144 0
M  V30 807 C 79.9083 1.52777 -1.21178 0
M  V30 808 O 79.1783 1.9338 -0.313187 0
M  V30 809 H 77.7583 0.106632 -0.73935 0
M  V30 810 H 80.4203 -0.438184 -1.8991 0
M  V30 811 H 79.5163 0.537972 -3.07428 0
M  V30 812 N 79.8174 1.5752 -0.0501392 0
M  V30 813 C 81.0654 1.9227 0.622642 0
M  V30 814 C 81.3864 0.929083 1.71444 0
M  V30 815 O 80.6564 -0.0262186 1.95882 0
M  V30 816 H 79.2364 0.709739 0.232981 0
M  V30 817 H 81.8984 1.94628 -0.102898 0
M  V30 818 H 80.9944 2.93479 1.06191 0
M  V30 819 N 81.2955 -0.223234 1.56011 0
M  V30 820 C 82.2055 -1.29766 1.95443 0
M  V30 821 C 83.2215 -1.51373 0.858028 0
M  V30 822 O 84.3975 -1.64536 1.16146 0
M  V30 823 C 81.4625 -2.62772 2.26167 0
M  V30 824 C 80.5235 -2.49482 3.49367 0
M  V30 825 C 79.7565 -3.76145 3.78616 0
M  V30 826 O 79.9795 -4.79087 3.09568 0
M  V30 827 O 78.9135 -3.73358 4.72109 0
M  V30 828 H 82.7395 -0.99309 2.87004 0
M  V30 829 H 80.3245 -0.425958 1.43199 0
M  V30 830 H 82.2065 -3.41327 2.47131 0
M  V30 831 H 80.8815 -2.92913 1.37781 0
M  V30 832 H 79.7885 -1.69133 3.33684 0
M  V30 833 H 81.1215 -2.2428 4.38131 0
M  V30 834 N 82.7736 -1.49793 -0.48987 0
M  V30 835 C 84.0226 -1.59085 -1.23995 0
M  V30 836 C 84.3356 -0.287907 -1.9347 0
M  V30 837 O 85.5416 -0.259506 -2.70257 0
M  V30 838 C 83.9976 -2.80736 -2.252 0
M  V30 839 C 83.6056 -4.17833 -1.61614 0
M  V30 840 C 85.3496 -2.99364 -3.00967 0
M  V30 841 C 83.2566 -5.30693 -2.60996 0
M  V30 842 H 82.1866 -0.592372 -0.466488 0
M  V30 843 H 84.8376 -1.76197 -0.51252 0
M  V30 844 H 83.2196 -2.57142 -3.01154 0
M  V30 845 H 84.3936 -4.51608 -0.915774 0
M  V30 846 H 82.7086 -4.04656 -0.981977 0
M  V30 847 H 85.3056 -3.80851 -3.75308 0
M  V30 848 H 85.6486 -2.10356 -3.59244 0
M  V30 849 H 86.1816 -3.2305 -2.32128 0
M  V30 850 H 82.9206 -6.21796 -2.07485 0
M  V30 851 H 82.4406 -5.01359 -3.2924 0
M  V30 852 H 84.1196 -5.6049 -3.23202 0
M  V30 853 N 84.2517 0.741722 -1.39055 0
M  V30 854 C 85.4797 1.53098 -1.39171 0
M  V30 855 C 85.8947 1.88794 0.0155099 0
M  V30 856 O 85.2517 1.53626 0.985159 0
M  V30 857 C 85.3027 2.82274 -2.2584 0
M  V30 858 O 85.0237 2.48097 -3.61081 0
M  V30 859 C 86.5247 3.76343 -2.34266 0
M  V30 860 H 83.7447 0.473335 -0.4756 0
M  V30 861 H 86.2887 0.917045 -1.82785 0
M  V30 862 H 84.4437 3.40015 -1.85656 0
M  V30 863 H 84.8577 3.31029 -4.06842 0
M  V30 864 H 86.3317 4.63898 -2.9917 0
M  V30 865 H 86.8087 4.17619 -1.35982 0
M  V30 866 H 87.4147 3.24523 -2.74891 0
M  V30 867 N 85.7298 1.2412 0.971189 0
M  V30 868 C 86.9578 1.10575 1.74874 0
M  V30 869 C 87.3728 -0.342017 1.85676 0
M  V30 870 O 86.7298 -1.23617 1.34258 0
M  V30 871 C 86.7808 1.73579 3.171 0
M  V30 872 O 86.5018 3.12695 3.06844 0
M  V30 873 C 88.0028 1.65598 4.11208 0
M  V30 874 H 85.2228 0.386504 0.548503 0
M  V30 875 H 87.7668 1.64156 1.21955 0
M  V30 876 H 85.9218 1.24009 3.67016 0
M  V30 877 H 86.3358 3.43412 3.96445 0
M  V30 878 H 87.8098 2.1437 5.08674 0
M  V30 879 H 88.2868 0.616532 4.34851 0
M  V30 880 H 88.8928 2.14578 3.67201 0
M  V30 881 N 87.2079 -1.17134 1.05439 0
M  V30 882 C 88.4329 -1.91913 0.786396 0
M  V30 883 C 88.8579 -1.7643 -0.652234 0
M  V30 884 O 88.2159 -1.08372 -1.45345 0
M  V30 885 C 88.2639 -3.40921 1.17497 0
M  V30 886 O 87.3679 -4.11244 0.308589 0
M  V30 887 H 86.7089 -0.598215 0.288158 0
M  V30 888 H 89.2389 -1.48457 1.4079 0
M  V30 889 H 89.2489 -3.91668 1.14281 0
M  V30 890 H 87.9239 -3.5151 2.22292 0
M  V30 891 H 86.5009 -3.70731 0.40157 0
M  V30 892 N 88.686 -0.835752 -1.33615 0
M  V30 893 C 89.649 -0.272 -2.2758 0
M  V30 894 C 90.649 0.557487 -1.50827 0
M  V30 895 O 91.839 0.37173 -1.70188 0
M  V30 896 C 88.971 0.617173 -3.35267 0
M  V30 897 H 90.164 -1.10111 -2.78954 0
M  V30 898 H 87.717 -0.608594 -1.43965 0
M  V30 899 H 88.452 1.46884 -2.89129 0
M  V30 900 H 88.237 0.0237066 -3.92093 0
M  V30 901 H 89.727 1.005 -4.05326 0
M  V30 902 N 90.1641 1.46063 -0.591896 0
M  V30 903 C 91.4101 2.03203 -0.0894879 0
M  V30 904 C 91.7651 1.45407 1.25994 0
M  V30 905 O 91.0581 0.61326 1.8152 0
M  V30 906 C 91.2521 3.57391 0.0249813 0
M  V30 907 C 91.0811 4.30142 -1.3118 0
M  V30 908 C 89.8511 4.68688 -1.88838 0
M  V30 909 C 92.0491 4.63098 -2.23708 0
M  V30 910 N 90.0311 5.26228 -3.1616 0
M  V30 911 C 91.4021 5.21305 -3.3562 0
M  V30 912 C 93.4571 4.45031 -2.23274 0
M  V30 913 C 92.1601 5.63351 -4.47245 0
M  V30 914 C 94.1861 4.881 -3.33935 0
M  V30 915 C 93.5481 5.46386 -4.44569 0
M  V30 916 H 89.6471 0.778323 -0.0757431 0
M  V30 917 H 92.2311 1.78094 -0.78681 0
M  V30 918 H 90.4021 3.82195 0.69149 0
M  V30 919 H 92.1341 4.0118 0.532613 0
M  V30 920 H 88.8891 4.5174 -1.42223 0
M  V30 921 H 89.3131 5.59512 -3.8115 0
M  V30 922 H 93.9551 3.99295 -1.39008 0
M  V30 923 H 91.6731 6.08061 -5.32247 0
M  V30 924 H 95.2591 4.75866 -3.34728 0
M  V30 925 H 94.1391 5.79102 -5.28782 0
M  V30 926 N 91.6422 0.330177 1.54103 0
M  V30 927 C 92.8882 -0.270806 2.00984 0
M  V30 928 C 93.2212 -1.51265 1.21789 0
M  V30 929 O 92.4962 -1.92142 0.301927 0
M  V30 930 C 92.7792 -0.598339 3.55094 0
M  V30 931 C 92.6322 0.654674 4.4501 0
M  V30 932 C 93.9512 -1.41334 4.16789 0
M  V30 933 H 91.0702 -0.0969531 0.730595 0
M  V30 934 H 93.7122 0.448066 1.84641 0
M  V30 935 H 91.8622 -1.21078 3.69151 0
M  V30 936 H 93.5342 1.29285 4.42813 0
M  V30 937 H 91.7772 1.28224 4.14416 0
M  V30 938 H 92.4482 0.380944 5.50684 0
M  V30 939 H 94.9242 -0.895597 4.06347 0
M  V30 940 H 93.8002 -1.61127 5.24718 0
M  V30 941 H 94.0612 -2.41146 3.70541 0
M  V30 942 N 93.1203 -1.57491 0.0584922 0
M  V30 943 C 94.3973 -1.84346 -0.653918 0
M  V30 944 C 94.7773 -0.948355 -1.88599 0
M  V30 945 O 94.1253 -0.0112403 -2.28497 0
M  V30 946 C 94.3353 -3.34239 -1.00425 0
M  V30 947 C 95.6833 -4.01431 -1.38342 0
M  V30 948 O 96.7073 -3.38907 -1.09637 0
M  V30 949 O 95.5663 -5.11683 -1.91943 0
M  V30 950 H 92.6603 -0.761112 -0.323478 0
M  V30 951 H 95.2063 -1.6947 0.0884125 0
M  V30 952 H 93.9783 -3.91089 -0.128625 0
M  V30 953 H 93.6013 -3.54329 -1.80378 0
M  V30 954 N 94.5984 0.214957 -1.56127 0
M  V30 955 C 95.8474 0.936451 -1.78643 0
M  V30 956 C 96.1604 1.85237 -0.628229 0
M  V30 957 O 97.3664 2.613 -0.737186 0
M  V30 958 C 95.8224 1.7154 -3.16389 0
M  V30 959 C 95.4304 0.845299 -4.39953 0
M  V30 960 C 97.1744 2.42772 -3.48227 0
M  V30 961 C 95.0814 1.62198 -5.68723 0
M  V30 962 H 94.0114 0.353401 -0.666051 0
M  V30 963 H 96.6624 0.190169 -1.82512 0
M  V30 964 H 95.0444 2.50484 -3.06715 0
M  V30 965 H 96.2184 0.0959353 -4.607 0
M  V30 966 H 94.5334 0.244789 -4.1568 0
M  V30 967 H 97.1304 3.01394 -4.41663 0
M  V30 968 H 97.4734 3.15984 -2.71035 0
M  V30 969 H 98.0064 1.70813 -3.5926 0
M  V30 970 H 94.7454 0.933011 -6.48826 0
M  V30 971 H 94.2654 2.34579 -5.52026 0
M  V30 972 H 95.9444 2.18095 -6.09133 0
M  V30 973 N 96.0765 1.50051 0.48192 0
M  V30 974 C 96.9865 1.7089 1.60728 0
M  V30 975 C 98.0025 0.591788 1.63627 0
M  V30 976 O 99.1785 0.868817 1.81696 0
M  V30 977 C 96.2435 1.78855 2.97005 0
M  V30 978 C 95.3045 3.02537 3.04581 0
M  V30 979 C 94.5375 3.10112 4.34357 0
M  V30 980 O 94.7605 2.24765 5.24249 0
M  V30 981 O 93.6945 4.02747 4.47301 0
M  V30 982 H 97.5205 2.66264 1.46072 0
M  V30 983 H 95.1055 1.34018 0.660264 0
M  V30 984 H 96.9875 1.86336 3.77964 0
M  V30 985 H 95.6625 0.866628 3.11883 0
M  V30 986 H 94.5695 3.00563 2.22739 0
M  V30 987 H 95.9025 3.94272 2.94636 0
M  V30 988 N 97.5546 -0.734337 1.39446 0
M  V30 989 C 98.4646 -1.87879 1.40495 0
M  V30 990 C 99.4806 -1.714 0.299672 0
M  V30 991 O 100.657 -1.93991 0.541249 0
M  V30 992 C 97.7216 -3.23477 1.24754 0
M  V30 993 C 96.7826 -3.52344 2.45259 0
M  V30 994 C 96.0156 -4.81473 2.30259 0
M  V30 995 O 96.2386 -5.55237 1.30643 0
M  V30 996 O 95.1726 -5.10254 3.19256 0
M  V30 997 H 98.9986 -1.89949 2.36966 0
M  V30 998 H 96.5836 -0.882243 1.20569 0
M  V30 999 H 98.4656 -4.04509 1.18111 0
M  V30 1000 H 97.1406 -3.22176 0.313781 0
M  V30 1001 H 96.0476 -2.71396 2.57478 0
M  V30 1002 H 97.3806 -3.58426 3.37331 0
M  V30 1003 N 99.0327 -1.24633 -0.964593 0
M  V30 1004 C 100.282 -1.08188 -1.7023 0
M  V30 1005 C 100.595 0.37873 -1.91898 0
M  V30 1006 O 101.801 0.663427 -2.6327 0
M  V30 1007 C 100.257 -1.88773 -3.06419 0
M  V30 1008 C 99.8647 -3.39263 -2.92582 0
M  V30 1009 C 101.609 -1.80867 -3.84041 0
M  V30 1010 C 99.5157 -4.1218 -4.24101 0
M  V30 1011 H 98.4457 -0.401245 -0.638372 0
M  V30 1012 H 101.097 -1.48742 -1.07462 0
M  V30 1013 H 99.4787 -1.41035 -3.70034 0
M  V30 1014 H 100.653 -3.94603 -2.37961 0
M  V30 1015 H 98.9677 -3.48154 -2.28424 0
M  V30 1016 H 101.565 -2.32646 -4.81435 0
M  V30 1017 H 101.908 -0.774543 -4.09031 0
M  V30 1018 H 102.441 -2.26301 -3.27159 0
M  V30 1019 H 99.1797 -5.15965 -4.04303 0
M  V30 1020 H 98.6997 -3.61626 -4.78526 0
M  V30 1021 H 100.379 -4.19349 -4.92702 0
M  V30 1022 N 100.511 1.16574 -1.06058 0
M  V30 1023 C 101.739 1.90952 -0.796552 0
M  V30 1024 C 102.154 1.77302 0.648808 0
M  V30 1025 O 101.511 1.11605 1.44397 0
M  V30 1026 C 101.562 3.41736 -1.17894 0
M  V30 1027 O 101.283 3.54975 -2.56758 0
M  V30 1028 C 102.784 4.33169 -0.942308 0
M  V30 1029 H 100.004 0.605594 -0.288959 0
M  V30 1030 H 102.548 1.47777 -1.41358 0
M  V30 1031 H 100.703 3.82623 -0.606491 0
M  V30 1032 H 101.117 4.4846 -2.72 0
M  V30 1033 H 102.591 5.37439 -1.25952 0
M  V30 1034 H 103.068 4.3903 0.122078 0
M  V30 1035 H 103.674 3.98007 -1.49902 0
M  V30 1036 N 101.989 0.842826 1.3317 0
M  V30 1037 C 103.405 0.531128 1.50503 0
M  V30 1038 C 103.605 -0.940734 1.78192 0
M  V30 1039 O 102.661 -1.72436 1.84451 0
M  V30 1040 C 103.974 1.40789 2.65705 0
M  V30 1041 C 105.522 1.40708 2.79589 0
M  V30 1042 C 105.997 2.26878 3.97857 0
M  V30 1043 N 107.488 2.24609 4.05099 0
M  V30 1044 C 108.223 2.88019 4.95815 0
M  V30 1045 N 107.719 3.60496 5.9162 0
M  V30 1046 N 109.512 2.77469 4.88843 0
M  V30 1047 H 101.663 1.79557 1.1346 0
M  V30 1048 H 103.926 0.766267 0.558156 0
M  V30 1049 H 103.632 2.454 2.51936 0
M  V30 1050 H 103.506 1.08677 3.61205 0
M  V30 1051 H 105.893 0.368668 2.92788 0
M  V30 1052 H 105.974 1.76829 1.84838 0
M  V30 1053 H 105.618 3.3078 3.85418 0
M  V30 1054 H 105.548 1.88096 4.91861 0
M  V30 1055 H 108.039 1.71906 3.36536 0
M  V30 1056 H 108.352 4.06076 6.57512 0
M  V30 1057 H 106.697 3.64604 5.91683 0
M  V30 1058 H 109.888 2.20406 4.12963 0
M  V30 1059 H 110.061 3.2717 5.59342 0
M  V30 1060 N 103.467 -1.45747 0.599634 0
M  V30 1061 C 104.415 -2.322 -0.136426 0
M  V30 1062 C 105.409 -1.45497 -0.867583 0
M  V30 1063 O 106.615 -1.62027 -0.78405 0
M  V30 1064 H 102.99 -0.749368 -0.0628588 0
M  V30 1065 H 104.961 -2.92072 0.611281 0
M  V30 1066 C 103.71 -3.28974 -1.12567 0
M  V30 1067 H 103.033 -3.9568 -0.572484 0
M  V30 1068 H 104.473 -3.92212 -1.61077 0
M  V30 1069 C 102.932 -2.55561 -2.19523 0
M  V30 1070 O 103.462 -2.33111 -3.27143 0
M  V30 1071 N 101.668 -2.15832 -1.94589 0
M  V30 1072 H 101.215 -2.3429 -1.07078 0
M  V30 1073 H 101.173 -1.67034 -2.66359 0
M  V30 1074 N 104.945 -0.338344 -1.53925 0
M  V30 1075 C 106.173 0.261298 -2.05243 0
M  V30 1076 C 106.588 1.44625 -1.21363 0
M  V30 1077 O 105.945 1.80811 -0.247736 0
M  V30 1078 C 105.996 0.681412 -3.5502 0
M  V30 1079 O 105.717 -0.456414 -4.35716 0
M  V30 1080 C 107.218 1.34232 -4.22489 0
M  V30 1081 H 104.438 0.0513685 -0.669031 0
M  V30 1082 H 106.982 -0.488822 -1.98572 0
M  V30 1083 H 105.137 1.38148 -3.61931 0
M  V30 1084 H 105.551 -0.122564 -5.24357 0
M  V30 1085 H 107.025 1.58708 -5.28693 0
M  V30 1086 H 107.502 2.29426 -3.74514 0
M  V30 1087 H 108.108 0.684424 -4.19757 0
M  V30 1088 N 106.423 1.57458 -0.0668435 0
M  V30 1089 C 107.669 1.93587 0.6043 0
M  V30 1090 C 108.002 0.946722 1.69561 0
M  V30 1091 O 107.277 -0.0248516 1.94484 0
M  V30 1092 C 107.56 3.40014 1.18585 0
M  V30 1093 C 107.413 4.49685 0.101529 0
M  V30 1094 C 108.732 3.87154 2.09284 0
M  V30 1095 H 105.851 0.703958 0.218202 0
M  V30 1096 H 108.493 1.89542 -0.131804 0
M  V30 1097 H 106.643 3.43592 1.81319 0
M  V30 1098 H 108.315 4.5823 -0.531279 0
M  V30 1099 H 106.558 4.30059 -0.568487 0
M  V30 1100 H 107.229 5.49266 0.54874 0
M  V30 1101 H 109.705 3.85551 1.56491 0
M  V30 1102 H 108.581 4.90231 2.46911 0
M  V30 1103 H 108.842 3.2481 2.99918 0
M  V30 1104 N 107.901 -0.206675 1.56239 0
M  V30 1105 C 109.317 -0.557025 1.49564 0
M  V30 1106 C 109.517 -1.86424 0.764735 0
M  V30 1107 O 108.573 -2.50584 0.310491 0
M  V30 1108 C 109.886 -0.622478 2.94186 0
M  V30 1109 C 111.434 -0.712099 3.04792 0
M  V30 1110 C 111.909 -0.808767 4.50803 0
M  V30 1111 N 113.4 -0.8726 4.54907 0
M  V30 1112 C 114.135 -0.967365 5.65181 0
M  V30 1113 N 113.631 -1.02515 6.85173 0
M  V30 1114 N 115.424 -1.00366 5.53067 0
M  V30 1115 H 107.575 0.650943 2.02179 0
M  V30 1116 H 109.838 0.230387 0.919579 0
M  V30 1117 H 109.544 0.268727 3.50672 0
M  V30 1118 H 109.418 -1.4811 3.46905 0
M  V30 1119 H 111.805 -1.59374 2.48363 0
M  V30 1120 H 111.886 0.172489 2.55218 0
M  V30 1121 H 111.53 0.0684754 5.07854 0
M  V30 1122 H 111.46 -1.70899 4.98098 0
M  V30 1123 H 113.951 -0.837657 3.68499 0
M  V30 1124 H 114.264 -1.09765 7.64965 0
M  V30 1125 H 112.609 -0.994026 6.87855 0
M  V30 1126 H 115.8 -0.95527 4.58249 0
M  V30 1127 H 115.973 -1.07405 6.39037 0
M  V30 1128 N 109.379 -1.50304 -0.473955 0
M  V30 1129 C 110.289 -1.7174 -1.5982 0
M  V30 1130 C 111.305 -0.600457 -1.63311 0
M  V30 1131 O 112.481 -0.878441 -1.81233 0
M  V30 1132 C 109.546 -1.80427 -2.96052 0
M  V30 1133 C 108.607 -3.04148 -3.02972 0
M  V30 1134 C 107.84 -3.12411 -4.32706 0
M  V30 1135 O 108.063 -2.27542 -5.23049 0
M  V30 1136 O 106.997 -4.05113 -4.45159 0
M  V30 1137 H 110.823 -2.67035 -1.44657 0
M  V30 1138 H 108.408 -1.34366 -0.653148 0
M  V30 1139 H 110.29 -1.88338 -3.7697 0
M  V30 1140 H 108.965 -0.883156 -3.11419 0
M  V30 1141 H 107.872 -3.0174 -2.21142 0
M  V30 1142 H 109.205 -3.95829 -2.92541 0
M  V30 1143 N 110.857 0.726932 -1.39834 0
M  V30 1144 C 112.106 1.48214 -1.36805 0
M  V30 1145 C 112.419 1.95576 0.0305291 0
M  V30 1146 O 113.625 2.7088 0.183417 0
M  V30 1147 C 112.081 2.67854 -2.40379 0
M  V30 1148 C 111.689 2.27408 -3.85992 0
M  V30 1149 C 113.433 3.45641 -2.46439 0
M  V30 1150 C 111.34 3.43819 -4.81189 0
M  V30 1151 H 110.27 0.556606 -0.508631 0
M  V30 1152 H 112.921 0.792216 -1.65518 0
M  V30 1153 H 111.303 3.3896 -2.04749 0
M  V30 1154 H 112.477 1.63795 -4.30706 0
M  V30 1155 H 110.792 1.62692 -3.83302 0
M  V30 1156 H 113.389 4.32244 -3.14753 0
M  V30 1157 H 113.732 3.88669 -1.49139 0
M  V30 1158 H 114.265 2.8157 -2.81004 0
M  V30 1159 H 111.004 3.05834 -5.79781 0
M  V30 1160 H 110.524 4.06385 -4.41148 0
M  V30 1161 H 112.203 4.10043 -5.00474 0
M  V30 1162 N 112.336 1.25143 0.95797 0
M  V30 1163 C 113.584 1.09476 1.69881 0
M  V30 1164 C 113.905 -0.365502 1.91544 0
M  V30 1165 O 113.175 -1.25985 1.50015 0
M  V30 1166 H 111.755 0.402128 0.629525 0
M  V30 1167 H 114.417 1.57214 1.15194 0
M  V30 1168 H 113.513 1.60046 2.6794 0
M  V30 1169 N 113.814 -1.1601 1.06675 0
M  V30 1170 C 115.044 -1.90251 0.805497 0
M  V30 1171 C 115.452 -1.77891 -0.64431 0
M  V30 1172 O 114.795 -1.12383 -1.45313 0
M  V30 1173 C 114.857 -3.41419 1.12576 0
M  V30 1174 C 114.521 -3.77564 2.57477 0
M  V30 1175 C 115.518 -3.79161 3.55715 0
M  V30 1176 C 113.203 -4.08079 2.92877 0
M  V30 1177 C 115.197 -4.10767 4.8739 0
M  V30 1178 C 112.884 -4.39351 4.24751 0
M  V30 1179 C 113.882 -4.40675 5.21818 0
M  V30 1180 O 113.57 -4.71202 6.51325 0
M  V30 1181 H 113.302 -0.610018 0.291297 0
M  V30 1182 H 115.856 -1.47958 1.4247 0
M  V30 1183 H 114.086 -3.84079 0.449503 0
M  V30 1184 H 115.775 -3.9694 0.84814 0
M  V30 1185 H 116.541 -3.55693 3.29708 0
M  V30 1186 H 112.42 -4.06211 2.17976 0
M  V30 1187 H 115.964 -4.11715 5.63148 0
M  V30 1188 H 111.861 -4.62285 4.50514 0
M  V30 1189 H 112.629 -4.88996 6.56373 0
M  V30 1190 N 115.292 -0.849877 -1.32721 0
M  V30 1191 C 116.538 -0.451591 -1.97708 0
M  V30 1192 C 116.871 0.989175 -1.6712 0
M  V30 1193 O 116.146 1.69334 -0.956891 0
M  V30 1194 C 116.429 -0.685598 -3.53513 0
M  V30 1195 C 116.282 -2.17444 -3.93749 0
M  V30 1196 C 117.601 -0.138874 -4.39881 0
M  V30 1197 H 114.72 -0.16555 -0.718166 0
M  V30 1198 H 117.362 -1.06742 -1.57182 0
M  V30 1199 H 115.512 -0.161416 -3.88165 0
M  V30 1200 H 117.184 -2.76433 -3.693 0
M  V30 1201 H 115.427 -2.65476 -3.43081 0
M  V30 1202 H 116.098 -2.28888 -5.02309 0
M  V30 1203 H 118.574 -0.587068 -4.11938 0
M  V30 1204 H 117.45 -0.332213 -5.47894 0
M  V30 1205 H 117.711 0.95806 -4.31594 0
M  V30 1206 N 116.77 1.45427 -0.607355 0
M  V30 1207 C 117.72 2.27612 0.133038 0
M  V30 1208 C 118.704 1.37307 0.838785 0
M  V30 1209 O 119.896 1.61299 0.728813 0
M  V30 1210 C 117.025 3.24173 1.12991 0
M  V30 1211 C 116.111 4.21965 0.425011 0
M  V30 1212 N 116.502 5.02982 -0.533217 0
M  V30 1213 C 114.8 4.40899 0.672593 0
M  V30 1214 C 115.501 5.73931 -0.947518 0
M  V30 1215 N 114.477 5.42819 -0.291321 0
M  V30 1216 H 118.279 2.87649 -0.602935 0
M  V30 1217 H 115.793 1.56576 -0.431006 0
M  V30 1218 H 117.79 3.81783 1.67473 0
M  V30 1219 H 116.45 2.65696 1.86644 0
M  V30 1220 H 117.461 5.09843 -0.90995 0
M  V30 1221 H 114.138 3.93547 1.39382 0
M  V30 1222 H 115.528 6.49037 -1.73782 0
M  V30 1223 N 118.248 0.346503 1.53744 0
M  V30 1224 C 119.473 -0.253074 2.0585 0
M  V30 1225 C 119.898 -1.43202 1.21962 0
M  V30 1226 O 119.256 -1.79783 0.234073 0
M  V30 1227 C 119.304 -0.643193 3.54817 0
M  V30 1228 O 118.408 -1.74286 3.73762 0
M  V30 1229 H 117.749 -0.0413583 0.662711 0
M  V30 1230 H 120.279 0.501574 1.98357 0
M  V30 1231 H 120.289 -0.919526 3.97503 0
M  V30 1232 H 118.964 0.218966 4.15323 0
M  V30 1233 H 117.541 -1.46356 3.42979 0
M  V30 1234 N 119.726 -1.57421 0.075193 0
M  V30 1235 C 121.003 -1.85029 -0.634329 0
M  V30 1236 C 121.383 -0.968305 -1.87582 0
M  V30 1237 O 120.731 -0.0354749 -2.28472 0
M  V30 1238 C 120.941 -3.35286 -0.968742 0
M  V30 1239 C 122.289 -4.02875 -1.34077 0
M  V30 1240 O 123.313 -3.40051 -1.06037 0
M  V30 1241 O 122.172 -5.13691 -1.86506 0
M  V30 1242 H 119.266 -0.7645 -0.315387 0
M  V30 1243 H 121.812 -1.69366 0.106382 0
M  V30 1244 H 120.584 -3.91203 -0.0871376 0
M  V30 1245 H 120.207 -3.56223 -1.7661 0
M  V30 1246 N 121.204 0.198386 -1.56346 0
M  V30 1247 C 122.137 1.27381 -1.89339 0
M  V30 1248 C 123.115 1.44106 -0.753134 0
M  V30 1249 O 124.299 1.59549 -1.00381 0
M  V30 1250 C 121.426 2.6409 -2.12071 0
M  V30 1251 C 120.472 2.64253 -3.34772 0
M  V30 1252 S 121.305 2.16013 -4.89999 0
M  V30 1253 C 122.461 3.54553 -5.15794 0
M  V30 1254 H 122.694 0.992058 -2.8026 0
M  V30 1255 H 120.227 0.401726 -1.49082 0
M  V30 1256 H 122.185 3.42786 -2.2585 0
M  V30 1257 H 120.846 2.89478 -1.21906 0
M  V30 1258 H 120.039 3.64768 -3.47794 0
M  V30 1259 H 119.641 1.93637 -3.1997 0
M  V30 1260 H 121.933 4.50396 -5.06112 0
M  V30 1261 H 122.876 3.46428 -6.1757 0
M  V30 1262 H 123.284 3.49313 -4.43442 0
M  V30 1263 N 122.682 1.50554 0.465978 0
M  V30 1264 C 123.93 1.61479 1.21528 0
M  V30 1265 C 124.251 0.319596 1.92363 0
M  V30 1266 O 123.521 -0.663194 1.84333 0
M  V30 1267 H 122.101 0.595055 0.451573 0
M  V30 1268 H 124.763 1.87355 0.53704 0
M  V30 1269 H 123.859 2.42846 1.96042 0
M  V30 1270 N 124.16 -0.719506 1.40217 0
M  V30 1271 C 125.407 -1.47933 1.38283 0
M  V30 1272 C 125.735 -1.94493 -0.0161536 0
M  V30 1273 O 124.99 -1.68224 -0.999956 0
M  V30 1274 C 125.289 -2.72271 2.31524 0
M  V30 1275 C 124.955 -2.44496 3.78857 0
M  V30 1276 C 123.617 -2.36631 4.18998 0
M  V30 1277 C 125.969 -2.21104 4.71977 0
M  V30 1278 C 123.297 -2.03437 5.503 0
M  V30 1279 C 125.649 -1.89423 6.03574 0
M  V30 1280 C 124.313 -1.80038 6.42762 0
M  V30 1281 H 123.583 -0.541325 0.506012 0
M  V30 1282 H 126.23 -0.824502 1.72842 0
M  V30 1283 H 124.535 -3.42572 1.90137 0
M  V30 1284 H 126.232 -3.30348 2.27313 0
M  V30 1285 H 122.822 -2.51503 3.47051 0
M  V30 1286 H 127.006 -2.26139 4.41786 0
M  V30 1287 H 122.262 -1.94705 5.79569 0
M  V30 1288 H 126.436 -1.70336 6.75247 0
M  V30 1289 H 124.063 -1.54083 7.44421 0
M  V30 1290 N 125.638 -1.25649 -0.95132 0
M  V30 1291 C 126.915 -1.01361 -1.67288 0
M  V30 1292 C 127.295 0.459135 -2.06046 0
M  V30 1293 O 126.643 1.43723 -1.7764 0
M  V30 1294 C 126.853 -1.95256 -2.89268 0
M  V30 1295 C 128.201 -2.23289 -3.61147 0
M  V30 1296 O 129.225 -1.93041 -2.99355 0
M  V30 1297 O 128.084 -2.74741 -4.72419 0
M  V30 1298 H 125.178 -0.38464 -0.732107 0
M  V30 1299 H 127.724 -1.36817 -1.00395 0
M  V30 1300 H 126.496 -2.94685 -2.57442 0
M  V30 1301 H 126.119 -1.60218 -3.6389 0
M  V30 1302 N 127.117 1.15442 -1.07289 0
M  V30 1303 C 128.08 2.18358 -0.696591 0
M  V30 1304 C 129.08 1.58637 0.262837 0
M  V30 1305 O 130.27 1.74145 0.0438809 0
M  V30 1306 C 127.402 3.4089 -0.0266151 0
M  V30 1307 H 128.595 2.53162 -1.60776 0
M  V30 1308 H 126.148 1.29893 -0.869342 0
M  V30 1309 H 126.883 3.11653 0.896822 0
M  V30 1310 H 126.668 3.85495 -0.716657 0
M  V30 1311 H 128.158 4.17009 0.222028 0
M  V30 1312 N 128.595 0.856903 1.32268 0
M  V30 1313 C 129.543 0.291987 2.3076 0
M  V30 1314 C 130.537 -0.585857 1.58947 0
M  V30 1315 O 131.743 -0.47341 1.73663 0
M  V30 1316 H 128.118 0.075721 0.748178 0
M  V30 1317 H 130.089 1.13687 2.75895 0
M  V30 1318 C 128.838 -0.502869 3.44044 0
M  V30 1319 H 128.161 0.163328 3.99466 0
M  V30 1320 H 129.601 -0.863691 4.1511 0
M  V30 1321 C 128.06 -1.68898 2.91505 0
M  V30 1322 O 128.59 -2.78811 2.89184 0
M  V30 1323 N 126.796 -1.51679 2.47875 0
M  V30 1324 H 126.343 -0.622666 2.49961 0
M  V30 1325 H 126.301 -2.31184 2.13076 0
M  V30 1326 N 130.073 -1.45103 0.615059 0
M  V30 1327 C 131.298 -2.07064 0.117988 0
M  V30 1328 C 131.723 -1.4554 -1.19163 0
M  V30 1329 O 131.081 -0.550855 -1.72729 0
M  V30 1330 C 131.129 -3.606 -0.000288387 0
M  V30 1331 O 130.233 -3.98847 -1.04856 0
M  V30 1332 H 129.574 -0.659467 0.0774581 0
M  V30 1333 H 132.104 -1.86236 0.847186 0
M  V30 1334 H 132.114 -4.07529 -0.196091 0
M  V30 1335 H 130.789 -4.04765 0.955932 0
M  V30 1336 H 129.366 -3.63577 -0.828619 0
M  V30 1337 N 131.551 -0.354651 -1.53558 0
M  V30 1338 C 132.791 0.238651 -2.03002 0
M  V30 1339 C 133.155 1.46878 -1.23656 0
M  V30 1340 O 134.356 2.13699 -1.63053 0
M  V30 1341 C 132.627 0.534175 -3.53386 0
M  V30 1342 S 134.186 1.10271 -4.24719 0
M  V30 1343 H 131.004 0.0702908 -0.707517 0
M  V30 1344 H 133.606 -0.494987 -1.8913 0
M  V30 1345 H 132.31 -0.368765 -4.0874 0
M  V30 1346 H 131.841 1.29718 -3.71398 0
M  V30 1347 H 133.856 2.38772 -4.34974 0
M  V30 1348 N 133.029 1.57378 -0.0835403 0
M  V30 1349 C 133.992 2.12252 0.864959 0
M  V30 1350 C 134.992 1.04916 1.21858 0
M  V30 1351 O 136.182 1.30853 1.14991 0
M  V30 1352 C 133.314 2.63358 2.16461 0
M  V30 1353 H 134.507 2.97371 0.388676 0
M  V30 1354 H 132.06 1.55423 0.165317 0
M  V30 1355 H 132.795 1.81727 2.686 0
M  V30 1356 H 132.58 3.41826 1.92087 0
M  V30 1357 H 134.07 3.05847 2.84337 0
M  V30 1358 N 134.507 -0.190092 1.56449 0
M  V30 1359 C 135.753 -0.911052 1.81184 0
M  V30 1360 C 136.086 -1.82699 0.658396 0
M  V30 1361 O 135.361 -1.91491 -0.340775 0
M  V30 1362 C 135.644 -1.72297 3.16205 0
M  V30 1363 C 135.497 -0.831419 4.42049 0
M  V30 1364 C 136.816 -2.69454 3.47969 0
M  V30 1365 H 133.935 -0.32977 0.659106 0
M  V30 1366 H 136.577 -0.178169 1.89163 0
M  V30 1367 H 134.727 -2.34778 3.09534 0
M  V30 1368 H 136.399 -0.220929 4.60771 0
M  V30 1369 H 134.642 -0.138406 4.33579 0
M  V30 1370 H 135.313 -1.43461 5.33032 0
M  V30 1371 H 137.789 -2.17104 3.54972 0
M  V30 1372 H 136.665 -3.23342 4.43555 0
M  V30 1373 H 136.926 -3.48744 2.71717 0
M  V30 1374 N 135.985 -1.50799 -0.457987 0
M  V30 1375 C 136.915 -1.73553 -1.5621 0
M  V30 1376 C 137.896 -0.584774 -1.59732 0
M  V30 1377 O 139.081 -0.825314 -1.7579 0
M  V30 1378 C 136.211 -1.84169 -2.94447 0
M  V30 1379 C 135.165 -2.99461 -3.0579 0
M  V30 1380 C 134.491 -2.95235 -4.45803 0
M  V30 1381 C 135.791 -4.39766 -2.81786 0
M  V30 1382 H 137.485 -2.66 -1.37421 0
M  V30 1383 H 135.031 -1.28002 -0.659662 0
M  V30 1384 H 136.984 -1.98672 -3.71628 0
M  V30 1385 H 135.708 -0.883545 -3.14422 0
M  V30 1386 H 134.367 -2.8463 -2.31044 0
M  V30 1387 H 134.015 -1.97239 -4.62715 0
M  V30 1388 H 133.715 -3.72642 -4.54326 0
M  V30 1389 H 135.239 -3.11803 -5.24987 0
M  V30 1390 H 136.653 -4.55054 -3.4871 0
M  V30 1391 H 135.05 -5.18722 -3.0174 0
M  V30 1392 H 136.12 -4.51229 -1.7754 0
M  V30 1393 N 137.463 0.71206 -1.40597 0
M  V30 1394 C 138.688 1.50617 -1.42581 0
M  V30 1395 C 139.113 1.88079 -0.0282102 0
M  V30 1396 O 138.471 1.53511 0.964579 0
M  V30 1397 C 138.519 2.7557 -2.3258 0
M  V30 1398 O 137.623 3.72414 -1.77148 0
M  V30 1399 H 136.964 0.453966 -0.484573 0
M  V30 1400 H 139.494 0.876649 -1.84868 0
M  V30 1401 H 139.504 3.2406 -2.47889 0
M  V30 1402 H 138.179 2.47639 -3.34138 0
M  V30 1403 H 136.756 3.31276 -1.71204 0
M  V30 1404 N 138.941 1.26152 0.944643 0
M  V30 1405 C 139.904 1.07474 2.0244 0
M  V30 1406 C 140.904 0.0242064 1.60782 0
M  V30 1407 O 142.094 0.267302 1.72137 0
M  V30 1408 C 139.226 0.633956 3.34953 0
M  V30 1409 H 140.419 2.03336 2.20442 0
M  V30 1410 H 137.972 1.087 1.12312 0
M  V30 1411 H 138.707 -0.326811 3.22649 0
M  V30 1412 H 138.492 1.39247 3.66542 0
M  V30 1413 H 139.982 0.52501 4.14287 0
M  V30 1414 N 140.419 -1.14872 1.07899 0
M  V30 1415 C 141.668 -1.85135 0.800499 0
M  V30 1416 C 141.981 -1.83547 -0.676014 0
M  V30 1417 O 143.187 -2.49548 -1.06948 0
M  V30 1418 C 141.643 -3.3231 1.38197 0
M  V30 1419 C 141.251 -3.42329 2.8899 0
M  V30 1420 C 142.995 -4.0772 1.18174 0
M  V30 1421 C 140.902 -4.83684 3.403 0
M  V30 1422 H 139.832 -0.693563 0.29578 0
M  V30 1423 H 142.483 -1.29532 1.29976 0
M  V30 1424 H 140.865 -3.87618 0.810431 0
M  V30 1425 H 142.039 -2.97097 3.52236 0
M  V30 1426 H 140.354 -2.80369 3.07867 0
M  V30 1427 H 142.951 -5.12049 1.5398 0
M  V30 1428 H 143.294 -4.16124 0.12117 0
M  V30 1429 H 143.827 -3.58696 1.71994 0
M  V30 1430 H 140.566 -4.80465 4.45907 0
M  V30 1431 H 140.086 -5.29474 2.81811 0
M  V30 1432 H 141.765 -5.52558 3.36584 0
M  V30 1433 N 141.898 -0.863906 -1.31812 0
M  V30 1434 C 143.146 -0.470904 -1.96537 0
M  V30 1435 C 143.467 0.978771 -1.68657 0
M  V30 1436 O 142.737 1.6853 -0.998717 0
M  V30 1437 H 141.317 -0.171148 -0.72713 0
M  V30 1438 H 143.979 -1.10236 -1.60729 0
M  V30 1439 H 143.075 -0.623616 -3.05806 0
M  V30 1440 N 143.376 1.44774 -0.622745 0
M  V30 1441 C 144.323 2.30635 0.0871679 0
M  V30 1442 C 145.293 1.42994 0.845097 0
M  V30 1443 O 146.478 1.71907 0.827812 0
M  V30 1444 C 143.618 3.28144 1.06844 0
M  V30 1445 C 142.731 4.30888 0.309809 0
M  V30 1446 C 141.866 5.15494 1.28215 0
M  V30 1447 C 140.905 6.09953 0.512198 0
M  V30 1448 N 140.042 6.87287 1.43458 0
M  V30 1449 H 144.882 2.90803 -0.650974 0
M  V30 1450 H 142.419 1.43286 -0.33281 0
M  V30 1451 H 144.377 3.83157 1.65066 0
M  V30 1452 H 143.007 2.69695 1.77382 0
M  V30 1453 H 142.059 3.78414 -0.388181 0
M  V30 1454 H 143.371 4.97955 -0.290254 0
M  V30 1455 H 142.525 5.74983 1.93596 0
M  V30 1456 H 141.264 4.48481 1.91614 0
M  V30 1457 H 140.269 5.49581 -0.155151 0
M  V30 1458 H 141.494 6.78999 -0.116958 0
M  V30 1459 H 139.44 6.2295 2.05594 0
M  V30 1460 H 139.357 7.50763 0.888335 0
M  V30 1461 H 140.625 7.51306 2.07749 0
M  V30 1462 N 144.854 0.36279 1.53368 0
M  V30 1463 C 145.786 -0.519668 2.23231 0
M  V30 1464 C 146.799 -1.04844 1.24546 0
M  V30 1465 O 147.988 -0.955296 1.50786 0
M  V30 1466 C 145.088 -1.72995 2.9142 0
M  V30 1467 C 144.261 -1.33316 4.16588 0
M  V30 1468 C 143.32 -2.40521 4.68013 0
M  V30 1469 O 142.346 -2.03027 5.3176 0
M  V30 1470 N 143.548 -3.72065 4.45587 0
M  V30 1471 H 146.313 0.078751 2.99597 0
M  V30 1472 H 143.874 0.187833 1.60807 0
M  V30 1473 H 145.866 -2.44184 3.22733 0
M  V30 1474 H 144.436 -2.2353 2.18525 0
M  V30 1475 H 143.656 -0.451236 3.91609 0
M  V30 1476 H 144.944 -1.04432 4.97967 0
M  V30 1477 H 144.342 -4.05304 3.94646 0
M  V30 1478 H 142.899 -4.39366 4.81457 0
M  V30 1479 N 146.332 -1.57332 0.0918853 0
M  V30 1480 C 147.557 -1.98995 -0.584442 0
M  V30 1481 C 147.982 -0.970528 -1.61128 0
M  V30 1482 O 147.34 0.0613904 -1.81196 0
M  V30 1483 C 147.388 -3.39636 -1.21161 0
M  V30 1484 O 146.492 -3.40447 -2.32744 0
M  V30 1485 H 145.833 -0.647165 -0.148572 0
M  V30 1486 H 148.363 -2.03873 0.172347 0
M  V30 1487 H 148.373 -3.7726 -1.55367 0
M  V30 1488 H 147.048 -4.13356 -0.459313 0
M  V30 1489 H 145.625 -3.14614 -2.0018 0
M  V30 1490 N 147.81 0.181792 -1.56548 0
M  V30 1491 C 149.221 0.745244 -1.71181 0
M  V30 1492 C 149.572 1.83262 -0.70068 0
M  V30 1493 O 148.697 2.15946 0.140154 0
M  V30 1494 C 149.292 1.35859 -3.10367 0
M  V30 1495 C 147.851 1.86898 -3.2672 0
M  V30 1496 C 146.998 0.743942 -2.67134 0
M  V30 1497 H 149.949 -0.0434661 -1.5864 0
M  V30 1498 H 149.97 2.22817 -3.08436 0
M  V30 1499 H 149.482 0.566948 -3.83937 0
M  V30 1500 H 147.583 2.68738 -2.5809 0
M  V30 1501 H 147.696 2.02162 -4.34359 0
M  V30 1502 H 146.06 1.16169 -2.26665 0
M  V30 1503 H 146.843 -0.035676 -3.43281 0
M  V30 1504 N 149.288 1.51039 0.449983 0
M  V30 1505 C 150.565 1.53612 1.21089 0
M  V30 1506 C 150.945 0.292997 2.09057 0
M  V30 1507 O 150.293 -0.72259 2.16774 0
M  V30 1508 C 150.503 2.84337 2.0237 0
M  V30 1509 C 151.851 3.35807 2.59843 0
M  V30 1510 O 152.875 2.85802 2.12593 0
M  V30 1511 O 151.734 4.23029 3.45989 0
M  V30 1512 H 148.828 0.617057 0.550608 0
M  V30 1513 H 151.374 1.63344 0.460082 0
M  V30 1514 H 150.146 3.66278 1.37681 0
M  V30 1515 H 149.769 2.77708 2.84542 0
M  V30 1516 N 150.766 -0.704594 1.40972 0
M  V30 1517 C 152.015 -1.46018 1.39146 0
M  V30 1518 C 152.328 -1.956 0.000589254 0
M  V30 1519 O 153.534 -2.71137 -0.1403 0
M  V30 1520 C 151.99 -2.63996 2.4461 0
M  V30 1521 C 151.598 -2.21238 3.89561 0
M  V30 1522 C 153.342 -3.41677 2.51907 0
M  V30 1523 C 151.249 -3.3612 4.86598 0
M  V30 1524 H 150.179 -0.548444 0.517422 0
M  V30 1525 H 152.83 -0.765784 1.66757 0
M  V30 1526 H 151.212 -3.3566 2.10115 0
M  V30 1527 H 152.386 -1.56923 4.33257 0
M  V30 1528 H 150.701 -1.56574 3.85841 0
M  V30 1529 H 153.298 -4.27182 3.2159 0
M  V30 1530 H 153.641 -3.86247 1.55303 0
M  V30 1531 H 154.174 -2.77064 2.85448 0
M  V30 1532 H 150.913 -2.96572 5.84573 0
M  V30 1533 H 150.433 -3.99315 4.47557 0
M  V30 1534 H 152.112 -4.02029 5.06934 0
M  V30 1535 N 152.244 -1.26651 -0.937939 0
M  V30 1536 C 153.192 -1.08308 -2.05845 0
M  V30 1537 C 154.186 -0.0090757 -1.69398 0
M  V30 1538 O 155.392 -0.166007 -1.79233 0
M  V30 1539 H 151.767 -0.333416 -0.674046 0
M  V30 1540 H 153.738 -2.03261 -2.18467 0
M  V30 1541 C 152.487 -0.736229 -3.39816 0
M  V30 1542 H 151.81 -1.55453 -3.6834 0
M  V30 1543 H 153.25 -0.64769 -4.19024 0
M  V30 1544 C 151.709 0.558824 -3.32233 0
M  V30 1545 O 152.239 1.59621 -3.68624 0
M  V30 1546 N 150.445 0.550657 -2.85335 0
M  V30 1547 H 149.992 -0.293943 -2.55917 0
M  V30 1548 H 149.95 1.41726 -2.80644 0
M  V30 1549 N 153.722 1.14298 -1.08507 0
M  V30 1550 C 154.654 2.1907 -0.673859 0
M  V30 1551 C 155.667 1.60381 0.279577 0
M  V30 1552 O 156.856 1.78374 0.0670754 0
M  V30 1553 C 153.956 3.38888 0.0290979 0
M  V30 1554 C 153.129 4.27103 -0.943494 0
M  V30 1555 C 152.188 5.25477 -0.275676 0
M  V30 1556 O 151.214 5.61709 -0.920401 0
M  V30 1557 N 152.416 5.7227 0.974013 0
M  V30 1558 H 155.181 2.54965 -1.57521 0
M  V30 1559 H 152.742 1.29528 -0.971287 0
M  V30 1560 H 154.734 4.01761 0.48683 0
M  V30 1561 H 153.304 3.01309 0.832555 0
M  V30 1562 H 152.524 3.61149 -1.58004 0
M  V30 1563 H 153.812 4.82905 -1.60251 0
M  V30 1564 H 153.21 5.44965 1.51755 0
M  V30 1565 H 151.767 6.37127 1.37522 0
M  V30 1566 N 155.201 0.870884 1.31352 0
M  V30 1567 C 156.449 0.48132 1.96285 0
M  V30 1568 C 156.77 -0.969813 1.69173 0
M  V30 1569 O 156.04 -1.67998 1.00764 0
M  V30 1570 H 154.62 0.175002 0.726212 0
M  V30 1571 H 157.282 1.11087 1.60143 0
M  V30 1572 H 156.378 0.639825 3.05471 0
M  V30 1573 N 156.679 -1.44442 0.630414 0
M  V30 1574 C 157.925 -2.02351 0.134816 0
M  V30 1575 C 158.258 -1.4947 -1.23986 0
M  V30 1576 O 157.533 -0.678475 -1.82283 0
M  V30 1577 C 157.816 -3.59898 0.120707 0
M  V30 1578 C 157.669 -4.23063 1.52767 0
M  V30 1579 C 158.988 -4.36585 -0.555127 0
M  V30 1580 H 156.107 -0.73527 0.0504646 0
M  V30 1581 H 158.749 -1.72022 0.806751 0
M  V30 1582 H 156.899 -3.85868 -0.451477 0
M  V30 1583 H 158.571 -4.08202 2.14869 0
M  V30 1584 H 156.814 -3.80586 2.08175 0
M  V30 1585 H 157.485 -5.32071 1.46984 0
M  V30 1586 H 159.961 -4.16044 -0.0685429 0
M  V30 1587 H 158.837 -5.46294 -0.534185 0
M  V30 1588 H 159.098 -4.11138 -1.62535 0
M  V30 1589 N 158.157 -0.370918 -1.53173 0
M  V30 1590 C 159.434 0.273754 -1.93675 0
M  V30 1591 C 159.814 1.65938 -1.3049 0
M  V30 1592 O 159.162 2.23698 -0.465999 0
M  V30 1593 C 159.372 0.318602 -3.47543 0
M  V30 1594 C 160.72 0.556392 -4.20939 0
M  V30 1595 O 161.744 0.399587 -3.53952 0
M  V30 1596 O 160.603 0.862133 -5.39657 0
M  V30 1597 H 157.697 0.165448 -0.810281 0
M  V30 1598 H 160.243 -0.42409 -1.64315 0
M  V30 1599 H 159.015 -0.652687 -3.85818 0
M  V30 1600 H 158.638 1.06212 -3.83151 0
M  V30 1601 N 159.635 1.57281 -0.100228 0
M  V30 1602 C 161.051 1.57527 0.256416 0
M  V30 1603 C 161.251 1.11173 1.68056 0
M  V30 1604 O 160.307 0.79053 2.39806 0
M  V30 1605 C 161.62 3.00673 0.0401747 0
M  V30 1606 C 163.168 3.12815 0.107528 0
M  V30 1607 C 163.643 4.57929 -0.0807834 0
M  V30 1608 N 165.134 4.63193 -0.0261207 0
M  V30 1609 C 165.869 5.73212 -0.146999 0
M  V30 1610 N 165.365 6.92047 -0.322999 0
M  V30 1611 N 167.158 5.62031 -0.0879044 0
M  V30 1612 H 159.309 1.85718 -1.03065 0
M  V30 1613 H 161.572 0.857446 -0.404339 0
M  V30 1614 H 161.278 3.38804 -0.943649 0
M  V30 1615 H 161.152 3.69042 0.780262 0
M  V30 1616 H 163.539 2.74554 1.08186 0
M  V30 1617 H 163.62 2.47028 -0.664134 0
M  V30 1618 H 163.264 4.96886 -1.05201 0
M  V30 1619 H 163.194 5.21783 0.710635 0
M  V30 1620 H 165.685 3.77748 0.107161 0
M  V30 1621 H 165.998 7.7173 -0.406608 0
M  V30 1622 H 164.343 6.94074 -0.358733 0
M  V30 1623 H 167.534 4.68075 0.048498 0
M  V30 1624 H 167.707 6.47734 -0.185557 0
M  V30 1625 N 161.113 -0.173488 1.56642 0
M  V30 1626 C 162.076 -1.19859 1.95362 0
M  V30 1627 C 163.076 -1.37296 0.83704 0
M  V30 1628 O 164.266 -1.34739 1.10413 0
M  V30 1629 C 161.398 -2.56405 2.24654 0
M  V30 1630 H 162.591 -0.867062 2.87092 0
M  V30 1631 H 160.144 -0.415853 1.50666 0
M  V30 1632 H 160.879 -2.94576 1.35631 0
M  V30 1633 H 160.664 -2.45115 3.06041 0
M  V30 1634 H 162.154 -3.30287 2.5554 0
M  V30 1635 N 162.591 -1.51276 -0.441967 0
M  V30 1636 C 163.868 -1.54252 -1.20273 0
M  V30 1637 C 164.248 -0.30408 -2.08898 0
M  V30 1638 O 163.596 0.711084 -2.17154 0
M  V30 1639 C 163.806 -2.85406 -2.00859 0
M  V30 1640 C 165.154 -3.37181 -2.58059 0
M  V30 1641 O 166.178 -2.86925 -2.11074 0
M  V30 1642 O 165.037 -4.24858 -3.43741 0
M  V30 1643 H 162.131 -0.619969 -0.547328 0
M  V30 1644 H 164.677 -1.63586 -0.451413 0
M  V30 1645 H 163.449 -3.67003 -1.35736 0
M  V30 1646 H 163.072 -2.79213 -2.83065 0
M  V30 1647 N 164.069 0.697108 -1.41344 0
M  V30 1648 C 165.48 1.27697 -1.36199 0
M  V30 1649 C 165.831 1.9615 -0.0443463 0
M  V30 1650 O 164.956 1.98689 0.857419 0
M  V30 1651 C 165.551 2.32223 -2.46694 0
M  V30 1652 C 164.11 2.8579 -2.44952 0
M  V30 1653 C 163.257 1.59807 -2.26621 0
M  V30 1654 H 166.208 0.491968 -1.50882 0
M  V30 1655 H 166.229 3.1348 -2.15664 0
M  V30 1656 H 165.741 1.82373 -3.42581 0
M  V30 1657 H 163.842 3.3982 -1.52817 0
M  V30 1658 H 163.955 3.36325 -3.41207 0
M  V30 1659 H 162.319 1.8556 -1.7447 0
M  V30 1660 H 163.102 1.11956 -3.24532 0
M  V30 1661 N 165.547 1.27147 0.931209 0
M  V30 1662 C 166.477 1.12081 2.04842 0
M  V30 1663 C 167.458 0.0232364 1.70084 0
M  V30 1664 O 168.643 0.197085 1.93197 0
M  V30 1665 C 165.773 0.76354 3.38803 0
M  V30 1666 C 164.727 1.81396 3.87659 0
M  V30 1667 C 164.053 1.31075 5.18385 0
M  V30 1668 C 165.353 3.21739 4.11438 0
M  V30 1669 H 167.047 2.05537 2.17703 0
M  V30 1670 H 164.593 0.989603 1.04608 0
M  V30 1671 H 166.546 0.644982 4.16435 0
M  V30 1672 H 165.27 -0.206727 3.25945 0
M  V30 1673 H 163.929 1.92136 3.12217 0
M  V30 1674 H 163.577 0.330037 5.01916 0
M  V30 1675 H 163.277 2.013 5.52044 0
M  V30 1676 H 164.801 1.20506 5.98591 0
M  V30 1677 H 166.215 3.14019 4.79651 0
M  V30 1678 H 164.612 3.89644 4.56397 0
M  V30 1679 H 165.682 3.67054 3.16859 0
M  V30 1680 N 167.025 -1.13721 1.09112 0
M  V30 1681 C 167.935 -2.22638 0.73957 0
M  V30 1682 C 168.951 -1.72091 -0.257068 0
M  V30 1683 O 170.127 -2.01155 -0.0992154 0
M  V30 1684 C 167.192 -3.46322 0.16191 0
M  V30 1685 C 166.253 -4.11775 1.21408 0
M  V30 1686 C 165.486 -5.29555 0.663891 0
M  V30 1687 O 165.709 -5.68077 -0.514274 0
M  V30 1688 O 164.643 -5.84973 1.41738 0
M  V30 1689 H 168.469 -2.55074 1.64836 0
M  V30 1690 H 166.054 -1.21791 0.865289 0
M  V30 1691 H 167.936 -4.21107 -0.157073 0
M  V30 1692 H 166.611 -3.15593 -0.719932 0
M  V30 1693 H 165.518 -3.3883 1.58571 0
M  V30 1694 H 166.851 -4.46627 2.06845 0
M  V30 1695 N 168.503 -0.877838 -1.30888 0
M  V30 1696 C 169.435 -0.296607 -2.27273 0
M  V30 1697 C 170.448 0.544799 -1.53414 0
M  V30 1698 O 171.637 0.365511 -1.74718 0
M  V30 1699 C 168.737 0.597481 -3.33592 0
M  V30 1700 C 167.91 -0.213251 -4.3688 0
M  V30 1701 C 166.969 0.610208 -5.2265 0
M  V30 1702 O 165.995 0.035441 -5.69189 0
M  V30 1703 N 167.197 1.92071 -5.47804 0
M  V30 1704 H 169.962 -1.12492 -2.77787 0
M  V30 1705 H 167.523 -0.740105 -1.43993 0
M  V30 1706 H 169.515 1.15425 -3.87891 0
M  V30 1707 H 168.085 1.32647 -2.83061 0
M  V30 1708 H 167.305 -0.951466 -3.82545 0
M  V30 1709 H 168.593 -0.769262 -5.02951 0
M  V30 1710 H 167.991 2.4107 -5.11763 0
M  V30 1711 H 166.548 2.42508 -6.05007 0
M  V30 1712 N 169.982 1.44106 -0.638065 0
M  V30 1713 C 171.23 2.01579 -0.145043 0
M  V30 1714 C 171.551 1.50496 1.24 0
M  V30 1715 O 170.821 0.711374 1.82527 0
M  V30 1716 H 169.401 0.745282 -0.05063 0
M  V30 1717 H 172.063 1.76516 -0.826327 0
M  V30 1718 H 171.159 3.11877 -0.118039 0
M  V30 1719 N 171.46 0.379036 1.52974 0
M  V30 1720 C 172.423 -0.448865 2.24762 0
M  V30 1721 C 173.423 -0.998689 1.26027 0
M  V30 1722 O 174.613 -0.882313 1.50203 0
M  V30 1723 C 171.745 -1.62872 2.99476 0
M  V30 1724 H 172.938 0.179491 2.99362 0
M  V30 1725 H 170.491 0.13096 1.5575 0
M  V30 1726 H 171.226 -2.29479 2.29151 0
M  V30 1727 H 171.011 -1.24128 3.71934 0
M  V30 1728 H 172.501 -2.2151 3.5401 0
M  V30 1729 N 172.938 -1.57226 0.108567 0
M  V30 1730 C 174.186 -1.94448 -0.550853 0
M  V30 1731 C 174.507 -0.992074 -1.67878 0
M  V30 1732 O 173.777 -0.0465 -1.95845 0
M  V30 1733 H 172.357 -0.717897 -0.206479 0
M  V30 1734 H 175.019 -1.94112 0.175062 0
M  V30 1735 H 174.115 -2.97218 -0.952259 0
M  V30 1736 N 174.416 0.165178 -1.56732 0
M  V30 1737 C 175.693 0.908443 -1.73224 0
M  V30 1738 C 176.073 2.0013 -0.67165 0
M  V30 1739 O 175.421 2.26353 0.31253 0
M  V30 1740 C 175.631 1.46756 -3.16644 0
M  V30 1741 C 176.979 1.93809 -3.77787 0
M  V30 1742 O 178.003 1.56537 -3.1996 0
M  V30 1743 O 176.862 2.62486 -4.79336 0
M  V30 1744 H 173.956 0.428025 -0.707618 0
M  V30 1745 H 176.502 0.152526 -1.69013 0
M  V30 1746 H 175.274 0.68129 -3.85323 0
M  V30 1747 H 174.897 2.28749 -3.25207 0
M  V30 1748 N 175.894 1.51508 0.433938 0
M  V30 1749 C 176.826 1.69266 1.54537 0
M  V30 1750 C 177.839 0.573276 1.52373 0
M  V30 1751 O 179.028 0.847698 1.57087 0
M  V30 1752 C 176.128 1.69524 2.93453 0
M  V30 1753 C 175.301 2.98101 3.20085 0
M  V30 1754 C 174.36 2.90502 4.38742 0
M  V30 1755 O 173.386 3.64442 4.3723 0
M  V30 1756 N 174.588 2.06586 5.42496 0
M  V30 1757 H 177.353 2.65145 1.39708 0
M  V30 1758 H 174.914 1.49437 0.622922 0
M  V30 1759 H 176.906 1.62004 3.70859 0
M  V30 1760 H 175.476 0.812245 3.01863 0
M  V30 1761 H 174.696 3.19464 2.30947 0
M  V30 1762 H 175.984 3.83207 3.34708 0
M  V30 1763 H 175.382 1.45896 5.46563 0
M  V30 1764 H 173.939 2.04943 6.18742 0
M  V30 1765 N 177.372 -0.689602 1.41712 0
M  V30 1766 C 178.62 -1.4468 1.4111 0
M  V30 1767 C 178.941 -1.94986 0.0232196 0
M  V30 1768 O 178.211 -1.72097 -0.935913 0
M  V30 1769 H 176.791 -0.536847 0.519427 0
M  V30 1770 H 179.453 -0.815825 1.77004 0
M  V30 1771 H 178.549 -2.30706 2.10193 0
M  V30 1772 N 178.85 -1.27639 -0.924453 0
M  V30 1773 C 179.78 -1.13166 -2.04244 0
M  V30 1774 C 180.761 -0.032256 -1.70069 0
M  V30 1775 O 181.946 -0.207328 -1.9309 0
M  V30 1776 C 179.076 -0.781496 -3.38393 0
M  V30 1777 C 178.03 -1.83449 -3.86692 0
M  V30 1778 C 177.356 -1.33822 -5.17683 0
M  V30 1779 C 178.656 -3.23917 -4.09726 0
M  V30 1780 H 180.35 -2.06689 -2.1661 0
M  V30 1781 H 177.896 -0.995136 -1.04082 0
M  V30 1782 H 179.849 -0.667057 -4.16087 0
M  V30 1783 H 178.573 0.189439 -3.2605 0
M  V30 1784 H 177.232 -1.93789 -3.11193 0
M  V30 1785 H 176.88 -0.35665 -5.01734 0
M  V30 1786 H 176.58 -2.04224 -5.50968 0
M  V30 1787 H 178.104 -1.23679 -5.97943 0
M  V30 1788 H 179.518 -3.16559 -4.77978 0
M  V30 1789 H 177.915 -3.92059 -4.54324 0
M  V30 1790 H 178.985 -3.68729 -3.14908 0
M  V30 1791 N 180.328 1.1314 -1.09713 0
M  V30 1792 C 181.261 2.17735 -0.683137 0
M  V30 1793 C 182.239 1.59582 0.311841 0
M  V30 1794 O 183.423 1.87298 0.212514 0
M  V30 1795 C 180.55 3.38699 -0.00684324 0
M  V30 1796 C 179.596 4.1546 -0.964102 0
M  V30 1797 S 180.429 4.74733 -2.47767 0
M  V30 1798 C 181.585 5.9904 -1.81387 0
M  V30 1799 H 181.818 2.52515 -1.56918 0
M  V30 1800 H 179.351 1.24484 -0.913404 0
M  V30 1801 H 181.309 4.08765 0.377044 0
M  V30 1802 H 179.97 3.02214 0.85589 0
M  V30 1803 H 179.163 5.02093 -0.43803 0
M  V30 1804 H 178.765 3.51066 -1.28953 0
M  V30 1805 H 181.057 6.67846 -1.13967 0
M  V30 1806 H 182 6.56261 -2.65947 0
M  V30 1807 H 182.408 5.4976 -1.28155 0
M  V30 1808 N 181.806 0.884767 1.30421 0
M  V30 1809 C 183.053 0.503105 1.96151 0
M  V30 1810 C 183.381 -0.947676 1.69851 0
M  V30 1811 O 182.636 -1.68467 0.995861 0
M  V30 1812 C 182.935 0.724318 3.49983 0
M  V30 1813 C 182.601 2.15015 3.96332 0
M  V30 1814 C 181.263 2.54005 4.08699 0
M  V30 1815 C 183.615 3.07936 4.20505 0
M  V30 1816 C 180.943 3.85128 4.42599 0
M  V30 1817 C 183.295 4.3859 4.55874 0
M  V30 1818 C 181.959 4.77474 4.66449 0
M  V30 1819 H 181.229 0.184099 0.717766 0
M  V30 1820 H 183.876 1.12058 1.55291 0
M  V30 1821 H 182.181 0.0238086 3.91793 0
M  V30 1822 H 183.878 0.408617 3.98913 0
M  V30 1823 H 180.468 1.8375 3.87213 0
M  V30 1824 H 184.652 2.79033 4.10431 0
M  V30 1825 H 179.908 4.14996 4.48986 0
M  V30 1826 H 184.082 5.10629 4.7353 0
M  V30 1827 H 181.709 5.79115 4.92473 0
M  V30 1828 N 183.284 -1.43765 0.645699 0
M  V30 1829 C 184.532 -2.01499 0.155731 0
M  V30 1830 C 184.853 -1.51151 -1.232 0
M  V30 1831 O 184.123 -0.721044 -1.82148 0
M  V30 1832 H 182.703 -0.745003 0.0545817 0
M  V30 1833 H 185.365 -1.76075 0.835677 0
M  V30 1834 H 184.461 -3.1181 0.134577 0
M  V30 1835 N 184.763 -0.387143 -1.52771 0
M  V30 1836 C 185.993 0.195585 -2.05672 0
M  V30 1837 C 186.401 1.41241 -1.25887 0
M  V30 1838 O 185.744 1.81265 -0.298081 0
M  V30 1839 C 185.806 0.632327 -3.53895 0
M  V30 1840 C 185.47 -0.470739 -4.54569 0
M  V30 1841 C 186.467 -1.32746 -5.02667 0
M  V30 1842 C 184.152 -0.637151 -4.98243 0
M  V30 1843 C 186.146 -2.33574 -5.93061 0
M  V30 1844 C 183.833 -1.64877 -5.88438 0
M  V30 1845 C 184.831 -2.49649 -6.35739 0
M  V30 1846 O 184.519 -3.49082 -7.24153 0
M  V30 1847 H 184.251 0.033658 -0.675162 0
M  V30 1848 H 186.805 -0.550221 -1.97893 0
M  V30 1849 H 185.035 1.43008 -3.59285 0
M  V30 1850 H 186.724 1.14048 -3.89548 0
M  V30 1851 H 187.49 -1.21019 -4.69659 0
M  V30 1852 H 183.369 0.0129567 -4.60998 0
M  V30 1853 H 186.913 -2.99777 -6.29904 0
M  V30 1854 H 182.81 -1.76643 -6.2086 0
M  V30 1855 H 183.578 -3.45065 -7.42208 0
M  V30 1856 N 186.241 1.57166 -0.116904 0
M  V30 1857 C 187.204 2.14039 0.819742 0
M  V30 1858 C 188.204 1.07477 1.19605 0
M  V30 1859 O 189.394 1.33263 1.1219 0
M  V30 1860 C 186.526 2.67891 2.10826 0
M  V30 1861 H 187.719 2.98128 0.325511 0
M  V30 1862 H 185.272 1.55739 0.132312 0
M  V30 1863 H 186.007 1.87384 2.64685 0
M  V30 1864 H 185.792 3.45823 1.84793 0
M  V30 1865 H 187.282 3.11809 2.77785 0
M  V30 1866 N 187.719 -0.156864 1.56817 0
M  V30 1867 C 188.947 -0.886316 1.86955 0
M  V30 1868 C 189.362 -1.75185 0.703975 0
M  V30 1869 O 188.719 -1.79555 -0.326552 0
M  V30 1870 C 188.77 -1.75117 3.16253 0
M  V30 1871 O 188.491 -0.920537 4.2832 0
M  V30 1872 C 189.992 -2.58905 3.59837 0
M  V30 1873 H 187.212 -0.25678 0.619923 0
M  V30 1874 H 189.756 -0.152615 2.0393 0
M  V30 1875 H 187.911 -2.43805 3.01062 0
M  V30 1876 H 188.325 -1.51337 5.02192 0
M  V30 1877 H 189.799 -3.1518 4.53172 0
M  V30 1878 H 190.276 -3.34472 2.84649 0
M  V30 1879 H 190.882 -1.95526 3.7769 0
M  V30 1880 N 189.197 -1.51736 -0.425897 0
M  V30 1881 C 190.145 -1.74464 -1.53834 0
M  V30 1882 C 191.139 -0.611241 -1.57988 0
M  V30 1883 O 192.345 -0.792899 -1.61596 0
M  V30 1884 H 188.72 -0.551437 -0.511293 0
M  V30 1885 H 190.691 -2.67694 -1.31843 0
M  V30 1886 C 189.44 -1.8972 -2.91379 0
M  V30 1887 H 188.763 -2.76344 -2.88919 0
M  V30 1888 H 190.203 -2.09629 -3.68553 0
M  V30 1889 C 188.662 -0.65992 -3.30374 0
M  V30 1890 O 189.192 0.180083 -4.01296 0
M  V30 1891 N 187.398 -0.500677 -2.86254 0
M  V30 1892 H 186.945 -1.18532 -2.28709 0
M  V30 1893 H 186.903 0.325903 -3.12706 0
M  V30 1894 N 190.675 0.682077 -1.42076 0
M  V30 1895 C 191.585 1.82535 -1.47371 0
M  V30 1896 C 192.601 1.7017 -0.363079 0
M  V30 1897 O 193.777 1.91848 -0.612875 0
M  V30 1898 C 190.842 3.18624 -1.36674 0
M  V30 1899 C 189.903 3.42999 -2.58167 0
M  V30 1900 C 189.136 4.72595 -2.4797 0
M  V30 1901 O 189.359 5.50006 -1.5116 0
M  V30 1902 O 188.293 4.98054 -3.37974 0
M  V30 1903 H 192.119 1.81023 -2.43853 0
M  V30 1904 H 189.704 0.836887 -1.2376 0
M  V30 1905 H 191.586 3.99847 -1.33043 0
M  V30 1906 H 190.261 3.20789 -0.433138 0
M  V30 1907 H 189.168 2.61653 -2.67373 0
M  V30 1908 H 190.501 3.45659 -3.50401 0
M  V30 1909 N 192.153 1.28127 0.917671 0
M  V30 1910 C 193.381 1.17892 1.70026 0
M  V30 1911 C 193.796 -0.262958 1.8696 0
M  V30 1912 O 193.153 -1.17811 1.3938 0
M  V30 1913 C 193.204 1.86872 3.09453 0
M  V30 1914 O 192.925 3.25428 2.93306 0
M  V30 1915 C 194.426 1.8289 4.03815 0
M  V30 1916 H 191.646 0.40942 0.531617 0
M  V30 1917 H 194.19 1.69181 1.14883 0
M  V30 1918 H 192.345 1.39464 3.61426 0
M  V30 1919 H 192.759 3.59918 3.81523 0
M  V30 1920 H 194.233 2.35751 4.99125 0
M  V30 1921 H 194.71 0.800412 4.31845 0
M  V30 1922 H 195.316 2.29959 3.57769 0
M  V30 1923 N 193.631 -1.12557 1.10312 0
M  V30 1924 C 194.908 -1.80363 0.756878 0
M  V30 1925 C 195.288 -1.97067 -0.756824 0
M  V30 1926 O 194.636 -1.54601 -1.68259 0
M  V30 1927 C 194.846 -3.14812 1.50647 0
M  V30 1928 C 196.194 -3.90029 1.67817 0
M  V30 1929 O 197.218 -3.24464 1.46974 0
M  V30 1930 O 196.077 -5.07652 2.02365 0
M  V30 1931 H 193.171 -0.780667 0.272926 0
M  V30 1932 H 195.717 -1.19404 1.20586 0
M  V30 1933 H 194.489 -2.97936 2.53672 0
M  V30 1934 H 194.112 -3.83478 1.05026 0
M  V30 1935 N 195.109 -0.891671 -1.2995 0
M  V30 1936 C 196.355 -0.514261 -1.96171 0
M  V30 1937 C 196.688 0.935506 -1.70182 0
M  V30 1938 O 195.963 1.66204 -1.01028 0
M  V30 1939 C 196.246 -0.797719 -3.51153 0
M  V30 1940 C 196.099 -2.2986 -3.86632 0
M  V30 1941 C 197.418 -0.278749 -4.39216 0
M  V30 1942 H 194.537 -0.188314 -0.712535 0
M  V30 1943 H 197.179 -1.11689 -1.53706 0
M  V30 1944 H 195.329 -0.284826 -3.87455 0
M  V30 1945 H 197.001 -2.88042 -3.60319 0
M  V30 1946 H 195.244 -2.76257 -3.34462 0
M  V30 1947 H 195.915 -2.44753 -4.94773 0
M  V30 1948 H 198.391 -0.717825 -4.09862 0
M  V30 1949 H 197.267 -0.506353 -5.46559 0
M  V30 1950 H 197.528 0.820266 -4.34424 0
M  V30 1951 N 196.587 1.43421 -0.653314 0
M  V30 1952 C 197.517 2.33487 0.0246656 0
M  V30 1953 C 198.498 1.49475 0.811863 0
M  V30 1954 O 199.683 1.78139 0.773322 0
M  V30 1955 C 196.813 3.32841 0.99166 0
M  V30 1956 C 195.767 4.26842 0.314568 0
M  V30 1957 C 195.093 5.16236 1.39302 0
M  V30 1958 C 196.393 5.16243 -0.793095 0
M  V30 1959 H 198.087 2.90427 -0.727481 0
M  V30 1960 H 195.633 1.39649 -0.351287 0
M  V30 1961 H 197.586 3.94747 1.47487 0
M  V30 1962 H 196.31 2.74158 1.77497 0
M  V30 1963 H 194.969 3.663 -0.148199 0
M  V30 1964 H 194.617 4.53891 2.16776 0
M  V30 1965 H 194.317 5.79948 0.945223 0
M  V30 1966 H 195.841 5.81015 1.87759 0
M  V30 1967 H 197.255 5.71958 -0.392039 0
M  V30 1968 H 195.652 5.88676 -1.16536 0
M  V30 1969 H 196.722 4.55927 -1.65103 0
M  V30 1970 N 198.065 0.39524 1.52563 0
M  V30 1971 C 198.998 -0.4813 2.23067 0
M  V30 1972 C 199.976 -1.05927 1.23362 0
M  V30 1973 O 201.16 -1.10979 1.52368 0
M  V30 1974 C 198.287 -1.66676 2.9485 0
M  V30 1975 C 197.333 -1.21348 4.08873 0
M  V30 1976 S 198.166 -0.190102 5.35162 0
M  V30 1977 C 199.322 -1.38121 6.1047 0
M  V30 1978 H 199.555 0.117381 2.97068 0
M  V30 1979 H 197.088 0.179458 1.53354 0
M  V30 1980 H 199.046 -2.3466 3.36816 0
M  V30 1981 H 197.707 -2.23676 2.20518 0
M  V30 1982 H 196.9 -2.09877 4.58222 0
M  V30 1983 H 196.502 -0.612486 3.68951 0
M  V30 1984 H 198.794 -2.30726 6.37002 0
M  V30 1985 H 199.737 -0.928521 7.01986 0
M  V30 1986 H 200.145 -1.60071 5.41329 0
M  V30 1987 N 199.544 -1.57102 0.125237 0
M  V30 1988 C 200.955 -1.82384 -0.399142 0
M  V30 1989 C 201.306 -1.04276 -1.66195 0
M  V30 1990 O 200.431 -0.281269 -2.14564 0
M  V30 1991 C 201.026 -3.30821 -0.730932 0
M  V30 1992 C 199.585 -3.56762 -1.19992 0
M  V30 1993 C 198.732 -2.7649 -0.211792 0
M  V30 1994 H 201.683 -1.54786 0.350277 0
M  V30 1995 H 201.704 -3.4579 -1.58775 0
M  V30 1996 H 201.216 -3.87643 0.188345 0
M  V30 1997 H 199.317 -3.05305 -2.13588 0
M  V30 1998 H 199.43 -4.65317 -1.14093 0
M  V30 1999 H 197.794 -2.4489 -0.700085 0
M  V30 2000 H 198.577 -3.36073 0.700691 0
M  V30 2001 N 201.022 0.148545 -1.56898 0
M  V30 2002 C 201.985 1.16736 -1.97244 0
M  V30 2003 C 202.985 1.35947 -0.858777 0
M  V30 2004 O 204.175 1.32966 -1.12542 0
M  V30 2005 C 201.307 2.52798 -2.28705 0
M  V30 2006 H 202.5 0.821279 -2.88435 0
M  V30 2007 H 200.053 0.391831 -1.51309 0
M  V30 2008 H 200.788 2.92381 -1.403 0
M  V30 2009 H 200.573 2.40216 -3.09901 0
M  V30 2010 H 202.063 3.26179 -2.60762 0
M  V30 2011 N 202.5 1.5196 0.417844 0
M  V30 2012 C 203.911 1.57851 0.997 0
M  V30 2013 C 204.262 0.413714 1.91789 0
M  V30 2014 O 203.387 -0.467057 2.113 0
M  V30 2015 C 203.982 2.86085 1.81496 0
M  V30 2016 C 202.541 2.94483 2.34428 0
M  V30 2017 C 201.688 2.52707 1.14169 0
M  V30 2018 H 204.639 1.57455 0.198392 0
M  V30 2019 H 204.66 2.70947 2.67148 0
M  V30 2020 H 204.172 3.70842 1.14446 0
M  V30 2021 H 202.273 2.142 3.04875 0
M  V30 2022 H 202.386 3.98546 2.65891 0
M  V30 2023 H 200.75 2.06353 1.49301 0
M  V30 2024 H 201.533 3.39828 0.486999 0
M  V30 2025 N 203.978 -0.674533 1.42435 0
M  V30 2026 C 205.227 -1.43034 1.42212 0
M  V30 2027 C 205.54 -1.95555 0.0420788 0
M  V30 2028 O 206.746 -2.71374 -0.0827558 0
M  V30 2029 C 205.202 -2.58748 2.50155 0
M  V30 2030 C 204.81 -2.12925 3.94166 0
M  V30 2031 C 206.554 -3.36257 2.59098 0
M  V30 2032 C 204.461 -3.25723 4.93618 0
M  V30 2033 H 203.391 -0.537345 0.528939 0
M  V30 2034 H 206.042 -0.73024 1.68344 0
M  V30 2035 H 204.424 -3.31128 2.17188 0
M  V30 2036 H 205.598 -1.47697 4.36488 0
M  V30 2037 H 203.913 -1.48354 3.89076 0
M  V30 2038 H 206.51 -4.20264 3.30578 0
M  V30 2039 H 206.853 -3.82866 1.63461 0
M  V30 2040 H 207.386 -2.70947 2.9126 0
M  V30 2041 H 204.125 -2.84105 5.90732 0
M  V30 2042 H 203.645 -3.89732 4.55926 0
M  V30 2043 H 205.324 -3.91186 5.15347 0
M  V30 2044 N 205.456 -1.28612 -0.910864 0
M  V30 2045 C 206.684 -1.18792 -1.69399 0
M  V30 2046 C 207.099 0.253039 -1.87097 0
M  V30 2047 O 206.456 1.17071 -1.40003 0
M  V30 2048 C 206.507 -1.88511 -3.08457 0
M  V30 2049 O 206.228 -3.26979 -2.91576 0
M  V30 2050 C 207.729 -1.85029 -4.02839 0
M  V30 2051 H 204.949 -0.412233 -0.529438 0
M  V30 2052 H 207.493 -1.69788 -1.13984 0
M  V30 2053 H 205.648 -1.41379 -3.60681 0
M  V30 2054 H 206.062 -3.61936 -3.79608 0
M  V30 2055 H 207.536 -2.38395 -4.97867 0
M  V30 2056 H 208.013 -0.823303 -4.31414 0
M  V30 2057 H 208.619 -2.31853 -3.56545 0
M  V30 2058 N 206.934 1.1197 -1.10907 0
M  V30 2059 C 208.164 1.8713 -0.875553 0
M  V30 2060 C 208.572 1.8016 0.577843 0
M  V30 2061 O 207.915 1.17699 1.41042 0
M  V30 2062 C 207.977 3.37005 -1.2517 0
M  V30 2063 C 207.641 3.67748 -2.71313 0
M  V30 2064 C 208.638 3.65698 -3.69542 0
M  V30 2065 C 206.323 3.96928 -3.07821 0
M  V30 2066 C 208.317 3.92395 -5.023 0
M  V30 2067 C 206.004 4.23284 -4.40765 0
M  V30 2068 C 207.002 4.21005 -5.37814 0
M  V30 2069 O 206.69 4.46704 -6.68364 0
M  V30 2070 H 206.422 0.598786 -0.313737 0
M  V30 2071 H 208.976 1.42568 -1.47863 0
M  V30 2072 H 207.206 3.82146 -0.591741 0
M  V30 2073 H 208.895 3.93519 -0.994877 0
M  V30 2074 H 209.661 3.43211 -3.42682 0
M  V30 2075 H 205.54 3.97841 -2.32902 0
M  V30 2076 H 209.084 3.90531 -5.78041 0
M  V30 2077 H 204.981 4.45246 -4.67361 0
M  V30 2078 H 205.749 4.64299 -6.74069 0
M  V30 2079 N 208.412 0.89855 1.29475 0
M  V30 2080 C 209.375 0.380272 2.26023 0
M  V30 2081 C 210.375 -0.484891 1.53315 0
M  V30 2082 O 211.565 -0.290108 1.71767 0
M  V30 2083 C 208.697 -0.45651 3.3783 0
M  V30 2084 H 209.89 1.23295 2.73383 0
M  V30 2085 H 207.443 0.676589 1.40897 0
M  V30 2086 H 208.178 -1.32922 2.95808 0
M  V30 2087 H 207.963 0.163393 3.91759 0
M  V30 2088 H 209.453 -0.810466 4.0966 0
M  V30 2089 N 209.89 -1.43072 0.660911 0
M  V30 2090 C 210.84 -2.27948 -0.04847 0
M  V30 2091 C 211.824 -1.40325 -0.787246 0
M  V30 2092 O 213.016 -1.63893 -0.668446 0
M  V30 2093 C 210.145 -3.28143 -1.00881 0
M  V30 2094 C 209.231 -4.23252 -0.268108 0
M  V30 2095 N 209.622 -5.00656 0.719528 0
M  V30 2096 C 207.92 -4.43092 -0.508493 0
M  V30 2097 C 208.621 -5.70019 1.15988 0
M  V30 2098 N 207.597 -5.41364 0.492584 0
M  V30 2099 H 211.399 -2.85213 0.709279 0
M  V30 2100 H 208.913 -1.54869 0.488822 0
M  V30 2101 H 210.91 -3.87736 -1.53188 0
M  V30 2102 H 209.57 -2.7244 -1.76654 0
M  V30 2103 H 210.581 -5.06115 1.09855 0
M  V30 2104 H 207.258 -3.98449 -1.24679 0
M  V30 2105 H 208.648 -6.4214 1.97751 0
M  V30 2106 N 211.368 -0.403325 -1.52352 0
M  V30 2107 C 212.784 -0.0539281 -1.59509 0
M  V30 2108 C 212.984 1.43307 -1.41652 0
M  V30 2109 O 212.04 2.19924 -1.24056 0
M  V30 2110 C 213.353 -0.543654 -2.95745 0
M  V30 2111 C 214.901 -0.501125 -3.08962 0
M  V30 2112 C 215.376 -0.967267 -4.47669 0
M  V30 2113 N 216.867 -0.923849 -4.53893 0
M  V30 2114 C 217.602 -1.25578 -5.5948 0
M  V30 2115 N 217.098 -1.65889 -6.72646 0
M  V30 2116 N 218.891 -1.17613 -5.49658 0
M  V30 2117 H 211.042 -1.37123 -1.62206 0
M  V30 2118 H 213.305 -0.56294 -0.76276 0
M  V30 2119 H 213.011 -1.58275 -3.14073 0
M  V30 2120 H 212.885 0.0498042 -3.77167 0
M  V30 2121 H 215.272 0.528909 -2.90321 0
M  V30 2122 H 215.353 -1.13056 -2.2946 0
M  V30 2123 H 214.997 -1.9956 -4.67053 0
M  V30 2124 H 214.927 -0.314698 -5.25659 0
M  V30 2125 H 217.418 -0.627403 -3.72655 0
M  V30 2126 H 217.731 -1.89543 -7.49195 0
M  V30 2127 H 216.076 -1.69787 -6.73942 0
M  V30 2128 H 219.267 -0.860115 -4.6013 0
M  V30 2129 H 219.44 -1.43812 -6.3184 0
M  V30 2130 N 212.846 1.57033 -0.133567 0
M  V30 2131 C 213.776 2.1909 0.807567 0
M  V30 2132 C 214.757 1.13517 1.26681 0
M  V30 2133 O 215.942 1.41809 1.32679 0
M  V30 2134 C 213.072 2.80188 2.05212 0
M  V30 2135 C 212.026 3.91471 1.73015 0
M  V30 2136 C 211.352 4.39443 3.04622 0
M  V30 2137 C 212.652 5.12886 0.987168 0
M  V30 2138 H 214.346 2.97988 0.290403 0
M  V30 2139 H 211.892 1.43335 0.138239 0
M  V30 2140 H 213.845 3.22264 2.71521 0
M  V30 2141 H 212.569 1.98601 2.59278 0
M  V30 2142 H 211.228 3.49993 1.0909 0
M  V30 2143 H 210.876 3.54695 3.56651 0
M  V30 2144 H 210.576 5.14495 2.83847 0
M  V30 2145 H 212.1 4.8418 3.72024 0
M  V30 2146 H 213.514 5.51891 1.55208 0
M  V30 2147 H 211.911 5.93615 0.87985 0
M  V30 2148 H 212.981 4.84894 -0.0235286 0
M  V30 2149 N 214.325 -0.140222 1.56975 0
M  V30 2150 C 215.571 -0.852949 1.83991 0
M  V30 2151 C 215.904 -1.80512 0.716187 0
M  V30 2152 O 215.179 -1.92479 -0.279681 0
M  V30 2153 C 215.462 -1.6215 3.21527 0
M  V30 2154 C 215.315 -0.690363 4.4447 0
M  V30 2155 C 216.634 -2.58247 3.56366 0
M  V30 2156 H 213.753 -0.308634 0.669264 0
M  V30 2157 H 216.395 -0.117898 1.89634 0
M  V30 2158 H 214.545 -2.24812 3.16847 0
M  V30 2159 H 216.217 -0.0742264 4.6124 0
M  V30 2160 H 214.46 -0.000396433 4.338 0
M  V30 2161 H 215.131 -1.2643 5.37326 0
M  V30 2162 H 217.607 -2.05701 3.61699 0
M  V30 2163 H 216.483 -3.09067 4.53617 0
M  V30 2164 H 216.744 -3.39923 2.82674 0
M  V30 2165 N 215.803 -1.52179 -0.40978 0
M  V30 2166 C 216.735 -1.71703 -1.51825 0
M  V30 2167 C 217.748 -0.597445 -1.51441 0
M  V30 2168 O 218.937 -0.872582 -1.55719 0
M  V30 2169 C 216.037 -1.74171 -2.90719 0
M  V30 2170 C 215.21 -3.03156 -3.15302 0
M  V30 2171 C 214.269 -2.97445 -4.34065 0
M  V30 2172 O 213.295 -3.71352 -4.31377 0
M  V30 2173 N 214.497 -2.15191 -5.39141 0
M  V30 2174 H 217.262 -2.67334 -1.35472 0
M  V30 2175 H 214.823 -1.50409 -0.599069 0
M  V30 2176 H 216.815 -1.67884 -3.68235 0
M  V30 2177 H 215.385 -0.860166 -3.00533 0
M  V30 2178 H 214.605 -3.23097 -2.25836 0
M  V30 2179 H 215.893 -3.88484 -3.28569 0
M  V30 2180 H 215.291 -1.54573 -5.44173 0
M  V30 2181 H 213.848 -2.1476 -6.15403 0
M  V30 2182 N 217.281 0.66697 -1.42791 0
M  V30 2183 C 218.697 0.981027 -1.25889 0
M  V30 2184 C 218.897 2.00793 -0.168695 0
M  V30 2185 O 217.953 2.48321 0.45747 0
M  V30 2186 C 219.266 1.47838 -2.61848 0
M  V30 2187 C 220.814 1.59575 -2.69267 0
M  V30 2188 C 221.289 2.12704 -4.05612 0
M  V30 2189 N 222.78 2.20026 -4.07606 0
M  V30 2190 C 223.515 2.62227 -5.09926 0
M  V30 2191 N 223.011 3.03824 -6.22626 0
M  V30 2192 N 224.804 2.62045 -4.97281 0
M  V30 2193 H 216.955 -0.0127891 -2.12396 0
M  V30 2194 H 219.218 0.0568258 -0.946295 0
M  V30 2195 H 218.924 0.798299 -3.4252 0
M  V30 2196 H 218.798 2.45579 -2.86305 0
M  V30 2197 H 221.185 2.26687 -1.88936 0
M  V30 2198 H 221.266 0.60302 -2.48591 0
M  V30 2199 H 220.91 1.46198 -4.86404 0
M  V30 2200 H 220.84 3.12782 -4.23645 0
M  V30 2201 H 223.331 1.90708 -3.2625 0
M  V30 2202 H 223.644 3.34734 -6.96544 0
M  V30 2203 H 221.989 3.01662 -6.26119 0
M  V30 2204 H 225.18 2.28916 -4.08308 0
M  V30 2205 H 225.353 2.94613 -5.77154 0
M  V30 2206 N 218.759 1.29093 0.90403 0
M  V30 2207 C 219.691 1.09658 2.01266 0
M  V30 2208 C 220.704 0.0453729 1.62737 0
M  V30 2209 O 221.893 0.289446 1.76138 0
M  V30 2210 C 218.993 0.646278 3.32681 0
M  V30 2211 C 218.166 1.77505 3.99763 0
M  V30 2212 C 217.225 1.31649 5.09465 0
M  V30 2213 O 216.251 2.02045 5.32134 0
M  V30 2214 N 217.453 0.184997 5.80205 0
M  V30 2215 H 220.218 2.05135 2.18494 0
M  V30 2216 H 217.779 1.20975 1.07594 0
M  V30 2217 H 219.771 0.322906 4.0341 0
M  V30 2218 H 218.341 -0.215916 3.11853 0
M  V30 2219 H 217.561 2.26752 3.22455 0
M  V30 2220 H 218.849 2.53198 4.41325 0
M  V30 2221 H 218.247 -0.402021 5.6427 0
M  V30 2222 H 216.804 -0.0790358 6.51752 0
M  V30 2223 N 220.237 -1.11381 1.11499 0
M  V30 2224 C 221.2 -2.15622 0.777153 0
M  V30 2225 C 222.2 -1.59504 -0.203779 0
M  V30 2226 O 223.39 -1.74188 0.020782 0
M  V30 2227 C 220.522 -3.40556 0.153116 0
M  V30 2228 H 221.715 -2.47021 1.70061 0
M  V30 2229 H 219.268 -1.26577 0.916952 0
M  V30 2230 H 220.003 -3.14767 -0.780536 0
M  V30 2231 H 219.788 -3.8257 0.859238 0
M  V30 2232 H 221.278 -4.17546 -0.0671044 0
M  V30 2233 N 221.715 -0.905404 -1.28997 0
M  V30 2234 C 222.625 -0.392246 -2.31298 0
M  V30 2235 C 223.641 0.515889 -1.66176 0
M  V30 2236 O 224.817 0.404093 -1.97304 0
M  V30 2237 C 221.882 0.36686 -3.44754 0
M  V30 2238 C 220.943 -0.573485 -4.25452 0
M  V30 2239 C 220.176 0.149488 -5.33491 0
M  V30 2240 O 220.399 1.37255 -5.5364 0
M  V30 2241 O 219.333 -0.510919 -5.99728 0
M  V30 2242 H 223.159 -1.2411 -2.77183 0
M  V30 2243 H 220.744 -0.669926 -1.33538 0
M  V30 2244 H 222.626 0.795907 -4.13816 0
M  V30 2245 H 221.301 1.19169 -3.00966 0
M  V30 2246 H 220.208 -1.05176 -3.59011 0
M  V30 2247 H 221.541 -1.36489 -4.72897 0
M  V30 2248 N 223.193 1.4272 -0.668489 0
M  V30 2249 C 224.439 2.01923 -0.188419 0
M  V30 2250 C 224.772 1.52704 1.19979 0
M  V30 2251 O 224.047 0.726566 1.8042 0
M  V30 2252 C 224.33 3.59451 -0.216085 0
M  V30 2253 C 224.183 4.18864 -1.6393 0
M  V30 2254 C 225.502 4.37903 0.439179 0
M  V30 2255 H 222.621 0.733674 -0.0699412 0
M  V30 2256 H 225.263 1.69822 -0.852076 0
M  V30 2257 H 223.413 3.86929 0.349012 0
M  V30 2258 H 225.085 4.02362 -2.25616 0
M  V30 2259 H 223.328 3.74933 -2.18193 0
M  V30 2260 H 223.999 5.27987 -1.61039 0
M  V30 2261 H 226.475 4.16079 -0.0417878 0
M  V30 2262 H 225.351 5.47519 0.389157 0
M  V30 2263 H 225.612 4.15303 1.51577 0
M  V30 2264 N 224.671 0.411399 1.52136 0
M  V30 2265 C 226.087 0.0623865 1.59478 0
M  V30 2266 C 226.287 -1.42554 1.4241 0
M  V30 2267 O 225.343 -2.19263 1.2522 0
M  V30 2268 C 226.656 0.559331 2.95452 0
M  V30 2269 C 228.204 0.517503 3.08692 0
M  V30 2270 C 228.679 0.990994 4.4715 0
M  V30 2271 N 230.17 0.947908 4.53397 0
M  V30 2272 C 230.905 1.28544 5.58806 0
M  V30 2273 N 230.401 1.69454 6.71757 0
M  V30 2274 N 232.194 1.20526 5.49026 0
M  V30 2275 H 224.345 1.37982 1.61477 0
M  V30 2276 H 226.608 0.566977 0.759764 0
M  V30 2277 H 226.314 1.59938 3.1323 0
M  V30 2278 H 226.188 -0.0298014 3.77188 0
M  V30 2279 H 228.575 -0.513505 2.90598 0
M  V30 2280 H 228.656 1.14272 2.28857 0
M  V30 2281 H 228.3 2.02034 4.65988 0
M  V30 2282 H 228.23 0.34257 5.25485 0
M  V30 2283 H 230.721 0.647157 3.72317 0
M  V30 2284 H 231.034 1.93513 7.48179 0
M  V30 2285 H 229.379 1.73359 6.73032 0
M  V30 2286 H 232.57 0.884505 4.59667 0
M  V30 2287 H 232.743 1.47161 6.31069 0
M  V30 2288 N 226.149 -1.5696 0.141893 0
M  V30 2289 C 227.096 -2.16501 -0.799737 0
M  V30 2290 C 228.066 -1.09643 -1.24771 0
M  V30 2291 O 229.251 -1.3766 -1.32115 0
M  V30 2292 C 226.391 -2.78679 -2.03549 0
M  V30 2293 C 225.504 -3.99914 -1.6338 0
M  V30 2294 C 224.639 -4.50106 -2.82096 0
M  V30 2295 C 223.678 -5.63819 -2.38275 0
M  V30 2296 N 222.815 -6.08651 -3.49983 0
M  V30 2297 H 227.655 -2.96632 -0.285179 0
M  V30 2298 H 225.192 -1.46533 -0.129053 0
M  V30 2299 H 227.15 -3.1287 -2.75986 0
M  V30 2300 H 225.78 -2.012 -2.52425 0
M  V30 2301 H 224.832 -3.71735 -0.807279 0
M  V30 2302 H 226.144 -4.82311 -1.27192 0
M  V30 2303 H 225.298 -4.86325 -3.62729 0
M  V30 2304 H 224.037 -3.66706 -3.21525 0
M  V30 2305 H 223.042 -5.2718 -1.56081 0
M  V30 2306 H 224.267 -6.49 -1.99938 0
M  V30 2307 H 222.213 -5.28188 -3.89042 0
M  V30 2308 H 222.13 -6.85961 -3.17794 0
M  V30 2309 H 223.398 -6.49515 -4.30988 0
M  V30 2310 N 227.627 0.131896 -1.57047 0
M  V30 2311 C 228.575 1.18146 -2.0036 0
M  V30 2312 C 229.569 1.43614 -0.898406 0
M  V30 2313 O 230.775 1.43729 -1.08361 0
M  V30 2314 H 227.15 0.398042 -0.638018 0
M  V30 2315 H 229.121 0.789564 -2.87765 0
M  V30 2316 C 227.87 2.50341 -2.41298 0
M  V30 2317 H 227.193 2.31578 -3.25902 0
M  V30 2318 H 228.633 3.22371 -2.75414 0
M  V30 2319 C 227.092 3.11984 -1.27153 0
M  V30 2320 O 227.622 3.97484 -0.580459 0
M  V30 2321 N 225.828 2.71662 -1.03189 0
M  V30 2322 H 225.375 2.02231 -1.59564 0
M  V30 2323 H 225.333 3.13238 -0.270077 0
M  V30 2324 N 229.106 1.52395 0.401703 0
M  V30 2325 C 230.354 1.66488 1.14569 0
M  V30 2326 C 230.675 0.400897 1.90835 0
M  V30 2327 O 229.945 -0.584415 1.8698 0
M  V30 2328 H 228.525 0.613672 0.425929 0
M  V30 2329 H 231.187 1.89464 0.457093 0
M  V30 2330 H 230.283 2.50942 1.85566 0
M  V30 2331 N 230.584 -0.659388 1.43143 0
M  V30 2332 C 231.812 -1.44723 1.47861 0
M  V30 2333 C 232.227 -1.88563 0.0945886 0
M  V30 2334 O 231.584 -1.59108 -0.893915 0
M  V30 2335 C 231.635 -2.68627 2.41913 0
M  V30 2336 O 231.356 -2.26623 3.74932 0
M  V30 2337 C 232.857 -3.62045 2.55809 0
M  V30 2338 H 230.077 -0.444801 0.502387 0
M  V30 2339 H 232.621 -0.808916 1.87821 0
M  V30 2340 H 230.776 -3.28613 2.05164 0
M  V30 2341 H 231.19 -3.06745 4.2545 0
M  V30 2342 H 232.664 -4.45666 3.25708 0
M  V30 2343 H 233.141 -4.08981 1.60099 0
M  V30 2344 H 233.747 -3.07944 2.93344 0
M  V30 2345 N 232.062 -1.29571 -0.897171 0
M  V30 2346 C 232.992 -1.17473 -2.01798 0
M  V30 2347 C 233.973 -0.068323 -1.69963 0
M  V30 2348 O 235.158 -0.248239 -1.92607 0
M  V30 2349 C 232.288 -0.853099 -3.36659 0
M  V30 2350 C 231.242 -1.9161 -3.82713 0
M  V30 2351 C 230.568 -1.44773 -5.14728 0
M  V30 2352 C 231.868 -3.32535 -4.02763 0
M  V30 2353 H 233.562 -2.11237 -2.12177 0
M  V30 2354 H 231.108 -1.01699 -1.01948 0
M  V30 2355 H 233.061 -0.755165 -4.14578 0
M  V30 2356 H 231.785 0.120236 -3.26379 0
M  V30 2357 H 230.444 -2.00346 -3.07013 0
M  V30 2358 H 230.092 -0.462995 -5.00865 0
M  V30 2359 H 229.792 -2.15865 -5.46513 0
M  V30 2360 H 231.316 -1.36334 -5.95185 0
M  V30 2361 H 232.73 -3.26626 -4.71156 0
M  V30 2362 H 231.127 -4.01607 -4.45905 0
M  V30 2363 H 232.197 -3.75326 -3.07016 0
M  V30 2364 N 233.54 1.10788 -1.12088 0
M  V30 2365 C 234.951 1.64181 -0.88891 0
M  V30 2366 C 235.302 1.87508 0.577498 0
M  V30 2367 O 234.427 1.61434 1.44112 0
M  V30 2368 C 235.022 2.98257 -1.60712 0
M  V30 2369 C 233.581 3.4853 -1.42139 0
M  V30 2370 C 232.728 2.23208 -1.6454 0
M  V30 2371 H 235.679 0.943368 -1.27618 0
M  V30 2372 H 235.7 3.65552 -1.05604 0
M  V30 2373 H 235.212 2.81246 -2.67436 0
M  V30 2374 H 233.313 3.70692 -0.376552 0
M  V30 2375 H 233.426 4.26882 -2.17505 0
M  V30 2376 H 231.79 2.31169 -1.06925 0
M  V30 2377 H 232.573 2.08733 -2.72554 0
M  V30 2378 N 235.018 0.912232 1.28515 0
M  V30 2379 C 236.264 0.554851 1.95686 0
M  V30 2380 C 236.619 -0.89138 1.70506 0
M  V30 2381 O 235.912 -1.62529 1.01464 0
M  V30 2382 C 236.106 0.798392 3.48368 0
M  V30 2383 C 235.935 2.26674 3.88393 0
M  V30 2384 C 234.705 2.91657 4.12631 0
M  V30 2385 C 236.903 3.24303 3.99164 0
M  V30 2386 N 234.885 4.28805 4.39317 0
M  V30 2387 C 236.256 4.4661 4.30046 0
M  V30 2388 C 238.311 3.19723 3.81683 0
M  V30 2389 C 237.014 5.64915 4.45268 0
M  V30 2390 C 239.04 4.37325 3.98121 0
M  V30 2391 C 238.402 5.58406 4.29375 0
M  V30 2392 H 234.501 0.252876 0.739985 0
M  V30 2393 H 237.085 1.17565 1.55199 0
M  V30 2394 H 235.256 0.20688 3.87849 0
M  V30 2395 H 236.988 0.405193 4.02666 0
M  V30 2396 H 233.743 2.42393 4.06869 0
M  V30 2397 H 234.167 4.99712 4.56746 0
M  V30 2398 H 238.809 2.27191 3.56573 0
M  V30 2399 H 236.527 6.57927 4.6921 0
M  V30 2400 H 240.113 4.35282 3.86033 0
M  V30 2401 H 238.993 6.47889 4.41825 0
M  V30 2402 N 236.496 -1.42363 0.676048 0
M  V30 2403 C 237.426 -2.33497 0.0124832 0
M  V30 2404 C 238.407 -1.50748 -0.787981 0
M  V30 2405 O 239.592 -1.79346 -0.744884 0
M  V30 2406 C 236.722 -3.34377 -0.938582 0
M  V30 2407 C 235.676 -4.27289 -0.246622 0
M  V30 2408 C 235.002 -5.18386 -1.31071 0
M  V30 2409 C 236.302 -5.14916 0.875125 0
M  V30 2410 H 237.996 -2.89233 0.773593 0
M  V30 2411 H 235.542 -1.39073 0.37346 0
M  V30 2412 H 237.495 -3.97044 -1.41188 0
M  V30 2413 H 236.219 -2.76947 -1.73113 0
M  V30 2414 H 234.878 -3.66018 0.206456 0
M  V30 2415 H 234.526 -4.57282 -2.09528 0
M  V30 2416 H 234.226 -5.81378 -0.852839 0
M  V30 2417 H 235.75 -5.83929 -1.78492 0
M  V30 2418 H 237.164 -5.71262 0.482983 0
M  V30 2419 H 235.561 -5.86747 1.25887 0
M  V30 2420 H 236.631 -4.53242 1.72335 0
M  V30 2421 N 237.974 -0.419461 -1.51915 0
M  V30 2422 C 239.39 -0.0708431 -1.59443 0
M  V30 2423 C 239.59 1.41796 -1.43164 0
M  V30 2424 O 238.646 2.18596 -1.26381 0
M  V30 2425 C 239.959 -0.574991 -2.95151 0
M  V30 2426 C 241.507 -0.533867 -3.08413 0
M  V30 2427 C 241.982 -1.01469 -4.46618 0
M  V30 2428 N 243.473 -0.971939 -4.52888 0
M  V30 2429 C 244.208 -1.31505 -5.58116 0
M  V30 2430 N 243.704 -1.73014 -6.70849 0
M  V30 2431 N 245.497 -1.23436 -5.48379 0
M  V30 2432 H 237.648 -1.38836 -1.60743 0
M  V30 2433 H 239.911 -0.570998 -0.756747 0
M  V30 2434 H 239.617 -1.61597 -3.12377 0
M  V30 2435 H 239.491 0.00979777 -3.77199 0
M  V30 2436 H 241.878 0.498086 -2.90866 0
M  V30 2437 H 241.959 -1.15484 -2.28248 0
M  V30 2438 H 241.603 -2.04502 -4.6491 0
M  V30 2439 H 241.533 -0.370433 -5.25295 0
M  V30 2440 H 244.024 -0.666893 -3.71969 0
M  V30 2441 H 244.337 -1.97479 -7.47143 0
M  V30 2442 H 242.682 -1.76926 -6.72103 0
M  V30 2443 H 245.873 -0.908869 -4.59192 0
M  V30 2444 H 246.046 -1.50506 -6.30279 0
M  V30 2445 N 239.452 1.56882 -0.150215 0
M  V30 2446 C 240.863 1.82995 0.370076 0
M  V30 2447 C 241.214 1.06907 1.64515 0
M  V30 2448 O 240.339 0.315369 2.1409 0
M  V30 2449 C 240.934 3.31942 0.678208 0
M  V30 2450 C 239.493 3.58625 1.14301 0
M  V30 2451 C 238.64 2.76792 0.167778 0
M  V30 2452 H 241.591 1.54209 -0.374858 0
M  V30 2453 H 241.612 3.48272 1.53254 0
M  V30 2454 H 241.124 3.87294 -0.249991 0
M  V30 2455 H 239.225 3.08664 2.08704 0
M  V30 2456 H 239.338 4.67073 1.06676 0
M  V30 2457 H 237.702 2.45972 0.661037 0
M  V30 2458 H 238.485 3.34916 -0.754069 0
M  V30 2459 N 240.93 -0.123565 1.57115 0
M  V30 2460 C 242.207 -0.862196 1.75572 0
M  V30 2461 C 242.587 -1.98279 0.724475 0
M  V30 2462 O 241.935 -2.27102 -0.252407 0
M  V30 2463 C 242.145 -1.38309 3.20424 0
M  V30 2464 C 243.493 -1.83724 3.82793 0
M  V30 2465 O 244.517 -1.47999 3.23998 0
M  V30 2466 O 243.376 -2.49685 4.86127 0
M  V30 2467 H 240.47 -0.409113 0.718718 0
M  V30 2468 H 243.016 -0.107661 1.69358 0
M  V30 2469 H 241.788 -0.578889 3.86994 0
M  V30 2470 H 241.411 -2.20046 3.31158 0
M  V30 2471 N 242.408 -1.52605 -0.393616 0
M  V30 2472 C 243.371 -1.76415 -1.46323 0
M  V30 2473 C 244.371 -0.634126 -1.47768 0
M  V30 2474 O 245.561 -0.902142 -1.4902 0
M  V30 2475 C 242.693 -1.8607 -2.85641 0
M  V30 2476 H 243.886 -2.71916 -1.26498 0
M  V30 2477 H 241.439 -1.43257 -0.625073 0
M  V30 2478 H 242.174 -0.925378 -3.10817 0
M  V30 2479 H 241.959 -2.68235 -2.85993 0
M  V30 2480 H 243.449 -2.06179 -3.63153 0
M  V30 2481 N 243.887 0.651787 -1.4349 0
M  V30 2482 C 244.834 1.76462 -1.4876 0
M  V30 2483 C 245.804 1.62641 -0.337189 0
M  V30 2484 O 246.989 1.82864 -0.544544 0
M  V30 2485 C 244.129 3.14623 -1.41796 0
M  V30 2486 C 243.242 3.39568 -2.67053 0
M  V30 2487 C 242.377 4.67585 -2.52068 0
M  V30 2488 C 241.416 4.85639 -3.72587 0
M  V30 2489 N 240.553 6.04915 -3.56402 0
M  V30 2490 H 245.393 1.71293 -2.43849 0
M  V30 2491 H 242.93 0.835889 -1.21043 0
M  V30 2492 H 244.888 3.94496 -1.35753 0
M  V30 2493 H 243.518 3.18859 -0.50288 0
M  V30 2494 H 242.57 2.53783 -2.8337 0
M  V30 2495 H 243.882 3.48795 -3.56572 0
M  V30 2496 H 243.036 5.55586 -2.4374 0
M  V30 2497 H 241.775 4.60681 -1.60075 0
M  V30 2498 H 240.78 3.96073 -3.81321 0
M  V30 2499 H 242.005 4.94372 -4.65589 0
M  V30 2500 H 239.951 5.9914 -2.67146 0
M  V30 2501 H 239.868 6.15106 -4.39524 0
M  V30 2502 H 241.136 6.95533 -3.51929 0
M  V30 2503 N 245.365 1.30045 0.890287 0
M  V30 2504 C 246.59 1.21598 1.68014 0
M  V30 2505 C 247.015 -0.218678 1.86825 0
M  V30 2506 O 246.373 -1.15756 1.39536 0
M  V30 2507 C 246.421 1.94434 3.03691 0
M  V30 2508 O 245.525 1.2678 3.92429 0
M  V30 2509 H 244.866 0.420856 0.513592 0
M  V30 2510 H 247.396 1.71775 1.11151 0
M  V30 2511 H 247.406 2.03251 3.5377 0
M  V30 2512 H 246.081 2.98777 2.89318 0
M  V30 2513 H 244.658 1.26282 3.50866 0
M  V30 2514 N 246.843 -1.10192 1.12674 0
M  V30 2515 C 247.775 -2.16418 0.754701 0
M  V30 2516 C 248.788 -1.61309 -0.21986 0
M  V30 2517 O 249.977 -1.785 -0.000826841 0
M  V30 2518 C 247.077 -3.38762 0.096698 0
M  V30 2519 C 246.25 -4.23307 1.10136 0
M  V30 2520 C 245.309 -5.24092 0.470513 0
M  V30 2521 O 244.335 -5.57906 1.12824 0
M  V30 2522 N 245.537 -5.75491 -0.760948 0
M  V30 2523 H 248.302 -2.48943 1.66875 0
M  V30 2524 H 245.863 -1.25834 1.01869 0
M  V30 2525 H 247.855 -4.03291 -0.337384 0
M  V30 2526 H 246.425 -3.04192 -0.720153 0
M  V30 2527 H 245.645 -3.55036 1.71299 0
M  V30 2528 H 246.933 -4.76624 1.78064 0
M  V30 2529 H 246.331 -5.50222 -1.31424 0
M  V30 2530 H 244.888 -6.41792 -1.13781 0
M  V30 2531 N 248.321 -0.919034 -1.28029 0
M  V30 2532 C 249.567 -0.555757 -1.95036 0
M  V30 2533 C 249.9 0.899198 -1.72128 0
M  V30 2534 O 249.175 1.64023 -1.04531 0
M  V30 2535 C 249.458 -0.872024 -3.49382 0
M  V30 2536 C 249.311 -2.3801 -3.81669 0
M  V30 2537 C 250.63 -0.37185 -4.38526 0
M  V30 2538 H 247.749 -0.203386 -0.708381 0
M  V30 2539 H 250.391 -1.14924 -1.51303 0
M  V30 2540 H 248.541 -0.366946 -3.86763 0
M  V30 2541 H 250.213 -2.9562 -3.54128 0
M  V30 2542 H 248.456 -2.83289 -3.28526 0
M  V30 2543 H 249.127 -2.55192 -4.8947 0
M  V30 2544 H 251.603 -0.804602 -4.08247 0
M  V30 2545 H 250.479 -0.622173 -5.45362 0
M  V30 2546 H 250.74 0.727934 -4.36066 0
M  V30 2547 N 249.799 1.42003 -0.683588 0
M  V30 2548 C 251.027 2.05746 -0.218182 0
M  V30 2549 C 251.442 1.51396 1.12804 0
M  V30 2550 O 250.799 0.657303 1.70252 0
M  V30 2551 C 250.85 3.61171 -0.154131 0
M  V30 2552 O 250.571 4.13508 -1.44716 0
M  V30 2553 C 252.072 4.42042 0.333713 0
M  V30 2554 H 249.292 0.662888 -0.10402 0
M  V30 2555 H 251.836 1.81987 -0.9328 0
M  V30 2556 H 249.991 3.84012 0.511231 0
M  V30 2557 H 250.405 5.07453 -1.32632 0
M  V30 2558 H 251.879 5.51028 0.327423 0
M  V30 2559 H 252.356 4.17269 1.37053 0
M  V30 2560 H 252.962 4.24239 -0.300222 0
M  V30 2561 N 251.277 0.427512 1.51691 0
M  V30 2562 C 252.524 -0.142229 2.02 0
M  V30 2563 C 252.852 -1.43566 1.31221 0
M  V30 2564 O 252.107 -1.91298 0.412744 0
M  V30 2565 C 252.406 -0.418249 3.54944 0
M  V30 2566 C 252.072 0.788187 4.43958 0
M  V30 2567 C 250.734 1.11906 4.68007 0
M  V30 2568 C 253.086 1.59347 4.96244 0
M  V30 2569 C 250.414 2.25608 5.41588 0
M  V30 2570 C 252.766 2.7214 5.71072 0
M  V30 2571 C 251.43 3.05692 5.93387 0
M  V30 2572 H 250.7 -0.0520451 0.73917 0
M  V30 2573 H 253.347 0.572697 1.82736 0
M  V30 2574 H 251.652 -1.21496 3.72486 0
M  V30 2575 H 253.349 -0.872339 3.91397 0
M  V30 2576 H 249.939 0.520344 4.2543 0
M  V30 2577 H 254.123 1.35106 4.77556 0
M  V30 2578 H 249.379 2.51929 5.57083 0
M  V30 2579 H 253.553 3.34914 6.10578 0
M  V30 2580 H 251.18 3.9391 6.50184 0
M  V30 2581 N 252.755 -1.56801 0.158532 0
M  V30 2582 C 253.687 -2.14488 -0.807923 0
M  V30 2583 C 254.7 -1.09721 -1.20271 0
M  V30 2584 O 255.889 -1.36956 -1.14478 0
M  V30 2585 C 252.989 -2.66217 -2.09718 0
M  V30 2586 C 252.162 -3.95507 -1.86796 0
M  V30 2587 C 251.221 -4.3243 -2.99818 0
M  V30 2588 O 250.247 -5.00543 -2.71008 0
M  V30 2589 N 251.449 -3.92947 -4.27285 0
M  V30 2590 H 254.214 -2.98042 -0.314816 0
M  V30 2591 H 251.775 -1.61881 -0.0246692 0
M  V30 2592 H 253.767 -2.87924 -2.84398 0
M  V30 2593 H 252.337 -1.87324 -2.50257 0
M  V30 2594 H 251.557 -3.82309 -0.96089 0
M  V30 2595 H 252.845 -4.79972 -1.68833 0
M  V30 2596 H 252.243 -3.38087 -4.53557 0
M  V30 2597 H 250.8 -4.19681 -4.9871 0
M  V30 2598 N 254.233 0.115231 -1.57178 0
M  V30 2599 C 255.463 0.835224 -1.88964 0
M  V30 2600 C 255.871 1.73774 -0.74829 0
M  V30 2601 O 255.214 1.81401 0.289739 0
M  V30 2602 C 255.276 1.7178 -3.15804 0
M  V30 2603 C 254.94 0.989198 -4.46166 0
M  V30 2604 C 255.937 0.328263 -5.18863 0
M  V30 2605 C 253.622 0.969256 -4.9286 0
M  V30 2606 C 255.616 -0.342873 -6.36477 0
M  V30 2607 C 253.303 0.294324 -6.10391 0
M  V30 2608 C 254.301 -0.360582 -6.82048 0
M  V30 2609 O 253.989 -1.02474 -7.97342 0
M  V30 2610 H 253.721 0.245197 -0.629964 0
M  V30 2611 H 256.275 0.10303 -2.05141 0
M  V30 2612 H 254.505 2.49173 -2.95719 0
M  V30 2613 H 256.194 2.31255 -3.33581 0
M  V30 2614 H 256.96 0.335263 -4.8384 0
M  V30 2615 H 252.839 1.46844 -4.36987 0
M  V30 2616 H 256.383 -0.854629 -6.92345 0
M  V30 2617 H 252.28 0.285099 -6.4487 0
M  V30 2618 H 253.048 -0.929594 -8.13204 0
M  V30 2619 N 255.711 1.52812 0.385517 0
M  V30 2620 C 256.988 1.5861 1.14465 0
M  V30 2621 C 257.368 0.381402 2.07626 0
M  V30 2622 O 256.716 -0.629999 2.19643 0
M  V30 2623 C 256.926 2.92664 1.90128 0
M  V30 2624 C 258.274 3.46526 2.45367 0
M  V30 2625 O 259.298 2.94562 2.0028 0
M  V30 2626 O 258.157 4.37323 3.27736 0
M  V30 2627 H 255.251 0.639855 0.523941 0
M  V30 2628 H 257.797 1.65149 0.390389 0
M  V30 2629 H 256.569 3.71788 1.22022 0
M  V30 2630 H 256.192 2.89527 2.72507 0
M  V30 2631 N 257.189 -0.644168 1.43834 0
M  V30 2632 C 258.466 -1.40188 1.36406 0
M  V30 2633 C 258.846 -2.11094 0.0163124 0
M  V30 2634 O 258.194 -2.05426 -1.00062 0
M  V30 2635 C 258.404 -2.3791 2.55343 0
M  V30 2636 C 259.752 -3.01637 2.98832 0
M  V30 2637 O 260.776 -2.48237 2.55455 0
M  V30 2638 O 259.635 -3.98477 3.74003 0
M  V30 2639 H 256.729 -0.626773 0.539523 0
M  V30 2640 H 259.275 -0.670317 1.559 0
M  V30 2641 H 258.047 -1.84525 3.4506 0
M  V30 2642 H 257.67 -3.18503 2.37995 0
M  V30 2643 N 258.668 -1.30515 -0.883378 0
M  V30 2644 C 259.916 -1.19194 -1.63209 0
M  V30 2645 C 260.237 0.253205 -1.93349 0
M  V30 2646 O 259.507 1.17025 -1.57105 0
M  V30 2647 H 258.087 -0.438148 -0.605009 0
M  V30 2648 H 260.749 -1.63663 -1.05832 0
M  V30 2649 H 259.845 -1.75396 -2.58153 0
M  V30 2650 N 260.146 1.09593 -1.13257 0
M  V30 2651 C 261.093 2.1618 -0.808381 0
M  V30 2652 C 262.063 1.64517 0.228754 0
M  V30 2653 O 263.248 1.9053 0.101381 0
M  V30 2654 C 260.388 3.43973 -0.278675 0
M  V30 2655 C 259.501 4.09545 -1.37466 0
M  V30 2656 C 258.636 5.25088 -0.803479 0
M  V30 2657 C 257.675 5.82579 -1.87799 0
M  V30 2658 N 256.812 6.89486 -1.32488 0
M  V30 2659 H 261.652 2.43254 -1.72138 0
M  V30 2660 H 259.189 1.19392 -0.859294 0
M  V30 2661 H 261.147 4.17174 0.0465583 0
M  V30 2662 H 259.777 3.17223 0.597459 0
M  V30 2663 H 258.829 3.34226 -1.81652 0
M  V30 2664 H 260.141 4.48307 -2.18684 0
M  V30 2665 H 259.295 6.05178 -0.429427 0
M  V30 2666 H 258.034 4.87684 0.0397956 0
M  V30 2667 H 257.039 5.01152 -2.26113 0
M  V30 2668 H 258.264 6.22045 -2.72463 0
M  V30 2669 H 256.21 6.54064 -0.503575 0
M  V30 2670 H 256.127 7.27007 -2.07355 0
M  V30 2671 H 257.395 7.73336 -0.978336 0
M  V30 2672 N 261.624 0.925811 1.2754 0
M  V30 2673 C 262.873 0.561084 1.93739 0
M  V30 2674 C 263.186 -0.901685 1.73577 0
M  V30 2675 O 264.392 -1.37511 2.34101 0
M  V30 2676 C 262.848 0.952668 3.47062 0
M  V30 2677 C 262.456 2.43599 3.75983 0
M  V30 2678 C 264.2 0.659103 4.19352 0
M  V30 2679 C 262.107 2.76707 5.22673 0
M  V30 2680 H 261.037 0.206122 0.725279 0
M  V30 2681 H 263.688 1.12637 1.44863 0
M  V30 2682 H 262.07 0.316053 3.94737 0
M  V30 2683 H 263.244 3.12035 3.39073 0
M  V30 2684 H 261.559 2.70125 3.16893 0
M  V30 2685 H 264.156 0.882985 5.27359 0
M  V30 2686 H 264.499 -0.403607 4.14339 0
M  V30 2687 H 265.032 1.25473 3.77494 0
M  V30 2688 H 261.771 3.8188 5.32774 0
M  V30 2689 H 261.291 2.12919 5.60737 0
M  V30 2690 H 262.97 2.6435 5.90532 0
M  V30 2691 N 263.102 -1.41638 0.69111 0
M  V30 2692 C 264.348 -2.01598 0.220519 0
M  V30 2693 C 264.681 -1.54594 -1.17535 0
M  V30 2694 O 263.956 -0.755177 -1.79241 0
M  V30 2695 C 264.239 -3.59062 0.273243 0
M  V30 2696 C 264.092 -4.16203 1.70573 0
M  V30 2697 C 265.411 -4.38546 -0.369457 0
M  V30 2698 H 262.53 -0.732468 0.0816045 0
M  V30 2699 H 265.172 -1.68445 0.878986 0
M  V30 2700 H 263.322 -3.87435 -0.287411 0
M  V30 2701 H 264.994 -3.98722 2.31989 0
M  V30 2702 H 263.237 -3.71414 2.2413 0
M  V30 2703 H 263.908 -5.25358 1.69419 0
M  V30 2704 H 266.384 -4.1596 0.107977 0
M  V30 2705 H 265.26 -5.48069 -0.302002 0
M  V30 2706 H 265.521 -4.17662 -1.44951 0
M  V30 2707 N 264.58 -0.43555 -1.51462 0
M  V30 2708 C 265.828 0.131254 -2.01673 0
M  V30 2709 C 266.149 1.43368 -1.32177 0
M  V30 2710 O 265.419 1.90524 -0.455769 0
M  V30 2711 H 263.999 0.0514954 -0.745223 0
M  V30 2712 H 266.661 -0.577847 -1.86137 0
M  V30 2713 H 265.757 0.308446 -3.10572 0
M  V30 2714 N 266.058 1.56714 -0.166846 0
M  V30 2715 C 267.307 1.95922 0.479318 0
M  V30 2716 C 267.62 1.05529 1.6469 0
M  V30 2717 O 268.826 1.34399 2.35901 0
M  V30 2718 C 267.282 3.48359 0.90412 0
M  V30 2719 C 266.89 4.47369 -0.237621 0
M  V30 2720 C 268.634 3.96394 1.51896 0
M  V30 2721 C 266.541 5.91039 0.206561 0
M  V30 2722 H 265.471 0.731495 0.18284 0
M  V30 2723 H 268.122 1.81728 -0.254363 0
M  V30 2724 H 266.504 3.57955 1.69365 0
M  V30 2725 H 267.678 4.49485 -1.01489 0
M  V30 2726 H 265.993 4.09366 -0.762128 0
M  V30 2727 H 268.59 5.01186 1.86325 0
M  V30 2728 H 268.933 3.39075 2.41524 0
M  V30 2729 H 269.466 3.89796 0.79395 0
M  V30 2730 H 266.205 6.52221 -0.654834 0
M  V30 2731 H 265.725 5.9224 0.949282 0
M  V30 2732 H 267.404 6.43707 0.651939 0
M  V30 2733 N 267.536 -0.106894 1.57237 0
M  V30 2734 C 268.813 -0.843526 1.76477 0
M  V30 2735 C 269.193 -1.97499 0.745464 0
M  V30 2736 O 268.541 -2.27357 -0.228306 0
M  V30 2737 C 268.751 -1.34903 3.21873 0
M  V30 2738 C 270.099 -1.79654 3.8472 0
M  V30 2739 O 271.123 -1.44554 3.2555 0
M  V30 2740 O 269.982 -2.44515 4.88748 0
M  V30 2741 H 267.076 -0.401468 0.723016 0
M  V30 2742 H 269.622 -0.0896927 1.69463 0
M  V30 2743 H 268.394 -0.53781 3.87586 0
M  V30 2744 H 268.017 -2.16522 3.33473 0
M  V30 2745 N 269.014 -1.53014 -0.377408 0
M  V30 2746 C 269.977 -1.77957 -1.44444 0
M  V30 2747 C 270.977 -0.649763 -1.47087 0
M  V30 2748 O 272.167 -0.917897 -1.48055 0
M  V30 2749 C 269.299 -1.89089 -2.83651 0
M  V30 2750 H 270.492 -2.73243 -1.23606 0
M  V30 2751 H 268.045 -1.43912 -0.609844 0
M  V30 2752 H 268.78 -0.958293 -3.09818 0
M  V30 2753 H 268.565 -2.71254 -2.83132 0
M  V30 2754 H 270.055 -2.1002 -3.60945 0
M  V30 2755 N 270.492 0.636531 -1.44174 0
M  V30 2756 C 271.738 1.39826 -1.4689 0
M  V30 2757 C 272.071 1.93947 -0.0990585 0
M  V30 2758 O 271.346 1.73325 0.882544 0
M  V30 2759 C 271.629 2.56751 -2.5249 0
M  V30 2760 C 271.482 2.08014 -3.98811 0
M  V30 2761 C 272.801 3.58946 -2.54649 0
M  V30 2762 H 269.92 0.507075 -0.53483 0
M  V30 2763 H 272.562 0.720188 -1.75822 0
M  V30 2764 H 270.712 3.14597 -2.2795 0
M  V30 2765 H 272.384 1.5504 -4.34466 0
M  V30 2766 H 270.627 1.39242 -4.10846 0
M  V30 2767 H 271.298 2.92169 -4.68339 0
M  V30 2768 H 273.774 3.1089 -2.76563 0
M  V30 2769 H 272.65 4.38286 -3.3045 0
M  V30 2770 H 272.911 4.12655 -1.58646 0
M  V30 2771 N 271.97 1.30982 0.876444 0
M  V30 2772 C 273.216 1.20474 1.63138 0
M  V30 2773 C 273.549 -0.238096 1.92735 0
M  V30 2774 O 272.824 -1.1692 1.55435 0
M  V30 2775 C 273.107 2.04244 2.96574 0
M  V30 2776 C 272.96 3.56793 2.73896 0
M  V30 2777 C 274.279 1.88684 3.97601 0
M  V30 2778 H 271.398 0.439001 0.591985 0
M  V30 2779 H 274.04 1.60704 1.01361 0
M  V30 2780 H 272.19 1.70063 3.493 0
M  V30 2781 H 273.862 4.01077 2.27892 0
M  V30 2782 H 272.105 3.80548 2.08245 0
M  V30 2783 H 272.776 4.10706 3.68815 0
M  V30 2784 H 275.252 2.18584 3.54062 0
M  V30 2785 H 274.128 2.4961 4.88862 0
M  V30 2786 H 274.389 0.848343 4.33884 0
M  V30 2787 N 273.449 -1.08991 1.13837 0
M  V30 2788 C 274.379 -2.17771 0.842507 0
M  V30 2789 C 275.36 -1.6892 -0.20001 0
M  V30 2790 O 276.545 -1.94113 -0.0579731 0
M  V30 2791 C 273.675 -3.4589 0.312644 0
M  V30 2792 C 272.629 -4.08099 1.28992 0
M  V30 2793 C 271.955 -5.31098 0.619623 0
M  V30 2794 C 273.255 -4.50077 2.65005 0
M  V30 2795 H 274.949 -2.42777 1.75213 0
M  V30 2796 H 272.495 -1.16682 0.843875 0
M  V30 2797 H 274.448 -4.21297 0.0933043 0
M  V30 2798 H 273.172 -3.20419 -0.632382 0
M  V30 2799 H 271.831 -3.34717 1.49533 0
M  V30 2800 H 271.479 -5.0191 -0.33102 0
M  V30 2801 H 271.179 -5.73674 1.27167 0
M  V30 2802 H 272.703 -6.09224 0.409669 0
M  V30 2803 H 274.117 -5.16688 2.48407 0
M  V30 2804 H 272.514 -5.03553 3.26427 0
M  V30 2805 H 273.584 -3.62257 3.22332 0
M  V30 2806 N 274.927 -0.932562 -1.27047 0
M  V30 2807 C 276.152 -0.591474 -1.98787 0
M  V30 2808 C 276.577 0.824601 -1.69062 0
M  V30 2809 O 275.935 1.5541 -0.933677 0
M  V30 2810 C 275.983 -0.829808 -3.50922 0
M  V30 2811 O 275.087 0.102266 -4.12273 0
M  V30 2812 H 274.428 -0.227185 -0.623926 0
M  V30 2813 H 276.958 -1.25314 -1.61733 0
M  V30 2814 H 276.968 -0.747292 -4.01098 0
M  V30 2815 H 275.643 -1.86201 -3.7189 0
M  V30 2816 H 274.22 -0.0305761 -3.72887 0
M  V30 2817 N 276.405 1.4127 -0.698611 0
M  V30 2818 C 277.633 2.05503 -0.239992 0
M  V30 2819 C 278.048 1.52584 1.11191 0
M  V30 2820 O 277.405 0.675323 1.69545 0
M  V30 2821 C 277.456 3.60987 -0.192429 0
M  V30 2822 O 277.177 4.1195 -1.49094 0
M  V30 2823 C 278.678 4.42371 0.28681 0
M  V30 2824 H 275.898 0.661748 -0.111045 0
M  V30 2825 H 278.442 1.80987 -0.95205 0
M  V30 2826 H 276.597 3.84533 0.470472 0
M  V30 2827 H 277.011 5.06018 -1.38007 0
M  V30 2828 H 278.485 5.51344 0.26896 0
M  V30 2829 H 278.962 4.18699 1.32619 0
M  V30 2830 H 279.568 4.23897 -0.345201 0
M  V30 2831 N 277.883 0.443576 1.51229 0
M  V30 2832 C 278.815 -0.400608 2.25672 0
M  V30 2833 C 279.828 -0.980945 1.29928 0
M  V30 2834 O 281.017 -0.874024 1.55638 0
M  V30 2835 C 278.117 -1.57304 3.00181 0
M  V30 2836 C 277.29 -1.11046 4.23069 0
M  V30 2837 C 276.349 -2.15374 4.80105 0
M  V30 2838 O 275.375 -1.74554 5.41774 0
M  V30 2839 N 276.577 -3.47922 4.64683 0
M  V30 2840 H 279.342 0.23745 2.98758 0
M  V30 2841 H 276.903 0.272809 1.59585 0
M  V30 2842 H 278.895 -2.26733 3.35223 0
M  V30 2843 H 277.465 -2.11632 2.30066 0
M  V30 2844 H 276.685 -0.243019 3.9345 0
M  V30 2845 H 277.973 -0.778888 5.02803 0
M  V30 2846 H 277.371 -3.83815 4.15575 0
M  V30 2847 H 275.928 -4.13228 5.0407 0
M  V30 2848 N 279.361 -1.56624 0.175154 0
M  V30 2849 C 280.311 -2.14747 -0.766004 0
M  V30 2850 C 281.295 -1.08275 -1.19018 0
M  V30 2851 O 282.487 -1.34388 -1.15191 0
M  V30 2852 C 279.616 -2.79478 -1.99366 0
M  V30 2853 C 278.702 -3.93114 -1.5913 0
M  V30 2854 N 279.093 -4.97752 -0.89872 0
M  V30 2855 C 277.391 -4.04345 -1.88204 0
M  V30 2856 C 278.092 -5.77473 -0.700012 0
M  V30 2857 N 277.068 -5.29207 -1.24263 0
M  V30 2858 H 280.87 -2.93015 -0.22793 0
M  V30 2859 H 278.384 -1.6238 -0.0253843 0
M  V30 2860 H 280.381 -3.19498 -2.67818 0
M  V30 2861 H 279.041 -2.02692 -2.53665 0
M  V30 2862 H 280.052 -5.14903 -0.556347 0
M  V30 2863 H 276.729 -3.38667 -2.44153 0
M  V30 2864 H 278.119 -6.71728 -0.152047 0
M  V30 2865 N 280.839 0.0985539 -1.57292 0
M  V30 2866 C 282.064 0.820196 -1.90493 0
M  V30 2867 C 282.489 1.71658 -0.769094 0
M  V30 2868 O 281.847 1.79133 0.279495 0
M  V30 2869 C 281.895 1.61242 -3.22542 0
M  V30 2870 O 280.999 2.72108 -3.09888 0
M  V30 2871 H 280.34 0.225547 -0.62452 0
M  V30 2872 H 282.87 0.0748159 -2.04463 0
M  V30 2873 H 282.88 1.99737 -3.55766 0
M  V30 2874 H 281.555 0.954535 -4.04798 0
M  V30 2875 H 280.132 2.36667 -2.88172 0
M  V30 2876 N 282.317 1.53212 0.369288 0
M  V30 2877 C 283.227 1.82342 1.47609 0
M  V30 2878 C 284.243 0.711532 1.58787 0
M  V30 2879 O 285.419 1.0012 1.74751 0
M  V30 2880 C 282.484 2.00393 2.8292 0
M  V30 2881 C 281.545 3.24297 2.81301 0
M  V30 2882 C 280.778 3.41478 4.10157 0
M  V30 2883 O 281.001 2.63033 5.06132 0
M  V30 2884 O 279.935 4.34817 4.16194 0
M  V30 2885 H 283.761 2.76366 1.25918 0
M  V30 2886 H 281.346 1.38547 0.559034 0
M  V30 2887 H 283.228 2.13859 3.63101 0
M  V30 2888 H 281.903 1.09559 3.04596 0
M  V30 2889 H 280.81 3.16257 1.99831 0
M  V30 2890 H 282.143 4.15041 2.64578 0
M  V30 2891 N 283.795 -0.628877 1.44509 0
M  V30 2892 C 284.705 -1.7694 1.54044 0
M  V30 2893 C 285.721 -1.68705 0.425987 0
M  V30 2894 O 286.897 -1.89442 0.683656 0
M  V30 2895 C 283.962 -3.13332 1.48405 0
M  V30 2896 C 283.023 -3.33181 2.70719 0
M  V30 2897 C 282.256 -4.63067 2.6534 0
M  V30 2898 O 282.479 -5.44017 1.71469 0
M  V30 2899 O 281.413 -4.85167 3.56226 0
M  V30 2900 H 285.239 -1.71848 2.50403 0
M  V30 2901 H 282.824 -0.790378 1.26781 0
M  V30 2902 H 284.706 -3.94634 1.47791 0
M  V30 2903 H 283.381 -3.1896 0.551898 0
M  V30 2904 H 282.288 -2.51549 2.769 0
M  V30 2905 H 283.621 -3.32416 3.62988 0
M  V30 2906 N 285.273 -1.31445 -0.869486 0
M  V30 2907 C 286.522 -1.20517 -1.61736 0
M  V30 2908 C 286.835 0.235341 -1.94179 0
M  V30 2909 O 288.041 0.466312 -2.67465 0
M  V30 2910 C 286.497 -2.10982 -2.91573 0
M  V30 2911 C 286.105 -3.60032 -2.66611 0
M  V30 2912 C 287.849 -2.08856 -3.69567 0
M  V30 2913 C 285.756 -4.42503 -3.92358 0
M  V30 2914 H 284.686 -0.447493 -0.606849 0
M  V30 2915 H 287.337 -1.56303 -0.96133 0
M  V30 2916 H 285.719 -1.68095 -3.58553 0
M  V30 2917 H 286.893 -4.11167 -2.08035 0
M  V30 2918 H 285.208 -3.64139 -2.0197 0
M  V30 2919 H 287.805 -2.67716 -4.62852 0
M  V30 2920 H 288.148 -1.07582 -4.02159 0
M  V30 2921 H 288.681 -2.49945 -3.09471 0
M  V30 2922 H 285.42 -5.44533 -3.64916 0
M  V30 2923 H 284.94 -3.96125 -4.50383 0
M  V30 2924 H 286.619 -4.54741 -4.60238 0
M  V30 2925 N 286.751 1.08385 -1.14413 0
M  V30 2926 C 288.028 1.77429 -0.823297 0
M  V30 2927 C 288.408 1.9974 0.683163 0
M  V30 2928 O 287.756 1.60739 1.62405 0
M  V30 2929 C 287.966 3.09004 -1.62227 0
M  V30 2930 C 289.314 3.83532 -1.82177 0
M  V30 2931 O 290.338 3.18786 -1.58915 0
M  V30 2932 O 289.197 4.99792 -2.21067 0
M  V30 2933 H 286.291 0.769999 -0.301712 0
M  V30 2934 H 288.837 1.14846 -1.24934 0
M  V30 2935 H 287.609 2.88316 -2.64555 0
M  V30 2936 H 287.232 3.79316 -1.19187 0
M  V30 2937 N 288.23 0.939286 1.26551 0
M  V30 2938 C 289.162 0.404704 2.25599 0
M  V30 2939 C 290.175 -0.470983 1.55838 0
M  V30 2940 O 291.364 -0.281734 1.76263 0
M  V30 2941 C 288.464 -0.43764 3.36062 0
M  V30 2942 C 287.637 0.421449 4.35365 0
M  V30 2943 C 286.696 -0.36015 5.24966 0
M  V30 2944 O 285.722 0.236167 5.6871 0
M  V30 2945 N 286.924 -1.65715 5.56344 0
M  V30 2946 H 289.689 1.25618 2.72103 0
M  V30 2947 H 287.25 0.807963 1.40298 0
M  V30 2948 H 289.242 -0.967866 3.92956 0
M  V30 2949 H 287.812 -1.18991 2.89067 0
M  V30 2950 H 287.032 1.1329 3.7757 0
M  V30 2951 H 288.32 1.00835 4.98708 0
M  V30 2952 H 287.718 -2.16378 5.22682 0
M  V30 2953 H 286.275 -2.13366 6.15888 0
M  V30 2954 N 289.708 -1.40897 0.706093 0
M  V30 2955 C 290.655 -2.30751 0.0474474 0
M  V30 2956 C 291.625 -1.47678 -0.76029 0
M  V30 2957 O 292.81 -1.76441 -0.726177 0
M  V30 2958 C 289.95 -3.33815 -0.875309 0
M  V30 2959 C 289.063 -4.31961 -0.0580623 0
M  V30 2960 C 288.198 -5.22093 -0.979425 0
M  V30 2961 C 287.237 -6.11902 -0.155706 0
M  V30 2962 N 286.374 -6.94482 -1.03144 0
M  V30 2963 H 291.214 -2.86513 0.819413 0
M  V30 2964 H 288.751 -1.41102 0.415783 0
M  V30 2965 H 290.709 -3.92129 -1.42446 0
M  V30 2966 H 289.339 -2.79579 -1.61356 0
M  V30 2967 H 288.391 -3.75507 0.608147 0
M  V30 2968 H 289.703 -4.95415 0.580082 0
M  V30 2969 H 288.857 -5.85292 -1.59744 0
M  V30 2970 H 287.596 -4.5889 -1.65141 0
M  V30 2971 H 286.601 -5.47742 0.475309 0
M  V30 2972 H 287.826 -6.77162 0.512635 0
M  V30 2973 H 285.772 -6.33877 -1.68924 0
M  V30 2974 H 285.689 -7.54665 -0.449108 0
M  V30 2975 H 286.957 -7.6214 -1.63593 0
M  V30 2976 N 291.186 -0.45159 -1.50991 0
M  V30 2977 C 292.411 0.110667 -2.07105 0
M  V30 2978 C 292.836 1.3446 -1.31538 0
M  V30 2979 O 292.194 1.77743 -0.357365 0
M  V30 2980 C 292.242 0.397238 -3.58405 0
M  V30 2981 O 291.346 1.48124 -3.84881 0
M  V30 2982 H 290.687 -0.00439271 -0.663985 0
M  V30 2983 H 293.217 -0.637026 -1.9443 0
M  V30 2984 H 293.227 0.64351 -4.02893 0
M  V30 2985 H 291.902 -0.504553 -4.12828 0
M  V30 2986 H 290.479 1.22381 -3.52246 0
M  V30 2987 N 292.664 1.56529 -0.183458 0
M  V30 2988 C 293.594 2.21549 0.737456 0
M  V30 2989 C 294.575 1.17489 1.23005 0
M  V30 2990 O 295.76 1.45959 1.281 0
M  V30 2991 C 292.89 2.86575 1.96194 0
M  V30 2992 C 291.844 3.96778 1.60473 0
M  V30 2993 C 291.17 4.48911 2.90487 0
M  V30 2994 C 292.47 5.15767 0.823497 0
M  V30 2995 H 294.164 2.98761 0.195453 0
M  V30 2996 H 291.71 1.43702 0.0925686 0
M  V30 2997 H 293.663 3.30739 2.61131 0
M  V30 2998 H 292.387 2.06749 2.52828 0
M  V30 2999 H 291.046 3.53286 0.978997 0
M  V30 3000 H 290.694 3.65862 3.45186 0
M  V30 3001 H 290.394 5.23265 2.67335 0
M  V30 3002 H 291.918 4.95771 3.56432 0
M  V30 3003 H 293.332 5.56549 1.37571 0
M  V30 3004 H 291.729 5.96114 0.690551 0
M  V30 3005 H 292.799 4.84574 -0.177782 0
M  V30 3006 N 294.142 -0.090211 1.57342 0
M  V30 3007 C 295.074 -1.13541 1.99101 0
M  V30 3008 C 296.087 -1.3604 0.894258 0
M  V30 3009 O 297.276 -1.34606 1.17233 0
M  V30 3010 C 294.376 -2.49001 2.29895 0
M  V30 3011 C 293.549 -2.46712 3.61182 0
M  V30 3012 C 292.608 -3.64136 3.79857 0
M  V30 3013 O 291.634 -3.46405 4.51655 0
M  V30 3014 N 292.836 -4.83802 3.20806 0
M  V30 3015 H 295.601 -0.779942 2.89373 0
M  V30 3016 H 293.162 -0.279125 1.59476 0
M  V30 3017 H 295.154 -3.26166 2.39578 0
M  V30 3018 H 293.724 -2.76619 1.45605 0
M  V30 3019 H 292.944 -1.55058 3.62423 0
M  V30 3020 H 294.232 -2.42265 4.4742 0
M  V30 3021 H 293.63 -5.01112 2.62494 0
M  V30 3022 H 292.187 -5.58543 3.35966 0
M  V30 3023 N 295.62 -1.53406 -0.361157 0
M  V30 3024 C 296.53 -1.83122 -1.4664 0
M  V30 3025 C 297.546 -0.719943 -1.58407 0
M  V30 3026 O 298.722 -1.01046 -1.74218 0
M  V30 3027 C 295.787 -2.01891 -2.81853 0
M  V30 3028 C 294.848 -3.25784 -2.79577 0
M  V30 3029 C 294.081 -3.43648 -4.0834 0
M  V30 3030 O 294.304 -2.65714 -5.0473 0
M  V30 3031 O 293.238 -4.37018 -4.13883 0
M  V30 3032 H 297.064 -2.7703 -1.24451 0
M  V30 3033 H 294.649 -1.38841 -0.551678 0
M  V30 3034 H 296.531 -2.15782 -3.61962 0
M  V30 3035 H 295.206 -1.11173 -3.0401 0
M  V30 3036 H 294.113 -3.17312 -1.98151 0
M  V30 3037 H 295.446 -4.16439 -2.62373 0
M  V30 3038 N 297.098 0.621204 -1.44841 0
M  V30 3039 C 298.061 1.71459 -1.521 0
M  V30 3040 C 299.061 1.55696 -0.401933 0
M  V30 3041 O 300.251 1.61011 -0.664925 0
M  V30 3042 C 297.383 3.10624 -1.40447 0
M  V30 3043 H 298.576 1.66394 -2.49506 0
M  V30 3044 H 296.129 0.835745 -1.3208 0
M  V30 3045 H 296.864 3.21277 -0.441737 0
M  V30 3046 H 296.649 3.23473 -2.21602 0
M  V30 3047 H 298.139 3.90293 -1.4853 0
M  V30 3048 N 298.576 1.31904 0.862503 0
M  V30 3049 C 299.822 1.22197 1.61851 0
M  V30 3050 C 300.155 -0.217641 1.92977 0
M  V30 3051 O 299.43 -1.15264 1.56666 0
M  V30 3052 C 299.713 2.07378 2.94391 0
M  V30 3053 C 299.566 3.59678 2.70096 0
M  V30 3054 C 300.885 1.92891 3.95577 0
M  V30 3055 H 298.004 0.445255 0.587296 0
M  V30 3056 H 300.646 1.6177 0.99651 0
M  V30 3057 H 298.796 1.73758 3.47477 0
M  V30 3058 H 300.468 4.03472 2.23625 0
M  V30 3059 H 298.711 3.82735 2.04197 0
M  V30 3060 H 299.382 4.14595 3.64438 0
M  V30 3061 H 301.858 2.22327 3.51724 0
M  V30 3062 H 300.734 2.54781 4.86187 0
M  V30 3063 H 300.995 0.894315 4.3296 0
M  V30 3064 N 300.054 -1.07777 1.14986 0
M  V30 3065 C 300.987 -2.14228 0.786243 0
M  V30 3066 C 301.965 -1.60888 -0.235347 0
M  V30 3067 O 303.149 -1.88099 -0.122909 0
M  V30 3068 C 300.276 -3.38281 0.168433 0
M  V30 3069 C 299.322 -4.10387 1.16123 0
M  V30 3070 S 300.155 -4.62371 2.70135 0
M  V30 3071 C 301.311 -5.89704 2.09762 0
M  V30 3072 H 301.544 -2.44741 1.68787 0
M  V30 3073 H 299.077 -1.19984 0.971756 0
M  V30 3074 H 301.035 -4.10098 -0.181588 0
M  V30 3075 H 299.696 -3.05953 -0.710725 0
M  V30 3076 H 298.889 -4.99431 0.677086 0
M  V30 3077 H 298.491 -3.44513 1.45556 0
M  V30 3078 H 300.783 -6.61648 1.45701 0
M  V30 3079 H 301.726 -6.42824 2.96955 0
M  V30 3080 H 302.134 -5.4302 1.54239 0
M  V30 3081 N 301.532 -0.945985 -1.26051 0
M  V30 3082 C 302.442 -0.465633 -2.29933 0
M  V30 3083 C 303.458 0.462761 -1.67733 0
M  V30 3084 O 304.634 0.341118 -1.9849 0
M  V30 3085 C 301.699 0.256994 -3.45746 0
M  V30 3086 C 300.76 -0.708549 -4.23412 0
M  V30 3087 C 299.993 -0.0203135 -5.33696 0
M  V30 3088 O 300.216 1.19571 -5.57726 0
M  V30 3089 O 299.15 -0.701459 -5.97799 0
M  V30 3090 H 302.976 -1.32866 -2.73094 0
M  V30 3091 H 300.561 -0.712071 -1.31339 0
M  V30 3092 H 302.443 0.663852 -4.16138 0
M  V30 3093 H 301.118 1.09533 -3.04605 0
M  V30 3094 H 300.025 -1.16545 -3.55483 0
M  V30 3095 H 301.358 -1.51465 -4.68315 0
M  V30 3096 N 303.011 1.40521 -0.713556 0
M  V30 3097 C 303.921 2.34522 -0.0606667 0
M  V30 3098 C 304.937 1.57193 0.74607 0
M  V30 3099 O 306.113 1.89591 0.679493 0
M  V30 3100 C 303.178 3.36081 0.851491 0
M  V30 3101 C 302.239 4.29286 0.0349339 0
M  V30 3102 C 301.472 5.25994 0.903649 0
M  V30 3103 O 301.695 5.28616 2.14292 0
M  V30 3104 O 300.629 6.00918 0.343723 0
M  V30 3105 H 304.455 2.91968 -0.835972 0
M  V30 3106 H 302.04 1.41681 -0.47402 0
M  V30 3107 H 303.922 3.98369 1.37404 0
M  V30 3108 H 302.597 2.81052 1.60598 0
M  V30 3109 H 301.504 3.70289 -0.532633 0
M  V30 3110 H 302.837 4.87462 -0.681287 0
M  V30 3111 N 304.489 0.459591 1.5075 0
M  V30 3112 C 305.738 -0.100971 2.01447 0
M  V30 3113 C 306.051 -1.41816 1.34713 0
M  V30 3114 O 307.257 -2.06299 1.76502 0
M  V30 3115 C 305.713 -0.23047 3.59161 0
M  V30 3116 C 305.321 1.0776 4.34847 0
M  V30 3117 C 307.065 -0.743608 4.17936 0
M  V30 3118 C 304.972 0.91253 5.84317 0
M  V30 3119 H 303.902 -0.0415102 0.752856 0
M  V30 3120 H 306.553 0.592742 1.73663 0
M  V30 3121 H 304.935 -0.987703 3.83485 0
M  V30 3122 H 306.109 1.8449 4.22256 0
M  V30 3123 H 304.424 1.52097 3.87628 0
M  V30 3124 H 307.021 -0.883959 5.27343 0
M  V30 3125 H 307.364 -1.73196 3.78562 0
M  V30 3126 H 307.897 -0.04408 3.97776 0
M  V30 3127 H 304.636 1.87391 6.28144 0
M  V30 3128 H 304.156 0.185422 5.99513 0
M  V30 3129 H 305.835 0.574547 6.44444 0
M  V30 3130 N 305.967 -1.56429 0.191757 0
M  V30 3131 C 307.216 -1.9666 -0.448088 0
M  V30 3132 C 307.529 -1.08136 -1.62991 0
M  V30 3133 O 308.735 -1.38135 -2.33733 0
M  V30 3134 C 307.191 -3.49753 -0.848585 0
M  V30 3135 C 306.799 -4.46935 0.308764 0
M  V30 3136 C 308.543 -3.9876 -1.4557 0
M  V30 3137 C 306.45 -5.91293 -0.112506 0
M  V30 3138 H 305.38 -0.734312 -0.171179 0
M  V30 3139 H 308.031 -1.81301 0.283242 0
M  V30 3140 H 306.413 -3.60604 -1.63649 0
M  V30 3141 H 307.587 -4.47813 1.08627 0
M  V30 3142 H 305.902 -4.08102 0.827158 0
M  V30 3143 H 308.499 -5.04086 -1.78328 0
M  V30 3144 H 308.842 -3.42875 -2.36099 0
M  V30 3145 H 309.375 -3.9101 -0.731836 0
M  V30 3146 H 306.114 -6.51097 0.758514 0
M  V30 3147 H 305.634 -5.93676 -0.854941 0
M  V30 3148 H 307.313 -6.44663 -0.549448 0
M  V30 3149 N 307.445 0.0818655 -1.57387 0
M  V30 3150 C 308.392 1.09834 -2.0299 0
M  V30 3151 C 309.362 1.39043 -0.908639 0
M  V30 3152 O 310.547 1.50282 -1.17559 0
M  V30 3153 C 307.687 2.40971 -2.47037 0
M  V30 3154 C 306.8 2.18379 -3.7274 0
M  V30 3155 C 305.935 3.43008 -4.0561 0
M  V30 3156 C 304.974 3.15736 -5.24383 0
M  V30 3157 N 304.111 4.32667 -5.52941 0
M  V30 3158 H 308.951 0.702472 -2.89602 0
M  V30 3159 H 306.488 0.33531 -1.43227 0
M  V30 3160 H 308.446 3.1752 -2.70623 0
M  V30 3161 H 307.076 2.78379 -1.63417 0
M  V30 3162 H 306.128 1.32569 -3.56552 0
M  V30 3163 H 307.44 1.94227 -4.59431 0
M  V30 3164 H 306.594 4.27958 -4.30043 0
M  V30 3165 H 305.333 3.70225 -3.17466 0
M  V30 3166 H 304.338 2.2918 -4.99757 0
M  V30 3167 H 305.563 2.8985 -6.14136 0
M  V30 3168 H 303.509 4.59935 -4.67756 0
M  V30 3169 H 303.426 4.11753 -6.34031 0
M  V30 3170 H 304.694 5.18644 -5.81918 0
M  V30 3171 N 308.923 1.53595 0.353017 0
M  V30 3172 C 310.334 1.61937 0.929153 0
M  V30 3173 C 310.685 0.494686 1.89861 0
M  V30 3174 O 309.81 -0.377017 2.1309 0
M  V30 3175 C 310.405 2.93526 1.69199 0
M  V30 3176 C 308.964 3.04161 2.21727 0
M  V30 3177 C 308.111 2.57322 1.03348 0
M  V30 3178 H 311.062 1.58155 0.131431 0
M  V30 3179 H 311.083 2.82034 2.55416 0
M  V30 3180 H 310.595 3.75362 0.986144 0
M  V30 3181 H 308.696 2.26938 2.95516 0
M  V30 3182 H 308.809 4.09465 2.48748 0
M  V30 3183 H 307.173 2.12499 1.40414 0
M  V30 3184 H 307.956 3.41588 0.342428 0
M  V30 3185 N 310.401 -0.613514 1.45168 0
M  V30 3186 C 311.65 -1.36874 1.4815 0
M  V30 3187 C 311.963 -1.952 0.124982 0
M  V30 3188 O 313.169 -2.71481 0.0324176 0
M  V30 3189 C 311.625 -2.47905 2.60904 0
M  V30 3190 C 311.233 -1.96016 4.02842 0
M  V30 3191 C 312.977 -3.24965 2.73126 0
M  V30 3192 C 310.884 -3.04494 5.06988 0
M  V30 3193 H 309.814 -0.514428 0.551253 0
M  V30 3194 H 312.465 -0.658182 1.7129 0
M  V30 3195 H 310.847 -3.21618 2.31037 0
M  V30 3196 H 312.021 -1.29051 4.4236 0
M  V30 3197 H 310.336 -1.31719 3.95018 0
M  V30 3198 H 312.933 -4.05865 3.48106 0
M  V30 3199 H 313.276 -3.75588 1.79553 0
M  V30 3200 H 313.809 -2.5835 3.0249 0
M  V30 3201 H 310.548 -2.58795 6.0225 0
M  V30 3202 H 310.068 -3.70044 4.72046 0
M  V30 3203 H 311.747 -3.68976 5.31475 0
M  V30 3204 N 311.879 -1.3236 -0.855495 0
M  V30 3205 C 312.809 -1.23833 -1.97958 0
M  V30 3206 C 313.79 -0.122361 -1.69659 0
M  V30 3207 O 314.975 -0.30939 -1.9172 0
M  V30 3208 C 312.105 -0.959772 -3.33775 0
M  V30 3209 C 311.059 -2.03689 -3.76424 0
M  V30 3210 C 310.385 -1.61075 -5.09862 0
M  V30 3211 C 311.685 -3.4518 -3.9198 0
M  V30 3212 H 313.379 -2.1788 -2.0535 0
M  V30 3213 H 310.925 -1.04891 -0.986605 0
M  V30 3214 H 312.878 -0.886678 -4.11966 0
M  V30 3215 H 311.602 0.0163404 -3.26596 0
M  V30 3216 H 310.261 -2.10012 -3.00484 0
M  V30 3217 H 309.909 -0.622107 -4.99138 0
M  V30 3218 H 309.609 -2.33143 -5.39368 0
M  V30 3219 H 311.133 -1.55201 -5.90546 0
M  V30 3220 H 312.547 -3.4145 -4.60526 0
M  V30 3221 H 310.944 -4.1559 -4.32903 0
M  V30 3222 H 312.014 -3.84903 -2.94919 0
M  V30 3223 N 313.357 1.07166 -1.15556 0
M  V30 3224 C 314.768 1.6127 -0.940693 0
M  V30 3225 C 315.119 1.89251 0.517551 0
M  V30 3226 O 314.244 1.65937 1.38903 0
M  V30 3227 C 314.839 2.92993 -1.7012 0
M  V30 3228 C 313.398 3.43832 -1.53156 0
M  V30 3229 C 312.545 2.1786 -1.71558 0
M  V30 3230 H 315.496 0.90229 -1.30554 0
M  V30 3231 H 315.517 3.62007 -1.17181 0
M  V30 3232 H 315.029 2.72596 -2.76248 0
M  V30 3233 H 313.13 3.69307 -0.494294 0
M  V30 3234 H 313.243 4.19747 -2.30975 0
M  V30 3235 H 311.607 2.2765 -1.14225 0
M  V30 3236 H 312.39 1.99956 -2.79056 0
M  V30 3237 N 314.835 0.952656 1.25548 0
M  V30 3238 C 315.798 0.475794 2.24207 0
M  V30 3239 C 316.798 -0.419428 1.55234 0
M  V30 3240 O 317.988 -0.216994 1.72843 0
M  V30 3241 C 315.12 -0.312814 3.39462 0
M  V30 3242 H 316.313 1.34779 2.67908 0
M  V30 3243 H 313.866 0.735739 1.37901 0
M  V30 3244 H 314.601 -1.20257 3.01179 0
M  V30 3245 H 314.386 0.329404 3.90714 0
M  V30 3246 H 315.876 -0.635986 4.12729 0
M  V30 3247 N 316.313 -1.40141 0.720998 0
M  V30 3248 C 317.223 -2.34486 0.0731031 0
M  V30 3249 C 318.239 -1.57587 -0.737723 0
M  V30 3250 O 319.415 -1.89949 -0.669429 0
M  V30 3251 C 316.48 -3.36528 -0.833656 0
M  V30 3252 C 315.541 -4.29298 -0.0121673 0
M  V30 3253 C 314.774 -5.26466 -0.875742 0
M  V30 3254 O 314.997 -5.29745 -2.11485 0
M  V30 3255 O 313.931 -6.01092 -0.31185 0
M  V30 3256 H 317.757 -2.9152 0.851444 0
M  V30 3257 H 315.342 -1.41427 0.481527 0
M  V30 3258 H 317.224 -3.99093 -1.35289 0
M  V30 3259 H 315.899 -2.81899 -1.59105 0
M  V30 3260 H 314.806 -3.70001 0.552262 0
M  V30 3261 H 316.139 -4.87094 0.707129 0
M  V30 3262 N 317.792 -0.46758 -1.50504 0
M  V30 3263 C 319.038 0.0808869 -2.03239 0
M  V30 3264 C 319.393 1.37721 -1.34353 0
M  V30 3265 O 318.686 1.86016 -0.459194 0
M  V30 3266 C 318.88 0.323995 -3.55928 0
M  V30 3267 C 318.709 -0.947215 -4.39611 0
M  V30 3268 C 317.479 -1.48951 -4.82848 0
M  V30 3269 C 319.677 -1.84166 -4.80195 0
M  V30 3270 N 317.659 -2.71011 -5.50842 0
M  V30 3271 C 319.03 -2.90815 -5.47564 0
M  V30 3272 C 321.085 -1.85246 -4.62156 0
M  V30 3273 C 319.788 -3.98529 -5.98805 0
M  V30 3274 C 321.814 -2.91914 -5.14335 0
M  V30 3275 C 321.176 -3.97282 -5.81676 0
M  V30 3276 H 317.275 -0.0103394 -0.781932 0
M  V30 3277 H 319.859 -0.635003 -1.84054 0
M  V30 3278 H 318.03 1.00892 -3.75067 0
M  V30 3279 H 319.762 0.866492 -3.95315 0
M  V30 3280 H 316.517 -1.03918 -4.62058 0
M  V30 3281 H 316.941 -3.32988 -5.89447 0
M  V30 3282 H 321.583 -1.05103 -4.09528 0
M  V30 3283 H 319.301 -4.79491 -6.50472 0
M  V30 3284 H 322.887 -2.93729 -5.0221 0
M  V30 3285 H 321.767 -4.78462 -6.21324 0
M  V30 3286 N 319.27 1.56325 -0.20005 0
M  V30 3287 C 320.2 2.22318 0.713916 0
M  V30 3288 C 321.181 1.18788 1.21752 0
M  V30 3289 O 322.366 1.47309 1.26545 0
M  V30 3290 C 319.496 2.88639 1.93144 0
M  V30 3291 C 318.45 3.98457 1.56255 0
M  V30 3292 C 317.776 4.51967 2.85709 0
M  V30 3293 C 319.076 5.16612 0.768747 0
M  V30 3294 H 320.77 2.98952 0.163755 0
M  V30 3295 H 318.316 1.43792 0.0773219 0
M  V30 3296 H 320.269 3.33491 2.57608 0
M  V30 3297 H 318.993 2.09419 2.50621 0
M  V30 3298 H 317.652 3.54305 0.941471 0
M  V30 3299 H 317.3 3.69503 3.41287 0
M  V30 3300 H 317 5.26071 2.6177 0
M  V30 3301 H 318.524 4.99523 3.51154 0
M  V30 3302 H 319.938 5.57977 1.3166 0
M  V30 3303 H 318.335 5.96812 0.627286 0
M  V30 3304 H 319.405 4.84358 -0.229168 0
M  V30 3305 N 320.748 -0.0735177 1.57428 0
M  V30 3306 C 321.976 -0.785969 1.9139 0
M  V30 3307 C 322.391 -1.71207 0.795847 0
M  V30 3308 O 321.748 -1.81033 -0.230915 0
M  V30 3309 C 321.799 -1.58107 3.25091 0
M  V30 3310 O 321.52 -0.6922 4.32597 0
M  V30 3311 C 323.021 -2.39467 3.73055 0
M  V30 3312 H 320.241 -0.223558 0.632663 0
M  V30 3313 H 322.785 -0.044302 2.04452 0
M  V30 3314 H 320.94 -2.27503 3.13562 0
M  V30 3315 H 321.354 -1.24504 5.09508 0
M  V30 3316 H 322.828 -2.90716 4.69242 0
M  V30 3317 H 323.305 -3.18913 3.01979 0
M  V30 3318 H 323.911 -1.7523 3.87523 0
M  V30 3319 N 322.226 -1.5378 -0.344866 0
M  V30 3320 C 323.451 -1.75211 -1.10977 0
M  V30 3321 C 323.876 -0.48936 -1.81623 0
M  V30 3322 O 323.234 0.557925 -1.72502 0
M  V30 3323 C 323.282 -2.93147 -2.09993 0
M  V30 3324 O 322.386 -2.63203 -3.17487 0
M  V30 3325 H 321.727 -0.581241 -0.321021 0
M  V30 3326 H 324.257 -2.00738 -0.395661 0
M  V30 3327 H 324.267 -3.19898 -2.53237 0
M  V30 3328 H 322.942 -3.84731 -1.5797 0
M  V30 3329 H 321.519 -2.47336 -2.79069 0
M  V30 3330 N 323.704 0.605807 -1.45491 0
M  V30 3331 C 324.667 1.69836 -1.5391 0
M  V30 3332 C 325.667 1.55261 -0.418424 0
M  V30 3333 O 326.857 1.60296 -0.681965 0
M  V30 3334 C 323.989 3.09117 -1.43734 0
M  V30 3335 H 325.182 1.63738 -2.51257 0
M  V30 3336 H 322.735 0.821689 -1.32959 0
M  V30 3337 H 323.47 3.20791 -0.475788 0
M  V30 3338 H 323.255 3.21104 -2.25021 0
M  V30 3339 H 324.745 3.88696 -1.52661 0
M  V30 3340 N 325.182 1.32811 0.848464 0
M  V30 3341 C 326.41 1.26739 1.63538 0
M  V30 3342 C 326.825 -0.163484 1.88091 0
M  V30 3343 O 326.182 -1.10258 1.45429 0
M  V30 3344 C 326.233 2.03013 2.99112 0
M  V30 3345 O 325.954 3.40518 2.75643 0
M  V30 3346 C 327.455 2.04038 3.93552 0
M  V30 3347 H 324.675 0.437024 0.509167 0
M  V30 3348 H 327.219 1.75033 1.05753 0
M  V30 3349 H 325.374 1.58426 3.53525 0
M  V30 3350 H 325.788 3.79635 3.61908 0
M  V30 3351 H 327.262 2.61877 4.85926 0
M  V30 3352 H 327.739 1.0282 4.26995 0
M  V30 3353 H 328.345 2.486 3.45077 0
M  V30 3354 N 326.66 -1.06551 1.16123 0
M  V30 3355 C 327.607 -2.13961 0.865414 0
M  V30 3356 C 328.577 -1.65066 -0.185055 0
M  V30 3357 O 329.762 -1.90732 -0.05083 0
M  V30 3358 C 326.902 -3.43113 0.369776 0
M  V30 3359 C 326.015 -4.05756 1.48276 0
M  V30 3360 C 325.15 -5.22773 0.942414 0
M  V30 3361 C 324.189 -5.77395 2.03179 0
M  V30 3362 N 323.326 -6.85731 1.50721 0
M  V30 3363 H 328.166 -2.38605 1.78527 0
M  V30 3364 H 325.703 -1.17072 0.890646 0
M  V30 3365 H 327.661 -4.17151 0.0640643 0
M  V30 3366 H 326.291 -3.18695 -0.513143 0
M  V30 3367 H 325.343 -3.29292 1.9045 0
M  V30 3368 H 326.655 -4.42351 2.30493 0
M  V30 3369 H 325.809 -6.03827 0.589729 0
M  V30 3370 H 324.548 -4.87618 0.0895191 0
M  V30 3371 H 323.553 -4.94981 2.3932 0
M  V30 3372 H 324.778 -6.14603 2.8886 0
M  V30 3373 H 322.724 -6.52499 0.676811 0
M  V30 3374 H 322.641 -7.21254 2.26557 0
M  V30 3375 H 323.909 -7.7047 1.18303 0
M  V30 3376 N 328.138 -0.959301 -1.25041 0
M  V30 3377 C 329.385 -0.616611 -1.92884 0
M  V30 3378 C 329.713 0.847036 -1.75087 0
M  V30 3379 O 328.968 1.62374 -1.09239 0
M  V30 3380 C 329.267 -0.927136 -3.45165 0
M  V30 3381 C 328.933 -2.37757 -3.83122 0
M  V30 3382 C 327.595 -2.77402 -3.93194 0
M  V30 3383 C 329.947 -3.31929 -4.01836 0
M  V30 3384 C 327.275 -4.10277 -4.19392 0
M  V30 3385 C 329.627 -4.64423 -4.29528 0
M  V30 3386 C 328.291 -5.03857 -4.37818 0
M  V30 3387 H 327.561 -0.225634 -0.705812 0
M  V30 3388 H 330.208 -1.20921 -1.48493 0
M  V30 3389 H 328.513 -0.252195 -3.90987 0
M  V30 3390 H 330.21 -0.6405 -3.95852 0
M  V30 3391 H 326.8 -2.06013 -3.75841 0
M  V30 3392 H 330.984 -3.02488 -3.93465 0
M  V30 3393 H 326.24 -4.40467 -4.24027 0
M  V30 3394 H 330.414 -5.37369 -4.42953 0
M  V30 3395 H 328.041 -6.06843 -4.57871 0
M  V30 3396 N 329.616 1.39756 -0.72842 0
M  V30 3397 C 330.863 2.00645 -0.273487 0
M  V30 3398 C 331.191 1.57786 1.13727 0
M  V30 3399 O 330.446 0.794886 1.7883 0
M  V30 3400 C 330.745 3.56002 -0.315776 0
M  V30 3401 C 330.411 4.18489 -1.67863 0
M  V30 3402 C 329.073 4.3527 -2.05166 0
M  V30 3403 C 331.425 4.53219 -2.57375 0
M  V30 3404 C 328.753 4.84069 -3.31503 0
M  V30 3405 C 331.105 5.03423 -3.83077 0
M  V30 3406 C 329.769 5.18413 -4.20481 0
M  V30 3407 H 329.039 0.734211 -0.100076 0
M  V30 3408 H 331.686 1.6718 -0.933972 0
M  V30 3409 H 329.991 3.89452 0.428285 0
M  V30 3410 H 331.688 4.00963 0.0542575 0
M  V30 3411 H 328.278 4.05824 -1.37858 0
M  V30 3412 H 332.462 4.39878 -2.29827 0
M  V30 3413 H 327.718 4.93859 -3.60435 0
M  V30 3414 H 331.892 5.2927 -4.52599 0
M  V30 3415 H 329.519 5.55987 -5.18443 0
M  V30 3416 N 331.094 0.475555 1.50254 0
M  V30 3417 C 332.343 -0.0795996 2.01543 0
M  V30 3418 C 332.656 -1.4038 1.36209 0
M  V30 3419 O 333.862 -2.04415 1.7868 0
M  V30 3420 C 332.318 -0.192363 3.59386 0
M  V30 3421 C 331.926 1.12367 4.33679 0
M  V30 3422 C 333.67 -0.699238 4.18701 0
M  V30 3423 C 331.577 0.974453 5.83317 0
M  V30 3424 H 330.507 -0.0335228 0.753254 0
M  V30 3425 H 333.158 0.611128 1.73025 0
M  V30 3426 H 331.54 -0.946974 3.84511 0
M  V30 3427 H 332.714 1.88958 4.20276 0
M  V30 3428 H 331.029 1.562 3.85993 0
M  V30 3429 H 333.626 -0.827978 5.28251 0
M  V30 3430 H 333.969 -1.69171 3.80377 0
M  V30 3431 H 334.502 -0.00188807 3.978 0
M  V30 3432 H 331.241 1.94042 6.26121 0
M  V30 3433 H 330.761 0.248998 5.99283 0
M  V30 3434 H 332.44 0.642867 6.43798 0
M  V30 3435 N 332.573 -1.56217 0.208337 0
M  V30 3436 C 333.521 -2.21053 -0.723769 0
M  V30 3437 C 334.515 -1.18578 -1.20978 0
M  V30 3438 O 335.721 -1.36691 -1.17114 0
M  V30 3439 H 332.096 -0.708595 -0.251788 0
M  V30 3440 H 334.067 -2.98006 -0.153365 0
M  V30 3441 C 332.816 -2.89417 -1.927 0
M  V30 3442 H 332.139 -3.68019 -1.56212 0
M  V30 3443 H 333.579 -3.38201 -2.55727 0
M  V30 3444 C 332.038 -1.91166 -2.77411 0
M  V30 3445 O 332.568 -1.42026 -3.75754 0
M  V30 3446 N 330.774 -1.59105 -2.43175 0
M  V30 3447 H 330.321 -1.99259 -1.63259 0
M  V30 3448 H 330.279 -0.936255 -3.00136 0
M  V30 3449 N 334.051 0.0651679 -1.57465 0
M  V30 3450 C 335.462 0.616213 -1.76238 0
M  V30 3451 C 335.813 1.7756 -0.834689 0
M  V30 3452 O 334.938 2.1639 -0.0204156 0
M  V30 3453 C 335.533 1.12462 -3.1959 0
M  V30 3454 C 334.092 1.62147 -3.39684 0
M  V30 3455 C 333.239 0.543739 -2.71917 0
M  V30 3456 H 336.19 -0.161022 -1.57881 0
M  V30 3457 H 336.211 1.99324 -3.24114 0
M  V30 3458 H 335.723 0.280592 -3.87084 0
M  V30 3459 H 333.824 2.48854 -2.77313 0
M  V30 3460 H 333.937 1.69385 -4.48158 0
M  V30 3461 H 332.301 0.990352 -2.34657 0
M  V30 3462 H 333.084 -0.290216 -3.42071 0
M  V30 3463 N 335.529 1.53961 0.336706 0
M  V30 3464 C 336.757 1.75483 1.09605 0
M  V30 3465 C 337.172 0.4972 1.82136 0
M  V30 3466 O 336.529 -0.53149 1.74589 0
M  V30 3467 C 336.58 2.93943 2.10428 0
M  V30 3468 O 336.301 4.14842 1.40846 0
M  V30 3469 C 337.802 3.27571 2.98684 0
M  V30 3470 H 335.022 0.586166 0.326574 0
M  V30 3471 H 337.566 2.00808 0.38683 0
M  V30 3472 H 335.721 2.70929 2.76905 0
M  V30 3473 H 336.135 4.81383 2.08255 0
M  V30 3474 H 337.609 4.13791 3.6535 0
M  V30 3475 H 338.086 2.44168 3.65074 0
M  V30 3476 H 338.692 3.52615 2.37787 0
M  V30 3477 N 337.007 -0.598083 1.45811 0
M  V30 3478 C 338.255 -1.35413 1.50026 0
M  V30 3479 C 338.576 -1.94444 0.147177 0
M  V30 3480 O 337.846 -1.77701 -0.824571 0
M  V30 3481 H 336.426 -0.502727 0.552517 0
M  V30 3482 H 339.088 -0.701606 1.81834 0
M  V30 3483 H 338.184 -2.16871 2.2444 0
M  V30 3484 N 338.485 -1.33259 -0.841409 0
M  V30 3485 C 339.901 -1.12538 -1.13169 0
M  V30 3486 C 340.101 0.0854037 -2.01319 0
M  V30 3487 O 339.157 0.766417 -2.40587 0
M  V30 3488 C 340.47 -2.41156 -1.79623 0
M  V30 3489 C 342.018 -2.47038 -1.922 0
M  V30 3490 C 342.493 -3.7561 -2.6207 0
M  V30 3491 N 343.984 -3.76667 -2.69585 0
M  V30 3492 C 344.719 -4.72861 -3.2433 0
M  V30 3493 N 344.215 -5.79428 -3.79783 0
M  V30 3494 N 346.008 -4.6034 -3.22558 0
M  V30 3495 H 338.159 -2.10868 -0.254676 0
M  V30 3496 H 340.422 -0.931615 -0.175493 0
M  V30 3497 H 340.128 -3.29747 -1.22311 0
M  V30 3498 H 340.002 -2.53114 -2.79666 0
M  V30 3499 H 342.389 -1.58898 -2.48667 0
M  V30 3500 H 342.47 -2.39022 -0.911148 0
M  V30 3501 H 342.114 -4.64131 -2.06263 0
M  V30 3502 H 342.044 -3.80902 -3.63622 0
M  V30 3503 H 344.535 -2.99648 -2.30259 0
M  V30 3504 H 344.848 -6.48867 -4.19752 0
M  V30 3505 H 343.193 -5.83166 -3.78078 0
M  V30 3506 H 346.384 -3.76244 -2.78492 0
M  V30 3507 H 346.557 -5.35478 -3.64921 0
M  V30 3508 N 339.963 1.05934 -1.16686 0
M  V30 3509 C 341.21 1.788 -0.950622 0
M  V30 3510 C 341.538 1.87384 0.521305 0
M  V30 3511 O 340.793 1.36438 1.40297 0
M  V30 3512 C 341.092 3.23105 -1.52767 0
M  V30 3513 C 340.758 3.34594 -3.02254 0
M  V30 3514 C 339.42 3.37437 -3.43059 0
M  V30 3515 C 341.772 3.36219 -3.98254 0
M  V30 3516 C 339.1 3.39525 -4.78477 0
M  V30 3517 C 341.452 3.39845 -5.33562 0
M  V30 3518 C 340.116 3.40971 -5.73842 0
M  V30 3519 H 339.386 0.654275 -0.347857 0
M  V30 3520 H 342.033 1.24555 -1.45459 0
M  V30 3521 H 340.338 3.80227 -0.94524 0
M  V30 3522 H 342.035 3.7809 -1.336 0
M  V30 3523 H 338.625 3.3309 -2.6972 0
M  V30 3524 H 342.809 3.33231 -3.67792 0
M  V30 3525 H 338.065 3.38703 -5.09009 0
M  V30 3526 H 342.239 3.4005 -6.07733 0
M  V30 3527 H 339.866 3.42342 -6.78753 0
M  V30 3528 N 341.441 0.965919 1.2453 0
M  V30 3529 C 342.687 0.62776 1.92839 0
M  V30 3530 C 343.02 -0.834694 1.75347 0
M  V30 3531 O 342.295 -1.60031 1.10546 0
M  V30 3532 C 342.578 1.00109 3.45905 0
M  V30 3533 C 342.431 2.52011 3.72573 0
M  V30 3534 C 343.75 0.53435 4.36844 0
M  V30 3535 H 340.869 0.229537 0.700344 0
M  V30 3536 H 343.511 1.2046 1.46933 0
M  V30 3537 H 341.661 0.510238 3.85135 0
M  V30 3538 H 343.333 3.08559 3.42912 0
M  V30 3539 H 341.576 2.95287 3.17786 0
M  V30 3540 H 342.247 2.73183 4.79661 0
M  V30 3541 H 344.723 0.955565 4.04979 0
M  V30 3542 H 343.599 0.824152 5.42678 0
M  V30 3543 H 343.86 -0.565589 4.38467 0
M  V30 3544 N 342.919 -1.39368 0.735821 0
M  V30 3545 C 344.168 -1.99733 0.281004 0
M  V30 3546 C 344.481 -1.59055 -1.13846 0
M  V30 3547 O 345.687 -2.12262 -1.69284 0
M  V30 3548 C 344.143 -3.57057 0.451462 0
M  V30 3549 C 343.751 -4.06697 1.87886 0
M  V30 3550 C 345.495 -4.2446 0.0584616 0
M  V30 3551 C 343.402 -5.56598 1.99883 0
M  V30 3552 H 342.332 -0.747163 0.101311 0
M  V30 3553 H 344.983 -1.59357 0.909819 0
M  V30 3554 H 343.365 -3.95234 -0.246263 0
M  V30 3555 H 344.539 -3.79853 2.60861 0
M  V30 3556 H 342.854 -3.5196 2.22515 0
M  V30 3557 H 345.451 -5.34549 0.127099 0
M  V30 3558 H 345.794 -4.04444 -0.986433 0
M  V30 3559 H 346.327 -3.9146 0.707374 0
M  V30 3560 H 343.066 -5.81494 3.02564 0
M  V30 3561 H 342.586 -5.85242 1.31346 0
M  V30 3562 H 344.265 -6.22022 1.78039 0
M  V30 3563 N 344.397 -0.483516 -1.5 0
M  V30 3564 C 345.645 0.067027 -2.01989 0
M  V30 3565 C 345.966 1.3909 -1.36671 0
M  V30 3566 O 345.236 1.88978 -0.516152 0
M  V30 3567 H 343.816 0.0277606 -0.746484 0
M  V30 3568 H 346.478 -0.636773 -1.84204 0
M  V30 3569 H 345.574 0.209484 -3.11396 0
M  V30 3570 N 345.875 1.56104 -0.216619 0
M  V30 3571 C 347.123 1.97781 0.415593 0
M  V30 3572 C 347.444 1.10536 1.60645 0
M  V30 3573 O 346.714 0.181303 1.95059 0
M  V30 3574 H 345.294 0.730415 0.156534 0
M  V30 3575 H 347.956 1.92445 -0.308366 0
M  V30 3576 H 347.052 3.03072 0.74525 0
M  V30 3577 N 347.353 -0.0568162 1.57498 0
M  V30 3578 C 348.764 -0.606858 1.76562 0
M  V30 3579 C 349.115 -1.77114 0.844094 0
M  V30 3580 O 348.24 -2.16376 0.0318911 0
M  V30 3581 C 348.835 -1.10766 3.20182 0
M  V30 3582 C 347.394 -1.60344 3.40539 0
M  V30 3583 C 346.541 -0.529311 2.72201 0
M  V30 3584 H 349.492 0.169393 1.57793 0
M  V30 3585 H 349.513 -1.97602 3.25167 0
M  V30 3586 H 349.025 -0.26006 3.87228 0
M  V30 3587 H 347.126 -2.47379 2.78629 0
M  V30 3588 H 347.239 -1.67006 4.4905 0
M  V30 3589 H 345.603 -0.977893 2.35179 0
M  V30 3590 H 346.386 0.308352 3.41912 0
M  V30 3591 N 348.832 -1.54138 -0.328536 0
M  V30 3592 C 349.765 -1.78014 -1.4278 0
M  V30 3593 C 350.743 -0.629889 -1.49904 0
M  V30 3594 O 351.927 -0.866763 -1.6739 0
M  V30 3595 C 349.054 -1.89225 -2.80912 0
M  V30 3596 C 348.1 -3.11483 -2.91343 0
M  V30 3597 S 348.933 -4.70201 -2.56263 0
M  V30 3598 C 350.089 -4.84312 -3.96476 0
M  V30 3599 H 350.322 -2.70974 -1.22313 0
M  V30 3600 H 347.855 -1.45197 -0.525084 0
M  V30 3601 H 349.813 -1.9637 -3.60485 0
M  V30 3602 H 348.474 -0.972518 -2.98665 0
M  V30 3603 H 347.667 -3.16046 -3.92595 0
M  V30 3604 H 347.269 -3.02642 -2.19736 0
M  V30 3605 H 349.561 -4.66643 -4.91173 0
M  V30 3606 H 350.504 -5.86411 -3.96898 0
M  V30 3607 H 350.912 -4.12652 -3.85199 0
M  V30 3608 N 350.31 0.590341 -1.46126 0
M  V30 3609 C 351.558 1.34616 -1.50742 0
M  V30 3610 C 351.879 1.94363 -0.157486 0
M  V30 3611 O 351.149 1.78136 0.815136 0
M  V30 3612 H 349.729 0.499789 -0.555175 0
M  V30 3613 H 352.391 0.691953 -1.82203 0
M  V30 3614 H 351.487 2.15678 -2.25587 0
M  V30 3615 N 351.788 1.33704 0.83433 0
M  V30 3616 C 353.065 1.16011 1.57483 0
M  V30 3617 C 353.445 -0.27176 2.09343 0
M  V30 3618 O 352.793 -1.27146 1.89858 0
M  V30 3619 C 353.003 2.20507 2.70514 0
M  V30 3620 C 354.351 2.54898 3.39577 0
M  V30 3621 O 355.375 2.19209 2.80759 0
M  V30 3622 O 354.234 3.16158 4.45765 0
M  V30 3623 H 351.328 0.448992 0.694503 0
M  V30 3624 H 353.874 1.453 0.876691 0
M  V30 3625 H 352.646 3.16667 2.29865 0
M  V30 3626 H 352.269 1.92329 3.47987 0
M  V30 3627 N 353.266 -1.05314 1.17247 0
M  V30 3628 C 354.506 -1.79869 0.970898 0
M  V30 3629 C 354.87 -1.85594 -0.491808 0
M  V30 3630 O 356.071 -2.56229 -0.812409 0
M  V30 3631 C 354.342 -3.19937 1.59295 0
M  V30 3632 S 355.901 -4.10986 1.53741 0
M  V30 3633 H 352.719 -0.61949 0.348931 0
M  V30 3634 H 355.321 -1.26368 1.49169 0
M  V30 3635 H 354.025 -3.13372 2.65003 0
M  V30 3636 H 353.556 -3.78515 1.07191 0
M  V30 3637 H 355.571 -4.93203 0.544537 0
M  V30 3638 N 354.744 -0.972509 -1.24016 0
M  V30 3639 C 355.992 -0.635776 -1.91839 0
M  V30 3640 C 356.313 0.832312 -1.76345 0
M  V30 3641 O 355.583 1.5946 -1.13795 0
M  V30 3642 H 354.163 -0.232157 -0.710009 0
M  V30 3643 H 356.825 -1.23462 -1.50809 0
M  V30 3644 H 355.921 -0.880545 -2.99421 0
M  V30 3645 N 356.222 1.38976 -0.743202 0
M  V30 3646 C 357.152 2.33171 -0.123873 0
M  V30 3647 C 358.133 1.54336 0.71516 0
M  V30 3648 O 359.318 1.82696 0.658467 0
M  V30 3649 C 356.448 3.38474 0.777978 0
M  V30 3650 C 355.402 4.27979 0.0424758 0
M  V30 3651 C 354.728 5.2405 1.06189 0
M  V30 3652 C 356.028 5.10155 -1.1198 0
M  V30 3653 H 357.722 2.85213 -0.910709 0
M  V30 3654 H 355.268 1.37133 -0.439388 0
M  V30 3655 H 357.221 4.03328 1.22084 0
M  V30 3656 H 355.945 2.84891 1.59702 0
M  V30 3657 H 354.604 3.64616 -0.380853 0
M  V30 3658 H 354.252 4.66758 1.87472 0
M  V30 3659 H 353.952 5.84785 0.574485 0
M  V30 3660 H 355.476 5.9178 1.50428 0
M  V30 3661 H 356.89 5.68307 -0.75499 0
M  V30 3662 H 355.287 5.80073 -1.53738 0
M  V30 3663 H 356.357 4.44504 -1.93764 0
M  V30 3664 N 357.7 0.491464 1.49741 0
M  V30 3665 C 358.928 -0.0535151 2.06831 0
M  V30 3666 C 359.343 -1.31683 1.35296 0
M  V30 3667 O 358.7 -1.77402 0.42836 0
M  V30 3668 C 358.751 -0.320835 3.60073 0
M  V30 3669 O 358.472 0.892394 4.28915 0
M  V30 3670 C 359.973 -0.910519 4.33848 0
M  V30 3671 H 357.193 0.0161909 0.670805 0
M  V30 3672 H 359.737 0.68609 1.92647 0
M  V30 3673 H 357.892 -1.0104 3.73991 0
M  V30 3674 H 358.306 0.649401 5.20464 0
M  V30 3675 H 359.78 -1.04721 5.41976 0
M  V30 3676 H 360.257 -1.90589 3.95692 0
M  V30 3677 H 360.863 -0.258712 4.24512 0
M  V30 3678 N 359.178 -1.55987 0.224894 0
M  V30 3679 C 360.426 -1.97998 -0.405099 0
M  V30 3680 C 360.747 -1.11387 -1.60056 0
M  V30 3681 O 360.017 -0.191645 -1.9496 0
M  V30 3682 H 358.597 -0.731235 -0.152658 0
M  V30 3683 H 361.259 -1.92279 0.318567 0
M  V30 3684 H 360.355 -3.03463 -0.729167 0
M  V30 3685 N 360.656 0.0484629 -1.57525 0
M  V30 3686 C 362.072 0.40375 -1.54409 0
M  V30 3687 C 362.272 1.77786 -0.948384 0
M  V30 3688 O 361.328 2.46189 -0.560983 0
M  V30 3689 C 362.641 0.323394 -2.98956 0
M  V30 3690 C 364.189 0.401892 -3.10409 0
M  V30 3691 C 364.664 0.351195 -4.56652 0
M  V30 3692 N 366.155 0.410576 -4.61377 0
M  V30 3693 C 366.89 0.393933 -5.72045 0
M  V30 3694 N 366.386 0.330724 -6.9201 0
M  V30 3695 N 368.179 0.442227 -5.60358 0
M  V30 3696 H 360.33 -0.851016 -1.94606 0
M  V30 3697 H 362.593 -0.321721 -0.89174 0
M  V30 3698 H 362.299 -0.62011 -3.4619 0
M  V30 3699 H 362.173 1.12463 -3.60044 0
M  V30 3700 H 364.56 1.33582 -2.63134 0
M  V30 3701 H 364.641 -0.428342 -2.52188 0
M  V30 3702 H 364.285 -0.578987 -5.04589 0
M  V30 3703 H 364.215 1.19928 -5.12762 0
M  V30 3704 H 366.706 0.462729 -3.75056 0
M  V30 3705 H 367.019 0.322592 -7.72126 0
M  V30 3706 H 365.364 0.29706 -6.94365 0
M  V30 3707 H 368.555 0.489464 -4.65534 0
M  V30 3708 H 368.728 0.425788 -6.466 0
M  V30 3709 N 362.134 1.5431 0.320358 0
M  V30 3710 C 363.081 1.83918 1.39438 0
M  V30 3711 C 364.051 0.686525 1.51248 0
M  V30 3712 O 365.236 0.933269 1.66417 0
M  V30 3713 C 362.376 2.075 2.75749 0
M  V30 3714 C 361.489 3.35177 2.72544 0
M  V30 3715 C 360.624 3.48704 4.00723 0
M  V30 3716 C 359.663 4.70244 3.91838 0
M  V30 3717 N 358.8 4.80679 5.11754 0
M  V30 3718 H 363.64 2.75544 1.13489 0
M  V30 3719 H 361.177 1.36459 0.549309 0
M  V30 3720 H 363.135 2.19166 3.54996 0
M  V30 3721 H 361.765 1.19163 3 0
M  V30 3722 H 360.817 3.32233 1.85271 0
M  V30 3723 H 362.129 4.24534 2.61863 0
M  V30 3724 H 361.283 3.59928 4.88402 0
M  V30 3725 H 360.022 2.57445 4.14214 0
M  V30 3726 H 359.027 4.59072 3.02544 0
M  V30 3727 H 360.252 5.6289 3.7991 0
M  V30 3728 H 358.198 3.92337 5.25745 0
M  V30 3729 H 358.115 5.64007 5.0342 0
M  V30 3730 H 359.383 4.96239 6.01138 0
M  V30 3731 N 363.613 -0.582584 1.46437 0
M  V30 3732 C 364.862 -1.337 1.5102 0
M  V30 3733 C 365.175 -1.94891 0.166359 0
M  V30 3734 O 366.381 -2.71351 0.0899954 0
M  V30 3735 C 364.837 -2.42315 2.66104 0
M  V30 3736 C 364.445 -1.87427 4.06909 0
M  V30 3737 C 366.189 -3.19099 2.79958 0
M  V30 3738 C 364.096 -2.93672 5.13333 0
M  V30 3739 H 363.026 -0.502619 0.562041 0
M  V30 3740 H 365.677 -0.621701 1.72647 0
M  V30 3741 H 364.059 -3.16645 2.37807 0
M  V30 3742 H 365.233 -1.19639 4.44998 0
M  V30 3743 H 363.548 -1.2331 3.97723 0
M  V30 3744 H 366.145 -3.9839 3.56636 0
M  V30 3745 H 366.488 -3.71695 1.87479 0
M  V30 3746 H 367.021 -2.51875 3.07902 0
M  V30 3747 H 363.76 -2.45962 6.07604 0
M  V30 3748 H 363.28 -3.59948 4.79789 0
M  V30 3749 H 364.959 -3.5762 5.39182 0
M  V30 3750 N 365.091 -1.34144 -0.827227 0
M  V30 3751 C 366.34 -1.25602 -1.5782 0
M  V30 3752 C 366.653 0.173445 -1.94829 0
M  V30 3753 O 367.859 0.380984 -2.68814 0
M  V30 3754 C 366.315 -2.20151 -2.84713 0
M  V30 3755 C 365.923 -3.68331 -2.55021 0
M  V30 3756 C 367.667 -2.20508 -3.62735 0
M  V30 3757 C 365.574 -4.54762 -3.78082 0
M  V30 3758 H 364.504 -0.466573 -0.592306 0
M  V30 3759 H 367.155 -1.59283 -0.911116 0
M  V30 3760 H 365.537 -1.79417 -3.53023 0
M  V30 3761 H 366.711 -4.17577 -1.94849 0
M  V30 3762 H 365.026 -3.7038 -1.90283 0
M  V30 3763 H 367.623 -2.82306 -4.54101 0
M  V30 3764 H 367.966 -1.20322 -3.98533 0
M  V30 3765 H 368.499 -2.59664 -3.01362 0
M  V30 3766 H 365.238 -5.55867 -3.47407 0
M  V30 3767 H 364.758 -4.10254 -4.37552 0
M  V30 3768 H 366.437 -4.69153 -4.45538 0
M  V30 3769 N 366.569 1.04691 -1.17803 0
M  V30 3770 C 367.815 1.78045 -0.970969 0
M  V30 3771 C 368.148 1.87686 0.498751 0
M  V30 3772 O 367.423 1.38035 1.37027 0
M  V30 3773 C 367.706 3.2166 -1.61884 0
M  V30 3774 C 367.559 3.20001 -3.161 0
M  V30 3775 C 368.878 4.1962 -1.3269 0
M  V30 3776 H 365.997 0.64633 -0.354155 0
M  V30 3777 H 368.639 1.22333 -1.45378 0
M  V30 3778 H 366.789 3.69232 -1.20831 0
M  V30 3779 H 368.461 2.80467 -3.66246 0
M  V30 3780 H 366.704 2.58203 -3.48588 0
M  V30 3781 H 367.375 4.21386 -3.56564 0
M  V30 3782 H 369.851 3.80567 -1.68249 0
M  V30 3783 H 368.727 5.18339 -1.80599 0
M  V30 3784 H 368.988 4.414 -0.248622 0
M  V30 3785 N 368.047 0.979072 1.23499 0
M  V30 3786 C 369.324 0.563674 1.87302 0
M  V30 3787 C 369.704 -0.959199 1.88049 0
M  V30 3788 O 369.052 -1.83535 1.36114 0
M  V30 3789 C 369.262 1.16822 3.28867 0
M  V30 3790 C 370.61 1.26014 4.0547 0
M  V30 3791 O 371.634 1.12158 3.38082 0
M  V30 3792 O 370.493 1.48044 5.26066 0
M  V30 3793 H 367.587 0.189602 0.804972 0
M  V30 3794 H 370.133 1.07407 1.31384 0
M  V30 3795 H 368.905 2.21049 3.22883 0
M  V30 3796 H 368.528 0.642564 3.92373 0
M  V30 3797 N 369.525 -1.3858 0.750561 0
M  V30 3798 C 370.753 -2.04471 0.316098 0
M  V30 3799 C 371.168 -1.56606 -1.05452 0
M  V30 3800 O 370.525 -0.737784 -1.66922 0
M  V30 3801 C 370.576 -3.60025 0.326275 0
M  V30 3802 O 370.297 -4.06133 1.6428 0
M  V30 3803 C 371.798 -4.43131 -0.122429 0
M  V30 3804 H 369.018 -0.65717 0.135528 0
M  V30 3805 H 371.562 -1.77329 1.01857 0
M  V30 3806 H 369.717 -3.86014 -0.327431 0
M  V30 3807 H 370.131 -5.00547 1.56693 0
M  V30 3808 H 371.605 -5.51963 -0.0641473 0
M  V30 3809 H 372.082 -4.23333 -1.16988 0
M  V30 3810 H 372.688 -4.22323 0.50229 0
M  V30 3811 N 371.003 -0.499398 -1.49478 0
M  V30 3812 C 372.233 0.0424839 -2.06556 0
M  V30 3813 C 372.641 1.31514 -1.36018 0
M  V30 3814 O 371.984 1.78555 -0.431718 0
M  V30 3815 C 372.046 0.368074 -3.57611 0
M  V30 3816 C 371.71 -0.806631 -4.49825 0
M  V30 3817 C 372.707 -1.69667 -4.91436 0
M  V30 3818 C 370.392 -1.00498 -4.92144 0
M  V30 3819 C 372.386 -2.76923 -5.74101 0
M  V30 3820 C 370.073 -2.08072 -5.74586 0
M  V30 3821 C 371.071 -2.96119 -6.15469 0
M  V30 3822 O 370.759 -4.01836 -6.96264 0
M  V30 3823 H 370.491 -0.0165165 -0.675798 0
M  V30 3824 H 373.045 -0.695497 -1.93267 0
M  V30 3825 H 371.275 1.15963 -3.68903 0
M  V30 3826 H 372.964 0.848381 -3.96935 0
M  V30 3827 H 373.73 -1.55524 -4.59388 0
M  V30 3828 H 369.609 -0.329036 -4.59824 0
M  V30 3829 H 373.153 -3.45676 -6.05932 0
M  V30 3830 H 369.05 -2.22211 -6.06047 0
M  V30 3831 H 369.818 -3.9917 -7.14567 0
M  V30 3832 N 372.481 1.55866 -0.233164 0
M  V30 3833 C 373.729 1.9821 0.394593 0
M  V30 3834 C 374.05 1.12234 1.59463 0
M  V30 3835 O 373.32 0.201981 1.94856 0
M  V30 3836 H 371.9 0.732034 0.148778 0
M  V30 3837 H 374.562 1.92107 -0.32876 0
M  V30 3838 H 373.658 3.03845 0.713063 0
M  V30 3839 N 373.959 -0.0401083 1.57549 0
M  V30 3840 C 375.207 -0.731677 1.8839 0
M  V30 3841 C 375.528 -1.76481 0.829425 0
M  V30 3842 O 374.798 -1.95411 -0.1383 0
M  V30 3843 H 373.378 -0.273225 0.695239 0
M  V30 3844 H 376.04 -0.00867725 1.94898 0
M  V30 3845 H 375.136 -1.22816 2.86919 0
M  V30 3846 N 375.437 -1.54477 -0.31217 0
M  V30 3847 C 376.37 -1.79519 -1.40884 0
M  V30 3848 C 377.348 -0.645753 -1.49227 0
M  V30 3849 O 378.532 -0.884468 -1.66461 0
M  V30 3850 C 375.659 -1.92194 -2.78889 0
M  V30 3851 C 374.705 -3.14555 -2.88023 0
M  V30 3852 S 375.538 -4.72893 -2.51262 0
M  V30 3853 C 376.694 -4.8849 -3.91317 0
M  V30 3854 H 376.927 -2.72256 -1.19432 0
M  V30 3855 H 374.46 -1.45746 -0.509654 0
M  V30 3856 H 376.418 -2.00182 -3.58382 0
M  V30 3857 H 375.079 -1.00414 -2.97617 0
M  V30 3858 H 374.272 -3.20193 -3.89221 0
M  V30 3859 H 373.874 -3.04955 -2.16514 0
M  V30 3860 H 376.166 -4.71826 -4.86196 0
M  V30 3861 H 377.109 -5.90588 -3.90656 0
M  V30 3862 H 377.517 -4.16715 -3.80801 0
M  V30 3863 N 376.915 0.57481 -1.46744 0
M  V30 3864 C 377.878 1.66533 -1.57478 0
M  V30 3865 C 378.878 1.54338 -0.451263 0
M  V30 3866 O 380.068 1.58814 -0.715813 0
M  V30 3867 C 377.2 3.05999 -1.50259 0
M  V30 3868 H 378.393 1.58372 -2.54673 0
M  V30 3869 H 375.946 0.793301 -1.34672 0
M  V30 3870 H 376.681 3.19709 -0.543725 0
M  V30 3871 H 376.466 3.16259 -2.31781 0
M  V30 3872 H 377.956 3.8537 -1.60872 0
M  V30 3873 N 378.394 1.34581 0.820102 0
M  V30 3874 C 379.81 1.14325 1.11364 0
M  V30 3875 C 380.01 -0.0533648 2.01429 0
M  V30 3876 O 379.066 -0.728044 2.41776 0
M  V30 3877 C 380.379 2.43983 1.75764 0
M  V30 3878 C 381.927 2.50065 1.88246 0
M  V30 3879 C 382.402 3.79732 2.56061 0
M  V30 3880 N 383.893 3.80908 2.63558 0
M  V30 3881 C 384.628 4.77961 3.16766 0
M  V30 3882 N 384.124 5.85397 3.70517 0
M  V30 3883 N 385.917 4.65413 3.15194 0
M  V30 3884 H 378.068 2.11246 0.221096 0
M  V30 3885 H 380.331 0.934289 0.160649 0
M  V30 3886 H 380.037 3.31651 1.1705 0
M  V30 3887 H 379.911 2.57531 2.75604 0
M  V30 3888 H 382.298 1.62834 2.46108 0
M  V30 3889 H 382.379 2.40442 0.873006 0
M  V30 3890 H 382.023 4.67354 1.98853 0
M  V30 3891 H 381.953 3.86639 3.57516 0
M  V30 3892 H 384.444 3.03274 2.25463 0
M  V30 3893 H 384.757 6.55463 4.09376 0
M  V30 3894 H 383.102 5.89107 3.68752 0
M  V30 3895 H 386.293 3.80627 2.72471 0
M  V30 3896 H 386.466 5.41216 3.56356 0
M  V30 3897 N 379.872 -1.04064 1.18357 0
M  V30 3898 C 380.822 -2.10393 0.878561 0
M  V30 3899 C 381.806 -1.60183 -0.151713 0
M  V30 3900 O 382.998 -1.76923 0.0523303 0
M  V30 3901 C 380.127 -3.4089 0.406096 0
M  V30 3902 C 379.213 -3.97866 1.46844 0
M  V30 3903 N 379.604 -4.28657 2.68489 0
M  V30 3904 C 377.902 -4.2574 1.32896 0
M  V30 3905 C 378.603 -4.74253 3.36836 0
M  V30 3906 N 377.579 -4.75068 2.64219 0
M  V30 3907 H 381.381 -2.32076 1.80327 0
M  V30 3908 H 378.895 -1.21818 1.07397 0
M  V30 3909 H 380.892 -4.16557 0.169088 0
M  V30 3910 H 379.552 -3.20633 -0.512275 0
M  V30 3911 H 380.563 -4.18304 3.05356 0
M  V30 3912 H 377.24 -4.1481 0.473134 0
M  V30 3913 H 378.63 -5.07096 4.40798 0
M  V30 3914 N 381.35 -0.985608 -1.22978 0
M  V30 3915 C 382.598 -0.656087 -1.91154 0
M  V30 3916 C 382.919 0.813561 -1.77218 0
M  V30 3917 O 382.189 1.58244 -1.1548 0
M  V30 3918 H 380.769 -0.239674 -0.707506 0
M  V30 3919 H 383.431 -1.25054 -1.49491 0
M  V30 3920 H 382.527 -0.912253 -2.9847 0
M  V30 3921 N 382.828 1.3818 -0.7579 0
M  V30 3922 C 384.076 1.99624 -0.315361 0
M  V30 3923 C 384.397 1.60464 1.10799 0
M  V30 3924 O 383.667 0.863507 1.75842 0
M  V30 3925 H 382.247 0.73831 -0.113611 0
M  V30 3926 H 384.909 1.68878 -0.972952 0
M  V30 3927 H 384.005 3.09754 -0.381931 0
M  V30 3928 N 384.306 0.507319 1.49211 0
M  V30 3929 C 385.554 -0.0348839 2.0207 0
M  V30 3930 C 385.875 -1.36898 1.38866 0
M  V30 3931 O 385.145 -1.88133 0.546151 0
M  V30 3932 H 383.725 -0.0158812 0.746831 0
M  V30 3933 H 386.387 0.665998 1.83168 0
M  V30 3934 H 385.483 -0.159917 3.1169 0
M  V30 3935 N 385.784 -1.5574 0.241426 0
M  V30 3936 C 386.747 -2.19877 -0.647063 0
M  V30 3937 C 387.747 -1.16642 -1.10686 0
M  V30 3938 O 388.937 -1.41757 -1.01245 0
M  V30 3939 C 386.069 -2.83797 -1.88871 0
M  V30 3940 H 387.262 -2.99772 -0.087574 0
M  V30 3941 H 384.815 -1.56298 -0.00813574 0
M  V30 3942 H 385.55 -2.07824 -2.48957 0
M  V30 3943 H 385.335 -3.59414 -1.56728 0
M  V30 3944 H 386.825 -3.32898 -2.52129 0
M  V30 3945 N 387.262 0.0317525 -1.57568 0
M  V30 3946 C 388.509 0.723104 -1.89149 0
M  V30 3947 C 388.837 1.75504 -0.838377 0
M  V30 3948 O 388.092 1.95037 0.160982 0
M  V30 3949 C 388.391 1.43167 -3.27472 0
M  V30 3950 C 388.057 0.535972 -4.47703 0
M  V30 3951 C 386.719 0.289262 -4.8033 0
M  V30 3952 C 389.071 -0.0826125 -5.21135 0
M  V30 3953 C 386.399 -0.584853 -5.83778 0
M  V30 3954 C 388.751 -0.944414 -6.25511 0
M  V30 3955 C 387.415 -1.20061 -6.56614 0
M  V30 3956 H 386.685 0.264602 -0.692146 0
M  V30 3957 H 389.332 -0.0169496 -1.91492 0
M  V30 3958 H 387.637 2.24497 -3.21105 0
M  V30 3959 H 389.334 1.97209 -3.49155 0
M  V30 3960 H 385.924 0.738414 -4.22191 0
M  V30 3961 H 390.108 0.0950302 -4.96209 0
M  V30 3962 H 385.364 -0.79168 -6.06253 0
M  V30 3963 H 389.538 -1.43026 -6.81554 0
M  V30 3964 H 387.165 -1.87967 -7.36595 0
M  V30 3965 N 388.74 1.54641 0.303973 0
M  V30 3966 C 389.965 1.78092 1.06292 0
M  V30 3967 C 390.39 0.537342 1.80262 0
M  V30 3968 O 389.748 -0.511993 1.7392 0
M  V30 3969 C 389.796 2.98612 2.02147 0
M  V30 3970 O 388.9 2.71528 3.10397 0
M  V30 3971 H 388.241 0.589548 0.305497 0
M  V30 3972 H 390.771 2.01716 0.3423 0
M  V30 3973 H 390.781 3.265 2.44667 0
M  V30 3974 H 389.456 3.88785 1.47714 0
M  V30 3975 H 388.033 2.54648 2.72413 0
M  V30 3976 N 390.218 -0.567019 1.47046 0
M  V30 3977 C 391.466 -1.322 1.52864 0
M  V30 3978 C 391.787 -1.94088 0.188388 0
M  V30 3979 O 391.057 -1.7941 -0.786693 0
M  V30 3980 H 389.637 -0.490894 0.563056 0
M  V30 3981 H 392.299 -0.662879 1.83281 0
M  V30 3982 H 391.395 -2.12062 2.2899 0
M  V30 3983 N 391.696 -1.35014 -0.812953 0
M  V30 3984 C 392.643 -1.27412 -1.92444 0
M  V30 3985 C 393.613 -0.14733 -1.65445 0
M  V30 3986 O 394.798 -0.329974 -1.87925 0
M  V30 3987 C 391.938 -1.04558 -3.28879 0
M  V30 3988 C 391.051 -2.26101 -3.68106 0
M  V30 3989 C 390.186 -1.96449 -4.9354 0
M  V30 3990 C 389.225 -3.14081 -5.25376 0
M  V30 3991 N 388.362 -2.84246 -6.41988 0
M  V30 3992 H 393.202 -2.22463 -1.98278 0
M  V30 3993 H 390.739 -1.10593 -0.969933 0
M  V30 3994 H 392.697 -0.893413 -4.07522 0
M  V30 3995 H 391.327 -0.131719 -3.22531 0
M  V30 3996 H 390.379 -2.52204 -2.84775 0
M  V30 3997 H 391.691 -3.13959 -3.87597 0
M  V30 3998 H 390.845 -1.78026 -5.79993 0
M  V30 3999 H 389.584 -1.05867 -4.76071 0
M  V30 4000 H 388.589 -3.33089 -4.37415 0
M  V30 4001 H 389.814 -4.05455 -5.44778 0
M  V30 4002 H 387.76 -1.96252 -6.25956 0
M  V30 4003 H 387.677 -3.65637 -6.61699 0
M  V30 4004 H 388.945 -2.6935 -7.31485 0
M  V30 4005 N 393.175 1.03435 -1.18907 0
M  V30 4006 C 394.452 1.73778 -0.89781 0
M  V30 4007 C 394.832 2.02458 0.597832 0
M  V30 4008 O 394.18 1.67482 1.55441 0
M  V30 4009 C 394.39 3.01845 -1.75187 0
M  V30 4010 C 395.738 3.7546 -1.9828 0
M  V30 4011 O 396.762 3.11759 -1.72293 0
M  V30 4012 O 395.621 4.89966 -2.42065 0
M  V30 4013 H 392.715 0.75651 -0.334098 0
M  V30 4014 H 395.261 1.09444 -1.29693 0
M  V30 4015 H 394.033 2.76836 -2.76545 0
M  V30 4016 H 393.656 3.73919 -1.35167 0
M  V30 4017 N 394.653 0.992116 1.22453 0
M  V30 4018 C 396.064 0.702776 1.72968 0
M  V30 4019 C 396.415 -0.780399 1.80012 0
M  V30 4020 O 395.54 -1.61007 1.44589 0
M  V30 4021 C 396.135 1.26903 3.14135 0
M  V30 4022 C 394.694 1.02909 3.62059 0
M  V30 4023 C 393.841 1.38969 2.39964 0
M  V30 4024 H 396.792 1.16457 1.07812 0
M  V30 4025 H 396.813 0.647223 3.74955 0
M  V30 4026 H 396.325 2.34851 3.08977 0
M  V30 4027 H 394.426 -0.0337979 3.72585 0
M  V30 4028 H 394.539 1.69191 4.48231 0
M  V30 4029 H 392.903 0.808279 2.41535 0
M  V30 4030 H 393.686 2.4792 2.37467 0
M  V30 4031 N 396.131 -1.37776 0.765217 0
M  V30 4032 C 397.356 -2.04651 0.336537 0
M  V30 4033 C 397.781 -1.57337 -1.03086 0
M  V30 4034 O 397.139 -0.730621 -1.65927 0
M  V30 4035 C 397.187 -3.58577 0.381468 0
M  V30 4036 O 396.291 -4.07706 -0.62042 0
M  V30 4037 H 395.632 -0.64756 0.146838 0
M  V30 4038 H 398.162 -1.76221 1.03959 0
M  V30 4039 H 398.172 -4.07314 0.236448 0
M  V30 4040 H 396.847 -3.9237 1.37907 0
M  V30 4041 H 395.424 -3.70306 -0.439056 0
M  V30 4042 N 397.609 -0.515225 -1.4894 0
M  V30 4043 C 398.556 0.255567 -2.29381 0
M  V30 4044 C 399.526 0.947387 -1.36432 0
M  V30 4045 O 400.711 0.951288 -1.65394 0
M  V30 4046 C 397.851 1.30551 -3.19453 0
M  V30 4047 C 396.964 0.624029 -4.27469 0
M  V30 4048 C 396.099 1.65563 -5.0474 0
M  V30 4049 C 395.138 0.956802 -6.04576 0
M  V30 4050 N 394.275 1.93326 -6.74959 0
M  V30 4051 H 399.115 -0.436607 -2.94784 0
M  V30 4052 H 396.652 -0.227154 -1.45336 0
M  V30 4053 H 398.61 1.92639 -3.70062 0
M  V30 4054 H 397.24 1.96626 -2.56004 0
M  V30 4055 H 396.292 -0.110459 -3.8024 0
M  V30 4056 H 397.604 0.0746092 -4.98744 0
M  V30 4057 H 396.758 2.35119 -5.59289 0
M  V30 4058 H 395.497 2.23893 -4.3327 0
M  V30 4059 H 394.502 0.247097 -5.49244 0
M  V30 4060 H 395.727 0.379814 -6.78037 0
M  V30 4061 H 393.673 2.50591 -6.06251 0
M  V30 4062 H 393.59 1.43489 -7.42258 0
M  V30 4063 H 394.858 2.62126 -7.34105 0
M  V30 4064 N 399.087 1.5561 -0.249682 0
M  V30 4065 C 400.333 1.99306 0.374841 0
M  V30 4066 C 400.666 1.13767 1.57387 0
M  V30 4067 O 399.941 0.201711 1.93451 0
M  V30 4068 C 400.224 3.51507 0.781986 0
M  V30 4069 C 400.077 4.4781 -0.422629 0
M  V30 4070 C 401.396 4.08884 1.62793 0
M  V30 4071 H 398.515 0.724572 0.134773 0
M  V30 4072 H 401.157 1.86719 -0.351549 0
M  V30 4073 H 399.307 3.62363 1.4009 0
M  V30 4074 H 400.979 4.48931 -1.06108 0
M  V30 4075 H 399.222 4.20518 -1.06524 0
M  V30 4076 H 399.893 5.51919 -0.0943766 0
M  V30 4077 H 402.369 4.01147 1.10547 0
M  V30 4078 H 401.245 5.1564 1.88166 0
M  V30 4079 H 401.506 3.57515 2.60068 0
M  V30 4080 N 400.565 -0.0233959 1.57583 0
M  V30 4081 C 401.842 -0.748794 1.807 0
M  V30 4082 C 402.222 -1.9327 0.849106 0
M  V30 4083 O 401.57 -2.28247 -0.107468 0
M  V30 4084 C 401.78 -1.17651 3.28571 0
M  V30 4085 C 403.128 -1.59008 3.93702 0
M  V30 4086 O 404.152 -1.27094 3.32755 0
M  V30 4087 O 403.011 -2.18264 5.01022 0
M  V30 4088 H 400.105 -0.362578 0.743281 0
M  V30 4089 H 402.651 0.000261958 1.697 0
M  V30 4090 H 401.423 -0.331603 3.89892 0
M  V30 4091 H 401.046 -1.98541 3.44481 0
M  V30 4092 N 402.043 -1.548 -0.295768 0
M  V30 4093 C 403.459 -1.4613 -0.641722 0
M  V30 4094 C 403.659 -0.656771 -1.90496 0
M  V30 4095 O 402.715 -0.166547 -2.5195 0
M  V30 4096 C 404.028 -2.90141 -0.789852 0
M  V30 4097 C 405.576 -3.00216 -0.885396 0
M  V30 4098 C 406.051 -4.45434 -1.06548 0
M  V30 4099 N 407.542 -4.49166 -1.13156 0
M  V30 4100 C 408.277 -5.58717 -1.28929 0
M  V30 4101 N 407.773 -6.78182 -1.41567 0
M  V30 4102 N 409.566 -5.46415 -1.31859 0
M  V30 4103 H 401.717 -2.05574 0.534147 0
M  V30 4104 H 403.98 -0.931259 0.177372 0
M  V30 4105 H 403.686 -3.51635 0.0675598 0
M  V30 4106 H 403.56 -3.37859 -1.67724 0
M  V30 4107 H 405.947 -2.38833 -1.73329 0
M  V30 4108 H 406.028 -2.55787 0.0261185 0
M  V30 4109 H 405.672 -5.07413 -0.222335 0
M  V30 4110 H 405.602 -4.87499 -1.9913 0
M  V30 4111 H 408.093 -3.631 -1.04721 0
M  V30 4112 H 408.406 -7.57428 -1.53372 0
M  V30 4113 H 406.751 -6.81037 -1.38613 0
M  V30 4114 H 409.942 -4.5203 -1.21601 0
M  V30 4115 H 410.115 -6.31841 -1.43808 0
M  V30 4116 N 403.521 0.559213 -1.47345 0
M  V30 4117 C 404.746 1.34676 -1.57725 0
M  V30 4118 C 405.171 1.86723 -0.227164 0
M  V30 4119 O 404.529 1.6286 0.796642 0
M  V30 4120 C 404.577 2.49399 -2.60447 0
M  V30 4121 O 403.681 3.51567 -2.15578 0
M  V30 4122 H 403.022 0.400115 -0.52991 0
M  V30 4123 H 405.552 0.676009 -1.93109 0
M  V30 4124 H 405.562 2.95996 -2.80803 0
M  V30 4125 H 404.237 2.10873 -3.58477 0
M  V30 4126 H 402.814 3.11289 -2.05313 0
M  V30 4127 N 404.999 1.35443 0.805782 0
M  V30 4128 C 405.962 1.28301 1.89925 0
M  V30 4129 C 406.962 0.194285 1.59622 0
M  V30 4130 O 408.152 0.448036 1.6834 0
M  V30 4131 C 405.284 0.984997 3.2636 0
M  V30 4132 H 406.477 2.2553 1.97677 0
M  V30 4133 H 404.03 1.19979 1.00173 0
M  V30 4134 H 404.765 0.016603 3.24296 0
M  V30 4135 H 404.55 1.77269 3.4974 0
M  V30 4136 H 406.04 0.960651 4.064 0
M  V30 4137 N 406.477 -1.02803 1.19454 0
M  V30 4138 C 407.44 -2.09264 0.934955 0
M  V30 4139 C 408.44 -1.60576 -0.0849015 0
M  V30 4140 O 409.63 -1.73554 0.149933 0
M  V30 4141 C 406.762 -3.38482 0.40531 0
M  V30 4142 H 407.955 -2.33726 1.87916 0
M  V30 4143 H 405.508 -1.19426 1.00832 0
M  V30 4144 H 406.243 -3.19689 -0.544899 0
M  V30 4145 H 406.028 -3.75142 1.14065 0
M  V30 4146 H 407.518 -4.16894 0.242806 0
M  V30 4147 N 407.956 -0.998596 -1.21925 0
M  V30 4148 C 409.186 -0.695276 -1.94549 0
M  V30 4149 C 409.594 0.745079 -1.73911 0
M  V30 4150 O 408.937 1.51507 -1.03881 0
M  V30 4151 C 408.999 -0.928485 -3.47303 0
M  V30 4152 C 408.663 -2.35443 -3.91683 0
M  V30 4153 C 409.66 -3.33428 -3.98901 0
M  V30 4154 C 407.345 -2.69038 -4.24174 0
M  V30 4155 C 409.339 -4.63079 -4.37992 0
M  V30 4156 C 407.026 -3.98906 -4.62944 0
M  V30 4157 C 408.024 -4.95738 -4.69822 0
M  V30 4158 O 407.712 -6.23285 -5.07711 0
M  V30 4159 H 407.444 -0.255902 -0.625692 0
M  V30 4160 H 409.998 -1.33767 -1.5587 0
M  V30 4161 H 408.228 -0.228917 -3.86022 0
M  V30 4162 H 409.917 -0.619539 -4.01144 0
M  V30 4163 H 410.683 -3.08807 -3.73983 0
M  V30 4164 H 406.562 -1.94367 -4.18022 0
M  V30 4165 H 410.106 -5.38658 -4.43275 0
M  V30 4166 H 406.003 -4.23314 -4.87314 0
M  V30 4167 H 406.771 -6.27306 -5.25766 0
M  V30 4168 N 409.434 1.37368 -0.772513 0
M  V30 4169 C 410.397 2.28601 -0.165541 0
M  V30 4170 C 411.397 1.48062 0.627238 0
M  V30 4171 O 412.587 1.68268 0.450715 0
M  V30 4172 C 409.719 3.32023 0.772897 0
M  V30 4173 H 410.912 2.83787 -0.969787 0
M  V30 4174 H 408.465 1.46647 -0.540775 0
M  V30 4175 H 409.2 2.81962 1.60212 0
M  V30 4176 H 408.985 3.91555 0.206585 0
M  V30 4177 H 410.475 4.00197 1.19298 0
M  V30 4178 N 410.912 0.523116 1.48665 0
M  V30 4179 C 411.875 -0.232592 2.28017 0
M  V30 4180 C 412.875 -0.874021 1.34972 0
M  V30 4181 O 414.065 -0.735132 1.57929 0
M  V30 4182 C 411.197 -1.33586 3.13636 0
M  V30 4183 H 412.39 0.464008 2.96289 0
M  V30 4184 H 409.943 0.278816 1.53793 0
M  V30 4185 H 410.678 -2.06593 2.4998 0
M  V30 4186 H 410.463 -0.881125 3.82071 0
M  V30 4187 H 411.953 -1.86759 3.73511 0
M  V30 4188 N 412.39 -1.55475 0.257931 0
M  V30 4189 C 413.806 -1.59307 -0.0966563 0
M  V30 4190 C 414.006 -1.27514 -1.5602 0
M  V30 4191 O 413.062 -1.02774 -2.30637 0
M  V30 4192 C 414.375 -2.99552 0.262481 0
M  V30 4193 C 415.923 -3.1231 0.207683 0
M  V30 4194 C 416.398 -4.54793 0.541012 0
M  V30 4195 N 417.889 -4.6058 0.491921 0
M  V30 4196 C 418.624 -5.68825 0.722857 0
M  V30 4197 N 418.12 -6.85287 1.0175 0
M  V30 4198 N 419.913 -5.58296 0.652815 0
M  V30 4199 H 412.064 -1.74409 1.21224 0
M  V30 4200 H 414.327 -0.812424 0.48854 0
M  V30 4201 H 414.033 -3.27593 1.27967 0
M  V30 4202 H 413.907 -3.75019 -0.40508 0
M  V30 4203 H 416.294 -2.84044 -0.800195 0
M  V30 4204 H 416.375 -2.39095 0.909255 0
M  V30 4205 H 416.019 -4.83783 1.5465 0
M  V30 4206 H 415.949 -5.26285 -0.18216 0
M  V30 4207 H 418.44 -3.7691 0.273366 0
M  V30 4208 H 418.753 -7.63725 1.18084 0
M  V30 4209 H 417.098 -6.86945 1.05509 0
M  V30 4210 H 420.289 -4.66189 0.422592 0
M  V30 4211 H 420.462 -6.42582 0.836182 0
M  V30 4212 N 413.868 0.0150385 -1.57593 0
M  V30 4213 C 415.098 0.713359 -1.93894 0
M  V30 4214 C 415.506 1.68663 -0.857289 0
M  V30 4215 O 414.849 1.82876 0.173788 0
M  V30 4216 C 414.911 1.51348 -3.26089 0
M  V30 4217 C 414.575 0.703451 -4.51554 0
M  V30 4218 C 415.572 -0.00237924 -5.199 0
M  V30 4219 C 413.257 0.653854 -4.98026 0
M  V30 4220 C 415.251 -0.746955 -6.33008 0
M  V30 4221 C 412.938 -0.0944578 -6.11027 0
M  V30 4222 C 413.936 -0.793609 -6.78374 0
M  V30 4223 O 413.624 -1.52974 -7.89211 0
M  V30 4224 H 413.356 0.204637 -0.644282 0
M  V30 4225 H 415.91 -0.0276411 -2.05381 0
M  V30 4226 H 414.14 2.29862 -3.10967 0
M  V30 4227 H 415.829 2.09572 -3.47612 0
M  V30 4228 H 416.595 0.0268803 -4.84993 0
M  V30 4229 H 412.474 1.18756 -4.45441 0
M  V30 4230 H 416.018 -1.2932 -6.85509 0
M  V30 4231 H 411.915 -0.125591 -6.45378 0
M  V30 4232 H 412.683 -1.44488 -8.05646 0
M  V30 4233 N 415.346 1.54954 0.287554 0
M  V30 4234 C 416.592 1.75132 1.02257 0
M  V30 4235 C 416.925 0.542858 1.86458 0
M  V30 4236 O 416.2 -0.459856 1.88986 0
M  V30 4237 C 416.483 3.04812 1.91733 0
M  V30 4238 C 416.336 4.35985 1.10622 0
M  V30 4239 C 417.655 3.30438 2.90687 0
M  V30 4240 H 414.774 0.637194 0.370341 0
M  V30 4241 H 417.416 1.87678 0.296111 0
M  V30 4242 H 415.566 2.94247 2.53675 0
M  V30 4243 H 417.238 4.58487 0.508636 0
M  V30 4244 H 415.481 4.31865 0.409271 0
M  V30 4245 H 416.152 5.23017 1.76513 0
M  V30 4246 H 418.628 3.40701 2.38877 0
M  V30 4247 H 417.504 4.22467 3.50447 0
M  V30 4248 H 417.765 2.49377 3.65053 0
M  V30 4249 N 416.824 -0.551391 1.4764 0
M  V30 4250 C 417.787 -1.64007 1.60107 0
M  V30 4251 C 418.787 -1.53601 0.47576 0
M  V30 4252 O 419.977 -1.57655 0.740988 0
M  V30 4253 C 417.109 -3.03569 1.55108 0
M  V30 4254 H 418.302 -1.543 2.57161 0
M  V30 4255 H 415.855 -0.771776 1.35917 0
M  V30 4256 H 416.59 -3.18804 0.594519 0
M  V30 4257 H 416.375 -3.12532 2.36783 0
M  V30 4258 H 417.865 -3.82762 1.66982 0
M  V30 4259 N 418.302 -1.35869 -0.798587 0
M  V30 4260 C 419.249 -1.29446 -1.91082 0
M  V30 4261 C 420.219 -0.16487 -1.6528 0
M  V30 4262 O 421.404 -0.349888 -1.87564 0
M  V30 4263 C 418.544 -1.0804 -3.27752 0
M  V30 4264 C 417.657 -2.29993 -3.65687 0
M  V30 4265 C 416.792 -2.01673 -4.91428 0
M  V30 4266 C 415.831 -3.19636 -5.22015 0
M  V30 4267 N 414.968 -2.91039 -6.38937 0
M  V30 4268 H 419.808 -2.24553 -1.95907 0
M  V30 4269 H 417.345 -1.11615 -0.958148 0
M  V30 4270 H 419.303 -0.936586 -4.06551 0
M  V30 4271 H 417.933 -0.16592 -3.22373 0
M  V30 4272 H 416.985 -2.55211 -2.82085 0
M  V30 4273 H 418.297 -3.18052 -3.84245 0
M  V30 4274 H 417.451 -1.84168 -5.78072 0
M  V30 4275 H 416.19 -1.10911 -4.74921 0
M  V30 4276 H 415.195 -3.37709 -4.33858 0
M  V30 4277 H 416.42 -4.11211 -5.40447 0
M  V30 4278 H 414.366 -2.0288 -6.2384 0
M  V30 4279 H 414.283 -3.72635 -6.57784 0
M  V30 4280 H 415.551 -2.77093 -7.28587 0
M  V30 4281 N 419.78 1.02168 -1.19998 0
M  V30 4282 C 420.728 2.12717 -0.940967 0
M  V30 4283 C 421.722 1.69069 0.105841 0
M  V30 4284 O 422.928 1.79946 -0.0440583 0
M  V30 4285 H 419.303 0.695108 -0.28693 0
M  V30 4286 H 421.274 2.3175 -1.87975 0
M  V30 4287 C 420.023 3.44027 -0.504049 0
M  V30 4288 H 419.346 3.78036 -1.30112 0
M  V30 4289 H 420.786 4.22452 -0.361991 0
M  V30 4290 C 419.245 3.27678 0.782878 0
M  V30 4291 O 419.775 3.56949 1.84256 0
M  V30 4292 N 417.981 2.80943 0.742921 0
M  V30 4293 H 417.528 2.57322 -0.119687 0
M  V30 4294 H 417.486 2.70385 1.60435 0
M  V30 4295 N 421.258 1.00505 1.21394 0
M  V30 4296 C 422.507 0.683159 1.89778 0
M  V30 4297 C 422.82 -0.789471 1.7896 0
M  V30 4298 O 424.026 -1.22344 2.42372 0
M  V30 4299 C 422.482 1.17146 3.40301 0
M  V30 4300 C 422.09 2.67017 3.5973 0
M  V30 4301 C 423.834 0.924461 4.14311 0
M  V30 4302 C 421.741 3.09387 5.04017 0
M  V30 4303 H 420.671 0.25183 0.710702 0
M  V30 4304 H 423.322 1.21622 1.37406 0
M  V30 4305 H 421.704 0.566451 3.91928 0
M  V30 4306 H 422.878 3.32968 3.18542 0
M  V30 4307 H 421.193 2.89732 2.99073 0
M  V30 4308 H 423.79 1.21658 5.20676 0
M  V30 4309 H 424.133 -0.139286 4.16067 0
M  V30 4310 H 424.666 1.49226 3.6875 0
M  V30 4311 H 421.405 4.14989 5.07409 0
M  V30 4312 H 420.925 2.48149 5.46061 0
M  V30 4313 H 422.604 3.01371 5.72525 0
M  V30 4314 N 422.737 -1.36956 0.779787 0
M  V30 4315 C 423.983 -1.99787 0.348281 0
M  V30 4316 C 424.316 -1.61756 -1.07465 0
M  V30 4317 O 423.591 -0.867639 -1.74075 0
M  V30 4318 C 423.874 -3.56597 0.50104 0
M  V30 4319 C 423.727 -4.04513 1.96697 0
M  V30 4320 C 425.046 -4.40008 -0.0898097 0
M  V30 4321 H 422.165 -0.725796 0.128022 0
M  V30 4322 H 424.807 -1.62514 0.984331 0
M  V30 4323 H 422.957 -3.88479 -0.0404347 0
M  V30 4324 H 424.629 -3.83161 2.56876 0
M  V30 4325 H 422.872 -3.56408 2.47297 0
M  V30 4326 H 423.543 -5.1352 2.02486 0
M  V30 4327 H 426.019 -4.14431 0.372293 0
M  V30 4328 H 424.895 -5.4888 0.0471605 0
M  V30 4329 H 425.156 -4.26035 -1.18096 0
M  V30 4330 N 424.215 -0.530993 -1.48385 0
M  V30 4331 C 425.178 0.220497 -2.28137 0
M  V30 4332 C 426.178 0.866851 -1.35434 0
M  V30 4333 O 427.368 0.726746 -1.58316 0
M  V30 4334 C 424.5 1.31921 -3.1434 0
M  V30 4335 H 425.693 -0.479714 -2.96038 0
M  V30 4336 H 423.246 -0.286968 -1.53643 0
M  V30 4337 H 423.981 2.05264 -2.51072 0
M  V30 4338 H 423.766 0.86085 -3.82533 0
M  V30 4339 H 425.256 1.84776 -3.74497 0
M  V30 4340 N 425.693 1.55336 -0.266172 0
M  V30 4341 C 426.656 2.20878 0.612001 0
M  V30 4342 C 427.656 1.18388 1.08816 0
M  V30 4343 O 428.846 1.4335 0.989774 0
M  V30 4344 C 425.978 2.86765 1.84332 0
M  V30 4345 H 427.171 2.99873 0.0398718 0
M  V30 4346 H 424.724 1.56291 -0.0167309 0
M  V30 4347 H 425.459 2.11759 2.45619 0
M  V30 4348 H 425.244 3.61862 1.5099 0
M  V30 4349 H 426.734 3.36867 2.46801 0
M  V30 4350 N 427.171 -0.0066808 1.57599 0
M  V30 4351 C 428.419 -0.691552 1.899 0
M  V30 4352 C 428.74 -1.74682 0.866672 0
M  V30 4353 O 428.01 -1.95661 -0.0968189 0
M  V30 4354 H 426.59 -0.258416 0.700878 0
M  V30 4355 H 429.252 0.0326655 1.94873 0
M  V30 4356 H 428.348 -1.16702 2.8946 0
M  V30 4357 N 428.649 -1.55105 -0.279332 0
M  V30 4358 C 429.579 -1.90557 -1.34945 0
M  V30 4359 C 430.56 -0.766738 -1.51839 0
M  V30 4360 O 431.745 -1.02434 -1.64988 0
M  V30 4361 C 428.875 -2.17193 -2.71006 0
M  V30 4362 C 427.829 -3.33021 -2.68851 0
M  V30 4363 C 427.155 -3.45123 -4.08405 0
M  V30 4364 C 428.455 -4.69578 -2.28678 0
M  V30 4365 H 430.149 -2.80188 -1.05522 0
M  V30 4366 H 427.695 -1.34811 -0.506173 0
M  V30 4367 H 429.648 -2.40581 -3.45975 0
M  V30 4368 H 428.372 -1.24355 -3.01999 0
M  V30 4369 H 427.031 -3.0959 -1.9634 0
M  V30 4370 H 426.679 -2.49762 -4.3661 0
M  V30 4371 H 426.379 -4.22995 -4.07859 0
M  V30 4372 H 427.903 -3.70796 -4.85121 0
M  V30 4373 H 429.317 -4.92553 -2.93368 0
M  V30 4374 H 427.714 -5.5032 -2.39306 0
M  V30 4375 H 428.784 -4.68828 -1.23807 0
M  V30 4376 N 430.127 0.543554 -1.4793 0
M  V30 4377 C 431.09 1.63156 -1.60975 0
M  V30 4378 C 432.09 1.53346 -0.483899 0
M  V30 4379 O 433.28 1.5726 -0.749339 0
M  V30 4380 C 430.412 3.02743 -1.56716 0
M  V30 4381 H 431.605 1.52934 -2.57975 0
M  V30 4382 H 429.158 0.764557 -1.36324 0
M  V30 4383 H 429.893 3.18484 -0.611418 0
M  V30 4384 H 429.678 3.11272 -2.38438 0
M  V30 4385 H 431.168 3.81871 -1.6901 0
M  V30 4386 N 431.605 1.3629 0.791371 0
M  V30 4387 C 432.882 1.20962 1.53712 0
M  V30 4388 C 433.262 -0.205021 2.10102 0
M  V30 4389 O 432.61 -1.21042 1.93807 0
M  V30 4390 C 432.82 2.29002 2.63361 0
M  V30 4391 C 434.168 2.65572 3.31295 0
M  V30 4392 O 435.192 2.2803 2.73643 0
M  V30 4393 O 434.051 3.3018 4.35481 0
M  V30 4394 H 431.145 0.47086 0.679867 0
M  V30 4395 H 433.691 1.48016 0.830021 0
M  V30 4396 H 432.463 3.2382 2.19674 0
M  V30 4397 H 432.086 2.03303 3.41692 0
M  V30 4398 N 433.083 -1.0153 1.20538 0
M  V30 4399 C 434.499 -1.27461 0.96051 0
M  V30 4400 C 434.699 -1.98273 -0.359193 0
M  V30 4401 O 433.755 -2.27886 -1.0874 0
M  V30 4402 C 435.068 -2.10837 2.14402 0
M  V30 4403 C 436.616 -2.24099 2.18515 0
M  V30 4404 C 437.091 -3.10852 3.36355 0
M  V30 4405 N 438.582 -3.18441 3.36377 0
M  V30 4406 C 439.317 -3.85795 4.24205 0
M  V30 4407 N 438.813 -4.55264 5.22213 0
M  V30 4408 N 440.606 -3.82331 4.12043 0
M  V30 4409 H 432.757 -0.539907 2.05423 0
M  V30 4410 H 435.02 -0.30092 0.898972 0
M  V30 4411 H 434.726 -1.66144 3.09983 0
M  V30 4412 H 434.6 -3.11576 2.12604 0
M  V30 4413 H 436.987 -2.68016 1.23497 0
M  V30 4414 H 437.068 -1.22865 2.24361 0
M  V30 4415 H 436.712 -2.6764 4.31661 0
M  V30 4416 H 436.642 -4.12177 3.27746 0
M  V30 4417 H 439.133 -2.68978 2.65442 0
M  V30 4418 H 439.446 -5.04331 5.85551 0
M  V30 4419 H 437.791 -4.54085 5.26148 0
M  V30 4420 H 440.982 -3.27207 3.34743 0
M  V30 4421 H 441.155 -4.34547 4.807 0
M  V30 4422 N 434.561 -1.01147 -1.20859 0
M  V30 4423 C 435.801 -0.706331 -1.91808 0
M  V30 4424 C 436.165 0.749736 -1.76757 0
M  V30 4425 O 437.366 1.16716 -2.42138 0
M  V30 4426 C 435.637 -1.12371 -3.39275 0
M  V30 4427 S 437.196 -0.939764 -4.28619 0
M  V30 4428 H 434.014 -0.257665 -0.662669 0
M  V30 4429 H 436.616 -1.29766 -1.46223 0
M  V30 4430 H 435.32 -2.17943 -3.47749 0
M  V30 4431 H 434.851 -0.524952 -3.89882 0
M  V30 4432 H 436.866 0.159556 -4.95943 0
M  V30 4433 N 436.039 1.36541 -0.78704 0
M  V30 4434 C 436.949 2.3387 -0.184896 0
M  V30 4435 C 437.965 1.60927 0.661697 0
M  V30 4436 O 439.141 1.92927 0.57804 0
M  V30 4437 C 436.206 3.40122 0.672145 0
M  V30 4438 C 435.267 4.28867 -0.19267 0
M  V30 4439 C 434.5 5.30045 0.623561 0
M  V30 4440 O 434.723 5.39232 1.8597 0
M  V30 4441 O 433.657 6.01895 0.0247068 0
M  V30 4442 H 437.483 2.87126 -0.989562 0
M  V30 4443 H 435.068 1.38969 -0.548455 0
M  V30 4444 H 436.95 4.05093 1.16094 0
M  V30 4445 H 435.625 2.89169 1.45474 0
M  V30 4446 H 434.532 3.66945 -0.728166 0
M  V30 4447 H 435.865 4.83165 -0.938722 0
M  V30 4448 N 437.518 0.538854 1.48102 0
M  V30 4449 C 438.767 0.0059532 2.01699 0
M  V30 4450 C 439.08 -1.34476 1.42041 0
M  V30 4451 O 440.286 -1.96653 1.87189 0
M  V30 4452 C 438.742 -0.0397627 3.59878 0
M  V30 4453 C 438.35 1.30659 4.28523 0
M  V30 4454 C 440.094 -0.521024 4.2129 0
M  V30 4455 C 438.001 1.22098 5.78659 0
M  V30 4456 H 436.931 -0.00154456 0.753998 0
M  V30 4457 H 439.582 0.683963 1.70277 0
M  V30 4458 H 437.964 -0.783037 3.88181 0
M  V30 4459 H 439.138 2.06613 4.11883 0
M  V30 4460 H 437.453 1.7243 3.79021 0
M  V30 4461 H 440.05 -0.603184 5.31287 0
M  V30 4462 H 440.393 -1.52885 3.8721 0
M  V30 4463 H 440.926 0.166834 3.9745 0
M  V30 4464 H 437.665 2.20424 6.17328 0
M  V30 4465 H 437.185 0.50295 5.97688 0
M  V30 4466 H 438.864 0.915345 6.40492 0
M  V30 4467 N 438.996 -1.55193 0.274407 0
M  V30 4468 C 439.928 -2.1989 -0.646595 0
M  V30 4469 C 440.941 -1.1834 -1.11801 0
M  V30 4470 O 442.13 -1.4507 -1.04004 0
M  V30 4471 C 439.23 -2.8104 -1.89393 0
M  V30 4472 C 438.403 -4.08274 -1.56943 0
M  V30 4473 C 437.462 -4.53478 -2.66916 0
M  V30 4474 O 436.488 -5.19267 -2.33132 0
M  V30 4475 N 437.69 -4.2356 -3.9696 0
M  V30 4476 H 440.455 -2.99556 -0.0928686 0
M  V30 4477 H 438.016 -1.61618 0.0954783 0
M  V30 4478 H 440.008 -3.08226 -2.62257 0
M  V30 4479 H 438.578 -2.05372 -2.35672 0
M  V30 4480 H 437.798 -3.88384 -0.674655 0
M  V30 4481 H 439.086 -4.91173 -1.32764 0
M  V30 4482 H 438.484 -3.70799 -4.27229 0
M  V30 4483 H 437.041 -4.55518 -4.66205 0
M  V30 4484 N 440.474 -0.00167713 -1.576 0
M  V30 4485 C 441.72 0.683832 -1.90923 0
M  V30 4486 C 442.053 1.7333 -0.875799 0
M  V30 4487 O 441.328 1.94215 0.10525 0
M  V30 4488 C 441.611 1.32543 -3.3482 0
M  V30 4489 C 441.464 0.287387 -4.48881 0
M  V30 4490 C 442.783 2.25114 -3.78169 0
M  V30 4491 H 439.902 0.247125 -0.694333 0
M  V30 4492 H 442.544 -0.0533149 -1.89925 0
M  V30 4493 H 440.694 1.95372 -3.35801 0
M  V30 4494 H 442.366 -0.341346 -4.60035 0
M  V30 4495 H 440.609 -0.39017 -4.32042 0
M  V30 4496 H 441.28 0.775393 -5.46527 0
M  V30 4497 H 443.756 1.723 -3.7875 0
M  V30 4498 H 442.632 2.66971 -4.79602 0
M  V30 4499 H 442.893 3.13092 -3.12131 0
M  V30 4500 N 441.952 1.55251 0.271103 0
M  V30 4501 C 443.177 1.80306 1.02491 0
M  V30 4502 C 443.602 0.575457 1.79081 0
M  V30 4503 O 442.96 -0.474987 1.74967 0
M  V30 4504 C 443.008 3.02832 1.95768 0
M  V30 4505 O 442.112 2.78051 3.04568 0
M  V30 4506 H 441.453 0.595896 0.292923 0
M  V30 4507 H 443.983 2.02397 0.299436 0
M  V30 4508 H 443.993 3.31616 2.37686 0
M  V30 4509 H 442.668 3.9183 1.39434 0
M  V30 4510 H 441.245 2.60369 2.66951 0
M  V30 4511 N 443.43 -0.535701 1.48216 0
M  V30 4512 C 444.66 -1.3148 1.59363 0
M  V30 4513 C 445.068 -1.8753 0.250844 0
M  V30 4514 O 444.411 -1.66821 -0.769174 0
M  V30 4515 C 444.473 -2.50731 2.57632 0
M  V30 4516 C 444.137 -2.15811 4.02833 0
M  V30 4517 C 445.134 -1.71822 4.90686 0
M  V30 4518 C 442.819 -2.26509 4.48329 0
M  V30 4519 C 444.813 -1.3899 6.22062 0
M  V30 4520 C 442.5 -1.93289 5.79726 0
M  V30 4521 C 443.498 -1.49599 6.66415 0
M  V30 4522 O 443.186 -1.16812 7.95368 0
M  V30 4523 H 442.918 -0.406315 0.540263 0
M  V30 4524 H 445.472 -0.653569 1.94725 0
M  V30 4525 H 443.702 -3.19817 2.1738 0
M  V30 4526 H 445.391 -3.12797 2.58675 0
M  V30 4527 H 446.157 -1.63031 4.56778 0
M  V30 4528 H 442.036 -2.59471 3.81045 0
M  V30 4529 H 445.58 -1.04816 6.89681 0
M  V30 4530 H 441.477 -2.01718 6.13172 0
M  V30 4531 H 442.245 -1.30259 8.08069 0
M  V30 4532 N 444.908 -1.36708 -0.784132 0
M  V30 4533 C 445.871 -1.31307 -1.87859 0
M  V30 4534 C 446.871 -0.219654 -1.59293 0
M  V30 4535 O 448.061 -0.47476 -1.67606 0
M  V30 4536 C 445.193 -1.03679 -3.24751 0
M  V30 4537 H 446.386 -2.28647 -1.94064 0
M  V30 4538 H 443.939 -1.21558 -0.98252 0
M  V30 4539 H 444.674 -0.0681936 -3.24228 0
M  V30 4540 H 444.459 -1.82811 -3.46876 0
M  V30 4541 H 445.949 -1.02518 -4.04821 0
M  V30 4542 N 446.386 1.0089 -1.21074 0
M  V30 4543 C 447.635 1.74019 -1.01981 0
M  V30 4544 C 447.948 1.90408 0.447665 0
M  V30 4545 O 449.154 2.60707 0.757906 0
M  V30 4546 C 447.61 3.13026 -1.77603 0
M  V30 4547 C 447.218 3.04623 -3.28495 0
M  V30 4548 C 448.962 3.90312 -1.66904 0
M  V30 4549 C 446.869 4.38685 -3.96623 0
M  V30 4550 H 445.799 0.652422 -0.377971 0
M  V30 4551 H 448.45 1.12755 -1.44771 0
M  V30 4552 H 446.832 3.74878 -1.27604 0
M  V30 4553 H 448.006 2.52032 -3.85767 0
M  V30 4554 H 446.321 2.40827 -3.39693 0
M  V30 4555 H 448.918 4.8951 -2.15138 0
M  V30 4556 H 449.261 4.11558 -0.62658 0
M  V30 4557 H 449.794 3.35104 -2.14359 0
M  V30 4558 H 446.533 4.22641 -5.01054 0
M  V30 4559 H 446.053 4.91252 -3.4414 0
M  V30 4560 H 447.732 5.075 -4.01314 0
M  V30 4561 N 447.864 1.01787 1.20321 0
M  V30 4562 C 449.112 0.706538 1.89347 0
M  V30 4563 C 449.433 -0.766289 1.79313 0
M  V30 4564 O 448.703 -1.55126 1.19635 0
M  V30 4565 H 447.283 0.258348 0.700903 0
M  V30 4566 H 449.945 1.28974 1.46122 0
M  V30 4567 H 449.041 0.991066 2.95946 0
M  V30 4568 N 449.342 -1.36122 0.79427 0
M  V30 4569 C 450.588 -1.99406 0.369452 0
M  V30 4570 C 450.921 -1.62886 -1.05743 0
M  V30 4571 O 450.196 -0.886053 -1.73145 0
M  V30 4572 C 450.479 -3.56046 0.538833 0
M  V30 4573 C 450.332 -4.02404 2.00976 0
M  V30 4574 C 451.651 -4.40079 -0.0431359 0
M  V30 4575 H 448.77 -0.724397 0.135712 0
M  V30 4576 H 451.412 -1.61461 1.00151 0
M  V30 4577 H 449.562 -3.885 0.000771004 0
M  V30 4578 H 451.234 -3.80415 2.60926 0
M  V30 4579 H 449.477 -3.53765 2.51063 0
M  V30 4580 H 450.148 -5.11344 2.07922 0
M  V30 4581 H 452.624 -4.14013 0.416228 0
M  V30 4582 H 451.5 -5.48799 0.105374 0
M  V30 4583 H 451.761 -4.27264 -1.13571 0
M  V30 4584 N 450.82 -0.546701 -1.47814 0
M  V30 4585 C 451.783 0.196287 -2.28358 0
M  V30 4586 C 452.783 0.852437 -1.36346 0
M  V30 4587 O 453.973 0.709913 -1.59078 0
M  V30 4588 C 451.105 1.28579 -3.15722 0
M  V30 4589 H 452.298 -0.511086 -2.95513 0
M  V30 4590 H 449.851 -0.303248 -1.5333 0
M  V30 4591 H 450.586 2.0259 -2.53235 0
M  V30 4592 H 450.371 0.820229 -3.83425 0
M  V30 4593 H 451.861 1.80793 -3.76435 0
M  V30 4594 N 452.299 1.55045 -0.282633 0
M  V30 4595 C 453.209 2.26491 0.61147 0
M  V30 4596 C 454.225 1.29348 1.16384 0
M  V30 4597 O 455.401 1.62298 1.19253 0
M  V30 4598 C 452.466 2.97779 1.77563 0
M  V30 4599 C 451.527 4.10418 1.25919 0
M  V30 4600 C 450.76 4.78297 2.36786 0
M  V30 4601 O 450.983 4.45426 3.56303 0
M  V30 4602 O 449.917 5.66089 2.04517 0
M  V30 4603 H 453.743 3.03683 0.0324615 0
M  V30 4604 H 451.328 1.49317 -0.0497576 0
M  V30 4605 H 453.21 3.42554 2.45427 0
M  V30 4606 H 451.885 2.23498 2.34159 0
M  V30 4607 H 450.792 3.70082 0.546797 0
M  V30 4608 H 452.125 4.86622 0.738887 0
M  V30 4609 N 453.777 0.010035 1.57597 0
M  V30 4610 C 455.188 -0.531426 1.78977 0
M  V30 4611 C 455.539 -1.73375 0.918454 0
M  V30 4612 O 454.664 -2.16047 0.123635 0
M  V30 4613 C 455.259 -0.97086 3.24592 0
M  V30 4614 C 453.818 -1.45756 3.47033 0
M  V30 4615 C 452.965 -0.413384 2.74201 0
M  V30 4616 H 455.916 0.236166 1.56933 0
M  V30 4617 H 455.937 -1.83633 3.33255 0
M  V30 4618 H 455.449 -0.0955893 3.87982 0
M  V30 4619 H 453.55 -2.35339 2.88871 0
M  V30 4620 H 453.663 -1.4781 4.55729 0
M  V30 4621 H 452.027 -0.877266 2.39115 0
M  V30 4622 H 452.81 0.453092 3.40297 0
M  V30 4623 N 455.255 -1.55392 -0.262866 0
M  V30 4624 C 456.483 -1.80513 -1.01108 0
M  V30 4625 C 456.898 -0.583533 -1.79556 0
M  V30 4626 O 456.255 0.447585 -1.76926 0
M  V30 4627 C 456.306 -3.03648 -1.96164 0
M  V30 4628 O 456.027 -4.2109 -1.20893 0
M  V30 4629 C 457.528 -3.41448 -2.82715 0
M  V30 4630 H 454.748 -0.601079 -0.298236 0
M  V30 4631 H 457.292 -2.02425 -0.290582 0
M  V30 4632 H 455.447 -2.83832 -2.63663 0
M  V30 4633 H 455.861 -4.90771 -1.85051 0
M  V30 4634 H 457.335 -4.30751 -3.45192 0
M  V30 4635 H 457.812 -2.61308 -3.53008 0
M  V30 4636 H 458.418 -3.63559 -2.20693 0
M  V30 4637 N 456.733 0.527833 -1.48498 0
M  V30 4638 C 457.958 1.313 -1.60546 0
M  V30 4639 C 458.383 1.86199 -0.26672 0
M  V30 4640 O 457.741 1.64513 0.761918 0
M  V30 4641 C 457.789 2.43818 -2.65678 0
M  V30 4642 O 456.893 3.46916 -2.22987 0
M  V30 4643 H 456.234 0.388784 -0.538277 0
M  V30 4644 H 458.764 0.634896 -1.945 0
M  V30 4645 H 458.774 2.89973 -2.87018 0
M  V30 4646 H 457.449 2.03222 -3.62869 0
M  V30 4647 H 456.026 3.06864 -2.11869 0
M  V30 4648 N 458.211 1.37122 0.776871 0
M  V30 4649 C 459.46 1.31373 1.53049 0
M  V30 4650 C 459.773 -0.101016 1.95339 0
M  V30 4651 O 460.979 -0.280953 2.70042 0
M  V30 4652 C 459.435 2.30567 2.76346 0
M  V30 4653 C 459.043 3.77543 2.41175 0
M  V30 4654 C 460.787 2.33818 3.54301 0
M  V30 4655 C 458.694 4.68481 3.60943 0
M  V30 4656 H 457.624 0.488234 0.574581 0
M  V30 4657 H 460.275 1.62554 0.851372 0
M  V30 4658 H 458.657 1.92396 3.46121 0
M  V30 4659 H 459.831 4.24521 1.79216 0
M  V30 4660 H 458.146 3.77187 1.76405 0
M  V30 4661 H 460.743 2.98965 4.4331 0
M  V30 4662 H 461.086 1.3503 3.93793 0
M  V30 4663 H 461.619 2.7067 2.91518 0
M  V30 4664 H 458.358 5.68378 3.26537 0
M  V30 4665 H 457.878 4.2621 4.22025 0
M  V30 4666 H 459.557 4.85366 4.27819 0
M  V30 4667 N 459.689 -1.00246 1.21608 0
M  V30 4668 C 460.622 -2.08794 0.920892 0
M  V30 4669 C 461.6 -1.62059 -0.132552 0
M  V30 4670 O 462.784 -1.885 -0.0030366 0
M  V30 4671 C 459.911 -3.36525 0.383226 0
M  V30 4672 C 458.957 -4.02172 1.41987 0
M  V30 4673 S 459.79 -4.44256 2.98994 0
M  V30 4674 C 460.946 -5.7517 2.4684 0
M  V30 4675 H 461.179 -2.33511 1.8401 0
M  V30 4676 H 458.712 -1.13562 1.04609 0
M  V30 4677 H 460.67 -4.10423 0.0795871 0
M  V30 4678 H 459.331 -3.09854 -0.514711 0
M  V30 4679 H 458.524 -4.94114 0.993335 0
M  V30 4680 H 458.126 -3.34559 1.67171 0
M  V30 4681 H 460.418 -6.51042 1.87484 0
M  V30 4682 H 461.361 -6.22638 3.37235 0
M  V30 4683 H 461.769 -5.32112 1.88461 0
M  V30 4684 N 461.167 -1.02423 -1.1978 0
M  V30 4685 C 462.413 -0.719051 -1.89625 0
M  V30 4686 C 462.746 0.750083 -1.7913 0
M  V30 4687 O 462.021 1.54574 -1.18056 0
M  V30 4688 C 462.304 -1.16499 -3.40735 0
M  V30 4689 C 462.157 -2.695 -3.60125 0
M  V30 4690 C 463.476 -0.742166 -4.33797 0
M  V30 4691 H 460.595 -0.26269 -0.688595 0
M  V30 4692 H 463.237 -1.27333 -1.41018 0
M  V30 4693 H 461.387 -0.69341 -3.82262 0
M  V30 4694 H 463.059 -3.24569 -3.278 0
M  V30 4695 H 461.302 -3.10113 -3.03336 0
M  V30 4696 H 461.973 -2.95757 -4.66081 0
M  V30 4697 H 464.449 -1.1477 -3.99959 0
M  V30 4698 H 463.325 -1.08213 -5.38127 0
M  V30 4699 H 463.586 0.355747 -4.40666 0
M  V30 4700 N 462.645 1.35699 -0.801477 0
M  V30 4701 C 463.555 2.33661 -0.209691 0
M  V30 4702 C 464.571 1.6162 0.644591 0
M  V30 4703 O 465.747 1.93529 0.557545 0
M  V30 4704 C 462.812 3.40816 0.636033 0
M  V30 4705 C 461.873 4.28639 -0.238147 0
M  V30 4706 C 461.106 5.30676 0.567307 0
M  V30 4707 O 461.329 5.41174 1.8024 0
M  V30 4708 O 460.263 6.01887 -0.0391336 0
M  V30 4709 H 464.089 2.8606 -1.01996 0
M  V30 4710 H 461.674 1.38379 -0.563164 0
M  V30 4711 H 463.556 4.06301 1.11791 0
M  V30 4712 H 462.231 2.90696 1.42399 0
M  V30 4713 H 461.138 3.66152 -0.767044 0
M  V30 4714 H 462.471 4.82143 -0.989915 0
M  V30 4715 N 464.123 0.554532 1.47522 0
M  V30 4716 C 465.351 0.034257 2.06872 0
M  V30 4717 C 465.766 -1.25826 1.40759 0
M  V30 4718 O 465.123 -1.75425 0.503217 0
M  V30 4719 C 465.174 -0.167827 3.6111 0
M  V30 4720 O 464.895 1.07351 4.24744 0
M  V30 4721 C 466.396 -0.72569 4.3732 0
M  V30 4722 H 463.616 0.0446275 0.669514 0
M  V30 4723 H 466.16 0.767181 1.89564 0
M  V30 4724 H 464.315 -0.850872 3.7794 0
M  V30 4725 H 464.729 0.869563 5.17242 0
M  V30 4726 H 466.203 -0.816394 5.45929 0
M  V30 4727 H 466.68 -1.73635 4.0342 0
M  V30 4728 H 467.286 -0.0784292 4.25228 0
M  V30 4729 N 465.601 -1.54893 0.290851 0
M  V30 4730 C 466.848 -1.99933 -0.321391 0
M  V30 4731 C 467.176 -1.17927 -1.54672 0
M  V30 4732 O 466.431 -0.240902 -1.94212 0
M  V30 4733 C 466.73 -3.49815 -0.732397 0
M  V30 4734 C 466.396 -4.4921 0.390056 0
M  V30 4735 C 465.058 -4.76107 0.698223 0
M  V30 4736 C 467.41 -5.08453 1.14562 0
M  V30 4737 C 464.738 -5.59514 1.76526 0
M  V30 4738 C 467.09 -5.9302 2.2025 0
M  V30 4739 C 465.754 -6.18232 2.51684 0
M  V30 4740 H 465.024 -0.731608 -0.117605 0
M  V30 4741 H 467.671 -1.87107 0.407839 0
M  V30 4742 H 465.976 -3.60199 -1.54155 0
M  V30 4743 H 467.673 -3.82083 -1.21712 0
M  V30 4744 H 464.263 -4.28372 0.13976 0
M  V30 4745 H 468.447 -4.87683 0.920801 0
M  V30 4746 H 463.703 -5.77289 2.01364 0
M  V30 4747 H 467.877 -6.37955 2.7926 0
M  V30 4748 H 465.504 -6.82653 3.34499 0
M  V30 4749 N 467.08 -0.0183926 -1.57589 0
M  V30 4750 C 468.328 0.661253 -1.90976 0
M  V30 4751 C 468.649 1.73281 -0.894353 0
M  V30 4752 O 467.919 1.9579 0.0656788 0
M  V30 4753 H 466.499 0.247233 -0.704901 0
M  V30 4754 H 469.161 -0.0636639 -1.94796 0
M  V30 4755 H 468.257 1.12083 -2.9128 0
M  V30 4756 N 468.558 1.5553 0.254621 0
M  V30 4757 C 469.786 1.81046 1.00149 0
M  V30 4758 C 470.201 0.593047 1.79244 0
M  V30 4759 O 469.558 -0.438196 1.77161 0
M  V30 4760 C 469.609 3.04684 1.94551 0
M  V30 4761 O 469.33 4.21725 1.18658 0
M  V30 4762 C 470.831 3.42943 2.80901 0
M  V30 4763 H 468.051 0.602653 0.295044 0
M  V30 4764 H 470.595 2.02576 0.279842 0
M  V30 4765 H 468.75 2.85226 2.62154 0
M  V30 4766 H 469.164 4.91746 1.82445 0
M  V30 4767 H 470.638 4.32576 3.42902 0
M  V30 4768 H 471.115 2.63176 3.51617 0
M  V30 4769 H 471.721 3.64724 2.18762 0
M  V30 4770 N 470.036 -0.519951 1.48776 0
M  V30 4771 C 470.946 -1.65025 1.66745 0
M  V30 4772 C 471.962 -1.6508 0.549954 0
M  V30 4773 O 473.138 -1.83848 0.822295 0
M  V30 4774 C 470.203 -3.0146 1.71238 0
M  V30 4775 C 469.264 -3.12182 2.94688 0
M  V30 4776 C 468.497 -4.42109 2.98958 0
M  V30 4777 O 468.72 -5.29799 2.1135 0
M  V30 4778 O 467.654 -4.57406 3.91233 0
M  V30 4779 H 471.48 -1.52801 2.62461 0
M  V30 4780 H 469.065 -0.694157 1.32294 0
M  V30 4781 H 470.947 -3.82584 1.76657 0
M  V30 4782 H 469.622 -3.13988 0.786975 0
M  V30 4783 H 468.529 -2.30316 2.94797 0
M  V30 4784 H 469.862 -3.04574 3.86646 0
M  V30 4785 N 471.514 -1.37532 -0.769588 0
M  V30 4786 C 472.461 -1.3347 -1.88293 0
M  V30 4787 C 473.431 -0.199891 -1.64893 0
M  V30 4788 O 474.616 -0.389594 -1.8678 0
M  V30 4789 C 471.756 -1.14968 -3.25387 0
M  V30 4790 C 470.869 -2.37698 -3.60727 0
M  V30 4791 C 470.004 -2.12051 -4.8704 0
M  V30 4792 C 469.043 -3.30636 -5.15117 0
M  V30 4793 N 468.18 -3.04527 -6.3262 0
M  V30 4794 H 473.02 -2.28658 -1.911 0
M  V30 4795 H 470.557 -1.13622 -0.934257 0
M  V30 4796 H 472.515 -1.02261 -4.04473 0
M  V30 4797 H 471.145 -0.234263 -3.21949 0
M  V30 4798 H 470.197 -2.61137 -2.76608 0
M  V30 4799 H 471.509 -3.26131 -3.77413 0
M  V30 4800 H 470.663 -1.96388 -5.74035 0
M  V30 4801 H 469.402 -1.20959 -4.72462 0
M  V30 4802 H 468.407 -3.46836 -4.26597 0
M  V30 4803 H 469.632 -4.22582 -5.31603 0
M  V30 4804 H 467.578 -2.16067 -6.19396 0
M  V30 4805 H 467.495 -3.86503 -6.49732 0
M  V30 4806 H 468.763 -2.92485 -7.22546 0
M  V30 4807 N 472.992 0.995999 -1.22138 0
M  V30 4808 C 474.238 1.73767 -1.04561 0
M  V30 4809 C 474.571 1.89633 0.418698 0
M  V30 4810 O 473.846 1.43723 1.3105 0
M  V30 4811 C 474.129 3.14505 -1.75382 0
M  V30 4812 C 473.982 3.06306 -3.29388 0
M  V30 4813 C 475.301 4.13615 -1.50369 0
M  V30 4814 H 472.42 0.630728 -0.38125 0
M  V30 4815 H 475.062 1.16057 -1.50435 0
M  V30 4816 H 473.212 3.63775 -1.36383 0
M  V30 4817 H 474.884 2.64681 -3.77812 0
M  V30 4818 H 473.127 2.43186 -3.59226 0
M  V30 4819 H 473.798 4.05884 -3.74116 0
M  V30 4820 H 476.274 3.73089 -1.84239 0
M  V30 4821 H 475.15 5.10212 -2.02421 0
M  V30 4822 H 475.411 4.39949 -0.435611 0
M  V30 4823 N 474.47 1.03057 1.19235 0
M  V30 4824 C 475.881 0.757449 1.70645 0
M  V30 4825 C 476.232 -0.722735 1.82403 0
M  V30 4826 O 475.357 -1.56325 1.49638 0
M  V30 4827 C 475.952 1.36833 3.09939 0
M  V30 4828 C 474.511 1.14375 3.58602 0
M  V30 4829 C 473.658 1.46533 2.35422 0
M  V30 4830 H 476.609 1.19828 1.04052 0
M  V30 4831 H 476.63 0.766184 3.72706 0
M  V30 4832 H 476.142 2.44562 3.01349 0
M  V30 4833 H 474.243 0.0847542 3.72504 0
M  V30 4834 H 474.356 1.83366 4.42622 0
M  V30 4835 H 472.72 0.884712 2.38841 0
M  V30 4836 H 473.503 2.55349 2.2946 0
M  V30 4837 N 475.948 -1.35272 0.808662 0
M  V30 4838 C 477.173 -2.03477 0.401475 0
M  V30 4839 C 477.598 -1.60537 -0.980279 0
M  V30 4840 O 476.956 -0.78304 -1.63518 0
M  V30 4841 C 477.004 -3.57181 0.495354 0
M  V30 4842 O 476.108 -4.09474 -0.490397 0
M  V30 4843 H 475.449 -0.642561 0.167366 0
M  V30 4844 H 477.979 -1.72824 1.09512 0
M  V30 4845 H 477.989 -4.06356 0.365912 0
M  V30 4846 H 476.664 -3.87784 1.5032 0
M  V30 4847 H 475.241 -3.71516 -0.321023 0
M  V30 4848 N 477.426 -0.562348 -1.47226 0
M  V30 4849 C 478.336 0.185466 -2.33866 0
M  V30 4850 C 479.352 0.906713 -1.48508 0
M  V30 4851 O 480.528 0.874458 -1.81425 0
M  V30 4852 C 477.593 1.19904 -3.25306 0
M  V30 4853 C 476.654 0.484669 -4.26555 0
M  V30 4854 C 475.887 1.44996 -5.13626 0
M  V30 4855 O 476.11 2.68515 -5.03245 0
M  V30 4856 O 475.044 0.971642 -5.94006 0
M  V30 4857 H 478.87 -0.525361 -2.99121 0
M  V30 4858 H 476.455 -0.322916 -1.45868 0
M  V30 4859 H 478.337 1.78399 -3.81774 0
M  V30 4860 H 477.012 1.8917 -2.62672 0
M  V30 4861 H 475.919 -0.141605 -3.73832 0
M  V30 4862 H 477.252 -0.166634 -4.91918 0
M  V30 4863 N 478.904 1.54736 -0.299062 0
M  V30 4864 C 479.836 2.20891 0.61153 0
M  V30 4865 C 480.849 1.20104 1.09904 0
M  V30 4866 O 482.038 1.46707 1.01683 0
M  V30 4867 C 479.138 2.84018 1.84897 0
M  V30 4868 C 478.311 4.10719 1.50428 0
M  V30 4869 C 477.37 4.57667 2.59667 0
M  V30 4870 O 476.396 5.2291 2.24842 0
M  V30 4871 N 477.598 4.29821 3.90172 0
M  V30 4872 H 480.363 2.99666 0.0452001 0
M  V30 4873 H 477.924 1.61446 -0.121178 0
M  V30 4874 H 479.916 3.1236 2.5732 0
M  V30 4875 H 478.486 2.09095 2.32375 0
M  V30 4876 H 477.706 3.89408 0.612781 0
M  V30 4877 H 478.994 4.93223 1.24934 0
M  V30 4878 H 478.392 3.77549 4.21276 0
M  V30 4879 H 476.949 4.62877 4.58899 0
M  V30 4880 N 480.382 0.0267497 1.57577 0
M  V30 4881 C 481.312 -0.954308 2.13108 0
M  V30 4882 C 482.293 -1.34088 1.04663 0
M  V30 4883 O 483.478 -1.41992 1.32484 0
M  V30 4884 C 480.608 -2.23744 2.65624 0
M  V30 4885 C 479.562 -1.99168 3.78835 0
M  V30 4886 C 478.888 -3.33726 4.17769 0
M  V30 4887 C 480.188 -1.33277 5.0501 0
M  V30 4888 H 481.882 -0.491848 2.95332 0
M  V30 4889 H 479.428 -0.23514 1.42067 0
M  V30 4890 H 481.381 -2.92754 3.03106 0
M  V30 4891 H 480.105 -2.72151 1.80558 0
M  V30 4892 H 478.764 -1.32577 3.41788 0
M  V30 4893 H 478.412 -3.79888 3.29688 0
M  V30 4894 H 478.112 -3.18089 4.94058 0
M  V30 4895 H 479.636 -4.04008 4.57832 0
M  V30 4896 H 481.05 -1.92283 5.40093 0
M  V30 4897 H 479.447 -1.28045 5.8628 0
M  V30 4898 H 480.517 -0.305411 4.83937 0
M  V30 4899 N 481.861 -1.55662 -0.24637 0
M  V30 4900 C 483.089 -1.81575 -0.991876 0
M  V30 4901 C 483.504 -0.602545 -1.78927 0
M  V30 4902 O 482.861 0.428795 -1.77391 0
M  V30 4903 C 482.912 -3.05711 -1.92933 0
M  V30 4904 O 482.633 -4.22348 -1.1642 0
M  V30 4905 C 484.134 -3.44428 -2.79078 0
M  V30 4906 H 481.354 -0.604209 -0.291844 0
M  V30 4907 H 483.898 -2.02722 -0.269095 0
M  V30 4908 H 482.053 -2.86612 -2.60638 0
M  V30 4909 H 482.467 -4.92706 -1.79835 0
M  V30 4910 H 483.941 -4.34388 -3.40603 0
M  V30 4911 H 484.418 -2.65037 -3.50217 0
M  V30 4912 H 485.024 -3.65879 -2.16824 0
M  V30 4913 N 483.339 0.512053 -1.4905 0
M  V30 4914 C 484.269 1.62365 -1.67809 0
M  V30 4915 C 485.25 1.61737 -0.526809 0
M  V30 4916 O 486.435 1.78651 -0.761404 0
M  V30 4917 C 483.565 3.00895 -1.73435 0
M  V30 4918 C 482.519 3.16387 -2.88242 0
M  V30 4919 C 481.845 4.56157 -2.78971 0
M  V30 4920 C 483.145 2.97457 -4.29321 0
M  V30 4921 H 484.839 1.46921 -2.60873 0
M  V30 4922 H 482.385 0.705379 -1.2554 0
M  V30 4923 H 484.338 3.78549 -1.85145 0
M  V30 4924 H 483.062 3.17403 -0.769619 0
M  V30 4925 H 481.721 2.41155 -2.76116 0
M  V30 4926 H 481.369 4.69525 -1.8043 0
M  V30 4927 H 481.069 4.67465 -3.5602 0
M  V30 4928 H 482.593 5.35886 -2.92675 0
M  V30 4929 H 484.007 3.64888 -4.42187 0
M  V30 4930 H 482.404 3.20245 -5.07507 0
M  V30 4931 H 483.474 1.93692 -4.44535 0
M  V30 4932 N 484.817 1.37938 0.762283 0
M  V30 4933 C 485.747 1.37176 1.88958 0
M  V30 4934 C 486.728 0.238945 1.68413 0
M  V30 4935 O 487.913 0.440726 1.89133 0
M  V30 4936 C 485.043 1.18742 3.2637 0
M  V30 4937 C 483.997 2.29136 3.61498 0
M  V30 4938 C 483.323 1.95816 4.97554 0
M  V30 4939 C 484.623 3.71363 3.6727 0
M  V30 4940 H 486.317 2.31509 1.89853 0
M  V30 4941 H 483.863 1.11438 0.912005 0
M  V30 4942 H 485.816 1.16837 4.04879 0
M  V30 4943 H 484.54 0.208683 3.25933 0
M  V30 4944 H 483.199 2.30213 2.85303 0
M  V30 4945 H 482.847 0.964475 4.93667 0
M  V30 4946 H 482.547 2.69745 5.22026 0
M  V30 4947 H 484.071 1.95513 5.78452 0
M  V30 4948 H 485.485 3.72364 4.35911 0
M  V30 4949 H 483.882 4.44425 4.03245 0
M  V30 4950 H 484.952 4.04305 2.67704 0
M  V30 4951 N 486.295 -0.989507 1.22664 0
M  V30 4952 C 487.541 -1.7321 1.05481 0
M  V30 4953 C 487.874 -1.89852 -0.408635 0
M  V30 4954 O 487.149 -1.44416 -1.30285 0
M  V30 4955 C 487.432 -3.1357 1.77047 0
M  V30 4956 C 487.285 -3.04555 3.31008 0
M  V30 4957 C 488.604 -4.12812 1.5256 0
M  V30 4958 H 485.723 -0.628697 0.384589 0
M  V30 4959 H 488.365 -1.15258 1.51049 0
M  V30 4960 H 486.515 -3.63046 1.3831 0
M  V30 4961 H 488.187 -2.62674 3.7921 0
M  V30 4962 H 486.43 -2.41278 3.6051 0
M  V30 4963 H 487.101 -4.03894 3.76263 0
M  V30 4964 H 489.577 -3.72106 1.86215 0
M  V30 4965 H 488.453 -5.09132 2.05124 0
M  V30 4966 H 488.714 -4.39711 0.458936 0
M  V30 4967 N 487.773 -1.03688 -1.18687 0
M  V30 4968 C 489.189 -0.755413 -1.4059 0
M  V30 4969 C 489.389 0.656659 -1.905 0
M  V30 4970 O 488.445 1.42144 -2.08689 0
M  V30 4971 C 489.758 -1.7983 -2.41001 0
M  V30 4972 C 491.306 -1.81877 -2.54735 0
M  V30 4973 C 491.781 -2.85148 -3.58406 0
M  V30 4974 N 493.272 -2.84015 -3.6591 0
M  V30 4975 C 494.007 -3.60573 -4.45841 0
M  V30 4976 N 493.503 -4.46871 -5.29413 0
M  V30 4977 N 495.296 -3.49079 -4.40568 0
M  V30 4978 H 487.447 -1.94818 -0.846148 0
M  V30 4979 H 489.71 -0.842727 -0.434184 0
M  V30 4980 H 489.416 -2.81097 -2.1137 0
M  V30 4981 H 489.29 -1.62727 -3.40294 0
M  V30 4982 H 491.677 -0.812836 -2.83685 0
M  V30 4983 H 491.758 -2.03057 -1.55568 0
M  V30 4984 H 491.402 -3.85918 -3.30197 0
M  V30 4985 H 491.332 -2.61224 -4.57241 0
M  V30 4986 H 493.823 -2.21431 -3.0623 0
M  V30 4987 H 494.136 -5.02007 -5.87545 0
M  V30 4988 H 492.481 -4.5094 -5.28846 0
M  V30 4989 H 495.672 -2.81066 -3.74325 0
M  V30 4990 H 495.845 -4.08994 -5.02621 0
M  V30 4991 N 489.251 1.34841 -0.815825 0
M  V30 4992 C 490.161 2.33425 -0.234462 0
M  V30 4993 C 491.177 1.62295 0.627413 0
M  V30 4994 O 492.353 1.94109 0.536987 0
M  V30 4995 C 489.418 3.41471 0.599849 0
M  V30 4996 C 488.479 4.28362 -0.283596 0
M  V30 4997 C 487.712 5.31248 0.51099 0
M  V30 4998 O 487.935 5.43056 1.7449 0
M  V30 4999 O 486.869 6.01812 -0.10297 0
M  V30 5000 H 490.695 2.84962 -1.05024 0
M  V30 5001 H 488.28 1.37774 -0.577809 0
M  V30 5002 H 490.162 4.07464 1.07475 0
M  V30 5003 H 488.837 2.9219 1.39308 0
M  V30 5004 H 487.744 3.65318 -0.805836 0
M  V30 5005 H 489.077 4.81066 -1.041 0
M  V30 5006 N 490.729 0.570148 1.46925 0
M  V30 5007 C 491.976 0.0509529 2.02436 0
M  V30 5008 C 492.304 -1.30405 1.44308 0
M  V30 5009 O 491.559 -1.86493 0.593198 0
M  V30 5010 C 491.858 -0.0780336 3.57315 0
M  V30 5011 C 491.524 1.20775 4.34424 0
M  V30 5012 C 490.186 1.56004 4.5521 0
M  V30 5013 C 492.538 2.0592 4.78797 0
M  V30 5014 C 489.866 2.76201 5.17619 0
M  V30 5015 C 492.218 3.25332 5.42533 0
M  V30 5016 C 490.882 3.60859 5.61549 0
M  V30 5017 H 490.152 0.018645 0.740765 0
M  V30 5018 H 492.799 0.744262 1.76445 0
M  V30 5019 H 491.104 -0.854394 3.82371 0
M  V30 5020 H 492.801 -0.495312 3.97929 0
M  V30 5021 H 489.391 0.923469 4.18533 0
M  V30 5022 H 493.575 1.80008 4.62505 0
M  V30 5023 H 488.831 3.0388 5.30535 0
M  V30 5024 H 493.005 3.91586 5.75876 0
M  V30 5025 H 490.632 4.54088 6.09678 0
M  V30 5026 N 492.207 -1.54576 0.307264 0
M  V30 5027 C 493.454 -2.00263 -0.300167 0
M  V30 5028 C 493.782 -1.19561 -1.53413 0
M  V30 5029 O 493.037 -0.261487 -1.93945 0
M  V30 5030 C 493.336 -3.50572 -0.695253 0
M  V30 5031 C 493.002 -4.48771 0.437679 0
M  V30 5032 C 491.664 -4.7534 0.748681 0
M  V30 5033 C 494.016 -5.0721 1.19949 0
M  V30 5034 C 491.344 -5.5761 1.8245 0
M  V30 5035 C 493.696 -5.90651 2.26527 0
M  V30 5036 C 492.36 -6.15528 2.58227 0
M  V30 5037 H 491.63 -0.732814 -0.109839 0
M  V30 5038 H 494.277 -1.86664 0.427661 0
M  V30 5039 H 492.582 -3.61814 -1.50326 0
M  V30 5040 H 494.279 -3.83352 -1.17653 0
M  V30 5041 H 490.869 -4.282 0.185187 0
M  V30 5042 H 495.053 -4.86679 0.972474 0
M  V30 5043 H 490.309 -5.75121 2.07476 0
M  V30 5044 H 494.483 -6.34957 2.86011 0
M  V30 5045 H 492.11 -6.79066 3.4172 0
M  V30 5046 N 493.685 -0.035106 -1.57561 0
M  V30 5047 C 494.962 0.681212 -1.83354 0
M  V30 5048 C 495.342 1.89986 -0.920252 0
M  V30 5049 O 494.69 2.28489 0.0226815 0
M  V30 5050 C 494.9 1.05376 -3.32712 0
M  V30 5051 C 496.248 1.44286 -3.99333 0
M  V30 5052 O 497.272 1.14656 -3.37242 0
M  V30 5053 O 496.131 1.99518 -5.08778 0
M  V30 5054 H 493.225 0.334741 -0.756226 0
M  V30 5055 H 495.771 -0.0632448 -1.69582 0
M  V30 5056 H 494.543 0.186668 -3.90854 0
M  V30 5057 H 494.166 1.85619 -3.51613 0
M  V30 5058 N 495.163 1.55791 0.238111 0
M  V30 5059 C 496.093 1.94068 1.29846 0
M  V30 5060 C 497.074 0.806726 1.49753 0
M  V30 5061 O 498.259 1.06772 1.62214 0
M  V30 5062 C 495.389 2.24302 2.65153 0
M  V30 5063 C 494.343 3.40032 2.59927 0
M  V30 5064 C 493.669 3.55829 3.99111 0
M  V30 5065 C 494.969 4.75476 2.16148 0
M  V30 5066 H 496.663 2.82887 0.980563 0
M  V30 5067 H 494.209 1.36105 0.470253 0
M  V30 5068 H 496.162 2.4967 3.39475 0
M  V30 5069 H 494.886 1.32318 2.98596 0
M  V30 5070 H 493.545 3.14687 1.88063 0
M  V30 5071 H 493.193 2.6125 4.29834 0
M  V30 5072 H 492.893 4.3366 3.96501 0
M  V30 5073 H 494.417 3.83528 4.7512 0
M  V30 5074 H 495.831 5.00158 2.80205 0
M  V30 5075 H 494.228 5.56472 2.24631 0
M  V30 5076 H 495.298 4.71946 1.11333 0
M  V30 5077 N 496.642 -0.504142 1.49319 0
M  V30 5078 C 498.058 -0.835039 1.36012 0
M  V30 5079 C 498.258 -1.97674 0.390808 0
M  V30 5080 O 497.314 -2.51867 -0.178655 0
M  V30 5081 C 498.627 -1.17821 2.76656 0
M  V30 5082 C 500.175 -1.2866 2.85334 0
M  V30 5083 C 500.65 -1.66307 4.26739 0
M  V30 5084 N 502.141 -1.73362 4.29534 0
M  V30 5085 C 502.876 -2.0393 5.35911 0
M  V30 5086 N 502.372 -2.32744 6.52535 0
M  V30 5087 N 504.165 -2.05155 5.23324 0
M  V30 5088 H 496.316 0.248764 2.10938 0
M  V30 5089 H 498.579 0.0486962 0.946748 0
M  V30 5090 H 498.285 -0.412682 3.4927 0
M  V30 5091 H 498.159 -2.12239 3.11825 0
M  V30 5092 H 500.546 -2.04285 2.1296 0
M  V30 5093 H 500.627 -0.323004 2.53752 0
M  V30 5094 H 500.271 -0.91234 4.99639 0
M  V30 5095 H 500.201 -2.63761 4.55782 0
M  V30 5096 H 502.692 -1.53268 3.45424 0
M  V30 5097 H 503.005 -2.55248 7.2943 0
M  V30 5098 H 501.35 -2.30207 6.55767 0
M  V30 5099 H 504.541 -1.82119 4.3122 0
M  V30 5100 H 504.714 -2.28644 6.06322 0
M  V30 5101 N 498.12 -1.38341 -0.754957 0
M  V30 5102 C 499.531 -1.30803 -1.3322 0
M  V30 5103 C 499.882 0.0368 -1.96165 0
M  V30 5104 O 499.007 0.938844 -1.94974 0
M  V30 5105 C 499.602 -2.3688 -2.42225 0
M  V30 5106 C 498.161 -2.32925 -2.95674 0
M  V30 5107 C 497.308 -2.19819 -1.69042 0
M  V30 5108 H 500.259 -1.48719 -0.553937 0
M  V30 5109 H 500.28 -2.02517 -3.22129 0
M  V30 5110 H 499.792 -3.34747 -1.96383 0
M  V30 5111 H 497.893 -1.38635 -3.45848 0
M  V30 5112 H 498.006 -3.27008 -3.50146 0
M  V30 5113 H 496.37 -1.66648 -1.92615 0
M  V30 5114 H 497.153 -3.19625 -1.25279 0
M  V30 5115 N 499.598 0.982988 -1.23187 0
M  V30 5116 C 500.828 1.75666 -1.08743 0
M  V30 5117 C 501.236 1.85662 0.364195 0
M  V30 5118 O 500.579 1.33317 1.26382 0
M  V30 5119 C 500.641 3.20144 -1.63549 0
M  V30 5120 C 500.305 3.33665 -3.12277 0
M  V30 5121 C 501.302 3.20194 -4.096 0
M  V30 5122 C 498.987 3.58397 -3.51933 0
M  V30 5123 C 500.981 3.31256 -5.44563 0
M  V30 5124 C 498.668 3.69098 -4.87042 0
M  V30 5125 C 499.666 3.55537 -5.83166 0
M  V30 5126 O 499.354 3.65864 -7.1582 0
M  V30 5127 H 499.086 0.558194 -0.381307 0
M  V30 5128 H 501.64 1.24387 -1.63454 0
M  V30 5129 H 499.87 3.72659 -1.03256 0
M  V30 5130 H 501.559 3.79262 -1.4462 0
M  V30 5131 H 502.325 3.00987 -3.80305 0
M  V30 5132 H 498.204 3.68025 -2.77631 0
M  V30 5133 H 501.748 3.20588 -6.19572 0
M  V30 5134 H 497.645 3.87814 -5.16014 0
M  V30 5135 H 498.413 3.82675 -7.23534 0
M  V30 5136 N 501.076 1.04316 1.18135 0
M  V30 5137 C 502.324 0.746542 1.87806 0
M  V30 5138 C 502.645 -0.728082 1.80898 0
M  V30 5139 O 501.915 -1.52554 1.22899 0
M  V30 5140 H 500.495 0.273157 0.695265 0
M  V30 5141 H 503.157 1.32044 1.43354 0
M  V30 5142 H 502.253 1.05362 2.93778 0
M  V30 5143 N 502.554 -1.34406 0.822964 0
M  V30 5144 C 503.484 -2.32052 0.259608 0
M  V30 5145 C 504.465 -1.58243 -0.623961 0
M  V30 5146 O 505.65 -1.86224 -0.55083 0
M  V30 5147 C 502.78 -3.42434 -0.579314 0
M  V30 5148 C 501.734 -4.27499 0.20712 0
M  V30 5149 C 501.06 -5.29349 -0.754547 0
M  V30 5150 C 502.36 -5.02758 1.41533 0
M  V30 5151 H 504.054 -2.79418 1.07545 0
M  V30 5152 H 501.6 -1.34338 0.518593 0
M  V30 5153 H 503.553 -4.0976 -0.983612 0
M  V30 5154 H 502.277 -2.93717 -1.4282 0
M  V30 5155 H 500.936 -3.61776 0.592787 0
M  V30 5156 H 500.584 -4.76895 -1.59939 0
M  V30 5157 H 500.284 -5.8714 -0.232561 0
M  V30 5158 H 501.808 -5.99544 -1.1567 0
M  V30 5159 H 503.222 -5.62938 1.08504 0
M  V30 5160 H 501.619 -5.70123 1.87296 0
M  V30 5161 H 502.689 -4.32451 2.1935 0
M  V30 5162 N 504.032 -0.577932 -1.46621 0
M  V30 5163 C 505.281 -0.0594281 -2.01612 0
M  V30 5164 C 505.594 1.30663 -1.45556 0
M  V30 5165 O 506.8 1.91621 -1.92337 0
M  V30 5166 C 505.256 -0.0556666 -3.59857 0
M  V30 5167 C 504.864 -1.41975 -4.24908 0
M  V30 5168 C 506.608 0.409143 -4.22524 0
M  V30 5169 C 504.515 -1.37397 -5.75218 0
M  V30 5170 H 503.445 -0.0184469 -0.753774 0
M  V30 5171 H 506.096 -0.728869 -1.68404 0
M  V30 5172 H 504.478 0.679843 -3.90121 0
M  V30 5173 H 505.652 -2.17461 -4.0626 0
M  V30 5174 H 503.967 -1.82419 -3.74316 0
M  V30 5175 H 506.564 0.46211 -5.32699 0
M  V30 5176 H 506.907 1.42565 -3.91128 0
M  V30 5177 H 507.44 -0.272152 -3.96868 0
M  V30 5178 H 504.179 -2.36714 -6.11267 0
M  V30 5179 H 503.699 -0.661239 -5.96144 0
M  V30 5180 H 505.378 -1.08484 -6.3784 0
M  V30 5181 N 505.51 1.54411 -0.315457 0
M  V30 5182 C 506.442 2.21527 0.588067 0
M  V30 5183 C 507.455 1.21263 1.08624 0
M  V30 5184 O 508.644 1.47777 1.00121 0
M  V30 5185 C 505.744 2.85963 1.81875 0
M  V30 5186 C 504.917 4.12291 1.46063 0
M  V30 5187 C 503.976 4.60396 2.54799 0
M  V30 5188 O 503.002 5.25265 2.19283 0
M  V30 5189 N 504.204 4.33935 3.85591 0
M  V30 5190 H 506.969 2.99697 0.013414 0
M  V30 5191 H 504.53 1.61308 -0.138295 0
M  V30 5192 H 506.522 3.15071 2.53993 0
M  V30 5193 H 505.092 2.11548 2.30144 0
M  V30 5194 H 504.312 3.90036 0.571445 0
M  V30 5195 H 505.6 4.9452 1.19695 0
M  V30 5196 H 504.998 3.81996 4.17248 0
M  V30 5197 H 503.555 4.67718 4.53964 0
M  V30 5198 N 506.988 0.0434614 1.5754 0
M  V30 5199 C 507.921 -0.968729 2.06618 0
M  V30 5200 C 508.899 -1.30868 0.965 0
M  V30 5201 O 510.083 -1.42288 1.23638 0
M  V30 5202 C 507.21 -2.28486 2.50023 0
M  V30 5203 C 506.256 -2.09851 3.71302 0
M  V30 5204 S 507.089 -1.38401 5.17306 0
M  V30 5205 C 508.245 -2.71354 5.64019 0
M  V30 5206 H 508.478 -0.551021 2.92149 0
M  V30 5207 H 506.011 -0.168607 1.53477 0
M  V30 5208 H 507.969 -3.04142 2.75695 0
M  V30 5209 H 506.63 -2.67387 1.64812 0
M  V30 5210 H 505.823 -3.07184 3.99567 0
M  V30 5211 H 505.425 -1.42336 3.45856 0
M  V30 5212 H 507.717 -3.67549 5.69134 0
M  V30 5213 H 508.66 -2.47734 6.6335 0
M  V30 5214 H 509.068 -2.77259 4.91719 0
M  V30 5215 N 508.466 -1.55915 -0.229846 0
M  V30 5216 C 509.396 -1.94754 -1.28815 0
M  V30 5217 C 510.377 -0.814657 -1.49323 0
M  V30 5218 O 511.562 -1.07631 -1.61645 0
M  V30 5219 C 508.692 -2.25705 -2.63959 0
M  V30 5220 C 507.646 -3.41406 -2.5812 0
M  V30 5221 C 506.972 -3.57941 -3.97218 0
M  V30 5222 C 508.272 -4.76616 -2.13623 0
M  V30 5223 H 509.966 -2.83404 -0.965547 0
M  V30 5224 H 507.512 -1.36353 -0.463028 0
M  V30 5225 H 509.465 -2.51467 -3.38146 0
M  V30 5226 H 508.189 -1.339 -2.9789 0
M  V30 5227 H 506.848 -3.1568 -1.86391 0
M  V30 5228 H 506.496 -2.63526 -4.28443 0
M  V30 5229 H 506.196 -4.35757 -3.94195 0
M  V30 5230 H 507.72 -3.86042 -4.73079 0
M  V30 5231 H 509.134 -5.01637 -2.77549 0
M  V30 5232 H 507.531 -5.57655 -2.21677 0
M  V30 5233 H 508.601 -4.7253 -1.08829 0
M  V30 5234 N 509.944 0.496216 -1.49584 0
M  V30 5235 C 511.221 1.25755 -1.49816 0
M  V30 5236 C 511.601 2.09859 -0.228572 0
M  V30 5237 O 510.949 2.14449 0.788908 0
M  V30 5238 C 511.159 2.11017 -2.7798 0
M  V30 5239 C 512.507 2.70047 -3.27658 0
M  V30 5240 O 513.531 2.21281 -2.79129 0
M  V30 5241 O 512.39 3.58834 -4.1219 0
M  V30 5242 H 509.484 0.569322 -0.599834 0
M  V30 5243 H 512.03 0.510094 -1.61852 0
M  V30 5244 H 510.802 1.48879 -3.61871 0
M  V30 5245 H 510.425 2.92947 -2.68827 0
M  V30 5246 N 511.423 1.38739 0.74761 0
M  V30 5247 C 512.353 1.39173 1.87492 0
M  V30 5248 C 513.334 0.256794 1.6815 0
M  V30 5249 O 514.519 0.460762 1.88655 0
M  V30 5250 C 511.649 1.22197 3.25093 0
M  V30 5251 C 510.603 2.32957 3.59047 0
M  V30 5252 C 509.929 2.01082 4.95449 0
M  V30 5253 C 511.229 3.75237 3.6331 0
M  V30 5254 H 512.923 2.3351 1.87386 0
M  V30 5255 H 510.469 1.12399 0.900134 0
M  V30 5256 H 512.422 1.21124 4.03617 0
M  V30 5257 H 511.146 0.243241 3.25693 0
M  V30 5258 H 509.805 2.33226 2.82845 0
M  V30 5259 H 509.453 1.01678 4.92616 0
M  V30 5260 H 509.153 2.75267 5.19136 0
M  V30 5261 H 510.677 2.01638 5.76346 0
M  V30 5262 H 512.091 3.76966 4.31937 0
M  V30 5263 H 510.488 4.48677 3.98509 0
M  V30 5264 H 511.558 4.07122 2.634 0
M  V30 5265 N 512.901 -0.976442 1.23707 0
M  V30 5266 C 513.831 -2.08749 1.04624 0
M  V30 5267 C 514.812 -1.70057 -0.0380956 0
M  V30 5268 O 515.997 -1.93782 0.127308 0
M  V30 5269 C 513.127 -3.41335 0.640902 0
M  V30 5270 C 512.081 -3.93947 1.67302 0
M  V30 5271 C 511.407 -5.22774 1.12301 0
M  V30 5272 C 512.707 -4.22769 3.06697 0
M  V30 5273 H 514.401 -2.24972 1.97555 0
M  V30 5274 H 511.947 -1.08108 0.951247 0
M  V30 5275 H 513.9 -4.18489 0.494434 0
M  V30 5276 H 512.624 -3.24988 -0.324099 0
M  V30 5277 H 511.283 -3.18941 1.80755 0
M  V30 5278 H 510.931 -5.0278 0.148877 0
M  V30 5279 H 510.631 -5.58942 1.81267 0
M  V30 5280 H 512.155 -6.02546 0.988479 0
M  V30 5281 H 513.569 -4.90659 2.96524 0
M  V30 5282 H 511.966 -4.70147 3.72937 0
M  V30 5283 H 513.036 -3.29885 3.55392 0
M  V30 5284 N 514.379 -1.04941 -1.1758 0
M  V30 5285 C 515.329 -0.618378 -2.19454 0
M  V30 5286 C 516.313 0.343813 -1.57184 0
M  V30 5287 O 517.505 0.16145 -1.76262 0
M  V30 5288 C 514.634 0.00803847 -3.43299 0
M  V30 5289 C 513.72 -0.977827 -4.12673 0
M  V30 5290 N 514.111 -2.14826 -4.57912 0
M  V30 5291 C 512.409 -0.805748 -4.38661 0
M  V30 5292 C 513.11 -2.77174 -5.11419 0
M  V30 5293 N 512.086 -2.04989 -5.03468 0
M  V30 5294 H 515.888 -1.51018 -2.52132 0
M  V30 5295 H 513.402 -0.919201 -1.33882 0
M  V30 5296 H 515.399 0.334584 -4.15555 0
M  V30 5297 H 514.059 0.895272 -3.12114 0
M  V30 5298 H 515.07 -2.52673 -4.52081 0
M  V30 5299 H 511.747 0.0306506 -4.17489 0
M  V30 5300 H 513.137 -3.76416 -5.56562 0
M  V30 5301 N 515.857 1.33968 -0.830081 0
M  V30 5302 C 517.268 1.80439 -0.479455 0
M  V30 5303 C 517.619 1.68756 1.00079 0
M  V30 5304 O 516.744 1.23171 1.77927 0
M  V30 5305 C 517.339 3.27611 -0.863505 0
M  V30 5306 C 515.898 3.72133 -0.565145 0
M  V30 5307 C 515.045 2.55549 -1.07657 0
M  V30 5308 H 517.996 1.21614 -1.0196 0
M  V30 5309 H 518.017 3.8012 -0.170083 0
M  V30 5310 H 517.529 3.36082 -1.94089 0
M  V30 5311 H 515.63 3.69196 0.502536 0
M  V30 5312 H 515.743 4.65963 -1.11422 0
M  V30 5313 H 514.107 2.49788 -0.497807 0
M  V30 5314 H 514.89 2.66786 -2.16055 0
M  V30 5315 N 517.335 0.585699 1.46312 0
M  V30 5316 C 518.584 0.0701192 2.01578 0
M  V30 5317 C 518.897 -1.29889 1.46247 0
M  V30 5318 O 520.103 -1.90598 1.93351 0
M  V30 5319 C 518.559 0.0747499 3.59822 0
M  V30 5320 C 518.167 1.44226 4.24149 0
M  V30 5321 C 519.911 -0.38673 4.22735 0
M  V30 5322 C 517.818 1.40446 5.74481 0
M  V30 5323 H 516.748 0.0224441 0.753666 0
M  V30 5324 H 519.399 0.737789 1.68015 0
M  V30 5325 H 517.781 -0.659144 3.90476 0
M  V30 5326 H 518.955 2.19612 4.05101 0
M  V30 5327 H 517.27 1.84401 3.73343 0
M  V30 5328 H 519.867 -0.433853 5.32937 0
M  V30 5329 H 520.21 -1.40489 3.91878 0
M  V30 5330 H 520.743 0.293195 3.96718 0
M  V30 5331 H 517.482 2.39952 6.10003 0
M  V30 5332 H 517.002 0.692845 5.95785 0
M  V30 5333 H 518.681 1.11865 6.37256 0
M  V30 5334 N 518.813 -1.54241 0.323641 0
M  V30 5335 C 520.043 -2.04687 -0.280464 0
M  V30 5336 C 520.451 -1.19939 -1.46326 0
M  V30 5337 O 519.794 -0.222872 -1.82343 0
M  V30 5338 C 519.856 -3.50978 -0.778123 0
M  V30 5339 C 519.52 -4.56127 0.282371 0
M  V30 5340 C 520.517 -5.07726 1.11847 0
M  V30 5341 C 518.202 -5.00451 0.430582 0
M  V30 5342 C 520.196 -6.02212 2.08851 0
M  V30 5343 C 517.883 -5.94752 1.40404 0
M  V30 5344 C 518.881 -6.45519 2.23147 0
M  V30 5345 O 518.569 -7.37968 3.1884 0
M  V30 5346 H 518.301 -0.673192 -0.0615473 0
M  V30 5347 H 520.855 -1.99999 0.467921 0
M  V30 5348 H 519.085 -3.53064 -1.57742 0
M  V30 5349 H 520.774 -3.84499 -1.30058 0
M  V30 5350 H 521.54 -4.74261 1.01496 0
M  V30 5351 H 517.419 -4.6055 -0.203569 0
M  V30 5352 H 520.963 -6.41761 2.73474 0
M  V30 5353 H 516.86 -6.27633 1.5082 0
M  V30 5354 H 517.628 -7.55841 3.14079 0
M  V30 5355 N 520.291 -0.0518155 -1.57515 0
M  V30 5356 C 521.238 0.922352 -2.11569 0
M  V30 5357 C 522.208 1.30842 -1.02321 0
M  V30 5358 O 523.393 1.39778 -1.29872 0
M  V30 5359 C 520.533 2.19167 -2.6657 0
M  V30 5360 C 519.646 1.86003 -3.89906 0
M  V30 5361 C 518.781 3.07398 -4.33221 0
M  V30 5362 C 517.82 2.70158 -5.49255 0
M  V30 5363 N 516.957 3.84248 -5.8762 0
M  V30 5364 H 521.797 0.454506 -2.94514 0
M  V30 5365 H 519.334 0.212718 -1.45554 0
M  V30 5366 H 521.292 2.93443 -2.96559 0
M  V30 5367 H 519.922 2.63528 -1.86421 0
M  V30 5368 H 518.974 1.01874 -3.66505 0
M  V30 5369 H 520.286 1.54592 -4.74239 0
M  V30 5370 H 519.44 3.89972 -4.64765 0
M  V30 5371 H 518.179 3.41988 -3.477 0
M  V30 5372 H 517.184 1.86001 -5.17382 0
M  V30 5373 H 518.409 2.36759 -6.36492 0
M  V30 5374 H 516.355 4.18638 -5.05053 0
M  V30 5375 H 516.272 3.56538 -6.66646 0
M  V30 5376 H 517.54 4.6746 -6.2378 0
M  V30 5377 N 521.769 1.56035 0.221574 0
M  V30 5378 C 522.679 1.95581 1.29558 0
M  V30 5379 C 523.695 0.859639 1.51282 0
M  V30 5380 O 524.871 1.16321 1.64413 0
M  V30 5381 C 521.936 2.26447 2.62531 0
M  V30 5382 C 520.997 3.49632 2.4911 0
M  V30 5383 C 520.23 3.79017 3.75742 0
M  V30 5384 O 520.453 3.10077 4.78757 0
M  V30 5385 O 519.387 4.72507 3.72855 0
M  V30 5386 H 523.213 2.8711 0.990035 0
M  V30 5387 H 520.798 1.43244 0.424434 0
M  V30 5388 H 522.68 2.47494 3.41064 0
M  V30 5389 H 521.355 1.38092 2.92766 0
M  V30 5390 H 520.262 3.33864 1.68777 0
M  V30 5391 H 521.595 4.3837 2.23814 0
M  V30 5392 N 523.247 -0.488276 1.49845 0
M  V30 5393 C 524.475 -1.26527 1.63702 0
M  V30 5394 C 524.89 -1.8618 0.313447 0
M  V30 5395 O 524.247 -1.68432 -0.702624 0
M  V30 5396 C 524.298 -2.3864 2.71538 0
M  V30 5397 O 524.019 -1.81437 3.98763 0
M  V30 5398 C 525.52 -3.29805 2.96215 0
M  V30 5399 H 522.74 -0.383295 0.55075 0
M  V30 5400 H 525.284 -0.584779 1.95961 0
M  V30 5401 H 523.439 -3.02496 2.42023 0
M  V30 5402 H 523.853 -2.55135 4.58265 0
M  V30 5403 H 525.327 -4.04722 3.75372 0
M  V30 5404 H 525.804 -3.87563 2.06619 0
M  V30 5405 H 526.41 -2.71703 3.27196 0
M  V30 5406 N 524.725 -1.39134 -0.740242 0
M  V30 5407 C 525.688 -1.37217 -1.83587 0
M  V30 5408 C 526.688 -0.270221 -1.58513 0
M  V30 5409 O 527.878 -0.527843 -1.6601 0
M  V30 5410 C 525.01 -1.13959 -3.21288 0
M  V30 5411 H 526.203 -2.34705 -1.86691 0
M  V30 5412 H 523.756 -1.24622 -0.94335 0
M  V30 5413 H 524.491 -0.17131 -3.23847 0
M  V30 5414 H 524.276 -1.93754 -3.40884 0
M  V30 5415 H 525.766 -1.15346 -4.01354 0
M  V30 5416 N 526.204 0.969867 -1.24223 0
M  V30 5417 C 527.167 2.04564 -1.03373 0
M  V30 5418 C 528.167 1.60798 0.00819206 0
M  V30 5419 O 529.357 1.72641 -0.232567 0
M  V30 5420 C 526.489 3.36163 -0.566343 0
M  V30 5421 H 527.682 2.24494 -1.98853 0
M  V30 5422 H 525.235 1.1448 -1.06415 0
M  V30 5423 H 525.97 3.21925 0.391751 0
M  V30 5424 H 525.755 3.69273 -1.31834 0
M  V30 5425 H 527.245 4.1526 -0.441435 0
M  V30 5426 N 527.682 1.05563 1.17022 0
M  V30 5427 C 528.912 0.787307 1.91011 0
M  V30 5428 C 529.32 -0.661256 1.77268 0
M  V30 5429 O 528.663 -1.46379 1.10991 0
M  V30 5430 C 528.725 1.09313 3.42478 0
M  V30 5431 C 528.389 2.53863 3.80004 0
M  V30 5432 C 529.386 3.52081 3.82538 0
M  V30 5433 C 527.071 2.88969 4.10855 0
M  V30 5434 C 529.065 4.83449 4.15399 0
M  V30 5435 C 526.752 4.2054 4.43384 0
M  V30 5436 C 527.75 5.17589 4.45635 0
M  V30 5437 O 527.438 6.46799 4.77395 0
M  V30 5438 H 527.17 0.285463 0.61277 0
M  V30 5439 H 529.724 1.41051 1.49311 0
M  V30 5440 H 527.954 0.412833 3.8449 0
M  V30 5441 H 529.643 0.810224 3.97731 0
M  V30 5442 H 530.409 3.26299 3.58823 0
M  V30 5443 H 526.288 2.1409 4.08272 0
M  V30 5444 H 529.832 5.59194 4.1707 0
M  V30 5445 H 525.729 4.46083 4.66563 0
M  V30 5446 H 526.497 6.51677 4.95237 0
M  V30 5447 N 529.16 -1.33526 0.837174 0
M  V30 5448 C 530.408 -1.97446 0.431211 0
M  V30 5449 C 530.729 -1.6665 -1.01255 0
M  V30 5450 O 529.999 -0.964559 -1.70508 0
M  V30 5451 H 528.579 -0.73043 0.156463 0
M  V30 5452 H 531.241 -1.62918 1.06976 0
M  V30 5453 H 530.337 -3.07001 0.561877 0
M  V30 5454 N 530.638 -0.59345 -1.46 0
M  V30 5455 C 531.588 0.154751 -2.27474 0
M  V30 5456 C 532.572 0.851849 -1.365 0
M  V30 5457 O 533.764 0.744171 -1.60596 0
M  V30 5458 C 530.893 1.16079 -3.2308 0
M  V30 5459 C 529.979 0.465256 -4.2154 0
M  V30 5460 N 530.37 -0.485197 -5.03467 0
M  V30 5461 C 528.668 0.714634 -4.40237 0
M  V30 5462 C 529.369 -0.892709 -5.74809 0
M  V30 5463 N 528.345 -0.239511 -5.43072 0
M  V30 5464 H 532.147 -0.57546 -2.88211 0
M  V30 5465 H 529.661 -0.416046 -1.5698 0
M  V30 5466 H 531.658 1.71108 -3.80168 0
M  V30 5467 H 530.318 1.89171 -2.63903 0
M  V30 5468 H 531.329 -0.861258 -5.10689 0
M  V30 5469 H 528.006 1.43131 -3.92199 0
M  V30 5470 H 529.396 -1.67581 -6.50666 0
M  V30 5471 N 532.116 1.54067 -0.331816 0
M  V30 5472 C 533.363 2.00715 0.268269 0
M  V30 5473 C 533.691 1.21986 1.51491 0
M  V30 5474 O 532.946 0.292309 1.93505 0
M  V30 5475 C 533.245 3.51634 0.639392 0
M  V30 5476 C 532.911 4.48018 -0.509019 0
M  V30 5477 C 531.573 4.74089 -0.824209 0
M  V30 5478 C 533.925 5.05237 -1.28003 0
M  V30 5479 C 531.253 5.54637 -1.91298 0
M  V30 5480 C 533.605 5.86972 -2.35895 0
M  V30 5481 C 532.269 6.11342 -2.67987 0
M  V30 5482 H 531.539 0.734469 0.0981667 0
M  V30 5483 H 534.186 1.8596 -0.457304 0
M  V30 5484 H 532.491 3.6416 1.44551 0
M  V30 5485 H 534.188 3.85175 1.11539 0
M  V30 5486 H 530.778 4.27851 -0.253287 0
M  V30 5487 H 534.962 4.8507 -1.04978 0
M  V30 5488 H 530.218 5.71747 -2.16599 0
M  V30 5489 H 534.392 6.30327 -2.96076 0
M  V30 5490 H 532.019 6.73544 -3.5248 0
M  V30 5491 N 533.594 0.0601682 1.57485 0
M  V30 5492 C 534.842 -0.610386 1.92662 0
M  V30 5493 C 535.163 -1.70849 0.939981 0
M  V30 5494 O 534.433 -1.95895 -0.0137455 0
M  V30 5495 H 533.013 -0.228457 0.711208 0
M  V30 5496 H 535.675 0.115288 1.94559 0
M  V30 5497 H 534.771 -1.0432 2.94149 0
M  V30 5498 N 535.072 -1.5615 -0.213296 0
M  V30 5499 C 536.488 -1.49327 -0.56336 0
M  V30 5500 C 536.688 -0.756826 -1.86747 0
M  V30 5501 O 535.744 -0.299866 -2.50713 0
M  V30 5502 C 537.057 -2.9392 -0.634944 0
M  V30 5503 C 538.605 -3.04487 -0.725013 0
M  V30 5504 C 539.08 -4.50456 -0.82787 0
M  V30 5505 N 540.571 -4.54533 -0.891876 0
M  V30 5506 C 541.306 -5.64766 -0.991315 0
M  V30 5507 N 540.802 -6.84733 -1.05419 0
M  V30 5508 N 542.595 -5.52637 -1.02709 0
M  V30 5509 H 534.746 -2.02453 0.642366 0
M  V30 5510 H 537.009 -0.920548 0.226487 0
M  V30 5511 H 536.715 -3.50783 0.253859 0
M  V30 5512 H 536.589 -3.46274 -1.49579 0
M  V30 5513 H 538.976 -2.47685 -1.60425 0
M  V30 5514 H 539.057 -2.55289 0.161669 0
M  V30 5515 H 538.701 -5.07878 0.0469464 0
M  V30 5516 H 538.631 -4.97369 -1.73009 0
M  V30 5517 H 541.122 -3.68141 -0.85327 0
M  V30 5518 H 541.435 -7.64493 -1.13007 0
M  V30 5519 H 539.78 -6.87427 -1.02318 0
M  V30 5520 H 542.971 -4.5784 -0.974687 0
M  V30 5521 H 543.144 -6.38576 -1.10113 0
M  V30 5522 N 536.55 0.480323 -1.50102 0
M  V30 5523 C 537.46 1.60547 -1.71061 0
M  V30 5524 C 538.476 1.63564 -0.593529 0
M  V30 5525 O 539.652 1.81604 -0.870751 0
M  V30 5526 C 536.717 2.96814 -1.79171 0
M  V30 5527 C 535.778 3.04259 -3.02861 0
M  V30 5528 C 535.011 4.34027 -3.10574 0
M  V30 5529 O 535.234 5.24009 -2.25323 0
M  V30 5530 O 534.168 4.46873 -4.03223 0
M  V30 5531 H 537.994 1.45788 -2.6642 0
M  V30 5532 H 535.579 0.658838 -1.34088 0
M  V30 5533 H 537.461 3.77765 -1.86738 0
M  V30 5534 H 536.136 3.11791 -0.869947 0
M  V30 5535 H 535.043 2.22419 -3.008 0
M  V30 5536 H 536.376 2.94216 -3.94586 0
M  V30 5537 N 538.028 1.39524 0.732853 0
M  V30 5538 C 538.978 1.34905 1.83806 0
M  V30 5539 C 539.962 0.229546 1.59254 0
M  V30 5540 O 541.154 0.467255 1.70721 0
M  V30 5541 C 538.283 1.19699 3.21756 0
M  V30 5542 C 537.369 2.36359 3.5213 0
M  V30 5543 N 537.76 3.61834 3.53426 0
M  V30 5544 C 536.058 2.29363 3.82503 0
M  V30 5545 C 536.759 4.38992 3.81655 0
M  V30 5546 N 535.735 3.68606 3.99538 0
M  V30 5547 H 539.537 2.29882 1.83116 0
M  V30 5548 H 537.051 1.33051 0.931194 0
M  V30 5549 H 539.048 1.14472 4.00876 0
M  V30 5550 H 537.708 0.256739 3.23683 0
M  V30 5551 H 538.719 3.95228 3.34686 0
M  V30 5552 H 535.396 1.43612 3.92023 0
M  V30 5553 H 536.786 5.47763 3.89108 0
M  V30 5554 N 539.506 -0.963266 1.24736 0
M  V30 5555 C 540.753 -1.7068 1.0897 0
M  V30 5556 C 541.081 -1.90934 -0.370751 0
M  V30 5557 O 540.336 -1.47155 -1.29011 0
M  V30 5558 C 540.635 -3.09944 1.7796 0
M  V30 5559 C 540.301 -3.09518 3.27887 0
M  V30 5560 C 538.963 -3.09109 3.68789 0
M  V30 5561 C 541.315 -3.03509 4.23712 0
M  V30 5562 C 538.643 -3.00429 5.03944 0
M  V30 5563 C 540.995 -2.96371 5.5888 0
M  V30 5564 C 539.659 -2.94293 5.99123 0
M  V30 5565 H 538.929 -0.624564 0.398749 0
M  V30 5566 H 541.576 -1.12603 1.54896 0
M  V30 5567 H 539.881 -3.71513 1.2444 0
M  V30 5568 H 541.578 -3.66278 1.63222 0
M  V30 5569 H 538.168 -3.10603 2.95337 0
M  V30 5570 H 542.352 -3.0295 3.93109 0
M  V30 5571 H 537.608 -2.97183 5.34314 0
M  V30 5572 H 541.782 -2.90681 6.32833 0
M  V30 5573 H 539.409 -2.87322 7.03811 0
M  V30 5574 N 540.985 -1.06182 -1.16461 0
M  V30 5575 C 542.396 -0.802426 -1.68576 0
M  V30 5576 C 542.747 0.67412 -1.84255 0
M  V30 5577 O 541.872 1.52303 -1.5373 0
M  V30 5578 C 542.467 -1.45002 -3.06202 0
M  V30 5579 C 541.026 -1.23843 -3.55443 0
M  V30 5580 C 540.173 -1.52724 -2.31454 0
M  V30 5581 H 543.124 -1.22545 -1.00839 0
M  V30 5582 H 543.145 -0.864731 -3.70544 0
M  V30 5583 H 542.657 -2.52466 -2.94759 0
M  V30 5584 H 540.758 -0.183487 -3.72148 0
M  V30 5585 H 540.871 -1.95036 -4.37604 0
M  V30 5586 H 539.235 -0.947726 -2.36411 0
M  V30 5587 H 540.018 -2.61343 -2.22609 0
M  V30 5588 N 542.463 1.3308 -0.844243 0
M  V30 5589 C 543.709 1.98304 -0.452453 0
M  V30 5590 C 544.064 1.65645 0.978746 0
M  V30 5591 O 543.357 0.928849 1.6758 0
M  V30 5592 C 543.551 3.52045 -0.616354 0
M  V30 5593 C 543.38 3.99643 -2.06193 0
M  V30 5594 C 542.15 4.27224 -2.69829 0
M  V30 5595 C 544.348 4.15471 -3.03131 0
M  V30 5596 N 542.33 4.60998 -4.05406 0
M  V30 5597 C 543.701 4.52665 -4.23668 0
M  V30 5598 C 545.756 3.97776 -2.99465 0
M  V30 5599 C 544.459 4.74011 -5.41023 0
M  V30 5600 C 546.485 4.20301 -4.16055 0
M  V30 5601 C 545.847 4.57801 -5.35348 0
M  V30 5602 H 541.946 0.752122 -0.214096 0
M  V30 5603 H 544.53 1.61096 -1.09344 0
M  V30 5604 H 542.701 3.884 -0.00513205 0
M  V30 5605 H 544.433 4.04228 -0.19548 0
M  V30 5606 H 541.188 4.18911 -2.20931 0
M  V30 5607 H 541.612 4.82087 -4.75312 0
M  V30 5608 H 546.254 3.67893 -2.08362 0
M  V30 5609 H 543.972 5.02753 -6.32665 0
M  V30 5610 H 547.558 4.08122 -4.14641 0
M  V30 5611 H 546.438 4.74884 -6.24063 0
M  V30 5612 N 543.941 0.601185 1.45683 0
M  V30 5613 C 544.851 -0.123395 2.34275 0
M  V30 5614 C 545.867 -0.86702 1.5086 0
M  V30 5615 O 547.043 -0.826049 1.8368 0
M  V30 5616 C 544.108 -1.11237 3.2837 0
M  V30 5617 C 543.169 -0.371405 4.2769 0
M  V30 5618 C 542.402 -1.31327 5.1729 0
M  V30 5619 O 542.625 -2.55078 5.10188 0
M  V30 5620 O 541.559 -0.813811 5.96373 0
M  V30 5621 H 545.385 0.604483 2.97623 0
M  V30 5622 H 542.97 0.361477 1.44961 0
M  V30 5623 H 544.852 -1.68214 3.8637 0
M  V30 5624 H 543.527 -1.82139 2.67595 0
M  V30 5625 H 542.434 0.24067 3.73325 0
M  V30 5626 H 543.767 0.296998 4.91303 0
M  V30 5627 N 545.419 -1.53889 0.339982 0
M  V30 5628 C 546.366 -2.24902 -0.518452 0
M  V30 5629 C 547.336 -1.24593 -1.09844 0
M  V30 5630 O 548.521 -1.53317 -1.13572 0
M  V30 5631 C 545.661 -3.02262 -1.66529 0
M  V30 5632 C 544.774 -4.17418 -1.11295 0
M  V30 5633 C 543.909 -4.82273 -2.2268 0
M  V30 5634 C 542.948 -5.89503 -1.6478 0
M  V30 5635 N 542.085 -6.48153 -2.69893 0
M  V30 5636 H 546.925 -2.97853 0.0936579 0
M  V30 5637 H 544.462 -1.46986 0.0579924 0
M  V30 5638 H 546.42 -3.45371 -2.3404 0
M  V30 5639 H 545.05 -2.31614 -2.24844 0
M  V30 5640 H 544.102 -3.78976 -0.328886 0
M  V30 5641 H 545.414 -4.94554 -0.649414 0
M  V30 5642 H 544.568 -5.28435 -2.98063 0
M  V30 5643 H 543.307 -4.04552 -2.72376 0
M  V30 5644 H 542.312 -5.42728 -0.879004 0
M  V30 5645 H 543.537 -6.6913 -1.1594 0
M  V30 5646 H 541.483 -5.73298 -3.1885 0
M  V30 5647 H 541.4 -7.20752 -2.28151 0
M  V30 5648 H 542.668 -6.98968 -3.45056 0
M  V30 5649 N 546.897 -0.0685191 -1.57451 0
M  V30 5650 C 548.125 0.610462 -1.97689 0
M  V30 5651 C 548.54 1.63346 -0.946758 0
M  V30 5652 O 547.897 1.82377 0.0669868 0
M  V30 5653 C 547.948 1.28196 -3.38006 0
M  V30 5654 O 547.669 0.299906 -4.37072 0
M  V30 5655 C 549.17 2.04907 -3.931 0
M  V30 5656 H 546.39 0.165689 -0.650222 0
M  V30 5657 H 548.934 -0.139953 -2.04021 0
M  V30 5658 H 547.089 1.98348 -3.32771 0
M  V30 5659 H 547.503 0.78126 -5.18649 0
M  V30 5660 H 548.977 2.47287 -4.93511 0
M  V30 5661 H 549.454 2.9043 -3.29465 0
M  V30 5662 H 550.06 1.39629 -4.01726 0
M  V30 5663 N 548.375 1.56261 0.205012 0
M  V30 5664 C 549.652 1.70856 0.952233 0
M  V30 5665 C 550.032 0.620501 2.01775 0
M  V30 5666 O 549.38 -0.370035 2.25484 0
M  V30 5667 C 549.59 3.12807 1.54767 0
M  V30 5668 C 550.938 3.72733 2.0336 0
M  V30 5669 O 551.962 3.15873 1.64629 0
M  V30 5670 O 550.821 4.72501 2.746 0
M  V30 5671 H 547.915 0.696496 0.445895 0
M  V30 5672 H 550.461 1.6857 0.195489 0
M  V30 5673 H 549.233 3.83465 0.779132 0
M  V30 5674 H 548.856 3.1928 2.36951 0
M  V30 5675 N 549.853 -0.472356 1.50355 0
M  V30 5676 C 550.8 -1.57051 1.69126 0
M  V30 5677 C 551.77 -1.5733 0.532574 0
M  V30 5678 O 552.955 -1.7488 0.762994 0
M  V30 5679 C 550.095 -2.95033 1.79024 0
M  V30 5680 C 549.208 -3.04552 3.06386 0
M  V30 5681 C 548.343 -4.33441 3.07087 0
M  V30 5682 C 547.382 -4.36697 4.28908 0
M  V30 5683 N 546.519 -5.57056 4.27356 0
M  V30 5684 H 551.359 -1.40351 2.62879 0
M  V30 5685 H 548.896 -0.682403 1.30314 0
M  V30 5686 H 550.854 -3.75048 1.82744 0
M  V30 5687 H 549.484 -3.10371 0.887109 0
M  V30 5688 H 548.536 -2.17419 3.12143 0
M  V30 5689 H 549.848 -3.02818 3.96362 0
M  V30 5690 H 549.002 -5.21801 3.09529 0
M  V30 5691 H 547.741 -4.37782 2.14939 0
M  V30 5692 H 546.746 -3.46734 4.2668 0
M  V30 5693 H 547.971 -4.34049 5.22282 0
M  V30 5694 H 545.917 -5.62184 3.3806 0
M  V30 5695 H 545.834 -5.57058 5.111 0
M  V30 5696 H 547.102 -6.47545 4.33942 0
M  V30 5697 N 551.331 -1.39911 -0.725443 0
M  V30 5698 C 552.294 -1.39156 -1.82121 0
M  V30 5699 C 553.294 -0.287018 -1.58218 0
M  V30 5700 O 554.484 -0.545421 -1.65441 0
M  V30 5701 C 551.616 -1.1736 -3.20062 0
M  V30 5702 H 552.809 -2.36672 -1.84191 0
M  V30 5703 H 550.362 -1.25615 -0.930079 0
M  V30 5704 H 551.097 -0.205648 -3.23647 0
M  V30 5705 H 550.882 -1.97358 -3.3881 0
M  V30 5706 H 552.372 -1.19596 -4.00108 0
M  V30 5707 N 552.809 0.956637 -1.25245 0
M  V30 5708 C 553.741 2.05628 -1.01242 0
M  V30 5709 C 554.754 1.62785 0.0219579 0
M  V30 5710 O 555.943 1.77184 -0.216365 0
M  V30 5711 C 553.043 3.35069 -0.508161 0
M  V30 5712 C 552.216 4.06761 -1.60823 0
M  V30 5713 C 551.275 5.14473 -1.1047 0
M  V30 5714 O 550.301 5.40033 -1.79868 0
M  V30 5715 N 551.503 5.80474 0.0550773 0
M  V30 5716 H 554.268 2.2679 -1.95925 0
M  V30 5717 H 551.829 1.12505 -1.16423 0
M  V30 5718 H 553.821 4.044 -0.155819 0
M  V30 5719 H 552.391 3.10694 0.344683 0
M  V30 5720 H 551.611 3.31555 -2.13224 0
M  V30 5721 H 552.899 4.51418 -2.34733 0
M  V30 5722 H 552.297 5.62125 0.635004 0
M  V30 5723 H 550.854 6.50868 0.348469 0
M  V30 5724 N 554.287 1.06798 1.15896 0
M  V30 5725 C 555.217 0.704677 2.22613 0
M  V30 5726 C 556.198 -0.305252 1.67339 0
M  V30 5727 O 557.383 -0.179247 1.93371 0
M  V30 5728 C 554.513 0.0957325 3.47168 0
M  V30 5729 C 553.467 1.0322 4.15367 0
M  V30 5730 C 552.793 0.286293 5.33933 0
M  V30 5731 C 554.093 2.36341 4.65768 0
M  V30 5732 H 555.787 1.59688 2.53259 0
M  V30 5733 H 553.333 0.769257 1.21731 0
M  V30 5734 H 555.286 -0.170333 4.21056 0
M  V30 5735 H 554.01 -0.831516 3.15838 0
M  V30 5736 H 552.669 1.28309 3.43413 0
M  V30 5737 H 552.317 -0.644237 4.98857 0
M  V30 5738 H 552.017 0.910436 5.80504 0
M  V30 5739 H 553.541 0.0278938 6.10594 0
M  V30 5740 H 554.955 2.1561 5.31211 0
M  V30 5741 H 553.352 2.94299 5.2298 0
M  V30 5742 H 554.422 2.99047 3.81705 0
M  V30 5743 N 555.766 -1.3263 0.851289 0
M  V30 5744 C 556.696 -2.31449 0.308771 0
M  V30 5745 C 557.677 -1.59531 -0.590255 0
M  V30 5746 O 558.862 -1.87351 -0.511205 0
M  V30 5747 C 555.992 -3.43586 -0.506548 0
M  V30 5748 C 554.946 -4.26963 0.297753 0
M  V30 5749 C 554.272 -5.30831 -0.642094 0
M  V30 5750 C 555.572 -4.99643 1.52166 0
M  V30 5751 H 557.266 -2.77074 1.13447 0
M  V30 5752 H 554.812 -1.33207 0.546971 0
M  V30 5753 H 556.765 -4.11754 -0.896474 0
M  V30 5754 H 555.489 -2.96681 -1.36558 0
M  V30 5755 H 554.148 -3.60437 0.669391 0
M  V30 5756 H 553.796 -4.8018 -1.49788 0
M  V30 5757 H 553.496 -5.87501 -0.107968 0
M  V30 5758 H 555.02 -6.01862 -1.02927 0
M  V30 5759 H 556.434 -5.6051 1.20421 0
M  V30 5760 H 554.831 -5.66022 1.99347 0
M  V30 5761 H 555.901 -4.27701 2.28474 0
M  V30 5762 N 557.244 -0.608902 -1.45362 0
M  V30 5763 C 558.66 -0.272659 -1.57254 0
M  V30 5764 C 558.86 1.22477 -1.60005 0
M  V30 5765 O 557.916 2.00785 -1.53106 0
M  V30 5766 C 559.229 -0.944991 -2.85465 0
M  V30 5767 C 560.777 -0.921033 -2.99142 0
M  V30 5768 C 561.252 -1.5734 -4.30126 0
M  V30 5769 N 562.743 -1.53895 -4.36887 0
M  V30 5770 C 563.478 -2.01286 -5.36909 0
M  V30 5771 N 562.974 -2.56768 -6.43461 0
M  V30 5772 N 564.767 -1.92046 -5.28275 0
M  V30 5773 H 556.918 -1.58117 -1.4182 0
M  V30 5774 H 559.181 -0.662437 -0.678146 0
M  V30 5775 H 558.887 -1.99941 -2.89338 0
M  V30 5776 H 558.761 -0.469079 -3.74272 0
M  V30 5777 H 561.148 0.124846 -2.94836 0
M  V30 5778 H 561.229 -1.43522 -2.11743 0
M  V30 5779 H 560.873 -2.61862 -4.35191 0
M  V30 5780 H 560.803 -1.03422 -5.16344 0
M  V30 5781 H 563.294 -1.13366 -3.60495 0
M  V30 5782 H 563.607 -2.9072 -7.16032 0
M  V30 5783 H 561.952 -2.60808 -6.44208 0
M  V30 5784 H 565.143 -1.48439 -4.43941 0
M  V30 5785 H 565.316 -2.29293 -6.06077 0
M  V30 5786 N 558.722 1.53707 -0.348139 0
M  V30 5787 C 559.999 1.93247 0.302475 0
M  V30 5788 C 560.379 1.28012 1.67857 0
M  V30 5789 O 559.727 0.43274 2.24365 0
M  V30 5790 C 559.937 3.47031 0.370159 0
M  V30 5791 C 561.285 4.20066 0.61882 0
M  V30 5792 O 562.309 3.53319 0.452087 0
M  V30 5793 O 561.168 5.38318 0.94215 0
M  V30 5794 H 558.262 0.807736 0.177458 0
M  V30 5795 H 560.808 1.64927 -0.399651 0
M  V30 5796 H 559.58 3.86745 -0.59534 0
M  V30 5797 H 559.203 3.81532 1.11888 0
M  V30 5798 N 560.2 0.0768682 1.57412 0
M  V30 5799 C 561.163 -0.873949 2.11884 0
M  V30 5800 C 562.163 -1.22301 1.04398 0
M  V30 5801 O 563.353 -1.15545 1.30365 0
M  V30 5802 C 560.485 -2.17575 2.62438 0
M  V30 5803 H 561.678 -0.401278 2.97203 0
M  V30 5804 H 559.231 -0.171904 1.55352 0
M  V30 5805 H 559.966 -2.69368 1.80587 0
M  V30 5806 H 559.751 -1.93534 3.41009 0
M  V30 5807 H 561.241 -2.85631 3.04639 0
M  V30 5808 N 561.678 -1.56367 -0.196722 0
M  V30 5809 C 562.641 -1.93561 -1.22746 0
M  V30 5810 C 563.641 -0.816566 -1.38524 0
M  V30 5811 O 564.831 -1.084 -1.36363 0
M  V30 5812 C 561.963 -2.20823 -2.59712 0
M  V30 5813 H 563.156 -2.85774 -0.909586 0
M  V30 5814 H 560.709 -1.50032 -0.438174 0
M  V30 5815 H 561.444 -1.31243 -2.96557 0
M  V30 5816 H 561.229 -3.02368 -2.49632 0
M  V30 5817 H 562.719 -2.50608 -3.34044 0
M  V30 5818 N 563.156 0.464375 -1.50603 0
M  V30 5819 C 564.404 1.21356 -1.61608 0
M  V30 5820 C 564.725 1.92329 -0.321643 0
M  V30 5821 O 563.995 1.84403 0.661232 0
M  V30 5822 H 562.575 0.45094 -0.595535 0
M  V30 5823 H 565.237 0.535046 -1.87412 0
M  V30 5824 H 564.333 1.95783 -2.43054 0
M  V30 5825 N 564.634 1.40294 0.718013 0
M  V30 5826 C 565.564 1.43118 1.84498 0
M  V30 5827 C 566.545 0.292403 1.67568 0
M  V30 5828 O 567.73 0.500675 1.87635 0
M  V30 5829 C 564.86 1.29065 3.22427 0
M  V30 5830 C 563.814 2.40521 3.54025 0
M  V30 5831 C 563.14 2.11546 4.91073 0
M  V30 5832 C 564.44 3.82859 3.55269 0
M  V30 5833 H 566.134 2.37432 1.82391 0
M  V30 5834 H 563.68 1.14283 0.87609 0
M  V30 5835 H 565.633 1.29658 4.00957 0
M  V30 5836 H 564.357 0.312271 3.25104 0
M  V30 5837 H 563.016 2.39173 2.77834 0
M  V30 5838 H 562.664 1.12104 4.90348 0
M  V30 5839 H 562.364 2.86216 5.1318 0
M  V30 5840 H 563.888 2.13817 5.71939 0
M  V30 5841 H 565.302 3.86044 4.23843 0
M  V30 5842 H 563.699 4.57029 3.88902 0
M  V30 5843 H 564.769 4.12617 2.54706 0
M  V30 5844 N 566.112 -0.949982 1.2575 0
M  V30 5845 C 567.059 -2.04738 1.06541 0
M  V30 5846 C 568.029 -1.66078 -0.0268818 0
M  V30 5847 O 569.214 -1.90348 0.131196 0
M  V30 5848 C 566.354 -3.38027 0.695127 0
M  V30 5849 C 565.467 -3.89776 1.86276 0
M  V30 5850 C 564.602 -5.11411 1.4364 0
M  V30 5851 C 563.641 -5.554 2.57287 0
M  V30 5852 N 562.778 -6.68244 2.15395 0
M  V30 5853 H 567.618 -2.20502 2.00457 0
M  V30 5854 H 565.155 -1.0805 0.998178 0
M  V30 5855 H 567.113 -4.14641 0.461375 0
M  V30 5856 H 565.743 -3.22135 -0.207046 0
M  V30 5857 H 564.795 -3.0964 2.20969 0
M  V30 5858 H 566.107 -4.18368 2.71606 0
M  V30 5859 H 565.261 -5.95457 1.16257 0
M  V30 5860 H 564 -4.84545 0.553879 0
M  V30 5861 H 563.005 -4.69916 2.85409 0
M  V30 5862 H 564.23 -5.84272 3.46125 0
M  V30 5863 H 562.176 -6.43078 1.29565 0
M  V30 5864 H 562.093 -6.96377 2.94272 0
M  V30 5865 H 563.361 -7.55687 1.91201 0
M  V30 5866 O 567.629 -1.19786 -1.08322 0
M  V30 5867 H 568.32 -0.948322 -1.68898 0
M  V30 END ATOM
M  V30 BEGIN BOND
M  V30 END BOND
M  V30 END CTAB
M  END
$$$$
