drugbank_target|Q07954 Prolow-density lipoprotein receptor-related protein 1 (DB00025; DB00031; DB00100; DB06245; DB13152; DB13998; DB13999)
 OpenBabel12092120053D

  0  0  0     0  0            999 V3000
M  V30 BEGIN CTAB
M  V30 COUNTS 68358 69155 0 0 0
M  V30 BEGIN ATOM
M  V30 1 H -0.908 1.98254 -0.117106 0
M  V30 2 N 0 1.576 0 0
M  V30 3 C 0.933 2.03868 1.02534 0
M  V30 4 C 1.911 0.928543 1.3348 0
M  V30 5 O 3.095 1.19667 1.45644 0
M  V30 6 C 0.222 2.43627 2.35294 0
M  V30 7 C -0.732 3.65373 2.2001 0
M  V30 8 S 0.101 5.13292 1.52614 0
M  V30 9 C 1.257 5.56322 2.86805 0
M  V30 10 H 1.49 2.90518 0.631377 0
M  V30 11 H -0.977 1.52953 0.210867 0
M  V30 12 H 0.981 2.67203 3.11629 0
M  V30 13 H -0.358 1.57376 2.7183 0
M  V30 14 H -1.165 3.90944 3.18086 0
M  V30 15 H -1.563 3.418 1.51819 0
M  V30 16 H 0.729 5.58782 3.83104 0
M  V30 17 H 1.672 6.56266 2.65933 0
M  V30 18 H 2.08 4.83886 2.90714 0
M  V30 19 N 1.4781 -0.272755 1.55222 0
M  V30 20 C 2.4081 -1.34136 1.91127 0
M  V30 21 C 3.3891 -1.51513 0.773168 0
M  V30 22 O 4.5741 -1.64552 1.03132 0
M  V30 23 C 1.7041 -2.70083 2.1834 0
M  V30 24 C 0.6581 -2.67437 3.34158 0
M  V30 25 C -0.0159 -4.06938 3.46851 0
M  V30 26 C 1.2841 -2.26686 4.70543 0
M  V30 27 H 2.9781 -1.04333 2.80633 0
M  V30 28 H 0.5241 -0.500454 1.35024 0
M  V30 29 H 2.4771 -3.44952 2.42046 0
M  V30 30 H 1.2011 -3.01469 1.25634 0
M  V30 31 H -0.1399 -1.95026 3.1042 0
M  V30 32 H -0.4919 -4.35547 2.51611 0
M  V30 33 H -0.7919 -4.06062 4.2472 0
M  V30 34 H 0.7321 -4.83545 3.72849 0
M  V30 35 H 2.1461 -2.91277 4.93792 0
M  V30 36 H 0.5431 -2.36971 5.5133 0
M  V30 37 H 1.6131 -1.21818 4.69349 0
M  V30 38 N 2.9562 -1.48159 -0.537278 0
M  V30 39 C 4.1842 -1.59454 -1.31841 0
M  V30 40 C 4.5992 -0.252065 -1.8711 0
M  V30 41 O 3.9562 0.757621 -1.66031 0
M  V30 42 C 4.0072 -2.63546 -2.47439 0
M  V30 43 O 3.7282 -3.92583 -1.94449 0
M  V30 44 C 5.2292 -2.85212 -3.39366 0
M  V30 45 H 2.4492 -0.53785 -0.401196 0
M  V30 46 H 4.9932 -1.93932 -0.648891 0
M  V30 47 H 3.1482 -2.31946 -3.1029 0
M  V30 48 H 3.5622 -4.49629 -2.70063 0
M  V30 49 H 5.0362 -3.61863 -4.16844 0
M  V30 50 H 5.5132 -1.93765 -3.94147 0
M  V30 51 H 6.1192 -3.18086 -2.82314 0
M  V30 52 N 4.4343 0.785586 -1.36625 0
M  V30 53 C 5.8453 1.36101 -1.27803 0
M  V30 54 C 6.1963 1.96035 0.0804875 0
M  V30 55 O 5.3213 1.92834 0.982042 0
M  V30 56 C 5.9163 2.47442 -2.31426 0
M  V30 57 C 4.4753 3.00789 -2.26281 0
M  V30 58 C 3.6223 1.73896 -2.15999 0
M  V30 59 H 6.5733 0.586928 -1.47448 0
M  V30 60 H 6.5943 3.2656 -1.95291 0
M  V30 61 H 6.1063 2.03791 -3.30289 0
M  V30 62 H 4.2073 3.48851 -1.30896 0
M  V30 63 H 4.3203 3.57343 -3.19128 0
M  V30 64 H 2.6843 1.9628 -1.62316 0
M  V30 65 H 3.4673 1.32368 -3.16755 0
M  V30 66 N 5.9124 1.20967 1.01018 0
M  V30 67 C 7.3234 1.02319 1.56165 0
M  V30 68 C 7.6744 -0.418546 1.91684 0
M  V30 69 O 6.7994 -1.30096 1.72928 0
M  V30 70 C 7.3944 1.85109 2.8376 0
M  V30 71 C 5.9534 1.70809 3.35412 0
M  V30 72 C 5.1004 1.82643 2.08655 0
M  V30 73 H 8.0514 1.35065 0.833255 0
M  V30 74 H 8.0724 1.35827 3.55431 0
M  V30 75 H 7.5844 2.90035 2.57878 0
M  V30 76 H 5.6854 0.685464 3.66241 0
M  V30 77 H 5.7984 2.52467 4.07182 0
M  V30 78 H 4.1624 1.25896 2.21409 0
M  V30 79 H 4.9454 2.89066 1.85191 0
M  V30 80 N 7.3905 -1.2043 1.01659 0
M  V30 81 C 8.3205 -2.25466 0.607226 0
M  V30 82 C 9.3015 -1.65853 -0.377716 0
M  V30 83 O 10.4865 -1.92409 -0.263149 0
M  V30 84 C 7.6165 -3.47256 -0.0552949 0
M  V30 85 C 6.5705 -4.19462 0.850632 0
M  V30 86 C 5.8965 -5.34673 0.0538859 0
M  V30 87 C 7.1965 -4.75603 2.15868 0
M  V30 88 H 8.8905 -2.59962 1.48526 0
M  V30 89 H 6.4365 -1.2496 0.715605 0
M  V30 90 H 8.3895 -4.19917 -0.353233 0
M  V30 91 H 7.1135 -3.11924 -0.968045 0
M  V30 92 H 5.7725 -3.48667 1.13257 0
M  V30 93 H 5.4205 -4.95585 -0.860514 0
M  V30 94 H 5.1205 -5.83913 0.657192 0
M  V30 95 H 6.6445 -6.10138 -0.237598 0
M  V30 96 H 8.0585 -5.40083 1.92311 0
M  V30 97 H 6.4555 -5.3528 2.71284 0
M  V30 98 H 7.5255 -3.94346 2.82169 0
M  V30 99 N 8.8686 -0.792821 -1.36206 0
M  V30 100 C 9.7986 -0.207853 -2.32573 0
M  V30 101 C 10.7796 0.659055 -1.56813 0
M  V30 102 O 11.9646 0.592176 -1.84951 0
M  V30 103 C 9.0946 0.655449 -3.41059 0
M  V30 104 C 8.0486 -0.111842 -4.27854 0
M  V30 105 C 7.3746 0.872274 -5.27537 0
M  V30 106 C 8.6746 -1.30299 -5.05786 0
M  V30 107 H 10.3686 -1.01294 -2.81744 0
M  V30 108 H 7.9146 -0.48854 -1.3546 0
M  V30 109 H 9.8676 1.07464 -4.07467 0
M  V30 110 H 8.5916 1.49328 -2.90463 0
M  V30 111 H 7.2506 -0.512053 -3.63006 0
M  V30 112 H 6.8986 1.70523 -4.73214 0
M  V30 113 H 6.5986 0.363291 -5.86476 0
M  V30 114 H 8.1226 1.28996 -5.96818 0
M  V30 115 H 9.5366 -0.959379 -5.65216 0
M  V30 116 H 7.9336 -1.7455 -5.74154 0
M  V30 117 H 9.0036 -2.09663 -4.37229 0
M  V30 118 N 10.3467 1.47872 -0.545128 0
M  V30 119 C 11.2767 2.32661 0.197793 0
M  V30 120 C 12.2577 1.43041 0.920504 0
M  V30 121 O 13.4427 1.71912 0.90333 0
M  V30 122 C 10.5727 3.24569 1.23582 0
M  V30 123 C 9.5267 4.23333 0.630323 0
M  V30 124 C 8.8527 5.0448 1.77211 0
M  V30 125 C 10.1527 5.20704 -0.407974 0
M  V30 126 H 11.8467 2.95024 -0.510045 0
M  V30 127 H 9.3927 1.4187 -0.246731 0
M  V30 128 H 11.3457 3.8272 1.76362 0
M  V30 129 H 10.0697 2.60236 1.97344 0
M  V30 130 H 8.7287 3.6639 0.123922 0
M  V30 131 H 8.3767 4.36561 2.49847 0
M  V30 132 H 8.0767 5.71339 1.37281 0
M  V30 133 H 9.6007 5.65487 2.3034 0
M  V30 134 H 11.0147 5.7329 0.033305 0
M  V30 135 H 9.4117 5.95699 -0.725486 0
M  V30 136 H 10.4817 4.66917 -1.30828 0
M  V30 137 N 11.8248 0.280983 1.55075 0
M  V30 138 C 12.7548 -0.597469 2.25727 0
M  V30 139 C 13.7358 -1.15417 1.24952 0
M  V30 140 O 14.9208 -1.18722 1.53684 0
M  V30 141 C 12.0508 -1.7789 2.98283 0
M  V30 142 C 11.0048 -1.35347 4.06036 0
M  V30 143 C 10.3308 -2.61846 4.66198 0
M  V30 144 C 11.6308 -0.499354 5.19907 0
M  V30 145 H 13.3248 -0.00824265 2.99399 0
M  V30 146 H 10.8708 -0.0025244 1.44 0
M  V30 147 H 12.8238 -2.39937 3.46422 0
M  V30 148 H 11.5478 -2.39405 2.22155 0
M  V30 149 H 10.2068 -0.756156 3.58717 0
M  V30 150 H 9.8548 -3.21632 3.86732 0
M  V30 151 H 9.5548 -2.3409 5.38958 0
M  V30 152 H 11.0788 -3.24732 5.1709 0
M  V30 153 H 12.4928 -1.02498 5.64063 0
M  V30 154 H 10.8898 -0.316424 5.99265 0
M  V30 155 H 11.9598 0.480459 4.82514 0
M  V30 156 N 13.3029 -1.57598 0.00835791 0
M  V30 157 C 14.2329 -2.1198 -0.979113 0
M  V30 158 C 15.2139 -1.03091 -1.35301 0
M  V30 159 O 16.3989 -1.30818 -1.43528 0
M  V30 160 C 13.5289 -2.62995 -2.26828 0
M  V30 161 C 12.4829 -3.76485 -2.03576 0
M  V30 162 C 11.8089 -4.13846 -3.38579 0
M  V30 163 C 13.1089 -5.0342 -1.39161 0
M  V30 164 H 14.8029 -2.94738 -0.526281 0
M  V30 165 H 12.3489 -1.41783 -0.251704 0
M  V30 166 H 14.3019 -2.99669 -2.96271 0
M  V30 167 H 13.0259 -1.7737 -2.7424 0
M  V30 168 H 11.6849 -3.40217 -1.36557 0
M  V30 169 H 11.3329 -3.25232 -3.83709 0
M  V30 170 H 11.0329 -4.90312 -3.23834 0
M  V30 171 H 12.5569 -4.53086 -4.09323 0
M  V30 172 H 13.9709 -5.37812 -1.98573 0
M  V30 173 H 12.3679 -5.84746 -1.34878 0
M  V30 174 H 13.4379 -4.83548 -0.361868 0
M  V30 175 N 14.781 0.264519 -1.55364 0
M  V30 176 C 16.192 0.834936 -1.6699 0
M  V30 177 C 16.543 1.86718 -0.602552 0
M  V30 178 O 15.668 2.14899 0.254425 0
M  V30 179 C 16.263 1.5212 -3.02729 0
M  V30 180 C 14.822 2.03954 -3.16354 0
M  V30 181 C 13.969 0.884498 -2.62815 0
M  V30 182 H 16.92 0.0406869 -1.58648 0
M  V30 183 H 16.941 2.38853 -2.96191 0
M  V30 184 H 16.453 0.769668 -3.80392 0
M  V30 185 H 14.554 2.82041 -2.43482 0
M  V30 186 H 14.667 2.24902 -4.23032 0
M  V30 187 H 13.031 1.2802 -2.20188 0
M  V30 188 H 13.814 0.14634 -3.42988 0
M  V30 189 N 16.2591 1.48442 0.529413 0
M  V30 190 C 17.1891 1.65902 1.64313 0
M  V30 191 C 18.1701 0.507897 1.6234 0
M  V30 192 O 19.3551 0.740503 1.79528 0
M  V30 193 C 16.4851 1.69911 3.02898 0
M  V30 194 C 15.4391 2.8453 3.19729 0
M  V30 195 C 14.7651 2.73629 4.59381 0
M  V30 196 C 16.0651 4.25821 3.02447 0
M  V30 197 H 17.7591 2.5914 1.49955 0
M  V30 198 H 15.3051 1.24709 0.719982 0
M  V30 199 H 17.2581 1.80715 3.80684 0
M  V30 200 H 15.9821 0.732524 3.18279 0
M  V30 201 H 14.6411 2.73283 2.44361 0
M  V30 202 H 14.2891 1.74938 4.71599 0
M  V30 203 H 13.9891 3.50541 4.71588 0
M  V30 204 H 15.5131 2.86401 5.39265 0
M  V30 205 H 16.9271 4.37898 3.70024 0
M  V30 206 H 15.3241 5.03735 3.26146 0
M  V30 207 H 16.3941 4.42244 1.98867 0
M  V30 208 N 17.7372 -0.778329 1.37039 0
M  V30 209 C 18.6672 -1.90546 1.34962 0
M  V30 210 C 19.6482 -1.68681 0.219274 0
M  V30 211 O 20.8332 -1.89634 0.418624 0
M  V30 212 C 17.9632 -3.27734 1.14925 0
M  V30 213 C 16.9172 -3.64147 2.24902 0
M  V30 214 C 16.2432 -4.99806 1.89996 0
M  V30 215 C 17.5432 -3.71579 3.67051 0
M  V30 216 H 19.2372 -1.92541 2.29277 0
M  V30 217 H 16.7832 -0.924948 1.10366 0
M  V30 218 H 18.7362 -4.06215 1.12104 0
M  V30 219 H 17.4602 -3.26154 0.170631 0
M  V30 220 H 16.1192 -2.8797 2.26868 0
M  V30 221 H 15.7672 -4.94759 0.906796 0
M  V30 222 H 15.4672 -5.25139 2.63634 0
M  V30 223 H 16.9912 -5.80694 1.88749 0
M  V30 224 H 18.4052 -4.40227 3.67251 0
M  V30 225 H 16.8022 -4.08405 4.39688 0
M  V30 226 H 17.8722 -2.72404 4.01154 0
M  V30 227 N 19.2153 -1.21501 -1.00376 0
M  V30 228 C 20.4403 -1.05977 -1.78279 0
M  V30 229 C 20.8653 0.385994 -1.84097 0
M  V30 230 O 20.2233 1.27849 -1.28547 0
M  V30 231 C 20.2713 -1.66302 -3.19963 0
M  V30 232 O 19.3753 -0.909333 -4.0225 0
M  V30 233 H 18.7163 -0.372906 -0.549397 0
M  V30 234 H 21.2463 -1.6107 -1.26165 0
M  V30 235 H 21.2563 -1.70574 -3.70632 0
M  V30 236 H 19.9313 -2.71515 -3.15043 0
M  V30 237 H 18.5083 -0.941795 -3.60811 0
M  V30 238 N 20.6934 1.19889 -1.02296 0
M  V30 239 C 21.6564 2.21116 -0.603351 0
M  V30 240 C 22.6564 1.5738 0.329884 0
M  V30 241 O 23.8464 1.73802 0.117702 0
M  V30 242 C 20.9784 3.40696 0.117992 0
M  V30 243 H 22.1714 2.59754 -1.49893 0
M  V30 244 H 19.7244 1.33463 -0.813468 0
M  V30 245 H 20.4594 3.07569 1.0282 0
M  V30 246 H 20.2444 3.88188 -0.552511 0
M  V30 247 H 21.7344 4.15692 0.398696 0
M  V30 248 N 22.1715 0.800033 1.35784 0
M  V30 249 C 23.1015 0.220184 2.3246 0
M  V30 250 C 24.0825 -0.65073 1.57161 0
M  V30 251 O 25.2675 -0.582359 1.85263 0
M  V30 252 C 22.3975 -0.637353 3.41402 0
M  V30 253 C 21.3515 0.134531 4.27789 0
M  V30 254 C 20.6775 -0.844285 5.27992 0
M  V30 255 C 21.9775 1.32979 5.05088 0
M  V30 256 H 23.6715 1.02787 2.81203 0
M  V30 257 H 21.2175 0.495717 1.35199 0
M  V30 258 H 23.1705 -1.05302 4.08031 0
M  V30 259 H 21.8945 -1.47785 2.91251 0
M  V30 260 H 20.5535 0.531296 3.6273 0
M  V30 261 H 20.2015 -1.68011 4.74111 0
M  V30 262 H 19.9015 -0.332184 5.8666 0
M  V30 263 H 21.4255 -1.2583 5.97494 0
M  V30 264 H 22.8395 0.98934 5.64699 0
M  V30 265 H 21.2365 1.77593 5.7322 0
M  V30 266 H 22.3065 2.11978 4.36111 0
M  V30 267 N 23.6496 -1.47581 0.552962 0
M  V30 268 C 24.8956 -2.02782 0.0273648 0
M  V30 269 C 25.2286 -1.42687 -1.31734 0
M  V30 270 O 24.5036 -0.580897 -1.85623 0
M  V30 271 C 24.7866 -3.60031 -0.0702371 0
M  V30 272 C 24.6396 -4.30566 1.30126 0
M  V30 273 C 25.9586 -4.33028 -0.785771 0
M  V30 274 H 23.0776 -0.736912 0.0114185 0
M  V30 275 H 25.7196 -1.76056 0.714432 0
M  V30 276 H 23.8696 -3.82932 -0.655382 0
M  V30 277 H 25.5416 -4.19018 1.92929 0
M  V30 278 H 23.7846 -3.91086 1.87709 0
M  V30 279 H 24.4556 -5.39114 1.18573 0
M  V30 280 H 26.9316 -4.15095 -0.288982 0
M  V30 281 H 25.8076 -5.42695 -0.823013 0
M  V30 282 H 26.0686 -4.01945 -1.841 0
M  V30 283 N 25.1277 -0.289203 -1.54924 0
M  V30 284 C 26.0907 0.579144 -2.21762 0
M  V30 285 C 27.0907 1.07047 -1.1999 0
M  V30 286 O 28.2807 0.968384 -1.44803 0
M  V30 287 C 25.4127 1.80055 -2.8947 0
M  V30 288 H 26.6057 -0.00464908 -2.999 0
M  V30 289 H 24.1587 -0.0399306 -1.56249 0
M  V30 290 H 24.8937 2.42449 -2.15381 0
M  V30 291 H 24.6787 1.45602 -3.64064 0
M  V30 292 H 26.1687 2.41773 -3.40493 0
M  V30 293 N 26.6058 1.57591 -0.0167156 0
M  V30 294 C 27.5688 2.08393 0.954204 0
M  V30 295 C 28.5688 0.996531 1.26198 0
M  V30 296 O 29.7588 1.25858 1.20438 0
M  V30 297 C 26.8908 2.5394 2.27436 0
M  V30 298 H 28.0838 2.95455 0.514451 0
M  V30 299 H 25.6368 1.54582 0.231089 0
M  V30 300 H 26.3718 1.70171 2.76066 0
M  V30 301 H 26.1568 3.33371 2.06412 0
M  V30 302 H 27.6468 2.93512 2.97053 0
M  V30 303 N 28.0839 -0.256276 1.55502 0
M  V30 304 C 29.0469 -1.30047 1.88734 0
M  V30 305 C 30.0469 -1.4154 0.763086 0
M  V30 306 O 31.2369 -1.40403 1.03115 0
M  V30 307 C 28.3689 -2.67953 2.10747 0
M  V30 308 H 29.5619 -1.01802 2.82093 0
M  V30 309 H 27.1149 -0.495134 1.4825 0
M  V30 310 H 27.8499 -3.01351 1.19825 0
M  V30 311 H 27.6349 -2.60993 2.92617 0
M  V30 312 H 29.1249 -3.43368 2.37673 0
M  V30 313 N 29.562 -1.4872 -0.521534 0
M  V30 314 C 30.811 -1.56419 -1.27341 0
M  V30 315 C 31.124 -0.246805 -1.94037 0
M  V30 316 O 32.33 -0.202122 -2.70747 0
M  V30 317 C 30.786 -2.75896 -2.31105 0
M  V30 318 C 30.394 -4.14311 -1.70441 0
M  V30 319 C 32.138 -2.92913 -3.07249 0
M  V30 320 C 30.045 -5.25038 -2.72194 0
M  V30 321 H 28.975 -0.582344 -0.478949 0
M  V30 322 H 31.626 -1.75071 -0.549779 0
M  V30 323 H 30.008 -2.50697 -3.06541 0
M  V30 324 H 31.182 -4.49564 -1.01136 0
M  V30 325 H 29.497 -4.02482 -1.06759 0
M  V30 326 H 32.094 -3.72805 -3.83302 0
M  V30 327 H 32.437 -2.02689 -3.63625 0
M  V30 328 H 32.97 -3.18054 -2.38928 0
M  V30 329 H 29.709 -6.17255 -2.20627 0
M  V30 330 H 29.229 -4.94263 -3.39801 0
M  V30 331 H 30.908 -5.53508 -3.35019 0
M  V30 332 N 31.0401 0.771051 -1.3745 0
M  V30 333 C 32.3171 1.519 -1.23231 0
M  V30 334 C 32.6971 2.10383 0.173809 0
M  V30 335 O 32.0451 1.95583 1.18151 0
M  V30 336 C 32.2551 2.59933 -2.32886 0
M  V30 337 C 33.6031 3.27316 -2.70461 0
M  V30 338 O 34.6271 2.70228 -2.32068 0
M  V30 339 O 33.4861 4.30531 -3.36608 0
M  V30 340 H 30.5801 0.672803 -0.480901 0
M  V30 341 H 33.1261 0.807957 -1.49232 0
M  V30 342 H 31.8981 2.14842 -3.27045 0
M  V30 343 H 31.5211 3.38637 -2.08353 0
M  V30 344 N 32.5182 1.22032 0.997298 0
M  V30 345 C 33.4812 0.987909 2.06816 0
M  V30 346 C 34.4812 -0.0440084 1.6074 0
M  V30 347 O 35.6712 0.194053 1.73116 0
M  V30 348 C 32.8032 0.49132 3.37341 0
M  V30 349 H 33.9962 1.93803 2.28868 0
M  V30 350 H 31.5492 1.03838 1.16822 0
M  V30 351 H 32.2842 -0.463364 3.20973 0
M  V30 352 H 32.0692 1.23575 3.72118 0
M  V30 353 H 33.5592 0.348824 4.16141 0
M  V30 354 N 33.9963 -1.19345 1.0293 0
M  V30 355 C 35.4073 -1.70725 0.755633 0
M  V30 356 C 35.7583 -1.82326 -0.724676 0
M  V30 357 O 34.8833 -1.49471 -1.56484 0
M  V30 358 C 35.4783 -3.10084 1.36503 0
M  V30 359 C 34.0373 -3.58723 1.13994 0
M  V30 360 C 33.1843 -2.35577 1.46283 0
M  V30 361 H 36.1353 -1.0418 1.19718 0
M  V30 362 H 36.1563 -3.72787 0.762217 0
M  V30 363 H 35.6683 -3.01609 2.44241 0
M  V30 364 H 33.7693 -3.72512 0.0807901 0
M  V30 365 H 33.8823 -4.42816 1.82894 0
M  V30 366 H 32.2463 -2.38935 0.88217 0
M  V30 367 H 33.0293 -2.29731 2.55105 0
M  V30 368 N 35.4744 -0.807222 -1.35358 0
M  V30 369 C 36.4214 -0.216037 -2.29787 0
M  V30 370 C 37.3914 0.650278 -1.52842 0
M  V30 371 O 38.5764 0.595227 -1.81278 0
M  V30 372 C 35.7164 0.628893 -3.39321 0
M  V30 373 C 34.8294 -0.257927 -4.31229 0
M  V30 374 C 33.9644 0.595069 -5.27856 0
M  V30 375 C 33.0034 -0.292111 -6.11403 0
M  V30 376 N 32.1404 0.520895 -7.00165 0
M  V30 377 H 36.9804 -1.02671 -2.79755 0
M  V30 378 H 34.5174 -0.517839 -1.37684 0
M  V30 379 H 36.4754 1.13393 -4.01494 0
M  V30 380 H 35.1054 1.40482 -2.90628 0
M  V30 381 H 34.1574 -0.881076 -3.70056 0
M  V30 382 H 35.4694 -0.940759 -4.89848 0
M  V30 383 H 34.6234 1.16522 -5.95405 0
M  V30 384 H 33.3624 1.31146 -4.69736 0
M  V30 385 H 32.3674 -0.874525 -5.428 0
M  V30 386 H 33.5924 -1.00638 -6.71602 0
M  V30 387 H 31.5384 1.22125 -6.44532 0
M  V30 388 H 31.4554 -0.103877 -7.55929 0
M  V30 389 H 32.7234 1.0743 -7.72062 0
M  V30 390 N 36.9525 1.47285 -0.560781 0
M  V30 391 C 38.1805 2.06855 -0.0430262 0
M  V30 392 C 38.5955 1.41291 1.25229 0
M  V30 393 O 37.9525 0.510648 1.7521 0
M  V30 394 C 38.0035 3.61178 0.152518 0
M  V30 395 O 37.7245 4.24285 -1.0915 0
M  V30 396 C 39.2255 4.37624 0.707145 0
M  V30 397 H 36.4455 0.669319 -0.0474652 0
M  V30 398 H 38.9895 1.89237 -0.77521 0
M  V30 399 H 37.1445 3.78298 0.834843 0
M  V30 400 H 37.5585 5.16868 -0.891482 0
M  V30 401 H 39.0325 5.46271 0.793244 0
M  V30 402 H 39.5095 4.04152 1.71923 0
M  V30 403 H 40.1155 4.25257 0.0604027 0
M  V30 404 N 38.4306 0.297415 1.54768 0
M  V30 405 C 39.6706 -0.313829 2.01976 0
M  V30 406 C 40.0346 -1.51366 1.1812 0
M  V30 407 O 41.2356 -2.19603 1.5501 0
M  V30 408 C 39.5066 -0.664964 3.51159 0
M  V30 409 S 41.0656 -1.25958 4.20333 0
M  V30 410 H 37.8836 -0.0965014 0.704421 0
M  V30 411 H 40.4856 0.424451 1.90837 0
M  V30 412 H 39.1896 0.21681 4.09827 0
M  V30 413 H 38.7206 -1.43413 3.66328 0
M  V30 414 H 40.7356 -2.54751 4.25813 0
M  V30 415 N 39.9087 -1.5758 0.0250728 0
M  V30 416 C 41.1337 -1.96337 -0.668317 0
M  V30 417 C 41.5587 -0.901314 -1.651 0
M  V30 418 O 40.9167 0.138187 -1.80773 0
M  V30 419 C 40.9647 -3.34191 -1.35457 0
M  V30 420 O 40.0687 -3.30269 -2.46974 0
M  V30 421 H 39.4097 -0.640281 -0.175887 0
M  V30 422 H 41.9397 -2.0442 0.0857224 0
M  V30 423 H 41.9497 -3.70331 -1.71228 0
M  V30 424 H 40.6247 -4.11036 -0.634218 0
M  V30 425 H 39.2017 -3.05841 -2.13344 0
M  V30 426 N 41.3868 0.248026 -1.55636 0
M  V30 427 C 42.7978 0.817177 -1.67866 0
M  V30 428 C 43.1488 1.86069 -0.622322 0
M  V30 429 O 42.2738 2.15157 0.231618 0
M  V30 430 C 42.8688 1.489 -3.04326 0
M  V30 431 C 41.4278 2.00587 -3.185 0
M  V30 432 C 40.5748 0.856573 -2.63739 0
M  V30 433 H 43.5258 0.0238579 -1.58682 0
M  V30 434 H 43.5468 2.35698 -2.98708 0
M  V30 435 H 43.0588 0.729279 -3.81186 0
M  V30 436 H 41.1598 2.79443 -2.4646 0
M  V30 437 H 41.2728 2.20402 -4.25393 0
M  V30 438 H 39.6368 1.25678 -2.21534 0
M  V30 439 H 40.4198 0.109953 -3.43124 0
M  V30 440 N 42.8649 1.48995 0.513639 0
M  V30 441 C 43.8119 1.6473 1.61656 0
M  V30 442 C 44.7819 0.488984 1.58739 0
M  V30 443 O 45.9669 0.714478 1.76918 0
M  V30 444 C 43.1069 1.7082 2.99858 0
M  V30 445 C 42.2199 2.9787 3.12885 0
M  V30 446 C 41.3549 2.95017 4.41744 0
M  V30 447 C 40.3939 4.16702 4.48359 0
M  V30 448 N 39.5309 4.11832 5.68629 0
M  V30 449 H 44.3709 2.58909 1.47547 0
M  V30 450 H 41.9079 1.28382 0.71808 0
M  V30 451 H 43.8659 1.72331 3.79944 0
M  V30 452 H 42.4959 0.801181 3.12699 0
M  V30 453 H 41.5479 3.06029 2.25944 0
M  V30 454 H 42.8599 3.8786 3.13633 0
M  V30 455 H 42.0139 2.95021 5.30139 0
M  V30 456 H 40.7529 2.02784 4.43542 0
M  V30 457 H 39.7579 4.16955 3.58369 0
M  V30 458 H 40.9829 5.10113 4.48287 0
M  V30 459 H 38.9289 3.22428 5.71293 0
M  V30 460 H 38.8459 4.95543 5.7094 0
M  V30 461 H 40.1139 4.1592 6.59266 0
M  V30 462 N 44.343 -0.763751 1.37857 0
M  V30 463 C 45.275 -1.88664 1.30148 0
M  V30 464 C 46.288 -1.61365 0.215685 0
M  V30 465 O 47.477 -1.72134 0.472459 0
M  V30 466 C 44.577 -3.24075 0.991396 0
M  V30 467 C 43.75 -3.78958 2.18426 0
M  V30 468 C 42.809 -4.92862 1.8432 0
M  V30 469 O 41.835 -5.08027 2.56704 0
M  V30 470 N 43.037 -5.75071 0.792081 0
M  V30 471 H 45.802 -1.95791 2.26905 0
M  V30 472 H 43.363 -0.943226 1.31586 0
M  V30 473 H 45.355 -3.97804 0.743935 0
M  V30 474 H 43.925 -3.12399 0.112122 0
M  V30 475 H 43.145 -2.96913 2.59299 0
M  V30 476 H 44.433 -4.12357 2.98058 0
M  V30 477 H 43.831 -5.65375 0.191595 0
M  V30 478 H 42.388 -6.48991 0.60449 0
M  V30 479 N 45.8211 -1.22559 -0.990812 0
M  V30 480 C 47.0681 -1.05141 -1.73065 0
M  V30 481 C 47.3961 0.413191 -1.9006 0
M  V30 482 O 46.6511 1.32257 -1.44245 0
M  V30 483 C 46.9501 -1.71011 -3.13831 0
M  V30 484 C 46.6161 -3.20911 -3.16745 0
M  V30 485 C 45.2781 -3.61812 -3.17247 0
M  V30 486 C 47.6301 -4.16846 -3.12872 0
M  V30 487 C 44.9581 -4.97127 -3.1158 0
M  V30 488 C 47.3101 -5.5214 -3.08746 0
M  V30 489 C 45.9741 -5.92419 -3.07565 0
M  V30 490 H 45.2441 -0.384738 -0.633291 0
M  V30 491 H 47.8911 -1.5235 -1.16025 0
M  V30 492 H 46.1961 -1.16133 -3.74193 0
M  V30 493 H 47.8931 -1.55023 -3.69823 0
M  V30 494 H 44.4831 -2.88344 -3.17105 0
M  V30 495 H 48.6671 -3.86263 -3.11632 0
M  V30 496 H 43.9231 -5.27562 -3.09012 0
M  V30 497 H 48.0971 -6.26201 -3.04705 0
M  V30 498 H 45.7241 -6.97236 -3.02929 0
M  V30 499 N 47.2992 1.18797 -1.03562 0
M  V30 500 C 48.2622 2.20464 -0.626769 0
M  V30 501 C 49.2622 1.57721 0.313173 0
M  V30 502 O 50.4522 1.73917 0.0992615 0
M  V30 503 C 47.5842 3.40802 0.0818498 0
M  V30 504 H 48.7772 2.58149 -1.5264 0
M  V30 505 H 46.3302 1.32593 -0.827578 0
M  V30 506 H 47.0652 3.08642 0.995518 0
M  V30 507 H 46.8502 3.8758 -0.593652 0
M  V30 508 H 48.3402 4.16092 0.354584 0
M  V30 509 N 48.7773 0.814389 1.34928 0
M  V30 510 C 50.0173 0.404165 2.00364 0
M  V30 511 C 50.3813 -1.01166 1.63185 0
M  V30 512 O 51.5823 -1.52431 2.21401 0
M  V30 513 C 49.8533 0.590718 3.52484 0
M  V30 514 S 51.4123 0.272075 4.37956 0
M  V30 515 H 48.2303 0.15311 0.694319 0
M  V30 516 H 50.8323 1.05834 1.64376 0
M  V30 517 H 49.5363 1.62099 3.77031 0
M  V30 518 H 49.0673 -0.0785013 3.93322 0
M  V30 519 H 51.0823 -0.917405 4.87645 0
M  V30 520 N 50.2554 -1.46986 0.568584 0
M  V30 521 C 51.6714 -1.57946 0.229189 0
M  V30 522 C 51.8714 -1.56567 -1.26843 0
M  V30 523 O 50.9274 -1.47511 -2.04931 0
M  V30 524 C 52.2404 -2.87963 0.865909 0
M  V30 525 C 53.7884 -3.01568 0.838188 0
M  V30 526 C 54.2634 -4.34301 1.45419 0
M  V30 527 N 55.7544 -4.40965 1.41788 0
M  V30 528 C 56.4894 -5.42256 1.86403 0
M  V30 529 N 55.9854 -6.50297 2.38926 0
M  V30 530 N 57.7784 -5.3337 1.77405 0
M  V30 531 H 49.9294 -1.46126 1.54146 0
M  V30 532 H 52.1924 -0.696156 0.643484 0
M  V30 533 H 51.8984 -2.94742 1.91886 0
M  V30 534 H 51.7724 -3.75423 0.365687 0
M  V30 535 H 54.1594 -2.94379 -0.206106 0
M  V30 536 H 54.2404 -2.1562 1.37629 0
M  V30 537 H 53.8844 -4.42247 2.49761 0
M  V30 538 H 53.8144 -5.19 0.891435 0
M  V30 539 H 56.3054 -3.63484 1.03381 0
M  V30 540 H 56.6184 -7.23777 2.70863 0
M  V30 541 H 54.9634 -6.51155 2.42944 0
M  V30 542 H 58.1544 -4.47865 1.3614 0
M  V30 543 H 58.3274 -6.12169 2.12492 0
M  V30 544 N 51.7335 -0.305618 -1.54608 0
M  V30 545 C 53.0105 0.355652 -1.92339 0
M  V30 546 C 53.3905 1.71324 -1.23335 0
M  V30 547 O 52.7385 2.25473 -0.370702 0
M  V30 548 C 52.9485 0.46572 -3.45879 0
M  V30 549 C 54.2965 0.734426 -4.182 0
M  V30 550 O 55.3205 0.54935 -3.51938 0
M  V30 551 O 54.1795 1.09024 -5.35515 0
M  V30 552 H 51.2735 0.199666 -0.802535 0
M  V30 553 H 53.8195 -0.354017 -1.65966 0
M  V30 554 H 52.5915 -0.488461 -3.88239 0
M  V30 555 H 52.2145 1.22367 -3.78301 0
M  V30 556 N 53.2116 1.57565 -0.0334293 0
M  V30 557 C 54.1436 2.0739 0.975811 0
M  V30 558 C 55.1566 0.998166 1.2861 0
M  V30 559 O 56.3456 1.27426 1.25 0
M  V30 560 C 53.4456 2.4871 2.30209 0
M  V30 561 C 52.6186 3.79413 2.17634 0
M  V30 562 C 51.6776 4.07237 3.33233 0
M  V30 563 O 50.7036 4.77425 3.09927 0
M  V30 564 N 51.9056 3.5775 4.5716 0
M  V30 565 H 54.6706 2.94598 0.55066 0
M  V30 566 H 52.2316 1.61173 0.15323 0
M  V30 567 H 54.2236 2.64413 3.06378 0
M  V30 568 H 52.7936 1.66845 2.64351 0
M  V30 569 H 52.0136 3.73465 1.26165 0
M  V30 570 H 53.3016 4.65038 2.0644 0
M  V30 571 H 52.6996 3.00976 4.78989 0
M  V30 572 H 51.2566 3.78724 5.30482 0
M  V30 573 N 54.6897 -0.239769 1.55765 0
M  V30 574 C 55.9387 -0.964754 1.77131 0
M  V30 575 C 56.2517 -1.86213 0.59868 0
M  V30 576 O 57.4577 -2.6244 0.695522 0
M  V30 577 C 55.9137 -1.76552 3.1362 0
M  V30 578 C 55.5217 -0.915185 4.38553 0
M  V30 579 C 57.2657 -2.48281 3.44321 0
M  V30 580 C 55.1727 -1.71225 5.66071 0
M  V30 581 H 54.1027 -0.363953 0.660344 0
M  V30 582 H 56.7537 -0.219181 1.82186 0
M  V30 583 H 55.1357 -2.55331 3.02691 0
M  V30 584 H 56.3097 -0.169217 4.60489 0
M  V30 585 H 54.6247 -0.310889 4.15238 0
M  V30 586 H 57.2217 -3.08382 4.36812 0
M  V30 587 H 57.5647 -3.20256 2.65973 0
M  V30 588 H 58.0977 -1.76507 3.56497 0
M  V30 589 H 54.8367 -1.03612 6.4726 0
M  V30 590 H 54.3567 -2.43331 5.48224 0
M  V30 591 H 56.0357 -2.27758 6.05587 0
M  V30 592 N 56.1678 -1.49265 -0.50573 0
M  V30 593 C 57.3958 -1.62215 -1.28429 0
M  V30 594 C 57.8108 -0.291697 -1.86533 0
M  V30 595 O 57.1678 0.722233 -1.67601 0
M  V30 596 C 57.2188 -2.68735 -2.41793 0
M  V30 597 O 56.9398 -3.96619 -1.86078 0
M  V30 598 C 58.4408 -2.92346 -3.3324 0
M  V30 599 H 55.6608 -0.546239 -0.389697 0
M  V30 600 H 58.2048 -1.95265 -0.607609 0
M  V30 601 H 56.3598 -2.38476 -3.053 0
M  V30 602 H 56.7738 -4.55256 -2.60465 0
M  V30 603 H 58.2478 -3.70623 -4.09075 0
M  V30 604 H 58.7248 -2.02081 -3.89948 0
M  V30 605 H 59.3308 -3.24003 -2.75503 0
M  V30 606 N 57.6459 0.756429 -1.3826 0
M  V30 607 C 58.8859 1.52833 -1.35725 0
M  V30 608 C 59.2499 1.91926 0.0534106 0
M  V30 609 O 60.4509 2.68028 0.203613 0
M  V30 610 C 58.7219 2.74919 -2.28373 0
M  V30 611 S 60.2809 3.64817 -2.43832 0
M  V30 612 H 57.0989 0.523043 -0.481608 0
M  V30 613 H 59.7009 0.888212 -1.74158 0
M  V30 614 H 58.4049 2.44304 -3.29763 0
M  V30 615 H 57.9359 3.43878 -1.91079 0
M  V30 616 H 59.9509 4.676 -1.66027 0
M  V30 617 N 59.124 1.23083 0.984299 0
M  V30 618 C 60.373 1.05466 1.71929 0
M  V30 619 C 60.686 -0.409211 1.91272 0
M  V30 620 O 61.892 -0.705226 2.62181 0
M  V30 621 C 60.348 1.83874 3.09384 0
M  V30 622 C 59.956 3.34566 2.97943 0
M  V30 623 C 61.7 1.74734 3.8687 0
M  V30 624 C 59.607 4.05381 4.30605 0
M  V30 625 H 58.537 0.391039 0.644674 0
M  V30 626 H 61.188 1.47013 1.09815 0
M  V30 627 H 59.57 1.35131 3.72231 0
M  V30 628 H 60.744 3.90767 2.44209 0
M  V30 629 H 59.059 3.44476 2.33934 0
M  V30 630 H 61.656 2.24957 4.85076 0
M  V30 631 H 61.999 0.709372 4.10212 0
M  V30 632 H 62.532 2.21067 3.30717 0
M  V30 633 H 59.271 5.09467 4.1246 0
M  V30 634 H 58.791 3.53967 4.84218 0
M  V30 635 H 60.47 4.11458 4.99311 0
M  V30 636 N 60.6021 -1.18246 1.0419 0
M  V30 637 C 61.8271 -1.92736 0.765996 0
M  V30 638 C 62.2521 -1.75728 -0.67091 0
M  V30 639 O 61.6101 -1.06825 -1.46486 0
M  V30 640 C 61.6581 -3.42148 1.13875 0
M  V30 641 O 60.7621 -4.11548 0.264954 0
M  V30 642 H 60.1031 -0.601238 0.281797 0
M  V30 643 H 62.6331 -1.49942 1.39207 0
M  V30 644 H 62.6431 -3.92858 1.1012 0
M  V30 645 H 61.3181 -3.53848 2.18551 0
M  V30 646 H 59.8951 -3.71137 0.362226 0
M  V30 647 N 62.0802 -0.821533 -1.34494 0
M  V30 648 C 63.0272 -0.240397 -2.29545 0
M  V30 649 C 63.9972 0.634031 -1.53523 0
M  V30 650 O 65.1822 0.575966 -1.81899 0
M  V30 651 C 62.3222 0.592869 -3.39969 0
M  V30 652 C 61.4352 -0.30365 -4.30932 0
M  V30 653 C 60.5702 0.539049 -5.28458 0
M  V30 654 C 59.6092 -0.356942 -6.11058 0
M  V30 655 N 58.7462 0.446603 -7.00678 0
M  V30 656 H 63.5862 -1.05632 -2.7865 0
M  V30 657 H 61.1232 -0.532413 -1.37127 0
M  V30 658 H 63.0812 1.09129 -4.02675 0
M  V30 659 H 61.7112 1.37392 -2.92102 0
M  V30 660 H 60.7632 -0.920276 -3.691 0
M  V30 661 H 62.0752 -0.992661 -4.88823 0
M  V30 662 H 61.2292 1.102 -5.96608 0
M  V30 663 H 59.9682 1.26157 -4.71101 0
M  V30 664 H 58.9732 -0.932047 -5.41842 0
M  V30 665 H 60.1982 -1.07755 -6.70497 0
M  V30 666 H 58.1442 1.15282 -6.45791 0
M  V30 667 H 58.0612 -0.184048 -7.55776 0
M  V30 668 H 59.3292 0.992352 -7.73158 0
M  V30 669 N 63.5583 1.46682 -0.576371 0
M  V30 670 C 64.8063 2.02013 -0.0594163 0
M  V30 671 C 65.1273 1.45101 1.30271 0
M  V30 672 O 64.3973 0.633317 1.8538 0
M  V30 673 H 62.9773 0.746759 -0.0189745 0
M  V30 674 H 65.6393 1.79862 -0.750717 0
M  V30 675 H 64.7353 3.12097 0.014345 0
M  V30 676 N 65.0364 0.313813 1.54444 0
M  V30 677 C 66.2824 -0.284918 2.01395 0
M  V30 678 C 66.6374 -1.50537 1.19818 0
M  V30 679 O 65.9304 -1.89692 0.269748 0
M  V30 680 C 66.1244 -0.680386 3.50864 0
M  V30 681 C 65.9534 0.500198 4.4691 0
M  V30 682 C 64.7234 0.996248 4.95382 0
M  V30 683 C 66.9214 1.34928 4.96285 0
M  V30 684 N 64.9034 2.14226 5.75309 0
M  V30 685 C 66.2744 2.3426 5.7404 0
M  V30 686 C 68.3294 1.37818 4.78446 0
M  V30 687 C 67.0324 3.36272 6.35856 0
M  V30 688 C 69.0584 2.38695 5.4109 0
M  V30 689 C 68.4204 3.36755 6.18688 0
M  V30 690 H 64.5194 -0.0683689 0.779006 0
M  V30 691 H 67.1034 0.44664 1.89508 0
M  V30 692 H 65.2744 -1.38109 3.63016 0
M  V30 693 H 67.0064 -1.25975 3.84594 0
M  V30 694 H 63.7614 0.56912 4.70168 0
M  V30 695 H 64.1854 2.72005 6.19953 0
M  V30 696 H 68.8274 0.633747 4.18023 0
M  V30 697 H 66.5454 4.11627 6.95405 0
M  V30 698 H 70.1314 2.41721 5.29209 0
M  V30 699 H 69.0114 4.13535 6.66302 0
M  V30 700 N 66.5145 -1.57545 0.0417849 0
M  V30 701 C 67.9305 -1.56467 -0.314704 0
M  V30 702 C 68.1305 -1.04859 -1.72066 0
M  V30 703 O 67.1865 -0.700983 -2.42575 0
M  V30 704 C 68.4995 -3.00317 -0.15174 0
M  V30 705 C 70.0475 -3.12201 -0.223553 0
M  V30 706 C 70.5225 -4.57913 -0.0892295 0
M  V30 707 N 72.0135 -4.6297 -0.145808 0
M  V30 708 C 72.7485 -5.73362 -0.0658459 0
M  V30 709 N 72.2445 -6.92769 0.0659282 0
M  V30 710 N 74.0375 -5.6197 -0.12075 0
M  V30 711 H 66.1885 -1.89416 0.961014 0
M  V30 712 H 68.4515 -0.871862 0.372237 0
M  V30 713 H 68.1575 -3.42073 0.817254 0
M  V30 714 H 68.0315 -3.65892 -0.916692 0
M  V30 715 H 70.4185 -2.70349 -1.18301 0
M  V30 716 H 70.4995 -2.49323 0.571994 0
M  V30 717 H 70.1435 -5.00448 0.866867 0
M  V30 718 H 70.0735 -5.18786 -0.903802 0
M  V30 719 H 72.5645 -3.7709 -0.247286 0
M  V30 720 H 72.8775 -7.72707 0.119905 0
M  V30 721 H 71.2225 -6.94927 0.100885 0
M  V30 722 H 74.4135 -4.67572 -0.222187 0
M  V30 723 H 74.5865 -6.47977 -0.0549735 0
M  V30 724 N 67.9926 0.231505 -1.5589 0
M  V30 725 C 69.2326 0.964533 -1.80211 0
M  V30 726 C 69.5966 1.81926 -0.613744 0
M  V30 727 O 70.7976 2.58526 -0.736045 0
M  V30 728 C 69.0686 1.78956 -3.09369 0
M  V30 729 S 70.6276 2.57959 -3.54969 0
M  V30 730 H 67.4456 0.324173 -0.632798 0
M  V30 731 H 70.0476 0.230985 -1.94131 0
M  V30 732 H 68.7516 1.15161 -3.93911 0
M  V30 733 H 68.2826 2.56559 -2.9823 0
M  V30 734 H 70.2976 3.81309 -3.17519 0
M  V30 735 N 69.4707 1.49531 0.497807 0
M  V30 736 C 70.7477 1.49682 1.25915 0
M  V30 737 C 71.1277 0.226339 2.09883 0
M  V30 738 O 70.4757 -0.791189 2.14365 0
M  V30 739 C 70.6857 2.77755 2.11313 0
M  V30 740 C 72.0337 3.27371 2.70395 0
M  V30 741 O 73.0577 2.78894 2.21578 0
M  V30 742 O 71.9167 4.11808 3.59272 0
M  V30 743 H 69.0107 0.599228 0.56996 0
M  V30 744 H 71.5567 1.61798 0.511816 0
M  V30 745 H 70.3287 3.61713 1.49264 0
M  V30 746 H 69.9517 2.68515 2.93233 0
M  V30 747 N 70.9488 -0.749086 1.3866 0
M  V30 748 C 72.1968 -1.50535 1.34847 0
M  V30 749 C 72.5178 -1.94909 -0.0595016 0
M  V30 750 O 71.7878 -1.67973 -1.00806 0
M  V30 751 H 70.3678 -0.558395 0.49619 0
M  V30 752 H 73.0298 -0.890165 1.73384 0
M  V30 753 H 72.1258 -2.39413 2.00219 0
M  V30 754 N 72.4269 -1.23603 -0.977757 0
M  V30 755 C 73.3369 -1.03632 -2.1047 0
M  V30 756 C 74.3529 0.0199435 -1.73989 0
M  V30 757 O 75.5289 -0.176076 -2.00629 0
M  V30 758 C 72.5939 -0.63276 -3.40877 0
M  V30 759 C 71.6549 -1.76437 -3.91367 0
M  V30 760 C 70.8879 -1.37997 -5.15551 0
M  V30 761 O 71.1109 -0.265357 -5.69782 0
M  V30 762 O 70.0449 -2.20201 -5.60174 0
M  V30 763 H 73.8709 -1.98086 -2.30208 0
M  V30 764 H 71.4559 -1.02332 -1.08851 0
M  V30 765 H 73.3379 -0.418761 -4.19314 0
M  V30 766 H 72.0129 0.282754 -3.22463 0
M  V30 767 H 70.9199 -2.03304 -3.14036 0
M  V30 768 H 72.2529 -2.6583 -4.14241 0
M  V30 769 N 73.905 1.17692 -1.04816 0
M  V30 770 C 75.321 1.39863 -0.768794 0
M  V30 771 C 75.521 1.91118 0.638451 0
M  V30 772 O 74.577 2.10036 1.40146 0
M  V30 773 C 75.89 2.39274 -1.82122 0
M  V30 774 C 77.438 2.52987 -1.843 0
M  V30 775 C 77.913 3.55669 -2.88555 0
M  V30 776 N 79.404 3.63183 -2.87493 0
M  V30 777 C 80.139 4.42381 -3.64811 0
M  V30 778 N 79.635 5.25125 -4.51903 0
M  V30 779 N 81.428 4.37217 -3.53267 0
M  V30 780 H 73.579 0.82752 -1.95617 0
M  V30 781 H 75.842 0.426123 -0.846831 0
M  V30 782 H 75.548 2.08678 -2.83102 0
M  V30 783 H 75.422 3.38725 -1.65967 0
M  V30 784 H 77.809 2.82896 -0.839869 0
M  V30 785 H 77.89 1.53623 -2.04532 0
M  V30 786 H 77.534 3.26499 -3.89051 0
M  V30 787 H 77.464 4.54728 -2.65575 0
M  V30 788 H 79.955 3.04103 -2.24343 0
M  V30 789 H 80.268 5.82728 -5.07591 0
M  V30 790 H 78.613 5.24519 -4.55966 0
M  V30 791 H 81.804 3.71626 -2.84625 0
M  V30 792 H 81.977 4.98696 -4.13771 0
M  V30 793 N 75.3831 0.828654 1.34056 0
M  V30 794 C 76.6601 0.341809 1.9259 0
M  V30 795 C 77.0401 -1.17158 1.75605 0
M  V30 796 O 76.3881 -1.98132 1.13824 0
M  V30 797 C 76.5981 0.777453 3.4023 0
M  V30 798 C 77.9461 0.779579 4.17382 0
M  V30 799 O 78.9701 0.7204 3.48839 0
M  V30 800 O 77.8291 0.857996 5.39723 0
M  V30 801 H 74.9231 0.0946085 0.821571 0
M  V30 802 H 77.4691 0.913827 1.42994 0
M  V30 803 H 76.2411 1.8196 3.46419 0
M  V30 804 H 75.8641 0.181444 3.97186 0
M  V30 805 N 76.8612 -1.46375 0.584142 0
M  V30 806 C 78.1012 -2.0427 0.0729695 0
M  V30 807 C 78.4652 -1.44563 -1.26355 0
M  V30 808 O 79.6662 -1.93667 -1.86405 0
M  V30 809 C 77.9372 -3.57399 0.00967464 0
M  V30 810 S 79.4962 -4.36551 -0.443714 0
M  V30 811 H 76.3142 -0.709975 0.0381673 0
M  V30 812 H 78.9162 -1.79398 0.776962 0
M  V30 813 H 77.6202 -3.98372 0.986319 0
M  V30 814 H 77.1512 -3.8681 -0.717044 0
M  V30 815 H 79.1662 -4.66237 -1.69816 0
M  V30 816 N 78.3393 -0.321999 -1.54275 0
M  V30 817 C 79.7503 0.166384 -1.85957 0
M  V30 818 C 80.1013 1.51747 -1.24367 0
M  V30 819 O 79.2263 2.09317 -0.549124 0
M  V30 820 C 79.8213 0.308681 -3.37391 0
M  V30 821 C 78.3803 0.741286 -3.69028 0
M  V30 822 C 77.5273 -0.137937 -2.76957 0
M  V30 823 H 80.4783 -0.542335 -1.49146 0
M  V30 824 H 80.4993 1.13984 -3.63026 0
M  V30 825 H 80.0113 -0.674809 -3.82188 0
M  V30 826 H 78.1123 1.73458 -3.29762 0
M  V30 827 H 78.2253 0.546118 -4.75977 0
M  V30 828 H 76.5893 0.386251 -2.51754 0
M  V30 829 H 77.3723 -1.11816 -3.2458 0
M  V30 830 N 79.8174 1.5752 -0.0501392 0
M  V30 831 C 81.0944 1.83996 0.663685 0
M  V30 832 C 81.4744 0.938339 1.89099 0
M  V30 833 O 80.8224 -0.00087759 2.285 0
M  V30 834 C 81.0324 3.33702 1.02196 0
M  V30 835 C 82.3804 4.00691 1.40469 0
M  V30 836 O 83.4044 3.38321 1.11433 0
M  V30 837 O 82.2634 5.10658 1.94654 0
M  V30 838 H 79.3574 0.759385 0.32751 0
M  V30 839 H 81.9034 1.69514 -0.0794238 0
M  V30 840 H 80.6754 3.91015 0.149364 0
M  V30 841 H 80.2984 3.53368 1.82255 0
M  V30 842 N 81.2955 -0.223234 1.56011 0
M  V30 843 C 82.5435 -0.946003 1.78592 0
M  V30 844 C 82.8645 -1.84936 0.618349 0
M  V30 845 O 82.1345 -1.92473 -0.364833 0
M  V30 846 H 80.7145 -0.352298 0.658707 0
M  V30 847 H 83.3765 -0.235494 1.93472 0
M  V30 848 H 82.4725 -1.55381 2.70672 0
M  V30 849 N 82.7736 -1.49793 -0.48987 0
M  V30 850 C 83.9986 -1.63836 -1.27172 0
M  V30 851 C 84.4236 -0.31402 -1.8546 0
M  V30 852 O 83.7816 0.719803 -1.66399 0
M  V30 853 C 83.8296 -2.71797 -2.36978 0
M  V30 854 O 82.9336 -2.31744 -3.41128 0
M  V30 855 H 82.2746 -0.547997 -0.37496 0
M  V30 856 H 84.8046 -1.96053 -0.585191 0
M  V30 857 H 84.8146 -2.94305 -2.82575 0
M  V30 858 H 83.4896 -3.67923 -1.93921 0
M  V30 859 H 82.0666 -2.1961 -3.01373 0
M  V30 860 N 84.2517 0.741722 -1.39055 0
M  V30 861 C 85.5287 1.49252 -1.26425 0
M  V30 862 C 85.9087 2.10705 0.129144 0
M  V30 863 O 85.2567 1.98045 1.13976 0
M  V30 864 C 85.4667 2.54934 -2.38347 0
M  V30 865 C 86.8147 3.21506 -2.77343 0
M  V30 866 O 87.8387 2.65245 -2.37747 0
M  V30 867 O 86.6977 4.23294 -3.45665 0
M  V30 868 H 83.7917 0.662451 -0.495064 0
M  V30 869 H 86.3377 0.776121 -1.50912 0
M  V30 870 H 85.1097 2.07857 -3.31529 0
M  V30 871 H 84.7327 3.34141 -2.15489 0
M  V30 872 N 85.7298 1.2412 0.971189 0
M  V30 873 C 86.6398 1.04747 2.09917 0
M  V30 874 C 87.6558 -0.0107162 1.73997 0
M  V30 875 O 88.8318 0.186714 2.00533 0
M  V30 876 C 85.8968 0.650828 3.40537 0
M  V30 877 C 84.9578 1.7851 3.90426 0
M  V30 878 C 84.1908 1.40729 5.14812 0
M  V30 879 O 84.4138 0.29557 5.69634 0
M  V30 880 O 83.3478 2.23168 5.58999 0
M  V30 881 H 87.1738 1.99304 2.29154 0
M  V30 882 H 84.7588 1.02908 1.08307 0
M  V30 883 H 86.6408 0.440992 4.19086 0
M  V30 884 H 85.3158 -0.265649 3.22608 0
M  V30 885 H 84.2228 2.04966 3.12953 0
M  V30 886 H 85.5558 2.68023 4.12825 0
M  V30 887 N 87.2079 -1.17134 1.05439 0
M  V30 888 C 88.1709 -2.19439 0.661764 0
M  V30 889 C 89.1709 -1.58199 -0.288042 0
M  V30 890 O 90.3609 -1.74053 -0.0715803 0
M  V30 891 C 87.4929 -3.40889 -0.0276209 0
M  V30 892 H 88.6859 -2.55688 1.56728 0
M  V30 893 H 86.2389 -1.31259 0.848567 0
M  V30 894 H 86.9739 -3.10187 -0.94629 0
M  V30 895 H 86.7589 -3.86586 0.655238 0
M  V30 896 H 88.2489 -4.16603 -0.288342 0
M  V30 897 N 88.686 -0.835752 -1.33615 0
M  V30 898 C 90.097 -0.487099 -1.80234 0
M  V30 899 C 90.448 0.993627 -1.69179 0
M  V30 900 O 89.573 1.77403 -1.23924 0
M  V30 901 C 90.168 -0.877385 -3.27242 0
M  V30 902 C 88.727 -0.580915 -3.7189 0
M  V30 903 C 87.874 -1.0874 -2.5509 0
M  V30 904 H 90.825 -1.02474 -1.2118 0
M  V30 905 H 90.846 -0.186195 -3.80044 0
M  V30 906 H 90.358 -1.95512 -3.35256 0
M  V30 907 H 88.459 0.486881 -3.69405 0
M  V30 908 H 88.572 -1.13396 -4.65487 0
M  V30 909 H 86.936 -0.508392 -2.49575 0
M  V30 910 H 87.719 -2.17184 -2.65868 0
M  V30 911 N 90.1641 1.46063 -0.591896 0
M  V30 912 C 91.0741 2.34192 0.13831 0
M  V30 913 C 92.0901 1.50305 0.876608 0
M  V30 914 O 93.2661 1.8315 0.837728 0
M  V30 915 C 90.3311 3.27656 1.13326 0
M  V30 916 C 89.3921 4.27445 0.39863 0
M  V30 917 C 88.6251 5.16443 1.34618 0
M  V30 918 O 88.8481 5.08553 2.58321 0
M  V30 919 O 87.7821 5.95843 0.851768 0
M  V30 920 H 91.6081 2.98002 -0.58552 0
M  V30 921 H 89.1931 1.45188 -0.352239 0
M  V30 922 H 91.0751 3.85291 1.70671 0
M  V30 923 H 89.7501 2.6643 1.83839 0
M  V30 924 H 88.6571 3.73471 -0.216895 0
M  V30 925 H 89.9901 4.91482 -0.265709 0
M  V30 926 N 91.6422 0.330177 1.54103 0
M  V30 927 C 92.8912 -0.271336 1.99867 0
M  V30 928 C 93.2042 -1.52723 1.22209 0
M  V30 929 O 94.4102 -2.20515 1.58383 0
M  V30 930 C 92.8662 -0.534032 3.55916 0
M  V30 931 C 92.4742 0.705193 4.42415 0
M  V30 932 C 94.2182 -1.09514 4.1013 0
M  V30 933 C 92.1252 0.414035 5.89949 0
M  V30 934 H 91.0552 -0.105166 0.74663 0
M  V30 935 H 93.7062 0.443429 1.78062 0
M  V30 936 H 92.0882 -1.30915 3.73734 0
M  V30 937 H 93.2622 1.4804 4.36372 0
M  V30 938 H 91.5772 1.18698 3.99124 0
M  V30 939 H 94.1742 -1.3277 5.17954 0
M  V30 940 H 94.5172 -2.04656 3.62521 0
M  V30 941 H 95.0502 -0.381038 3.95971 0
M  V30 942 H 91.7892 1.33481 6.41766 0
M  V30 943 H 91.3092 -0.323336 5.98928 0
M  V30 944 H 92.9882 0.0263105 6.46995 0
M  V30 945 N 93.1203 -1.57491 0.0584922 0
M  V30 946 C 94.3603 -1.94851 -0.617458 0
M  V30 947 C 94.7243 -0.937165 -1.67575 0
M  V30 948 O 95.9253 -1.19795 -2.40629 0
M  V30 949 C 94.1963 -3.36955 -1.19147 0
M  V30 950 S 95.7553 -3.96277 -1.8844 0
M  V30 951 H 92.5733 -0.681539 -0.202547 0
M  V30 952 H 95.1753 -1.95073 0.129176 0
M  V30 953 H 93.8793 -4.08355 -0.409215 0
M  V30 954 H 93.4103 -3.40245 -1.97476 0
M  V30 955 H 95.4253 -3.82099 -3.16568 0
M  V30 956 N 94.5984 0.214957 -1.56127 0
M  V30 957 C 96.0094 0.781386 -1.69562 0
M  V30 958 C 96.3604 1.84707 -0.66165 0
M  V30 959 O 95.4854 2.156 0.185927 0
M  V30 960 C 96.0804 1.42411 -3.07416 0
M  V30 961 C 94.6394 1.93786 -3.22683 0
M  V30 962 C 93.7864 0.800438 -2.65496 0
M  V30 963 H 96.7374 -0.00980633 -1.58697 0
M  V30 964 H 96.7584 2.29309 -3.0364 0
M  V30 965 H 96.2704 0.64826 -3.82648 0
M  V30 966 H 94.3714 2.74152 -2.52332 0
M  V30 967 H 94.4844 2.1133 -4.29973 0
M  V30 968 H 92.8484 1.2095 -2.2415 0
M  V30 969 H 93.6314 0.0371471 -3.4328 0
M  V30 970 N 96.0765 1.50051 0.48192 0
M  V30 971 C 97.0085 1.64263 1.59844 0
M  V30 972 C 98.0215 0.52451 1.54119 0
M  V30 973 O 99.2105 0.797293 1.59704 0
M  V30 974 C 96.3105 1.60102 2.98698 0
M  V30 975 C 95.4835 2.87767 3.29407 0
M  V30 976 C 94.5425 2.76397 4.47762 0
M  V30 977 O 93.5685 3.50348 4.48603 0
M  V30 978 N 94.7705 1.89222 5.48794 0
M  V30 979 H 97.5355 2.60566 1.48073 0
M  V30 980 H 95.0965 1.47379 0.670149 0
M  V30 981 H 97.0885 1.50123 3.75826 0
M  V30 982 H 95.6585 0.715798 3.04294 0
M  V30 983 H 94.8785 3.11954 2.40994 0
M  V30 984 H 96.1665 3.72365 3.4673 0
M  V30 985 H 95.5645 1.28434 5.50928 0
M  V30 986 H 94.1215 1.85154 6.24949 0
M  V30 987 N 97.5546 -0.734337 1.39446 0
M  V30 988 C 98.7796 -1.52866 1.40167 0
M  V30 989 C 99.2046 -1.881 -0.00171513 0
M  V30 990 O 98.5626 -1.51957 -0.988879 0
M  V30 991 C 98.6106 -2.79235 2.28167 0
M  V30 992 O 97.7146 -3.75185 1.71201 0
M  V30 993 H 97.0556 -0.461618 0.477289 0
M  V30 994 H 99.5856 -0.905949 1.8345 0
M  V30 995 H 99.5956 -3.27963 2.42702 0
M  V30 996 H 98.2706 -2.52923 3.30156 0
M  V30 997 H 96.8476 -3.33958 1.65912 0
M  V30 998 N 99.0327 -1.24633 -0.964593 0
M  V30 999 C 99.9797 -1.04144 -2.05968 0
M  V30 1000 C 100.95 0.046262 -1.66036 0
M  V30 1001 O 102.135 -0.108972 -1.90489 0
M  V30 1002 C 99.2747 -0.65563 -3.38815 0
M  V30 1003 C 98.3877 -1.81714 -3.91923 0
M  V30 1004 C 97.5227 -1.37662 -5.13052 0
M  V30 1005 C 96.5617 -2.50788 -5.58365 0
M  V30 1006 N 95.6987 -2.07582 -6.70712 0
M  V30 1007 H 100.539 -1.9787 -2.22827 0
M  V30 1008 H 98.0757 -0.9855 -1.09208 0
M  V30 1009 H 100.034 -0.412954 -4.15151 0
M  V30 1010 H 98.6637 0.244627 -3.21872 0
M  V30 1011 H 97.7157 -2.1734 -3.12198 0
M  V30 1012 H 99.0277 -2.66705 -4.21509 0
M  V30 1013 H 98.1817 -1.093 -5.96773 0
M  V30 1014 H 96.9207 -0.497293 -4.85158 0
M  V30 1015 H 95.9257 -2.79906 -4.73215 0
M  V30 1016 H 97.1507 -3.39283 -5.88272 0
M  V30 1017 H 95.0967 -1.22051 -6.44546 0
M  V30 1018 H 95.0137 -2.86125 -6.99763 0
M  V30 1019 H 96.2817 -1.82369 -7.57867 0
M  V30 1020 N 100.511 1.16574 -1.06058 0
M  V30 1021 C 101.474 2.19085 -0.673392 0
M  V30 1022 C 102.474 1.5835 0.279648 0
M  V30 1023 O 103.664 1.74088 0.0623488 0
M  V30 1024 C 100.796 3.40899 0.00954234 0
M  V30 1025 H 101.989 2.54853 -1.58081 0
M  V30 1026 H 99.5418 1.30808 -0.855516 0
M  V30 1027 H 100.277 3.10684 0.929826 0
M  V30 1028 H 100.062 3.86233 -0.67573 0
M  V30 1029 H 101.552 4.1675 0.266245 0
M  V30 1030 N 101.989 0.842826 1.3317 0
M  V30 1031 C 102.921 0.236245 2.27979 0
M  V30 1032 C 103.934 -0.585282 1.51915 0
M  V30 1033 O 105.123 -0.411705 1.73687 0
M  V30 1034 C 102.223 -0.685717 3.3189 0
M  V30 1035 C 101.396 0.0973448 4.37292 0
M  V30 1036 C 100.455 -0.748565 5.20848 0
M  V30 1037 O 99.4809 -0.186339 5.68895 0
M  V30 1038 N 100.683 -2.06527 5.42519 0
M  V30 1039 H 103.448 1.05088 2.80672 0
M  V30 1040 H 101.009 0.701667 1.45905 0
M  V30 1041 H 103.001 -1.25669 3.84694 0
M  V30 1042 H 101.571 -1.40105 2.79445 0
M  V30 1043 H 100.791 0.849706 3.84933 0
M  V30 1044 H 102.079 0.635643 5.04814 0
M  V30 1045 H 101.477 -2.54554 5.05192 0
M  V30 1046 H 100.034 -2.58464 5.98364 0
M  V30 1047 N 103.467 -1.45747 0.599634 0
M  V30 1048 C 104.883 -1.57424 0.26264 0
M  V30 1049 C 105.083 -1.59222 -1.23493 0
M  V30 1050 O 104.139 -1.51825 -2.01756 0
M  V30 1051 C 105.452 -2.86061 0.926795 0
M  V30 1052 C 107 -2.99722 0.901967 0
M  V30 1053 C 107.475 -4.31119 1.54598 0
M  V30 1054 N 108.966 -4.37858 1.5111 0
M  V30 1055 C 109.701 -5.3818 1.97863 0
M  V30 1056 N 109.197 -6.45083 2.52666 0
M  V30 1057 N 110.99 -5.29487 1.88679 0
M  V30 1058 H 103.141 -1.42823 1.57211 0
M  V30 1059 H 105.404 -0.68235 0.658105 0
M  V30 1060 H 105.11 -2.90605 1.98095 0
M  V30 1061 H 104.984 -3.74563 0.445238 0
M  V30 1062 H 107.371 -2.9475 -0.143617 0
M  V30 1063 H 107.452 -2.12652 1.42171 0
M  V30 1064 H 107.096 -4.36849 2.59085 0
M  V30 1065 H 107.026 -5.16992 1.00132 0
M  V30 1066 H 109.517 -3.61209 1.11068 0
M  V30 1067 H 109.83 -7.17869 2.86155 0
M  V30 1068 H 108.175 -6.45856 2.56701 0
M  V30 1069 H 111.366 -4.44877 1.4561 0
M  V30 1070 H 111.539 -6.07524 2.25429 0
M  V30 1071 N 104.945 -0.338344 -1.53925 0
M  V30 1072 C 106.185 0.260168 -2.02737 0
M  V30 1073 C 106.549 1.48181 -1.22092 0
M  V30 1074 O 107.75 2.15416 -1.60777 0
M  V30 1075 C 106.021 0.571627 -3.52799 0
M  V30 1076 S 107.58 1.14769 -4.23525 0
M  V30 1077 H 104.398 0.077791 -0.706732 0
M  V30 1078 H 107 -0.474899 -1.89644 0
M  V30 1079 H 105.704 -0.325392 -4.09108 0
M  V30 1080 H 105.235 1.3365 -3.70002 0
M  V30 1081 H 107.25 2.43372 -4.32417 0
M  V30 1082 N 106.423 1.57458 -0.0668435 0
M  V30 1083 C 107.355 2.09413 0.931601 0
M  V30 1084 C 108.368 1.02522 1.26464 0
M  V30 1085 O 109.557 1.30049 1.22269 0
M  V30 1086 C 106.657 2.53537 2.24882 0
M  V30 1087 C 105.83 3.83944 2.09537 0
M  V30 1088 C 104.889 4.14214 3.2452 0
M  V30 1089 O 103.915 4.83891 2.9973 0
M  V30 1090 N 105.117 3.67367 4.49469 0
M  V30 1091 H 107.882 2.95699 0.488048 0
M  V30 1092 H 105.443 1.61462 0.119009 0
M  V30 1093 H 107.435 2.70853 3.00701 0
M  V30 1094 H 106.005 1.72415 2.60753 0
M  V30 1095 H 105.225 3.76057 1.18215 0
M  V30 1096 H 106.513 4.69312 1.96529 0
M  V30 1097 H 105.911 3.11068 4.72497 0
M  V30 1098 H 104.468 3.89891 5.2233 0
M  V30 1099 N 107.901 -0.206675 1.56239 0
M  V30 1100 C 109.312 -0.772383 1.69974 0
M  V30 1101 C 109.663 -1.84353 0.671436 0
M  V30 1102 O 108.788 -2.15695 -0.174491 0
M  V30 1103 C 109.383 -1.40779 3.08167 0
M  V30 1104 C 107.942 -1.92072 3.23706 0
M  V30 1105 C 107.089 -0.786347 2.65917 0
M  V30 1106 H 110.04 0.0182223 1.5869 0
M  V30 1107 H 110.061 -2.27696 3.04852 0
M  V30 1108 H 109.573 -0.627958 3.82986 0
M  V30 1109 H 107.674 -2.7281 2.53782 0
M  V30 1110 H 107.787 -2.09046 4.31087 0
M  V30 1111 H 106.151 -1.1976 2.24788 0
M  V30 1112 H 106.934 -0.0189416 3.43295 0
M  V30 1113 N 109.379 -1.50304 -0.473955 0
M  V30 1114 C 110.327 -1.69482 -1.59307 0
M  V30 1115 C 111.321 -0.560669 -1.59853 0
M  V30 1116 O 112.527 -0.741087 -1.64036 0
M  V30 1117 H 108.902 -0.534892 -0.528578 0
M  V30 1118 H 110.873 -2.63364 -1.40293 0
M  V30 1119 C 109.622 -1.80354 -2.97267 0
M  V30 1120 H 108.945 -2.67012 -2.97564 0
M  V30 1121 H 110.385 -1.97798 -3.75036 0
M  V30 1122 C 108.844 -0.55448 -3.32306 0
M  V30 1123 O 109.374 0.307661 -4.0052 0
M  V30 1124 N 107.58 -0.409354 -2.87702 0
M  V30 1125 H 107.127 -1.11196 -2.32364 0
M  V30 1126 H 107.085 0.425223 -3.11511 0
M  V30 1127 N 110.857 0.726932 -1.39834 0
M  V30 1128 C 111.767 1.87131 -1.41489 0
M  V30 1129 C 112.783 1.71239 -0.308757 0
M  V30 1130 O 113.959 1.93701 -0.551529 0
M  V30 1131 C 111.024 3.22811 -1.26468 0
M  V30 1132 C 110.085 3.51039 -2.47124 0
M  V30 1133 C 109.318 4.80245 -2.3281 0
M  V30 1134 O 109.541 5.54537 -1.33585 0
M  V30 1135 O 108.475 5.08554 -3.21957 0
M  V30 1136 H 112.301 1.8869 -2.3797 0
M  V30 1137 H 109.886 0.875837 -1.21035 0
M  V30 1138 H 111.768 4.03877 -1.20255 0
M  V30 1139 H 110.443 3.22005 -0.330862 0
M  V30 1140 H 109.35 2.70027 -2.58914 0
M  V30 1141 H 110.683 3.56632 -3.39227 0
M  V30 1142 N 112.336 1.25143 0.95797 0
M  V30 1143 C 113.286 1.01924 2.0395 0
M  V30 1144 C 114.27 -0.0427175 1.60843 0
M  V30 1145 O 115.462 0.17221 1.7616 0
M  V30 1146 C 112.591 0.636373 3.3735 0
M  V30 1147 C 111.677 1.73492 3.8699 0
M  V30 1148 N 112.068 2.96945 4.0946 0
M  V30 1149 C 110.366 1.61467 4.15746 0
M  V30 1150 C 111.067 3.68228 4.50315 0
M  V30 1151 N 110.043 2.95833 4.56053 0
M  V30 1152 H 113.845 1.95653 2.19311 0
M  V30 1153 H 111.359 1.15413 1.14253 0
M  V30 1154 H 113.356 0.451233 4.14451 0
M  V30 1155 H 112.016 -0.293621 3.2337 0
M  V30 1156 H 113.027 3.33025 3.96629 0
M  V30 1157 H 109.704 0.753394 4.10646 0
M  V30 1158 H 111.094 4.74178 4.76031 0
M  V30 1159 N 113.814 -1.1601 1.06675 0
M  V30 1160 C 114.762 -2.22586 0.675157 0
M  V30 1161 C 115.756 -1.66525 -0.310766 0
M  V30 1162 O 116.962 -1.79145 -0.175215 0
M  V30 1163 H 113.337 -0.724855 0.200223 0
M  V30 1164 H 115.308 -2.52899 1.58381 0
M  V30 1165 C 114.057 -3.47604 0.0817162 0
M  V30 1166 H 113.38 -3.91058 0.831484 0
M  V30 1167 H 114.82 -4.23718 -0.154708 0
M  V30 1168 C 113.279 -3.15718 -1.17576 0
M  V30 1169 O 113.809 -3.31878 -2.26318 0
M  V30 1170 N 112.015 -2.69816 -1.07923 0
M  V30 1171 H 111.562 -2.56866 -0.194293 0
M  V30 1172 H 111.52 -2.48855 -1.92141 0
M  V30 1173 N 115.292 -0.849877 -1.32721 0
M  V30 1174 C 116.532 -0.457146 -1.99222 0
M  V30 1175 C 116.896 0.968038 -1.6581 0
M  V30 1176 O 118.097 1.46507 -2.25364 0
M  V30 1177 C 116.368 -0.683966 -3.50794 0
M  V30 1178 S 117.927 -0.388095 -4.3708 0
M  V30 1179 H 114.745 -0.171464 -0.690015 0
M  V30 1180 H 117.347 -1.10155 -1.61512 0
M  V30 1181 H 116.051 -1.72038 -3.726 0
M  V30 1182 H 115.582 -0.0258086 -3.93392 0
M  V30 1183 H 117.597 0.787791 -4.89906 0
M  V30 1184 N 116.77 1.45427 -0.607355 0
M  V30 1185 C 117.7 2.3329 0.0989352 0
M  V30 1186 C 118.681 1.46816 0.859007 0
M  V30 1187 O 119.866 1.75588 0.829604 0
M  V30 1188 C 116.996 3.29518 1.09705 0
M  V30 1189 C 115.95 4.25626 0.450206 0
M  V30 1190 C 115.276 5.11542 1.55655 0
M  V30 1191 C 116.576 5.18505 -0.628455 0
M  V30 1192 H 118.27 2.92595 -0.634716 0
M  V30 1193 H 115.816 1.40696 -0.306681 0
M  V30 1194 H 117.769 3.89855 1.59971 0
M  V30 1195 H 116.493 2.68372 1.86129 0
M  V30 1196 H 115.152 3.66586 -0.0315886 0
M  V30 1197 H 114.8 4.46765 2.31107 0
M  V30 1198 H 114.5 5.76647 1.12925 0
M  V30 1199 H 116.024 5.74748 2.06148 0
M  V30 1200 H 117.438 5.72916 -0.209877 0
M  V30 1201 H 115.835 5.92085 -0.977489 0
M  V30 1202 H 116.905 4.60948 -1.50514 0
M  V30 1203 N 118.248 0.346503 1.53744 0
M  V30 1204 C 119.496 -0.248612 2.00565 0
M  V30 1205 C 119.817 -1.5083 1.23593 0
M  V30 1206 O 119.087 -1.92858 0.343912 0
M  V30 1207 H 117.667 -0.0948564 0.740953 0
M  V30 1208 H 120.329 0.468341 1.89189 0
M  V30 1209 H 119.425 -0.488994 3.08245 0
M  V30 1210 N 119.726 -1.57421 0.075193 0
M  V30 1211 C 120.954 -1.97946 -0.602076 0
M  V30 1212 C 121.369 -0.953674 -1.62943 0
M  V30 1213 O 120.726 0.0592551 -1.82404 0
M  V30 1214 C 120.777 -3.38546 -1.26762 0
M  V30 1215 O 120.498 -4.37195 -0.281376 0
M  V30 1216 C 121.999 -3.93966 -2.03239 0
M  V30 1217 H 119.219 -0.650918 -0.162931 0
M  V30 1218 H 121.763 -2.03959 0.148601 0
M  V30 1219 H 119.918 -3.33609 -1.96936 0
M  V30 1220 H 120.332 -5.18975 -0.759267 0
M  V30 1221 H 121.806 -4.94555 -2.45193 0
M  V30 1222 H 122.283 -3.30693 -2.8903 0
M  V30 1223 H 122.889 -4.02315 -1.37924 0
M  V30 1224 N 121.204 0.198386 -1.56346 0
M  V30 1225 C 122.114 1.2664 -1.97483 0
M  V30 1226 C 123.13 1.49989 -0.882002 0
M  V30 1227 O 124.306 1.62668 -1.18748 0
M  V30 1228 C 121.371 2.59141 -2.30319 0
M  V30 1229 C 120.432 2.43892 -3.53292 0
M  V30 1230 C 119.665 3.70074 -3.84553 0
M  V30 1231 O 119.888 4.74101 -3.1715 0
M  V30 1232 O 118.822 3.658 -4.7799 0
M  V30 1233 H 122.648 0.947304 -2.88548 0
M  V30 1234 H 120.233 0.403123 -1.43859 0
M  V30 1235 H 122.115 3.37352 -2.5253 0
M  V30 1236 H 120.79 2.90684 -1.42423 0
M  V30 1237 H 119.697 1.63803 -3.36332 0
M  V30 1238 H 121.03 2.17282 -4.41644 0
M  V30 1239 N 122.682 1.50554 0.465978 0
M  V30 1240 C 123.612 1.72722 1.57128 0
M  V30 1241 C 124.593 0.576294 1.6004 0
M  V30 1242 O 125.778 0.81598 1.76225 0
M  V30 1243 C 122.908 1.82605 2.95419 0
M  V30 1244 C 121.862 2.97835 3.07373 0
M  V30 1245 C 121.188 2.92867 4.47363 0
M  V30 1246 C 122.488 4.38265 2.84114 0
M  V30 1247 H 124.182 2.65267 1.38829 0
M  V30 1248 H 121.728 1.2765 0.666441 0
M  V30 1249 H 123.681 1.96698 3.72677 0
M  V30 1250 H 122.405 0.866858 3.14886 0
M  V30 1251 H 121.064 2.83401 2.3255 0
M  V30 1252 H 120.712 1.94783 4.63755 0
M  V30 1253 H 120.412 3.70227 4.56296 0
M  V30 1254 H 121.936 3.09015 5.26633 0
M  V30 1255 H 123.35 4.53198 3.51118 0
M  V30 1256 H 121.747 5.17115 3.04487 0
M  V30 1257 H 122.817 4.50281 1.7993 0
M  V30 1258 N 124.16 -0.719506 1.40217 0
M  V30 1259 C 125.4 -1.49181 1.39729 0
M  V30 1260 C 125.764 -1.92 -0.00250614 0
M  V30 1261 O 126.965 -2.68473 -0.132479 0
M  V30 1262 C 125.236 -2.68767 2.35582 0
M  V30 1263 S 126.795 -3.58224 2.53418 0
M  V30 1264 H 123.613 -0.510091 0.495307 0
M  V30 1265 H 126.215 -0.841724 1.76452 0
M  V30 1266 H 124.919 -2.35475 3.36124 0
M  V30 1267 H 124.45 -3.38691 2.0013 0
M  V30 1268 H 126.465 -4.63033 1.78367 0
M  V30 1269 N 125.638 -1.25649 -0.95132 0
M  V30 1270 C 126.884 -1.10757 -1.69884 0
M  V30 1271 C 127.217 0.350061 -1.91019 0
M  V30 1272 O 126.492 1.25783 -1.48354 0
M  V30 1273 C 126.775 -1.86606 -3.07978 0
M  V30 1274 C 126.628 -3.40217 -2.94232 0
M  V30 1275 C 127.947 -1.65182 -4.07925 0
M  V30 1276 H 125.066 -0.40374 -0.616574 0
M  V30 1277 H 127.708 -1.54521 -1.10558 0
M  V30 1278 H 125.858 -1.49409 -3.58621 0
M  V30 1279 H 127.53 -3.87108 -2.50889 0
M  V30 1280 H 125.773 -3.67759 -2.30078 0
M  V30 1281 H 126.444 -3.88505 -3.92133 0
M  V30 1282 H 128.92 -1.9757 -3.66204 0
M  V30 1283 H 127.796 -2.20683 -5.02583 0
M  V30 1284 H 128.057 -0.593933 -4.38092 0
M  V30 1285 N 127.117 1.15442 -1.07289 0
M  V30 1286 C 128.528 1.67803 -0.818475 0
M  V30 1287 C 128.879 1.8489 0.656507 0
M  V30 1288 O 128.004 1.55176 1.50829 0
M  V30 1289 C 128.599 3.04805 -1.47917 0
M  V30 1290 C 127.158 3.54245 -1.27229 0
M  V30 1291 C 126.305 2.29986 -1.54925 0
M  V30 1292 H 129.256 0.996646 -1.23502 0
M  V30 1293 H 129.277 3.69702 -0.90005 0
M  V30 1294 H 128.789 2.92336 -2.55267 0
M  V30 1295 H 126.89 3.71956 -0.21899 0
M  V30 1296 H 127.003 4.35723 -1.99203 0
M  V30 1297 H 125.367 2.35496 -0.970242 0
M  V30 1298 H 126.15 2.20105 -2.63455 0
M  V30 1299 N 128.595 0.856903 1.32268 0
M  V30 1300 C 129.528 0.247937 2.26849 0
M  V30 1301 C 130.506 -0.615382 1.50505 0
M  V30 1302 O 131.69 -0.571689 1.79622 0
M  V30 1303 C 128.817 -0.650093 3.32403 0
M  V30 1304 C 127.863 0.140138 4.2627 0
M  V30 1305 S 128.696 1.51004 5.13769 0
M  V30 1306 C 129.852 0.61778 6.22844 0
M  V30 1307 H 130.085 1.04971 2.78152 0
M  V30 1308 H 127.618 0.654665 1.39834 0
M  V30 1309 H 129.576 -1.16256 3.93694 0
M  V30 1310 H 128.237 -1.4257 2.7988 0
M  V30 1311 H 127.43 -0.543945 5.01056 0
M  V30 1312 H 127.032 0.584267 3.69408 0
M  V30 1313 H 129.324 -0.177053 6.77269 0
M  V30 1314 H 130.267 1.33636 6.95375 0
M  V30 1315 H 130.675 0.191124 5.64176 0
M  V30 1316 N 130.073 -1.45103 0.615059 0
M  V30 1317 C 131.298 -2.07064 0.117988 0
M  V30 1318 C 131.723 -1.4554 -1.19163 0
M  V30 1319 O 131.081 -0.550855 -1.72729 0
M  V30 1320 C 131.129 -3.606 -0.000288387 0
M  V30 1321 O 130.233 -3.98847 -1.04856 0
M  V30 1322 H 129.574 -0.659467 0.0774581 0
M  V30 1323 H 132.104 -1.86236 0.847186 0
M  V30 1324 H 132.114 -4.07529 -0.196091 0
M  V30 1325 H 130.789 -4.04765 0.955932 0
M  V30 1326 H 129.366 -3.63577 -0.828619 0
M  V30 1327 N 131.551 -0.354651 -1.53558 0
M  V30 1328 C 132.967 -0.00315426 -1.596 0
M  V30 1329 C 133.167 1.47741 -1.37021 0
M  V30 1330 O 132.223 2.23759 -1.16996 0
M  V30 1331 C 133.536 -0.44929 -2.97325 0
M  V30 1332 C 135.084 -0.402578 -3.104 0
M  V30 1333 C 135.559 -0.824355 -4.5052 0
M  V30 1334 N 137.05 -0.778979 -4.56603 0
M  V30 1335 C 137.785 -1.07715 -5.63192 0
M  V30 1336 N 137.281 -1.44405 -6.77583 0
M  V30 1337 N 139.074 -1.00066 -5.53121 0
M  V30 1338 H 131.225 -1.31893 -1.66487 0
M  V30 1339 H 133.488 -0.538388 -0.780284 0
M  V30 1340 H 133.194 -1.48202 -3.1895 0
M  V30 1341 H 133.068 0.169772 -3.76818 0
M  V30 1342 H 135.455 0.621004 -2.88492 0
M  V30 1343 H 135.536 -1.05699 -2.32941 0
M  V30 1344 H 135.18 -1.846 -4.73165 0
M  V30 1345 H 135.11 -0.147304 -5.26394 0
M  V30 1346 H 137.601 -0.508528 -3.74463 0
M  V30 1347 H 137.914 -1.65612 -7.54846 0
M  V30 1348 H 136.259 -1.4826 -6.79002 0
M  V30 1349 H 139.45 -0.713293 -4.62633 0
M  V30 1350 H 139.623 -1.23638 -6.36096 0
M  V30 1351 N 133.029 1.57378 -0.0835403 0
M  V30 1352 C 133.959 2.1641 0.87686 0
M  V30 1353 C 134.94 1.09429 1.30228 0
M  V30 1354 O 136.125 1.37516 1.37124 0
M  V30 1355 C 133.255 2.73517 2.14022 0
M  V30 1356 C 132.209 3.85769 1.85381 0
M  V30 1357 C 131.535 4.29529 3.18448 0
M  V30 1358 C 132.835 5.09486 1.14984 0
M  V30 1359 H 134.529 2.96914 0.385059 0
M  V30 1360 H 132.075 1.42823 0.18377 0
M  V30 1361 H 134.028 3.13463 2.81636 0
M  V30 1362 H 132.752 1.90252 2.65465 0
M  V30 1363 H 131.411 3.46345 1.20169 0
M  V30 1364 H 131.059 3.43169 3.67755 0
M  V30 1365 H 130.759 5.05204 3.00071 0
M  V30 1366 H 132.283 4.72099 3.8724 0
M  V30 1367 H 133.697 5.46674 1.72687 0
M  V30 1368 H 132.094 5.90515 1.06826 0
M  V30 1369 H 133.164 4.84724 0.130749 0
M  V30 1370 N 134.507 -0.190092 1.56449 0
M  V30 1371 C 135.747 -0.916414 1.82705 0
M  V30 1372 C 136.111 -1.80235 0.661763 0
M  V30 1373 O 137.312 -2.56484 0.80433 0
M  V30 1374 C 135.583 -1.70691 3.14005 0
M  V30 1375 S 137.142 -2.48457 3.61683 0
M  V30 1376 H 133.96 -0.307281 0.64117 0
M  V30 1377 H 136.562 -0.179433 1.94675 0
M  V30 1378 H 135.266 -1.04677 3.96826 0
M  V30 1379 H 134.797 -2.48562 3.04927 0
M  V30 1380 H 136.812 -3.72756 3.27517 0
M  V30 1381 N 135.985 -1.50799 -0.457987 0
M  V30 1382 C 136.933 -1.71162 -1.575 0
M  V30 1383 C 137.927 -0.577592 -1.59249 0
M  V30 1384 O 139.133 -0.758443 -1.63241 0
M  V30 1385 H 135.508 -0.540468 -0.522875 0
M  V30 1386 H 137.479 -2.64837 -1.37492 0
M  V30 1387 C 136.228 -1.83496 -2.95338 0
M  V30 1388 H 135.551 -2.70153 -2.94716 0
M  V30 1389 H 136.991 -2.01765 -3.72917 0
M  V30 1390 C 135.45 -0.589694 -3.31699 0
M  V30 1391 O 135.98 0.265163 -4.00824 0
M  V30 1392 N 134.186 -0.439845 -2.87252 0
M  V30 1393 H 133.733 -1.13655 -2.31172 0
M  V30 1394 H 133.691 0.392159 -3.11945 0
M  V30 1395 N 137.463 0.71206 -1.40597 0
M  V30 1396 C 138.711 1.46907 -1.38791 0
M  V30 1397 C 139.032 1.94998 0.00780391 0
M  V30 1398 O 138.302 1.70587 0.963174 0
M  V30 1399 H 136.882 0.545043 -0.51082 0
M  V30 1400 H 139.544 0.843882 -1.75683 0
M  V30 1401 H 138.64 2.34021 -2.06496 0
M  V30 1402 N 138.941 1.26152 0.944643 0
M  V30 1403 C 140.187 1.11657 1.69294 0
M  V30 1404 C 140.52 -0.339926 1.91202 0
M  V30 1405 O 139.795 -1.24994 1.49019 0
M  V30 1406 C 140.078 1.88236 3.06984 0
M  V30 1407 C 139.931 3.41772 2.92424 0
M  V30 1408 C 141.25 1.67343 4.07043 0
M  V30 1409 H 138.369 0.407004 0.614424 0
M  V30 1410 H 141.011 1.55106 1.09737 0
M  V30 1411 H 139.161 1.51308 3.57824 0
M  V30 1412 H 140.833 3.88433 2.48832 0
M  V30 1413 H 139.076 3.68974 2.28124 0
M  V30 1414 H 139.747 3.90579 3.90067 0
M  V30 1415 H 142.223 1.99509 3.65151 0
M  V30 1416 H 141.099 2.23346 5.01406 0
M  V30 1417 H 141.36 0.617158 4.37771 0
M  V30 1418 N 140.419 -1.14872 1.07899 0
M  V30 1419 C 141.351 -2.19425 0.662231 0
M  V30 1420 C 142.364 -1.60231 -0.288079 0
M  V30 1421 O 143.553 -1.78336 -0.076534 0
M  V30 1422 C 140.653 -3.38867 -0.0470695 0
M  V30 1423 C 139.826 -4.27597 0.920831 0
M  V30 1424 C 138.885 -5.25616 0.247805 0
M  V30 1425 O 137.911 -5.62189 0.890599 0
M  V30 1426 N 139.113 -5.71746 -1.00435 0
M  V30 1427 H 141.878 -2.55797 1.56166 0
M  V30 1428 H 139.439 -1.30042 0.964404 0
M  V30 1429 H 141.431 -4.01497 -0.50813 0
M  V30 1430 H 140.001 -3.00864 -0.848523 0
M  V30 1431 H 139.221 -3.61982 1.56087 0
M  V30 1432 H 140.509 -4.83748 1.57688 0
M  V30 1433 H 139.907 -5.44153 -1.54642 0
M  V30 1434 H 138.464 -6.36389 -1.40899 0
M  V30 1435 N 141.898 -0.863906 -1.31812 0
M  V30 1436 C 143.175 -0.39275 -1.91616 0
M  V30 1437 C 143.555 1.12461 -1.7865 0
M  V30 1438 O 142.903 1.95045 -1.19037 0
M  V30 1439 C 143.113 -0.867385 -3.38049 0
M  V30 1440 C 144.461 -0.889966 -4.15168 0
M  V30 1441 O 145.485 -0.812635 -3.46806 0
M  V30 1442 O 144.344 -1.00079 -5.37258 0
M  V30 1443 H 141.438 -0.116358 -0.818773 0
M  V30 1444 H 143.984 -0.951418 -1.40521 0
M  V30 1445 H 142.756 -1.91081 -3.41473 0
M  V30 1446 H 142.379 -0.286687 -3.96565 0
M  V30 1447 N 143.376 1.44774 -0.622745 0
M  V30 1448 C 144.616 2.04004 -0.127102 0
M  V30 1449 C 144.98 1.47862 1.22478 0
M  V30 1450 O 146.181 1.98541 1.81204 0
M  V30 1451 C 144.452 3.57247 -0.104429 0
M  V30 1452 S 146.011 4.37574 0.327814 0
M  V30 1453 H 142.829 0.708713 -0.0569776 0
M  V30 1454 H 145.431 1.77275 -0.824253 0
M  V30 1455 H 144.135 3.95616 -1.09159 0
M  V30 1456 H 143.666 3.88575 0.614236 0
M  V30 1457 H 145.681 4.70575 1.57395 0
M  V30 1458 N 144.854 0.36279 1.53368 0
M  V30 1459 C 145.787 -0.528507 2.21996 0
M  V30 1460 C 146.765 -1.0852 1.21087 0
M  V30 1461 O 147.949 -1.14186 1.4998 0
M  V30 1462 C 145.076 -1.72893 2.91249 0
M  V30 1463 C 144.122 -1.29994 4.06207 0
M  V30 1464 S 144.955 -0.303575 5.34639 0
M  V30 1465 C 146.111 -1.51039 6.07403 0
M  V30 1466 H 146.344 0.0543423 2.9725 0
M  V30 1467 H 143.877 0.146889 1.537 0
M  V30 1468 H 145.835 -2.41751 3.31763 0
M  V30 1469 H 144.496 -2.28303 2.15724 0
M  V30 1470 H 143.689 -2.19549 4.53667 0
M  V30 1471 H 143.291 -0.690608 3.67569 0
M  V30 1472 H 145.583 -2.44186 6.31965 0
M  V30 1473 H 146.526 -1.07721 6.99858 0
M  V30 1474 H 146.934 -1.71518 5.37812 0
M  V30 1475 N 146.332 -1.57332 0.0918853 0
M  V30 1476 C 147.609 -1.85691 -0.614668 0
M  V30 1477 C 147.989 -0.988146 -1.86545 0
M  V30 1478 O 147.337 -0.0597055 -2.28422 0
M  V30 1479 C 147.547 -3.36294 -0.933126 0
M  V30 1480 C 148.895 -4.04275 -1.29796 0
M  V30 1481 O 149.919 -3.41157 -1.02424 0
M  V30 1482 O 148.778 -5.1564 -1.81047 0
M  V30 1483 H 145.872 -0.767802 -0.307261 0
M  V30 1484 H 148.418 -1.69244 0.12434 0
M  V30 1485 H 147.19 -3.91273 -0.0456404 0
M  V30 1486 H 146.813 -3.58076 -1.72822 0
M  V30 1487 N 147.81 0.181792 -1.56548 0
M  V30 1488 C 149.058 0.89832 -1.81038 0
M  V30 1489 C 149.379 1.83232 -0.667164 0
M  V30 1490 O 148.649 1.93372 0.313673 0
M  V30 1491 H 147.229 0.33471 -0.667816 0
M  V30 1492 H 149.891 0.184116 -1.94028 0
M  V30 1493 H 148.987 1.4815 -2.74696 0
M  V30 1494 N 149.288 1.51039 0.449983 0
M  V30 1495 C 150.513 1.6715 1.22783 0
M  V30 1496 C 150.938 0.363081 1.84563 0
M  V30 1497 O 150.296 -0.675433 1.68249 0
M  V30 1498 C 150.344 2.77985 2.29689 0
M  V30 1499 O 149.448 2.40707 3.34864 0
M  V30 1500 H 148.789 0.557746 0.360299 0
M  V30 1501 H 151.319 1.97535 0.533005 0
M  V30 1502 H 151.329 3.01693 2.74673 0
M  V30 1503 H 150.004 3.72935 1.84098 0
M  V30 1504 H 148.581 2.27523 2.95445 0
M  V30 1505 N 150.766 -0.704594 1.40972 0
M  V30 1506 C 152.043 -1.45847 1.30338 0
M  V30 1507 C 152.423 -2.10973 -0.0732344 0
M  V30 1508 O 151.771 -2.00997 -1.08685 0
M  V30 1509 C 151.981 -2.48525 2.45023 0
M  V30 1510 C 153.329 -3.1404 2.8577 0
M  V30 1511 O 154.353 -2.58848 2.44696 0
M  V30 1512 O 153.212 -4.13981 3.56766 0
M  V30 1513 H 150.306 -0.649092 0.512454 0
M  V30 1514 H 152.852 -0.735836 1.52917 0
M  V30 1515 H 151.624 -1.98994 3.36923 0
M  V30 1516 H 151.247 -3.2831 2.24272 0
M  V30 1517 N 152.244 -1.26651 -0.937939 0
M  V30 1518 C 153.154 -1.10276 -2.07066 0
M  V30 1519 C 154.17 -0.0354197 -1.73964 0
M  V30 1520 O 155.346 -0.239816 -1.99967 0
M  V30 1521 C 152.411 -0.740887 -3.38691 0
M  V30 1522 C 151.472 -1.88799 -3.85556 0
M  V30 1523 C 150.705 -1.54329 -5.10899 0
M  V30 1524 O 150.928 -0.446494 -5.6865 0
M  V30 1525 O 149.862 -2.37911 -5.52885 0
M  V30 1526 H 153.688 -2.05309 -2.23789 0
M  V30 1527 H 151.273 -1.05743 -1.0554 0
M  V30 1528 H 153.155 -0.55195 -4.1777 0
M  V30 1529 H 151.83 0.180022 -3.23199 0
M  V30 1530 H 150.737 -2.13191 -3.07409 0
M  V30 1531 H 152.07 -2.78874 -4.05574 0
M  V30 1532 N 153.722 1.14298 -1.08507 0
M  V30 1533 C 154.97 1.84993 -0.813763 0
M  V30 1534 C 155.291 1.83405 0.662393 0
M  V30 1535 O 154.561 1.28319 1.48024 0
M  V30 1536 H 153.141 0.684966 -0.298045 0
M  V30 1537 H 155.803 1.385 -1.37126 0
M  V30 1538 H 154.899 2.89788 -1.15884 0
M  V30 1539 N 155.201 0.870884 1.31352 0
M  V30 1540 C 156.612 0.534714 1.78879 0
M  V30 1541 C 156.963 -0.948423 1.71754 0
M  V30 1542 O 156.088 -1.74055 1.28584 0
M  V30 1543 C 156.683 0.963839 3.24801 0
M  V30 1544 C 155.242 0.679311 3.70219 0
M  V30 1545 C 154.389 1.15465 2.52117 0
M  V30 1546 H 157.34 1.05651 1.18421 0
M  V30 1547 H 157.361 0.286892 3.79417 0
M  V30 1548 H 156.873 2.04332 3.29955 0
M  V30 1549 H 154.974 -0.388769 3.70566 0
M  V30 1550 H 155.087 1.25698 4.62317 0
M  V30 1551 H 153.451 0.574383 2.48139 0
M  V30 1552 H 154.234 2.24157 2.60016 0
M  V30 1553 N 156.679 -1.44442 0.630414 0
M  V30 1554 C 157.629 -2.27794 -0.0968103 0
M  V30 1555 C 158.613 -1.38624 -0.816834 0
M  V30 1556 O 159.805 -1.62438 -0.70306 0
M  V30 1557 C 156.934 -3.25929 -1.07819 0
M  V30 1558 C 156.02 -4.22588 -0.357826 0
M  V30 1559 N 156.411 -5.0207 0.613169 0
M  V30 1560 C 154.709 -4.41914 -0.602365 0
M  V30 1561 C 155.41 -5.72351 1.03871 0
M  V30 1562 N 154.386 -5.42287 0.377642 0
M  V30 1563 H 158.188 -2.86653 0.648621 0
M  V30 1564 H 155.702 -1.55871 0.455862 0
M  V30 1565 H 157.699 -3.84399 -1.61378 0
M  V30 1566 H 156.359 -2.68631 -1.82393 0
M  V30 1567 H 157.37 -5.08331 0.990947 0
M  V30 1568 H 154.047 -3.95714 -1.33103 0
M  V30 1569 H 155.437 -6.4619 1.84086 0
M  V30 1570 N 158.157 -0.370918 -1.53173 0
M  V30 1571 C 159.397 0.217106 -2.03244 0
M  V30 1572 C 159.761 1.45558 -1.25207 0
M  V30 1573 O 160.962 2.11957 -1.65311 0
M  V30 1574 C 159.233 0.496664 -3.53932 0
M  V30 1575 S 160.792 1.0576 -4.25864 0
M  V30 1576 H 157.61 0.0627827 -0.708223 0
M  V30 1577 H 160.212 -0.515019 -1.88594 0
M  V30 1578 H 158.916 -0.412096 -4.08326 0
M  V30 1579 H 158.447 1.25772 -3.72753 0
M  V30 1580 H 160.462 2.34145 -4.37482 0
M  V30 1581 N 159.635 1.57281 -0.100228 0
M  V30 1582 C 161.051 1.57527 0.256416 0
M  V30 1583 C 161.251 1.11173 1.68056 0
M  V30 1584 O 160.307 0.79053 2.39806 0
M  V30 1585 C 161.62 3.00673 0.0401747 0
M  V30 1586 C 163.168 3.12815 0.107528 0
M  V30 1587 C 163.643 4.57929 -0.0807834 0
M  V30 1588 N 165.134 4.63193 -0.0261207 0
M  V30 1589 C 165.869 5.73212 -0.146999 0
M  V30 1590 N 165.365 6.92047 -0.322999 0
M  V30 1591 N 167.158 5.62031 -0.0879044 0
M  V30 1592 H 159.309 1.85718 -1.03065 0
M  V30 1593 H 161.572 0.857446 -0.404339 0
M  V30 1594 H 161.278 3.38804 -0.943649 0
M  V30 1595 H 161.152 3.69042 0.780262 0
M  V30 1596 H 163.539 2.74554 1.08186 0
M  V30 1597 H 163.62 2.47028 -0.664134 0
M  V30 1598 H 163.264 4.96886 -1.05201 0
M  V30 1599 H 163.194 5.21783 0.710635 0
M  V30 1600 H 165.685 3.77748 0.107161 0
M  V30 1601 H 165.998 7.7173 -0.406608 0
M  V30 1602 H 164.343 6.94074 -0.358733 0
M  V30 1603 H 167.534 4.68075 0.048498 0
M  V30 1604 H 167.707 6.47734 -0.185557 0
M  V30 1605 N 161.113 -0.173488 1.56642 0
M  V30 1606 C 162.023 -1.23482 1.99473 0
M  V30 1607 C 163.039 -1.48567 0.905752 0
M  V30 1608 O 164.215 -1.60758 1.21321 0
M  V30 1609 C 161.28 -2.55444 2.34413 0
M  V30 1610 C 160.341 -2.38241 3.57127 0
M  V30 1611 C 159.574 -3.63909 3.90392 0
M  V30 1612 O 159.797 -4.68996 3.24653 0
M  V30 1613 O 158.731 -3.58149 4.83749 0
M  V30 1614 H 162.557 -0.901279 2.90018 0
M  V30 1615 H 160.142 -0.380185 1.44482 0
M  V30 1616 H 162.024 -3.33292 2.57865 0
M  V30 1617 H 160.699 -2.88382 1.4703 0
M  V30 1618 H 159.606 -1.58431 3.38896 0
M  V30 1619 H 160.939 -2.10228 4.45045 0
M  V30 1620 N 162.591 -1.51276 -0.441967 0
M  V30 1621 C 163.521 -1.752 -1.54361 0
M  V30 1622 C 164.502 -0.601682 -1.59103 0
M  V30 1623 O 165.687 -0.843913 -1.74905 0
M  V30 1624 C 162.817 -1.87282 -2.92477 0
M  V30 1625 C 161.771 -3.02687 -3.02596 0
M  V30 1626 C 161.097 -2.99947 -4.42647 0
M  V30 1627 C 162.397 -4.4273 -2.77106 0
M  V30 1628 H 164.091 -2.67442 -1.34592 0
M  V30 1629 H 161.637 -1.28694 -0.646048 0
M  V30 1630 H 163.59 -2.02602 -3.695 0
M  V30 1631 H 162.314 -0.916844 -3.13467 0
M  V30 1632 H 160.973 -2.87065 -2.28012 0
M  V30 1633 H 160.621 -2.02136 -4.60597 0
M  V30 1634 H 160.321 -3.77439 -4.50348 0
M  V30 1635 H 161.845 -3.17354 -5.2165 0
M  V30 1636 H 163.259 -4.58727 -3.43864 0
M  V30 1637 H 161.656 -5.21893 -2.96222 0
M  V30 1638 H 162.726 -4.53087 -1.72744 0
M  V30 1639 N 164.069 0.697108 -1.41344 0
M  V30 1640 C 165.001 1.8224 -1.39001 0
M  V30 1641 C 166.014 1.60152 -0.292428 0
M  V30 1642 O 167.203 1.69684 -0.554048 0
M  V30 1643 C 164.303 3.18976 -1.14489 0
M  V30 1644 C 163.476 3.68105 -2.36258 0
M  V30 1645 C 162.535 4.83506 -2.07625 0
M  V30 1646 O 161.561 4.95201 -2.8065 0
M  V30 1647 N 162.763 5.70637 -1.06555 0
M  V30 1648 H 165.528 1.84742 -2.35988 0
M  V30 1649 H 163.089 0.87937 -1.35936 0
M  V30 1650 H 165.081 3.93801 -0.932885 0
M  V30 1651 H 163.651 3.11508 -0.261043 0
M  V30 1652 H 162.871 2.84204 -2.7317 0
M  V30 1653 H 164.159 3.97667 -3.17393 0
M  V30 1654 H 163.557 5.63817 -0.461125 0
M  V30 1655 H 162.114 6.45368 -0.913444 0
M  V30 1656 N 165.547 1.27147 0.931209 0
M  V30 1657 C 166.795 1.13055 1.6752 0
M  V30 1658 C 167.116 -0.324791 1.92276 0
M  V30 1659 O 166.386 -1.22775 1.52654 0
M  V30 1660 H 164.966 0.415391 0.620854 0
M  V30 1661 H 167.628 1.59623 1.11833 0
M  V30 1662 H 166.724 1.65694 2.64485 0
M  V30 1663 N 167.025 -1.13721 1.09112 0
M  V30 1664 C 167.973 -2.21103 0.722219 0
M  V30 1665 C 168.967 -1.67147 -0.275374 0
M  V30 1666 O 170.173 -1.79477 -0.137176 0
M  V30 1667 H 166.548 -0.720445 0.215553 0
M  V30 1668 H 168.519 -2.49483 1.63709 0
M  V30 1669 C 167.268 -3.47352 0.15543 0
M  V30 1670 H 166.591 -3.89206 0.914246 0
M  V30 1671 H 168.031 -4.2395 -0.0647967 0
M  V30 1672 C 166.49 -3.1814 -1.10852 0
M  V30 1673 O 167.02 -3.36604 -2.19227 0
M  V30 1674 N 165.226 -2.72045 -1.02176 0
M  V30 1675 H 164.773 -2.57221 -0.139764 0
M  V30 1676 H 164.731 -2.52875 -1.8682 0
M  V30 1677 N 168.503 -0.877838 -1.30888 0
M  V30 1678 C 169.743 -0.499301 -1.98208 0
M  V30 1679 C 170.107 0.932649 -1.67826 0
M  V30 1680 O 171.308 1.41694 -2.28421 0
M  V30 1681 C 169.579 -0.758221 -3.49265 0
M  V30 1682 S 171.138 -0.480719 -4.36159 0
M  V30 1683 H 167.956 -0.186062 -0.686223 0
M  V30 1684 H 170.558 -1.13556 -1.59139 0
M  V30 1685 H 169.262 -1.79903 -3.68867 0
M  V30 1686 H 168.793 -0.109247 -3.93248 0
M  V30 1687 H 170.808 0.683698 -4.91467 0
M  V30 1688 N 169.982 1.44106 -0.638065 0
M  V30 1689 C 171.207 2.0685 -0.150916 0
M  V30 1690 C 171.632 1.47417 1.16833 0
M  V30 1691 O 170.99 0.578264 1.71831 0
M  V30 1692 C 171.038 3.60555 -0.05708 0
M  V30 1693 O 170.142 4.00465 0.984972 0
M  V30 1694 H 169.483 0.658151 -0.0879399 0
M  V30 1695 H 172.013 1.84865 -0.876707 0
M  V30 1696 H 172.023 4.07789 0.131232 0
M  V30 1697 H 170.698 4.03193 -1.02021 0
M  V30 1698 H 169.275 3.64849 0.770672 0
M  V30 1699 N 171.46 0.379036 1.52974 0
M  V30 1700 C 172.876 0.0285448 1.59574 0
M  V30 1701 C 173.076 -1.45542 1.39355 0
M  V30 1702 O 172.132 -2.2187 1.20541 0
M  V30 1703 C 173.445 0.496535 2.96572 0
M  V30 1704 C 174.993 0.451909 3.0972 0
M  V30 1705 C 175.468 0.895924 4.49152 0
M  V30 1706 N 176.959 0.851522 4.55306 0
M  V30 1707 C 177.694 1.16661 5.61407 0
M  V30 1708 N 177.19 1.55166 6.752 0
M  V30 1709 N 178.983 1.08853 5.51459 0
M  V30 1710 H 171.134 1.34525 1.64367 0
M  V30 1711 H 173.397 0.550733 0.771619 0
M  V30 1712 H 173.103 1.53258 3.16552 0
M  V30 1713 H 172.977 -0.109802 3.7704 0
M  V30 1714 H 175.364 -0.575029 2.89443 0
M  V30 1715 H 175.445 1.09392 2.3123 0
M  V30 1716 H 175.089 1.92104 4.70168 0
M  V30 1717 H 175.019 0.23103 5.26093 0
M  V30 1718 H 177.51 0.568038 3.73606 0
M  V30 1719 H 177.823 1.776 7.52116 0
M  V30 1720 H 176.168 1.59044 6.76557 0
M  V30 1721 H 179.359 0.786803 4.6144 0
M  V30 1722 H 179.532 1.33742 6.34048 0
M  V30 1723 N 172.938 -1.57226 0.108567 0
M  V30 1724 C 173.868 -2.17778 -0.84232 0
M  V30 1725 C 174.849 -1.11487 -1.2847 0
M  V30 1726 O 176.034 -1.39681 -1.34918 0
M  V30 1727 C 173.164 -2.76888 -2.09644 0
M  V30 1728 C 172.118 -3.88669 -1.79221 0
M  V30 1729 C 171.444 -4.34541 -3.11574 0
M  V30 1730 C 172.744 -5.11251 -1.06864 0
M  V30 1731 H 174.438 -2.97489 -0.337774 0
M  V30 1732 H 171.984 -1.43097 -0.161025 0
M  V30 1733 H 173.937 -3.17904 -2.76614 0
M  V30 1734 H 172.661 -1.94451 -2.62405 0
M  V30 1735 H 171.32 -3.48213 -1.14644 0
M  V30 1736 H 170.968 -3.48977 -3.62249 0
M  V30 1737 H 170.668 -5.09914 -2.91996 0
M  V30 1738 H 172.192 -4.782 -3.7968 0
M  V30 1739 H 173.606 -5.49352 -1.63968 0
M  V30 1740 H 172.003 -5.9214 -0.974178 0
M  V30 1741 H 173.073 -4.8487 -0.0536168 0
M  V30 1742 N 174.416 0.165178 -1.56732 0
M  V30 1743 C 175.664 0.879068 -1.8198 0
M  V30 1744 C 175.985 1.82514 -0.686561 0
M  V30 1745 O 175.255 1.93694 0.293146 0
M  V30 1746 H 173.835 0.327608 -0.671329 0
M  V30 1747 H 176.497 0.163526 -1.94213 0
M  V30 1748 H 175.593 1.45228 -2.76252 0
M  V30 1749 N 175.894 1.51508 0.433938 0
M  V30 1750 C 177.134 1.66006 1.19253 0
M  V30 1751 C 177.498 0.369868 1.88404 0
M  V30 1752 O 178.699 0.39066 2.65946 0
M  V30 1753 C 176.97 2.83229 2.17981 0
M  V30 1754 S 178.529 3.18075 3.02281 0
M  V30 1755 H 175.347 0.584821 0.404358 0
M  V30 1756 H 177.949 1.89425 0.48357 0
M  V30 1757 H 176.653 3.75407 1.65824 0
M  V30 1758 H 176.184 2.6201 2.93453 0
M  V30 1759 H 178.199 2.64772 4.19655 0
M  V30 1760 N 177.372 -0.689602 1.41712 0
M  V30 1761 C 178.304 -1.815 1.39966 0
M  V30 1762 C 179.317 -1.59995 0.300917 0
M  V30 1763 O 180.506 -1.69387 0.563039 0
M  V30 1764 C 177.606 -3.18364 1.16179 0
M  V30 1765 C 176.779 -3.66847 2.38206 0
M  V30 1766 C 175.838 -4.82398 2.10186 0
M  V30 1767 O 174.864 -4.93706 2.83272 0
M  V30 1768 N 176.066 -5.70064 1.0958 0
M  V30 1769 H 178.831 -1.83488 2.36965 0
M  V30 1770 H 176.392 -0.872149 1.36401 0
M  V30 1771 H 178.384 -3.93301 0.953756 0
M  V30 1772 H 176.954 -3.11365 0.27756 0
M  V30 1773 H 176.174 -2.82751 2.74673 0
M  V30 1774 H 177.462 -3.95978 3.19498 0
M  V30 1775 H 176.86 -5.63565 0.491019 0
M  V30 1776 H 175.417 -6.44874 0.947656 0
M  V30 1777 N 178.85 -1.27639 -0.924453 0
M  V30 1778 C 179.8 -1.07295 -2.01176 0
M  V30 1779 C 180.784 5.77352e-05 -1.609 0
M  V30 1780 O 181.976 -0.218855 -1.75642 0
M  V30 1781 C 179.105 -0.725592 -3.35544 0
M  V30 1782 C 178.191 -1.83691 -3.82254 0
M  V30 1783 N 178.582 -3.07697 -4.01443 0
M  V30 1784 C 176.88 -1.72433 -4.11319 0
M  V30 1785 C 177.581 -3.80037 -4.40394 0
M  V30 1786 N 176.557 -3.0782 -4.48049 0
M  V30 1787 H 180.359 -2.01399 -2.14046 0
M  V30 1788 H 177.873 -1.18401 -1.11153 0
M  V30 1789 H 179.87 -0.560959 -4.13109 0
M  V30 1790 H 178.53 0.207782 -3.24034 0
M  V30 1791 H 179.541 -3.43424 -3.8766 0
M  V30 1792 H 176.218 -0.862005 -4.08504 0
M  V30 1793 H 177.608 -4.86632 -4.63291 0
M  V30 1794 N 180.328 1.1314 -1.09713 0
M  V30 1795 C 181.278 2.16709 -0.708593 0
M  V30 1796 C 182.262 1.58471 0.278523 0
M  V30 1797 O 183.454 1.76779 0.088427 0
M  V30 1798 C 180.583 3.43039 -0.133923 0
M  V30 1799 C 179.669 4.08277 -1.14763 0
M  V30 1800 N 180.06 4.48637 -2.33577 0
M  V30 1801 C 178.358 4.34954 -0.986446 0
M  V30 1802 C 179.059 4.9952 -2.98085 0
M  V30 1803 N 178.035 4.94561 -2.25632 0
M  V30 1804 H 181.837 2.45672 -1.61315 0
M  V30 1805 H 179.351 1.29967 -0.973775 0
M  V30 1806 H 181.348 4.16583 0.162465 0
M  V30 1807 H 180.008 3.15549 0.765447 0
M  V30 1808 H 181.019 4.41246 -2.7115 0
M  V30 1809 H 177.696 4.17258 -0.142008 0
M  V30 1810 H 179.086 5.40521 -3.99108 0
M  V30 1811 N 181.806 0.884767 1.30421 0
M  V30 1812 C 183.046 0.509806 1.9794 0
M  V30 1813 C 183.41 -0.923736 1.68319 0
M  V30 1814 O 184.611 -1.40481 2.29169 0
M  V30 1815 C 182.882 0.776732 3.48858 0
M  V30 1816 S 184.441 0.503843 4.35898 0
M  V30 1817 H 181.259 0.189699 0.685227 0
M  V30 1818 H 183.861 1.14399 1.58535 0
M  V30 1819 H 182.565 1.81857 3.67908 0
M  V30 1820 H 182.096 0.1301 3.93185 0
M  V30 1821 H 184.111 -0.657625 4.91823 0
M  V30 1822 N 183.284 -1.43765 0.645699 0
M  V30 1823 C 184.53 -2.02197 0.156271 0
M  V30 1824 C 184.863 -1.50776 -1.22393 0
M  V30 1825 O 184.138 -0.697771 -1.81553 0
M  V30 1826 C 184.421 -3.59749 0.158872 0
M  V30 1827 C 184.274 -4.21419 1.57245 0
M  V30 1828 C 185.593 -4.37149 -0.50879 0
M  V30 1829 H 182.712 -0.734694 0.0582602 0
M  V30 1830 H 185.354 -1.71157 0.824951 0
M  V30 1831 H 183.504 -3.86325 -0.410525 0
M  V30 1832 H 185.176 -4.059 2.19186 0
M  V30 1833 H 183.419 -3.78356 2.122 0
M  V30 1834 H 184.09 -5.30482 1.52619 0
M  V30 1835 H 186.566 -4.16093 -0.024412 0
M  V30 1836 H 185.442 -5.4683 -0.476213 0
M  V30 1837 H 185.703 -4.12839 -1.58165 0
M  V30 1838 N 184.763 -0.387143 -1.52771 0
M  V30 1839 C 186.174 0.0873634 -1.86495 0
M  V30 1840 C 186.525 1.46336 -1.30691 0
M  V30 1841 O 185.65 2.068 -0.637409 0
M  V30 1842 C 186.245 0.165305 -3.38396 0
M  V30 1843 C 184.804 0.584101 -3.7184 0
M  V30 1844 C 183.951 -0.255279 -2.76122 0
M  V30 1845 H 186.902 -0.605104 -1.46711 0
M  V30 1846 H 186.923 0.984848 -3.67534 0
M  V30 1847 H 186.435 -0.836301 -3.78982 0
M  V30 1848 H 184.536 1.59315 -3.36823 0
M  V30 1849 H 184.649 0.343749 -4.77865 0
M  V30 1850 H 183.013 0.279126 -2.53166 0
M  V30 1851 H 183.796 -1.25482 -3.19545 0
M  V30 1852 N 186.241 1.57166 -0.116904 0
M  V30 1853 C 187.469 1.99473 0.549383 0
M  V30 1854 C 187.884 0.996541 1.60357 0
M  V30 1855 O 187.241 -0.0108731 1.82497 0
M  V30 1856 C 187.292 3.41788 1.17741 0
M  V30 1857 O 187.013 4.37788 0.165362 0
M  V30 1858 C 188.514 3.99216 1.92722 0
M  V30 1859 H 185.734 0.655009 0.145616 0
M  V30 1860 H 188.278 2.03494 -0.202625 0
M  V30 1861 H 186.433 3.38713 1.88021 0
M  V30 1862 H 186.847 5.20806 0.621403 0
M  V30 1863 H 188.321 5.00882 2.31995 0
M  V30 1864 H 188.798 3.3824 2.80161 0
M  V30 1865 H 189.404 4.0583 1.27209 0
M  V30 1866 N 187.719 -0.156864 1.56817 0
M  V30 1867 C 188.649 -1.19589 2.00551 0
M  V30 1868 C 189.63 -1.4536 0.883426 0
M  V30 1869 O 190.815 -1.56449 1.15054 0
M  V30 1870 C 187.945 -2.53143 2.37773 0
M  V30 1871 C 186.899 -2.41913 3.53075 0
M  V30 1872 C 186.225 -3.80088 3.76081 0
M  V30 1873 C 187.525 -1.91157 4.86062 0
M  V30 1874 H 189.219 -0.832293 2.87599 0
M  V30 1875 H 186.765 -0.398918 1.38364 0
M  V30 1876 H 188.718 -3.26047 2.66967 0
M  V30 1877 H 187.442 -2.91319 1.4765 0
M  V30 1878 H 186.101 -1.71462 3.24031 0
M  V30 1879 H 185.749 -4.15683 2.83225 0
M  V30 1880 H 185.449 -3.73439 4.53671 0
M  V30 1881 H 186.973 -4.54556 4.0769 0
M  V30 1882 H 188.387 -2.53846 5.14038 0
M  V30 1883 H 186.784 -1.95422 5.67389 0
M  V30 1884 H 187.854 -0.866673 4.77092 0
M  V30 1885 N 189.197 -1.51736 -0.425897 0
M  V30 1886 C 190.474 -1.55519 -1.1863 0
M  V30 1887 C 190.854 -0.326219 -2.08564 0
M  V30 1888 O 190.202 0.688012 -2.17896 0
M  V30 1889 C 190.412 -2.87521 -1.9782 0
M  V30 1890 C 191.76 -3.39899 -2.54468 0
M  V30 1891 O 192.784 -2.89148 -2.08019 0
M  V30 1892 O 191.643 -4.2848 -3.39215 0
M  V30 1893 H 188.737 -0.625739 -0.540721 0
M  V30 1894 H 191.283 -1.64055 -0.434038 0
M  V30 1895 H 190.055 -3.68422 -1.31836 0
M  V30 1896 H 189.678 -2.822 -2.80088 0
M  V30 1897 N 190.675 0.682077 -1.42076 0
M  V30 1898 C 191.923 1.4393 -1.41876 0
M  V30 1899 C 192.244 1.94971 -0.0335599 0
M  V30 1900 O 191.514 1.72591 0.926773 0
M  V30 1901 H 190.094 0.534085 -0.522267 0
M  V30 1902 H 192.756 0.806427 -1.77434 0
M  V30 1903 H 191.852 2.29588 -2.11414 0
M  V30 1904 N 192.153 1.28127 0.917671 0
M  V30 1905 C 193.564 1.13622 1.48145 0
M  V30 1906 C 193.915 -0.275207 1.9426 0
M  V30 1907 O 193.04 -1.1691 1.82102 0
M  V30 1908 C 193.635 2.05648 2.69248 0
M  V30 1909 C 192.194 1.95219 3.21818 0
M  V30 1910 C 191.341 1.97618 1.94532 0
M  V30 1911 H 194.292 1.40874 0.730772 0
M  V30 1912 H 194.313 1.61818 3.44377 0
M  V30 1913 H 193.825 3.08365 2.35653 0
M  V30 1914 H 191.926 0.955244 3.60147 0
M  V30 1915 H 192.039 2.81976 3.87333 0
M  V30 1916 H 190.403 1.41973 2.11461 0
M  V30 1917 H 191.186 3.02007 1.63238 0
M  V30 1918 N 193.631 -1.12557 1.10312 0
M  V30 1919 C 194.859 -1.87864 0.866873 0
M  V30 1920 C 195.274 -1.79588 -0.582557 0
M  V30 1921 O 194.631 -1.16887 -1.40156 0
M  V30 1922 C 194.682 -3.37125 1.30496 0
M  V30 1923 O 194.403 -3.45201 2.69755 0
M  V30 1924 C 195.904 -4.29373 1.10243 0
M  V30 1925 H 193.124 -0.594452 0.311236 0
M  V30 1926 H 195.668 -1.42429 1.46745 0
M  V30 1927 H 193.823 -3.80109 0.748081 0
M  V30 1928 H 194.237 -4.38056 2.88457 0
M  V30 1929 H 195.711 -5.32394 1.45811 0
M  V30 1930 H 196.188 -4.39181 0.0409492 0
M  V30 1931 H 196.794 -3.92169 1.64571 0
M  V30 1932 N 195.109 -0.891671 -1.2995 0
M  V30 1933 C 196.349 -0.520296 -1.97667 0
M  V30 1934 C 196.713 0.914797 -1.68806 0
M  V30 1935 O 197.914 1.39263 -2.29911 0
M  V30 1936 C 196.185 -0.795222 -3.48441 0
M  V30 1937 S 197.744 -0.526953 -4.35624 0
M  V30 1938 H 194.562 -0.19333 -0.684211 0
M  V30 1939 H 197.164 -1.15238 -1.57926 0
M  V30 1940 H 195.868 -1.83805 -3.66938 0
M  V30 1941 H 195.399 -0.15095 -3.9311 0
M  V30 1942 H 197.414 0.631533 -4.92165 0
M  V30 1943 N 196.587 1.43421 -0.653314 0
M  V30 1944 C 197.817 2.05864 -0.174238 0
M  V30 1945 C 198.225 1.49052 1.16534 0
M  V30 1946 O 197.568 0.616481 1.73047 0
M  V30 1947 C 197.63 3.59499 -0.00875873 0
M  V30 1948 C 197.294 4.38893 -1.27364 0
M  V30 1949 C 198.291 4.70947 -2.20239 0
M  V30 1950 C 195.976 4.789 -1.51525 0
M  V30 1951 C 197.97 5.41916 -3.35568 0
M  V30 1952 C 195.657 5.49614 -2.67147 0
M  V30 1953 C 196.655 5.81044 -3.58994 0
M  V30 1954 O 196.343 6.50313 -4.72597 0
M  V30 1955 H 196.075 0.670345 -0.0872549 0
M  V30 1956 H 198.629 1.84913 -0.894226 0
M  V30 1957 H 196.859 3.79025 0.7666 0
M  V30 1958 H 198.548 4.0364 0.427687 0
M  V30 1959 H 199.314 4.40558 -2.02815 0
M  V30 1960 H 195.193 4.53843 -0.809158 0
M  V30 1961 H 198.737 5.66365 -4.07279 0
M  V30 1962 H 194.634 5.79419 -2.84505 0
M  V30 1963 H 195.402 6.68795 -4.71864 0
M  V30 1964 N 198.065 0.39524 1.52563 0
M  V30 1965 C 199.305 -0.184744 2.03563 0
M  V30 1966 C 199.669 -1.43548 1.27507 0
M  V30 1967 O 200.87 -2.093 1.68662 0
M  V30 1968 C 199.141 -0.440294 3.54678 0
M  V30 1969 S 200.7 -0.989712 4.27493 0
M  V30 1970 H 197.518 -0.0515075 0.709132 0
M  V30 1971 H 200.12 0.544957 1.87751 0
M  V30 1972 H 198.824 0.477005 4.07618 0
M  V30 1973 H 198.355 -1.19825 3.74707 0
M  V30 1974 H 200.37 -2.27155 4.41152 0
M  V30 1975 N 199.544 -1.57102 0.125237 0
M  V30 1976 C 200.492 -2.16905 -0.839927 0
M  V30 1977 C 201.486 -1.11998 -1.27094 0
M  V30 1978 O 202.692 -1.3029 -1.24195 0
M  V30 1979 H 199.067 -0.694252 -0.288995 0
M  V30 1980 H 201.038 -2.96774 -0.311115 0
M  V30 1981 C 199.787 -2.78795 -2.07771 0
M  V30 1982 H 199.11 -3.59221 -1.755 0
M  V30 1983 H 200.55 -3.2417 -2.73295 0
M  V30 1984 C 199.009 -1.76193 -2.87155 0
M  V30 1985 O 199.539 -1.21909 -3.82755 0
M  V30 1986 N 197.745 -1.45991 -2.51267 0
M  V30 1987 H 197.292 -1.90325 -1.73592 0
M  V30 1988 H 197.25 -0.775844 -3.04677 0
M  V30 1989 N 201.022 0.148545 -1.56898 0
M  V30 1990 C 202.247 0.880385 -1.87787 0
M  V30 1991 C 202.672 1.74018 -0.714093 0
M  V30 1992 O 202.03 1.78153 0.336343 0
M  V30 1993 C 202.078 1.71422 -3.17249 0
M  V30 1994 O 201.182 2.8183 -3.01074 0
M  V30 1995 H 200.523 0.245301 -0.617028 0
M  V30 1996 H 203.053 0.139826 -2.04122 0
M  V30 1997 H 203.063 2.10954 -3.49231 0
M  V30 1998 H 201.738 1.08284 -4.01556 0
M  V30 1999 H 200.315 2.45715 -2.80497 0
M  V30 2000 N 202.5 1.5196 0.417844 0
M  V30 2001 C 203.725 1.69717 1.1921 0
M  V30 2002 C 204.15 0.402148 1.83751 0
M  V30 2003 O 203.508 -0.639593 1.69643 0
M  V30 2004 C 203.556 2.82794 2.2374 0
M  V30 2005 O 202.66 2.47756 3.29683 0
M  V30 2006 H 202.001 0.565263 0.348387 0
M  V30 2007 H 204.531 1.98621 0.490985 0
M  V30 2008 H 204.541 3.07452 2.68212 0
M  V30 2009 H 203.216 3.76756 1.76146 0
M  V30 2010 H 201.793 2.33739 2.90552 0
M  V30 2011 N 203.978 -0.674533 1.42435 0
M  V30 2012 C 205.225 -1.43459 1.42919 0
M  V30 2013 C 205.553 -1.94446 0.0457312 0
M  V30 2014 O 204.808 -1.7132 -0.94593 0
M  V30 2015 C 205.107 -2.64767 2.40069 0
M  V30 2016 C 204.773 -2.3232 3.86443 0
M  V30 2017 C 203.435 -2.23182 4.26314 0
M  V30 2018 C 205.787 -2.05977 4.78773 0
M  V30 2019 C 203.115 -1.85827 5.56494 0
M  V30 2020 C 205.467 -1.70125 6.09295 0
M  V30 2021 C 204.131 -1.59498 6.48164 0
M  V30 2022 H 203.401 -0.524952 0.522978 0
M  V30 2023 H 206.048 -0.769097 1.75377 0
M  V30 2024 H 204.353 -3.36349 2.00939 0
M  V30 2025 H 206.05 -3.22949 2.37707 0
M  V30 2026 H 202.64 -2.40334 3.54877 0
M  V30 2027 H 206.824 -2.11969 4.48757 0
M  V30 2028 H 202.08 -1.76168 5.8547 0
M  V30 2029 H 206.254 -1.48767 6.80324 0
M  V30 2030 H 203.881 -1.30322 7.48946 0
M  V30 2031 N 205.456 -1.28612 -0.910864 0
M  V30 2032 C 206.388 -1.08589 -2.01844 0
M  V30 2033 C 207.401 -0.0367419 -1.62759 0
M  V30 2034 O 208.59 -0.280101 -1.76289 0
M  V30 2035 C 205.69 -0.628626 -3.33019 0
M  V30 2036 C 204.863 -1.75382 -4.00699 0
M  V30 2037 C 203.922 -1.28945 -5.10156 0
M  V30 2038 O 202.948 -1.9922 -5.33198 0
M  V30 2039 N 204.15 -0.154224 -5.80295 0
M  V30 2040 H 206.915 -2.03973 -2.19579 0
M  V30 2041 H 204.476 -1.20403 -1.08234 0
M  V30 2042 H 206.468 -0.301508 -4.03575 0
M  V30 2043 H 205.038 0.232451 -3.11735 0
M  V30 2044 H 204.258 -2.25039 -3.23653 0
M  V30 2045 H 205.546 -2.50854 -4.42662 0
M  V30 2046 H 204.944 0.43194 -5.64049 0
M  V30 2047 H 203.501 0.113599 -6.51701 0
M  V30 2048 N 206.934 1.1197 -1.10907 0
M  V30 2049 C 207.864 2.19928 -0.784473 0
M  V30 2050 C 208.845 1.6833 0.244726 0
M  V30 2051 O 210.03 1.93892 0.109418 0
M  V30 2052 C 207.16 3.46597 -0.220827 0
M  V30 2053 C 206.114 4.11376 -1.18127 0
M  V30 2054 C 205.44 5.32554 -0.478594 0
M  V30 2055 C 206.74 4.56945 -2.52979 0
M  V30 2056 H 208.434 2.47337 -1.68715 0
M  V30 2057 H 205.98 1.18879 -0.812642 0
M  V30 2058 H 207.933 4.21396 0.0184278 0
M  V30 2059 H 206.657 3.1863 0.717113 0
M  V30 2060 H 205.316 3.38564 -1.40606 0
M  V30 2061 H 204.964 5.00856 0.463976 0
M  V30 2062 H 204.664 5.76844 -1.11912 0
M  V30 2063 H 206.188 6.10096 -0.248 0
M  V30 2064 H 207.602 5.23093 -2.3462 0
M  V30 2065 H 205.999 5.1203 -3.12962 0
M  V30 2066 H 207.069 3.70676 -3.12614 0
M  V30 2067 N 208.412 0.89855 1.29475 0
M  V30 2068 C 209.344 0.332726 2.26772 0
M  V30 2069 C 210.357 -0.520323 1.54261 0
M  V30 2070 O 211.546 -0.337668 1.75277 0
M  V30 2071 C 208.646 -0.544334 3.345 0
M  V30 2072 C 207.819 0.282728 4.36485 0
M  V30 2073 C 206.878 -0.526982 5.23555 0
M  V30 2074 O 205.904 0.0551165 5.69173 0
M  V30 2075 N 207.106 -1.83331 5.5079 0
M  V30 2076 H 209.871 1.16897 2.75962 0
M  V30 2077 H 207.432 0.762919 1.42798 0
M  V30 2078 H 209.424 -1.09239 3.89678 0
M  V30 2079 H 207.994 -1.28127 2.85136 0
M  V30 2080 H 207.214 1.01221 3.80983 0
M  V30 2081 H 208.502 0.84918 5.01664 0
M  V30 2082 H 207.9 -2.32898 5.15534 0
M  V30 2083 H 206.457 -2.32852 6.08788 0
M  V30 2084 N 209.89 -1.43072 0.660911 0
M  V30 2085 C 210.853 -2.29194 -0.0166406 0
M  V30 2086 C 211.853 -1.42609 -0.742912 0
M  V30 2087 O 213.043 -1.64155 -0.583004 0
M  V30 2088 C 210.175 -3.24831 -1.0343 0
M  V30 2089 H 211.368 -2.90596 0.741208 0
M  V30 2090 H 208.921 -1.5048 0.422532 0
M  V30 2091 H 209.656 -2.68339 -1.82111 0
M  V30 2092 H 209.441 -3.88676 -0.517082 0
M  V30 2093 H 210.931 -3.89451 -1.50723 0
M  V30 2094 N 211.368 -0.403325 -1.52352 0
M  V30 2095 C 212.645 0.232611 -1.94212 0
M  V30 2096 C 213.025 1.63133 -1.33981 0
M  V30 2097 O 212.373 2.22659 -0.513344 0
M  V30 2098 C 212.583 0.244811 -3.4814 0
M  V30 2099 C 213.931 0.46698 -4.22024 0
M  V30 2100 O 214.955 0.324419 -3.5472 0
M  V30 2101 O 213.814 0.74747 -5.41364 0
M  V30 2102 H 210.908 0.148223 -0.813609 0
M  V30 2103 H 213.454 -0.458848 -1.63379 0
M  V30 2104 H 212.226 -0.734378 -3.84347 0
M  V30 2105 H 211.849 0.980611 -3.85318 0
M  V30 2106 N 212.846 1.57033 -0.133567 0
M  V30 2107 C 214.094 1.953 0.519848 0
M  V30 2108 C 214.415 1.01866 1.66278 0
M  V30 2109 O 213.685 0.0776513 1.95746 0
M  V30 2110 H 212.265 0.721091 0.195032 0
M  V30 2111 H 214.927 1.93809 -0.205921 0
M  V30 2112 H 214.023 2.98695 0.904854 0
M  V30 2113 N 214.325 -0.140222 1.56975 0
M  V30 2114 C 215.272 -1.17292 1.98774 0
M  V30 2115 C 216.242 -1.4232 0.856408 0
M  V30 2116 O 217.427 -1.54541 1.119 0
M  V30 2117 C 214.567 -2.49973 2.37923 0
M  V30 2118 C 213.68 -2.32062 3.64378 0
M  V30 2119 C 212.815 -3.57825 3.926 0
M  V30 2120 C 211.854 -3.3498 5.12303 0
M  V30 2121 N 210.991 -4.52891 5.36502 0
M  V30 2122 H 215.831 -0.809472 2.86795 0
M  V30 2123 H 213.368 -0.388237 1.41884 0
M  V30 2124 H 215.326 -3.27346 2.58652 0
M  V30 2125 H 213.956 -2.84252 1.52972 0
M  V30 2126 H 213.008 -1.45711 3.51387 0
M  V30 2127 H 214.32 -2.11145 4.51906 0
M  V30 2128 H 213.474 -4.43624 4.13863 0
M  V30 2129 H 212.213 -3.81753 3.03506 0
M  V30 2130 H 211.218 -2.4757 4.90906 0
M  V30 2131 H 212.443 -3.12444 6.02956 0
M  V30 2132 H 210.389 -4.76979 4.50363 0
M  V30 2133 H 210.306 -4.35001 6.18312 0
M  V30 2134 H 211.574 -5.39884 5.62268 0
M  V30 2135 N 215.803 -1.52179 -0.40978 0
M  V30 2136 C 217.031 -1.70054 -1.17853 0
M  V30 2137 C 217.446 -0.409735 -1.843 0
M  V30 2138 O 216.803 0.614183 -1.71855 0
M  V30 2139 C 216.854 -2.83568 -2.24213 0
M  V30 2140 O 216.575 -4.0765 -1.60478 0
M  V30 2141 C 218.076 -3.12947 -3.13973 0
M  V30 2142 H 215.296 -0.569917 -0.354169 0
M  V30 2143 H 217.84 -1.98734 -0.482198 0
M  V30 2144 H 215.995 -2.57409 -2.89516 0
M  V30 2145 H 216.409 -4.70899 -2.30986 0
M  V30 2146 H 217.883 -3.95889 -3.84677 0
M  V30 2147 H 218.36 -2.26472 -3.76307 0
M  V30 2148 H 218.966 -3.40868 -2.5434 0
M  V30 2149 N 217.281 0.66697 -1.42791 0
M  V30 2150 C 218.521 1.43892 -1.4517 0
M  V30 2151 C 218.885 1.91877 -0.0687551 0
M  V30 2152 O 220.086 2.6878 0.0327455 0
M  V30 2153 C 218.357 2.59839 -2.45395 0
M  V30 2154 S 219.916 3.48572 -2.66539 0
M  V30 2155 H 216.734 0.491356 -0.513897 0
M  V30 2156 H 219.336 0.775656 -1.79454 0
M  V30 2157 H 218.04 2.22838 -3.44632 0
M  V30 2158 H 217.571 3.3103 -2.12562 0
M  V30 2159 H 219.586 4.56094 -1.95429 0
M  V30 2160 N 218.759 1.29093 0.90403 0
M  V30 2161 C 219.706 1.13853 2.00764 0
M  V30 2162 C 220.676 0.0330084 1.66067 0
M  V30 2163 O 221.861 0.199733 1.89752 0
M  V30 2164 C 219.001 0.816537 3.35301 0
M  V30 2165 C 218.114 2.00206 3.82807 0
M  V30 2166 C 217.249 1.61983 5.059 0
M  V30 2167 C 216.288 2.77143 5.45764 0
M  V30 2168 N 215.425 2.39346 6.60044 0
M  V30 2169 H 220.265 2.08276 2.13132 0
M  V30 2170 H 217.802 1.03648 1.04381 0
M  V30 2171 H 219.76 0.610557 4.12708 0
M  V30 2172 H 218.39 -0.090779 3.22672 0
M  V30 2173 H 217.442 2.31988 3.01473 0
M  V30 2174 H 218.754 2.86512 4.08304 0
M  V30 2175 H 217.908 1.37649 5.90879 0
M  V30 2176 H 216.647 0.728202 4.82233 0
M  V30 2177 H 215.652 3.02165 4.59322 0
M  V30 2178 H 216.877 3.66964 5.71414 0
M  V30 2179 H 214.823 1.52665 6.37989 0
M  V30 2180 H 214.74 3.19185 6.85315 0
M  V30 2181 H 216.008 2.1832 7.48303 0
M  V30 2182 N 220.237 -1.11381 1.11499 0
M  V30 2183 C 221.514 -1.7955 0.775965 0
M  V30 2184 C 221.894 -1.97859 -0.73588 0
M  V30 2185 O 221.242 -1.56376 -1.66609 0
M  V30 2186 C 221.452 -3.13196 1.53977 0
M  V30 2187 C 222.8 -3.88227 1.71944 0
M  V30 2188 O 223.824 -3.22887 1.50407 0
M  V30 2189 O 222.683 -5.05477 2.07738 0
M  V30 2190 H 219.777 -0.777728 0.28119 0
M  V30 2191 H 222.323 -1.18118 1.21845 0
M  V30 2192 H 221.095 -2.95229 2.56818 0
M  V30 2193 H 220.718 -3.82342 1.09088 0
M  V30 2194 N 221.715 -0.905404 -1.28997 0
M  V30 2195 C 222.962 -0.534248 -1.95325 0
M  V30 2196 C 223.29 0.920535 -1.71337 0
M  V30 2197 O 222.545 1.66861 -1.02254 0
M  V30 2198 C 222.844 -0.779906 -3.48787 0
M  V30 2199 C 222.51 -2.21293 -3.92861 0
M  V30 2200 C 221.172 -2.60475 -4.04606 0
M  V30 2201 C 223.524 -3.14587 -4.15553 0
M  V30 2202 C 220.852 -3.9212 -4.36416 0
M  V30 2203 C 223.204 -4.45787 -4.48839 0
M  V30 2204 C 221.868 -4.84834 -4.58794 0
M  V30 2205 H 221.138 -0.195495 -0.714747 0
M  V30 2206 H 223.785 -1.14514 -1.53488 0
M  V30 2207 H 222.09 -0.0861365 -3.91705 0
M  V30 2208 H 223.787 -0.472029 -3.98212 0
M  V30 2209 H 220.377 -1.89887 -3.84241 0
M  V30 2210 H 224.561 -2.85528 -4.0594 0
M  V30 2211 H 219.817 -4.22086 -4.42327 0
M  V30 2212 H 223.991 -5.18098 -4.65346 0
M  V30 2213 H 221.618 -5.86877 -4.83197 0
M  V30 2214 N 223.193 1.4272 -0.668489 0
M  V30 2215 C 224.47 1.95248 -0.117373 0
M  V30 2216 C 224.85 1.60919 1.36632 0
M  V30 2217 O 224.198 0.902095 2.09939 0
M  V30 2218 C 224.408 3.46927 -0.379806 0
M  V30 2219 C 225.756 4.23588 -0.292923 0
M  V30 2220 O 226.78 3.5482 -0.313204 0
M  V30 2221 O 225.639 5.46017 -0.229697 0
M  V30 2222 H 222.733 0.827 0.00079152 0
M  V30 2223 H 225.279 1.52581 -0.742783 0
M  V30 2224 H 224.051 3.65096 -1.40786 0
M  V30 2225 H 223.674 3.96627 0.277923 0
M  V30 2226 N 224.671 0.411399 1.52136 0
M  V30 2227 C 225.581 -0.419774 2.30814 0
M  V30 2228 C 226.597 -1.0515 1.38634 0
M  V30 2229 O 227.773 -1.05252 1.71709 0
M  V30 2230 C 224.838 -1.52019 3.11594 0
M  V30 2231 C 223.899 -0.91129 4.19516 0
M  V30 2232 C 223.132 -1.95927 4.96436 0
M  V30 2233 O 223.355 -3.17775 4.73683 0
M  V30 2234 O 222.289 -1.56423 5.81219 0
M  V30 2235 H 226.115 0.221805 3.02889 0
M  V30 2236 H 223.7 0.174547 1.48377 0
M  V30 2237 H 225.582 -2.15898 3.61892 0
M  V30 2238 H 224.257 -2.14633 2.42311 0
M  V30 2239 H 223.164 -0.235157 3.7336 0
M  V30 2240 H 224.497 -0.32904 4.91099 0
M  V30 2241 N 226.149 -1.5696 0.141893 0
M  V30 2242 C 227.389 -1.9785 -0.513304 0
M  V30 2243 C 227.753 -1.02467 -1.62371 0
M  V30 2244 O 228.954 -1.32382 -2.33941 0
M  V30 2245 C 227.225 -3.42797 -1.01118 0
M  V30 2246 S 228.784 -4.05709 -1.67169 0
M  V30 2247 H 225.602 -0.691318 -0.166135 0
M  V30 2248 H 228.204 -1.94114 0.232398 0
M  V30 2249 H 226.908 -4.0995 -0.192179 0
M  V30 2250 H 226.439 -3.50235 -1.79162 0
M  V30 2251 H 228.454 -3.98342 -2.95868 0
M  V30 2252 N 227.627 0.131896 -1.57047 0
M  V30 2253 C 228.852 0.860418 -1.8871 0
M  V30 2254 C 229.277 1.73251 -0.73251 0
M  V30 2255 O 228.635 1.785 0.317429 0
M  V30 2256 C 228.683 1.68047 -3.19049 0
M  V30 2257 O 227.787 2.7862 -3.04047 0
M  V30 2258 H 227.128 0.238743 -0.619595 0
M  V30 2259 H 229.658 0.118169 -2.04258 0
M  V30 2260 H 229.668 2.07238 -3.51449 0
M  V30 2261 H 228.343 1.04018 -4.02682 0
M  V30 2262 H 226.92 2.42726 -2.83088 0
M  V30 2263 N 229.106 1.52395 0.401703 0
M  V30 2264 C 230.352 1.67065 1.14966 0
M  V30 2265 C 230.685 0.403052 1.89971 0
M  V30 2266 O 229.96 -0.598774 1.85054 0
M  V30 2267 C 230.243 2.8975 2.13815 0
M  V30 2268 C 230.096 4.26578 1.42658 0
M  V30 2269 C 231.415 3.07965 3.14397 0
M  V30 2270 H 228.534 0.607968 0.416587 0
M  V30 2271 H 231.176 1.84965 0.434511 0
M  V30 2272 H 229.326 2.74619 2.74803 0
M  V30 2273 H 230.998 4.53451 0.847329 0
M  V30 2274 H 229.241 4.27639 0.72849 0
M  V30 2275 H 229.912 5.08483 2.14823 0
M  V30 2276 H 232.388 3.22043 2.63491 0
M  V30 2277 H 231.264 3.95308 3.80819 0
M  V30 2278 H 231.525 2.21611 3.82545 0
M  V30 2279 N 230.584 -0.659388 1.43143 0
M  V30 2280 C 231.814 -1.44513 1.47646 0
M  V30 2281 C 232.222 -1.88981 0.0910095 0
M  V30 2282 O 231.565 -1.59702 -0.907789 0
M  V30 2283 C 231.627 -2.71663 2.35456 0
M  V30 2284 C 231.291 -2.49175 3.83094 0
M  V30 2285 C 232.288 -2.1279 4.74359 0
M  V30 2286 C 229.973 -2.63691 4.27519 0
M  V30 2287 C 231.967 -1.9121 6.08044 0
M  V30 2288 C 229.654 -2.41726 5.61259 0
M  V30 2289 C 230.652 -2.0554 6.51339 0
M  V30 2290 O 230.34 -1.838 7.82606 0
M  V30 2291 H 230.072 -0.45064 0.503884 0
M  V30 2292 H 232.626 -0.816248 1.88485 0
M  V30 2293 H 230.856 -3.37089 1.89493 0
M  V30 2294 H 232.545 -3.33595 2.31235 0
M  V30 2295 H 233.311 -2.01157 4.41317 0
M  V30 2296 H 229.19 -2.90832 3.57684 0
M  V30 2297 H 232.734 -1.62889 6.78316 0
M  V30 2298 H 228.631 -2.52959 5.9387 0
M  V30 2299 H 229.399 -1.98275 7.94122 0
M  V30 2300 N 232.062 -1.29571 -0.897171 0
M  V30 2301 C 233.31 -1.17456 -1.64464 0
M  V30 2302 C 233.631 0.273698 -1.9307 0
M  V30 2303 O 232.901 1.18684 -1.55855 0
M  V30 2304 H 231.481 -0.431706 -0.609622 0
M  V30 2305 H 234.143 -1.62531 -1.07562 0
M  V30 2306 H 233.239 -1.72648 -2.59998 0
M  V30 2307 N 233.54 1.10788 -1.12088 0
M  V30 2308 C 234.768 1.86461 -0.896651 0
M  V30 2309 C 235.183 1.80492 0.553912 0
M  V30 2310 O 234.54 1.19102 1.38278 0
M  V30 2311 C 234.591 3.35006 -1.35843 0
M  V30 2312 O 234.312 3.40866 -2.75213 0
M  V30 2313 C 235.813 4.27565 -1.1706 0
M  V30 2314 H 233.033 0.589425 -0.320654 0
M  V30 2315 H 235.577 1.40076 -1.48993 0
M  V30 2316 H 233.732 3.7887 -0.808458 0
M  V30 2317 H 234.146 4.33411 -2.9539 0
M  V30 2318 H 235.62 5.30007 -1.54263 0
M  V30 2319 H 236.097 4.3906 -0.110814 0
M  V30 2320 H 236.703 3.89501 -1.70789 0
M  V30 2321 N 235.018 0.912232 1.28515 0
M  V30 2322 C 236.258 0.551677 1.96814 0
M  V30 2323 C 236.622 -0.887825 1.7024 0
M  V30 2324 O 237.823 -1.35588 2.32098 0
M  V30 2325 C 236.094 0.850555 3.47132 0
M  V30 2326 S 237.653 0.59619 4.34731 0
M  V30 2327 H 234.471 0.204191 0.681049 0
M  V30 2328 H 237.073 1.17736 1.56072 0
M  V30 2329 H 235.777 1.8962 3.63968 0
M  V30 2330 H 235.308 0.213471 3.9282 0
M  V30 2331 H 237.323 -0.553154 4.93107 0
M  V30 2332 N 236.496 -1.42363 0.676048 0
M  V30 2333 C 237.721 -2.06377 0.205705 0
M  V30 2334 C 238.146 -1.50463 -1.12883 0
M  V30 2335 O 237.504 -0.623619 -1.70237 0
M  V30 2336 C 237.552 -3.60277 0.152655 0
M  V30 2337 O 236.656 -4.02935 -0.87845 0
M  V30 2338 H 235.997 -0.655588 0.105359 0
M  V30 2339 H 238.527 -1.82475 0.925412 0
M  V30 2340 H 238.537 -4.07993 -0.0230675 0
M  V30 2341 H 237.212 -4.00346 1.12675 0
M  V30 2342 H 235.789 -3.66764 -0.673668 0
M  V30 2343 N 237.974 -0.419461 -1.51915 0
M  V30 2344 C 238.906 0.43646 -2.25006 0
M  V30 2345 C 239.919 1.00149 -1.28351 0
M  V30 2346 O 241.108 0.898674 -1.54227 0
M  V30 2347 C 238.208 1.6206 -2.9764 0
M  V30 2348 C 237.381 1.17763 -4.21249 0
M  V30 2349 C 236.44 2.22985 -4.76617 0
M  V30 2350 O 235.466 1.83151 -5.38929 0
M  V30 2351 N 236.668 3.55271 -4.59089 0
M  V30 2352 H 239.433 -0.18989 -2.99098 0
M  V30 2353 H 236.994 -0.247386 -1.59999 0
M  V30 2354 H 238.986 2.32038 -3.31573 0
M  V30 2355 H 237.556 2.15266 -2.2667 0
M  V30 2356 H 236.776 0.305582 -3.93014 0
M  V30 2357 H 238.064 0.858781 -5.015 0
M  V30 2358 H 237.462 3.90377 -4.09417 0
M  V30 2359 H 236.019 4.21195 -4.97432 0
M  V30 2360 N 239.452 1.56882 -0.150215 0
M  V30 2361 C 240.382 2.19935 0.784284 0
M  V30 2362 C 241.363 1.14854 1.25469 0
M  V30 2363 O 242.548 1.43209 1.31168 0
M  V30 2364 C 239.678 2.82349 2.02229 0
M  V30 2365 C 238.632 3.93285 1.68853 0
M  V30 2366 C 237.958 4.42649 2.99944 0
M  V30 2367 C 239.258 5.13904 0.932714 0
M  V30 2368 H 240.952 2.9828 0.258781 0
M  V30 2369 H 238.498 1.43473 0.123029 0
M  V30 2370 H 240.451 3.25126 2.68088 0
M  V30 2371 H 239.175 2.0134 2.57157 0
M  V30 2372 H 237.834 3.5113 1.05371 0
M  V30 2373 H 237.482 3.58458 3.52869 0
M  V30 2374 H 237.182 5.17476 2.78374 0
M  V30 2375 H 238.706 4.88099 3.66868 0
M  V30 2376 H 240.12 5.53506 1.49345 0
M  V30 2377 H 238.517 5.94515 0.81684 0
M  V30 2378 H 239.587 4.84842 -0.0749568 0
M  V30 2379 N 240.93 -0.123565 1.57115 0
M  V30 2380 C 242.17 -0.838097 1.86428 0
M  V30 2381 C 242.534 -1.77266 0.737611 0
M  V30 2382 O 243.735 -2.52842 0.912389 0
M  V30 2383 C 242.006 -1.57219 3.20962 0
M  V30 2384 S 243.565 -2.32893 3.71896 0
M  V30 2385 H 240.383 -0.279811 0.653626 0
M  V30 2386 H 242.985 -0.0967034 1.95261 0
M  V30 2387 H 241.689 -0.877522 4.00909 0
M  V30 2388 H 241.22 -2.35405 3.15195 0
M  V30 2389 H 243.235 -3.5853 3.43032 0
M  V30 2390 N 242.408 -1.52605 -0.393616 0
M  V30 2391 C 243.636 -1.71294 -1.16043 0
M  V30 2392 C 244.051 -0.429259 -1.83855 0
M  V30 2393 O 243.408 0.595921 -1.72496 0
M  V30 2394 C 243.459 -2.8593 -2.21193 0
M  V30 2395 O 243.18 -4.09329 -1.56146 0
M  V30 2396 C 244.681 -3.16259 -3.10636 0
M  V30 2397 H 241.901 -0.573641 -0.348104 0
M  V30 2398 H 244.445 -1.99234 -0.461092 0
M  V30 2399 H 242.6 -2.60465 -2.86769 0
M  V30 2400 H 243.014 -4.73323 -2.25978 0
M  V30 2401 H 244.488 -3.99946 -3.80456 0
M  V30 2402 H 244.965 -2.3045 -3.73884 0
M  V30 2403 H 245.571 -3.43547 -2.50711 0
M  V30 2404 N 243.887 0.651787 -1.4349 0
M  V30 2405 C 244.835 1.78586 -1.49029 0
M  V30 2406 C 245.829 1.65448 -0.363767 0
M  V30 2407 O 247.035 1.71777 -0.537821 0
M  V30 2408 H 243.41 0.589236 -0.467231 0
M  V30 2409 H 245.381 1.71035 -2.44519 0
M  V30 2410 C 244.13 3.16851 -1.43181 0
M  V30 2411 H 243.453 3.27598 -2.29171 0
M  V30 2412 H 244.893 3.96156 -1.51118 0
M  V30 2413 C 243.352 3.36568 -0.149616 0
M  V30 2414 O 243.882 3.93885 0.788509 0
M  V30 2415 N 242.088 2.90539 -0.0593484 0
M  V30 2416 H 241.635 2.4408 -0.823575 0
M  V30 2417 H 241.593 3.04108 0.797853 0
M  V30 2418 N 245.365 1.30045 0.890287 0
M  V30 2419 C 246.593 1.21472 1.67487 0
M  V30 2420 C 247.008 -0.223241 1.87476 0
M  V30 2421 O 246.365 -1.14828 1.41847 0
M  V30 2422 C 246.416 1.93394 3.05419 0
M  V30 2423 O 246.137 3.31576 2.86337 0
M  V30 2424 C 247.638 1.91414 3.99844 0
M  V30 2425 H 244.858 0.420604 0.522813 0
M  V30 2426 H 247.402 1.7158 1.11268 0
M  V30 2427 H 245.557 1.47099 3.58386 0
M  V30 2428 H 245.971 3.67929 3.73802 0
M  V30 2429 H 247.445 2.46285 4.94012 0
M  V30 2430 H 247.922 0.891833 4.3005 0
M  V30 2431 H 248.528 2.37496 3.52811 0
M  V30 2432 N 246.843 -1.10192 1.12674 0
M  V30 2433 C 248.12 -1.78717 0.794965 0
M  V30 2434 C 248.5 -1.98628 -0.714853 0
M  V30 2435 O 247.848 -1.58135 -1.64941 0
M  V30 2436 C 248.058 -3.11546 1.5729 0
M  V30 2437 C 249.406 -3.86382 1.76052 0
M  V30 2438 O 250.43 -3.21274 1.53823 0
M  V30 2439 O 249.289 -5.03246 2.13087 0
M  V30 2440 H 246.383 -0.774702 0.289423 0
M  V30 2441 H 248.929 -1.16819 1.23091 0
M  V30 2442 H 247.701 -2.92489 2.59935 0
M  V30 2443 H 247.324 -3.81164 1.13137 0
M  V30 2444 N 248.321 -0.919034 -1.28029 0
M  V30 2445 C 249.569 -0.553838 -1.94363 0
M  V30 2446 C 249.89 0.906357 -1.72656 0
M  V30 2447 O 249.16 1.64143 -1.0693 0
M  V30 2448 H 247.74 -0.201834 -0.719216 0
M  V30 2449 H 250.402 -1.16954 -1.55909 0
M  V30 2450 H 249.498 -0.752758 -3.02886 0
M  V30 2451 N 249.799 1.42003 -0.683588 0
M  V30 2452 C 251.024 2.06265 -0.216647 0
M  V30 2453 C 251.449 1.51059 1.12083 0
M  V30 2454 O 250.807 0.632638 1.69904 0
M  V30 2455 C 250.855 3.60191 -0.171759 0
M  V30 2456 O 249.959 4.03396 0.857069 0
M  V30 2457 H 249.3 0.65502 -0.108834 0
M  V30 2458 H 251.83 1.81982 -0.935077 0
M  V30 2459 H 251.84 4.08 0.0014303 0
M  V30 2460 H 250.515 3.99743 -1.14796 0
M  V30 2461 H 249.092 3.67117 0.654208 0
M  V30 2462 N 251.277 0.427512 1.51691 0
M  V30 2463 C 252.524 -0.142229 2.02 0
M  V30 2464 C 252.852 -1.43566 1.31221 0
M  V30 2465 O 252.107 -1.91298 0.412744 0
M  V30 2466 C 252.406 -0.418249 3.54944 0
M  V30 2467 C 252.072 0.788187 4.43958 0
M  V30 2468 C 250.734 1.11906 4.68007 0
M  V30 2469 C 253.086 1.59347 4.96244 0
M  V30 2470 C 250.414 2.25608 5.41588 0
M  V30 2471 C 252.766 2.7214 5.71072 0
M  V30 2472 C 251.43 3.05692 5.93387 0
M  V30 2473 H 250.7 -0.0520451 0.73917 0
M  V30 2474 H 253.347 0.572697 1.82736 0
M  V30 2475 H 251.652 -1.21496 3.72486 0
M  V30 2476 H 253.349 -0.872339 3.91397 0
M  V30 2477 H 249.939 0.520344 4.2543 0
M  V30 2478 H 254.123 1.35106 4.77556 0
M  V30 2479 H 249.379 2.51929 5.57083 0
M  V30 2480 H 253.553 3.34914 6.10578 0
M  V30 2481 H 251.18 3.9391 6.50184 0
M  V30 2482 N 252.755 -1.56801 0.158532 0
M  V30 2483 C 254.004 -1.95665 -0.489702 0
M  V30 2484 C 254.317 -1.04654 -1.65248 0
M  V30 2485 O 255.523 -1.33146 -2.3661 0
M  V30 2486 C 253.979 -3.47874 -0.922582 0
M  V30 2487 C 253.587 -4.47489 0.213893 0
M  V30 2488 C 255.331 -3.95583 -1.53996 0
M  V30 2489 C 253.238 -5.90921 -0.237903 0
M  V30 2490 H 252.168 -0.730516 -0.186716 0
M  V30 2491 H 254.819 -1.81861 0.244722 0
M  V30 2492 H 253.201 -3.57051 -1.71261 0
M  V30 2493 H 254.375 -4.50017 0.991036 0
M  V30 2494 H 252.69 -4.09764 0.740407 0
M  V30 2495 H 255.287 -5.0019 -1.8898 0
M  V30 2496 H 255.63 -3.37789 -2.43319 0
M  V30 2497 H 256.163 -3.8937 -0.814611 0
M  V30 2498 H 252.902 -6.52559 0.620236 0
M  V30 2499 H 252.422 -5.91729 -0.980676 0
M  V30 2500 H 254.101 -6.43352 -0.686067 0
M  V30 2501 N 254.233 0.115231 -1.57178 0
M  V30 2502 C 255.473 0.828199 -1.8687 0
M  V30 2503 C 255.837 1.76873 -0.747002 0
M  V30 2504 O 257.038 2.52354 -0.925785 0
M  V30 2505 C 255.309 1.55515 -3.21792 0
M  V30 2506 S 256.868 2.30917 -3.73125 0
M  V30 2507 H 253.686 0.27634 -0.655101 0
M  V30 2508 H 256.288 0.0863469 -1.95309 0
M  V30 2509 H 254.992 0.856248 -4.01368 0
M  V30 2510 H 254.523 2.3373 -3.16439 0
M  V30 2511 H 256.538 3.56705 -3.44929 0
M  V30 2512 N 255.711 1.52812 0.385517 0
M  V30 2513 C 256.959 1.67694 1.12797 0
M  V30 2514 C 257.28 0.421115 1.90399 0
M  V30 2515 O 256.55 -0.564551 1.87589 0
M  V30 2516 H 255.13 0.618155 0.419396 0
M  V30 2517 H 257.792 1.89938 0.436972 0
M  V30 2518 H 256.888 2.52896 1.82894 0
M  V30 2519 N 257.189 -0.644168 1.43834 0
M  V30 2520 C 258.429 -1.41565 1.47441 0
M  V30 2521 C 258.793 -1.91743 0.0992723 0
M  V30 2522 O 259.994 -2.68798 0.0100192 0
M  V30 2523 C 258.265 -2.55902 2.49498 0
M  V30 2524 S 259.824 -3.44287 2.72051 0
M  V30 2525 H 256.642 -0.483118 0.521649 0
M  V30 2526 H 259.244 -0.747008 1.80666 0
M  V30 2527 H 257.948 -2.17327 3.48134 0
M  V30 2528 H 257.479 -3.27607 2.17801 0
M  V30 2529 H 259.494 -4.52927 2.0266 0
M  V30 2530 N 258.668 -1.30515 -0.883378 0
M  V30 2531 C 259.914 -1.19607 -1.63774 0
M  V30 2532 C 260.247 0.248314 -1.92606 0
M  V30 2533 O 259.522 1.17742 -1.54813 0
M  V30 2534 C 259.805 -2.02669 -2.97653 0
M  V30 2535 C 259.658 -3.55335 -2.75784 0
M  V30 2536 C 260.977 -1.86573 -3.98596 0
M  V30 2537 H 258.096 -0.435856 -0.594305 0
M  V30 2538 H 260.738 -1.60165 -1.02212 0
M  V30 2539 H 258.888 -1.68208 -3.50197 0
M  V30 2540 H 260.56 -3.99863 -2.30016 0
M  V30 2541 H 258.803 -3.79438 -2.1026 0
M  V30 2542 H 259.474 -4.08745 -3.70988 0
M  V30 2543 H 261.95 -2.16703 -3.55217 0
M  V30 2544 H 260.826 -2.47014 -4.90179 0
M  V30 2545 H 261.087 -0.825321 -4.34328 0
M  V30 2546 N 260.146 1.09593 -1.13257 0
M  V30 2547 C 261.056 2.19739 -0.821691 0
M  V30 2548 C 262.072 1.72926 0.19302 0
M  V30 2549 O 263.248 2.01385 0.0244895 0
M  V30 2550 C 260.313 3.45482 -0.290333 0
M  V30 2551 C 259.374 4.06985 -1.36607 0
M  V30 2552 C 258.607 5.26726 -0.859975 0
M  V30 2553 O 258.83 5.69594 0.303082 0
M  V30 2554 O 257.764 5.7931 -1.63351 0
M  V30 2555 H 261.59 2.48781 -1.74189 0
M  V30 2556 H 259.175 1.18496 -0.909894 0
M  V30 2557 H 261.057 4.214 0.000674022 0
M  V30 2558 H 259.732 3.18047 0.602306 0
M  V30 2559 H 258.639 3.32712 -1.71037 0
M  V30 2560 H 259.972 4.38643 -2.23279 0
M  V30 2561 N 261.624 0.925811 1.2754 0
M  V30 2562 C 262.872 0.564138 1.94067 0
M  V30 2563 C 263.193 -0.897188 1.73134 0
M  V30 2564 O 262.463 -1.63573 1.07799 0
M  V30 2565 H 261.043 0.205645 0.718136 0
M  V30 2566 H 263.705 1.1778 1.55287 0
M  V30 2567 H 262.801 0.76881 3.02483 0
M  V30 2568 N 263.102 -1.41638 0.69111 0
M  V30 2569 C 264.332 -2.0533 0.228758 0
M  V30 2570 C 264.74 -1.52089 -1.12541 0
M  V30 2571 O 264.083 -0.662145 -1.71351 0
M  V30 2572 C 264.145 -3.59349 0.10407 0
M  V30 2573 C 263.809 -4.35362 1.38956 0
M  V30 2574 C 264.806 -4.64942 2.32648 0
M  V30 2575 C 262.491 -4.74714 1.64169 0
M  V30 2576 C 264.485 -5.32828 3.49818 0
M  V30 2577 C 262.172 -5.42338 2.81625 0
M  V30 2578 C 263.17 -5.71322 3.74273 0
M  V30 2579 O 262.858 -6.37554 4.89673 0
M  V30 2580 H 262.59 -0.667796 0.104997 0
M  V30 2581 H 265.144 -1.82477 0.942938 0
M  V30 2582 H 263.374 -3.80924 -0.665839 0
M  V30 2583 H 265.063 -4.04633 -0.320519 0
M  V30 2584 H 265.829 -4.35025 2.14425 0
M  V30 2585 H 261.708 -4.51538 0.929202 0
M  V30 2586 H 265.252 -5.55368 4.22152 0
M  V30 2587 H 261.149 -5.71673 2.99768 0
M  V30 2588 H 261.917 -6.56049 4.8943 0
M  V30 2589 N 264.58 -0.43555 -1.51462 0
M  V30 2590 C 265.51 0.367376 -2.30592 0
M  V30 2591 C 266.491 1.02263 -1.35928 0
M  V30 2592 O 267.676 1.02661 -1.64847 0
M  V30 2593 C 264.806 1.46983 -3.14664 0
M  V30 2594 C 263.76 0.938161 -4.17591 0
M  V30 2595 C 263.086 2.13622 -4.90173 0
M  V30 2596 C 264.386 -0.0261621 -5.22293 0
M  V30 2597 H 266.08 -0.292969 -2.97963 0
M  V30 2598 H 263.626 -0.14234 -1.43295 0
M  V30 2599 H 265.579 2.03873 -3.688 0
M  V30 2600 H 264.303 2.15843 -2.4511 0
M  V30 2601 H 262.962 0.391481 -3.64504 0
M  V30 2602 H 262.61 2.81098 -4.17124 0
M  V30 2603 H 262.31 1.78688 -5.59772 0
M  V30 2604 H 263.834 2.7107 -5.47132 0
M  V30 2605 H 265.248 0.452384 -5.71512 0
M  V30 2606 H 263.645 -0.287992 -5.99409 0
M  V30 2607 H 264.715 -0.963391 -4.75233 0
M  V30 2608 N 266.058 1.56714 -0.166846 0
M  V30 2609 C 266.988 2.20754 0.760913 0
M  V30 2610 C 267.969 1.16178 1.24244 0
M  V30 2611 O 269.154 1.44592 1.29641 0
M  V30 2612 C 266.284 2.84478 1.99223 0
M  V30 2613 C 265.238 3.95053 1.64672 0
M  V30 2614 C 264.564 4.45805 2.95232 0
M  V30 2615 C 265.864 5.14865 0.878155 0
M  V30 2616 H 267.558 2.98537 0.22713 0
M  V30 2617 H 265.104 1.43596 0.107805 0
M  V30 2618 H 267.057 3.27951 2.64624 0
M  V30 2619 H 265.781 2.04056 2.55007 0
M  V30 2620 H 264.44 3.52228 1.01641 0
M  V30 2621 H 264.088 3.62181 3.49047 0
M  V30 2622 H 263.788 5.204 2.7287 0
M  V30 2623 H 265.312 4.91962 3.6167 0
M  V30 2624 H 266.726 5.55059 1.43466 0
M  V30 2625 H 265.123 5.95348 0.753738 0
M  V30 2626 H 266.193 4.84735 -0.126377 0
M  V30 2627 N 267.536 -0.106894 1.57237 0
M  V30 2628 C 268.468 -1.15646 1.97885 0
M  V30 2629 C 269.481 -1.36981 0.879779 0
M  V30 2630 O 270.67 -1.35841 1.15799 0
M  V30 2631 C 267.77 -2.51425 2.27241 0
M  V30 2632 C 266.943 -2.50529 3.58545 0
M  V30 2633 C 266.002 -3.68145 3.75973 0
M  V30 2634 O 265.028 -3.51176 4.47956 0
M  V30 2635 N 266.23 -4.87177 3.15656 0
M  V30 2636 H 268.995 -0.81059 2.8853 0
M  V30 2637 H 266.556 -0.296024 1.59171 0
M  V30 2638 H 268.548 -3.28689 2.36105 0
M  V30 2639 H 267.118 -2.78147 1.42663 0
M  V30 2640 H 266.338 -1.58894 3.60758 0
M  V30 2641 H 267.626 -2.46997 4.44826 0
M  V30 2642 H 267.024 -5.03868 2.57165 0
M  V30 2643 H 265.581 -5.62075 3.30023 0
M  V30 2644 N 269.014 -1.53014 -0.377408 0
M  V30 2645 C 270.425 -1.60438 -0.954798 0
M  V30 2646 C 270.776 -0.464418 -1.90624 0
M  V30 2647 O 269.901 0.41087 -2.12464 0
M  V30 2648 C 270.496 -2.90797 -1.73847 0
M  V30 2649 C 269.055 -3.00595 -2.26538 0
M  V30 2650 C 268.202 -2.55645 -1.07429 0
M  V30 2651 H 271.153 -1.57926 -0.156575 0
M  V30 2652 H 271.174 -2.77935 -2.5987 0
M  V30 2653 H 270.686 -3.73746 -1.04574 0
M  V30 2654 H 268.787 -2.22208 -2.99089 0
M  V30 2655 H 268.9 -4.05456 -2.5523 0
M  V30 2656 H 267.264 -2.10239 -1.43777 0
M  V30 2657 H 268.047 -3.41 -0.396728 0
M  V30 2658 N 270.492 0.636531 -1.44174 0
M  V30 2659 C 271.769 1.39463 -1.37148 0
M  V30 2660 C 272.149 2.11082 -0.027507 0
M  V30 2661 O 271.497 2.05954 0.989716 0
M  V30 2662 C 271.707 2.36552 -2.56601 0
M  V30 2663 C 273.055 3.00048 -3.00427 0
M  V30 2664 O 274.079 2.46878 -2.56767 0
M  V30 2665 O 272.938 3.96488 -3.76111 0
M  V30 2666 H 270.032 0.623903 -0.542839 0
M  V30 2667 H 272.578 0.662039 -1.56253 0
M  V30 2668 H 271.35 1.82692 -3.46034 0
M  V30 2669 H 270.973 3.17236 -2.39681 0
M  V30 2670 N 271.97 1.30982 0.876444 0
M  V30 2671 C 272.918 1.18006 2.00443 0
M  V30 2672 C 273.912 0.0898871 1.69161 0
M  V30 2673 O 275.118 0.251333 1.78237 0
M  V30 2674 H 271.493 0.365196 0.65737 0
M  V30 2675 H 273.464 2.13453 2.0852 0
M  V30 2676 C 272.213 0.897521 3.35916 0
M  V30 2677 H 271.536 1.7285 3.60504 0
M  V30 2678 H 272.976 0.846874 4.15456 0
M  V30 2679 C 271.435 -0.399674 3.34521 0
M  V30 2680 O 271.965 -1.41852 3.7582 0
M  V30 2681 N 270.171 -0.413893 2.87637 0
M  V30 2682 H 269.718 0.41571 2.54224 0
M  V30 2683 H 269.676 -1.28175 2.87086 0
M  V30 2684 N 273.449 -1.08991 1.13837 0
M  V30 2685 C 274.865 -1.33312 0.877506 0
M  V30 2686 C 275.065 -1.95587 -0.48456 0
M  V30 2687 O 274.121 -2.20509 -1.23013 0
M  V30 2688 C 275.434 -2.24045 2.0056 0
M  V30 2689 C 276.982 -2.37542 2.03821 0
M  V30 2690 C 277.457 -3.31614 3.15905 0
M  V30 2691 N 278.948 -3.39189 3.15445 0
M  V30 2692 C 279.683 -4.11992 3.98811 0
M  V30 2693 N 279.179 -4.87553 4.92203 0
M  V30 2694 N 280.972 -4.07762 3.86894 0
M  V30 2695 H 273.123 -0.669456 2.01574 0
M  V30 2696 H 275.386 -0.357482 0.878015 0
M  V30 2697 H 275.092 -1.85521 2.98789 0
M  V30 2698 H 274.966 -3.24466 1.92359 0
M  V30 2699 H 277.353 -2.75327 1.06202 0
M  V30 2700 H 277.434 -1.36884 2.16093 0
M  V30 2701 H 277.078 -2.94551 4.13766 0
M  V30 2702 H 277.008 -4.32186 3.0087 0
M  V30 2703 H 279.499 -2.85314 2.47799 0
M  V30 2704 H 279.812 -5.40549 5.52292 0
M  V30 2705 H 278.157 -4.86627 4.96205 0
M  V30 2706 H 281.348 -3.47833 3.13257 0
M  V30 2707 H 281.521 -4.64238 4.52092 0
M  V30 2708 N 274.927 -0.932562 -1.27047 0
M  V30 2709 C 276.152 -0.591474 -1.98787 0
M  V30 2710 C 276.577 0.824601 -1.69062 0
M  V30 2711 O 275.935 1.5541 -0.933677 0
M  V30 2712 C 275.983 -0.829808 -3.50922 0
M  V30 2713 O 275.087 0.102266 -4.12273 0
M  V30 2714 H 274.428 -0.227185 -0.623926 0
M  V30 2715 H 276.958 -1.25314 -1.61733 0
M  V30 2716 H 276.968 -0.747292 -4.01098 0
M  V30 2717 H 275.643 -1.86201 -3.7189 0
M  V30 2718 H 274.22 -0.0305761 -3.72887 0
M  V30 2719 N 276.405 1.4127 -0.698611 0
M  V30 2720 C 277.645 2.03044 -0.235062 0
M  V30 2721 C 278.009 1.54146 1.14468 0
M  V30 2722 O 279.21 2.07867 1.70425 0
M  V30 2723 C 277.481 3.56192 -0.293651 0
M  V30 2724 S 279.04 4.38696 0.0954053 0
M  V30 2725 H 275.858 0.704697 -0.0944648 0
M  V30 2726 H 278.46 1.72656 -0.917064 0
M  V30 2727 H 277.164 3.89274 -1.29977 0
M  V30 2728 H 276.695 3.91285 0.407397 0
M  V30 2729 H 278.71 4.78257 1.3223 0
M  V30 2730 N 277.883 0.443576 1.51229 0
M  V30 2731 C 278.83 -0.364716 2.279 0
M  V30 2732 C 279.8 -1.0114 1.31757 0
M  V30 2733 O 280.985 -1.02912 1.60667 0
M  V30 2734 C 278.125 -1.45644 3.12861 0
M  V30 2735 C 277.238 -0.827269 4.24005 0
M  V30 2736 C 276.373 -1.89456 4.96266 0
M  V30 2737 C 275.412 -1.24416 5.99322 0
M  V30 2738 N 274.549 -2.25309 6.64966 0
M  V30 2739 H 279.389 0.295464 2.96532 0
M  V30 2740 H 276.926 0.157554 1.46254 0
M  V30 2741 H 278.884 -2.10076 3.6045 0
M  V30 2742 H 277.514 -2.08616 2.46331 0
M  V30 2743 H 276.566 -0.0710839 3.80334 0
M  V30 2744 H 277.878 -0.312481 4.9782 0
M  V30 2745 H 277.032 -2.61535 5.47434 0
M  V30 2746 H 275.771 -2.4431 4.22095 0
M  V30 2747 H 274.776 -0.508868 5.4744 0
M  V30 2748 H 276.001 -0.702882 6.75453 0
M  V30 2749 H 273.947 -2.79231 5.93604 0
M  V30 2750 H 273.864 -1.78739 7.34567 0
M  V30 2751 H 275.132 -2.96853 7.20763 0
M  V30 2752 N 279.361 -1.56624 0.175154 0
M  V30 2753 C 280.324 -2.16934 -0.739738 0
M  V30 2754 C 281.324 -1.11842 -1.15533 0
M  V30 2755 O 282.514 -1.37335 -1.07167 0
M  V30 2756 C 279.646 -2.75531 -2.00738 0
M  V30 2757 H 280.839 -2.99131 -0.214639 0
M  V30 2758 H 278.392 -1.56123 -0.0744197 0
M  V30 2759 H 279.127 -1.97078 -2.57548 0
M  V30 2760 H 278.912 -3.52444 -1.71831 0
M  V30 2761 H 280.402 -3.21904 -2.66021 0
M  V30 2762 N 280.839 0.0985539 -1.57292 0
M  V30 2763 C 281.786 1.11981 -2.01814 0
M  V30 2764 C 282.756 1.39999 -0.89384 0
M  V30 2765 O 283.941 1.5152 -1.15958 0
M  V30 2766 C 281.081 2.43577 -2.44467 0
M  V30 2767 C 280.194 2.2232 -3.70402 0
M  V30 2768 C 279.329 3.4729 -4.01949 0
M  V30 2769 C 278.368 3.2128 -5.21005 0
M  V30 2770 N 277.505 4.38507 -5.48321 0
M  V30 2771 H 282.345 0.733149 -2.88841 0
M  V30 2772 H 279.882 0.350482 -1.42864 0
M  V30 2773 H 281.84 3.20373 -2.6724 0
M  V30 2774 H 280.47 2.80097 -1.60455 0
M  V30 2775 H 279.522 1.36343 -3.55126 0
M  V30 2776 H 280.834 1.99089 -4.57345 0
M  V30 2777 H 279.988 4.32495 -4.25479 0
M  V30 2778 H 278.727 3.73572 -3.13521 0
M  V30 2779 H 277.732 2.34468 -4.97298 0
M  V30 2780 H 278.957 2.96348 -6.11028 0
M  V30 2781 H 276.903 4.64871 -4.62851 0
M  V30 2782 H 276.82 4.18455 -6.29628 0
M  V30 2783 H 278.088 5.24787 -5.76385 0
M  V30 2784 N 282.317 1.53212 0.369288 0
M  V30 2785 C 283.265 1.80054 1.47253 0
M  V30 2786 C 284.259 0.669456 1.55611 0
M  V30 2787 O 285.465 0.852328 1.58541 0
M  V30 2788 H 281.84 0.570034 0.490475 0
M  V30 2789 H 283.811 2.72403 1.21817 0
M  V30 2790 C 282.56 2.00403 2.84137 0
M  V30 2791 H 281.883 2.86876 2.78464 0
M  V30 2792 H 283.323 2.23164 3.60519 0
M  V30 2793 C 281.782 0.782081 3.27697 0
M  V30 2794 O 282.312 -0.0310205 4.01688 0
M  V30 2795 N 280.518 0.606573 2.84199 0
M  V30 2796 H 280.065 1.26939 2.24152 0
M  V30 2797 H 280.023 -0.20962 3.137 0
M  V30 2798 N 283.795 -0.628877 1.44509 0
M  V30 2799 C 284.705 -1.7694 1.54044 0
M  V30 2800 C 285.721 -1.68705 0.425987 0
M  V30 2801 O 286.897 -1.89442 0.683656 0
M  V30 2802 C 283.962 -3.13332 1.48405 0
M  V30 2803 C 283.023 -3.33181 2.70719 0
M  V30 2804 C 282.256 -4.63067 2.6534 0
M  V30 2805 O 282.479 -5.44017 1.71469 0
M  V30 2806 O 281.413 -4.85167 3.56226 0
M  V30 2807 H 285.239 -1.71848 2.50403 0
M  V30 2808 H 282.824 -0.790378 1.26781 0
M  V30 2809 H 284.706 -3.94634 1.47791 0
M  V30 2810 H 283.381 -3.1896 0.551898 0
M  V30 2811 H 282.288 -2.51549 2.769 0
M  V30 2812 H 283.621 -3.32416 3.62988 0
M  V30 2813 N 285.273 -1.31445 -0.869486 0
M  V30 2814 C 286.684 -1.19042 -1.43826 0
M  V30 2815 C 287.035 0.202919 -1.95148 0
M  V30 2816 O 286.16 1.10071 -1.86315 0
M  V30 2817 C 286.755 -2.15499 -2.6143 0
M  V30 2818 C 285.314 -2.07028 -3.14351 0
M  V30 2819 C 284.461 -2.04701 -1.87063 0
M  V30 2820 H 287.412 -1.43489 -0.677984 0
M  V30 2821 H 287.433 -1.74488 -3.38134 0
M  V30 2822 H 286.945 -3.16899 -2.24046 0
M  V30 2823 H 285.046 -1.08825 -3.56354 0
M  V30 2824 H 285.159 -2.96157 -3.766 0
M  V30 2825 H 283.523 -1.49724 -2.06046 0
M  V30 2826 H 284.306 -3.07857 -1.51917 0
M  V30 2827 N 286.751 1.08385 -1.14413 0
M  V30 2828 C 287.997 1.81044 -0.913834 0
M  V30 2829 C 288.33 1.86004 0.558209 0
M  V30 2830 O 287.605 1.33606 1.4135 0
M  V30 2831 C 287.888 3.26648 -1.51569 0
M  V30 2832 C 287.741 3.29895 -3.0576 0
M  V30 2833 C 289.06 4.23629 -1.19273 0
M  V30 2834 H 286.179 0.65727 -0.333414 0
M  V30 2835 H 288.821 1.26896 -1.41412 0
M  V30 2836 H 286.971 3.72889 -1.09023 0
M  V30 2837 H 288.643 2.91977 -3.57137 0
M  V30 2838 H 286.886 2.69163 -3.40197 0
M  V30 2839 H 287.557 4.32516 -3.42977 0
M  V30 2840 H 290.033 3.85727 -1.56057 0
M  V30 2841 H 288.909 5.23822 -1.64017 0
M  V30 2842 H 289.17 4.41968 -0.108068 0
M  V30 2843 N 288.23 0.939286 1.26551 0
M  V30 2844 C 289.507 0.5038 1.89001 0
M  V30 2845 C 289.887 -1.01854 1.84903 0
M  V30 2846 O 289.235 -1.87773 1.30206 0
M  V30 2847 C 289.445 1.063 3.32417 0
M  V30 2848 C 290.793 1.13051 4.09273 0
M  V30 2849 O 291.817 1.01345 3.41479 0
M  V30 2850 O 290.676 1.31233 5.30509 0
M  V30 2851 H 287.77 0.163897 0.810597 0
M  V30 2852 H 290.316 1.03173 1.34735 0
M  V30 2853 H 289.088 2.10665 3.29752 0
M  V30 2854 H 288.711 0.517408 3.94219 0
M  V30 2855 N 289.708 -1.40897 0.706093 0
M  V30 2856 C 291.124 -1.55042 0.37869 0
M  V30 2857 C 291.324 -1.67944 -1.11342 0
M  V30 2858 O 290.38 -1.66372 -1.89938 0
M  V30 2859 C 291.693 -2.78398 1.13643 0
M  V30 2860 C 293.241 -2.92206 1.12181 0
M  V30 2861 C 293.716 -4.18463 1.86152 0
M  V30 2862 N 295.207 -4.25443 1.83173 0
M  V30 2863 C 295.942 -5.2202 2.37239 0
M  V30 2864 N 295.438 -6.24563 2.99821 0
M  V30 2865 N 297.231 -5.14033 2.27435 0
M  V30 2866 H 289.382 -1.30769 1.67372 0
M  V30 2867 H 291.645 -0.631653 0.706907 0
M  V30 2868 H 291.351 -2.7511 2.19106 0
M  V30 2869 H 291.225 -3.70228 0.721853 0
M  V30 2870 H 293.612 -2.95004 0.0754171 0
M  V30 2871 H 293.693 -2.01521 1.57554 0
M  V30 2872 H 293.337 -4.16427 2.90776 0
M  V30 2873 H 293.267 -5.08141 1.38206 0
M  V30 2874 H 295.758 -3.51976 1.37556 0
M  V30 2875 H 296.071 -6.94665 3.38616 0
M  V30 2876 H 294.416 -6.25035 3.03902 0
M  V30 2877 H 297.607 -4.3285 1.78208 0
M  V30 2878 H 297.78 -5.89129 2.69873 0
M  V30 2879 N 291.186 -0.45159 -1.50991 0
M  V30 2880 C 292.597 0.00818571 -1.86698 0
M  V30 2881 C 292.948 1.40661 -1.3678 0
M  V30 2882 O 292.073 2.0391 -0.724546 0
M  V30 2883 C 292.668 0.0216303 -3.38793 0
M  V30 2884 C 291.227 0.425865 -3.73983 0
M  V30 2885 C 290.374 -0.372163 -2.74791 0
M  V30 2886 H 293.325 -0.666785 -1.44013 0
M  V30 2887 H 293.346 0.828078 -3.7138 0
M  V30 2888 H 292.858 -0.996288 -3.75094 0
M  V30 2889 H 290.959 1.44886 -3.43277 0
M  V30 2890 H 291.072 0.140761 -4.78893 0
M  V30 2891 H 289.436 0.171498 -2.54122 0
M  V30 2892 H 290.219 -1.38922 -3.13935 0
M  V30 2893 N 292.664 1.56529 -0.183458 0
M  V30 2894 C 294.075 1.83739 0.331177 0
M  V30 2895 C 294.426 1.10373 1.62211 0
M  V30 2896 O 293.551 0.36071 2.13373 0
M  V30 2897 C 294.146 3.33306 0.607646 0
M  V30 2898 C 292.705 3.60969 1.06668 0
M  V30 2899 C 291.852 2.77086 0.109029 0
M  V30 2900 H 294.803 1.53379 -0.407484 0
M  V30 2901 H 294.824 3.51444 1.45832 0
M  V30 2902 H 294.336 3.86677 -0.332086 0
M  V30 2903 H 292.437 3.13021 2.0211 0
M  V30 2904 H 292.55 4.69231 0.967447 0
M  V30 2905 H 290.914 2.47319 0.608714 0
M  V30 2906 H 291.697 3.33241 -0.82494 0
M  V30 2907 N 294.142 -0.090211 1.57342 0
M  V30 2908 C 295.388 -0.793982 1.86611 0
M  V30 2909 C 295.721 -1.78142 0.773252 0
M  V30 2910 O 294.996 -1.93271 -0.218304 0
M  V30 2911 C 295.279 -1.51839 3.26523 0
M  V30 2912 C 295.132 -0.548609 4.46442 0
M  V30 2913 C 296.451 -2.46779 3.64401 0
M  V30 2914 H 293.57 -0.287186 0.678744 0
M  V30 2915 H 296.212 -0.0575076 1.89913 0
M  V30 2916 H 294.362 -2.14617 3.23839 0
M  V30 2917 H 296.034 0.0725513 4.61243 0
M  V30 2918 H 294.277 0.137614 4.33582 0
M  V30 2919 H 294.948 -1.09271 5.41076 0
M  V30 2920 H 297.424 -1.94089 3.68061 0
M  V30 2921 H 296.3 -2.94479 4.63221 0
M  V30 2922 H 296.561 -3.30758 2.93346 0
M  V30 2923 N 295.62 -1.53406 -0.361157 0
M  V30 2924 C 296.55 -1.83136 -1.44857 0
M  V30 2925 C 297.531 -0.685174 -1.5569 0
M  V30 2926 O 298.716 -0.93544 -1.70186 0
M  V30 2927 C 295.846 -2.02522 -2.82138 0
M  V30 2928 C 294.8 -3.18302 -2.86126 0
M  V30 2929 C 294.126 -3.22989 -4.26125 0
M  V30 2930 C 295.426 -4.56796 -2.53248 0
M  V30 2931 H 297.12 -2.74201 -1.20226 0
M  V30 2932 H 294.666 -1.31938 -0.576922 0
M  V30 2933 H 296.619 -2.21904 -3.58241 0
M  V30 2934 H 295.343 -1.08172 -3.08166 0
M  V30 2935 H 294.002 -2.98747 -2.12475 0
M  V30 2936 H 293.65 -2.26267 -4.49235 0
M  V30 2937 H 293.35 -4.00781 -4.29708 0
M  V30 2938 H 294.874 -3.44559 -5.04094 0
M  V30 2939 H 296.288 -4.7631 -3.19064 0
M  V30 2940 H 294.685 -5.36862 -2.68141 0
M  V30 2941 H 295.755 -4.61606 -1.48484 0
M  V30 2942 N 297.098 0.621204 -1.44841 0
M  V30 2943 C 298.028 1.74366 -1.55303 0
M  V30 2944 C 299.009 1.65199 -0.405385 0
M  V30 2945 O 300.194 1.83807 -0.626787 0
M  V30 2946 C 297.324 3.12931 -1.50637 0
M  V30 2947 C 296.278 3.36896 -2.63979 0
M  V30 2948 C 295.604 4.75594 -2.44366 0
M  V30 2949 C 296.904 3.28483 -4.06074 0
M  V30 2950 H 298.598 1.65867 -2.49256 0
M  V30 2951 H 296.144 0.796558 -1.19962 0
M  V30 2952 H 298.097 3.9124 -1.56555 0
M  V30 2953 H 296.821 3.22237 -0.532057 0
M  V30 2954 H 295.48 2.60972 -2.57467 0
M  V30 2955 H 295.128 4.81616 -1.45105 0
M  V30 2956 H 294.828 4.92586 -3.20364 0
M  V30 2957 H 296.352 5.5612 -2.52117 0
M  V30 2958 H 297.766 3.96684 -4.13902 0
M  V30 2959 H 296.163 3.57008 -4.82354 0
M  V30 2960 H 297.233 2.26133 -4.28943 0
M  V30 2961 N 298.576 1.31904 0.862503 0
M  V30 2962 C 299.825 1.21373 1.61094 0
M  V30 2963 C 300.138 -0.22504 1.94301 0
M  V30 2964 O 301.344 -0.452121 2.67709 0
M  V30 2965 C 299.8 2.12525 2.9045 0
M  V30 2966 C 299.408 3.61441 2.64697 0
M  V30 2967 C 301.152 2.10813 3.68454 0
M  V30 2968 C 299.059 4.44578 3.90006 0
M  V30 2969 H 297.989 0.450705 0.604468 0
M  V30 2970 H 300.64 1.56811 0.953027 0
M  V30 2971 H 299.022 1.69994 3.57656 0
M  V30 2972 H 300.196 4.12264 2.05851 0
M  V30 2973 H 298.511 3.65205 2.00036 0
M  V30 2974 H 301.108 2.70167 4.61426 0
M  V30 2975 H 301.451 1.09713 4.01583 0
M  V30 2976 H 301.984 2.51583 3.08141 0
M  V30 2977 H 298.723 5.46461 3.62023 0
M  V30 2978 H 298.243 3.98508 4.48276 0
M  V30 2979 H 299.922 4.57176 4.5782 0
M  V30 2980 N 300.054 -1.07777 1.14986 0
M  V30 2981 C 301.017 -2.13041 0.845358 0
M  V30 2982 C 302.017 -1.60071 -0.152931 0
M  V30 2983 O 303.207 -1.74033 0.0761879 0
M  V30 2984 C 300.339 -3.39896 0.261383 0
M  V30 2985 H 301.532 -2.41485 1.77834 0
M  V30 2986 H 299.085 -1.23595 0.956757 0
M  V30 2987 H 299.82 -3.17091 -0.68 0
M  V30 2988 H 299.605 -3.79642 0.980514 0
M  V30 2989 H 301.095 -4.17548 0.0657687 0
M  V30 2990 N 301.532 -0.945985 -1.26051 0
M  V30 2991 C 302.48 -0.450259 -2.282 0
M  V30 2992 C 303.474 0.47497 -1.62605 0
M  V30 2993 O 304.68 0.352653 -1.76512 0
M  V30 2994 H 301.055 -0.127081 -0.741184 0
M  V30 2995 H 303.026 -1.32422 -2.67408 0
M  V30 2996 C 301.775 0.26467 -3.46691 0
M  V30 2997 H 301.098 -0.438123 -3.97392 0
M  V30 2998 H 302.538 0.575678 -4.20074 0
M  V30 2999 C 300.997 1.48416 -3.02447 0
M  V30 3000 O 301.527 2.58227 -3.07704 0
M  V30 3001 N 299.733 1.34243 -2.57735 0
M  V30 3002 H 299.28 0.448994 -2.53657 0
M  V30 3003 H 299.238 2.15957 -2.28495 0
M  V30 3004 N 303.011 1.40521 -0.713556 0
M  V30 3005 C 304.236 2.05759 -0.26035 0
M  V30 3006 C 304.661 1.53403 1.08854 0
M  V30 3007 O 304.019 0.668535 1.68524 0
M  V30 3008 C 304.067 3.59745 -0.248122 0
M  V30 3009 O 303.171 4.05123 0.77131 0
M  V30 3010 H 302.512 0.652564 -0.122703 0
M  V30 3011 H 305.042 1.79958 -0.973467 0
M  V30 3012 H 305.052 4.07911 -0.0851129 0
M  V30 3013 H 303.727 3.97218 -1.2325 0
M  V30 3014 H 302.304 3.68422 0.57619 0
M  V30 3015 N 304.489 0.459591 1.5075 0
M  V30 3016 C 305.421 -0.37665 2.26084 0
M  V30 3017 C 306.434 -0.967109 1.30961 0
M  V30 3018 O 307.623 -0.857468 1.56556 0
M  V30 3019 C 304.723 -1.54112 3.01832 0
M  V30 3020 C 303.896 -1.06553 4.24223 0
M  V30 3021 C 302.955 -2.1027 4.82362 0
M  V30 3022 O 301.981 -1.68798 5.43595 0
M  V30 3023 N 303.183 -3.42974 4.68347 0
M  V30 3024 H 305.948 0.269124 2.98489 0
M  V30 3025 H 303.509 0.28972 1.59287 0
M  V30 3026 H 305.501 -2.23165 3.37608 0
M  V30 3027 H 304.071 -2.0918 2.32298 0
M  V30 3028 H 303.291 -0.201274 3.93686 0
M  V30 3029 H 304.579 -0.725516 5.03601 0
M  V30 3030 H 303.977 -3.79385 4.19623 0
M  V30 3031 H 302.534 -4.07858 5.08424 0
M  V30 3032 N 305.967 -1.56429 0.191757 0
M  V30 3033 C 306.915 -2.20273 -0.747174 0
M  V30 3034 C 307.909 -1.17288 -1.22229 0
M  V30 3035 O 309.115 -1.35441 -1.18557 0
M  V30 3036 H 305.49 -0.705885 -0.259289 0
M  V30 3037 H 307.461 -2.97826 -0.184963 0
M  V30 3038 C 306.21 -2.87356 -1.95759 0
M  V30 3039 H 305.533 -3.66341 -1.60106 0
M  V30 3040 H 306.973 -3.3547 -2.59299 0
M  V30 3041 C 305.432 -1.88213 -2.79423 0
M  V30 3042 O 305.962 -1.38033 -3.7724 0
M  V30 3043 N 304.168 -1.56516 -2.44849 0
M  V30 3044 H 303.715 -1.97516 -1.65364 0
M  V30 3045 H 303.673 -0.904369 -3.01112 0
M  V30 3046 N 307.445 0.0818655 -1.57387 0
M  V30 3047 C 308.694 0.781681 -1.85937 0
M  V30 3048 C 309.007 1.79246 -0.782957 0
M  V30 3049 O 310.213 2.54112 -0.955987 0
M  V30 3050 C 308.669 1.44109 -3.29789 0
M  V30 3051 C 308.277 0.469396 -4.45534 0
M  V30 3052 C 310.021 2.12386 -3.67549 0
M  V30 3053 C 307.928 1.13415 -5.80423 0
M  V30 3054 H 306.858 0.295682 -0.693605 0
M  V30 3055 H 309.509 0.0348051 -1.83467 0
M  V30 3056 H 307.891 2.23588 -3.2684 0
M  V30 3057 H 309.065 -0.294856 -4.59856 0
M  V30 3058 H 307.38 -0.108383 -4.16259 0
M  V30 3059 H 309.977 2.62878 -4.65617 0
M  V30 3060 H 310.32 2.91877 -2.96839 0
M  V30 3061 H 310.853 1.39751 -3.72444 0
M  V30 3062 H 307.592 0.379771 -6.54399 0
M  V30 3063 H 307.112 1.8695 -5.69921 0
M  V30 3064 H 308.791 1.65686 -6.25426 0
M  V30 3065 N 308.923 1.53595 0.353017 0
M  V30 3066 C 309.853 1.83902 1.43883 0
M  V30 3067 C 310.834 0.693421 1.55324 0
M  V30 3068 O 312.019 0.944452 1.69687 0
M  V30 3069 C 309.149 2.04016 2.8106 0
M  V30 3070 C 308.103 3.19814 2.84434 0
M  V30 3071 C 307.429 3.25244 4.24406 0
M  V30 3072 C 308.729 4.58133 2.50822 0
M  V30 3073 H 310.423 2.74835 1.1877 0
M  V30 3074 H 307.969 1.32242 0.569917 0
M  V30 3075 H 309.922 2.238 3.57059 0
M  V30 3076 H 308.646 1.09804 3.07588 0
M  V30 3077 H 307.305 2.9987 2.10887 0
M  V30 3078 H 306.953 2.28646 4.48029 0
M  V30 3079 H 306.653 4.03054 4.27576 0
M  V30 3080 H 308.177 3.47228 5.0226 0
M  V30 3081 H 309.591 4.77995 3.16534 0
M  V30 3082 H 307.988 5.38276 2.6529 0
M  V30 3083 H 309.058 4.62387 1.46034 0
M  V30 3084 N 310.401 -0.613514 1.45168 0
M  V30 3085 C 311.364 -1.7065 1.53007 0
M  V30 3086 C 312.364 -1.5548 0.410184 0
M  V30 3087 O 313.554 -1.60656 0.673455 0
M  V30 3088 C 310.686 -3.09875 1.42093 0
M  V30 3089 H 311.879 -1.65068 2.50385 0
M  V30 3090 H 309.432 -0.828728 1.32521 0
M  V30 3091 H 310.167 -3.21039 0.458769 0
M  V30 3092 H 309.952 -3.22293 2.23315 0
M  V30 3093 H 311.442 -3.895 1.50598 0
M  V30 3094 N 311.879 -1.3236 -0.855495 0
M  V30 3095 C 313.107 -1.2587 -1.64208 0
M  V30 3096 C 313.522 0.173457 -1.88002 0
M  V30 3097 O 312.879 1.11027 -1.44842 0
M  V30 3098 C 312.93 -2.01424 -3.00184 0
M  V30 3099 O 312.651 -3.39051 -2.77445 0
M  V30 3100 C 314.152 -2.01948 -3.94629 0
M  V30 3101 H 311.372 -0.434318 -0.511477 0
M  V30 3102 H 313.916 -1.74469 -1.0668 0
M  V30 3103 H 312.071 -1.56549 -3.5436 0
M  V30 3104 H 312.485 -3.77711 -3.63916 0
M  V30 3105 H 313.959 -2.59297 -4.87308 0
M  V30 3106 H 314.436 -1.00554 -4.27534 0
M  V30 3107 H 315.042 -2.46767 -3.4639 0
M  V30 3108 N 313.357 1.07166 -1.15556 0
M  V30 3109 C 314.587 1.83248 -0.954133 0
M  V30 3110 C 314.995 1.82449 0.500911 0
M  V30 3111 O 314.338 1.23575 1.35923 0
M  V30 3112 C 314.4 3.31393 -1.39351 0
M  V30 3113 C 314.064 3.5591 -2.86666 0
M  V30 3114 C 315.061 3.49695 -3.8472 0
M  V30 3115 C 312.746 3.83515 -3.24379 0
M  V30 3116 C 314.74 3.70737 -5.18491 0
M  V30 3117 C 312.427 4.04209 -4.58321 0
M  V30 3118 C 313.425 3.97815 -5.55186 0
M  V30 3119 O 313.113 4.17954 -6.86709 0
M  V30 3120 H 312.845 0.584941 -0.338851 0
M  V30 3121 H 315.399 1.36169 -1.53777 0
M  V30 3122 H 313.629 3.79292 -0.75329 0
M  V30 3123 H 315.318 3.88945 -1.16089 0
M  V30 3124 H 316.084 3.28368 -3.56931 0
M  V30 3125 H 311.963 3.87605 -2.49567 0
M  V30 3126 H 315.507 3.65663 -5.94085 0
M  V30 3127 H 311.404 4.25023 -4.85825 0
M  V30 3128 H 312.172 4.35291 -6.93155 0
M  V30 3129 N 314.835 0.952656 1.25548 0
M  V30 3130 C 315.765 0.489287 2.28316 0
M  V30 3131 C 316.746 -0.463359 1.63667 0
M  V30 3132 O 317.931 -0.36274 1.90782 0
M  V30 3133 C 315.061 -0.235603 3.465 0
M  V30 3134 C 314.015 0.631593 4.23314 0
M  V30 3135 C 313.341 -0.223923 5.34231 0
M  V30 3136 C 314.641 1.90871 4.86174 0
M  V30 3137 H 316.335 1.34822 2.67326 0
M  V30 3138 H 313.881 0.649728 1.28509 0
M  V30 3139 H 315.834 -0.570882 4.17515 0
M  V30 3140 H 314.558 -1.12877 3.06474 0
M  V30 3141 H 313.217 0.949929 3.54079 0
M  V30 3142 H 312.865 -1.11678 4.90446 0
M  V30 3143 H 312.565 0.35299 5.86539 0
M  V30 3144 H 314.089 -0.554214 6.0808 0
M  V30 3145 H 315.503 1.63997 5.49343 0
M  V30 3146 H 313.9 2.43112 5.4865 0
M  V30 3147 H 314.97 2.61304 4.08471 0
M  V30 3148 N 316.313 -1.40141 0.720998 0
M  V30 3149 C 317.538 -2.05618 0.271258 0
M  V30 3150 C 317.963 -1.53978 -1.08039 0
M  V30 3151 O 317.321 -0.677463 -1.68167 0
M  V30 3152 C 317.369 -3.59609 0.267197 0
M  V30 3153 O 316.473 -4.05526 -0.749814 0
M  V30 3154 H 315.814 -0.651904 0.126162 0
M  V30 3155 H 318.344 -1.79439 0.982997 0
M  V30 3156 H 318.354 -4.0786 0.106744 0
M  V30 3157 H 317.029 -3.96559 1.25354 0
M  V30 3158 H 315.606 -3.68722 -0.556644 0
M  V30 3159 N 317.792 -0.46758 -1.50504 0
M  V30 3160 C 319.04 0.0884469 -2.01906 0
M  V30 3161 C 319.361 1.40532 -1.35188 0
M  V30 3162 O 318.631 1.89515 -0.496079 0
M  V30 3163 H 317.211 0.0356765 -0.746148 0
M  V30 3164 H 319.873 -0.6172 -1.84869 0
M  V30 3165 H 318.969 0.2425 -3.11156 0
M  V30 3166 N 319.27 1.56325 -0.20005 0
M  V30 3167 C 320.233 2.18084 0.705132 0
M  V30 3168 C 321.233 1.13666 1.1374 0
M  V30 3169 O 322.423 1.39023 1.04968 0
M  V30 3170 C 319.555 2.78689 1.96329 0
M  V30 3171 H 320.748 2.99435 0.167023 0
M  V30 3172 H 318.301 1.56221 0.0495725 0
M  V30 3173 H 319.036 2.0115 2.5438 0
M  V30 3174 H 318.821 3.55133 1.66202 0
M  V30 3175 H 320.311 3.26096 2.60866 0
M  V30 3176 N 320.748 -0.0735177 1.57428 0
M  V30 3177 C 321.68 -1.11423 2.00294 0
M  V30 3178 C 322.693 -1.35084 0.908637 0
M  V30 3179 O 323.882 -1.33355 1.18654 0
M  V30 3180 C 320.982 -2.46548 2.32523 0
M  V30 3181 C 320.155 -2.42867 3.63778 0
M  V30 3182 C 319.214 -3.60087 3.83697 0
M  V30 3183 O 318.24 -3.41595 4.55304 0
M  V30 3184 N 319.442 -4.80372 3.25919 0
M  V30 3185 H 322.207 -0.749206 2.90184 0
M  V30 3186 H 319.768 -0.262195 1.59763 0
M  V30 3187 H 321.76 -3.23607 2.43024 0
M  V30 3188 H 320.33 -2.75059 1.48531 0
M  V30 3189 H 319.55 -1.51206 3.64047 0
M  V30 3190 H 320.838 -2.37506 4.49965 0
M  V30 3191 H 320.236 -4.983 2.67795 0
M  V30 3192 H 318.793 -5.54948 3.41871 0
M  V30 3193 N 322.226 -1.5378 -0.344866 0
M  V30 3194 C 323.472 -1.71216 -1.08687 0
M  V30 3195 C 323.805 -0.473281 -1.88345 0
M  V30 3196 O 323.08 0.52968 -1.87149 0
M  V30 3197 C 323.363 -2.97486 -2.02914 0
M  V30 3198 C 323.216 -4.31579 -1.26727 0
M  V30 3199 C 324.535 -3.19422 -3.0275 0
M  V30 3200 H 321.654 -0.62301 -0.393735 0
M  V30 3201 H 324.296 -1.8645 -0.365563 0
M  V30 3202 H 322.446 -2.84629 -2.64421 0
M  V30 3203 H 324.118 -4.56284 -0.67845 0
M  V30 3204 H 322.361 -4.30049 -0.569273 0
M  V30 3205 H 323.032 -5.16106 -1.95803 0
M  V30 3206 H 325.508 -3.316 -2.51357 0
M  V30 3207 H 324.384 -4.09169 -3.65885 0
M  V30 3208 H 324.645 -2.35656 -3.74057 0
M  V30 3209 N 323.704 0.605807 -1.45491 0
M  V30 3210 C 324.929 1.39625 -1.53361 0
M  V30 3211 C 325.354 1.87351 -0.167645 0
M  V30 3212 O 324.712 1.60243 0.848051 0
M  V30 3213 C 324.76 2.57559 -2.5238 0
M  V30 3214 O 323.864 3.58248 -2.04285 0
M  V30 3215 H 323.205 0.416771 -0.516912 0
M  V30 3216 H 325.735 0.737103 -1.90861 0
M  V30 3217 H 325.745 3.0478 -2.71244 0
M  V30 3218 H 324.42 2.22171 -3.51586 0
M  V30 3219 H 322.997 3.17664 -1.95305 0
M  V30 3220 N 325.182 1.32811 0.848464 0
M  V30 3221 C 326.41 1.26739 1.63538 0
M  V30 3222 C 326.825 -0.163484 1.88091 0
M  V30 3223 O 326.182 -1.10258 1.45429 0
M  V30 3224 C 326.233 2.03013 2.99112 0
M  V30 3225 O 325.954 3.40518 2.75643 0
M  V30 3226 C 327.455 2.04038 3.93552 0
M  V30 3227 H 324.675 0.437024 0.509167 0
M  V30 3228 H 327.219 1.75033 1.05753 0
M  V30 3229 H 325.374 1.58426 3.53525 0
M  V30 3230 H 325.788 3.79635 3.61908 0
M  V30 3231 H 327.262 2.61877 4.85926 0
M  V30 3232 H 327.739 1.0282 4.26995 0
M  V30 3233 H 328.345 2.486 3.45077 0
M  V30 3234 N 326.66 -1.06551 1.16123 0
M  V30 3235 C 327.909 -1.78687 0.935622 0
M  V30 3236 C 328.222 -1.88056 -0.538001 0
M  V30 3237 O 329.428 -2.56794 -0.88143 0
M  V30 3238 C 327.884 -3.21143 1.62466 0
M  V30 3239 C 327.492 -3.19949 3.13587 0
M  V30 3240 C 329.236 -3.9783 1.48092 0
M  V30 3241 C 327.143 -4.57108 3.75241 0
M  V30 3242 H 326.073 -0.669712 0.346412 0
M  V30 3243 H 328.724 -1.19534 1.39226 0
M  V30 3244 H 327.106 -3.80539 1.09572 0
M  V30 3245 H 328.28 -2.70151 3.73303 0
M  V30 3246 H 326.595 -2.5676 3.27816 0
M  V30 3247 H 329.192 -4.99217 1.91538 0
M  V30 3248 H 329.535 -4.14078 0.429507 0
M  V30 3249 H 330.068 -3.4495 1.98127 0
M  V30 3250 H 326.807 -4.46065 4.80319 0
M  V30 3251 H 326.327 -5.07111 3.20309 0
M  V30 3252 H 328.006 -5.26069 3.76644 0
M  V30 3253 N 328.138 -0.959301 -1.25041 0
M  V30 3254 C 329.366 -0.633949 -1.96948 0
M  V30 3255 C 329.781 0.794916 -1.7125 0
M  V30 3256 O 329.138 1.53231 -0.991287 0
M  V30 3257 C 329.189 -0.888805 -3.50403 0
M  V30 3258 O 328.91 -2.26149 -3.75218 0
M  V30 3259 C 330.411 -0.576482 -4.39536 0
M  V30 3260 H 327.631 -0.237263 -0.627652 0
M  V30 3261 H 330.175 -1.28495 -1.59089 0
M  V30 3262 H 328.33 -0.284145 -3.86357 0
M  V30 3263 H 328.744 -2.33514 -4.6965 0
M  V30 3264 H 330.218 -0.805314 -5.46094 0
M  V30 3265 H 330.695 0.489075 -4.36468 0
M  V30 3266 H 331.301 -1.16067 -4.09156 0
M  V30 3267 N 329.616 1.39756 -0.72842 0
M  V30 3268 C 331.027 1.83498 -0.344289 0
M  V30 3269 C 331.378 1.60868 1.12321 0
M  V30 3270 O 330.503 1.09634 1.86573 0
M  V30 3271 C 331.098 3.33114 -0.618112 0
M  V30 3272 C 329.657 3.753 -0.287549 0
M  V30 3273 C 328.804 2.62831 -0.884048 0
M  V30 3274 H 331.755 1.28842 -0.926578 0
M  V30 3275 H 331.776 3.80334 0.112349 0
M  V30 3276 H 331.288 3.49553 -1.68625 0
M  V30 3277 H 329.389 3.64451 0.775012 0
M  V30 3278 H 329.502 4.72945 -0.765512 0
M  V30 3279 H 327.866 2.52792 -0.311149 0
M  V30 3280 H 328.649 2.82078 -1.95671 0
M  V30 3281 N 331.094 0.475555 1.50254 0
M  V30 3282 C 332.322 -0.0754493 2.06762 0
M  V30 3283 C 332.737 -1.33111 1.33891 0
M  V30 3284 O 332.094 -1.77846 0.40952 0
M  V30 3285 C 332.145 -0.359008 3.59713 0
M  V30 3286 O 331.866 0.846851 4.29837 0
M  V30 3287 C 333.367 -0.956484 4.32858 0
M  V30 3288 H 330.587 0.00907525 0.670939 0
M  V30 3289 H 333.131 0.665618 1.93364 0
M  V30 3290 H 331.286 -1.05001 3.72899 0
M  V30 3291 H 331.7 0.594162 5.21124 0
M  V30 3292 H 333.174 -1.10463 5.40834 0
M  V30 3293 H 333.651 -1.94775 3.93649 0
M  V30 3294 H 334.257 -0.303723 4.24214 0
M  V30 3295 N 332.573 -1.56217 0.208337 0
M  V30 3296 C 333.798 -2.02782 -0.435222 0
M  V30 3297 C 334.223 -1.08738 -1.53485 0
M  V30 3298 O 333.581 -0.0731855 -1.81152 0
M  V30 3299 C 333.629 -3.47687 -0.956335 0
M  V30 3300 O 332.733 -3.56773 -2.06849 0
M  V30 3301 H 332.074 -0.656403 -0.100158 0
M  V30 3302 H 334.604 -2.02033 0.3231 0
M  V30 3303 H 334.614 -3.87745 -1.26955 0
M  V30 3304 H 333.289 -4.15624 -0.15143 0
M  V30 3305 H 331.866 -3.28597 -1.76292 0
M  V30 3306 N 334.051 0.0651679 -1.57465 0
M  V30 3307 C 335.279 0.775808 -1.91804 0
M  V30 3308 C 335.694 1.70782 -0.804916 0
M  V30 3309 O 335.051 1.81153 0.221311 0
M  V30 3310 C 335.102 1.56381 -3.25925 0
M  V30 3311 O 334.823 0.669248 -4.32958 0
M  V30 3312 C 336.324 2.37485 -3.7432 0
M  V30 3313 H 333.544 0.2202 -0.63384 0
M  V30 3314 H 336.088 0.0334587 -2.04473 0
M  V30 3315 H 334.243 2.25837 -3.14764 0
M  V30 3316 H 334.657 1.21801 -5.10162 0
M  V30 3317 H 336.131 2.88223 -4.70778 0
M  V30 3318 H 336.608 3.17307 -3.03666 0
M  V30 3319 H 337.214 1.73173 -3.88447 0
M  V30 3320 N 335.529 1.53961 0.336706 0
M  V30 3321 C 336.945 1.44378 0.680241 0
M  V30 3322 C 337.145 0.606034 1.9217 0
M  V30 3323 O 336.201 0.099688 2.52303 0
M  V30 3324 C 337.514 2.87945 0.8665 0
M  V30 3325 C 339.062 2.97763 0.964682 0
M  V30 3326 C 339.537 4.42453 1.18321 0
M  V30 3327 N 341.028 4.46008 1.25025 0
M  V30 3328 C 341.763 5.55102 1.43697 0
M  V30 3329 N 341.259 6.7419 1.59498 0
M  V30 3330 N 343.052 5.42727 1.463 0
M  V30 3331 H 335.203 2.06918 -0.479455 0
M  V30 3332 H 337.466 0.935634 -0.152619 0
M  V30 3333 H 337.172 3.51691 0.0256937 0
M  V30 3334 H 337.046 3.33293 1.76623 0
M  V30 3335 H 339.433 2.34153 1.796 0
M  V30 3336 H 339.514 2.55766 0.041708 0
M  V30 3337 H 339.158 5.06645 0.356788 0
M  V30 3338 H 339.088 4.82048 2.11985 0
M  V30 3339 H 341.579 3.60196 1.14312 0
M  V30 3340 H 341.892 7.53095 1.734 0
M  V30 3341 H 340.237 6.77123 1.56621 0
M  V30 3342 H 343.428 4.48647 1.33543 0
M  V30 3343 H 343.601 6.27806 1.6051 0
M  V30 3344 N 337.007 -0.598083 1.45811 0
M  V30 3345 C 337.939 -1.72231 1.51225 0
M  V30 3346 C 338.952 -1.57757 0.402059 0
M  V30 3347 O 340.141 -1.65464 0.669624 0
M  V30 3348 C 337.241 -3.10331 1.3619 0
M  V30 3349 C 336.414 -3.50955 2.61054 0
M  V30 3350 C 335.473 -4.68055 2.40439 0
M  V30 3351 O 334.499 -4.74691 3.14097 0
M  V30 3352 N 335.701 -5.61941 1.45612 0
M  V30 3353 H 338.466 -1.68046 2.48154 0
M  V30 3354 H 336.027 -0.783637 1.41671 0
M  V30 3355 H 338.019 -3.86439 1.20195 0
M  V30 3356 H 336.589 -3.0897 0.475015 0
M  V30 3357 H 335.809 -2.64711 2.92099 0
M  V30 3358 H 337.097 -3.74858 3.44034 0
M  V30 3359 H 336.495 -5.59301 0.848431 0
M  V30 3360 H 335.052 -6.37542 1.35585 0
M  V30 3361 N 338.485 -1.33259 -0.841409 0
M  V30 3362 C 339.713 -1.27605 -1.62864 0
M  V30 3363 C 340.128 0.153507 -1.88175 0
M  V30 3364 O 339.485 1.09485 -1.46011 0
M  V30 3365 C 339.536 -2.04596 -2.98031 0
M  V30 3366 O 339.257 -3.41975 -2.73834 0
M  V30 3367 C 340.758 -2.06122 -3.92465 0
M  V30 3368 H 337.978 -0.439718 -0.506842 0
M  V30 3369 H 340.522 -1.75591 -1.04824 0
M  V30 3370 H 338.677 -1.60299 -3.5268 0
M  V30 3371 H 339.091 -3.81549 -3.59889 0
M  V30 3372 H 340.565 -2.64451 -4.84531 0
M  V30 3373 H 341.042 -1.05083 -4.26444 0
M  V30 3374 H 341.648 -2.50427 -3.43753 0
M  V30 3375 N 339.963 1.05934 -1.16686 0
M  V30 3376 C 341.191 1.8249 -0.974929 0
M  V30 3377 C 341.606 1.82679 0.476861 0
M  V30 3378 O 340.963 1.2486 1.33103 0
M  V30 3379 C 341.014 3.28943 -1.49929 0
M  V30 3380 O 340.735 3.28886 -2.89423 0
M  V30 3381 C 342.236 4.22215 -1.35089 0
M  V30 3382 H 339.456 0.575295 -0.345365 0
M  V30 3383 H 342 1.33631 -1.548 0
M  V30 3384 H 340.155 3.751 -0.968423 0
M  V30 3385 H 340.569 4.20493 -3.13506 0
M  V30 3386 H 342.043 5.22987 -1.76603 0
M  V30 3387 H 342.52 4.38195 -0.296935 0
M  V30 3388 H 343.126 3.81907 -1.87155 0
M  V30 3389 N 341.441 0.965919 1.2453 0
M  V30 3390 C 342.404 0.499547 2.2369 0
M  V30 3391 C 343.404 -0.40294 1.5567 0
M  V30 3392 O 344.594 -0.19865 1.73064 0
M  V30 3393 C 341.726 -0.276792 3.39774 0
M  V30 3394 H 342.919 1.37613 2.66463 0
M  V30 3395 H 340.472 0.750324 1.37112 0
M  V30 3396 H 341.207 -1.17055 3.02438 0
M  V30 3397 H 340.992 0.370826 3.90343 0
M  V30 3398 H 342.482 -0.592175 4.1338 0
M  V30 3399 N 342.919 -1.39368 0.735821 0
M  V30 3400 C 343.852 -2.28155 0.0451175 0
M  V30 3401 C 344.83 -1.44433 -0.746852 0
M  V30 3402 O 346.014 -1.73823 -0.729237 0
M  V30 3403 C 343.141 -3.253 -0.943266 0
M  V30 3404 C 342.187 -4.25826 -0.239685 0
M  V30 3405 S 343.02 -5.25166 1.04693 0
M  V30 3406 C 344.176 -6.2587 0.0611639 0
M  V30 3407 H 344.409 -2.86388 0.79807 0
M  V30 3408 H 341.942 -1.45104 0.527653 0
M  V30 3409 H 343.9 -3.81789 -1.50824 0
M  V30 3410 H 342.561 -2.66085 -1.66906 0
M  V30 3411 H 341.754 -4.94229 -0.987596 0
M  V30 3412 H 341.356 -3.73141 0.253274 0
M  V30 3413 H 343.648 -6.73007 -0.778941 0
M  V30 3414 H 344.591 -7.04508 0.712362 0
M  V30 3415 H 344.999 -5.63639 -0.311602 0
M  V30 3416 N 344.397 -0.483516 -1.5 0
M  V30 3417 C 345.674 0.129337 -1.95172 0
M  V30 3418 C 346.054 1.55802 -1.4244 0
M  V30 3419 O 345.402 2.19625 -0.630649 0
M  V30 3420 C 345.612 0.0599251 -3.48949 0
M  V30 3421 C 346.96 0.242617 -4.23906 0
M  V30 3422 O 347.984 0.135933 -3.55941 0
M  V30 3423 O 346.843 0.459454 -5.44565 0
M  V30 3424 H 343.937 0.104887 -0.820322 0
M  V30 3425 H 346.483 -0.544807 -1.60717 0
M  V30 3426 H 345.255 -0.937079 -3.79914 0
M  V30 3427 H 344.878 0.774984 -3.89974 0
M  V30 3428 N 345.875 1.56104 -0.216619 0
M  V30 3429 C 347.122 1.98172 0.416416 0
M  V30 3430 C 347.45 1.10413 1.60122 0
M  V30 3431 O 346.705 0.147967 1.9514 0
M  V30 3432 C 347.004 3.45923 0.898464 0
M  V30 3433 C 346.67 4.50559 -0.175288 0
M  V30 3434 C 345.332 4.78897 -0.470271 0
M  V30 3435 C 347.684 5.1334 -0.901728 0
M  V30 3436 C 345.012 5.67299 -1.4963 0
M  V30 3437 C 347.364 6.02853 -1.91705 0
M  V30 3438 C 346.028 6.29537 -2.21901 0
M  V30 3439 H 345.298 0.725164 0.152377 0
M  V30 3440 H 347.945 1.88839 -0.318103 0
M  V30 3441 H 346.25 3.52434 1.71165 0
M  V30 3442 H 347.947 3.75841 1.39803 0
M  V30 3443 H 344.537 4.28551 0.0647806 0
M  V30 3444 H 348.721 4.91521 -0.687072 0
M  V30 3445 H 343.977 5.86239 -1.73592 0
M  V30 3446 H 348.151 6.50552 -2.48505 0
M  V30 3447 H 345.778 6.97835 -3.01548 0
M  V30 3448 N 347.353 -0.0568162 1.57498 0
M  V30 3449 C 348.578 -0.769402 1.92601 0
M  V30 3450 C 349.003 -1.69559 0.814336 0
M  V30 3451 O 348.361 -1.79811 -0.231903 0
M  V30 3452 C 348.409 -1.52634 3.26704 0
M  V30 3453 O 347.513 -2.63797 3.16994 0
M  V30 3454 H 346.854 -0.208909 0.63028 0
M  V30 3455 H 349.384 -0.0205798 2.0459 0
M  V30 3456 H 349.394 -1.90234 3.60936 0
M  V30 3457 H 348.069 -0.846875 4.07186 0
M  V30 3458 H 346.646 -2.28943 2.94346 0
M  V30 3459 N 348.832 -1.54138 -0.328536 0
M  V30 3460 C 350.062 -1.75807 -1.08516 0
M  V30 3461 C 350.47 -0.50428 -1.82356 0
M  V30 3462 O 349.813 0.534451 -1.75754 0
M  V30 3463 C 349.875 -2.89423 -2.13248 0
M  V30 3464 C 349.539 -4.28504 -1.5885 0
M  V30 3465 C 350.536 -5.09536 -1.03289 0
M  V30 3466 C 348.221 -4.75034 -1.63243 0
M  V30 3467 C 350.215 -6.35206 -0.52845 0
M  V30 3468 C 347.902 -6.00672 -1.12411 0
M  V30 3469 C 348.9 -6.80592 -0.573062 0
M  V30 3470 O 348.588 -8.03867 -0.0723692 0
M  V30 3471 H 348.32 -0.590633 -0.328829 0
M  V30 3472 H 350.874 -2.01819 -0.381868 0
M  V30 3473 H 349.104 -2.5897 -2.87178 0
M  V30 3474 H 350.793 -2.98921 -2.74592 0
M  V30 3475 H 351.559 -4.74745 -0.99206 0
M  V30 3476 H 347.438 -4.12875 -2.05074 0
M  V30 3477 H 350.982 -6.97532 -0.0976774 0
M  V30 3478 H 346.879 -6.34955 -1.162 0
M  V30 3479 H 347.647 -8.18283 -0.188258 0
M  V30 3480 N 350.31 0.590341 -1.46126 0
M  V30 3481 C 351.273 1.68194 -1.55703 0
M  V30 3482 C 352.273 1.54808 -0.434868 0
M  V30 3483 O 353.463 1.59564 -0.698928 0
M  V30 3484 C 350.595 3.07575 -1.47005 0
M  V30 3485 H 351.788 1.61064 -2.52979 0
M  V30 3486 H 349.341 0.807541 -1.33823 0
M  V30 3487 H 350.076 3.20268 -0.509785 0
M  V30 3488 H 349.861 3.187 -2.28414 0
M  V30 3489 H 351.351 3.87055 -1.56776 0
M  V30 3490 N 351.788 1.33704 0.83433 0
M  V30 3491 C 352.736 1.24323 1.96587 0
M  V30 3492 C 353.73 0.143659 1.6879 0
M  V30 3493 O 354.936 0.30791 1.77347 0
M  V30 3494 H 351.311 0.385925 0.645419 0
M  V30 3495 H 353.282 2.19978 2.01624 0
M  V30 3496 C 352.031 1.00394 3.32891 0
M  V30 3497 H 351.354 1.84231 3.54822 0
M  V30 3498 H 352.794 0.97862 4.12552 0
M  V30 3499 C 351.253 -0.293047 3.35623 0
M  V30 3500 O 351.783 -1.29823 3.80143 0
M  V30 3501 N 349.989 -0.322174 2.88809 0
M  V30 3502 H 349.536 0.496379 2.52772 0
M  V30 3503 H 349.494 -1.18977 2.91019 0
M  V30 3504 N 353.266 -1.05314 1.17247 0
M  V30 3505 C 354.176 -2.16538 0.90268 0
M  V30 3506 C 355.192 -1.73523 -0.128707 0
M  V30 3507 O 356.368 -2.01337 0.0502701 0
M  V30 3508 C 353.433 -3.44167 0.418356 0
M  V30 3509 C 352.494 -4.01635 1.51618 0
M  V30 3510 C 351.727 -5.23171 1.05487 0
M  V30 3511 O 351.95 -5.70327 -0.0914715 0
M  V30 3512 O 350.884 -5.72848 1.8474 0
M  V30 3513 H 354.71 -2.42145 1.83302 0
M  V30 3514 H 352.295 -1.15037 0.953246 0
M  V30 3515 H 354.177 -4.21112 0.155726 0
M  V30 3516 H 352.852 -3.20063 -0.48385 0
M  V30 3517 H 351.759 -3.26135 1.83268 0
M  V30 3518 H 353.092 -4.30053 2.39405 0
M  V30 3519 N 354.744 -0.972509 -1.24016 0
M  V30 3520 C 355.972 -0.654803 -1.96265 0
M  V30 3521 C 356.387 0.776708 -1.72083 0
M  V30 3522 O 355.744 1.52171 -1.00748 0
M  V30 3523 C 355.795 -0.92592 -3.49441 0
M  V30 3524 O 355.516 -2.30116 -3.72798 0
M  V30 3525 C 357.017 -0.623068 -4.38899 0
M  V30 3526 H 354.237 -0.243907 -0.6251 0
M  V30 3527 H 356.781 -1.30175 -1.57717 0
M  V30 3528 H 354.936 -0.325108 -3.86033 0
M  V30 3529 H 355.35 -2.38483 -4.67147 0
M  V30 3530 H 356.824 -0.863189 -5.45209 0
M  V30 3531 H 357.301 0.442754 -4.36963 0
M  V30 3532 H 357.907 -1.204 -4.07902 0
M  V30 3533 N 356.222 1.38976 -0.743202 0
M  V30 3534 C 357.468 2.0064 -0.295189 0
M  V30 3535 C 357.801 1.5885 1.11716 0
M  V30 3536 O 357.076 0.821181 1.76315 0
M  V30 3537 C 357.359 3.578 -0.406318 0
M  V30 3538 C 357.212 4.09586 -1.85903 0
M  V30 3539 C 358.531 4.39616 0.206439 0
M  V30 3540 H 355.65 0.728935 -0.108733 0
M  V30 3541 H 358.292 1.65067 -0.940897 0
M  V30 3542 H 356.442 3.88235 0.143419 0
M  V30 3543 H 358.114 3.89837 -2.46627 0
M  V30 3544 H 356.357 3.6284 -2.3776 0
M  V30 3545 H 357.028 5.18708 -1.888 0
M  V30 3546 H 359.504 4.15273 -0.262283 0
M  V30 3547 H 358.38 5.48812 0.0983819 0
M  V30 3548 H 358.641 4.22754 1.2935 0
M  V30 3549 N 357.7 0.491464 1.49741 0
M  V30 3550 C 358.94 -0.0549118 2.04326 0
M  V30 3551 C 359.304 -1.35148 1.36378 0
M  V30 3552 O 360.505 -1.9815 1.81631 0
M  V30 3553 C 358.776 -0.213841 3.5676 0
M  V30 3554 S 360.335 -0.715839 4.32922 0
M  V30 3555 H 357.153 -0.00630513 0.710972 0
M  V30 3556 H 359.755 0.663257 1.83905 0
M  V30 3557 H 358.459 0.73527 4.0376 0
M  V30 3558 H 357.99 -0.957529 3.81569 0
M  V30 3559 H 360.005 -1.9864 4.54705 0
M  V30 3560 N 359.178 -1.55987 0.224894 0
M  V30 3561 C 360.424 -1.99433 -0.39973 0
M  V30 3562 C 360.779 -1.11004 -1.57149 0
M  V30 3563 O 360.072 -0.160725 -1.90925 0
M  V30 3564 C 360.266 -3.46394 -0.880106 0
M  V30 3565 C 360.095 -4.4904 0.243565 0
M  V30 3566 C 358.865 -5.00272 0.711056 0
M  V30 3567 C 361.063 -5.03195 1.06299 0
M  V30 3568 N 359.045 -5.86628 1.80944 0
M  V30 3569 C 360.416 -5.86508 2.01017 0
M  V30 3570 C 362.471 -4.8555 1.10205 0
M  V30 3571 C 361.174 -6.54062 2.99324 0
M  V30 3572 C 363.2 -5.53866 2.07332 0
M  V30 3573 C 362.562 -6.3695 3.00789 0
M  V30 3574 H 358.661 -0.773815 -0.112847 0
M  V30 3575 H 361.245 -1.91754 0.337432 0
M  V30 3576 H 359.416 -3.54515 -1.58662 0
M  V30 3577 H 361.148 -3.76752 -1.47783 0
M  V30 3578 H 357.903 -4.72655 0.29906 0
M  V30 3579 H 358.327 -6.34507 2.36073 0
M  V30 3580 H 362.969 -4.20966 0.39343 0
M  V30 3581 H 360.687 -7.17827 3.71147 0
M  V30 3582 H 364.273 -5.42178 2.11032 0
M  V30 3583 H 363.153 -6.8888 3.74718 0
M  V30 3584 N 360.656 0.0484629 -1.57525 0
M  V30 3585 C 361.902 0.744226 -1.88651 0
M  V30 3586 C 362.235 1.76029 -0.820212 0
M  V30 3587 O 361.51 1.93782 0.166985 0
M  V30 3588 C 361.793 1.43128 -3.30434 0
M  V30 3589 C 361.646 0.43005 -4.47739 0
M  V30 3590 C 362.965 2.37031 -3.70816 0
M  V30 3591 H 360.084 0.269089 -0.68612 0
M  V30 3592 H 362.726 0.00713532 -1.89999 0
M  V30 3593 H 360.876 2.05956 -3.29415 0
M  V30 3594 H 362.548 -0.194816 -4.60888 0
M  V30 3595 H 360.791 -0.252522 -4.33064 0
M  V30 3596 H 361.462 0.948874 -5.43783 0
M  V30 3597 H 363.938 1.84263 -3.73077 0
M  V30 3598 H 362.814 2.82094 -4.70865 0
M  V30 3599 H 363.075 3.22864 -3.02012 0
M  V30 3600 N 362.134 1.5431 0.320358 0
M  V30 3601 C 363.084 1.803 1.39556 0
M  V30 3602 C 364.068 0.659166 1.46778 0
M  V30 3603 O 365.26 0.91926 1.51257 0
M  V30 3604 C 362.389 2.03665 2.76361 0
M  V30 3605 C 361.475 3.24178 2.73439 0
M  V30 3606 N 361.866 4.4516 2.40137 0
M  V30 3607 C 360.164 3.25816 3.04565 0
M  V30 3608 C 360.865 5.27109 2.4603 0
M  V30 3609 N 359.841 4.64368 2.82601 0
M  V30 3610 H 363.643 2.71416 1.12742 0
M  V30 3611 H 361.157 1.53548 0.528856 0
M  V30 3612 H 363.154 2.20425 3.53862 0
M  V30 3613 H 361.814 1.13805 3.04103 0
M  V30 3614 H 362.825 4.72104 2.12927 0
M  V30 3615 H 359.502 2.46001 3.37328 0
M  V30 3616 H 360.892 6.33728 2.23246 0
M  V30 3617 N 363.613 -0.582584 1.46437 0
M  V30 3618 C 364.859 -1.34278 1.51978 0
M  V30 3619 C 365.192 -1.93446 0.170973 0
M  V30 3620 O 364.467 -1.76481 -0.817608 0
M  V30 3621 C 364.75 -2.47203 2.61845 0
M  V30 3622 C 364.603 -1.93069 4.06257 0
M  V30 3623 C 365.922 -3.49247 2.67795 0
M  V30 3624 H 363.041 -0.486876 0.553282 0
M  V30 3625 H 365.683 -0.654437 1.78374 0
M  V30 3626 H 363.833 -3.0592 2.39469 0
M  V30 3627 H 365.505 -1.38808 4.3992 0
M  V30 3628 H 363.748 -1.23898 4.1573 0
M  V30 3629 H 364.419 -2.74586 4.7886 0
M  V30 3630 H 366.895 -3.00411 2.8791 0
M  V30 3631 H 365.771 -4.25719 3.46489 0
M  V30 3632 H 366.032 -4.06482 1.73852 0
M  V30 3633 N 365.091 -1.34144 -0.827227 0
M  V30 3634 C 366.339 -1.26009 -1.58007 0
M  V30 3635 C 366.66 0.170971 -1.94249 0
M  V30 3636 O 365.93 1.10256 -1.61927 0
M  V30 3637 H 364.51 -0.463414 -0.585881 0
M  V30 3638 H 367.172 -1.68005 -0.987951 0
M  V30 3639 H 366.268 -1.86187 -2.50481 0
M  V30 3640 N 366.569 1.04691 -1.17803 0
M  V30 3641 C 367.846 1.7472 -0.879328 0
M  V30 3642 C 368.226 2.01812 0.619271 0
M  V30 3643 O 367.574 1.65824 1.57209 0
M  V30 3644 C 367.784 3.03686 -1.71976 0
M  V30 3645 C 369.132 3.77542 -1.94286 0
M  V30 3646 O 370.156 3.13569 -1.68976 0
M  V30 3647 O 369.015 4.92506 -2.36855 0
M  V30 3648 H 366.109 0.760011 -0.326056 0
M  V30 3649 H 368.655 1.10813 -1.28525 0
M  V30 3650 H 367.427 2.79754 -2.73594 0
M  V30 3651 H 367.05 3.75332 -1.31194 0
M  V30 3652 N 368.047 0.979072 1.23499 0
M  V30 3653 C 369.272 0.664845 1.96455 0
M  V30 3654 C 369.697 -0.761287 1.72006 0
M  V30 3655 O 369.055 -1.51837 0.990713 0
M  V30 3656 C 369.103 0.959479 3.47601 0
M  V30 3657 O 368.207 0.0508168 4.12369 0
M  V30 3658 H 367.548 0.250185 0.615064 0
M  V30 3659 H 370.078 1.31231 1.5697 0
M  V30 3660 H 370.088 0.895642 3.98048 0
M  V30 3661 H 368.763 1.99876 3.64723 0
M  V30 3662 H 367.34 0.16895 3.72517 0
M  V30 3663 N 369.525 -1.3858 0.750561 0
M  V30 3664 C 370.488 -2.28836 0.129152 0
M  V30 3665 C 371.488 -1.47045 -0.650714 0
M  V30 3666 O 372.678 -1.6753 -0.477428 0
M  V30 3667 C 369.81 -3.30751 -0.825622 0
M  V30 3668 H 371.003 -2.85294 0.924516 0
M  V30 3669 H 368.556 -1.47489 0.517376 0
M  V30 3670 H 369.291 -2.79378 -1.64677 0
M  V30 3671 H 369.076 -3.91177 -0.268852 0
M  V30 3672 H 370.566 -3.98249 -1.2565 0
M  V30 3673 N 371.003 -0.499398 -1.49478 0
M  V30 3674 C 371.966 0.268838 -2.27618 0
M  V30 3675 C 372.966 0.895383 -1.33565 0
M  V30 3676 O 374.156 0.760164 -1.56739 0
M  V30 3677 C 371.288 1.38559 -3.11471 0
M  V30 3678 H 372.481 -0.416812 -2.96989 0
M  V30 3679 H 370.034 -0.254313 -1.54217 0
M  V30 3680 H 370.769 2.10544 -2.46661 0
M  V30 3681 H 370.554 0.941797 -3.80621 0
M  V30 3682 H 372.044 1.92678 -3.70493 0
M  V30 3683 N 372.481 1.55866 -0.233164 0
M  V30 3684 C 373.413 2.18099 0.704668 0
M  V30 3685 C 374.426 1.15334 1.14899 0
M  V30 3686 O 375.615 1.42262 1.07814 0
M  V30 3687 C 372.715 2.7592 1.96777 0
M  V30 3688 C 371.888 4.03969 1.67713 0
M  V30 3689 C 370.947 4.46242 2.78845 0
M  V30 3690 O 369.973 5.12903 2.46818 0
M  V30 3691 N 371.175 4.12886 4.08051 0
M  V30 3692 H 373.94 2.99205 0.172258 0
M  V30 3693 H 371.501 1.61815 -0.0525945 0
M  V30 3694 H 373.493 3.01165 2.70337 0
M  V30 3695 H 372.063 1.99051 2.41034 0
M  V30 3696 H 371.283 3.86459 0.777391 0
M  V30 3697 H 372.571 4.8748 1.4574 0
M  V30 3698 H 371.969 3.59342 4.3691 0
M  V30 3699 H 370.526 4.42997 4.78118 0
M  V30 3700 N 373.959 -0.0401083 1.57549 0
M  V30 3701 C 375.187 -0.745196 1.93014 0
M  V30 3702 C 375.602 -1.6948 0.831984 0
M  V30 3703 O 374.959 -1.81482 -0.192463 0
M  V30 3704 C 375.01 -1.51176 3.28372 0
M  V30 3705 O 374.731 -0.600284 4.33968 0
M  V30 3706 C 376.232 -2.315 3.78051 0
M  V30 3707 H 373.452 -0.210088 0.637263 0
M  V30 3708 H 375.996 -0.000924689 2.045 0
M  V30 3709 H 374.151 -2.20801 3.18317 0
M  V30 3710 H 374.565 -1.13669 5.12035 0
M  V30 3711 H 376.039 -2.80697 4.75303 0
M  V30 3712 H 376.516 -3.12436 3.08675 0
M  V30 3713 H 377.122 -1.66971 3.91153 0
M  V30 3714 N 375.437 -1.54477 -0.31217 0
M  V30 3715 C 376.369 -1.81011 -1.40598 0
M  V30 3716 C 377.382 -0.692546 -1.47335 0
M  V30 3717 O 378.571 -0.969847 -1.49854 0
M  V30 3718 C 375.671 -1.92307 -2.79054 0
M  V30 3719 C 374.844 -3.22594 -2.95384 0
M  V30 3720 C 373.903 -3.24448 -4.1427 0
M  V30 3721 O 372.929 -3.98035 -4.06887 0
M  V30 3722 N 374.131 -2.49042 -5.24365 0
M  V30 3723 H 376.896 -2.75408 -1.18196 0
M  V30 3724 H 374.457 -1.53914 -0.502202 0
M  V30 3725 H 376.449 -1.90962 -3.56813 0
M  V30 3726 H 375.019 -1.04955 -2.94454 0
M  V30 3727 H 374.239 -3.36806 -2.04831 0
M  V30 3728 H 375.527 -4.08593 -3.03198 0
M  V30 3729 H 374.925 -1.88867 -5.33241 0
M  V30 3730 H 373.482 -2.53463 -6.005 0
M  V30 3731 N 376.915 0.57481 -1.46744 0
M  V30 3732 C 377.845 1.69337 -1.60771 0
M  V30 3733 C 378.826 1.63825 -0.457736 0
M  V30 3734 O 380.011 1.8172 -0.684947 0
M  V30 3735 C 377.141 3.0798 -1.60517 0
M  V30 3736 C 376.095 3.28327 -2.74564 0
M  V30 3737 C 375.421 4.67578 -2.59373 0
M  V30 3738 C 376.721 3.15398 -4.16319 0
M  V30 3739 H 378.415 1.57853 -2.54407 0
M  V30 3740 H 375.961 0.75799 -1.22436 0
M  V30 3741 H 377.914 3.86061 -1.68923 0
M  V30 3742 H 376.638 3.20381 -0.634305 0
M  V30 3743 H 375.297 2.52649 -2.65639 0
M  V30 3744 H 374.945 4.76755 -1.60353 0
M  V30 3745 H 374.645 4.82144 -3.35873 0
M  V30 3746 H 376.169 5.47817 -2.69682 0
M  V30 3747 H 377.583 3.83315 -4.26313 0
M  V30 3748 H 375.98 3.41482 -4.93468 0
M  V30 3749 H 377.05 2.12372 -4.3592 0
M  V30 3750 N 378.394 1.34581 0.820102 0
M  V30 3751 C 379.341 1.2639 1.93117 0
M  V30 3752 C 380.311 0.138554 1.65521 0
M  V30 3753 O 381.496 0.320004 1.88097 0
M  V30 3754 C 378.636 1.02812 3.29429 0
M  V30 3755 C 377.749 2.24146 3.693 0
M  V30 3756 C 376.884 1.93829 4.94574 0
M  V30 3757 C 375.923 3.1129 5.27034 0
M  V30 3758 N 375.06 2.80838 6.43486 0
M  V30 3759 H 379.9 2.21408 1.99455 0
M  V30 3760 H 377.437 1.10077 0.975784 0
M  V30 3761 H 379.395 0.871788 4.0799 0
M  V30 3762 H 378.025 0.114612 3.22596 0
M  V30 3763 H 377.077 2.50691 2.86109 0
M  V30 3764 H 378.389 3.11899 3.89257 0
M  V30 3765 H 377.543 1.74948 5.80929 0
M  V30 3766 H 376.282 1.03341 4.76626 0
M  V30 3767 H 375.287 3.30764 4.39175 0
M  V30 3768 H 376.512 4.02561 5.4692 0
M  V30 3769 H 374.458 1.92929 6.26988 0
M  V30 3770 H 374.375 3.62123 6.63629 0
M  V30 3771 H 375.643 2.65467 7.32903 0
M  V30 3772 N 379.872 -1.04064 1.18357 0
M  V30 3773 C 381.112 -1.78829 0.989921 0
M  V30 3774 C 381.476 -1.86106 -0.472095 0
M  V30 3775 O 382.677 -2.57076 -0.785187 0
M  V30 3776 C 380.948 -3.1823 1.6268 0
M  V30 3777 S 382.507 -4.09332 1.58091 0
M  V30 3778 H 379.325 -0.615754 0.355482 0
M  V30 3779 H 381.927 -1.24778 1.50501 0
M  V30 3780 H 380.631 -3.10543 2.68311 0
M  V30 3781 H 380.162 -3.77357 1.112 0
M  V30 3782 H 382.177 -4.92598 0.596817 0
M  V30 3783 N 381.35 -0.985608 -1.22978 0
M  V30 3784 C 382.313 -0.535071 -2.22867 0
M  V30 3785 C 383.313 0.378123 -1.56291 0
M  V30 3786 O 384.503 0.171092 -1.73358 0
M  V30 3787 C 381.635 0.222702 -3.40172 0
M  V30 3788 H 382.828 -1.41835 -2.6424 0
M  V30 3789 H 380.381 -0.772042 -1.35901 0
M  V30 3790 H 381.116 1.12229 -3.04262 0
M  V30 3791 H 380.901 -0.43288 -3.89703 0
M  V30 3792 H 382.391 0.526335 -4.1427 0
M  V30 3793 N 382.828 1.3818 -0.7579 0
M  V30 3794 C 384.244 1.5353 -0.435972 0
M  V30 3795 C 384.444 1.71961 1.05032 0
M  V30 3796 O 383.5 1.73307 1.83633 0
M  V30 3797 C 384.813 2.73989 -1.23898 0
M  V30 3798 C 386.361 2.87841 -1.22949 0
M  V30 3799 C 386.836 4.11266 -2.01554 0
M  V30 3800 N 388.327 4.18352 -1.98837 0
M  V30 3801 C 389.062 5.12856 -2.5645 0
M  V30 3802 N 388.558 6.13005 -3.22794 0
M  V30 3803 N 390.351 5.05238 -2.46356 0
M  V30 3804 H 382.502 1.24467 -1.7211 0
M  V30 3805 H 384.765 0.604982 -0.729864 0
M  V30 3806 H 384.471 2.66789 -2.29165 0
M  V30 3807 H 384.345 3.67294 -0.858764 0
M  V30 3808 H 386.732 2.9452 -0.184854 0
M  V30 3809 H 386.813 1.95534 -1.64924 0
M  V30 3810 H 386.457 4.05349 -3.06031 0
M  V30 3811 H 386.387 5.02661 -1.5697 0
M  V30 3812 H 388.878 3.46628 -1.50524 0
M  V30 3813 H 389.191 6.81619 -3.64165 0
M  V30 3814 H 387.536 6.13325 -3.2689 0
M  V30 3815 H 390.727 4.25938 -1.9415 0
M  V30 3816 H 390.9 5.78707 -2.91552 0
M  V30 3817 N 384.306 0.507319 1.49211 0
M  V30 3818 C 385.239 -0.314509 2.26022 0
M  V30 3819 C 386.217 -0.964849 1.30879 0
M  V30 3820 O 387.401 -0.993707 1.6018 0
M  V30 3821 C 384.528 -1.44346 3.06402 0
M  V30 3822 C 383.574 -0.90685 4.16748 0
M  V30 3823 S 384.407 0.207392 5.35098 0
M  V30 3824 C 385.563 -0.924573 6.19033 0
M  V30 3825 H 385.796 0.337416 2.95379 0
M  V30 3826 H 383.329 0.292718 1.516 0
M  V30 3827 H 385.287 -2.09029 3.53295 0
M  V30 3828 H 383.948 -2.06702 2.36502 0
M  V30 3829 H 383.141 -1.75309 4.72528 0
M  V30 3830 H 382.743 -0.33712 3.72478 0
M  V30 3831 H 385.035 -1.82839 6.52362 0
M  V30 3832 H 385.978 -0.405248 7.06939 0
M  V30 3833 H 386.386 -1.19476 5.51712 0
M  V30 3834 N 385.784 -1.5574 0.241426 0
M  V30 3835 C 387.195 -1.84842 -0.262755 0
M  V30 3836 C 387.546 -1.16317 -1.58003 0
M  V30 3837 O 386.671 -0.439653 -2.11887 0
M  V30 3838 C 387.266 -3.35332 -0.483523 0
M  V30 3839 C 385.825 -3.6468 -0.931977 0
M  V30 3840 C 384.972 -2.77299 -0.0061151 0
M  V30 3841 H 387.923 -1.51761 0.464129 0
M  V30 3842 H 387.944 -3.56615 -1.32688 0
M  V30 3843 H 387.456 -3.85178 0.47537 0
M  V30 3844 H 385.557 -3.20307 -1.90353 0
M  V30 3845 H 385.67 -4.72498 -0.792628 0
M  V30 3846 H 384.034 -2.49408 -0.516503 0
M  V30 3847 H 384.817 -3.2995 0.948052 0
M  V30 3848 N 387.262 0.0317525 -1.57568 0
M  V30 3849 C 388.51 0.721676 -1.88776 0
M  V30 3850 C 388.831 1.76039 -0.838772 0
M  V30 3851 O 388.101 1.95482 0.127935 0
M  V30 3852 H 386.681 0.269534 -0.696678 0
M  V30 3853 H 389.343 -0.00165879 -1.949 0
M  V30 3854 H 388.439 1.21293 -2.87566 0
M  V30 3855 N 388.74 1.54641 0.303973 0
M  V30 3856 C 389.67 1.88386 1.3796 0
M  V30 3857 C 390.651 0.742485 1.5304 0
M  V30 3858 O 391.836 0.997959 1.66597 0
M  V30 3859 C 388.966 2.12854 2.74427 0
M  V30 3860 C 387.92 3.28702 2.74115 0
M  V30 3861 C 387.246 3.38582 4.13844 0
M  V30 3862 C 388.546 4.65881 2.3612 0
M  V30 3863 H 390.24 2.78474 1.09966 0
M  V30 3864 H 387.786 1.33988 0.527556 0
M  V30 3865 H 389.739 2.35047 3.49758 0
M  V30 3866 H 388.463 1.19535 3.03939 0
M  V30 3867 H 387.122 3.06428 2.0124 0
M  V30 3868 H 386.77 2.42784 4.40528 0
M  V30 3869 H 386.47 4.16453 4.14537 0
M  V30 3870 H 387.994 3.63031 4.90959 0
M  V30 3871 H 389.408 4.87823 3.01167 0
M  V30 3872 H 387.805 5.46444 2.48031 0
M  V30 3873 H 388.875 4.66799 1.3125 0
M  V30 3874 N 390.218 -0.567019 1.47046 0
M  V30 3875 C 391.165 -1.67489 1.58796 0
M  V30 3876 C 392.135 -1.60399 0.43144 0
M  V30 3877 O 393.32 -1.79378 0.650233 0
M  V30 3878 C 390.46 -3.05821 1.59899 0
M  V30 3879 C 389.573 -3.2342 2.86397 0
M  V30 3880 C 388.708 -4.52093 2.789 0
M  V30 3881 C 387.747 -4.6309 4.00267 0
M  V30 3882 N 386.884 -5.83106 3.91064 0
M  V30 3883 H 391.724 -1.56785 2.53422 0
M  V30 3884 H 389.261 -0.763896 1.2571 0
M  V30 3885 H 391.219 -3.8591 1.58522 0
M  V30 3886 H 389.849 -3.15384 0.687929 0
M  V30 3887 H 388.901 -2.3683 2.97684 0
M  V30 3888 H 390.213 -3.27412 3.76301 0
M  V30 3889 H 389.367 -5.4043 2.75718 0
M  V30 3890 H 388.106 -4.50565 1.86662 0
M  V30 3891 H 387.111 -3.73168 4.03765 0
M  V30 3892 H 388.336 -4.66386 4.93621 0
M  V30 3893 H 386.282 -5.82546 3.01623 0
M  V30 3894 H 386.199 -5.88434 4.74638 0
M  V30 3895 H 387.467 -6.73831 3.91882 0
M  V30 3896 N 391.696 -1.35014 -0.812953 0
M  V30 3897 C 392.944 -1.27678 -1.56661 0
M  V30 3898 C 393.265 0.150359 -1.94419 0
M  V30 3899 O 392.535 1.08532 -1.63088 0
M  V30 3900 H 391.115 -0.469602 -0.580933 0
M  V30 3901 H 393.777 -1.69043 -0.970076 0
M  V30 3902 H 392.873 -1.88833 -2.48492 0
M  V30 3903 N 393.175 1.03435 -1.18907 0
M  V30 3904 C 394.422 1.76743 -0.988334 0
M  V30 3905 C 394.75 1.88447 0.481441 0
M  V30 3906 O 394.005 1.39383 1.37371 0
M  V30 3907 C 394.304 3.19792 -1.59586 0
M  V30 3908 C 393.97 3.28108 -3.09283 0
M  V30 3909 C 392.632 3.30084 -3.5014 0
M  V30 3910 C 394.984 3.27696 -4.05296 0
M  V30 3911 C 392.312 3.29299 -4.85571 0
M  V30 3912 C 394.664 3.28451 -5.4065 0
M  V30 3913 C 393.328 3.28723 -5.80946 0
M  V30 3914 H 392.598 0.64675 -0.361657 0
M  V30 3915 H 395.245 1.21442 -1.48068 0
M  V30 3916 H 393.55 3.78136 -1.02568 0
M  V30 3917 H 395.247 3.75171 -1.41589 0
M  V30 3918 H 391.837 3.27294 -2.76725 0
M  V30 3919 H 396.021 3.25354 -3.74778 0
M  V30 3920 H 391.277 3.2783 -5.16079 0
M  V30 3921 H 395.451 3.27082 -6.14809 0
M  V30 3922 H 393.078 3.27868 -6.85862 0
M  V30 3923 N 394.653 0.992116 1.22453 0
M  V30 3924 C 395.899 0.668523 1.91464 0
M  V30 3925 C 396.232 -0.797313 1.77078 0
M  V30 3926 O 395.507 -1.5765 1.13916 0
M  V30 3927 C 395.79 1.07424 3.43703 0
M  V30 3928 C 395.643 2.59857 3.67143 0
M  V30 3929 C 396.962 0.626891 4.35612 0
M  V30 3930 H 394.081 0.244341 0.695318 0
M  V30 3931 H 396.723 1.2355 1.44345 0
M  V30 3932 H 394.873 0.591816 3.83966 0
M  V30 3933 H 396.545 3.15764 3.3629 0
M  V30 3934 H 394.788 3.01961 3.11451 0
M  V30 3935 H 395.459 2.83296 4.73759 0
M  V30 3936 H 397.935 1.04125 4.02861 0
M  V30 3937 H 396.811 0.939076 5.40807 0
M  V30 3938 H 397.072 -0.472457 4.39568 0
M  V30 3939 N 396.131 -1.37776 0.765217 0
M  V30 3940 C 397.408 -1.93975 0.251596 0
M  V30 3941 C 397.788 -1.69949 -1.25222 0
M  V30 3942 O 397.136 -1.04457 -2.03226 0
M  V30 3943 C 397.346 -3.43487 0.617895 0
M  V30 3944 C 398.694 -4.20564 0.584029 0
M  V30 3945 O 399.718 -3.5182 0.556888 0
M  V30 3946 O 398.577 -5.43138 0.605291 0
M  V30 3947 H 395.671 -0.82509 0.0561806 0
M  V30 3948 H 398.217 -1.47101 0.846128 0
M  V30 3949 H 396.989 -3.5453 1.65602 0
M  V30 3950 H 396.612 -3.976 -0.00403411 0
M  V30 3951 N 397.609 -0.515225 -1.4894 0
M  V30 3952 C 398.519 0.259774 -2.33157 0
M  V30 3953 C 399.535 0.953501 -1.45548 0
M  V30 3954 O 400.711 0.931735 -1.78552 0
M  V30 3955 C 397.776 1.30193 -3.21326 0
M  V30 3956 C 396.837 0.620129 -4.24797 0
M  V30 3957 C 396.07 1.61263 -5.08753 0
M  V30 3958 O 396.293 2.84389 -4.94448 0
M  V30 3959 O 395.227 1.16013 -5.90614 0
M  V30 3960 H 399.053 -0.429932 -3.00641 0
M  V30 3961 H 396.638 -0.276346 -1.46822 0
M  V30 3962 H 398.52 1.90455 -3.75905 0
M  V30 3963 H 397.195 1.97431 -2.56521 0
M  V30 3964 H 396.102 -0.0226019 -3.74093 0
M  V30 3965 H 397.435 -0.0100493 -4.92199 0
M  V30 3966 N 399.087 1.5561 -0.249682 0
M  V30 3967 C 400.037 2.18157 0.662673 0
M  V30 3968 C 401.021 1.1383 1.13717 0
M  V30 3969 O 402.213 1.39731 1.08648 0
M  V30 3970 C 399.342 2.88672 1.85805 0
M  V30 3971 C 398.428 4.00258 1.40193 0
M  V30 3972 N 398.819 5.01473 0.660213 0
M  V30 3973 C 397.117 4.12864 1.68698 0
M  V30 3974 C 397.818 5.80155 0.423695 0
M  V30 3975 N 396.794 5.34533 0.988721 0
M  V30 3976 H 400.596 2.93769 0.0878688 0
M  V30 3977 H 398.11 1.62316 -0.0521183 0
M  V30 3978 H 400.107 3.31912 2.5227 0
M  V30 3979 H 398.767 2.14564 2.43705 0
M  V30 3980 H 399.778 5.16971 0.310047 0
M  V30 3981 H 396.455 3.4993 2.27717 0
M  V30 3982 H 397.845 6.71688 -0.168616 0
M  V30 3983 N 400.565 -0.0233959 1.57583 0
M  V30 3984 C 401.793 -0.724682 1.93794 0
M  V30 3985 C 402.208 -1.68588 0.849912 0
M  V30 3986 O 401.565 -1.81676 -0.173204 0
M  V30 3987 C 401.616 -1.47684 3.29957 0
M  V30 3988 O 401.337 -0.554222 4.3458 0
M  V30 3989 C 402.838 -2.27477 3.80485 0
M  V30 3990 H 400.058 -0.203317 0.639455 0
M  V30 3991 H 402.602 0.0207653 2.04489 0
M  V30 3992 H 400.757 -2.17412 3.20641 0
M  V30 3993 H 401.171 -1.08232 5.13212 0
M  V30 3994 H 402.645 -2.7564 4.78254 0
M  V30 3995 H 403.122 -3.09144 3.11972 0
M  V30 3996 H 403.728 -1.62813 3.92902 0
M  V30 3997 N 402.043 -1.548 -0.295768 0
M  V30 3998 C 403.292 -1.73538 -1.02798 0
M  V30 3999 C 403.605 -0.531159 -1.8825 0
M  V30 4000 O 404.811 -0.600458 -2.64777 0
M  V30 4001 C 403.267 -3.07051 -1.87744 0
M  V30 4002 C 402.875 -4.34968 -1.07269 0
M  V30 4003 C 404.619 -3.35146 -2.60533 0
M  V30 4004 C 402.526 -5.5953 -1.91521 0
M  V30 4005 H 401.456 -0.646794 -0.387522 0
M  V30 4006 H 404.107 -1.81278 -0.284718 0
M  V30 4007 H 402.489 -2.93289 -2.66078 0
M  V30 4008 H 403.663 -4.5958 -0.335117 0
M  V30 4009 H 401.978 -4.13847 -0.460384 0
M  V30 4010 H 404.575 -4.2541 -3.23929 0
M  V30 4011 H 404.918 -2.54255 -3.29636 0
M  V30 4012 H 405.451 -3.49902 -1.89244 0
M  V30 4013 H 402.19 -6.43103 -1.26878 0
M  V30 4014 H 401.71 -5.39096 -2.62937 0
M  V30 4015 H 403.389 -5.96982 -2.49442 0
M  V30 4016 N 403.521 0.559213 -1.47345 0
M  V30 4017 C 404.469 1.68747 -1.60085 0
M  V30 4018 C 405.463 1.628 -0.46825 0
M  V30 4019 O 406.669 1.68009 -0.645977 0
M  V30 4020 H 403.044 0.558329 -0.503759 0
M  V30 4021 H 405.015 1.55138 -2.54902 0
M  V30 4022 C 403.764 3.07103 -1.63042 0
M  V30 4023 H 403.087 3.12361 -2.49541 0
M  V30 4024 H 404.527 3.85743 -1.76006 0
M  V30 4025 C 402.986 3.34935 -0.363357 0
M  V30 4026 O 403.516 3.98102 0.536416 0
M  V30 4027 N 401.722 2.89574 -0.244 0
M  V30 4028 H 401.269 2.38348 -0.977133 0
M  V30 4029 H 401.227 3.08566 0.602836 0
M  V30 4030 N 404.999 1.35443 0.805782 0
M  V30 4031 C 406.248 1.28097 1.55801 0
M  V30 4032 C 406.561 -0.142428 1.95081 0
M  V30 4033 O 407.767 -0.33817 2.69386 0
M  V30 4034 C 406.223 2.24653 2.81174 0
M  V30 4035 C 405.831 3.72342 2.49129 0
M  V30 4036 C 407.575 2.2625 3.59181 0
M  V30 4037 C 405.482 4.60719 3.70799 0
M  V30 4038 H 404.412 0.475937 0.584808 0
M  V30 4039 H 407.063 1.60712 0.885661 0
M  V30 4040 H 405.445 1.85011 3.50124 0
M  V30 4041 H 406.619 4.20624 1.88181 0
M  V30 4042 H 404.934 3.73361 1.84366 0
M  V30 4043 H 407.531 2.89495 4.49552 0
M  V30 4044 H 407.874 1.26647 3.96568 0
M  V30 4045 H 408.407 2.64426 2.97193 0
M  V30 4046 H 405.146 5.61324 3.3852 0
M  V30 4047 H 404.666 4.17163 4.3097 0
M  V30 4048 H 406.345 4.76182 4.38018 0
M  V30 4049 N 406.477 -1.02803 1.19454 0
M  V30 4050 C 407.702 -1.80378 1.02364 0
M  V30 4051 C 408.127 -1.83282 -0.423007 0
M  V30 4052 O 407.485 -1.25945 -1.30413 0
M  V30 4053 C 407.533 -3.23248 1.59821 0
M  V30 4054 O 406.637 -4.04 0.828105 0
M  V30 4055 H 405.978 -0.556799 0.361761 0
M  V30 4056 H 408.508 -1.29385 1.58495 0
M  V30 4057 H 408.518 -3.73994 1.63073 0
M  V30 4058 H 407.193 -3.2045 2.65113 0
M  V30 4059 H 405.77 -3.62635 0.86891 0
M  V30 4060 N 407.956 -0.998596 -1.21925 0
M  V30 4061 C 408.886 -0.573688 -2.26343 0
M  V30 4062 C 409.867 0.402296 -1.65274 0
M  V30 4063 O 411.052 0.291683 -1.91997 0
M  V30 4064 C 408.182 0.106839 -3.47136 0
M  V30 4065 C 407.136 -0.788269 -4.20678 0
M  V30 4066 C 406.462 0.0254927 -5.34694 0
M  V30 4067 C 407.762 -2.08784 -4.78755 0
M  V30 4068 H 409.456 -1.44651 -2.62138 0
M  V30 4069 H 407.002 -0.696975 -1.26009 0
M  V30 4070 H 408.955 0.415531 -4.19346 0
M  V30 4071 H 407.679 1.01424 -3.10452 0
M  V30 4072 H 406.338 -1.08069 -3.50309 0
M  V30 4073 H 405.986 0.933989 -4.94253 0
M  V30 4074 H 405.686 -0.570437 -5.84825 0
M  V30 4075 H 407.21 0.328147 -6.09718 0
M  V30 4076 H 408.624 -1.84272 -5.42878 0
M  V30 4077 H 407.021 -2.63307 -5.39249 0
M  V30 4078 H 408.091 -2.76284 -3.98491 0
M  V30 4079 N 409.434 1.37368 -0.772513 0
M  V30 4080 C 410.659 2.0447 -0.347386 0
M  V30 4081 C 411.084 1.57882 1.0225 0
M  V30 4082 O 410.442 0.73941 1.65537 0
M  V30 4083 C 410.49 3.58369 -0.400479 0
M  V30 4084 O 409.594 4.0803 0.598789 0
M  V30 4085 H 408.935 0.646773 -0.15027 0
M  V30 4086 H 411.465 1.75667 -1.04892 0
M  V30 4087 H 411.475 4.07183 -0.258045 0
M  V30 4088 H 410.15 3.91633 -1.39986 0
M  V30 4089 H 408.727 3.70534 0.419411 0
M  V30 4090 N 410.912 0.523116 1.48665 0
M  V30 4091 C 411.842 -0.23231 2.32342 0
M  V30 4092 C 412.823 -0.941637 1.41659 0
M  V30 4093 O 414.008 -0.928751 1.70552 0
M  V30 4094 C 411.138 -1.28387 3.22698 0
M  V30 4095 C 410.092 -0.693098 4.22351 0
M  V30 4096 C 409.418 -1.8468 5.01794 0
M  V30 4097 C 410.718 0.33063 5.21252 0
M  V30 4098 H 412.412 0.466192 2.95748 0
M  V30 4099 H 409.958 0.225643 1.42221 0
M  V30 4100 H 411.911 -1.82024 3.80059 0
M  V30 4101 H 410.635 -2.01186 2.57278 0
M  V30 4102 H 409.294 -0.178299 3.66166 0
M  V30 4103 H 408.942 -2.56301 4.32804 0
M  V30 4104 H 408.642 -1.45747 5.69238 0
M  V30 4105 H 410.166 -2.38709 5.62006 0
M  V30 4106 H 411.58 -0.118407 5.73178 0
M  V30 4107 H 409.977 0.636974 5.9671 0
M  V30 4108 H 411.047 1.23883 4.68808 0
M  V30 4109 N 412.39 -1.55475 0.257931 0
M  V30 4110 C 413.34 -2.18506 -0.651094 0
M  V30 4111 C 414.324 -1.14431 -1.13112 0
M  V30 4112 O 415.516 -1.40305 -1.07905 0
M  V30 4113 C 412.645 -2.89653 -1.84272 0
M  V30 4114 C 411.731 -4.00996 -1.38068 0
M  V30 4115 N 412.122 -5.01816 -0.633609 0
M  V30 4116 C 410.42 -4.13753 -1.66506 0
M  V30 4117 C 411.121 -5.80371 -0.392922 0
M  V30 4118 N 410.097 -5.3505 -0.960359 0
M  V30 4119 H 413.899 -2.93811 -0.0722883 0
M  V30 4120 H 411.413 -1.62286 0.0607256 0
M  V30 4121 H 413.41 -3.33245 -2.50506 0
M  V30 4122 H 412.07 -2.15854 -2.42564 0
M  V30 4123 H 413.081 -5.17128 -0.282626 0
M  V30 4124 H 409.758 -3.51133 -2.25858 0
M  V30 4125 H 411.148 -6.7159 0.204235 0
M  V30 4126 N 413.868 0.0150385 -1.57593 0
M  V30 4127 C 414.818 1.01943 -2.0394 0
M  V30 4128 C 415.802 1.31209 -0.931286 0
M  V30 4129 O 416.994 1.30559 -1.19513 0
M  V30 4130 C 414.123 2.31621 -2.53391 0
M  V30 4131 C 413.209 2.05384 -3.7105 0
M  V30 4132 N 413.6 1.49253 -4.83278 0
M  V30 4133 C 411.898 2.35601 -3.78693 0
M  V30 4134 C 412.599 1.39143 -5.64813 0
M  V30 4135 N 411.575 1.87187 -5.10355 0
M  V30 4136 H 415.377 0.57969 -2.88126 0
M  V30 4137 H 412.891 0.221056 -1.60888 0
M  V30 4138 H 414.888 3.044 -2.84862 0
M  V30 4139 H 413.548 2.76261 -1.70616 0
M  V30 4140 H 414.559 1.17334 -5.04433 0
M  V30 4141 H 411.236 2.8322 -3.06746 0
M  V30 4142 H 412.626 0.961153 -6.6499 0
M  V30 4143 N 415.346 1.54954 0.287554 0
M  V30 4144 C 416.592 1.75132 1.02257 0
M  V30 4145 C 416.925 0.542858 1.86458 0
M  V30 4146 O 416.2 -0.459856 1.88986 0
M  V30 4147 C 416.483 3.04812 1.91733 0
M  V30 4148 C 416.336 4.35985 1.10622 0
M  V30 4149 C 417.655 3.30438 2.90687 0
M  V30 4150 H 414.774 0.637194 0.370341 0
M  V30 4151 H 417.416 1.87678 0.296111 0
M  V30 4152 H 415.566 2.94247 2.53675 0
M  V30 4153 H 417.238 4.58487 0.508636 0
M  V30 4154 H 415.481 4.31865 0.409271 0
M  V30 4155 H 416.152 5.23017 1.76513 0
M  V30 4156 H 418.628 3.40701 2.38877 0
M  V30 4157 H 417.504 4.22467 3.50447 0
M  V30 4158 H 417.765 2.49377 3.65053 0
M  V30 4159 N 416.824 -0.551391 1.4764 0
M  V30 4160 C 417.734 -1.68525 1.63207 0
M  V30 4161 C 418.75 -1.6621 0.514815 0
M  V30 4162 O 419.926 -1.85551 0.783113 0
M  V30 4163 C 416.991 -3.05025 1.64805 0
M  V30 4164 C 416.052 -3.18362 2.88 0
M  V30 4165 C 415.285 -4.4835 2.89513 0
M  V30 4166 O 415.508 -5.34163 2.00065 0
M  V30 4167 O 414.442 -4.65602 3.81443 0
M  V30 4168 H 418.268 -1.58333 2.59161 0
M  V30 4169 H 415.853 -0.722063 1.30792 0
M  V30 4170 H 417.735 -3.86245 1.68502 0
M  V30 4171 H 416.41 -3.15587 0.720197 0
M  V30 4172 H 415.317 -2.36518 2.89845 0
M  V30 4173 H 416.65 -3.12707 3.80099 0
M  V30 4174 N 418.302 -1.35869 -0.798587 0
M  V30 4175 C 419.234 -1.25305 -1.91915 0
M  V30 4176 C 420.247 -0.174548 -1.61862 0
M  V30 4177 O 421.436 -0.428499 -1.73281 0
M  V30 4178 C 418.536 -0.9086 -3.26493 0
M  V30 4179 C 417.709 -2.08711 -3.84394 0
M  V30 4180 C 416.768 -1.71717 -4.97393 0
M  V30 4181 O 415.794 -2.43692 -5.14396 0
M  V30 4182 N 416.996 -0.645473 -5.769 0
M  V30 4183 H 419.761 -2.21849 -2.01502 0
M  V30 4184 H 417.322 -1.29143 -0.976408 0
M  V30 4185 H 419.314 -0.642455 -3.99568 0
M  V30 4186 H 417.884 -0.0325815 -3.12583 0
M  V30 4187 H 417.104 -2.51659 -3.03416 0
M  V30 4188 H 418.392 -2.87468 -4.19809 0
M  V30 4189 H 417.79 -0.047648 -5.6568 0
M  V30 4190 H 416.347 -0.43913 -6.50319 0
M  V30 4191 N 419.78 1.02168 -1.19998 0
M  V30 4192 C 420.713 2.10232 -0.887558 0
M  V30 4193 C 421.691 1.61827 0.158317 0
M  V30 4194 O 422.875 1.88471 0.0330249 0
M  V30 4195 C 420.002 3.37092 -0.32964 0
M  V30 4196 C 419.048 4.0438 -1.3557 0
M  V30 4197 S 419.881 4.48956 -2.91888 0
M  V30 4198 C 421.037 5.79024 -2.37658 0
M  V30 4199 H 421.27 2.36409 -1.80272 0
M  V30 4200 H 418.803 1.15211 -1.0279 0
M  V30 4201 H 420.761 4.10498 -0.0142824 0
M  V30 4202 H 419.422 3.08996 0.563941 0
M  V30 4203 H 418.615 4.95632 -0.9146 0
M  V30 4204 H 418.217 3.37176 -1.61828 0
M  V30 4205 H 420.509 6.53942 -1.77103 0
M  V30 4206 H 421.452 6.27924 -3.27287 0
M  V30 4207 H 421.86 5.35043 -1.79971 0
M  V30 4208 N 421.258 1.00505 1.21394 0
M  V30 4209 C 422.221 0.570459 2.21987 0
M  V30 4210 C 423.221 -0.353211 1.56873 0
M  V30 4211 O 424.411 -0.14349 1.73608 0
M  V30 4212 C 421.543 -0.168555 3.40483 0
M  V30 4213 H 422.736 1.46021 2.6195 0
M  V30 4214 H 420.289 0.793565 1.34656 0
M  V30 4215 H 421.024 -1.07374 3.06009 0
M  V30 4216 H 420.809 0.494823 3.88965 0
M  V30 4217 H 422.299 -0.460362 4.15055 0
M  V30 4218 N 422.737 -1.36956 0.779787 0
M  V30 4219 C 423.986 -1.98738 0.344405 0
M  V30 4220 C 424.299 -1.62596 -1.08728 0
M  V30 4221 O 425.505 -2.1754 -1.62445 0
M  V30 4222 C 423.961 -3.5544 0.564829 0
M  V30 4223 C 423.569 -4.00514 2.0073 0
M  V30 4224 C 425.313 -4.24059 0.193471 0
M  V30 4225 C 423.22 -5.49957 2.17489 0
M  V30 4226 H 422.15 -0.743561 0.12503 0
M  V30 4227 H 424.801 -1.56381 0.960057 0
M  V30 4228 H 423.183 -3.95817 -0.120397 0
M  V30 4229 H 424.357 -3.71362 2.72814 0
M  V30 4230 H 422.672 -3.44703 2.336 0
M  V30 4231 H 425.269 -5.33874 0.297097 0
M  V30 4232 H 425.612 -4.07378 -0.857263 0
M  V30 4233 H 426.145 -3.89012 0.831556 0
M  V30 4234 H 422.884 -5.71574 3.2091 0
M  V30 4235 H 422.404 -5.80767 1.49899 0
M  V30 4236 H 424.083 -6.16043 1.97738 0
M  V30 4237 N 424.215 -0.530993 -1.48385 0
M  V30 4238 C 425.492 0.0671788 -1.95485 0
M  V30 4239 C 425.872 1.51191 -1.47324 0
M  V30 4240 O 425.22 2.17507 -0.700202 0
M  V30 4241 C 425.43 -0.0511206 -3.48963 0
M  V30 4242 C 426.778 0.107632 -4.24464 0
M  V30 4243 O 427.802 0.0226248 -3.56193 0
M  V30 4244 O 426.661 0.285972 -5.45751 0
M  V30 4245 H 423.755 0.0787365 -0.823243 0
M  V30 4246 H 426.301 -0.595662 -1.58902 0
M  V30 4247 H 425.073 -1.05747 -3.7674 0
M  V30 4248 H 424.696 0.650525 -3.92242 0
M  V30 4249 N 425.693 1.55336 -0.266172 0
M  V30 4250 C 426.939 2.00423 0.346714 0
M  V30 4251 C 427.294 1.15132 1.54151 0
M  V30 4252 O 426.587 0.211289 1.90431 0
M  V30 4253 C 426.781 3.48606 0.787957 0
M  V30 4254 C 426.61 4.48236 -0.362535 0
M  V30 4255 C 425.38 4.98211 -0.843445 0
M  V30 4256 C 427.578 5.00199 -1.19603 0
M  V30 4257 N 425.56 5.81625 -1.96434 0
M  V30 4258 C 426.931 5.80973 -2.16497 0
M  V30 4259 C 428.986 4.82458 -1.2304 0
M  V30 4260 C 427.689 6.45896 -3.1656 0
M  V30 4261 C 429.715 5.48174 -2.21944 0
M  V30 4262 C 429.077 6.28751 -3.17571 0
M  V30 4263 H 425.176 0.776535 0.0922914 0
M  V30 4264 H 427.76 1.90792 -0.388154 0
M  V30 4265 H 425.931 3.58597 1.49207 0
M  V30 4266 H 427.663 3.80538 1.37742 0
M  V30 4267 H 424.418 4.71696 -0.424271 0
M  V30 4268 H 424.842 6.28025 -2.52813 0
M  V30 4269 H 429.484 4.19774 -0.504903 0
M  V30 4270 H 427.202 7.07734 -3.90048 0
M  V30 4271 H 430.788 5.36392 -2.25333 0
M  V30 4272 H 429.668 6.78703 -3.92851 0
M  V30 4273 N 427.171 -0.0066808 1.57599 0
M  V30 4274 C 428.101 -0.999296 2.11036 0
M  V30 4275 C 429.082 -1.36278 1.01795 0
M  V30 4276 O 430.267 -1.4477 1.29442 0
M  V30 4277 C 427.397 -2.29328 2.60818 0
M  V30 4278 C 426.351 -2.07159 3.74525 0
M  V30 4279 C 425.677 -3.42512 4.10596 0
M  V30 4280 C 426.977 -1.43959 5.02069 0
M  V30 4281 H 428.671 -0.554382 2.94223 0
M  V30 4282 H 426.217 -0.265221 1.41536 0
M  V30 4283 H 428.17 -2.99117 2.96828 0
M  V30 4284 H 426.894 -2.7592 1.74745 0
M  V30 4285 H 425.553 -1.39797 3.38899 0
M  V30 4286 H 425.201 -3.86795 3.21556 0
M  V30 4287 H 424.901 -3.28498 4.87199 0
M  V30 4288 H 426.425 -4.13628 4.4916 0
M  V30 4289 H 427.839 -2.03696 5.35893 0
M  V30 4290 H 426.236 -1.40452 5.83432 0
M  V30 4291 H 427.306 -0.407992 4.83181 0
M  V30 4292 N 428.649 -1.55105 -0.279332 0
M  V30 4293 C 429.877 -1.7943 -1.03017 0
M  V30 4294 C 430.292 -0.564456 -1.80165 0
M  V30 4295 O 429.649 0.466326 -1.76442 0
M  V30 4296 C 429.7 -3.0155 -1.99374 0
M  V30 4297 O 429.421 -4.19784 -1.25352 0
M  V30 4298 C 430.922 -3.3843 -2.86321 0
M  V30 4299 H 428.142 -0.597882 -0.304594 0
M  V30 4300 H 430.686 -2.02105 -0.312035 0
M  V30 4301 H 428.841 -2.81019 -2.66659 0
M  V30 4302 H 429.255 -4.88781 -1.90246 0
M  V30 4303 H 430.729 -4.27066 -3.49741 0
M  V30 4304 H 431.206 -2.57549 -3.5576 0
M  V30 4305 H 431.812 -3.61197 -2.24536 0
M  V30 4306 N 430.127 0.543554 -1.4793 0
M  V30 4307 C 431.375 1.29752 -1.54948 0
M  V30 4308 C 431.696 1.93764 -0.219242 0
M  V30 4309 O 430.966 1.80639 0.75805 0
M  V30 4310 H 429.546 0.481874 -0.570795 0
M  V30 4311 H 432.208 0.633636 -1.84312 0
M  V30 4312 H 431.304 2.08392 -2.32334 0
M  V30 4313 N 431.605 1.3629 0.791371 0
M  V30 4314 C 432.553 1.30514 1.92533 0
M  V30 4315 C 433.547 0.197285 1.68247 0
M  V30 4316 O 434.753 0.364176 1.76278 0
M  V30 4317 H 431.128 0.406263 0.632815 0
M  V30 4318 H 433.099 2.26282 1.94523 0
M  V30 4319 C 431.848 1.10933 3.29529 0
M  V30 4320 H 431.171 1.95427 3.48781 0
M  V30 4321 H 432.611 1.10937 4.0923 0
M  V30 4322 C 431.07 -0.186123 3.36385 0
M  V30 4323 O 431.6 -1.17664 3.84081 0
M  V30 4324 N 429.806 -0.230128 2.89687 0
M  V30 4325 H 429.353 0.576545 2.51065 0
M  V30 4326 H 429.311 -1.09658 2.94657 0
M  V30 4327 N 433.083 -1.0153 1.20538 0
M  V30 4328 C 434.33 -1.75149 1.01633 0
M  V30 4329 C 434.658 -1.89189 -0.451399 0
M  V30 4330 O 433.913 -1.41551 -1.35136 0
M  V30 4331 C 434.212 -3.17213 1.64654 0
M  V30 4332 C 433.878 -3.23146 3.14464 0
M  V30 4333 C 432.54 -3.24472 3.55347 0
M  V30 4334 C 434.892 -3.21207 4.10458 0
M  V30 4335 C 432.22 -3.21532 4.90748 0
M  V30 4336 C 434.572 -3.19808 5.45807 0
M  V30 4337 C 433.236 -3.19439 5.86102 0
M  V30 4338 H 432.506 -0.640914 0.3719 0
M  V30 4339 H 435.153 -1.19071 1.49981 0
M  V30 4340 H 433.458 -3.76457 1.08571 0
M  V30 4341 H 435.155 -3.72871 1.4754 0
M  V30 4342 H 431.745 -3.2285 2.81897 0
M  V30 4343 H 435.929 -3.19351 3.79906 0
M  V30 4344 H 431.185 -3.19578 5.21229 0
M  V30 4345 H 435.359 -3.1726 6.19935 0
M  V30 4346 H 432.986 -3.16915 6.90991 0
M  V30 4347 N 434.561 -1.01147 -1.20859 0
M  V30 4348 C 435.791 -0.715872 -1.93801 0
M  V30 4349 C 436.199 0.726592 -1.74692 0
M  V30 4350 O 435.542 1.50397 -1.05482 0
M  V30 4351 C 435.604 -0.965269 -3.46299 0
M  V30 4352 C 435.268 -2.39584 -3.89164 0
M  V30 4353 C 436.265 -3.3764 -3.95342 0
M  V30 4354 C 433.95 -2.73522 -4.21297 0
M  V30 4355 C 435.944 -4.67698 -4.33056 0
M  V30 4356 C 433.631 -4.03794 -4.58687 0
M  V30 4357 C 434.629 -5.00693 -4.64538 0
M  V30 4358 O 434.317 -6.28635 -5.01072 0
M  V30 4359 H 434.049 -0.262524 -0.622942 0
M  V30 4360 H 436.603 -1.35413 -1.54443 0
M  V30 4361 H 434.833 -0.269847 -3.85757 0
M  V30 4362 H 436.522 -0.662051 -4.00464 0
M  V30 4363 H 437.288 -3.12757 -3.70686 0
M  V30 4364 H 433.167 -1.9879 -4.15937 0
M  V30 4365 H 436.711 -5.4333 -4.37537 0
M  V30 4366 H 432.608 -4.28459 -4.82797 0
M  V30 4367 H 433.376 -6.32847 -5.19083 0
M  V30 4368 N 436.039 1.36541 -0.78704 0
M  V30 4369 C 437.286 1.99304 -0.358341 0
M  V30 4370 C 437.614 1.62467 1.06933 0
M  V30 4371 O 436.869 0.870019 1.75297 0
M  V30 4372 C 437.168 3.54343 -0.466485 0
M  V30 4373 C 436.834 4.10993 -1.85461 0
M  V30 4374 C 435.496 4.26177 -2.23443 0
M  V30 4375 C 437.848 4.41895 -2.76366 0
M  V30 4376 C 435.176 4.69573 -3.51736 0
M  V30 4377 C 437.528 4.86722 -4.04084 0
M  V30 4378 C 436.192 5.00112 -4.42091 0
M  V30 4379 H 435.462 0.729306 -0.131126 0
M  V30 4380 H 438.109 1.63068 -1.00404 0
M  V30 4381 H 436.414 3.90918 0.262719 0
M  V30 4382 H 438.111 4.00833 -0.115854 0
M  V30 4383 H 434.701 3.99612 -1.54946 0
M  V30 4384 H 438.885 4.29735 -2.48277 0
M  V30 4385 H 434.141 4.78127 -3.81057 0
M  V30 4386 H 438.315 5.09598 -4.7464 0
M  V30 4387 H 435.942 5.33498 -5.41557 0
M  V30 4388 N 437.518 0.538854 1.48102 0
M  V30 4389 C 438.764 0.00801365 2.02798 0
M  V30 4390 C 439.097 -1.3309 1.41424 0
M  V30 4391 O 438.372 -1.86169 0.563158 0
M  V30 4392 C 438.655 -0.104589 3.59948 0
M  V30 4393 C 438.508 1.26012 4.31788 0
M  V30 4394 C 439.827 -0.827055 4.32259 0
M  V30 4395 H 436.946 0.00438624 0.736987 0
M  V30 4396 H 439.588 0.6976 1.7673 0
M  V30 4397 H 437.738 -0.691893 3.82289 0
M  V30 4398 H 439.41 1.88922 4.2084 0
M  V30 4399 H 437.653 1.83968 3.92859 0
M  V30 4400 H 438.324 1.13424 5.40221 0
M  V30 4401 H 440.8 -0.328578 4.14801 0
M  V30 4402 H 439.676 -0.87476 5.41885 0
M  V30 4403 H 439.937 -1.87927 4.0017 0
M  V30 4404 N 438.996 -1.55193 0.274407 0
M  V30 4405 C 440.273 -1.91584 -0.394331 0
M  V30 4406 C 440.653 -1.19858 -1.73774 0
M  V30 4407 O 440.001 -0.3252 -2.26174 0
M  V30 4408 C 440.211 -3.4487 -0.535311 0
M  V30 4409 C 441.559 -4.16636 -0.818534 0
M  V30 4410 O 442.583 -3.5076 -0.620146 0
M  V30 4411 O 441.442 -5.33209 -1.19792 0
M  V30 4412 H 438.536 -0.798349 -0.215794 0
M  V30 4413 H 441.082 -1.66646 0.320507 0
M  V30 4414 H 439.854 -3.89145 0.410141 0
M  V30 4415 H 439.477 -3.75759 -1.29964 0
M  V30 4416 N 440.474 -0.00167713 -1.576 0
M  V30 4417 C 441.751 0.719951 -1.81868 0
M  V30 4418 C 442.131 1.91895 -0.879747 0
M  V30 4419 O 441.479 2.28389 0.0711423 0
M  V30 4420 C 441.689 1.12409 -3.30402 0
M  V30 4421 C 443.037 1.52724 -3.96182 0
M  V30 4422 O 444.061 1.21784 -3.34734 0
M  V30 4423 O 442.92 2.10265 -5.04431 0
M  V30 4424 H 440.014 0.350707 -0.748955 0
M  V30 4425 H 442.56 -0.0272597 -1.69678 0
M  V30 4426 H 441.332 0.269532 -3.90371 0
M  V30 4427 H 440.955 1.93035 -3.47596 0
M  V30 4428 N 441.952 1.55251 0.271103 0
M  V30 4429 C 443.201 1.75151 1.00025 0
M  V30 4430 C 443.514 0.561041 1.87381 0
M  V30 4431 O 444.72 0.642506 2.63788 0
M  V30 4432 C 443.176 3.09999 1.82835 0
M  V30 4433 C 442.784 4.3662 1.00336 0
M  V30 4434 C 444.528 3.39249 2.55168 0
M  V30 4435 C 442.435 5.62506 1.82595 0
M  V30 4436 H 441.365 0.652877 0.377183 0
M  V30 4437 H 444.016 1.81708 0.255843 0
M  V30 4438 H 442.398 2.97485 2.61378 0
M  V30 4439 H 443.572 4.60055 0.261959 0
M  V30 4440 H 441.887 4.14527 0.394486 0
M  V30 4441 H 444.484 4.3051 3.1712 0
M  V30 4442 H 444.827 2.59467 3.2555 0
M  V30 4443 H 445.36 3.52869 1.83653 0
M  V30 4444 H 442.099 6.45041 1.16631 0
M  V30 4445 H 441.619 5.43211 2.54327 0
M  V30 4446 H 443.298 6.00875 2.39913 0
M  V30 4447 N 443.43 -0.535701 1.48216 0
M  V30 4448 C 444.707 -1.29683 1.46429 0
M  V30 4449 C 445.087 -2.10391 0.172852 0
M  V30 4450 O 444.435 -2.12282 -0.845488 0
M  V30 4451 C 444.645 -2.18313 2.72287 0
M  V30 4452 C 445.993 -2.78639 3.20383 0
M  V30 4453 O 447.017 -2.28604 2.73164 0
M  V30 4454 O 445.876 -3.69636 4.02531 0
M  V30 4455 H 442.97 -0.585026 0.584529 0
M  V30 4456 H 445.516 -0.552827 1.60443 0
M  V30 4457 H 444.288 -1.58421 3.57797 0
M  V30 4458 H 443.911 -2.99971 2.60966 0
M  V30 4459 N 444.908 -1.36708 -0.784132 0
M  V30 4460 C 446.185 -1.21776 -1.53069 0
M  V30 4461 C 446.565 0.193876 -2.10208 0
M  V30 4462 O 445.913 1.20012 -1.94446 0
M  V30 4463 C 446.123 -2.30395 -2.62143 0
M  V30 4464 C 447.471 -2.67325 -3.29882 0
M  V30 4465 O 448.495 -2.29478 -2.7243 0
M  V30 4466 O 447.354 -3.32485 -4.33724 0
M  V30 4467 H 444.448 -0.474459 -0.677361 0
M  V30 4468 H 446.994 -1.48454 -0.82216 0
M  V30 4469 H 445.766 -3.2498 -2.17953 0
M  V30 4470 H 445.389 -2.05112 -3.40609 0
M  V30 4471 N 446.386 1.0089 -1.21074 0
M  V30 4472 C 447.802 1.2695 -0.967257 0
M  V30 4473 C 448.002 1.9846 0.348673 0
M  V30 4474 O 447.058 2.28459 1.0753 0
M  V30 4475 C 448.371 2.09697 -2.15517 0
M  V30 4476 C 449.919 2.22937 -2.197 0
M  V30 4477 C 450.394 3.09064 -3.37999 0
M  V30 4478 N 451.885 3.16653 -3.38061 0
M  V30 4479 C 452.62 3.8354 -4.26245 0
M  V30 4480 N 452.116 4.52488 -5.2462 0
M  V30 4481 N 453.909 3.80141 -4.14064 0
M  V30 4482 H 446.06 0.529005 -2.05707 0
M  V30 4483 H 448.323 0.296148 -0.900556 0
M  V30 4484 H 448.029 1.64497 -3.10859 0
M  V30 4485 H 447.903 3.10444 -2.14253 0
M  V30 4486 H 450.29 2.67357 -1.24916 0
M  V30 4487 H 450.371 1.21673 -2.2501 0
M  V30 4488 H 450.015 2.65347 -4.33074 0
M  V30 4489 H 449.945 4.10433 -3.29928 0
M  V30 4490 H 452.436 2.67566 -2.66865 0
M  V30 4491 H 452.749 5.01219 -5.88217 0
M  V30 4492 H 451.094 4.51288 -5.28549 0
M  V30 4493 H 454.285 3.25427 -3.36474 0
M  V30 4494 H 454.458 4.31992 -4.82998 0
M  V30 4495 N 447.864 1.01787 1.20321 0
M  V30 4496 C 449.113 0.703249 1.89043 0
M  V30 4497 C 449.426 -0.770445 1.79787 0
M  V30 4498 O 450.632 -1.19767 2.43656 0
M  V30 4499 C 449.088 1.20749 3.3904 0
M  V30 4500 C 448.696 2.70817 3.56878 0
M  V30 4501 C 450.44 0.968352 4.13308 0
M  V30 4502 C 448.347 3.14716 5.00708 0
M  V30 4503 H 447.277 0.259354 0.707991 0
M  V30 4504 H 449.928 1.23072 1.36108 0
M  V30 4505 H 448.31 0.607989 3.91305 0
M  V30 4506 H 449.484 3.36327 3.14993 0
M  V30 4507 H 447.799 2.92888 2.95983 0
M  V30 4508 H 450.396 1.27173 5.19356 0
M  V30 4509 H 450.739 -0.095149 4.16191 0
M  V30 4510 H 451.272 1.53129 3.67146 0
M  V30 4511 H 448.011 4.20347 5.02979 0
M  V30 4512 H 447.531 2.53927 5.43398 0
M  V30 4513 H 449.21 3.07426 5.69296 0
M  V30 4514 N 449.342 -1.36122 0.79427 0
M  V30 4515 C 450.589 -1.99111 0.368905 0
M  V30 4516 C 450.917 -1.63032 -1.0607 0
M  V30 4517 O 450.172 -0.879303 -1.74833 0
M  V30 4518 C 450.471 -3.5409 0.48527 0
M  V30 4519 C 450.137 -4.10003 1.87638 0
M  V30 4520 C 448.799 -4.24986 2.257 0
M  V30 4521 C 451.151 -4.40423 2.78706 0
M  V30 4522 C 448.479 -4.67701 3.54221 0
M  V30 4523 C 450.831 -4.84573 4.0666 0
M  V30 4524 C 449.495 -4.97761 4.44737 0
M  V30 4525 H 448.765 -0.7286 0.134992 0
M  V30 4526 H 451.412 -1.62534 1.01267 0
M  V30 4527 H 449.717 -3.91052 -0.241984 0
M  V30 4528 H 451.414 -4.00766 0.137109 0
M  V30 4529 H 448.004 -3.98784 1.57064 0
M  V30 4530 H 452.188 -4.28412 2.50553 0
M  V30 4531 H 447.444 -4.761 3.83587 0
M  V30 4532 H 451.618 -5.07074 4.77336 0
M  V30 4533 H 449.245 -5.30618 5.44379 0
M  V30 4534 N 450.82 -0.546701 -1.47814 0
M  V30 4535 C 452.066 -0.0187684 -2.02791 0
M  V30 4536 C 452.399 1.32338 -1.42128 0
M  V30 4537 O 451.674 1.85867 -0.573023 0
M  V30 4538 C 451.957 0.0854985 -3.59998 0
M  V30 4539 C 451.81 -1.283 -4.31114 0
M  V30 4540 C 453.129 0.80412 -4.32691 0
M  V30 4541 H 450.248 -0.0082946 -0.736953 0
M  V30 4542 H 452.89 -0.706962 -1.76358 0
M  V30 4543 H 451.04 0.671609 -3.82651 0
M  V30 4544 H 452.712 -1.91151 -4.19832 0
M  V30 4545 H 450.955 -1.86049 -3.91878 0
M  V30 4546 H 451.626 -1.16287 -5.39612 0
M  V30 4547 H 454.102 0.306576 -4.14969 0
M  V30 4548 H 452.978 0.846011 -5.42341 0
M  V30 4549 H 453.239 1.85802 -4.01161 0
M  V30 4550 N 452.299 1.55045 -0.282633 0
M  V30 4551 C 453.539 2.01668 0.333088 0
M  V30 4552 C 453.903 1.1667 1.52486 0
M  V30 4553 O 455.104 1.52907 2.21072 0
M  V30 4554 C 453.375 3.50509 0.698442 0
M  V30 4555 S 454.934 4.19112 1.29963 0
M  V30 4556 H 451.752 0.703468 0.103219 0
M  V30 4557 H 454.354 1.91233 -0.406222 0
M  V30 4558 H 453.058 4.10015 -0.177693 0
M  V30 4559 H 452.589 3.64943 1.46902 0
M  V30 4560 H 454.604 4.23362 2.58803 0
M  V30 4561 N 453.777 0.010035 1.57597 0
M  V30 4562 C 454.725 -0.996272 2.10184 0
M  V30 4563 C 455.719 -1.34942 1.02406 0
M  V30 4564 O 456.925 -1.33389 1.20861 0
M  V30 4565 H 453.3 -0.338982 0.671264 0
M  V30 4566 H 455.271 -0.527272 2.93705 0
M  V30 4567 C 454.02 -2.27599 2.62857 0
M  V30 4568 H 453.343 -2.01295 3.45428 0
M  V30 4569 H 454.783 -2.96265 3.0332 0
M  V30 4570 C 453.242 -2.99269 1.54725 0
M  V30 4571 O 453.772 -3.90644 0.93597 0
M  V30 4572 N 451.978 -2.61269 1.27228 0
M  V30 4573 H 451.525 -1.87043 1.77123 0
M  V30 4574 H 451.483 -3.09534 0.550999 0
M  V30 4575 N 455.255 -1.55392 -0.262866 0
M  V30 4576 C 456.671 -1.47459 -0.610582 0
M  V30 4577 C 456.871 -0.697031 -1.8906 0
M  V30 4578 O 455.927 -0.219952 -2.5154 0
M  V30 4579 C 457.24 -2.91751 -0.728131 0
M  V30 4580 C 458.788 -3.02027 -0.821517 0
M  V30 4581 C 459.263 -4.47594 -0.97076 0
M  V30 4582 N 460.754 -4.51465 -1.03603 0
M  V30 4583 C 461.489 -5.61326 -1.17049 0
M  V30 4584 N 460.985 -6.81032 -1.2715 0
M  V30 4585 N 462.778 -5.49089 -1.20239 0
M  V30 4586 H 454.929 -2.04395 0.577632 0
M  V30 4587 H 457.192 -0.927287 0.197086 0
M  V30 4588 H 456.898 -3.51413 0.142132 0
M  V30 4589 H 456.772 -3.4134 -1.6052 0
M  V30 4590 H 459.159 -2.42456 -1.68224 0
M  V30 4591 H 459.24 -2.55674 0.0803688 0
M  V30 4592 H 458.884 -5.07771 -0.114655 0
M  V30 4593 H 458.814 -4.91613 -1.88745 0
M  V30 4594 H 461.305 -3.6524 -0.96996 0
M  V30 4595 H 461.618 -7.60511 -1.37271 0
M  V30 4596 H 459.963 -6.83824 -1.24136 0
M  V30 4597 H 463.154 -4.54507 -1.11985 0
M  V30 4598 H 463.327 -6.34749 -1.30373 0
M  V30 4599 N 456.733 0.527833 -1.48498 0
M  V30 4600 C 457.681 1.65313 -1.63628 0
M  V30 4601 C 458.675 1.6177 -0.502676 0
M  V30 4602 O 459.881 1.66601 -0.681469 0
M  V30 4603 H 456.256 0.547518 -0.515488 0
M  V30 4604 H 458.227 1.49696 -2.58135 0
M  V30 4605 C 456.976 3.03576 -1.6952 0
M  V30 4606 H 456.299 3.06997 -2.56111 0
M  V30 4607 H 457.739 3.81923 -1.84149 0
M  V30 4608 C 456.198 3.34089 -0.43432 0
M  V30 4609 O 456.728 3.99151 0.451852 0
M  V30 4610 N 454.934 2.88991 -0.305368 0
M  V30 4611 H 454.481 2.36222 -1.02747 0
M  V30 4612 H 454.439 3.09776 0.537249 0
M  V30 4613 N 458.211 1.37122 0.776871 0
M  V30 4614 C 459.459 1.31787 1.53221 0
M  V30 4615 C 459.78 -0.0987589 1.9475 0
M  V30 4616 O 459.05 -1.0417 1.65908 0
M  V30 4617 H 457.63 0.484839 0.568278 0
M  V30 4618 H 460.292 1.71556 0.924917 0
M  V30 4619 H 459.388 1.95355 2.43398 0
M  V30 4620 N 459.689 -1.00246 1.21608 0
M  V30 4621 C 460.966 -1.71336 0.943568 0
M  V30 4622 C 461.346 -2.03972 -0.543943 0
M  V30 4623 O 460.694 -1.71545 -1.50946 0
M  V30 4624 C 460.904 -2.97094 1.83128 0
M  V30 4625 C 462.252 -3.70071 2.08165 0
M  V30 4626 O 463.276 -3.07081 1.80498 0
M  V30 4627 O 462.135 -4.83376 2.54971 0
M  V30 4628 H 459.229 -0.747386 0.354039 0
M  V30 4629 H 461.775 -1.05967 1.32549 0
M  V30 4630 H 460.547 -2.69407 2.83788 0
M  V30 4631 H 460.17 -3.70204 1.45034 0
M  V30 4632 N 461.167 -1.02423 -1.1978 0
M  V30 4633 C 462.395 -0.737456 -1.93311 0
M  V30 4634 C 462.81 0.703023 -1.75223 0
M  V30 4635 O 462.167 1.47761 -1.07112 0
M  V30 4636 C 462.218 -1.0733 -3.45199 0
M  V30 4637 O 461.939 -2.4572 -3.62702 0
M  V30 4638 C 463.44 -0.80866 -4.35862 0
M  V30 4639 H 460.66 -0.2702 -0.614193 0
M  V30 4640 H 463.204 -1.36747 -1.52054 0
M  V30 4641 H 461.359 -0.488545 -3.84307 0
M  V30 4642 H 461.773 -2.58081 -4.56612 0
M  V30 4643 H 463.247 -1.09365 -5.41057 0
M  V30 4644 H 463.724 0.257025 -4.38447 0
M  V30 4645 H 464.33 -1.37592 -4.02428 0
M  V30 4646 N 462.645 1.35699 -0.801477 0
M  V30 4647 C 463.885 2.00741 -0.385027 0
M  V30 4648 C 464.249 1.62213 1.02718 0
M  V30 4649 O 465.45 2.19936 1.54537 0
M  V30 4650 C 463.721 3.53032 -0.557057 0
M  V30 4651 S 465.28 4.38195 -0.230272 0
M  V30 4652 H 462.098 0.695748 -0.146477 0
M  V30 4653 H 464.7 1.65378 -1.04261 0
M  V30 4654 H 463.404 3.7856 -1.58494 0
M  V30 4655 H 462.935 3.93229 0.116029 0
M  V30 4656 H 464.95 4.86748 0.963895 0
M  V30 4657 N 464.123 0.554532 1.47522 0
M  V30 4658 C 465.369 0.0295227 2.02779 0
M  V30 4659 C 465.702 -1.31582 1.42828 0
M  V30 4660 O 464.977 -1.85561 0.582872 0
M  V30 4661 C 465.26 -0.0664057 3.60039 0
M  V30 4662 C 465.113 1.30585 4.30427 0
M  V30 4663 C 466.432 -0.781162 4.33112 0
M  V30 4664 H 463.551 0.0122027 0.736899 0
M  V30 4665 H 466.193 0.716305 1.7598 0
M  V30 4666 H 464.343 -0.651307 3.83002 0
M  V30 4667 H 466.015 1.93374 4.18813 0
M  V30 4668 H 464.258 1.88125 3.90886 0
M  V30 4669 H 464.929 1.19147 5.38988 0
M  V30 4670 H 467.405 -0.284565 4.15126 0
M  V30 4671 H 466.281 -0.817237 5.42782 0
M  V30 4672 H 466.542 -1.83672 4.0214 0
M  V30 4673 N 465.601 -1.54893 0.290851 0
M  V30 4674 C 466.829 -2.04343 -0.324288 0
M  V30 4675 C 467.244 -1.16859 -1.48289 0
M  V30 4676 O 466.601 -0.192018 -1.81487 0
M  V30 4677 C 466.652 -3.52756 -0.79026 0
M  V30 4678 O 466.373 -4.36913 0.322213 0
M  V30 4679 C 467.874 -4.18161 -1.4716 0
M  V30 4680 H 465.094 -0.667135 -0.0719173 0
M  V30 4681 H 467.638 -1.99981 0.427529 0
M  V30 4682 H 465.793 -3.57511 -1.49213 0
M  V30 4683 H 466.207 -5.24486 -0.0387372 0
M  V30 4684 H 467.681 -5.23562 -1.7489 0
M  V30 4685 H 468.158 -3.67282 -2.40834 0
M  V30 4686 H 468.764 -4.17454 -0.813178 0
M  V30 4687 N 467.08 -0.0183926 -1.57589 0
M  V30 4688 C 468.01 0.965596 -2.12599 0
M  V30 4689 C 468.991 1.34641 -1.0395 0
M  V30 4690 O 470.176 1.42693 -1.31729 0
M  V30 4691 C 467.306 2.25149 -2.64434 0
M  V30 4692 C 466.26 2.01175 -3.77773 0
M  V30 4693 C 465.586 3.35937 -4.15994 0
M  V30 4694 C 466.886 1.35953 -5.04296 0
M  V30 4695 H 468.58 0.507504 -2.95067 0
M  V30 4696 H 466.126 0.242671 -1.41941 0
M  V30 4697 H 468.079 2.94357 -3.01549 0
M  V30 4698 H 466.803 2.73105 -1.79112 0
M  V30 4699 H 465.462 1.34388 -3.4108 0
M  V30 4700 H 465.11 3.81631 -3.27669 0
M  V30 4701 H 464.81 3.20705 -4.92364 0
M  V30 4702 H 466.334 4.0643 -4.55683 0
M  V30 4703 H 467.748 1.95144 -5.39065 0
M  V30 4704 H 466.145 1.31152 -5.85593 0
M  V30 4705 H 467.215 0.331071 -4.83768 0
M  V30 4706 N 468.558 1.5553 0.254621 0
M  V30 4707 C 469.488 1.9268 1.31897 0
M  V30 4708 C 470.469 0.790797 1.506 0
M  V30 4709 O 471.654 1.05045 1.63337 0
M  V30 4710 C 468.784 2.21477 2.67517 0
M  V30 4711 C 467.738 3.37256 2.63519 0
M  V30 4712 C 467.064 3.51576 4.02862 0
M  V30 4713 C 468.364 4.73157 2.21179 0
M  V30 4714 H 470.058 2.81832 1.01051 0
M  V30 4715 H 467.604 1.35599 0.484662 0
M  V30 4716 H 469.557 2.46055 3.42104 0
M  V30 4717 H 468.281 1.29144 2.99982 0
M  V30 4718 H 466.94 3.12675 1.9139 0
M  V30 4719 H 466.588 2.56676 4.32581 0
M  V30 4720 H 466.288 4.2943 4.01078 0
M  V30 4721 H 467.812 3.78467 4.79161 0
M  V30 4722 H 469.226 4.97158 2.85494 0
M  V30 4723 H 467.623 5.54058 2.30521 0
M  V30 4724 H 468.693 4.70739 1.16332 0
M  V30 4725 N 470.036 -0.519951 1.48776 0
M  V30 4726 C 471.313 -1.28123 1.47797 0
M  V30 4727 C 471.693 -2.10196 0.195157 0
M  V30 4728 O 471.041 -2.13167 -0.822925 0
M  V30 4729 C 471.251 -2.15413 2.74587 0
M  V30 4730 C 472.599 -2.75225 3.23321 0
M  V30 4731 O 473.623 -2.25694 2.75574 0
M  V30 4732 O 472.482 -3.65346 4.06429 0
M  V30 4733 H 469.576 -0.578793 0.590701 0
M  V30 4734 H 472.122 -0.535779 1.6102 0
M  V30 4735 H 470.894 -1.54617 3.59457 0
M  V30 4736 H 470.517 -2.97186 2.64132 0
M  V30 4737 N 471.514 -1.37532 -0.769588 0
M  V30 4738 C 472.444 -1.36172 -1.89682 0
M  V30 4739 C 473.425 -0.23001 -1.68538 0
M  V30 4740 O 474.61 -0.43069 -1.89364 0
M  V30 4741 C 471.74 -1.1701 -3.26995 0
M  V30 4742 C 470.694 -2.27216 -3.62708 0
M  V30 4743 C 470.02 -1.93174 -4.98586 0
M  V30 4744 C 471.32 -3.6941 -3.69234 0
M  V30 4745 H 473.014 -2.30499 -1.91078 0
M  V30 4746 H 470.56 -1.10953 -0.917902 0
M  V30 4747 H 472.513 -1.14688 -4.05493 0
M  V30 4748 H 471.237 -0.191395 -3.26039 0
M  V30 4749 H 469.896 -2.28697 -2.86519 0
M  V30 4750 H 469.544 -0.938281 -4.94171 0
M  V30 4751 H 469.244 -2.66973 -5.23449 0
M  V30 4752 H 470.768 -1.92443 -5.79481 0
M  V30 4753 H 472.182 -3.70047 -4.37879 0
M  V30 4754 H 470.579 -4.4228 -4.05597 0
M  V30 4755 H 471.649 -4.0288 -2.69844 0
M  V30 4756 N 472.992 0.995999 -1.22138 0
M  V30 4757 C 473.902 2.11985 -1.00496 0
M  V30 4758 C 474.918 1.7394 0.0457701 0
M  V30 4759 O 476.094 2.00868 -0.146273 0
M  V30 4760 C 473.159 3.41779 -0.582086 0
M  V30 4761 C 472.22 3.93943 -1.70608 0
M  V30 4762 C 471.453 5.17542 -1.30328 0
M  V30 4763 O 471.676 5.70114 -0.180743 0
M  V30 4764 O 470.61 5.63382 -2.11861 0
M  V30 4765 H 474.436 2.33123 -1.94647 0
M  V30 4766 H 472.021 1.10358 -1.00705 0
M  V30 4767 H 473.903 4.1989 -0.356467 0
M  V30 4768 H 472.578 3.22007 0.330592 0
M  V30 4769 H 471.485 3.17019 -1.98619 0
M  V30 4770 H 472.818 4.18141 -2.59651 0
M  V30 4771 N 474.47 1.03057 1.19235 0
M  V30 4772 C 475.4 0.633497 2.24742 0
M  V30 4773 C 476.381 -0.358335 1.66283 0
M  V30 4774 O 477.566 -0.240676 1.92703 0
M  V30 4775 C 474.696 -0.0147648 3.47297 0
M  V30 4776 C 473.65 0.899527 4.18441 0
M  V30 4777 C 472.976 0.116281 5.34574 0
M  V30 4778 C 474.276 2.21404 4.73051 0
M  V30 4779 H 475.97 1.5155 2.58211 0
M  V30 4780 H 473.516 0.73014 1.24117 0
M  V30 4781 H 475.469 -0.304202 4.20301 0
M  V30 4782 H 474.193 -0.931577 3.13032 0
M  V30 4783 H 472.852 1.17319 3.47321 0
M  V30 4784 H 472.5 -0.802619 4.96555 0
M  V30 4785 H 472.2 0.725293 5.83107 0
M  V30 4786 H 473.724 -0.166376 6.10373 0
M  V30 4787 H 475.138 1.98601 5.37802 0
M  V30 4788 H 473.535 2.77512 5.32078 0
M  V30 4789 H 474.605 2.86752 3.91026 0
M  V30 4790 N 475.948 -1.35272 0.808662 0
M  V30 4791 C 477.178 -2.02652 0.401953 0
M  V30 4792 C 477.586 -1.6108 -0.992462 0
M  V30 4793 O 476.929 -0.804984 -1.65123 0
M  V30 4794 C 476.991 -3.57174 0.408246 0
M  V30 4795 C 476.655 -4.22019 1.75353 0
M  V30 4796 C 477.652 -4.43552 2.71215 0
M  V30 4797 C 475.337 -4.59093 2.03811 0
M  V30 4798 C 477.331 -5.01264 3.93717 0
M  V30 4799 C 475.018 -5.16519 3.26576 0
M  V30 4800 C 476.016 -5.37546 4.21347 0
M  V30 4801 O 475.704 -5.93761 5.41944 0
M  V30 4802 H 475.436 -0.656495 0.161216 0
M  V30 4803 H 477.99 -1.73829 1.0942 0
M  V30 4804 H 476.22 -3.85197 -0.340608 0
M  V30 4805 H 477.909 -4.05893 0.0235623 0
M  V30 4806 H 478.675 -4.15288 2.50522 0
M  V30 4807 H 474.554 -4.42039 1.30854 0
M  V30 4808 H 478.098 -5.17592 4.67701 0
M  V30 4809 H 473.995 -5.4421 3.47139 0
M  V30 4810 H 474.763 -6.1221 5.43269 0
M  V30 4811 N 477.426 -0.562348 -1.47226 0
M  V30 4812 C 478.374 0.195476 -2.31777 0
M  V30 4813 C 479.368 0.90433 -1.43242 0
M  V30 4814 O 480.574 0.825031 -1.59979 0
M  V30 4815 H 476.949 0.0819095 -0.747526 0
M  V30 4816 H 478.92 -0.536753 -2.93533 0
M  V30 4817 C 477.669 1.20902 -3.26003 0
M  V30 4818 H 476.992 0.672997 -3.94095 0
M  V30 4819 H 478.432 1.71006 -3.87986 0
M  V30 4820 C 476.891 2.25955 -2.49891 0
M  V30 4821 O 477.421 3.32969 -2.2471 0
M  V30 4822 N 475.627 2.00019 -2.1081 0
M  V30 4823 H 475.174 1.13006 -2.31489 0
M  V30 4824 H 475.132 2.70523 -1.60201 0
M  V30 4825 N 478.904 1.54736 -0.299062 0
M  V30 4826 C 480.315 1.8569 0.193971 0
M  V30 4827 C 480.666 1.22101 1.53577 0
M  V30 4828 O 479.791 0.51799 2.10109 0
M  V30 4829 C 480.386 3.36895 0.358733 0
M  V30 4830 C 478.945 3.67887 0.795986 0
M  V30 4831 C 478.092 2.77131 -0.096807 0
M  V30 4832 H 481.043 1.49934 -0.520134 0
M  V30 4833 H 481.064 3.61294 1.19361 0
M  V30 4834 H 480.576 3.83148 -0.617998 0
M  V30 4835 H 478.677 3.27151 1.78334 0
M  V30 4836 H 478.79 4.75114 0.616718 0
M  V30 4837 H 477.154 2.51153 0.423581 0
M  V30 4838 H 477.937 3.26204 -1.06986 0
M  V30 4839 N 480.382 0.0267497 1.57577 0
M  V30 4840 C 481.329 -0.955894 2.10075 0
M  V30 4841 C 482.299 -1.32453 1.00226 0
M  V30 4842 O 483.484 -1.41826 1.27632 0
M  V30 4843 C 480.624 -2.2338 2.6305 0
M  V30 4844 C 479.737 -1.92183 3.86898 0
M  V30 4845 C 478.872 -3.14251 4.28275 0
M  V30 4846 C 477.911 -2.78862 5.44888 0
M  V30 4847 N 477.048 -3.93548 5.81433 0
M  V30 4848 H 481.888 -0.501303 2.93753 0
M  V30 4849 H 479.425 -0.235847 1.45197 0
M  V30 4850 H 481.383 -2.98124 2.91853 0
M  V30 4851 H 480.013 -2.6646 1.82205 0
M  V30 4852 H 479.065 -1.07692 3.64838 0
M  V30 4853 H 480.377 -1.62117 4.7172 0
M  V30 4854 H 479.531 -3.97317 4.58502 0
M  V30 4855 H 478.27 -3.47476 3.42215 0
M  V30 4856 H 477.275 -1.94208 5.14357 0
M  V30 4857 H 478.5 -2.46855 6.32645 0
M  V30 4858 H 476.446 -4.2662 4.98328 0
M  V30 4859 H 476.363 -3.67098 6.6089 0
M  V30 4860 H 477.631 -4.77325 6.16264 0
M  V30 4861 N 481.861 -1.55662 -0.24637 0
M  V30 4862 C 483.109 -1.77168 -0.972411 0
M  V30 4863 C 483.43 -0.590827 -1.85834 0
M  V30 4864 O 482.7 0.393365 -1.9191 0
M  V30 4865 H 481.28 -0.653405 -0.362038 0
M  V30 4866 H 483.942 -1.93101 -0.264189 0
M  V30 4867 H 483.038 -2.68335 -1.59382 0
M  V30 4868 N 483.339 0.512053 -1.4905 0
M  V30 4869 C 484.588 1.26343 -1.57227 0
M  V30 4870 C 484.901 1.93876 -0.259155 0
M  V30 4871 O 486.107 2.70612 -0.219358 0
M  V30 4872 C 484.563 2.29343 -2.77362 0
M  V30 4873 C 484.171 1.67799 -4.15388 0
M  V30 4874 C 485.915 3.05378 -2.94864 0
M  V30 4875 C 483.822 2.68845 -5.2676 0
M  V30 4876 H 482.752 0.475231 -0.585382 0
M  V30 4877 H 485.403 0.53862 -1.75417 0
M  V30 4878 H 483.785 3.04938 -2.52643 0
M  V30 4879 H 484.959 0.982715 -4.50199 0
M  V30 4880 H 483.274 1.04194 -4.03153 0
M  V30 4881 H 485.871 3.80921 -3.75238 0
M  V30 4882 H 486.214 3.62327 -2.05 0
M  V30 4883 H 486.747 2.36898 -3.19569 0
M  V30 4884 H 483.486 2.16692 -6.18647 0
M  V30 4885 H 483.006 3.36647 -4.96416 0
M  V30 4886 H 484.685 3.31487 -5.5563 0
M  V30 4887 N 484.817 1.37938 0.762283 0
M  V30 4888 C 485.78 1.34279 1.85747 0
M  V30 4889 C 486.78 0.244969 1.58923 0
M  V30 4890 O 487.97 0.501365 1.66829 0
M  V30 4891 C 485.102 1.08833 3.23061 0
M  V30 4892 H 486.295 2.31705 1.90401 0
M  V30 4893 H 483.848 1.23105 0.963057 0
M  V30 4894 H 484.583 0.119767 3.24079 0
M  V30 4895 H 484.368 1.88306 3.43923 0
M  V30 4896 H 485.858 1.08946 4.03138 0
M  V30 4897 N 486.295 -0.989507 1.22664 0
M  V30 4898 C 487.225 -2.09847 1.02404 0
M  V30 4899 C 488.206 -1.70007 -0.0561303 0
M  V30 4900 O 489.391 -1.93906 0.106748 0
M  V30 4901 C 486.521 -3.41996 0.604663 0
M  V30 4902 C 485.475 -3.95699 1.63115 0
M  V30 4903 C 484.801 -5.23936 1.0675 0
M  V30 4904 C 486.101 -4.25999 3.02196 0
M  V30 4905 H 487.795 -2.27054 1.95158 0
M  V30 4906 H 485.341 -1.09111 0.939727 0
M  V30 4907 H 487.294 -4.1899 0.45002 0
M  V30 4908 H 486.018 -3.24626 -0.35855 0
M  V30 4909 H 484.677 -3.2084 1.77362 0
M  V30 4910 H 484.325 -5.02909 0.0955422 0
M  V30 4911 H 484.025 -5.60833 1.75328 0
M  V30 4912 H 485.549 -6.0356 0.924516 0
M  V30 4913 H 486.963 -4.93777 2.91303 0
M  V30 4914 H 485.36 -4.74076 3.67929 0
M  V30 4915 H 486.43 -3.33636 3.51873 0
M  V30 4916 N 487.773 -1.03688 -1.18687 0
M  V30 4917 C 489.05 -0.652397 -1.84399 0
M  V30 4918 C 489.43 0.868386 -1.92412 0
M  V30 4919 O 488.778 1.76832 -1.44716 0
M  V30 4920 C 488.988 -1.3238 -3.22919 0
M  V30 4921 C 490.336 -1.45216 -3.98996 0
M  V30 4922 O 491.36 -1.2816 -3.32345 0
M  V30 4923 O 490.219 -1.72975 -5.18403 0
M  V30 4924 H 487.313 -0.227793 -0.795009 0
M  V30 4925 H 489.859 -1.13553 -1.2611 0
M  V30 4926 H 488.631 -2.36202 -3.11968 0
M  V30 4927 H 488.254 -0.829039 -3.88861 0
M  V30 4928 N 489.251 1.34841 -0.815825 0
M  V30 4929 C 490.662 1.80937 -0.46029 0
M  V30 4930 C 491.013 1.67685 1.01863 0
M  V30 4931 O 490.138 1.21277 1.79223 0
M  V30 4932 C 490.733 3.28509 -0.828708 0
M  V30 4933 C 489.292 3.72712 -0.525644 0
M  V30 4934 C 488.439 2.56676 -1.04941 0
M  V30 4935 H 491.39 1.22688 -1.00664 0
M  V30 4936 H 491.411 3.80279 -0.129757 0
M  V30 4937 H 490.923 3.38122 -1.90513 0
M  V30 4938 H 489.024 3.68642 0.541666 0
M  V30 4939 H 489.137 4.67119 -1.06474 0
M  V30 4940 H 487.501 2.50302 -0.471286 0
M  V30 4941 H 488.284 2.69063 -2.13214 0
M  V30 4942 N 490.729 0.570148 1.46925 0
M  V30 4943 C 491.692 -0.159933 2.28641 0
M  V30 4944 C 492.692 -0.830638 1.37685 0
M  V30 4945 O 493.882 -0.684516 1.60187 0
M  V30 4946 C 491.014 -1.2354 3.17727 0
M  V30 4947 H 492.207 0.558035 2.94662 0
M  V30 4948 H 489.76 0.327603 1.52828 0
M  V30 4949 H 490.495 -1.98535 2.56426 0
M  V30 4950 H 490.28 -0.759125 3.84681 0
M  V30 4951 H 491.77 -1.74782 3.79264 0
M  V30 4952 N 492.207 -1.54576 0.307264 0
M  V30 4953 C 493.14 -2.19946 -0.608195 0
M  V30 4954 C 494.118 -1.17096 -1.12815 0
M  V30 4955 O 495.302 -1.45766 -1.19518 0
M  V30 4956 C 492.429 -2.84826 -1.8328 0
M  V30 4957 C 491.475 -4.01256 -1.44554 0
M  V30 4958 S 492.308 -5.33197 -0.49612 0
M  V30 4959 C 493.464 -6.01563 -1.72838 0
M  V30 4960 H 493.697 -2.97253 -0.0528544 0
M  V30 4961 H 491.23 -1.54129 0.0913837 0
M  V30 4962 H 493.188 -3.22832 -2.53554 0
M  V30 4963 H 491.849 -2.07353 -2.35931 0
M  V30 4964 H 491.042 -4.45457 -2.35762 0
M  V30 4965 H 490.644 -3.6484 -0.822671 0
M  V30 4966 H 492.936 -6.22751 -2.6681 0
M  V30 4967 H 493.879 -6.9552 -1.32882 0
M  V30 4968 H 494.287 -5.31279 -1.90795 0
M  V30 4969 N 493.685 -0.035106 -1.57561 0
M  V30 4970 C 494.933 0.64096 -1.91667 0
M  V30 4971 C 495.254 1.72323 -0.912681 0
M  V30 4972 O 494.524 1.95849 0.0449089 0
M  V30 4973 H 493.104 0.239743 -0.707483 0
M  V30 4974 H 495.766 -0.084321 -1.94718 0
M  V30 4975 H 494.862 1.08987 -2.92452 0
M  V30 4976 N 495.163 1.55791 0.238111 0
M  V30 4977 C 496.11 1.9105 1.29493 0
M  V30 4978 C 497.08 0.765733 1.47397 0
M  V30 4979 O 498.265 1.02017 1.61236 0
M  V30 4980 C 495.405 2.21826 2.64362 0
M  V30 4981 C 494.518 3.49153 2.54394 0
M  V30 4982 C 493.653 3.69455 3.81676 0
M  V30 4983 C 492.692 4.90353 3.66361 0
M  V30 4984 N 491.829 5.07131 4.85554 0
M  V30 4985 H 496.669 2.81172 0.987233 0
M  V30 4986 H 494.206 1.39179 0.476203 0
M  V30 4987 H 496.164 2.37675 3.4288 0
M  V30 4988 H 494.794 1.34897 2.93262 0
M  V30 4989 H 493.846 3.41587 1.67399 0
M  V30 4990 H 495.158 4.37818 2.38991 0
M  V30 4991 H 494.312 3.85311 4.68636 0
M  V30 4992 H 493.051 2.7904 3.99985 0
M  V30 4993 H 492.056 4.74464 2.77784 0
M  V30 4994 H 493.281 5.82237 3.49538 0
M  V30 4995 H 491.227 4.19654 5.04209 0
M  V30 4996 H 491.144 5.89899 4.72816 0
M  V30 4997 H 492.412 5.27407 5.73988 0
M  V30 4998 N 496.642 -0.504142 1.49319 0
M  V30 4999 C 497.888 -1.26033 1.58882 0
M  V30 5000 C 498.221 -1.92268 0.273274 0
M  V30 5001 O 497.496 -1.80567 -0.72291 0
M  V30 5002 C 497.779 -2.32976 2.7458 0
M  V30 5003 C 497.632 -1.71263 4.1592 0
M  V30 5004 C 498.951 -3.34561 2.85932 0
M  V30 5005 H 496.07 -0.456863 0.578312 0
M  V30 5006 H 498.712 -0.558965 1.81592 0
M  V30 5007 H 496.862 -2.92796 2.55348 0
M  V30 5008 H 498.534 -1.15294 4.4666 0
M  V30 5009 H 496.777 -1.01686 4.21714 0
M  V30 5010 H 497.448 -2.48816 4.92742 0
M  V30 5011 H 499.924 -2.84727 3.0343 0
M  V30 5012 H 498.8 -4.06754 3.68568 0
M  V30 5013 H 499.061 -3.96695 1.95154 0
M  V30 5014 N 498.12 -1.38341 -0.754957 0
M  V30 5015 C 499.367 -1.34473 -1.51404 0
M  V30 5016 C 499.695 0.0656458 -1.94389 0
M  V30 5017 O 498.95 1.04244 -1.65625 0
M  V30 5018 C 499.249 -2.2452 -2.78075 0
M  V30 5019 C 498.915 -3.72512 -2.54059 0
M  V30 5020 C 497.577 -4.1284 -2.47218 0
M  V30 5021 C 499.929 -4.66197 -2.33044 0
M  V30 5022 C 497.257 -5.44945 -2.17376 0
M  V30 5023 C 499.609 -5.98558 -2.04723 0
M  V30 5024 C 498.273 -6.37972 -1.96337 0
M  V30 5025 H 497.543 -0.492072 -0.554027 0
M  V30 5026 H 500.19 -1.70687 -0.868223 0
M  V30 5027 H 498.495 -1.81357 -3.473 0
M  V30 5028 H 500.192 -2.18832 -3.36026 0
M  V30 5029 H 496.782 -3.40538 -2.60253 0
M  V30 5030 H 500.966 -4.35888 -2.37309 0
M  V30 5031 H 496.222 -5.74426 -2.09391 0
M  V30 5032 H 500.396 -6.70693 -1.87465 0
M  V30 5033 H 498.023 -7.40258 -1.72978 0
M  V30 5034 N 499.598 0.982988 -1.23187 0
M  V30 5035 C 500.845 1.72392 -1.06241 0
M  V30 5036 C 501.173 1.9032 0.40108 0
M  V30 5037 O 500.428 1.45084 1.31336 0
M  V30 5038 C 500.727 3.12736 -1.73006 0
M  V30 5039 C 500.393 3.14695 -3.22921 0
M  V30 5040 C 499.055 3.14937 -3.63824 0
M  V30 5041 C 501.407 3.10211 -4.1883 0
M  V30 5042 C 498.735 3.08408 -4.99101 0
M  V30 5043 C 501.087 3.05224 -5.54095 0
M  V30 5044 C 499.751 3.03787 -5.94365 0
M  V30 5045 H 499.021 0.630829 -0.388762 0
M  V30 5046 H 501.668 1.15053 -1.53085 0
M  V30 5047 H 499.973 3.73446 -1.18514 0
M  V30 5048 H 501.67 3.68828 -1.57374 0
M  V30 5049 H 498.26 3.15262 -2.90358 0
M  V30 5050 H 502.444 3.09166 -3.8824 0
M  V30 5051 H 497.7 3.05646 -5.29519 0
M  V30 5052 H 501.874 3.00712 -6.28128 0
M  V30 5053 H 499.501 2.98483 -6.99151 0
M  V30 5054 N 501.076 1.04316 1.18135 0
M  V30 5055 C 502.304 0.768117 1.92113 0
M  V30 5056 C 502.719 -0.675057 1.76319 0
M  V30 5057 O 502.076 -1.46038 1.09449 0
M  V30 5058 C 502.127 1.12808 3.43448 0
M  V30 5059 O 501.848 2.5146 3.58747 0
M  V30 5060 C 503.349 0.8779 4.3452 0
M  V30 5061 H 500.569 0.279937 0.609817 0
M  V30 5062 H 503.113 1.39149 1.49859 0
M  V30 5063 H 501.268 0.549623 3.83481 0
M  V30 5064 H 501.682 2.65313 4.52448 0
M  V30 5065 H 503.156 1.17959 5.39249 0
M  V30 5066 H 503.633 -0.187239 4.38801 0
M  V30 5067 H 504.239 1.43977 4.00188 0
M  V30 5068 N 502.554 -1.34406 0.822964 0
M  V30 5069 C 503.831 -1.92733 0.333641 0
M  V30 5070 C 504.211 -1.75107 -1.17901 0
M  V30 5071 O 503.559 -1.12983 -1.98613 0
M  V30 5072 C 503.769 -3.40557 0.763023 0
M  V30 5073 C 505.117 -4.17709 0.761879 0
M  V30 5074 O 506.141 -3.49141 0.705606 0
M  V30 5075 O 505 -5.40082 0.835109 0
M  V30 5076 H 502.094 -0.821964 0.0911249 0
M  V30 5077 H 504.64 -1.4338 0.907757 0
M  V30 5078 H 503.412 -3.47187 1.8049 0
M  V30 5079 H 503.035 -3.97259 0.164605 0
M  V30 5080 N 504.032 -0.577932 -1.46621 0
M  V30 5081 C 505.262 -0.0670668 -2.06491 0
M  V30 5082 C 505.67 1.24119 -1.42798 0
M  V30 5083 O 505.013 1.76016 -0.525759 0
M  V30 5084 C 505.075 0.177995 -3.59059 0
M  V30 5085 C 504.739 -1.04394 -4.44917 0
M  V30 5086 C 505.736 -1.95479 -4.81751 0
M  V30 5087 C 503.421 -1.26444 -4.86125 0
M  V30 5088 C 505.415 -3.06965 -5.58615 0
M  V30 5089 C 503.102 -2.38237 -5.62749 0
M  V30 5090 C 504.1 -3.28327 -5.98908 0
M  V30 5091 O 503.788 -4.38179 -6.73984 0
M  V30 5092 H 503.52 -0.0523159 -0.673973 0
M  V30 5093 H 506.074 -0.796966 -1.89308 0
M  V30 5094 H 504.304 0.962451 -3.74531 0
M  V30 5095 H 505.993 0.636782 -4.00874 0
M  V30 5096 H 506.759 -1.79657 -4.50498 0
M  V30 5097 H 502.638 -0.572316 -4.57434 0
M  V30 5098 H 506.182 -3.77309 -5.86757 0
M  V30 5099 H 502.079 -2.54023 -5.93416 0
M  V30 5100 H 502.847 -4.36486 -6.92403 0
M  V30 5101 N 505.51 1.54411 -0.315457 0
M  V30 5102 C 506.758 2.00023 0.288971 0
M  V30 5103 C 507.079 1.20529 1.5329 0
M  V30 5104 O 506.349 0.304986 1.93511 0
M  V30 5105 H 504.929 0.738891 0.109766 0
M  V30 5106 H 507.591 1.90094 -0.430129 0
M  V30 5107 H 506.687 3.07198 0.550999 0
M  V30 5108 N 506.988 0.0434614 1.5754 0
M  V30 5109 C 507.92 -0.962586 2.08007 0
M  V30 5110 C 508.933 -1.27972 1.00634 0
M  V30 5111 O 510.122 -1.24186 1.28219 0
M  V30 5112 C 507.222 -2.28621 2.50171 0
M  V30 5113 C 506.395 -2.15214 3.80791 0
M  V30 5114 C 505.454 -3.30633 4.09351 0
M  V30 5115 O 504.48 -3.0688 4.79388 0
M  V30 5116 N 505.682 -4.54873 3.60654 0
M  V30 5117 H 508.447 -0.531891 2.94942 0
M  V30 5118 H 506.008 -0.142965 1.61268 0
M  V30 5119 H 508 -3.04689 2.66359 0
M  V30 5120 H 506.57 -2.63283 1.68525 0
M  V30 5121 H 505.79 -1.23785 3.74261 0
M  V30 5122 H 507.078 -2.03475 4.66343 0
M  V30 5123 H 506.476 -4.77063 3.04019 0
M  V30 5124 H 505.033 -5.2806 3.82094 0
M  V30 5125 N 508.466 -1.55915 -0.229846 0
M  V30 5126 C 509.715 -1.77742 -0.953455 0
M  V30 5127 C 510.028 -0.610524 -1.85828 0
M  V30 5128 O 511.234 -0.712219 -2.61992 0
M  V30 5129 C 509.69 -3.14738 -1.74551 0
M  V30 5130 C 509.298 -4.39126 -0.887242 0
M  V30 5131 C 511.042 -3.45895 -2.46084 0
M  V30 5132 C 508.949 -5.67149 -1.67617 0
M  V30 5133 H 507.879 -0.662648 -0.359741 0
M  V30 5134 H 510.53 -1.82322 -0.207576 0
M  V30 5135 H 508.912 -3.04311 -2.53399 0
M  V30 5136 H 510.086 -4.60588 -0.139892 0
M  V30 5137 H 508.401 -4.15427 -0.284443 0
M  V30 5138 H 510.998 -4.38767 -3.05594 0
M  V30 5139 H 511.341 -2.68007 -3.18556 0
M  V30 5140 H 511.874 -3.57614 -1.74233 0
M  V30 5141 H 508.613 -6.47906 -0.994881 0
M  V30 5142 H 508.133 -5.49763 -2.39836 0
M  V30 5143 H 509.812 -6.07025 -2.23898 0
M  V30 5144 N 509.944 0.496216 -1.49584 0
M  V30 5145 C 511.355 1.07765 -1.52459 0
M  V30 5146 C 511.706 1.93679 -0.31353 0
M  V30 5147 O 510.831 2.08588 0.576186 0
M  V30 5148 C 511.426 1.96111 -2.76271 0
M  V30 5149 C 509.985 2.49409 -2.81908 0
M  V30 5150 C 509.132 1.27142 -2.46435 0
M  V30 5151 H 512.083 0.279914 -1.56212 0
M  V30 5152 H 512.104 2.80862 -2.56704 0
M  V30 5153 H 511.616 1.33555 -3.64396 0
M  V30 5154 H 509.717 3.1559 -1.98074 0
M  V30 5155 H 509.83 2.86234 -3.84196 0
M  V30 5156 H 508.194 1.59818 -1.98319 0
M  V30 5157 H 508.977 0.662866 -3.3684 0
M  V30 5158 N 511.423 1.38739 0.74761 0
M  V30 5159 C 512.37 1.36449 1.86146 0
M  V30 5160 C 513.34 0.226098 1.64554 0
M  V30 5161 O 514.525 0.41926 1.86137 0
M  V30 5162 C 511.665 1.2013 3.23516 0
M  V30 5163 C 510.778 2.43407 3.56899 0
M  V30 5164 C 509.913 2.19773 4.83605 0
M  V30 5165 C 508.952 3.3879 5.09792 0
M  V30 5166 N 508.089 3.14553 6.27695 0
M  V30 5167 H 512.929 2.3167 1.87438 0
M  V30 5168 H 510.466 1.15094 0.916063 0
M  V30 5169 H 512.424 1.08683 4.02795 0
M  V30 5170 H 511.054 0.285453 3.21535 0
M  V30 5171 H 510.106 2.65504 2.72418 0
M  V30 5172 H 511.418 3.32094 3.72176 0
M  V30 5173 H 510.572 2.05496 5.70838 0
M  V30 5174 H 509.311 1.28461 4.70478 0
M  V30 5175 H 508.316 3.53579 4.21025 0
M  V30 5176 H 509.541 4.30986 5.24812 0
M  V30 5177 H 507.487 2.25893 6.1588 0
M  V30 5178 H 507.404 3.96791 6.435 0
M  V30 5179 H 508.672 3.03943 7.17801 0
M  V30 5180 N 512.901 -0.976442 1.23707 0
M  V30 5181 C 514.147 -1.72081 1.07312 0
M  V30 5182 C 514.48 -1.90275 -0.388476 0
M  V30 5183 O 513.755 -1.4579 -1.28746 0
M  V30 5184 C 514.038 -3.11675 1.80363 0
M  V30 5185 C 513.891 -3.01027 3.3422 0
M  V30 5186 C 515.21 -4.1117 1.5693 0
M  V30 5187 H 512.329 -0.624583 0.391236 0
M  V30 5188 H 514.971 -1.13649 1.52263 0
M  V30 5189 H 513.121 -3.61559 1.42153 0
M  V30 5190 H 514.793 -2.58637 3.81975 0
M  V30 5191 H 513.036 -2.3744 3.63049 0
M  V30 5192 H 513.707 -3.9988 3.80525 0
M  V30 5193 H 516.183 -3.7011 1.90151 0
M  V30 5194 H 515.059 -5.06928 2.10513 0
M  V30 5195 H 515.32 -4.392 0.505548 0
M  V30 5196 N 514.379 -1.04941 -1.1758 0
M  V30 5197 C 515.289 -0.658826 -2.25159 0
M  V30 5198 C 516.305 0.318941 -1.71052 0
M  V30 5199 O 517.481 0.171669 -2.00667 0
M  V30 5200 C 514.546 -0.0369522 -3.4668 0
M  V30 5201 C 513.607 -1.06484 -4.15884 0
M  V30 5202 C 512.84 -0.472551 -5.31604 0
M  V30 5203 O 513.063 0.718736 -5.65854 0
M  V30 5204 O 511.997 -1.20557 -5.89703 0
M  V30 5205 H 515.823 -1.55533 -2.60851 0
M  V30 5206 H 513.408 -0.820819 -1.24832 0
M  V30 5207 H 515.29 0.308784 -4.20267 0
M  V30 5208 H 513.965 0.833238 -3.12792 0
M  V30 5209 H 512.872 -1.46253 -3.44327 0
M  V30 5210 H 514.205 -1.9061 -4.53794 0
M  V30 5211 N 515.857 1.33968 -0.830081 0
M  V30 5212 C 517.273 1.51003 -0.516742 0
M  V30 5213 C 517.473 1.77286 0.957694 0
M  V30 5214 O 516.529 1.82797 1.74188 0
M  V30 5215 C 517.842 2.67036 -1.38247 0
M  V30 5216 C 519.39 2.80919 -1.38034 0
M  V30 5217 C 519.865 4.00004 -2.23071 0
M  V30 5218 N 521.356 4.07224 -2.20733 0
M  V30 5219 C 522.091 4.98541 -2.83275 0
M  V30 5220 N 521.587 5.95033 -3.54835 0
M  V30 5221 N 523.38 4.91469 -2.72791 0
M  V30 5222 H 515.531 1.15168 -1.78466 0
M  V30 5223 H 517.794 0.565443 -0.760906 0
M  V30 5224 H 517.5 2.54266 -2.42985 0
M  V30 5225 H 517.374 3.62226 -1.05225 0
M  V30 5226 H 519.761 2.93127 -0.340713 0
M  V30 5227 H 519.842 1.86517 -1.75057 0
M  V30 5228 H 519.486 3.88557 -3.27087 0
M  V30 5229 H 519.416 4.93634 -1.83394 0
M  V30 5230 H 521.907 3.38162 -1.68687 0
M  V30 5231 H 522.22 6.61357 -3.99784 0
M  V30 5232 H 520.565 5.95135 -3.58942 0
M  V30 5233 H 523.756 4.15048 -2.16456 0
M  V30 5234 H 523.929 5.62439 -3.21818 0
M  V30 5235 N 517.335 0.585699 1.46312 0
M  V30 5236 C 518.575 0.0751432 2.04262 0
M  V30 5237 C 518.939 -1.26201 1.44697 0
M  V30 5238 O 520.14 -1.86198 1.93865 0
M  V30 5239 C 518.411 0.013478 3.57397 0
M  V30 5240 S 519.97 -0.439068 4.36598 0
M  V30 5241 H 516.788 0.0389228 0.709934 0
M  V30 5242 H 519.39 0.778871 1.79315 0
M  V30 5243 H 518.094 0.990558 3.98266 0
M  V30 5244 H 517.625 -0.712927 3.86886 0
M  V30 5245 H 519.64 -1.6932 4.66417 0
M  V30 5246 N 518.813 -1.54241 0.323641 0
M  V30 5247 C 520.09 -1.92741 -0.333181 0
M  V30 5248 C 520.47 -1.25326 -1.69872 0
M  V30 5249 O 519.818 -0.396991 -2.25025 0
M  V30 5250 C 520.028 -3.46399 -0.425322 0
M  V30 5251 C 521.376 -4.19029 -0.68557 0
M  V30 5252 O 522.4 -3.52555 -0.50824 0
M  V30 5253 O 521.259 -5.36751 -1.02767 0
M  V30 5254 H 518.353 -0.804811 -0.190286 0
M  V30 5255 H 520.899 -1.65542 0.373361 0
M  V30 5256 H 519.671 -3.87643 0.533737 0
M  V30 5257 H 519.294 -3.79704 -1.17944 0
M  V30 5258 N 520.291 -0.0518155 -1.57515 0
M  V30 5259 C 521.224 0.957758 -2.07129 0
M  V30 5260 C 522.202 1.30355 -0.971927 0
M  V30 5261 O 523.386 1.41631 -1.2439 0
M  V30 5262 C 520.513 2.27157 -2.51232 0
M  V30 5263 C 519.559 2.07879 -3.72409 0
M  V30 5264 S 520.392 1.35656 -5.18033 0
M  V30 5265 C 521.548 2.68359 -5.65451 0
M  V30 5266 H 521.781 0.53552 -2.92437 0
M  V30 5267 H 519.314 0.160465 -1.53564 0
M  V30 5268 H 521.272 3.02676 -2.77304 0
M  V30 5269 H 519.933 2.66509 -1.66228 0
M  V30 5270 H 519.126 3.05061 -4.01191 0
M  V30 5271 H 518.728 1.40499 -3.46606 0
M  V30 5272 H 521.02 3.64526 -5.71076 0
M  V30 5273 H 521.963 2.44213 -6.64654 0
M  V30 5274 H 522.371 2.74647 -4.93183 0
M  V30 5275 N 521.769 1.56035 0.221574 0
M  V30 5276 C 523.046 1.69837 0.970301 0
M  V30 5277 C 523.426 0.599065 2.02421 0
M  V30 5278 O 522.774 -0.393929 2.25079 0
M  V30 5279 C 522.984 3.11148 1.58076 0
M  V30 5280 C 524.332 3.70555 2.07302 0
M  V30 5281 O 525.356 3.14109 1.6797 0
M  V30 5282 O 524.215 4.69562 2.79596 0
M  V30 5283 H 521.309 0.691727 0.453257 0
M  V30 5284 H 523.855 1.68353 0.213358 0
M  V30 5285 H 522.627 3.82617 0.819759 0
M  V30 5286 H 522.25 3.16749 2.40324 0
M  V30 5287 N 523.247 -0.488276 1.49845 0
M  V30 5288 C 524.495 -1.23911 1.59657 0
M  V30 5289 C 524.816 -1.92816 0.291005 0
M  V30 5290 O 524.086 -1.83328 -0.690485 0
M  V30 5291 H 522.666 -0.460357 0.588286 0
M  V30 5292 H 525.328 -0.564794 1.86537 0
M  V30 5293 H 524.424 -1.99625 2.39909 0
M  V30 5294 N 524.725 -1.39134 -0.740242 0
M  V30 5295 C 525.657 -1.33332 -1.86428 0
M  V30 5296 C 526.67 -0.243042 -1.60976 0
M  V30 5297 O 527.859 -0.501608 -1.71307 0
M  V30 5298 C 524.959 -1.04626 -3.22346 0
M  V30 5299 C 524.132 -2.24826 -3.75196 0
M  V30 5300 C 523.191 -1.92659 -4.89662 0
M  V30 5301 O 522.217 -2.6529 -5.03597 0
M  V30 5302 N 523.419 -0.889575 -5.73643 0
M  V30 5303 H 526.184 -2.30196 -1.91911 0
M  V30 5304 H 523.745 -1.33168 -0.920756 0
M  V30 5305 H 525.737 -0.811347 -3.96484 0
M  V30 5306 H 524.307 -0.165129 -3.12164 0
M  V30 5307 H 523.527 -2.64301 -2.9247 0
M  V30 5308 H 524.815 -3.05015 -4.07239 0
M  V30 5309 H 524.213 -0.287529 -5.64969 0
M  V30 5310 H 522.77 -0.714557 -6.47871 0
M  V30 5311 N 526.204 0.969867 -1.24223 0
M  V30 5312 C 527.152 2.08535 -1.03034 0
M  V30 5313 C 528.146 1.69366 0.0340379 0
M  V30 5314 O 529.352 1.79597 -0.12034 0
M  V30 5315 H 525.727 0.682313 -0.316154 0
M  V30 5316 H 527.698 2.23569 -1.97635 0
M  V30 5317 C 526.447 3.4158 -0.649509 0
M  V30 5318 H 525.77 3.72177 -1.46028 0
M  V30 5319 H 527.21 4.20536 -0.540841 0
M  V30 5320 C 525.669 3.30703 0.643194 0
M  V30 5321 O 526.199 3.64443 1.68951 0
M  V30 5322 N 524.405 2.83841 0.623095 0
M  V30 5323 H 523.952 2.56583 -0.228719 0
M  V30 5324 H 523.91 2.76946 1.48823 0
M  V30 5325 N 527.682 1.05563 1.17022 0
M  V30 5326 C 529.098 0.777684 1.39371 0
M  V30 5327 C 529.298 -0.626269 1.91521 0
M  V30 5328 O 528.354 -1.38806 2.10924 0
M  V30 5329 C 529.667 1.83642 2.3811 0
M  V30 5330 C 531.215 1.85907 2.51809 0
M  V30 5331 C 531.69 2.90813 3.53824 0
M  V30 5332 N 533.181 2.898 3.61345 0
M  V30 5333 C 533.916 3.6762 4.40049 0
M  V30 5334 N 533.412 4.55237 5.22237 0
M  V30 5335 N 535.205 3.56044 4.34959 0
M  V30 5336 H 527.356 1.9614 0.815047 0
M  V30 5337 H 529.619 0.849527 0.420722 0
M  V30 5338 H 529.325 2.84425 2.06871 0
M  V30 5339 H 529.199 1.6812 3.37662 0
M  V30 5340 H 531.586 0.857865 2.82356 0
M  V30 5341 H 531.667 2.05506 1.52318 0
M  V30 5342 H 531.311 3.91122 3.24015 0
M  V30 5343 H 531.241 2.68465 4.53028 0
M  V30 5344 H 533.732 2.26274 3.02669 0
M  V30 5345 H 534.045 5.11291 5.79484 0
M  V30 5346 H 532.39 4.59296 5.21605 0
M  V30 5347 H 535.581 2.86986 3.69806 0
M  V30 5348 H 535.754 4.16938 4.96051 0
M  V30 5349 N 529.16 -1.33526 0.837174 0
M  V30 5350 C 530.388 -2.02047 0.445494 0
M  V30 5351 C 530.803 -1.62995 -0.952788 0
M  V30 5352 O 530.16 -0.842447 -1.61892 0
M  V30 5353 C 530.211 -3.57221 0.554577 0
M  V30 5354 O 529.932 -3.94863 1.89776 0
M  V30 5355 C 531.433 -4.43012 0.159634 0
M  V30 5356 H 528.653 -0.647221 0.177048 0
M  V30 5357 H 531.197 -1.70492 1.12928 0
M  V30 5358 H 529.352 -3.87315 -0.0812781 0
M  V30 5359 H 529.766 -4.89569 1.88208 0
M  V30 5360 H 531.24 -5.51253 0.28701 0
M  V30 5361 H 531.717 -4.29916 -0.898289 0
M  V30 5362 H 532.323 -4.18274 0.769855 0
M  V30 5363 N 530.638 -0.59345 -1.46 0
M  V30 5364 C 531.585 0.133618 -2.30413 0
M  V30 5365 C 532.555 0.873736 -1.41262 0
M  V30 5366 O 533.74 0.862279 -1.70204 0
M  V30 5367 C 530.88 1.13434 -3.25924 0
M  V30 5368 C 529.993 0.39656 -4.30176 0
M  V30 5369 C 529.128 1.38575 -5.12806 0
M  V30 5370 C 528.167 0.634984 -6.08797 0
M  V30 5371 N 527.304 1.57276 -6.84258 0
M  V30 5372 H 532.144 -0.592252 -2.92055 0
M  V30 5373 H 529.681 -0.303874 -1.43927 0
M  V30 5374 H 531.639 1.72752 -3.79753 0
M  V30 5375 H 530.269 1.82779 -2.66067 0
M  V30 5376 H 529.321 -0.311861 -3.79119 0
M  V30 5377 H 530.633 -0.189869 -4.98438 0
M  V30 5378 H 529.787 2.05141 -5.70966 0
M  V30 5379 H 528.526 2.00611 -4.44529 0
M  V30 5380 H 527.531 -0.0443925 -5.49782 0
M  V30 5381 H 528.756 0.0198678 -6.79097 0
M  V30 5382 H 526.702 2.18103 -6.18682 0
M  V30 5383 H 526.619 1.03941 -7.48821 0
M  V30 5384 H 527.887 2.22844 -7.46968 0
M  V30 5385 N 532.116 1.54067 -0.331816 0
M  V30 5386 C 533.046 2.27569 0.522932 0
M  V30 5387 C 534.027 1.28679 1.11247 0
M  V30 5388 O 535.212 1.57504 1.13605 0
M  V30 5389 C 532.342 3.0397 1.67987 0
M  V30 5390 C 531.296 4.10267 1.21924 0
M  V30 5391 C 530.622 4.74555 2.46377 0
M  V30 5392 C 531.922 5.21268 0.32815 0
M  V30 5393 H 533.616 2.99264 -0.0901977 0
M  V30 5394 H 531.162 1.4393 -0.044821 0
M  V30 5395 H 533.115 3.54123 2.28418 0
M  V30 5396 H 531.839 2.29906 2.31971 0
M  V30 5397 H 530.498 3.61009 0.637809 0
M  V30 5398 H 530.146 3.97098 3.08743 0
M  V30 5399 H 529.846 5.46363 2.16243 0
M  V30 5400 H 531.37 5.27487 3.07555 0
M  V30 5401 H 532.784 5.67128 0.838978 0
M  V30 5402 H 531.181 5.99982 0.119228 0
M  V30 5403 H 532.251 4.80673 -0.638839 0
M  V30 5404 N 533.594 0.0601682 1.57485 0
M  V30 5405 C 534.84 -0.612501 1.93329 0
M  V30 5406 C 535.173 -1.6996 0.939526 0
M  V30 5407 O 534.448 -1.94472 -0.0330957 0
M  V30 5408 C 534.731 -1.20025 3.39508 0
M  V30 5409 C 534.584 -0.12059 4.49638 0
M  V30 5410 C 535.903 -2.10923 3.86264 0
M  V30 5411 H 533.022 -0.221185 0.703027 0
M  V30 5412 H 535.664 0.123768 1.89596 0
M  V30 5413 H 533.814 -1.82774 3.42821 0
M  V30 5414 H 535.486 0.51185 4.58452 0
M  V30 5415 H 533.729 0.550251 4.30296 0
M  V30 5416 H 534.4 -0.572019 5.49028 0
M  V30 5417 H 536.876 -1.58124 3.84884 0
M  V30 5418 H 535.752 -2.48987 4.8918 0
M  V30 5419 H 536.013 -3.01292 3.23536 0
M  V30 5420 N 535.072 -1.5615 -0.213296 0
M  V30 5421 C 536.349 -1.70349 -0.961281 0
M  V30 5422 C 536.729 -0.609791 -2.02101 0
M  V30 5423 O 536.077 0.381987 -2.25285 0
M  V30 5424 C 536.287 -3.11982 -1.56424 0
M  V30 5425 C 537.635 -3.71649 -2.05334 0
M  V30 5426 O 538.659 -3.14995 -1.66302 0
M  V30 5427 O 537.518 -4.71038 -2.77102 0
M  V30 5428 H 534.612 -0.694121 -0.449582 0
M  V30 5429 H 537.158 -1.68464 -0.204426 0
M  V30 5430 H 535.93 -3.83046 -0.799457 0
M  V30 5431 H 535.553 -3.18019 -2.38641 0
M  V30 5432 N 536.55 0.480323 -1.50102 0
M  V30 5433 C 537.775 1.26126 -1.64642 0
M  V30 5434 C 538.2 1.85257 -0.325823 0
M  V30 5435 O 537.558 1.66854 0.709194 0
M  V30 5436 C 537.606 2.35243 -2.73301 0
M  V30 5437 O 536.71 3.39646 -2.33911 0
M  V30 5438 H 536.051 0.371463 -0.550374 0
M  V30 5439 H 538.581 0.572696 -1.96421 0
M  V30 5440 H 538.591 2.80695 -2.96098 0
M  V30 5441 H 537.266 1.91574 -3.6915 0
M  V30 5442 H 535.843 2.99969 -2.21525 0
M  V30 5443 N 538.028 1.39524 0.732853 0
M  V30 5444 C 538.975 1.38416 1.84688 0
M  V30 5445 C 539.945 0.243539 1.64305 0
M  V30 5446 O 541.13 0.438979 1.85681 0
M  V30 5447 C 538.27 1.23555 3.22224 0
M  V30 5448 C 537.383 2.47179 3.54298 0
M  V30 5449 C 536.518 2.2489 4.81246 0
M  V30 5450 C 535.557 3.44178 5.0617 0
M  V30 5451 N 534.694 3.21192 6.24323 0
M  V30 5452 H 539.534 2.33645 1.84971 0
M  V30 5453 H 537.071 1.16059 0.903804 0
M  V30 5454 H 539.029 1.12949 4.0162 0
M  V30 5455 H 537.659 0.31954 3.21215 0
M  V30 5456 H 536.711 2.68379 2.69587 0
M  V30 5457 H 538.023 3.36022 3.68633 0
M  V30 5458 H 537.177 2.11538 5.68627 0
M  V30 5459 H 535.916 1.33443 4.69089 0
M  V30 5460 H 534.921 3.58025 4.17251 0
M  V30 5461 H 536.146 4.36528 5.20212 0
M  V30 5462 H 534.092 2.32413 6.1345 0
M  V30 5463 H 534.009 4.03594 6.39256 0
M  V30 5464 H 535.277 3.1154 7.14537 0
M  V30 5465 N 539.506 -0.963266 1.24736 0
M  V30 5466 C 540.755 -1.70115 1.08369 0
M  V30 5467 C 541.068 -1.91939 -0.376688 0
M  V30 5468 O 542.274 -2.6334 -0.660624 0
M  V30 5469 C 540.73 -3.06218 1.89099 0
M  V30 5470 C 540.338 -2.92221 3.39574 0
M  V30 5471 C 542.082 -3.83848 1.81275 0
M  V30 5472 C 539.989 -4.23662 4.12631 0
M  V30 5473 H 538.919 -0.637944 0.401924 0
M  V30 5474 H 541.57 -1.07304 1.48856 0
M  V30 5475 H 539.952 -3.69884 1.41429 0
M  V30 5476 H 541.126 -2.37541 3.94856 0
M  V30 5477 H 539.441 -2.28054 3.48397 0
M  V30 5478 H 542.038 -4.81188 2.33158 0
M  V30 5479 H 542.381 -4.08949 0.778895 0
M  V30 5480 H 542.914 -3.26918 2.26649 0
M  V30 5481 H 539.653 -4.03753 5.16395 0
M  V30 5482 H 539.173 -4.78141 3.62135 0
M  V30 5483 H 540.852 -4.92256 4.19873 0
M  V30 5484 N 540.985 -1.06182 -1.16461 0
M  V30 5485 C 542.231 -0.779015 -1.87241 0
M  V30 5486 C 542.564 0.692715 -1.81425 0
M  V30 5487 O 541.839 1.5074 -1.22913 0
M  V30 5488 C 542.122 -1.2728 -3.36856 0
M  V30 5489 C 541.975 -2.80821 -3.51368 0
M  V30 5490 C 543.294 -0.879799 -4.31216 0
M  V30 5491 H 540.413 -0.284464 -0.679889 0
M  V30 5492 H 543.055 -1.31755 -1.36896 0
M  V30 5493 H 541.205 -0.814673 -3.79862 0
M  V30 5494 H 542.877 -3.34833 -3.17308 0
M  V30 5495 H 541.12 -3.19606 -2.93316 0
M  V30 5496 H 541.791 -3.10435 -4.56436 0
M  V30 5497 H 544.267 -1.27436 -3.96105 0
M  V30 5498 H 543.143 -1.25278 -5.34412 0
M  V30 5499 H 543.404 0.215372 -4.41575 0
M  V30 5500 N 542.463 1.3308 -0.844243 0
M  V30 5501 C 543.71 1.97605 -0.44255 0
M  V30 5502 C 544.038 1.66856 0.999458 0
M  V30 5503 O 543.293 0.943586 1.7145 0
M  V30 5504 C 543.592 3.52045 -0.616354 0
M  V30 5505 C 543.258 4.02757 -2.02726 0
M  V30 5506 C 541.92 4.16316 -2.41317 0
M  V30 5507 C 544.272 4.29776 -2.9486 0
M  V30 5508 C 541.6 4.54232 -3.71335 0
M  V30 5509 C 543.952 4.69146 -4.24364 0
M  V30 5510 C 542.616 4.80911 -4.62904 0
M  V30 5511 H 541.886 0.723088 -0.161941 0
M  V30 5512 H 544.533 1.58663 -1.0723 0
M  V30 5513 H 542.838 3.91681 0.0966812 0
M  V30 5514 H 544.535 3.99981 -0.285756 0
M  V30 5515 H 541.125 3.9268 -1.71756 0
M  V30 5516 H 545.309 4.18818 -2.6628 0
M  V30 5517 H 540.565 4.61535 -4.00993 0
M  V30 5518 H 544.739 4.89008 -4.95827 0
M  V30 5519 H 542.366 5.10048 -5.63698 0
M  V30 5520 N 543.941 0.601185 1.45683 0
M  V30 5521 C 545.352 0.179659 1.85834 0
M  V30 5522 C 545.703 -1.26189 1.50236 0
M  V30 5523 O 544.828 -1.95587 0.925987 0
M  V30 5524 C 545.423 0.319277 3.37292 0
M  V30 5525 C 543.982 -0.0475092 3.7637 0
M  V30 5526 C 543.129 0.646692 2.69654 0
M  V30 5527 H 546.08 0.808268 1.36575 0
M  V30 5528 H 546.101 -0.4503 3.77826 0
M  V30 5529 H 545.613 1.36855 3.6317 0
M  V30 5530 H 543.714 -1.0962 3.5611 0
M  V30 5531 H 543.827 0.34168 4.7788 0
M  V30 5532 H 542.191 0.0849971 2.54558 0
M  V30 5533 H 542.974 1.69797 2.98369 0
M  V30 5534 N 545.419 -1.53889 0.339982 0
M  V30 5535 C 546.369 -2.2165 -0.534354 0
M  V30 5536 C 547.353 -1.20266 -1.06887 0
M  V30 5537 O 548.545 -1.45827 -1.00316 0
M  V30 5538 C 545.674 -2.99014 -1.68659 0
M  V30 5539 C 544.76 -4.07751 -1.16618 0
M  V30 5540 N 545.151 -5.04469 -0.366717 0
M  V30 5541 C 543.449 -4.21998 -1.4434 0
M  V30 5542 C 544.15 -5.81638 -0.0847275 0
M  V30 5543 N 543.126 -5.39388 -0.675391 0
M  V30 5544 H 546.928 -2.93781 0.0835562 0
M  V30 5545 H 544.442 -1.61736 0.146665 0
M  V30 5546 H 546.439 -3.46056 -2.32489 0
M  V30 5547 H 545.099 -2.28408 -2.30781 0
M  V30 5548 H 546.11 -5.17899 -0.00811038 0
M  V30 5549 H 542.787 -3.62612 -2.06928 0
M  V30 5550 H 544.177 -6.69563 0.559943 0
M  V30 5551 N 546.897 -0.0685191 -1.57451 0
M  V30 5552 C 548.145 0.60016 -1.92983 0
M  V30 5553 C 548.466 1.70348 -0.949028 0
M  V30 5554 O 547.736 1.959 0.00335647 0
M  V30 5555 H 546.316 0.224682 -0.712409 0
M  V30 5556 H 548.978 -0.125605 -1.94495 0
M  V30 5557 H 548.074 1.02759 -2.94698 0
M  V30 5558 N 548.375 1.56261 0.205012 0
M  V30 5559 C 549.624 1.79236 0.925058 0
M  V30 5560 C 549.937 0.640011 1.84833 0
M  V30 5561 O 551.143 0.753809 2.60826 0
M  V30 5562 C 549.599 3.17475 1.69522 0
M  V30 5563 C 549.207 4.40482 0.817269 0
M  V30 5564 C 550.951 3.49766 2.4055 0
M  V30 5565 C 548.858 5.69744 1.58573 0
M  V30 5566 H 547.788 0.668287 0.349153 0
M  V30 5567 H 550.439 1.82629 0.178544 0
M  V30 5568 H 548.821 3.08304 2.48526 0
M  V30 5569 H 549.995 4.60752 0.0665988 0
M  V30 5570 H 548.31 4.15827 0.218316 0
M  V30 5571 H 550.907 4.43573 2.98575 0
M  V30 5572 H 551.25 2.73041 3.14252 0
M  V30 5573 H 551.783 3.60341 1.68522 0
M  V30 5574 H 548.522 6.49407 0.891679 0
M  V30 5575 H 548.042 5.53509 2.31059 0
M  V30 5576 H 549.721 6.1051 2.14212 0
M  V30 5577 N 549.853 -0.472356 1.50355 0
M  V30 5578 C 551.081 -1.24784 1.65035 0
M  V30 5579 C 551.496 -1.85837 0.333176 0
M  V30 5580 O 550.853 -1.69168 -0.68472 0
M  V30 5581 C 550.904 -2.35747 2.74054 0
M  V30 5582 O 550.625 -1.77197 4.00665 0
M  V30 5583 C 552.126 -3.26645 2.99696 0
M  V30 5584 H 549.346 -0.377432 0.554785 0
M  V30 5585 H 551.89 -0.563962 1.9657 0
M  V30 5586 H 550.045 -2.99912 2.45217 0
M  V30 5587 H 550.459 -2.5026 4.60945 0
M  V30 5588 H 551.933 -4.00718 3.79644 0
M  V30 5589 H 552.41 -3.8535 2.10718 0
M  V30 5590 H 553.016 -2.68218 3.3006 0
M  V30 5591 N 551.331 -1.39911 -0.725443 0
M  V30 5592 C 552.261 -1.42138 -1.85254 0
M  V30 5593 C 553.242 -0.283513 -1.67721 0
M  V30 5594 O 554.427 -0.490717 -1.87898 0
M  V30 5595 C 551.557 -1.27354 -3.23107 0
M  V30 5596 C 550.511 -2.3864 -3.55296 0
M  V30 5597 C 549.837 -2.08939 -4.92188 0
M  V30 5598 C 551.137 -3.8097 -3.57295 0
M  V30 5599 H 552.831 -2.36461 -1.83648 0
M  V30 5600 H 550.377 -1.13817 -0.882138 0
M  V30 5601 H 552.33 -1.2753 -4.01639 0
M  V30 5602 H 551.054 -0.295025 -3.25265 0
M  V30 5603 H 549.713 -2.37696 -2.79099 0
M  V30 5604 H 549.361 -1.09502 -4.90936 0
M  V30 5605 H 549.061 -2.83491 -5.14691 0
M  V30 5606 H 550.585 -2.10781 -5.73065 0
M  V30 5607 H 551.999 -3.8379 -4.25885 0
M  V30 5608 H 550.396 -4.5496 -3.9132 0
M  V30 5609 H 551.466 -4.11261 -2.5689 0
M  V30 5610 N 552.809 0.956637 -1.25245 0
M  V30 5611 C 554.086 1.67716 -1.00651 0
M  V30 5612 C 554.466 2.0585 0.467866 0
M  V30 5613 O 553.814 1.77029 1.44475 0
M  V30 5614 C 554.024 2.90093 -1.94028 0
M  V30 5615 C 555.372 3.6209 -2.21756 0
M  V30 5616 O 556.396 3.00171 -1.9177 0
M  V30 5617 O 555.255 4.7358 -2.72735 0
M  V30 5618 H 552.349 0.733731 -0.381533 0
M  V30 5619 H 554.895 1.00974 -1.3639 0
M  V30 5620 H 553.667 2.58689 -2.93591 0
M  V30 5621 H 553.29 3.64566 -1.58674 0
M  V30 5622 N 554.287 1.06798 1.15896 0
M  V30 5623 C 555.217 0.704677 2.22613 0
M  V30 5624 C 556.198 -0.305252 1.67339 0
M  V30 5625 O 557.383 -0.179247 1.93371 0
M  V30 5626 C 554.513 0.0957325 3.47168 0
M  V30 5627 C 553.467 1.0322 4.15367 0
M  V30 5628 C 552.793 0.286293 5.33933 0
M  V30 5629 C 554.093 2.36341 4.65768 0
M  V30 5630 H 555.787 1.59688 2.53259 0
M  V30 5631 H 553.333 0.769257 1.21731 0
M  V30 5632 H 555.286 -0.170333 4.21056 0
M  V30 5633 H 554.01 -0.831516 3.15838 0
M  V30 5634 H 552.669 1.28309 3.43413 0
M  V30 5635 H 552.317 -0.644237 4.98857 0
M  V30 5636 H 552.017 0.910436 5.80504 0
M  V30 5637 H 553.541 0.0278938 6.10594 0
M  V30 5638 H 554.955 2.1561 5.31211 0
M  V30 5639 H 553.352 2.94299 5.2298 0
M  V30 5640 H 554.422 2.99047 3.81705 0
M  V30 5641 N 555.766 -1.3263 0.851289 0
M  V30 5642 C 557.012 -1.9766 0.453694 0
M  V30 5643 C 557.345 -1.67225 -0.987396 0
M  V30 5644 O 556.62 -0.958693 -1.69232 0
M  V30 5645 C 556.903 -3.5344 0.68936 0
M  V30 5646 C 556.756 -3.93517 2.17862 0
M  V30 5647 C 558.075 -4.39866 0.143555 0
M  V30 5648 H 555.194 -0.717989 0.166314 0
M  V30 5649 H 557.836 -1.57068 1.06909 0
M  V30 5650 H 555.986 -3.88147 0.165546 0
M  V30 5651 H 557.658 -3.69006 2.76826 0
M  V30 5652 H 555.901 -3.42798 2.65841 0
M  V30 5653 H 556.572 -5.02065 2.29422 0
M  V30 5654 H 559.048 -4.11875 0.591451 0
M  V30 5655 H 557.924 -5.47858 0.338043 0
M  V30 5656 H 558.185 -4.31696 -0.953466 0
M  V30 5657 N 557.244 -0.608902 -1.45362 0
M  V30 5658 C 558.469 -0.10921 -2.07112 0
M  V30 5659 C 558.894 1.19779 -1.45033 0
M  V30 5660 O 558.252 1.72961 -0.543527 0
M  V30 5661 C 558.3 0.0155745 -3.60597 0
M  V30 5662 O 557.404 1.06546 -3.98399 0
M  V30 5663 H 556.745 -0.0746619 -0.659789 0
M  V30 5664 H 559.275 -0.839283 -1.86594 0
M  V30 5665 H 559.285 0.213364 -4.07442 0
M  V30 5666 H 557.96 -0.938765 -4.05167 0
M  V30 5667 H 556.537 0.844024 -3.63223 0
M  V30 5668 N 558.722 1.53707 -0.348139 0
M  V30 5669 C 560.138 1.596 0.00361134 0
M  V30 5670 C 560.338 1.36394 1.4832 0
M  V30 5671 O 559.394 1.16046 2.24253 0
M  V30 5672 C 560.707 2.97512 -0.436682 0
M  V30 5673 C 562.255 3.10568 -0.389416 0
M  V30 5674 C 562.73 4.50866 -0.805249 0
M  V30 5675 N 564.221 4.56929 -0.759616 0
M  V30 5676 C 564.956 5.63643 -1.05327 0
M  V30 5677 N 564.452 6.78189 -1.41531 0
M  V30 5678 N 566.245 5.5354 -0.977207 0
M  V30 5679 H 558.396 1.67044 -1.31187 0
M  V30 5680 H 560.659 0.782559 -0.535075 0
M  V30 5681 H 560.365 3.19575 -1.46849 0
M  V30 5682 H 560.239 3.76742 0.185744 0
M  V30 5683 H 562.626 2.88226 0.633228 0
M  V30 5684 H 562.707 2.33387 -1.04711 0
M  V30 5685 H 562.351 4.73943 -1.82593 0
M  V30 5686 H 562.281 5.26452 -0.124989 0
M  V30 5687 H 564.772 3.74675 -0.49265 0
M  V30 5688 H 565.085 7.55541 -1.62411 0
M  V30 5689 H 563.43 6.79624 -1.45381 0
M  V30 5690 H 566.621 4.62932 -0.693675 0
M  V30 5691 H 566.794 6.36614 -1.2094 0
M  V30 5692 N 560.2 0.0768682 1.57412 0
M  V30 5693 C 561.13 -0.886026 2.16037 0
M  V30 5694 C 562.111 -1.30691 1.08876 0
M  V30 5695 O 563.296 -1.37705 1.36934 0
M  V30 5696 C 560.426 -2.1518 2.72608 0
M  V30 5697 C 559.38 -1.87015 3.8498 0
M  V30 5698 C 558.706 -3.20266 4.28175 0
M  V30 5699 C 560.006 -1.17143 5.08994 0
M  V30 5700 H 561.7 -0.397642 2.96748 0
M  V30 5701 H 559.246 -0.189823 1.42743 0
M  V30 5702 H 561.199 -2.82962 3.12266 0
M  V30 5703 H 559.923 -2.66269 1.89125 0
M  V30 5704 H 558.582 -1.21636 3.45833 0
M  V30 5705 H 558.23 -3.69207 3.41607 0
M  V30 5706 H 557.93 -3.0221 5.03927 0
M  V30 5707 H 559.454 -3.89237 4.70454 0
M  V30 5708 H 560.868 -1.75003 5.45937 0
M  V30 5709 H 559.265 -1.09328 5.90057 0
M  V30 5710 H 560.335 -0.151295 4.84664 0
M  V30 5711 N 561.678 -1.56367 -0.196722 0
M  V30 5712 C 562.924 -1.80796 -0.918725 0
M  V30 5713 C 563.257 -0.650645 -1.82976 0
M  V30 5714 O 562.532 0.348889 -1.91345 0
M  V30 5715 C 562.815 -3.15472 -1.73636 0
M  V30 5716 C 562.668 -4.41693 -0.85015 0
M  V30 5717 C 563.987 -3.46824 -2.70927 0
M  V30 5718 H 561.106 -0.657702 -0.332561 0
M  V30 5719 H 563.748 -1.89086 -0.186186 0
M  V30 5720 H 561.898 -3.08536 -2.36088 0
M  V30 5721 H 563.57 -4.60673 -0.240459 0
M  V30 5722 H 561.813 -4.33517 -0.156785 0
M  V30 5723 H 562.484 -5.32419 -1.45719 0
M  V30 5724 H 564.96 -3.54049 -2.18607 0
M  V30 5725 H 563.836 -4.4218 -3.25219 0
M  V30 5726 H 564.097 -2.70236 -3.49893 0
M  V30 5727 N 563.156 0.464375 -1.50603 0
M  V30 5728 C 564.386 1.23727 -1.65454 0
M  V30 5729 C 564.794 1.86119 -0.340032 0
M  V30 5730 O 564.137 1.70301 0.688706 0
M  V30 5731 C 564.199 2.38153 -2.69301 0
M  V30 5732 C 563.863 1.96345 -4.12671 0
M  V30 5733 C 564.86 1.48215 -4.98326 0
M  V30 5734 C 562.545 2.04861 -4.58625 0
M  V30 5735 C 564.539 1.09152 -6.27985 0
M  V30 5736 C 562.226 1.65409 -5.88288 0
M  V30 5737 C 563.224 1.17634 -6.72794 0
M  V30 5738 O 562.912 0.787312 -8.00035 0
M  V30 5739 H 562.644 0.380075 -0.559034 0
M  V30 5740 H 565.198 0.559919 -1.97621 0
M  V30 5741 H 563.428 3.09081 -2.32392 0
M  V30 5742 H 565.117 3.00099 -2.73304 0
M  V30 5743 H 565.883 1.41052 -4.64036 0
M  V30 5744 H 561.762 2.40996 -3.92991 0
M  V30 5745 H 565.306 0.717909 -6.93896 0
M  V30 5746 H 561.203 1.72233 -6.22098 0
M  V30 5747 H 561.971 0.915567 -8.13363 0
M  V30 5748 N 564.634 1.40294 0.718013 0
M  V30 5749 C 565.88 1.39648 1.47885 0
M  V30 5750 C 566.235 -0.0023879 1.924 0
M  V30 5751 O 565.528 -0.972304 1.65096 0
M  V30 5752 C 565.722 2.31814 2.72024 0
M  V30 5753 C 565.551 3.80523 2.3965 0
M  V30 5754 C 564.321 4.49351 2.3111 0
M  V30 5755 C 566.519 4.72077 2.04079 0
M  V30 5756 N 564.501 5.83305 1.91385 0
M  V30 5757 C 565.872 5.94809 1.74935 0
M  V30 5758 C 567.927 4.59935 1.90694 0
M  V30 5759 C 566.63 7.06755 1.33753 0
M  V30 5760 C 568.656 5.7182 1.50915 0
M  V30 5761 C 568.018 6.93637 1.22668 0
M  V30 5762 H 564.117 0.566263 0.539324 0
M  V30 5763 H 566.701 1.75986 0.832891 0
M  V30 5764 H 564.872 1.97607 3.34374 0
M  V30 5765 H 566.604 2.22042 3.38348 0
M  V30 5766 H 563.359 4.03002 2.4877 0
M  V30 5767 H 563.783 6.54239 1.74068 0
M  V30 5768 H 568.425 3.66274 2.11194 0
M  V30 5769 H 566.143 8.00302 1.11995 0
M  V30 5770 H 569.729 5.64421 1.4114 0
M  V30 5771 H 568.609 7.78743 0.923502 0
M  V30 5772 N 566.112 -0.949982 1.2575 0
M  V30 5773 C 567.075 -2.02894 1.06615 0
M  V30 5774 C 568.075 -1.60791 0.0173905 0
M  V30 5775 O 569.265 -1.72249 0.260003 0
M  V30 5776 C 566.397 -3.35219 0.619751 0
M  V30 5777 H 567.59 -2.21302 2.02399 0
M  V30 5778 H 565.143 -1.12772 1.08223 0
M  V30 5779 H 565.878 -3.22508 -0.340486 0
M  V30 5780 H 565.663 -3.67129 1.37692 0
M  V30 5781 H 567.153 -4.14505 0.507443 0
M  V30 5782 N 567.59 -1.07411 -1.15328 0
M  V30 5783 C 568.867 -0.710732 -1.82231 0
M  V30 5784 C 569.247 0.806732 -1.95077 0
M  V30 5785 O 568.595 1.72139 -1.50268 0
M  V30 5786 C 568.805 -1.42586 -3.18544 0
M  V30 5787 C 570.153 -1.57836 -3.94174 0
M  V30 5788 O 571.177 -1.38669 -3.281 0
M  V30 5789 O 570.036 -1.8938 -5.12638 0
M  V30 5790 H 567.13 -0.25297 -0.78736 0
M  V30 5791 H 569.676 -1.17508 -1.22434 0
M  V30 5792 H 568.448 -2.46008 -3.04296 0
M  V30 5793 H 568.071 -0.952332 -3.86026 0
M  V30 5794 N 569.068 1.32177 -0.85831 0
M  V30 5795 C 570.031 2.27086 -0.310588 0
M  V30 5796 C 571.031 1.51751 0.531806 0
M  V30 5797 O 572.221 1.70794 0.34279 0
M  V30 5798 C 569.353 3.36266 0.560179 0
M  V30 5799 H 570.546 2.77045 -1.1483 0
M  V30 5800 H 568.099 1.42911 -0.632942 0
M  V30 5801 H 568.834 2.9158 1.41956 0
M  V30 5802 H 568.619 3.92077 -0.0428473 0
M  V30 5803 H 570.109 4.06974 0.936056 0
M  V30 5804 N 570.547 0.616602 1.45037 0
M  V30 5805 C 571.777 0.121791 2.06241 0
M  V30 5806 C 572.185 -1.20289 1.46038 0
M  V30 5807 O 571.528 -1.7456 0.572242 0
M  V30 5808 C 571.59 -0.0827345 3.59405 0
M  V30 5809 C 571.254 1.16153 4.41993 0
M  V30 5810 C 572.251 2.08183 4.76399 0
M  V30 5811 C 569.936 1.39288 4.82601 0
M  V30 5812 C 571.93 3.21668 5.5028 0
M  V30 5813 C 569.617 2.53073 5.56235 0
M  V30 5814 C 570.615 3.44091 5.89992 0
M  V30 5815 O 570.303 4.55894 6.6213 0
M  V30 5816 H 570.035 0.0701667 0.672349 0
M  V30 5817 H 572.589 0.846877 1.87129 0
M  V30 5818 H 570.819 -0.862812 3.76952 0
M  V30 5819 H 572.508 -0.530273 4.02421 0
M  V30 5820 H 573.274 1.91538 4.45576 0
M  V30 5821 H 569.153 0.693396 4.55755 0
M  V30 5822 H 572.697 3.92733 5.76547 0
M  V30 5823 H 568.594 2.69667 5.86472 0
M  V30 5824 H 569.362 4.5469 6.80587 0
M  V30 5825 N 572.025 -1.5352 0.356285 0
M  V30 5826 C 572.955 -2.28372 -0.486661 0
M  V30 5827 C 573.936 -1.30432 -1.09185 0
M  V30 5828 O 575.121 -1.59291 -1.11085 0
M  V30 5829 C 572.251 -3.06604 -1.63129 0
M  V30 5830 C 571.205 -4.12154 -1.15381 0
M  V30 5831 C 570.531 -4.78415 -2.38796 0
M  V30 5832 C 571.831 -5.21724 -0.245179 0
M  V30 5833 H 573.525 -2.99083 0.137797 0
M  V30 5834 H 571.071 -1.43841 0.0677134 0
M  V30 5835 H 573.024 -3.57712 -2.22755 0
M  V30 5836 H 571.748 -2.33568 -2.28284 0
M  V30 5837 H 570.407 -3.61978 -0.580294 0
M  V30 5838 H 570.055 -4.01959 -3.02387 0
M  V30 5839 H 569.755 -5.49734 -2.07524 0
M  V30 5840 H 571.279 -5.32313 -2.99125 0
M  V30 5841 H 572.693 -5.68391 -0.748646 0
M  V30 5842 H 571.09 -6.00095 -0.0237608 0
M  V30 5843 H 572.16 -4.79596 0.715229 0
M  V30 5844 N 573.503 -0.0852151 -1.57369 0
M  V30 5845 C 574.78 0.622534 -1.85429 0
M  V30 5846 C 575.16 1.86962 -0.980229 0
M  V30 5847 O 574.508 2.28445 -0.0500219 0
M  V30 5848 C 574.718 0.947374 -3.35896 0
M  V30 5849 C 576.066 1.31509 -4.03721 0
M  V30 5850 O 577.09 1.03869 -3.40719 0
M  V30 5851 O 575.949 1.83231 -5.14868 0
M  V30 5852 H 573.043 0.310513 -0.766492 0
M  V30 5853 H 575.589 -0.117164 -1.69295 0
M  V30 5854 H 574.361 0.0622264 -3.91251 0
M  V30 5855 H 573.984 1.74338 -3.5734 0
M  V30 5856 N 574.981 1.5647 0.188427 0
M  V30 5857 C 576.211 1.84863 0.922463 0
M  V30 5858 C 576.619 0.666413 1.77075 0
M  V30 5859 O 575.962 -0.374044 1.79852 0
M  V30 5860 C 576.024 3.07447 1.86324 0
M  V30 5861 C 575.688 4.41066 1.19625 0
M  V30 5862 C 576.685 5.16767 0.569946 0
M  V30 5863 C 574.37 4.87802 1.19811 0
M  V30 5864 C 576.364 6.37384 -0.045594 0
M  V30 5865 C 574.051 6.08353 0.57874 0
M  V30 5866 C 575.049 6.82987 -0.0420259 0
M  V30 5867 O 574.737 8.01254 -0.651675 0
M  V30 5868 H 574.469 0.61784 0.274316 0
M  V30 5869 H 577.023 2.04437 0.198613 0
M  V30 5870 H 575.253 2.83774 2.62696 0
M  V30 5871 H 576.942 3.2243 2.46564 0
M  V30 5872 H 577.708 4.81749 0.560601 0
M  V30 5873 H 573.587 4.29662 1.67069 0
M  V30 5874 H 577.131 6.95578 -0.530731 0
M  V30 5875 H 573.028 6.42838 0.58561 0
M  V30 5876 H 573.796 8.16655 -0.549236 0
M  V30 5877 N 576.459 -0.456382 1.50847 0
M  V30 5878 C 577.708 -1.2042 1.61808 0
M  V30 5879 C 578.021 -1.9278 0.330932 0
M  V30 5880 O 579.227 -2.69612 0.319643 0
M  V30 5881 C 577.683 -2.18891 2.85683 0
M  V30 5882 C 577.291 -1.52267 4.2133 0
M  V30 5883 C 579.035 -2.94224 3.05994 0
M  V30 5884 C 576.942 -2.4911 5.36375 0
M  V30 5885 H 575.872 -0.453177 0.602616 0
M  V30 5886 H 578.523 -0.473144 1.77295 0
M  V30 5887 H 576.905 -2.95351 2.63787 0
M  V30 5888 H 578.079 -0.814949 4.53536 0
M  V30 5889 H 576.394 -0.891594 4.06743 0
M  V30 5890 H 578.991 -3.66732 3.89117 0
M  V30 5891 H 579.334 -3.54469 2.18306 0
M  V30 5892 H 579.867 -2.24874 3.28141 0
M  V30 5893 H 576.606 -1.93582 6.26264 0
M  V30 5894 H 576.126 -3.17991 5.08569 0
M  V30 5895 H 577.805 -3.10637 5.67551 0
M  V30 5896 N 577.937 -1.40673 -0.710563 0
M  V30 5897 C 578.847 -1.43663 -1.85467 0
M  V30 5898 C 579.863 -0.328721 -1.70867 0
M  V30 5899 O 581.039 -0.574098 -1.93044 0
M  V30 5900 C 578.104 -1.30226 -3.21313 0
M  V30 5901 C 577.165 -2.51204 -3.48131 0
M  V30 5902 C 576.398 -2.38398 -4.77495 0
M  V30 5903 O 576.621 -1.40048 -5.5294 0
M  V30 5904 O 575.555 -3.2787 -5.04762 0
M  V30 5905 H 579.381 -2.40156 -1.859 0
M  V30 5906 H 576.966 -1.22049 -0.861652 0
M  V30 5907 H 578.848 -1.2496 -4.02446 0
M  V30 5908 H 577.523 -0.368419 -3.21597 0
M  V30 5909 H 576.43 -2.62048 -2.66987 0
M  V30 5910 H 577.763 -3.43366 -3.52648 0
M  V30 5911 N 579.415 0.9433 -1.26252 0
M  V30 5912 C 580.661 1.69175 -1.11837 0
M  V30 5913 C 580.994 1.91238 0.337891 0
M  V30 5914 O 580.269 1.49152 1.24836 0
M  V30 5915 C 580.552 3.06783 -1.88563 0
M  V30 5916 C 580.405 2.9206 -3.42083 0
M  V30 5917 C 581.724 4.06865 -1.67776 0
M  V30 5918 H 578.843 0.61399 -0.407658 0
M  V30 5919 H 581.485 1.09572 -1.55222 0
M  V30 5920 H 579.635 3.57663 -1.51689 0
M  V30 5921 H 581.307 2.48419 -3.88698 0
M  V30 5922 H 579.55 2.27731 -3.69217 0
M  V30 5923 H 580.221 3.89651 -3.90994 0
M  V30 5924 H 582.697 3.64939 -1.99897 0
M  V30 5925 H 581.573 5.01168 -2.23879 0
M  V30 5926 H 581.834 4.37705 -0.621816 0
M  V30 5927 N 580.893 1.08022 1.14757 0
M  V30 5928 C 582.139 0.808705 1.85978 0
M  V30 5929 C 582.472 -0.663764 1.82504 0
M  V30 5930 O 581.747 -1.48765 1.25296 0
M  V30 5931 C 582.03 1.32623 3.34788 0
M  V30 5932 C 581.883 2.86375 3.46856 0
M  V30 5933 C 583.202 0.948291 4.29762 0
M  V30 5934 H 580.321 0.295244 0.675278 0
M  V30 5935 H 582.963 1.33917 1.34783 0
M  V30 5936 H 581.113 0.875002 3.78518 0
M  V30 5937 H 582.785 3.39839 3.11941 0
M  V30 5938 H 581.028 3.24232 2.88194 0
M  V30 5939 H 581.699 3.17658 4.51439 0
M  V30 5940 H 584.175 1.33722 3.94028 0
M  V30 5941 H 583.051 1.33765 5.32352 0
M  V30 5942 H 583.312 -0.145094 4.41862 0
M  V30 5943 N 582.371 -1.3172 0.865308 0
M  V30 5944 C 583.648 -1.91574 0.394789 0
M  V30 5945 C 584.028 -1.78769 -1.12271 0
M  V30 5946 O 583.376 -1.19245 -1.94918 0
M  V30 5947 C 583.586 -3.37957 0.870982 0
M  V30 5948 C 584.934 -4.15073 0.894384 0
M  V30 5949 O 585.958 -3.4672 0.816325 0
M  V30 5950 O 584.817 -5.37151 1.00651 0
M  V30 5951 H 581.911 -0.818649 0.117229 0
M  V30 5952 H 584.457 -1.4042 0.952913 0
M  V30 5953 H 583.229 -3.41269 1.91444 0
M  V30 5954 H 582.852 -3.96534 0.290907 0
M  V30 5955 N 583.85 -0.624285 -1.44708 0
M  V30 5956 C 585.08 -0.132726 -2.06173 0
M  V30 5957 C 585.488 1.19513 -1.46674 0
M  V30 5958 O 584.831 1.74254 -0.581491 0
M  V30 5959 C 584.893 0.0636732 -3.59444 0
M  V30 5960 C 584.557 -1.18496 -4.4137 0
M  V30 5961 C 585.553 -2.10706 -4.75288 0
M  V30 5962 C 583.239 -1.41846 -4.81856 0
M  V30 5963 C 585.233 -3.24582 -5.48567 0
M  V30 5964 C 582.92 -2.5602 -5.54885 0
M  V30 5965 C 583.918 -3.47215 -5.88159 0
M  V30 5966 O 583.606 -4.59399 -6.59703 0
M  V30 5967 H 583.338 -0.0737313 -0.671967 0
M  V30 5968 H 585.892 -0.856789 -1.86677 0
M  V30 5969 H 584.122 0.842809 -3.77404 0
M  V30 5970 H 585.811 0.508924 -4.02697 0
M  V30 5971 H 586.577 -1.93898 -4.44554 0
M  V30 5972 H 582.456 -0.717556 -4.55381 0
M  V30 5973 H 586 -3.95785 -5.74456 0
M  V30 5974 H 581.897 -2.72774 -5.85034 0
M  V30 5975 H 582.665 -4.58293 -6.78166 0
M  V30 5976 N 585.328 1.53329 -0.364422 0
M  V30 5977 C 586.238 2.29414 0.490552 0
M  V30 5978 C 587.254 1.35335 1.09363 0
M  V30 5979 O 588.43 1.68391 1.10483 0
M  V30 5980 C 585.495 3.06772 1.61529 0
M  V30 5981 C 584.556 4.16516 1.03986 0
M  V30 5982 C 583.789 4.90176 2.111 0
M  V30 5983 O 584.012 4.63687 3.32191 0
M  V30 5984 O 582.946 5.76134 1.74222 0
M  V30 5985 H 586.772 3.03428 -0.12856 0
M  V30 5986 H 584.357 1.48843 -0.128837 0
M  V30 5987 H 586.239 3.55082 2.26924 0
M  V30 5988 H 584.914 2.35596 2.21983 0
M  V30 5989 H 583.821 3.7246 0.349856 0
M  V30 5990 H 585.154 4.89855 0.4799 0
M  V30 5991 N 586.806 0.0935595 1.57322 0
M  V30 5992 C 588.054 -0.569383 1.93913 0
M  V30 5993 C 588.375 -1.68817 0.976009 0
M  V30 5994 O 587.645 -1.9588 0.0278099 0
M  V30 5995 H 586.225 -0.21332 0.715894 0
M  V30 5996 H 588.887 0.156531 1.9427 0
M  V30 5997 H 587.983 -0.980577 2.96296 0
M  V30 5998 N 588.284 -1.56567 -0.180126 0
M  V30 5999 C 589.231 -1.95725 -1.22313 0
M  V30 6000 C 590.201 -0.819911 -1.44453 0
M  V30 6001 O 591.386 -1.07931 -1.57339 0
M  V30 6002 C 588.526 -2.31484 -2.55947 0
M  V30 6003 C 587.639 -3.58354 -2.4126 0
M  V30 6004 C 586.774 -3.83366 -3.67701 0
M  V30 6005 C 585.813 -5.03612 -3.47909 0
M  V30 6006 N 584.95 -5.24802 -4.66398 0
M  V30 6007 H 589.79 -2.84642 -0.882198 0
M  V30 6008 H 587.327 -1.4085 -0.42422 0
M  V30 6009 H 589.285 -2.50237 -3.33822 0
M  V30 6010 H 587.915 -1.45689 -2.88053 0
M  V30 6011 H 586.967 -3.47565 -1.54606 0
M  V30 6012 H 588.279 -4.46386 -2.22577 0
M  V30 6013 H 587.433 -4.02439 -4.54013 0
M  V30 6014 H 586.172 -2.93692 -3.89353 0
M  V30 6015 H 585.177 -4.84447 -2.59983 0
M  V30 6016 H 586.402 -5.94809 -3.27688 0
M  V30 6017 H 584.348 -4.38079 -4.88286 0
M  V30 6018 H 584.265 -6.07041 -4.50596 0
M  V30 6019 H 585.533 -5.48346 -5.54019 0
M  V30 6020 N 589.762 0.448376 -1.51087 0
M  V30 6021 C 591.01 1.19635 -1.62886 0
M  V30 6022 C 591.331 1.91977 -0.342024 0
M  V30 6023 O 590.601 1.85094 0.641636 0
M  V30 6024 H 589.181 0.444598 -0.600285 0
M  V30 6025 H 591.843 0.515138 -1.87969 0
M  V30 6026 H 590.939 1.93194 -2.45117 0
M  V30 6027 N 591.24 1.41047 0.703093 0
M  V30 6028 C 592.656 1.23351 1.01275 0
M  V30 6029 C 592.856 0.11754 2.01157 0
M  V30 6030 O 591.912 -0.520518 2.47077 0
M  V30 6031 C 593.225 2.58001 1.54454 0
M  V30 6032 C 594.773 2.65119 1.66376 0
M  V30 6033 C 595.248 4.00067 2.22958 0
M  V30 6034 N 596.739 4.01875 2.30328 0
M  V30 6035 C 597.474 5.03087 2.75119 0
M  V30 6036 N 596.97 6.14692 3.19571 0
M  V30 6037 N 598.763 4.90451 2.74616 0
M  V30 6038 H 590.914 2.1236 0.0412686 0
M  V30 6039 H 593.177 0.944543 0.08089 0
M  V30 6040 H 592.883 3.40378 0.88521 0
M  V30 6041 H 592.757 2.79962 2.52786 0
M  V30 6042 H 595.144 1.83106 2.31422 0
M  V30 6043 H 595.225 2.46975 0.666089 0
M  V30 6044 H 594.869 4.82526 1.58529 0
M  V30 6045 H 594.799 4.15547 3.23462 0
M  V30 6046 H 597.29 3.21291 1.98949 0
M  V30 6047 H 597.603 6.87799 3.52352 0
M  V30 6048 H 595.948 6.18239 3.17498 0
M  V30 6049 H 599.139 4.0235 2.39233 0
M  V30 6050 H 599.312 5.6947 3.09206 0
M  V30 6051 N 592.718 -0.936591 1.26751 0
M  V30 6052 C 593.65 -2.03991 1.045 0
M  V30 6053 C 594.663 -1.628 0.00394261 0
M  V30 6054 O 595.852 -1.76817 0.244526 0
M  V30 6055 C 592.952 -3.34218 0.561403 0
M  V30 6056 C 592.125 -4.04151 1.67274 0
M  V30 6057 C 591.184 -5.12651 1.1864 0
M  V30 6058 O 590.21 -5.37104 1.88437 0
M  V30 6059 N 591.412 -5.80488 0.037278 0
M  V30 6060 H 594.177 -2.23644 1.99508 0
M  V30 6061 H 591.738 -1.10638 1.18198 0
M  V30 6062 H 593.73 -4.04101 0.220136 0
M  V30 6063 H 592.3 -3.11203 -0.295211 0
M  V30 6064 H 591.52 -3.28121 2.18472 0
M  V30 6065 H 592.808 -4.47626 2.41885 0
M  V30 6066 H 592.206 -5.63064 -0.545494 0
M  V30 6067 H 590.763 -6.5134 -0.244877 0
M  V30 6068 N 594.196 -1.08629 -1.14182 0
M  V30 6069 C 595.424 -0.838889 -1.8913 0
M  V30 6070 C 595.839 0.609153 -1.78703 0
M  V30 6071 O 595.196 1.41876 -1.14794 0
M  V30 6072 C 595.247 -1.25477 -3.39025 0
M  V30 6073 O 594.968 -2.64601 -3.49167 0
M  V30 6074 C 596.469 -1.03856 -4.30963 0
M  V30 6075 H 593.689 -0.302377 -0.599007 0
M  V30 6076 H 596.233 -1.44615 -1.44592 0
M  V30 6077 H 594.388 -0.691571 -3.81177 0
M  V30 6078 H 594.802 -2.81922 -4.42289 0
M  V30 6079 H 596.276 -1.37892 -5.345 0
M  V30 6080 H 596.753 0.0242522 -4.39193 0
M  V30 6081 H 597.359 -1.58731 -3.94569 0
M  V30 6082 N 595.674 1.31259 -0.872281 0
M  V30 6083 C 596.923 1.95893 -0.480493 0
M  V30 6084 C 597.236 1.697 0.972688 0
M  V30 6085 O 598.442 2.28214 1.47073 0
M  V30 6086 C 596.898 3.50705 -0.808342 0
M  V30 6087 C 596.506 3.85735 -2.27844 0
M  V30 6088 C 598.25 4.21719 -0.485136 0
M  V30 6089 C 596.157 5.33668 -2.54858 0
M  V30 6090 H 595.087 0.733182 -0.175955 0
M  V30 6091 H 597.738 1.49396 -1.0655 0
M  V30 6092 H 596.12 3.95706 -0.152558 0
M  V30 6093 H 597.294 3.51686 -2.97748 0
M  V30 6094 H 595.609 3.27792 -2.56791 0
M  V30 6095 H 598.206 5.30559 -0.664166 0
M  V30 6096 H 598.549 4.12316 0.574592 0
M  V30 6097 H 599.082 3.82359 -1.09756 0
M  V30 6098 H 595.821 5.48109 -3.59523 0
M  V30 6099 H 595.341 5.69061 -1.8955 0
M  V30 6100 H 597.02 6.00958 -2.39706 0
M  V30 6101 N 597.152 0.631951 1.44375 0
M  V30 6102 C 598.401 0.134214 2.01253 0
M  V30 6103 C 598.714 -1.25171 1.50305 0
M  V30 6104 O 599.92 -1.8435 1.99317 0
M  V30 6105 C 598.376 0.189187 3.59402 0
M  V30 6106 C 597.984 1.57647 4.19346 0
M  V30 6107 C 599.728 -0.252044 4.23751 0
M  V30 6108 C 597.635 1.58651 5.69722 0
M  V30 6109 H 596.565 0.0464101 0.75257 0
M  V30 6110 H 599.216 0.790868 1.65582 0
M  V30 6111 H 597.598 -0.534584 3.92375 0
M  V30 6112 H 598.772 2.32389 3.97909 0
M  V30 6113 H 597.087 1.96186 3.67288 0
M  V30 6114 H 599.684 -0.264084 5.34047 0
M  V30 6115 H 600.027 -1.27951 3.96149 0
M  V30 6116 H 600.56 0.41926 3.95584 0
M  V30 6117 H 597.299 2.59237 6.0206 0
M  V30 6118 H 596.819 0.882039 5.93279 0
M  V30 6119 H 598.498 1.32082 6.33375 0
M  V30 6120 N 598.631 -1.53133 0.372548 0
M  V30 6121 C 599.563 -2.23557 -0.505444 0
M  V30 6122 C 600.576 -1.25211 -1.04049 0
M  V30 6123 O 601.765 -1.51391 -0.945675 0
M  V30 6124 C 598.865 -2.92516 -1.71136 0
M  V30 6125 C 598.038 -4.17428 -1.30661 0
M  V30 6126 C 597.097 -4.69535 -2.37536 0
M  V30 6127 O 596.123 -5.33042 -1.99637 0
M  V30 6128 N 597.325 -4.47947 -3.6922 0
M  V30 6129 H 600.09 -2.9954 0.0978259 0
M  V30 6130 H 597.651 -1.60684 0.198068 0
M  V30 6131 H 599.643 -3.24281 -2.42124 0
M  V30 6132 H 598.213 -2.19944 -2.22134 0
M  V30 6133 H 597.433 -3.91888 -0.426292 0
M  V30 6134 H 598.721 -4.98622 -1.01259 0
M  V30 6135 H 598.119 -3.97219 -4.02783 0
M  V30 6136 H 596.676 -4.84245 -4.36292 0
M  V30 6137 N 600.109 -0.101901 -1.5727 0
M  V30 6138 C 601.357 0.559091 -1.94213 0
M  V30 6139 C 601.678 1.68297 -0.984948 0
M  V30 6140 O 600.948 1.95863 -0.0381975 0
M  V30 6141 H 599.528 0.20952 -0.717015 0
M  V30 6142 H 602.19 -0.166831 -1.94185 0
M  V30 6143 H 601.286 0.96485 -2.96811 0
M  V30 6144 N 601.587 1.56661 0.17182 0
M  V30 6145 C 602.836 1.81158 0.886831 0
M  V30 6146 C 603.149 0.679072 1.83434 0
M  V30 6147 O 604.355 0.808964 2.59168 0
M  V30 6148 C 602.811 3.20999 1.6275 0
M  V30 6149 C 602.419 4.42117 0.723652 0
M  V30 6150 C 604.163 3.5479 2.33076 0
M  V30 6151 C 602.07 5.7298 1.46452 0
M  V30 6152 H 601 0.675543 0.334899 0
M  V30 6153 H 603.651 1.82967 0.139765 0
M  V30 6154 H 602.033 3.13506 2.4193 0
M  V30 6155 H 603.207 4.60789 -0.0311485 0
M  V30 6156 H 601.522 4.16197 0.130063 0
M  V30 6157 H 604.119 4.49806 2.89099 0
M  V30 6158 H 604.462 2.79646 3.08389 0
M  V30 6159 H 604.995 3.63834 1.6084 0
M  V30 6160 H 601.734 6.51152 0.753729 0
M  V30 6161 H 601.254 5.58285 2.19266 0
M  V30 6162 H 602.933 6.14916 2.01214 0
M  V30 6163 N 603.065 -0.440357 1.51323 0
M  V30 6164 C 603.995 -1.54174 1.75364 0
M  V30 6165 C 604.976 -1.59039 0.603375 0
M  V30 6166 O 606.161 -1.74815 0.845774 0
M  V30 6167 C 603.291 -2.92277 1.87593 0
M  V30 6168 C 602.245 -3.02274 3.03009 0
M  V30 6169 C 601.571 -4.42327 3.00418 0
M  V30 6170 C 602.871 -2.76634 4.43024 0
M  V30 6171 H 604.565 -1.34307 2.67585 0
M  V30 6172 H 602.111 -0.644678 1.28763 0
M  V30 6173 H 604.064 -3.69284 2.02995 0
M  V30 6174 H 602.788 -3.13369 0.920179 0
M  V30 6175 H 601.447 -2.27706 2.87307 0
M  V30 6176 H 601.095 -4.60382 2.02626 0
M  V30 6177 H 600.795 -4.49946 3.77918 0
M  V30 6178 H 602.319 -5.21312 3.17909 0
M  V30 6179 H 603.733 -3.43376 4.59093 0
M  V30 6180 H 602.13 -2.95666 5.22208 0
M  V30 6181 H 603.2 -1.72262 4.5327 0
M  V30 6182 N 604.543 -1.41418 -0.695603 0
M  V30 6183 C 605.792 -1.40073 -1.4513 0
M  V30 6184 C 606.105 -0.0130439 -1.95596 0
M  V30 6185 O 607.311 0.123032 -2.71221 0
M  V30 6186 C 605.767 -2.46286 -2.62433 0
M  V30 6187 C 605.375 -3.90962 -2.18753 0
M  V30 6188 C 607.119 -2.54077 -3.40066 0
M  V30 6189 C 605.026 -4.88728 -3.33015 0
M  V30 6190 H 603.956 -0.520903 -0.545138 0
M  V30 6191 H 606.607 -1.67242 -0.75515 0
M  V30 6192 H 604.989 -2.12248 -3.34315 0
M  V30 6193 H 606.163 -4.34248 -1.54161 0
M  V30 6194 H 604.478 -3.86831 -1.54114 0
M  V30 6195 H 607.075 -3.24303 -4.25125 0
M  V30 6196 H 607.418 -1.5776 -3.8525 0
M  V30 6197 H 607.951 -2.87206 -2.75241 0
M  V30 6198 H 604.69 -5.86449 -2.92844 0
M  V30 6199 H 604.21 -4.50091 -3.96457 0
M  V30 6200 H 605.889 -5.09483 -3.98793 0
M  V30 6201 N 606.021 0.929856 -1.27246 0
M  V30 6202 C 606.931 2.0636 -1.11592 0
M  V30 6203 C 607.947 1.73938 -0.046496 0
M  V30 6204 O 609.123 1.9981 -0.252544 0
M  V30 6205 C 606.188 3.38213 -0.762437 0
M  V30 6206 C 605.249 3.84346 -1.9125 0
M  V30 6207 C 604.482 5.09906 -1.57579 0
M  V30 6208 O 604.705 5.68354 -0.482694 0
M  V30 6209 O 603.639 5.51359 -2.41426 0
M  V30 6210 H 607.465 2.22478 -2.0673 0
M  V30 6211 H 605.05 1.04865 -1.06413 0
M  V30 6212 H 606.932 4.1741 -0.57854 0
M  V30 6213 H 605.607 3.23307 0.159439 0
M  V30 6214 H 604.514 3.06045 -2.15144 0
M  V30 6215 H 605.847 4.0379 -2.81451 0
M  V30 6216 N 607.499 1.09233 1.13605 0
M  V30 6217 C 608.449 0.6994 2.17008 0
M  V30 6218 C 609.433 -0.285238 1.58352 0
M  V30 6219 O 610.625 -0.09592 1.7674 0
M  V30 6220 C 607.754 0.11938 3.43092 0
M  V30 6221 C 606.84 1.13031 4.0876 0
M  V30 6222 N 607.231 2.31673 4.49623 0
M  V30 6223 C 605.529 0.967999 4.35369 0
M  V30 6224 C 606.23 2.95964 5.00779 0
M  V30 6225 N 605.206 2.23534 4.95513 0
M  V30 6226 H 609.008 1.60272 2.46354 0
M  V30 6227 H 606.522 0.968257 1.30378 0
M  V30 6228 H 608.519 -0.180122 4.16511 0
M  V30 6229 H 607.179 -0.778816 3.15221 0
M  V30 6230 H 608.19 2.69277 4.42391 0
M  V30 6231 H 604.867 0.124319 4.17315 0
M  V30 6232 H 606.257 3.96813 5.42208 0
M  V30 6233 N 608.977 -1.30795 0.87923 0
M  V30 6234 C 609.907 -2.30742 0.357796 0
M  V30 6235 C 610.888 -1.60747 -0.556283 0
M  V30 6236 O 612.073 -1.88393 -0.47135 0
M  V30 6237 C 609.203 -3.44583 -0.433555 0
M  V30 6238 C 608.157 -4.26235 0.388251 0
M  V30 6239 C 607.483 -5.32073 -0.529352 0
M  V30 6240 C 608.783 -4.96303 1.62729 0
M  V30 6241 H 610.477 -2.74605 1.19299 0
M  V30 6242 H 608.023 -1.32017 0.575104 0
M  V30 6243 H 609.976 -4.13563 -0.808934 0
M  V30 6244 H 608.7 -2.99511 -1.30234 0
M  V30 6245 H 607.359 -3.58936 0.745695 0
M  V30 6246 H 607.007 -4.83249 -1.39569 0
M  V30 6247 H 606.707 -5.87598 0.0166741 0
M  V30 6248 H 608.231 -6.0391 -0.901373 0
M  V30 6249 H 609.645 -5.5783 1.32283 0
M  V30 6250 H 608.042 -5.61666 2.11309 0
M  V30 6251 H 609.112 -4.22758 2.37494 0
M  V30 6252 N 610.455 -0.639598 -1.44038 0
M  V30 6253 C 611.685 -0.154586 -2.06021 0
M  V30 6254 C 612.093 1.17951 -1.47933 0
M  V30 6255 O 611.436 1.73627 -0.59994 0
M  V30 6256 C 611.498 0.0255459 -3.59491 0
M  V30 6257 C 611.162 -1.2317 -4.40089 0
M  V30 6258 C 612.159 -2.15735 -4.73027 0
M  V30 6259 C 609.844 -1.46949 -4.80324 0
M  V30 6260 C 611.838 -3.30382 -5.45093 0
M  V30 6261 C 609.525 -2.61891 -5.52138 0
M  V30 6262 C 610.523 -3.53433 -5.84443 0
M  V30 6263 O 610.211 -4.6637 -6.54793 0
M  V30 6264 H 609.943 -0.0808543 -0.671147 0
M  V30 6265 H 612.497 -0.876541 -1.85758 0
M  V30 6266 H 610.727 0.802733 -3.78276 0
M  V30 6267 H 612.416 0.466184 -4.03214 0
M  V30 6268 H 613.182 -1.98602 -4.42473 0
M  V30 6269 H 609.061 -0.765815 -4.54595 0
M  V30 6270 H 612.605 -4.01856 -5.70226 0
M  V30 6271 H 608.502 -2.78964 -5.82108 0
M  V30 6272 H 609.27 -4.6546 -6.73267 0
M  V30 6273 N 611.933 1.52934 -0.380664 0
M  V30 6274 C 613.181 2.01069 0.203874 0
M  V30 6275 C 613.502 1.26922 1.4804 0
M  V30 6276 O 612.772 0.386787 1.92044 0
M  V30 6277 H 611.352 0.742882 0.0783279 0
M  V30 6278 H 614.014 1.88099 -0.510368 0
M  V30 6279 H 613.11 3.09258 0.42021 0
M  V30 6280 N 613.412 0.11024 1.57214 0
M  V30 6281 C 614.342 -0.840002 2.17867 0
M  V30 6282 C 615.323 -1.28352 1.11624 0
M  V30 6283 O 616.508 -1.3477 1.39824 0
M  V30 6284 C 613.638 -2.09349 2.77111 0
M  V30 6285 C 612.592 -1.78807 3.8886 0
M  V30 6286 C 611.918 -3.11112 4.34872 0
M  V30 6287 C 613.218 -1.0632 5.11364 0
M  V30 6288 H 614.912 -0.334608 2.97524 0
M  V30 6289 H 612.458 -0.159502 1.43114 0
M  V30 6290 H 614.411 -2.76275 3.18198 0
M  V30 6291 H 613.135 -2.62198 1.9473 0
M  V30 6292 H 611.794 -1.14273 3.48335 0
M  V30 6293 H 611.442 -3.61877 3.49362 0
M  V30 6294 H 611.142 -2.91453 5.10224 0
M  V30 6295 H 612.666 -3.79171 4.78604 0
M  V30 6296 H 614.08 -1.63383 5.49526 0
M  V30 6297 H 612.477 -0.967876 5.92243 0
M  V30 6298 H 613.547 -0.0484569 4.84876 0
M  V30 6299 N 614.89 -1.56749 -0.16351 0
M  V30 6300 C 616.118 -1.86577 -0.894233 0
M  V30 6301 C 616.533 -0.696543 -1.75481 0
M  V30 6302 O 615.89 0.334161 -1.79415 0
M  V30 6303 C 615.941 -3.15508 -1.76456 0
M  V30 6304 O 615.662 -4.27926 -0.938685 0
M  V30 6305 C 617.163 -3.58737 -2.60428 0
M  V30 6306 H 614.383 -0.618829 -0.259405 0
M  V30 6307 H 616.927 -2.03863 -0.161259 0
M  V30 6308 H 615.082 -3.00025 -2.45079 0
M  V30 6309 H 615.496 -5.01546 -1.53465 0
M  V30 6310 H 616.97 -4.51832 -3.17099 0
M  V30 6311 H 617.447 -2.83229 -3.35675 0
M  V30 6312 H 618.053 -3.76858 -1.97125 0
M  V30 6313 N 616.368 0.432326 -1.51554 0
M  V30 6314 C 617.614 1.18309 -1.64714 0
M  V30 6315 C 617.947 1.90745 -0.364696 0
M  V30 6316 O 617.222 1.8381 0.635936 0
M  V30 6317 C 617.505 2.1961 -2.85383 0
M  V30 6318 C 617.358 1.51223 -4.23617 0
M  V30 6319 C 618.677 3.20538 -3.01569 0
M  V30 6320 H 615.796 0.428751 -0.599451 0
M  V30 6321 H 618.438 0.471689 -1.84052 0
M  V30 6322 H 616.588 2.8028 -2.69027 0
M  V30 6323 H 618.26 0.938516 -4.51652 0
M  V30 6324 H 616.503 0.814501 -4.26085 0
M  V30 6325 H 617.174 2.25024 -5.04052 0
M  V30 6326 H 619.65 2.69926 -3.16669 0
M  V30 6327 H 618.526 3.88706 -3.87555 0
M  V30 6328 H 618.787 3.86933 -2.13859 0
M  V30 6329 N 617.846 1.41785 0.688094 0
M  V30 6330 C 619.093 1.41544 1.44816 0
M  V30 6331 C 619.421 0.0271746 1.94481 0
M  V30 6332 O 618.676 -0.962235 1.7041 0
M  V30 6333 C 618.975 2.37532 2.67046 0
M  V30 6334 C 618.641 3.84209 2.35996 0
M  V30 6335 C 617.303 4.24165 2.27239 0
M  V30 6336 C 619.655 4.76785 2.10536 0
M  V30 6337 C 616.983 5.54695 1.91128 0
M  V30 6338 C 619.335 6.07644 1.75931 0
M  V30 6339 C 617.999 6.46613 1.65675 0
M  V30 6340 H 617.269 0.517945 0.529919 0
M  V30 6341 H 619.916 1.74635 0.785797 0
M  V30 6342 H 618.221 1.9772 3.38251 0
M  V30 6343 H 619.918 2.34615 3.25203 0
M  V30 6344 H 616.508 3.52567 2.4371 0
M  V30 6345 H 620.692 4.46714 2.16242 0
M  V30 6346 H 615.948 5.83762 1.81746 0
M  V30 6347 H 620.122 6.78874 1.55252 0
M  V30 6348 H 617.749 7.47668 1.37463 0
M  V30 6349 N 619.324 -0.923095 1.27737 0
M  V30 6350 C 620.234 -2.05765 1.12685 0
M  V30 6351 C 621.25 -1.73911 0.0557197 0
M  V30 6352 O 622.426 -1.99674 0.263137 0
M  V30 6353 C 619.491 -3.37804 0.780363 0
M  V30 6354 C 618.552 -3.83326 1.93286 0
M  V30 6355 C 617.785 -5.09064 1.60281 0
M  V30 6356 O 618.008 -5.6809 0.512828 0
M  V30 6357 O 616.942 -5.50071 2.44347 0
M  V30 6358 H 620.768 -2.21378 2.07907 0
M  V30 6359 H 618.353 -1.04299 1.06968 0
M  V30 6360 H 620.235 -4.17097 0.600668 0
M  V30 6361 H 618.91 -3.23387 -0.142291 0
M  V30 6362 H 617.817 -3.049 2.16764 0
M  V30 6363 H 619.15 -4.02292 2.83588 0
M  V30 6364 N 620.802 -1.09834 -1.13024 0
M  V30 6365 C 621.75 -0.736283 -2.20639 0
M  V30 6366 C 622.744 0.264725 -1.67319 0
M  V30 6367 O 623.95 0.125745 -1.7956 0
M  V30 6368 H 620.325 -0.220136 -0.719058 0
M  V30 6369 H 622.296 -1.65295 -2.48436 0
M  V30 6370 C 621.045 -0.177544 -3.47246 0
M  V30 6371 H 620.368 -0.939009 -3.88616 0
M  V30 6372 H 621.808 0.0378007 -4.23983 0
M  V30 6373 C 620.267 1.08824 -3.1884 0
M  V30 6374 O 620.797 2.1708 -3.37993 0
M  V30 6375 N 619.003 1.00442 -2.7269 0
M  V30 6376 H 618.55 0.123383 -2.57304 0
M  V30 6377 H 618.508 1.85206 -2.5406 0
M  V30 6378 N 622.28 1.30327 -0.886154 0
M  V30 6379 C 623.51 1.99964 -0.519421 0
M  V30 6380 C 623.918 1.66593 0.89686 0
M  V30 6381 O 623.261 0.899886 1.60149 0
M  V30 6382 C 623.323 3.54187 -0.615795 0
M  V30 6383 C 622.987 4.11078 -1.9966 0
M  V30 6384 C 623.984 4.26985 -2.96614 0
M  V30 6385 C 621.669 4.46429 -2.30231 0
M  V30 6386 C 623.663 4.77456 -4.22273 0
M  V30 6387 C 621.35 4.966 -3.56135 0
M  V30 6388 C 622.348 5.12066 -4.5197 0
M  V30 6389 O 622.036 5.61154 -5.7564 0
M  V30 6390 H 621.768 0.645979 -0.199217 0
M  V30 6391 H 624.322 1.67154 -1.19368 0
M  V30 6392 H 622.552 3.86528 0.115448 0
M  V30 6393 H 624.241 4.05065 -0.26017 0
M  V30 6394 H 625.007 3.99975 -2.74308 0
M  V30 6395 H 620.886 4.33658 -1.56404 0
M  V30 6396 H 624.43 4.89444 -4.97082 0
M  V30 6397 H 620.327 5.23045 -3.78277 0
M  V30 6398 H 621.095 5.79494 -5.78039 0
M  V30 6399 N 623.758 0.647228 1.43697 0
M  V30 6400 C 624.688 -0.0345631 2.33474 0
M  V30 6401 C 625.669 -0.818193 1.4913 0
M  V30 6402 O 626.854 -0.780867 1.77809 0
M  V30 6403 C 623.984 -1.00576 3.32418 0
M  V30 6404 C 622.938 -0.33266 4.26705 0
M  V30 6405 C 622.264 -1.41489 5.1564 0
M  V30 6406 C 623.564 0.771204 5.16575 0
M  V30 6407 H 625.258 0.715163 2.90733 0
M  V30 6408 H 622.804 0.345364 1.39797 0
M  V30 6409 H 624.757 -1.49159 3.94119 0
M  V30 6410 H 623.481 -1.78657 2.73403 0
M  V30 6411 H 622.14 0.13267 3.6636 0
M  V30 6412 H 621.788 -2.18698 4.52968 0
M  V30 6413 H 621.488 -0.969799 5.79542 0
M  V30 6414 H 623.012 -1.9022 5.80214 0
M  V30 6415 H 624.426 0.36779 5.72119 0
M  V30 6416 H 622.823 1.1404 5.89165 0
M  V30 6417 H 623.893 1.63169 4.56622 0
M  V30 6418 N 625.236 -1.5273 0.388769 0
M  V30 6419 C 626.466 -2.05693 -0.193397 0
M  V30 6420 C 626.874 -1.26038 -1.41107 0
M  V30 6421 O 626.217 -0.30001 -1.81234 0
M  V30 6422 C 626.279 -3.53962 -0.628561 0
M  V30 6423 C 625.943 -4.54519 0.475576 0
M  V30 6424 C 626.94 -5.02526 1.33281 0
M  V30 6425 C 624.625 -4.98174 0.642453 0
M  V30 6426 C 626.619 -5.92812 2.34205 0
M  V30 6427 C 624.306 -5.88262 1.65503 0
M  V30 6428 C 625.304 -6.35473 2.50325 0
M  V30 6429 O 624.992 -7.23781 3.49852 0
M  V30 6430 H 624.724 -0.675197 -0.0329395 0
M  V30 6431 H 627.278 -1.97835 0.552326 0
M  V30 6432 H 625.508 -3.59437 -1.42625 0
M  V30 6433 H 627.197 -3.89669 -1.13633 0
M  V30 6434 H 627.963 -4.6953 1.21519 0
M  V30 6435 H 623.842 -4.60999 -0.00805093 0
M  V30 6436 H 627.386 -6.29585 3.00447 0
M  V30 6437 H 623.283 -6.20672 1.77304 0
M  V30 6438 H 624.051 -7.4184 3.45855 0
M  V30 6439 N 626.714 -0.118576 -1.57153 0
M  V30 6440 C 627.677 0.817464 -2.14127 0
M  V30 6441 C 628.677 1.1949 -1.07604 0
M  V30 6442 O 629.867 1.12048 -1.33382 0
M  V30 6443 C 626.999 2.10541 -2.68115 0
M  V30 6444 H 628.192 0.322339 -2.98163 0
M  V30 6445 H 625.745 0.130655 -1.55753 0
M  V30 6446 H 626.48 2.64485 -1.87665 0
M  V30 6447 H 626.265 1.84425 -3.4602 0
M  V30 6448 H 627.755 2.77453 -3.12105 0
M  V30 6449 N 628.193 1.56834 0.155195 0
M  V30 6450 C 629.421 1.87049 0.884326 0
M  V30 6451 C 629.836 0.705839 1.7511 0
M  V30 6452 O 629.193 -0.324641 1.79589 0
M  V30 6453 C 629.244 3.1644 1.74781 0
M  V30 6454 O 628.965 4.28417 0.915978 0
M  V30 6455 C 630.466 3.60113 2.58522 0
M  V30 6456 H 627.686 0.620196 0.25612 0
M  V30 6457 H 630.23 2.03946 0.150445 0
M  V30 6458 H 628.385 3.01321 2.43484 0
M  V30 6459 H 628.799 5.02353 1.50803 0
M  V30 6460 H 630.273 4.53508 3.14698 0
M  V30 6461 H 630.75 2.85005 3.34169 0
M  V30 6462 H 631.356 3.77898 1.95124 0
M  V30 6463 N 629.671 -0.424282 1.51781 0
M  V30 6464 C 630.619 -1.53649 1.74628 0
M  V30 6465 C 631.613 -1.57923 0.612922 0
M  V30 6466 O 632.819 -1.61511 0.794618 0
M  V30 6467 H 629.194 -0.510706 0.551981 0
M  V30 6468 H 631.165 -1.31558 2.67834 0
M  V30 6469 C 629.914 -2.91177 1.9003 0
M  V30 6470 H 629.237 -2.88625 2.76651 0
M  V30 6471 H 630.677 -3.6833 2.10021 0
M  V30 6472 C 629.136 -3.30303 0.663435 0
M  V30 6473 O 629.666 -4.01315 -0.175812 0
M  V30 6474 N 627.872 -2.86201 0.503723 0
M  V30 6475 H 627.419 -2.28583 1.18776 0
M  V30 6476 H 627.377 -3.12741 -0.322575 0
M  V30 6477 N 631.149 -1.42148 -0.680565 0
M  V30 6478 C 632.374 -1.45901 -1.47403 0
M  V30 6479 C 632.799 -0.0700985 -1.87969 0
M  V30 6480 O 632.157 0.930145 -1.55621 0
M  V30 6481 C 632.205 -2.38661 -2.70321 0
M  V30 6482 O 631.309 -1.85399 -3.68376 0
M  V30 6483 H 630.65 -0.494565 -0.443059 0
M  V30 6484 H 633.18 -1.86774 -0.835251 0
M  V30 6485 H 633.19 -2.55046 -3.18458 0
M  V30 6486 H 631.865 -3.39571 -2.40134 0
M  V30 6487 H 630.442 -1.78541 -3.2738 0
M  V30 6488 N 632.627 0.916307 -1.28225 0
M  V30 6489 C 633.904 1.64429 -1.05936 0
M  V30 6490 C 634.284 2.07234 0.402139 0
M  V30 6491 O 633.632 1.81535 1.3877 0
M  V30 6492 C 633.842 2.83773 -2.03159 0
M  V30 6493 C 635.19 3.54852 -2.33164 0
M  V30 6494 O 636.214 2.93918 -2.01223 0
M  V30 6495 O 635.073 4.64663 -2.87664 0
M  V30 6496 H 632.167 0.721221 -0.404683 0
M  V30 6497 H 634.713 0.965838 -1.39534 0
M  V30 6498 H 633.485 2.49217 -3.01673 0
M  V30 6499 H 633.108 3.59333 -1.70192 0
M  V30 6500 N 634.105 1.10431 1.1244 0
M  V30 6501 C 635.053 0.747974 2.20246 0
M  V30 6502 C 636.047 -0.255848 1.67457 0
M  V30 6503 O 637.253 -0.116221 1.79624 0
M  V30 6504 H 633.628 0.223946 0.71788 0
M  V30 6505 H 635.599 1.6661 2.47556 0
M  V30 6506 C 634.348 0.195957 3.47147 0
M  V30 6507 H 633.671 0.959606 3.88113 0
M  V30 6508 H 635.111 -0.0153154 4.23997 0
M  V30 6509 C 633.57 -1.07132 3.19413 0
M  V30 6510 O 634.1 -2.15284 3.3914 0
M  V30 6511 N 632.306 -0.98994 2.73219 0
M  V30 6512 H 631.853 -0.109736 2.57366 0
M  V30 6513 H 631.811 -1.83856 2.55038 0
M  V30 6514 N 635.583 -1.29855 0.893053 0
M  V30 6515 C 636.546 -2.26183 0.370687 0
M  V30 6516 C 637.546 -1.53108 -0.491385 0
M  V30 6517 O 638.736 -1.71643 -0.297386 0
M  V30 6518 C 635.868 -3.37633 -0.470827 0
M  V30 6519 H 637.061 -2.73903 1.22135 0
M  V30 6520 H 634.614 -1.41183 0.67061 0
M  V30 6521 H 635.349 -2.95241 -1.34175 0
M  V30 6522 H 635.134 -3.91825 0.146784 0
M  V30 6523 H 636.624 -4.09313 -0.827825 0
M  V30 6524 N 637.061 -0.65484 -1.43351 0
M  V30 6525 C 638.009 0.0476784 -2.32551 0
M  V30 6526 C 639.003 0.811403 -1.48703 0
M  V30 6527 O 640.209 0.721621 -1.64902 0
M  V30 6528 H 636.584 0.0342038 -0.751222 0
M  V30 6529 H 638.555 -0.722342 -2.89525 0
M  V30 6530 C 637.304 0.999251 -3.33032 0
M  V30 6531 H 636.627 0.421005 -3.97577 0
M  V30 6532 H 638.067 1.45986 -3.98076 0
M  V30 6533 C 636.526 2.09606 -2.63756 0
M  V30 6534 O 637.056 3.18004 -2.4543 0
M  V30 6535 N 635.262 1.86207 -2.23103 0
M  V30 6536 H 634.809 0.980555 -2.38208 0
M  V30 6537 H 634.767 2.59787 -1.77081 0
M  V30 6538 N 638.539 1.52521 -0.396863 0
M  V30 6539 C 639.502 2.2527 0.422604 0
M  V30 6540 C 640.502 1.27184 0.983913 0
M  V30 6541 O 641.692 1.51222 0.864723 0
M  V30 6542 C 638.824 3.01356 1.59365 0
M  V30 6543 H 640.017 2.99133 -0.214416 0
M  V30 6544 H 637.57 1.55587 -0.149128 0
M  V30 6545 H 638.305 2.31813 2.26789 0
M  V30 6546 H 638.09 3.73357 1.19779 0
M  V30 6547 H 639.58 3.56571 2.17363 0
M  V30 6548 N 640.017 0.126909 1.57088 0
M  V30 6549 C 640.949 -0.850973 2.12817 0
M  V30 6550 C 641.962 -1.22457 1.07276 0
M  V30 6551 O 643.151 -1.17215 1.34622 0
M  V30 6552 C 640.251 -2.15039 2.61938 0
M  V30 6553 C 639.424 -1.94726 3.91664 0
M  V30 6554 C 638.483 -3.0847 4.26301 0
M  V30 6555 O 637.509 -2.81038 4.94981 0
M  V30 6556 N 638.711 -4.35116 3.84259 0
M  V30 6557 H 641.476 -0.3748 2.97347 0
M  V30 6558 H 639.037 -0.0572793 1.61799 0
M  V30 6559 H 641.029 -2.90141 2.82135 0
M  V30 6560 H 639.599 -2.5398 1.82244 0
M  V30 6561 H 638.819 -1.03772 3.80296 0
M  V30 6562 H 640.107 -1.78469 4.76473 0
M  V30 6563 H 639.505 -4.60276 3.2888 0
M  V30 6564 H 638.062 -5.07064 4.09548 0
M  V30 6565 N 641.495 -1.56914 -0.146875 0
M  V30 6566 C 642.427 -1.94878 -1.20645 0
M  V30 6567 C 643.44 -0.844633 -1.39175 0
M  V30 6568 O 644.629 -1.12304 -1.38744 0
M  V30 6569 C 641.729 -2.20769 -2.57127 0
M  V30 6570 C 640.902 -3.52053 -2.59572 0
M  V30 6571 C 639.961 -3.66482 -3.77594 0
M  V30 6572 O 638.987 -4.38873 -3.62462 0
M  V30 6573 N 640.189 -3.03156 -4.95052 0
M  V30 6574 H 642.954 -2.86374 -0.883757 0
M  V30 6575 H 640.515 -1.58366 -0.336436 0
M  V30 6576 H 642.507 -2.27664 -3.34591 0
M  V30 6577 H 641.077 -1.35538 -2.81688 0
M  V30 6578 H 640.297 -3.56598 -1.68023 0
M  V30 6579 H 641.585 -4.38396 -2.58238 0
M  V30 6580 H 640.983 -2.44258 -5.10249 0
M  V30 6581 H 639.54 -3.15611 -5.70292 0
M  V30 6582 N 642.974 0.416227 -1.52004 0
M  V30 6583 C 643.921 1.50666 -1.74838 0
M  V30 6584 C 644.891 1.55245 -0.590599 0
M  V30 6585 O 646.076 1.71928 -0.827374 0
M  V30 6586 C 643.216 2.88185 -1.89851 0
M  V30 6587 C 642.329 2.92971 -3.17478 0
M  V30 6588 C 641.464 4.21745 -3.22962 0
M  V30 6589 C 640.503 4.20478 -4.4482 0
M  V30 6590 N 639.64 5.40811 -4.47736 0
M  V30 6591 H 644.48 1.30498 -2.67907 0
M  V30 6592 H 642.017 0.633568 -1.32757 0
M  V30 6593 H 643.975 3.68007 -1.96537 0
M  V30 6594 H 642.605 3.06865 -1.00169 0
M  V30 6595 H 641.657 2.05684 -3.19997 0
M  V30 6596 H 642.969 2.87899 -4.07328 0
M  V30 6597 H 642.123 5.09954 -3.28682 0
M  V30 6598 H 640.862 4.29503 -2.31038 0
M  V30 6599 H 639.867 3.30659 -4.39254 0
M  V30 6600 H 641.092 4.14366 -5.38031 0
M  V30 6601 H 639.038 5.4925 -3.58692 0
M  V30 6602 H 638.955 5.37705 -5.31422 0
M  V30 6603 H 640.223 6.30993 -4.57676 0
M  V30 6604 N 644.452 1.42507 0.673017 0
M  V30 6605 C 645.68 1.46473 1.46128 0
M  V30 6606 C 646.095 0.0765912 1.88645 0
M  V30 6607 O 645.452 -0.909057 1.58248 0
M  V30 6608 C 645.503 2.39339 2.70923 0
M  V30 6609 O 645.224 3.72752 2.3019 0
M  V30 6610 C 646.725 2.52343 3.64469 0
M  V30 6611 H 643.945 0.49812 0.449575 0
M  V30 6612 H 646.489 1.87041 0.826802 0
M  V30 6613 H 644.644 2.02019 3.30556 0
M  V30 6614 H 645.058 4.22503 3.10791 0
M  V30 6615 H 646.532 3.2144 4.48754 0
M  V30 6616 H 647.009 1.56189 4.1049 0
M  V30 6617 H 647.615 2.90392 3.10729 0
M  V30 6618 N 645.93 -0.909495 1.28709 0
M  V30 6619 C 647.155 -1.69801 1.1909 0
M  V30 6620 C 647.58 -1.86479 -0.246388 0
M  V30 6621 O 646.938 -1.37802 -1.17815 0
M  V30 6622 C 646.986 -3.06543 1.89904 0
M  V30 6623 O 646.09 -3.94268 1.2094 0
M  V30 6624 H 645.431 -0.519783 0.413185 0
M  V30 6625 H 647.961 -1.13689 1.70106 0
M  V30 6626 H 647.971 -3.56748 1.97977 0
M  V30 6627 H 646.646 -2.93722 2.94449 0
M  V30 6628 H 645.223 -3.52702 1.2106 0
M  V30 6629 N 647.408 -1.11026 -1.11852 0
M  V30 6630 C 648.654 -0.857729 -1.83768 0
M  V30 6631 C 648.987 0.615143 -1.842 0
M  V30 6632 O 648.262 1.45391 -1.29196 0
M  V30 6633 C 648.545 -1.41453 -3.31154 0
M  V30 6634 C 648.398 -2.95471 -3.39142 0
M  V30 6635 C 649.717 -1.0619 -4.27097 0
M  V30 6636 H 646.836 -0.313044 -0.667212 0
M  V30 6637 H 649.478 -1.37443 -1.31185 0
M  V30 6638 H 647.628 -0.975052 -3.76065 0
M  V30 6639 H 649.3 -3.4799 -3.02821 0
M  V30 6640 H 647.543 -3.31759 -2.79497 0
M  V30 6641 H 648.214 -3.29515 -4.42859 0
M  V30 6642 H 650.69 -1.44122 -3.90344 0
M  V30 6643 H 649.566 -1.47832 -5.28618 0
M  V30 6644 H 649.827 0.0278912 -4.42091 0
M  V30 6645 N 648.886 1.2938 -0.899927 0
M  V30 6646 C 650.135 1.9483 -0.521937 0
M  V30 6647 C 650.448 1.71725 0.936473 0
M  V30 6648 O 651.654 2.31282 1.42199 0
M  V30 6649 C 650.11 3.48911 -0.88255 0
M  V30 6650 C 649.718 3.80815 -2.35974 0
M  V30 6651 C 651.462 4.20595 -0.57448 0
M  V30 6652 C 649.369 5.28142 -2.66121 0
M  V30 6653 H 648.299 0.729285 -0.191468 0
M  V30 6654 H 650.95 1.47103 -1.09695 0
M  V30 6655 H 649.332 3.95293 -0.236459 0
M  V30 6656 H 650.506 3.45291 -3.05141 0
M  V30 6657 H 648.821 3.22271 -2.63686 0
M  V30 6658 H 651.418 5.29031 -0.776556 0
M  V30 6659 H 651.761 4.13442 0.487005 0
M  V30 6660 H 652.294 3.79945 -1.17842 0
M  V30 6661 H 649.033 5.4036 -3.71068 0
M  V30 6662 H 648.553 5.64913 -2.01578 0
M  V30 6663 H 650.232 5.95738 -2.52399 0
M  V30 6664 N 650.364 0.662433 1.43002 0
M  V30 6665 C 651.78 0.330835 1.56133 0
M  V30 6666 C 651.98 -1.16454 1.64441 0
M  V30 6667 O 651.036 -1.94964 1.60453 0
M  V30 6668 C 652.349 1.05029 2.81761 0
M  V30 6669 C 653.897 1.03142 2.95518 0
M  V30 6670 C 654.372 1.73196 4.2399 0
M  V30 6671 N 655.863 1.70004 4.30875 0
M  V30 6672 C 656.598 2.21074 5.29069 0
M  V30 6673 N 656.094 2.80473 6.33488 0
M  V30 6674 N 657.887 2.1152 5.20784 0
M  V30 6675 H 650.038 1.63272 1.35853 0
M  V30 6676 H 652.301 0.687149 0.653092 0
M  V30 6677 H 652.007 2.10542 2.81718 0
M  V30 6678 H 651.881 0.607664 3.72273 0
M  V30 6679 H 654.268 -0.0153339 2.95096 0
M  V30 6680 H 654.349 1.51282 2.0627 0
M  V30 6681 H 653.993 2.77833 4.25172 0
M  V30 6682 H 653.923 1.22515 5.1215 0
M  V30 6683 H 656.414 1.26667 3.56039 0
M  V30 6684 H 656.727 3.17094 7.04749 0
M  V30 6685 H 655.072 2.84538 6.34085 0
M  V30 6686 H 658.263 1.64814 4.38126 0
M  V30 6687 H 658.436 2.51629 5.97149 0
M  V30 6688 N 651.842 -1.52309 0.404946 0
M  V30 6689 C 653.088 -2.02065 -0.172455 0
M  V30 6690 C 653.421 -1.29022 -1.45145 0
M  V30 6691 O 652.696 -0.395284 -1.90441 0
M  V30 6692 C 652.979 -3.5759 -0.424433 0
M  V30 6693 C 652.832 -4.41287 0.870945 0
M  V30 6694 C 654.151 -4.23186 -1.20837 0
M  V30 6695 H 651.27 -0.734454 -0.0612035 0
M  V30 6696 H 653.912 -1.82236 0.53759 0
M  V30 6697 H 652.062 -3.74617 -1.02929 0
M  V30 6698 H 653.734 -4.3598 1.50729 0
M  V30 6699 H 651.977 -4.07669 1.48284 0
M  V30 6700 H 652.648 -5.48171 0.649083 0
M  V30 6701 H 655.124 -4.10232 -0.696338 0
M  V30 6702 H 654 -5.31953 -1.35343 0
M  V30 6703 H 654.261 -3.81862 -2.22786 0
M  V30 6704 N 653.32 -0.135238 -1.57019 0
M  V30 6705 C 654.268 0.826099 -2.17436 0
M  V30 6706 C 655.262 1.26378 -1.12805 0
M  V30 6707 O 656.468 1.23363 -1.31079 0
M  V30 6708 H 652.843 0.284568 -0.696078 0
M  V30 6709 H 654.814 0.292212 -2.96966 0
M  V30 6710 C 653.563 2.05991 -2.80112 0
M  V30 6711 H 652.886 1.73209 -3.60331 0
M  V30 6712 H 654.326 2.71225 -3.25903 0
M  V30 6713 C 652.785 2.86027 -1.78017 0
M  V30 6714 O 653.315 3.81971 -1.24344 0
M  V30 6715 N 651.521 2.50332 -1.47588 0
M  V30 6716 H 651.068 1.72377 -1.91426 0
M  V30 6717 H 651.026 3.04177 -0.795228 0
M  V30 6718 N 654.798 1.5699 0.138552 0
M  V30 6719 C 656.214 1.51844 0.491472 0
M  V30 6720 C 656.414 0.845063 1.82923 0
M  V30 6721 O 655.47 0.419143 2.48997 0
M  V30 6722 C 656.783 2.96615 0.493987 0
M  V30 6723 C 658.331 3.076 0.578913 0
M  V30 6724 C 658.806 4.53893 0.612009 0
M  V30 6725 N 660.297 4.5827 0.673997 0
M  V30 6726 C 661.032 5.68852 0.720729 0
M  V30 6727 N 660.528 6.88982 0.726292 0
M  V30 6728 N 662.321 5.56908 0.762253 0
M  V30 6729 H 654.472 1.99158 -0.738228 0
M  V30 6730 H 656.735 0.908693 -0.270149 0
M  V30 6731 H 656.441 3.49172 -0.420933 0
M  V30 6732 H 656.315 3.53017 1.32887 0
M  V30 6733 H 658.702 2.55057 1.48425 0
M  V30 6734 H 658.783 2.54227 -0.283286 0
M  V30 6735 H 658.427 5.07076 -0.289208 0
M  V30 6736 H 658.357 5.05057 1.49082 0
M  V30 6737 H 660.848 3.71793 0.676654 0
M  V30 6738 H 661.161 7.69014 0.764032 0
M  V30 6739 H 659.506 6.91526 0.69403 0
M  V30 6740 H 662.697 4.61969 0.755135 0
M  V30 6741 H 662.87 6.43102 0.795207 0
M  V30 6742 N 656.276 -0.40816 1.52223 0
M  V30 6743 C 657.523 -1.15502 1.66329 0
M  V30 6744 C 657.851 -1.90474 0.393701 0
M  V30 6745 O 657.106 -1.85507 -0.623356 0
M  V30 6746 C 657.405 -2.17422 2.83659 0
M  V30 6747 C 657.071 -1.5925 4.21841 0
M  V30 6748 C 655.733 -1.4311 4.59427 0
M  V30 6749 C 658.085 -1.16776 5.0795 0
M  V30 6750 C 655.413 -0.830148 5.80797 0
M  V30 6751 C 657.765 -0.580988 6.29926 0
M  V30 6752 C 656.429 -0.406729 6.6626 0
M  V30 6753 H 655.699 -0.422653 0.608642 0
M  V30 6754 H 658.346 -0.442114 1.86327 0
M  V30 6755 H 656.651 -2.94861 2.58001 0
M  V30 6756 H 658.348 -2.75084 2.9177 0
M  V30 6757 H 654.938 -1.72796 3.92224 0
M  V30 6758 H 659.122 -1.28055 4.79495 0
M  V30 6759 H 654.378 -0.68316 6.07571 0
M  V30 6760 H 658.552 -0.243488 6.95974 0
M  V30 6761 H 656.179 0.0610366 7.60175 0
M  V30 6762 N 657.755 -1.42862 -0.66545 0
M  V30 6763 C 658.703 -1.47319 -1.8 0
M  V30 6764 C 659.697 -0.347963 -1.65788 0
M  V30 6765 O 660.903 -0.521406 -1.72283 0
M  V30 6766 H 657.278 -0.461588 -0.593667 0
M  V30 6767 H 659.249 -2.42876 -1.7336 0
M  V30 6768 C 657.998 -1.40152 -3.18203 0
M  V30 6769 H 657.321 -2.26035 -3.2977 0
M  V30 6770 H 658.761 -1.47331 -3.9758 0
M  V30 6771 C 657.22 -0.117493 -3.36695 0
M  V30 6772 O 657.75 0.826058 -3.93115 0
M  V30 6773 N 655.956 -0.0316218 -2.90583 0
M  V30 6774 H 655.503 -0.800247 -2.44855 0
M  V30 6775 H 655.461 0.826835 -3.03333 0
M  V30 6776 N 659.233 0.902656 -1.29189 0
M  V30 6777 C 660.458 1.69167 -1.19989 0
M  V30 6778 C 660.883 1.86607 0.236495 0
M  V30 6779 O 660.241 1.38425 1.17082 0
M  V30 6780 C 660.289 3.05532 -1.91527 0
M  V30 6781 O 659.393 3.93621 -1.2303 0
M  V30 6782 H 658.734 0.517584 -0.415936 0
M  V30 6783 H 661.264 1.12785 -1.70706 0
M  V30 6784 H 661.274 3.55693 -1.99866 0
M  V30 6785 H 659.949 2.92156 -2.96003 0
M  V30 6786 H 658.526 3.52055 -1.22928 0
M  V30 6787 N 660.711 1.11618 1.11262 0
M  V30 6788 C 661.939 0.888739 1.8684 0
M  V30 6789 C 662.354 -0.561558 1.80255 0
M  V30 6790 O 661.711 -1.38782 1.18515 0
M  V30 6791 C 661.762 1.34422 3.35579 0
M  V30 6792 O 661.483 2.73766 3.42029 0
M  V30 6793 C 662.984 1.15246 4.28058 0
M  V30 6794 H 660.204 0.318152 0.590779 0
M  V30 6795 H 662.748 1.48398 1.40707 0
M  V30 6796 H 660.903 0.79239 3.7921 0
M  V30 6797 H 661.317 2.9355 4.34659 0
M  V30 6798 H 662.791 1.52015 5.30656 0
M  V30 6799 H 663.268 0.0922007 4.39103 0
M  V30 6800 H 663.874 1.69136 3.90222 0
M  V30 6801 N 662.189 -1.289 0.906776 0
M  V30 6802 C 663.099 -2.31256 0.394707 0
M  V30 6803 C 664.115 -1.66231 -0.514121 0
M  V30 6804 O 665.291 -1.97347 -0.401994 0
M  V30 6805 C 662.356 -3.44792 -0.363191 0
M  V30 6806 C 661.417 -4.25391 0.578012 0
M  V30 6807 C 660.65 -5.33506 -0.143811 0
M  V30 6808 O 660.873 -5.53786 -1.36665 0
M  V30 6809 O 659.807 -5.99673 0.5173 0
M  V30 6810 H 663.633 -2.77051 1.24405 0
M  V30 6811 H 661.218 -1.33466 0.671346 0
M  V30 6812 H 663.1 -4.139 -0.791503 0
M  V30 6813 H 661.775 -3.01093 -1.18848 0
M  V30 6814 H 660.682 -3.58899 1.05558 0
M  V30 6815 H 662.015 -4.72752 1.36992 0
M  V30 6816 N 663.667 -0.670007 -1.42649 0
M  V30 6817 C 664.897 -0.198252 -2.05647 0
M  V30 6818 C 665.305 1.14786 -1.50402 0
M  V30 6819 O 664.648 1.72316 -0.636634 0
M  V30 6820 C 664.71 -0.0507132 -3.59464 0
M  V30 6821 C 664.374 -1.32478 -4.37377 0
M  V30 6822 C 665.371 -2.2572 -4.68344 0
M  V30 6823 C 663.056 -1.57104 -4.77099 0
M  V30 6824 C 665.05 -3.4187 -5.37963 0
M  V30 6825 C 662.737 -2.73543 -5.46459 0
M  V30 6826 C 663.735 -3.65751 -5.76815 0
M  V30 6827 O 663.423 -4.80154 -6.44753 0
M  V30 6828 H 663.155 -0.0950721 -0.669281 0
M  V30 6829 H 665.709 -0.915745 -1.83857 0
M  V30 6830 H 663.939 0.722314 -3.79894 0
M  V30 6831 H 665.628 0.380552 -4.04112 0
M  V30 6832 H 666.394 -2.07943 -4.38161 0
M  V30 6833 H 662.273 -0.862069 -4.52868 0
M  V30 6834 H 665.817 -4.13861 -5.61574 0
M  V30 6835 H 661.714 -2.91248 -5.7606 0
M  V30 6836 H 662.482 -4.79637 -6.63243 0
M  V30 6837 N 665.145 1.52092 -0.413018 0
M  V30 6838 C 666.077 2.24819 0.445994 0
M  V30 6839 C 667.09 1.27925 1.00692 0
M  V30 6840 O 668.279 1.53845 0.905204 0
M  V30 6841 C 665.379 2.96951 1.6332 0
M  V30 6842 C 664.552 4.20746 1.19548 0
M  V30 6843 C 663.611 4.75668 2.25003 0
M  V30 6844 O 662.637 5.38148 1.85434 0
M  V30 6845 N 663.839 4.57579 3.57214 0
M  V30 6846 H 666.604 2.99176 -0.177209 0
M  V30 6847 H 664.165 1.60102 -0.240601 0
M  V30 6848 H 666.157 3.30586 2.33441 0
M  V30 6849 H 664.727 2.25756 2.16225 0
M  V30 6850 H 663.947 3.92881 0.32224 0
M  V30 6851 H 665.235 5.01132 0.880033 0
M  V30 6852 H 664.633 4.07758 3.92109 0
M  V30 6853 H 663.19 4.95642 4.23299 0
M  V30 6854 N 666.623 0.143563 1.56945 0
M  V30 6855 C 667.869 -0.50916 1.96304 0
M  V30 6856 C 668.202 -1.64741 1.0283 0
M  V30 6857 O 667.477 -1.94374 0.0700361 0
M  V30 6858 C 667.76 -1.0186 3.45393 0
M  V30 6859 C 667.613 0.117923 4.49645 0
M  V30 6860 C 668.932 -1.90151 3.96901 0
M  V30 6861 H 666.051 -0.183608 0.713763 0
M  V30 6862 H 668.693 0.224095 1.88674 0
M  V30 6863 H 666.843 -1.64345 3.52027 0
M  V30 6864 H 668.515 0.754145 4.55094 0
M  V30 6865 H 666.758 0.777568 4.26774 0
M  V30 6866 H 667.429 -0.280187 5.51288 0
M  V30 6867 H 669.905 -1.375 3.92725 0
M  V30 6868 H 668.781 -2.22707 5.0169 0
M  V30 6869 H 669.042 -2.83718 3.39052 0
M  V30 6870 N 668.101 -1.57061 -0.130224 0
M  V30 6871 C 669.347 -1.8453 -0.841216 0
M  V30 6872 C 669.68 -0.727666 -1.80052 0
M  V30 6873 O 668.955 0.267419 -1.92653 0
M  V30 6874 C 669.238 -3.22553 -1.60099 0
M  V30 6875 C 669.091 -4.44901 -0.662048 0
M  V30 6876 C 670.41 -3.58003 -2.55973 0
M  V30 6877 H 667.529 -0.671215 -0.304366 0
M  V30 6878 H 670.171 -1.89705 -0.105821 0
M  V30 6879 H 668.321 -3.18272 -2.22789 0
M  V30 6880 H 669.993 -4.61278 -0.0448559 0
M  V30 6881 H 668.236 -4.33791 0.0272253 0
M  V30 6882 H 668.907 -5.3812 -1.23006 0
M  V30 6883 H 671.383 -3.63002 -2.03393 0
M  V30 6884 H 670.259 -4.55576 -3.06172 0
M  V30 6885 H 670.52 -2.84833 -3.38116 0
M  V30 6886 N 669.579 0.400081 -1.52437 0
M  V30 6887 C 670.807 1.16768 -1.70801 0
M  V30 6888 C 671.222 1.84036 -0.421462 0
M  V30 6889 O 670.579 1.72242 0.603228 0
M  V30 6890 C 670.63 2.22403 -2.8499 0
M  V30 6891 O 670.351 1.57879 -4.08663 0
M  V30 6892 C 671.852 3.11974 -3.1494 0
M  V30 6893 H 669.072 0.350533 -0.57216 0
M  V30 6894 H 671.616 0.469534 -1.99037 0
M  V30 6895 H 669.771 2.87871 -2.59247 0
M  V30 6896 H 670.185 2.27982 -4.7236 0
M  V30 6897 H 671.659 3.82148 -3.9833 0
M  V30 6898 H 672.136 3.74858 -2.28863 0
M  V30 6899 H 672.742 2.52165 -3.42481 0
M  V30 6900 N 671.057 1.43213 0.657864 0
M  V30 6901 C 672.473 1.26511 0.972992 0
M  V30 6902 C 672.673 0.181477 2.00681 0
M  V30 6903 O 671.729 -0.441649 2.48608 0
M  V30 6904 C 673.042 2.62784 1.46168 0
M  V30 6905 C 674.59 2.70278 1.57857 0
M  V30 6906 C 675.065 4.06958 2.10117 0
M  V30 6907 N 676.556 4.08999 2.17426 0
M  V30 6908 C 677.291 5.11585 2.58975 0
M  V30 6909 N 676.787 6.24548 2.99853 0
M  V30 6910 N 678.58 4.9894 2.58873 0
M  V30 6911 H 670.731 2.12384 -0.0263129 0
M  V30 6912 H 672.994 0.946638 0.0507992 0
M  V30 6913 H 672.7 3.43022 0.776474 0
M  V30 6914 H 672.574 2.87863 2.43751 0
M  V30 6915 H 674.961 1.90376 2.25479 0
M  V30 6916 H 675.042 2.4897 0.587179 0
M  V30 6917 H 674.686 4.87325 1.43098 0
M  V30 6918 H 674.616 4.25628 3.10078 0
M  V30 6919 H 677.107 3.27457 1.88627 0
M  V30 6920 H 677.42 6.98661 3.30292 0
M  V30 6921 H 675.765 6.28027 2.97669 0
M  V30 6922 H 678.956 4.09757 2.26311 0
M  V30 6923 H 679.129 5.79019 2.90932 0
M  V30 6924 N 672.536 -0.895792 1.29666 0
M  V30 6925 C 673.782 -1.64908 1.18039 0
M  V30 6926 C 674.115 -1.9236 -0.266682 0
M  V30 6927 O 673.39 -1.53682 -1.19214 0
M  V30 6928 C 673.673 -2.99574 1.99819 0
M  V30 6929 C 673.526 -2.79163 3.52687 0
M  V30 6930 C 674.845 -4.00358 1.82761 0
M  V30 6931 H 671.964 -0.598437 0.430165 0
M  V30 6932 H 674.606 -1.03736 1.59182 0
M  V30 6933 H 672.756 -3.51786 1.64859 0
M  V30 6934 H 674.428 -2.33821 3.9765 0
M  V30 6935 H 672.671 -2.13871 3.77414 0
M  V30 6936 H 673.342 -3.74871 4.05186 0
M  V30 6937 H 675.818 -3.57268 2.13304 0
M  V30 6938 H 674.694 -4.92514 2.42325 0
M  V30 6939 H 674.955 -4.35096 0.783839 0
M  V30 6940 N 674.014 -1.12206 -1.10668 0
M  V30 6941 C 675.291 -0.787382 -1.79052 0
M  V30 6942 C 675.671 0.723267 -1.98323 0
M  V30 6943 O 675.019 1.6561 -1.57434 0
M  V30 6944 C 675.229 -1.55968 -3.1221 0
M  V30 6945 C 676.577 -1.74413 -3.87125 0
M  V30 6946 O 677.601 -1.5246 -3.21923 0
M  V30 6947 O 676.46 -2.10952 -5.04144 0
M  V30 6948 H 673.554 -0.286137 -0.775922 0
M  V30 6949 H 676.1 -1.22595 -1.1734 0
M  V30 6950 H 674.872 -2.58692 -2.93588 0
M  V30 6951 H 674.495 -1.1152 -3.8164 0
M  V30 6952 N 675.492 1.28418 -0.913599 0
M  V30 6953 C 676.439 2.27301 -0.400373 0
M  V30 6954 C 677.409 1.57582 0.52509 0
M  V30 6955 O 678.594 1.85482 0.447318 0
M  V30 6956 C 675.734 3.43284 0.35361 0
M  V30 6957 C 674.847 4.27752 -0.604341 0
M  V30 6958 C 673.982 5.30934 0.168075 0
M  V30 6959 C 673.021 6.07065 -0.783499 0
M  V30 6960 N 672.158 7.02086 -0.0446112 0
M  V30 6961 H 676.998 2.70579 -1.24865 0
M  V30 6962 H 674.535 1.33067 -0.627028 0
M  V30 6963 H 676.493 4.09322 0.806945 0
M  V30 6964 H 675.123 3.00997 1.16623 0
M  V30 6965 H 674.175 3.61759 -1.17621 0
M  V30 6966 H 675.487 4.80682 -1.33216 0
M  V30 6967 H 674.641 6.02855 0.681979 0
M  V30 6968 H 673.38 4.78771 0.928947 0
M  V30 6969 H 672.385 5.33995 -1.30878 0
M  V30 6970 H 673.61 6.61317 -1.54392 0
M  V30 6971 H 671.556 6.52273 0.698272 0
M  V30 6972 H 671.473 7.52637 -0.712258 0
M  V30 6973 H 672.741 7.78205 0.449102 0
M  V30 6974 N 676.97 0.677563 1.42291 0
M  V30 6975 C 678.218 0.200578 2.01102 0
M  V30 6976 C 678.539 -1.19803 1.53858 0
M  V30 6977 O 677.809 -1.80496 0.761439 0
M  V30 6978 H 676.389 0.0711634 0.743603 0
M  V30 6979 H 679.051 0.874691 1.7417 0
M  V30 6980 H 678.147 0.204 3.11433 0
M  V30 6981 N 678.448 -1.51871 0.421078 0
M  V30 6982 C 679.696 -2.01539 -0.150492 0
M  V30 6983 C 680.017 -1.30803 -1.44623 0
M  V30 6984 O 679.287 -0.437568 -1.90951 0
M  V30 6985 H 677.867 -0.744698 -0.0586041 0
M  V30 6986 H 680.529 -1.8668 0.560059 0
M  V30 6987 H 679.625 -3.10264 -0.338068 0
M  V30 6988 N 679.926 -0.151884 -1.56866 0
M  V30 6989 C 680.889 0.771861 -2.15812 0
M  V30 6990 C 681.889 1.17181 -1.10115 0
M  V30 6991 O 683.079 1.09194 -1.35729 0
M  V30 6992 C 680.211 2.04806 -2.7252 0
M  V30 6993 H 681.404 0.259021 -2.98779 0
M  V30 6994 H 678.957 0.097588 -1.55995 0
M  V30 6995 H 679.692 2.60445 -1.93233 0
M  V30 6996 H 679.477 1.77044 -3.49854 0
M  V30 6997 H 680.967 2.70771 -3.1792 0
M  V30 6998 N 681.404 1.57128 0.121893 0
M  V30 6999 C 682.334 2.03165 1.15092 0
M  V30 7000 C 683.315 0.915587 1.43356 0
M  V30 7001 O 684.5 1.1851 1.53847 0
M  V30 7002 C 681.63 2.43352 2.47784 0
M  V30 7003 C 680.584 3.58376 2.33989 0
M  V30 7004 C 679.91 3.84454 3.71617 0
M  V30 7005 C 681.21 4.90199 1.80283 0
M  V30 7006 H 682.904 2.89382 0.768023 0
M  V30 7007 H 680.45 1.39218 0.367998 0
M  V30 7008 H 682.403 2.74163 3.20019 0
M  V30 7009 H 681.127 1.54103 2.87958 0
M  V30 7010 H 679.786 3.2777 1.64202 0
M  V30 7011 H 679.434 2.92414 4.09271 0
M  V30 7012 H 679.134 4.61877 3.6324 0
M  V30 7013 H 680.658 4.17714 4.45362 0
M  V30 7014 H 682.072 5.19565 2.42333 0
M  V30 7015 H 680.469 5.71601 1.82735 0
M  V30 7016 H 681.539 4.78904 0.760184 0
M  V30 7017 N 682.882 -0.391992 1.52647 0
M  V30 7018 C 683.832 -1.47815 1.73594 0
M  V30 7019 C 684.816 -1.49693 0.589979 0
M  V30 7020 O 686.008 -1.5538 0.847701 0
M  V30 7021 C 683.137 -2.85561 1.90551 0
M  V30 7022 C 682.223 -2.88264 3.1107 0
M  V30 7023 N 682.614 -2.60642 4.33474 0
M  V30 7024 C 680.912 -3.19432 3.11254 0
M  V30 7025 C 681.613 -2.70351 5.15058 0
M  V30 7026 N 680.589 -3.03956 4.50679 0
M  V30 7027 H 684.391 -1.2528 2.65861 0
M  V30 7028 H 681.905 -0.599907 1.50913 0
M  V30 7029 H 683.902 -3.63759 2.03678 0
M  V30 7030 H 682.562 -3.09081 0.994952 0
M  V30 7031 H 683.573 -2.34718 4.61658 0
M  V30 7032 H 680.25 -3.48436 2.29997 0
M  V30 7033 H 681.64 -2.52565 6.22624 0
M  V30 7034 N 684.36 -1.4356 -0.65026 0
M  V30 7035 C 685.609 -1.44619 -1.406 0
M  V30 7036 C 685.922 -0.0752645 -1.95455 0
M  V30 7037 O 687.128 0.0366832 -2.71475 0
M  V30 7038 C 685.584 -2.54511 -2.54465 0
M  V30 7039 C 685.192 -3.97723 -2.06204 0
M  V30 7040 C 686.936 -2.64768 -3.31811 0
M  V30 7041 C 684.843 -4.99075 -3.17298 0
M  V30 7042 H 683.773 -0.537983 -0.52829 0
M  V30 7043 H 686.424 -1.69559 -0.701561 0
M  V30 7044 H 684.806 -2.22777 -3.27393 0
M  V30 7045 H 685.98 -4.38932 -1.40267 0
M  V30 7046 H 684.295 -3.91538 -1.41729 0
M  V30 7047 H 686.892 -3.37664 -4.14593 0
M  V30 7048 H 687.235 -1.69936 -3.80036 0
M  V30 7049 H 687.768 -2.95817 -2.65964 0
M  V30 7050 H 684.507 -5.95469 -2.74038 0
M  V30 7051 H 684.027 -4.62476 -3.81937 0
M  V30 7052 H 685.706 -5.21913 -3.82382 0
M  V30 7053 N 685.838 0.888903 -1.30139 0
M  V30 7054 C 687.068 1.67115 -1.21474 0
M  V30 7055 C 687.476 1.87852 0.225472 0
M  V30 7056 O 686.819 1.42324 1.16145 0
M  V30 7057 C 686.881 3.0713 -1.86846 0
M  V30 7058 C 686.545 3.09582 -3.36167 0
M  V30 7059 C 687.542 2.88929 -4.32222 0
M  V30 7060 C 685.227 3.31304 -3.77549 0
M  V30 7061 C 687.221 2.89949 -5.67634 0
M  V30 7062 C 684.908 3.31954 -5.13079 0
M  V30 7063 C 685.906 3.113 -6.07932 0
M  V30 7064 O 685.594 3.11758 -7.40987 0
M  V30 7065 H 685.326 0.528372 -0.421662 0
M  V30 7066 H 687.88 1.11919 -1.7223 0
M  V30 7067 H 686.11 3.63973 -1.30615 0
M  V30 7068 H 687.799 3.6749 -1.72354 0
M  V30 7069 H 688.565 2.71948 -4.01584 0
M  V30 7070 H 684.444 3.46417 -3.04165 0
M  V30 7071 H 687.988 2.73746 -6.41645 0
M  V30 7072 H 683.885 3.48469 -5.43359 0
M  V30 7073 H 684.653 3.27951 -7.49927 0
M  V30 7074 N 687.317 1.12792 1.10072 0
M  V30 7075 C 688.267 0.768086 2.14673 0
M  V30 7076 C 689.251 -0.234716 1.59179 0
M  V30 7077 O 690.443 -0.039643 1.76956 0
M  V30 7078 C 687.572 0.228472 3.42539 0
M  V30 7079 C 686.658 1.25979 4.04957 0
M  V30 7080 N 687.049 2.4586 4.42025 0
M  V30 7081 C 685.347 1.10602 4.32069 0
M  V30 7082 C 686.048 3.11747 4.9111 0
M  V30 7083 N 685.024 2.39185 4.88151 0
M  V30 7084 H 688.826 1.68029 2.4113 0
M  V30 7085 H 686.34 1.00925 1.27232 0
M  V30 7086 H 688.337 -0.0475216 4.16873 0
M  V30 7087 H 686.997 -0.678136 3.1754 0
M  V30 7088 H 688.008 2.83215 4.33601 0
M  V30 7089 H 684.685 0.257021 4.16708 0
M  V30 7090 H 686.075 4.13862 5.29309 0
M  V30 7091 N 688.795 -1.27931 0.920396 0
M  V30 7092 C 689.727 -2.26175 0.371169 0
M  V30 7093 C 690.74 -1.55122 -0.494065 0
M  V30 7094 O 691.929 -1.75825 -0.30787 0
M  V30 7095 C 689.029 -3.35376 -0.487481 0
M  V30 7096 C 688.202 -4.35943 0.356772 0
M  V30 7097 C 687.261 -5.24374 -0.438042 0
M  V30 7098 O 686.287 -5.68998 0.151715 0
M  V30 7099 N 687.489 -5.53823 -1.73956 0
M  V30 7100 H 690.254 -2.73938 1.21564 0
M  V30 7101 H 687.815 -1.41482 0.787047 0
M  V30 7102 H 689.807 -3.91476 -1.02609 0
M  V30 7103 H 688.377 -2.87269 -1.23269 0
M  V30 7104 H 687.597 -3.7921 1.07672 0
M  V30 7105 H 688.885 -5.0015 0.934206 0
M  V30 7106 H 688.283 -5.19413 -2.24114 0
M  V30 7107 H 686.84 -6.12653 -2.22486 0
M  V30 7108 N 690.273 -0.685099 -1.4193 0
M  V30 7109 C 691.689 -0.355632 -1.55587 0
M  V30 7110 C 691.889 1.13823 -1.66273 0
M  V30 7111 O 690.945 1.92387 -1.63534 0
M  V30 7112 C 692.258 -1.09498 -2.80055 0
M  V30 7113 C 693.806 -1.07831 -2.93839 0
M  V30 7114 C 694.281 -1.79919 -4.21181 0
M  V30 7115 N 695.772 -1.76837 -4.28115 0
M  V30 7116 C 696.507 -2.29463 -5.25485 0
M  V30 7117 N 696.003 -2.90516 -6.28945 0
M  V30 7118 N 697.796 -2.19779 -5.17353 0
M  V30 7119 H 689.947 -1.65412 -1.33239 0
M  V30 7120 H 692.21 -0.697453 -0.642078 0
M  V30 7121 H 691.916 -2.14997 -2.78333 0
M  V30 7122 H 691.79 -0.666813 -3.71259 0
M  V30 7123 H 694.177 -0.0316152 -2.95083 0
M  V30 7124 H 694.258 -1.54545 -2.03837 0
M  V30 7125 H 693.902 -2.84562 -4.20698 0
M  V30 7126 H 693.832 -1.30647 -5.10136 0
M  V30 7127 H 696.323 -1.32315 -3.53979 0
M  V30 7128 H 696.636 -3.28266 -6.99615 0
M  V30 7129 H 694.981 -2.94589 -6.29478 0
M  V30 7130 H 698.172 -1.71763 -4.35448 0
M  V30 7131 H 698.345 -2.61097 -5.9307 0
M  V30 7132 N 691.751 1.51645 -0.429126 0
M  V30 7133 C 693.167 1.59394 -0.080994 0
M  V30 7134 C 693.367 1.44064 1.40882 0
M  V30 7135 O 692.423 1.27771 2.17786 0
M  V30 7136 C 693.736 2.94779 -0.593773 0
M  V30 7137 C 695.284 3.08067 -0.553494 0
M  V30 7138 C 695.759 4.45963 -1.04311 0
M  V30 7139 N 697.25 4.5226 -1.00076 0
M  V30 7140 C 697.985 5.57268 -1.35056 0
M  V30 7141 N 697.481 6.69734 -1.77282 0
M  V30 7142 N 699.274 5.47582 -1.26925 0
M  V30 7143 H 691.425 1.59856 -1.39857 0
M  V30 7144 H 693.688 0.753095 -0.575805 0
M  V30 7145 H 693.394 3.11342 -1.63583 0
M  V30 7146 H 693.268 3.77197 -0.0142202 0
M  V30 7147 H 695.655 2.91177 0.479556 0
M  V30 7148 H 695.736 2.27508 -1.16935 0
M  V30 7149 H 695.38 4.63598 -2.07459 0
M  V30 7150 H 695.31 5.25049 -0.403873 0
M  V30 7151 H 697.801 3.71537 -0.690564 0
M  V30 7152 H 698.114 7.4587 -2.02232 0
M  V30 7153 H 696.459 6.70963 -1.81202 0
M  V30 7154 H 699.65 4.58604 -0.93809 0
M  V30 7155 H 699.823 6.29308 -1.54516 0
M  V30 7156 N 693.229 0.160201 1.56784 0
M  V30 7157 C 694.161 -0.80564 2.14574 0
M  V30 7158 C 695.174 -1.20154 1.09849 0
M  V30 7159 O 696.363 -1.14333 1.37078 0
M  V30 7160 C 693.463 -2.09434 2.6644 0
M  V30 7161 C 692.636 -1.86375 3.95706 0
M  V30 7162 C 691.695 -2.99358 4.32749 0
M  V30 7163 O 690.721 -2.70475 5.00831 0
M  V30 7164 N 691.923 -4.26867 3.93402 0
M  V30 7165 H 694.688 -0.311644 2.98075 0
M  V30 7166 H 692.249 -0.0229465 1.61884 0
M  V30 7167 H 694.241 -2.84091 2.88226 0
M  V30 7168 H 692.811 -2.50057 1.8759 0
M  V30 7169 H 692.031 -0.956821 3.82412 0
M  V30 7170 H 693.319 -1.68322 4.80151 0
M  V30 7171 H 692.717 -4.53197 3.38569 0
M  V30 7172 H 691.274 -4.98263 4.20211 0
M  V30 7173 N 694.707 -1.5719 -0.113559 0
M  V30 7174 C 696.118 -1.74259 -0.670116 0
M  V30 7175 C 696.469 -0.779694 -1.80042 0
M  V30 7176 O 695.594 0.0461353 -2.16351 0
M  V30 7177 C 696.189 -3.15981 -1.22236 0
M  V30 7178 C 694.748 -3.34537 -1.72516 0
M  V30 7179 C 693.895 -2.70116 -0.627098 0
M  V30 7180 H 696.846 -1.58301 0.112396 0
M  V30 7181 H 696.867 -3.17832 -2.09197 0
M  V30 7182 H 696.379 -3.86038 -0.39949 0
M  V30 7183 H 694.48 -2.6953 -2.57263 0
M  V30 7184 H 694.593 -4.42737 -1.83086 0
M  V30 7185 H 692.957 -2.31501 -1.06204 0
M  V30 7186 H 693.74 -3.42802 0.184889 0
M  V30 7187 N 696.185 0.383891 -1.52853 0
M  V30 7188 C 697.601 0.724316 -1.42218 0
M  V30 7189 C 697.801 1.93943 -0.546654 0
M  V30 7190 O 696.857 2.5249 -0.0220562 0
M  V30 7191 C 698.17 0.954635 -2.85144 0
M  V30 7192 C 699.718 1.05579 -2.94656 0
M  V30 7193 C 700.193 1.3187 -4.38605 0
M  V30 7194 N 701.684 1.38681 -4.41952 0
M  V30 7195 C 702.419 1.60699 -5.50421 0
M  V30 7196 N 701.915 1.80154 -6.68967 0
M  V30 7197 N 703.708 1.6292 -5.37972 0
M  V30 7198 H 695.859 -0.4156 -2.08294 0
M  V30 7199 H 698.122 -0.123776 -0.939885 0
M  V30 7200 H 697.828 0.133829 -3.51445 0
M  V30 7201 H 697.702 1.86788 -3.27704 0
M  V30 7202 H 700.089 1.86716 -2.2852 0
M  V30 7203 H 700.17 0.120338 -2.55517 0
M  V30 7204 H 699.814 0.512416 -5.05309 0
M  V30 7205 H 699.744 2.26708 -4.75301 0
M  V30 7206 H 702.235 1.25334 -3.56511 0
M  V30 7207 H 702.548 1.96476 -7.47407 0
M  V30 7208 H 700.893 1.77368 -6.71986 0
M  V30 7209 H 704.084 1.47276 -4.44328 0
M  V30 7210 H 704.257 1.79739 -6.22574 0
M  V30 7211 N 697.663 1.43903 0.642637 0
M  V30 7212 C 698.909 1.46296 1.40447 0
M  V30 7213 C 699.242 0.0908361 1.93987 0
M  V30 7214 O 698.517 -0.889884 1.72949 0
M  V30 7215 C 698.8 2.51399 2.57819 0
M  V30 7216 C 698.653 3.97926 2.09702 0
M  V30 7217 C 699.972 2.53125 3.60022 0
M  V30 7218 H 697.091 0.532676 0.509338 0
M  V30 7219 H 699.733 1.75515 0.727635 0
M  V30 7220 H 697.883 2.26614 3.1556 0
M  V30 7221 H 699.555 4.33804 1.5688 0
M  V30 7222 H 697.798 4.10252 1.40982 0
M  V30 7223 H 698.469 4.67096 2.94152 0
M  V30 7224 H 700.945 2.75242 3.12059 0
M  V30 7225 H 699.821 3.28589 4.39682 0
M  V30 7226 H 700.082 1.56895 4.13324 0
M  V30 7227 N 699.141 -0.881989 1.30609 0
M  V30 7228 C 700.557 -1.16576 1.09005 0
M  V30 7229 C 700.757 -2.00961 -0.14727 0
M  V30 7230 O 699.813 -2.38117 -0.840036 0
M  V30 7231 C 701.126 -1.86954 2.35518 0
M  V30 7232 C 702.674 -1.99706 2.41011 0
M  V30 7233 C 703.149 -2.73497 3.67374 0
M  V30 7234 N 704.64 -2.8104 3.68199 0
M  V30 7235 C 705.375 -3.38718 4.62664 0
M  V30 7236 N 704.871 -3.97421 5.67475 0
M  V30 7237 N 706.664 -3.36561 4.50203 0
M  V30 7238 H 698.815 -0.319398 2.09985 0
M  V30 7239 H 701.078 -0.204058 0.925778 0
M  V30 7240 H 700.784 -1.32393 3.2583 0
M  V30 7241 H 700.658 -2.87317 2.44395 0
M  V30 7242 H 703.045 -2.53436 1.51176 0
M  V30 7243 H 703.126 -0.984218 2.36108 0
M  V30 7244 H 702.77 -2.20438 4.57569 0
M  V30 7245 H 702.7 -3.75163 3.6954 0
M  V30 7246 H 705.191 -2.39365 2.92426 0
M  V30 7247 H 705.504 -4.39507 6.35652 0
M  V30 7248 H 703.849 -3.95832 5.71264 0
M  V30 7249 H 707.04 -2.8993 3.67503 0
M  V30 7250 H 707.213 -3.81215 5.24003 0
M  V30 7251 N 700.619 -1.13374 -1.09472 0
M  V30 7252 C 701.844 -0.918711 -1.85942 0
M  V30 7253 C 702.269 0.527225 -1.8056 0
M  V30 7254 O 701.627 1.37408 -1.18274 0
M  V30 7255 C 701.675 -1.41056 -3.31867 0
M  V30 7256 O 700.779 -0.595496 -4.08078 0
M  V30 7257 H 700.12 -0.329297 -0.576593 0
M  V30 7258 H 702.65 -1.50829 -1.38245 0
M  V30 7259 H 702.66 -1.41398 -3.82715 0
M  V30 7260 H 701.335 -2.46335 -3.35099 0
M  V30 7261 H 699.912 -0.659911 -3.67014 0
M  V30 7262 N 702.098 1.27442 -0.927168 0
M  V30 7263 C 703.048 2.24519 -0.396878 0
M  V30 7264 C 704.032 1.52981 0.498555 0
M  V30 7265 O 705.224 1.7378 0.336087 0
M  V30 7266 C 702.353 3.41514 0.349694 0
M  V30 7267 C 701.439 4.20357 -0.562226 0
M  V30 7268 N 701.83 4.7702 -1.68182 0
M  V30 7269 C 700.128 4.44503 -0.365135 0
M  V30 7270 C 700.829 5.36467 -2.24895 0
M  V30 7271 N 699.805 5.21371 -1.5386 0
M  V30 7272 H 703.607 2.65911 -1.25173 0
M  V30 7273 H 701.121 1.42366 -0.78138 0
M  V30 7274 H 703.118 4.10161 0.746536 0
M  V30 7275 H 701.778 3.01653 1.20148 0
M  V30 7276 H 702.789 4.74985 -2.06421 0
M  V30 7277 H 699.466 4.15111 0.446037 0
M  V30 7278 H 700.856 5.91264 -3.1915 0
M  V30 7279 N 703.576 0.692616 1.41565 0
M  V30 7280 C 704.539 0.0344174 2.29174 0
M  V30 7281 C 705.539 -0.710961 1.44229 0
M  V30 7282 O 706.729 -0.546293 1.65412 0
M  V30 7283 C 703.861 -0.961682 3.27054 0
M  V30 7284 H 705.054 0.805755 2.88873 0
M  V30 7285 H 702.607 0.455947 1.49502 0
M  V30 7286 H 703.342 -1.76089 2.72329 0
M  V30 7287 H 703.127 -0.430375 3.89731 0
M  V30 7288 H 704.617 -1.4201 3.92712 0
M  V30 7289 N 705.054 -1.51416 0.437162 0
M  V30 7290 C 706.294 -2.03995 -0.128538 0
M  V30 7291 C 706.658 -1.31417 -1.39977 0
M  V30 7292 O 707.859 -1.74369 -2.0457 0
M  V30 7293 C 706.13 -3.55757 -0.342317 0
M  V30 7294 S 707.689 -4.3006 -0.871446 0
M  V30 7295 H 704.507 -0.710283 -0.0319322 0
M  V30 7296 H 707.109 -1.86177 0.596526 0
M  V30 7297 H 705.813 -4.06148 0.589233 0
M  V30 7298 H 705.344 -3.77869 -1.09447 0
M  V30 7299 H 707.359 -4.47248 -2.14903 0
M  V30 7300 N 706.532 -0.168513 -1.56696 0
M  V30 7301 C 707.442 0.775435 -2.21414 0
M  V30 7302 C 708.458 1.25529 -1.20492 0
M  V30 7303 O 709.634 1.30801 -1.53144 0
M  V30 7304 C 706.699 1.9886 -2.83999 0
M  V30 7305 C 705.76 1.5559 -4.00113 0
M  V30 7306 C 704.993 2.71124 -4.59704 0
M  V30 7307 O 705.216 3.87917 -4.18182 0
M  V30 7308 O 704.15 2.4536 -5.4962 0
M  V30 7309 H 707.976 0.254416 -3.02632 0
M  V30 7310 H 705.561 0.0595507 -1.49281 0
M  V30 7311 H 707.443 2.69816 -3.23693 0
M  V30 7312 H 706.118 2.49874 -2.05779 0
M  V30 7313 H 705.025 0.815924 -3.65094 0
M  V30 7314 H 706.358 1.09271 -4.79917 0
M  V30 7315 N 708.01 1.57248 0.105221 0
M  V30 7316 C 708.958 2.02337 1.14728 0
M  V30 7317 C 709.952 0.922652 1.42069 0
M  V30 7318 O 711.158 1.10785 1.41869 0
M  V30 7319 H 707.533 0.644682 0.387155 0
M  V30 7320 H 709.504 2.89063 0.740607 0
M  V30 7321 C 708.253 2.45513 2.46209 0
M  V30 7322 H 707.576 3.29785 2.26013 0
M  V30 7323 H 709.016 2.80846 3.1765 0
M  V30 7324 C 707.475 1.3243 3.09781 0
M  V30 7325 O 708.005 0.647841 3.96442 0
M  V30 7326 N 706.211 1.07785 2.69872 0
M  V30 7327 H 705.758 1.62973 1.99493 0
M  V30 7328 H 705.716 0.323204 3.12734 0
M  V30 7329 N 709.488 -0.375779 1.53054 0
M  V30 7330 C 710.765 -1.13453 1.59336 0
M  V30 7331 C 711.145 -2.07379 0.394614 0
M  V30 7332 O 710.493 -2.2004 -0.616 0
M  V30 7333 C 710.703 -1.8826 2.93869 0
M  V30 7334 C 712.051 -2.43155 3.48081 0
M  V30 7335 O 713.075 -1.984 2.95831 0
M  V30 7336 O 711.934 -3.24944 4.39401 0
M  V30 7337 H 709.028 -0.519856 0.643179 0
M  V30 7338 H 711.574 -0.379865 1.65394 0
M  V30 7339 H 710.346 -1.19652 3.72558 0
M  V30 7340 H 709.969 -2.70658 2.91256 0
M  V30 7341 N 710.966 -1.44241 -0.634997 0
M  V30 7342 C 711.898 -1.46793 -1.76024 0
M  V30 7343 C 712.911 -0.361781 -1.58729 0
M  V30 7344 O 714.1 -0.627297 -1.67114 0
M  V30 7345 C 711.2 -1.28248 -3.13697 0
M  V30 7346 C 710.373 -2.52038 -3.57485 0
M  V30 7347 C 709.432 -2.2845 -4.74022 0
M  V30 7348 O 708.458 -3.01915 -4.82531 0
M  V30 7349 N 709.66 -1.31264 -5.65464 0
M  V30 7350 H 712.425 -2.43797 -1.74307 0
M  V30 7351 H 709.986 -1.39631 -0.819438 0
M  V30 7352 H 711.978 -1.10321 -3.89373 0
M  V30 7353 H 710.548 -0.39623 -3.10079 0
M  V30 7354 H 709.768 -2.85268 -2.72059 0
M  V30 7355 H 711.056 -3.34382 -3.83492 0
M  V30 7356 H 710.454 -0.705817 -5.6128 0
M  V30 7357 H 709.011 -1.19316 -6.40786 0
M  V30 7358 N 712.444 0.87505 -1.31075 0
M  V30 7359 C 713.674 1.65818 -1.2324 0
M  V30 7360 C 714.082 1.8808 0.205536 0
M  V30 7361 O 713.425 1.43548 1.14628 0
M  V30 7362 C 713.487 3.05131 -1.90093 0
M  V30 7363 C 713.151 3.05999 -3.39432 0
M  V30 7364 C 714.148 2.84328 -4.35263 0
M  V30 7365 C 711.833 3.27281 -3.81041 0
M  V30 7366 C 713.827 2.83912 -5.70678 0
M  V30 7367 C 711.514 3.26493 -5.16571 0
M  V30 7368 C 712.512 3.04834 -6.112 0
M  V30 7369 O 712.2 3.03882 -7.44252 0
M  V30 7370 H 711.932 0.52387 -0.427242 0
M  V30 7371 H 714.486 1.10086 -1.73408 0
M  V30 7372 H 712.716 3.62568 -1.34468 0
M  V30 7373 H 714.405 3.65641 -1.76242 0
M  V30 7374 H 715.171 2.67673 -4.04445 0
M  V30 7375 H 711.05 3.43171 -3.07822 0
M  V30 7376 H 714.594 2.66925 -6.44513 0
M  V30 7377 H 710.491 3.42687 -5.47025 0
M  V30 7378 H 711.259 3.19979 -7.53363 0
M  V30 7379 N 713.922 1.13953 1.08869 0
M  V30 7380 C 715.17 0.903023 1.80803 0
M  V30 7381 C 715.491 -0.572151 1.86417 0
M  V30 7382 O 714.761 -1.41589 1.35386 0
M  V30 7383 H 713.341 0.331099 0.669614 0
M  V30 7384 H 716.003 1.43719 1.31647 0
M  V30 7385 H 715.099 1.29881 2.83791 0
M  V30 7386 N 715.4 -1.26948 0.933913 0
M  V30 7387 C 716.347 -2.26635 0.436484 0
M  V30 7388 C 717.317 -1.58397 -0.499953 0
M  V30 7389 O 718.502 -1.86171 -0.417753 0
M  V30 7390 C 715.642 -3.43803 -0.298951 0
M  V30 7391 C 714.755 -4.26736 0.672316 0
M  V30 7392 C 713.89 -5.31134 -0.0835872 0
M  V30 7393 C 712.929 -6.05742 0.879979 0
M  V30 7394 N 712.066 -7.01926 0.156301 0
M  V30 7395 H 716.906 -2.68558 1.29154 0
M  V30 7396 H 714.443 -1.32052 0.648118 0
M  V30 7397 H 716.401 -4.10554 -0.741723 0
M  V30 7398 H 715.031 -3.02814 -1.1182 0
M  V30 7399 H 714.083 -3.59842 1.23361 0
M  V30 7400 H 715.395 -4.78502 1.40846 0
M  V30 7401 H 714.549 -6.03863 -0.585984 0
M  V30 7402 H 713.288 -4.80188 -0.852661 0
M  V30 7403 H 712.293 -5.31846 1.39357 0
M  V30 7404 H 713.518 -6.58777 1.64894 0
M  V30 7405 H 711.464 -6.53301 -0.594413 0
M  V30 7406 H 711.381 -7.51409 0.831906 0
M  V30 7407 H 712.649 -7.78821 -0.325239 0
M  V30 7408 N 716.879 -0.700114 -1.41195 0
M  V30 7409 C 718.29 -0.307249 -1.84154 0
M  V30 7410 C 718.641 1.15539 -1.58572 0
M  V30 7411 O 717.766 1.88744 -1.05852 0
M  V30 7412 C 718.361 -0.550872 -3.34292 0
M  V30 7413 C 716.92 -0.211877 -3.75803 0
M  V30 7414 C 716.067 -0.830915 -2.64558 0
M  V30 7415 H 719.018 -0.900431 -1.30683 0
M  V30 7416 H 719.039 0.188954 -3.80031 0
M  V30 7417 H 718.551 -1.61548 -3.5288 0
M  V30 7418 H 716.652 0.848283 -3.62815 0
M  V30 7419 H 716.765 -0.67007 -4.74391 0
M  V30 7420 H 715.129 -0.260155 -2.53368 0
M  V30 7421 H 715.912 -1.89948 -2.85963 0
M  V30 7422 N 718.357 1.51182 -0.445186 0
M  V30 7423 C 719.605 2.01753 0.11841 0
M  V30 7424 C 719.926 1.33087 1.42523 0
M  V30 7425 O 719.196 0.467891 1.9023 0
M  V30 7426 H 717.776 0.745536 0.0467492 0
M  V30 7427 H 720.438 1.85765 -0.589688 0
M  V30 7428 H 719.534 3.10762 0.288665 0
M  V30 7429 N 719.835 0.176821 1.56605 0
M  V30 7430 C 721.083 -0.465793 1.96659 0
M  V30 7431 C 721.404 -1.63406 1.06412 0
M  V30 7432 O 720.674 -1.95457 0.131603 0
M  V30 7433 H 719.254 -0.175072 0.726195 0
M  V30 7434 H 721.916 0.25929 1.93168 0
M  V30 7435 H 721.012 -0.822138 3.01077 0
M  V30 7436 N 721.313 -1.57302 -0.09688 0
M  V30 7437 C 722.553 -1.87823 -0.806334 0
M  V30 7438 C 722.917 -0.767593 -1.75989 0
M  V30 7439 O 724.118 -0.955173 -2.51257 0
M  V30 7440 C 722.389 -3.23585 -1.51749 0
M  V30 7441 S 723.948 -3.75795 -2.26547 0
M  V30 7442 H 720.766 -0.658281 -0.268676 0
M  V30 7443 H 723.368 -1.95397 -0.0635476 0
M  V30 7444 H 722.072 -4.0234 -0.809348 0
M  V30 7445 H 721.603 -3.19145 -2.30021 0
M  V30 7446 H 723.618 -3.49068 -3.52656 0
M  V30 7447 N 722.791 0.367657 -1.53252 0
M  V30 7448 C 724.016 1.13566 -1.73544 0
M  V30 7449 C 724.441 1.82329 -0.462344 0
M  V30 7450 O 723.799 1.71655 0.583472 0
M  V30 7451 C 723.847 2.14322 -2.89997 0
M  V30 7452 O 722.951 3.21359 -2.58461 0
M  V30 7453 H 722.292 0.329614 -0.576412 0
M  V30 7454 H 724.822 0.425417 -2.00128 0
M  V30 7455 H 724.832 2.57958 -3.16104 0
M  V30 7456 H 723.507 1.63664 -3.82344 0
M  V30 7457 H 722.084 2.8271 -2.43165 0
M  V30 7458 N 724.269 1.44576 0.627338 0
M  V30 7459 C 725.546 1.38033 1.38586 0
M  V30 7460 C 725.926 0.0409468 2.1106 0
M  V30 7461 O 725.274 -0.976582 2.0658 0
M  V30 7462 C 725.484 2.58102 2.34913 0
M  V30 7463 C 726.832 3.02332 2.98129 0
M  V30 7464 O 727.856 2.58334 2.45238 0
M  V30 7465 O 726.715 3.78628 3.94085 0
M  V30 7466 H 723.809 0.546801 0.620434 0
M  V30 7467 H 726.355 1.56672 0.652077 0
M  V30 7468 H 725.127 3.4719 1.80485 0
M  V30 7469 H 724.75 2.41696 3.15703 0
M  V30 7470 N 725.747 -0.868086 1.31537 0
M  V30 7471 C 726.996 -1.61607 1.20689 0
M  V30 7472 C 727.309 -1.94204 -0.233275 0
M  V30 7473 O 728.515 -2.67515 -0.463465 0
M  V30 7474 C 726.971 -2.91348 2.11292 0
M  V30 7475 C 726.579 -2.66227 3.60315 0
M  V30 7476 C 728.323 -3.69344 2.09249 0
M  V30 7477 C 726.23 -3.91887 4.42921 0
M  V30 7478 H 725.16 -0.606373 0.448138 0
M  V30 7479 H 727.811 -0.959666 1.56405 0
M  V30 7480 H 726.193 -3.58374 1.68477 0
M  V30 7481 H 727.367 -2.07597 4.11388 0
M  V30 7482 H 725.682 -2.01582 3.64354 0
M  V30 7483 H 728.279 -4.62567 2.68209 0
M  V30 7484 H 728.622 -4.02044 1.0801 0
M  V30 7485 H 729.155 -3.09205 2.50274 0
M  V30 7486 H 725.894 -3.64336 5.44922 0
M  V30 7487 H 725.414 -4.49961 3.96605 0
M  V30 7488 H 727.093 -4.59754 4.55231 0
M  V30 7489 N 727.225 -1.14528 -1.08264 0
M  V30 7490 C 728.465 -0.924808 -1.82282 0
M  V30 7491 C 728.829 0.538881 -1.84283 0
M  V30 7492 O 730.03 0.877355 -2.54079 0
M  V30 7493 C 728.301 -1.51102 -3.23887 0
M  V30 7494 S 729.86 -1.43232 -4.14765 0
M  V30 7495 H 726.678 -0.333052 -0.62817 0
M  V30 7496 H 729.28 -1.45905 -1.30123 0
M  V30 7497 H 727.984 -2.56942 -3.20014 0
M  V30 7498 H 727.515 -0.975234 -3.8112 0
M  V30 7499 H 729.53 -0.418843 -4.94429 0
M  V30 7500 N 728.703 1.26451 -0.940633 0
M  V30 7501 C 729.633 2.28773 -0.467479 0
M  V30 7502 C 730.614 1.63218 0.478955 0
M  V30 7503 O 731.799 1.90427 0.380929 0
M  V30 7504 C 728.929 3.46259 0.268656 0
M  V30 7505 C 727.883 4.23898 -0.591171 0
M  V30 7506 C 727.209 5.33993 0.274891 0
M  V30 7507 C 728.509 4.87974 -1.86223 0
M  V30 7508 H 730.203 2.68601 -1.32265 0
M  V30 7509 H 727.749 1.29123 -0.637436 0
M  V30 7510 H 729.702 4.16951 0.610696 0
M  V30 7511 H 728.426 3.05383 1.15796 0
M  V30 7512 H 727.085 3.54969 -0.916098 0
M  V30 7513 H 726.733 4.89358 1.16353 0
M  V30 7514 H 726.433 5.86849 -0.297006 0
M  V30 7515 H 727.957 6.07523 0.612213 0
M  V30 7516 H 729.371 5.50883 -1.58747 0
M  V30 7517 H 727.768 5.50945 -2.37866 0
M  V30 7518 H 728.838 4.10945 -2.57394 0
M  V30 7519 N 730.181 0.707592 1.40822 0
M  V30 7520 C 731.111 0.0644925 2.33411 0
M  V30 7521 C 732.092 -0.754205 1.52466 0
M  V30 7522 O 733.277 -0.704749 1.80961 0
M  V30 7523 C 730.407 -0.863865 3.36385 0
M  V30 7524 C 729.361 -0.15138 4.27732 0
M  V30 7525 C 728.687 -1.19491 5.21177 0
M  V30 7526 C 729.987 0.989607 5.12839 0
M  V30 7527 H 731.681 0.837829 2.87438 0
M  V30 7528 H 729.227 0.404346 1.38207 0
M  V30 7529 H 731.18 -1.32309 4.0009 0
M  V30 7530 H 729.904 -1.66901 2.80734 0
M  V30 7531 H 728.563 0.287937 3.65467 0
M  V30 7532 H 728.211 -1.9929 4.61836 0
M  V30 7533 H 727.911 -0.723123 5.83134 0
M  V30 7534 H 729.435 -1.6544 5.8776 0
M  V30 7535 H 730.849 0.610114 5.70044 0
M  V30 7536 H 729.246 1.38926 5.83798 0
M  V30 7537 H 730.316 1.82389 4.49291 0
M  V30 7538 N 731.66 -1.50943 0.453197 0
M  V30 7539 C 732.623 -2.26684 -0.338705 0
M  V30 7540 C 733.623 -1.30748 -0.936032 0
M  V30 7541 O 734.813 -1.54327 -0.808002 0
M  V30 7542 C 731.945 -3.07063 -1.48071 0
M  V30 7543 H 733.138 -2.98131 0.325289 0
M  V30 7544 H 730.691 -1.54926 0.206771 0
M  V30 7545 H 731.426 -2.4007 -2.18029 0
M  V30 7546 H 731.211 -3.77545 -1.0584 0
M  V30 7547 H 732.701 -3.64393 -2.0398 0
M  V30 7548 N 733.138 -0.185124 -1.56509 0
M  V30 7549 C 734.086 0.756505 -2.19954 0
M  V30 7550 C 735.08 1.22725 -1.16769 0
M  V30 7551 O 736.286 1.1913 -1.34937 0
M  V30 7552 H 732.661 0.262279 -0.704779 0
M  V30 7553 H 734.632 0.197587 -2.97745 0
M  V30 7554 C 733.381 1.96975 -2.86524 0
M  V30 7555 H 732.704 1.61658 -3.65659 0
M  V30 7556 H 734.144 2.60719 -3.34367 0
M  V30 7557 C 732.603 2.80219 -1.87027 0
M  V30 7558 O 733.133 3.77821 -1.36433 0
M  V30 7559 N 731.339 2.4551 -1.55477 0
M  V30 7560 H 730.886 1.66199 -1.96813 0
M  V30 7561 H 730.844 3.01493 -0.891597 0
M  V30 7562 N 734.616 1.57351 0.0885366 0
M  V30 7563 C 735.841 1.91011 0.80805 0
M  V30 7564 C 736.266 0.780009 1.71165 0
M  V30 7565 O 735.624 -0.268083 1.79307 0
M  V30 7566 C 735.672 3.23562 1.59185 0
M  V30 7567 O 734.776 3.11615 2.7013 0
M  V30 7568 H 734.117 0.625943 0.221565 0
M  V30 7569 H 736.647 2.04507 0.0617954 0
M  V30 7570 H 736.657 3.5703 1.97468 0
M  V30 7571 H 735.332 4.05398 0.928741 0
M  V30 7572 H 733.909 2.89673 2.34827 0
M  V30 7573 N 736.094 -0.359525 1.53444 0
M  V30 7574 C 737.044 -1.441 1.7669 0
M  V30 7575 C 738.028 -1.48408 0.621599 0
M  V30 7576 O 739.22 -1.53547 0.880468 0
M  V30 7577 C 736.349 -2.81455 1.96566 0
M  V30 7578 C 735.435 -2.81601 3.17115 0
M  V30 7579 N 735.826 -2.51388 4.38905 0
M  V30 7580 C 734.124 -3.12758 3.1796 0
M  V30 7581 C 734.825 -2.59365 5.20677 0
M  V30 7582 N 733.801 -2.94328 4.57025 0
M  V30 7583 H 737.603 -1.19613 2.68458 0
M  V30 7584 H 735.117 -0.567761 1.52152 0
M  V30 7585 H 737.114 -3.59357 2.11348 0
M  V30 7586 H 735.774 -3.06901 1.06029 0
M  V30 7587 H 736.785 -2.24873 4.66533 0
M  V30 7588 H 733.462 -3.43479 2.37336 0
M  V30 7589 H 734.852 -2.39301 6.27841 0
M  V30 7590 N 737.572 -1.44907 -0.619662 0
M  V30 7591 C 738.519 -1.52654 -1.73105 0
M  V30 7592 C 739.489 -0.373334 -1.6185 0
M  V30 7593 O 740.674 -0.585143 -1.81606 0
M  V30 7594 C 737.814 -1.48769 -3.11387 0
M  V30 7595 C 736.927 -2.74551 -3.33535 0
M  V30 7596 C 736.062 -2.62421 -4.61854 0
M  V30 7597 C 735.101 -3.83312 -4.77219 0
M  V30 7598 N 734.238 -3.69789 -5.96826 0
M  V30 7599 H 739.078 -2.47605 -1.65819 0
M  V30 7600 H 736.615 -1.22875 -0.808719 0
M  V30 7601 H 738.573 -1.44507 -3.91374 0
M  V30 7602 H 737.203 -0.573783 -3.1766 0
M  V30 7603 H 736.255 -2.88953 -2.47408 0
M  V30 7604 H 737.567 -3.64253 -3.40765 0
M  V30 7605 H 736.721 -2.56056 -5.50019 0
M  V30 7606 H 735.46 -1.70298 -4.57001 0
M  V30 7607 H 734.465 -3.90049 -3.87481 0
M  V30 7608 H 735.69 -4.76486 -4.83878 0
M  V30 7609 H 733.636 -2.80426 -5.93041 0
M  V30 7610 H 733.553 -4.53116 -6.05163 0
M  V30 7611 H 734.821 -3.67335 -6.87521 0
M  V30 7612 N 739.05 0.861098 -1.31996 0
M  V30 7613 C 740.013 1.95068 -1.20338 0
M  V30 7614 C 741.013 1.60289 -0.128114 0
M  V30 7615 O 742.203 1.70048 -0.378044 0
M  V30 7616 C 739.335 3.30153 -0.849205 0
M  V30 7617 H 740.528 2.06833 -2.17164 0
M  V30 7618 H 738.081 1.05049 -1.15734 0
M  V30 7619 H 738.816 3.24087 0.117508 0
M  V30 7620 H 738.601 3.56771 -1.62655 0
M  V30 7621 H 740.091 4.10025 -0.791782 0
M  V30 7622 N 740.528 1.15101 1.07655 0
M  V30 7623 C 741.944 0.893004 1.32279 0
M  V30 7624 C 742.144 -0.461701 1.96139 0
M  V30 7625 O 741.2 -1.20431 2.21929 0
M  V30 7626 C 742.513 2.03161 2.21689 0
M  V30 7627 C 744.061 2.06579 2.35147 0
M  V30 7628 C 744.536 3.19754 3.27905 0
M  V30 7629 N 746.027 3.19382 3.35484 0
M  V30 7630 C 746.762 4.03592 4.07309 0
M  V30 7631 N 746.258 4.97859 4.81776 0
M  V30 7632 N 748.051 3.91626 4.03219 0
M  V30 7633 H 740.202 2.02341 0.645886 0
M  V30 7634 H 742.465 0.882127 0.347211 0
M  V30 7635 H 742.171 3.00934 1.82021 0
M  V30 7636 H 742.045 1.96132 3.22199 0
M  V30 7637 H 744.432 1.09408 2.74069 0
M  V30 7638 H 744.513 2.17676 1.34353 0
M  V30 7639 H 744.157 4.17175 2.89702 0
M  V30 7640 H 744.087 3.05893 4.28645 0
M  V30 7641 H 746.578 2.51112 2.82403 0
M  V30 7642 H 746.891 5.58563 5.34067 0
M  V30 7643 H 745.236 5.0185 4.80803 0
M  V30 7644 H 748.427 3.17295 3.44154 0
M  V30 7645 H 748.6 4.57479 4.5893 0
M  V30 7646 N 742.006 -1.2595 0.947325 0
M  V30 7647 C 743.234 -1.97544 0.615127 0
M  V30 7648 C 743.649 -1.70484 -0.811221 0
M  V30 7649 O 743.006 -0.97662 -1.5417 0
M  V30 7650 C 743.057 -3.51236 0.855328 0
M  V30 7651 O 742.778 -3.77359 2.22558 0
M  V30 7652 C 744.279 -4.40066 0.534515 0
M  V30 7653 H 741.499 -0.629888 0.231263 0
M  V30 7654 H 744.043 -1.60308 1.26971 0
M  V30 7655 H 742.198 -3.8661 0.247266 0
M  V30 7656 H 742.612 -4.71857 2.29022 0
M  V30 7657 H 744.086 -5.46838 0.753168 0
M  V30 7658 H 744.563 -4.35982 -0.530701 0
M  V30 7659 H 745.169 -4.10245 1.12158 0
M  V30 7660 N 743.484 -0.715051 -1.40445 0
M  V30 7661 C 744.724 -0.258742 -2.02756 0
M  V30 7662 C 745.088 1.12661 -1.55472 0
M  V30 7663 O 746.289 1.67988 -2.09842 0
M  V30 7664 C 744.56 -0.335201 -3.55825 0
M  V30 7665 S 746.119 0.044201 -4.38778 0
M  V30 7666 H 742.937 -0.102683 -0.703546 0
M  V30 7667 H 745.539 -0.937151 -1.71574 0
M  V30 7668 H 744.243 -1.34511 -3.87731 0
M  V30 7669 H 743.774 0.361705 -3.91734 0
M  V30 7670 H 745.789 1.26639 -4.79768 0
M  V30 7671 N 744.962 1.50701 -0.461195 0
M  V30 7672 C 746.378 1.59187 -0.114786 0
M  V30 7673 C 746.578 1.4702 1.37794 0
M  V30 7674 O 745.634 1.32361 2.15027 0
M  V30 7675 C 746.947 2.93453 -0.656167 0
M  V30 7676 C 748.495 3.06824 -0.618715 0
M  V30 7677 C 748.97 4.4365 -1.13747 0
M  V30 7678 N 750.461 4.50035 -1.09646 0
M  V30 7679 C 751.196 5.54278 -1.46846 0
M  V30 7680 N 750.692 6.65822 -1.91448 0
M  V30 7681 N 752.485 5.44767 -1.38512 0
M  V30 7682 H 744.636 1.56853 -1.43216 0
M  V30 7683 H 746.899 0.740712 -0.59165 0
M  V30 7684 H 746.605 3.07802 -1.7015 0
M  V30 7685 H 746.479 3.77082 -0.0942261 0
M  V30 7686 H 748.866 2.92129 0.417685 0
M  V30 7687 H 748.947 2.24976 -1.21734 0
M  V30 7688 H 748.591 4.59093 -2.17245 0
M  V30 7689 H 748.521 5.24074 -0.515153 0
M  V30 7690 H 751.012 3.69988 -0.769217 0
M  V30 7691 H 751.325 7.41413 -2.18007 0
M  V30 7692 H 749.67 6.66968 -1.95393 0
M  V30 7693 H 752.861 4.56511 -1.03516 0
M  V30 7694 H 753.034 6.25889 -1.6783 0
M  V30 7695 N 746.441 0.193421 1.56409 0
M  V30 7696 C 747.681 -0.447977 1.9943 0
M  V30 7697 C 748.045 -1.58915 1.07751 0
M  V30 7698 O 749.246 -2.29462 1.40002 0
M  V30 7699 C 747.517 -0.89793 3.45936 0
M  V30 7700 S 749.076 -1.5374 4.10986 0
M  V30 7701 H 745.894 -0.143316 0.696406 0
M  V30 7702 H 748.496 0.296093 1.93245 0
M  V30 7703 H 747.2 -0.0572927 4.1036 0
M  V30 7704 H 746.731 -1.67551 3.55936 0
M  V30 7705 H 748.746 -2.82612 4.07854 0
M  V30 7706 N 747.919 -1.57396 -0.0801906 0
M  V30 7707 C 749.335 -1.53564 -0.434778 0
M  V30 7708 C 749.535 -0.912372 -1.79661 0
M  V30 7709 O 748.591 -0.511268 -2.4727 0
M  V30 7710 C 749.904 -2.98244 -0.383561 0
M  V30 7711 C 751.452 -3.09536 -0.46435 0
M  V30 7712 C 751.927 -4.55851 -0.443128 0
M  V30 7713 N 753.418 -4.60456 -0.503448 0
M  V30 7714 C 754.153 -5.71135 -0.509106 0
M  V30 7715 N 753.649 -6.91203 -0.47008 0
M  V30 7716 N 755.442 -5.59353 -0.555035 0
M  V30 7717 H 747.593 -1.96281 0.811635 0
M  V30 7718 H 749.856 -0.898041 0.303689 0
M  V30 7719 H 749.562 -3.47369 0.550236 0
M  V30 7720 H 749.436 -3.57705 -1.19694 0
M  V30 7721 H 751.823 -2.6039 -1.38857 0
M  V30 7722 H 751.904 -2.53 0.377445 0
M  V30 7723 H 751.548 -5.05653 0.477207 0
M  V30 7724 H 751.478 -5.10242 -1.30234 0
M  V30 7725 H 753.969 -3.74048 -0.538199 0
M  V30 7726 H 754.282 -7.7132 -0.478091 0
M  V30 7727 H 752.627 -6.93625 -0.436897 0
M  V30 7728 H 755.818 -4.64453 -0.583158 0
M  V30 7729 H 755.991 -6.4561 -0.555976 0
M  V30 7730 N 749.397 0.351382 -1.53633 0
M  V30 7731 C 750.622 1.11718 -1.74739 0
M  V30 7732 C 751.047 1.81829 -0.481657 0
M  V30 7733 O 750.405 1.72264 0.565233 0
M  V30 7734 C 750.453 2.11234 -2.92254 0
M  V30 7735 O 749.557 3.186 -2.61855 0
M  V30 7736 H 748.898 0.323482 -0.579875 0
M  V30 7737 H 751.428 0.404167 -2.00568 0
M  V30 7738 H 751.438 2.54591 -3.18822 0
M  V30 7739 H 750.113 1.59599 -3.84058 0
M  V30 7740 H 748.69 2.80115 -2.4615 0
M  V30 7741 N 750.875 1.45233 0.611969 0
M  V30 7742 C 752.123 1.48727 1.36838 0
M  V30 7743 C 752.444 0.128616 1.94575 0
M  V30 7744 O 751.714 -0.84149 1.76906 0
M  V30 7745 H 750.294 0.547695 0.507976 0
M  V30 7746 H 752.956 1.81156 0.718925 0
M  V30 7747 H 752.052 2.2236 2.19003 0
M  V30 7748 N 752.353 -0.854086 1.3245 0
M  V30 7749 C 753.6 -1.60831 1.23043 0
M  V30 7750 C 753.928 -1.93389 -0.2076 0
M  V30 7751 O 753.183 -1.5756 -1.16075 0
M  V30 7752 C 753.482 -2.93746 2.03587 0
M  V30 7753 C 753.148 -2.80615 3.52939 0
M  V30 7754 C 751.81 -2.76742 3.93659 0
M  V30 7755 C 754.162 -2.66507 4.4791 0
M  V30 7756 C 751.49 -2.56638 5.27592 0
M  V30 7757 C 753.842 -2.47939 5.81987 0
M  V30 7758 C 752.506 -2.42458 6.21909 0
M  V30 7759 H 751.776 -0.588523 0.450247 0
M  V30 7760 H 754.423 -0.990699 1.63882 0
M  V30 7761 H 752.728 -3.5963 1.55478 0
M  V30 7762 H 754.425 -3.51127 1.93677 0
M  V30 7763 H 751.015 -2.84456 3.20598 0
M  V30 7764 H 755.199 -2.68544 4.1737 0
M  V30 7765 H 750.455 -2.50831 5.57579 0
M  V30 7766 H 754.629 -2.36002 6.55192 0
M  V30 7767 H 752.256 -2.2664 7.2563 0
M  V30 7768 N 753.831 -1.1567 -1.07043 0
M  V30 7769 C 755.056 -0.957946 -1.83952 0
M  V30 7770 C 755.481 0.488807 -1.81638 0
M  V30 7771 O 754.839 1.34869 -1.21162 0
M  V30 7772 C 754.887 -1.48064 -3.288 0
M  V30 7773 O 753.991 -0.681921 -4.06723 0
M  V30 7774 H 753.332 -0.341453 -0.569479 0
M  V30 7775 H 755.862 -1.53728 -1.35015 0
M  V30 7776 H 755.872 -1.49484 -3.7963 0
M  V30 7777 H 754.547 -2.53388 -3.29799 0
M  V30 7778 H 753.124 -0.737612 -3.65532 0
M  V30 7779 N 755.309 1.25446 -0.953992 0
M  V30 7780 C 756.239 2.28264 -0.491717 0
M  V30 7781 C 757.22 1.63717 0.461617 0
M  V30 7782 O 758.405 1.90821 0.36071 0
M  V30 7783 C 755.535 3.46525 0.231915 0
M  V30 7784 C 754.489 4.23247 -0.636098 0
M  V30 7785 C 753.815 5.34254 0.218238 0
M  V30 7786 C 755.115 4.85971 -1.91389 0
M  V30 7787 H 756.809 2.67183 -1.35106 0
M  V30 7788 H 754.355 1.2844 -0.651095 0
M  V30 7789 H 756.308 4.17576 0.566439 0
M  V30 7790 H 755.032 3.06594 1.12551 0
M  V30 7791 H 753.691 3.53978 -0.953696 0
M  V30 7792 H 753.339 4.90564 1.11156 0
M  V30 7793 H 753.039 5.86501 -0.359232 0
M  V30 7794 H 754.563 6.08138 0.547743 0
M  V30 7795 H 755.977 5.49168 -1.64581 0
M  V30 7796 H 754.374 5.48391 -2.43696 0
M  V30 7797 H 755.444 4.08192 -2.61738 0
M  V30 7798 N 756.787 0.722489 1.40064 0
M  V30 7799 C 758.035 0.264455 2.00362 0
M  V30 7800 C 758.356 -1.14847 1.57592 0
M  V30 7801 O 757.626 -1.77982 0.818477 0
M  V30 7802 H 756.206 0.0947846 0.740962 0
M  V30 7803 H 758.868 0.929659 1.71299 0
M  V30 7804 H 757.964 0.302977 3.10626 0
M  V30 7805 N 758.265 -1.50454 0.469181 0
M  V30 7806 C 759.49 -2.0722 -0.0864892 0
M  V30 7807 C 759.915 -1.33098 -1.32916 0
M  V30 7808 O 759.273 -0.378084 -1.77314 0
M  V30 7809 C 759.321 -3.58845 -0.355384 0
M  V30 7810 O 758.425 -3.86583 -1.43622 0
M  V30 7811 H 757.766 -0.663889 0.0121414 0
M  V30 7812 H 760.296 -1.93674 0.659674 0
M  V30 7813 H 760.306 -4.03617 -0.596447 0
M  V30 7814 H 758.981 -4.12211 0.552698 0
M  V30 7815 H 757.558 -3.5365 -1.18262 0
M  V30 7816 N 759.743 -0.201713 -1.56304 0
M  V30 7817 C 761.02 0.483273 -1.89536 0
M  V30 7818 C 761.4 1.79176 -1.11621 0
M  V30 7819 O 760.748 2.27445 -0.219339 0
M  V30 7820 C 760.958 0.695604 -3.41998 0
M  V30 7821 C 762.306 1.012 -4.12364 0
M  V30 7822 O 763.33 0.783094 -3.47485 0
M  V30 7823 O 762.189 1.44534 -5.27041 0
M  V30 7824 H 759.283 0.252801 -0.787414 0
M  V30 7825 H 761.829 -0.24242 -1.6796 0
M  V30 7826 H 760.601 -0.228165 -3.90634 0
M  V30 7827 H 760.224 1.47351 -3.69288 0
M  V30 7828 N 761.222 1.57436 0.0718424 0
M  V30 7829 C 762.47 1.86878 0.769484 0
M  V30 7830 C 762.791 0.7937 1.78116 0
M  V30 7831 O 762.061 -0.177642 1.95093 0
M  V30 7832 H 760.641 0.689593 0.287177 0
M  V30 7833 H 763.303 1.94841 0.0479427 0
M  V30 7834 H 762.399 2.84387 1.28572 0
M  V30 7835 N 762.7 -0.34323 1.53817 0
M  V30 7836 C 763.647 -1.42153 1.81827 0
M  V30 7837 C 764.617 -1.52251 0.663996 0
M  V30 7838 O 765.802 -1.67784 0.908461 0
M  V30 7839 C 762.942 -2.78799 2.03384 0
M  V30 7840 C 762.055 -2.7749 3.31094 0
M  V30 7841 C 761.19 -4.05856 3.42717 0
M  V30 7842 C 760.229 -3.98776 4.64375 0
M  V30 7843 N 759.366 -5.18833 4.73029 0
M  V30 7844 H 764.206 -1.17567 2.73829 0
M  V30 7845 H 761.743 -0.569506 1.35628 0
M  V30 7846 H 763.701 -3.58211 2.13872 0
M  V30 7847 H 762.331 -3.01736 1.14696 0
M  V30 7848 H 761.383 -1.90182 3.29446 0
M  V30 7849 H 762.695 -2.68137 4.206 0
M  V30 7850 H 761.849 -4.93691 3.52638 0
M  V30 7851 H 760.588 -4.1799 2.51267 0
M  V30 7852 H 759.593 -3.09325 4.5453 0
M  V30 7853 H 760.818 -3.88224 5.57189 0
M  V30 7854 H 758.764 -5.31511 3.84489 0
M  V30 7855 H 758.681 -5.11737 5.56472 0
M  V30 7856 H 759.949 -6.08439 4.87261 0
M  V30 7857 N 764.178 -1.45556 -0.604258 0
M  V30 7858 C 765.403 -1.53509 -1.39462 0
M  V30 7859 C 765.828 -0.169638 -1.87333 0
M  V30 7860 O 765.186 0.846346 -1.60333 0
M  V30 7861 C 765.234 -2.52654 -2.5729 0
M  V30 7862 O 764.338 -2.04666 -3.5803 0
M  V30 7863 H 763.679 -0.517355 -0.416221 0
M  V30 7864 H 766.209 -1.90939 -0.735072 0
M  V30 7865 H 766.219 -2.71568 -3.04491 0
M  V30 7866 H 764.894 -3.51823 -2.21797 0
M  V30 7867 H 763.471 -1.95643 -3.17456 0
M  V30 7868 N 765.656 0.84705 -1.32902 0
M  V30 7869 C 766.896 1.61554 -1.25218 0
M  V30 7870 C 767.26 1.91141 0.18143 0
M  V30 7871 O 768.461 2.6607 0.382106 0
M  V30 7872 C 766.732 2.89553 -2.09509 0
M  V30 7873 S 768.291 3.80283 -2.18931 0
M  V30 7874 H 765.109 0.554031 -0.445613 0
M  V30 7875 H 767.711 1.00251 -1.67839 0
M  V30 7876 H 766.415 2.65776 -3.12716 0
M  V30 7877 H 765.946 3.55868 -1.67694 0
M  V30 7878 H 767.961 4.77641 -1.34438 0
M  V30 7879 N 767.134 1.16236 1.06428 0
M  V30 7880 C 768.081 0.86769 2.13869 0
M  V30 7881 C 769.051 -0.183298 1.65086 0
M  V30 7882 O 770.236 -0.0488002 1.90738 0
M  V30 7883 C 767.376 0.373427 3.43074 0
M  V30 7884 C 766.489 1.48708 4.05598 0
M  V30 7885 C 765.624 0.947977 5.22673 0
M  V30 7886 C 764.663 2.03793 5.77178 0
M  V30 7887 N 763.8 1.51451 6.85571 0
M  V30 7888 H 768.64 1.78781 2.38414 0
M  V30 7889 H 766.177 0.891892 1.16977 0
M  V30 7890 H 768.135 0.0685035 4.17144 0
M  V30 7891 H 766.765 -0.509752 3.1875 0
M  V30 7892 H 765.817 1.908 3.29089 0
M  V30 7893 H 767.129 2.30964 4.42105 0
M  V30 7894 H 766.283 0.596154 6.03764 0
M  V30 7895 H 765.022 0.0947081 4.87608 0
M  V30 7896 H 764.027 2.39847 4.94726 0
M  V30 7897 H 765.252 2.89514 6.14295 0
M  V30 7898 H 763.198 0.683755 6.52427 0
M  V30 7899 H 763.115 2.27325 7.21013 0
M  V30 7900 H 764.383 1.19123 7.70344 0
M  V30 7901 N 768.612 -1.24939 0.960631 0
M  V30 7902 C 769.559 -2.25658 0.484459 0
M  V30 7903 C 770.529 -1.59422 -0.466242 0
M  V30 7904 O 771.714 -1.87015 -0.378169 0
M  V30 7905 C 768.854 -3.44359 -0.225958 0
M  V30 7906 C 767.967 -4.25214 0.762682 0
M  V30 7907 C 767.102 -5.31192 0.0290931 0
M  V30 7908 C 766.141 -6.03739 1.00827 0
M  V30 7909 N 765.278 -7.01437 0.305155 0
M  V30 7910 H 770.118 -2.65758 1.34821 0
M  V30 7911 H 767.655 -1.30648 0.675983 0
M  V30 7912 H 769.613 -4.12035 -0.654472 0
M  V30 7913 H 768.243 -3.05118 -1.05371 0
M  V30 7914 H 767.295 -3.57144 1.30966 0
M  V30 7915 H 768.607 -4.75406 1.50964 0
M  V30 7916 H 767.761 -6.04971 -0.457763 0
M  V30 7917 H 766.5 -4.81889 -0.750614 0
M  V30 7918 H 765.505 -5.2877 1.50607 0
M  V30 7919 H 766.73 -6.55131 1.7883 0
M  V30 7920 H 764.676 -6.54415 -0.455704 0
M  V30 7921 H 764.593 -7.49475 0.991104 0
M  V30 7922 H 765.861 -7.79336 -0.159966 0
M  V30 7923 N 770.09 -0.729906 -1.39679 0
M  V30 7924 C 771.501 -0.346241 -1.83461 0
M  V30 7925 C 771.852 1.1215 -1.60987 0
M  V30 7926 O 770.977 1.86456 -1.09832 0
M  V30 7927 C 771.572 -0.621656 -3.33048 0
M  V30 7928 C 770.131 -0.291543 -3.75269 0
M  V30 7929 C 769.278 -0.886844 -2.62736 0
M  V30 7930 H 772.229 -0.927949 -1.28743 0
M  V30 7931 H 772.25 0.108301 -3.80346 0
M  V30 7932 H 771.762 -1.68996 -3.49373 0
M  V30 7933 H 769.863 0.771133 -3.64533 0
M  V30 7934 H 769.976 -0.770544 -4.72863 0
M  V30 7935 H 768.34 -0.313839 -2.52759 0
M  V30 7936 H 769.123 -1.95971 -2.81869 0
M  V30 7937 N 771.568 1.50203 -0.477153 0
M  V30 7938 C 772.478 2.32421 0.319027 0
M  V30 7939 C 773.494 1.43075 0.990233 0
M  V30 7940 O 774.67 1.76123 0.976873 0
M  V30 7941 C 771.735 3.17909 1.38328 0
M  V30 7942 C 770.796 4.23082 0.728036 0
M  V30 7943 C 770.029 5.04484 1.74158 0
M  V30 7944 O 770.252 4.8705 2.96881 0
M  V30 7945 O 769.186 5.8747 1.31006 0
M  V30 7946 H 773.012 3.01638 -0.353281 0
M  V30 7947 H 770.597 1.47478 -0.238891 0
M  V30 7948 H 772.479 3.70937 1.9996 0
M  V30 7949 H 771.154 2.51413 2.03895 0
M  V30 7950 H 770.061 3.7403 0.07261 0
M  V30 7951 H 771.394 4.92065 0.115216 0
M  V30 7952 N 773.046 0.209999 1.56195 0
M  V30 7953 C 773.996 -0.717978 2.164 0
M  V30 7954 C 774.98 -1.16577 1.10899 0
M  V30 7955 O 776.172 -1.12169 1.3692 0
M  V30 7956 C 773.301 -1.93091 2.8385 0
M  V30 7957 C 772.387 -1.50333 3.96561 0
M  V30 7958 N 772.778 -0.787621 4.9963 0
M  V30 7959 C 771.076 -1.79151 4.08437 0
M  V30 7960 C 771.777 -0.571204 5.78889 0
M  V30 7961 N 770.753 -1.12444 5.31843 0
M  V30 7962 H 774.555 -0.162603 2.9345 0
M  V30 7963 H 772.069 0.0107928 1.62396 0
M  V30 7964 H 774.066 -2.60635 3.25384 0
M  V30 7965 H 772.726 -2.49087 2.08293 0
M  V30 7966 H 773.737 -0.441513 5.16015 0
M  V30 7967 H 770.414 -2.36549 3.44022 0
M  V30 7968 H 771.804 -0.00237941 6.719 0
M  V30 7969 N 774.524 -1.57472 -0.0634922 0
M  V30 7970 C 775.434 -2.07621 -1.09227 0
M  V30 7971 C 776.45 -1.00746 -1.41867 0
M  V30 7972 O 777.626 -1.32269 -1.51878 0
M  V30 7973 C 774.691 -2.51707 -2.38421 0
M  V30 7974 C 773.752 -3.72917 -2.12676 0
M  V30 7975 C 772.985 -4.14891 -3.3571 0
M  V30 7976 O 773.208 -3.56663 -4.45137 0
M  V30 7977 O 772.142 -5.07616 -3.23434 0
M  V30 7978 H 775.968 -2.95612 -0.696205 0
M  V30 7979 H 773.553 -1.46787 -0.27819 0
M  V30 7980 H 775.435 -2.80547 -3.14438 0
M  V30 7981 H 774.11 -1.66842 -2.77391 0
M  V30 7982 H 773.017 -3.49148 -1.34337 0
M  V30 7983 H 774.35 -4.5866 -1.78583 0
M  V30 7984 N 776.003 0.335068 -1.53997 0
M  V30 7985 C 776.933 1.41727 -1.85568 0
M  V30 7986 C 777.914 1.54505 -0.7115 0
M  V30 7987 O 779.099 1.68573 -0.964191 0
M  V30 7988 C 776.229 2.7866 -2.07282 0
M  V30 7989 C 775.183 2.80682 -3.23112 0
M  V30 7990 C 774.509 4.20581 -3.30175 0
M  V30 7991 C 775.809 2.45458 -4.61029 0
M  V30 7992 H 777.503 1.15555 -2.76202 0
M  V30 7993 H 775.049 0.554445 -1.32898 0
M  V30 7994 H 777.002 3.54423 -2.27952 0
M  V30 7995 H 775.726 3.06286 -1.13387 0
M  V30 7996 H 774.385 2.07373 -3.02311 0
M  V30 7997 H 774.033 4.4533 -2.33859 0
M  V30 7998 H 773.733 4.22843 -4.08016 0
M  V30 7999 H 775.257 4.98174 -3.53066 0
M  V30 8000 H 776.671 3.10934 -4.81656 0
M  V30 8001 H 775.068 2.5899 -5.41336 0
M  V30 8002 H 776.138 1.40628 -4.6406 0
M  V30 8003 N 777.481 1.45874 0.596531 0
M  V30 8004 C 778.728 1.50467 1.35521 0
M  V30 8005 C 779.056 0.150802 1.93915 0
M  V30 8006 O 778.311 -0.851913 1.76184 0
M  V30 8007 C 778.61 2.54034 2.51399 0
M  V30 8008 C 778.276 3.9844 2.11085 0
M  V30 8009 C 776.938 4.37758 1.99804 0
M  V30 8010 C 779.29 4.89209 1.79788 0
M  V30 8011 C 776.618 5.65727 1.55465 0
M  V30 8012 C 778.97 6.17602 1.36931 0
M  V30 8013 C 777.634 6.5584 1.24218 0
M  V30 8014 H 776.904 0.550597 0.495907 0
M  V30 8015 H 779.551 1.79279 0.673145 0
M  V30 8016 H 777.856 2.18832 3.24992 0
M  V30 8017 H 779.553 2.54822 3.09624 0
M  V30 8018 H 776.143 3.67353 2.20794 0
M  V30 8019 H 780.327 4.59562 1.87395 0
M  V30 8020 H 775.583 5.94139 1.44253 0
M  V30 8021 H 779.757 6.87373 1.11764 0
M  V30 8022 H 777.384 7.54897 0.896353 0
M  V30 8023 N 778.959 -0.83999 1.33349 0
M  V30 8024 C 779.889 -1.965 1.26135 0
M  V30 8025 C 780.87 -1.69505 0.142152 0
M  V30 8026 O 782.055 -1.91346 0.331743 0
M  V30 8027 C 779.185 -3.32632 0.99866 0
M  V30 8028 C 778.139 -3.74021 2.08068 0
M  V30 8029 C 777.465 -5.07947 1.67014 0
M  V30 8030 C 778.765 -3.87925 3.49731 0
M  V30 8031 H 780.459 -2.02793 2.20262 0
M  V30 8032 H 778.005 -0.974297 1.06035 0
M  V30 8033 H 779.958 -4.10903 0.934696 0
M  V30 8034 H 778.682 -3.26593 0.0217759 0
M  V30 8035 H 777.341 -2.98012 2.13505 0
M  V30 8036 H 776.989 -4.98378 0.680316 0
M  V30 8037 H 776.689 -5.36611 2.39422 0
M  V30 8038 H 778.213 -5.88695 1.62082 0
M  V30 8039 H 779.627 -4.5651 3.46802 0
M  V30 8040 H 778.024 -4.28023 4.20614 0
M  V30 8041 H 779.094 -2.90407 3.88319 0
M  V30 8042 N 780.437 -1.16799 -1.0581 0
M  V30 8043 C 781.683 -0.953935 -1.78963 0
M  V30 8044 C 782.016 0.516638 -1.87202 0
M  V30 8045 O 781.291 1.38338 -1.36721 0
M  V30 8046 C 781.574 -1.58808 -3.23191 0
M  V30 8047 C 781.427 -3.13032 -3.23003 0
M  V30 8048 C 782.746 -1.2868 -4.20867 0
M  V30 8049 H 779.865 -0.347972 -0.64968 0
M  V30 8050 H 782.507 -1.44204 -1.23715 0
M  V30 8051 H 780.657 -1.17303 -3.70368 0
M  V30 8052 H 782.329 -3.63553 -2.83949 0
M  V30 8053 H 780.572 -3.46108 -2.61518 0
M  V30 8054 H 781.243 -3.52527 -4.24769 0
M  V30 8055 H 783.719 -1.6461 -3.82155 0
M  V30 8056 H 782.595 -1.75645 -5.20038 0
M  V30 8057 H 782.856 -0.206491 -4.41618 0
M  V30 8058 N 781.915 1.24427 -0.967243 0
M  V30 8059 C 783.145 1.96256 -0.64554 0
M  V30 8060 C 783.553 1.71959 0.789098 0
M  V30 8061 O 782.896 0.999913 1.54102 0
M  V30 8062 C 782.958 3.49553 -0.839798 0
M  V30 8063 C 782.622 3.97548 -2.25399 0
M  V30 8064 C 783.619 4.07257 -3.23168 0
M  V30 8065 C 781.304 4.30884 -2.58156 0
M  V30 8066 C 783.298 4.49635 -4.51782 0
M  V30 8067 C 780.985 4.72946 -3.86996 0
M  V30 8068 C 781.983 4.82286 -4.83621 0
M  V30 8069 O 781.671 5.23409 -6.10162 0
M  V30 8070 H 781.403 0.632002 -0.239895 0
M  V30 8071 H 783.957 1.59224 -1.29757 0
M  V30 8072 H 782.187 3.86479 -0.130603 0
M  V30 8073 H 783.876 4.02591 -0.517249 0
M  V30 8074 H 784.642 3.8172 -2.9919 0
M  V30 8075 H 780.521 4.22833 -1.83666 0
M  V30 8076 H 784.065 4.5684 -5.27203 0
M  V30 8077 H 779.962 4.9793 -4.10775 0
M  V30 8078 H 780.73 5.4156 -6.13722 0
M  V30 8079 N 783.393 0.737304 1.3929 0
M  V30 8080 C 784.641 0.285691 2.00071 0
M  V30 8081 C 784.962 -1.13169 1.58801 0
M  V30 8082 O 784.232 -1.77104 0.837308 0
M  V30 8083 H 782.812 0.102638 0.739915 0
M  V30 8084 H 785.474 0.947775 1.70303 0
M  V30 8085 H 784.57 0.335906 3.10287 0
M  V30 8086 N 784.871 -1.49948 0.485112 0
M  V30 8087 C 785.818 -2.28819 -0.301729 0
M  V30 8088 C 786.788 -1.34496 -0.974683 0
M  V30 8089 O 787.973 -1.63444 -0.984418 0
M  V30 8090 C 785.113 -3.16758 -1.36961 0
M  V30 8091 C 784.226 -4.26125 -0.710027 0
M  V30 8092 C 783.361 -5.01302 -1.75699 0
M  V30 8093 C 782.4 -6.02525 -1.07841 0
M  V30 8094 N 781.537 -6.70927 -2.06886 0
M  V30 8095 H 786.377 -2.95604 0.377127 0
M  V30 8096 H 783.914 -1.45764 0.197826 0
M  V30 8097 H 785.872 -3.66106 -2.00056 0
M  V30 8098 H 784.502 -2.51991 -2.01744 0
M  V30 8099 H 783.554 -3.80385 0.0338278 0
M  V30 8100 H 784.866 -4.98493 -0.175079 0
M  V30 8101 H 784.02 -5.54438 -2.46339 0
M  V30 8102 H 782.759 -4.28672 -2.32577 0
M  V30 8103 H 781.764 -5.48635 -0.357706 0
M  V30 8104 H 782.989 -6.77134 -0.516345 0
M  V30 8105 H 780.935 -6.01079 -2.62755 0
M  V30 8106 H 780.852 -7.39216 -1.58414 0
M  V30 8107 H 782.12 -7.28675 -2.76863 0
M  V30 8108 N 786.349 -0.21828 -1.56081 0
M  V30 8109 C 787.597 0.413488 -1.97825 0
M  V30 8110 C 787.918 1.60527 -1.10707 0
M  V30 8111 O 787.188 1.9504 -0.183378 0
M  V30 8112 H 785.768 0.155757 -0.730581 0
M  V30 8113 H 788.43 -0.310413 -1.92412 0
M  V30 8114 H 787.526 0.742024 -3.03151 0
M  V30 8115 N 787.827 1.57504 0.0551401 0
M  V30 8116 C 789.243 1.54236 0.410292 0
M  V30 8117 C 789.443 0.940839 1.78187 0
M  V30 8118 O 788.499 0.550541 2.46425 0
M  V30 8119 C 789.812 2.98816 0.336064 0
M  V30 8120 C 791.36 3.10236 0.415047 0
M  V30 8121 C 791.835 4.56499 0.37055 0
M  V30 8122 N 793.326 4.61199 0.43013 0
M  V30 8123 C 794.061 5.71873 0.418179 0
M  V30 8124 N 793.557 6.91864 0.360056 0
M  V30 8125 N 795.35 5.60165 0.465977 0
M  V30 8126 H 787.501 1.94965 -0.842759 0
M  V30 8127 H 789.764 0.893096 -0.317937 0
M  V30 8128 H 789.47 3.4645 -0.605429 0
M  V30 8129 H 789.344 3.59564 1.13988 0
M  V30 8130 H 791.731 2.62566 1.34697 0
M  V30 8131 H 791.812 2.52367 -0.417648 0
M  V30 8132 H 791.456 5.0483 -0.557592 0
M  V30 8133 H 791.386 5.12249 1.221 0
M  V30 8134 H 793.877 3.74857 0.478623 0
M  V30 8135 H 794.19 7.71983 0.35532 0
M  V30 8136 H 792.535 6.94233 0.326492 0
M  V30 8137 H 795.726 4.65322 0.509194 0
M  V30 8138 H 795.899 6.46413 0.453194 0
M  V30 8139 N 789.305 -0.326896 1.54172 0
M  V30 8140 C 790.716 -0.901533 1.63491 0
M  V30 8141 C 791.067 -1.88994 0.52684 0
M  V30 8142 O 790.192 -2.137 -0.340794 0
M  V30 8143 C 790.787 -1.64192 2.96355 0
M  V30 8144 C 789.346 -2.16533 3.07881 0
M  V30 8145 C 788.493 -0.98966 2.59039 0
M  V30 8146 H 791.444 -0.104568 1.58355 0
M  V30 8147 H 791.465 -2.50592 2.86328 0
M  V30 8148 H 790.977 -0.922291 3.76982 0
M  V30 8149 H 789.078 -2.91622 2.31922 0
M  V30 8150 H 789.191 -2.41762 4.13628 0
M  V30 8151 H 787.555 -1.36787 2.14852 0
M  V30 8152 H 788.338 -0.284401 3.4212 0
M  V30 8153 N 790.784 -1.46188 -0.588786 0
M  V30 8154 C 792.032 -1.50885 -1.34455 0
M  V30 8155 C 792.353 -0.159555 -1.94346 0
M  V30 8156 O 791.623 0.813239 -1.78222 0
M  V30 8157 H 790.203 -0.555707 -0.499198 0
M  V30 8158 H 792.865 -1.82277 -0.690014 0
M  V30 8159 H 791.961 -2.25816 -2.15438 0
M  V30 8160 N 792.262 0.832906 -1.33792 0
M  V30 8161 C 793.511 1.58351 -1.24932 0
M  V30 8162 C 793.824 1.94754 0.181703 0
M  V30 8163 O 795.03 2.6865 0.392375 0
M  V30 8164 C 793.486 2.85643 -2.18943 0
M  V30 8165 C 793.094 2.56581 -3.67247 0
M  V30 8166 C 794.838 3.63667 -2.18968 0
M  V30 8167 C 792.745 3.80006 -4.53155 0
M  V30 8168 H 791.675 0.594278 -0.464058 0
M  V30 8169 H 794.326 0.91786 -1.58895 0
M  V30 8170 H 792.708 3.53781 -1.77919 0
M  V30 8171 H 793.882 1.96617 -4.16747 0
M  V30 8172 H 792.197 1.91851 -3.6957 0
M  V30 8173 H 794.794 4.55293 -2.80379 0
M  V30 8174 H 795.137 3.99039 -1.18631 0
M  V30 8175 H 795.67 3.0246 -2.58384 0
M  V30 8176 H 792.409 3.4976 -5.5439 0
M  V30 8177 H 791.929 4.39288 -4.08395 0
M  V30 8178 H 793.608 4.47523 -4.6726 0
M  V30 8179 N 793.74 1.17359 1.05189 0
M  V30 8180 C 794.989 0.956412 1.77583 0
M  V30 8181 C 795.302 -0.516018 1.88671 0
M  V30 8182 O 796.508 -0.851401 2.57805 0
M  V30 8183 C 794.964 1.66203 3.19225 0
M  V30 8184 C 794.572 3.17299 3.16267 0
M  V30 8185 C 796.316 1.52725 3.96075 0
M  V30 8186 C 794.223 3.8055 4.52698 0
M  V30 8187 H 793.153 0.354204 0.665624 0
M  V30 8188 H 795.804 1.40612 1.17901 0
M  V30 8189 H 794.186 1.14006 3.79234 0
M  V30 8190 H 795.36 3.76431 2.65776 0
M  V30 8191 H 793.675 3.3079 2.52917 0
M  V30 8192 H 796.272 1.97351 4.96947 0
M  V30 8193 H 796.615 0.477803 4.13549 0
M  V30 8194 H 797.148 2.02139 3.42614 0
M  V30 8195 H 793.887 4.85492 4.4043 0
M  V30 8196 H 793.407 3.26206 5.03339 0
M  V30 8197 H 795.086 3.82757 5.21638 0
M  V30 8198 N 795.218 -1.23913 0.973828 0
M  V30 8199 C 796.634 -1.44325 0.681363 0
M  V30 8200 C 796.834 -1.86832 -0.754728 0
M  V30 8201 O 795.89 -2.01024 -1.52793 0
M  V30 8202 C 797.203 -2.50017 1.67069 0
M  V30 8203 C 798.751 -2.63838 1.68399 0
M  V30 8204 C 799.226 -3.72734 2.66145 0
M  V30 8205 N 800.717 -3.80169 2.64624 0
M  V30 8206 C 801.452 -4.6397 3.36927 0
M  V30 8207 N 800.948 -5.51911 4.18767 0
M  V30 8208 N 802.741 -4.58106 3.25722 0
M  V30 8209 H 794.892 -0.946204 1.9016 0
M  V30 8210 H 797.155 -0.477374 0.819035 0
M  V30 8211 H 796.861 -2.25686 2.69738 0
M  V30 8212 H 796.735 -3.48287 1.4483 0
M  V30 8213 H 799.122 -2.87524 0.664379 0
M  V30 8214 H 799.203 -1.65906 1.94702 0
M  V30 8215 H 798.847 -3.49797 3.68245 0
M  V30 8216 H 798.777 -4.70193 2.3712 0
M  V30 8217 H 801.268 -3.17319 2.05224 0
M  V30 8218 H 801.581 -6.12828 4.70809 0
M  V30 8219 H 799.926 -5.51556 4.2286 0
M  V30 8220 H 803.117 -3.8842 2.61242 0
M  V30 8221 H 803.29 -5.23188 3.82333 0
M  V30 8222 N 796.696 -0.74468 -1.38897 0
M  V30 8223 C 797.944 -0.296298 -1.99916 0
M  V30 8224 C 798.265 1.12325 -1.59399 0
M  V30 8225 O 797.535 1.76658 -0.846689 0
M  V30 8226 H 796.115 -0.106561 -0.73936 0
M  V30 8227 H 798.777 -0.956793 -1.69798 0
M  V30 8228 H 797.873 -0.352356 -3.10105 0
M  V30 8229 N 798.174 1.49689 -0.493057 0
M  V30 8230 C 799.107 2.25712 0.336062 0
M  V30 8231 C 800.085 1.29953 0.977294 0
M  V30 8232 O 801.269 1.59225 1.00895 0
M  V30 8233 C 798.396 3.0501 1.47263 0
M  V30 8234 C 797.442 4.15863 0.946575 0
M  V30 8235 S 798.275 5.35272 -0.156323 0
M  V30 8236 C 799.431 6.18123 0.983601 0
M  V30 8237 H 799.664 2.95688 -0.309215 0
M  V30 8238 H 797.197 1.51872 -0.278238 0
M  V30 8239 H 799.155 3.51284 2.12391 0
M  V30 8240 H 797.816 2.34519 2.08949 0
M  V30 8241 H 797.009 4.70834 1.7981 0
M  V30 8242 H 796.611 3.72139 0.372647 0
M  V30 8243 H 798.903 6.50588 1.89056 0
M  V30 8244 H 799.846 7.06521 0.472687 0
M  V30 8245 H 800.254 5.50547 1.24735 0
M  V30 8246 N 799.652 0.226554 1.55963 0
M  V30 8247 C 800.929 -0.453058 1.90281 0
M  V30 8248 C 801.309 -1.77377 1.14458 0
M  V30 8249 O 800.657 -2.27067 0.255496 0
M  V30 8250 C 800.867 -0.641108 3.43061 0
M  V30 8251 C 802.215 -0.946265 4.13921 0
M  V30 8252 O 803.239 -0.727713 3.48687 0
M  V30 8253 O 802.098 -1.36131 5.29274 0
M  V30 8254 H 799.192 -0.240242 0.791336 0
M  V30 8255 H 801.738 0.26911 1.67553 0
M  V30 8256 H 800.51 0.290283 3.90222 0
M  V30 8257 H 800.133 -1.41458 3.71585 0
M  V30 8258 N 801.13 -1.57531 -0.0467866 0
M  V30 8259 C 802.063 -2.00734 -1.08541 0
M  V30 8260 C 803.041 -0.888508 -1.36177 0
M  V30 8261 O 804.225 -1.1529 -1.49132 0
M  V30 8262 C 801.352 -2.36535 -2.42423 0
M  V30 8263 C 800.398 -3.58681 -2.3076 0
M  V30 8264 S 801.231 -5.08536 -1.67785 0
M  V30 8265 C 802.387 -5.47562 -3.03194 0
M  V30 8266 H 802.62 -2.88516 -0.717345 0
M  V30 8267 H 800.153 -1.5226 -0.256181 0
M  V30 8268 H 802.111 -2.57834 -3.19424 0
M  V30 8269 H 800.772 -1.49236 -2.76382 0
M  V30 8270 H 799.965 -3.81329 -3.29552 0
M  V30 8271 H 799.567 -3.37142 -1.61899 0
M  V30 8272 H 801.859 -5.47163 -3.99524 0
M  V30 8273 H 802.802 -6.48082 -2.85299 0
M  V30 8274 H 803.21 -4.75042 -3.04951 0
M  V30 8275 N 802.608 0.318715 -1.54344 0
M  V30 8276 C 803.856 1.054 -1.72439 0
M  V30 8277 C 804.177 1.88388 -0.503495 0
M  V30 8278 O 803.447 1.89866 0.48246 0
M  V30 8279 H 802.027 0.392124 -0.635805 0
M  V30 8280 H 804.689 0.35398 -1.91659 0
M  V30 8281 H 803.785 1.71726 -2.60608 0
M  V30 8282 N 804.086 1.46499 0.581025 0
M  V30 8283 C 805.049 1.5677 1.672 0
M  V30 8284 C 806.049 0.444716 1.54528 0
M  V30 8285 O 807.239 0.709074 1.59116 0
M  V30 8286 C 804.371 1.4896 3.06633 0
M  V30 8287 H 805.564 2.54 1.5945 0
M  V30 8288 H 803.117 1.34334 0.799003 0
M  V30 8289 H 803.852 0.530168 3.19937 0
M  V30 8290 H 803.637 2.30439 3.17239 0
M  V30 8291 H 805.127 1.59237 3.86048 0
M  V30 8292 N 805.565 -0.825799 1.34232 0
M  V30 8293 C 806.512 -1.93651 1.2557 0
M  V30 8294 C 807.482 -1.65578 0.131536 0
M  V30 8295 O 808.667 -1.88231 0.312027 0
M  V30 8296 C 805.807 -3.29862 1.01415 0
M  V30 8297 C 804.92 -3.70247 2.22579 0
M  V30 8298 C 804.055 -4.95392 1.91731 0
M  V30 8299 C 803.094 -5.28349 3.09053 0
M  V30 8300 N 802.231 -6.44671 2.78107 0
M  V30 8301 H 807.071 -2.00392 2.20561 0
M  V30 8302 H 804.608 -0.980441 1.09662 0
M  V30 8303 H 806.566 -4.08356 0.854485 0
M  V30 8304 H 805.196 -3.22642 0.100936 0
M  V30 8305 H 804.248 -2.87169 2.49476 0
M  V30 8306 H 805.56 -3.90575 3.10246 0
M  V30 8307 H 804.714 -5.81665 1.72484 0
M  V30 8308 H 803.453 -4.77059 1.0132 0
M  V30 8309 H 802.458 -4.40574 3.289 0
M  V30 8310 H 803.683 -5.48622 4.00239 0
M  V30 8311 H 801.629 -6.278 1.9027 0
M  V30 8312 H 801.546 -6.65158 3.59306 0
M  V30 8313 H 802.814 -7.34022 2.62358 0
M  V30 8314 N 807.043 -1.17915 -1.04565 0
M  V30 8315 C 808.289 -0.972863 -1.77942 0
M  V30 8316 C 808.622 0.496753 -1.87739 0
M  V30 8317 O 807.897 1.3688 -1.38181 0
M  V30 8318 C 808.18 -1.62227 -3.21488 0
M  V30 8319 C 808.033 -3.16441 -3.19664 0
M  V30 8320 C 809.352 -1.33137 -4.19479 0
M  V30 8321 H 806.471 -0.354843 -0.645953 0
M  V30 8322 H 809.113 -1.45508 -1.22178 0
M  V30 8323 H 807.263 -1.21224 -3.69103 0
M  V30 8324 H 808.935 -3.66544 -2.80077 0
M  V30 8325 H 807.178 -3.48863 -2.57832 0
M  V30 8326 H 807.849 -3.57012 -4.21006 0
M  V30 8327 H 810.325 -1.68654 -3.80388 0
M  V30 8328 H 809.201 -1.81151 -5.18146 0
M  V30 8329 H 809.462 -0.253319 -4.41374 0
M  V30 8330 N 808.521 1.23394 -0.980386 0
M  V30 8331 C 809.932 1.73631 -0.686239 0
M  V30 8332 C 810.283 1.79259 0.797541 0
M  V30 8333 O 809.408 1.43046 1.62379 0
M  V30 8334 C 810.003 3.15332 -1.239 0
M  V30 8335 C 808.562 3.63024 -0.994494 0
M  V30 8336 C 807.709 2.41279 -1.36673 0
M  V30 8337 H 810.66 1.08918 -1.15423 0
M  V30 8338 H 810.681 3.75556 -0.611414 0
M  V30 8339 H 810.193 3.11204 -2.31892 0
M  V30 8340 H 808.294 3.72535 0.0693492 0
M  V30 8341 H 808.407 4.49825 -1.64906 0
M  V30 8342 H 806.771 2.42295 -0.785195 0
M  V30 8343 H 807.554 2.39822 -2.45642 0
M  V30 8344 N 809.999 0.752036 1.385 0
M  V30 8345 C 811.276 0.233075 1.94206 0
M  V30 8346 C 811.656 -1.26838 1.68746 0
M  V30 8347 O 811.004 -2.04214 1.02513 0
M  V30 8348 C 811.214 0.58509 3.44061 0
M  V30 8349 C 812.562 0.543871 4.21102 0
M  V30 8350 O 813.586 0.523291 3.52335 0
M  V30 8351 O 812.445 0.553436 5.4369 0
M  V30 8352 H 809.539 0.0483049 0.825588 0
M  V30 8353 H 812.085 0.832053 1.47902 0
M  V30 8354 H 810.857 1.62212 3.56094 0
M  V30 8355 H 810.48 -0.0419738 3.97578 0
M  V30 8356 N 811.477 -1.49425 0.500989 0
M  V30 8357 C 812.387 -2.32899 -0.282011 0
M  V30 8358 C 813.403 -1.44632 -0.967346 0
M  V30 8359 O 814.579 -1.77654 -0.94873 0
M  V30 8360 C 811.644 -3.20069 -1.33253 0
M  V30 8361 C 810.705 -4.24186 -0.660636 0
M  V30 8362 C 809.938 -5.07191 -1.6611 0
M  V30 8363 O 810.161 -4.91712 -2.89094 0
M  V30 8364 O 809.095 -5.8948 -1.21643 0
M  V30 8365 H 812.921 -3.01038 0.401224 0
M  V30 8366 H 810.506 -1.47079 0.262323 0
M  V30 8367 H 812.388 -3.74071 -1.94033 0
M  V30 8368 H 811.063 -2.54625 -1.9987 0
M  V30 8369 H 809.97 -3.74098 -0.0130959 0
M  V30 8370 H 811.303 -4.92186 -0.0369179 0
M  V30 8371 N 812.955 -0.234822 -1.55841 0
M  V30 8372 C 813.905 0.68346 -2.17515 0
M  V30 8373 C 814.889 1.14798 -1.1274 0
M  V30 8374 O 816.081 1.09976 -1.38688 0
M  V30 8375 C 813.21 1.88551 -2.86886 0
M  V30 8376 C 812.296 1.44006 -3.98903 0
M  V30 8377 N 812.687 0.708034 -5.0082 0
M  V30 8378 C 810.985 1.7263 -4.11236 0
M  V30 8379 C 811.686 0.479036 -5.79724 0
M  V30 8380 N 810.662 1.03968 -5.33565 0
M  V30 8381 H 814.464 0.115897 -2.93671 0
M  V30 8382 H 811.978 -0.0366273 -1.62359 0
M  V30 8383 H 813.975 2.55425 -3.2949 0
M  V30 8384 H 812.635 2.45742 -2.12229 0
M  V30 8385 H 813.646 0.359363 -5.16652 0
M  V30 8386 H 810.323 2.31046 -3.47741 0
M  V30 8387 H 811.713 -0.104514 -6.71819 0
M  V30 8388 N 814.433 1.57553 0.0384317 0
M  V30 8389 C 815.366 2.01307 1.07475 0
M  V30 8390 C 816.344 0.895717 1.35704 0
M  V30 8391 O 817.528 1.16079 1.48519 0
M  V30 8392 C 814.655 2.37817 2.41165 0
M  V30 8393 C 813.701 3.599 2.28855 0
M  V30 8394 S 814.534 5.09418 1.65086 0
M  V30 8395 C 815.69 5.49162 3.00286 0
M  V30 8396 H 815.923 2.88892 0.702034 0
M  V30 8397 H 813.456 1.52394 0.248103 0
M  V30 8398 H 815.414 2.59524 3.18053 0
M  V30 8399 H 814.075 1.507 2.75587 0
M  V30 8400 H 813.268 3.83071 3.27525 0
M  V30 8401 H 812.87 3.37996 1.60109 0
M  V30 8402 H 815.162 5.49274 3.96617 0
M  V30 8403 H 816.105 6.49586 2.81858 0
M  V30 8404 H 816.513 4.76653 3.02427 0
M  V30 8405 N 815.911 -0.310526 1.54511 0
M  V30 8406 C 817.16 -1.0445 1.72549 0
M  V30 8407 C 817.473 -1.88748 0.513172 0
M  V30 8408 O 818.679 -2.65338 0.575165 0
M  V30 8409 C 817.135 -1.90665 3.05246 0
M  V30 8410 C 816.743 -1.11415 4.33925 0
M  V30 8411 C 818.487 -2.63719 3.32645 0
M  V30 8412 C 816.394 -1.96852 5.57677 0
M  V30 8413 H 815.324 -0.393676 0.643067 0
M  V30 8414 H 817.975 -0.302003 1.80998 0
M  V30 8415 H 816.357 -2.68864 2.90737 0
M  V30 8416 H 817.531 -0.378956 4.59239 0
M  V30 8417 H 815.846 -0.499853 4.13389 0
M  V30 8418 H 818.443 -3.27974 4.223 0
M  V30 8419 H 818.786 -3.32047 2.51098 0
M  V30 8420 H 819.319 -1.92574 3.48081 0
M  V30 8421 H 816.058 -1.33009 6.41864 0
M  V30 8422 H 815.578 -2.68069 5.36562 0
M  V30 8423 H 817.257 -2.55127 5.94575 0
M  V30 8424 N 817.389 -1.46805 -0.573248 0
M  V30 8425 C 818.8 -1.46655 -1.15539 0
M  V30 8426 C 819.151 -0.2125 -1.95046 0
M  V30 8427 O 818.276 0.683759 -2.05314 0
M  V30 8428 C 818.871 -2.65711 -2.10198 0
M  V30 8429 C 817.43 -2.68572 -2.63716 0
M  V30 8430 C 816.577 -2.39498 -1.39772 0
M  V30 8431 H 819.528 -1.54547 -0.36068 0
M  V30 8432 H 819.549 -2.41768 -2.93817 0
M  V30 8433 H 819.061 -3.56967 -1.52303 0
M  V30 8434 H 817.162 -1.81414 -3.25453 0
M  V30 8435 H 817.275 -3.68809 -3.05805 0
M  V30 8436 H 815.639 -1.89749 -1.69904 0
M  V30 8437 H 816.422 -3.32942 -0.836943 0
M  V30 8438 N 818.867 0.818669 -1.34668 0
M  V30 8439 C 820.116 1.57017 -1.26604 0
M  V30 8440 C 820.429 1.94936 0.161036 0
M  V30 8441 O 821.635 2.69051 0.36386 0
M  V30 8442 C 820.091 2.83305 -2.2196 0
M  V30 8443 C 819.699 2.52671 -3.69948 0
M  V30 8444 C 821.443 3.61324 -2.22813 0
M  V30 8445 C 819.35 3.75178 -4.5716 0
M  V30 8446 H 818.28 0.589323 -0.470335 0
M  V30 8447 H 820.931 0.900956 -1.59859 0
M  V30 8448 H 819.313 3.51874 -1.81661 0
M  V30 8449 H 820.487 1.92186 -4.18809 0
M  V30 8450 H 818.802 1.8792 -3.71584 0
M  V30 8451 H 821.399 4.52294 -2.85192 0
M  V30 8452 H 821.742 3.97759 -1.22857 0
M  V30 8453 H 822.275 2.99703 -2.61578 0
M  V30 8454 H 819.014 3.43861 -5.58068 0
M  V30 8455 H 818.534 4.34931 -4.13031 0
M  V30 8456 H 820.213 4.42542 -4.71981 0
M  V30 8457 N 820.346 1.18468 1.03938 0
M  V30 8458 C 821.256 0.927889 2.1547 0
M  V30 8459 C 822.272 -0.108447 1.73662 0
M  V30 8460 O 823.448 0.0737636 2.01265 0
M  V30 8461 C 820.513 0.458494 3.43655 0
M  V30 8462 C 819.574 1.56295 3.99838 0
M  V30 8463 C 818.807 1.11586 5.21904 0
M  V30 8464 O 819.03 -0.0249057 5.70395 0
M  V30 8465 O 817.964 1.91412 5.70653 0
M  V30 8466 H 821.79 1.86116 2.39989 0
M  V30 8467 H 819.375 0.966607 1.13917 0
M  V30 8468 H 821.257 0.204861 4.20902 0
M  V30 8469 H 819.932 -0.446464 3.20606 0
M  V30 8470 H 818.839 1.87061 3.23974 0
M  V30 8471 H 820.172 2.44408 4.2723 0
M  V30 8472 N 821.824 -1.22873 0.986916 0
M  V30 8473 C 822.772 -2.26597 0.525043 0
M  V30 8474 C 823.766 -1.64079 -0.421252 0
M  V30 8475 O 824.972 -1.77576 -0.294429 0
M  V30 8476 H 821.347 -0.736606 0.151381 0
M  V30 8477 H 823.318 -2.62909 1.41142 0
M  V30 8478 C 822.067 -3.47374 -0.150542 0
M  V30 8479 H 821.39 -3.95737 0.568541 0
M  V30 8480 H 822.83 -4.21739 -0.437256 0
M  V30 8481 C 821.289 -3.07163 -1.38392 0
M  V30 8482 O 821.819 -3.16028 -2.47971 0
M  V30 8483 N 820.025 -2.62009 -1.25697 0
M  V30 8484 H 819.572 -2.54996 -0.365355 0
M  V30 8485 H 819.53 -2.35472 -2.08327 0
M  V30 8486 N 823.302 -0.75937 -1.38099 0
M  V30 8487 C 824.232 -0.151077 -2.33011 0
M  V30 8488 C 825.213 0.697099 -1.5516 0
M  V30 8489 O 826.398 0.637101 -1.83452 0
M  V30 8490 C 823.528 0.738423 -3.39359 0
M  V30 8491 C 822.482 -0.0074741 -4.27999 0
M  V30 8492 C 821.808 1.00066 -5.25253 0
M  V30 8493 C 823.108 -1.17926 -5.08813 0
M  V30 8494 H 824.802 -0.943933 -2.84131 0
M  V30 8495 H 822.348 -0.455362 -1.36611 0
M  V30 8496 H 824.301 1.17369 -4.04725 0
M  V30 8497 H 823.025 1.56366 -2.86735 0
M  V30 8498 H 821.684 -0.423379 -3.64147 0
M  V30 8499 H 821.332 1.82012 -4.68914 0
M  V30 8500 H 821.032 0.506199 -5.85416 0
M  V30 8501 H 822.556 1.43512 -5.93495 0
M  V30 8502 H 823.97 -0.821262 -5.67387 0
M  V30 8503 H 822.367 -1.60497 -5.78239 0
M  V30 8504 H 823.437 -1.98938 -4.42212 0
M  V30 8505 N 824.78 1.49157 -0.508906 0
M  V30 8506 C 825.713 2.26056 0.312103 0
M  V30 8507 C 826.691 1.30982 0.963456 0
M  V30 8508 O 827.875 1.60286 0.992002 0
M  V30 8509 C 825.002 3.06555 1.4402 0
M  V30 8510 C 824.048 4.16844 0.902414 0
M  V30 8511 S 824.881 5.35076 -0.213087 0
M  V30 8512 C 826.037 6.19132 0.917985 0
M  V30 8513 H 826.27 2.95343 -0.340559 0
M  V30 8514 H 823.803 1.51569 -0.294331 0
M  V30 8515 H 825.761 3.53517 2.08653 0
M  V30 8516 H 824.422 2.36722 2.0645 0
M  V30 8517 H 823.615 4.72714 1.74806 0
M  V30 8518 H 823.217 3.72513 0.333156 0
M  V30 8519 H 825.509 6.52556 1.82145 0
M  V30 8520 H 826.452 7.06982 0.397724 0
M  V30 8521 H 826.86 5.51839 1.18889 0
M  V30 8522 N 826.258 0.243083 1.55714 0
M  V30 8523 C 827.206 -0.674349 2.2261 0
M  V30 8524 C 828.2 -1.18307 1.21243 0
M  V30 8525 O 829.406 -1.1404 1.39265 0
M  V30 8526 H 825.781 -0.235941 0.714028 0
M  V30 8527 H 827.752 -0.0869446 2.98273 0
M  V30 8528 C 826.501 -1.86206 2.93637 0
M  V30 8529 H 825.824 -1.47975 3.71407 0
M  V30 8530 H 827.264 -2.4813 3.43813 0
M  V30 8531 C 825.723 -2.73084 1.97298 0
M  V30 8532 O 826.253 -3.72497 1.50361 0
M  V30 8533 N 824.459 -2.39571 1.64482 0
M  V30 8534 H 824.006 -1.5878 2.02846 0
M  V30 8535 H 823.964 -2.97976 1.00288 0
M  V30 8536 N 827.736 -1.57571 -0.0300757 0
M  V30 8537 C 829.147 -1.77567 -0.576802 0
M  V30 8538 C 829.498 -0.874034 -1.75656 0
M  V30 8539 O 828.623 -0.0686124 -2.16291 0
M  V30 8540 C 829.218 -3.22016 -1.05315 0
M  V30 8541 C 827.777 -3.43212 -1.5454 0
M  V30 8542 C 826.924 -2.73061 -0.483033 0
M  V30 8543 H 829.875 -1.57483 0.196151 0
M  V30 8544 H 829.896 -3.28474 -1.92055 0
M  V30 8545 H 829.408 -3.87613 -0.194298 0
M  V30 8546 H 827.509 -2.82788 -2.42615 0
M  V30 8547 H 827.622 -4.5182 -1.5936 0
M  V30 8548 H 825.986 -2.36805 -0.937835 0
M  V30 8549 H 826.769 -3.4134 0.366341 0
M  V30 8550 N 829.214 0.302327 -1.54673 0
M  V30 8551 C 830.63 0.647911 -1.45857 0
M  V30 8552 C 830.83 1.90773 -0.64869 0
M  V30 8553 O 829.886 2.52018 -0.155865 0
M  V30 8554 C 831.199 0.802144 -2.89804 0
M  V30 8555 C 832.747 0.898114 -2.99838 0
M  V30 8556 C 833.222 1.08436 -4.44978 0
M  V30 8557 N 834.713 1.15059 -4.48682 0
M  V30 8558 C 835.448 1.31296 -5.58166 0
M  V30 8559 N 834.944 1.4444 -6.77576 0
M  V30 8560 N 836.737 1.34174 -5.45851 0
M  V30 8561 H 828.888 -0.525428 -2.05798 0
M  V30 8562 H 831.151 -0.173423 -0.932002 0
M  V30 8563 H 830.857 -0.0526531 -3.51661 0
M  V30 8564 H 830.731 1.69155 -3.37145 0
M  V30 8565 H 833.118 1.7434 -2.38096 0
M  V30 8566 H 833.199 -0.0152752 -2.55795 0
M  V30 8567 H 832.843 0.243843 -5.07314 0
M  V30 8568 H 832.773 2.01195 -4.8665 0
M  V30 8569 H 835.264 1.0626 -3.62653 0
M  V30 8570 H 835.577 1.56582 -7.56771 0
M  V30 8571 H 833.922 1.41499 -6.80443 0
M  V30 8572 H 837.113 1.23516 -4.5151 0
M  V30 8573 H 837.286 1.46485 -6.31226 0
M  V30 8574 N 830.692 1.47107 0.565454 0
M  V30 8575 C 831.655 1.58535 1.65527 0
M  V30 8576 C 832.655 0.461081 1.54048 0
M  V30 8577 O 833.845 0.725911 1.58355 0
M  V30 8578 C 830.977 1.52204 3.05036 0
M  V30 8579 H 832.17 2.55676 1.56747 0
M  V30 8580 H 829.723 1.35174 0.78471 0
M  V30 8581 H 830.458 0.564071 3.19357 0
M  V30 8582 H 830.243 2.3379 3.14777 0
M  V30 8583 H 831.733 1.63322 3.84338 0
M  V30 8584 N 832.17 -0.811516 1.35101 0
M  V30 8585 C 833.1 -1.9378 1.30275 0
M  V30 8586 C 834.081 -1.69165 0.178075 0
M  V30 8587 O 835.266 -1.90599 0.372256 0
M  V30 8588 C 832.396 -3.30439 1.06899 0
M  V30 8589 C 831.35 -3.69523 2.15955 0
M  V30 8590 C 830.676 -5.0429 1.77751 0
M  V30 8591 C 831.976 -3.80419 3.57881 0
M  V30 8592 H 833.67 -1.98075 2.24514 0
M  V30 8593 H 831.216 -0.951586 1.08078 0
M  V30 8594 H 833.169 -4.08828 1.02164 0
M  V30 8595 H 831.893 -3.26473 0.0910462 0
M  V30 8596 H 830.552 -2.93416 2.19778 0
M  V30 8597 H 830.2 -4.96823 0.785876 0
M  V30 8598 H 829.9 -5.31411 2.5075 0
M  V30 8599 H 831.424 -5.85125 1.74533 0
M  V30 8600 H 832.838 -4.49051 3.56407 0
M  V30 8601 H 831.235 -4.19005 4.29598 0
M  V30 8602 H 832.305 -2.82105 3.94391 0
M  V30 8603 N 833.648 -1.19017 -1.03309 0
M  V30 8604 C 834.925 -0.899659 -1.73682 0
M  V30 8605 C 835.305 0.595677 -2.02521 0
M  V30 8606 O 834.653 1.55263 -1.67648 0
M  V30 8607 C 834.863 -1.75508 -3.01659 0
M  V30 8608 C 836.211 -1.98679 -3.75249 0
M  V30 8609 O 837.235 -1.72624 -3.11576 0
M  V30 8610 O 836.094 -2.42587 -4.89708 0
M  V30 8611 H 833.188 -0.334903 -0.756154 0
M  V30 8612 H 835.734 -1.29809 -1.09305 0
M  V30 8613 H 834.506 -2.7684 -2.76542 0
M  V30 8614 H 834.129 -1.35565 -3.73775 0
M  V30 8615 N 835.127 1.22348 -0.993418 0
M  V30 8616 C 836.374 1.9111 -0.669568 0
M  V30 8617 C 836.702 1.77357 0.79843 0
M  V30 8618 O 835.957 1.13675 1.593 0
M  V30 8619 C 836.256 3.42477 -1.02197 0
M  V30 8620 C 835.922 3.7642 -2.48232 0
M  V30 8621 C 834.584 3.85395 -2.88139 0
M  V30 8622 C 836.936 3.9253 -3.42884 0
M  V30 8623 C 834.264 4.07918 -4.21687 0
M  V30 8624 C 836.616 4.16557 -4.76091 0
M  V30 8625 C 835.28 4.23757 -5.15739 0
M  V30 8626 H 834.55 0.699321 -0.245012 0
M  V30 8627 H 837.197 1.45102 -1.2497 0
M  V30 8628 H 835.502 3.90143 -0.359921 0
M  V30 8629 H 837.199 3.93935 -0.74942 0
M  V30 8630 H 833.789 3.70017 -2.16299 0
M  V30 8631 H 837.973 3.84974 -3.13224 0
M  V30 8632 H 833.229 4.11719 -4.51993 0
M  V30 8633 H 837.403 4.27966 -5.4938 0
M  V30 8634 H 835.03 4.40962 -6.19239 0
M  V30 8635 N 836.605 0.766683 1.37694 0
M  V30 8636 C 837.555 0.123173 2.27667 0
M  V30 8637 C 838.539 -0.679436 1.45851 0
M  V30 8638 O 839.731 -0.54324 1.68457 0
M  V30 8639 C 836.86 -0.759064 3.34803 0
M  V30 8640 C 835.946 0.0511009 4.24069 0
M  V30 8641 N 836.337 1.09418 4.93823 0
M  V30 8642 C 834.635 -0.173675 4.45662 0
M  V30 8643 C 835.336 1.58546 5.59677 0
M  V30 8644 N 834.312 0.898503 5.36123 0
M  V30 8645 H 838.114 0.921859 2.79068 0
M  V30 8646 H 835.628 0.603957 1.50752 0
M  V30 8647 H 837.625 -1.23581 3.98163 0
M  V30 8648 H 836.285 -1.55655 2.84959 0
M  V30 8649 H 837.296 1.47623 4.96415 0
M  V30 8650 H 833.973 -0.943473 4.067 0
M  V30 8651 H 835.363 2.45504 6.25442 0
M  V30 8652 N 838.083 -1.48885 0.516809 0
M  V30 8653 C 839.046 -2.27916 -0.242256 0
M  V30 8654 C 840.046 -1.34601 -0.879735 0
M  V30 8655 O 841.236 -1.57616 -0.74182 0
M  V30 8656 C 838.368 -3.13067 -1.34914 0
M  V30 8657 H 839.561 -2.96483 0.451444 0
M  V30 8658 H 837.114 -1.5391 0.272294 0
M  V30 8659 H 837.849 -2.49102 -2.07651 0
M  V30 8660 H 837.634 -3.81695 -0.897313 0
M  V30 8661 H 839.124 -3.72716 -1.88341 0
M  V30 8662 N 839.561 -0.251338 -1.55583 0
M  V30 8663 C 840.471 0.656978 -2.25213 0
M  V30 8664 C 841.487 1.18966 -1.26977 0
M  V30 8665 O 842.663 1.22499 -1.59862 0
M  V30 8666 C 839.728 1.83527 -2.94141 0
M  V30 8667 C 838.789 1.34162 -4.07798 0
M  V30 8668 C 838.022 2.46375 -4.73429 0
M  V30 8669 O 838.245 3.65205 -4.38157 0
M  V30 8670 O 837.179 2.15881 -5.61853 0
M  V30 8671 H 841.005 0.0936395 -3.03556 0
M  V30 8672 H 838.59 -0.0196638 -1.49387 0
M  V30 8673 H 840.472 2.52279 -3.3754 0
M  V30 8674 H 839.147 2.38614 -2.18735 0
M  V30 8675 H 838.054 0.621249 -3.68906 0
M  V30 8676 H 839.387 0.836779 -4.85035 0
M  V30 8677 N 841.039 1.57585 0.0217189 0
M  V30 8678 C 842.267 1.93871 0.722619 0
M  V30 8679 C 842.682 0.851706 1.68498 0
M  V30 8680 O 842.039 -0.17127 1.81695 0
M  V30 8681 C 842.09 3.30114 1.47333 0
M  V30 8682 O 841.811 4.34639 0.549597 0
M  V30 8683 C 843.312 3.80727 2.27072 0
M  V30 8684 H 840.532 0.639671 0.202637 0
M  V30 8685 H 843.076 2.04487 -0.0229414 0
M  V30 8686 H 841.231 3.20872 2.17071 0
M  V30 8687 H 841.645 5.13326 1.07686 0
M  V30 8688 H 843.119 4.78547 2.75131 0
M  V30 8689 H 843.596 3.12301 3.08812 0
M  V30 8690 H 844.202 3.93075 1.62395 0
M  V30 8691 N 842.517 -0.29412 1.54831 0
M  V30 8692 C 843.765 -1.02643 1.74094 0
M  V30 8693 C 844.086 -1.87563 0.533402 0
M  V30 8694 O 843.356 -1.9061 -0.452192 0
M  V30 8695 H 841.936 -0.381959 0.641963 0
M  V30 8696 H 844.598 -0.323444 1.92197 0
M  V30 8697 H 843.694 -1.67558 2.63307 0
M  V30 8698 N 843.995 -1.47404 -0.557645 0
M  V30 8699 C 845.242 -1.54007 -1.31484 0
M  V30 8700 C 845.57 -0.202162 -1.93447 0
M  V30 8701 O 844.825 0.804901 -1.78381 0
M  V30 8702 C 845.124 -2.6061 -2.44575 0
M  V30 8703 C 844.79 -4.03896 -2.00446 0
M  V30 8704 C 843.452 -4.42901 -1.88127 0
M  V30 8705 C 845.804 -4.93804 -1.66754 0
M  V30 8706 C 843.132 -5.6965 -1.40411 0
M  V30 8707 C 845.484 -6.21016 -1.20509 0
M  V30 8708 C 844.148 -6.58903 -1.06786 0
M  V30 8709 H 843.418 -0.563552 -0.481134 0
M  V30 8710 H 846.065 -1.81001 -0.625375 0
M  V30 8711 H 844.37 -2.27371 -3.19076 0
M  V30 8712 H 846.067 -2.62941 -3.02759 0
M  V30 8713 H 842.657 -3.73077 -2.10977 0
M  V30 8714 H 846.841 -4.64369 -1.75144 0
M  V30 8715 H 842.097 -5.97755 -1.2845 0
M  V30 8716 H 846.271 -6.90095 -0.935001 0
M  V30 8717 H 843.898 -7.57008 -0.695891 0
M  V30 8718 N 845.473 0.80434 -1.35529 0
M  V30 8719 C 846.722 1.55665 -1.28263 0
M  V30 8720 C 847.035 1.95096 0.140352 0
M  V30 8721 O 848.241 2.69422 0.335303 0
M  V30 8722 C 846.697 2.80935 -2.24952 0
M  V30 8723 C 846.305 2.48733 -3.72607 0
M  V30 8724 C 848.049 3.5894 -2.26632 0
M  V30 8725 C 845.956 3.70308 -4.61114 0
M  V30 8726 H 844.886 0.584301 -0.476559 0
M  V30 8727 H 847.537 0.88395 -1.60806 0
M  V30 8728 H 845.919 3.49927 -1.85383 0
M  V30 8729 H 847.093 1.87733 -4.20824 0
M  V30 8730 H 845.408 1.83969 -3.73557 0
M  V30 8731 H 848.005 4.49244 -2.89973 0
M  V30 8732 H 848.348 3.96433 -1.27069 0
M  V30 8733 H 848.881 2.96912 -2.64742 0
M  V30 8734 H 845.62 3.37922 -5.61684 0
M  V30 8735 H 845.14 4.30526 -4.17621 0
M  V30 8736 H 846.819 4.37511 -4.76648 0
M  V30 8737 N 846.951 1.19563 1.02676 0
M  V30 8738 C 848.181 1.0234 1.79472 0
M  V30 8739 C 848.589 -0.430891 1.84228 0
M  V30 8740 O 847.932 -1.31106 1.28674 0
M  V30 8741 C 847.994 1.51901 3.25832 0
M  V30 8742 C 847.658 3.00045 3.44706 0
M  V30 8743 C 848.655 3.9779 3.34752 0
M  V30 8744 C 846.34 3.38784 3.70851 0
M  V30 8745 C 848.334 5.32267 3.50672 0
M  V30 8746 C 846.021 4.73419 3.86416 0
M  V30 8747 C 847.019 5.69969 3.7633 0
M  V30 8748 O 846.707 7.02165 3.91432 0
M  V30 8749 H 846.439 0.360936 0.571578 0
M  V30 8750 H 848.993 1.58863 1.30198 0
M  V30 8751 H 847.223 0.897546 3.7614 0
M  V30 8752 H 848.912 1.30853 3.84229 0
M  V30 8753 H 849.678 3.69207 3.14502 0
M  V30 8754 H 845.557 2.64183 3.77794 0
M  V30 8755 H 849.101 6.07612 3.42715 0
M  V30 8756 H 844.998 5.01697 4.06165 0
M  V30 8757 H 845.766 7.09268 4.08511 0
M  V30 8758 N 848.429 -1.21819 0.999893 0
M  V30 8759 C 849.676 -1.90752 0.679694 0
M  V30 8760 C 850.004 -1.77777 -0.789014 0
M  V30 8761 O 849.259 -1.14518 -1.58695 0
M  V30 8762 C 849.558 -3.4193 1.04012 0
M  V30 8763 C 849.224 -3.75098 2.50225 0
M  V30 8764 C 847.886 -3.83861 2.90179 0
M  V30 8765 C 850.238 -3.90706 3.44961 0
M  V30 8766 C 847.566 -4.05676 4.23844 0
M  V30 8767 C 849.918 -4.14027 4.78294 0
M  V30 8768 C 848.582 -4.21016 5.17979 0
M  V30 8769 H 847.852 -0.698012 0.248718 0
M  V30 8770 H 850.499 -1.44437 1.25738 0
M  V30 8771 H 848.804 -3.89947 0.380606 0
M  V30 8772 H 850.501 -3.93532 0.770301 0
M  V30 8773 H 847.091 -3.68865 2.18258 0
M  V30 8774 H 851.275 -3.83307 3.15261 0
M  V30 8775 H 846.531 -4.09316 4.5417 0
M  V30 8776 H 850.705 -4.25046 5.51642 0
M  V30 8777 H 848.332 -4.37672 6.21568 0
M  V30 8778 N 849.908 -0.773975 -1.37286 0
M  V30 8779 C 850.871 -0.167974 -2.28584 0
M  V30 8780 C 851.871 0.625662 -1.48129 0
M  V30 8781 O 853.061 0.448924 -1.68316 0
M  V30 8782 C 850.193 0.769364 -3.32105 0
M  V30 8783 H 851.386 -0.972806 -2.83684 0
M  V30 8784 H 848.939 -0.542335 -1.46589 0
M  V30 8785 H 849.674 1.59912 -2.82132 0
M  V30 8786 H 849.459 0.202419 -3.91577 0
M  V30 8787 H 850.949 1.18872 -4.00324 0
M  V30 8788 N 851.386 1.48609 -0.524698 0
M  V30 8789 C 852.663 1.95454 0.075465 0
M  V30 8790 C 853.043 1.46682 1.51814 0
M  V30 8791 O 852.391 0.690975 2.17802 0
M  V30 8792 C 852.601 3.48981 -0.0363273 0
M  V30 8793 C 853.949 4.24414 0.125624 0
M  V30 8794 O 854.973 3.5618 0.0377239 0
M  V30 8795 O 853.832 5.45625 0.309104 0
M  V30 8796 H 850.926 0.822902 0.0822256 0
M  V30 8797 H 853.472 1.59153 -0.588921 0
M  V30 8798 H 852.244 3.77185 -1.04149 0
M  V30 8799 H 851.867 3.91963 0.667146 0
M  V30 8800 N 852.864 0.259585 1.55447 0
M  V30 8801 C 854.092 -0.365392 2.03648 0
M  V30 8802 C 854.507 -1.50613 1.13847 0
M  V30 8803 O 853.864 -1.81837 0.155414 0
M  V30 8804 C 853.915 -0.861172 3.51093 0
M  V30 8805 O 853.636 0.234121 4.37474 0
M  V30 8806 C 855.137 -1.55555 4.15111 0
M  V30 8807 H 852.357 -0.0853439 0.66555 0
M  V30 8808 H 854.901 0.387151 2.00802 0
M  V30 8809 H 853.056 -1.56385 3.54433 0
M  V30 8810 H 853.47 -0.1444 5.24301 0
M  V30 8811 H 854.944 -1.85403 5.19932 0
M  V30 8812 H 855.421 -2.48185 3.62355 0
M  V30 8813 H 856.027 -0.89712 4.15731 0
M  V30 8814 N 854.342 -1.57594 -0.0133615 0
M  V30 8815 C 855.57 -1.94251 -0.712328 0
M  V30 8816 C 855.985 -0.86063 -1.68043 0
M  V30 8817 O 855.342 0.161632 -1.81783 0
M  V30 8818 C 855.393 -3.30891 -1.45581 0
M  V30 8819 O 855.114 -4.34924 -0.526539 0
M  V30 8820 C 856.615 -3.81926 -2.2505 0
M  V30 8821 H 853.835 -0.640737 -0.199241 0
M  V30 8822 H 856.379 -2.04472 0.0337855 0
M  V30 8823 H 854.534 -3.22019 -2.15366 0
M  V30 8824 H 854.948 -5.1389 -1.04962 0
M  V30 8825 H 856.422 -4.79999 -2.72589 0
M  V30 8826 H 856.899 -3.13934 -3.07152 0
M  V30 8827 H 857.505 -3.93931 -1.60308 0
M  V30 8828 N 855.82 0.285905 -1.54985 0
M  V30 8829 C 857.045 1.04207 -1.7932 0
M  V30 8830 C 857.47 1.79622 -0.558343 0
M  V30 8831 O 856.828 1.74506 0.491661 0
M  V30 8832 C 856.876 1.98648 -3.0095 0
M  V30 8833 O 855.98 3.07207 -2.75132 0
M  V30 8834 H 855.321 0.298596 -0.593074 0
M  V30 8835 H 857.851 0.318736 -2.02102 0
M  V30 8836 H 857.861 2.4084 -3.29333 0
M  V30 8837 H 856.536 1.43167 -3.90482 0
M  V30 8838 H 855.113 2.69423 -2.57809 0
M  V30 8839 N 857.298 1.47698 0.54982 0
M  V30 8840 C 858.528 1.58101 1.32995 0
M  V30 8841 C 858.936 0.232939 1.87761 0
M  V30 8842 O 858.279 -0.785058 1.6608 0
M  V30 8843 C 858.341 2.55228 2.53178 0
M  V30 8844 C 858.005 4.00756 2.19645 0
M  V30 8845 C 859.002 4.89025 1.76496 0
M  V30 8846 C 856.687 4.46147 2.30777 0
M  V30 8847 C 858.681 6.20707 1.44919 0
M  V30 8848 C 856.368 5.77856 1.98812 0
M  V30 8849 C 857.366 6.64957 1.55952 0
M  V30 8850 O 857.054 7.94217 1.24396 0
M  V30 8851 H 856.786 0.536362 0.411451 0
M  V30 8852 H 859.34 1.94092 0.67212 0
M  V30 8853 H 857.57 2.14319 3.21876 0
M  V30 8854 H 859.259 2.55678 3.15251 0
M  V30 8855 H 860.025 4.55201 1.67383 0
M  V30 8856 H 855.904 3.78552 2.63096 0
M  V30 8857 H 859.448 6.88649 1.11392 0
M  V30 8858 H 855.345 6.11219 2.0756 0
M  V30 8859 H 856.113 8.06789 1.37964 0
M  V30 8860 N 858.776 -0.797141 1.35954 0
M  V30 8861 C 859.706 -1.92387 1.32323 0
M  V30 8862 C 860.687 -1.68967 0.196007 0
M  V30 8863 O 861.872 -1.90193 0.39245 0
M  V30 8864 C 859.002 -3.29286 1.10398 0
M  V30 8865 C 857.956 -3.67212 2.19862 0
M  V30 8866 C 857.282 -5.02377 1.8309 0
M  V30 8867 C 858.582 -3.76602 3.61896 0
M  V30 8868 H 860.276 -1.95683 2.26602 0
M  V30 8869 H 857.822 -0.94007 1.09081 0
M  V30 8870 H 859.775 -4.07721 1.06495 0
M  V30 8871 H 858.499 -3.26358 0.125668 0
M  V30 8872 H 857.158 -2.91069 2.22878 0
M  V30 8873 H 856.806 -4.95961 0.838527 0
M  V30 8874 H 856.506 -5.28722 2.56372 0
M  V30 8875 H 858.03 -5.8324 1.80729 0
M  V30 8876 H 859.444 -4.45246 3.6115 0
M  V30 8877 H 857.841 -4.14425 4.34018 0
M  V30 8878 H 858.911 -2.77906 3.97361 0
M  V30 8879 N 860.254 -1.20106 -1.0204 0
M  V30 8880 C 861.503 -1.00316 -1.74985 0
M  V30 8881 C 861.816 0.465814 -1.89972 0
M  V30 8882 O 863.022 0.782749 -2.59972 0
M  V30 8883 C 861.478 -1.74608 -3.14706 0
M  V30 8884 C 861.086 -3.25573 -3.07744 0
M  V30 8885 C 862.83 -1.63172 -3.91887 0
M  V30 8886 C 860.737 -3.92419 -4.42449 0
M  V30 8887 H 859.667 -0.371728 -0.655999 0
M  V30 8888 H 862.318 -1.43688 -1.14131 0
M  V30 8889 H 860.7 -1.24021 -3.76078 0
M  V30 8890 H 861.874 -3.83345 -2.55702 0
M  V30 8891 H 860.189 -3.3738 -2.44057 0
M  V30 8892 H 862.786 -2.10457 -4.9154 0
M  V30 8893 H 863.129 -0.58728 -4.12137 0
M  V30 8894 H 863.662 -2.11152 -3.37135 0
M  V30 8895 H 860.401 -4.96998 -4.27403 0
M  V30 8896 H 859.921 -3.39436 -4.94513 0
M  V30 8897 H 861.6 -3.96453 -5.11306 0
M  V30 8898 N 861.732 1.21287 -1.00634 0
M  V30 8899 C 862.98 1.90013 -0.688438 0
M  V30 8900 C 863.301 1.78573 0.783365 0
M  V30 8901 O 862.571 1.1815 1.56261 0
M  V30 8902 H 861.151 0.703336 -0.251648 0
M  V30 8903 H 863.813 1.47346 -1.27574 0
M  V30 8904 H 862.909 2.96879 -0.962781 0
M  V30 8905 N 863.21 0.781244 1.36873 0
M  V30 8906 C 864.626 0.461968 1.52768 0
M  V30 8907 C 864.826 -1.02099 1.73719 0
M  V30 8908 O 863.882 -1.80665 1.76399 0
M  V30 8909 C 865.195 1.2853 2.71846 0
M  V30 8910 C 866.743 1.27817 2.85713 0
M  V30 8911 C 867.218 2.08506 4.07786 0
M  V30 8912 N 868.709 2.05909 4.14917 0
M  V30 8913 C 869.444 2.65118 5.08429 0
M  V30 8914 N 868.94 3.33152 6.07438 0
M  V30 8915 N 870.733 2.54896 5.00983 0
M  V30 8916 H 862.884 1.74198 1.21527 0
M  V30 8917 H 865.147 0.740027 0.592506 0
M  V30 8918 H 864.853 2.3366 2.62861 0
M  V30 8919 H 864.727 0.920981 3.65784 0
M  V30 8920 H 867.114 0.234817 2.94164 0
M  V30 8921 H 867.195 1.68219 1.92707 0
M  V30 8922 H 866.839 3.12867 4.00096 0
M  V30 8923 H 866.769 1.65479 4.99924 0
M  V30 8924 H 869.26 1.56386 3.44023 0
M  V30 8925 H 869.573 3.75681 6.75339 0
M  V30 8926 H 867.918 3.37253 6.07689 0
M  V30 8927 H 871.109 2.01352 4.22581 0
M  V30 8928 H 871.282 3.01332 5.73675 0
M  V30 8929 N 864.689 -1.48329 0.532571 0
M  V30 8930 C 865.621 -2.27652 -0.265931 0
M  V30 8931 C 866.634 -1.35522 -0.902083 0
M  V30 8932 O 867.823 -1.60552 -0.780088 0
M  V30 8933 C 864.923 -3.0899 -1.39207 0
M  V30 8934 C 864.096 -4.28915 -0.857349 0
M  V30 8935 C 863.155 -4.92044 -1.86493 0
M  V30 8936 O 862.181 -5.51181 -1.42084 0
M  V30 8937 N 863.383 -4.84518 -3.19723 0
M  V30 8938 H 866.148 -2.96821 0.414389 0
M  V30 8939 H 863.709 -1.57684 0.367066 0
M  V30 8940 H 865.701 -3.48091 -2.06433 0
M  V30 8941 H 864.271 -2.42224 -1.97601 0
M  V30 8942 H 863.491 -3.94199 -0.00901765 0
M  V30 8943 H 864.779 -5.0654 -0.479025 0
M  V30 8944 H 864.177 -4.37628 -3.58467 0
M  V30 8945 H 862.734 -5.27712 -3.82575 0
M  V30 8946 N 866.167 -0.267825 -1.55308 0
M  V30 8947 C 867.114 0.6228 -2.22238 0
M  V30 8948 C 868.084 1.15536 -1.19334 0
M  V30 8949 O 869.269 1.206 -1.47852 0
M  V30 8950 C 866.409 1.80447 -2.94164 0
M  V30 8951 C 865.522 1.30646 -4.11771 0
M  V30 8952 C 864.657 2.44935 -4.7136 0
M  V30 8953 C 863.696 1.92099 -5.81175 0
M  V30 8954 N 862.833 2.99834 -6.34857 0
M  V30 8955 H 867.673 0.0453874 -2.97965 0
M  V30 8956 H 865.21 0.0106371 -1.47096 0
M  V30 8957 H 867.168 2.49896 -3.34078 0
M  V30 8958 H 865.798 2.35403 -2.20874 0
M  V30 8959 H 864.85 0.505314 -3.77029 0
M  V30 8960 H 866.162 0.879409 -4.90987 0
M  V30 8961 H 865.316 3.2239 -5.13955 0
M  V30 8962 H 864.055 2.90951 -3.91406 0
M  V30 8963 H 863.06 1.13122 -5.38037 0
M  V30 8964 H 864.285 1.47027 -6.62993 0
M  V30 8965 H 862.231 3.45246 -5.578 0
M  V30 8966 H 862.148 2.61524 -7.09324 0
M  V30 8967 H 863.416 3.77286 -6.82111 0
M  V30 8968 N 867.645 1.57599 0.00500368 0
M  V30 8969 C 868.894 1.89528 0.690061 0
M  V30 8970 C 869.207 0.869451 1.75214 0
M  V30 8971 O 870.413 1.07879 2.49147 0
M  V30 8972 C 868.869 3.36425 1.27852 0
M  V30 8973 C 868.477 4.47293 0.251531 0
M  V30 8974 C 870.221 3.77471 1.94206 0
M  V30 8975 C 868.128 5.85264 0.8497 0
M  V30 8976 H 867.058 0.707201 0.2615 0
M  V30 8977 H 869.709 1.83418 -0.0547209 0
M  V30 8978 H 868.091 3.37356 2.07381 0
M  V30 8979 H 869.265 4.5787 -0.518796 0
M  V30 8980 H 867.58 4.15235 -0.311281 0
M  V30 8981 H 870.177 4.77884 2.39855 0
M  V30 8982 H 870.52 3.10722 2.77051 0
M  V30 8983 H 871.053 3.78817 1.21419 0
M  V30 8984 H 867.792 6.55472 0.0601408 0
M  V30 8985 H 867.312 5.78361 1.5893 0
M  V30 8986 H 868.991 6.32762 1.34984 0
M  V30 8987 N 869.123 -0.277682 1.55134 0
M  V30 8988 C 870.4 -1.0309 1.66228 0
M  V30 8989 C 870.78 -2.0445 0.525701 0
M  V30 8990 O 870.128 -2.23512 -0.474816 0
M  V30 8991 C 870.338 -1.6919 3.05247 0
M  V30 8992 C 871.686 -2.20526 3.62841 0
M  V30 8993 O 872.71 -1.79185 3.07849 0
M  V30 8994 O 871.569 -2.96342 4.59177 0
M  V30 8995 H 868.663 -0.4779 0.674937 0
M  V30 8996 H 871.209 -0.273912 1.67475 0
M  V30 8997 H 869.981 -0.957163 3.79413 0
M  V30 8998 H 869.604 -2.51587 3.07879 0
M  V30 8999 N 870.601 -1.47988 -0.541979 0
M  V30 9000 C 871.849 -1.55086 -1.29587 0
M  V30 9001 C 872.17 -0.221304 -1.9374 0
M  V30 9002 O 871.44 0.756128 -1.80719 0
M  V30 9003 H 870.02 -0.571307 -0.481266 0
M  V30 9004 H 872.682 -1.8438 -0.631675 0
M  V30 9005 H 871.778 -2.32556 -2.08144 0
M  V30 9006 N 872.079 0.78992 -1.36375 0
M  V30 9007 C 873.307 1.57873 -1.3373 0
M  V30 9008 C 873.722 1.88624 0.0815544 0
M  V30 9009 O 873.079 1.50085 1.03831 0
M  V30 9010 C 873.13 2.90003 -2.15825 0
M  V30 9011 O 872.851 2.60578 -3.5218 0
M  V30 9012 C 874.352 3.84309 -2.20955 0
M  V30 9013 H 871.572 0.489685 -0.458748 0
M  V30 9014 H 874.116 0.980436 -1.79465 0
M  V30 9015 H 872.271 3.46303 -1.73646 0
M  V30 9016 H 872.685 3.4506 -3.95011 0
M  V30 9017 H 874.159 4.74081 -2.82756 0
M  V30 9018 H 874.636 4.22121 -1.21287 0
M  V30 9019 H 875.242 3.33942 -2.63368 0
M  V30 9020 N 873.557 1.20646 1.01402 0
M  V30 9021 C 874.467 0.973385 2.13453 0
M  V30 9022 C 875.483 -0.0715865 1.73853 0
M  V30 9023 O 876.659 0.116438 2.01063 0
M  V30 9024 C 873.724 0.531285 3.42605 0
M  V30 9025 C 872.785 1.64741 3.96433 0
M  V30 9026 C 872.018 1.22631 5.1942 0
M  V30 9027 O 872.241 0.0960891 5.70319 0
M  V30 9028 O 871.175 2.03474 5.66465 0
M  V30 9029 H 875.001 1.91164 2.35987 0
M  V30 9030 H 872.586 0.990553 1.11841 0
M  V30 9031 H 874.468 0.294095 4.20373 0
M  V30 9032 H 873.143 -0.378358 3.21481 0
M  V30 9033 H 872.05 1.93891 3.19933 0
M  V30 9034 H 873.383 2.53415 4.2195 0
M  V30 9035 N 875.035 -1.20752 1.01276 0
M  V30 9036 C 876.451 -1.42084 0.726934 0
M  V30 9037 C 876.651 -1.89138 -0.694907 0
M  V30 9038 O 875.707 -2.05783 -1.4632 0
M  V30 9039 C 877.02 -2.44575 1.74938 0
M  V30 9040 C 878.568 -2.58347 1.76708 0
M  V30 9041 C 879.043 -3.64078 2.77869 0
M  V30 9042 N 880.534 -3.71558 2.76585 0
M  V30 9043 C 881.269 -4.53016 3.51517 0
M  V30 9044 N 880.765 -5.38309 4.36114 0
M  V30 9045 N 882.558 -4.47512 3.40132 0
M  V30 9046 H 874.709 -0.885228 1.93074 0
M  V30 9047 H 876.972 -0.451075 0.833808 0
M  V30 9048 H 876.678 -2.1699 2.76782 0
M  V30 9049 H 876.552 -3.43503 1.55838 0
M  V30 9050 H 878.939 -2.85265 0.755516 0
M  V30 9051 H 879.02 -1.59628 1.99882 0
M  V30 9052 H 878.664 -3.37905 3.79187 0
M  V30 9053 H 878.594 -4.62412 2.51958 0
M  V30 9054 H 881.085 -3.10629 2.15216 0
M  V30 9055 H 881.398 -5.9754 4.90068 0
M  V30 9056 H 879.743 -5.37824 4.40194 0
M  V30 9057 H 882.934 -3.79912 2.73467 0
M  V30 9058 H 883.107 -5.10759 3.98784 0
M  V30 9059 N 876.513 -0.788492 -1.36457 0
M  V30 9060 C 877.423 -0.187385 -2.3385 0
M  V30 9061 C 878.439 0.659984 -1.60998 0
M  V30 9062 O 879.615 0.575986 -1.92988 0
M  V30 9063 C 876.68 0.668525 -3.40194 0
M  V30 9064 C 875.741 -0.197234 -4.28847 0
M  V30 9065 C 874.974 0.61792 -5.30111 0
M  V30 9066 O 875.197 1.85396 -5.3943 0
M  V30 9067 O 874.131 0.0183016 -6.01897 0
M  V30 9068 H 877.957 -0.992617 -2.87021 0
M  V30 9069 H 875.542 -0.549934 -1.3891 0
M  V30 9070 H 877.424 1.15663 -4.05216 0
M  V30 9071 H 876.099 1.45166 -2.89324 0
M  V30 9072 H 875.006 -0.73207 -3.66867 0
M  V30 9073 H 876.339 -0.943863 -4.83065 0
M  V30 9074 N 877.991 1.48044 -0.54043 0
M  V30 9075 C 879.219 2.06895 -0.0145153 0
M  V30 9076 C 879.634 1.39552 1.27164 0
M  V30 9077 O 878.991 0.486454 1.75897 0
M  V30 9078 C 879.042 3.60934 0.202278 0
M  V30 9079 O 878.763 4.25749 -1.03293 0
M  V30 9080 C 880.264 4.36607 0.767387 0
M  V30 9081 H 877.484 0.66991 -0.0382368 0
M  V30 9082 H 880.028 1.90288 -0.749057 0
M  V30 9083 H 878.183 3.77111 0.886897 0
M  V30 9084 H 878.597 5.18048 -0.820167 0
M  V30 9085 H 880.071 5.45126 0.86845 0
M  V30 9086 H 880.548 4.01745 1.77477 0
M  V30 9087 H 881.154 4.25133 0.119002 0
M  V30 9088 N 879.47 0.276058 1.55163 0
M  V30 9089 C 880.719 -0.341098 1.98795 0
M  V30 9090 C 881.032 -1.56905 1.16791 0
M  V30 9091 O 882.238 -2.25922 1.50571 0
M  V30 9092 C 880.694 -0.658231 3.5383 0
M  V30 9093 C 880.302 0.549972 4.44611 0
M  V30 9094 C 882.046 -1.23796 4.06048 0
M  V30 9095 C 879.953 0.207373 5.91036 0
M  V30 9096 H 878.883 -0.131224 0.742493 0
M  V30 9097 H 881.534 0.380858 1.79504 0
M  V30 9098 H 879.916 -1.43911 3.68925 0
M  V30 9099 H 881.09 1.32681 4.41285 0
M  V30 9100 H 879.405 1.04661 4.03032 0
M  V30 9101 H 882.002 -1.50811 5.12991 0
M  V30 9102 H 882.345 -2.17214 3.55139 0
M  V30 9103 H 882.878 -0.519345 3.94395 0
M  V30 9104 H 879.617 1.10946 6.46043 0
M  V30 9105 H 879.137 -0.532687 5.9743 0
M  V30 9106 H 880.816 -0.200072 6.46691 0
M  V30 9107 N 880.948 -1.576 0.00335426 0
M  V30 9108 C 881.878 -2.11668 -0.985839 0
M  V30 9109 C 882.859 -1.02661 -1.35627 0
M  V30 9110 O 884.044 -1.30361 -1.43943 0
M  V30 9111 C 881.174 -2.62273 -2.27662 0
M  V30 9112 C 880.128 -3.75837 -2.0477 0
M  V30 9113 C 879.454 -4.12769 -3.39891 0
M  V30 9114 C 880.754 -5.02975 -1.40759 0
M  V30 9115 H 882.448 -2.9457 -0.535637 0
M  V30 9116 H 879.994 -1.41702 -0.256204 0
M  V30 9117 H 881.947 -2.98727 -2.97221 0
M  V30 9118 H 880.671 -1.76498 -2.74802 0
M  V30 9119 H 879.33 -3.39782 -1.37636 0
M  V30 9120 H 878.978 -3.24013 -3.8474 0
M  V30 9121 H 878.678 -4.89281 -3.25389 0
M  V30 9122 H 880.202 -4.51784 -4.1076 0
M  V30 9123 H 881.616 -5.37179 -2.00279 0
M  V30 9124 H 880.013 -5.84315 -1.36734 0
M  V30 9125 H 881.083 -4.83431 -0.377218 0
M  V30 9126 N 882.426 0.269451 -1.5528 0
M  V30 9127 C 883.373 1.33316 -1.88403 0
M  V30 9128 C 884.343 1.48909 -0.735881 0
M  V30 9129 O 885.528 1.63259 -0.987479 0
M  V30 9130 C 882.668 2.68778 -2.16454 0
M  V30 9131 C 881.781 2.61377 -3.43956 0
M  V30 9132 C 880.916 3.89042 -3.6169 0
M  V30 9133 C 879.955 3.76166 -4.82872 0
M  V30 9134 N 879.092 4.95673 -4.97245 0
M  V30 9135 H 883.932 1.04368 -2.79126 0
M  V30 9136 H 881.469 0.504147 -1.38191 0
M  V30 9137 H 883.427 3.47599 -2.30719 0
M  V30 9138 H 882.057 2.9592 -1.28961 0
M  V30 9139 H 881.109 1.74247 -3.38145 0
M  V30 9140 H 882.421 2.47764 -4.32914 0
M  V30 9141 H 881.575 4.76304 -3.75791 0
M  V30 9142 H 880.314 4.05526 -2.70924 0
M  V30 9143 H 879.319 2.87287 -4.68771 0
M  V30 9144 H 880.544 3.61198 -5.75077 0
M  V30 9145 H 878.49 5.12561 -4.09411 0
M  V30 9146 H 878.407 4.84605 -5.80254 0
M  V30 9147 H 879.675 5.84498 -5.15735 0
M  V30 9148 N 883.904 1.48273 0.534124 0
M  V30 9149 C 885.181 1.46567 1.29528 0
M  V30 9150 C 885.561 0.17509 2.10373 0
M  V30 9151 O 884.909 -0.843228 2.12372 0
M  V30 9152 C 885.119 2.72519 2.18023 0
M  V30 9153 C 886.467 3.2068 2.78298 0
M  V30 9154 O 887.491 2.73408 2.28313 0
M  V30 9155 O 886.35 4.02924 3.69208 0
M  V30 9156 H 883.444 0.585151 0.584403 0
M  V30 9157 H 885.99 1.60502 0.551119 0
M  V30 9158 H 884.762 3.57965 1.5804 0
M  V30 9159 H 884.385 2.61285 2.99693 0
M  V30 9160 N 885.382 -0.782676 1.36792 0
M  V30 9161 C 886.63 -1.53778 1.31136 0
M  V30 9162 C 886.951 -1.94706 -0.107014 0
M  V30 9163 O 886.221 -1.65465 -1.04872 0
M  V30 9164 H 884.801 -0.570328 0.482426 0
M  V30 9165 H 887.463 -0.932181 1.71162 0
M  V30 9166 H 886.559 -2.44224 1.94321 0
M  V30 9167 N 886.86 -1.21182 -1.00761 0
M  V30 9168 C 888.109 -1.02166 -1.73911 0
M  V30 9169 C 888.422 0.445638 -1.90456 0
M  V30 9170 O 889.628 0.755132 -2.60787 0
M  V30 9171 C 888.084 -1.77936 -3.12837 0
M  V30 9172 C 887.692 -3.28819 -3.04273 0
M  V30 9173 C 889.436 -1.67319 -3.90134 0
M  V30 9174 C 887.343 -3.97089 -4.38262 0
M  V30 9175 H 886.273 -0.378665 -0.652019 0
M  V30 9176 H 888.924 -1.44891 -1.12601 0
M  V30 9177 H 887.306 -1.28003 -3.74742 0
M  V30 9178 H 888.48 -3.86035 -2.51622 0
M  V30 9179 H 886.795 -3.39949 -2.40465 0
M  V30 9180 H 889.392 -2.15659 -4.8928 0
M  V30 9181 H 889.735 -0.630959 -4.11491 0
M  V30 9182 H 890.268 -2.14716 -3.34876 0
M  V30 9183 H 887.007 -5.01503 -4.22107 0
M  V30 9184 H 886.527 -3.44662 -4.90885 0
M  V30 9185 H 888.206 -4.01854 -5.07072 0
M  V30 9186 N 888.338 1.20213 -1.01915 0
M  V30 9187 C 889.288 2.20957 -0.562327 0
M  V30 9188 C 890.272 1.56258 0.383704 0
M  V30 9189 O 891.464 1.75794 0.206255 0
M  V30 9190 C 888.593 3.43167 0.0954035 0
M  V30 9191 C 887.679 4.15028 -0.872487 0
M  V30 9192 N 888.07 4.63231 -2.03103 0
M  V30 9193 C 886.368 4.4057 -0.69385 0
M  V30 9194 C 887.069 5.18307 -2.64069 0
M  V30 9195 N 886.045 5.08522 -1.9211 0
M  V30 9196 H 889.847 2.55894 -1.44553 0
M  V30 9197 H 887.361 1.36178 -0.884831 0
M  V30 9198 H 889.358 4.14569 0.440232 0
M  V30 9199 H 888.018 3.09734 0.974413 0
M  V30 9200 H 889.029 4.58365 -2.41086 0
M  V30 9201 H 885.706 4.17276 0.136889 0
M  V30 9202 H 887.096 5.65961 -3.6213 0
M  V30 9203 N 889.816 0.795718 1.36037 0
M  V30 9204 C 890.764 0.18649 2.31851 0
M  V30 9205 C 891.758 -0.657704 1.56111 0
M  V30 9206 O 892.964 -0.552083 1.71324 0
M  V30 9207 H 889.339 0.0415363 0.750852 0
M  V30 9208 H 891.31 1.00992 2.8079 0
M  V30 9209 C 890.059 -0.65918 3.41394 0
M  V30 9210 H 889.382 -0.01894 3.99796 0
M  V30 9211 H 890.822 -1.05202 4.10741 0
M  V30 9212 C 889.281 -1.82011 2.83502 0
M  V30 9213 O 889.811 -2.91703 2.76174 0
M  V30 9214 N 888.017 -1.62821 2.40703 0
M  V30 9215 H 887.564 -0.735965 2.46863 0
M  V30 9216 H 887.522 -2.40657 2.02316 0
M  V30 9217 N 891.294 -1.47756 0.548274 0
M  V30 9218 C 892.54 -2.02789 0.0209265 0
M  V30 9219 C 892.873 -1.42268 -1.32187 0
M  V30 9220 O 892.148 -0.575001 -1.85806 0
M  V30 9221 C 892.431 -3.60007 -0.0816674 0
M  V30 9222 C 892.284 -4.30977 1.28759 0
M  V30 9223 C 893.603 -4.32777 -0.799515 0
M  V30 9224 H 890.722 -0.736944 0.00907884 0
M  V30 9225 H 893.364 -1.76282 0.708839 0
M  V30 9226 H 891.514 -3.82722 -0.667537 0
M  V30 9227 H 893.186 -4.19629 1.91597 0
M  V30 9228 H 891.429 -3.9168 1.86466 0
M  V30 9229 H 892.1 -5.39488 1.16861 0
M  V30 9230 H 894.576 -4.15001 -0.30216 0
M  V30 9231 H 893.452 -5.42431 -0.840239 0
M  V30 9232 H 893.713 -4.01358 -1.85375 0
M  V30 9233 N 892.772 -0.284283 -1.55015 0
M  V30 9234 C 893.682 0.60906 -2.26556 0
M  V30 9235 C 894.698 1.16246 -1.29472 0
M  V30 9236 O 895.874 1.1908 -1.62425 0
M  V30 9237 C 892.939 1.77246 -2.97968 0
M  V30 9238 C 892 1.25482 -4.10552 0
M  V30 9239 C 891.233 2.36277 -4.78549 0
M  V30 9240 O 891.456 3.55829 -4.45805 0
M  V30 9241 O 890.39 2.03914 -5.66306 0
M  V30 9242 H 894.216 0.0292298 -3.03686 0
M  V30 9243 H 891.801 -0.0513466 -1.49312 0
M  V30 9244 H 893.683 2.45062 -3.42815 0
M  V30 9245 H 892.358 2.33921 -2.23747 0
M  V30 9246 H 891.265 0.542859 -3.7014 0
M  V30 9247 H 892.598 0.733708 -4.86701 0
M  V30 9248 N 894.251 1.57596 -0.0117121 0
M  V30 9249 C 895.499 1.90694 0.669342 0
M  V30 9250 C 895.82 0.886999 1.73659 0
M  V30 9251 O 895.09 -0.0739779 1.9576 0
M  V30 9252 H 893.67 0.703846 0.250219 0
M  V30 9253 H 896.332 1.94821 -0.0554057 0
M  V30 9254 H 895.428 2.90802 1.13316 0
M  V30 9255 N 895.729 -0.261212 1.5542 0
M  V30 9256 C 896.975 -0.992699 1.76843 0
M  V30 9257 C 897.308 -1.8551 0.574428 0
M  V30 9258 O 896.583 -1.89739 -0.427713 0
M  V30 9259 C 896.866 -1.86532 3.08022 0
M  V30 9260 C 896.719 -1.03206 4.378 0
M  V30 9261 C 898.038 -2.85036 3.35324 0
M  V30 9262 H 895.157 -0.359473 0.643388 0
M  V30 9263 H 897.799 -0.264214 1.88154 0
M  V30 9264 H 895.949 -2.48644 2.9851 0
M  V30 9265 H 897.621 -0.430743 4.59285 0
M  V30 9266 H 895.864 -0.335911 4.32497 0
M  V30 9267 H 896.535 -1.6761 5.25938 0
M  V30 9268 H 899.011 -2.3306 3.44706 0
M  V30 9269 H 897.887 -3.43226 4.28354 0
M  V30 9270 H 898.148 -3.60768 2.55537 0
M  V30 9271 N 897.207 -1.48554 -0.526253 0
M  V30 9272 C 898.17 -1.62868 -1.61266 0
M  V30 9273 C 899.17 -0.501762 -1.52771 0
M  V30 9274 O 900.36 -0.76764 -1.56374 0
M  V30 9275 C 897.492 -1.60238 -3.00893 0
M  V30 9276 H 898.685 -2.59742 -1.49913 0
M  V30 9277 H 896.238 -1.37207 -0.748595 0
M  V30 9278 H 896.973 -0.648545 -3.17749 0
M  V30 9279 H 896.758 -2.42054 -3.08468 0
M  V30 9280 H 898.248 -1.73455 -3.79872 0
M  V30 9281 N 898.685 0.775411 -1.37205 0
M  V30 9282 C 899.931 1.53611 -1.32407 0
M  V30 9283 C 900.264 1.9398 0.0924103 0
M  V30 9284 O 899.539 1.63791 1.04893 0
M  V30 9285 C 899.822 2.80367 -2.25979 0
M  V30 9286 C 899.675 2.46275 -3.76389 0
M  V30 9287 C 900.994 3.82277 -2.18064 0
M  V30 9288 H 898.113 0.557278 -0.482297 0
M  V30 9289 H 900.755 0.889826 -1.67875 0
M  V30 9290 H 898.905 3.35515 -1.95862 0
M  V30 9291 H 900.577 1.9707 -4.17087 0
M  V30 9292 H 898.82 1.79023 -3.95137 0
M  V30 9293 H 899.491 3.36868 -4.37291 0
M  V30 9294 H 901.967 3.36613 -2.44604 0
M  V30 9295 H 900.843 4.68696 -2.85684 0
M  V30 9296 H 901.104 4.26272 -1.17239 0
M  V30 9297 N 900.163 1.21714 1.00117 0
M  V30 9298 C 901.44 0.945391 1.71236 0
M  V30 9299 C 901.82 -0.541772 2.0403 0
M  V30 9300 O 901.168 -1.50763 1.71705 0
M  V30 9301 C 901.378 1.83444 2.96899 0
M  V30 9302 C 902.726 2.08558 3.69849 0
M  V30 9303 O 903.75 1.80824 3.06889 0
M  V30 9304 O 902.609 2.55485 4.83104 0
M  V30 9305 H 899.703 0.354834 0.747009 0
M  V30 9306 H 902.249 1.32661 1.05825 0
M  V30 9307 H 901.021 2.84075 2.69105 0
M  V30 9308 H 900.644 1.45428 3.70049 0
M  V30 9309 N 901.641 -1.19671 1.02551 0
M  V30 9310 C 902.887 -1.89818 0.730801 0
M  V30 9311 C 903.242 -1.77917 -0.732355 0
M  V30 9312 O 902.535 -1.15848 -1.5261 0
M  V30 9313 C 902.729 -3.39647 1.11241 0
M  V30 9314 C 902.558 -3.66129 2.61112 0
M  V30 9315 C 901.328 -3.84348 3.28032 0
M  V30 9316 C 903.526 -3.67963 3.59316 0
M  V30 9317 N 901.508 -3.98429 4.67041 0
M  V30 9318 C 902.879 -3.87575 4.83927 0
M  V30 9319 C 904.934 -3.50971 3.53162 0
M  V30 9320 C 903.637 -3.91957 6.03127 0
M  V30 9321 C 905.663 -3.56629 4.71773 0
M  V30 9322 C 905.025 -3.76722 5.95197 0
M  V30 9323 H 901.124 -0.713873 0.319232 0
M  V30 9324 H 903.708 -1.43844 1.31213 0
M  V30 9325 H 901.879 -3.84352 0.559324 0
M  V30 9326 H 903.611 -3.97301 0.77031 0
M  V30 9327 H 900.366 -3.83097 2.78448 0
M  V30 9328 H 900.79 -4.09327 5.39241 0
M  V30 9329 H 905.432 -3.34395 2.58728 0
M  V30 9330 H 903.15 -4.07326 6.97933 0
M  V30 9331 H 906.736 -3.44777 4.68637 0
M  V30 9332 H 905.616 -3.8097 6.85442 0
M  V30 9333 N 903.119 -0.802921 -1.35613 0
M  V30 9334 C 904.052 -0.156345 -2.27664 0
M  V30 9335 C 905.03 0.675517 -1.47904 0
M  V30 9336 O 906.214 0.643589 -1.77173 0
M  V30 9337 C 903.341 0.78348 -3.29514 0
M  V30 9338 C 902.387 0.0317062 -4.26488 0
M  V30 9339 S 903.22 -1.30183 -5.19435 0
M  V30 9340 C 904.376 -0.366354 -6.24827 0
M  V30 9341 H 904.609 -0.936803 -2.82155 0
M  V30 9342 H 902.142 -0.597799 -1.42358 0
M  V30 9343 H 904.1 1.32023 -3.8869 0
M  V30 9344 H 902.761 1.53729 -2.73909 0
M  V30 9345 H 901.954 0.745364 -4.98458 0
M  V30 9346 H 901.556 -0.43497 -3.71462 0
M  V30 9347 H 903.848 0.44976 -6.76005 0
M  V30 9348 H 904.791 -1.05513 -7.00195 0
M  V30 9349 H 905.199 0.0363203 -5.64488 0
M  V30 9350 N 904.597 1.47463 -0.556102 0
M  V30 9351 C 905.845 2.02075 -0.0315712 0
M  V30 9352 C 906.166 1.43292 1.32259 0
M  V30 9353 O 905.436 0.60771 1.86236 0
M  V30 9354 H 904.016 0.74695 -0.0086816 0
M  V30 9355 H 906.678 1.80879 -0.725859 0
M  V30 9356 H 905.774 3.12047 0.0573538 0
M  V30 9357 N 906.075 0.2925 1.54862 0
M  V30 9358 C 907.352 -0.371946 1.92031 0
M  V30 9359 C 907.732 -1.72363 1.21878 0
M  V30 9360 O 907.08 -2.25779 0.351573 0
M  V30 9361 C 907.29 -0.495027 3.45471 0
M  V30 9362 C 908.638 -0.769855 4.17562 0
M  V30 9363 O 909.662 -0.579168 3.5146 0
M  V30 9364 O 908.521 -1.13561 5.34571 0
M  V30 9365 H 905.615 -0.206463 0.800813 0
M  V30 9366 H 908.161 0.339933 1.6626 0
M  V30 9367 H 906.933 0.455528 3.88639 0
M  V30 9368 H 906.556 -1.2557 3.7725 0
M  V30 9369 N 907.553 -1.57587 0.0200696 0
M  V30 9370 C 908.501 -2.10814 -0.982868 0
M  V30 9371 C 909.495 -1.03263 -1.34287 0
M  V30 9372 O 910.701 -1.21708 -1.32617 0
M  V30 9373 H 907.076 -0.673409 -0.334701 0
M  V30 9374 H 909.047 -2.94034 -0.50856 0
M  V30 9375 C 907.796 -2.64301 -2.25921 0
M  V30 9376 H 907.119 -3.46703 -1.99091 0
M  V30 9377 H 908.559 -3.052 -2.94328 0
M  V30 9378 C 907.018 -1.56628 -2.98277 0
M  V30 9379 O 907.548 -0.960825 -3.9004 0
M  V30 9380 N 905.754 -1.28889 -2.60453 0
M  V30 9381 H 905.301 -1.7831 -1.85912 0
M  V30 9382 H 905.259 -0.570697 -3.09177 0
M  V30 9383 N 909.032 0.252966 -1.55557 0
M  V30 9384 C 909.962 1.31691 -1.9282 0
M  V30 9385 C 910.943 1.50516 -0.7924 0
M  V30 9386 O 912.128 1.63225 -1.05219 0
M  V30 9387 C 909.258 2.67281 -2.21762 0
M  V30 9388 C 908.212 2.6316 -3.37536 0
M  V30 9389 C 907.538 4.02488 -3.52005 0
M  V30 9390 C 908.838 2.20675 -4.73392 0
M  V30 9391 H 910.532 1.00751 -2.81939 0
M  V30 9392 H 908.078 0.483219 -1.3565 0
M  V30 9393 H 910.031 3.41842 -2.46419 0
M  V30 9394 H 908.755 2.99845 -1.29463 0
M  V30 9395 H 907.414 1.91057 -3.12878 0
M  V30 9396 H 907.062 4.32307 -2.57137 0
M  V30 9397 H 906.762 4.00621 -4.29857 0
M  V30 9398 H 908.286 4.78758 -3.78977 0
M  V30 9399 H 909.7 2.84965 -4.97461 0
M  V30 9400 H 908.097 2.29931 -5.54303 0
M  V30 9401 H 909.167 1.15831 -4.70862 0
M  V30 9402 N 910.51 1.48831 0.518367 0
M  V30 9403 C 911.74 1.60886 1.29612 0
M  V30 9404 C 912.148 0.272713 1.87224 0
M  V30 9405 O 911.491 -0.749653 1.67708 0
M  V30 9406 C 911.553 2.60541 2.47707 0
M  V30 9407 C 911.217 4.05324 2.11095 0
M  V30 9408 C 912.214 4.92658 1.66084 0
M  V30 9409 C 909.899 4.50942 2.21262 0
M  V30 9410 C 911.893 6.23641 1.3172 0
M  V30 9411 C 909.58 5.81943 1.8651 0
M  V30 9412 C 910.578 6.68116 1.41812 0
M  V30 9413 O 910.266 7.96677 1.07522 0
M  V30 9414 H 909.998 0.544968 0.399982 0
M  V30 9415 H 912.552 1.95474 0.630799 0
M  V30 9416 H 910.782 2.21098 3.17258 0
M  V30 9417 H 912.471 2.62308 3.09757 0
M  V30 9418 H 913.237 4.58649 1.5769 0
M  V30 9419 H 909.116 3.84048 2.55007 0
M  V30 9420 H 912.66 6.90857 0.967598 0
M  V30 9421 H 908.557 6.15484 1.94549 0
M  V30 9422 H 909.325 8.09534 1.2082 0
M  V30 9423 N 911.988 -0.768124 1.37614 0
M  V30 9424 C 913.234 -1.52823 1.34226 0
M  V30 9425 C 913.589 -1.92266 -0.0717482 0
M  V30 9426 O 912.882 -1.61484 -1.03119 0
M  V30 9427 C 913.076 -2.80204 2.21856 0
M  V30 9428 C 912.905 -2.53213 3.71636 0
M  V30 9429 C 911.675 -2.47159 4.40727 0
M  V30 9430 C 913.873 -2.20965 4.64413 0
M  V30 9431 N 911.855 -2.12289 5.76026 0
M  V30 9432 C 913.226 -1.96264 5.88116 0
M  V30 9433 C 915.281 -2.07151 4.52761 0
M  V30 9434 C 913.984 -1.59145 7.01474 0
M  V30 9435 C 916.01 -1.71432 5.66008 0
M  V30 9436 C 915.372 -1.47594 6.88764 0
M  V30 9437 H 911.471 -0.559388 0.546451 0
M  V30 9438 H 914.055 -0.895795 1.72869 0
M  V30 9439 H 912.226 -3.4128 1.85424 0
M  V30 9440 H 913.958 -3.46133 2.097 0
M  V30 9441 H 910.713 -2.63137 3.93772 0
M  V30 9442 H 911.137 -1.97541 6.47539 0
M  V30 9443 H 915.779 -2.24262 3.58422 0
M  V30 9444 H 913.497 -1.40773 7.95744 0
M  V30 9445 H 917.083 -1.61397 5.58965 0
M  V30 9446 H 915.963 -1.20365 7.74908 0
M  V30 9447 N 913.466 -1.22244 -0.994698 0
M  V30 9448 C 914.694 -1.07218 -1.76952 0
M  V30 9449 C 915.109 0.377388 -1.8499 0
M  V30 9450 O 914.466 1.26157 -1.31874 0
M  V30 9451 C 914.517 -1.67496 -3.20355 0
M  V30 9452 O 914.238 -3.06782 -3.12756 0
M  V30 9453 C 915.739 -1.57721 -4.14294 0
M  V30 9454 H 912.959 -0.375966 -0.555779 0
M  V30 9455 H 915.503 -1.61799 -1.25065 0
M  V30 9456 H 913.658 -1.16982 -3.69315 0
M  V30 9457 H 914.072 -3.35784 -4.02926 0
M  V30 9458 H 915.546 -2.04623 -5.12673 0
M  V30 9459 H 916.023 -0.533434 -4.35949 0
M  V30 9460 H 916.629 -2.07531 -3.71229 0
M  V30 9461 N 914.944 1.19125 -1.03184 0
M  V30 9462 C 916.221 1.84674 -0.644574 0
M  V30 9463 C 916.601 1.92042 0.876534 0
M  V30 9464 O 915.949 1.43965 1.77444 0
M  V30 9465 C 916.159 3.23477 -1.3101 0
M  V30 9466 C 917.507 3.99608 -1.43524 0
M  V30 9467 O 918.531 3.32886 -1.2675 0
M  V30 9468 O 917.39 5.19132 -1.70776 0
M  V30 9469 H 914.484 0.795968 -0.22442 0
M  V30 9470 H 917.03 1.2659 -1.13018 0
M  V30 9471 H 915.802 3.12967 -2.34878 0
M  V30 9472 H 915.425 3.89209 -0.812547 0
M  V30 9473 N 916.422 0.810101 1.35185 0
M  V30 9474 C 917.699 0.315235 1.93043 0
M  V30 9475 C 918.079 -1.19567 1.73974 0
M  V30 9476 O 917.427 -1.99682 1.11083 0
M  V30 9477 C 917.637 0.730492 3.41269 0
M  V30 9478 C 918.985 0.721985 4.18417 0
M  V30 9479 O 920.009 0.672258 3.49799 0
M  V30 9480 O 918.868 0.783535 5.40854 0
M  V30 9481 H 915.962 0.0832774 0.822796 0
M  V30 9482 H 918.508 0.894034 1.4424 0
M  V30 9483 H 917.28 1.77169 3.48894 0
M  V30 9484 H 916.903 0.12669 3.97398 0
M  V30 9485 N 917.9 -1.47166 0.563914 0
M  V30 9486 C 919.148 -2.02056 0.0422873 0
M  V30 9487 C 919.469 -1.43992 -1.31497 0
M  V30 9488 O 918.739 -0.617578 -1.85911 0
M  V30 9489 H 917.319 -0.746893 0.0126427 0
M  V30 9490 H 919.981 -1.80492 0.735441 0
M  V30 9491 H 919.077 -3.12073 -0.0408044 0
M  V30 9492 N 919.378 -0.300708 -1.54705 0
M  V30 9493 C 920.789 0.191995 -1.8571 0
M  V30 9494 C 921.14 1.53447 -1.22264 0
M  V30 9495 O 920.265 2.10054 -0.520226 0
M  V30 9496 C 920.86 0.355148 -3.36933 0
M  V30 9497 C 919.419 0.792071 -3.67972 0
M  V30 9498 C 918.566 -0.099756 -2.77121 0
M  V30 9499 H 921.517 -0.521729 -1.49879 0
M  V30 9500 H 921.538 1.18977 -3.61421 0
M  V30 9501 H 921.05 -0.622075 -3.83082 0
M  V30 9502 H 919.151 1.77986 -3.27341 0
M  V30 9503 H 919.264 0.611661 -4.75179 0
M  V30 9504 H 917.628 0.420909 -2.51198 0
M  V30 9505 H 918.411 -1.07333 -3.2609 0
M  V30 9506 N 920.856 1.57574 -0.0284266 0
M  V30 9507 C 921.803 2.10176 0.953658 0
M  V30 9508 C 922.773 1.00367 1.32347 0
M  V30 9509 O 923.958 1.27783 1.4169 0
M  V30 9510 C 921.098 2.63287 2.231 0
M  V30 9511 C 920.211 3.87102 1.91771 0
M  V30 9512 C 919.346 4.28609 3.13795 0
M  V30 9513 C 918.385 5.45184 2.78282 0
M  V30 9514 N 917.522 5.81851 3.92929 0
M  V30 9515 H 922.362 2.93806 0.498176 0
M  V30 9516 H 919.899 1.45222 0.234302 0
M  V30 9517 H 921.857 2.9217 2.97813 0
M  V30 9518 H 920.487 1.82489 2.66266 0
M  V30 9519 H 919.539 3.64952 1.07303 0
M  V30 9520 H 920.851 4.71892 1.61615 0
M  V30 9521 H 920.005 4.58925 3.96829 0
M  V30 9522 H 918.744 3.42585 3.47112 0
M  V30 9523 H 917.749 5.14563 1.93661 0
M  V30 9524 H 918.974 6.32907 2.46182 0
M  V30 9525 H 916.92 4.98782 4.2609 0
M  V30 9526 H 916.837 6.6128 3.66395 0
M  V30 9527 H 918.105 6.16772 4.76669 0
M  V30 9528 N 922.334 -0.244713 1.55689 0
M  V30 9529 C 923.281 -1.30301 1.905 0
M  V30 9530 C 924.251 -1.4772 0.759478 0
M  V30 9531 O 925.436 -1.61667 1.01333 0
M  V30 9532 C 922.576 -2.653 2.20703 0
M  V30 9533 C 921.689 -2.55872 3.48071 0
M  V30 9534 C 920.824 -3.83238 3.67834 0
M  V30 9535 C 919.863 -3.68436 4.88796 0
M  V30 9536 N 919 -4.877 5.05068 0
M  V30 9537 H 923.84 -0.999143 2.80751 0
M  V30 9538 H 921.377 -0.482099 1.38976 0
M  V30 9539 H 923.335 -3.43884 2.36219 0
M  V30 9540 H 921.965 -2.93831 1.33653 0
M  V30 9541 H 921.017 -1.68846 3.40874 0
M  V30 9542 H 922.329 -2.40845 4.36801 0
M  V30 9543 H 921.483 -4.70266 3.83321 0
M  V30 9544 H 920.222 -4.01165 2.77341 0
M  V30 9545 H 919.227 -2.79793 4.73282 0
M  V30 9546 H 920.452 -3.52003 5.8075 0
M  V30 9547 H 918.398 -5.05983 4.17513 0
M  V30 9548 H 918.315 -4.75312 5.8789 0
M  V30 9549 H 919.583 -5.76219 5.24969 0
M  V30 9550 N 923.813 -1.49104 -0.510467 0
M  V30 9551 C 925.041 -1.61806 -1.28944 0
M  V30 9552 C 925.456 -0.285774 -1.86625 0
M  V30 9553 O 924.813 0.727551 -1.67371 0
M  V30 9554 C 924.864 -2.67966 -2.42645 0
M  V30 9555 O 924.585 -3.96026 -1.87337 0
M  V30 9556 C 926.086 -2.91286 -3.34166 0
M  V30 9557 H 923.306 -0.544999 -0.391429 0
M  V30 9558 H 925.85 -1.95071 -0.613805 0
M  V30 9559 H 924.005 -2.37505 -3.06056 0
M  V30 9560 H 924.419 -4.54427 -2.61909 0
M  V30 9561 H 925.893 -3.69323 -4.1025 0
M  V30 9562 H 926.37 -2.00842 -3.90588 0
M  V30 9563 H 926.976 -3.23127 -2.76531 0
M  V30 9564 N 925.291 0.760815 -1.38019 0
M  V30 9565 C 926.54 1.51506 -1.3315 0
M  V30 9566 C 926.853 1.95444 0.0782124 0
M  V30 9567 O 928.059 2.70352 0.249418 0
M  V30 9568 C 926.515 2.73636 -2.33776 0
M  V30 9569 C 926.123 2.36753 -3.80332 0
M  V30 9570 C 927.867 3.51548 -2.37937 0
M  V30 9571 C 925.774 3.55451 -4.72661 0
M  V30 9572 H 924.704 0.568844 -0.494907 0
M  V30 9573 H 927.355 0.832343 -1.63537 0
M  V30 9574 H 925.737 3.43852 -1.96422 0
M  V30 9575 H 926.911 1.7425 -4.26584 0
M  V30 9576 H 925.226 1.71991 -3.7922 0
M  V30 9577 H 927.823 4.39791 -3.04119 0
M  V30 9578 H 928.166 3.9219 -1.39617 0
M  V30 9579 H 928.699 2.88339 -2.74054 0
M  V30 9580 H 925.438 3.19882 -5.7215 0
M  V30 9581 H 924.958 4.17022 -4.31107 0
M  V30 9582 H 926.637 4.22125 -4.90326 0
M  V30 9583 N 926.769 1.22769 0.988202 0
M  V30 9584 C 927.994 1.08239 1.76915 0
M  V30 9585 C 928.419 -0.362519 1.84574 0
M  V30 9586 O 927.777 -1.26202 1.30165 0
M  V30 9587 C 927.825 1.70363 3.17819 0
M  V30 9588 O 926.929 0.960484 4.01059 0
M  V30 9589 H 926.27 0.379872 0.544604 0
M  V30 9590 H 928.8 1.62663 1.24104 0
M  V30 9591 H 928.81 1.7528 3.6843 0
M  V30 9592 H 927.485 2.75505 3.1156 0
M  V30 9593 H 926.062 0.987667 3.59582 0
M  V30 9594 N 928.247 -1.18576 1.03814 0
M  V30 9595 C 929.493 -1.88773 0.741132 0
M  V30 9596 C 929.826 -1.79993 -0.729127 0
M  V30 9597 O 929.101 -1.19851 -1.53186 0
M  V30 9598 C 929.384 -3.39352 1.20468 0
M  V30 9599 C 929.237 -3.56955 2.73684 0
M  V30 9600 C 930.556 -4.32901 0.792741 0
M  V30 9601 H 927.675 -0.685482 0.270708 0
M  V30 9602 H 930.317 -1.39523 1.2897 0
M  V30 9603 H 928.467 -3.81427 0.737974 0
M  V30 9604 H 930.139 -3.2399 3.28372 0
M  V30 9605 H 928.382 -2.99696 3.13632 0
M  V30 9606 H 929.053 -4.62598 3.01176 0
M  V30 9607 H 931.529 -3.98592 1.1943 0
M  V30 9608 H 930.405 -5.36828 1.14486 0
M  V30 9609 H 930.666 -4.41052 -0.304295 0
M  V30 9610 N 929.725 -0.817259 -1.34754 0
M  V30 9611 C 930.688 -0.240611 -2.27934 0
M  V30 9612 C 931.688 0.578219 -1.50044 0
M  V30 9613 O 932.878 0.395148 -1.69659 0
M  V30 9614 C 930.01 0.663318 -3.34384 0
M  V30 9615 H 931.203 -1.06257 -2.80445 0
M  V30 9616 H 928.756 -0.588697 -1.4479 0
M  V30 9617 H 929.491 1.50855 -2.87077 0
M  V30 9618 H 929.276 0.0777388 -3.92023 0
M  V30 9619 H 930.766 1.06076 -4.03903 0
M  V30 9620 N 931.203 1.46865 -0.571711 0
M  V30 9621 C 932.619 1.57897 -0.23255 0
M  V30 9622 C 932.819 1.56836 1.26509 0
M  V30 9623 O 931.875 1.47947 2.04617 0
M  V30 9624 C 933.188 2.87778 -0.872036 0
M  V30 9625 C 934.736 3.01389 -0.844605 0
M  V30 9626 C 935.211 4.33991 -1.46343 0
M  V30 9627 N 936.702 4.40662 -1.42727 0
M  V30 9628 C 937.437 5.41858 -1.87557 0
M  V30 9629 N 936.933 6.49787 -2.4031 0
M  V30 9630 N 938.726 5.32992 -1.7854 0
M  V30 9631 H 930.877 1.45798 -1.54457 0
M  V30 9632 H 933.14 0.694785 -0.644964 0
M  V30 9633 H 932.846 2.94332 -1.92513 0
M  V30 9634 H 932.72 3.75345 -0.373677 0
M  V30 9635 H 935.107 2.94423 0.19984 0
M  V30 9636 H 935.188 2.15327 -1.38087 0
M  V30 9637 H 934.832 4.41714 -2.50701 0
M  V30 9638 H 934.762 5.18809 -0.902479 0
M  V30 9639 H 937.253 3.63263 -1.04155 0
M  V30 9640 H 937.566 7.23199 -2.72403 0
M  V30 9641 H 935.911 6.50637 -2.44329 0
M  V30 9642 H 939.102 4.47575 -1.37093 0
M  V30 9643 H 939.275 6.11716 -2.13794 0
M  V30 9644 N 932.681 0.308908 1.54543 0
M  V30 9645 C 933.611 -0.556657 2.26768 0
M  V30 9646 C 934.592 -1.13145 1.27013 0
M  V30 9647 O 935.777 -1.15931 1.558 0
M  V30 9648 C 932.907 -1.72481 3.01443 0
M  V30 9649 C 931.861 -1.28001 4.08411 0
M  V30 9650 C 931.187 -2.53395 4.70845 0
M  V30 9651 C 932.487 -0.405497 5.20724 0
M  V30 9652 H 934.181 0.0457618 2.99365 0
M  V30 9653 H 931.727 0.0234495 1.43981 0
M  V30 9654 H 933.68 -2.3365 3.50693 0
M  V30 9655 H 932.404 -2.35359 2.26437 0
M  V30 9656 H 931.063 -0.69133 3.60022 0
M  V30 9657 H 930.711 -3.14604 3.92471 0
M  V30 9658 H 930.411 -2.2433 5.43093 0
M  V30 9659 H 931.935 -3.15352 5.22863 0
M  V30 9660 H 933.349 -0.923076 5.6582 0
M  V30 9661 H 931.746 -0.208282 5.99738 0
M  V30 9662 H 932.816 0.567412 4.81569 0
M  V30 9663 N 934.159 -1.57557 0.0367827 0
M  V30 9664 C 935.069 -2.14148 -0.958017 0
M  V30 9665 C 936.085 -1.09564 -1.35173 0
M  V30 9666 O 937.261 -1.4166 -1.43158 0
M  V30 9667 C 934.326 -2.6636 -2.21931 0
M  V30 9668 C 933.387 -3.85688 -1.8853 0
M  V30 9669 C 932.62 -4.35401 -3.08645 0
M  V30 9670 O 932.843 -3.8425 -4.21554 0
M  V30 9671 O 931.777 -5.27158 -2.90497 0
M  V30 9672 H 935.603 -2.99442 -0.506797 0
M  V30 9673 H 933.188 -1.48259 -0.184275 0
M  V30 9674 H 935.07 -2.99976 -2.9596 0
M  V30 9675 H 933.745 -1.84145 -2.66219 0
M  V30 9676 H 932.652 -3.56985 -1.11861 0
M  V30 9677 H 933.985 -4.69089 -1.49052 0
M  V30 9678 N 935.637 0.236453 -1.55816 0
M  V30 9679 C 936.584 1.29289 -1.91188 0
M  V30 9680 C 937.554 1.47315 -0.767301 0
M  V30 9681 O 938.739 1.61128 -1.02189 0
M  V30 9682 C 935.879 2.64126 -2.22107 0
M  V30 9683 C 934.992 2.54022 -3.49423 0
M  V30 9684 C 934.127 3.81282 -3.69861 0
M  V30 9685 C 933.166 3.65839 -4.90743 0
M  V30 9686 N 932.303 4.85014 -5.07647 0
M  V30 9687 H 937.143 0.98424 -2.81277 0
M  V30 9688 H 934.68 0.474722 -1.39229 0
M  V30 9689 H 936.638 3.42626 -2.3804 0
M  V30 9690 H 935.268 2.93118 -1.35209 0
M  V30 9691 H 934.32 1.67036 -3.41765 0
M  V30 9692 H 935.632 2.38525 -4.38072 0
M  V30 9693 H 934.786 4.68226 -3.8581 0
M  V30 9694 H 933.525 3.99688 -2.79465 0
M  V30 9695 H 932.53 2.77279 -4.74759 0
M  V30 9696 H 933.755 3.48918 -5.82609 0
M  V30 9697 H 931.701 5.03762 -4.20191 0
M  V30 9698 H 931.618 4.72188 -5.90402 0
M  V30 9699 H 932.886 5.73427 -5.28017 0
M  V30 9700 N 937.115 1.49373 0.502552 0
M  V30 9701 C 938.078 1.65413 1.58654 0
M  V30 9702 C 939.078 0.526003 1.51953 0
M  V30 9703 O 940.268 0.792421 1.55133 0
M  V30 9704 C 937.4 1.65005 2.98306 0
M  V30 9705 H 938.593 2.62095 1.45762 0
M  V30 9706 H 936.146 1.38381 0.726672 0
M  V30 9707 H 936.881 0.699014 3.16677 0
M  V30 9708 H 936.666 2.46931 3.04578 0
M  V30 9709 H 938.156 1.79477 3.77065 0
M  V30 9710 N 938.594 -0.753485 1.38421 0
M  V30 9711 C 939.557 -1.84888 1.35459 0
M  V30 9712 C 940.557 -1.58764 0.255083 0
M  V30 9713 O 941.747 -1.66507 0.511978 0
M  V30 9714 C 938.879 -3.22361 1.10888 0
M  V30 9715 H 940.072 -1.88922 2.32913 0
M  V30 9716 H 937.625 -0.955199 1.23716 0
M  V30 9717 H 938.36 -3.23996 0.1404 0
M  V30 9718 H 938.145 -3.42717 1.90492 0
M  V30 9719 H 939.635 -4.02437 1.1151 0
M  V30 9720 N 940.072 -1.23292 -0.981677 0
M  V30 9721 C 941.004 -0.970782 -2.07626 0
M  V30 9722 C 942.017 0.0547506 -1.62708 0
M  V30 9723 O 943.206 -0.180623 -1.77584 0
M  V30 9724 C 940.306 -0.44055 -3.36024 0
M  V30 9725 C 939.479 -1.52595 -4.09919 0
M  V30 9726 C 938.538 -1.00082 -5.16595 0
M  V30 9727 O 937.564 -1.68951 -5.43548 0
M  V30 9728 N 938.766 0.172017 -5.80245 0
M  V30 9729 H 941.531 -1.91316 -2.30691 0
M  V30 9730 H 939.092 -1.14133 -1.14828 0
M  V30 9731 H 941.084 -0.0743111 -4.04632 0
M  V30 9732 H 939.654 0.407211 -3.09936 0
M  V30 9733 H 938.874 -2.06501 -3.35784 0
M  V30 9734 H 940.162 -2.2559 -4.56055 0
M  V30 9735 H 939.56 0.748129 -5.60731 0
M  V30 9736 H 938.117 0.479532 -6.50034 0
M  V30 9737 N 941.55 1.18024 -1.04442 0
M  V30 9738 C 942.778 1.92032 -0.770161 0
M  V30 9739 C 943.193 1.76391 0.673181 0
M  V30 9740 O 942.55 1.09604 1.45922 0
M  V30 9741 C 942.601 3.43328 -1.13173 0
M  V30 9742 O 942.322 3.5848 -2.51841 0
M  V30 9743 C 943.823 4.34427 -0.882523 0
M  V30 9744 H 941.043 0.609518 -0.280586 0
M  V30 9745 H 943.587 1.49711 -1.39308 0
M  V30 9746 H 941.742 3.83423 -0.553704 0
M  V30 9747 H 942.156 4.52166 -2.65794 0
M  V30 9748 H 943.63 5.39123 -1.18533 0
M  V30 9749 H 944.107 4.3882 0.18257 0
M  V30 9750 H 944.713 4.00035 -1.44403 0
M  V30 9751 N 943.028 0.824394 1.34319 0
M  V30 9752 C 944.444 0.510336 1.51221 0
M  V30 9753 C 944.644 -0.965201 1.76879 0
M  V30 9754 O 943.7 -1.74961 1.82057 0
M  V30 9755 C 945.013 1.37114 2.6762 0
M  V30 9756 C 946.561 1.36842 2.81502 0
M  V30 9757 C 947.036 2.21374 4.00946 0
M  V30 9758 N 948.527 2.19005 4.08156 0
M  V30 9759 C 949.262 2.81159 4.99737 0
M  V30 9760 N 948.758 3.52309 5.96532 0
M  V30 9761 N 950.551 2.70706 4.9262 0
M  V30 9762 H 942.702 1.77976 1.15924 0
M  V30 9763 H 944.965 0.758503 0.568663 0
M  V30 9764 H 944.671 2.41905 2.55294 0
M  V30 9765 H 944.545 1.03689 3.62669 0
M  V30 9766 H 946.932 0.328284 2.93268 0
M  V30 9767 H 947.013 1.74265 1.87257 0
M  V30 9768 H 946.657 3.25437 3.8994 0
M  V30 9769 H 946.587 1.813 4.94407 0
M  V30 9770 H 949.078 1.67252 3.38874 0
M  V30 9771 H 949.391 3.96977 6.63045 0
M  V30 9772 H 947.736 3.56415 5.96652 0
M  V30 9773 H 950.927 2.14694 4.15962 0
M  V30 9774 H 951.1 3.19431 5.63798 0
M  V30 9775 N 944.506 -1.46559 0.579492 0
M  V30 9776 C 945.453 -2.30275 -0.155598 0
M  V30 9777 C 946.423 -1.40422 -0.887175 0
M  V30 9778 O 947.608 -1.69373 -0.878481 0
M  V30 9779 C 944.748 -3.24827 -1.16539 0
M  V30 9780 C 943.861 -4.29778 -0.43759 0
M  V30 9781 C 942.996 -5.11461 -1.43462 0
M  V30 9782 C 942.035 -6.08164 -0.693048 0
M  V30 9783 N 941.172 -6.82726 -1.63799 0
M  V30 9784 H 946.012 -2.92607 0.564356 0
M  V30 9785 H 943.549 -1.44211 0.290126 0
M  V30 9786 H 945.507 -3.78088 -1.76368 0
M  V30 9787 H 944.137 -2.64311 -1.8531 0
M  V30 9788 H 943.189 -3.794 0.27567 0
M  V30 9789 H 944.501 -4.98597 0.142298 0
M  V30 9790 H 943.655 -5.68982 -2.1058 0
M  V30 9791 H 942.394 -4.42595 -2.04844 0
M  V30 9792 H 941.399 -5.49799 -0.00807093 0
M  V30 9793 H 942.624 -6.79047 -0.0846678 0
M  V30 9794 H 940.57 -6.16572 -2.23997 0
M  V30 9795 H 940.487 -7.47795 -1.11082 0
M  V30 9796 H 941.755 -7.44807 -2.29962 0
M  V30 9797 N 945.984 -0.3171 -1.54377 0
M  V30 9798 C 947.212 0.289558 -2.04864 0
M  V30 9799 C 947.627 1.46284 -1.19359 0
M  V30 9800 O 946.984 1.81135 -0.222795 0
M  V30 9801 C 947.035 0.730273 -3.54047 0
M  V30 9802 O 946.756 -0.396325 -4.36304 0
M  V30 9803 C 948.257 1.40041 -4.20599 0
M  V30 9804 H 945.477 0.0605836 -0.668259 0
M  V30 9805 H 948.021 -0.461411 -1.99227 0
M  V30 9806 H 946.176 1.43123 -3.59992 0
M  V30 9807 H 946.59 -0.0502901 -5.24476 0
M  V30 9808 H 948.064 1.65979 -5.26455 0
M  V30 9809 H 948.541 2.34565 -3.71316 0
M  V30 9810 H 949.147 0.742206 -4.18774 0
M  V30 9811 N 947.462 1.57535 -0.0451378 0
M  V30 9812 C 948.392 2.14208 0.929372 0
M  V30 9813 C 949.373 1.06221 1.32858 0
M  V30 9814 O 950.558 1.34132 1.40436 0
M  V30 9815 C 947.688 2.68217 2.20629 0
M  V30 9816 C 946.642 3.81134 1.94734 0
M  V30 9817 C 945.968 4.21636 3.28828 0
M  V30 9818 C 947.268 5.06531 1.27374 0
M  V30 9819 H 948.962 2.95886 0.457348 0
M  V30 9820 H 946.508 1.42332 0.218544 0
M  V30 9821 H 948.461 3.06502 2.89196 0
M  V30 9822 H 947.185 1.83722 2.70026 0
M  V30 9823 H 945.844 3.43312 1.28579 0
M  V30 9824 H 945.492 3.34099 3.76014 0
M  V30 9825 H 945.192 4.97736 3.12302 0
M  V30 9826 H 946.716 4.62516 3.98637 0
M  V30 9827 H 948.13 5.423 1.85967 0
M  V30 9828 H 946.527 5.87735 1.21194 0
M  V30 9829 H 947.597 4.84261 0.248913 0
M  V30 9830 N 948.94 -0.228186 1.55939 0
M  V30 9831 C 950.189 -0.951563 1.77843 0
M  V30 9832 C 950.502 -1.85763 0.612501 0
M  V30 9833 O 951.708 -2.61916 0.715006 0
M  V30 9834 C 950.164 -1.74216 3.14923 0
M  V30 9835 C 949.772 -0.882569 4.39221 0
M  V30 9836 C 951.516 -2.45715 3.46156 0
M  V30 9837 C 949.423 -1.67014 5.67327 0
M  V30 9838 H 948.353 -0.359035 0.663031 0
M  V30 9839 H 951.004 -0.205636 1.82344 0
M  V30 9840 H 949.386 -2.53075 3.0458 0
M  V30 9841 H 950.56 -0.13499 4.60602 0
M  V30 9842 H 948.875 -0.280022 4.15457 0
M  V30 9843 H 951.472 -3.05127 4.39092 0
M  V30 9844 H 951.815 -3.1827 2.68346 0
M  V30 9845 H 952.348 -1.73852 3.57799 0
M  V30 9846 H 949.087 -0.987985 6.48012 0
M  V30 9847 H 948.607 -2.3925 5.50018 0
M  V30 9848 H 950.286 -2.23252 6.07262 0
M  V30 9849 N 950.418 -1.49637 -0.494624 0
M  V30 9850 C 951.328 -1.69522 -1.62172 0
M  V30 9851 C 952.344 -0.577894 -1.64123 0
M  V30 9852 O 953.52 -0.853382 -1.82426 0
M  V30 9853 C 950.585 -1.7633 -2.9851 0
M  V30 9854 C 949.646 -2.99944 -3.07135 0
M  V30 9855 C 948.879 -3.06419 -4.36971 0
M  V30 9856 O 949.102 -2.20312 -5.26136 0
M  V30 9857 O 948.036 -3.9894 -4.507 0
M  V30 9858 H 951.862 -2.65017 -1.48324 0
M  V30 9859 H 949.447 -1.33454 -0.671603 0
M  V30 9860 H 951.329 -1.83125 -3.7953 0
M  V30 9861 H 950.004 -0.840155 -3.12607 0
M  V30 9862 H 948.911 -2.98664 -2.2528 0
M  V30 9863 H 950.244 -3.9176 -2.97968 0
M  V30 9864 N 951.896 0.746133 -1.38819 0
M  V30 9865 C 953.144 1.50247 -1.35167 0
M  V30 9866 C 953.465 1.94921 0.0553531 0
M  V30 9867 O 952.735 1.68187 1.00449 0
M  V30 9868 H 951.315 0.557337 -0.497377 0
M  V30 9869 H 953.977 0.886472 -1.73573 0
M  V30 9870 H 953.073 2.38986 -2.00728 0
M  V30 9871 N 953.375 1.23811 0.975125 0
M  V30 9872 C 954.322 1.02394 2.06843 0
M  V30 9873 C 955.292 -0.060337 1.6599 0
M  V30 9874 O 956.477 0.0928187 1.90574 0
M  V30 9875 C 953.617 0.626882 3.39359 0
M  V30 9876 C 952.73 1.78385 3.9345 0
M  V30 9877 C 951.865 1.33307 5.14201 0
M  V30 9878 C 950.904 2.46045 5.60471 0
M  V30 9879 N 950.041 2.01888 6.72448 0
M  V30 9880 H 954.881 1.95973 2.24496 0
M  V30 9881 H 952.418 0.976206 1.10039 0
M  V30 9882 H 954.376 0.377742 4.15486 0
M  V30 9883 H 953.006 -0.271907 3.21653 0
M  V30 9884 H 952.058 2.14685 3.14029 0
M  V30 9885 H 953.37 2.63122 4.23755 0
M  V30 9886 H 952.524 1.04237 5.97678 0
M  V30 9887 H 951.263 0.456143 4.85562 0
M  V30 9888 H 950.268 2.75884 4.75571 0
M  V30 9889 H 951.493 3.34283 5.91127 0
M  V30 9890 H 949.439 1.16583 6.45558 0
M  V30 9891 H 949.356 2.80182 7.02164 0
M  V30 9892 H 950.624 1.75937 7.59386 0
M  V30 9893 N 954.853 -1.17469 1.05066 0
M  V30 9894 C 955.786 -2.2031 0.594863 0
M  V30 9895 C 956.764 -1.58196 -0.375878 0
M  V30 9896 O 957.948 -1.8629 -0.287798 0
M  V30 9897 C 955.075 -3.38452 -0.129614 0
M  V30 9898 C 954.121 -4.19007 0.795943 0
M  V30 9899 S 954.954 -4.8433 2.28441 0
M  V30 9900 C 956.11 -6.05862 1.57107 0
M  V30 9901 H 956.343 -2.58632 1.46618 0
M  V30 9902 H 953.876 -1.28063 0.862511 0
M  V30 9903 H 955.834 -4.06914 -0.541416 0
M  V30 9904 H 954.495 -2.98521 -0.976948 0
M  V30 9905 H 953.688 -5.0345 0.235396 0
M  V30 9906 H 953.29 -3.55976 1.14705 0
M  V30 9907 H 955.582 -6.71895 0.86969 0
M  V30 9908 H 956.525 -6.66442 2.39292 0
M  V30 9909 H 956.933 -5.54477 1.05903 0
M  V30 9910 N 956.331 -0.831506 -1.3388 0
M  V30 9911 C 957.559 -0.436925 -2.02234 0
M  V30 9912 C 957.974 0.959689 -1.6259 0
M  V30 9913 O 957.331 1.62248 -0.835576 0
M  V30 9914 C 957.382 -0.539429 -3.57453 0
M  V30 9915 O 957.103 -1.88101 -3.95664 0
M  V30 9916 C 958.604 -0.140852 -4.43076 0
M  V30 9917 H 955.824 -0.174302 -0.647966 0
M  V30 9918 H 958.368 -1.12204 -1.70969 0
M  V30 9919 H 956.523 0.0976959 -3.87277 0
M  V30 9920 H 956.937 -1.86131 -4.90363 0
M  V30 9921 H 958.411 -0.26364 -5.5137 0
M  V30 9922 H 958.888 0.916505 -4.29531 0
M  V30 9923 H 959.494 -0.752117 -4.18597 0
M  V30 9924 N 957.809 1.4625 -0.587256 0
M  V30 9925 C 958.759 2.27407 0.164393 0
M  V30 9926 C 959.743 1.36138 0.857628 0
M  V30 9927 O 960.935 1.60279 0.750973 0
M  V30 9928 C 958.064 3.22585 1.17447 0
M  V30 9929 C 957.15 4.21339 0.483121 0
M  V30 9930 N 957.541 5.03669 -0.46385 0
M  V30 9931 C 955.839 4.39931 0.73329 0
M  V30 9932 C 956.54 5.75182 -0.868334 0
M  V30 9933 N 955.516 5.43169 -0.216487 0
M  V30 9934 H 959.318 2.88453 -0.563237 0
M  V30 9935 H 956.832 1.57155 -0.409388 0
M  V30 9936 H 958.829 3.79439 1.72718 0
M  V30 9937 H 957.489 2.63098 1.90288 0
M  V30 9938 H 958.5 5.11049 -0.839602 0
M  V30 9939 H 955.177 3.91588 1.44792 0
M  V30 9940 H 956.567 6.51371 -1.64821 0
M  V30 9941 N 959.287 0.325282 1.54207 0
M  V30 9942 C 960.698 -0.162426 1.85992 0
M  V30 9943 C 961.049 -1.51482 1.2469 0
M  V30 9944 O 960.174 -2.092 0.553578 0
M  V30 9945 C 960.769 -0.3015 3.37456 0
M  V30 9946 C 959.328 -0.73343 3.69185 0
M  V30 9947 C 958.475 0.143831 2.76927 0
M  V30 9948 H 961.426 0.545508 1.4903 0
M  V30 9949 H 961.447 -1.13212 3.63268 0
M  V30 9950 H 960.959 0.682942 3.82044 0
M  V30 9951 H 959.06 -1.72755 3.30131 0
M  V30 9952 H 959.173 -0.535987 4.76092 0
M  V30 9953 H 957.537 -0.380892 2.51836 0
M  V30 9954 H 958.32 1.12507 3.24341 0
M  V30 9955 N 960.765 -1.57509 0.0534917 0
M  V30 9956 C 962.181 -1.56696 -0.303067 0
M  V30 9957 C 962.381 -1.06135 -1.71282 0
M  V30 9958 O 961.437 -0.71899 -2.42047 0
M  V30 9959 C 962.75 -3.00421 -0.129418 0
M  V30 9960 C 964.298 -3.12358 -0.200346 0
M  V30 9961 C 964.773 -4.57967 -0.0551971 0
M  V30 9962 N 966.264 -4.63066 -0.111398 0
M  V30 9963 C 966.999 -5.73395 -0.0232344 0
M  V30 9964 N 966.495 -6.92701 0.11741 0
M  V30 9965 N 968.288 -5.62045 -0.078984 0
M  V30 9966 H 960.439 -1.88696 0.975064 0
M  V30 9967 H 962.702 -0.869072 0.378706 0
M  V30 9968 H 962.408 -3.41456 0.842653 0
M  V30 9969 H 962.282 -3.66563 -0.889476 0
M  V30 9970 H 964.669 -2.71221 -1.16289 0
M  V30 9971 H 964.75 -2.48891 0.590506 0
M  V30 9972 H 964.394 -4.9979 0.904034 0
M  V30 9973 H 964.324 -5.19443 -0.865223 0
M  V30 9974 H 966.815 -3.77263 -0.219256 0
M  V30 9975 H 967.128 -7.72597 0.177326 0
M  V30 9976 H 965.473 -6.94833 0.152526 0
M  V30 9977 H 968.664 -4.67725 -0.187434 0
M  V30 9978 H 968.837 -6.48 -0.00681731 0
M  V30 9979 N 962.243 0.219913 -1.56058 0
M  V30 9980 C 963.206 1.25606 -1.91718 0
M  V30 9981 C 964.206 1.39721 -0.795912 0
M  V30 9982 O 965.396 1.37958 -1.06364 0
M  V30 9983 C 962.528 2.62961 -2.16943 0
M  V30 9984 H 963.721 0.951909 -2.84392 0
M  V30 9985 H 961.274 0.460398 -1.49365 0
M  V30 9986 H 962.009 2.98472 -1.26826 0
M  V30 9987 H 961.794 2.54093 -2.98629 0
M  V30 9988 H 963.284 3.37727 -2.45622 0
M  V30 9989 N 963.721 1.49897 0.486681 0
M  V30 9990 C 964.97 1.59349 1.23656 0
M  V30 9991 C 965.283 0.292024 1.93408 0
M  V30 9992 O 966.489 0.265258 2.70201 0
M  V30 9993 C 964.945 2.81215 2.24602 0
M  V30 9994 C 964.553 4.18177 1.60725 0
M  V30 9995 C 966.297 3.00004 3.00329 0
M  V30 9996 C 964.204 5.31247 2.59866 0
M  V30 9997 H 963.134 0.593363 0.465227 0
M  V30 9998 H 965.785 1.76306 0.508769 0
M  V30 9999 H 964.167 2.57783 3.00606 0
M  V30 10000 H 965.341 4.51802 0.90616 0
M  V30 10001 H 963.656 4.04864 0.973362 0
M  V30 10002 H 966.253 3.81649 3.74497 0
M  V30 10003 H 966.596 2.1112 3.58795 0
M  V30 10004 H 967.129 3.23544 2.3144 0
M  V30 10005 H 963.868 6.22236 2.06161 0
M  V30 10006 H 963.388 5.02059 3.28172 0
M  V30 10007 H 965.067 5.61177 3.22009 0
M  V30 10008 N 965.199 -0.738761 1.39212 0
M  V30 10009 C 966.445 -1.50046 1.36433 0
M  V30 10010 C 966.778 -1.94157 -0.0409474 0
M  V30 10011 O 966.053 -1.66515 -1.00514 0
M  V30 10012 C 966.336 -2.74277 2.33333 0
M  V30 10013 C 966.189 -2.36209 3.82786 0
M  V30 10014 C 967.508 -3.76361 2.28123 0
M  V30 10015 H 964.627 -0.544294 0.496903 0
M  V30 10016 H 967.269 -0.845005 1.70175 0
M  V30 10017 H 965.419 -3.30204 2.04689 0
M  V30 10018 H 967.091 -1.85942 4.22165 0
M  V30 10019 H 965.334 -1.68483 3.99745 0
M  V30 10020 H 966.005 -3.25156 4.46069 0
M  V30 10021 H 968.481 -3.30009 2.53443 0
M  V30 10022 H 967.357 -4.60957 2.9801 0
M  V30 10023 H 967.618 -4.23013 1.28499 0
M  V30 10024 N 966.677 -1.24326 -0.968545 0
M  V30 10025 C 967.923 -1.08406 -1.71394 0
M  V30 10026 C 968.256 0.376353 -1.90518 0
M  V30 10027 O 967.531 1.27816 -1.46606 0
M  V30 10028 C 967.814 -1.82344 -3.1052 0
M  V30 10029 C 967.667 -3.3613 -2.98893 0
M  V30 10030 C 968.986 -1.59545 -4.10163 0
M  V30 10031 H 966.105 -0.395205 -0.622079 0
M  V30 10032 H 968.747 -1.52983 -1.12677 0
M  V30 10033 H 966.897 -1.44452 -3.60646 0
M  V30 10034 H 968.569 -3.83614 -2.56199 0
M  V30 10035 H 966.812 -3.64553 -2.35124 0
M  V30 10036 H 967.483 -3.83064 -3.97449 0
M  V30 10037 H 969.959 -1.92504 -3.68892 0
M  V30 10038 H 968.835 -2.13736 -5.05577 0
M  V30 10039 H 969.096 -0.533503 -4.38869 0
M  V30 10040 N 968.156 1.1691 -1.05688 0
M  V30 10041 C 969.433 1.83266 -0.683601 0
M  V30 10042 C 969.813 1.93858 0.835602 0
M  V30 10043 O 969.161 1.47696 1.7435 0
M  V30 10044 C 969.371 3.20625 -1.37842 0
M  V30 10045 C 970.719 3.96473 -1.51967 0
M  V30 10046 O 971.743 3.30122 -1.33783 0
M  V30 10047 O 970.602 5.15393 -1.81749 0
M  V30 10048 H 967.696 0.791028 -0.241254 0
M  V30 10049 H 970.242 1.24165 -1.15677 0
M  V30 10050 H 969.014 3.07914 -2.41463 0
M  V30 10051 H 968.637 3.87398 -0.894921 0
M  V30 10052 N 969.634 0.838594 1.33437 0
M  V30 10053 C 971.045 0.490934 1.8013 0
M  V30 10054 C 971.396 -0.990024 1.6939 0
M  V30 10055 O 970.521 -1.77139 1.24302 0
M  V30 10056 C 971.116 0.884347 3.27055 0
M  V30 10057 C 969.675 0.588829 3.71766 0
M  V30 10058 C 968.822 1.09282 2.54858 0
M  V30 10059 H 971.773 1.02732 1.20962 0
M  V30 10060 H 971.794 0.194283 3.80004 0
M  V30 10061 H 971.306 1.96225 3.34839 0
M  V30 10062 H 969.407 -0.479018 3.69508 0
M  V30 10063 H 969.52 1.14387 4.65245 0
M  V30 10064 H 967.884 0.513702 2.49466 0
M  V30 10065 H 968.667 2.1775 2.65405 0
M  V30 10066 N 971.112 -1.45937 0.595003 0
M  V30 10067 C 972.042 -2.33198 -0.11871 0
M  V30 10068 C 973.023 -1.46083 -0.871423 0
M  V30 10069 O 974.208 -1.74879 -0.844461 0
M  V30 10070 C 971.338 -3.28576 -1.12495 0
M  V30 10071 C 970.292 -4.25229 -0.486275 0
M  V30 10072 C 969.618 -5.10204 -1.59986 0
M  V30 10073 C 970.918 -5.19019 0.584473 0
M  V30 10074 H 972.612 -2.93122 0.609886 0
M  V30 10075 H 970.158 -1.40951 0.294742 0
M  V30 10076 H 972.111 -3.88485 -1.6327 0
M  V30 10077 H 970.835 -2.66784 -1.88398 0
M  V30 10078 H 969.494 -3.666 0.000507962 0
M  V30 10079 H 969.142 -4.44789 -2.34886 0
M  V30 10080 H 968.842 -5.75669 -1.1781 0
M  V30 10081 H 970.366 -5.7298 -2.11014 0
M  V30 10082 H 971.78 -5.73073 0.161297 0
M  V30 10083 H 970.177 -5.92893 0.927256 0
M  V30 10084 H 971.247 -4.62208 1.46601 0
M  V30 10085 N 972.59 -0.333456 -1.54032 0
M  V30 10086 C 973.538 0.543414 -2.26163 0
M  V30 10087 C 974.532 1.11037 -1.27934 0
M  V30 10088 O 975.738 1.05727 -1.45677 0
M  V30 10089 H 972.113 0.19391 -0.726569 0
M  V30 10090 H 974.084 -0.0871052 -2.98273 0
M  V30 10091 C 972.833 1.68769 -3.03994 0
M  V30 10092 H 972.156 1.26069 -3.79403 0
M  V30 10093 H 973.596 2.27662 -3.57695 0
M  V30 10094 C 972.055 2.61117 -2.12884 0
M  V30 10095 O 972.585 3.63097 -1.71823 0
M  V30 10096 N 970.791 2.29573 -1.7817 0
M  V30 10097 H 970.338 1.46684 -2.11759 0
M  V30 10098 H 970.296 2.91622 -1.1749 0
M  V30 10099 N 974.068 1.57479 -0.061844 0
M  V30 10100 C 975.316 1.92727 0.608336 0
M  V30 10101 C 975.637 0.941799 1.70749 0
M  V30 10102 O 974.907 -0.0116608 1.95897 0
M  V30 10103 H 973.487 0.71145 0.2277 0
M  V30 10104 H 976.149 1.94546 -0.117359 0
M  V30 10105 H 975.245 2.9426 1.04007 0
M  V30 10106 N 975.546 -0.211634 1.56173 0
M  V30 10107 C 976.792 -0.931479 1.80818 0
M  V30 10108 C 977.147 -1.81571 0.636373 0
M  V30 10109 O 976.44 -1.8801 -0.369182 0
M  V30 10110 C 976.634 -1.79657 3.08963 0
M  V30 10111 C 976.463 -0.997577 4.38496 0
M  V30 10112 C 975.233 -0.688558 5.00587 0
M  V30 10113 C 977.431 -0.358138 5.13052 0
M  V30 10114 N 975.413 0.130797 6.13761 0
M  V30 10115 C 976.784 0.324159 6.19152 0
M  V30 10116 C 978.839 -0.272178 4.97156 0
M  V30 10117 C 977.542 1.08421 7.11082 0
M  V30 10118 C 979.568 0.474428 5.89494 0
M  V30 10119 C 978.93 1.14523 6.95028 0
M  V30 10120 H 975.029 -0.32079 0.713174 0
M  V30 10121 H 977.613 -0.201528 1.93654 0
M  V30 10122 H 975.784 -2.49826 2.97392 0
M  V30 10123 H 977.516 -2.45464 3.2176 0
M  V30 10124 H 974.271 -1.00899 4.62727 0
M  V30 10125 H 974.695 0.5296 6.74925 0
M  V30 10126 H 979.337 -0.776448 4.15609 0
M  V30 10127 H 977.055 1.59996 7.92103 0
M  V30 10128 H 980.641 0.542076 5.79269 0
M  V30 10129 H 979.521 1.71371 7.65246 0
M  V30 10130 N 977.024 -1.50153 -0.478725 0
M  V30 10131 C 977.957 -1.63089 -1.59616 0
M  V30 10132 C 978.935 -0.479211 -1.55378 0
M  V30 10133 O 980.119 -0.697715 -1.75112 0
M  V30 10134 C 977.246 -1.60643 -2.9818 0
M  V30 10135 C 976.292 -2.81279 -3.206 0
M  V30 10136 S 977.125 -4.42681 -3.0132 0
M  V30 10137 C 978.281 -4.42915 -4.42241 0
M  V30 10138 H 978.514 -2.57612 -1.48402 0
M  V30 10139 H 976.047 -1.39321 -0.665513 0
M  V30 10140 H 978.005 -1.59917 -3.7807 0
M  V30 10141 H 976.666 -0.673684 -3.0679 0
M  V30 10142 H 975.859 -2.7585 -4.21809 0
M  V30 10143 H 975.461 -2.79533 -2.4847 0
M  V30 10144 H 977.753 -4.16007 -5.34737 0
M  V30 10145 H 978.696 -5.44477 -4.52715 0
M  V30 10146 H 979.104 -3.72715 -4.23962 0
M  V30 10147 N 978.502 0.731368 -1.39602 0
M  V30 10148 C 979.732 1.51839 -1.40102 0
M  V30 10149 C 980.14 1.89199 0.00526634 0
M  V30 10150 O 979.483 1.54877 0.987874 0
M  V30 10151 C 979.545 2.83292 -2.21328 0
M  V30 10152 C 979.209 2.68345 -3.69919 0
M  V30 10153 C 980.206 2.36651 -4.62917 0
M  V30 10154 C 977.891 2.85102 -4.13548 0
M  V30 10155 C 979.885 2.21901 -5.97527 0
M  V30 10156 C 977.572 2.69971 -5.48233 0
M  V30 10157 C 978.57 2.38416 -6.40037 0
M  V30 10158 O 978.258 2.23383 -7.72241 0
M  V30 10159 H 977.99 0.475695 -0.480302 0
M  V30 10160 H 980.544 0.911096 -1.84087 0
M  V30 10161 H 978.774 3.46294 -1.72096 0
M  V30 10162 H 980.463 3.44928 -2.13961 0
M  V30 10163 H 981.229 2.23352 -4.3051 0
M  V30 10164 H 977.108 3.08655 -3.42423 0
M  V30 10165 H 980.652 1.97193 -6.69149 0
M  V30 10166 H 976.549 2.82849 -5.8023 0
M  V30 10167 H 977.317 2.38425 -7.83004 0
M  V30 10168 N 979.98 1.24838 0.961938 0
M  V30 10169 C 981.226 1.10321 1.70883 0
M  V30 10170 C 981.581 -0.353397 1.89127 0
M  V30 10171 O 980.874 -1.25721 1.44584 0
M  V30 10172 C 981.068 1.78289 3.09754 0
M  V30 10173 C 980.897 3.30409 3.05057 0
M  V30 10174 C 979.667 3.9964 3.09218 0
M  V30 10175 C 981.865 4.26916 2.86787 0
M  V30 10176 N 979.847 5.38594 2.94601 0
M  V30 10177 C 981.218 5.52906 2.80526 0
M  V30 10178 C 983.273 4.17421 2.71412 0
M  V30 10179 C 981.976 6.70487 2.60461 0
M  V30 10180 C 984.002 5.34686 2.52715 0
M  V30 10181 C 983.364 6.59611 2.47168 0
M  V30 10182 H 979.463 0.458353 0.63359 0
M  V30 10183 H 982.047 1.57835 1.14001 0
M  V30 10184 H 980.218 1.33281 3.64816 0
M  V30 10185 H 981.95 1.5658 3.73182 0
M  V30 10186 H 978.705 3.50847 3.18125 0
M  V30 10187 H 979.129 6.11497 2.90517 0
M  V30 10188 H 983.771 3.21592 2.74479 0
M  V30 10189 H 981.489 7.66433 2.56136 0
M  V30 10190 H 985.075 5.29194 2.41754 0
M  V30 10191 H 983.955 7.48821 2.32888 0
M  V30 10192 N 981.458 -1.16348 1.06306 0
M  V30 10193 C 982.686 -1.90782 0.800614 0
M  V30 10194 C 983.101 -1.77439 -0.645033 0
M  V30 10195 O 982.458 -1.11912 -1.4416 0
M  V30 10196 C 982.509 -3.41484 1.18621 0
M  V30 10197 O 982.23 -3.54428 2.57512 0
M  V30 10198 C 983.731 -4.32968 0.951525 0
M  V30 10199 H 980.951 -0.604977 0.290247 0
M  V30 10200 H 983.495 -1.47476 1.41672 0
M  V30 10201 H 981.65 -3.82493 0.614633 0
M  V30 10202 H 982.064 -4.4788 2.72954 0
M  V30 10203 H 983.538 -5.37169 1.27095 0
M  V30 10204 H 984.015 -4.39055 -0.112734 0
M  V30 10205 H 984.621 -3.97687 1.50749 0
M  V30 10206 N 982.937 -0.845659 -1.3299 0
M  V30 10207 C 984.214 -0.366306 -1.92139 0
M  V30 10208 C 984.594 1.14912 -1.77083 0
M  V30 10209 O 983.942 1.96667 -1.16338 0
M  V30 10210 C 984.152 -0.820716 -3.39213 0
M  V30 10211 C 985.5 -0.832667 -4.16355 0
M  V30 10212 O 986.524 -0.764764 -3.47893 0
M  V30 10213 O 985.383 -0.926658 -5.38586 0
M  V30 10214 H 982.477 -0.105063 -0.820299 0
M  V30 10215 H 985.023 -0.931962 -1.41819 0
M  V30 10216 H 983.795 -1.86357 -3.44074 0
M  V30 10217 H 983.418 -0.232009 -3.96923 0
M  V30 10218 N 984.415 1.45619 -0.602734 0
M  V30 10219 C 985.661 2.03131 -0.104587 0
M  V30 10220 C 986.016 1.4634 1.2491 0
M  V30 10221 O 985.309 0.626733 1.8106 0
M  V30 10222 C 985.503 3.574 -0.00157909 0
M  V30 10223 C 985.332 4.29155 -1.34373 0
M  V30 10224 C 984.102 4.67272 -1.92316 0
M  V30 10225 C 986.3 4.61422 -2.27143 0
M  V30 10226 N 984.282 5.23864 -3.20062 0
M  V30 10227 C 985.653 5.18796 -3.39485 0
M  V30 10228 C 987.708 4.4336 -2.26575 0
M  V30 10229 C 986.411 5.60012 -4.51419 0
M  V30 10230 C 988.437 4.85605 -3.37553 0
M  V30 10231 C 987.799 5.43068 -4.48617 0
M  V30 10232 H 983.898 0.777739 -0.0815251 0
M  V30 10233 H 986.482 1.77504 -0.800024 0
M  V30 10234 H 984.653 3.82698 0.663068 0
M  V30 10235 H 986.385 4.01565 0.502784 0
M  V30 10236 H 983.14 4.50671 -1.45577 0
M  V30 10237 H 983.564 5.56664 -3.85298 0
M  V30 10238 H 988.206 3.98251 -1.41971 0
M  V30 10239 H 985.924 6.04089 -5.36751 0
M  V30 10240 H 989.51 4.73365 -3.38255 0
M  V30 10241 H 988.39 5.75156 -5.33072 0
M  V30 10242 N 985.893 0.34162 1.53853 0
M  V30 10243 C 986.803 -0.524555 2.2866 0
M  V30 10244 C 987.819 -1.1136 1.33697 0
M  V30 10245 O 988.995 -1.1297 1.66732 0
M  V30 10246 C 986.06 -1.66065 3.04341 0
M  V30 10247 C 985.121 -1.10158 4.14926 0
M  V30 10248 C 984.354 -2.18353 4.86988 0
M  V30 10249 O 984.577 -3.39038 4.58704 0
M  V30 10250 O 983.511 -1.82756 5.73484 0
M  V30 10251 H 987.337 0.0835014 3.03585 0
M  V30 10252 H 984.922 0.106727 1.49018 0
M  V30 10253 H 986.804 -2.3217 3.51674 0
M  V30 10254 H 985.479 -2.25456 2.32275 0
M  V30 10255 H 984.386 -0.405109 3.719 0
M  V30 10256 H 985.719 -0.552567 4.89088 0
M  V30 10257 N 987.371 -1.57444 0.0701946 0
M  V30 10258 C 988.281 -2.16132 -0.912377 0
M  V30 10259 C 989.297 -1.12406 -1.32819 0
M  V30 10260 O 990.473 -1.44665 -1.40121 0
M  V30 10261 C 987.538 -2.71008 -2.16231 0
M  V30 10262 C 986.599 -3.896 -1.80306 0
M  V30 10263 C 985.832 -4.4185 -2.9934 0
M  V30 10264 O 986.055 -3.93106 -4.13309 0
M  V30 10265 O 984.989 -5.33201 -2.7925 0
M  V30 10266 H 988.815 -3.00449 -0.443167 0
M  V30 10267 H 986.4 -1.48617 -0.152786 0
M  V30 10268 H 988.282 -3.06186 -2.8953 0
M  V30 10269 H 986.957 -1.8975 -2.62253 0
M  V30 10270 H 985.864 -3.59277 -1.04264 0
M  V30 10271 H 987.197 -4.72145 -1.39068 0
M  V30 10272 N 988.849 0.203349 -1.56283 0
M  V30 10273 C 990.126 0.950415 -1.70958 0
M  V30 10274 C 990.506 2.01708 -0.622647 0
M  V30 10275 O 989.854 2.25523 0.367635 0
M  V30 10276 C 990.064 1.54434 -3.12971 0
M  V30 10277 C 991.412 2.02964 -3.72949 0
M  V30 10278 O 992.436 1.64293 -3.16048 0
M  V30 10279 O 991.295 2.74097 -4.72793 0
M  V30 10280 H 988.389 0.445154 -0.69697 0
M  V30 10281 H 990.935 0.193695 -1.68591 0
M  V30 10282 H 989.707 0.77505 -3.83547 0
M  V30 10283 H 989.33 2.36611 -3.19532 0
M  V30 10284 N 990.327 1.50405 0.470755 0
M  V30 10285 C 991.738 1.54266 1.05162 0
M  V30 10286 C 992.089 0.346359 1.93119 0
M  V30 10287 O 991.214 -0.540699 2.09536 0
M  V30 10288 C 991.809 2.7956 1.91394 0
M  V30 10289 C 990.368 2.86101 2.44588 0
M  V30 10290 C 989.515 2.48557 1.22941 0
M  V30 10291 H 992.466 1.56665 0.253359 0
M  V30 10292 H 992.487 2.61434 2.76464 0
M  V30 10293 H 991.999 3.66611 1.27351 0
M  V30 10294 H 990.1 2.03403 3.12183 0
M  V30 10295 H 990.213 3.88999 2.79672 0
M  V30 10296 H 988.577 2.01003 1.56429 0
M  V30 10297 H 989.36 3.37916 0.605598 0
M  V30 10298 N 991.805 -0.723954 1.39988 0
M  V30 10299 C 992.752 -1.83803 1.39589 0
M  V30 10300 C 993.722 -1.64146 0.253996 0
M  V30 10301 O 994.907 -1.85398 0.450793 0
M  V30 10302 C 992.047 -3.21431 1.25604 0
M  V30 10303 C 991.16 -3.52717 2.49429 0
M  V30 10304 C 990.295 -4.79805 2.27949 0
M  V30 10305 C 989.334 -5.03968 3.47394 0
M  V30 10306 N 988.471 -6.22266 3.25161 0
M  V30 10307 H 993.311 -1.83479 2.34818 0
M  V30 10308 H 990.848 -0.896396 1.16633 0
M  V30 10309 H 992.806 -4.00892 1.15504 0
M  V30 10310 H 991.436 -3.21005 0.339986 0
M  V30 10311 H 990.488 -2.67872 2.7009 0
M  V30 10312 H 991.8 -3.66486 3.38363 0
M  V30 10313 H 990.954 -5.67268 2.15155 0
M  V30 10314 H 989.693 -4.68229 1.36428 0
M  V30 10315 H 988.698 -4.14963 3.60674 0
M  V30 10316 H 989.923 -5.17422 4.39831 0
M  V30 10317 H 987.869 -6.11957 2.36314 0
M  V30 10318 H 987.786 -6.36673 4.07656 0
M  V30 10319 H 989.054 -7.12539 3.16083 0
M  V30 10320 N 993.283 -1.25346 -0.955304 0
M  V30 10321 C 994.56 -1.00829 -1.67609 0
M  V30 10322 C 994.94 0.465675 -2.059 0
M  V30 10323 O 994.288 1.44287 -1.77182 0
M  V30 10324 C 994.498 -1.94337 -2.89886 0
M  V30 10325 C 995.846 -2.22142 -3.61854 0
M  V30 10326 O 996.87 -1.9209 -2.99967 0
M  V30 10327 O 995.729 -2.73239 -4.73289 0
M  V30 10328 H 992.823 -0.382314 -0.733325 0
M  V30 10329 H 995.369 -1.36498 -1.00829 0
M  V30 10330 H 994.141 -2.93867 -2.58376 0
M  V30 10331 H 993.764 -1.59062 -3.64397 0
M  V30 10332 N 994.761 1.15782 -1.06922 0
M  V30 10333 C 995.986 1.90896 -0.810771 0
M  V30 10334 C 996.411 1.77246 0.629714 0
M  V30 10335 O 995.769 1.10215 1.43953 0
M  V30 10336 C 995.817 3.39397 -1.21829 0
M  V30 10337 O 994.921 4.10818 -0.360934 0
M  V30 10338 H 994.262 0.594497 -0.295752 0
M  V30 10339 H 996.792 1.46652 -1.42669 0
M  V30 10340 H 996.802 3.90181 -1.19259 0
M  V30 10341 H 995.477 3.4865 -2.2675 0
M  V30 10342 H 994.054 3.7019 -0.448748 0
M  V30 10343 N 996.239 0.8527 1.3254 0
M  V30 10344 C 997.655 0.542298 1.50104 0
M  V30 10345 C 997.855 -0.927465 1.78886 0
M  V30 10346 O 996.911 -1.7106 1.85728 0
M  V30 10347 C 998.224 1.4276 2.64651 0
M  V30 10348 C 999.772 1.42782 2.78536 0
M  V30 10349 C 1000.25 2.29828 3.9616 0
M  V30 10350 N 1001.74 2.27613 4.03418 0
M  V30 10351 C 1002.47 2.91696 4.93661 0
M  V30 10352 N 1001.97 3.64883 5.88925 0
M  V30 10353 N 1003.76 2.81094 4.86768 0
M  V30 10354 H 995.913 1.80395 1.12123 0
M  V30 10355 H 998.176 0.770394 0.552446 0
M  V30 10356 H 997.882 2.47266 2.50105 0
M  V30 10357 H 997.756 1.11358 3.60388 0
M  V30 10358 H 1000.14 0.390417 2.92506 0
M  V30 10359 H 1000.22 1.78198 1.83519 0
M  V30 10360 H 999.868 3.33635 3.82949 0
M  V30 10361 H 999.798 1.91746 4.9045 0
M  V30 10362 H 1002.29 1.74402 3.3525 0
M  V30 10363 H 1002.6 4.10952 6.54476 0
M  V30 10364 H 1000.95 3.68991 5.88957 0
M  V30 10365 H 1004.14 2.23469 4.11314 0
M  V30 10366 H 1004.31 3.31318 5.56895 0
M  V30 10367 N 997.718 -1.45297 0.610449 0
M  V30 10368 C 999.134 -1.57225 0.274332 0
M  V30 10369 C 999.334 -1.60136 -1.22306 0
M  V30 10370 O 998.39 -1.5332 -2.00622 0
M  V30 10371 C 999.703 -2.85365 0.948028 0
M  V30 10372 C 1001.25 -2.99044 0.924216 0
M  V30 10373 C 1001.73 -4.29958 1.57798 0
M  V30 10374 N 1003.22 -4.36723 1.5436 0
M  V30 10375 C 1003.95 -5.36695 2.01857 0
M  V30 10376 N 1003.45 -6.43187 2.57453 0
M  V30 10377 N 1005.24 -5.28071 1.92608 0
M  V30 10378 H 997.392 -1.41651 1.58268 0
M  V30 10379 H 999.655 -0.67744 0.663158 0
M  V30 10380 H 999.361 -2.89125 2.00249 0
M  V30 10381 H 999.235 -3.74222 0.473062 0
M  V30 10382 H 1001.62 -2.94849 -0.121709 0
M  V30 10383 H 1001.7 -2.1159 1.43748 0
M  V30 10384 H 1001.35 -4.34912 2.62325 0
M  V30 10385 H 1001.28 -5.16234 1.03972 0
M  V30 10386 H 1003.77 -3.60374 1.13749 0
M  V30 10387 H 1004.08 -7.15722 2.91482 0
M  V30 10388 H 1002.43 -6.4393 2.61493 0
M  V30 10389 H 1005.62 -4.43783 1.48912 0
M  V30 10390 H 1005.79 -6.05832 2.29938 0
M  V30 10391 N 999.196 -0.349774 -1.5367 0
M  V30 10392 C 1000.44 0.244343 -2.00617 0
M  V30 10393 C 1000.76 1.50567 -1.23914 0
M  V30 10394 O 1000.03 1.92784 -0.348016 0
M  V30 10395 H 998.615 0.0932792 -0.741153 0
M  V30 10396 H 1001.28 -0.472367 -1.89089 0
M  V30 10397 H 1000.37 0.482433 -3.08349 0
M  V30 10398 N 1000.67 1.57404 -0.0785433 0
M  V30 10399 C 1002.09 1.57158 0.2781 0
M  V30 10400 C 1002.29 1.08847 1.69572 0
M  V30 10401 O 1001.35 0.757407 2.40873 0
M  V30 10402 C 1002.66 3.00589 0.0816067 0
M  V30 10403 C 1004.21 3.12637 0.150627 0
M  V30 10404 C 1004.68 4.57997 -0.0176685 0
M  V30 10405 N 1006.17 4.63185 0.0377145 0
M  V30 10406 C 1006.91 5.7336 -0.0679907 0
M  V30 10407 N 1006.4 6.92426 -0.227598 0
M  V30 10408 N 1008.2 5.62099 -0.0104424 0
M  V30 10409 H 1000.35 1.87121 -1.00496 0
M  V30 10410 H 1002.61 0.862937 -0.392484 0
M  V30 10411 H 1002.32 3.40072 -0.896869 0
M  V30 10412 H 1002.19 3.67931 0.831046 0
M  V30 10413 H 1004.58 2.73037 1.11959 0
M  V30 10414 H 1004.66 2.4792 -0.630028 0
M  V30 10415 H 1004.3 4.98288 -0.983431 0
M  V30 10416 H 1004.23 5.20754 0.782475 0
M  V30 10417 H 1006.72 3.77564 0.159208 0
M  V30 10418 H 1007.04 7.72217 -0.300217 0
M  V30 10419 H 1005.38 6.94502 -0.263049 0
M  V30 10420 H 1008.57 4.67964 0.112999 0
M  V30 10421 H 1008.75 6.47928 -0.0962747 0
M  V30 10422 N 1002.15 -0.195058 1.56388 0
M  V30 10423 C 1003.08 -1.24444 1.97575 0
M  V30 10424 C 1004.06 -1.47471 0.847717 0
M  V30 10425 O 1005.25 -1.59208 1.11205 0
M  V30 10426 C 1002.38 -2.58866 2.31529 0
M  V30 10427 C 1001.33 -2.50451 3.47071 0
M  V30 10428 C 1000.66 -3.89146 3.667 0
M  V30 10429 C 1001.96 -2.02953 4.81256 0
M  V30 10430 H 1003.65 -0.902178 2.85484 0
M  V30 10431 H 1001.2 -0.43254 1.3735 0
M  V30 10432 H 1003.15 -3.3246 2.58936 0
M  V30 10433 H 1001.87 -2.94833 1.40502 0
M  V30 10434 H 1000.53 -1.79313 3.19754 0
M  V30 10435 H 1000.18 -4.22466 2.73004 0
M  V30 10436 H 999.882 -3.84391 4.44429 0
M  V30 10437 H 1001.41 -4.64363 3.96484 0
M  V30 10438 H 1002.82 -2.66306 5.07695 0
M  V30 10439 H 1001.22 -2.092 5.62455 0
M  V30 10440 H 1002.29 -0.982757 4.74837 0
M  V30 10441 N 1003.63 -1.50653 -0.462772 0
M  V30 10442 C 1004.54 -1.72923 -1.58539 0
M  V30 10443 C 1005.56 -0.612577 -1.6286 0
M  V30 10444 O 1006.73 -0.891885 -1.80575 0
M  V30 10445 C 1003.8 -1.82623 -2.94703 0
M  V30 10446 C 1002.86 -3.06392 -3.00704 0
M  V30 10447 C 1002.09 -3.15618 -4.30373 0
M  V30 10448 O 1002.31 -2.31423 -5.21344 0
M  V30 10449 O 1001.25 -4.0841 -4.42136 0
M  V30 10450 H 1005.07 -2.68103 -1.42669 0
M  V30 10451 H 1002.66 -1.34848 -0.643144 0
M  V30 10452 H 1004.54 -1.91134 -3.7556 0
M  V30 10453 H 1003.22 -0.906275 -3.10754 0
M  V30 10454 H 1002.12 -3.03375 -2.18894 0
M  V30 10455 H 1003.46 -3.97992 -2.89591 0
M  V30 10456 N 1005.11 0.71652 -1.4037 0
M  V30 10457 C 1006.52 1.02447 -1.22379 0
M  V30 10458 C 1006.72 2.0126 -0.0983394 0
M  V30 10459 O 1005.78 2.46569 0.544071 0
M  V30 10460 C 1007.09 1.56909 -2.56515 0
M  V30 10461 C 1008.64 1.68898 -2.6352 0
M  V30 10462 C 1009.12 2.26765 -3.97922 0
M  V30 10463 N 1010.61 2.34152 -3.99658 0
M  V30 10464 C 1011.34 2.79907 -5.00439 0
M  V30 10465 N 1010.84 3.25422 -6.11615 0
M  V30 10466 N 1012.63 2.79283 -4.87809 0
M  V30 10467 H 1004.78 0.0615306 -2.12311 0
M  V30 10468 H 1007.05 0.0898994 -0.943728 0
M  V30 10469 H 1006.75 0.917649 -3.39517 0
M  V30 10470 H 1006.63 2.55446 -2.77538 0
M  V30 10471 H 1009.01 2.33159 -1.8089 0
M  V30 10472 H 1009.09 0.689626 -2.46329 0
M  V30 10473 H 1008.74 1.63126 -4.80991 0
M  V30 10474 H 1008.67 3.27413 -4.12442 0
M  V30 10475 H 1011.16 2.02006 -3.19378 0
M  V30 10476 H 1011.47 3.58899 -6.84406 0
M  V30 10477 H 1009.82 3.23383 -6.15181 0
M  V30 10478 H 1013.01 2.43061 -4.00049 0
M  V30 10479 H 1013.18 3.14626 -5.66493 0
M  V30 10480 N 1006.59 1.25851 0.948643 0
M  V30 10481 C 1007.55 1.0683 2.0278 0
M  V30 10482 C 1008.55 0.0191016 1.60789 0
M  V30 10483 O 1009.74 0.261836 1.72221 0
M  V30 10484 C 1006.87 0.623318 3.35153 0
M  V30 10485 H 1008.06 2.02635 2.21086 0
M  V30 10486 H 1005.62 1.08343 1.12657 0
M  V30 10487 H 1006.35 -0.337053 3.22544 0
M  V30 10488 H 1006.14 1.38082 3.66982 0
M  V30 10489 H 1007.63 0.511854 4.14451 0
M  V30 10490 N 1008.06 -1.15214 1.07534 0
M  V30 10491 C 1009.31 -1.86548 0.810651 0
M  V30 10492 C 1009.67 -1.80863 -0.656236 0
M  V30 10493 O 1008.96 -1.22216 -1.47559 0
M  V30 10494 C 1009.15 -3.34623 1.25547 0
M  V30 10495 C 1008.98 -3.54725 2.76406 0
M  V30 10496 C 1007.75 -3.70089 3.44038 0
M  V30 10497 C 1009.95 -3.52392 3.74599 0
M  V30 10498 N 1007.93 -3.78262 4.8352 0
M  V30 10499 C 1009.3 -3.66701 4.9993 0
M  V30 10500 C 1011.36 -3.35677 3.6773 0
M  V30 10501 C 1010.06 -3.66023 6.19209 0
M  V30 10502 C 1012.09 -3.36298 4.86475 0
M  V30 10503 C 1011.45 -3.51139 6.1064 0
M  V30 10504 H 1007.55 -0.699691 0.349223 0
M  V30 10505 H 1010.13 -1.3815 1.37196 0
M  V30 10506 H 1008.3 -3.81633 0.721837 0
M  V30 10507 H 1010.03 -3.93677 0.938126 0
M  V30 10508 H 1006.79 -3.70943 2.94446 0
M  V30 10509 H 1007.21 -3.86087 5.56117 0
M  V30 10510 H 1011.86 -3.2312 2.72678 0
M  V30 10511 H 1009.57 -3.77358 7.14581 0
M  V30 10512 H 1013.16 -3.2459 4.82838 0
M  V30 10513 H 1012.04 -3.51555 7.00984 0
M  V30 10514 N 1009.54 -0.859717 -1.32086 0
M  V30 10515 C 1010.48 -0.252764 -2.26796 0
M  V30 10516 C 1011.45 0.612178 -1.50636 0
M  V30 10517 O 1012.64 0.567865 -1.79743 0
M  V30 10518 C 1009.76 0.643017 -3.3254 0
M  V30 10519 C 1008.81 -0.149211 -4.26239 0
M  V30 10520 S 1009.64 -1.52097 -5.13446 0
M  V30 10521 C 1010.8 -0.631035 -6.22711 0
M  V30 10522 H 1011.03 -1.05563 -2.77928 0
M  V30 10523 H 1008.57 -0.657639 -1.39694 0
M  V30 10524 H 1010.52 1.15418 -3.9394 0
M  V30 10525 H 1009.18 1.41974 -2.80183 0
M  V30 10526 H 1008.38 0.53328 -5.01171 0
M  V30 10527 H 1007.98 -0.592128 -3.69283 0
M  V30 10528 H 1010.27 0.162638 -6.77305 0
M  V30 10529 H 1011.21 -1.35116 -6.95089 0
M  V30 10530 H 1011.62 -0.203131 -5.64134 0
M  V30 10531 N 1011.02 1.44971 -0.618145 0
M  V30 10532 C 1012.3 1.95539 -0.0489895 0
M  V30 10533 C 1012.68 1.5604 1.42179 0
M  V30 10534 O 1012.03 0.82809 2.12967 0
M  V30 10535 C 1012.24 3.48044 -0.258193 0
M  V30 10536 C 1013.58 4.24354 -0.144541 0
M  V30 10537 O 1014.61 3.55699 -0.18887 0
M  V30 10538 O 1013.47 5.46486 -0.038519 0
M  V30 10539 H 1010.56 0.826466 0.0297256 0
M  V30 10540 H 1013.11 1.55086 -0.688944 0
M  V30 10541 H 1011.88 3.69798 -1.27926 0
M  V30 10542 H 1011.5 3.95412 0.416522 0
M  V30 10543 N 1012.5 0.357919 1.53482 0
M  V30 10544 C 1013.75 -0.2337 2.00744 0
M  V30 10545 C 1014.07 -1.49908 1.2471 0
M  V30 10546 O 1013.34 -1.92597 0.358235 0
M  V30 10547 H 1011.92 -0.0893474 0.741637 0
M  V30 10548 H 1014.58 0.482388 1.88836 0
M  V30 10549 H 1013.68 -0.466073 3.086 0
M  V30 10550 N 1013.98 -1.5736 0.0868897 0
M  V30 10551 C 1015.2 -1.98809 -0.590757 0
M  V30 10552 C 1015.63 -0.965407 -1.61436 0
M  V30 10553 O 1014.98 0.067143 -1.81176 0
M  V30 10554 C 1015.03 -3.39249 -1.22238 0
M  V30 10555 O 1014.14 -3.39706 -2.33824 0
M  V30 10556 H 1013.48 -0.64669 -0.150626 0
M  V30 10557 H 1016.01 -2.03927 0.165873 0
M  V30 10558 H 1016.02 -3.76765 -1.56564 0
M  V30 10559 H 1014.69 -4.13208 -0.472434 0
M  V30 10560 H 1013.27 -3.13977 -2.01178 0
M  V30 10561 N 1015.45 0.186762 -1.56489 0
M  V30 10562 C 1016.4 1.2357 -1.9161 0
M  V30 10563 C 1017.39 1.4058 -0.782686 0
M  V30 10564 O 1018.58 1.42811 -1.04566 0
M  V30 10565 C 1015.71 2.57865 -2.26628 0
M  V30 10566 C 1014.8 2.44613 -3.46447 0
M  V30 10567 N 1015.19 2.01052 -4.64125 0
M  V30 10568 C 1013.48 2.75483 -3.50749 0
M  V30 10569 C 1014.19 1.99891 -5.46277 0
M  V30 10570 N 1013.16 2.41711 -4.86905 0
M  V30 10571 H 1016.96 0.890359 -2.80089 0
M  V30 10572 H 1014.48 0.395144 -1.57519 0
M  V30 10573 H 1016.47 3.33642 -2.49977 0
M  V30 10574 H 1015.13 2.93215 -1.39481 0
M  V30 10575 H 1016.15 1.7163 -4.88634 0
M  V30 10576 H 1012.82 3.14974 -2.7404 0
M  V30 10577 H 1014.21 1.68042 -6.50547 0
M  V30 10578 N 1016.93 1.50896 0.454776 0
M  V30 10579 C 1018.35 1.38684 0.78987 0
M  V30 10580 C 1018.55 0.455587 1.96282 0
M  V30 10581 O 1017.6 -0.0957503 2.52318 0
M  V30 10582 C 1018.92 2.80381 1.08661 0
M  V30 10583 C 1020.47 2.8941 1.19209 0
M  V30 10584 C 1020.94 4.31976 1.52187 0
M  V30 10585 N 1022.43 4.35002 1.59146 0
M  V30 10586 C 1023.17 5.42326 1.862 0
M  V30 10587 N 1022.66 6.59835 2.11164 0
M  V30 10588 N 1024.46 5.29786 1.87838 0
M  V30 10589 H 1016.61 2.10006 -0.317981 0
M  V30 10590 H 1018.87 0.944636 -0.0797969 0
M  V30 10591 H 1018.58 3.50438 0.297626 0
M  V30 10592 H 1018.45 3.18634 2.01872 0
M  V30 10593 H 1020.84 2.19561 1.97173 0
M  V30 10594 H 1020.92 2.54677 0.239401 0
M  V30 10595 H 1020.56 5.02368 0.747576 0
M  V30 10596 H 1020.49 4.64208 2.48633 0
M  V30 10597 H 1022.98 3.50276 1.41828 0
M  V30 10598 H 1023.3 7.37428 2.31128 0
M  V30 10599 H 1021.64 6.62981 2.08522 0
M  V30 10600 H 1024.83 4.36974 1.67843 0
M  V30 10601 H 1025 6.13511 2.08585 0
M  V30 10602 N 1018.41 -0.709066 1.40748 0
M  V30 10603 C 1019.69 -1.4626 1.29874 0
M  V30 10604 C 1020.07 -2.10949 -0.0799322 0
M  V30 10605 O 1019.42 -2.00651 -1.09323 0
M  V30 10606 C 1019.63 -2.49302 2.44232 0
M  V30 10607 C 1020.97 -3.14945 2.84771 0
M  V30 10608 O 1022 -2.59623 2.43873 0
M  V30 10609 O 1020.86 -4.15111 3.5545 0
M  V30 10610 H 1017.95 -0.650716 0.51039 0
M  V30 10611 H 1020.5 -0.740687 1.52682 0
M  V30 10612 H 1019.27 -2.00063 3.36289 0
M  V30 10613 H 1018.89 -3.29021 2.23229 0
M  V30 10614 N 1019.89 -1.26353 -0.941956 0
M  V30 10615 C 1021.14 -1.11241 -1.68251 0
M  V30 10616 C 1021.45 0.344055 -1.9255 0
M  V30 10617 O 1022.66 0.615832 -2.64423 0
M  V30 10618 C 1021.11 -1.94269 -3.02965 0
M  V30 10619 C 1020.72 -3.44485 -2.86415 0
M  V30 10620 C 1022.47 -1.87764 -3.80716 0
M  V30 10621 C 1020.37 -4.19763 -4.16597 0
M  V30 10622 H 1019.3 -0.412694 -0.63103 0
M  V30 10623 H 1021.95 -1.50656 -1.04762 0
M  V30 10624 H 1020.34 -1.47687 -3.6743 0
M  V30 10625 H 1021.51 -3.9883 -2.30805 0
M  V30 10626 H 1019.82 -3.52218 -2.22107 0
M  V30 10627 H 1022.42 -2.41292 -4.77161 0
M  V30 10628 H 1022.76 -0.848195 -4.07568 0
M  V30 10629 H 1023.3 -2.32165 -3.23024 0
M  V30 10630 H 1020.04 -5.23173 -3.9493 0
M  V30 10631 H 1019.56 -3.70198 -4.71925 0
M  V30 10632 H 1021.24 -4.28168 -4.85058 0
M  V30 10633 N 1021.37 1.14642 -1.08144 0
M  V30 10634 C 1022.61 1.85617 -0.809484 0
M  V30 10635 C 1022.94 1.8279 0.664672 0
M  V30 10636 O 1022.2 1.25178 1.50429 0
M  V30 10637 C 1022.5 3.33953 -1.2732 0
M  V30 10638 C 1022.16 3.56969 -2.7547 0
M  V30 10639 C 1020.82 3.6296 -3.15933 0
M  V30 10640 C 1023.18 3.66014 -3.71057 0
M  V30 10641 C 1020.5 3.75515 -4.50783 0
M  V30 10642 C 1022.86 3.80094 -5.05679 0
M  V30 10643 C 1021.52 3.84333 -5.45751 0
M  V30 10644 H 1020.79 0.67922 -0.296211 0
M  V30 10645 H 1023.44 1.35433 -1.35389 0
M  V30 10646 H 1021.74 3.86399 -0.648329 0
M  V30 10647 H 1023.44 3.87291 -1.03957 0
M  V30 10648 H 1020.03 3.52953 -2.4315 0
M  V30 10649 H 1024.21 3.60679 -3.40917 0
M  V30 10650 H 1019.47 3.77057 -4.81288 0
M  V30 10651 H 1023.64 3.86035 -5.79612 0
M  V30 10652 H 1021.27 3.93814 -6.50242 0
M  V30 10653 N 1022.85 0.866709 1.31628 0
M  V30 10654 C 1024.09 0.476731 1.97117 0
M  V30 10655 C 1024.42 -0.967813 1.68366 0
M  V30 10656 O 1023.7 -1.68101 0.978377 0
M  V30 10657 C 1023.98 0.730561 3.52611 0
M  V30 10658 C 1023.84 2.2244 3.90948 0
M  V30 10659 C 1025.15 0.19488 4.39668 0
M  V30 10660 H 1022.27 0.174682 0.715999 0
M  V30 10661 H 1024.92 1.08735 1.5581 0
M  V30 10662 H 1023.07 0.210834 3.87927 0
M  V30 10663 H 1024.74 2.81113 3.6575 0
M  V30 10664 H 1022.98 2.69824 3.39673 0
M  V30 10665 H 1023.65 2.35266 4.99353 0
M  V30 10666 H 1026.13 0.639478 4.11157 0
M  V30 10667 H 1025 0.401958 5.47426 0
M  V30 10668 H 1025.26 -0.90302 4.32779 0
M  V30 10669 N 1024.32 -1.44642 0.625825 0
M  V30 10670 C 1025.55 -2.06458 0.135116 0
M  V30 10671 C 1025.97 -1.46729 -1.18811 0
M  V30 10672 O 1025.32 -0.58818 -1.72762 0
M  V30 10673 C 1025.37 -3.61499 0.00850114 0
M  V30 10674 O 1025.1 -4.19002 1.2794 0
M  V30 10675 C 1026.6 -4.40339 -0.511527 0
M  V30 10676 H 1023.82 -0.666541 0.0772294 0
M  V30 10677 H 1026.36 -1.85597 0.858726 0
M  V30 10678 H 1024.52 -3.81641 -0.665522 0
M  V30 10679 H 1024.93 -5.12385 1.12081 0
M  V30 10680 H 1026.4 -5.49262 -0.549149 0
M  V30 10681 H 1026.88 -4.11409 -1.53752 0
M  V30 10682 H 1027.49 -4.25104 0.129066 0
M  V30 10683 N 1025.8 -0.366053 -1.5329 0
M  V30 10684 C 1027.03 0.226839 -2.06156 0
M  V30 10685 C 1027.45 1.41637 -1.23776 0
M  V30 10686 O 1026.81 1.7947 -0.256948 0
M  V30 10687 C 1026.86 0.597956 -3.55608 0
M  V30 10688 O 1025.96 1.69512 -3.75951 0
M  V30 10689 H 1025.3 0.0329156 -0.663184 0
M  V30 10690 H 1027.83 -0.526793 -1.97702 0
M  V30 10691 H 1027.84 0.868831 -3.98642 0
M  V30 10692 H 1026.52 -0.271838 -4.15011 0
M  V30 10693 H 1025.09 1.41976 -3.44815 0
M  V30 10694 N 1027.28 1.57312 -0.0952337 0
M  V30 10695 C 1028.23 2.14032 0.863657 0
M  V30 10696 C 1029.2 1.0589 1.27971 0
M  V30 10697 O 1030.38 1.33678 1.36143 0
M  V30 10698 C 1027.52 2.72513 2.11733 0
M  V30 10699 C 1026.63 3.94887 1.7518 0
M  V30 10700 C 1025.77 4.41533 2.95334 0
M  V30 10701 C 1024.81 5.56496 2.54908 0
M  V30 10702 N 1023.95 5.97993 3.67897 0
M  V30 10703 H 1028.79 2.95655 0.373115 0
M  V30 10704 H 1026.32 1.46085 0.172497 0
M  V30 10705 H 1028.28 3.04539 2.85153 0
M  V30 10706 H 1026.91 1.93618 2.58287 0
M  V30 10707 H 1025.96 3.69175 0.917279 0
M  V30 10708 H 1027.27 4.78322 1.41455 0
M  V30 10709 H 1026.43 4.75343 3.77007 0
M  V30 10710 H 1025.17 3.56999 3.3227 0
M  V30 10711 H 1024.17 5.22314 1.71662 0
M  V30 10712 H 1025.4 6.42779 2.19117 0
M  V30 10713 H 1023.34 5.16405 4.04551 0
M  V30 10714 H 1023.26 6.76225 3.38018 0
M  V30 10715 H 1024.53 6.36434 4.5008 0
M  V30 10716 N 1028.76 -0.17846 1.56586 0
M  V30 10717 C 1029.99 -0.911996 1.85715 0
M  V30 10718 C 1030.4 -1.76138 0.679766 0
M  V30 10719 O 1029.76 -1.79088 -0.351266 0
M  V30 10720 C 1029.81 -1.79459 3.1381 0
M  V30 10721 O 1029.53 -0.979476 4.2701 0
M  V30 10722 C 1031.03 -2.6384 3.56235 0
M  V30 10723 H 1028.25 -0.265299 0.616326 0
M  V30 10724 H 1030.79 -0.180704 2.037 0
M  V30 10725 H 1028.95 -2.4793 2.97673 0
M  V30 10726 H 1029.36 -1.58244 5.00059 0
M  V30 10727 H 1030.84 -3.21396 4.48786 0
M  V30 10728 H 1031.31 -3.38363 2.80013 0
M  V30 10729 H 1031.92 -2.00712 3.7496 0
M  V30 10730 N 1030.24 -1.51135 -0.446768 0
M  V30 10731 C 1031.48 -1.63578 -1.19875 0
M  V30 10732 C 1031.81 -0.346478 -1.91084 0
M  V30 10733 O 1031.09 0.653447 -1.83195 0
M  V30 10734 C 1031.37 -2.83275 -2.22323 0
M  V30 10735 C 1031.23 -4.22155 -1.55259 0
M  V30 10736 C 1032.54 -2.98496 -3.23401 0
M  V30 10737 H 1029.66 -0.595333 -0.434452 0
M  V30 10738 H 1032.31 -1.83593 -0.48923 0
M  V30 10739 H 1030.46 -2.6634 -2.82834 0
M  V30 10740 H 1032.13 -4.50736 -0.981571 0
M  V30 10741 H 1030.37 -4.25288 -0.855122 0
M  V30 10742 H 1031.04 -5.01882 -2.29823 0
M  V30 10743 H 1033.52 -3.14079 -2.72935 0
M  V30 10744 H 1032.39 -3.83828 -3.92386 0
M  V30 10745 H 1032.65 -2.10157 -3.88956 0
M  V30 10746 N 1031.71 0.701592 -1.41122 0
M  V30 10747 C 1032.64 1.82815 -1.45262 0
M  V30 10748 C 1033.62 1.67215 -0.311939 0
M  V30 10749 O 1034.81 1.87038 -0.522538 0
M  V30 10750 C 1031.94 3.20899 -1.32819 0
M  V30 10751 C 1030.89 3.51194 -2.44636 0
M  V30 10752 C 1030.22 4.8857 -2.17263 0
M  V30 10753 C 1031.52 3.50777 -3.86979 0
M  V30 10754 H 1033.21 1.79608 -2.39544 0
M  V30 10755 H 1030.76 0.862693 -1.15298 0
M  V30 10756 H 1032.71 3.99417 -1.34329 0
M  V30 10757 H 1031.44 3.24717 -0.350191 0
M  V30 10758 H 1030.1 2.75024 -2.42399 0
M  V30 10759 H 1029.74 4.89007 -1.17819 0
M  V30 10760 H 1029.44 5.09805 -2.92186 0
M  V30 10761 H 1030.97 5.69405 -2.20478 0
M  V30 10762 H 1032.38 4.19309 -3.90964 0
M  V30 10763 H 1030.78 3.83542 -4.61536 0
M  V30 10764 H 1031.85 2.49873 -4.15562 0
M  V30 10765 N 1033.19 1.2685 0.935242 0
M  V30 10766 C 1034.44 1.13921 1.68504 0
M  V30 10767 C 1034.79 -0.313201 1.89834 0
M  V30 10768 O 1034.09 -1.22626 1.47219 0
M  V30 10769 C 1034.28 1.8482 3.05903 0
M  V30 10770 C 1034.11 3.36806 2.9798 0
M  V30 10771 C 1032.88 4.06109 3.00672 0
M  V30 10772 C 1035.08 4.32904 2.77667 0
M  V30 10773 N 1033.06 5.44722 2.83111 0
M  V30 10774 C 1034.43 5.58732 2.68735 0
M  V30 10775 C 1036.48 4.23084 2.62496 0
M  V30 10776 C 1035.19 6.75861 2.4618 0
M  V30 10777 C 1037.21 5.39926 2.41317 0
M  V30 10778 C 1036.58 6.64706 2.33121 0
M  V30 10779 H 1032.67 0.471689 0.623725 0
M  V30 10780 H 1035.26 1.60217 1.10628 0
M  V30 10781 H 1033.43 1.40989 3.61907 0
M  V30 10782 H 1035.16 1.64461 3.69777 0
M  V30 10783 H 1031.92 3.57516 3.10611 0
M  V30 10784 H 1032.34 6.17522 2.77481 0
M  V30 10785 H 1036.98 3.27341 2.67596 0
M  V30 10786 H 1034.7 7.71694 2.39821 0
M  V30 10787 H 1038.29 5.34203 2.30475 0
M  V30 10788 H 1037.17 7.53592 2.16952 0
M  V30 10789 N 1034.67 -1.14067 1.0875 0
M  V30 10790 C 1036.08 -1.66747 0.839778 0
M  V30 10791 C 1036.43 -1.85711 -0.632909 0
M  V30 10792 O 1035.56 -1.57084 -1.48841 0
M  V30 10793 C 1036.15 -3.02896 1.51787 0
M  V30 10794 C 1034.71 -3.52596 1.3173 0
M  V30 10795 C 1033.86 -2.27994 1.57841 0
M  V30 10796 H 1036.81 -0.980838 1.24761 0
M  V30 10797 H 1036.83 -3.68526 0.947057 0
M  V30 10798 H 1036.34 -2.89062 2.58969 0
M  V30 10799 H 1034.44 -3.71647 0.266339 0
M  V30 10800 H 1034.56 -4.33151 2.04736 0
M  V30 10801 H 1032.92 -2.34241 1.00015 0
M  V30 10802 H 1033.7 -2.16732 2.66237 0
M  V30 10803 N 1036.15 -0.873678 -1.31166 0
M  V30 10804 C 1037.1 -0.321349 -2.3037 0
M  V30 10805 C 1038.09 0.565568 -1.5968 0
M  V30 10806 O 1039.3 0.451257 -1.74252 0
M  V30 10807 H 1035.67 -0.0852425 -0.747153 0
M  V30 10808 H 1037.64 -1.17191 -2.74425 0
M  V30 10809 C 1036.39 0.459016 -3.44657 0
M  V30 10810 H 1035.71 -0.214185 -3.99226 0
M  V30 10811 H 1037.15 0.810758 -4.16176 0
M  V30 10812 C 1035.61 1.65173 -2.93632 0
M  V30 10813 O 1036.14 2.75105 -2.92711 0
M  V30 10814 N 1034.35 1.4851 -2.49786 0
M  V30 10815 H 1033.9 0.590785 -2.50734 0
M  V30 10816 H 1033.85 2.28452 -2.16002 0
M  V30 10817 N 1037.63 1.44308 -0.633487 0
M  V30 10818 C 1038.87 2.01624 -0.138643 0
M  V30 10819 C 1039.2 1.50101 1.24477 0
M  V30 10820 O 1038.47 0.705575 1.82752 0
M  V30 10821 H 1037.05 0.745439 -0.0482636 0
M  V30 10822 H 1039.71 1.76777 -0.820719 0
M  V30 10823 H 1038.8 3.11913 -0.108136 0
M  V30 10824 N 1039.1 0.374177 1.53094 0
M  V30 10825 C 1040.03 -0.459976 2.28925 0
M  V30 10826 C 1041.02 -1.07656 1.31698 0
M  V30 10827 O 1042.2 -1.09219 1.60577 0
M  V30 10828 C 1039.33 -1.5954 3.08487 0
M  V30 10829 C 1038.28 -1.10563 4.13473 0
M  V30 10830 C 1037.61 -2.33196 4.81169 0
M  V30 10831 C 1038.91 -0.184275 5.21975 0
M  V30 10832 H 1040.6 0.172692 2.98902 0
M  V30 10833 H 1038.15 0.0844956 1.43752 0
M  V30 10834 H 1040.1 -2.18565 3.60288 0
M  V30 10835 H 1038.83 -2.25543 2.36216 0
M  V30 10836 H 1037.49 -0.53801 3.62631 0
M  V30 10837 H 1037.13 -2.97675 4.05461 0
M  V30 10838 H 1036.83 -2.01094 5.52119 0
M  V30 10839 H 1038.36 -2.92892 5.35767 0
M  V30 10840 H 1039.77 -0.682262 5.69226 0
M  V30 10841 H 1038.17 0.0462746 6.00082 0
M  V30 10842 H 1039.24 0.771152 4.78729 0
M  V30 10843 N 1040.58 -1.57259 0.103575 0
M  V30 10844 C 1041.81 -1.99424 -0.569638 0
M  V30 10845 C 1042.23 -0.982475 -1.60403 0
M  V30 10846 O 1041.59 0.0479231 -1.81237 0
M  V30 10847 C 1041.64 -3.40527 -1.18633 0
M  V30 10848 O 1040.74 -3.42167 -2.30208 0
M  V30 10849 H 1040.08 -0.648251 -0.143759 0
M  V30 10850 H 1042.61 -2.03739 0.187493 0
M  V30 10851 H 1042.62 -3.78404 -1.5256 0
M  V30 10852 H 1041.3 -4.13686 -0.428582 0
M  V30 10853 H 1039.88 -3.16093 -1.97837 0
M  V30 10854 N 1042.06 0.170153 -1.56679 0
M  V30 10855 C 1042.99 1.21285 -1.9953 0
M  V30 10856 C 1043.97 1.46104 -0.871071 0
M  V30 10857 O 1045.16 1.57419 -1.13724 0
M  V30 10858 C 1042.29 2.5515 -2.35618 0
M  V30 10859 C 1041.24 2.44898 -3.51011 0
M  V30 10860 C 1040.57 3.83263 -3.72845 0
M  V30 10861 C 1041.87 1.95271 -4.84424 0
M  V30 10862 H 1043.56 0.856646 -2.86883 0
M  V30 10863 H 1041.11 0.410634 -1.38021 0
M  V30 10864 H 1043.06 3.28299 -2.64193 0
M  V30 10865 H 1041.78 2.92561 -1.45175 0
M  V30 10866 H 1040.44 1.74203 -3.22566 0
M  V30 10867 H 1040.09 4.18069 -2.79691 0
M  V30 10868 H 1039.79 3.77272 -4.50488 0
M  V30 10869 H 1041.31 4.57996 -4.03822 0
M  V30 10870 H 1042.73 2.58195 -5.11867 0
M  V30 10871 H 1041.13 2.00225 -5.65712 0
M  V30 10872 H 1042.2 0.90709 -4.7634 0
M  V30 10873 N 1043.54 1.5137 0.438746 0
M  V30 10874 C 1044.82 1.54508 1.19944 0
M  V30 10875 C 1045.2 0.308525 2.08833 0
M  V30 10876 O 1044.54 -0.706461 2.17305 0
M  V30 10877 C 1044.75 2.85833 2.00251 0
M  V30 10878 C 1046.1 3.37729 2.5734 0
M  V30 10879 O 1047.13 2.87374 2.10463 0
M  V30 10880 O 1045.98 4.25589 3.42836 0
M  V30 10881 H 1043.08 0.621132 0.546007 0
M  V30 10882 H 1045.62 1.63682 0.447931 0
M  V30 10883 H 1044.4 3.67291 1.34955 0
M  V30 10884 H 1044.02 2.79815 2.8247 0
M  V30 10885 N 1045.02 -0.694098 1.41492 0
M  V30 10886 C 1046.27 -1.4498 1.40227 0
M  V30 10887 C 1046.58 -1.95594 0.0151253 0
M  V30 10888 O 1047.78 -2.71234 -0.120146 0
M  V30 10889 C 1046.24 -2.62171 2.46565 0
M  V30 10890 C 1045.85 -2.18337 3.91194 0
M  V30 10891 C 1047.59 -3.39796 2.54439 0
M  V30 10892 C 1045.5 -3.32495 4.89082 0
M  V30 10893 H 1044.43 -0.544584 0.521483 0
M  V30 10894 H 1047.08 -0.75337 1.67322 0
M  V30 10895 H 1045.46 -3.34089 2.12604 0
M  V30 10896 H 1046.64 -1.53698 4.34412 0
M  V30 10897 H 1044.95 -1.53702 3.86994 0
M  V30 10898 H 1047.55 -4.2478 3.24755 0
M  V30 10899 H 1047.89 -3.85082 1.5817 0
M  V30 10900 H 1048.42 -2.74935 2.87499 0
M  V30 10901 H 1045.16 -2.92219 5.86761 0
M  V30 10902 H 1044.68 -3.95978 4.50512 0
M  V30 10903 H 1046.36 -3.98251 5.09907 0
M  V30 10904 N 1046.49 -1.27344 -0.928501 0
M  V30 10905 C 1047.91 -1.12361 -1.49103 0
M  V30 10906 C 1048.26 0.291667 -1.9402 0
M  V30 10907 O 1047.38 1.18449 -1.81104 0
M  V30 10908 C 1047.98 -2.03358 -2.70981 0
M  V30 10909 C 1046.54 -1.92483 -3.23461 0
M  V30 10910 C 1045.68 -1.95961 -1.962 0
M  V30 10911 H 1048.63 -1.40249 -0.742689 0
M  V30 10912 H 1048.65 -1.58892 -3.45736 0
M  V30 10913 H 1048.17 -3.06356 -2.38259 0
M  V30 10914 H 1046.27 -0.924676 -3.60944 0
M  V30 10915 H 1046.38 -2.78682 -3.89709 0
M  V30 10916 H 1044.74 -1.40175 -2.12657 0
M  V30 10917 H 1045.53 -3.00612 -1.65793 0
M  V30 10918 N 1047.97 1.13488 -1.09353 0
M  V30 10919 C 1048.94 2.17066 -0.735863 0
M  V30 10920 C 1049.94 1.59086 0.234181 0
M  V30 10921 O 1051.13 1.74196 0.012463 0
M  V30 10922 C 1048.26 3.40786 -0.0880975 0
M  V30 10923 H 1049.45 2.50221 -1.65316 0
M  V30 10924 H 1047 1.28304 -0.89263 0
M  V30 10925 H 1047.74 3.1322 0.840462 0
M  V30 10926 H 1047.52 3.8414 -0.786073 0
M  V30 10927 H 1049.01 4.17342 0.146775 0
M  V30 10928 N 1049.45 0.880621 1.30701 0
M  V30 10929 C 1050.7 0.495894 1.95922 0
M  V30 10930 C 1051.02 -0.957214 1.69889 0
M  V30 10931 O 1050.29 -1.67245 1.0201 0
M  V30 10932 H 1048.87 0.180394 0.724891 0
M  V30 10933 H 1051.53 1.12274 1.59313 0
M  V30 10934 H 1050.63 0.662508 3.04987 0
M  V30 10935 N 1050.93 -1.4397 0.641131 0
M  V30 10936 C 1052.35 -1.56607 0.30762 0
M  V30 10937 C 1052.55 -1.62694 -1.18882 0
M  V30 10938 O 1051.6 -1.57541 -1.97325 0
M  V30 10939 C 1052.91 -2.83289 1.00834 0
M  V30 10940 C 1054.46 -2.97016 0.98744 0
M  V30 10941 C 1054.94 -4.26514 1.66882 0
M  V30 10942 N 1056.43 -4.33351 1.63589 0
M  V30 10943 C 1057.16 -5.32292 2.13196 0
M  V30 10944 N 1056.66 -6.37582 2.71038 0
M  V30 10945 N 1058.45 -5.23866 2.03766 0
M  V30 10946 H 1050.6 -1.38262 1.61237 0
M  V30 10947 H 1052.87 -0.663221 0.677378 0
M  V30 10948 H 1052.57 -2.84812 2.06337 0
M  V30 10949 H 1052.45 -3.73134 0.552333 0
M  V30 10950 H 1054.83 -2.95041 -0.0591395 0
M  V30 10951 H 1054.91 -2.08493 1.48203 0
M  V30 10952 H 1054.56 -4.2925 2.71491 0
M  V30 10953 H 1054.49 -5.13912 1.14898 0
M  V30 10954 H 1056.98 -3.5788 1.21368 0
M  V30 10955 H 1057.29 -7.09378 3.06597 0
M  V30 10956 H 1055.64 -6.38239 2.75093 0
M  V30 10957 H 1058.83 -4.40524 1.58291 0
M  V30 10958 H 1059 -6.00819 2.42737 0
M  V30 10959 N 1052.41 -0.382291 -1.52893 0
M  V30 10960 C 1053.34 0.447829 -2.29165 0
M  V30 10961 C 1054.32 1.06956 -1.32267 0
M  V30 10962 O 1055.5 1.08365 -1.61154 0
M  V30 10963 C 1052.63 1.57902 -3.09329 0
M  V30 10964 C 1051.59 1.08369 -4.14053 0
M  V30 10965 C 1050.91 2.30641 -4.82399 0
M  V30 10966 C 1052.21 0.156591 -5.22065 0
M  V30 10967 H 1053.91 -0.188541 -2.98806 0
M  V30 10968 H 1051.45 -0.0921179 -1.43705 0
M  V30 10969 H 1053.41 2.16652 -3.61442 0
M  V30 10970 H 1052.13 2.24287 -2.37409 0
M  V30 10971 H 1050.79 0.518772 -3.62911 0
M  V30 10972 H 1050.44 2.9552 -4.07034 0
M  V30 10973 H 1050.14 1.98163 -5.53177 0
M  V30 10974 H 1051.66 2.90047 -5.37313 0
M  V30 10975 H 1053.08 0.652065 -5.6958 0
M  V30 10976 H 1051.47 -0.0780978 -6.00049 0
M  V30 10977 H 1052.54 -0.796529 -4.78313 0
M  V30 10978 N 1053.89 1.57202 -0.111913 0
M  V30 10979 C 1055.12 1.99008 0.554907 0
M  V30 10980 C 1055.52 0.990323 1.61212 0
M  V30 10981 O 1054.87 -0.0259612 1.83682 0
M  V30 10982 C 1054.93 3.37218 1.24598 0
M  V30 10983 C 1054.59 4.55752 0.337549 0
M  V30 10984 C 1055.59 5.18192 -0.421026 0
M  V30 10985 C 1053.27 5.01674 0.25069 0
M  V30 10986 C 1055.27 6.24938 -1.25426 0
M  V30 10987 C 1052.96 6.08282 -0.586186 0
M  V30 10988 C 1053.95 6.6978 -1.3373 0
M  V30 10989 O 1053.64 7.7433 -2.16029 0
M  V30 10990 H 1053.37 0.658669 0.152091 0
M  V30 10991 H 1055.93 2.04492 -0.192937 0
M  V30 10992 H 1054.16 3.28467 2.04074 0
M  V30 10993 H 1055.85 3.63359 1.809 0
M  V30 10994 H 1056.61 4.83634 -0.363752 0
M  V30 10995 H 1052.49 4.53558 0.825005 0
M  V30 10996 H 1056.04 6.72869 -1.84102 0
M  V30 10997 H 1051.93 6.42271 -0.64488 0
M  V30 10998 H 1052.7 7.91395 -2.08894 0
M  V30 10999 N 1055.36 -0.161842 1.56767 0
M  V30 11000 C 1056.61 -0.873481 1.8369 0
M  V30 11001 C 1056.96 -1.79455 0.693817 0
M  V30 11002 O 1056.26 -1.89089 -0.309181 0
M  V30 11003 C 1056.45 -1.69736 3.14522 0
M  V30 11004 C 1056.28 -0.857568 4.41447 0
M  V30 11005 C 1055.05 -0.528952 5.02524 0
M  V30 11006 C 1057.25 -0.194734 5.13931 0
M  V30 11007 N 1055.23 0.325994 6.13034 0
M  V30 11008 C 1056.6 0.520973 6.17807 0
M  V30 11009 C 1058.66 -0.113874 4.9777 0
M  V30 11010 C 1057.36 1.30988 7.07273 0
M  V30 11011 C 1059.39 0.661731 5.87686 0
M  V30 11012 C 1058.75 1.36577 6.91033 0
M  V30 11013 H 1054.85 -0.297939 0.723019 0
M  V30 11014 H 1057.43 -0.139816 1.94197 0
M  V30 11015 H 1055.6 -2.40238 3.05189 0
M  V30 11016 H 1057.33 -2.35103 3.29407 0
M  V30 11017 H 1054.09 -0.861267 4.65703 0
M  V30 11018 H 1054.51 0.744055 6.72899 0
M  V30 11019 H 1059.15 -0.643832 4.17869 0
M  V30 11020 H 1056.87 1.85115 7.86612 0
M  V30 11021 H 1060.46 0.726092 5.77251 0
M  V30 11022 H 1059.34 1.9563 7.59407 0
M  V30 11023 N 1056.84 -1.516 -0.430713 0
M  V30 11024 C 1058.09 -1.6484 -1.18134 0
M  V30 11025 C 1058.42 -0.366725 -1.90706 0
M  V30 11026 O 1057.7 0.63398 -1.83878 0
M  V30 11027 C 1057.98 -2.85617 -2.19306 0
M  V30 11028 C 1057.83 -4.23778 -1.50773 0
M  V30 11029 C 1059.15 -3.01909 -3.20217 0
M  V30 11030 H 1056.27 -0.599907 -0.428113 0
M  V30 11031 H 1058.91 -1.84102 -0.46973 0
M  V30 11032 H 1057.06 -2.69325 -2.79993 0
M  V30 11033 H 1058.73 -4.51752 -0.93371 0
M  V30 11034 H 1056.98 -4.26171 -0.809966 0
M  V30 11035 H 1057.65 -5.04291 -2.24487 0
M  V30 11036 H 1060.12 -3.16956 -2.69589 0
M  V30 11037 H 1059 -3.87968 -3.88293 0
M  V30 11038 H 1059.26 -2.1427 -3.86705 0
M  V30 11039 N 1058.32 0.686584 -1.41858 0
M  V30 11040 C 1059.6 1.44176 -1.32185 0
M  V30 11041 C 1059.98 2.11049 0.046362 0
M  V30 11042 O 1059.32 2.02365 1.06117 0
M  V30 11043 C 1059.53 2.45385 -2.48168 0
M  V30 11044 C 1060.88 3.10375 -2.89746 0
M  V30 11045 O 1061.91 2.55711 -2.47973 0
M  V30 11046 O 1060.77 4.09404 -3.62009 0
M  V30 11047 H 1057.86 0.642513 -0.520678 0
M  V30 11048 H 1060.41 0.716303 -1.53841 0
M  V30 11049 H 1059.18 1.94687 -3.3943 0
M  V30 11050 H 1058.8 3.25428 -2.28435 0
M  V30 11051 N 1059.8 1.27835 0.921735 0
M  V30 11052 C 1060.76 1.11108 2.00469 0
M  V30 11053 C 1061.76 0.053203 1.60712 0
M  V30 11054 O 1062.95 0.298308 1.71627 0
M  V30 11055 C 1060.08 0.694269 3.33755 0
M  V30 11056 H 1061.28 2.07279 2.16738 0
M  V30 11057 H 1058.83 1.10708 1.10333 0
M  V30 11058 H 1059.56 -0.268561 3.23186 0
M  V30 11059 H 1059.35 1.45836 3.6397 0
M  V30 11060 H 1060.84 0.59965 4.13272 0
M  V30 11061 N 1061.28 -1.12907 1.09954 0
M  V30 11062 C 1062.52 -1.84306 0.838912 0
M  V30 11063 C 1062.85 -1.83825 -0.635508 0
M  V30 11064 O 1062.11 -1.27556 -1.48418 0
M  V30 11065 C 1062.4 -3.31885 1.32616 0
M  V30 11066 C 1062.07 -3.52542 2.81114 0
M  V30 11067 C 1060.73 -3.57888 3.21667 0
M  V30 11068 C 1063.08 -3.60065 3.76833 0
M  V30 11069 C 1060.41 -3.68296 4.567 0
M  V30 11070 C 1062.76 -3.72001 5.11662 0
M  V30 11071 C 1061.43 -3.75602 5.51797 0
M  V30 11072 H 1060.7 -0.674422 0.30698 0
M  V30 11073 H 1063.35 -1.33261 1.37527 0
M  V30 11074 H 1061.65 -3.85318 0.709719 0
M  V30 11075 H 1063.35 -3.85588 1.10105 0
M  V30 11076 H 1059.94 -3.4904 2.48735 0
M  V30 11077 H 1064.12 -3.55209 3.46612 0
M  V30 11078 H 1059.38 -3.69352 4.87226 0
M  V30 11079 H 1063.55 -3.76765 5.8568 0
M  V30 11080 H 1061.18 -3.83419 6.56425 0
M  V30 11081 N 1062.75 -0.88754 -1.30232 0
M  V30 11082 C 1063.98 -0.521549 -1.99909 0
M  V30 11083 C 1064.39 0.895086 -1.66688 0
M  V30 11084 O 1063.73 1.60053 -0.90159 0
M  V30 11085 C 1063.8 -0.619564 -3.54121 0
M  V30 11086 C 1063.46 -2.00097 -4.10865 0
M  V30 11087 C 1064.46 -2.97068 -4.26669 0
M  V30 11088 C 1062.14 -2.30706 -4.46184 0
M  V30 11089 C 1064.14 -4.2278 -4.77007 0
M  V30 11090 C 1061.82 -3.56663 -4.96221 0
M  V30 11091 C 1062.82 -4.52515 -5.11585 0
M  V30 11092 O 1062.51 -5.76237 -5.60541 0
M  V30 11093 H 1062.24 -0.199904 -0.645766 0
M  V30 11094 H 1064.8 -1.19546 -1.67027 0
M  V30 11095 H 1063.03 0.111334 -3.8654 0
M  V30 11096 H 1064.71 -0.26448 -4.05037 0
M  V30 11097 H 1065.48 -2.74734 -3.99683 0
M  V30 11098 H 1061.36 -1.56865 -4.33491 0
M  V30 11099 H 1064.9 -4.97603 -4.88914 0
M  V30 11100 H 1060.8 -3.78834 -5.22643 0
M  V30 11101 H 1061.57 -5.78655 -5.78879 0
M  V30 11102 N 1064.23 1.43628 -0.648757 0
M  V30 11103 C 1065.51 1.95391 -0.0904551 0
M  V30 11104 C 1065.89 1.59021 1.38837 0
M  V30 11105 O 1065.24 0.873078 2.11163 0
M  V30 11106 C 1065.45 3.47418 -0.33196 0
M  V30 11107 C 1066.8 4.23952 -0.234521 0
M  V30 11108 O 1067.82 3.55218 -0.264276 0
M  V30 11109 O 1066.68 5.46282 -0.154428 0
M  V30 11110 H 1063.77 0.82691 0.0121884 0
M  V30 11111 H 1066.32 1.5359 -0.721685 0
M  V30 11112 H 1065.09 3.67001 -1.35741 0
M  V30 11113 H 1064.71 3.96207 0.332556 0
M  V30 11114 N 1065.71 0.390394 1.52688 0
M  V30 11115 C 1067.13 0.0404028 1.59549 0
M  V30 11116 C 1067.33 -1.44503 1.40432 0
M  V30 11117 O 1066.38 -2.20968 1.22187 0
M  V30 11118 C 1067.7 0.518561 2.96195 0
M  V30 11119 C 1069.24 0.474913 3.09376 0
M  V30 11120 C 1069.72 0.929278 4.48473 0
M  V30 11121 N 1071.21 0.885335 4.5466 0
M  V30 11122 C 1071.94 1.2083 5.60524 0
M  V30 11123 N 1071.44 1.6018 6.74028 0
M  V30 11124 N 1073.23 1.12949 5.50635 0
M  V30 11125 H 1065.38 1.35743 1.63363 0
M  V30 11126 H 1067.65 0.556453 0.767505 0
M  V30 11127 H 1067.35 1.55606 3.15404 0
M  V30 11128 H 1067.23 -0.081779 3.77111 0
M  V30 11129 H 1069.61 -0.553503 2.89863 0
M  V30 11130 H 1069.7 1.11107 2.3041 0
M  V30 11131 H 1069.34 1.95593 4.68728 0
M  V30 11132 H 1069.27 0.270121 5.25907 0
M  V30 11133 H 1071.76 0.595787 3.73174 0
M  V30 11134 H 1072.07 1.83184 7.50775 0
M  V30 11135 H 1070.42 1.64067 6.75357 0
M  V30 11136 H 1073.61 0.821074 4.60843 0
M  V30 11137 H 1073.78 1.3845 6.33037 0
M  V30 11138 N 1067.19 -1.57141 0.120249 0
M  V30 11139 C 1068.44 -1.94413 -0.53727 0
M  V30 11140 C 1068.75 -1.00594 -1.67751 0
M  V30 11141 O 1069.96 -1.27336 -2.39787 0
M  V30 11142 C 1068.41 -3.45521 -1.00714 0
M  V30 11143 C 1068.02 -4.47878 0.104706 0
M  V30 11144 C 1069.76 -3.9171 -1.63596 0
M  V30 11145 C 1067.67 -5.90165 -0.381932 0
M  V30 11146 H 1066.6 -0.725745 -0.204475 0
M  V30 11147 H 1069.25 -1.82404 0.200302 0
M  V30 11148 H 1067.63 -3.52769 -1.79917 0
M  V30 11149 H 1068.81 -4.523 0.881002 0
M  V30 11150 H 1067.12 -4.11448 0.640264 0
M  V30 11151 H 1069.72 -4.95433 -2.01122 0
M  V30 11152 H 1070.06 -3.31756 -2.51483 0
M  V30 11153 H 1070.6 -3.87268 -0.909319 0
M  V30 11154 H 1067.34 -6.53877 0.460921 0
M  V30 11155 H 1066.86 -5.89161 -1.12468 0
M  V30 11156 H 1068.53 -6.41488 -0.842748 0
M  V30 11157 N 1068.67 0.153526 -1.5685 0
M  V30 11158 C 1069.58 1.20932 -2.01029 0
M  V30 11159 C 1070.59 1.47401 -0.924598 0
M  V30 11160 O 1071.77 1.592 -1.23359 0
M  V30 11161 C 1068.83 2.52438 -2.37647 0
M  V30 11162 C 1067.89 2.33673 -3.60132 0
M  V30 11163 C 1067.13 3.58909 -3.94994 0
M  V30 11164 O 1067.35 4.64823 -3.30599 0
M  V30 11165 O 1066.28 3.5196 -4.8827 0
M  V30 11166 H 1070.11 0.864273 -2.91143 0
M  V30 11167 H 1067.7 0.361755 -1.44954 0
M  V30 11168 H 1069.58 3.29981 -2.62088 0
M  V30 11169 H 1068.25 2.86486 -1.5069 0
M  V30 11170 H 1067.16 1.54102 -3.40886 0
M  V30 11171 H 1068.49 2.04544 -4.47686 0
M  V30 11172 N 1070.14 1.51827 0.422667 0
M  V30 11173 C 1071.37 1.69049 1.1929 0
M  V30 11174 C 1071.79 0.394095 1.84641 0
M  V30 11175 O 1071.14 -0.628731 1.71328 0
M  V30 11176 C 1071.2 2.81657 2.26609 0
M  V30 11177 O 1070.92 4.06275 1.63929 0
M  V30 11178 C 1072.42 3.10274 3.16615 0
M  V30 11179 H 1069.64 0.566894 0.358988 0
M  V30 11180 H 1072.18 1.98318 0.499029 0
M  V30 11181 H 1070.34 2.54945 2.91688 0
M  V30 11182 H 1070.75 4.68924 2.3497 0
M  V30 11183 H 1072.22 3.92613 3.88019 0
M  V30 11184 H 1072.7 2.23273 3.78214 0
M  V30 11185 H 1073.31 3.387 2.57221 0
M  V30 11186 N 1071.62 -0.679052 1.4222 0
M  V30 11187 C 1072.87 -1.43485 1.41757 0
M  V30 11188 C 1073.18 -1.95567 0.0358698 0
M  V30 11189 O 1074.39 -2.71346 -0.0913713 0
M  V30 11190 C 1072.85 -2.59541 2.49332 0
M  V30 11191 C 1072.45 -2.14176 3.93488 0
M  V30 11192 C 1074.2 -3.37078 2.58029 0
M  V30 11193 C 1072.11 -3.27289 4.92581 0
M  V30 11194 H 1071.04 -0.539022 0.52723 0
M  V30 11195 H 1073.69 -0.735581 1.68111 0
M  V30 11196 H 1072.07 -3.31815 2.16135 0
M  V30 11197 H 1073.24 -1.49082 4.36017 0
M  V30 11198 H 1071.56 -1.49589 3.88603 0
M  V30 11199 H 1074.15 -4.21312 3.29242 0
M  V30 11200 H 1074.5 -3.83383 1.62245 0
M  V30 11201 H 1075.03 -2.7187 2.90399 0
M  V30 11202 H 1071.77 -2.8598 5.89827 0
M  V30 11203 H 1071.29 -3.91178 4.54687 0
M  V30 11204 H 1072.97 -3.9282 5.14103 0
M  V30 11205 N 1073.1 -1.28322 -0.914942 0
M  V30 11206 C 1074.03 -1.14681 -2.03398 0
M  V30 11207 C 1075.01 -0.0448939 -1.70041 0
M  V30 11208 O 1076.2 -0.221672 -1.92931 0
M  V30 11209 C 1073.33 -0.806623 -3.37803 0
M  V30 11210 C 1072.28 -1.86318 -3.85318 0
M  V30 11211 C 1071.61 -1.37665 -5.16674 0
M  V30 11212 C 1072.91 -3.26953 -4.07307 0
M  V30 11213 H 1074.6 -2.08293 -2.15068 0
M  V30 11214 H 1072.15 -1.00284 -1.03339 0
M  V30 11215 H 1074.1 -0.69796 -4.1558 0
M  V30 11216 H 1072.82 0.165203 -3.26182 0
M  V30 11217 H 1071.48 -1.96096 -3.09745 0
M  V30 11218 H 1071.13 -0.393927 -5.01455 0
M  V30 11219 H 1070.83 -2.08313 -5.49435 0
M  V30 11220 H 1072.35 -1.28119 -5.97007 0
M  V30 11221 H 1073.77 -3.20102 -4.75613 0
M  V30 11222 H 1072.17 -3.95424 -4.51398 0
M  V30 11223 H 1073.24 -3.71059 -3.12159 0
M  V30 11224 N 1074.58 1.12322 -1.10551 0
M  V30 11225 C 1075.51 2.20176 -0.777486 0
M  V30 11226 C 1076.49 1.68252 0.250069 0
M  V30 11227 O 1077.67 1.93856 0.115574 0
M  V30 11228 C 1074.8 3.46666 -0.209822 0
M  V30 11229 C 1073.76 4.11749 -1.1682 0
M  V30 11230 C 1073.08 5.32703 -0.461684 0
M  V30 11231 C 1074.38 4.57746 -2.51527 0
M  V30 11232 H 1076.08 2.47872 -1.67928 0
M  V30 11233 H 1073.62 1.19136 -0.808863 0
M  V30 11234 H 1075.58 4.21388 0.0318068 0
M  V30 11235 H 1074.3 3.18401 0.727226 0
M  V30 11236 H 1072.96 3.39009 -1.3953 0
M  V30 11237 H 1072.61 5.00706 0.479875 0
M  V30 11238 H 1072.31 5.77197 -1.1008 0
M  V30 11239 H 1073.83 6.10172 -0.228629 0
M  V30 11240 H 1075.25 5.23835 -2.32958 0
M  V30 11241 H 1073.64 5.13021 -3.11335 0
M  V30 11242 H 1074.71 3.71667 -3.11435 0
M  V30 11243 N 1076.06 0.894434 1.2976 0
M  V30 11244 C 1077 0.357958 2.29829 0
M  V30 11245 C 1078 -0.540093 1.6056 0
M  V30 11246 O 1079.2 -0.423478 1.74948 0
M  V30 11247 H 1075.58 0.0971183 0.745702 0
M  V30 11248 H 1077.55 1.21542 2.72526 0
M  V30 11249 C 1076.3 -0.404126 3.45343 0
M  V30 11250 H 1075.62 0.277671 3.98835 0
M  V30 11251 H 1077.06 -0.744446 4.17413 0
M  V30 11252 C 1075.52 -1.6048 2.96222 0
M  V30 11253 O 1076.05 -2.70414 2.97051 0
M  V30 11254 N 1074.26 -1.44517 2.52117 0
M  V30 11255 H 1073.8 -0.55082 2.51642 0
M  V30 11256 H 1073.76 -2.24987 2.1961 0
M  V30 11257 N 1077.53 -1.43282 0.656365 0
M  V30 11258 C 1078.78 -2.01378 0.170702 0
M  V30 11259 C 1079.1 -1.52063 -1.22073 0
M  V30 11260 O 1078.37 -0.73456 -1.81607 0
M  V30 11261 H 1076.95 -0.744577 0.0601168 0
M  V30 11262 H 1079.62 -1.75449 0.848739 0
M  V30 11263 H 1078.71 -3.11701 0.157745 0
M  V30 11264 N 1079.01 -0.398486 -1.52479 0
M  V30 11265 C 1080.24 0.180557 -2.06111 0
M  V30 11266 C 1080.66 1.39751 -1.26945 0
M  V30 11267 O 1080.01 1.79699 -0.318497 0
M  V30 11268 C 1080.06 0.541573 -3.5742 0
M  V30 11269 O 1079.79 -0.627043 -4.33589 0
M  V30 11270 C 1081.29 1.17549 -4.27431 0
M  V30 11271 H 1078.51 0.0250754 -0.670531 0
M  V30 11272 H 1081.05 -0.566368 -1.96501 0
M  V30 11273 H 1079.21 1.23839 -3.67073 0
M  V30 11274 H 1079.62 -0.328233 -5.23472 0
M  V30 11275 H 1081.09 1.37839 -5.34513 0
M  V30 11276 H 1081.57 2.14553 -3.83228 0
M  V30 11277 H 1082.18 0.51918 -4.22119 0
M  V30 11278 N 1080.49 1.57075 -0.12858 0
M  V30 11279 C 1081.77 1.87075 0.571162 0
M  V30 11280 C 1082.15 1.03141 1.84188 0
M  V30 11281 O 1081.5 0.113001 2.2822 0
M  V30 11282 C 1081.71 3.3838 0.854383 0
M  V30 11283 C 1083.05 4.07194 1.20326 0
M  V30 11284 O 1084.08 3.43454 0.944338 0
M  V30 11285 O 1082.94 5.19725 1.68963 0
M  V30 11286 H 1080.03 0.774764 0.289258 0
M  V30 11287 H 1082.58 1.68908 -0.163806 0
M  V30 11288 H 1081.35 3.91273 -0.0456925 0
M  V30 11289 H 1080.97 3.62012 1.64418 0
M  V30 11290 N 1081.97 -0.145205 1.5693 0
M  V30 11291 C 1083.39 -0.497905 1.51635 0
M  V30 11292 C 1083.59 -1.8328 0.837301 0
M  V30 11293 O 1082.64 -2.49172 0.408584 0
M  V30 11294 C 1083.95 -0.506557 2.96403 0
M  V30 11295 C 1085.5 -0.591947 3.07352 0
M  V30 11296 C 1085.98 -0.631244 4.53629 0
M  V30 11297 N 1087.47 -0.693417 4.5798 0
M  V30 11298 C 1088.2 -0.744836 5.68542 0
M  V30 11299 N 1087.7 -0.755492 6.88668 0
M  V30 11300 N 1089.49 -0.785854 5.5658 0
M  V30 11301 H 1081.64 0.729779 1.99469 0
M  V30 11302 H 1083.91 0.266295 0.90983 0
M  V30 11303 H 1083.61 0.406127 3.49347 0
M  V30 11304 H 1083.49 -1.34383 3.5245 0
M  V30 11305 H 1085.87 -1.49505 2.54425 0
M  V30 11306 H 1085.95 0.272507 2.54344 0
M  V30 11307 H 1085.6 0.26771 5.07194 0
M  V30 11308 H 1085.53 -1.51221 5.0442 0
M  V30 11309 H 1088.02 -0.692408 3.71503 0
M  V30 11310 H 1088.33 -0.796624 7.68683 0
M  V30 11311 H 1086.68 -0.723339 6.91226 0
M  V30 11312 H 1089.87 -0.774712 4.61645 0
M  V30 11313 H 1090.04 -0.822461 6.42759 0
M  V30 11314 N 1083.45 -1.52049 -0.414609 0
M  V30 11315 C 1084.39 -1.74998 -1.5048 0
M  V30 11316 C 1085.36 -0.592251 -1.55182 0
M  V30 11317 O 1086.55 -0.829203 -1.7184 0
M  V30 11318 C 1083.69 -1.90157 -2.87983 0
M  V30 11319 C 1082.8 -3.17789 -2.92633 0
M  V30 11320 C 1081.94 -3.23411 -4.21401 0
M  V30 11321 C 1080.98 -4.45267 -4.20004 0
M  V30 11322 N 1080.11 -4.48312 -5.40334 0
M  V30 11323 H 1084.95 -2.68046 -1.30212 0
M  V30 11324 H 1082.49 -1.32824 -0.632154 0
M  V30 11325 H 1084.45 -1.96929 -3.67797 0
M  V30 11326 H 1083.08 -1.00496 -3.06758 0
M  V30 11327 H 1082.13 -3.20216 -2.05343 0
M  V30 11328 H 1083.44 -4.07634 -2.87465 0
M  V30 11329 H 1082.6 -3.29224 -5.09604 0
M  V30 11330 H 1081.34 -2.31495 -4.29257 0
M  V30 11331 H 1080.34 -4.39606 -3.30192 0
M  V30 11332 H 1081.57 -5.38472 -4.13793 0
M  V30 11333 H 1079.51 -3.59277 -5.48868 0
M  V30 11334 H 1079.43 -5.31994 -5.37139 0
M  V30 11335 H 1080.7 -4.58347 -6.30506 0
M  V30 11336 N 1084.93 0.6715 -1.42579 0
M  V30 11337 C 1086.17 1.42731 -1.42516 0
M  V30 11338 C 1086.49 1.95545 -0.0462407 0
M  V30 11339 O 1087.69 2.71391 0.0769798 0
M  V30 11340 C 1086.15 2.58215 -2.50705 0
M  V30 11341 C 1085.76 2.12086 -3.94618 0
M  V30 11342 C 1087.5 3.35705 -2.59813 0
M  V30 11343 C 1085.41 3.24672 -4.9431 0
M  V30 11344 H 1084.34 0.536218 -0.530081 0
M  V30 11345 H 1086.99 0.726655 -1.68499 0
M  V30 11346 H 1085.37 3.30665 -2.17892 0
M  V30 11347 H 1086.55 1.46768 -4.36802 0
M  V30 11348 H 1084.86 1.47526 -3.89391 0
M  V30 11349 H 1087.46 4.1956 -3.31472 0
M  V30 11350 H 1087.8 3.82517 -1.64276 0
M  V30 11351 H 1088.33 2.70326 -2.91836 0
M  V30 11352 H 1085.07 2.82848 -5.91335 0
M  V30 11353 H 1084.59 3.88761 -4.56755 0
M  V30 11354 H 1086.27 3.90088 -5.16179 0
M  V30 11355 N 1086.4 1.28806 0.908124 0
M  V30 11356 C 1087.65 1.1646 1.66027 0
M  V30 11357 C 1087.98 -0.285025 1.92097 0
M  V30 11358 O 1087.26 -1.20675 1.52538 0
M  V30 11359 C 1087.54 1.96951 3.01467 0
M  V30 11360 C 1087.39 3.50007 2.82515 0
M  V30 11361 C 1088.71 1.78932 4.02084 0
M  V30 11362 H 1085.83 0.424435 0.602515 0
M  V30 11363 H 1088.47 1.58185 1.0525 0
M  V30 11364 H 1086.62 1.61495 3.53344 0
M  V30 11365 H 1088.3 3.95401 2.37605 0
M  V30 11366 H 1086.54 3.75356 2.17463 0
M  V30 11367 H 1087.21 4.01591 3.7872 0
M  V30 11368 H 1089.69 2.09885 3.59287 0
M  V30 11369 H 1088.56 2.37615 4.94803 0
M  V30 11370 H 1088.82 0.742286 4.35824 0
M  V30 11371 N 1087.88 -1.11734 1.11145 0
M  V30 11372 C 1089.11 -1.86943 0.879534 0
M  V30 11373 C 1089.52 -1.80283 -0.574007 0
M  V30 11374 O 1088.86 -1.17998 -1.40791 0
M  V30 11375 C 1088.92 -3.36738 1.25887 0
M  V30 11376 C 1088.59 -3.67169 2.72095 0
M  V30 11377 C 1089.59 -3.6491 3.7032 0
M  V30 11378 C 1087.27 -3.96272 3.08665 0
M  V30 11379 C 1089.26 -3.91325 5.03134 0
M  V30 11380 C 1086.95 -4.22345 4.41665 0
M  V30 11381 C 1087.95 -4.19859 5.38709 0
M  V30 11382 O 1087.64 -4.4528 6.69314 0
M  V30 11383 H 1087.37 -0.598117 0.315011 0
M  V30 11384 H 1089.92 -1.42253 1.48166 0
M  V30 11385 H 1088.15 -3.82019 0.599873 0
M  V30 11386 H 1089.84 -3.93306 1.00325 0
M  V30 11387 H 1090.61 -3.42481 3.43412 0
M  V30 11388 H 1086.49 -3.97344 2.33749 0
M  V30 11389 H 1090.03 -3.893 5.78871 0
M  V30 11390 H 1085.93 -4.4425 4.68308 0
M  V30 11391 H 1086.7 -4.62863 6.75056 0
M  V30 11392 N 1089.36 -0.901303 -1.29284 0
M  V30 11393 C 1090.27 -0.3849 -2.31421 0
M  V30 11394 C 1091.29 0.521163 -1.66012 0
M  V30 11395 O 1092.46 0.410356 -1.97175 0
M  V30 11396 C 1089.53 0.377804 -3.44635 0
M  V30 11397 C 1088.59 -0.559974 -4.25632 0
M  V30 11398 C 1087.82 0.166425 -5.3344 0
M  V30 11399 O 1088.04 1.39012 -5.53202 0
M  V30 11400 O 1086.98 -0.491875 -5.99887 0
M  V30 11401 H 1090.8 -1.2323 -2.77575 0
M  V30 11402 H 1088.39 -0.665683 -1.3375 0
M  V30 11403 H 1090.27 0.809041 -4.13561 0
M  V30 11404 H 1088.95 1.20124 -3.00586 0
M  V30 11405 H 1087.85 -1.04036 -3.59343 0
M  V30 11406 H 1089.19 -1.34987 -4.73328 0
M  V30 11407 N 1090.84 1.42931 -0.663954 0
M  V30 11408 C 1092.09 2.01284 -0.181379 0
M  V30 11409 C 1092.41 1.52708 1.21265 0
M  V30 11410 O 1091.68 0.744181 1.81215 0
M  V30 11411 H 1090.26 0.744248 -0.0640646 0
M  V30 11412 H 1092.92 1.74997 -0.858031 0
M  V30 11413 H 1092.01 3.11613 -0.174273 0
M  V30 11414 N 1092.32 0.406567 1.52266 0
M  V30 11415 C 1093.73 -0.063607 1.86592 0
M  V30 11416 C 1094.08 -1.4466 1.32544 0
M  V30 11417 O 1093.2 -2.05971 0.663692 0
M  V30 11418 C 1093.8 -0.122198 3.3858 0
M  V30 11419 C 1092.36 -0.536701 3.72554 0
M  V30 11420 C 1091.5 0.290422 2.75775 0
M  V30 11421 H 1094.45 0.623738 1.45929 0
M  V30 11422 H 1094.48 -0.937964 3.68758 0
M  V30 11423 H 1093.99 0.884495 3.77887 0
M  V30 11424 H 1092.09 -1.55013 3.38824 0
M  V30 11425 H 1092.2 -0.282867 4.78264 0
M  V30 11426 H 1090.57 -0.246864 2.53501 0
M  V30 11427 H 1091.35 1.29541 3.17921 0
M  V30 11428 N 1093.79 -1.57004 0.136909 0
M  V30 11429 C 1094.7 -2.19807 -0.819887 0
M  V30 11430 C 1095.72 -1.17939 -1.27932 0
M  V30 11431 O 1096.9 -1.50478 -1.3386 0
M  V30 11432 C 1093.96 -2.79935 -2.04542 0
M  V30 11433 C 1093.02 -3.96897 -1.6362 0
M  V30 11434 C 1092.26 -4.54148 -2.80331 0
M  V30 11435 O 1092.48 -4.10282 -3.96264 0
M  V30 11436 O 1091.41 -5.44565 -2.56384 0
M  V30 11437 H 1095.24 -3.02058 -0.315337 0
M  V30 11438 H 1092.82 -1.49131 -0.0896151 0
M  V30 11439 H 1094.71 -3.18191 -2.76283 0
M  V30 11440 H 1093.38 -2.00703 -2.53969 0
M  V30 11441 H 1092.29 -3.63376 -0.889316 0
M  V30 11442 H 1093.62 -4.77618 -1.18918 0
M  V30 11443 N 1095.27 0.136881 -1.57004 0
M  V30 11444 C 1096.2 1.17026 -2.02057 0
M  V30 11445 C 1097.18 1.44223 -0.901866 0
M  V30 11446 O 1098.37 1.54971 -1.17037 0
M  V30 11447 C 1095.5 2.50095 -2.40977 0
M  V30 11448 C 1094.45 2.37398 -3.56127 0
M  V30 11449 C 1093.78 3.75268 -3.80891 0
M  V30 11450 C 1095.08 1.84952 -4.88457 0
M  V30 11451 H 1096.77 0.795601 -2.88636 0
M  V30 11452 H 1094.32 0.381266 -1.38861 0
M  V30 11453 H 1096.27 3.22621 -2.71097 0
M  V30 11454 H 1095 2.89416 -1.51348 0
M  V30 11455 H 1093.65 1.67322 -3.26188 0
M  V30 11456 H 1093.3 4.12043 -2.88496 0
M  V30 11457 H 1093 3.67631 -4.5839 0
M  V30 11458 H 1094.53 4.49327 -4.13446 0
M  V30 11459 H 1095.94 2.4728 -5.17229 0
M  V30 11460 H 1094.34 1.88181 -5.69832 0
M  V30 11461 H 1095.41 0.805848 -4.78157 0
M  V30 11462 N 1096.75 1.52266 0.40654 0
M  V30 11463 C 1097.7 1.76409 1.516 0
M  V30 11464 C 1098.69 0.631311 1.57197 0
M  V30 11465 O 1099.9 0.813413 1.60573 0
M  V30 11466 H 1096.27 0.557904 0.50423 0
M  V30 11467 H 1098.24 2.69351 1.28424 0
M  V30 11468 C 1096.99 1.93415 2.88939 0
M  V30 11469 H 1096.32 2.8 2.85377 0
M  V30 11470 H 1097.76 2.14306 3.65854 0
M  V30 11471 C 1096.22 0.701938 3.29506 0
M  V30 11472 O 1096.75 -0.128965 4.01493 0
M  V30 11473 N 1094.95 0.537089 2.85594 0
M  V30 11474 H 1094.5 1.21435 2.27181 0
M  V30 11475 H 1094.46 -0.286055 3.13096 0
M  V30 11476 N 1098.23 -0.663929 1.42933 0
M  V30 11477 C 1099.18 -1.77007 1.4371 0
M  V30 11478 C 1100.16 -1.57945 0.306948 0
M  V30 11479 O 1101.35 -1.68239 0.549967 0
M  V30 11480 C 1098.48 -3.15535 1.3525 0
M  V30 11481 C 1097.57 -3.40183 2.53252 0
M  V30 11482 N 1097.96 -3.35357 3.78641 0
M  V30 11483 C 1096.26 -3.70861 2.47746 0
M  V30 11484 C 1096.96 -3.5979 4.57085 0
M  V30 11485 N 1095.94 -3.81084 3.87655 0
M  V30 11486 H 1099.74 -1.71686 2.3854 0
M  V30 11487 H 1097.25 -0.865191 1.37434 0
M  V30 11488 H 1099.25 -3.94816 1.33888 0
M  V30 11489 H 1097.91 -3.22046 0.414308 0
M  V30 11490 H 1098.92 -3.15011 4.11082 0
M  V30 11491 H 1095.6 -3.84552 1.62561 0
M  V30 11492 H 1096.99 -3.61928 5.6609 0
M  V30 11493 N 1099.71 -1.29285 -0.901281 0
M  V30 11494 C 1100.67 -1.14283 -1.98676 0
M  V30 11495 C 1101.67 -0.0787641 -1.60607 0
M  V30 11496 O 1102.86 -0.325574 -1.71131 0
M  V30 11497 C 1099.99 -0.747279 -3.32609 0
M  V30 11498 H 1101.18 -2.10701 -2.13413 0
M  V30 11499 H 1098.74 -1.12449 -1.08558 0
M  V30 11500 H 1099.47 0.217111 -3.23572 0
M  V30 11501 H 1099.26 -1.51608 -3.61604 0
M  V30 11502 H 1100.75 -0.665322 -4.12266 0
M  V30 11503 N 1101.18 1.11143 -1.11736 0
M  V30 11504 C 1102.43 1.82948 -0.868127 0
M  V30 11505 C 1102.76 1.84813 0.606182 0
M  V30 11506 O 1102.01 1.29901 1.4637 0
M  V30 11507 C 1102.31 3.29733 -1.3788 0
M  V30 11508 C 1101.98 3.48025 -2.86687 0
M  V30 11509 C 1100.64 3.52725 -3.2732 0
M  V30 11510 C 1102.99 3.54024 -3.82513 0
M  V30 11511 C 1100.32 3.60983 -4.62502 0
M  V30 11512 C 1102.67 3.63814 -5.17515 0
M  V30 11513 C 1101.34 3.66776 -5.57702 0
M  V30 11514 H 1100.61 0.669452 -0.31767 0
M  V30 11515 H 1103.25 1.31057 -1.3963 0
M  V30 11516 H 1101.56 3.8414 -0.77093 0
M  V30 11517 H 1103.26 3.83787 -1.16225 0
M  V30 11518 H 1099.85 3.45039 -2.54256 0
M  V30 11519 H 1104.03 3.4965 -3.52219 0
M  V30 11520 H 1099.29 3.61554 -4.9304 0
M  V30 11521 H 1103.46 3.674 -5.916 0
M  V30 11522 H 1101.09 3.72927 -6.62442 0
M  V30 11523 N 1102.66 0.908147 1.28804 0
M  V30 11524 C 1103.91 0.53734 1.94826 0
M  V30 11525 C 1104.23 -0.920962 1.71882 0
M  V30 11526 O 1103.5 -1.65043 1.05534 0
M  V30 11527 H 1102.08 0.195729 0.720902 0
M  V30 11528 H 1104.74 1.15628 1.56895 0
M  V30 11529 H 1103.84 0.727052 3.03513 0
M  V30 11530 N 1104.14 -1.42577 0.671525 0
M  V30 11531 C 1105.07 -2.33499 0.00506984 0
M  V30 11532 C 1106.05 -1.50497 -0.792763 0
M  V30 11533 O 1107.24 -1.79109 -0.750574 0
M  V30 11534 C 1104.37 -3.34077 -0.949194 0
M  V30 11535 C 1103.32 -4.27208 -0.260187 0
M  V30 11536 C 1102.65 -5.17968 -1.32716 0
M  V30 11537 C 1103.95 -5.15192 0.858772 0
M  V30 11538 H 1105.64 -2.89477 0.764407 0
M  V30 11539 H 1103.19 -1.39191 0.369043 0
M  V30 11540 H 1105.14 -3.96594 -1.42448 0
M  V30 11541 H 1103.86 -2.76396 -1.73991 0
M  V30 11542 H 1102.52 -3.66082 0.194834 0
M  V30 11543 H 1102.17 -4.56615 -2.10979 0
M  V30 11544 H 1101.87 -5.81104 -0.871293 0
M  V30 11545 H 1103.39 -5.83359 -1.80345 0
M  V30 11546 H 1104.81 -5.71412 0.464844 0
M  V30 11547 H 1103.21 -5.87144 1.24023 0
M  V30 11548 H 1104.28 -4.53787 1.70895 0
M  V30 11549 N 1105.62 -0.414636 -1.52048 0
M  V30 11550 C 1106.86 0.158807 -2.03782 0
M  V30 11551 C 1107.22 1.41912 -1.29325 0
M  V30 11552 O 1108.42 2.07136 -1.71313 0
M  V30 11553 C 1106.69 0.395092 -3.55209 0
M  V30 11554 S 1108.25 0.935193 -4.28719 0
M  V30 11555 H 1105.07 0.0424729 -0.70973 0
M  V30 11556 H 1107.67 -0.568822 -1.87042 0
M  V30 11557 H 1106.38 -0.528875 -4.06978 0
M  V30 11558 H 1105.91 1.15044 -3.76203 0
M  V30 11559 H 1107.92 2.21519 -4.44009 0
M  V30 11560 N 1107.1 1.56929 -0.145233 0
M  V30 11561 C 1108.05 2.13246 0.806846 0
M  V30 11562 C 1109.03 1.05984 1.21063 0
M  V30 11563 O 1110.22 1.32165 1.17734 0
M  V30 11564 C 1107.35 2.75622 2.04663 0
M  V30 11565 C 1106.44 3.90006 1.66603 0
M  V30 11566 N 1106.83 4.95946 0.993545 0
M  V30 11567 C 1105.13 4.0068 1.95886 0
M  V30 11568 C 1105.83 5.76032 0.810087 0
M  V30 11569 N 1104.8 5.26739 1.34339 0
M  V30 11570 H 1108.61 2.92527 0.283806 0
M  V30 11571 H 1106.12 1.62302 0.0563676 0
M  V30 11572 H 1108.12 3.14329 2.73867 0
M  V30 11573 H 1106.78 1.97815 2.57487 0
M  V30 11574 H 1107.79 5.13748 0.654508 0
M  V30 11575 H 1104.46 3.33946 2.50572 0
M  V30 11576 H 1105.85 6.71315 0.280209 0
M  V30 11577 N 1108.58 -0.128553 1.57075 0
M  V30 11578 C 1109.53 -1.16373 1.96065 0
M  V30 11579 C 1110.51 -1.37579 0.834323 0
M  V30 11580 O 1111.7 -1.38831 1.09795 0
M  V30 11581 C 1108.83 -2.49276 2.36043 0
M  V30 11582 C 1107.92 -2.31586 3.55287 0
M  V30 11583 N 1108.31 -1.83688 4.71267 0
M  V30 11584 C 1106.61 -2.62275 3.60732 0
M  V30 11585 C 1107.31 -1.79479 5.53319 0
M  V30 11586 N 1106.28 -2.23474 4.95541 0
M  V30 11587 H 1110.08 -0.785792 2.832 0
M  V30 11588 H 1107.6 -0.33641 1.58877 0
M  V30 11589 H 1109.6 -3.24134 2.62188 0
M  V30 11590 H 1108.26 -2.87837 1.50267 0
M  V30 11591 H 1109.27 -1.53376 4.94668 0
M  V30 11592 H 1105.94 -3.04586 2.85541 0
M  V30 11593 H 1107.33 -1.43781 6.56336 0
M  V30 11594 N 1110.05 -1.5248 -0.398459 0
M  V30 11595 C 1111.3 -1.66731 -1.14215 0
M  V30 11596 C 1111.62 -0.404957 -1.90749 0
M  V30 11597 O 1110.89 0.580434 -1.87104 0
M  V30 11598 H 1109.47 -0.614577 -0.424622 0
M  V30 11599 H 1112.13 -1.89561 -0.453059 0
M  V30 11600 H 1111.23 -2.51336 -1.85031 0
M  V30 11601 N 1111.53 0.65634 -1.43283 0
M  V30 11602 C 1112.48 1.79058 -1.48462 0
M  V30 11603 C 1113.47 1.65563 -0.358512 0
M  V30 11604 O 1114.68 1.71947 -0.532365 0
M  V30 11605 H 1111.05 0.590716 -0.465358 0
M  V30 11606 H 1113.03 1.7181 -2.43975 0
M  V30 11607 C 1111.77 3.17304 -1.42175 0
M  V30 11608 H 1111.1 3.28324 -2.2813 0
M  V30 11609 H 1112.54 3.96633 -1.4986 0
M  V30 11610 C 1111 3.36613 -0.138929 0
M  V30 11611 O 1111.53 3.93633 0.80101 0
M  V30 11612 N 1109.73 2.90557 -0.0501237 0
M  V30 11613 H 1109.28 2.4434 -0.815821 0
M  V30 11614 H 1109.24 3.03853 0.807504 0
M  V30 11615 N 1113.01 1.29761 0.894412 0
M  V30 11616 C 1114.24 1.20765 1.67629 0
M  V30 11617 C 1114.65 -0.233434 1.87754 0
M  V30 11618 O 1113.99 -1.16747 1.4183 0
M  V30 11619 C 1114.05 1.85542 3.07919 0
M  V30 11620 C 1113.72 3.34852 3.11004 0
M  V30 11621 C 1114.71 4.30994 2.90758 0
M  V30 11622 C 1112.4 3.76141 3.32901 0
M  V30 11623 C 1114.39 5.664 2.92352 0
M  V30 11624 C 1112.08 5.11667 3.34126 0
M  V30 11625 C 1113.08 6.06607 3.13874 0
M  V30 11626 O 1112.77 7.39659 3.14897 0
M  V30 11627 H 1112.5 0.419418 0.530155 0
M  V30 11628 H 1115.05 1.71754 1.12648 0
M  V30 11629 H 1113.28 1.29071 3.64524 0
M  V30 11630 H 1114.97 1.70795 3.68217 0
M  V30 11631 H 1115.74 4.00427 2.73648 0
M  V30 11632 H 1111.62 3.02694 3.47703 0
M  V30 11633 H 1115.16 6.40479 2.76464 0
M  V30 11634 H 1111.06 5.41877 3.50769 0
M  V30 11635 H 1111.82 7.4853 3.31127 0
M  V30 11636 N 1114.49 -1.10549 1.12324 0
M  V30 11637 C 1115.42 -2.18911 0.812416 0
M  V30 11638 C 1116.4 -1.68628 -0.22327 0
M  V30 11639 O 1117.58 -1.94015 -0.0847184 0
M  V30 11640 C 1114.71 -3.46288 0.264947 0
M  V30 11641 C 1113.67 -4.09838 1.23356 0
M  V30 11642 C 1112.99 -5.31901 0.546374 0
M  V30 11643 C 1114.29 -4.53686 2.58778 0
M  V30 11644 H 1115.99 -2.45169 1.71851 0
M  V30 11645 H 1113.53 -1.17834 0.827715 0
M  V30 11646 H 1115.49 -4.21385 0.0352364 0
M  V30 11647 H 1114.21 -3.19517 -0.676479 0
M  V30 11648 H 1112.87 -3.36746 1.44906 0
M  V30 11649 H 1112.52 -5.01406 -0.400157 0
M  V30 11650 H 1112.22 -5.75372 1.19249 0
M  V30 11651 H 1113.74 -6.09731 0.325673 0
M  V30 11652 H 1115.16 -5.20063 2.41263 0
M  V30 11653 H 1113.55 -5.08003 3.19457 0
M  V30 11654 H 1114.62 -3.66665 3.17309 0
M  V30 11655 N 1115.97 -0.914965 -1.28321 0
M  V30 11656 C 1117.21 -0.548749 -1.94923 0
M  V30 11657 C 1117.54 0.907776 -1.72016 0
M  V30 11658 O 1116.8 1.66097 -1.03491 0
M  V30 11659 C 1117.09 -0.805805 -3.48198 0
M  V30 11660 C 1116.76 -2.24207 -3.91206 0
M  V30 11661 C 1115.42 -2.63475 -4.02659 0
M  V30 11662 C 1117.77 -3.17667 -4.13204 0
M  V30 11663 C 1115.1 -3.95353 -4.3349 0
M  V30 11664 C 1117.45 -4.4911 -4.45514 0
M  V30 11665 C 1116.12 -4.8823 -4.55179 0
M  V30 11666 H 1115.39 -0.200801 -0.713274 0
M  V30 11667 H 1118.04 -1.15652 -1.52633 0
M  V30 11668 H 1116.34 -0.115244 -3.9163 0
M  V30 11669 H 1118.04 -0.501609 -3.9785 0
M  V30 11670 H 1114.63 -1.92737 -3.82819 0
M  V30 11671 H 1118.81 -2.88537 -4.03807 0
M  V30 11672 H 1114.07 -4.25362 -4.39178 0
M  V30 11673 H 1118.24 -5.21542 -4.61483 0
M  V30 11674 H 1115.87 -5.90451 -4.78823 0
M  V30 11675 N 1117.44 1.42219 -0.679077 0
M  V30 11676 C 1118.69 2.02291 -0.212115 0
M  V30 11677 C 1119.04 1.52755 1.16977 0
M  V30 11678 O 1118.34 0.721827 1.77483 0
M  V30 11679 C 1118.53 3.56889 -0.191027 0
M  V30 11680 C 1118.36 4.21429 -1.56933 0
M  V30 11681 C 1117.13 4.5642 -2.16814 0
M  V30 11682 C 1119.33 4.48733 -2.51283 0
M  V30 11683 N 1117.31 5.06162 -3.47381 0
M  V30 11684 C 1118.68 5.00072 -3.66508 0
M  V30 11685 C 1120.74 4.30726 -2.49758 0
M  V30 11686 C 1119.44 5.35296 -4.80469 0
M  V30 11687 C 1121.47 4.67029 -3.62819 0
M  V30 11688 C 1120.83 5.18524 -4.76773 0
M  V30 11689 H 1116.93 0.772324 -0.122637 0
M  V30 11690 H 1119.51 1.73014 -0.89299 0
M  V30 11691 H 1117.68 3.85675 0.459276 0
M  V30 11692 H 1119.41 4.03665 0.289217 0
M  V30 11693 H 1116.17 4.42321 -1.69261 0
M  V30 11694 H 1116.59 5.35457 -4.14264 0
M  V30 11695 H 1121.23 3.90166 -1.62882 0
M  V30 11696 H 1118.95 5.74788 -5.68018 0
M  V30 11697 H 1122.54 4.54769 -3.62872 0
M  V30 11698 H 1121.42 5.4609 -5.6281 0
M  V30 11699 N 1118.92 0.422693 1.51826 0
M  V30 11700 C 1120.15 -0.147744 2.06372 0
M  V30 11701 C 1120.56 -1.37714 1.29152 0
M  V30 11702 O 1119.92 -1.7917 0.347046 0
M  V30 11703 C 1119.97 -0.484642 3.58237 0
M  V30 11704 O 1119.69 0.695944 4.32537 0
M  V30 11705 C 1121.19 -1.10734 4.29247 0
M  V30 11706 H 1118.41 -0.0144047 0.670845 0
M  V30 11707 H 1120.96 0.597558 1.95575 0
M  V30 11708 H 1119.11 -1.17984 3.68997 0
M  V30 11709 H 1119.53 0.411471 5.22884 0
M  V30 11710 H 1121 -1.29318 5.36639 0
M  V30 11711 H 1121.48 -2.08429 3.86593 0
M  V30 11712 H 1122.08 -0.451958 4.22892 0
M  V30 11713 N 1120.4 -1.5685 0.153553 0
M  V30 11714 C 1121.31 -2.20664 -0.796528 0
M  V30 11715 C 1122.33 -1.19289 -1.26674 0
M  V30 11716 O 1123.5 -1.51889 -1.32256 0
M  V30 11717 C 1120.57 -2.82088 -2.01561 0
M  V30 11718 C 1119.63 -3.9861 -1.59401 0
M  V30 11719 C 1118.86 -4.57096 -2.75498 0
M  V30 11720 O 1119.08 -4.14462 -3.9189 0
M  V30 11721 O 1118.02 -5.47254 -2.50593 0
M  V30 11722 H 1121.84 -3.02376 -0.283282 0
M  V30 11723 H 1119.43 -1.49218 -0.0737927 0
M  V30 11724 H 1121.31 -3.21103 -2.72893 0
M  V30 11725 H 1119.99 -2.03385 -2.51826 0
M  V30 11726 H 1118.89 -3.64299 -0.850725 0
M  V30 11727 H 1120.23 -4.78853 -1.13845 0
M  V30 11728 N 1121.88 0.120221 -1.57141 0
M  V30 11729 C 1123.11 0.841219 -1.88698 0
M  V30 11730 C 1123.52 1.7401 -0.74277 0
M  V30 11731 O 1122.86 1.81308 0.295497 0
M  V30 11732 C 1122.92 1.72781 -3.15257 0
M  V30 11733 C 1122.58 1.00336 -4.45849 0
M  V30 11734 C 1123.58 0.344734 -5.18756 0
M  V30 11735 C 1121.27 0.984899 -4.9255 0
M  V30 11736 C 1123.26 -0.322664 -6.36583 0
M  V30 11737 C 1120.95 0.313702 -6.10294 0
M  V30 11738 C 1121.95 -0.338926 -6.82159 0
M  V30 11739 O 1121.63 -0.999416 -7.97663 0
M  V30 11740 H 1121.37 0.247195 -0.629182 0
M  V30 11741 H 1123.92 0.109542 -2.05108 0
M  V30 11742 H 1122.15 2.5011 -2.94927 0
M  V30 11743 H 1123.84 2.32313 -3.32845 0
M  V30 11744 H 1124.6 0.350623 -4.83731 0
M  V30 11745 H 1120.48 1.4823 -4.36519 0
M  V30 11746 H 1124.03 -0.832643 -6.92613 0
M  V30 11747 H 1119.92 0.305572 -6.44776 0
M  V30 11748 H 1120.69 -0.90377 -8.13495 0
M  V30 11749 N 1123.36 1.52689 0.390367 0
M  V30 11750 C 1124.77 1.41909 0.730338 0
M  V30 11751 C 1124.97 0.538427 1.94173 0
M  V30 11752 O 1124.03 0.0113527 2.52497 0
M  V30 11753 C 1125.34 2.84737 0.966714 0
M  V30 11754 C 1126.89 2.94206 1.06827 0
M  V30 11755 C 1127.36 4.38042 1.33728 0
M  V30 11756 N 1128.86 4.4136 1.40553 0
M  V30 11757 C 1129.59 5.49735 1.63031 0
M  V30 11758 N 1129.09 6.68197 1.82988 0
M  V30 11759 N 1130.88 5.37276 1.65199 0
M  V30 11760 H 1123.03 2.08469 -0.406766 0
M  V30 11761 H 1125.29 0.940401 -0.11979 0
M  V30 11762 H 1125 3.51385 0.148725 0
M  V30 11763 H 1124.87 3.26909 1.88176 0
M  V30 11764 H 1127.26 2.27726 1.87683 0
M  V30 11765 H 1127.34 2.55463 0.131168 0
M  V30 11766 H 1126.99 5.05087 0.533832 0
M  V30 11767 H 1126.92 4.74336 2.28721 0
M  V30 11768 H 1129.41 3.55976 1.26844 0
M  V30 11769 H 1129.72 7.46567 1.99643 0
M  V30 11770 H 1128.06 6.71228 1.80215 0
M  V30 11771 H 1131.26 4.437 1.49158 0
M  V30 11772 H 1131.43 6.21806 1.82377 0
M  V30 11773 N 1124.83 -0.648732 1.43629 0
M  V30 11774 C 1126.06 -1.44117 1.49148 0
M  V30 11775 C 1126.48 -1.87767 0.111952 0
M  V30 11776 O 1125.84 -1.57655 -0.895249 0
M  V30 11777 C 1125.89 -2.64938 2.44623 0
M  V30 11778 O 1124.99 -3.64155 1.93559 0
M  V30 11779 H 1124.34 -0.431933 0.504312 0
M  V30 11780 H 1126.87 -0.793439 1.88589 0
M  V30 11781 H 1126.88 -3.12698 2.62076 0
M  V30 11782 H 1125.55 -2.3251 3.44836 0
M  V30 11783 H 1124.13 -3.23322 1.85789 0
M  V30 11784 N 1126.31 -1.30234 -0.887518 0
M  V30 11785 C 1127.56 -1.18675 -1.63587 0
M  V30 11786 C 1127.88 0.259342 -1.93268 0
M  V30 11787 O 1127.15 1.17523 -1.56733 0
M  V30 11788 H 1125.73 -0.436224 -0.606397 0
M  V30 11789 H 1128.39 -1.63326 -1.06351 0
M  V30 11790 H 1127.49 -1.74575 -2.58708 0
M  V30 11791 N 1127.79 1.09952 -1.12909 0
M  V30 11792 C 1129.02 1.8633 -0.910821 0
M  V30 11793 C 1129.44 1.80335 0.534874 0
M  V30 11794 O 1128.8 1.1769 1.37908 0
M  V30 11795 C 1128.85 3.32462 -1.39648 0
M  V30 11796 O 1127.95 4.08327 -0.578192 0
M  V30 11797 H 1127.29 0.577984 -0.32685 0
M  V30 11798 H 1129.82 1.38883 -1.50242 0
M  V30 11799 H 1129.83 3.83311 -1.39774 0
M  V30 11800 H 1128.51 3.36141 -2.44913 0
M  V30 11801 H 1127.08 3.67291 -0.644347 0
M  V30 11802 N 1129.27 0.921757 1.27833 0
M  V30 11803 C 1130.51 0.559906 1.94918 0
M  V30 11804 C 1130.85 -0.895532 1.72319 0
M  V30 11805 O 1130.12 -1.638 1.04879 0
M  V30 11806 C 1130.41 0.879458 3.49196 0
M  V30 11807 C 1130.26 2.38821 3.81162 0
M  V30 11808 C 1131.58 0.381183 4.38446 0
M  V30 11809 H 1128.7 0.204893 0.707946 0
M  V30 11810 H 1131.34 1.15246 1.51058 0
M  V30 11811 H 1129.49 0.375177 3.86684 0
M  V30 11812 H 1131.16 2.96373 3.53498 0
M  V30 11813 H 1129.4 2.83988 3.27923 0
M  V30 11814 H 1130.07 2.56234 4.88926 0
M  V30 11815 H 1132.55 0.813289 4.08075 0
M  V30 11816 H 1131.43 0.633778 5.45229 0
M  V30 11817 H 1131.69 -0.718651 4.3622 0
M  V30 11818 N 1130.75 -1.41857 0.686609 0
M  V30 11819 C 1131.98 -2.05401 0.222238 0
M  V30 11820 C 1132.38 -1.51731 -1.13023 0
M  V30 11821 O 1131.73 -0.656701 -1.71561 0
M  V30 11822 C 1131.79 -3.59381 0.0926608 0
M  V30 11823 C 1131.45 -4.35801 1.37573 0
M  V30 11824 C 1132.45 -4.65678 2.31171 0
M  V30 11825 C 1130.14 -4.75233 1.62661 0
M  V30 11826 C 1132.13 -5.33936 3.48125 0
M  V30 11827 C 1129.82 -5.43229 2.79902 0
M  V30 11828 C 1130.81 -5.72507 3.72458 0
M  V30 11829 O 1130.5 -6.39106 4.87646 0
M  V30 11830 H 1130.23 -0.668126 0.102876 0
M  V30 11831 H 1132.79 -1.82775 0.93714 0
M  V30 11832 H 1131.02 -3.80711 -0.67793 0
M  V30 11833 H 1132.71 -4.04529 -0.333364 0
M  V30 11834 H 1133.47 -4.35704 2.13042 0
M  V30 11835 H 1129.35 -4.51831 0.914862 0
M  V30 11836 H 1132.9 -5.56706 4.20386 0
M  V30 11837 H 1128.79 -5.72621 2.97951 0
M  V30 11838 H 1129.56 -6.576 4.87344 0
M  V30 11839 N 1132.22 -0.430739 -1.51599 0
M  V30 11840 C 1133.64 -0.0826902 -1.59386 0
M  V30 11841 C 1133.84 1.40729 -1.44214 0
M  V30 11842 O 1132.9 2.1765 -1.28002 0
M  V30 11843 C 1134.21 -0.59691 -2.94716 0
M  V30 11844 C 1135.76 -0.556772 -3.08008 0
M  V30 11845 C 1136.23 -1.04786 -4.45852 0
M  V30 11846 N 1137.72 -1.00557 -4.52153 0
M  V30 11847 C 1138.46 -1.35649 -5.57124 0
M  V30 11848 N 1137.95 -1.77994 -6.69545 0
M  V30 11849 N 1139.75 -1.27508 -5.47447 0
M  V30 11850 H 1131.9 -1.40027 -1.59707 0
M  V30 11851 H 1134.16 -0.576606 -0.752482 0
M  V30 11852 H 1133.87 -1.63914 -3.11167 0
M  V30 11853 H 1133.74 -0.0182342 -3.77196 0
M  V30 11854 H 1136.13 0.476457 -2.91228 0
M  V30 11855 H 1136.21 -1.17177 -2.27383 0
M  V30 11856 H 1135.85 -2.07952 -4.63377 0
M  V30 11857 H 1135.78 -0.409461 -5.25006 0
M  V30 11858 H 1138.27 -0.694518 -3.71463 0
M  V30 11859 H 1138.59 -2.03026 -7.45654 0
M  V30 11860 H 1136.93 -1.81916 -6.70769 0
M  V30 11861 H 1140.12 -0.942969 -4.58504 0
M  V30 11862 H 1140.3 -1.55185 -6.29143 0
M  V30 11863 N 1133.7 1.56767 -0.161869 0
M  V30 11864 C 1134.63 2.20511 0.767918 0
M  V30 11865 C 1135.61 1.15783 1.24612 0
M  V30 11866 O 1136.8 1.44179 1.301 0
M  V30 11867 C 1133.93 2.83844 2.00125 0
M  V30 11868 C 1132.88 3.94528 1.65926 0
M  V30 11869 C 1132.21 4.44866 2.96646 0
M  V30 11870 C 1133.51 5.14583 0.894497 0
M  V30 11871 H 1135.2 2.98464 0.236607 0
M  V30 11872 H 1132.75 1.43561 0.112363 0
M  V30 11873 H 1134.7 3.27109 2.65664 0
M  V30 11874 H 1133.43 2.03246 2.55654 0
M  V30 11875 H 1132.08 3.51904 1.02759 0
M  V30 11876 H 1131.73 3.61071 3.50196 0
M  V30 11877 H 1131.43 5.19531 2.74521 0
M  V30 11878 H 1132.96 4.90812 3.6323 0
M  V30 11879 H 1134.37 5.54601 1.45228 0
M  V30 11880 H 1132.77 5.95105 0.772636 0
M  V30 11881 H 1133.84 4.84773 -0.110986 0
M  V30 11882 N 1135.18 -0.111886 1.57202 0
M  V30 11883 C 1136.09 -1.1556 2.04165 0
M  V30 11884 C 1137.11 -1.44898 0.963354 0
M  V30 11885 O 1138.28 -1.55873 1.27536 0
M  V30 11886 C 1135.35 -2.46048 2.44256 0
M  V30 11887 C 1134.41 -2.24043 3.66201 0
M  V30 11888 C 1133.64 -3.4831 4.04371 0
M  V30 11889 O 1133.86 -4.55895 3.42806 0
M  V30 11890 O 1132.8 -3.38891 4.9743 0
M  V30 11891 H 1136.62 -0.786778 2.93332 0
M  V30 11892 H 1134.21 -0.323196 1.45862 0
M  V30 11893 H 1136.09 -3.22916 2.70745 0
M  V30 11894 H 1134.77 -2.8239 1.58233 0
M  V30 11895 H 1133.67 -1.4501 3.44852 0
M  V30 11896 H 1135.01 -1.92602 4.52952 0
M  V30 11897 N 1136.66 -1.52894 -0.382264 0
M  V30 11898 C 1138.07 -1.42295 -0.722802 0
M  V30 11899 C 1138.27 -0.548717 -1.93885 0
M  V30 11900 O 1137.33 -0.0247431 -2.52488 0
M  V30 11901 C 1138.64 -2.85246 -0.9516 0
M  V30 11902 C 1140.19 -2.94768 -1.05265 0
M  V30 11903 C 1140.67 -4.38745 -1.31404 0
M  V30 11904 N 1142.16 -4.421 -1.38211 0
M  V30 11905 C 1142.89 -5.50592 -1.60113 0
M  V30 11906 N 1142.39 -6.69158 -1.79442 0
M  V30 11907 N 1144.18 -5.38145 -1.62347 0
M  V30 11908 H 1136.33 -2.0825 0.417816 0
M  V30 11909 H 1138.6 -0.939753 0.124776 0
M  V30 11910 H 1138.3 -3.51459 -0.130088 0
M  V30 11911 H 1138.18 -3.27903 -1.86439 0
M  V30 11912 H 1140.56 -2.28718 -1.86472 0
M  V30 11913 H 1140.64 -2.55529 -0.117619 0
M  V30 11914 H 1140.29 -5.05363 -0.507038 0
M  V30 11915 H 1140.22 -4.75542 -2.26202 0
M  V30 11916 H 1142.71 -3.56644 -1.24954 0
M  V30 11917 H 1143.02 -7.47615 -1.95681 0
M  V30 11918 H 1141.37 -6.72175 -1.76653 0
M  V30 11919 H 1144.56 -4.44485 -1.46803 0
M  V30 11920 H 1144.73 -6.22764 -1.79077 0
M  V30 11921 N 1138.14 0.641106 -1.43971 0
M  V30 11922 C 1139.39 1.39807 -1.4594 0
M  V30 11923 C 1139.71 1.94795 -0.0893874 0
M  V30 11924 O 1138.98 1.75175 0.876962 0
M  V30 11925 H 1137.56 0.518908 -0.537349 0
M  V30 11926 H 1140.22 0.755278 -1.79671 0
M  V30 11927 H 1139.31 2.23439 -2.17903 0
M  V30 11928 N 1139.62 1.30703 0.880598 0
M  V30 11929 C 1140.86 1.19955 1.63519 0
M  V30 11930 C 1141.19 -0.244214 1.92658 0
M  V30 11931 O 1140.47 -1.17412 1.55063 0
M  V30 11932 C 1140.75 2.03302 2.97221 0
M  V30 11933 C 1140.61 3.55921 2.75028 0
M  V30 11934 C 1141.92 1.87421 3.98198 0
M  V30 11935 H 1139.04 0.43712 0.593376 0
M  V30 11936 H 1141.69 1.60382 1.01871 0
M  V30 11937 H 1139.84 1.68953 3.49839 0
M  V30 11938 H 1141.51 4.00352 2.29164 0
M  V30 11939 H 1139.75 3.79885 2.09452 0
M  V30 11940 H 1140.42 4.09533 3.70117 0
M  V30 11941 H 1142.9 2.17459 3.54755 0
M  V30 11942 H 1141.77 2.48057 4.89652 0
M  V30 11943 H 1142.03 0.834563 4.34151 0
M  V30 11944 N 1141.09 -1.09351 1.1349 0
M  V30 11945 C 1142.34 -1.81185 0.89535 0
M  V30 11946 C 1142.66 -1.86173 -0.580048 0
M  V30 11947 O 1141.93 -1.34784 -1.42162 0
M  V30 11948 H 1140.51 -0.671011 0.328257 0
M  V30 11949 H 1143.17 -1.32255 1.43159 0
M  V30 11950 H 1142.27 -2.84339 1.28676 0
M  V30 11951 N 1142.57 -0.928524 -1.27343 0
M  V30 11952 C 1143.82 -0.568267 -1.93946 0
M  V30 11953 C 1144.14 0.893501 -1.73325 0
M  V30 11954 O 1143.41 1.63344 -1.08147 0
M  V30 11955 H 1141.99 -0.207173 -0.717696 0
M  V30 11956 H 1144.65 -1.1811 -1.55036 0
M  V30 11957 H 1143.75 -0.775246 -3.02318 0
M  V30 11958 N 1144.05 1.41491 -0.694123 0
M  V30 11959 C 1145.01 2.2917 -0.0368562 0
M  V30 11960 C 1146.01 1.44305 0.709426 0
M  V30 11961 O 1147.2 1.6547 0.544533 0
M  V30 11962 C 1144.33 3.27156 0.958201 0
M  V30 11963 H 1145.53 2.88787 -0.808829 0
M  V30 11964 H 1143.08 1.49453 -0.457538 0
M  V30 11965 H 1143.82 2.72516 1.75799 0
M  V30 11966 H 1143.6 3.89776 0.426227 0
M  V30 11967 H 1145.09 3.92863 1.41592 0
M  V30 11968 N 1145.53 0.438773 1.51369 0
M  V30 11969 C 1146.94 -0.0240139 1.86685 0
M  V30 11970 C 1147.29 -1.41816 1.35583 0
M  V30 11971 O 1146.41 -2.04517 0.707232 0
M  V30 11972 C 1147.01 -0.0503527 3.38763 0
M  V30 11973 C 1145.57 -0.457556 3.73609 0
M  V30 11974 C 1144.72 0.348852 2.75097 0
M  V30 11975 H 1147.67 0.654552 1.44573 0
M  V30 11976 H 1147.69 -0.859534 3.70665 0
M  V30 11977 H 1147.2 0.964451 3.75925 0
M  V30 11978 H 1145.3 -1.47791 3.42036 0
M  V30 11979 H 1145.41 -0.181357 4.78757 0
M  V30 11980 H 1143.78 -0.193037 2.53967 0
M  V30 11981 H 1144.56 1.36256 3.15102 0
M  V30 11982 N 1147.01 -1.56678 0.170181 0
M  V30 11983 C 1148.42 -1.83452 -0.346742 0
M  V30 11984 C 1148.77 -1.08993 -1.63141 0
M  V30 11985 O 1147.89 -0.342607 -2.13671 0
M  V30 11986 C 1148.49 -3.32779 -0.635882 0
M  V30 11987 C 1147.05 -3.60052 -1.09725 0
M  V30 11988 C 1146.19 -2.76983 -0.132516 0
M  V30 11989 H 1149.14 -1.53719 0.394465 0
M  V30 11990 H 1149.17 -3.50195 -1.48806 0
M  V30 11991 H 1148.68 -3.86944 0.299291 0
M  V30 11992 H 1146.78 -3.11297 -2.04756 0
M  V30 11993 H 1146.89 -4.68393 -1.00719 0
M  V30 11994 H 1145.26 -2.46794 -0.62966 0
M  V30 11995 H 1146.04 -3.33929 0.796658 0
M  V30 11996 N 1148.48 0.103547 -1.57259 0
M  V30 11997 C 1149.71 0.82235 -1.89855 0
M  V30 11998 C 1150.13 1.72694 -0.76303 0
M  V30 11999 O 1149.48 1.8056 0.265421 0
M  V30 12000 C 1149.53 1.64282 -3.22015 0
M  V30 12001 O 1149.26 0.774628 -4.31197 0
M  V30 12002 C 1150.76 2.46543 -3.68418 0
M  V30 12003 H 1147.98 0.235591 -0.628282 0
M  V30 12004 H 1150.52 0.0833106 -2.0433 0
M  V30 12005 H 1148.68 2.33446 -3.09163 0
M  V30 12006 H 1149.09 1.34205 -5.0704 0
M  V30 12007 H 1150.56 2.99618 -4.63609 0
M  V30 12008 H 1151.04 3.24618 -2.95838 0
M  V30 12009 H 1151.65 1.82594 -3.84109 0
M  V30 12010 N 1149.96 1.53094 0.37415 0
M  V30 12011 C 1151.21 1.69111 1.11934 0
M  V30 12012 C 1151.54 0.437252 1.89213 0
M  V30 12013 O 1150.82 -0.565298 1.86104 0
M  V30 12014 C 1151.1 2.93559 2.08554 0
M  V30 12015 C 1150.95 4.29082 1.3494 0
M  V30 12016 C 1152.27 3.13586 3.08791 0
M  V30 12017 H 1149.39 0.615383 0.405553 0
M  V30 12018 H 1152.03 1.85719 0.401078 0
M  V30 12019 H 1150.18 2.79531 2.69805 0
M  V30 12020 H 1151.85 4.54906 0.765402 0
M  V30 12021 H 1150.1 4.28884 0.651238 0
M  V30 12022 H 1150.77 5.12275 2.05616 0
M  V30 12023 H 1153.24 3.26743 2.57639 0
M  V30 12024 H 1152.12 4.02112 3.73627 0
M  V30 12025 H 1152.38 2.28475 3.78486 0
M  V30 12026 N 1151.44 -0.633461 1.44309 0
M  V30 12027 C 1152.67 -1.42033 1.50447 0
M  V30 12028 C 1153.08 -1.88362 0.128585 0
M  V30 12029 O 1152.44 -1.60695 -0.865071 0
M  V30 12030 C 1152.49 -2.6422 2.46719 0
M  V30 12031 O 1152.21 -2.19823 3.78958 0
M  V30 12032 C 1153.71 -3.57372 2.62298 0
M  V30 12033 H 1150.93 -0.435667 0.510329 0
M  V30 12034 H 1153.48 -0.774907 1.8925 0
M  V30 12035 H 1151.63 -3.24859 2.11058 0
M  V30 12036 H 1152.05 -2.99022 4.30913 0
M  V30 12037 H 1153.52 -4.39719 3.33693 0
M  V30 12038 H 1154 -4.06026 1.67449 0
M  V30 12039 H 1154.6 -3.02603 2.9885 0
M  V30 12040 N 1152.92 -1.31168 -0.873655 0
M  V30 12041 C 1153.85 -1.21094 -1.99646 0
M  V30 12042 C 1154.83 -0.0989684 -1.69812 0
M  V30 12043 O 1156.01 -0.282939 -1.92128 0
M  V30 12044 C 1153.14 -0.913684 -3.35066 0
M  V30 12045 C 1152.1 -1.98482 -3.79195 0
M  V30 12046 C 1151.42 -1.54033 -5.12033 0
M  V30 12047 C 1152.72 -3.39745 -3.96699 0
M  V30 12048 H 1154.42 -2.1503 -2.08333 0
M  V30 12049 H 1151.96 -1.03521 -1.00097 0
M  V30 12050 H 1153.92 -0.829821 -4.13149 0
M  V30 12051 H 1152.64 0.0613471 -3.26542 0
M  V30 12052 H 1151.3 -2.05851 -3.03349 0
M  V30 12053 H 1150.95 -0.553261 -4.99948 0
M  V30 12054 H 1150.65 -2.25688 -5.4253 0
M  V30 12055 H 1152.17 -1.47047 -5.92629 0
M  V30 12056 H 1153.59 -3.35071 -4.65188 0
M  V30 12057 H 1151.98 -4.09585 -4.38589 0
M  V30 12058 H 1153.05 -3.80802 -3.00196 0
M  V30 12059 N 1154.4 1.08748 -1.14068 0
M  V30 12060 C 1155.33 2.17591 -0.84714 0
M  V30 12061 C 1156.31 1.68962 0.196415 0
M  V30 12062 O 1157.49 1.94125 0.0538415 0
M  V30 12063 C 1154.62 3.45823 -0.320005 0
M  V30 12064 C 1153.58 4.07824 -1.2986 0
M  V30 12065 C 1152.9 5.30965 -0.630925 0
M  V30 12066 C 1154.2 4.49512 -2.65963 0
M  V30 12067 H 1155.9 2.42404 -1.75729 0
M  V30 12068 H 1153.44 1.16502 -0.846356 0
M  V30 12069 H 1155.4 4.21276 -0.102271 0
M  V30 12070 H 1154.12 3.20553 0.625561 0
M  V30 12071 H 1152.78 3.34398 -1.50245 0
M  V30 12072 H 1152.43 5.01979 0.320337 0
M  V30 12073 H 1152.13 5.73402 -1.28388 0
M  V30 12074 H 1153.65 6.09136 -0.422635 0
M  V30 12075 H 1155.06 5.16159 -2.49506 0
M  V30 12076 H 1153.46 5.02857 -3.27498 0
M  V30 12077 H 1154.53 3.6157 -3.23102 0
M  V30 12078 N 1155.87 0.935264 1.26849 0
M  V30 12079 C 1157.29 0.636661 1.46352 0
M  V30 12080 C 1157.49 -0.811823 1.84423 0
M  V30 12081 O 1156.55 -1.58902 1.9623 0
M  V30 12082 C 1157.86 1.59301 2.55036 0
M  V30 12083 C 1159.41 1.60207 2.68892 0
M  V30 12084 C 1159.88 2.54558 3.80742 0
M  V30 12085 N 1161.37 2.52809 3.88126 0
M  V30 12086 C 1162.11 3.225 4.74111 0
M  V30 12087 N 1161.6 4.01598 5.64527 0
M  V30 12088 N 1163.4 3.11481 4.67906 0
M  V30 12089 H 1155.55 1.8716 1.00423 0
M  V30 12090 H 1157.81 0.803968 0.502334 0
M  V30 12091 H 1157.52 2.62671 2.33874 0
M  V30 12092 H 1157.39 1.34052 3.52576 0
M  V30 12093 H 1159.78 0.575649 2.89431 0
M  V30 12094 H 1159.86 1.89508 1.71815 0
M  V30 12095 H 1159.5 3.57314 3.60956 0
M  V30 12096 H 1159.43 2.22549 4.77263 0
M  V30 12097 H 1161.92 1.9537 3.2348 0
M  V30 12098 H 1162.24 4.51742 6.27016 0
M  V30 12099 H 1160.58 4.057 5.64298 0
M  V30 12100 H 1163.77 2.49175 3.9627 0
M  V30 12101 H 1163.95 3.66064 5.34697 0
M  V30 12102 N 1157.35 -1.41121 0.701616 0
M  V30 12103 C 1158.58 -2.05973 0.242896 0
M  V30 12104 C 1159 -1.52474 -1.10151 0
M  V30 12105 O 1158.36 -0.654224 -1.69085 0
M  V30 12106 C 1158.41 -3.59943 0.217614 0
M  V30 12107 O 1157.51 -4.04454 -0.805629 0
M  V30 12108 H 1156.85 -0.653581 0.117166 0
M  V30 12109 H 1159.38 -1.80777 0.958175 0
M  V30 12110 H 1159.39 -4.07969 0.0505267 0
M  V30 12111 H 1158.07 -3.98249 1.19877 0
M  V30 12112 H 1156.65 -3.6792 -0.607404 0
M  V30 12113 N 1158.83 -0.446794 -1.51134 0
M  V30 12114 C 1159.74 0.36579 -2.31731 0
M  V30 12115 C 1160.76 1.01886 -1.41051 0
M  V30 12116 O 1161.93 1.01216 -1.74119 0
M  V30 12117 C 1159 1.44705 -3.15058 0
M  V30 12118 C 1158.06 0.813129 -4.21529 0
M  V30 12119 C 1157.29 1.84287 -5.00873 0
M  V30 12120 O 1157.51 3.06633 -4.8097 0
M  V30 12121 O 1156.45 1.42816 -5.84711 0
M  V30 12122 H 1160.27 -0.292436 -3.02289 0
M  V30 12123 H 1157.86 -0.209129 -1.47929 0
M  V30 12124 H 1159.74 2.07393 -3.66833 0
M  V30 12125 H 1158.42 2.08919 -2.47254 0
M  V30 12126 H 1157.32 0.147953 -3.73807 0
M  V30 12127 H 1158.66 0.214331 -4.91733 0
M  V30 12128 N 1160.31 1.56586 -0.178487 0
M  V30 12129 C 1161.72 1.58609 0.17759 0
M  V30 12130 C 1161.92 1.19411 1.62306 0
M  V30 12131 O 1160.98 0.90906 2.35568 0
M  V30 12132 C 1162.29 3.005 -0.109722 0
M  V30 12133 C 1163.84 3.12962 -0.0485036 0
M  V30 12134 C 1164.32 4.56957 -0.308901 0
M  V30 12135 N 1165.81 4.62487 -0.25693 0
M  V30 12136 C 1166.54 5.71767 -0.432488 0
M  V30 12137 N 1166.04 6.89577 -0.667494 0
M  V30 12138 N 1167.83 5.60895 -0.367895 0
M  V30 12139 H 1159.98 1.80351 -1.12193 0
M  V30 12140 H 1162.25 0.83623 -0.446569 0
M  V30 12141 H 1161.95 3.3368 -1.11133 0
M  V30 12142 H 1161.83 3.72472 0.595373 0
M  V30 12143 H 1164.21 2.79604 0.943687 0
M  V30 12144 H 1164.29 2.43411 -0.78642 0
M  V30 12145 H 1163.94 4.91025 -1.29833 0
M  V30 12146 H 1163.87 5.24676 0.449711 0
M  V30 12147 H 1166.36 3.77813 -0.0812308 0
M  V30 12148 H 1166.67 7.68744 -0.79071 0
M  V30 12149 H 1165.02 6.91423 -0.704193 0
M  V30 12150 H 1168.21 4.67735 -0.184837 0
M  V30 12151 H 1168.38 6.46005 -0.508138 0
M  V30 12152 N 1161.79 -0.095206 1.57312 0
M  V30 12153 C 1163.2 -0.649733 1.7503 0
M  V30 12154 C 1163.55 -1.7912 0.800652 0
M  V30 12155 O 1162.67 -2.1639 -0.0208831 0
M  V30 12156 C 1163.27 -1.18541 3.17386 0
M  V30 12157 C 1161.83 -1.686 3.36528 0
M  V30 12158 C 1160.97 -0.595531 2.7083 0
M  V30 12159 H 1163.93 0.130863 1.5816 0
M  V30 12160 H 1163.95 -2.05473 3.20252 0
M  V30 12161 H 1163.46 -0.35441 3.86478 0
M  V30 12162 H 1161.56 -2.541 2.72514 0
M  V30 12163 H 1161.67 -1.77907 4.44844 0
M  V30 12164 H 1160.04 -1.03495 2.32725 0
M  V30 12165 H 1160.82 0.224883 3.42563 0
M  V30 12166 N 1163.26 -1.53291 -0.366026 0
M  V30 12167 C 1164.68 -1.61144 -0.942849 0
M  V30 12168 C 1165.03 -0.478571 -1.90274 0
M  V30 12169 O 1164.15 0.395069 -2.12763 0
M  V30 12170 C 1164.75 -2.92081 -1.71681 0
M  V30 12171 C 1163.31 -3.0227 -2.24298 0
M  V30 12172 C 1162.45 -2.56436 -1.05526 0
M  V30 12173 H 1165.4 -1.58038 -0.144835 0
M  V30 12174 H 1165.42 -2.79858 -2.57798 0
M  V30 12175 H 1164.94 -3.74513 -1.01793 0
M  V30 12176 H 1163.04 -2.24425 -2.97429 0
M  V30 12177 H 1163.15 -4.07341 -2.5221 0
M  V30 12178 H 1161.51 -2.11301 -1.42211 0
M  V30 12179 H 1162.3 -3.41285 -0.371376 0
M  V30 12180 N 1164.74 0.6258 -1.44643 0
M  V30 12181 C 1165.99 1.38125 -1.46984 0
M  V30 12182 C 1166.3 1.95299 -0.108429 0
M  V30 12183 O 1167.51 2.71498 -0.00940005 0
M  V30 12184 C 1165.97 2.50108 -2.58793 0
M  V30 12185 C 1165.57 1.99424 -4.01166 0
M  V30 12186 C 1167.32 3.27269 -2.70361 0
M  V30 12187 C 1165.23 3.08781 -5.04389 0
M  V30 12188 H 1164.16 0.519083 -0.546872 0
M  V30 12189 H 1166.81 0.67268 -1.70726 0
M  V30 12190 H 1165.19 3.23565 -2.28302 0
M  V30 12191 H 1166.36 1.32797 -4.4125 0
M  V30 12192 H 1164.68 1.35063 -3.93887 0
M  V30 12193 H 1167.27 4.08802 -3.44652 0
M  V30 12194 H 1167.62 3.77097 -1.76362 0
M  V30 12195 H 1168.15 2.60905 -3.00289 0
M  V30 12196 H 1164.89 2.63891 -6.00035 0
M  V30 12197 H 1164.41 3.74033 -4.68892 0
M  V30 12198 H 1166.09 3.73469 -5.28328 0
M  V30 12199 N 1166.22 1.31629 0.866686 0
M  V30 12200 C 1167.47 1.21503 1.61998 0
M  V30 12201 C 1167.8 -0.226044 1.93182 0
M  V30 12202 O 1167.05 -1.17573 1.56445 0
M  V30 12203 C 1167.35 2.00775 2.95676 0
M  V30 12204 C 1167.02 3.50245 2.83971 0
M  V30 12205 C 1165.68 3.91 2.80485 0
M  V30 12206 C 1168.03 4.45347 2.70769 0
M  V30 12207 C 1165.36 5.25119 2.61661 0
M  V30 12208 C 1167.71 5.79595 2.53481 0
M  V30 12209 C 1166.37 6.19567 2.48381 0
M  V30 12210 H 1165.64 0.44461 0.592792 0
M  V30 12211 H 1168.29 1.62929 1.00629 0
M  V30 12212 H 1166.6 1.52039 3.61097 0
M  V30 12213 H 1168.29 1.90318 3.52959 0
M  V30 12214 H 1164.88 3.17869 2.87502 0
M  V30 12215 H 1169.07 4.14789 2.72514 0
M  V30 12216 H 1164.32 5.5516 2.5614 0
M  V30 12217 H 1168.5 6.5291 2.42243 0
M  V30 12218 H 1166.12 7.23434 2.33554 0
M  V30 12219 N 1167.7 -1.08142 1.14644 0
M  V30 12220 C 1168.61 -2.18675 0.849607 0
M  V30 12221 C 1169.63 -1.73158 -0.170983 0
M  V30 12222 O 1170.8 -2.014 0.0011579 0
M  V30 12223 C 1167.87 -3.45084 0.334305 0
M  V30 12224 C 1166.93 -4.05213 1.41779 0
M  V30 12225 C 1166.16 -5.25588 0.926981 0
M  V30 12226 O 1166.38 -5.69934 -0.230522 0
M  V30 12227 O 1165.32 -5.77183 1.70715 0
M  V30 12228 H 1169.14 -2.46542 1.77343 0
M  V30 12229 H 1166.73 -1.17328 0.924911 0
M  V30 12230 H 1168.61 -4.21367 0.0529893 0
M  V30 12231 H 1167.29 -3.18788 -0.561755 0
M  V30 12232 H 1166.19 -3.30507 1.7526 0
M  V30 12233 H 1167.53 -4.35764 2.28847 0
M  V30 12234 N 1169.18 -0.941978 -1.26351 0
M  V30 12235 C 1170.43 -0.585711 -1.93009 0
M  V30 12236 C 1170.74 0.879507 -1.74711 0
M  V30 12237 O 1171.95 1.34518 -2.35833 0
M  V30 12238 C 1170.4 -0.996787 -3.45821 0
M  V30 12239 C 1170.01 -2.48367 -3.72851 0
M  V30 12240 C 1171.75 -0.712452 -4.18479 0
M  V30 12241 C 1169.66 -2.83341 -5.19107 0
M  V30 12242 H 1168.59 -0.215342 -0.722595 0
M  V30 12243 H 1171.24 -1.14472 -1.43417 0
M  V30 12244 H 1169.62 -0.366295 -3.94302 0
M  V30 12245 H 1170.8 -3.16328 -3.35072 0
M  V30 12246 H 1169.11 -2.74139 -3.13427 0
M  V30 12247 H 1171.71 -0.95007 -5.26192 0
M  V30 12248 H 1172.05 0.350811 -4.14819 0
M  V30 12249 H 1172.59 -1.3027 -3.75865 0
M  V30 12250 H 1169.32 -3.88633 -5.27868 0
M  V30 12251 H 1168.84 -2.20043 -5.5798 0
M  V30 12252 H 1170.52 -2.71849 -5.87118 0
M  V30 12253 N 1170.66 1.40747 -0.709091 0
M  V30 12254 C 1172.07 1.54961 -0.381989 0
M  V30 12255 C 1172.27 1.68181 1.10985 0
M  V30 12256 O 1171.33 1.66776 1.89584 0
M  V30 12257 C 1172.64 2.78156 -1.14236 0
M  V30 12258 C 1174.19 2.91967 -1.12803 0
M  V30 12259 C 1174.66 4.18066 -1.87042 0
M  V30 12260 N 1176.15 4.25052 -1.84078 0
M  V30 12261 C 1176.89 5.21514 -2.38349 0
M  V30 12262 N 1176.39 6.23924 -3.01149 0
M  V30 12263 N 1178.18 5.13548 -2.28528 0
M  V30 12264 H 1170.33 1.30412 -1.6765 0
M  V30 12265 H 1172.59 0.630147 -0.70825 0
M  V30 12266 H 1172.3 2.74643 -2.19691 0
M  V30 12267 H 1172.17 3.70074 -0.729731 0
M  V30 12268 H 1174.56 2.94987 -0.0816956 0
M  V30 12269 H 1174.64 2.01185 -1.57982 0
M  V30 12270 H 1174.28 4.15808 -2.91662 0
M  V30 12271 H 1174.21 5.07845 -1.39287 0
M  V30 12272 H 1176.71 3.51682 -1.38305 0
M  V30 12273 H 1177.02 6.93942 -3.40094 0
M  V30 12274 H 1175.36 6.24387 -3.05231 0
M  V30 12275 H 1178.55 4.3247 -1.79129 0
M  V30 12276 H 1178.73 5.88553 -2.71126 0
M  V30 12277 N 1172.13 0.454803 1.50895 0
M  V30 12278 C 1173.07 -0.393395 2.24784 0
M  V30 12279 C 1174.04 -1.01005 1.27424 0
M  V30 12280 O 1175.23 -1.04914 1.56605 0
M  V30 12281 C 1172.36 -1.54978 3.01164 0
M  V30 12282 C 1171.4 -1.0521 4.1332 0
M  V30 12283 S 1172.23 0.0200486 5.35496 0
M  V30 12284 C 1173.39 -1.14059 6.1542 0
M  V30 12285 H 1173.62 0.233864 2.96379 0
M  V30 12286 H 1171.16 0.239498 1.52531 0
M  V30 12287 H 1173.11 -2.21262 3.45765 0
M  V30 12288 H 1171.78 -2.1485 2.29125 0
M  V30 12289 H 1170.97 -1.91734 4.66105 0
M  V30 12290 H 1170.57 -0.467234 3.7107 0
M  V30 12291 H 1172.86 -2.05552 6.45565 0
M  V30 12292 H 1173.81 -0.652339 7.05089 0
M  V30 12293 H 1174.21 -1.38705 5.47194 0
M  V30 12294 N 1173.61 -1.56489 0.186789 0
M  V30 12295 C 1174.84 -2.01429 -0.459326 0
M  V30 12296 C 1175.25 -1.06611 -1.56303 0
M  V30 12297 O 1174.59 -0.0617053 -1.83596 0
M  V30 12298 C 1174.65 -3.42778 -1.08367 0
M  V30 12299 C 1174.32 -4.56843 -0.119719 0
M  V30 12300 C 1175.32 -5.15594 0.667782 0
M  V30 12301 C 1173 -5.02299 -0.0110494 0
M  V30 12302 C 1174.99 -6.18242 1.551 0
M  V30 12303 C 1172.68 -6.04793 0.875738 0
M  V30 12304 C 1173.68 -6.62637 1.65534 0
M  V30 12305 O 1173.37 -7.63141 2.52728 0
M  V30 12306 H 1173.1 -0.665175 -0.120492 0
M  V30 12307 H 1175.65 -2.03338 0.290283 0
M  V30 12308 H 1173.88 -3.3783 -1.8817 0
M  V30 12309 H 1175.57 -3.71577 -1.63357 0
M  V30 12310 H 1176.34 -4.81348 0.594085 0
M  V30 12311 H 1172.22 -4.56977 -0.607667 0
M  V30 12312 H 1175.76 -6.63319 2.15995 0
M  V30 12313 H 1171.66 -6.38462 0.950581 0
M  V30 12314 H 1172.43 -7.80527 2.46415 0
M  V30 12315 N 1175.09 0.086862 -1.5736 0
M  V30 12316 C 1176.37 0.820984 -1.77537 0
M  V30 12317 C 1176.75 1.96534 -0.770554 0
M  V30 12318 O 1176.09 2.27629 0.199334 0
M  V30 12319 C 1176.3 1.30793 -3.23565 0
M  V30 12320 C 1177.65 1.7474 -3.86977 0
M  V30 12321 O 1178.68 1.40396 -3.27364 0
M  V30 12322 O 1177.54 2.38271 -4.91822 0
M  V30 12323 H 1174.63 0.392228 -0.72807 0
M  V30 12324 H 1177.18 0.0681051 -1.69563 0
M  V30 12325 H 1175.95 0.488409 -3.8824 0
M  V30 12326 H 1175.57 2.12258 -3.36203 0
M  V30 12327 N 1176.57 1.53483 0.357892 0
M  V30 12328 C 1177.53 1.79782 1.42166 0
M  V30 12329 C 1178.53 0.668441 1.46248 0
M  V30 12330 O 1179.72 0.936677 1.46874 0
M  V30 12331 C 1176.85 1.92686 2.8122 0
M  V30 12332 H 1178.05 2.74794 1.20117 0
M  V30 12333 H 1175.6 1.44677 0.591468 0
M  V30 12334 H 1176.33 0.997669 3.08573 0
M  V30 12335 H 1176.12 2.74837 2.79655 0
M  V30 12336 H 1177.61 2.14599 3.58242 0
M  V30 12337 N 1178.05 -0.61812 1.44973 0
M  V30 12338 C 1178.98 -1.74299 1.48837 0
M  V30 12339 C 1179.99 -1.58296 0.38028 0
M  V30 12340 O 1181.18 -1.66371 0.646757 0
M  V30 12341 C 1178.28 -3.12179 1.31901 0
M  V30 12342 C 1177.45 -3.54519 2.56193 0
M  V30 12343 C 1176.51 -4.71324 2.33966 0
M  V30 12344 O 1175.54 -4.78975 3.07525 0
M  V30 12345 N 1176.74 -5.63894 1.37854 0
M  V30 12346 H 1179.5 -1.7145 2.45815 0
M  V30 12347 H 1177.07 -0.803087 1.40578 0
M  V30 12348 H 1179.06 -3.88059 1.14858 0
M  V30 12349 H 1177.63 -3.09595 0.43239 0
M  V30 12350 H 1176.85 -2.68711 2.88423 0
M  V30 12351 H 1178.14 -3.79563 3.38835 0
M  V30 12352 H 1177.53 -5.60418 0.771273 0
M  V30 12353 H 1176.09 -6.3935 1.26787 0
M  V30 12354 N 1179.52 -1.32087 -0.859693 0
M  V30 12355 C 1180.46 -1.16426 -1.97428 0
M  V30 12356 C 1181.47 -0.100582 -1.62489 0
M  V30 12357 O 1182.66 -0.349063 -1.75054 0
M  V30 12358 C 1179.76 -0.758822 -3.30295 0
M  V30 12359 C 1178.93 -1.90971 -3.93508 0
M  V30 12360 C 1177.99 -1.48865 -5.04704 0
M  V30 12361 O 1177.02 -2.1999 -5.2497 0
M  V30 12362 N 1178.22 -0.38182 -5.79243 0
M  V30 12363 H 1180.98 -2.12433 -2.11406 0
M  V30 12364 H 1178.54 -1.24558 -1.03426 0
M  V30 12365 H 1180.54 -0.459643 -4.02081 0
M  V30 12366 H 1179.11 0.109944 -3.12407 0
M  V30 12367 H 1178.33 -2.37566 -3.14573 0
M  V30 12368 H 1179.61 -2.68032 -4.32477 0
M  V30 12369 H 1179.01 0.210268 -5.65309 0
M  V30 12370 H 1177.57 -0.142224 -6.51645 0
M  V30 12371 N 1181 1.07532 -1.15215 0
M  V30 12372 C 1181.93 2.14598 -0.805006 0
M  V30 12373 C 1182.95 1.61778 0.182152 0
M  V30 12374 O 1184.14 1.78453 -0.040834 0
M  V30 12375 C 1181.24 3.38444 -0.175736 0
M  V30 12376 C 1180.41 4.20621 -1.19986 0
M  V30 12377 C 1179.47 5.22851 -0.592705 0
M  V30 12378 O 1178.49 5.55121 -1.25815 0
M  V30 12379 N 1179.7 5.7711 0.626425 0
M  V30 12380 H 1182.46 2.44981 -1.7264 0
M  V30 12381 H 1180.02 1.23423 -1.04778 0
M  V30 12382 H 1182.01 4.03969 0.243166 0
M  V30 12383 H 1180.58 3.0579 0.64896 0
M  V30 12384 H 1179.8 3.50941 -1.79539 0
M  V30 12385 H 1181.09 4.72339 -1.89139 0
M  V30 12386 H 1180.49 5.53139 1.18546 0
M  V30 12387 H 1179.05 6.44273 0.98771 0
M  V30 12388 N 1182.48 0.948665 1.2585 0
M  V30 12389 C 1183.41 0.421458 2.25292 0
M  V30 12390 C 1184.43 -0.459389 1.56184 0
M  V30 12391 O 1185.61 -0.268627 1.76467 0
M  V30 12392 C 1182.71 -0.412653 3.36378 0
M  V30 12393 C 1181.89 0.453792 4.3504 0
M  V30 12394 C 1180.95 -0.321127 5.25219 0
M  V30 12395 O 1179.97 0.278424 5.68519 0
M  V30 12396 N 1181.17 -1.61576 5.5756 0
M  V30 12397 H 1183.94 1.27636 2.71162 0
M  V30 12398 H 1181.5 0.818367 1.39694 0
M  V30 12399 H 1183.49 -0.938637 3.93664 0
M  V30 12400 H 1182.06 -1.16839 2.89944 0
M  V30 12401 H 1181.28 1.16093 3.76718 0
M  V30 12402 H 1182.57 1.04538 4.97945 0
M  V30 12403 H 1181.97 -2.12488 5.24276 0
M  V30 12404 H 1180.53 -2.08783 6.17457 0
M  V30 12405 N 1183.96 -1.40369 0.716545 0
M  V30 12406 C 1185.2 -2.01167 0.256846 0
M  V30 12407 C 1185.54 -1.56689 -1.14727 0
M  V30 12408 O 1184.81 -0.787384 -1.7785 0
M  V30 12409 C 1185.1 -3.58511 0.337963 0
M  V30 12410 C 1184.95 -4.13059 1.78052 0
M  V30 12411 C 1186.27 -4.39142 -0.290295 0
M  V30 12412 H 1183.39 -0.730877 0.0948028 0
M  V30 12413 H 1186.03 -1.66833 0.909225 0
M  V30 12414 H 1184.18 -3.87891 -0.217482 0
M  V30 12415 H 1185.85 -3.94472 2.39143 0
M  V30 12416 H 1184.09 -3.67311 2.30793 0
M  V30 12417 H 1184.76 -5.22217 1.78867 0
M  V30 12418 H 1187.24 -4.15697 0.182987 0
M  V30 12419 H 1186.12 -5.48524 -0.203097 0
M  V30 12420 H 1186.38 -4.20209 -1.37394 0
M  V30 12421 N 1185.44 -0.462799 -1.50652 0
M  V30 12422 C 1186.68 0.0948568 -2.01877 0
M  V30 12423 C 1187.01 1.4096 -1.34741 0
M  V30 12424 O 1186.28 1.89671 -0.49006 0
M  V30 12425 H 1184.86 0.0380453 -0.746031 0
M  V30 12426 H 1187.52 -0.611327 -1.85064 0
M  V30 12427 H 1186.61 0.252378 -3.11078 0
M  V30 12428 N 1186.91 1.56388 -0.195085 0
M  V30 12429 C 1188.14 2.01963 0.449289 0
M  V30 12430 C 1188.56 1.07522 1.55192 0
M  V30 12431 O 1187.91 0.0800915 1.82324 0
M  V30 12432 C 1187.97 3.47231 1.00561 0
M  V30 12433 O 1187.69 4.38068 -0.0530241 0
M  V30 12434 C 1189.19 4.08324 1.72587 0
M  V30 12435 H 1186.41 0.661452 0.112792 0
M  V30 12436 H 1188.95 2.02231 -0.303788 0
M  V30 12437 H 1187.11 3.47663 1.70907 0
M  V30 12438 H 1187.52 5.23256 0.361076 0
M  V30 12439 H 1188.99 5.11821 2.06744 0
M  V30 12440 H 1189.47 3.51782 2.62956 0
M  V30 12441 H 1190.08 4.11665 1.06826 0
M  V30 12442 N 1188.39 -0.0785156 1.57404 0
M  V30 12443 C 1189.34 -1.11278 2.04255 0
M  V30 12444 C 1190.33 -1.40482 0.946633 0
M  V30 12445 O 1191.54 -1.39968 1.13177 0
M  V30 12446 H 1187.92 -0.376157 0.65116 0
M  V30 12447 H 1189.89 -0.691437 2.90279 0
M  V30 12448 C 1188.64 -2.42006 2.49656 0
M  V30 12449 H 1187.96 -2.20383 3.33574 0
M  V30 12450 H 1189.4 -3.12837 2.86197 0
M  V30 12451 C 1187.86 -3.07488 1.37669 0
M  V30 12452 O 1188.39 -3.95285 0.715036 0
M  V30 12453 N 1186.59 -2.68004 1.1235 0
M  V30 12454 H 1186.14 -1.96698 1.66336 0
M  V30 12455 H 1186.1 -3.12141 0.376238 0
M  V30 12456 N 1189.87 -1.5367 -0.349747 0
M  V30 12457 C 1190.82 -1.81223 -1.42922 0
M  V30 12458 C 1191.79 -0.657536 -1.52531 0
M  V30 12459 O 1192.97 -0.90134 -1.68168 0
M  V30 12460 C 1190.11 -2.022 -2.79659 0
M  V30 12461 C 1189.23 -3.29915 -2.78891 0
M  V30 12462 C 1188.36 -3.40993 -4.07305 0
M  V30 12463 C 1187.4 -4.6268 -4.00741 0
M  V30 12464 N 1186.54 -4.70826 -5.20833 0
M  V30 12465 H 1191.38 -2.73328 -1.18727 0
M  V30 12466 H 1188.91 -1.35386 -0.57525 0
M  V30 12467 H 1190.87 -2.12351 -3.59114 0
M  V30 12468 H 1189.5 -1.13416 -3.0222 0
M  V30 12469 H 1188.55 -3.28637 -1.91577 0
M  V30 12470 H 1189.87 -4.19459 -2.69917 0
M  V30 12471 H 1189.02 -3.50542 -4.95182 0
M  V30 12472 H 1187.76 -2.49493 -4.19052 0
M  V30 12473 H 1186.76 -4.53215 -3.11249 0
M  V30 12474 H 1187.99 -5.55538 -3.90582 0
M  V30 12475 H 1185.93 -3.82233 -5.33136 0
M  V30 12476 H 1185.85 -5.54297 -5.14092 0
M  V30 12477 H 1187.12 -4.84677 -6.10499 0
M  V30 12478 N 1191.35 0.610423 -1.45298 0
M  V30 12479 C 1192.59 1.38085 -1.50705 0
M  V30 12480 C 1192.95 1.91459 -0.143997 0
M  V30 12481 O 1194.15 2.68702 -0.0727521 0
M  V30 12482 C 1192.42 2.50009 -2.55402 0
M  V30 12483 S 1193.98 3.37844 -2.80012 0
M  V30 12484 H 1190.8 0.470812 -0.532783 0
M  V30 12485 H 1193.4 0.704638 -1.8236 0
M  V30 12486 H 1192.11 2.09143 -3.53111 0
M  V30 12487 H 1191.64 3.22434 -2.25388 0
M  V30 12488 H 1193.65 4.48074 -2.13176 0
M  V30 12489 N 1192.83 1.32541 0.852676 0
M  V30 12490 C 1194.24 1.11575 1.14119 0
M  V30 12491 C 1194.44 -0.102469 2.01239 0
M  V30 12492 O 1193.5 -0.786786 2.39929 0
M  V30 12493 C 1194.81 2.39624 1.81661 0
M  V30 12494 C 1196.36 2.454 1.94288 0
M  V30 12495 C 1196.83 3.73375 2.65245 0
M  V30 12496 N 1198.33 3.74368 2.72769 0
M  V30 12497 C 1199.06 4.70094 3.28328 0
M  V30 12498 N 1198.56 5.76187 3.84682 0
M  V30 12499 N 1200.35 4.57588 3.26449 0
M  V30 12500 H 1192.5 2.10644 0.272544 0
M  V30 12501 H 1194.76 0.930094 0.183385 0
M  V30 12502 H 1194.47 3.28698 1.25102 0
M  V30 12503 H 1194.34 2.50734 2.81802 0
M  V30 12504 H 1196.73 1.56784 2.50005 0
M  V30 12505 H 1196.81 2.38241 0.931379 0
M  V30 12506 H 1196.46 4.62366 2.10191 0
M  V30 12507 H 1196.39 3.77806 3.66838 0
M  V30 12508 H 1198.88 2.97685 2.32791 0
M  V30 12509 H 1199.19 6.45285 4.25238 0
M  V30 12510 H 1197.53 5.79939 3.83008 0
M  V30 12511 H 1200.73 3.7387 2.81672 0
M  V30 12512 H 1200.9 5.32365 3.69448 0
M  V30 12513 N 1194.3 -1.0692 1.15784 0
M  V30 12514 C 1195.55 -1.79866 0.936815 0
M  V30 12515 C 1195.88 -1.867 -0.534477 0
M  V30 12516 O 1195.16 -1.35395 -1.39637 0
M  V30 12517 C 1195.44 -3.24691 1.55717 0
M  V30 12518 C 1195.29 -3.25975 3.09936 0
M  V30 12519 C 1196.61 -4.22076 1.24658 0
M  V30 12520 H 1193.73 -0.652971 0.341756 0
M  V30 12521 H 1196.37 -1.25085 1.43016 0
M  V30 12522 H 1194.52 -3.7147 1.13763 0
M  V30 12523 H 1196.2 -2.87405 3.60827 0
M  V30 12524 H 1194.44 -2.64808 3.43597 0
M  V30 12525 H 1195.11 -4.28114 3.48458 0
M  V30 12526 H 1197.59 -3.83709 1.60956 0
M  V30 12527 H 1196.46 -5.21691 1.70675 0
M  V30 12528 H 1196.72 -4.41794 0.164341 0
M  V30 12529 N 1195.78 -0.955326 -1.25345 0
M  V30 12530 C 1196.73 -0.467205 -2.2786 0
M  V30 12531 C 1197.72 0.462873 -1.62954 0
M  V30 12532 O 1198.93 0.339526 -1.76769 0
M  V30 12533 H 1195.31 -0.132586 -0.74022 0
M  V30 12534 H 1197.28 -1.34406 -2.66416 0
M  V30 12535 C 1196.03 0.238898 -3.46878 0
M  V30 12536 H 1195.35 -0.467644 -3.97056 0
M  V30 12537 H 1196.79 0.544444 -4.2049 0
M  V30 12538 C 1195.25 1.46164 -3.03542 0
M  V30 12539 O 1195.78 2.55933 -3.09615 0
M  V30 12540 N 1193.98 1.32324 -2.58725 0
M  V30 12541 H 1193.53 0.430131 -2.53984 0
M  V30 12542 H 1193.49 2.14253 -2.30094 0
M  V30 12543 N 1197.26 1.39987 -0.723979 0
M  V30 12544 C 1198.21 2.32507 -0.0658033 0
M  V30 12545 C 1199.2 1.52484 0.737908 0
M  V30 12546 O 1200.41 1.68225 0.640332 0
M  V30 12547 H 1196.78 0.751996 -0.00247717 0
M  V30 12548 H 1198.76 2.85657 -0.862696 0
M  V30 12549 C 1197.5 3.37509 0.835628 0
M  V30 12550 H 1196.83 3.99157 0.226589 0
M  V30 12551 H 1198.27 4.04722 1.26396 0
M  V30 12552 C 1196.73 2.73665 1.96492 0
M  V30 12553 O 1197.26 2.60649 3.05655 0
M  V30 12554 N 1195.46 2.3192 1.75104 0
M  V30 12555 H 1195.01 2.42707 0.863204 0
M  V30 12556 H 1194.97 1.89542 2.50841 0
M  V30 12557 N 1198.74 0.470782 1.50404 0
M  V30 12558 C 1199.99 -0.0841494 2.01925 0
M  V30 12559 C 1200.31 -1.40244 1.35487 0
M  V30 12560 O 1199.58 -1.89409 0.500111 0
M  V30 12561 H 1198.16 -0.0340884 0.746222 0
M  V30 12562 H 1200.82 0.621133 1.84738 0
M  V30 12563 H 1199.92 -0.235877 3.11207 0
M  V30 12564 N 1200.22 -1.56282 0.203376 0
M  V30 12565 C 1201.47 -1.97421 -0.432346 0
M  V30 12566 C 1201.79 -1.0917 -1.61576 0
M  V30 12567 O 1201.06 -0.164759 -1.95206 0
M  V30 12568 H 1199.64 -0.729062 -0.162721 0
M  V30 12569 H 1202.3 -1.927 0.292039 0
M  V30 12570 H 1201.39 -3.02429 -0.770918 0
M  V30 12571 N 1201.7 0.070167 -1.57444 0
M  V30 12572 C 1202.94 0.774338 -1.89165 0
M  V30 12573 C 1203.3 1.7466 -0.797353 0
M  V30 12574 O 1204.5 2.49599 -0.997682 0
M  V30 12575 C 1202.77 1.46235 -3.26114 0
M  V30 12576 S 1204.33 2.20136 -3.79586 0
M  V30 12577 H 1201.15 0.257464 -0.662747 0
M  V30 12578 H 1203.75 0.0303734 -1.95476 0
M  V30 12579 H 1202.45 0.740942 -4.03656 0
M  V30 12580 H 1201.99 2.24571 -3.23004 0
M  V30 12581 H 1204 3.4668 -3.55003 0
M  V30 12582 N 1203.17 1.53854 0.341593 0
M  V30 12583 C 1204.4 1.75447 1.10604 0
M  V30 12584 C 1204.82 0.493225 1.81518 0
M  V30 12585 O 1204.18 -0.554253 1.7262 0
M  V30 12586 C 1204.23 2.93593 2.09369 0
M  V30 12587 O 1203.33 2.63878 3.16926 0
M  V30 12588 H 1202.67 0.581923 0.319783 0
M  V30 12589 H 1205.2 2.00822 0.391388 0
M  V30 12590 H 1205.21 3.20437 2.52556 0
M  V30 12591 H 1203.89 3.85067 1.57151 0
M  V30 12592 H 1202.47 2.47929 2.78542 0
M  V30 12593 N 1204.65 -0.602709 1.4562 0
M  V30 12594 C 1205.88 -1.39299 1.53657 0
M  V30 12595 C 1206.3 -1.87315 0.171632 0
M  V30 12596 O 1205.66 -1.60423 -0.844639 0
M  V30 12597 C 1205.71 -2.57021 2.52928 0
M  V30 12598 O 1204.81 -3.57812 2.05047 0
M  V30 12599 H 1204.15 -0.41567 0.517798 0
M  V30 12600 H 1206.68 -0.73304 1.91018 0
M  V30 12601 H 1206.69 -3.04202 2.71892 0
M  V30 12602 H 1205.37 -2.21422 3.52058 0
M  V30 12603 H 1203.94 -3.17247 1.95981 0
M  V30 12604 N 1206.13 -1.32992 -0.845635 0
M  V30 12605 C 1207.06 -1.25301 -1.97033 0
M  V30 12606 C 1208.04 -0.134966 -1.69564 0
M  V30 12607 O 1209.23 -0.323629 -1.91484 0
M  V30 12608 C 1206.36 -0.984551 -3.33052 0
M  V30 12609 C 1205.31 -2.06481 -3.749 0
M  V30 12610 C 1204.64 -1.6486 -5.08651 0
M  V30 12611 C 1205.94 -3.48083 -3.89404 0
M  V30 12612 H 1207.63 -2.194 -2.03725 0
M  V30 12613 H 1205.18 -1.05621 -0.978783 0
M  V30 12614 H 1207.13 -0.917269 -4.11296 0
M  V30 12615 H 1205.85 -0.00793116 -3.26599 0
M  V30 12616 H 1204.51 -2.1224 -2.98915 0
M  V30 12617 H 1204.16 -0.659183 -4.98662 0
M  V30 12618 H 1203.86 -2.37145 -5.37621 0
M  V30 12619 H 1205.38 -1.59585 -5.89377 0
M  V30 12620 H 1206.8 -3.44863 -4.57976 0
M  V30 12621 H 1205.19 -4.18796 -4.29802 0
M  V30 12622 H 1206.26 -3.87084 -2.92051 0
M  V30 12623 N 1207.61 1.06304 -1.1635 0
M  V30 12624 C 1208.85 1.80686 -0.955614 0
M  V30 12625 C 1209.21 1.85171 0.507525 0
M  V30 12626 O 1210.41 2.55531 0.834103 0
M  V30 12627 C 1208.68 3.21276 -1.56577 0
M  V30 12628 S 1210.24 4.12274 -1.50251 0
M  V30 12629 H 1207.06 0.622426 -0.343666 0
M  V30 12630 H 1209.66 1.27628 -1.48092 0
M  V30 12631 H 1208.37 3.15607 -2.62336 0
M  V30 12632 H 1207.9 3.7941 -1.03978 0
M  V30 12633 H 1209.91 4.93647 -0.502703 0
M  V30 12634 N 1209.09 0.96196 1.24836 0
M  V30 12635 C 1210.02 0.506241 2.27946 0
M  V30 12636 C 1211 -0.451183 1.64007 0
M  V30 12637 O 1212.18 -0.348552 1.91046 0
M  V30 12638 C 1209.31 -0.209846 3.46665 0
M  V30 12639 C 1208.27 0.663035 4.22833 0
M  V30 12640 C 1207.59 -0.184216 5.34383 0
M  V30 12641 C 1208.89 1.94479 4.84742 0
M  V30 12642 H 1210.59 1.36805 2.66317 0
M  V30 12643 H 1208.13 0.65926 1.28023 0
M  V30 12644 H 1210.08 -0.539838 4.17928 0
M  V30 12645 H 1208.81 -1.10596 3.07305 0
M  V30 12646 H 1207.47 0.976216 3.53363 0
M  V30 12647 H 1207.12 -1.08031 4.91262 0
M  V30 12648 H 1206.82 0.39657 5.8626 0
M  V30 12649 H 1208.34 -0.509009 6.08475 0
M  V30 12650 H 1209.75 1.68074 5.48109 0
M  V30 12651 H 1208.15 2.47183 5.46828 0
M  V30 12652 H 1209.22 2.64332 4.06517 0
M  V30 12653 N 1210.56 -1.39601 0.731392 0
M  V30 12654 C 1211.53 -2.28992 0.0976037 0
M  V30 12655 C 1212.53 -1.46135 -0.670917 0
M  V30 12656 O 1213.72 -1.66856 -0.50047 0
M  V30 12657 C 1210.85 -3.29582 -0.871124 0
M  V30 12658 H 1212.04 -2.86541 0.885112 0
M  V30 12659 H 1209.59 -1.48188 0.497002 0
M  V30 12660 H 1210.33 -2.77082 -1.68512 0
M  V30 12661 H 1210.11 -3.9077 -0.322735 0
M  V30 12662 H 1211.6 -3.96479 -1.31126 0
M  V30 12663 N 1212.04 -0.478751 -1.50152 0
M  V30 12664 C 1213.27 0.0710485 -2.06778 0
M  V30 12665 C 1213.69 1.32826 -1.34174 0
M  V30 12666 O 1213.04 1.77758 -0.413304 0
M  V30 12667 C 1213.09 0.351351 -3.59789 0
M  V30 12668 O 1212.81 -0.855998 -4.29656 0
M  V30 12669 C 1214.32 0.947269 -4.33061 0
M  V30 12670 H 1211.54 -0.0105032 -0.670918 0
M  V30 12671 H 1214.08 -0.669732 -1.93222 0
M  V30 12672 H 1212.23 1.04207 -3.73121 0
M  V30 12673 H 1212.65 -0.605252 -5.20996 0
M  V30 12674 H 1214.12 1.09312 -5.41068 0
M  V30 12675 H 1214.6 1.93937 -3.94062 0
M  V30 12676 H 1215.21 0.294693 -4.24278 0
M  V30 12677 N 1213.52 1.56172 -0.211661 0
M  V30 12678 C 1214.93 1.84307 0.297982 0
M  V30 12679 C 1215.28 1.1328 1.60194 0
M  V30 12680 O 1214.41 0.399137 2.12687 0
M  V30 12681 C 1215 3.34348 0.547428 0
M  V30 12682 C 1213.56 3.62835 1.0014 0
M  V30 12683 C 1212.71 2.77237 0.0590326 0
M  V30 12684 H 1215.66 1.5262 -0.435083 0
M  V30 12685 H 1215.68 3.54018 1.39469 0
M  V30 12686 H 1215.19 3.86015 -0.401778 0
M  V30 12687 H 1213.29 3.16616 1.96431 0
M  V30 12688 H 1213.41 4.70899 0.882653 0
M  V30 12689 H 1211.77 2.48377 0.564005 0
M  V30 12690 H 1212.55 3.31699 -0.884913 0
M  V30 12691 N 1215 -0.0618163 1.57479 0
M  V30 12692 C 1216.25 -0.757569 1.87364 0
M  V30 12693 C 1216.57 -1.77607 0.805025 0
M  V30 12694 O 1215.84 -1.95202 -0.165216 0
M  V30 12695 H 1214.42 -0.28278 0.691408 0
M  V30 12696 H 1217.08 -0.0355354 1.94868 0
M  V30 12697 H 1216.18 -1.26758 2.85199 0
M  V30 12698 N 1216.48 -1.54033 -0.333429 0
M  V30 12699 C 1217.7 -1.76031 -1.09672 0
M  V30 12700 C 1218.13 -0.502844 -1.81254 0
M  V30 12701 O 1217.48 0.54509 -1.72912 0
M  V30 12702 C 1217.53 -2.947 -2.07809 0
M  V30 12703 O 1216.64 -2.65555 -3.15522 0
M  V30 12704 H 1215.98 -0.583611 -0.316692 0
M  V30 12705 H 1218.51 -2.01026 -0.380732 0
M  V30 12706 H 1218.52 -3.21771 -2.50853 0
M  V30 12707 H 1217.19 -3.85895 -1.55106 0
M  V30 12708 H 1215.77 -2.49403 -2.77223 0
M  V30 12709 N 1217.95 0.594978 -1.45938 0
M  V30 12710 C 1219.37 0.917069 -1.30622 0
M  V30 12711 C 1219.57 1.99702 -0.268554 0
M  V30 12712 O 1218.63 2.50293 0.333146 0
M  V30 12713 C 1219.94 1.34604 -2.68891 0
M  V30 12714 C 1221.49 1.45957 -2.76886 0
M  V30 12715 C 1221.96 1.92225 -4.15708 0
M  V30 12716 N 1223.45 1.99439 -4.18065 0
M  V30 12717 C 1224.19 2.36488 -5.22361 0
M  V30 12718 N 1223.68 2.72416 -6.36994 0
M  V30 12719 N 1225.48 2.36936 -5.09723 0
M  V30 12720 H 1217.63 -0.118625 -2.12068 0
M  V30 12721 H 1219.89 0.00959453 -0.947951 0
M  V30 12722 H 1219.6 0.626605 -3.46073 0
M  V30 12723 H 1219.47 2.31006 -2.98188 0
M  V30 12724 H 1221.86 2.16989 -1.99999 0
M  V30 12725 H 1221.94 0.47838 -2.51287 0
M  V30 12726 H 1221.58 1.21775 -4.93085 0
M  V30 12727 H 1221.51 2.9128 -4.38707 0
M  V30 12728 H 1224 1.74212 -3.35349 0
M  V30 12729 H 1224.32 2.99604 -7.1236 0
M  V30 12730 H 1222.66 2.70083 -6.40375 0
M  V30 12731 H 1225.85 2.08282 -4.19209 0
M  V30 12732 H 1226.03 2.65483 -5.9112 0
M  V30 12733 N 1219.43 1.33438 0.838571 0
M  V30 12734 C 1220.36 1.19552 1.9555 0
M  V30 12735 C 1221.38 0.12642 1.62308 0
M  V30 12736 O 1222.57 0.376868 1.74476 0
M  V30 12737 C 1219.67 0.811273 3.29046 0
M  V30 12738 C 1218.84 1.97207 3.9042 0
M  V30 12739 C 1217.9 1.56875 5.02271 0
M  V30 12740 O 1216.92 2.28314 5.21403 0
M  V30 12741 N 1218.13 0.473924 5.78562 0
M  V30 12742 H 1220.89 2.15769 2.07999 0
M  V30 12743 H 1218.45 1.26187 1.01432 0
M  V30 12744 H 1220.44 0.523553 4.01299 0
M  V30 12745 H 1219.01 -0.0602291 3.12542 0
M  V30 12746 H 1218.23 2.4254 3.10754 0
M  V30 12747 H 1219.52 2.74878 4.28158 0
M  V30 12748 H 1218.92 -0.120306 5.65572 0
M  V30 12749 H 1217.48 0.245877 6.51336 0
M  V30 12750 N 1220.91 -1.05686 1.16912 0
M  V30 12751 C 1222.15 -1.80177 0.965182 0
M  V30 12752 C 1222.51 -1.85437 -0.497698 0
M  V30 12753 O 1223.72 -2.5597 -0.82054 0
M  V30 12754 C 1221.99 -3.20441 1.58279 0
M  V30 12755 S 1223.55 -4.11472 1.52435 0
M  V30 12756 H 1220.36 -0.620595 0.346962 0
M  V30 12757 H 1222.97 -1.26841 1.48767 0
M  V30 12758 H 1221.67 -3.14211 2.64006 0
M  V30 12759 H 1221.2 -3.78853 1.05989 0
M  V30 12760 H 1223.22 -4.93373 0.528876 0
M  V30 12761 N 1222.39 -0.968567 -1.24324 0
M  V30 12762 C 1223.35 -0.504307 -2.23583 0
M  V30 12763 C 1224.35 0.399626 -1.55755 0
M  V30 12764 O 1225.54 0.194966 -1.73106 0
M  V30 12765 C 1222.67 0.26956 -3.39833 0
M  V30 12766 H 1223.87 -1.3818 -2.6617 0
M  V30 12767 H 1221.42 -0.753241 -1.36952 0
M  V30 12768 H 1222.15 1.16411 -3.02686 0
M  V30 12769 H 1221.94 -0.379133 -3.90263 0
M  V30 12770 H 1223.43 0.583376 -4.13505 0
M  V30 12771 N 1223.87 1.39211 -0.738786 0
M  V30 12772 C 1225.11 2.02287 -0.293119 0
M  V30 12773 C 1225.47 1.57361 1.10006 0
M  V30 12774 O 1226.67 2.12663 1.64402 0
M  V30 12775 C 1224.94 3.55204 -0.395547 0
M  V30 12776 S 1226.5 4.3879 -0.0302798 0
M  V30 12777 H 1223.32 0.701702 -0.114609 0
M  V30 12778 H 1225.92 1.69959 -0.966138 0
M  V30 12779 H 1224.63 3.85392 -1.41072 0
M  V30 12780 H 1224.16 3.92291 0.295163 0
M  V30 12781 H 1226.17 4.81848 1.18478 0
M  V30 12782 N 1225.34 0.486708 1.49896 0
M  V30 12783 C 1226.31 -0.288126 2.27382 0
M  V30 12784 C 1227.31 -0.906675 1.32801 0
M  V30 12785 O 1228.5 -0.773425 1.56089 0
M  V30 12786 C 1225.63 -1.41194 3.10285 0
M  V30 12787 H 1226.82 0.391618 2.97332 0
M  V30 12788 H 1224.38 0.24123 1.54427 0
M  V30 12789 H 1225.11 -2.12627 2.44868 0
M  V30 12790 H 1224.9 -0.974033 3.79809 0
M  V30 12791 H 1226.39 -1.95812 3.68846 0
M  V30 12792 N 1226.82 -1.56058 0.219941 0
M  V30 12793 C 1227.73 -2.23844 -0.70222 0
M  V30 12794 C 1228.75 -1.24554 -1.215 0
M  V30 12795 O 1229.93 -1.57362 -1.25695 0
M  V30 12796 C 1226.99 -2.90384 -1.89416 0
M  V30 12797 C 1226.05 -4.05012 -1.42351 0
M  V30 12798 C 1225.28 -4.68369 -2.55863 0
M  V30 12799 O 1225.51 -4.3071 -3.73958 0
M  V30 12800 O 1224.44 -5.5739 -2.27157 0
M  V30 12801 H 1228.27 -3.03305 -0.15478 0
M  V30 12802 H 1225.85 -1.49396 -0.010438 0
M  V30 12803 H 1227.73 -3.32389 -2.59028 0
M  V30 12804 H 1226.41 -2.13883 -2.42973 0
M  V30 12805 H 1225.32 -3.67579 -0.695448 0
M  V30 12806 H 1226.65 -4.83251 -0.934332 0
M  V30 12807 N 1228.3 0.053464 -1.57509 0
M  V30 12808 C 1229.58 0.783141 -1.79238 0
M  V30 12809 C 1229.96 1.94855 -0.812069 0
M  V30 12810 O 1229.31 2.28 0.151006 0
M  V30 12811 C 1229.52 1.239 -3.26266 0
M  V30 12812 C 1230.86 1.66492 -3.90596 0
M  V30 12813 O 1231.89 1.33421 -3.30269 0
M  V30 12814 O 1230.75 2.27785 -4.96766 0
M  V30 12815 H 1227.84 0.376696 -0.736226 0
M  V30 12816 H 1230.39 0.0321229 -1.6967 0
M  V30 12817 H 1229.16 0.405948 -3.89189 0
M  V30 12818 H 1228.78 2.05078 -3.4063 0
M  V30 12819 N 1229.78 1.54207 0.325255 0
M  V30 12820 C 1230.71 1.79812 1.42128 0
M  V30 12821 C 1231.72 0.68003 1.47917 0
M  V30 12822 O 1232.91 0.957107 1.50671 0
M  V30 12823 C 1230.01 1.89935 2.80674 0
M  V30 12824 C 1229.19 3.20078 2.98108 0
M  V30 12825 C 1228.25 3.20924 4.17006 0
M  V30 12826 O 1227.27 3.94571 4.10247 0
M  V30 12827 N 1228.47 2.44588 5.26457 0
M  V30 12828 H 1231.24 2.74396 1.20527 0
M  V30 12829 H 1228.8 1.53483 0.515233 0
M  V30 12830 H 1230.79 1.8793 3.58419 0
M  V30 12831 H 1229.36 1.02455 2.95333 0
M  V30 12832 H 1228.58 3.35057 2.07679 0
M  V30 12833 H 1229.87 4.06008 3.06651 0
M  V30 12834 H 1229.27 1.8434 5.34823 0
M  V30 12835 H 1227.82 2.48363 6.02627 0
M  V30 12836 N 1231.26 -0.58723 1.46251 0
M  V30 12837 C 1232.5 -1.3476 1.51551 0
M  V30 12838 C 1232.84 -1.93499 0.16483 0
M  V30 12839 O 1232.11 -1.7622 -0.823207 0
M  V30 12840 C 1232.39 -2.48033 2.61059 0
M  V30 12841 C 1232.25 -1.94358 4.05642 0
M  V30 12842 C 1233.57 -3.50096 2.66685 0
M  V30 12843 H 1230.69 -0.48863 0.551733 0
M  V30 12844 H 1233.33 -0.660097 1.78165 0
M  V30 12845 H 1231.48 -3.06679 2.38496 0
M  V30 12846 H 1233.15 -1.40204 4.39478 0
M  V30 12847 H 1231.39 -1.25217 4.15335 0
M  V30 12848 H 1232.06 -2.76105 4.77986 0
M  V30 12849 H 1234.54 -3.01324 2.86955 0
M  V30 12850 H 1233.42 -4.26817 3.45135 0
M  V30 12851 H 1233.68 -4.07032 1.7256 0
M  V30 12852 N 1232.74 -1.33881 -0.831482 0
M  V30 12853 C 1233.67 -1.27384 -1.95693 0
M  V30 12854 C 1234.65 -0.152943 -1.69411 0
M  V30 12855 O 1235.83 -0.34392 -1.9113 0
M  V30 12856 C 1232.96 -1.01982 -3.31989 0
M  V30 12857 C 1231.92 -2.10445 -3.72689 0
M  V30 12858 C 1231.24 -1.70245 -5.06873 0
M  V30 12859 C 1232.54 -3.52194 -3.8569 0
M  V30 12860 H 1234.24 -2.21549 -2.01386 0
M  V30 12861 H 1231.78 -1.06653 -0.967526 0
M  V30 12862 H 1233.73 -0.960841 -4.103 0
M  V30 12863 H 1232.46 -0.0425709 -3.26572 0
M  V30 12864 H 1231.12 -2.15398 -2.96647 0
M  V30 12865 H 1230.77 -0.712036 -4.97935 0
M  V30 12866 H 1230.47 -2.42834 -5.35075 0
M  V30 12867 H 1231.99 -1.65827 -5.87651 0
M  V30 12868 H 1233.4 -3.49701 -4.54293 0
M  V30 12869 H 1231.8 -4.23331 -4.25336 0
M  V30 12870 H 1232.87 -3.9016 -2.87929 0
M  V30 12871 N 1234.21 1.05064 -1.1747 0
M  V30 12872 C 1235.49 1.74999 -0.873776 0
M  V30 12873 C 1235.87 2.01615 0.625676 0
M  V30 12874 O 1235.22 1.65324 1.57734 0
M  V30 12875 C 1235.43 3.04231 -1.7101 0
M  V30 12876 C 1236.78 3.78157 -1.93087 0
M  V30 12877 O 1237.8 3.14104 -1.6798 0
M  V30 12878 O 1236.66 4.93255 -2.3529 0
M  V30 12879 H 1233.75 0.761042 -0.323641 0
M  V30 12880 H 1236.3 1.1122 -1.28172 0
M  V30 12881 H 1235.07 2.80621 -2.72704 0
M  V30 12882 H 1234.69 3.75746 -1.30002 0
M  V30 12883 N 1235.69 0.975146 1.23809 0
M  V30 12884 C 1236.65 0.516157 2.23312 0
M  V30 12885 C 1237.65 -0.39136 1.55965 0
M  V30 12886 O 1238.84 -0.185783 1.73206 0
M  V30 12887 C 1235.98 -0.251534 3.39971 0
M  V30 12888 H 1237.17 1.3959 2.65433 0
M  V30 12889 H 1234.72 0.760493 1.36551 0
M  V30 12890 H 1235.46 -1.14805 3.03299 0
M  V30 12891 H 1235.24 0.399825 3.90056 0
M  V30 12892 H 1236.73 -0.561438 4.13809 0
M  V30 12893 N 1237.17 -1.38817 0.746158 0
M  V30 12894 C 1238.45 -1.94303 0.224841 0
M  V30 12895 C 1238.83 -1.68207 -1.27552 0
M  V30 12896 O 1238.17 -1.01647 -2.04646 0
M  V30 12897 C 1238.38 -3.44306 0.5705 0
M  V30 12898 C 1239.73 -4.21329 0.526015 0
M  V30 12899 O 1240.76 -3.52554 0.508351 0
M  V30 12900 O 1239.62 -5.4392 0.530383 0
M  V30 12901 H 1236.71 -0.825785 0.0448047 0
M  V30 12902 H 1239.26 -1.48253 0.825775 0
M  V30 12903 H 1238.03 -3.56779 1.60701 0
M  V30 12904 H 1237.65 -3.97556 -0.0588271 0
M  V30 12905 N 1238.65 -0.49465 -1.49636 0
M  V30 12906 C 1239.9 0.0520143 -2.02033 0
M  V30 12907 C 1240.22 1.38071 -1.37701 0
M  V30 12908 O 1239.49 1.88589 -0.530181 0
M  V30 12909 H 1238.07 0.0222123 -0.74667 0
M  V30 12910 H 1240.73 -0.650445 -1.83726 0
M  V30 12911 H 1239.82 0.186337 -3.11543 0
M  V30 12912 N 1240.13 1.55939 -0.228214 0
M  V30 12913 C 1241.37 1.9877 0.402272 0
M  V30 12914 C 1241.7 1.11587 1.5894 0
M  V30 12915 O 1240.98 0.175032 1.93711 0
M  V30 12916 C 1241.26 3.50396 0.830353 0
M  V30 12917 C 1241.12 4.4835 -0.360876 0
M  V30 12918 C 1242.43 4.06602 1.68413 0
M  V30 12919 H 1239.55 0.722646 0.144746 0
M  V30 12920 H 1242.2 1.87186 -0.325784 0
M  V30 12921 H 1240.35 3.60398 1.4507 0
M  V30 12922 H 1242.02 4.5035 -0.999113 0
M  V30 12923 H 1240.26 4.21946 -1.00719 0
M  V30 12924 H 1240.93 5.51997 -0.0183074 0
M  V30 12925 H 1243.41 3.99585 1.16064 0
M  V30 12926 H 1242.28 5.12998 1.95254 0
M  V30 12927 H 1242.54 3.53897 2.64971 0
M  V30 12928 N 1241.6 -0.0451101 1.57535 0
M  V30 12929 C 1242.83 -0.75132 1.92777 0
M  V30 12930 C 1243.25 -1.69743 0.826599 0
M  V30 12931 O 1242.6 -1.8142 -0.198224 0
M  V30 12932 C 1242.66 -1.52218 3.2789 0
M  V30 12933 O 1242.38 -0.614059 4.33775 0
M  V30 12934 C 1243.88 -2.32699 3.77314 0
M  V30 12935 H 1241.1 -0.21211 0.636593 0
M  V30 12936 H 1243.64 -0.0074174 2.04499 0
M  V30 12937 H 1241.8 -2.2181 3.17614 0
M  V30 12938 H 1242.21 -1.15294 5.11671 0
M  V30 12939 H 1243.68 -2.82205 4.7441 0
M  V30 12940 H 1244.16 -3.13414 3.07682 0
M  V30 12941 H 1244.77 -1.68212 3.90621 0
M  V30 12942 N 1243.08 -1.54377 -0.317073 0
M  V30 12943 C 1244.32 -1.74621 -1.06239 0
M  V30 12944 C 1244.69 -0.512542 -1.85032 0
M  V30 12945 O 1245.89 -0.592438 -2.6219 0
M  V30 12946 C 1244.16 -2.99036 -1.95735 0
M  V30 12947 S 1245.72 -3.40212 -2.77131 0
M  V30 12948 H 1242.54 -0.613969 -0.358557 0
M  V30 12949 H 1245.14 -1.92562 -0.33763 0
M  V30 12950 H 1243.84 -3.86965 -1.36697 0
M  V30 12951 H 1243.37 -2.83636 -2.72606 0
M  V30 12952 H 1245.39 -2.9602 -3.98229 0
M  V30 12953 N 1244.56 0.579466 -1.4656 0
M  V30 12954 C 1245.49 1.69846 -1.60233 0
M  V30 12955 C 1246.47 1.6397 -0.452533 0
M  V30 12956 O 1247.66 1.81936 -0.679174 0
M  V30 12957 C 1244.79 3.08488 -1.59538 0
M  V30 12958 C 1243.74 3.29197 -2.7352 0
M  V30 12959 C 1243.07 4.684 -2.57887 0
M  V30 12960 C 1244.37 3.16718 -4.15315 0
M  V30 12961 H 1246.06 1.5866 -2.53904 0
M  V30 12962 H 1243.61 0.761873 -1.22194 0
M  V30 12963 H 1245.56 3.86595 -1.67696 0
M  V30 12964 H 1244.28 3.20581 -0.62413 0
M  V30 12965 H 1242.94 2.53491 -2.64836 0
M  V30 12966 H 1242.59 4.77262 -1.58839 0
M  V30 12967 H 1242.29 4.83208 -3.34341 0
M  V30 12968 H 1243.81 5.48671 -2.67942 0
M  V30 12969 H 1245.23 3.84666 -4.25094 0
M  V30 12970 H 1243.63 3.43047 -4.92381 0
M  V30 12971 H 1244.7 2.13755 -4.35244 0
M  V30 12972 N 1246.04 1.3432 0.824371 0
M  V30 12973 C 1247 1.25672 1.91675 0
M  V30 12974 C 1248 0.172269 1.59875 0
M  V30 12975 O 1249.19 0.424794 1.68941 0
M  V30 12976 C 1246.32 0.939928 3.27686 0
M  V30 12977 H 1247.52 2.22785 2.00766 0
M  V30 12978 H 1245.07 1.18587 1.01817 0
M  V30 12979 H 1245.8 -0.0280898 3.24288 0
M  V30 12980 H 1245.59 1.72432 3.5215 0
M  V30 12981 H 1247.08 0.904553 4.07686 0
M  V30 12982 N 1247.52 -1.0444 1.18026 0
M  V30 12983 C 1248.46 -2.14474 0.900202 0
M  V30 12984 C 1249.46 -1.68836 -0.138086 0
M  V30 12985 O 1250.66 -1.79997 0.00971011 0
M  V30 12986 H 1247.04 -0.700457 0.273613 0
M  V30 12987 H 1249.01 -2.35295 1.83518 0
M  V30 12988 C 1247.76 -3.44926 0.438305 0
M  V30 12989 H 1247.08 -3.8045 1.22874 0
M  V30 12990 H 1248.52 -4.23066 0.281306 0
M  V30 12991 C 1246.98 -3.26124 -0.845268 0
M  V30 12992 O 1247.51 -3.53368 -1.91034 0
M  V30 12993 N 1245.72 -2.79474 -0.7964 0
M  V30 12994 H 1245.26 -2.57503 0.0705595 0
M  V30 12995 H 1245.22 -2.67274 -1.65566 0
M  V30 12996 N 1248.99 -0.981699 -1.2329 0
M  V30 12997 C 1250.41 -0.688087 -1.73558 0
M  V30 12998 C 1250.76 0.795633 -1.79344 0
M  V30 12999 O 1249.88 1.62227 -1.43218 0
M  V30 13000 C 1250.48 -1.24235 -3.152 0
M  V30 13001 C 1249.04 -0.998356 -3.62918 0
M  V30 13002 C 1248.18 -1.3693 -2.41134 0
M  V30 13003 H 1251.13 -1.15539 -1.08795 0
M  V30 13004 H 1251.15 -0.61541 -3.7549 0
M  V30 13005 H 1250.67 -2.32223 -3.10957 0
M  V30 13006 H 1248.77 0.0653847 -3.72543 0
M  V30 13007 H 1248.88 -1.65385 -4.49649 0
M  V30 13008 H 1247.24 -0.787773 -2.42211 0
M  V30 13009 H 1248.03 -2.45898 -2.39561 0
M  V30 13010 N 1250.47 1.3842 -0.753509 0
M  V30 13011 C 1251.7 2.04929 -0.319174 0
M  V30 13012 C 1252.12 1.56457 1.04416 0
M  V30 13013 O 1251.48 0.716527 1.6654 0
M  V30 13014 C 1251.53 3.58887 -0.351054 0
M  V30 13015 O 1250.63 4.07166 0.654963 0
M  V30 13016 H 1249.97 0.648782 -0.141343 0
M  V30 13017 H 1252.5 1.77096 -1.02461 0
M  V30 13018 H 1252.51 4.075 -0.201907 0
M  V30 13019 H 1251.19 3.93525 -1.34576 0
M  V30 13020 H 1249.77 3.69921 0.470435 0
M  V30 13021 N 1251.95 0.502579 1.49372 0
M  V30 13022 C 1253.18 -0.0380876 2.06565 0
M  V30 13023 C 1253.59 -1.31224 1.36297 0
M  V30 13024 O 1252.93 -1.78463 0.435517 0
M  V30 13025 C 1252.99 -0.360462 3.57688 0
M  V30 13026 C 1252.66 0.816203 4.49652 0
M  V30 13027 C 1253.65 1.70713 4.91073 0
M  V30 13028 C 1251.34 1.01545 4.91929 0
M  V30 13029 C 1253.33 2.78144 5.73511 0
M  V30 13030 C 1251.02 2.09294 5.74142 0
M  V30 13031 C 1252.02 2.97428 6.14838 0
M  V30 13032 O 1251.71 4.03317 6.95407 0
M  V30 13033 H 1251.44 0.0179548 0.675762 0
M  V30 13034 H 1253.99 0.699609 1.93118 0
M  V30 13035 H 1252.22 -1.15177 3.69149 0
M  V30 13036 H 1253.91 -0.839931 3.97115 0
M  V30 13037 H 1254.68 1.56502 4.59056 0
M  V30 13038 H 1250.56 0.338822 4.59753 0
M  V30 13039 H 1254.1 3.46965 6.05195 0
M  V30 13040 H 1250 2.235 6.05572 0
M  V30 13041 H 1250.77 4.00689 7.13716 0
M  V30 13042 N 1253.43 -1.55816 0.23648 0
M  V30 13043 C 1254.67 -1.98981 -0.391725 0
M  V30 13044 C 1255.01 -1.12428 -1.58346 0
M  V30 13045 O 1254.28 -0.185303 -1.93615 0
M  V30 13046 C 1254.57 -3.50831 -0.811759 0
M  V30 13047 C 1254.42 -4.48152 0.384648 0
M  V30 13048 C 1255.74 -4.07489 -1.66254 0
M  V30 13049 H 1252.86 -0.723404 -0.140911 0
M  V30 13050 H 1255.5 -1.87011 0.335706 0
M  V30 13051 H 1253.65 -3.61162 -1.43157 0
M  V30 13052 H 1255.32 -4.49814 1.02298 0
M  V30 13053 H 1253.56 -4.21406 1.02955 0
M  V30 13054 H 1254.23 -5.51979 0.0475809 0
M  V30 13055 H 1256.71 -4.00195 -1.13944 0
M  V30 13056 H 1255.59 -5.14026 -1.92531 0
M  V30 13057 H 1255.85 -3.55297 -2.6309 0
M  V30 13058 N 1254.91 0.036755 -1.57557 0
M  V30 13059 C 1256.32 0.584324 -1.7732 0
M  V30 13060 C 1256.67 1.76025 -0.86658 0
M  V30 13061 O 1255.79 2.16318 -0.059443 0
M  V30 13062 C 1256.39 1.06679 -3.21566 0
M  V30 13063 C 1254.95 1.55994 -3.42553 0
M  V30 13064 C 1254.09 0.494604 -2.72853 0
M  V30 13065 H 1257.05 -0.189473 -1.57565 0
M  V30 13066 H 1257.07 1.93446 -3.27657 0
M  V30 13067 H 1256.58 0.210727 -3.87527 0
M  V30 13068 H 1254.68 2.43811 -2.81757 0
M  V30 13069 H 1254.79 1.61274 -4.5114 0
M  V30 13070 H 1253.16 0.947865 -2.36406 0
M  V30 13071 H 1253.94 -0.351868 -3.41492 0
M  V30 13072 N 1256.39 1.54543 0.308881 0
M  V30 13073 C 1257.8 1.64532 0.882392 0
M  V30 13074 C 1258.15 0.54886 1.88367 0
M  V30 13075 O 1257.27 -0.315832 2.14083 0
M  V30 13076 C 1257.87 2.98251 1.60722 0
M  V30 13077 C 1256.43 3.10387 2.12925 0
M  V30 13078 C 1255.57 2.60176 0.959362 0
M  V30 13079 H 1258.52 1.58466 0.0860803 0
M  V30 13080 H 1258.55 2.89233 2.47233 0
M  V30 13081 H 1258.06 3.78033 0.878233 0
M  V30 13082 H 1256.16 2.35309 2.88895 0
M  V30 13083 H 1256.27 4.16421 2.36918 0
M  V30 13084 H 1254.64 2.16434 1.3427 0
M  V30 13085 H 1255.42 3.42429 0.244454 0
M  V30 13086 N 1257.86 -0.571685 1.46866 0
M  V30 13087 C 1259.27 -1.15383 1.46778 0
M  V30 13088 C 1259.63 -1.95023 0.214576 0
M  V30 13089 O 1258.75 -2.05386 -0.681574 0
M  V30 13090 C 1259.35 -2.09915 2.65935 0
M  V30 13091 C 1257.9 -2.6343 2.68852 0
M  V30 13092 C 1257.05 -1.39517 2.39646 0
M  V30 13093 H 1260 -0.359036 1.54585 0
M  V30 13094 H 1260.02 -2.9356 2.42081 0
M  V30 13095 H 1259.54 -1.51923 3.57129 0
M  V30 13096 H 1257.64 -3.2526 1.8176 0
M  V30 13097 H 1257.75 -3.05412 3.69134 0
M  V30 13098 H 1256.11 -1.69702 1.8993 0
M  V30 13099 H 1256.9 -0.833399 3.33031 0
M  V30 13100 N 1259.34 -1.34755 -0.817236 0
M  V30 13101 C 1260.27 -1.22648 -1.93624 0
M  V30 13102 C 1261.29 -0.152226 -1.62087 0
M  V30 13103 O 1262.48 -0.404578 -1.73855 0
M  V30 13104 C 1259.58 -0.863519 -3.27714 0
M  V30 13105 C 1258.75 -2.03394 -3.87233 0
M  V30 13106 C 1257.81 -1.64846 -4.99712 0
M  V30 13107 O 1256.83 -2.3658 -5.17705 0
M  V30 13108 N 1258.04 -0.565909 -5.77735 0
M  V30 13109 H 1260.8 -2.19051 -2.0454 0
M  V30 13110 H 1258.36 -1.27785 -0.994113 0
M  V30 13111 H 1260.35 -0.58733 -4.00415 0
M  V30 13112 H 1258.92 0.0104987 -3.12598 0
M  V30 13113 H 1258.14 -2.47454 -3.06856 0
M  V30 13114 H 1259.43 -2.81655 -4.23731 0
M  V30 13115 H 1258.83 0.030313 -5.65692 0
M  V30 13116 H 1257.39 -0.349467 -6.50862 0
M  V30 13117 N 1260.82 1.03812 -1.18578 0
M  V30 13118 C 1262.06 1.78618 -0.993725 0
M  V30 13119 C 1262.42 1.86206 0.468133 0
M  V30 13120 O 1263.62 2.57243 0.779714 0
M  V30 13121 C 1261.9 3.17883 -1.63357 0
M  V30 13122 S 1263.45 4.08994 -1.58962 0
M  V30 13123 H 1260.27 0.614997 -0.356792 0
M  V30 13124 H 1262.87 1.24458 -1.50766 0
M  V30 13125 H 1261.58 3.09972 -2.68972 0
M  V30 13126 H 1261.11 3.77119 -1.12003 0
M  V30 13127 H 1263.12 4.9247 -0.6073 0
M  V30 13128 N 1262.3 0.988223 1.22768 0
M  V30 13129 C 1263.23 0.492919 2.23837 0
M  V30 13130 C 1264.24 -0.409467 1.57567 0
M  V30 13131 O 1265.43 -0.21235 1.77232 0
M  V30 13132 C 1262.53 -0.305428 3.37521 0
M  V30 13133 C 1261.7 0.591966 4.33376 0
M  V30 13134 C 1260.76 -0.15387 5.25975 0
M  V30 13135 O 1259.79 0.459153 5.67345 0
M  V30 13136 N 1260.99 -1.43756 5.62418 0
M  V30 13137 H 1263.76 1.36199 2.66965 0
M  V30 13138 H 1261.32 0.862395 1.3702 0
M  V30 13139 H 1263.31 -0.812921 3.96451 0
M  V30 13140 H 1261.88 -1.07556 2.93514 0
M  V30 13141 H 1261.1 1.28019 3.72833 0
M  V30 13142 H 1262.39 1.20327 4.94367 0
M  V30 13143 H 1261.79 -1.95701 5.30771 0
M  V30 13144 H 1260.34 -1.89034 6.23786 0
M  V30 13145 N 1263.78 -1.38018 0.760839 0
M  V30 13146 C 1265.19 -1.82645 0.387022 0
M  V30 13147 C 1265.54 -1.63445 -1.08536 0
M  V30 13148 O 1264.66 -1.13958 -1.83963 0
M  V30 13149 C 1265.26 -3.3158 0.69569 0
M  V30 13150 C 1263.82 -3.74527 0.375063 0
M  V30 13151 C 1262.96 -2.60696 0.94515 0
M  V30 13152 H 1265.91 -1.26644 0.956396 0
M  V30 13153 H 1265.94 -3.80493 -0.0235511 0
M  V30 13154 H 1265.45 -3.45522 1.76737 0
M  V30 13155 H 1263.55 -3.6616 -0.689741 0
M  V30 13156 H 1263.66 -4.71029 0.875685 0
M  V30 13157 H 1262.03 -2.51997 0.370065 0
M  V30 13158 H 1262.81 -2.77434 2.02201 0
M  V30 13159 N 1265.25 -0.510493 -1.49103 0
M  V30 13160 C 1266.5 0.0305831 -2.02077 0
M  V30 13161 C 1266.82 1.36602 -1.39157 0
M  V30 13162 O 1266.09 1.88016 -0.550154 0
M  V30 13163 H 1264.67 0.0142916 -0.746863 0
M  V30 13164 H 1267.33 -0.669895 -1.83026 0
M  V30 13165 H 1266.43 0.153283 -3.11723 0
M  V30 13166 N 1266.73 1.55688 -0.24474 0
M  V30 13167 C 1267.64 2.24933 0.666519 0
M  V30 13168 C 1268.66 1.26471 1.19503 0
M  V30 13169 O 1269.83 1.59342 1.23176 0
M  V30 13170 C 1266.9 2.9336 1.84772 0
M  V30 13171 C 1265.96 4.07225 1.35889 0
M  V30 13172 C 1265.19 4.72381 2.48379 0
M  V30 13173 O 1265.42 4.36605 3.67059 0
M  V30 13174 O 1264.35 5.60933 2.18261 0
M  V30 13175 H 1268.18 3.03513 0.106507 0
M  V30 13176 H 1265.76 1.49394 -0.0133309 0
M  V30 13177 H 1267.64 3.36468 2.53708 0
M  V30 13178 H 1266.32 2.17721 2.39539 0
M  V30 13179 H 1265.22 3.68639 0.636881 0
M  V30 13180 H 1266.56 4.84676 0.857333 0
M  V30 13181 N 1268.21 -0.0283989 1.57574 0
M  V30 13182 C 1269.46 -0.719077 1.89303 0
M  V30 13183 C 1269.78 -1.75325 0.84211 0
M  V30 13184 O 1269.04 -1.95071 -0.15683 0
M  V30 13185 C 1269.34 -1.4247 3.27776 0
M  V30 13186 C 1269 -0.526442 4.47816 0
M  V30 13187 C 1267.67 -0.279038 4.8039 0
M  V30 13188 C 1270.02 0.0937038 5.21116 0
M  V30 13189 C 1267.35 0.597277 5.83652 0
M  V30 13190 C 1269.7 0.957725 6.25308 0
M  V30 13191 C 1268.36 1.21458 6.56357 0
M  V30 13192 H 1267.63 -0.263129 0.692708 0
M  V30 13193 H 1270.28 0.0210252 1.91488 0
M  V30 13194 H 1268.58 -2.23813 3.21582 0
M  V30 13195 H 1270.28 -1.96466 3.49574 0
M  V30 13196 H 1266.87 -0.729426 4.22347 0
M  V30 13197 H 1271.06 -0.084469 4.96228 0
M  V30 13198 H 1266.31 0.804582 6.06083 0
M  V30 13199 H 1270.49 1.44476 6.81249 0
M  V30 13200 H 1268.11 1.89534 7.36193 0
M  V30 13201 N 1269.69 -1.54705 -0.300681 0
M  V30 13202 C 1270.65 -1.84934 -1.35395 0
M  V30 13203 C 1271.65 -0.72226 -1.43666 0
M  V30 13204 O 1272.84 -0.990543 -1.43296 0
M  V30 13205 C 1269.97 -2.02991 -2.73875 0
M  V30 13206 H 1271.17 -2.79063 -1.09835 0
M  V30 13207 H 1268.72 -1.46772 -0.537365 0
M  V30 13208 H 1269.45 -1.11151 -3.04657 0
M  V30 13209 H 1269.24 -2.85027 -2.69262 0
M  V30 13210 H 1270.73 -2.27747 -3.5003 0
M  V30 13211 N 1271.17 0.563888 -1.47167 0
M  V30 13212 C 1272.41 1.33221 -1.55021 0
M  V30 13213 C 1272.77 1.90904 -0.204835 0
M  V30 13214 O 1273.97 2.68334 -0.158201 0
M  V30 13215 C 1272.24 2.41757 -2.63227 0
M  V30 13216 S 1273.8 3.28765 -2.90619 0
M  V30 13217 H 1270.62 0.453623 -0.547491 0
M  V30 13218 H 1273.22 0.646265 -1.84509 0
M  V30 13219 H 1271.93 1.97803 -3.59586 0
M  V30 13220 H 1271.46 3.151 -2.35532 0
M  V30 13221 H 1273.47 4.41065 -2.27323 0
M  V30 13222 N 1272.64 1.35187 0.810078 0
M  V30 13223 C 1273.61 1.27698 1.90331 0
M  V30 13224 C 1274.61 0.189216 1.59683 0
M  V30 13225 O 1275.8 0.442689 1.68481 0
M  V30 13226 C 1272.93 0.974631 3.26671 0
M  V30 13227 H 1274.12 2.24902 1.98392 0
M  V30 13228 H 1271.68 1.1966 1.00554 0
M  V30 13229 H 1272.41 0.0063068 3.24299 0
M  V30 13230 H 1272.2 1.76158 3.50301 0
M  V30 13231 H 1273.69 0.947743 4.06703 0
M  V30 13232 N 1274.12 -1.03182 1.19127 0
M  V30 13233 C 1275.07 -2.13507 0.922899 0
M  V30 13234 C 1276.06 -1.68973 -0.120171 0
M  V30 13235 O 1277.27 -1.79977 0.0288007 0
M  V30 13236 H 1273.65 -0.697516 0.281027 0
M  V30 13237 H 1275.62 -2.33335 1.86003 0
M  V30 13238 C 1274.37 -3.44442 0.474864 0
M  V30 13239 H 1273.69 -3.79125 1.26902 0
M  V30 13240 H 1275.13 -4.22744 0.326162 0
M  V30 13241 C 1273.59 -3.27002 -0.81063 0
M  V30 13242 O 1274.12 -3.55374 -1.87276 0
M  V30 13243 N 1272.32 -2.80303 -0.766713 0
M  V30 13244 H 1271.87 -2.57414 0.0978672 0
M  V30 13245 H 1271.83 -2.69015 -1.62721 0
M  V30 13246 N 1275.6 -0.99472 -1.22242 0
M  V30 13247 C 1276.83 -0.689809 -1.95592 0
M  V30 13248 C 1277.25 0.739321 -1.72961 0
M  V30 13249 O 1276.61 1.50563 -1.00997 0
M  V30 13250 C 1276.66 -1.00367 -3.46351 0
M  V30 13251 O 1275.76 -0.103326 -4.12271 0
M  V30 13252 H 1275.1 -0.257997 -0.611828 0
M  V30 13253 H 1277.63 -1.33219 -1.55286 0
M  V30 13254 H 1277.64 -0.946259 -3.96875 0
M  V30 13255 H 1276.32 -2.04504 -3.62148 0
M  V30 13256 H 1274.89 -0.216374 -3.72272 0
M  V30 13257 N 1277.08 1.37613 -0.768148 0
M  V30 13258 C 1278.49 1.53202 -0.44737 0
M  V30 13259 C 1278.69 1.72736 1.03752 0
M  V30 13260 O 1277.75 1.74667 1.8234 0
M  V30 13261 C 1279.06 2.7306 -1.25931 0
M  V30 13262 C 1280.61 2.8692 -1.25084 0
M  V30 13263 C 1281.09 4.09757 -2.04605 0
M  V30 13264 N 1282.58 4.16862 -2.0194 0
M  V30 13265 C 1283.31 5.10936 -2.60254 0
M  V30 13266 N 1282.81 6.1059 -3.27341 0
M  V30 13267 N 1284.6 5.03393 -2.50104 0
M  V30 13268 H 1276.75 1.23184 -1.7303 0
M  V30 13269 H 1279.02 0.599541 -0.73434 0
M  V30 13270 H 1278.72 2.65078 -2.31141 0
M  V30 13271 H 1278.6 3.66646 -0.886036 0
M  V30 13272 H 1280.98 2.94375 -0.206736 0
M  V30 13273 H 1281.06 1.94303 -1.66373 0
M  V30 13274 H 1280.71 4.03063 -3.09035 0
M  V30 13275 H 1280.64 5.01481 -1.60701 0
M  V30 13276 H 1283.13 3.455 -1.53096 0
M  V30 13277 H 1283.44 6.78893 -3.6922 0
M  V30 13278 H 1281.79 6.10879 -3.31439 0
M  V30 13279 H 1284.98 4.24483 -1.9731 0
M  V30 13280 H 1285.15 5.76524 -2.95844 0
M  V30 13281 N 1278.56 0.518393 1.4883 0
M  V30 13282 C 1279.8 -0.0180482 2.04392 0
M  V30 13283 C 1280.16 -1.32666 1.38794 0
M  V30 13284 O 1281.36 -1.94842 1.85176 0
M  V30 13285 C 1279.63 -0.149457 3.57087 0
M  V30 13286 S 1281.19 -0.637636 4.34142 0
M  V30 13287 H 1278.01 0.00651981 0.71097 0
M  V30 13288 H 1280.61 0.69632 1.82679 0
M  V30 13289 H 1279.32 0.807977 4.02368 0
M  V30 13290 H 1278.85 -0.888549 3.83234 0
M  V30 13291 H 1280.86 -1.90406 4.58214 0
M  V30 13292 N 1280.03 -1.55556 0.252993 0
M  V30 13293 C 1281.28 -1.98267 -0.370571 0
M  V30 13294 C 1281.6 -1.14449 -1.58622 0
M  V30 13295 O 1282.8 -1.472 -2.28132 0
M  V30 13296 C 1281.26 -3.52813 -0.710685 0
M  V30 13297 C 1280.87 -4.45379 0.483908 0
M  V30 13298 C 1282.61 -4.04165 -1.2981 0
M  V30 13299 C 1280.52 -5.91279 0.119611 0
M  V30 13300 H 1279.45 -0.740463 -0.142232 0
M  V30 13301 H 1282.1 -1.8005 0.354169 0
M  V30 13302 H 1280.48 -3.66748 -1.49372 0
M  V30 13303 H 1281.65 -4.43206 1.26116 0
M  V30 13304 H 1279.97 -4.04542 0.986664 0
M  V30 13305 H 1282.57 -5.10696 -1.5841 0
M  V30 13306 H 1282.91 -3.51875 -2.22462 0
M  V30 13307 H 1283.44 -3.93581 -0.577836 0
M  V30 13308 H 1280.18 -6.47619 1.01343 0
M  V30 13309 H 1279.7 -5.96573 -0.621318 0
M  V30 13310 H 1281.38 -6.46322 -0.296052 0
M  V30 13311 N 1281.51 0.0200419 -1.57587 0
M  V30 13312 C 1282.44 1.0456 -2.0396 0
M  V30 13313 C 1283.46 1.31922 -0.953962 0
M  V30 13314 O 1284.65 1.2925 -1.23112 0
M  V30 13315 C 1281.75 2.38514 -2.40758 0
M  V30 13316 C 1280.92 2.3038 -3.71812 0
M  V30 13317 C 1279.98 3.46856 -3.95698 0
M  V30 13318 O 1279 3.25944 -4.66636 0
M  V30 13319 N 1280.21 4.69033 -3.42036 0
M  V30 13320 H 1282.97 0.650282 -2.9256 0
M  V30 13321 H 1280.53 0.207818 -1.60561 0
M  V30 13322 H 1282.52 3.15172 -2.53868 0
M  V30 13323 H 1281.09 2.69859 -1.57781 0
M  V30 13324 H 1280.31 1.38762 -3.6897 0
M  V30 13325 H 1281.6 2.22097 -4.57767 0
M  V30 13326 H 1281 4.88923 -2.84553 0
M  V30 13327 H 1279.56 5.43025 -3.6051 0
M  V30 13328 N 1282.99 1.54862 0.292472 0
M  V30 13329 C 1283.9 1.89472 1.38339 0
M  V30 13330 C 1284.92 0.789783 1.55043 0
M  V30 13331 O 1286.09 1.08705 1.69544 0
M  V30 13332 C 1283.16 2.14244 2.72581 0
M  V30 13333 C 1282.22 3.37913 2.64789 0
M  V30 13334 C 1281.45 3.61494 3.92629 0
M  V30 13335 O 1281.67 2.87931 4.92394 0
M  V30 13336 O 1280.61 4.55019 3.94007 0
M  V30 13337 H 1284.43 2.82298 1.11989 0
M  V30 13338 H 1282.02 1.41161 0.489291 0
M  V30 13339 H 1283.9 2.31689 3.51991 0
M  V30 13340 H 1282.58 1.24603 2.98757 0
M  V30 13341 H 1281.48 3.25823 1.83821 0
M  V30 13342 H 1282.82 4.27711 2.43565 0
M  V30 13343 N 1284.47 -0.556076 1.47464 0
M  V30 13344 C 1285.88 -0.882115 1.33007 0
M  V30 13345 C 1286.08 -1.9892 0.321407 0
M  V30 13346 O 1285.14 -2.51088 -0.266668 0
M  V30 13347 C 1286.45 -1.27428 2.72365 0
M  V30 13348 C 1288 -1.38564 2.80658 0
M  V30 13349 C 1288.48 -1.81136 4.20659 0
M  V30 13350 N 1289.97 -1.88284 4.23206 0
M  V30 13351 C 1290.7 -2.22555 5.28447 0
M  V30 13352 N 1290.2 -2.55432 6.43993 0
M  V30 13353 N 1291.99 -2.23339 5.15826 0
M  V30 13354 H 1284.14 0.17481 2.11679 0
M  V30 13355 H 1286.41 0.0155421 0.947873 0
M  V30 13356 H 1286.11 -0.53463 3.47613 0
M  V30 13357 H 1285.99 -2.23019 3.04208 0
M  V30 13358 H 1288.37 -2.1161 2.05682 0
M  V30 13359 H 1288.45 -0.411588 2.52467 0
M  V30 13360 H 1288.1 -1.08659 4.96141 0
M  V30 13361 H 1288.03 -2.79546 4.46275 0
M  V30 13362 H 1290.52 -1.65259 3.3985 0
M  V30 13363 H 1290.83 -2.80612 7.20053 0
M  V30 13364 H 1289.18 -2.5301 6.47311 0
M  V30 13365 H 1292.37 -1.97094 4.24584 0
M  V30 13366 H 1292.54 -2.49717 5.97951 0
M  V30 13367 N 1285.95 -1.35615 -0.802897 0
M  V30 13368 C 1287.19 -1.30293 -1.5619 0
M  V30 13369 C 1287.55 0.120656 -1.92021 0
M  V30 13370 O 1286.84 1.07195 -1.58807 0
M  V30 13371 C 1287.04 -2.14653 -2.8576 0
M  V30 13372 C 1286.86 -3.65072 -2.62589 0
M  V30 13373 C 1285.63 -4.34294 -2.58295 0
M  V30 13374 C 1287.83 -4.58639 -2.32712 0
M  V30 13375 N 1285.81 -5.70437 -2.2688 0
M  V30 13376 C 1287.19 -5.82931 -2.11168 0
M  V30 13377 C 1289.24 -4.47343 -2.18606 0
M  V30 13378 C 1287.94 -6.97196 -1.76946 0
M  V30 13379 C 1289.97 -5.61462 -1.85781 0
M  V30 13380 C 1289.33 -6.84784 -1.65075 0
M  V30 13381 H 1285.43 -0.532038 -0.573114 0
M  V30 13382 H 1288.01 -1.70533 -0.939498 0
M  V30 13383 H 1286.19 -1.76679 -3.45889 0
M  V30 13384 H 1287.92 -2.00823 -3.51358 0
M  V30 13385 H 1284.67 -3.86947 -2.73073 0
M  V30 13386 H 1285.1 -6.42302 -2.13956 0
M  V30 13387 H 1289.74 -3.52599 -2.33311 0
M  V30 13388 H 1287.46 -7.91904 -1.60979 0
M  V30 13389 H 1291.04 -5.54677 -1.7557 0
M  V30 13390 H 1289.92 -7.71594 -1.40046 0
M  V30 13391 N 1287.43 1.02549 -1.19673 0
M  V30 13392 C 1288.37 2.109 -0.937536 0
M  V30 13393 C 1289.34 1.65599 0.128923 0
M  V30 13394 O 1290.53 1.90795 -0.0139366 0
M  V30 13395 C 1287.67 3.4166 -0.48602 0
M  V30 13396 C 1286.78 4.0049 -1.61963 0
M  V30 13397 C 1285.92 5.19273 -1.11931 0
M  V30 13398 C 1284.95 5.70166 -2.22659 0
M  V30 13399 N 1284.09 6.80221 -1.73909 0
M  V30 13400 H 1288.93 2.32408 -1.86523 0
M  V30 13401 H 1286.47 1.13982 -0.929869 0
M  V30 13402 H 1288.43 4.16693 -0.205614 0
M  V30 13403 H 1287.06 3.20253 0.404678 0
M  V30 13404 H 1286.11 3.22638 -2.01516 0
M  V30 13405 H 1287.42 4.34273 -2.45374 0
M  V30 13406 H 1286.57 6.01478 -0.794336 0
M  V30 13407 H 1285.31 4.87033 -0.254972 0
M  V30 13408 H 1284.32 4.86572 -2.55983 0
M  V30 13409 H 1285.54 6.04444 -3.09554 0
M  V30 13410 H 1283.49 6.49826 -0.897889 0
M  V30 13411 H 1283.41 7.13149 -2.50907 0
M  V30 13412 H 1284.67 7.66011 -1.44386 0
M  V30 13413 N 1288.9 1.00119 1.21713 0
M  V30 13414 C 1290.14 0.690044 1.924 0
M  V30 13415 C 1290.51 -0.764695 1.76115 0
M  V30 13416 O 1291.71 -1.18764 2.4114 0
M  V30 13417 C 1289.98 1.09491 3.40215 0
M  V30 13418 S 1291.54 0.903392 4.294 0
M  V30 13419 H 1288.36 0.252037 0.66483 0
M  V30 13420 H 1290.96 1.28521 1.47318 0
M  V30 13421 H 1289.66 2.14987 3.49584 0
M  V30 13422 H 1289.19 0.491878 3.90313 0
M  V30 13423 H 1291.21 -0.201597 4.9579 0
M  V30 13424 N 1290.38 -1.37203 0.775435 0
M  V30 13425 C 1291.66 -1.93783 0.266005 0
M  V30 13426 C 1292.04 -1.70875 -1.23956 0
M  V30 13427 O 1291.39 -1.05965 -2.02444 0
M  V30 13428 C 1291.6 -3.43018 0.643404 0
M  V30 13429 C 1292.94 -4.20119 0.615267 0
M  V30 13430 O 1293.97 -3.51396 0.583018 0
M  V30 13431 O 1292.83 -5.42673 0.645637 0
M  V30 13432 H 1289.92 -0.824649 0.0623107 0
M  V30 13433 H 1292.47 -1.46468 0.857036 0
M  V30 13434 H 1291.24 -3.5329 1.68232 0
M  V30 13435 H 1290.86 -3.97592 0.0255138 0
M  V30 13436 N 1291.86 -0.526279 -1.48553 0
M  V30 13437 C 1293.11 0.00914839 -2.02098 0
M  V30 13438 C 1293.43 1.35119 -1.40598 0
M  V30 13439 O 1292.7 1.87422 -0.570065 0
M  V30 13440 H 1291.28 0.00636935 -0.746973 0
M  V30 13441 H 1293.94 -0.689269 -1.82305 0
M  V30 13442 H 1293.04 0.120212 -3.11868 0
M  V30 13443 N 1293.34 1.5542 -0.261239 0
M  V30 13444 C 1294.61 1.91243 0.41056 0
M  V30 13445 C 1294.99 1.1838 1.74784 0
M  V30 13446 O 1294.34 0.306013 2.26442 0
M  V30 13447 C 1294.55 3.44404 0.56453 0
M  V30 13448 C 1295.9 4.15927 0.853827 0
M  V30 13449 O 1296.92 3.50222 0.649861 0
M  V30 13450 O 1295.78 5.32175 1.24308 0
M  V30 13451 H 1292.88 0.796491 0.222555 0
M  V30 13452 H 1295.42 1.66912 -0.306367 0
M  V30 13453 H 1294.2 3.89478 -0.377134 0
M  V30 13454 H 1293.82 3.74644 1.33145 0
M  V30 13455 N 1294.82 -0.0116844 1.57596 0
M  V30 13456 C 1295.76 -1.02514 2.08791 0
M  V30 13457 C 1296.76 -1.36341 1.00536 0
M  V30 13458 O 1297.96 -1.35042 1.19011 0
M  V30 13459 H 1294.34 -0.348201 0.666528 0
M  V30 13460 H 1296.31 -0.567698 2.9295 0
M  V30 13461 C 1295.06 -2.312 2.59696 0
M  V30 13462 H 1294.38 -2.06036 3.42621 0
M  V30 13463 H 1295.82 -3.00417 2.99208 0
M  V30 13464 C 1294.28 -3.01372 1.50586 0
M  V30 13465 O 1294.81 -3.91896 0.882046 0
M  V30 13466 N 1293.02 -2.62997 1.23616 0
M  V30 13467 H 1292.56 -1.89466 1.74529 0
M  V30 13468 H 1292.52 -3.10264 0.508289 0
M  V30 13469 N 1296.29 -1.55015 -0.284256 0
M  V30 13470 C 1297.57 -1.6579 -1.03794 0
M  V30 13471 C 1297.95 -0.517029 -2.04671 0
M  V30 13472 O 1297.3 0.484287 -2.23309 0
M  V30 13473 C 1297.51 -3.04527 -1.70483 0
M  V30 13474 C 1298.86 -3.61903 -2.22062 0
M  V30 13475 O 1299.88 -3.07087 -1.80488 0
M  V30 13476 O 1298.74 -4.57917 -2.98286 0
M  V30 13477 H 1295.83 -0.672906 -0.480757 0
M  V30 13478 H 1298.38 -1.67357 -0.281009 0
M  V30 13479 H 1297.15 -3.79004 -0.973238 0
M  V30 13480 H 1296.77 -3.0681 -2.5289 0
M  V30 13481 N 1297.77 0.548248 -1.47757 0
M  V30 13482 C 1299.01 1.31569 -1.56426 0
M  V30 13483 C 1299.38 1.90676 -0.225072 0
M  V30 13484 O 1300.58 2.68151 -0.186652 0
M  V30 13485 C 1298.85 2.38951 -2.65776 0
M  V30 13486 S 1300.41 3.25664 -2.94089 0
M  V30 13487 H 1297.22 0.447791 -0.552272 0
M  V30 13488 H 1299.83 0.626659 -1.85184 0
M  V30 13489 H 1298.53 1.93978 -3.61664 0
M  V30 13490 H 1298.06 3.12584 -2.38861 0
M  V30 13491 H 1300.08 4.38629 -2.31989 0
M  V30 13492 N 1299.25 1.36039 0.795694 0
M  V30 13493 C 1300.18 1.32528 1.92246 0
M  V30 13494 C 1301.16 0.197805 1.68946 0
M  V30 13495 O 1302.35 0.394474 1.90151 0
M  V30 13496 C 1299.48 1.10748 3.29169 0
M  V30 13497 C 1298.43 2.20253 3.66978 0
M  V30 13498 C 1297.76 1.83624 5.02181 0
M  V30 13499 C 1299.06 3.62296 3.76216 0
M  V30 13500 H 1300.75 2.2681 1.95442 0
M  V30 13501 H 1298.3 1.09181 0.938908 0
M  V30 13502 H 1300.25 1.06929 4.07608 0
M  V30 13503 H 1298.97 0.129141 3.26345 0
M  V30 13504 H 1297.63 2.23187 2.90832 0
M  V30 13505 H 1297.28 0.843804 4.95872 0
M  V30 13506 H 1296.98 2.56935 5.28449 0
M  V30 13507 H 1298.5 1.81349 5.83048 0
M  V30 13508 H 1299.92 3.61623 4.44861 0
M  V30 13509 H 1298.31 4.34459 4.13963 0
M  V30 13510 H 1299.38 3.97657 2.77483 0
M  V30 13511 N 1300.73 -1.01913 1.20215 0
M  V30 13512 C 1302.01 -1.7262 0.919867 0
M  V30 13513 C 1302.39 -2.03203 -0.572001 0
M  V30 13514 O 1301.73 -1.69448 -1.53296 0
M  V30 13515 C 1301.94 -2.9959 1.79016 0
M  V30 13516 C 1303.29 -3.72905 2.03045 0
M  V30 13517 O 1304.32 -3.0954 1.76249 0
M  V30 13518 O 1303.17 -4.86844 2.48285 0
M  V30 13519 H 1300.27 -0.752194 0.343705 0
M  V30 13520 H 1302.81 -1.07783 1.31076 0
M  V30 13521 H 1301.59 -2.73292 2.80048 0
M  V30 13522 H 1301.21 -3.72168 1.39918 0
M  V30 13523 N 1302.21 -1.00763 -1.2118 0
M  V30 13524 C 1303.15 -0.563428 -2.25673 0
M  V30 13525 C 1304.15 0.393342 -1.6477 0
M  V30 13526 O 1305.35 0.264246 -1.7805 0
M  V30 13527 H 1301.73 -0.163862 -0.73393 0
M  V30 13528 H 1303.7 -1.45585 -2.60476 0
M  V30 13529 C 1302.45 0.0915599 -3.47579 0
M  V30 13530 H 1301.77 -0.635628 -3.94715 0
M  V30 13531 H 1303.21 0.36561 -4.22421 0
M  V30 13532 C 1301.67 1.33159 -3.09468 0
M  V30 13533 O 1302.2 2.42571 -3.20191 0
M  V30 13534 N 1300.41 1.21231 -2.64105 0
M  V30 13535 H 1299.95 0.322021 -2.55579 0
M  V30 13536 H 1299.91 2.04301 -2.38974 0
M  V30 13537 N 1303.68 1.3679 -0.7827 0
M  V30 13538 C 1304.91 2.04206 -0.362571 0
M  V30 13539 C 1305.33 1.58637 1.01074 0
M  V30 13540 O 1304.69 0.751692 1.64983 0
M  V30 13541 C 1304.74 3.58062 -0.4271 0
M  V30 13542 O 1303.84 4.08463 0.56845 0
M  V30 13543 H 1303.19 0.645638 -0.155073 0
M  V30 13544 H 1305.72 1.74883 -1.06194 0
M  V30 13545 H 1305.73 4.0698 -0.288298 0
M  V30 13546 H 1304.4 3.90582 -1.42893 0
M  V30 13547 H 1302.98 3.70835 0.391863 0
M  V30 13548 N 1305.16 0.53415 1.48272 0
M  V30 13549 C 1306.44 -0.0630181 1.95498 0
M  V30 13550 C 1306.82 -1.50877 1.47646 0
M  V30 13551 O 1306.17 -2.17358 0.704829 0
M  V30 13552 C 1306.38 0.0585475 3.48951 0
M  V30 13553 C 1307.73 -0.0985978 4.24486 0
M  V30 13554 O 1308.75 -0.0150438 3.56197 0
M  V30 13555 O 1307.61 -0.274356 5.45811 0
M  V30 13556 H 1304.7 -0.0769841 0.823409 0
M  V30 13557 H 1307.25 0.599043 1.58775 0
M  V30 13558 H 1306.02 1.06549 3.76514 0
M  V30 13559 H 1305.64 -0.642175 3.9238 0
M  V30 13560 N 1306.64 -1.55279 0.269478 0
M  V30 13561 C 1307.55 -2.25965 -0.63065 0
M  V30 13562 C 1308.57 -1.28357 -1.17476 0
M  V30 13563 O 1309.74 -1.61281 -1.20625 0
M  V30 13564 C 1306.81 -2.96263 -1.80081 0
M  V30 13565 C 1305.87 -4.09336 -1.29394 0
M  V30 13566 C 1305.1 -4.76272 -2.40833 0
M  V30 13567 O 1305.32 -4.42389 -3.60066 0
M  V30 13568 O 1304.26 -5.64334 -2.09309 0
M  V30 13569 H 1308.08 -3.03644 -0.0582069 0
M  V30 13570 H 1305.67 -1.49354 0.0370966 0
M  V30 13571 H 1307.55 -3.40461 -2.48322 0
M  V30 13572 H 1306.23 -2.21505 -2.36045 0
M  V30 13573 H 1305.13 -3.69605 -0.578154 0
M  V30 13574 H 1306.47 -4.85978 -0.780117 0
M  V30 13575 N 1308.12 0.00332656 -1.576 0
M  V30 13576 C 1309.08 0.980628 -2.07163 0
M  V30 13577 C 1310.08 1.27455 -0.980402 0
M  V30 13578 O 1311.27 1.22029 -1.24317 0
M  V30 13579 C 1308.4 2.30647 -2.51028 0
M  V30 13580 H 1309.6 0.551982 -2.94776 0
M  V30 13581 H 1307.15 0.250728 -1.54276 0
M  V30 13582 H 1307.88 2.78207 -1.66647 0
M  V30 13583 H 1307.67 2.10635 -3.30719 0
M  V30 13584 H 1309.16 3.00761 -2.89711 0
M  V30 13585 N 1309.6 1.55164 0.276031 0
M  V30 13586 C 1311.01 1.66367 0.847293 0
M  V30 13587 C 1311.36 0.588692 1.8716 0
M  V30 13588 O 1310.48 -0.27035 2.14705 0
M  V30 13589 C 1311.08 3.01593 1.5436 0
M  V30 13590 C 1309.64 3.14833 2.06293 0
M  V30 13591 C 1308.78 2.62152 0.903959 0
M  V30 13592 H 1311.74 1.58613 0.0524478 0
M  V30 13593 H 1311.76 2.94412 2.41043 0
M  V30 13594 H 1311.27 3.7981 0.797849 0
M  V30 13595 H 1309.37 2.41384 2.83839 0
M  V30 13596 H 1309.48 4.21353 2.28032 0
M  V30 13597 H 1307.85 2.19233 1.29649 0
M  V30 13598 H 1308.63 3.4287 0.171765 0
M  V30 13599 N 1311.07 -0.540404 1.48045 0
M  V30 13600 C 1312.04 -1.62813 1.61322 0
M  V30 13601 C 1313.04 -1.53243 0.487161 0
M  V30 13602 O 1314.23 -1.571 0.752684 0
M  V30 13603 C 1311.36 -3.02408 1.5736 0
M  V30 13604 H 1312.55 -1.52385 2.583 0
M  V30 13605 H 1310.11 -0.761654 1.36486 0
M  V30 13606 H 1310.84 -3.18353 0.618195 0
M  V30 13607 H 1310.63 -3.10763 2.39099 0
M  V30 13608 H 1312.12 -3.8151 1.69822 0
M  V30 13609 N 1312.55 -1.36459 -0.788468 0
M  V30 13610 C 1313.48 -1.33545 -1.91541 0
M  V30 13611 C 1314.46 -0.206762 -1.68839 0
M  V30 13612 O 1315.65 -0.404553 -1.89939 0
M  V30 13613 C 1312.78 -1.12492 -3.28577 0
M  V30 13614 C 1311.73 -2.22196 -3.65805 0
M  V30 13615 C 1311.06 -1.86285 -5.01201 0
M  V30 13616 C 1312.36 -3.64286 -3.7429 0
M  V30 13617 H 1314.05 -2.27844 -1.94236 0
M  V30 13618 H 1311.6 -1.09677 -0.933105 0
M  V30 13619 H 1313.55 -1.09089 -4.07035 0
M  V30 13620 H 1312.28 -0.146446 -3.26272 0
M  V30 13621 H 1310.93 -2.24727 -2.89644 0
M  V30 13622 H 1310.58 -0.87009 -4.95417 0
M  V30 13623 H 1310.28 -2.59734 -5.27079 0
M  V30 13624 H 1311.81 -1.84439 -5.82078 0
M  V30 13625 H 1313.22 -3.63977 -4.42937 0
M  V30 13626 H 1311.62 -4.36648 -4.11653 0
M  V30 13627 H 1312.69 -3.99123 -2.75371 0
M  V30 13628 N 1314.03 1.01274 -1.20754 0
M  V30 13629 C 1315.27 1.7647 -1.03139 0
M  V30 13630 C 1315.63 1.87157 0.428531 0
M  V30 13631 O 1316.84 2.58839 0.724973 0
M  V30 13632 C 1315.11 3.14346 -1.70063 0
M  V30 13633 S 1316.67 4.05531 -1.67602 0
M  V30 13634 H 1313.48 0.60729 -0.369756 0
M  V30 13635 H 1316.09 1.21232 -1.53372 0
M  V30 13636 H 1314.79 3.04197 -2.75486 0
M  V30 13637 H 1314.32 3.74659 -1.19977 0
M  V30 13638 H 1316.34 4.91071 -0.711623 0
M  V30 13639 N 1315.51 1.01404 1.20644 0
M  V30 13640 C 1316.46 0.552956 2.21193 0
M  V30 13641 C 1317.44 -0.390324 1.56094 0
M  V30 13642 O 1318.64 -0.213705 1.75705 0
M  V30 13643 C 1315.76 -0.10995 3.43124 0
M  V30 13644 C 1314.85 0.854886 4.15394 0
M  V30 13645 N 1315.24 2.01137 4.64088 0
M  V30 13646 C 1313.54 0.675168 4.4086 0
M  V30 13647 C 1314.24 2.6187 5.19422 0
M  V30 13648 N 1313.22 1.89952 5.09332 0
M  V30 13649 H 1317.02 1.43467 2.56504 0
M  V30 13650 H 1314.53 0.87905 1.36552 0
M  V30 13651 H 1316.53 -0.457802 4.14379 0
M  V30 13652 H 1315.19 -0.987534 3.09318 0
M  V30 13653 H 1316.2 2.3914 4.59383 0
M  V30 13654 H 1312.88 -0.154577 4.17214 0
M  V30 13655 H 1314.27 3.59727 5.67491 0
M  V30 13656 N 1316.99 -1.36373 0.789944 0
M  V30 13657 C 1317.92 -2.2873 0.146642 0
M  V30 13658 C 1318.93 -1.49503 -0.644419 0
M  V30 13659 O 1320.12 -1.71939 -0.479515 0
M  V30 13660 C 1317.22 -3.28945 -0.815369 0
M  V30 13661 C 1316.39 -4.37337 -0.0742515 0
M  V30 13662 C 1315.45 -5.17511 -0.952284 0
M  V30 13663 O 1314.48 -5.67726 -0.409336 0
M  V30 13664 N 1315.68 -5.34001 -2.27648 0
M  V30 13665 H 1318.45 -2.84578 0.939978 0
M  V30 13666 H 1316.01 -1.48545 0.643898 0
M  V30 13667 H 1318 -3.79469 -1.40661 0
M  V30 13668 H 1316.57 -2.73734 -1.50958 0
M  V30 13669 H 1315.79 -3.8797 0.698068 0
M  V30 13670 H 1317.08 -5.06919 0.437148 0
M  V30 13671 H 1316.48 -4.94819 -2.74173 0
M  V30 13672 H 1315.03 -5.87766 -2.81735 0
M  V30 13673 N 1318.47 -0.542005 -1.47987 0
M  V30 13674 C 1319.42 0.234244 -2.26794 0
M  V30 13675 C 1320.4 0.899085 -1.33436 0
M  V30 13676 O 1321.59 0.799904 -1.57894 0
M  V30 13677 C 1318.72 1.27312 -3.18821 0
M  V30 13678 C 1317.81 0.612457 -4.19654 0
M  V30 13679 N 1318.2 -0.30875 -5.04857 0
M  V30 13680 C 1316.5 0.868224 -4.37468 0
M  V30 13681 C 1317.2 -0.691052 -5.77581 0
M  V30 13682 N 1316.17 -0.0493574 -5.43578 0
M  V30 13683 H 1319.97 -0.47427 -2.90048 0
M  V30 13684 H 1317.49 -0.360868 -1.5834 0
M  V30 13685 H 1319.49 1.84305 -3.73948 0
M  V30 13686 H 1318.15 1.98288 -2.57122 0
M  V30 13687 H 1319.16 -0.682054 -5.13389 0
M  V30 13688 H 1315.83 1.56765 -3.86951 0
M  V30 13689 H 1317.22 -1.44713 -6.56131 0
M  V30 13690 N 1319.94 1.55134 -0.277709 0
M  V30 13691 C 1321.17 2.04061 0.341601 0
M  V30 13692 C 1321.59 1.15597 1.49274 0
M  V30 13693 O 1320.94 0.176625 1.81643 0
M  V30 13694 C 1320.99 3.52074 0.820139 0
M  V30 13695 O 1320.72 4.37171 -0.28516 0
M  V30 13696 C 1322.22 4.16899 1.507 0
M  V30 13697 H 1319.44 0.666501 0.0775708 0
M  V30 13698 H 1321.98 2.00336 -0.410559 0
M  V30 13699 H 1320.14 3.56233 1.52238 0
M  V30 13700 H 1320.55 5.24434 0.0832022 0
M  V30 13701 H 1322.02 5.22061 1.79323 0
M  V30 13702 H 1322.5 3.65227 2.43939 0
M  V30 13703 H 1323.11 4.16749 0.848541 0
M  V30 13704 N 1321.42 0.00503138 1.57599 0
M  V30 13705 C 1322.66 -0.683203 1.92644 0
M  V30 13706 C 1323.03 -1.70657 0.879778 0
M  V30 13707 O 1324.23 -2.44555 1.11563 0
M  V30 13708 C 1322.5 -1.30509 3.32719 0
M  V30 13709 S 1324.06 -2.01775 3.89657 0
M  V30 13710 H 1320.87 -0.225551 0.674276 0
M  V30 13711 H 1323.48 0.0629255 1.95399 0
M  V30 13712 H 1322.18 -0.547509 4.06731 0
M  V30 13713 H 1321.71 -2.08904 3.3335 0
M  V30 13714 H 1323.73 -3.29348 3.7114 0
M  V30 13715 N 1322.9 -1.55308 -0.267798 0
M  V30 13716 C 1324.31 -1.66814 -0.838459 0
M  V30 13717 C 1324.66 -0.598609 -1.86845 0
M  V30 13718 O 1323.79 0.25896 -2.14845 0
M  V30 13719 C 1324.38 -3.02408 -1.52758 0
M  V30 13720 C 1322.94 -3.15923 -2.04621 0
M  V30 13721 C 1322.09 -2.62628 -0.890044 0
M  V30 13722 H 1325.04 -1.58639 -0.0440354 0
M  V30 13723 H 1325.06 -2.95687 -2.39478 0
M  V30 13724 H 1324.57 -3.80228 -0.777695 0
M  V30 13725 H 1322.67 -2.42886 -2.82555 0
M  V30 13726 H 1322.79 -4.22556 -2.25794 0
M  V30 13727 H 1321.15 -2.19918 -1.28485 0
M  V30 13728 H 1321.93 -3.42956 -0.153579 0
M  V30 13729 N 1324.38 0.532545 -1.4833 0
M  V30 13730 C 1325.6 1.31809 -1.60129 0
M  V30 13731 C 1326.03 1.86283 -0.260807 0
M  V30 13732 O 1325.39 1.6427 0.767137 0
M  V30 13733 C 1325.43 2.44661 -2.64903 0
M  V30 13734 O 1324.54 3.47622 -2.21885 0
M  V30 13735 H 1323.88 0.390492 -0.53704 0
M  V30 13736 H 1326.41 0.641068 -1.94297 0
M  V30 13737 H 1326.42 2.90883 -2.86096 0
M  V30 13738 H 1325.09 2.04373 -3.62222 0
M  V30 13739 H 1323.67 3.07536 -2.10894 0
M  V30 13740 N 1325.86 1.36875 0.78122 0
M  V30 13741 C 1327.13 1.22101 1.52809 0
M  V30 13742 C 1327.51 -0.189402 2.10249 0
M  V30 13743 O 1326.86 -1.19598 1.94701 0
M  V30 13744 C 1327.07 2.30953 2.61652 0
M  V30 13745 C 1328.42 2.68027 3.29313 0
M  V30 13746 O 1329.44 2.30058 2.71941 0
M  V30 13747 O 1328.3 3.33407 4.33015 0
M  V30 13748 H 1325.4 0.4759 0.676349 0
M  V30 13749 H 1327.94 1.48629 0.818998 0
M  V30 13750 H 1326.71 3.25443 2.17261 0
M  V30 13751 H 1326.34 2.05837 3.40172 0
M  V30 13752 N 1327.33 -1.00632 1.21289 0
M  V30 13753 C 1328.75 -1.26744 0.969956 0
M  V30 13754 C 1328.95 -1.98534 -0.344449 0
M  V30 13755 O 1328.01 -2.28687 -1.07044 0
M  V30 13756 C 1329.32 -2.09238 2.15963 0
M  V30 13757 C 1330.87 -2.22469 2.20174 0
M  V30 13758 C 1331.34 -3.08344 3.38656 0
M  V30 13759 N 1332.83 -3.15932 3.38734 0
M  V30 13760 C 1333.57 -3.82632 4.2706 0
M  V30 13761 N 1333.06 -4.51371 5.25582 0
M  V30 13762 N 1334.86 -3.79259 4.14872 0
M  V30 13763 H 1327.01 -0.524626 2.05819 0
M  V30 13764 H 1329.27 -0.294231 0.901184 0
M  V30 13765 H 1328.98 -1.63835 3.11209 0
M  V30 13766 H 1328.85 -3.09987 2.14914 0
M  V30 13767 H 1331.24 -2.67091 1.25485 0
M  V30 13768 H 1331.32 -1.21194 2.25268 0
M  V30 13769 H 1330.96 -2.64425 4.33638 0
M  V30 13770 H 1330.89 -4.0973 3.30801 0
M  V30 13771 H 1333.38 -2.66998 2.67434 0
M  V30 13772 H 1333.7 -4.99966 5.89283 0
M  V30 13773 H 1332.04 -4.50162 5.29508 0
M  V30 13774 H 1335.23 -3.2471 3.37166 0
M  V30 13775 H 1335.41 -4.30963 4.83916 0
M  V30 13776 N 1328.81 -1.02043 -1.20104 0
M  V30 13777 C 1330.06 -0.711973 -1.89571 0
M  V30 13778 C 1330.39 0.758725 -1.79091 0
M  V30 13779 O 1329.64 1.56728 -1.17195 0
M  V30 13780 C 1329.94 -1.098 -3.40116 0
M  V30 13781 C 1329.61 -2.56555 -3.70797 0
M  V30 13782 C 1328.27 -2.96653 -3.78881 0
M  V30 13783 C 1330.62 -3.51543 -3.84795 0
M  V30 13784 C 1327.95 -4.30669 -3.98424 0
M  V30 13785 C 1330.3 -4.85252 -4.05849 0
M  V30 13786 C 1328.96 -5.2505 -4.12163 0
M  V30 13787 H 1328.23 -0.260529 -0.69369 0
M  V30 13788 H 1330.88 -1.28172 -1.42282 0
M  V30 13789 H 1329.19 -0.446738 -3.89245 0
M  V30 13790 H 1330.88 -0.836985 -3.92168 0
M  V30 13791 H 1327.47 -2.24488 -3.65107 0
M  V30 13792 H 1331.66 -3.21721 -3.77901 0
M  V30 13793 H 1326.91 -4.61052 -4.01548 0
M  V30 13794 H 1331.09 -5.58777 -4.15622 0
M  V30 13795 H 1328.71 -6.28908 -4.27059 0
M  V30 13796 N 1330.29 1.35952 -0.797165 0
M  V30 13797 C 1331.24 2.29941 -0.198995 0
M  V30 13798 C 1332.21 1.52355 0.661592 0
M  V30 13799 O 1333.39 1.80832 0.60865 0
M  V30 13800 C 1330.53 3.38846 0.654033 0
M  V30 13801 C 1329.65 4.31409 -0.225949 0
M  V30 13802 C 1328.78 5.27401 0.634188 0
M  V30 13803 C 1327.82 6.11602 -0.246773 0
M  V30 13804 N 1326.96 6.9976 0.57279 0
M  V30 13805 H 1331.8 2.80508 -1.00594 0
M  V30 13806 H 1329.33 1.38064 -0.507617 0
M  V30 13807 H 1331.29 4.00643 1.16367 0
M  V30 13808 H 1329.92 2.89578 1.42633 0
M  V30 13809 H 1328.97 3.70699 -0.853616 0
M  V30 13810 H 1330.29 4.90532 -0.904416 0
M  V30 13811 H 1329.44 5.94525 1.20933 0
M  V30 13812 H 1328.18 4.68751 1.34625 0
M  V30 13813 H 1327.18 5.43434 -0.834258 0
M  V30 13814 H 1328.41 6.72329 -0.956559 0
M  V30 13815 H 1326.35 6.43609 1.26901 0
M  V30 13816 H 1326.27 7.55985 -0.0478303 0
M  V30 13817 H 1327.54 7.71244 1.13151 0
M  V30 13818 N 1331.77 0.549846 1.47697 0
M  V30 13819 C 1333.01 0.0253105 2.04384 0
M  V30 13820 C 1333.37 -1.29692 1.41576 0
M  V30 13821 O 1334.57 -1.9087 1.89267 0
M  V30 13822 C 1332.84 -0.0736795 3.57324 0
M  V30 13823 S 1334.4 -0.545405 4.35397 0
M  V30 13824 H 1331.22 0.0215991 0.710672 0
M  V30 13825 H 1333.82 0.734912 1.81161 0
M  V30 13826 H 1332.53 0.893144 4.00563 0
M  V30 13827 H 1332.06 -0.80706 3.85033 0
M  V30 13828 H 1334.07 -1.80644 4.6215 0
M  V30 13829 N 1333.25 -1.54984 0.285932 0
M  V30 13830 C 1334.16 -2.26621 -0.606648 0
M  V30 13831 C 1335.17 -1.29595 -1.16108 0
M  V30 13832 O 1336.35 -1.62551 -1.18908 0
M  V30 13833 C 1333.41 -2.98156 -1.76929 0
M  V30 13834 C 1332.47 -4.10685 -1.25045 0
M  V30 13835 C 1331.71 -4.788 -2.35768 0
M  V30 13836 O 1331.93 -4.46183 -3.55354 0
M  V30 13837 O 1330.86 -5.66523 -2.03312 0
M  V30 13838 H 1334.69 -3.03689 -0.0259981 0
M  V30 13839 H 1332.28 -1.49306 0.0529355 0
M  V30 13840 H 1334.16 -3.43076 -2.44697 0
M  V30 13841 H 1332.83 -2.23996 -2.33683 0
M  V30 13842 H 1331.74 -3.70198 -0.538919 0
M  V30 13843 H 1333.07 -4.86778 -0.728528 0
M  V30 13844 N 1334.72 -0.0133892 -1.57594 0
M  V30 13845 C 1335.67 0.991796 -2.10395 0
M  V30 13846 C 1336.67 1.34724 -1.02693 0
M  V30 13847 O 1337.87 1.33131 -1.21145 0
M  V30 13848 H 1334.25 0.337553 -0.671984 0
M  V30 13849 H 1336.22 0.52102 -2.93816 0
M  V30 13850 C 1334.97 2.27039 -2.63341 0
M  V30 13851 H 1334.29 2.00559 -3.45855 0
M  V30 13852 H 1335.73 2.95619 -3.0395 0
M  V30 13853 C 1334.19 2.98939 -1.55362 0
M  V30 13854 O 1334.72 3.90444 -0.944282 0
M  V30 13855 N 1332.93 2.60997 -1.27784 0
M  V30 13856 H 1332.47 1.86666 -1.77521 0
M  V30 13857 H 1332.43 3.09416 -0.557585 0
M  V30 13858 N 1336.2 1.55448 0.259558 0
M  V30 13859 C 1337.15 1.90056 1.34096 0
M  V30 13860 C 1338.14 0.778267 1.50464 0
M  V30 13861 O 1339.35 0.962758 1.52089 0
M  V30 13862 H 1335.73 0.603424 0.448758 0
M  V30 13863 H 1337.7 2.80365 1.02166 0
M  V30 13864 C 1336.45 2.20074 2.69189 0
M  V30 13865 H 1335.77 3.05926 2.57389 0
M  V30 13866 H 1337.21 2.48201 3.43762 0
M  V30 13867 C 1335.67 1.01281 3.21316 0
M  V30 13868 O 1336.2 0.2543 4.00894 0
M  V30 13869 N 1334.4 0.806855 2.79174 0
M  V30 13870 H 1333.95 1.42536 2.14572 0
M  V30 13871 H 1333.91 0.0136714 3.14397 0
M  V30 13872 N 1337.68 -0.524672 1.4861 0
M  V30 13873 C 1339.1 -0.853703 1.34848 0
M  V30 13874 C 1339.3 -1.98194 0.363529 0
M  V30 13875 O 1338.35 -2.51597 -0.213348 0
M  V30 13876 C 1339.67 -1.21622 2.75006 0
M  V30 13877 C 1341.21 -1.3258 2.83534 0
M  V30 13878 C 1341.69 -1.72172 4.24406 0
M  V30 13879 N 1343.18 -1.79265 4.27105 0
M  V30 13880 C 1343.91 -2.11296 5.33049 0
M  V30 13881 N 1343.41 -2.41714 6.49266 0
M  V30 13882 N 1345.2 -2.12347 5.20447 0
M  V30 13883 H 1337.35 0.219671 2.11261 0
M  V30 13884 H 1339.62 0.0356444 0.94733 0
M  V30 13885 H 1339.32 -0.460776 3.48669 0
M  V30 13886 H 1339.2 -2.16516 3.0887 0
M  V30 13887 H 1341.58 -2.072 2.10124 0
M  V30 13888 H 1341.67 -0.357943 2.53283 0
M  V30 13889 H 1341.31 -0.981108 4.98334 0
M  V30 13890 H 1341.24 -2.70017 4.52104 0
M  V30 13891 H 1343.73 -1.58013 3.43279 0
M  V30 13892 H 1344.04 -2.65276 7.25843 0
M  V30 13893 H 1342.39 -2.39222 6.52532 0
M  V30 13894 H 1345.58 -1.88044 4.28669 0
M  V30 13895 H 1345.75 -2.36978 6.03113 0
M  V30 13896 N 1339.16 -1.37287 -0.77395 0
M  V30 13897 C 1340.4 -1.33771 -1.54547 0
M  V30 13898 C 1340.76 0.0778134 -1.91842 0
M  V30 13899 O 1341.96 0.237682 -2.67747 0
M  V30 13900 C 1340.23 -2.24859 -2.77801 0
M  V30 13901 S 1341.79 -2.39172 -3.67889 0
M  V30 13902 H 1338.61 -0.474918 -0.529126 0
M  V30 13903 H 1341.21 -1.73015 -0.910287 0
M  V30 13904 H 1339.92 -3.2663 -2.48478 0
M  V30 13905 H 1339.45 -1.86691 -3.4628 0
M  V30 13906 H 1341.46 -1.60068 -4.69673 0
M  V30 13907 N 1340.64 0.999871 -1.21821 0
M  V30 13908 C 1341.89 1.73257 -1.03271 0
M  V30 13909 C 1342.2 1.90736 0.433502 0
M  V30 13910 O 1343.4 2.61263 0.738511 0
M  V30 13911 C 1341.86 3.11697 -1.79925 0
M  V30 13912 C 1341.47 3.02173 -3.3075 0
M  V30 13913 C 1343.21 3.89061 -1.698 0
M  V30 13914 C 1341.12 4.35725 -3.99872 0
M  V30 13915 H 1340.05 0.649595 -0.382809 0
M  V30 13916 H 1342.7 1.11676 -1.45605 0
M  V30 13917 H 1341.08 3.73919 -1.30386 0
M  V30 13918 H 1342.26 2.49158 -3.8763 0
M  V30 13919 H 1340.57 2.38296 -3.41473 0
M  V30 13920 H 1343.17 4.87897 -2.1877 0
M  V30 13921 H 1343.51 4.11081 -0.657148 0
M  V30 13922 H 1344.04 3.33502 -2.16844 0
M  V30 13923 H 1340.78 4.18906 -5.04181 0
M  V30 13924 H 1340.3 4.8868 -3.47781 0
M  V30 13925 H 1341.98 5.04503 -4.05075 0
M  V30 13926 N 1342.11 1.02678 1.19562 0
M  V30 13927 C 1343.53 0.752027 1.70884 0
M  V30 13928 C 1343.88 -0.728523 1.82173 0
M  V30 13929 O 1343 -1.56799 1.49141 0
M  V30 13930 C 1343.6 1.35848 3.10372 0
M  V30 13931 C 1342.16 1.13236 3.58963 0
M  V30 13932 C 1341.3 1.45785 2.35886 0
M  V30 13933 H 1344.25 1.19497 1.04432 0
M  V30 13934 H 1344.27 0.754347 3.72948 0
M  V30 13935 H 1343.79 2.43604 3.02124 0
M  V30 13936 H 1341.89 0.0729271 3.72529 0
M  V30 13937 H 1342 1.81959 4.43202 0
M  V30 13938 H 1340.36 0.877125 2.3912 0
M  V30 13939 H 1341.15 2.54619 2.30269 0
M  V30 13940 N 1343.59 -1.35528 0.804364 0
M  V30 13941 C 1344.54 -2.31728 0.20125 0
M  V30 13942 C 1345.53 -1.56527 -0.647751 0
M  V30 13943 O 1346.74 -1.71672 -0.541163 0
M  V30 13944 H 1343.12 -0.750572 0.0463165 0
M  V30 13945 H 1345.09 -2.80142 1.02777 0
M  V30 13946 C 1343.84 -3.41807 -0.637429 0
M  V30 13947 H 1343.16 -3.99799 0.00651699 0
M  V30 13948 H 1344.6 -4.11403 -1.02585 0
M  V30 13949 C 1343.06 -2.84655 -1.80202 0
M  V30 13950 O 1343.59 -2.78026 -2.89939 0
M  V30 13951 N 1341.79 -2.41735 -1.61285 0
M  V30 13952 H 1341.34 -2.47327 -0.720231 0
M  V30 13953 H 1341.3 -2.03844 -2.39364 0
M  V30 13954 N 1345.07 -0.557671 -1.47404 0
M  V30 13955 C 1346.49 -0.217473 -1.58111 0
M  V30 13956 C 1346.69 1.28 -1.55622 0
M  V30 13957 O 1345.74 2.06019 -1.45988 0
M  V30 13958 C 1347.06 -0.844535 -2.88597 0
M  V30 13959 C 1348.6 -0.815807 -3.02181 0
M  V30 13960 C 1349.08 -1.42195 -4.35367 0
M  V30 13961 N 1350.57 -1.38515 -4.42004 0
M  V30 13962 C 1351.31 -1.82378 -5.43623 0
M  V30 13963 N 1350.8 -2.34098 -6.52051 0
M  V30 13964 N 1352.59 -1.73446 -5.34671 0
M  V30 13965 H 1344.75 -1.53058 -1.47265 0
M  V30 13966 H 1347.01 -0.638305 -0.700907 0
M  V30 13967 H 1346.71 -1.89696 -2.96156 0
M  V30 13968 H 1346.59 -0.337844 -3.75684 0
M  V30 13969 H 1348.98 0.227925 -2.94218 0
M  V30 13970 H 1349.06 -1.36026 -2.16635 0
M  V30 13971 H 1348.7 -2.46475 -4.44086 0
M  V30 13972 H 1348.63 -0.852932 -5.19647 0
M  V30 13973 H 1351.12 -1.00684 -3.64241 0
M  V30 13974 H 1351.43 -2.6549 -7.25765 0
M  V30 13975 H 1349.78 -2.38109 -6.52939 0
M  V30 13976 H 1352.97 -1.32816 -4.48862 0
M  V30 13977 H 1353.14 -2.07947 -6.13728 0
M  V30 13978 N 1346.55 1.54831 -0.294147 0
M  V30 13979 C 1347.8 2.01016 0.310506 0
M  V30 13980 C 1348.15 1.17894 1.52049 0
M  V30 13981 O 1347.44 0.245603 1.90019 0
M  V30 13982 C 1347.64 3.4997 0.72495 0
M  V30 13983 C 1347.47 4.47509 -0.443325 0
M  V30 13984 C 1346.24 4.96609 -0.93317 0
M  V30 13985 C 1348.43 4.97961 -1.28606 0
M  V30 13986 N 1346.42 5.77987 -2.06892 0
M  V30 13987 C 1347.79 5.76973 -2.26941 0
M  V30 13988 C 1349.84 4.8016 -1.31722 0
M  V30 13989 C 1348.55 6.40081 -3.28159 0
M  V30 13990 C 1350.57 5.44082 -2.31795 0
M  V30 13991 C 1349.93 6.22921 -3.2886 0
M  V30 13992 H 1346.03 0.778073 0.0782699 0
M  V30 13993 H 1348.62 1.90061 -0.422504 0
M  V30 13994 H 1346.79 3.6123 1.42715 0
M  V30 13995 H 1348.52 3.82961 1.30856 0
M  V30 13996 H 1345.27 4.70854 -0.509283 0
M  V30 13997 H 1345.7 6.23362 -2.64099 0
M  V30 13998 H 1350.34 4.18795 -0.580536 0
M  V30 13999 H 1348.06 7.00584 -4.0275 0
M  V30 14000 H 1351.64 5.3224 -2.34971 0
M  V30 14001 H 1350.52 6.71507 -4.05029 0
M  V30 14002 N 1348.03 0.0217466 1.57585 0
M  V30 14003 C 1348.96 -0.961069 2.12804 0
M  V30 14004 C 1349.94 -1.3442 1.04237 0
M  V30 14005 O 1351.12 -1.42412 1.32032 0
M  V30 14006 C 1348.25 -2.24586 2.64912 0
M  V30 14007 C 1347.21 -2.0037 3.78201 0
M  V30 14008 C 1346.53 -3.35051 4.16708 0
M  V30 14009 C 1347.83 -1.34879 5.04584 0
M  V30 14010 H 1349.53 -0.501222 2.95175 0
M  V30 14011 H 1347.07 -0.239649 1.41992 0
M  V30 14012 H 1349.03 -2.93715 3.02175 0
M  V30 14013 H 1347.75 -2.72723 1.79693 0
M  V30 14014 H 1346.41 -1.33662 3.41365 0
M  V30 14015 H 1346.06 -3.80932 3.28481 0
M  V30 14016 H 1345.76 -3.19656 4.93045 0
M  V30 14017 H 1347.28 -4.05459 4.56547 0
M  V30 14018 H 1348.7 -1.93997 5.3948 0
M  V30 14019 H 1347.09 -1.29906 5.85871 0
M  V30 14020 H 1348.16 -0.320774 4.83838 0
M  V30 14021 N 1349.51 -1.55583 -0.251311 0
M  V30 14022 C 1350.75 -1.7897 -0.987372 0
M  V30 14023 C 1351.11 -0.590559 -1.82692 0
M  V30 14024 O 1352.31 -0.703109 -2.59441 0
M  V30 14025 C 1350.58 -3.07069 -1.82876 0
M  V30 14026 S 1352.14 -3.51659 -2.62452 0
M  V30 14027 H 1348.96 -0.628624 -0.332194 0
M  V30 14028 H 1351.56 -1.93821 -0.255653 0
M  V30 14029 H 1350.26 -3.92415 -1.20161 0
M  V30 14030 H 1349.8 -2.94943 -2.60331 0
M  V30 14031 H 1351.81 -3.12644 -3.85316 0
M  V30 14032 N 1350.98 0.516783 -1.48886 0
M  V30 14033 C 1352.26 1.27808 -1.48069 0
M  V30 14034 C 1352.64 2.10154 -0.19963 0
M  V30 14035 O 1351.99 2.13342 0.818386 0
M  V30 14036 C 1352.2 2.14828 -2.75045 0
M  V30 14037 C 1353.55 2.74536 -3.23906 0
M  V30 14038 O 1354.57 2.25107 -2.76053 0
M  V30 14039 O 1353.43 3.6448 -4.07206 0
M  V30 14040 H 1350.52 0.577535 -0.591931 0
M  V30 14041 H 1353.07 0.532351 -1.61134 0
M  V30 14042 H 1351.84 1.53852 -3.59785 0
M  V30 14043 H 1351.46 2.96624 -2.64764 0
M  V30 14044 N 1352.46 1.37696 0.766659 0
M  V30 14045 C 1353.71 1.32922 1.52237 0
M  V30 14046 C 1354.03 -0.0842833 1.94818 0
M  V30 14047 O 1353.3 -1.02934 1.66677 0
M  V30 14048 H 1351.88 0.489049 0.564659 0
M  V30 14049 H 1354.54 1.72238 0.912142 0
M  V30 14050 H 1353.64 1.97158 2.4194 0
M  V30 14051 N 1353.94 -0.993397 1.22349 0
M  V30 14052 C 1355.22 -1.7063 0.956275 0
M  V30 14053 C 1355.6 -2.0437 -0.52877 0
M  V30 14054 O 1354.94 -1.72662 -1.49667 0
M  V30 14055 C 1355.15 -2.95725 1.85331 0
M  V30 14056 C 1356.5 -3.68514 2.10909 0
M  V30 14057 O 1357.53 -3.05732 1.82775 0
M  V30 14058 O 1356.39 -4.81468 2.58556 0
M  V30 14059 H 1353.48 -0.744734 0.359583 0
M  V30 14060 H 1356.03 -1.04979 1.33333 0
M  V30 14061 H 1354.8 -2.6729 2.85782 0
M  V30 14062 H 1354.42 -3.69116 1.47781 0
M  V30 14063 N 1355.42 -1.03311 -1.19015 0
M  V30 14064 C 1356.37 -0.611169 -2.24427 0
M  V30 14065 C 1357.36 0.358303 -1.65567 0
M  V30 14066 O 1358.57 0.22642 -1.7857 0
M  V30 14067 H 1354.94 -0.179393 -0.730289 0
M  V30 14068 H 1356.91 -1.51077 -2.57329 0
M  V30 14069 C 1355.66 0.0178126 -3.47695 0
M  V30 14070 H 1354.98 -0.71921 -3.93278 0
M  V30 14071 H 1356.42 0.275926 -4.23101 0
M  V30 14072 C 1354.88 1.26564 -3.12223 0
M  V30 14073 O 1355.41 2.35725 -3.25264 0
M  V30 14074 N 1353.62 1.15602 -2.66617 0
M  V30 14075 H 1353.17 0.267736 -2.56205 0
M  V30 14076 H 1353.12 1.99186 -2.43254 0
M  V30 14077 N 1356.9 1.35099 -0.81154 0
M  V30 14078 C 1358.17 1.93009 -0.317289 0
M  V30 14079 C 1358.55 1.74101 1.19382 0
M  V30 14080 O 1357.9 1.11295 1.99564 0
M  V30 14081 C 1358.11 3.41191 -0.734123 0
M  V30 14082 C 1359.46 4.1834 -0.726437 0
M  V30 14083 O 1360.48 3.49727 -0.67598 0
M  V30 14084 O 1359.34 5.4077 -0.789291 0
M  V30 14085 H 1356.44 0.822707 -0.084153 0
M  V30 14086 H 1358.98 1.44145 -0.895569 0
M  V30 14087 H 1357.75 3.48705 -1.7754 0
M  V30 14088 H 1357.38 3.97384 -0.130919 0
M  V30 14089 N 1358.37 0.56548 1.47106 0
M  V30 14090 C 1359.61 0.0469867 2.04346 0
M  V30 14091 C 1359.98 -1.28183 1.42944 0
M  V30 14092 O 1361.18 -1.88852 1.91281 0
M  V30 14093 C 1359.45 -0.0357764 3.57382 0
M  V30 14094 S 1361.01 -0.499194 4.35951 0
M  V30 14095 H 1357.83 0.0291355 0.710403 0
M  V30 14096 H 1360.43 0.754085 1.80371 0
M  V30 14097 H 1359.13 0.935578 3.99594 0
M  V30 14098 H 1358.66 -0.766177 3.85867 0
M  V30 14099 H 1360.68 -1.75732 4.6404 0
M  V30 14100 N 1359.85 -1.54672 0.302354 0
M  V30 14101 C 1361.1 -1.99771 -0.305919 0
M  V30 14102 C 1361.42 -1.19225 -1.54306 0
M  V30 14103 O 1360.69 -0.288569 -1.93763 0
M  V30 14104 H 1359.27 -0.737934 -0.116026 0
M  V30 14105 H 1361.93 -1.90452 0.413997 0
M  V30 14106 H 1361.03 -3.06719 -0.577024 0
M  V30 14107 N 1361.33 -0.0301034 -1.57571 0
M  V30 14108 C 1362.28 0.969425 -2.11435 0
M  V30 14109 C 1363.27 1.33627 -1.04116 0
M  V30 14110 O 1364.48 1.31839 -1.2255 0
M  V30 14111 H 1360.85 0.330407 -0.675526 0
M  V30 14112 H 1362.82 0.489828 -2.94352 0
M  V30 14113 C 1361.57 2.24233 -2.65734 0
M  V30 14114 H 1360.9 1.9688 -3.47963 0
M  V30 14115 H 1362.34 2.92378 -3.07068 0
M  V30 14116 C 1360.8 2.97274 -1.58524 0
M  V30 14117 O 1361.33 3.8942 -0.985641 0
M  V30 14118 N 1359.53 2.59627 -1.30545 0
M  V30 14119 H 1359.08 1.84773 -1.79491 0
M  V30 14120 H 1359.04 3.08807 -0.590372 0
M  V30 14121 N 1362.81 1.55714 0.243056 0
M  V30 14122 C 1364.03 1.82126 0.992219 0
M  V30 14123 C 1364.46 0.607665 1.78014 0
M  V30 14124 O 1363.82 -0.443351 1.75796 0
M  V30 14125 C 1363.86 3.06314 1.90274 0
M  V30 14126 O 1362.97 2.83499 2.99503 0
M  V30 14127 H 1362.31 0.601082 0.282128 0
M  V30 14128 H 1364.84 2.02904 0.262881 0
M  V30 14129 H 1364.85 3.35849 2.31666 0
M  V30 14130 H 1363.52 3.94282 1.32344 0
M  V30 14131 H 1362.1 2.65141 2.62211 0
M  V30 14132 N 1364.29 -0.50888 1.49158 0
M  V30 14133 C 1365.2 -1.63782 1.67966 0
M  V30 14134 C 1366.21 -1.64667 0.562207 0
M  V30 14135 O 1367.39 -1.83232 0.835935 0
M  V30 14136 C 1364.45 -3.00179 1.73474 0
M  V30 14137 C 1363.51 -3.09983 2.97 0
M  V30 14138 C 1362.75 -4.39875 3.02235 0
M  V30 14139 O 1362.97 -5.28214 2.15282 0
M  V30 14140 O 1361.9 -4.54486 3.94621 0
M  V30 14141 H 1365.73 -1.50846 2.63589 0
M  V30 14142 H 1363.32 -0.684306 1.32807 0
M  V30 14143 H 1365.2 -3.8126 1.79495 0
M  V30 14144 H 1363.87 -3.13394 0.810287 0
M  V30 14145 H 1362.78 -2.28119 2.965 0
M  V30 14146 H 1364.11 -3.01693 3.88899 0
M  V30 14147 N 1365.76 -1.381 -0.759346 0
M  V30 14148 C 1367.04 -1.24517 -1.50847 0
M  V30 14149 C 1367.42 0.155929 -2.10523 0
M  V30 14150 O 1366.77 1.16485 -1.96579 0
M  V30 14151 C 1366.98 -2.35086 -2.57945 0
M  V30 14152 C 1368.33 -2.73232 -3.25007 0
M  V30 14153 O 1369.35 -2.34355 -2.68247 0
M  V30 14154 O 1368.21 -3.40254 -4.27656 0
M  V30 14155 H 1365.3 -0.486599 -0.668693 0
M  V30 14156 H 1367.85 -1.49913 -0.795249 0
M  V30 14157 H 1366.62 -3.28858 -2.12056 0
M  V30 14158 H 1366.25 -2.11222 -3.36854 0
M  V30 14159 N 1367.24 0.986894 -1.22875 0
M  V30 14160 C 1368.15 2.11232 -1.02069 0
M  V30 14161 C 1369.17 1.73969 0.0328424 0
M  V30 14162 O 1370.34 2.00754 -0.161197 0
M  V30 14163 C 1367.41 3.41337 -0.60747 0
M  V30 14164 C 1366.47 3.92665 -1.73531 0
M  V30 14165 C 1365.7 5.1656 -1.34171 0
M  V30 14166 O 1365.93 5.69964 -0.223106 0
M  V30 14167 O 1364.86 5.61791 -2.16041 0
M  V30 14168 H 1368.69 2.3167 -1.96374 0
M  V30 14169 H 1366.27 1.09607 -1.01522 0
M  V30 14170 H 1368.15 4.19613 -0.387661 0
M  V30 14171 H 1366.83 3.22244 0.306653 0
M  V30 14172 H 1365.74 3.15534 -2.0097 0
M  V30 14173 H 1367.07 4.162 -2.62751 0
M  V30 14174 N 1368.72 1.0394 1.18466 0
M  V30 14175 C 1369.95 0.761926 1.92897 0
M  V30 14176 C 1370.37 -0.674618 1.75586 0
M  V30 14177 O 1369.73 -1.46711 1.06515 0
M  V30 14178 C 1369.78 1.13152 3.42387 0
M  V30 14179 O 1368.88 0.256266 4.11603 0
M  V30 14180 H 1368.22 0.280527 0.601831 0
M  V30 14181 H 1370.75 1.3889 1.50235 0
M  V30 14182 H 1370.76 1.0929 3.9309 0
M  V30 14183 H 1369.44 2.17804 3.54308 0
M  V30 14184 H 1368.01 0.354392 3.71212 0
M  V30 14185 N 1370.2 -1.34667 0.818693 0
M  V30 14186 C 1371.15 -2.31501 0.225816 0
M  V30 14187 C 1372.14 -1.57205 -0.631112 0
M  V30 14188 O 1373.35 -1.72237 -0.522924 0
M  V30 14189 H 1369.72 -0.750039 0.0542747 0
M  V30 14190 H 1371.69 -2.79036 1.05743 0
M  V30 14191 C 1370.44 -3.42464 -0.60114 0
M  V30 14192 H 1369.76 -3.9977 0.0489207 0
M  V30 14193 H 1371.2 -4.12468 -0.982154 0
M  V30 14194 C 1369.66 -2.86551 -1.77173 0
M  V30 14195 O 1370.19 -2.81085 -2.86974 0
M  V30 14196 N 1368.4 -2.43432 -1.58712 0
M  V30 14197 H 1367.95 -2.48077 -0.693958 0
M  V30 14198 H 1367.9 -2.06371 -2.37188 0
M  V30 14199 N 1371.68 -0.573274 -1.46804 0
M  V30 14200 C 1372.64 0.155066 -2.28675 0
M  V30 14201 C 1373.64 0.827706 -1.37861 0
M  V30 14202 O 1374.83 0.681105 -1.60333 0
M  V30 14203 C 1371.96 1.22864 -3.1799 0
M  V30 14204 H 1373.15 -0.564305 -2.94543 0
M  V30 14205 H 1370.71 -0.330855 -1.52758 0
M  V30 14206 H 1371.44 1.97989 -2.56848 0
M  V30 14207 H 1371.23 0.750936 -3.84842 0
M  V30 14208 H 1372.72 1.73974 -3.79635 0
M  V30 14209 N 1373.15 1.5451 -0.310553 0
M  V30 14210 C 1374.38 2.04739 0.29824 0
M  V30 14211 C 1374.8 1.18737 1.46788 0
M  V30 14212 O 1374.15 0.215114 1.81228 0
M  V30 14213 C 1374.21 3.53734 0.745274 0
M  V30 14214 O 1373.93 4.36468 -0.377826 0
M  V30 14215 C 1375.43 4.20001 1.41823 0
M  V30 14216 H 1372.65 0.667997 0.0634159 0
M  V30 14217 H 1375.19 1.9942 -0.452961 0
M  V30 14218 H 1373.35 3.59383 1.44648 0
M  V30 14219 H 1373.76 5.24492 -0.0280567 0
M  V30 14220 H 1375.23 5.25747 1.68209 0
M  V30 14221 H 1375.71 3.70319 2.36137 0
M  V30 14222 H 1376.32 4.18455 0.759951 0
M  V30 14223 N 1374.63 0.0384594 1.57553 0
M  V30 14224 C 1375.87 -0.642187 1.9405 0
M  V30 14225 C 1376.24 -1.68753 0.915779 0
M  V30 14226 O 1377.44 -2.42133 1.16726 0
M  V30 14227 C 1375.71 -1.23422 3.35413 0
M  V30 14228 S 1377.27 -1.93464 3.93849 0
M  V30 14229 H 1374.09 -0.211198 0.678908 0
M  V30 14230 H 1376.69 0.104358 1.95221 0
M  V30 14231 H 1375.39 -0.461112 4.07801 0
M  V30 14232 H 1374.92 -2.01787 3.37707 0
M  V30 14233 H 1376.94 -3.21401 3.78042 0
M  V30 14234 N 1376.11 -1.55841 -0.234795 0
M  V30 14235 C 1377.34 -1.82649 -0.982547 0
M  V30 14236 C 1377.76 -0.617097 -1.77689 0
M  V30 14237 O 1377.12 0.434022 -1.76028 0
M  V30 14238 C 1377.17 -3.07319 -1.88646 0
M  V30 14239 O 1376.27 -2.85084 -2.97995 0
M  V30 14240 H 1375.61 -0.60257 -0.278936 0
M  V30 14241 H 1378.14 -2.03041 -0.252117 0
M  V30 14242 H 1378.15 -3.37073 -2.29882 0
M  V30 14243 H 1376.83 -3.94978 -1.30251 0
M  V30 14244 H 1375.4 -2.66528 -2.60801 0
M  V30 14245 N 1377.59 0.500963 -1.49426 0
M  V30 14246 C 1378.55 1.58478 -1.65582 0
M  V30 14247 C 1379.55 1.51897 -0.52762 0
M  V30 14248 O 1380.74 1.55049 -0.794071 0
M  V30 14249 C 1377.87 2.9813 -1.65322 0
M  V30 14250 H 1379.07 1.45483 -2.6225 0
M  V30 14251 H 1376.62 0.725199 -1.38458 0
M  V30 14252 H 1377.36 3.16602 -0.702384 0
M  V30 14253 H 1377.14 3.04315 -2.47255 0
M  V30 14254 H 1378.63 3.76874 -1.79878 0
M  V30 14255 N 1379.07 1.38501 0.752011 0
M  V30 14256 C 1380.48 1.19733 1.05529 0
M  V30 14257 C 1380.68 0.047088 2.01445 0
M  V30 14258 O 1379.74 -0.606645 2.45104 0
M  V30 14259 C 1381.05 2.52439 1.63386 0
M  V30 14260 C 1382.6 2.59136 1.7555 0
M  V30 14261 C 1383.08 3.92022 2.36819 0
M  V30 14262 N 1384.57 3.9357 2.44248 0
M  V30 14263 C 1385.3 4.93154 2.92553 0
M  V30 14264 N 1384.8 6.03135 3.40882 0
M  V30 14265 N 1386.59 4.80543 2.91607 0
M  V30 14266 H 1378.74 2.12085 0.115543 0
M  V30 14267 H 1381 0.941134 0.113888 0
M  V30 14268 H 1380.71 3.37072 1.00376 0
M  V30 14269 H 1380.58 2.70947 2.62427 0
M  V30 14270 H 1382.97 1.74897 2.37687 0
M  V30 14271 H 1383.05 2.44494 0.752092 0
M  V30 14272 H 1382.7 4.76684 1.75314 0
M  V30 14273 H 1382.63 4.03976 3.37803 0
M  V30 14274 H 1385.12 3.14133 2.10068 0
M  V30 14275 H 1385.43 6.7505 3.76201 0
M  V30 14276 H 1383.78 6.06752 3.38935 0
M  V30 14277 H 1386.97 3.93733 2.53163 0
M  V30 14278 H 1387.14 5.58303 3.28941 0
M  V30 14279 N 1380.55 -0.980364 1.23396 0
M  V30 14280 C 1381.77 -1.75689 1.09275 0
M  V30 14281 C 1382.19 -1.85418 -0.355773 0
M  V30 14282 O 1381.55 -1.33337 -1.24609 0
M  V30 14283 C 1381.6 -3.18378 1.71223 0
M  V30 14284 O 1381.32 -3.09154 3.10411 0
M  V30 14285 C 1382.82 -4.12425 1.62545 0
M  V30 14286 H 1380.04 -0.551354 0.382427 0
M  V30 14287 H 1382.58 -1.23169 1.63247 0
M  V30 14288 H 1380.74 -3.67925 1.21285 0
M  V30 14289 H 1381.15 -3.9898 3.40464 0
M  V30 14290 H 1382.63 -5.1025 2.10592 0
M  V30 14291 H 1383.1 -4.35296 0.584275 0
M  V30 14292 H 1383.71 -3.68782 2.1185 0
M  V30 14293 N 1382.02 -1.04567 -1.17913 0
M  V30 14294 C 1383.26 -0.760977 -1.89706 0
M  V30 14295 C 1383.63 0.698804 -1.78832 0
M  V30 14296 O 1384.83 1.09733 -2.45382 0
M  V30 14297 C 1383.1 -1.22042 -3.35917 0
M  V30 14298 S 1384.66 -1.06214 -4.25751 0
M  V30 14299 H 1381.48 -0.276538 -0.655017 0
M  V30 14300 H 1384.08 -1.339 -1.42446 0
M  V30 14301 H 1382.78 -2.27813 -3.41364 0
M  V30 14302 H 1382.31 -0.636401 -3.88218 0
M  V30 14303 H 1384.33 0.0174486 -4.96197 0
M  V30 14304 N 1383.5 1.34231 -0.825823 0
M  V30 14305 C 1384.91 1.8059 -0.473724 0
M  V30 14306 C 1385.26 1.68438 1.00614 0
M  V30 14307 O 1384.39 1.22606 1.78317 0
M  V30 14308 C 1384.98 3.27884 -0.853099 0
M  V30 14309 C 1383.54 3.72311 -0.553327 0
M  V30 14310 C 1382.69 2.55889 -1.06845 0
M  V30 14311 H 1385.64 1.21937 -1.01573 0
M  V30 14312 H 1385.66 3.80172 -0.158014 0
M  V30 14313 H 1385.17 3.36696 -1.93021 0
M  V30 14314 H 1383.27 3.69034 0.514256 0
M  V30 14315 H 1383.39 4.66315 -1.09942 0
M  V30 14316 H 1381.75 2.49945 -0.489874 0
M  V30 14317 H 1382.53 2.67471 -2.15207 0
M  V30 14318 N 1384.98 0.581051 1.46498 0
M  V30 14319 C 1386.39 0.154032 1.86064 0
M  V30 14320 C 1386.74 -1.28247 1.48483 0
M  V30 14321 O 1385.87 -1.96845 0.898945 0
M  V30 14322 C 1386.46 0.272764 3.377 0
M  V30 14323 C 1385.02 -0.0993724 3.76269 0
M  V30 14324 C 1384.17 0.60947 2.70519 0
M  V30 14325 H 1387.12 0.78937 1.37676 0
M  V30 14326 H 1387.14 -0.502326 3.7717 0
M  V30 14327 H 1386.65 1.31837 3.65021 0
M  V30 14328 H 1384.75 -1.14517 3.54565 0
M  V30 14329 H 1384.87 0.275791 4.78306 0
M  V30 14330 H 1383.23 0.0499083 2.54651 0
M  V30 14331 H 1384.01 1.65669 3.0068 0
M  V30 14332 N 1386.46 -1.54343 0.318742 0
M  V30 14333 C 1387.41 -2.25634 -0.56497 0
M  V30 14334 C 1388.4 -1.26869 -1.12252 0
M  V30 14335 O 1389.61 -1.44662 -1.07112 0
M  V30 14336 H 1385.98 -0.724686 -0.200834 0
M  V30 14337 H 1387.95 -2.98342 0.0586393 0
M  V30 14338 C 1386.7 -3.0237 -1.71662 0
M  V30 14339 H 1386.02 -3.78183 -1.29684 0
M  V30 14340 H 1387.46 -3.55507 -2.31065 0
M  V30 14341 C 1385.92 -2.10383 -2.63136 0
M  V30 14342 O 1386.45 -1.68351 -3.6472 0
M  V30 14343 N 1384.66 -1.75971 -2.31263 0
M  V30 14344 H 1384.21 -2.10349 -1.48698 0
M  V30 14345 H 1384.16 -1.14702 -2.9273 0
M  V30 14346 N 1387.94 -0.0468143 -1.5753 0
M  V30 14347 C 1388.87 0.958157 -2.08211 0
M  V30 14348 C 1389.88 1.27757 -1.00906 0
M  V30 14349 O 1391.07 1.23913 -1.28483 0
M  V30 14350 C 1388.17 2.28088 -2.50657 0
M  V30 14351 C 1387.34 2.14403 -3.81248 0
M  V30 14352 C 1386.4 3.29761 -4.10054 0
M  V30 14353 O 1385.43 3.05859 -4.8004 0
M  V30 14354 N 1386.63 4.54104 -3.61621 0
M  V30 14355 H 1389.39 0.525612 -2.95055 0
M  V30 14356 H 1386.96 0.139532 -1.61298 0
M  V30 14357 H 1388.95 3.04121 -2.67007 0
M  V30 14358 H 1387.52 2.62924 -1.69085 0
M  V30 14359 H 1386.74 1.22988 -3.74523 0
M  V30 14360 H 1388.03 2.02482 -4.66775 0
M  V30 14361 H 1387.42 4.76414 -3.05034 0
M  V30 14362 H 1385.98 5.27246 -3.83217 0
M  V30 14363 N 1389.41 1.55964 0.226527 0
M  V30 14364 C 1390.66 1.78745 0.95165 0
M  V30 14365 C 1390.99 0.614714 1.84531 0
M  V30 14366 O 1390.24 -0.401137 1.91545 0
M  V30 14367 C 1390.54 3.07235 1.82597 0
M  V30 14368 C 1390.21 4.37627 1.08596 0
M  V30 14369 C 1388.87 4.73057 0.881531 0
M  V30 14370 C 1391.22 5.1815 0.563019 0
M  V30 14371 C 1388.55 5.86528 0.142172 0
M  V30 14372 C 1390.9 6.3239 -0.162972 0
M  V30 14373 C 1389.57 6.66425 -0.378704 0
M  V30 14374 H 1388.84 0.654075 0.348233 0
M  V30 14375 H 1391.48 1.9023 0.220187 0
M  V30 14376 H 1389.79 2.9085 2.62514 0
M  V30 14377 H 1391.49 3.22063 2.38907 0
M  V30 14378 H 1388.08 4.09806 1.25527 0
M  V30 14379 H 1392.26 4.91218 0.708446 0
M  V30 14380 H 1387.52 6.1139 -0.0352481 0
M  V30 14381 H 1391.69 6.94016 -0.575719 0
M  V30 14382 H 1389.32 7.54196 -0.953549 0
M  V30 14383 N 1390.89 -0.493031 1.4969 0
M  V30 14384 C 1392.12 -1.27517 1.63567 0
M  V30 14385 C 1392.54 -1.85526 0.310105 0
M  V30 14386 O 1391.9 -1.66246 -0.723314 0
M  V30 14387 C 1391.95 -2.37551 2.71296 0
M  V30 14388 O 1391.05 -3.41617 2.31023 0
M  V30 14389 H 1390.39 -0.376116 0.547205 0
M  V30 14390 H 1392.92 -0.589328 1.95929 0
M  V30 14391 H 1392.93 -2.83196 2.93708 0
M  V30 14392 H 1391.61 -1.94697 3.67513 0
M  V30 14393 H 1390.19 -3.01836 2.18974 0
M  V30 14394 N 1392.37 -1.38898 -0.744656 0
M  V30 14395 C 1393.61 -1.37019 -1.51675 0
M  V30 14396 C 1393.97 0.0371033 -1.91964 0
M  V30 14397 O 1395.18 0.180835 -2.68191 0
M  V30 14398 C 1393.45 -2.30701 -2.72969 0
M  V30 14399 S 1395.01 -2.46922 -3.62733 0
M  V30 14400 H 1391.82 -0.486035 -0.518933 0
M  V30 14401 H 1394.43 -1.74906 -0.873384 0
M  V30 14402 H 1393.13 -3.31827 -2.41494 0
M  V30 14403 H 1392.66 -1.93994 -3.42242 0
M  V30 14404 H 1394.68 -1.69994 -4.66172 0
M  V30 14405 N 1393.85 0.973806 -1.23914 0
M  V30 14406 C 1394.81 2.04892 -1.02723 0
M  V30 14407 C 1395.81 1.60795 0.0132972 0
M  V30 14408 O 1397 1.72714 -0.227084 0
M  V30 14409 C 1394.13 3.36341 -0.555667 0
M  V30 14410 H 1395.33 2.25124 -1.98139 0
M  V30 14411 H 1392.88 1.14817 -1.06051 0
M  V30 14412 H 1393.61 3.21799 0.40197 0
M  V30 14413 H 1393.4 3.69689 -1.30661 0
M  V30 14414 H 1394.89 4.15398 -0.428248 0
M  V30 14415 N 1395.33 1.05191 1.17357 0
M  V30 14416 C 1396.55 0.782343 1.92079 0
M  V30 14417 C 1396.98 -0.655957 1.76292 0
M  V30 14418 O 1396.33 -1.45573 1.08065 0
M  V30 14419 C 1396.38 1.16777 3.41168 0
M  V30 14420 O 1395.49 0.299908 4.11308 0
M  V30 14421 H 1394.83 0.286894 0.598822 0
M  V30 14422 H 1397.36 1.40476 1.48754 0
M  V30 14423 H 1397.37 1.13454 3.91909 0
M  V30 14424 H 1396.04 2.2155 3.51978 0
M  V30 14425 H 1394.62 0.393744 3.70815 0
M  V30 14426 N 1396.8 -1.33791 0.83293 0
M  V30 14427 C 1398.05 -1.97582 0.42494 0
M  V30 14428 C 1398.37 -1.66328 -1.01784 0
M  V30 14429 O 1397.64 -0.959141 -1.70814 0
M  V30 14430 H 1396.22 -0.730923 0.154143 0
M  V30 14431 H 1398.89 -1.63257 1.06458 0
M  V30 14432 H 1397.98 -3.07177 0.552127 0
M  V30 14433 N 1398.28 -0.588812 -1.46187 0
M  V30 14434 C 1399.7 -0.250962 -1.57615 0
M  V30 14435 C 1399.9 1.2467 -1.58302 0
M  V30 14436 O 1398.95 2.02876 -1.50325 0
M  V30 14437 C 1400.27 -0.905561 -2.8674 0
M  V30 14438 C 1401.82 -0.879721 -3.00383 0
M  V30 14439 C 1402.29 -1.51398 -4.32253 0
M  V30 14440 N 1403.78 -1.4786 -4.38967 0
M  V30 14441 C 1404.52 -1.93868 -5.39632 0
M  V30 14442 N 1404.01 -2.47876 -6.46938 0
M  V30 14443 N 1405.81 -1.84748 -5.30872 0
M  V30 14444 H 1397.96 -1.56148 -1.43985 0
M  V30 14445 H 1400.22 -0.653028 -0.68721 0
M  V30 14446 H 1399.93 -1.95935 -2.92066 0
M  V30 14447 H 1399.8 -0.417456 -3.74883 0
M  V30 14448 H 1402.19 0.165466 -2.94636 0
M  V30 14449 H 1402.27 -1.40591 -2.137 0
M  V30 14450 H 1401.91 -2.55839 -4.38758 0
M  V30 14451 H 1401.84 -0.962965 -5.17721 0
M  V30 14452 H 1404.33 -1.08387 -3.62023 0
M  V30 14453 H 1404.65 -2.80824 -7.1997 0
M  V30 14454 H 1402.99 -2.51905 -6.47741 0
M  V30 14455 H 1406.18 -1.42307 -4.45944 0
M  V30 14456 H 1406.35 -2.20919 -6.09179 0
M  V30 14457 N 1399.76 1.54172 -0.326923 0
M  V30 14458 C 1401 2.02539 0.275192 0
M  V30 14459 C 1401.36 1.2099 1.49082 0
M  V30 14460 O 1402.57 1.59176 2.16602 0
M  V30 14461 C 1400.84 3.52366 0.597767 0
M  V30 14462 S 1402.4 4.22663 1.17906 0
M  V30 14463 H 1399.21 0.706135 0.0830286 0
M  V30 14464 H 1401.82 1.89991 -0.460826 0
M  V30 14465 H 1400.52 4.09338 -0.295052 0
M  V30 14466 H 1400.05 3.69001 1.36389 0
M  V30 14467 H 1402.07 4.30601 2.46571 0
M  V30 14468 N 1401.24 0.0551678 1.57503 0
M  V30 14469 C 1402.49 -0.617201 1.92025 0
M  V30 14470 C 1402.8 -1.71767 0.93571 0
M  V30 14471 O 1404.01 -2.44847 1.17312 0
M  V30 14472 C 1402.46 -1.14915 3.41061 0
M  V30 14473 C 1402.07 -0.0805814 4.47928 0
M  V30 14474 C 1403.81 -1.79654 3.8461 0
M  V30 14475 C 1401.72 -0.625639 5.88081 0
M  V30 14476 H 1400.65 -0.23431 0.716669 0
M  V30 14477 H 1403.3 0.124706 1.83076 0
M  V30 14478 H 1401.68 -1.9435 3.45028 0
M  V30 14479 H 1402.86 0.693222 4.55556 0
M  V30 14480 H 1401.17 0.469581 4.13744 0
M  V30 14481 H 1403.77 -2.21436 4.86693 0
M  V30 14482 H 1404.11 -2.64987 3.21073 0
M  V30 14483 H 1404.65 -1.06868 3.83176 0
M  V30 14484 H 1401.39 0.190148 6.55224 0
M  V30 14485 H 1400.91 -1.36734 5.84007 0
M  V30 14486 H 1402.58 -1.10728 6.37454 0
M  V30 14487 N 1402.72 -1.56081 -0.218252 0
M  V30 14488 C 1404.13 -1.69397 -0.784964 0
M  V30 14489 C 1404.48 -0.65775 -1.84846 0
M  V30 14490 O 1403.6 0.190478 -2.1556 0
M  V30 14491 C 1404.2 -3.07114 -1.4306 0
M  V30 14492 C 1402.76 -3.22273 -1.94466 0
M  V30 14493 C 1401.9 -2.65327 -0.80604 0
M  V30 14494 H 1404.86 -1.58699 0.0064566 0
M  V30 14495 H 1404.88 -3.03156 -2.2995 0
M  V30 14496 H 1404.39 -3.8251 -0.656335 0
M  V30 14497 H 1402.49 -2.51752 -2.74684 0
M  V30 14498 H 1402.6 -4.29526 -2.12237 0
M  V30 14499 H 1400.97 -2.23894 -1.21423 0
M  V30 14500 H 1401.75 -3.43271 -0.0443928 0
M  V30 14501 N 1404.2 0.485086 -1.49949 0
M  V30 14502 C 1405.44 1.23486 -1.5948 0
M  V30 14503 C 1405.76 1.93377 -0.294082 0
M  V30 14504 O 1406.96 2.70173 -0.268133 0
M  V30 14505 C 1405.42 2.24303 -2.81454 0
M  V30 14506 C 1405.03 1.60279 -4.18347 0
M  V30 14507 C 1406.77 3.0001 -3.00324 0
M  V30 14508 C 1404.68 2.593 -5.31524 0
M  V30 14509 H 1403.61 0.464595 -0.593858 0
M  V30 14510 H 1406.26 0.506893 -1.7636 0
M  V30 14511 H 1404.64 3.00332 -2.58102 0
M  V30 14512 H 1405.82 0.901352 -4.51899 0
M  V30 14513 H 1404.13 0.969053 -4.04967 0
M  V30 14514 H 1406.73 3.74091 -3.82048 0
M  V30 14515 H 1407.07 3.5857 -2.11502 0
M  V30 14516 H 1407.6 2.31095 -3.2379 0
M  V30 14517 H 1404.34 2.05498 -6.22455 0
M  V30 14518 H 1403.86 3.27638 -5.02408 0
M  V30 14519 H 1405.54 3.21411 -5.61519 0
M  V30 14520 N 1405.67 1.39291 0.737279 0
M  V30 14521 C 1406.9 1.39844 1.53162 0
M  V30 14522 C 1407.32 -0.00568546 1.88099 0
M  V30 14523 O 1406.68 -0.992085 1.51748 0
M  V30 14524 C 1406.73 2.27577 2.79716 0
M  V30 14525 O 1405.83 1.70408 3.75546 0
M  V30 14526 H 1405.17 0.476314 0.462624 0
M  V30 14527 H 1407.7 1.83258 0.909819 0
M  V30 14528 H 1407.71 2.42009 3.28475 0
M  V30 14529 H 1406.39 3.29621 2.53619 0
M  V30 14530 H 1404.97 1.65206 3.34307 0
M  V30 14531 N 1407.15 -0.967221 1.24429 0
M  V30 14532 C 1408.4 -1.71349 1.09596 0
M  V30 14533 C 1408.75 -1.88975 -0.361411 0
M  V30 14534 O 1408.05 -1.4405 -1.26333 0
M  V30 14535 C 1408.24 -3.10507 1.76975 0
M  V30 14536 C 1408.07 -3.06455 3.29113 0
M  V30 14537 C 1406.84 -3.1091 3.98326 0
M  V30 14538 C 1409.04 -2.88594 4.25697 0
M  V30 14539 N 1407.02 -2.96882 5.3734 0
M  V30 14540 C 1408.39 -2.82867 5.51712 0
M  V30 14541 C 1410.44 -2.73179 4.16267 0
M  V30 14542 C 1409.15 -2.63301 6.69377 0
M  V30 14543 C 1411.17 -2.5498 5.3361 0
M  V30 14544 C 1410.54 -2.49962 6.58558 0
M  V30 14545 H 1406.63 -0.635528 0.455663 0
M  V30 14546 H 1409.22 -1.14669 1.5735 0
M  V30 14547 H 1407.39 -3.65378 1.31733 0
M  V30 14548 H 1409.12 -3.73842 1.54997 0
M  V30 14549 H 1405.88 -3.19609 3.49495 0
M  V30 14550 H 1406.3 -2.93107 6.1026 0
M  V30 14551 H 1410.94 -2.7584 3.20425 0
M  V30 14552 H 1408.66 -2.59383 7.65341 0
M  V30 14553 H 1412.25 -2.43995 5.28164 0
M  V30 14554 H 1411.13 -2.3606 7.47827 0
M  V30 14555 N 1408.63 -1.05812 -1.16797 0
M  V30 14556 C 1409.86 -0.792519 -1.9112 0
M  V30 14557 C 1410.27 0.652549 -1.77164 0
M  V30 14558 O 1409.63 1.44633 -1.113 0
M  V30 14559 C 1409.68 -1.17172 -3.41984 0
M  V30 14560 O 1409.4 -2.56008 -3.55516 0
M  V30 14561 C 1410.9 -0.933162 -4.33367 0
M  V30 14562 H 1408.12 -0.28768 -0.606202 0
M  V30 14563 H 1410.67 -1.41046 -1.48075 0
M  V30 14564 H 1408.82 -0.598413 -3.8275 0
M  V30 14565 H 1409.24 -2.71053 -4.49033 0
M  V30 14566 H 1410.71 -1.24817 -5.37703 0
M  V30 14567 H 1411.19 0.131345 -4.39004 0
M  V30 14568 H 1411.79 -1.49062 -3.98322 0
M  V30 14569 N 1410.11 1.33347 -0.840014 0
M  V30 14570 C 1411.35 1.99556 -0.442363 0
M  V30 14571 C 1411.71 1.65088 0.980304 0
M  V30 14572 O 1412.91 2.24272 1.48174 0
M  V30 14573 C 1411.18 3.51292 -0.657939 0
M  V30 14574 S 1412.74 4.37356 -0.35568 0
M  V30 14575 H 1409.56 0.691267 -0.166344 0
M  V30 14576 H 1412.16 1.62324 -1.08955 0
M  V30 14577 H 1410.87 3.73866 -1.69271 0
M  V30 14578 H 1410.4 3.934 0.00335805 0
M  V30 14579 H 1412.41 4.89309 0.824091 0
M  V30 14580 N 1411.59 0.596556 1.45873 0
M  V30 14581 C 1412.86 0.0199562 1.9559 0
M  V30 14582 C 1413.24 -1.44479 1.53912 0
M  V30 14583 O 1412.59 -2.14173 0.796384 0
M  V30 14584 C 1412.8 0.206497 3.48389 0
M  V30 14585 C 1414.15 0.0815298 4.24522 0
M  V30 14586 O 1415.17 0.136045 3.5594 0
M  V30 14587 O 1414.03 -0.0426117 5.46483 0
M  V30 14588 H 1411.13 -0.0419913 0.825933 0
M  V30 14589 H 1413.67 0.665846 1.56092 0
M  V30 14590 H 1412.44 1.22422 3.71656 0
M  V30 14591 H 1412.07 -0.475175 3.9475 0
M  V30 14592 N 1413.06 -1.53996 0.335095 0
M  V30 14593 C 1413.99 -2.2768 -0.518087 0
M  V30 14594 C 1414.97 -1.28915 -1.10972 0
M  V30 14595 O 1416.16 -1.57745 -1.1327 0
M  V30 14596 C 1413.29 -3.04327 -1.67339 0
M  V30 14597 C 1412.24 -4.10525 -1.2105 0
M  V30 14598 C 1411.57 -4.75078 -2.45366 0
M  V30 14599 C 1412.87 -5.21337 -0.317055 0
M  V30 14600 H 1414.56 -2.99244 0.0965669 0
M  V30 14601 H 1412.11 -1.4392 0.0478842 0
M  V30 14602 H 1414.06 -3.54608 -2.27664 0
M  V30 14603 H 1412.79 -2.30399 -2.31481 0
M  V30 14604 H 1411.45 -3.61144 -0.630124 0
M  V30 14605 H 1411.09 -3.97754 -3.07897 0
M  V30 14606 H 1410.79 -5.46822 -2.1508 0
M  V30 14607 H 1412.32 -5.2814 -3.06432 0
M  V30 14608 H 1413.73 -5.67305 -0.826905 0
M  V30 14609 H 1412.13 -6.00006 -0.106458 0
M  V30 14610 H 1413.2 -4.80536 0.649068 0
M  V30 14611 N 1414.54 -0.0635198 -1.57472 0
M  V30 14612 C 1415.82 0.648029 -1.84553 0
M  V30 14613 C 1416.2 1.88295 -0.954371 0
M  V30 14614 O 1415.55 2.28492 -0.0185351 0
M  V30 14615 C 1415.76 0.993573 -3.34558 0
M  V30 14616 C 1417.1 1.3706 -4.0187 0
M  V30 14617 O 1418.13 1.08555 -3.39255 0
M  V30 14618 O 1416.99 1.90309 -5.12294 0
M  V30 14619 H 1414.08 0.321047 -0.76214 0
M  V30 14620 H 1416.63 -0.0938223 -1.6944 0
M  V30 14621 H 1415.4 0.116139 -3.91128 0
M  V30 14622 H 1415.02 1.79246 -3.54904 0
M  V30 14623 N 1416.02 1.56195 0.209972 0
M  V30 14624 C 1417.3 1.70553 0.957653 0
M  V30 14625 C 1417.68 0.614091 2.01971 0
M  V30 14626 O 1417.02 -0.377192 2.25365 0
M  V30 14627 C 1417.23 3.12314 1.55759 0
M  V30 14628 C 1418.58 3.72085 2.04543 0
M  V30 14629 O 1419.61 3.15349 1.65631 0
M  V30 14630 O 1418.47 4.71627 2.76099 0
M  V30 14631 H 1415.56 0.695077 0.448104 0
M  V30 14632 H 1418.11 1.68507 0.20084 0
M  V30 14633 H 1416.88 3.83215 0.791302 0
M  V30 14634 H 1416.5 3.18526 2.37964 0
M  V30 14635 N 1417.5 -0.477127 1.50204 0
M  V30 14636 C 1418.77 -1.23837 1.51406 0
M  V30 14637 C 1419.15 -2.09551 0.255278 0
M  V30 14638 O 1418.5 -2.15437 -0.761535 0
M  V30 14639 C 1418.71 -2.0746 2.80644 0
M  V30 14640 C 1420.06 -2.65852 3.31071 0
M  V30 14641 O 1421.08 -2.17708 2.81925 0
M  V30 14642 O 1419.94 -3.53556 4.16726 0
M  V30 14643 H 1417.04 -0.561638 0.607036 0
M  V30 14644 H 1419.58 -0.489442 1.62489 0
M  V30 14645 H 1418.36 -1.44258 3.63738 0
M  V30 14646 H 1417.98 -2.895 2.72536 0
M  V30 14647 N 1418.98 -1.3968 -0.729882 0
M  V30 14648 C 1420.22 -1.3862 -1.50213 0
M  V30 14649 C 1420.58 0.0167409 -1.91993 0
M  V30 14650 O 1421.78 0.15238 -2.68368 0
M  V30 14651 C 1420.05 -2.33583 -2.70507 0
M  V30 14652 S 1421.61 -2.50756 -3.60093 0
M  V30 14653 H 1418.43 -0.491511 -0.513749 0
M  V30 14654 H 1421.03 -1.75823 -0.854783 0
M  V30 14655 H 1419.74 -3.34369 -2.37961 0
M  V30 14656 H 1419.27 -1.97613 -3.40166 0
M  V30 14657 H 1421.28 -1.74929 -4.64343 0
M  V30 14658 N 1420.45 0.960609 -1.2494 0
M  V30 14659 C 1421.7 1.70111 -1.09117 0
M  V30 14660 C 1422.02 1.91466 0.369544 0
M  V30 14661 O 1421.29 1.49749 1.26302 0
M  V30 14662 H 1419.87 0.630372 -0.400799 0
M  V30 14663 H 1422.54 1.15525 -1.56971 0
M  V30 14664 H 1421.63 2.68277 -1.5948 0
M  V30 14665 N 1421.93 1.0643 1.16234 0
M  V30 14666 C 1423.21 0.695256 1.82827 0
M  V30 14667 C 1423.59 -0.823242 1.94386 0
M  V30 14668 O 1422.94 -1.73406 1.48804 0
M  V30 14669 C 1423.15 1.3988 3.19741 0
M  V30 14670 C 1424.5 1.54489 3.95498 0
M  V30 14671 O 1425.52 1.35882 3.29264 0
M  V30 14672 O 1424.38 1.85027 5.14225 0
M  V30 14673 H 1421.47 0.246285 0.789476 0
M  V30 14674 H 1424.02 1.16466 1.23426 0
M  V30 14675 H 1422.79 2.43419 3.06371 0
M  V30 14676 H 1422.41 0.91957 3.8682 0
M  V30 14677 N 1423.41 -1.329 0.847073 0
M  V30 14678 C 1424.83 -1.50333 0.53593 0
M  V30 14679 C 1425.03 -1.78492 -0.93504 0
M  V30 14680 O 1424.08 -1.85001 -1.71846 0
M  V30 14681 C 1425.4 -2.65254 1.41636 0
M  V30 14682 C 1426.94 -2.79139 1.416 0
M  V30 14683 C 1427.42 -3.97131 2.28147 0
M  V30 14684 N 1428.91 -4.0438 2.25901 0
M  V30 14685 C 1429.64 -4.94893 2.89601 0
M  V30 14686 N 1429.14 -5.90466 3.62383 0
M  V30 14687 N 1430.93 -4.87955 2.79028 0
M  V30 14688 H 1423.08 -1.12886 1.79918 0
M  V30 14689 H 1425.35 -0.555707 0.768045 0
M  V30 14690 H 1425.05 -2.51151 2.46203 0
M  V30 14691 H 1424.93 -3.60856 1.09829 0
M  V30 14692 H 1427.31 -2.92669 0.378013 0
M  V30 14693 H 1427.4 -1.84273 1.77418 0
M  V30 14694 H 1427.04 -3.8436 3.32009 0
M  V30 14695 H 1426.97 -4.91258 1.89665 0
M  V30 14696 H 1429.46 -3.35986 1.72979 0
M  V30 14697 H 1429.77 -6.56212 4.08174 0
M  V30 14698 H 1428.12 -5.90516 3.66491 0
M  V30 14699 H 1431.31 -4.12258 2.21723 0
M  V30 14700 H 1431.48 -5.58295 3.28954 0
M  V30 14701 N 1424.89 -0.604284 -1.45555 0
M  V30 14702 C 1426.11 -0.102634 -2.07146 0
M  V30 14703 C 1426.54 1.20239 -1.44652 0
M  V30 14704 O 1425.9 1.73133 -0.538033 0
M  V30 14705 C 1425.94 0.0270231 -3.6059 0
M  V30 14706 O 1425.05 1.0781 -3.98059 0
M  V30 14707 H 1424.39 -0.0725667 -0.660023 0
M  V30 14708 H 1426.92 -0.833355 -1.86859 0
M  V30 14709 H 1426.93 0.226299 -4.07372 0
M  V30 14710 H 1425.6 -0.925896 -4.05463 0
M  V30 14711 H 1424.18 0.855552 -3.62953 0
M  V30 14712 N 1426.37 1.53816 -0.343257 0
M  V30 14713 C 1427.64 1.9315 0.308609 0
M  V30 14714 C 1428.02 1.27479 1.68263 0
M  V30 14715 O 1427.37 0.425614 2.24501 0
M  V30 14716 C 1427.58 3.46912 0.381176 0
M  V30 14717 C 1428.93 4.19868 0.632153 0
M  V30 14718 O 1429.95 3.53174 0.463303 0
M  V30 14719 O 1428.81 5.38016 0.959237 0
M  V30 14720 H 1425.91 0.807169 0.180022 0
M  V30 14721 H 1428.45 1.65053 -0.394412 0
M  V30 14722 H 1427.22 3.86932 -0.583058 0
M  V30 14723 H 1426.85 3.81175 1.13099 0
M  V30 14724 N 1427.84 0.0718701 1.57436 0
M  V30 14725 C 1428.75 -0.910077 2.16229 0
M  V30 14726 C 1429.77 -1.32699 1.12548 0
M  V30 14727 O 1430.95 -1.39967 1.44814 0
M  V30 14728 C 1428.01 -2.15942 2.71238 0
M  V30 14729 C 1427.07 -1.79891 3.89792 0
M  V30 14730 C 1426.31 -2.9887 4.42168 0
M  V30 14731 O 1426.53 -4.1289 3.93545 0
M  V30 14732 O 1425.46 -2.78682 5.33498 0
M  V30 14733 H 1429.29 -0.439969 3.00496 0
M  V30 14734 H 1426.87 -0.151204 1.48633 0
M  V30 14735 H 1428.76 -2.89204 3.06494 0
M  V30 14736 H 1427.43 -2.62051 1.90029 0
M  V30 14737 H 1426.34 -1.03881 3.59388 0
M  V30 14738 H 1427.67 -1.38566 4.72293 0
M  V30 14739 N 1429.32 -1.56304 -0.201686 0
M  V30 14740 C 1430.55 -1.84692 -0.943583 0
M  V30 14741 C 1430.97 -0.654649 -1.7634 0
M  V30 14742 O 1430.33 0.396586 -1.76909 0
M  V30 14743 C 1430.38 -3.11251 -1.82085 0
M  V30 14744 O 1429.48 -2.9134 -2.91881 0
M  V30 14745 H 1428.82 -0.608351 -0.266092 0
M  V30 14746 H 1431.35 -2.0353 -0.208992 0
M  V30 14747 H 1431.36 -3.41874 -2.2268 0
M  V30 14748 H 1430.04 -3.97652 -1.21844 0
M  V30 14749 H 1428.62 -2.72 -2.55089 0
M  V30 14750 N 1430.8 0.469154 -1.50455 0
M  V30 14751 C 1431.76 1.5493 -1.68906 0
M  V30 14752 C 1432.76 1.50744 -0.559721 0
M  V30 14753 O 1433.95 1.5333 -0.826781 0
M  V30 14754 C 1431.09 2.94556 -1.71609 0
M  V30 14755 H 1432.28 1.39887 -2.65276 0
M  V30 14756 H 1429.83 0.695667 -1.39965 0
M  V30 14757 H 1430.57 3.15041 -0.769382 0
M  V30 14758 H 1430.35 2.99002 -2.53654 0
M  V30 14759 H 1431.84 3.72973 -1.87831 0
M  V30 14760 N 1432.28 1.40065 0.722464 0
M  V30 14761 C 1433.5 1.4146 1.5167 0
M  V30 14762 C 1433.93 0.0142653 1.88095 0
M  V30 14763 O 1433.29 -0.975934 1.52791 0
M  V30 14764 C 1433.33 2.30531 2.77287 0
M  V30 14765 O 1432.44 1.74382 3.73717 0
M  V30 14766 H 1431.78 0.481194 0.457546 0
M  V30 14767 H 1434.31 1.84213 0.890331 0
M  V30 14768 H 1434.32 2.45479 3.25889 0
M  V30 14769 H 1432.99 3.32292 2.50109 0
M  V30 14770 H 1431.57 1.68743 3.32536 0
M  V30 14771 N 1433.76 -0.95397 1.25448 0
M  V30 14772 C 1435 -1.71348 1.11441 0
M  V30 14773 C 1435.36 -1.88988 -0.338748 0
M  V30 14774 O 1436.56 -2.62003 -0.600652 0
M  V30 14775 C 1434.83 -3.05874 1.84867 0
M  V30 14776 S 1436.39 -3.97072 1.86759 0
M  V30 14777 H 1433.21 -0.588957 0.39831 0
M  V30 14778 H 1435.81 -1.13776 1.58982 0
M  V30 14779 H 1434.52 -2.90706 2.89686 0
M  V30 14780 H 1434.05 -3.68508 1.37715 0
M  V30 14781 H 1436.06 -4.87116 0.945109 0
M  V30 14782 N 1435.24 -1.07045 -1.15668 0
M  V30 14783 C 1436.2 -0.69198 -2.18505 0
M  V30 14784 C 1437.2 0.266185 -1.58582 0
M  V30 14785 O 1438.39 0.0475566 -1.74135 0
M  V30 14786 C 1435.52 -0.0194196 -3.40894 0
M  V30 14787 H 1436.71 -1.60241 -2.53501 0
M  V30 14788 H 1434.27 -0.866598 -1.30076 0
M  V30 14789 H 1435 0.903398 -3.11463 0
M  V30 14790 H 1434.79 -0.708519 -3.85645 0
M  V30 14791 H 1436.28 0.230829 -4.16962 0
M  V30 14792 N 1436.71 1.32449 -0.85411 0
M  V30 14793 C 1437.94 2.01171 -0.470505 0
M  V30 14794 C 1438.35 1.64356 0.937218 0
M  V30 14795 O 1437.69 0.860565 1.62296 0
M  V30 14796 C 1437.76 3.55583 -0.529241 0
M  V30 14797 C 1437.42 4.15824 -1.89576 0
M  V30 14798 C 1438.42 4.34091 -2.86114 0
M  V30 14799 C 1436.1 4.51911 -2.19276 0
M  V30 14800 C 1438.1 4.87612 -4.10504 0
M  V30 14801 C 1435.78 5.05137 -3.43919 0
M  V30 14802 C 1436.78 5.22936 -4.39349 0
M  V30 14803 O 1436.47 5.75024 -5.61785 0
M  V30 14804 H 1436.2 0.650645 -0.183405 0
M  V30 14805 H 1438.76 1.70015 -1.15257 0
M  V30 14806 H 1436.99 3.86131 0.209671 0
M  V30 14807 H 1438.67 4.05579 -0.161315 0
M  V30 14808 H 1439.44 4.06545 -2.64473 0
M  V30 14809 H 1435.32 4.37343 -1.45782 0
M  V30 14810 H 1438.86 5.0142 -4.84999 0
M  V30 14811 H 1434.76 5.32114 -3.6541 0
M  V30 14812 H 1435.53 5.93418 -5.63736 0
M  V30 14813 N 1438.19 0.611994 1.45232 0
M  V30 14814 C 1439.6 0.193464 1.85695 0
M  V30 14815 C 1439.95 -1.25069 1.5117 0
M  V30 14816 O 1439.08 -1.94894 0.940497 0
M  V30 14817 C 1439.67 0.344334 3.37046 0
M  V30 14818 C 1438.23 -0.0195378 3.76395 0
M  V30 14819 C 1437.38 0.666714 2.69166 0
M  V30 14820 H 1440.33 0.818395 1.35971 0
M  V30 14821 H 1440.35 -0.422209 3.7815 0
M  V30 14822 H 1439.86 1.3955 3.62143 0
M  V30 14823 H 1437.96 -1.06971 3.56915 0
M  V30 14824 H 1438.08 0.377184 4.77613 0
M  V30 14825 H 1436.44 0.103912 2.54488 0
M  V30 14826 H 1437.22 1.7201 2.97099 0
M  V30 14827 N 1439.67 -1.53632 0.351409 0
M  V30 14828 C 1440.9 -2.05458 -0.243852 0
M  V30 14829 C 1441.31 -1.22588 -1.43589 0
M  V30 14830 O 1440.67 -0.263088 -1.80594 0
M  V30 14831 C 1440.72 -3.55586 -0.651226 0
M  V30 14832 O 1440.44 -4.35313 0.493415 0
M  V30 14833 C 1441.94 -4.23614 -1.30637 0
M  V30 14834 H 1439.16 -0.669443 -0.0456828 0
M  V30 14835 H 1441.71 -1.98149 0.505675 0
M  V30 14836 H 1439.86 -3.63091 -1.35068 0
M  V30 14837 H 1440.28 -5.24234 0.167107 0
M  V30 14838 H 1441.75 -5.30022 -1.5421 0
M  V30 14839 H 1442.23 -3.76449 -2.26236 0
M  V30 14840 H 1442.83 -4.20323 -0.648738 0
M  V30 14841 N 1441.15 -0.0802183 -1.57396 0
M  V30 14842 C 1442.39 0.590512 -1.95684 0
M  V30 14843 C 1442.75 1.66265 -0.960199 0
M  V30 14844 O 1443.95 2.38954 -1.23104 0
M  V30 14845 C 1442.22 1.14486 -3.38567 0
M  V30 14846 S 1443.78 1.82954 -3.9884 0
M  V30 14847 H 1440.6 0.193123 -0.684269 0
M  V30 14848 H 1443.2 -0.156081 -1.94876 0
M  V30 14849 H 1441.91 0.352828 -4.08881 0
M  V30 14850 H 1441.44 1.92762 -3.42938 0
M  V30 14851 H 1443.45 3.11265 -3.86431 0
M  V30 14852 N 1442.63 1.56409 0.193394 0
M  V30 14853 C 1443.87 1.80724 0.913521 0
M  V30 14854 C 1444.2 0.653718 1.83185 0
M  V30 14855 O 1443.46 -0.360417 1.92353 0
M  V30 14856 C 1443.75 3.11039 1.76039 0
M  V30 14857 C 1443.42 4.39832 0.992892 0
M  V30 14858 C 1442.08 4.7482 0.780991 0
M  V30 14859 C 1444.43 5.19228 0.452985 0
M  V30 14860 C 1441.76 5.86697 0.0177286 0
M  V30 14861 C 1444.11 6.31902 -0.297075 0
M  V30 14862 C 1442.78 6.65472 -0.519977 0
M  V30 14863 H 1442.05 0.661315 0.334281 0
M  V30 14864 H 1444.7 1.90654 0.179786 0
M  V30 14865 H 1443 2.96353 2.56285 0
M  V30 14866 H 1444.7 3.27058 2.32022 0
M  V30 14867 H 1441.29 4.12376 1.16806 0
M  V30 14868 H 1445.47 4.9261 0.604092 0
M  V30 14869 H 1440.73 6.11178 -0.164925 0
M  V30 14870 H 1444.9 6.92639 -0.7228 0
M  V30 14871 H 1442.53 7.52004 -1.11331 0
M  V30 14872 N 1444.1 -0.461169 1.50702 0
M  V30 14873 C 1445.51 -1.04177 1.54932 0
M  V30 14874 C 1445.87 -1.92894 0.358648 0
M  V30 14875 O 1444.99 -2.09876 -0.527346 0
M  V30 14876 C 1445.59 -1.8961 2.80773 0
M  V30 14877 C 1444.14 -2.42761 2.87652 0
M  V30 14878 C 1443.29 -1.21356 2.49335 0
M  V30 14879 H 1446.24 -0.243379 1.56823 0
M  V30 14880 H 1446.26 -2.74794 2.63189 0
M  V30 14881 H 1445.78 -1.25014 3.67414 0
M  V30 14882 H 1443.88 -3.10881 2.05386 0
M  V30 14883 H 1443.99 -2.77189 3.90772 0
M  V30 14884 H 1442.35 -1.55146 2.01995 0
M  V30 14885 H 1443.14 -0.584069 3.38295 0
M  V30 14886 N 1445.58 -1.40446 -0.715026 0
M  V30 14887 C 1446.51 -1.43511 -1.84193 0
M  V30 14888 C 1447.49 -0.295969 -1.67505 0
M  V30 14889 O 1448.68 -0.504667 -1.87528 0
M  V30 14890 C 1445.81 -1.29751 -3.22152 0
M  V30 14891 C 1444.76 -2.41274 -3.53512 0
M  V30 14892 C 1444.09 -2.12591 -4.90621 0
M  V30 14893 C 1445.39 -3.83614 -3.54454 0
M  V30 14894 H 1447.08 -2.37819 -1.81885 0
M  V30 14895 H 1444.63 -1.14469 -0.873655 0
M  V30 14896 H 1446.58 -1.30511 -4.0068 0
M  V30 14897 H 1445.3 -0.319189 -3.25037 0
M  V30 14898 H 1443.96 -2.39764 -2.77324 0
M  V30 14899 H 1443.61 -1.13148 -4.90109 0
M  V30 14900 H 1443.31 -2.87308 -5.1257 0
M  V30 14901 H 1444.84 -2.15034 -5.71483 0
M  V30 14902 H 1446.25 -3.86945 -4.23021 0
M  V30 14903 H 1444.65 -4.57855 -3.87929 0
M  V30 14904 H 1445.72 -4.13159 -2.53827 0
M  V30 14905 N 1447.06 0.947303 -1.25952 0
M  V30 14906 C 1448.29 1.7273 -1.13895 0
M  V30 14907 C 1448.7 1.86296 0.306488 0
M  V30 14908 O 1448.06 1.36594 1.2103 0
M  V30 14909 C 1448.11 3.13727 -1.79604 0
M  V30 14910 O 1447.83 3.00816 -3.18499 0
M  V30 14911 C 1449.33 4.0797 -1.73422 0
M  V30 14912 H 1446.55 0.54102 -0.39691 0
M  V30 14913 H 1449.1 1.18797 -1.66456 0
M  V30 14914 H 1447.25 3.6458 -1.30997 0
M  V30 14915 H 1447.67 3.89813 -3.50922 0
M  V30 14916 H 1449.14 5.04487 -2.24047 0
M  V30 14917 H 1449.62 4.33594 -0.699481 0
M  V30 14918 H 1450.22 3.63035 -2.21553 0
M  V30 14919 N 1448.54 1.07657 1.15099 0
M  V30 14920 C 1449.47 0.657598 2.19564 0
M  V30 14921 C 1450.48 -0.29146 1.6017 0
M  V30 14922 O 1451.67 -0.0802981 1.78319 0
M  V30 14923 C 1448.77 -0.0542221 3.38857 0
M  V30 14924 C 1447.95 0.911803 4.27791 0
M  V30 14925 C 1447 0.236709 5.25667 0
M  V30 14926 O 1446.03 0.878731 5.62376 0
M  V30 14927 N 1447.23 -1.01641 5.71532 0
M  V30 14928 H 1450 1.55626 2.56126 0
M  V30 14929 H 1447.56 0.961657 1.30245 0
M  V30 14930 H 1449.55 -0.516603 4.01389 0
M  V30 14931 H 1448.12 -0.854871 3.00684 0
M  V30 14932 H 1447.34 1.55322 3.6231 0
M  V30 14933 H 1448.63 1.56667 4.8408 0
M  V30 14934 H 1448.03 -1.55791 5.43825 0
M  V30 14935 H 1446.58 -1.42242 6.3609 0
M  V30 14936 N 1450.02 -1.31994 0.861122 0
M  V30 14937 C 1451.26 -1.97025 0.467678 0
M  V30 14938 C 1451.59 -1.68116 -0.978129 0
M  V30 14939 O 1450.85 -0.965342 -1.70234 0
M  V30 14940 C 1451.15 -3.51232 0.661135 0
M  V30 14941 C 1450.81 -4.00142 2.07839 0
M  V30 14942 C 1449.47 -4.1321 2.466 0
M  V30 14943 C 1451.83 -4.25986 3.00309 0
M  V30 14944 C 1449.15 -4.49467 3.7709 0
M  V30 14945 C 1451.51 -4.63704 4.30304 0
M  V30 14946 C 1450.17 -4.74978 4.68991 0
M  V30 14947 H 1449.44 -0.720967 0.171136 0
M  V30 14948 H 1452.09 -1.57285 1.09242 0
M  V30 14949 H 1450.39 -3.91772 -0.0467947 0
M  V30 14950 H 1452.09 -3.99584 0.336669 0
M  V30 14951 H 1448.68 -3.90461 1.76743 0
M  V30 14952 H 1452.86 -4.15393 2.71592 0
M  V30 14953 H 1448.12 -4.56391 4.06838 0
M  V30 14954 H 1452.29 -4.82654 5.02014 0
M  V30 14955 H 1449.92 -5.02828 5.70147 0
M  V30 14956 N 1451.49 -0.619688 -1.44906 0
M  V30 14957 C 1452.72 -0.126363 -2.06514 0
M  V30 14958 C 1453.14 1.19432 -1.46224 0
M  V30 14959 O 1452.49 1.7301 -0.580851 0
M  V30 14960 C 1452.55 0.00682319 -3.61499 0
M  V30 14961 O 1452.27 -1.26162 -4.19541 0
M  V30 14962 C 1453.77 0.530189 -4.40118 0
M  V30 14963 H 1450.99 -0.0744032 -0.666862 0
M  V30 14964 H 1453.53 -0.850851 -1.85959 0
M  V30 14965 H 1451.69 0.681694 -3.81355 0
M  V30 14966 H 1452.1 -1.09908 -5.12855 0
M  V30 14967 H 1453.57 0.572428 -5.49024 0
M  V30 14968 H 1454.05 1.55494 -4.10753 0
M  V30 14969 H 1454.66 -0.111044 -4.25155 0
M  V30 14970 N 1452.97 1.53444 -0.359552 0
M  V30 14971 C 1454.21 2.03077 0.232169 0
M  V30 14972 C 1454.58 1.24125 1.46482 0
M  V30 14973 O 1455.78 1.63735 2.13177 0
M  V30 14974 C 1454.05 3.53554 0.522891 0
M  V30 14975 S 1455.61 4.25068 1.08914 0
M  V30 14976 H 1452.43 0.707738 0.0680317 0
M  V30 14977 H 1455.03 1.88971 -0.501022 0
M  V30 14978 H 1453.73 4.0862 -0.381812 0
M  V30 14979 H 1453.26 3.71811 1.28532 0
M  V30 14980 H 1455.28 4.35734 2.37382 0
M  V30 14981 N 1454.45 0.0885642 1.57351 0
M  V30 14982 C 1455.4 -0.890284 2.14888 0
M  V30 14983 C 1456.39 -1.29671 1.09004 0
M  V30 14984 O 1457.6 -1.272 1.27359 0
M  V30 14985 H 1453.97 -0.305107 0.687324 0
M  V30 14986 H 1455.94 -0.380243 2.95967 0
M  V30 14987 C 1454.69 -2.14216 2.73874 0
M  V30 14988 H 1454.02 -1.8383 3.55031 0
M  V30 14989 H 1455.46 -2.8078 3.17708 0
M  V30 14990 C 1453.92 -2.91186 1.69448 0
M  V30 14991 O 1454.45 -3.85494 1.12949 0
M  V30 14992 N 1452.65 -2.54603 1.40091 0
M  V30 14993 H 1452.2 -1.77984 1.86225 0
M  V30 14994 H 1452.16 -3.06403 0.704577 0
M  V30 14995 N 1455.93 -1.56509 -0.185096 0
M  V30 14996 C 1456.88 -1.96237 -1.24875 0
M  V30 14997 C 1457.87 -0.849169 -1.46579 0
M  V30 14998 O 1459.08 -1.03422 -1.47322 0
M  V30 14999 H 1455.45 -0.624147 -0.419457 0
M  V30 15000 H 1457.42 -2.8492 -0.88673 0
M  V30 15001 C 1456.17 -2.32667 -2.58382 0
M  V30 15002 H 1455.49 -3.17858 -2.425 0
M  V30 15003 H 1456.93 -2.6432 -3.31528 0
M  V30 15004 C 1455.39 -1.16496 -3.16118 0
M  V30 15005 O 1455.92 -0.445283 -3.99224 0
M  V30 15006 N 1454.13 -0.939133 -2.75007 0
M  V30 15007 H 1453.68 -1.52611 -2.07527 0
M  V30 15008 H 1453.63 -0.163659 -3.13974 0
M  V30 15009 N 1457.41 0.45317 -1.50944 0
M  V30 15010 C 1458.65 1.20151 -1.62506 0
M  V30 15011 C 1458.98 1.92085 -0.335927 0
M  V30 15012 O 1458.25 1.84889 0.64751 0
M  V30 15013 H 1456.83 0.446502 -0.59887 0
M  V30 15014 H 1459.49 0.521103 -1.87804 0
M  V30 15015 H 1458.58 1.93972 -2.44502 0
M  V30 15016 N 1458.88 1.40823 0.707568 0
M  V30 15017 C 1460.3 1.23029 1.01666 0
M  V30 15018 C 1460.5 0.111152 2.01193 0
M  V30 15019 O 1459.56 -0.52836 2.4691 0
M  V30 15020 C 1460.87 2.57509 1.55272 0
M  V30 15021 C 1462.42 2.6459 1.67216 0
M  V30 15022 C 1462.89 3.99357 2.24227 0
M  V30 15023 N 1464.38 4.01141 2.31603 0
M  V30 15024 C 1465.12 5.02211 2.76715 0
M  V30 15025 N 1464.61 6.13674 3.21521 0
M  V30 15026 N 1466.41 4.89577 2.76172 0
M  V30 15027 H 1458.56 2.12346 0.0480107 0
M  V30 15028 H 1460.82 0.944281 0.0838885 0
M  V30 15029 H 1460.53 3.40095 0.896012 0
M  V30 15030 H 1460.4 2.79158 2.53674 0
M  V30 15031 H 1462.79 1.8237 2.32002 0
M  V30 15032 H 1462.87 2.46763 0.673927 0
M  V30 15033 H 1462.51 4.8202 1.6006 0
M  V30 15034 H 1462.44 4.14518 3.2478 0
M  V30 15035 H 1464.93 3.20657 1.99968 0
M  V30 15036 H 1465.25 6.86677 3.54534 0
M  V30 15037 H 1463.59 6.17228 3.1946 0
M  V30 15038 H 1466.78 4.01588 2.40509 0
M  V30 15039 H 1466.96 5.68485 3.11012 0
M  V30 15040 N 1460.36 -0.94061 1.26453 0
M  V30 15041 C 1461.6 -1.70157 1.13252 0
M  V30 15042 C 1461.97 -1.89337 -0.318684 0
M  V30 15043 O 1463.17 -2.62625 -0.57283 0
M  V30 15044 C 1461.44 -3.03896 1.88101 0
M  V30 15045 S 1463 -3.95069 1.9096 0
M  V30 15046 H 1459.82 -0.584699 0.404534 0
M  V30 15047 H 1462.42 -1.12084 1.6018 0
M  V30 15048 H 1461.12 -2.87617 2.92753 0
M  V30 15049 H 1460.65 -3.67026 1.41616 0
M  V30 15050 H 1462.67 -4.86086 0.996721 0
M  V30 15051 N 1461.84 -1.08266 -1.14527 0
M  V30 15052 C 1463.09 -0.806405 -1.84878 0
M  V30 15053 C 1463.4 0.670151 -1.83762 0
M  V30 15054 O 1464.61 1.06151 -2.49888 0
M  V30 15055 C 1463.06 -1.39257 -3.31867 0
M  V30 15056 C 1462.67 -2.90081 -3.41404 0
M  V30 15057 C 1464.42 -1.19475 -4.0734 0
M  V30 15058 C 1462.32 -3.41842 -4.82595 0
M  V30 15059 H 1461.25 -0.297993 -0.692615 0
M  V30 15060 H 1463.9 -1.30389 -1.29116 0
M  V30 15061 H 1462.29 -0.822802 -3.87358 0
M  V30 15062 H 1463.46 -3.53182 -2.95971 0
M  V30 15063 H 1461.78 -3.08761 -2.79385 0
M  V30 15064 H 1464.37 -1.55614 -5.11555 0
M  V30 15065 H 1464.72 -0.134455 -4.16083 0
M  V30 15066 H 1465.25 -1.73138 -3.58145 0
M  V30 15067 H 1461.99 -4.47439 -4.79039 0
M  V30 15068 H 1461.51 -2.835 -5.28572 0
M  V30 15069 H 1463.19 -3.38346 -5.51481 0
M  V30 15070 N 1463.32 1.31536 -0.86811 0
M  V30 15071 C 1464.27 2.30504 -0.311581 0
M  V30 15072 C 1465.26 1.59439 0.572332 0
M  V30 15073 O 1466.47 1.74059 0.458639 0
M  V30 15074 H 1462.84 0.747508 -0.0820745 0
M  V30 15075 H 1464.81 2.74919 -1.16026 0
M  V30 15076 C 1463.56 3.44459 0.473622 0
M  V30 15077 H 1462.89 3.99313 -0.197259 0
M  V30 15078 H 1464.33 4.15829 0.828393 0
M  V30 15079 C 1462.78 2.92929 1.66416 0
M  V30 15080 O 1463.31 2.91543 2.76344 0
M  V30 15081 N 1461.52 2.49154 1.49568 0
M  V30 15082 H 1461.07 2.50481 0.601408 0
M  V30 15083 H 1461.03 2.15032 2.29366 0
M  V30 15084 N 1464.8 0.627364 1.44575 0
M  V30 15085 C 1466.05 0.127824 2.01295 0
M  V30 15086 C 1466.36 -1.25647 1.49907 0
M  V30 15087 O 1467.57 -1.84982 1.9873 0
M  V30 15088 C 1466.02 0.177775 3.59461 0
M  V30 15089 C 1465.63 1.56315 4.19845 0
M  V30 15090 C 1467.37 -0.265497 4.23669 0
M  V30 15091 C 1465.28 1.56842 5.70223 0
M  V30 15092 H 1464.21 0.0440205 0.752714 0
M  V30 15093 H 1466.86 0.785607 1.65833 0
M  V30 15094 H 1465.24 -0.547038 3.92203 0
M  V30 15095 H 1466.42 2.31125 3.98645 0
M  V30 15096 H 1464.73 1.95019 3.67909 0
M  V30 15097 H 1467.33 -0.281038 5.33961 0
M  V30 15098 H 1467.67 -1.29208 3.95741 0
M  V30 15099 H 1468.21 0.406698 3.95716 0
M  V30 15100 H 1464.94 2.57325 6.0288 0
M  V30 15101 H 1464.46 0.863198 5.93556 0
M  V30 15102 H 1466.14 1.30071 6.33791 0
M  V30 15103 N 1466.28 -1.53251 0.367684 0
M  V30 15104 C 1467.22 -2.27318 -0.4929 0
M  V30 15105 C 1468.22 -1.30376 -1.08159 0
M  V30 15106 O 1469.42 -1.47996 -1.02455 0
M  V30 15107 H 1465.8 -0.730709 -0.177677 0
M  V30 15108 H 1467.77 -2.98005 0.153525 0
M  V30 15109 C 1466.52 -3.07678 -1.61955 0
M  V30 15110 H 1465.84 -3.82117 -1.17587 0
M  V30 15111 H 1467.28 -3.62678 -2.19638 0
M  V30 15112 C 1465.74 -2.18648 -2.5631 0
M  V30 15113 O 1466.27 -1.79869 -3.5918 0
M  V30 15114 N 1464.48 -1.83239 -2.25548 0
M  V30 15115 H 1464.02 -2.14973 -1.4193 0
M  V30 15116 H 1463.98 -1.23957 -2.88933 0
M  V30 15117 N 1467.75 -0.0969077 -1.57302 0
M  V30 15118 C 1469 0.561074 -1.95508 0
M  V30 15119 C 1469.35 1.6568 -0.97816 0
M  V30 15120 O 1468.65 1.91599 -0.00445428 0
M  V30 15121 C 1468.84 1.15972 -3.38061 0
M  V30 15122 C 1468.67 0.123524 -4.4953 0
M  V30 15123 C 1467.44 -0.30062 -5.04405 0
M  V30 15124 C 1469.64 -0.649001 -5.10189 0
M  V30 15125 N 1467.62 -1.3249 -5.99433 0
M  V30 15126 C 1468.99 -1.52506 -6.00951 0
M  V30 15127 C 1471.05 -0.70232 -4.92922 0
M  V30 15128 C 1469.75 -2.44976 -6.76298 0
M  V30 15129 C 1471.78 -1.61463 -5.68932 0
M  V30 15130 C 1471.14 -2.47831 -6.59363 0
M  V30 15131 H 1467.24 0.175591 -0.762031 0
M  V30 15132 H 1469.82 -0.179896 -1.93867 0
M  V30 15133 H 1467.99 1.87051 -3.40392 0
M  V30 15134 H 1469.72 1.78022 -3.63442 0
M  V30 15135 H 1466.48 0.0874763 -4.73519 0
M  V30 15136 H 1466.9 -1.8353 -6.51648 0
M  V30 15137 H 1471.54 -0.0487412 -4.22772 0
M  V30 15138 H 1469.26 -3.11358 -7.45709 0
M  V30 15139 H 1472.85 -1.66104 -5.57585 0
M  V30 15140 H 1471.73 -3.17278 -7.1715 0
M  V30 15141 N 1469.23 1.56605 0.176793 0
M  V30 15142 C 1470.65 1.50601 0.528354 0
M  V30 15143 C 1470.85 0.800205 1.8493 0
M  V30 15144 O 1469.9 0.358299 2.49945 0
M  V30 15145 C 1471.22 2.95322 0.566172 0
M  V30 15146 C 1472.76 3.06097 0.653751 0
M  V30 15147 C 1473.24 4.52265 0.722511 0
M  V30 15148 N 1474.73 4.5649 0.785548 0
M  V30 15149 C 1475.47 5.66926 0.859232 0
M  V30 15150 N 1474.96 6.87006 0.894088 0
M  V30 15151 N 1476.75 5.54883 0.897832 0
M  V30 15152 H 1468.91 2.00899 -0.689442 0
M  V30 15153 H 1471.17 0.915011 -0.24791 0
M  V30 15154 H 1470.87 3.50095 -0.33566 0
M  V30 15155 H 1470.75 3.49671 1.41456 0
M  V30 15156 H 1473.14 2.51361 1.54601 0
M  V30 15157 H 1473.22 2.54842 -0.221207 0
M  V30 15158 H 1472.86 5.0763 -0.165469 0
M  V30 15159 H 1472.79 5.01271 1.61353 0
M  V30 15160 H 1475.28 3.70032 0.767117 0
M  V30 15161 H 1475.59 7.66922 0.951333 0
M  V30 15162 H 1473.94 6.89628 0.862457 0
M  V30 15163 H 1477.13 4.5999 0.867564 0
M  V30 15164 H 1477.3 6.40972 0.951795 0
M  V30 15165 N 1470.71 -0.445159 1.51182 0
M  V30 15166 C 1471.95 -1.2048 1.65118 0
M  V30 15167 C 1472.31 -1.88673 0.35589 0
M  V30 15168 O 1473.51 -2.66228 0.370932 0
M  V30 15169 C 1471.79 -2.20075 2.81606 0
M  V30 15170 S 1473.34 -3.04631 3.15825 0
M  V30 15171 H 1470.16 -0.408682 0.581807 0
M  V30 15172 H 1472.76 -0.497601 1.89061 0
M  V30 15173 H 1471.47 -1.68603 3.74167 0
M  V30 15174 H 1471 -2.95387 2.59827 0
M  V30 15175 H 1473.01 -4.21606 2.61654 0
M  V30 15176 N 1472.19 -1.41197 -0.700089 0
M  V30 15177 C 1473.46 -1.30803 -1.4543 0
M  V30 15178 C 1473.84 0.0664987 -2.10995 0
M  V30 15179 O 1473.19 1.08043 -2.01343 0
M  V30 15180 C 1473.4 -2.45815 -2.47742 0
M  V30 15181 C 1474.75 -2.86771 -3.13126 0
M  V30 15182 O 1475.77 -2.45521 -2.58065 0
M  V30 15183 O 1474.63 -3.58086 -4.1284 0
M  V30 15184 H 1471.73 -0.514523 -0.647453 0
M  V30 15185 H 1474.27 -1.53151 -0.73095 0
M  V30 15186 H 1473.05 -3.37557 -1.97917 0
M  V30 15187 H 1472.67 -2.25319 -3.27593 0
M  V30 15188 N 1473.67 0.933891 -1.2695 0
M  V30 15189 C 1474.61 2.05498 -1.08964 0
M  V30 15190 C 1475.61 1.69394 -0.0144837 0
M  V30 15191 O 1476.81 1.79179 -0.171729 0
M  V30 15192 H 1473.19 0.672978 -0.335566 0
M  V30 15193 H 1475.16 2.17817 -2.03957 0
M  V30 15194 C 1473.91 3.39579 -0.747074 0
M  V30 15195 H 1473.23 3.67842 -1.56628 0
M  V30 15196 H 1474.67 4.18815 -0.661064 0
M  V30 15197 C 1473.13 3.3241 0.548214 0
M  V30 15198 O 1473.66 3.69132 1.58443 0
M  V30 15199 N 1471.87 2.85509 0.541545 0
M  V30 15200 H 1471.41 2.55822 -0.302112 0
M  V30 15201 H 1471.37 2.81095 1.4083 0
M  V30 15202 N 1475.14 1.08871 1.13951 0
M  V30 15203 C 1476.42 0.73388 1.81311 0
M  V30 15204 C 1476.8 -0.781824 1.96089 0
M  V30 15205 O 1476.15 -1.70211 1.52448 0
M  V30 15206 C 1476.36 1.46631 3.16702 0
M  V30 15207 C 1477.71 1.62843 3.92132 0
M  V30 15208 O 1478.73 1.42836 3.26307 0
M  V30 15209 O 1477.59 1.95893 5.10185 0
M  V30 15210 H 1474.68 0.262976 0.784074 0
M  V30 15211 H 1477.23 1.19057 1.20927 0
M  V30 15212 H 1476 2.49863 3.01138 0
M  V30 15213 H 1475.62 1.00141 3.84782 0
M  V30 15214 N 1476.62 -1.31073 0.875073 0
M  V30 15215 C 1477.57 -2.30335 0.3238 0
M  V30 15216 C 1478.56 -1.5974 -0.563869 0
M  V30 15217 O 1479.77 -1.743 -0.449402 0
M  V30 15218 H 1476.14 -0.747062 0.0860376 0
M  V30 15219 H 1478.12 -2.743 1.17483 0
M  V30 15220 C 1476.86 -3.44705 -0.455348 0
M  V30 15221 H 1476.19 -3.99203 0.218433 0
M  V30 15222 H 1477.63 -4.16262 -0.806329 0
M  V30 15223 C 1476.09 -2.93807 -1.6486 0
M  V30 15224 O 1476.62 -2.93004 -2.74794 0
M  V30 15225 N 1474.82 -2.49944 -1.48244 0
M  V30 15226 H 1474.37 -2.50797 -0.588116 0
M  V30 15227 H 1474.33 -2.16245 -2.28222 0
M  V30 15228 N 1478.1 -0.635022 -1.4424 0
M  V30 15229 C 1479.38 -0.0718064 -1.95468 0
M  V30 15230 C 1479.76 1.40348 -1.57689 0
M  V30 15231 O 1479.11 2.11986 -0.852888 0
M  V30 15232 C 1479.32 -0.298793 -3.47719 0
M  V30 15233 C 1480.66 -0.194056 -4.24156 0
M  V30 15234 O 1481.69 -0.230368 -3.55454 0
M  V30 15235 O 1480.55 -0.102294 -5.46404 0
M  V30 15236 H 1477.64 0.0200784 -0.826756 0
M  V30 15237 H 1480.19 -0.706996 -1.54271 0
M  V30 15238 H 1478.96 -1.32233 -3.6828 0
M  V30 15239 H 1478.58 0.370347 -3.95871 0
M  V30 15240 N 1479.58 1.53054 -0.375806 0
M  V30 15241 C 1480.82 2.03312 0.210617 0
M  V30 15242 C 1481.18 1.25671 1.45158 0
M  V30 15243 O 1482.38 1.65986 2.11428 0
M  V30 15244 C 1480.65 3.54089 0.485362 0
M  V30 15245 S 1482.21 4.262 1.044 0
M  V30 15246 H 1479.03 0.708419 0.0605214 0
M  V30 15247 H 1481.63 1.88429 -0.521037 0
M  V30 15248 H 1480.34 4.08192 -0.42513 0
M  V30 15249 H 1479.87 3.73153 1.24581 0
M  V30 15250 H 1481.88 4.38227 2.32747 0
M  V30 15251 N 1481.06 0.105248 1.57248 0
M  V30 15252 C 1482.3 -0.554956 1.94331 0
M  V30 15253 C 1482.63 -1.68087 0.988528 0
M  V30 15254 O 1481.9 -1.95854 0.042366 0
M  V30 15255 H 1480.48 -0.207994 0.717459 0
M  V30 15256 H 1483.14 0.170964 1.94149 0
M  V30 15257 H 1482.23 -0.95853 2.97016 0
M  V30 15258 N 1482.53 -1.56697 -0.168486 0
M  V30 15259 C 1483.81 -1.73032 -0.912097 0
M  V30 15260 C 1484.19 -0.667424 -2.00271 0
M  V30 15261 O 1483.54 0.317307 -2.26286 0
M  V30 15262 C 1483.75 -3.16334 -1.47424 0
M  V30 15263 C 1485.1 -3.77378 -1.94606 0
M  V30 15264 O 1486.12 -3.19629 -1.57212 0
M  V30 15265 O 1484.98 -4.78781 -2.63497 0
M  V30 15266 H 1482.07 -0.706713 -0.429518 0
M  V30 15267 H 1484.62 -1.68981 -0.156093 0
M  V30 15268 H 1483.39 -3.85179 -0.689421 0
M  V30 15269 H 1483.02 -3.24723 -2.29435 0
M  V30 15270 N 1484.01 0.437135 -1.51416 0
M  V30 15271 C 1484.96 1.55124 -1.73319 0
M  V30 15272 C 1485.95 1.58437 -0.599511 0
M  V30 15273 O 1487.16 1.62179 -0.780896 0
M  V30 15274 H 1483.54 0.515368 -0.547632 0
M  V30 15275 H 1485.51 1.33824 -2.66709 0
M  V30 15276 C 1484.26 2.92778 -1.87554 0
M  V30 15277 H 1483.58 2.9096 -2.74194 0
M  V30 15278 H 1485.02 3.70097 -2.06891 0
M  V30 15279 C 1483.48 3.30854 -0.635408 0
M  V30 15280 O 1484.01 4.01152 0.20983 0
M  V30 15281 N 1482.21 2.86618 -0.47944 0
M  V30 15282 H 1481.76 2.29582 -1.16834 0
M  V30 15283 H 1481.72 3.12456 0.349078 0
M  V30 15284 N 1485.49 1.41566 0.692592 0
M  V30 15285 C 1486.72 1.44646 1.48635 0
M  V30 15286 C 1487.14 0.0541597 1.88022 0
M  V30 15287 O 1486.5 -0.943305 1.54827 0
M  V30 15288 C 1486.55 2.3636 2.72335 0
M  V30 15289 O 1485.65 1.8227 3.69934 0
M  V30 15290 H 1484.99 0.490791 0.447236 0
M  V30 15291 H 1487.52 1.8606 0.851056 0
M  V30 15292 H 1487.53 2.52337 3.20609 0
M  V30 15293 H 1486.21 3.37523 2.43004 0
M  V30 15294 H 1484.78 1.75759 3.28882 0
M  V30 15295 N 1486.97 -0.927146 1.27443 0
M  V30 15296 C 1488.25 -1.65322 1.04538 0
M  V30 15297 C 1488.63 -2.06886 -0.419694 0
M  V30 15298 O 1487.97 -1.80352 -1.40304 0
M  V30 15299 C 1488.18 -2.85486 2.00746 0
M  V30 15300 C 1489.53 -3.56816 2.30147 0
M  V30 15301 O 1490.56 -2.95613 1.98724 0
M  V30 15302 O 1489.41 -4.67085 2.83714 0
M  V30 15303 H 1486.51 -0.724627 0.398554 0
M  V30 15304 H 1489.05 -0.977633 1.3871 0
M  V30 15305 H 1487.83 -2.51766 2.99549 0
M  V30 15306 H 1487.45 -3.60763 1.67139 0
M  V30 15307 N 1488.45 -1.09474 -1.13372 0
M  V30 15308 C 1489.36 -0.746674 -2.224 0
M  V30 15309 C 1490.37 0.251572 -1.72172 0
M  V30 15310 O 1491.55 0.092793 -2.01186 0
M  V30 15311 C 1488.61 -0.172965 -3.46268 0
M  V30 15312 C 1487.67 -1.22722 -4.11385 0
M  V30 15313 C 1486.91 -0.680794 -5.2934 0
M  V30 15314 O 1487.13 0.496135 -5.68238 0
M  V30 15315 O 1486.06 -1.43605 -5.84518 0
M  V30 15316 H 1489.89 -1.65649 -2.54547 0
M  V30 15317 H 1487.48 -0.869172 -1.21514 0
M  V30 15318 H 1489.36 0.143629 -4.21155 0
M  V30 15319 H 1488.03 0.709853 -3.15821 0
M  V30 15320 H 1486.94 -1.59652 -3.38323 0
M  V30 15321 H 1488.27 -2.0827 -4.45965 0
M  V30 15322 N 1489.92 1.30607 -0.882012 0
M  V30 15323 C 1490.89 2.26489 -0.351498 0
M  V30 15324 C 1491.89 1.52686 0.504348 0
M  V30 15325 O 1493.08 1.71385 0.311928 0
M  V30 15326 C 1490.21 3.37222 0.499435 0
M  V30 15327 H 1491.4 2.74929 -1.19809 0
M  V30 15328 H 1488.96 1.41746 -0.658616 0
M  V30 15329 H 1489.69 2.94093 1.36673 0
M  V30 15330 H 1489.48 3.91936 -0.11356 0
M  V30 15331 H 1490.97 4.08596 0.862497 0
M  V30 15332 N 1491.4 0.642663 1.43901 0
M  V30 15333 C 1492.65 0.151478 2.01532 0
M  V30 15334 C 1492.97 -1.23519 1.50891 0
M  V30 15335 O 1492.24 -1.82299 0.717197 0
M  V30 15336 H 1490.82 0.0530091 0.745117 0
M  V30 15337 H 1493.48 0.831958 1.76251 0
M  V30 15338 H 1492.58 0.127995 3.11837 0
M  V30 15339 N 1492.88 -1.52852 0.383918 0
M  V30 15340 C 1494.12 -2.03421 -0.199832 0
M  V30 15341 C 1494.49 -1.26439 -1.44489 0
M  V30 15342 O 1495.69 -1.67105 -2.10545 0
M  V30 15343 C 1493.96 -3.54341 -0.466577 0
M  V30 15344 S 1495.52 -4.26747 -1.02138 0
M  V30 15345 H 1492.33 -0.70873 -0.0567636 0
M  V30 15346 H 1494.94 -1.8815 0.531022 0
M  V30 15347 H 1493.64 -4.07961 0.446772 0
M  V30 15348 H 1493.17 -3.73808 -1.226 0
M  V30 15349 H 1495.19 -4.39456 -2.3042 0
M  V30 15350 N 1494.36 -0.113586 -1.5719 0
M  V30 15351 C 1495.58 0.556928 -1.99783 0
M  V30 15352 C 1496.01 1.59774 -0.992669 0
M  V30 15353 O 1495.37 1.81263 0.0363821 0
M  V30 15354 C 1495.42 1.16463 -3.41275 0
M  V30 15355 O 1494.52 2.28024 -3.43626 0
M  V30 15356 H 1493.86 0.139628 -0.649153 0
M  V30 15357 H 1496.39 -0.200462 -2.03616 0
M  V30 15358 H 1496.4 1.50147 -3.79368 0
M  V30 15359 H 1495.08 0.402232 -4.1395 0
M  V30 15360 H 1493.65 1.9582 -3.17347 0
M  V30 15361 N 1495.84 1.56784 0.160173 0
M  V30 15362 C 1496.79 1.9368 1.203 0
M  V30 15363 C 1497.77 0.806435 1.39232 0
M  V30 15364 O 1498.96 1.06975 1.41015 0
M  V30 15365 C 1496.09 2.30972 2.53982 0
M  V30 15366 C 1495.18 3.50549 2.38697 0
M  V30 15367 N 1495.57 4.6747 1.93145 0
M  V30 15368 C 1493.87 3.55375 2.6949 0
M  V30 15369 C 1494.57 5.49591 1.9059 0
M  V30 15370 N 1493.54 4.90938 2.33412 0
M  V30 15371 H 1497.35 2.8156 0.842691 0
M  V30 15372 H 1494.86 1.58167 0.368351 0
M  V30 15373 H 1496.86 2.55604 3.29351 0
M  V30 15374 H 1495.52 1.44437 2.90806 0
M  V30 15375 H 1496.53 4.91477 1.63312 0
M  V30 15376 H 1493.21 2.79346 3.10277 0
M  V30 15377 H 1494.6 6.53306 1.56976 0
M  V30 15378 N 1497.32 -0.429099 1.51646 0
M  V30 15379 C 1498.54 -1.20465 1.68828 0
M  V30 15380 C 1498.97 -1.84044 0.388514 0
M  V30 15381 O 1498.32 -1.69165 -0.652152 0
M  V30 15382 C 1498.37 -2.25831 2.81128 0
M  V30 15383 O 1497.48 -3.31511 2.45305 0
M  V30 15384 H 1496.82 -0.352568 0.562665 0
M  V30 15385 H 1499.35 -0.505698 1.98252 0
M  V30 15386 H 1499.36 -2.70484 3.05455 0
M  V30 15387 H 1498.03 -1.78934 3.7544 0
M  V30 15388 H 1496.61 -2.92277 2.31579 0
M  V30 15389 N 1498.79 -1.41931 -0.685074 0
M  V30 15390 C 1500.03 -1.43328 -1.45727 0
M  V30 15391 C 1500.4 -0.0443486 -1.91949 0
M  V30 15392 O 1501.6 0.0669235 -2.68717 0
M  V30 15393 C 1499.87 -2.42071 -2.62938 0
M  V30 15394 S 1501.43 -2.62085 -3.51933 0
M  V30 15395 H 1498.25 -0.507607 -0.497852 0
M  V30 15396 H 1500.85 -1.78453 -0.798414 0
M  V30 15397 H 1499.55 -3.41771 -2.27203 0
M  V30 15398 H 1499.08 -2.08335 -3.33707 0
M  V30 15399 H 1501.1 -1.89613 -4.58543 0
M  V30 15400 N 1500.27 0.920374 -1.27933 0
M  V30 15401 C 1501.5 1.70804 -1.17647 0
M  V30 15402 C 1501.92 1.86264 0.262189 0
M  V30 15403 O 1501.28 1.36798 1.18979 0
M  V30 15404 C 1501.33 3.08142 -1.87298 0
M  V30 15405 O 1500.43 3.95279 -1.17593 0
M  V30 15406 H 1499.77 0.523267 -0.408763 0
M  V30 15407 H 1502.3 1.15127 -1.69136 0
M  V30 15408 H 1502.31 3.58414 -1.94945 0
M  V30 15409 H 1500.99 2.96208 -2.91948 0
M  V30 15410 H 1499.56 3.53716 -1.18065 0
M  V30 15411 N 1501.75 1.10074 1.1279 0
M  V30 15412 C 1502.97 0.863106 1.88587 0
M  V30 15413 C 1503.4 -0.580595 1.78915 0
M  V30 15414 O 1502.76 -1.40859 1.14142 0
M  V30 15415 C 1502.81 1.31142 3.35908 0
M  V30 15416 O 1501.91 0.474088 4.09666 0
M  V30 15417 H 1501.25 0.312034 0.586115 0
M  V30 15418 H 1503.78 1.46659 1.42662 0
M  V30 15419 H 1503.79 1.29974 3.86744 0
M  V30 15420 H 1502.47 2.36279 3.42265 0
M  V30 15421 H 1501.04 0.550665 3.68812 0
M  V30 15422 N 1503.23 -1.30138 0.888926 0
M  V30 15423 C 1504.46 -2.00143 0.524437 0
M  V30 15424 C 1504.87 -1.66608 -0.888093 0
M  V30 15425 O 1504.23 -0.905326 -1.58462 0
M  V30 15426 C 1504.28 -3.54769 0.694327 0
M  V30 15427 O 1504 -3.87112 2.05125 0
M  V30 15428 C 1505.5 -4.42045 0.333354 0
M  V30 15429 H 1502.72 -0.639775 0.202309 0
M  V30 15430 H 1505.26 -1.65929 1.19531 0
M  V30 15431 H 1503.42 -3.87335 0.0707712 0
M  V30 15432 H 1503.83 -4.81807 2.07275 0
M  V30 15433 H 1505.31 -5.49702 0.503107 0
M  V30 15434 H 1505.78 -4.33109 -0.728893 0
M  V30 15435 H 1506.39 -4.14931 0.933398 0
M  V30 15436 N 1504.71 -0.650285 -1.43559 0
M  V30 15437 C 1505.64 0.0817484 -2.29054 0
M  V30 15438 C 1506.65 0.790023 -1.42346 0
M  V30 15439 O 1507.84 0.648269 -1.66312 0
M  V30 15440 C 1504.94 1.13873 -3.19196 0
M  V30 15441 C 1504.11 0.509177 -4.34426 0
M  V30 15442 C 1503.17 1.46265 -5.05463 0
M  V30 15443 O 1502.2 0.972378 -5.60833 0
M  V30 15444 N 1503.4 2.79668 -5.08691 0
M  V30 15445 H 1506.16 -0.652062 -2.92521 0
M  V30 15446 H 1503.73 -0.49285 -1.54216 0
M  V30 15447 H 1505.72 1.77732 -3.63584 0
M  V30 15448 H 1504.29 1.77454 -2.5735 0
M  V30 15449 H 1503.51 -0.308444 -3.92991 0
M  V30 15450 H 1504.8 0.0695732 -5.08752 0
M  V30 15451 H 1504.19 3.22062 -4.65072 0
M  V30 15452 H 1502.75 3.38838 -5.56805 0
M  V30 15453 N 1506.18 1.52647 -0.392018 0
M  V30 15454 C 1507.43 2.01613 0.1893 0
M  V30 15455 C 1507.76 1.27837 1.46588 0
M  V30 15456 O 1507.01 0.368018 1.92209 0
M  V30 15457 C 1507.31 3.53872 0.500914 0
M  V30 15458 C 1506.98 4.45675 -0.684434 0
M  V30 15459 C 1505.64 4.70489 -1.00961 0
M  V30 15460 C 1507.99 4.99825 -1.4773 0
M  V30 15461 C 1505.32 5.46703 -2.12915 0
M  V30 15462 C 1507.67 5.77263 -2.58747 0
M  V30 15463 C 1506.34 6.00355 -2.9177 0
M  V30 15464 H 1505.61 0.737755 0.0692697 0
M  V30 15465 H 1508.25 1.84022 -0.529924 0
M  V30 15466 H 1506.56 3.69551 1.3015 0
M  V30 15467 H 1508.26 3.89256 0.963382 0
M  V30 15468 H 1504.85 4.26527 -0.420985 0
M  V30 15469 H 1509.03 4.80577 -1.23932 0
M  V30 15470 H 1504.29 5.62807 -2.38868 0
M  V30 15471 H 1508.46 6.18223 -3.20583 0
M  V30 15472 H 1506.09 6.59194 -3.7864 0
M  V30 15473 N 1507.66 0.121921 1.57128 0
M  V30 15474 C 1508.61 -0.827205 2.15467 0
M  V30 15475 C 1509.58 -1.26155 1.08047 0
M  V30 15476 O 1510.76 -1.33855 1.35969 0
M  V30 15477 C 1507.9 -2.07077 2.76067 0
M  V30 15478 C 1507.02 -1.68452 3.97804 0
M  V30 15479 C 1506.15 -2.87797 4.46482 0
M  V30 15480 C 1505.19 -2.45426 5.60743 0
M  V30 15481 N 1504.33 -3.57695 6.04151 0
M  V30 15482 H 1509.17 -0.322879 2.96246 0
M  V30 15483 H 1506.71 -0.147677 1.46357 0
M  V30 15484 H 1508.66 -2.79943 3.09335 0
M  V30 15485 H 1507.29 -2.54963 1.97974 0
M  V30 15486 H 1506.35 -0.854487 3.70679 0
M  V30 15487 H 1507.66 -1.33316 4.80654 0
M  V30 15488 H 1506.81 -3.68885 4.81673 0
M  V30 15489 H 1505.55 -3.26162 3.62587 0
M  V30 15490 H 1504.56 -1.62772 5.25153 0
M  V30 15491 H 1505.78 -2.08175 6.46405 0
M  V30 15492 H 1503.73 -3.95728 5.23197 0
M  V30 15493 H 1503.64 -3.26491 6.81865 0
M  V30 15494 H 1504.91 -4.39213 6.43981 0
M  V30 15495 N 1509.14 -1.56867 -0.151857 0
M  V30 15496 C 1510.38 -1.84887 -0.871555 0
M  V30 15497 C 1510.74 -0.705549 -1.78567 0
M  V30 15498 O 1511.95 -0.86668 -2.54445 0
M  V30 15499 C 1510.22 -3.18077 -1.62978 0
M  V30 15500 S 1511.78 -3.67639 -2.39557 0
M  V30 15501 H 1508.59 -0.648478 -0.291543 0
M  V30 15502 H 1511.2 -1.95055 -0.131873 0
M  V30 15503 H 1509.9 -3.99262 -0.949621 0
M  V30 15504 H 1509.43 -3.10902 -2.41046 0
M  V30 15505 H 1511.45 -3.36516 -3.64653 0
M  V30 15506 N 1510.62 0.421051 -1.51871 0
M  V30 15507 C 1511.57 1.53277 -1.74954 0
M  V30 15508 C 1512.56 1.57792 -0.616282 0
M  V30 15509 O 1513.77 1.61342 -0.798054 0
M  V30 15510 H 1510.14 0.50953 -0.553067 0
M  V30 15511 H 1512.11 1.30988 -2.68113 0
M  V30 15512 C 1510.86 2.90772 -1.90649 0
M  V30 15513 H 1510.18 2.88035 -2.77265 0
M  V30 15514 H 1511.62 3.67882 -2.10805 0
M  V30 15515 C 1510.08 3.30161 -0.670463 0
M  V30 15516 O 1510.61 4.01352 0.167271 0
M  V30 15517 N 1508.82 2.86093 -0.509813 0
M  V30 15518 H 1508.37 2.28329 -1.19262 0
M  V30 15519 H 1508.32 3.12809 0.315918 0
M  V30 15520 N 1512.1 1.42293 0.677538 0
M  V30 15521 C 1513.32 1.46214 1.47092 0
M  V30 15522 C 1513.75 0.0740989 1.87954 0
M  V30 15523 O 1513.1 -0.926831 1.55819 0
M  V30 15524 C 1513.15 2.39236 2.69812 0
M  V30 15525 O 1512.26 1.86183 3.6798 0
M  V30 15526 H 1511.6 0.495507 0.442006 0
M  V30 15527 H 1514.13 1.86952 0.831274 0
M  V30 15528 H 1514.14 2.55723 3.17915 0
M  V30 15529 H 1512.81 3.40081 2.39411 0
M  V30 15530 H 1511.39 1.79237 3.26999 0
M  V30 15531 N 1513.57 -0.913576 1.28419 0
M  V30 15532 C 1514.82 -1.65944 1.15355 0
M  V30 15533 C 1515.14 -1.92706 -0.298228 0
M  V30 15534 O 1514.41 -1.54333 -1.20657 0
M  V30 15535 H 1512.99 -0.615063 0.423919 0
M  V30 15536 H 1515.66 -1.0962 1.6115 0
M  V30 15537 H 1514.75 -2.62173 1.69327 0
M  V30 15538 N 1515.05 -1.1067 -1.12204 0
M  V30 15539 C 1516.47 -0.838988 -1.35769 0
M  V30 15540 C 1516.67 0.540345 -1.9412 0
M  V30 15541 O 1515.72 1.29274 -2.16897 0
M  V30 15542 C 1517.04 -1.94065 -2.29694 0
M  V30 15543 C 1518.59 -1.96938 -2.43279 0
M  V30 15544 C 1519.06 -3.06284 -3.4052 0
M  V30 15545 N 1520.55 -3.05607 -3.48079 0
M  V30 15546 C 1521.29 -3.86855 -4.23238 0
M  V30 15547 N 1520.78 -4.78046 -5.01442 0
M  V30 15548 N 1522.58 -3.75064 -4.18669 0
M  V30 15549 H 1514.73 -1.99575 -0.726878 0
M  V30 15550 H 1516.99 -0.867423 -0.382467 0
M  V30 15551 H 1516.7 -2.93356 -1.93997 0
M  V30 15552 H 1516.57 -1.82992 -3.29839 0
M  V30 15553 H 1518.96 -0.982774 -2.78254 0
M  V30 15554 H 1519.04 -2.12087 -1.43014 0
M  V30 15555 H 1518.68 -4.05165 -3.06273 0
M  V30 15556 H 1518.61 -2.88376 -4.40621 0
M  V30 15557 H 1521.1 -2.39531 -2.9229 0
M  V30 15558 H 1521.42 -5.36594 -5.56136 0
M  V30 15559 H 1519.76 -4.82073 -5.0063 0
M  V30 15560 H 1522.95 -3.03172 -3.56657 0
M  V30 15561 H 1523.12 -4.38618 -4.76988 0
M  V30 15562 N 1516.53 1.29665 -0.895815 0
M  V30 15563 C 1517.77 1.975 -0.526604 0
M  V30 15564 C 1518.13 1.69097 0.909403 0
M  V30 15565 O 1519.34 2.30355 1.38529 0
M  V30 15566 C 1517.61 3.48185 -0.806342 0
M  V30 15567 S 1519.17 4.35454 -0.540857 0
M  V30 15568 H 1515.98 0.68359 -0.195513 0
M  V30 15569 H 1518.59 1.57557 -1.15741 0
M  V30 15570 H 1517.29 3.6635 -1.84976 0
M  V30 15571 H 1516.82 3.9306 -0.163499 0
M  V30 15572 H 1518.84 4.92364 0.615817 0
M  V30 15573 N 1518.01 0.657889 1.43212 0
M  V30 15574 C 1519.26 0.170493 2.00978 0
M  V30 15575 C 1519.57 -1.22439 1.52539 0
M  V30 15576 O 1520.78 -1.80725 2.02609 0
M  V30 15577 C 1519.23 0.253982 3.59003 0
M  V30 15578 C 1518.84 1.65185 4.16435 0
M  V30 15579 C 1520.58 -0.17557 4.24137 0
M  V30 15580 C 1518.49 1.68902 5.66768 0
M  V30 15581 H 1517.42 0.0599767 0.751611 0
M  V30 15582 H 1520.07 0.820606 1.64129 0
M  V30 15583 H 1518.45 -0.463723 3.93275 0
M  V30 15584 H 1519.63 2.39529 3.93653 0
M  V30 15585 H 1517.94 2.02779 3.63689 0
M  V30 15586 H 1520.54 -0.167714 5.34437 0
M  V30 15587 H 1520.88 -1.20784 3.98393 0
M  V30 15588 H 1521.42 0.490544 3.94764 0
M  V30 15589 H 1518.16 2.70055 5.97286 0
M  V30 15590 H 1517.68 0.988906 5.91592 0
M  V30 15591 H 1519.35 1.43485 6.30889 0
M  V30 15592 N 1519.49 -1.52437 0.400108 0
M  V30 15593 C 1520.9 -1.86563 -0.0715162 0
M  V30 15594 C 1521.25 -1.3193 -1.4522 0
M  V30 15595 O 1520.37 -0.654955 -2.06251 0
M  V30 15596 C 1520.97 -3.38525 -0.13655 0
M  V30 15597 C 1519.53 -3.72323 -0.55249 0
M  V30 15598 C 1518.67 -2.75896 0.278729 0
M  V30 15599 H 1521.63 -1.46192 0.617547 0
M  V30 15600 H 1521.65 -3.68357 -0.953588 0
M  V30 15601 H 1521.16 -3.78258 0.868468 0
M  V30 15602 H 1519.26 -3.38164 -1.56448 0
M  V30 15603 H 1519.37 -4.7814 -0.303139 0
M  V30 15604 H 1517.74 -2.53394 -0.257608 0
M  V30 15605 H 1518.52 -3.18467 1.28193 0
M  V30 15606 N 1520.96 -0.130252 -1.57061 0
M  V30 15607 C 1521.87 0.829198 -2.19457 0
M  V30 15608 C 1522.89 1.2843 -1.17395 0
M  V30 15609 O 1524.07 1.34496 -1.49909 0
M  V30 15610 C 1521.13 2.05727 -2.79065 0
M  V30 15611 C 1520.19 1.65301 -3.962 0
M  V30 15612 C 1519.43 2.82253 -4.52956 0
M  V30 15613 O 1519.65 3.97999 -4.08598 0
M  V30 15614 O 1518.58 2.5869 -5.43473 0
M  V30 15615 H 1522.41 0.328139 -3.01922 0
M  V30 15616 H 1519.99 0.0959361 -1.49092 0
M  V30 15617 H 1521.88 2.7763 -3.17017 0
M  V30 15618 H 1520.55 2.54817 -1.99624 0
M  V30 15619 H 1519.46 0.904712 -3.62996 0
M  V30 15620 H 1520.79 1.20942 -4.7711 0
M  V30 15621 N 1522.44 1.56945 0.143535 0
M  V30 15622 C 1523.39 1.94945 1.18239 0
M  V30 15623 C 1524.38 0.821157 1.38368 0
M  V30 15624 O 1525.57 1.08465 1.39873 0
M  V30 15625 C 1522.7 2.33653 2.51518 0
M  V30 15626 C 1521.78 3.53061 2.34966 0
M  V30 15627 N 1522.18 4.69493 1.88176 0
M  V30 15628 C 1520.47 3.58213 2.65706 0
M  V30 15629 C 1521.17 5.51581 1.84751 0
M  V30 15630 N 1520.15 4.93386 2.28192 0
M  V30 15631 H 1523.95 2.82438 0.81278 0
M  V30 15632 H 1521.47 1.58549 0.351555 0
M  V30 15633 H 1523.46 2.59083 3.26621 0
M  V30 15634 H 1522.12 1.47513 2.89257 0
M  V30 15635 H 1523.13 4.93182 1.5809 0
M  V30 15636 H 1519.81 2.82622 3.07297 0
M  V30 15637 H 1521.2 6.54934 1.50038 0
M  V30 15638 N 1523.92 -0.412991 1.52093 0
M  V30 15639 C 1525.17 -1.15878 1.67164 0
M  V30 15640 C 1525.52 -1.88306 0.394772 0
M  V30 15641 O 1524.82 -1.8161 -0.610614 0
M  V30 15642 C 1525.01 -2.18321 2.82968 0
M  V30 15643 C 1524.84 -1.55951 4.21793 0
M  V30 15644 C 1523.61 -1.33389 4.87376 0
M  V30 15645 C 1525.81 -1.02249 5.04033 0
M  V30 15646 N 1523.79 -0.668717 6.10247 0
M  V30 15647 C 1525.16 -0.484011 6.18108 0
M  V30 15648 C 1527.21 -0.916583 4.89391 0
M  V30 15649 C 1525.92 0.149993 7.19144 0
M  V30 15650 C 1527.94 -0.296438 5.90657 0
M  V30 15651 C 1527.31 0.231383 7.0402 0
M  V30 15652 H 1523.4 -0.410837 0.665385 0
M  V30 15653 H 1525.99 -0.451728 1.89387 0
M  V30 15654 H 1524.16 -2.86389 2.62366 0
M  V30 15655 H 1525.89 -2.85234 2.87095 0
M  V30 15656 H 1522.65 -1.60235 4.4567 0
M  V30 15657 H 1523.07 -0.352867 6.7608 0
M  V30 15658 H 1527.71 -1.31049 4.01978 0
M  V30 15659 H 1525.43 0.555971 8.06185 0
M  V30 15660 H 1529.02 -0.216065 5.81399 0
M  V30 15661 H 1527.9 0.703689 7.81036 0
M  V30 15662 N 1525.4 -1.4265 -0.669982 0
M  V30 15663 C 1526.63 -1.46784 -1.45816 0
M  V30 15664 C 1527.04 -0.080606 -1.88628 0
M  V30 15665 O 1526.4 0.905687 -1.58441 0
M  V30 15666 C 1526.45 -2.39915 -2.70413 0
M  V30 15667 O 1526.17 -3.73241 -2.29396 0
M  V30 15668 C 1527.67 -2.53118 -3.63931 0
M  V30 15669 H 1524.89 -0.499076 -0.448513 0
M  V30 15670 H 1527.44 -1.87216 -0.822819 0
M  V30 15671 H 1525.59 -2.02722 -3.30125 0
M  V30 15672 H 1526.01 -4.23164 -3.09891 0
M  V30 15673 H 1527.48 -3.22395 -4.48069 0
M  V30 15674 H 1527.96 -1.57062 -4.10156 0
M  V30 15675 H 1528.56 -2.91052 -3.10111 0
M  V30 15676 N 1526.88 0.906753 -1.28902 0
M  V30 15677 C 1528.12 1.67094 -1.17724 0
M  V30 15678 C 1528.48 1.90115 0.268373 0
M  V30 15679 O 1529.68 2.64052 0.502998 0
M  V30 15680 C 1527.95 2.98802 -1.96092 0
M  V30 15681 S 1529.51 3.89867 -2.01368 0
M  V30 15682 H 1526.33 0.573768 -0.419894 0
M  V30 15683 H 1528.93 1.07797 -1.63095 0
M  V30 15684 H 1527.64 2.79755 -3.00276 0
M  V30 15685 H 1527.17 3.63143 -1.51298 0
M  V30 15686 H 1529.18 4.83273 -1.12525 0
M  V30 15687 N 1528.36 1.11264 1.11616 0
M  V30 15688 C 1529.63 0.772174 1.79713 0
M  V30 15689 C 1530.01 -0.740055 1.97703 0
M  V30 15690 O 1529.36 -1.66939 1.56024 0
M  V30 15691 C 1529.57 1.53316 3.13521 0
M  V30 15692 C 1530.92 1.71124 3.88589 0
M  V30 15693 O 1531.94 1.49725 3.23204 0
M  V30 15694 O 1530.8 2.0667 5.05915 0
M  V30 15695 H 1527.9 0.279548 0.77832 0
M  V30 15696 H 1530.44 1.21596 1.18375 0
M  V30 15697 H 1529.21 2.56194 2.95771 0
M  V30 15698 H 1528.84 1.08281 3.82572 0
M  V30 15699 N 1529.83 -1.29188 0.902679 0
M  V30 15700 C 1531.08 -1.95052 0.529076 0
M  V30 15701 C 1531.4 -1.7149 -0.92824 0
M  V30 15702 O 1530.67 -1.04834 -1.65489 0
M  V30 15703 H 1529.25 -0.721725 0.192671 0
M  V30 15704 H 1531.91 -1.57384 1.14962 0
M  V30 15705 H 1531.01 -3.03819 0.714179 0
M  V30 15706 N 1531.31 -0.665475 -1.42861 0
M  V30 15707 C 1532.59 -0.113252 -1.95272 0
M  V30 15708 C 1532.97 1.36972 -1.6063 0
M  V30 15709 O 1532.32 2.10129 -0.897662 0
M  V30 15710 C 1532.53 -0.372482 -3.47007 0
M  V30 15711 C 1533.87 -0.283982 -4.23649 0
M  V30 15712 O 1534.9 -0.305714 -3.54886 0
M  V30 15713 O 1533.76 -0.218171 -5.46064 0
M  V30 15714 H 1530.85 0.00253712 -0.826996 0
M  V30 15715 H 1533.4 -0.739561 -1.52737 0
M  V30 15716 H 1532.17 -1.40015 -3.65392 0
M  V30 15717 H 1531.79 0.286294 -3.96568 0
M  V30 15718 N 1532.79 1.52222 -0.408187 0
M  V30 15719 C 1533.74 2.28544 0.432458 0
M  V30 15720 C 1534.73 1.33198 1.04665 0
M  V30 15721 O 1535.94 1.50661 0.984954 0
M  V30 15722 H 1532.31 0.735162 0.158241 0
M  V30 15723 H 1534.28 2.97493 -0.232482 0
M  V30 15724 C 1533.03 3.11864 1.53741 0
M  V30 15725 H 1532.36 3.851 1.07414 0
M  V30 15726 H 1533.8 3.68374 2.09945 0
M  V30 15727 C 1532.25 2.25367 2.50423 0
M  V30 15728 O 1532.78 1.89329 3.54285 0
M  V30 15729 N 1530.99 1.89155 2.2061 0
M  V30 15730 H 1530.54 2.18661 1.36181 0
M  V30 15731 H 1530.5 1.31574 2.85544 0
M  V30 15732 N 1534.27 0.138579 1.5699 0
M  V30 15733 C 1535.54 -0.559239 1.87435 0
M  V30 15734 C 1535.92 -1.83527 1.04312 0
M  V30 15735 O 1535.27 -2.28144 0.127531 0
M  V30 15736 C 1535.48 -0.83282 3.38918 0
M  V30 15737 C 1536.83 -1.1773 4.07952 0
M  V30 15738 O 1537.85 -0.92245 3.44048 0
M  V30 15739 O 1536.71 -1.6565 5.2079 0
M  V30 15740 H 1533.81 -0.284318 0.77659 0
M  V30 15741 H 1536.35 0.174558 1.688 0
M  V30 15742 H 1535.13 0.0706054 3.91236 0
M  V30 15743 H 1534.75 -1.62109 3.63051 0
M  V30 15744 N 1535.75 -1.57019 -0.13521 0
M  V30 15745 C 1536.99 -1.85801 -0.851896 0
M  V30 15746 C 1537.35 -0.724449 -1.77808 0
M  V30 15747 O 1538.55 -0.893619 -2.53511 0
M  V30 15748 C 1536.82 -3.19788 -1.59595 0
M  V30 15749 S 1538.38 -3.70159 -2.35644 0
M  V30 15750 H 1535.2 -0.651534 -0.284649 0
M  V30 15751 H 1537.8 -1.95184 -0.111177 0
M  V30 15752 H 1536.5 -4.00247 -0.907221 0
M  V30 15753 H 1536.04 -3.13441 -2.37735 0
M  V30 15754 H 1538.05 -3.40364 -3.61063 0
M  V30 15755 N 1537.22 0.404919 -1.52309 0
M  V30 15756 C 1538.47 1.14921 -1.66246 0
M  V30 15757 C 1538.79 1.90919 -0.396868 0
M  V30 15758 O 1538.06 1.86856 0.588361 0
M  V30 15759 H 1536.64 0.427223 -0.612772 0
M  V30 15760 H 1539.31 0.461091 -1.89367 0
M  V30 15761 H 1538.4 1.86095 -2.5055 0
M  V30 15762 N 1538.7 1.43003 0.662408 0
M  V30 15763 C 1539.98 1.34613 1.41911 0
M  V30 15764 C 1540.36 -0.0105336 2.11097 0
M  V30 15765 O 1539.71 -1.02667 2.04137 0
M  V30 15766 C 1539.92 2.52297 2.41137 0
M  V30 15767 C 1541.27 2.94972 3.05412 0
M  V30 15768 O 1542.29 2.52277 2.51465 0
M  V30 15769 O 1541.15 3.68906 4.03201 0
M  V30 15770 H 1538.24 0.531508 0.633583 0
M  V30 15771 H 1540.79 1.55035 0.690088 0
M  V30 15772 H 1539.56 3.42685 1.88898 0
M  V30 15773 H 1539.18 2.33926 3.21503 0
M  V30 15774 N 1540.18 -0.899904 1.29381 0
M  V30 15775 C 1541.41 -1.68139 1.20053 0
M  V30 15776 C 1541.82 -1.87654 -0.241391 0
M  V30 15777 O 1541.16 -1.41334 -1.17347 0
M  V30 15778 C 1541.22 -3.08703 1.84235 0
M  V30 15779 C 1540.89 -3.12421 3.3353 0
M  V30 15780 C 1541.88 -2.92583 4.29757 0
M  V30 15781 C 1539.57 -3.34493 3.74726 0
M  V30 15782 C 1541.56 -2.94751 5.65156 0
M  V30 15783 C 1539.25 -3.36292 5.10246 0
M  V30 15784 C 1540.25 -3.16443 6.05271 0
M  V30 15785 O 1539.94 -3.18029 7.38317 0
M  V30 15786 H 1539.67 -0.531928 0.417167 0
M  V30 15787 H 1542.22 -1.13375 1.71275 0
M  V30 15788 H 1540.45 -3.65068 1.27524 0
M  V30 15789 H 1542.14 -3.68938 1.69232 0
M  V30 15790 H 1542.91 -2.75343 3.99264 0
M  V30 15791 H 1538.79 -3.48983 3.01217 0
M  V30 15792 H 1542.33 -2.79176 6.39301 0
M  V30 15793 H 1538.23 -3.53063 5.40386 0
M  V30 15794 H 1539 -3.34297 7.47119 0
M  V30 15795 N 1541.66 -1.11854 -1.11024 0
M  V30 15796 C 1542.88 -0.892999 -1.8719 0
M  V30 15797 C 1543.31 0.552058 -1.79816 0
M  V30 15798 O 1542.67 1.39025 -1.16369 0
M  V30 15799 C 1542.71 -1.3647 -3.33779 0
M  V30 15800 O 1541.82 -0.539202 -4.0886 0
M  V30 15801 H 1541.16 -0.321319 -0.581076 0
M  V30 15802 H 1543.69 -1.4891 -1.4031 0
M  V30 15803 H 1543.7 -1.3611 -3.84627 0
M  V30 15804 H 1542.37 -2.41694 -3.38462 0
M  V30 15805 H 1540.95 -0.60927 -3.67889 0
M  V30 15806 N 1543.14 1.28707 -0.909517 0
M  V30 15807 C 1544.41 1.90124 -0.459585 0
M  V30 15808 C 1544.79 1.82477 1.06139 0
M  V30 15809 O 1544.14 1.25792 1.90758 0
M  V30 15810 C 1544.35 3.34806 -0.985188 0
M  V30 15811 C 1545.7 4.11799 -1.03475 0
M  V30 15812 O 1546.72 3.43749 -0.933536 0
M  V30 15813 O 1545.58 5.33426 -1.18825 0
M  V30 15814 H 1542.68 0.814199 -0.144948 0
M  V30 15815 H 1545.22 1.37104 -1.00002 0
M  V30 15816 H 1543.99 3.34575 -2.02917 0
M  V30 15817 H 1543.62 3.95318 -0.425329 0
M  V30 15818 N 1544.61 0.673042 1.42506 0
M  V30 15819 C 1545.52 -0.00648572 2.34599 0
M  V30 15820 C 1546.54 -0.790758 1.54994 0
M  V30 15821 O 1547.72 -0.733482 1.87569 0
M  V30 15822 C 1544.78 -0.94734 3.33506 0
M  V30 15823 C 1543.84 -0.157795 4.2901 0
M  V30 15824 C 1543.08 -1.05384 5.23192 0
M  V30 15825 O 1543.3 -2.29334 5.22266 0
M  V30 15826 O 1542.23 -0.515584 5.99688 0
M  V30 15827 H 1546.06 0.752059 2.94241 0
M  V30 15828 H 1543.64 0.433272 1.42979 0
M  V30 15829 H 1545.53 -1.4875 3.94273 0
M  V30 15830 H 1544.2 -1.68577 2.7634 0
M  V30 15831 H 1543.11 0.426426 3.71662 0
M  V30 15832 H 1544.44 0.54148 4.89212 0
M  V30 15833 N 1546.09 -1.52004 0.416254 0
M  V30 15834 C 1547.32 -2.06307 -0.156491 0
M  V30 15835 C 1547.74 -1.28567 -1.3826 0
M  V30 15836 O 1547.09 -0.339447 -1.79315 0
M  V30 15837 C 1547.14 -3.58028 -0.499824 0
M  V30 15838 O 1546.86 -4.32828 0.677602 0
M  V30 15839 C 1548.37 -4.28773 -1.12553 0
M  V30 15840 H 1545.59 -0.670778 -0.0172483 0
M  V30 15841 H 1548.13 -1.95826 0.589262 0
M  V30 15842 H 1546.28 -3.68493 -1.19547 0
M  V30 15843 H 1546.7 -5.23053 0.389302 0
M  V30 15844 H 1548.17 -5.36085 -1.31592 0
M  V30 15845 H 1548.65 -3.85706 -2.10066 0
M  V30 15846 H 1549.26 -4.22696 -0.469881 0
M  V30 15847 N 1547.57 -0.146903 -1.56914 0
M  V30 15848 C 1548.52 0.804576 -2.13332 0
M  V30 15849 C 1549.5 1.2095 -1.06112 0
M  V30 15850 O 1550.7 1.17594 -1.3229 0
M  V30 15851 C 1547.83 2.0437 -2.7584 0
M  V30 15852 C 1546.91 1.66188 -3.90183 0
M  V30 15853 N 1547.3 0.988267 -4.96051 0
M  V30 15854 C 1545.6 1.9546 -4.00888 0
M  V30 15855 C 1546.3 0.803957 -5.76118 0
M  V30 15856 N 1545.28 1.33779 -5.26882 0
M  V30 15857 H 1549.08 0.280693 -2.92557 0
M  V30 15858 H 1546.59 0.0546404 -1.62308 0
M  V30 15859 H 1548.59 2.73532 -3.1462 0
M  V30 15860 H 1547.25 2.57276 -1.98089 0
M  V30 15861 H 1548.26 0.64904 -5.13817 0
M  V30 15862 H 1544.94 2.50216 -3.34213 0
M  V30 15863 H 1546.33 0.273065 -6.71345 0
M  V30 15864 N 1549.05 1.57088 0.126881 0
M  V30 15865 C 1550.01 1.98836 1.14003 0
M  V30 15866 C 1551.01 0.877454 1.34749 0
M  V30 15867 O 1552.2 1.14366 1.314 0
M  V30 15868 C 1549.33 2.32171 2.49618 0
M  V30 15869 H 1550.53 2.89541 0.7814 0
M  V30 15870 H 1548.08 1.51835 0.370915 0
M  V30 15871 H 1548.81 1.44321 2.90417 0
M  V30 15872 H 1548.6 3.13187 2.35916 0
M  V30 15873 H 1550.09 2.65238 3.2255 0
M  V30 15874 N 1550.53 -0.396836 1.52522 0
M  V30 15875 C 1551.47 -1.50474 1.77371 0
M  V30 15876 C 1552.47 -1.56792 0.641307 0
M  V30 15877 O 1553.67 -1.60052 0.823621 0
M  V30 15878 H 1550.05 -0.500667 0.561103 0
M  V30 15879 H 1552.02 -1.26706 2.70163 0
M  V30 15880 C 1550.77 -2.87702 1.95251 0
M  V30 15881 H 1550.09 -2.83588 2.81812 0
M  V30 15882 H 1551.53 -3.64482 2.16631 0
M  V30 15883 C 1549.99 -3.29053 0.722904 0
M  V30 15884 O 1550.52 -4.01567 -0.103398 0
M  V30 15885 N 1548.73 -2.85246 0.555263 0
M  V30 15886 H 1548.27 -2.26403 1.22879 0
M  V30 15887 H 1548.23 -3.13272 -0.266113 0
M  V30 15888 N 1552.01 -1.43353 -0.654814 0
M  V30 15889 C 1553.25 -1.46387 -1.42654 0
M  V30 15890 C 1553.61 -0.0850538 -1.91812 0
M  V30 15891 O 1554.81 0.00990964 -2.68798 0
M  V30 15892 C 1553.08 -2.47594 -2.57744 0
M  V30 15893 S 1554.64 -2.69491 -3.46295 0
M  V30 15894 H 1551.46 -0.518053 -0.486972 0
M  V30 15895 H 1554.06 -1.80107 -0.760382 0
M  V30 15896 H 1552.76 -3.46513 -2.19902 0
M  V30 15897 H 1552.3 -2.15367 -3.29212 0
M  V30 15898 H 1554.31 -1.99297 -4.54418 0
M  V30 15899 N 1553.48 0.89303 -1.29857 0
M  V30 15900 C 1554.71 1.67744 -1.21119 0
M  V30 15901 C 1555.13 1.87428 0.227198 0
M  V30 15902 O 1554.48 1.41605 1.15128 0
M  V30 15903 C 1554.53 3.05827 -1.92749 0
M  V30 15904 O 1554.26 2.87036 -3.30971 0
M  V30 15905 C 1555.76 4.00248 -1.9057 0
M  V30 15906 H 1552.98 0.523699 -0.4195 0
M  V30 15907 H 1555.52 1.1163 -1.71344 0
M  V30 15908 H 1553.68 3.58696 -1.46342 0
M  V30 15909 H 1554.09 3.74578 -3.6714 0
M  V30 15910 H 1555.56 4.9453 -2.45242 0
M  V30 15911 H 1556.04 4.30237 -0.882753 0
M  V30 15912 H 1556.65 3.53312 -2.36751 0
M  V30 15913 N 1554.96 1.12442 1.10429 0
M  V30 15914 C 1555.91 0.787578 2.18861 0
M  V30 15915 C 1556.9 -0.225602 1.67891 0
M  V30 15916 O 1558.11 -0.0838029 1.79805 0
M  V30 15917 H 1554.48 0.236858 0.713724 0
M  V30 15918 H 1556.46 1.71048 2.4451 0
M  V30 15919 C 1555.2 0.25854 3.46737 0
M  V30 15920 H 1554.53 1.02945 3.86319 0
M  V30 15921 H 1555.97 0.0611642 4.23956 0
M  V30 15922 C 1554.43 -1.01353 3.21293 0
M  V30 15923 O 1554.96 -2.09132 3.42967 0
M  V30 15924 N 1553.16 -0.940498 2.7496 0
M  V30 15925 H 1552.71 -0.0632962 2.57522 0
M  V30 15926 H 1552.67 -1.79226 2.58313 0
M  V30 15927 N 1556.44 -1.28223 0.91633 0
M  V30 15928 C 1557.37 -2.26291 0.363986 0
M  V30 15929 C 1558.38 -1.54964 -0.498988 0
M  V30 15930 O 1559.57 -1.75726 -0.31345 0
M  V30 15931 C 1556.67 -3.35219 -0.498126 0
M  V30 15932 C 1555.85 -4.36054 0.34293 0
M  V30 15933 C 1554.91 -5.24232 -0.454688 0
M  V30 15934 O 1553.93 -5.69043 0.133649 0
M  V30 15935 N 1555.13 -5.53268 -1.75714 0
M  V30 15936 H 1557.9 -2.74323 1.20694 0
M  V30 15937 H 1555.46 -1.41731 0.782551 0
M  V30 15938 H 1557.45 -3.91148 -1.03852 0
M  V30 15939 H 1556.02 -2.86876 -1.2418 0
M  V30 15940 H 1555.24 -3.7955 1.06468 0
M  V30 15941 H 1556.53 -5.00444 0.918322 0
M  V30 15942 H 1555.93 -5.18698 -2.25762 0
M  V30 15943 H 1554.48 -6.11943 -2.2443 0
M  V30 15944 N 1557.92 -0.68059 -1.42147 0
M  V30 15945 C 1558.88 -0.0149865 -2.29195 0
M  V30 15946 C 1559.88 0.723163 -1.43621 0
M  V30 15947 O 1561.07 0.560297 -1.64943 0
M  V30 15948 C 1558.2 0.989375 -3.26227 0
M  V30 15949 H 1559.4 -0.781236 -2.89546 0
M  V30 15950 H 1556.95 -0.443256 -1.49883 0
M  V30 15951 H 1557.68 1.78391 -2.70827 0
M  V30 15952 H 1557.47 0.463401 -3.89352 0
M  V30 15953 H 1558.96 1.45334 -3.91494 0
M  V30 15954 N 1559.4 1.51781 -0.424309 0
M  V30 15955 C 1560.62 2.06387 0.145548 0
M  V30 15956 C 1561.04 1.29299 1.37576 0
M  V30 15957 O 1560.4 0.348952 1.79133 0
M  V30 15958 C 1560.45 3.58288 0.48083 0
M  V30 15959 O 1560.17 4.32463 -0.700546 0
M  V30 15960 C 1561.67 4.29364 1.10278 0
M  V30 15961 H 1558.89 0.67086 0.0136908 0
M  V30 15962 H 1561.43 1.95511 -0.599639 0
M  V30 15963 H 1559.59 3.69122 1.17591 0
M  V30 15964 H 1560 5.22839 -0.417035 0
M  V30 15965 H 1561.48 5.36776 1.28747 0
M  V30 15966 H 1561.95 3.86815 2.08017 0
M  V30 15967 H 1562.56 4.2294 0.447458 0
M  V30 15968 N 1560.87 0.155222 1.56834 0
M  V30 15969 C 1562.29 -0.201116 1.58328 0
M  V30 15970 C 1562.49 -1.64061 1.16988 0
M  V30 15971 O 1561.55 -2.36892 0.873989 0
M  V30 15972 C 1562.86 0.0651005 3.0063 0
M  V30 15973 C 1564.41 0.00203866 3.13 0
M  V30 15974 C 1564.88 0.241032 4.57365 0
M  V30 15975 N 1566.37 0.188245 4.62817 0
M  V30 15976 C 1567.11 0.347562 5.72346 0
M  V30 15977 N 1566.6 0.565052 6.90492 0
M  V30 15978 N 1568.4 0.284589 5.61379 0
M  V30 15979 H 1560.55 1.09503 1.81997 0
M  V30 15980 H 1562.81 0.434106 0.842767 0
M  V30 15981 H 1562.52 1.06167 3.35293 0
M  V30 15982 H 1562.39 -0.650601 3.71547 0
M  V30 15983 H 1564.78 -0.98509 2.78173 0
M  V30 15984 H 1564.86 0.750199 2.44552 0
M  V30 15985 H 1564.5 1.2253 4.92898 0
M  V30 15986 H 1564.43 -0.52755 5.23951 0
M  V30 15987 H 1566.92 0.0251352 3.77892 0
M  V30 15988 H 1567.24 0.676502 7.69833 0
M  V30 15989 H 1565.58 0.601473 6.92392 0
M  V30 15990 H 1568.77 0.115381 4.67958 0
M  V30 15991 H 1568.95 0.412182 6.46688 0
M  V30 15992 N 1562.35 -1.57153 -0.118549 0
M  V30 15993 C 1563.76 -1.74046 -0.675645 0
M  V30 15994 C 1564.11 -0.773974 -1.80289 0
M  V30 15995 O 1563.24 0.0530041 -2.16335 0
M  V30 15996 C 1563.83 -3.15591 -1.23239 0
M  V30 15997 C 1562.39 -3.33988 -1.73577 0
M  V30 15998 C 1561.54 -2.69916 -0.63567 0
M  V30 15999 H 1564.49 -1.58336 0.10737 0
M  V30 16000 H 1564.51 -3.17166 -2.10205 0
M  V30 16001 H 1564.02 -3.8591 -0.411744 0
M  V30 16002 H 1562.12 -2.68712 -2.58118 0
M  V30 16003 H 1562.24 -4.42154 -1.84491 0
M  V30 16004 H 1560.6 -2.31163 -1.06939 0
M  V30 16005 H 1561.38 -3.42859 0.174005 0
M  V30 16006 N 1563.83 0.388742 -1.5273 0
M  V30 16007 C 1565.24 0.966667 -1.59726 0
M  V30 16008 C 1565.59 1.90963 -0.450272 0
M  V30 16009 O 1564.72 2.12153 0.426611 0
M  V30 16010 C 1565.31 1.75998 -2.895 0
M  V30 16011 C 1563.87 2.28761 -2.98907 0
M  V30 16012 C 1563.02 1.09322 -2.54841 0
M  V30 16013 H 1565.97 0.16828 -1.57805 0
M  V30 16014 H 1565.99 2.61924 -2.76 0
M  V30 16015 H 1565.5 1.07342 -3.7296 0
M  V30 16016 H 1563.6 3.00728 -2.19985 0
M  V30 16017 H 1563.72 2.58229 -4.03552 0
M  V30 16018 H 1562.08 1.45332 -2.09167 0
M  V30 16019 H 1562.86 0.421999 -3.40696 0
M  V30 16020 N 1565.31 1.43698 0.647203 0
M  V30 16021 C 1566.56 1.45346 1.40425 0
M  V30 16022 C 1566.88 0.081129 1.94831 0
M  V30 16023 O 1566.15 -0.884379 1.74801 0
M  V30 16024 H 1564.73 0.535145 0.521181 0
M  V30 16025 H 1567.39 1.79349 0.762887 0
M  V30 16026 H 1566.48 2.16954 2.2436 0
M  V30 16027 N 1566.79 -0.886131 1.30328 0
M  V30 16028 C 1568.03 -1.6346 1.18849 0
M  V30 16029 C 1568.36 -1.93295 -0.257285 0
M  V30 16030 O 1567.63 -1.56858 -1.17356 0
M  V30 16031 H 1566.21 -0.605932 0.43687 0
M  V30 16032 H 1568.87 -1.06177 1.63439 0
M  V30 16033 H 1567.96 -2.58522 1.7485 0
M  V30 16034 N 1568.26 -1.13026 -1.09832 0
M  V30 16035 C 1569.5 -0.8996 -1.83539 0
M  V30 16036 C 1569.87 0.564226 -1.83522 0
M  V30 16037 O 1571.07 0.912286 -2.52845 0
M  V30 16038 C 1569.34 -1.46624 -3.25939 0
M  V30 16039 S 1570.9 -1.37502 -4.167 0
M  V30 16040 H 1567.72 -0.324364 -0.6327 0
M  V30 16041 H 1570.32 -1.44098 -1.32121 0
M  V30 16042 H 1569.02 -2.52507 -3.23525 0
M  V30 16043 H 1568.55 -0.922619 -3.82428 0
M  V30 16044 H 1570.57 -0.350666 -4.94959 0
M  V30 16045 N 1569.74 1.27735 -0.923117 0
M  V30 16046 C 1570.69 2.24644 -0.389748 0
M  V30 16047 C 1571.68 1.52822 0.50341 0
M  V30 16048 O 1572.87 1.73672 0.341602 0
M  V30 16049 C 1570 3.41402 0.360535 0
M  V30 16050 C 1569.08 4.20533 -0.548877 0
M  V30 16051 N 1569.47 4.77552 -1.66667 0
M  V30 16052 C 1567.77 4.44617 -0.35102 0
M  V30 16053 C 1568.47 5.37179 -2.23191 0
M  V30 16054 N 1567.45 5.21857 -1.52204 0
M  V30 16055 H 1571.25 2.66308 -1.24328 0
M  V30 16056 H 1568.77 1.42614 -0.776856 0
M  V30 16057 H 1570.76 4.09922 0.759555 0
M  V30 16058 H 1569.42 3.0127 1.21105 0
M  V30 16059 H 1570.43 4.75638 -2.04912 0
M  V30 16060 H 1567.11 4.14967 0.459214 0
M  V30 16061 H 1568.5 5.92274 -3.17272 0
M  V30 16062 N 1571.22 0.688118 1.41784 0
M  V30 16063 C 1572.45 0.22475 2.05676 0
M  V30 16064 C 1572.86 -1.1232 1.51755 0
M  V30 16065 O 1572.22 -1.70041 0.662735 0
M  V30 16066 C 1572.27 0.165661 3.6112 0
M  V30 16067 O 1571.99 1.46035 4.13044 0
M  V30 16068 C 1573.49 -0.319599 4.42146 0
M  V30 16069 H 1570.71 0.106135 0.662553 0
M  V30 16070 H 1573.26 0.938605 1.81688 0
M  V30 16071 H 1571.41 -0.498968 3.84173 0
M  V30 16072 H 1571.83 1.34252 5.07027 0
M  V30 16073 H 1573.3 -0.30983 5.5113 0
M  V30 16074 H 1573.78 -1.3572 4.17704 0
M  V30 16075 H 1574.38 0.313764 4.24141 0
M  V30 16076 N 1572.7 -1.51554 0.432352 0
M  V30 16077 C 1573.98 -1.94621 -0.195472 0
M  V30 16078 C 1574.36 -1.37072 -1.60544 0
M  V30 16079 O 1573.7 -0.555781 -2.21638 0
M  V30 16080 C 1573.91 -3.48544 -0.178267 0
M  V30 16081 C 1575.26 -4.22839 -0.386283 0
M  V30 16082 O 1576.29 -3.55275 -0.256604 0
M  V30 16083 O 1575.14 -5.42693 -0.643927 0
M  V30 16084 H 1572.24 -0.816291 -0.132656 0
M  V30 16085 H 1574.78 -1.62473 0.489972 0
M  V30 16086 H 1573.56 -3.82874 0.807658 0
M  V30 16087 H 1573.18 -3.87121 -0.906832 0
M  V30 16088 N 1574.18 -0.163538 -1.56749 0
M  V30 16089 C 1575.09 0.782461 -2.21167 0
M  V30 16090 C 1576.1 1.25911 -1.20093 0
M  V30 16091 O 1577.28 1.31286 -1.52728 0
M  V30 16092 C 1574.34 1.99761 -2.83366 0
M  V30 16093 C 1573.4 1.56859 -3.99617 0
M  V30 16094 C 1572.64 2.72582 -4.58841 0
M  V30 16095 O 1572.86 3.89243 -4.16949 0
M  V30 16096 O 1571.79 2.47104 -5.48838 0
M  V30 16097 H 1575.62 0.264023 -3.0255 0
M  V30 16098 H 1573.21 0.06429 -1.49262 0
M  V30 16099 H 1575.09 2.70843 -3.22835 0
M  V30 16100 H 1573.76 2.50526 -2.04984 0
M  V30 16101 H 1572.67 0.827511 -3.64833 0
M  V30 16102 H 1574 1.10794 -4.79568 0
M  V30 16103 N 1575.65 1.57214 0.110213 0
M  V30 16104 C 1576.9 1.85312 0.816439 0
M  V30 16105 C 1577.23 0.749901 1.79462 0
M  V30 16106 O 1576.48 -0.257948 1.93993 0
M  V30 16107 C 1576.78 3.19933 1.59304 0
M  V30 16108 C 1576.45 4.44477 0.75835 0
M  V30 16109 C 1575.11 4.78292 0.528201 0
M  V30 16110 C 1577.46 5.20899 0.177117 0
M  V30 16111 C 1574.79 5.85966 -0.293292 0
M  V30 16112 C 1577.14 6.29439 -0.631615 0
M  V30 16113 C 1575.81 6.6178 -0.871998 0
M  V30 16114 H 1575.08 0.678104 0.298756 0
M  V30 16115 H 1577.72 1.91339 0.0784721 0
M  V30 16116 H 1576.03 3.09522 2.40216 0
M  V30 16117 H 1577.73 3.38897 2.14359 0
M  V30 16118 H 1574.32 4.17988 0.94783 0
M  V30 16119 H 1578.5 4.95119 0.342121 0
M  V30 16120 H 1573.76 6.09444 -0.488665 0
M  V30 16121 H 1577.93 6.87834 -1.08894 0
M  V30 16122 H 1575.56 7.45045 -1.51037 0
M  V30 16123 N 1577.13 -0.380637 1.52934 0
M  V30 16124 C 1578.06 -1.48518 1.74571 0
M  V30 16125 C 1579.08 -1.50272 0.626263 0
M  V30 16126 O 1580.27 -1.54023 0.902167 0
M  V30 16127 C 1577.37 -2.87339 1.79693 0
M  V30 16128 C 1576.54 -3.09454 3.09123 0
M  V30 16129 C 1575.6 -4.28305 3.05682 0
M  V30 16130 O 1574.62 -4.24205 3.79524 0
M  V30 16131 N 1575.83 -5.34932 2.2545 0
M  V30 16132 H 1578.59 -1.30341 2.69873 0
M  V30 16133 H 1576.15 -0.57023 1.51526 0
M  V30 16134 H 1578.14 -3.64961 1.74887 0
M  V30 16135 H 1576.71 -2.98835 0.917414 0
M  V30 16136 H 1575.93 -2.19623 3.27352 0
M  V30 16137 H 1577.22 -3.21089 3.94689 0
M  V30 16138 H 1576.62 -5.41121 1.64939 0
M  V30 16139 H 1575.18 -6.11189 2.26476 0
M  V30 16140 N 1578.61 -1.44039 -0.639573 0
M  V30 16141 C 1579.85 -1.47892 -1.41093 0
M  V30 16142 C 1580.21 -0.105393 -1.91711 0
M  V30 16143 O 1581.42 -0.0186006 -2.68794 0
M  V30 16144 C 1579.69 -2.50313 -2.55104 0
M  V30 16145 S 1581.25 -2.73148 -3.43417 0
M  V30 16146 H 1578.06 -0.523189 -0.48145 0
M  V30 16147 H 1580.67 -1.80903 -0.741236 0
M  V30 16148 H 1579.37 -3.48826 -2.16214 0
M  V30 16149 H 1578.9 -2.18846 -3.2691 0
M  V30 16150 H 1580.92 -2.04105 -4.52278 0
M  V30 16151 N 1580.09 0.879207 -1.30796 0
M  V30 16152 C 1581.5 1.16344 -1.09253 0
M  V30 16153 C 1581.7 2.00992 0.142993 0
M  V30 16154 O 1580.76 2.38295 0.834966 0
M  V30 16155 C 1582.07 1.86452 -2.35915 0
M  V30 16156 C 1583.62 1.99193 -2.41436 0
M  V30 16157 C 1584.1 2.72714 -3.67955 0
M  V30 16158 N 1585.59 2.80256 -3.68796 0
M  V30 16159 C 1586.32 3.37732 -4.63384 0
M  V30 16160 N 1585.82 3.96212 -5.6832 0
M  V30 16161 N 1587.61 3.35602 -4.50918 0
M  V30 16162 H 1579.76 0.314928 -2.10052 0
M  V30 16163 H 1582.03 0.202087 -0.92621 0
M  V30 16164 H 1581.73 1.31699 -3.26111 0
M  V30 16165 H 1581.61 2.86796 -2.45006 0
M  V30 16166 H 1583.99 2.53113 -1.51716 0
M  V30 16167 H 1584.07 0.97919 -2.36317 0
M  V30 16168 H 1583.72 2.19464 -4.58037 0
M  V30 16169 H 1583.65 3.74376 -3.70338 0
M  V30 16170 H 1586.14 2.38742 -2.92935 0
M  V30 16171 H 1586.45 4.38153 -6.36586 0
M  V30 16172 H 1584.8 3.94615 -5.72105 0
M  V30 16173 H 1587.99 2.89147 -3.68119 0
M  V30 16174 H 1588.16 3.80099 -5.24813 0
M  V30 16175 N 1581.57 1.13606 1.09231 0
M  V30 16176 C 1582.5 0.837908 2.17948 0
M  V30 16177 C 1583.48 -0.203575 1.68877 0
M  V30 16178 O 1584.66 -0.0620702 1.94101 0
M  V30 16179 C 1581.79 0.305342 3.45955 0
M  V30 16180 C 1580.75 1.2813 4.08371 0
M  V30 16181 C 1580.07 0.608412 5.31227 0
M  V30 16182 C 1581.37 2.64055 4.50636 0
M  V30 16183 H 1583.07 1.747 2.43147 0
M  V30 16184 H 1580.61 0.84141 1.1686 0
M  V30 16185 H 1582.57 0.0844116 4.21315 0
M  V30 16186 H 1581.29 -0.639144 3.20285 0
M  V30 16187 H 1579.95 1.48826 3.35032 0
M  V30 16188 H 1579.6 -0.341613 5.01839 0
M  V30 16189 H 1579.3 1.25956 5.73942 0
M  V30 16190 H 1580.82 0.396809 6.09309 0
M  V30 16191 H 1582.24 2.47316 5.17212 0
M  V30 16192 H 1580.63 3.25364 5.0424 0
M  V30 16193 H 1581.7 3.21566 3.62937 0
M  V30 16194 N 1583.05 -1.27244 0.929878 0
M  V30 16195 C 1584.32 -1.89369 0.489774 0
M  V30 16196 C 1584.7 -1.84142 -1.03222 0
M  V30 16197 O 1584.05 -1.2881 -1.88733 0
M  V30 16198 C 1584.26 -3.33196 1.03833 0
M  V30 16199 C 1585.61 -4.101 1.10013 0
M  V30 16200 O 1586.63 -3.42221 0.988106 0
M  V30 16201 O 1585.49 -5.31468 1.27296 0
M  V30 16202 H 1582.59 -0.811789 0.157882 0
M  V30 16203 H 1585.13 -1.35496 1.02171 0
M  V30 16204 H 1583.9 -3.31304 2.08214 0
M  V30 16205 H 1583.53 -3.94592 0.488167 0
M  V30 16206 N 1584.52 -0.695628 -1.41417 0
M  V30 16207 C 1585.77 -0.226171 -2.0083 0
M  V30 16208 C 1586.09 1.17833 -1.55371 0
M  V30 16209 O 1585.36 1.79512 -0.784362 0
M  V30 16210 H 1583.94 -0.0806271 -0.742636 0
M  V30 16211 H 1586.6 -0.8968 -1.73042 0
M  V30 16212 H 1585.7 -0.243643 -3.11148 0
M  V30 16213 N 1586 1.51322 -0.440383 0
M  V30 16214 C 1586.93 2.30708 0.360013 0
M  V30 16215 C 1587.91 1.36254 1.01828 0
M  V30 16216 O 1589.1 1.65174 1.02134 0
M  V30 16217 C 1586.23 3.15132 1.45977 0
M  V30 16218 C 1585.18 4.17889 0.924825 0
M  V30 16219 C 1584.51 4.90853 2.12056 0
M  V30 16220 C 1585.81 5.22282 -0.0428362 0
M  V30 16221 H 1587.5 2.97868 -0.30248 0
M  V30 16222 H 1585.05 1.43249 -0.146914 0
M  V30 16223 H 1587 3.69449 2.02695 0
M  V30 16224 H 1585.72 2.45798 2.1506 0
M  V30 16225 H 1584.38 3.64627 0.379842 0
M  V30 16226 H 1584.03 4.1802 2.79765 0
M  V30 16227 H 1583.73 5.60339 1.769 0
M  V30 16228 H 1585.26 5.47995 2.69322 0
M  V30 16229 H 1586.67 5.71654 0.434137 0
M  V30 16230 H 1585.07 5.99314 -0.307126 0
M  V30 16231 H 1586.14 4.74923 -0.978557 0
M  V30 16232 N 1587.48 0.171848 1.5666 0
M  V30 16233 C 1588.72 -0.475418 1.98794 0
M  V30 16234 C 1589.08 -1.60384 1.0555 0
M  V30 16235 O 1590.28 -2.3137 1.36827 0
M  V30 16236 C 1588.56 -0.945518 3.44666 0
M  V30 16237 S 1590.11 -1.59389 4.08828 0
M  V30 16238 H 1586.93 -0.1529 0.694365 0
M  V30 16239 H 1589.53 0.269434 1.93634 0
M  V30 16240 H 1588.24 -0.113839 4.10242 0
M  V30 16241 H 1587.77 -1.7244 3.53593 0
M  V30 16242 H 1589.78 -2.88205 4.03921 0
M  V30 16243 N 1588.96 -1.5727 -0.101874 0
M  V30 16244 C 1590.21 -1.84928 -0.805263 0
M  V30 16245 C 1590.52 -0.760099 -1.80227 0
M  V30 16246 O 1591.73 -0.923594 -2.55308 0
M  V30 16247 C 1590.18 -3.27929 -1.48291 0
M  V30 16248 C 1589.79 -4.44901 -0.526016 0
M  V30 16249 C 1591.53 -3.64819 -2.17043 0
M  V30 16250 C 1589.44 -5.78934 -1.20787 0
M  V30 16251 H 1588.37 -0.689789 -0.304478 0
M  V30 16252 H 1591.02 -1.83408 -0.0581337 0
M  V30 16253 H 1589.4 -3.2397 -2.27726 0
M  V30 16254 H 1590.58 -4.60193 0.236352 0
M  V30 16255 H 1588.89 -4.16363 0.0554387 0
M  V30 16256 H 1591.49 -4.62236 -2.68778 0
M  V30 16257 H 1591.83 -2.93104 -2.95628 0
M  V30 16258 H 1592.37 -3.70637 -1.44476 0
M  V30 16259 H 1589.1 -6.53863 -0.46296 0
M  V30 16260 H 1588.62 -5.67497 -1.94183 0
M  V30 16261 H 1590.3 -6.23268 -1.73626 0
M  V30 16262 N 1590.44 0.372521 -1.53134 0
M  V30 16263 C 1591.85 0.949671 -1.60742 0
M  V30 16264 C 1592.2 1.90475 -0.470501 0
M  V30 16265 O 1591.32 2.12594 0.404085 0
M  V30 16266 C 1591.92 1.72918 -2.9135 0
M  V30 16267 C 1590.48 2.25577 -3.01317 0
M  V30 16268 C 1589.62 1.06612 -2.55986 0
M  V30 16269 H 1592.57 0.151533 -1.57975 0
M  V30 16270 H 1592.6 2.58982 -2.78763 0
M  V30 16271 H 1592.11 1.0338 -3.74078 0
M  V30 16272 H 1590.21 2.98378 -2.23162 0
M  V30 16273 H 1590.32 2.53935 -4.06268 0
M  V30 16274 H 1588.69 1.43105 -2.10697 0
M  V30 16275 H 1589.47 0.38584 -3.41125 0
M  V30 16276 N 1591.91 1.44376 0.631925 0
M  V30 16277 C 1592.84 1.54005 1.75512 0
M  V30 16278 C 1593.82 0.393126 1.65495 0
M  V30 16279 O 1595.01 0.613143 1.84267 0
M  V30 16280 C 1592.14 1.48313 3.14039 0
M  V30 16281 C 1591.09 2.61474 3.38844 0
M  V30 16282 C 1590.42 2.40834 4.77392 0
M  V30 16283 C 1591.72 4.03627 3.31485 0
M  V30 16284 H 1593.41 2.48019 1.6771 0
M  V30 16285 H 1590.96 1.19368 0.80543 0
M  V30 16286 H 1592.91 1.5365 3.9239 0
M  V30 16287 H 1591.64 0.508152 3.22623 0
M  V30 16288 H 1590.3 2.55525 2.62874 0
M  V30 16289 H 1589.94 1.4153 4.82678 0
M  V30 16290 H 1589.64 3.16703 4.94947 0
M  V30 16291 H 1591.17 2.47988 5.57974 0
M  V30 16292 H 1592.58 4.1095 3.99741 0
M  V30 16293 H 1590.98 4.79694 3.60574 0
M  V30 16294 H 1592.05 4.27255 2.29307 0
M  V30 16295 N 1593.39 -0.872258 1.31261 0
M  V30 16296 C 1594.81 -1.15763 1.09868 0
M  V30 16297 C 1595.01 -2.01065 -0.132331 0
M  V30 16298 O 1594.06 -2.38735 -0.822317 0
M  V30 16299 C 1595.38 -1.85199 2.36901 0
M  V30 16300 C 1596.92 -1.9791 2.42489 0
M  V30 16301 C 1597.4 -2.70759 3.69396 0
M  V30 16302 N 1598.89 -2.78296 3.70278 0
M  V30 16303 C 1599.63 -3.3527 4.65168 0
M  V30 16304 N 1599.12 -3.93193 5.70413 0
M  V30 16305 N 1600.91 -3.33206 4.52692 0
M  V30 16306 H 1593.07 -0.303784 2.10216 0
M  V30 16307 H 1595.33 -0.197172 0.927269 0
M  V30 16308 H 1595.03 -1.29968 3.26804 0
M  V30 16309 H 1594.91 -2.85493 2.46523 0
M  V30 16310 H 1597.3 -2.52305 1.53056 0
M  V30 16311 H 1597.38 -0.966644 2.36833 0
M  V30 16312 H 1597.02 -2.17031 4.59195 0
M  V30 16313 H 1596.95 -3.72407 3.72318 0
M  V30 16314 H 1599.44 -2.37185 2.94197 0
M  V30 16315 H 1599.75 -4.34771 6.38901 0
M  V30 16316 H 1598.1 -3.91575 5.7419 0
M  V30 16317 H 1601.29 -2.87191 3.69647 0
M  V30 16318 H 1601.46 -3.7731 5.26822 0
M  V30 16319 N 1594.87 -1.14184 -1.08627 0
M  V30 16320 C 1596.12 -0.919966 -1.81406 0
M  V30 16321 C 1596.47 0.547709 -1.84439 0
M  V30 16322 O 1595.76 1.40044 -1.30761 0
M  V30 16323 C 1595.96 -1.4519 -3.2658 0
M  V30 16324 C 1595.79 -2.96977 -3.37691 0
M  V30 16325 C 1594.56 -3.65402 -3.49012 0
M  V30 16326 C 1596.75 -3.94858 -3.29532 0
M  V30 16327 N 1594.74 -5.05122 -3.48891 0
M  V30 16328 C 1596.11 -5.20818 -3.36376 0
M  V30 16329 C 1598.16 -3.87009 -3.13254 0
M  V30 16330 C 1596.87 -6.39846 -3.28618 0
M  V30 16331 C 1598.89 -5.05581 -3.06825 0
M  V30 16332 C 1598.25 -6.30408 -3.14269 0
M  V30 16333 H 1594.35 -0.390144 -0.677725 0
M  V30 16334 H 1596.94 -1.45155 -1.29761 0
M  V30 16335 H 1595.11 -0.947121 -3.76675 0
M  V30 16336 H 1596.84 -1.17018 -3.87413 0
M  V30 16337 H 1593.59 -3.15948 -3.52809 0
M  V30 16338 H 1594.02 -5.78056 -3.52392 0
M  V30 16339 H 1598.66 -2.91379 -3.06363 0
M  V30 16340 H 1596.38 -7.35723 -3.34271 0
M  V30 16341 H 1599.96 -5.01256 -2.95354 0
M  V30 16342 H 1598.84 -7.20618 -3.09321 0
M  V30 16343 N 1596.35 1.26749 -0.936613 0
M  V30 16344 C 1597.76 1.46284 -0.638218 0
M  V30 16345 C 1597.96 1.84509 0.80986 0
M  V30 16346 O 1597.02 1.96399 1.58693 0
M  V30 16347 C 1598.33 2.54867 -1.59573 0
M  V30 16348 C 1599.88 2.68721 -1.60493 0
M  V30 16349 C 1600.36 3.80471 -2.54963 0
M  V30 16350 N 1601.85 3.87857 -2.53221 0
M  V30 16351 C 1602.58 4.73767 -3.23005 0
M  V30 16352 N 1602.08 5.641 -4.02198 0
M  V30 16353 N 1603.87 4.67574 -3.11979 0
M  V30 16354 H 1596.02 1.00224 -1.87267 0
M  V30 16355 H 1598.29 0.501478 -0.804502 0
M  V30 16356 H 1597.99 2.33594 -2.62919 0
M  V30 16357 H 1597.87 3.52433 -1.34427 0
M  V30 16358 H 1600.25 2.8937 -0.578729 0
M  V30 16359 H 1600.33 1.71613 -1.89691 0
M  V30 16360 H 1599.98 3.60575 -3.57698 0
M  V30 16361 H 1599.91 4.77026 -2.23056 0
M  V30 16362 H 1602.4 3.23272 -1.95714 0
M  V30 16363 H 1602.71 6.26535 -4.52409 0
M  V30 16364 H 1601.06 5.63866 -4.063 0
M  V30 16365 H 1604.25 3.96004 -2.49596 0
M  V30 16366 H 1604.42 5.34308 -3.66633 0
M  V30 16367 N 1597.83 0.703118 1.41046 0
M  V30 16368 C 1599.07 0.241543 2.02968 0
M  V30 16369 C 1599.43 -1.13975 1.54511 0
M  V30 16370 O 1600.63 -1.69761 2.0841 0
M  V30 16371 C 1598.9 0.305021 3.56096 0
M  V30 16372 S 1600.46 -0.0813994 4.38724 0
M  V30 16373 H 1597.28 0.0967141 0.704391 0
M  V30 16374 H 1599.88 0.922571 1.72363 0
M  V30 16375 H 1598.59 1.31219 3.88857 0
M  V30 16376 H 1598.12 -0.394903 3.91413 0
M  V30 16377 H 1600.13 -1.30702 4.78677 0
M  V30 16378 N 1599.3 -1.51086 0.448402 0
M  V30 16379 C 1600.58 -1.94817 -0.174819 0
M  V30 16380 C 1600.96 -1.38767 -1.59081 0
M  V30 16381 O 1600.31 -0.579257 -2.21036 0
M  V30 16382 C 1600.52 -3.48714 -0.14129 0
M  V30 16383 C 1601.87 -4.23225 -0.341414 0
M  V30 16384 O 1602.89 -3.55527 -0.218908 0
M  V30 16385 O 1601.75 -5.43346 -0.586331 0
M  V30 16386 H 1598.84 -0.817652 -0.12399 0
M  V30 16387 H 1601.39 -1.61944 0.507177 0
M  V30 16388 H 1600.16 -3.81996 0.848222 0
M  V30 16389 H 1599.79 -3.88061 -0.865722 0
M  V30 16390 N 1600.78 -0.180154 -1.56567 0
M  V30 16391 C 1602.03 0.461606 -1.96758 0
M  V30 16392 C 1602.35 1.63179 -1.0676 0
M  V30 16393 O 1601.62 1.95429 -0.135762 0
M  V30 16394 H 1600.2 0.173526 -0.726566 0
M  V30 16395 H 1602.86 -0.2634 -1.93112 0
M  V30 16396 H 1601.96 0.815729 -3.01251 0
M  V30 16397 N 1602.26 1.57322 0.0935319 0
M  V30 16398 C 1603.54 1.77187 0.828503 0
M  V30 16399 C 1603.92 0.762216 1.96859 0
M  V30 16400 O 1603.27 -0.208982 2.27542 0
M  V30 16401 C 1603.48 3.23007 1.32163 0
M  V30 16402 C 1604.82 3.86233 1.76379 0
M  V30 16403 O 1605.85 3.26766 1.41783 0
M  V30 16404 O 1604.71 4.90808 2.40354 0
M  V30 16405 H 1601.8 0.726401 0.395311 0
M  V30 16406 H 1604.35 1.69533 0.0752924 0
M  V30 16407 H 1603.12 3.88029 0.504863 0
M  V30 16408 H 1602.74 3.353 2.13681 0
M  V30 16409 N 1603.74 -0.364395 1.53329 0
M  V30 16410 C 1604.97 -1.1275 1.7348 0
M  V30 16411 C 1605.38 -1.83002 0.4643 0
M  V30 16412 O 1604.74 -1.73603 -0.562864 0
M  V30 16413 C 1604.79 -2.15691 2.90103 0
M  V30 16414 O 1604.51 -1.48298 4.12237 0
M  V30 16415 C 1606.01 -3.04539 3.22135 0
M  V30 16416 H 1603.23 -0.337084 0.580186 0
M  V30 16417 H 1605.78 -0.422952 2.00078 0
M  V30 16418 H 1603.93 -2.81742 2.65895 0
M  V30 16419 H 1604.34 -2.16896 4.77553 0
M  V30 16420 H 1605.82 -3.72747 4.07141 0
M  V30 16421 H 1606.3 -3.69414 2.3755 0
M  V30 16422 H 1606.9 -2.44103 3.48273 0
M  V30 16423 N 1605.22 -1.44709 -0.62426 0
M  V30 16424 C 1606.49 -1.38328 -1.38292 0
M  V30 16425 C 1606.87 -0.0454388 -2.11051 0
M  V30 16426 O 1606.22 0.972183 -2.06787 0
M  V30 16427 C 1606.43 -2.58602 -2.34364 0
M  V30 16428 C 1607.78 -3.02966 -2.97484 0
M  V30 16429 O 1608.8 -2.58856 -2.44688 0
M  V30 16430 O 1607.66 -3.79466 -3.93278 0
M  V30 16431 H 1604.76 -0.54812 -0.619269 0
M  V30 16432 H 1607.3 -1.5681 -0.648741 0
M  V30 16433 H 1606.07 -3.47573 -1.79746 0
M  V30 16434 H 1605.7 -2.42368 -3.15188 0
M  V30 16435 N 1606.69 0.865285 -1.31722 0
M  V30 16436 C 1607.93 1.63264 -1.2298 0
M  V30 16437 C 1608.3 1.90873 0.207754 0
M  V30 16438 O 1609.5 2.65518 0.418737 0
M  V30 16439 C 1607.77 2.92412 -2.05499 0
M  V30 16440 S 1609.33 3.83263 -2.13669 0
M  V30 16441 H 1606.15 0.560119 -0.437936 0
M  V30 16442 H 1608.75 1.02554 -1.66442 0
M  V30 16443 H 1607.45 2.7006 -3.09024 0
M  V30 16444 H 1606.98 3.58145 -1.62774 0
M  V30 16445 H 1609 4.79448 -1.27843 0
M  V30 16446 N 1608.17 1.14759 1.0802 0
M  V30 16447 C 1609.11 0.781719 2.14393 0
M  V30 16448 C 1610.08 -0.238743 1.60838 0
M  V30 16449 O 1611.27 -0.126879 1.88073 0
M  V30 16450 C 1608.39 0.161293 3.38316 0
M  V30 16451 C 1607.44 1.15256 4.10632 0
M  V30 16452 S 1608.27 2.69159 4.6294 0
M  V30 16453 C 1609.43 2.08517 5.90145 0
M  V30 16454 H 1609.66 1.6827 2.45097 0
M  V30 16455 H 1607.2 0.969222 1.20189 0
M  V30 16456 H 1609.15 -0.190243 4.10059 0
M  V30 16457 H 1607.81 -0.717181 3.05803 0
M  V30 16458 H 1607.01 0.666543 4.99573 0
M  V30 16459 H 1606.61 1.44829 3.4482 0
M  V30 16460 H 1608.9 1.44304 6.61954 0
M  V30 16461 H 1609.84 2.95598 6.4345 0
M  V30 16462 H 1610.25 1.53092 5.43344 0
M  V30 16463 N 1609.65 -1.26251 0.943322 0
M  V30 16464 C 1610.93 -1.88839 0.509831 0
M  V30 16465 C 1611.31 -1.85227 -1.01263 0
M  V30 16466 O 1610.66 -1.30805 -1.87356 0
M  V30 16467 C 1610.87 -3.32076 1.07361 0
M  V30 16468 C 1612.21 -4.0891 1.14357 0
M  V30 16469 O 1613.24 -3.41153 1.02435 0
M  V30 16470 O 1612.1 -5.30088 1.32926 0
M  V30 16471 H 1609.19 -0.810069 0.166484 0
M  V30 16472 H 1611.74 -1.34405 1.03602 0
M  V30 16473 H 1610.51 -3.29077 2.11716 0
M  V30 16474 H 1610.13 -3.94052 0.529991 0
M  V30 16475 N 1611.13 -0.710588 -1.40671 0
M  V30 16476 C 1612.35 -0.256007 -2.05814 0
M  V30 16477 C 1612.78 1.09178 -1.53173 0
M  V30 16478 O 1612.14 1.68665 -0.664977 0
M  V30 16479 C 1612.19 -0.240528 -3.59797 0
M  V30 16480 O 1611.29 0.779859 -4.04959 0
M  V30 16481 H 1610.63 -0.121326 -0.652822 0
M  V30 16482 H 1613.16 -0.969667 -1.80163 0
M  V30 16483 H 1613.17 -0.0765027 -4.07928 0
M  V30 16484 H 1611.85 -1.22411 -3.97478 0
M  V30 16485 H 1610.42 0.583965 -3.68299 0
M  V30 16486 N 1612.61 1.50847 -0.456408 0
M  V30 16487 C 1613.83 2.07139 0.104054 0
M  V30 16488 C 1614.26 1.31966 1.34039 0
M  V30 16489 O 1613.62 0.363038 1.77628 0
M  V30 16490 C 1613.66 3.5853 0.385794 0
M  V30 16491 O 1612.77 3.85351 1.46895 0
M  V30 16492 H 1612.11 0.663968 -0.00651246 0
M  V30 16493 H 1614.64 1.94226 -0.64323 0
M  V30 16494 H 1614.65 4.03097 0.630644 0
M  V30 16495 H 1613.32 4.12665 -0.51773 0
M  V30 16496 H 1611.9 3.52635 1.21256 0
M  V30 16497 N 1614.09 0.188454 1.56469 0
M  V30 16498 C 1615.36 -0.499324 1.89119 0
M  V30 16499 C 1615.74 -1.80116 1.10098 0
M  V30 16500 O 1615.09 -2.27623 0.200048 0
M  V30 16501 C 1615.3 -0.724574 3.41396 0
M  V30 16502 C 1616.65 -1.04692 4.11491 0
M  V30 16503 O 1617.67 -0.812526 3.46809 0
M  V30 16504 O 1616.53 -1.48998 5.25797 0
M  V30 16505 H 1613.63 -0.259468 0.785242 0
M  V30 16506 H 1616.17 0.228172 1.68159 0
M  V30 16507 H 1614.94 0.195039 3.90814 0
M  V30 16508 H 1614.57 -1.50477 3.68025 0
M  V30 16509 N 1615.56 -1.5737 -0.0851874 0
M  V30 16510 C 1616.47 -2.06097 -1.12078 0
M  V30 16511 C 1617.49 -0.987809 -1.43242 0
M  V30 16512 O 1618.67 -1.30163 -1.53686 0
M  V30 16513 C 1615.73 -2.48397 -2.41867 0
M  V30 16514 C 1614.79 -3.69951 -2.17795 0
M  V30 16515 C 1614.02 -4.10225 -3.41396 0
M  V30 16516 O 1614.25 -3.50495 -4.5001 0
M  V30 16517 O 1613.18 -5.03111 -3.30399 0
M  V30 16518 H 1617.01 -2.94625 -0.736877 0
M  V30 16519 H 1614.59 -1.4639 -0.298392 0
M  V30 16520 H 1616.47 -2.76187 -3.18274 0
M  V30 16521 H 1615.15 -1.63003 -2.79664 0
M  V30 16522 H 1614.06 -3.47263 -1.39136 0
M  V30 16523 H 1615.39 -4.56156 -1.84886 0
M  V30 16524 N 1617.04 0.356258 -1.53521 0
M  V30 16525 C 1617.99 1.43689 -1.80616 0
M  V30 16526 C 1618.96 1.52808 -0.651064 0
M  V30 16527 O 1620.14 1.68549 -0.894203 0
M  V30 16528 C 1617.28 2.80513 -2.01013 0
M  V30 16529 C 1616.4 2.80287 -3.2873 0
M  V30 16530 C 1615.53 4.08747 -3.39263 0
M  V30 16531 C 1614.57 4.02699 -4.60977 0
M  V30 16532 N 1613.71 5.22825 -4.68614 0
M  V30 16533 H 1618.55 1.19884 -2.72822 0
M  V30 16534 H 1616.08 0.580984 -1.35141 0
M  V30 16535 H 1618.04 3.60011 -2.10827 0
M  V30 16536 H 1616.67 3.02698 -1.12134 0
M  V30 16537 H 1615.72 1.92968 -3.27822 0
M  V30 16538 H 1617.04 2.71693 -4.18311 0
M  V30 16539 H 1616.19 4.96663 -3.4844 0
M  V30 16540 H 1614.93 4.20106 -2.47715 0
M  V30 16541 H 1613.93 3.13168 -4.51892 0
M  V30 16542 H 1615.16 3.92934 -5.53877 0
M  V30 16543 H 1613.11 5.34752 -3.79969 0
M  V30 16544 H 1613.02 5.16437 -5.52113 0
M  V30 16545 H 1614.29 6.12548 -4.82085 0
M  V30 16546 N 1618.52 1.45038 0.616577 0
M  V30 16547 C 1619.74 1.52321 1.40759 0
M  V30 16548 C 1620.17 0.15375 1.87471 0
M  V30 16549 O 1619.53 -0.859908 1.5961 0
M  V30 16550 C 1619.58 2.50464 2.59423 0
M  V30 16551 O 1618.68 2.01623 3.59753 0
M  V30 16552 H 1618.02 0.513808 0.420592 0
M  V30 16553 H 1620.55 1.90309 0.751234 0
M  V30 16554 H 1620.56 2.68977 3.06783 0
M  V30 16555 H 1619.24 3.4993 2.24771 0
M  V30 16556 H 1617.81 1.92945 3.19103 0
M  V30 16557 N 1620 -0.858287 1.32179 0
M  V30 16558 C 1621.24 -1.6261 1.23844 0
M  V30 16559 C 1621.6 -1.9098 -0.197628 0
M  V30 16560 O 1622.8 -2.65737 -0.40465 0
M  V30 16561 C 1621.07 -2.91319 2.07047 0
M  V30 16562 S 1622.63 -3.82125 2.15699 0
M  V30 16563 H 1619.45 -0.557789 0.4409 0
M  V30 16564 H 1622.05 -1.0167 1.66983 0
M  V30 16565 H 1620.76 -2.68417 3.10452 0
M  V30 16566 H 1620.29 -3.57277 1.64671 0
M  V30 16567 H 1622.3 -4.78764 1.30384 0
M  V30 16568 N 1621.48 -1.1533 -1.07409 0
M  V30 16569 C 1622.39 -0.863514 -2.1813 0
M  V30 16570 C 1623.4 0.159954 -1.73263 0
M  V30 16571 O 1624.58 -0.0139818 -2.01395 0
M  V30 16572 C 1621.64 -0.356271 -3.44865 0
M  V30 16573 C 1620.7 -1.44356 -4.04302 0
M  V30 16574 C 1619.94 -0.960429 -5.24987 0
M  V30 16575 O 1620.16 0.194227 -5.70069 0
M  V30 16576 O 1619.09 -1.74387 -5.76084 0
M  V30 16577 H 1622.92 -1.78909 -2.45408 0
M  V30 16578 H 1620.5 -0.932362 -1.16736 0
M  V30 16579 H 1622.39 -0.0798183 -4.21324 0
M  V30 16580 H 1621.06 0.541445 -3.1914 0
M  V30 16581 H 1619.97 -1.77361 -3.29384 0
M  V30 16582 H 1621.3 -2.31617 -4.34298 0
M  V30 16583 N 1622.95 1.25748 -0.950004 0
M  V30 16584 C 1624.2 1.92954 -0.601104 0
M  V30 16585 C 1624.52 1.74817 0.863953 0
M  V30 16586 O 1623.79 1.10904 1.61484 0
M  V30 16587 H 1622.37 0.714077 -0.219325 0
M  V30 16588 H 1625.03 1.53009 -1.20724 0
M  V30 16589 H 1624.13 3.00959 -0.826447 0
M  V30 16590 N 1624.43 0.718038 1.40292 0
M  V30 16591 C 1625.68 0.258986 2.0114 0
M  V30 16592 C 1626.01 -1.1456 1.56811 0
M  V30 16593 O 1625.29 -1.77766 0.789276 0
M  V30 16594 C 1625.57 0.341778 3.58474 0
M  V30 16595 C 1625.42 1.78492 4.12869 0
M  V30 16596 C 1626.74 -0.285622 4.39172 0
M  V30 16597 H 1623.86 0.0955806 0.730776 0
M  V30 16598 H 1626.5 0.911 1.66736 0
M  V30 16599 H 1624.65 -0.213354 3.87914 0
M  V30 16600 H 1626.32 2.39562 3.94218 0
M  V30 16601 H 1624.57 2.31183 3.67065 0
M  V30 16602 H 1625.24 1.79423 5.22026 0
M  V30 16603 H 1627.71 0.187411 4.15678 0
M  V30 16604 H 1626.59 -0.19726 5.48545 0
M  V30 16605 H 1626.85 -1.36947 4.20355 0
M  V30 16606 N 1625.91 -1.50602 0.464402 0
M  V30 16607 C 1627.14 -2.06701 -0.0907765 0
M  V30 16608 C 1627.55 -1.32901 -1.341 0
M  V30 16609 O 1626.91 -0.396323 -1.78145 0
M  V30 16610 C 1626.96 -3.59437 -0.385667 0
M  V30 16611 O 1626.68 -4.30453 0.81496 0
M  V30 16612 C 1628.18 -4.32137 -0.988549 0
M  V30 16613 H 1625.4 -0.670987 0.00410069 0
M  V30 16614 H 1627.95 -1.93853 0.651264 0
M  V30 16615 H 1626.1 -3.7211 -1.07763 0
M  V30 16616 H 1626.52 -5.2155 0.55551 0
M  V30 16617 H 1627.99 -5.40001 -1.1447 0
M  V30 16618 H 1628.47 -3.92194 -1.97688 0
M  V30 16619 H 1629.07 -4.23977 -0.335166 0
M  V30 16620 N 1627.39 -0.19675 -1.56367 0
M  V30 16621 C 1628.34 0.736299 -2.15784 0
M  V30 16622 C 1629.32 1.17513 -1.09907 0
M  V30 16623 O 1630.51 1.13325 -1.35965 0
M  V30 16624 C 1627.64 1.95491 -2.82202 0
M  V30 16625 C 1626.73 1.5369 -3.95272 0
M  V30 16626 N 1627.12 0.829952 -4.98944 0
M  V30 16627 C 1625.42 1.82607 -4.06904 0
M  V30 16628 C 1626.12 0.620262 -5.78384 0
M  V30 16629 N 1625.1 1.16949 -5.30871 0
M  V30 16630 H 1628.9 0.187476 -2.93301 0
M  V30 16631 H 1626.41 0.0029757 -1.624 0
M  V30 16632 H 1628.41 2.63384 -3.23163 0
M  V30 16633 H 1627.07 2.50844 -2.06173 0
M  V30 16634 H 1628.08 0.485245 -5.15622 0
M  V30 16635 H 1624.76 2.39457 -3.42004 0
M  V30 16636 H 1626.15 0.0593437 -6.71874 0
M  V30 16637 N 1628.87 1.57413 0.0768405 0
M  V30 16638 C 1630.11 1.87279 0.778099 0
M  V30 16639 C 1630.45 0.788359 1.77478 0
M  V30 16640 O 1629.72 -0.201876 1.9345 0
M  V30 16641 C 1630 3.27801 1.49059 0
M  V30 16642 C 1629.86 4.46892 0.510661 0
M  V30 16643 C 1631.18 3.66485 2.43674 0
M  V30 16644 H 1628.29 0.681159 0.281409 0
M  V30 16645 H 1630.94 1.89955 0.0413711 0
M  V30 16646 H 1629.09 3.2565 2.11859 0
M  V30 16647 H 1630.76 4.61165 -0.111734 0
M  V30 16648 H 1629 4.33449 -0.174445 0
M  V30 16649 H 1629.67 5.41985 1.04671 0
M  V30 16650 H 1632.15 3.69696 1.90955 0
M  V30 16651 H 1631.02 4.65706 2.90533 0
M  V30 16652 H 1631.29 2.96145 3.28254 0
M  V30 16653 N 1630.34 -0.348112 1.53707 0
M  V30 16654 C 1631.58 -1.09736 1.72445 0
M  V30 16655 C 1631.95 -1.86028 0.475158 0
M  V30 16656 O 1633.15 -2.6333 0.539493 0
M  V30 16657 C 1631.42 -2.01721 2.95032 0
M  V30 16658 S 1632.98 -2.83929 3.34559 0
M  V30 16659 H 1629.8 -0.370854 0.60662 0
M  V30 16660 H 1632.4 -0.376358 1.91843 0
M  V30 16661 H 1631.1 -1.44466 3.84133 0
M  V30 16662 H 1630.63 -2.78265 2.78086 0
M  V30 16663 H 1632.65 -4.04113 2.87937 0
M  V30 16664 N 1631.82 -1.45363 -0.608876 0
M  V30 16665 C 1633.1 -1.39787 -1.36817 0
M  V30 16666 C 1633.48 -0.067821 -2.10991 0
M  V30 16667 O 1632.83 0.950196 -2.07806 0
M  V30 16668 C 1633.04 -2.61073 -2.31608 0
M  V30 16669 C 1634.39 -3.06104 -2.94254 0
M  V30 16670 O 1635.41 -2.61436 -2.41929 0
M  V30 16671 O 1634.27 -3.83616 -3.89231 0
M  V30 16672 H 1631.36 -0.554657 -0.61342 0
M  V30 16673 H 1633.91 -1.57489 -0.632073 0
M  V30 16674 H 1632.68 -3.4946 -1.76049 0
M  V30 16675 H 1632.3 -2.45697 -3.126 0
M  V30 16676 N 1633.3 0.851265 -1.32632 0
M  V30 16677 C 1634.71 1.4217 -1.21015 0
M  V30 16678 C 1635.06 1.95409 0.175972 0
M  V30 16679 O 1634.19 1.87816 1.07489 0
M  V30 16680 C 1634.78 2.58431 -2.19086 0
M  V30 16681 C 1633.34 3.11464 -2.11346 0
M  V30 16682 C 1632.49 1.84221 -2.07263 0
M  V30 16683 H 1635.44 0.65812 -1.44411 0
M  V30 16684 H 1635.46 3.35694 -1.79137 0
M  V30 16685 H 1634.97 2.19652 -3.1996 0
M  V30 16686 H 1633.07 3.54818 -1.13732 0
M  V30 16687 H 1633.19 3.72478 -3.01325 0
M  V30 16688 H 1631.55 2.0396 -1.52553 0
M  V30 16689 H 1632.33 1.47654 -3.09924 0
M  V30 16690 N 1634.78 1.15898 1.06796 0
M  V30 16691 C 1636 0.961859 1.83747 0
M  V30 16692 C 1636.43 -0.48494 1.81741 0
M  V30 16693 O 1635.79 -1.3461 1.21449 0
M  V30 16694 C 1635.83 1.48764 3.28484 0
M  V30 16695 O 1634.94 0.690576 4.06577 0
M  V30 16696 H 1634.28 0.342664 0.568751 0
M  V30 16697 H 1636.81 1.54015 1.34687 0
M  V30 16698 H 1636.82 1.50291 3.79311 0
M  V30 16699 H 1635.49 2.54089 3.29259 0
M  V30 16700 H 1634.07 0.74539 3.65374 0
M  V30 16701 N 1636.26 -1.25243 0.956659 0
M  V30 16702 C 1637.5 -1.93299 0.613446 0
M  V30 16703 C 1637.84 -1.74723 -0.847671 0
M  V30 16704 O 1637.11 -1.09357 -1.60846 0
M  V30 16705 C 1637.39 -3.46637 0.975421 0
M  V30 16706 C 1637.25 -3.74431 2.49242 0
M  V30 16707 C 1638.57 -4.37228 0.501948 0
M  V30 16708 H 1635.68 -0.702027 0.224338 0
M  V30 16709 H 1638.33 -1.47822 1.19368 0
M  V30 16710 H 1636.48 -3.85503 0.48167 0
M  V30 16711 H 1638.15 -3.4519 3.06009 0
M  V30 16712 H 1636.39 -3.19967 2.92923 0
M  V30 16713 H 1637.06 -4.81674 2.69619 0
M  V30 16714 H 1639.54 -4.05677 0.925514 0
M  V30 16715 H 1638.41 -5.43274 0.783895 0
M  V30 16716 H 1638.68 -4.38036 -0.598082 0
M  V30 16717 N 1637.73 -0.725468 -1.3991 0
M  V30 16718 C 1638.68 -0.0792833 -2.30664 0
M  V30 16719 C 1639.65 0.73984 -1.48713 0
M  V30 16720 O 1640.84 0.701762 -1.77426 0
M  V30 16721 C 1637.98 0.829164 -3.34991 0
M  V30 16722 C 1637.09 -0.00154779 -4.32 0
M  V30 16723 C 1636.22 0.907291 -5.23394 0
M  V30 16724 C 1635.26 0.0712573 -6.12059 0
M  V30 16725 N 1634.4 0.935508 -6.9584 0
M  V30 16726 H 1639.24 -0.858869 -2.85355 0
M  V30 16727 H 1636.78 -0.435214 -1.40514 0
M  V30 16728 H 1638.74 1.37021 -3.94057 0
M  V30 16729 H 1637.37 1.57483 -2.81778 0
M  V30 16730 H 1636.42 -0.659903 -3.74632 0
M  V30 16731 H 1637.73 -0.648387 -4.94568 0
M  V30 16732 H 1636.88 1.51652 -5.87441 0
M  V30 16733 H 1635.62 1.58793 -4.61125 0
M  V30 16734 H 1634.63 -0.550844 -5.47034 0
M  V30 16735 H 1635.85 -0.606025 -6.76391 0
M  V30 16736 H 1633.8 1.60162 -6.36148 0
M  V30 16737 H 1633.72 0.344932 -7.55213 0
M  V30 16738 H 1634.98 1.53061 -7.64325 0
M  V30 16739 N 1639.21 1.50354 -0.472382 0
M  V30 16740 C 1640.46 2.02333 0.0821629 0
M  V30 16741 C 1640.79 1.35428 1.39605 0
M  V30 16742 O 1640.04 0.469386 1.89988 0
M  V30 16743 C 1640.34 3.5603 0.31263 0
M  V30 16744 C 1640.01 4.41421 -0.919715 0
M  V30 16745 C 1638.67 4.64476 -1.25759 0
M  V30 16746 C 1641.02 4.91292 -1.74017 0
M  V30 16747 C 1638.35 5.34648 -2.41596 0
M  V30 16748 C 1640.7 5.62736 -2.88983 0
M  V30 16749 C 1639.37 5.84045 -3.23184 0
M  V30 16750 H 1638.64 0.74039 0.0300655 0
M  V30 16751 H 1641.28 1.80954 -0.626725 0
M  V30 16752 H 1639.59 3.75931 1.10378 0
M  V30 16753 H 1641.28 3.93815 0.755691 0
M  V30 16754 H 1637.87 4.23696 -0.646486 0
M  V30 16755 H 1642.06 4.73332 -1.49232 0
M  V30 16756 H 1637.31 5.49354 -2.68366 0
M  V30 16757 H 1641.49 6.0036 -3.52903 0
M  V30 16758 H 1639.12 6.38196 -4.1305 0
M  V30 16759 N 1640.69 0.205039 1.56261 0
M  V30 16760 C 1641.94 -0.430245 1.97467 0
M  V30 16761 C 1642.26 -1.6146 1.09342 0
M  V30 16762 O 1641.53 -1.95188 0.166836 0
M  V30 16763 H 1640.11 -0.161945 0.729234 0
M  V30 16764 H 1642.77 0.294089 1.92668 0
M  V30 16765 H 1641.87 -0.767699 3.02511 0
M  V30 16766 N 1642.17 -1.57451 -0.0684915 0
M  V30 16767 C 1643.41 -1.89247 -0.772325 0
M  V30 16768 C 1643.77 -0.799211 -1.74576 0
M  V30 16769 O 1644.97 -1.00034 -2.49493 0
M  V30 16770 C 1643.25 -3.26269 -1.45888 0
M  V30 16771 S 1644.8 -3.7982 -2.19732 0
M  V30 16772 H 1641.62 -0.66302 -0.256759 0
M  V30 16773 H 1644.22 -1.9548 -0.0282932 0
M  V30 16774 H 1642.93 -4.03735 -0.736646 0
M  V30 16775 H 1642.46 -3.23242 -2.24227 0
M  V30 16776 H 1644.47 -3.55372 -3.46302 0
M  V30 16777 N 1643.65 0.339955 -1.5389 0
M  V30 16778 C 1644.59 1.41765 -1.8213 0
M  V30 16779 C 1645.56 1.52109 -0.667235 0
M  V30 16780 O 1646.75 1.67591 -0.91203 0
M  V30 16781 C 1643.89 2.78366 -2.03977 0
M  V30 16782 C 1643 2.76785 -3.31684 0
M  V30 16783 C 1642.14 4.05125 -3.4358 0
M  V30 16784 C 1641.18 3.97787 -4.65223 0
M  V30 16785 N 1640.31 5.17825 -4.74133 0
M  V30 16786 H 1645.15 1.16984 -2.74078 0
M  V30 16787 H 1642.69 0.566618 -1.35749 0
M  V30 16788 H 1644.65 3.57755 -2.14633 0
M  V30 16789 H 1643.28 3.01491 -1.15338 0
M  V30 16790 H 1642.33 1.89481 -3.2985 0
M  V30 16791 H 1643.64 2.67241 -4.2117 0
M  V30 16792 H 1642.8 4.9294 -3.53688 0
M  V30 16793 H 1641.54 4.17455 -2.52157 0
M  V30 16794 H 1640.54 3.08357 -4.55188 0
M  V30 16795 H 1641.77 3.87037 -5.58014 0
M  V30 16796 H 1639.71 5.30691 -3.8562 0
M  V30 16797 H 1639.63 5.10552 -5.5756 0
M  V30 16798 H 1640.9 6.074 -4.88554 0
M  V30 16799 N 1645.13 1.45684 0.601159 0
M  V30 16800 C 1646.4 1.4051 1.36074 0
M  V30 16801 C 1646.78 0.0790095 2.10952 0
M  V30 16802 O 1646.13 -0.939162 2.08307 0
M  V30 16803 C 1646.34 2.62297 2.3022 0
M  V30 16804 C 1647.69 3.0766 2.92627 0
M  V30 16805 O 1648.71 2.62716 2.40539 0
M  V30 16806 O 1647.57 3.85675 3.87191 0
M  V30 16807 H 1644.67 0.557902 0.61047 0
M  V30 16808 H 1647.21 1.57822 0.623712 0
M  V30 16809 H 1645.98 3.50389 1.74194 0
M  V30 16810 H 1645.61 2.47351 3.11293 0
M  V30 16811 N 1646.6 -0.84422 1.33082 0
M  V30 16812 C 1647.83 -1.63654 1.27405 0
M  V30 16813 C 1648.25 -1.87476 -0.153146 0
M  V30 16814 O 1647.61 -1.43502 -1.10801 0
M  V30 16815 C 1647.66 -2.96698 2.04945 0
M  V30 16816 O 1646.76 -3.87751 1.40439 0
M  V30 16817 H 1646.1 -0.498545 0.438576 0
M  V30 16818 H 1648.63 -1.0507 1.7556 0
M  V30 16819 H 1648.64 -3.46438 2.1551 0
M  V30 16820 H 1647.32 -2.78682 3.08722 0
M  V30 16821 H 1645.9 -3.46231 1.38487 0
M  V30 16822 N 1648.08 -1.16463 -1.0618 0
M  V30 16823 C 1649.04 -0.874674 -2.11854 0
M  V30 16824 C 1650.04 0.130829 -1.60267 0
M  V30 16825 O 1651.23 -0.100195 -1.73912 0
M  V30 16826 C 1648.37 -0.30826 -3.39503 0
M  V30 16827 H 1649.56 -1.81149 -2.39009 0
M  V30 16828 H 1647.11 -0.973721 -1.22264 0
M  V30 16829 H 1647.85 0.636181 -3.17999 0
M  V30 16830 H 1647.63 -1.03281 -3.78253 0
M  V30 16831 H 1649.12 -0.123378 -4.17418 0
M  V30 16832 N 1649.56 1.24734 -0.963288 0
M  V30 16833 C 1650.98 1.44897 -0.669103 0
M  V30 16834 C 1651.18 1.86185 0.770541 0
M  V30 16835 O 1650.23 1.99721 1.54492 0
M  V30 16836 C 1651.54 2.51425 -1.64943 0
M  V30 16837 C 1653.09 2.65256 -1.66157 0
M  V30 16838 C 1653.57 3.74977 -2.62976 0
M  V30 16839 N 1655.06 3.82399 -2.61391 0
M  V30 16840 C 1655.79 4.66809 -3.32981 0
M  V30 16841 N 1655.29 5.55441 -4.14073 0
M  V30 16842 N 1657.08 4.60851 -3.21827 0
M  V30 16843 H 1649.23 0.962292 -1.89351 0
M  V30 16844 H 1651.5 0.4843 -0.814958 0
M  V30 16845 H 1651.2 2.27965 -2.67815 0
M  V30 16846 H 1651.08 3.49503 -1.41872 0
M  V30 16847 H 1653.46 2.88077 -0.639978 0
M  V30 16848 H 1653.54 1.67551 -1.93288 0
M  V30 16849 H 1653.19 3.52907 -3.65266 0
M  V30 16850 H 1653.12 4.72187 -2.33125 0
M  V30 16851 H 1655.61 3.19048 -2.02527 0
M  V30 16852 H 1655.92 6.16798 -4.65597 0
M  V30 16853 H 1654.27 5.55121 -4.18169 0
M  V30 16854 H 1657.46 3.90621 -2.5794 0
M  V30 16855 H 1657.63 5.26411 -3.77883 0
M  V30 16856 N 1651.04 0.732878 1.39523 0
M  V30 16857 C 1652.28 0.284541 2.0241 0
M  V30 16858 C 1652.64 -1.10672 1.56894 0
M  V30 16859 O 1653.84 -1.65302 2.11964 0
M  V30 16860 C 1652.11 0.380486 3.55369 0
M  V30 16861 S 1653.67 0.0116789 4.38798 0
M  V30 16862 H 1650.49 0.111634 0.702182 0
M  V30 16863 H 1653.09 0.958924 1.70367 0
M  V30 16864 H 1651.8 1.39437 3.85986 0
M  V30 16865 H 1651.33 -0.31179 3.92163 0
M  V30 16866 H 1653.34 -1.20519 4.81341 0
M  V30 16867 N 1652.52 -1.50101 0.480349 0
M  V30 16868 C 1653.76 -2.01567 -0.073165 0
M  V30 16869 C 1654.08 -1.36657 -1.39944 0
M  V30 16870 O 1655.28 -1.79332 -2.03844 0
M  V30 16871 C 1653.74 -3.59445 -0.180889 0
M  V30 16872 C 1653.35 -4.33318 1.1375 0
M  V30 16873 C 1655.09 -4.18923 -0.685868 0
M  V30 16874 C 1653 -5.83003 0.99307 0
M  V30 16875 H 1651.93 -0.753358 -0.0311179 0
M  V30 16876 H 1654.58 -1.72829 0.616648 0
M  V30 16877 H 1652.96 -3.84811 -0.934693 0
M  V30 16878 H 1654.14 -4.1967 1.90299 0
M  V30 16879 H 1652.45 -3.85492 1.57431 0
M  V30 16880 H 1655.05 -5.28512 -0.811109 0
M  V30 16881 H 1655.39 -3.80916 -1.67955 0
M  V30 16882 H 1655.92 -3.97799 0.0108117 0
M  V30 16883 H 1652.66 -6.25499 1.9604 0
M  V30 16884 H 1652.18 -5.992 0.268128 0
M  V30 16885 H 1653.86 -6.4359 0.663417 0
M  V30 16886 N 1653.99 -0.213323 -1.5615 0
M  V30 16887 C 1655.22 0.428746 -2.0292 0
M  V30 16888 C 1655.64 1.53137 -1.09227 0
M  V30 16889 O 1655 1.81128 -0.0789684 0
M  V30 16890 C 1655.05 0.945231 -3.47991 0
M  V30 16891 O 1654.15 2.05709 -3.57432 0
M  V30 16892 H 1653.49 0.0980619 -0.656719 0
M  V30 16893 H 1656.02 -0.329548 -2.01929 0
M  V30 16894 H 1656.03 1.25717 -3.88149 0
M  V30 16895 H 1654.71 0.138161 -4.1567 0
M  V30 16896 H 1653.29 1.75242 -3.29158 0
M  V30 16897 N 1655.47 1.57485 0.0601405 0
M  V30 16898 C 1656.42 2.04487 1.07023 0
M  V30 16899 C 1657.39 0.927738 1.37776 0
M  V30 16900 O 1658.57 1.19621 1.48645 0
M  V30 16901 C 1655.71 2.50338 2.37539 0
M  V30 16902 C 1654.83 3.75717 2.13215 0
M  V30 16903 C 1653.96 4.10304 3.37378 0
M  V30 16904 C 1653 5.2869 3.0847 0
M  V30 16905 N 1652.14 5.58858 4.24996 0
M  V30 16906 H 1656.98 2.90544 0.662444 0
M  V30 16907 H 1654.52 1.43676 0.315515 0
M  V30 16908 H 1656.47 2.74978 3.13756 0
M  V30 16909 H 1655.1 1.67242 2.76098 0
M  V30 16910 H 1654.16 3.58348 1.27636 0
M  V30 16911 H 1655.47 4.62068 1.87869 0
M  V30 16912 H 1654.62 4.35907 4.21983 0
M  V30 16913 H 1653.36 3.22544 3.6581 0
M  V30 16914 H 1652.37 5.02871 2.22262 0
M  V30 16915 H 1653.59 6.18077 2.81349 0
M  V30 16916 H 1651.54 4.74058 4.53437 0
M  V30 16917 H 1651.45 6.39652 4.02965 0
M  V30 16918 H 1652.72 5.89019 5.10565 0
M  V30 16919 N 1656.95 -0.331789 1.54068 0
M  V30 16920 C 1657.91 -1.39094 1.82169 0
M  V30 16921 C 1658.91 -1.45092 0.693168 0
M  V30 16922 O 1660.1 -1.45263 0.961471 0
M  V30 16923 C 1657.24 -2.77909 1.97432 0
M  V30 16924 H 1658.43 -1.15435 2.76794 0
M  V30 16925 H 1655.98 -0.566827 1.4566 0
M  V30 16926 H 1656.72 -3.06835 1.0499 0
M  V30 16927 H 1656.5 -2.7495 2.79544 0
M  V30 16928 H 1657.99 -3.54548 2.20649 0
M  V30 16929 N 1658.43 -1.46001 -0.593424 0
M  V30 16930 C 1659.67 -1.51967 -1.35195 0
M  V30 16931 C 1660.03 -0.164761 -1.91693 0
M  V30 16932 O 1659.32 0.825208 -1.72919 0
M  V30 16933 C 1659.52 -2.54568 -2.50858 0
M  V30 16934 C 1659.35 -3.99903 -2.05688 0
M  V30 16935 C 1658.12 -4.67729 -1.91201 0
M  V30 16936 C 1660.31 -4.88021 -1.62297 0
M  V30 16937 N 1658.3 -5.97726 -1.39989 0
M  V30 16938 C 1659.67 -6.07757 -1.22602 0
M  V30 16939 C 1661.72 -4.74762 -1.50018 0
M  V30 16940 C 1660.42 -7.15702 -0.718508 0
M  V30 16941 C 1662.45 -5.82769 -1.0067 0
M  V30 16942 C 1661.81 -7.01671 -0.619471 0
M  V30 16943 H 1657.91 -0.610973 -0.488094 0
M  V30 16944 H 1660.5 -1.82556 -0.676862 0
M  V30 16945 H 1658.67 -2.25908 -3.15943 0
M  V30 16946 H 1660.4 -2.50595 -3.1778 0
M  V30 16947 H 1657.15 -4.23089 -2.1282 0
M  V30 16948 H 1657.58 -6.66888 -1.16576 0
M  V30 16949 H 1662.22 -3.83236 -1.78577 0
M  V30 16950 H 1659.94 -8.07005 -0.420481 0
M  V30 16951 H 1663.52 -5.74548 -0.915751 0
M  V30 16952 H 1662.4 -7.83822 -0.243508 0
M  V30 16953 N 1659.91 0.83715 -1.33527 0
M  V30 16954 C 1661.15 1.59487 -1.25267 0
M  V30 16955 C 1661.49 1.93357 0.180741 0
M  V30 16956 O 1660.76 1.5884 1.12251 0
M  V30 16957 C 1661.04 2.90376 -2.12964 0
M  V30 16958 C 1660.9 2.63177 -3.64771 0
M  V30 16959 C 1662.22 3.9182 -2.00412 0
M  V30 16960 H 1659.33 0.578684 -0.456392 0
M  V30 16961 H 1661.98 0.965428 -1.63644 0
M  V30 16962 H 1660.13 3.44095 -1.80364 0
M  V30 16963 H 1661.8 2.15878 -4.0767 0
M  V30 16964 H 1660.04 1.96849 -3.86566 0
M  V30 16965 H 1660.71 3.56452 -4.21481 0
M  V30 16966 H 1663.19 3.47413 -2.29005 0
M  V30 16967 H 1662.06 4.81232 -2.64021 0
M  V30 16968 H 1662.33 4.31173 -0.976852 0
M  V30 16969 N 1661.38 1.17024 1.05561 0
M  V30 16970 C 1662.62 0.967099 1.80074 0
M  V30 16971 C 1662.99 -0.495724 1.8549 0
M  V30 16972 O 1664.19 -0.817816 2.56057 0
M  V30 16973 C 1662.46 1.5862 3.20273 0
M  V30 16974 S 1664.02 1.52873 4.11309 0
M  V30 16975 H 1660.84 0.347623 0.620225 0
M  V30 16976 H 1663.44 1.48902 1.26682 0
M  V30 16977 H 1662.14 2.64341 3.1393 0
M  V30 16978 H 1661.67 1.06392 3.7874 0
M  V30 16979 H 1663.69 0.534126 4.93317 0
M  V30 16980 N 1662.86 -1.24221 0.969889 0
M  V30 16981 C 1664.14 -1.87715 0.549772 0
M  V30 16982 C 1664.52 -1.87333 -0.973114 0
M  V30 16983 O 1663.87 -1.3475 -1.84539 0
M  V30 16984 C 1664.08 -3.29724 1.14381 0
M  V30 16985 C 1665.43 -4.06393 1.23005 0
M  V30 16986 O 1666.45 -3.38904 1.09648 0
M  V30 16987 O 1665.31 -5.27149 1.4414 0
M  V30 16988 H 1662.4 -0.806356 0.183629 0
M  V30 16989 H 1664.95 -1.32177 1.0643 0
M  V30 16990 H 1663.72 -3.24513 2.18649 0
M  V30 16991 H 1663.34 -3.92839 0.613456 0
M  V30 16992 N 1664.34 -0.740267 -1.39132 0
M  V30 16993 C 1665.59 -0.289949 -2.00009 0
M  V30 16994 C 1665.91 1.12831 -1.59042 0
M  V30 16995 O 1665.18 1.76926 -0.841076 0
M  V30 16996 H 1663.76 -0.104213 -0.739695 0
M  V30 16997 H 1666.42 -0.951398 -1.70101 0
M  V30 16998 H 1665.52 -0.342509 -3.10215 0
M  V30 16999 N 1665.82 1.49844 -0.488302 0
M  V30 17000 C 1667.1 1.95212 0.123105 0
M  V30 17001 C 1667.48 1.42936 1.55346 0
M  V30 17002 O 1666.82 0.637657 2.19422 0
M  V30 17003 C 1667.03 3.48966 0.0487846 0
M  V30 17004 C 1668.38 4.23982 0.229083 0
M  V30 17005 O 1669.41 3.55982 0.124569 0
M  V30 17006 O 1668.26 5.44709 0.442066 0
M  V30 17007 H 1665.36 0.820652 0.102268 0
M  V30 17008 H 1667.9 1.60542 -0.549935 0
M  V30 17009 H 1666.68 3.79613 -0.949203 0
M  V30 17010 H 1666.3 3.90219 0.76253 0
M  V30 17011 N 1667.3 0.221601 1.56034 0
M  V30 17012 C 1668.24 -0.704963 2.2166 0
M  V30 17013 C 1669.24 -1.19966 1.19601 0
M  V30 17014 O 1670.44 -1.15949 1.37681 0
M  V30 17015 H 1666.82 -0.245758 0.710709 0
M  V30 17016 H 1668.79 -0.128041 2.98125 0
M  V30 17017 C 1667.54 -1.90234 2.91043 0
M  V30 17018 H 1666.86 -1.53079 3.69333 0
M  V30 17019 H 1668.3 -2.52844 3.40361 0
M  V30 17020 C 1666.76 -2.75777 1.93516 0
M  V30 17021 O 1667.29 -3.74534 1.45214 0
M  V30 17022 N 1665.5 -2.41815 1.61165 0
M  V30 17023 H 1665.04 -1.61561 2.00639 0
M  V30 17024 H 1665 -2.9933 0.96172 0
M  V30 17025 N 1668.77 -1.57515 -0.0517878 0
M  V30 17026 C 1670.05 -1.79321 -0.781233 0
M  V30 17027 C 1670.43 -0.814142 -1.94769 0
M  V30 17028 O 1669.78 0.14858 -2.28016 0
M  V30 17029 C 1669.99 -3.26398 -1.23553 0
M  V30 17030 C 1671.34 -3.90773 -1.66077 0
M  V30 17031 O 1672.36 -3.3041 -1.33069 0
M  V30 17032 O 1671.22 -4.97008 -2.27257 0
M  V30 17033 H 1668.31 -0.736627 -0.375912 0
M  V30 17034 H 1670.86 -1.69673 -0.0303173 0
M  V30 17035 H 1669.63 -3.89232 -0.401806 0
M  V30 17036 H 1669.26 -3.40848 -2.04716 0
M  V30 17037 N 1670.25 0.323614 -1.54242 0
M  V30 17038 C 1671.49 1.06978 -1.74169 0
M  V30 17039 C 1671.86 1.85248 -0.504693 0
M  V30 17040 O 1673.06 2.62439 -0.581318 0
M  V30 17041 C 1671.33 1.97001 -2.98203 0
M  V30 17042 S 1672.89 2.78571 -3.39034 0
M  V30 17043 H 1669.71 0.361157 -0.612443 0
M  V30 17044 H 1672.31 0.345789 -1.92418 0
M  V30 17045 H 1671.01 1.38336 -3.86382 0
M  V30 17046 H 1670.54 2.73806 -2.82478 0
M  V30 17047 H 1672.56 3.99481 -2.94329 0
M  V30 17048 N 1671.73 1.46313 0.585673 0
M  V30 17049 C 1672.64 1.59232 1.72286 0
M  V30 17050 C 1673.66 0.475912 1.67365 0
M  V30 17051 O 1674.83 0.739627 1.87327 0
M  V30 17052 C 1671.9 1.57647 3.08785 0
M  V30 17053 C 1670.96 2.80497 3.24992 0
M  V30 17054 C 1670.19 2.78978 4.5498 0
M  V30 17055 O 1670.42 1.87553 5.38684 0
M  V30 17056 O 1669.35 3.7048 4.74371 0
M  V30 17057 H 1673.18 2.55398 1.64334 0
M  V30 17058 H 1670.76 1.29073 0.752369 0
M  V30 17059 H 1672.64 1.59448 3.90069 0
M  V30 17060 H 1671.32 0.6464 3.1718 0
M  V30 17061 H 1670.22 2.8425 2.43213 0
M  V30 17062 H 1671.56 3.72703 3.21487 0
M  V30 17063 N 1673.21 -0.830057 1.33969 0
M  V30 17064 C 1674.49 -1.57112 1.16513 0
M  V30 17065 C 1674.87 -2.09429 -0.265075 0
M  V30 17066 O 1674.21 -1.90263 -1.26539 0
M  V30 17067 C 1674.42 -2.69808 2.2137 0
M  V30 17068 C 1675.77 -3.38761 2.55981 0
M  V30 17069 O 1676.8 -2.80058 2.20104 0
M  V30 17070 O 1675.66 -4.44753 3.1758 0
M  V30 17071 H 1672.75 -0.693066 0.451207 0
M  V30 17072 H 1675.3 -0.872048 1.4558 0
M  V30 17073 H 1674.07 -2.28852 3.17399 0
M  V30 17074 H 1673.69 -3.47372 1.93439 0
M  V30 17075 N 1674.69 -1.17582 -1.04939 0
M  V30 17076 C 1675.64 -0.891102 -2.14854 0
M  V30 17077 C 1676.63 0.145242 -1.68776 0
M  V30 17078 O 1677.84 -0.00207978 -1.8 0
M  V30 17079 H 1674.21 -0.270641 -0.701611 0
M  V30 17080 H 1676.18 -1.82519 -2.36071 0
M  V30 17081 C 1674.93 -0.423679 -3.45109 0
M  V30 17082 H 1674.25 -1.2126 -3.80967 0
M  V30 17083 H 1675.69 -0.263369 -4.23181 0
M  V30 17084 C 1674.15 0.859085 -3.25763 0
M  V30 17085 O 1674.68 1.9253 -3.52555 0
M  V30 17086 N 1672.89 0.80824 -2.79134 0
M  V30 17087 H 1672.44 -0.0596431 -2.57531 0
M  V30 17088 H 1672.39 1.66697 -2.6657 0
M  V30 17089 N 1676.17 1.23705 -0.976463 0
M  V30 17090 C 1677.39 1.96595 -0.660697 0
M  V30 17091 C 1677.82 1.71845 0.764916 0
M  V30 17092 O 1677.17 0.987506 1.52046 0
M  V30 17093 C 1677.22 3.47803 -0.95214 0
M  V30 17094 O 1676.33 4.12378 -0.0421126 0
M  V30 17095 H 1675.67 0.615591 -0.248886 0
M  V30 17096 H 1678.2 1.57247 -1.30899 0
M  V30 17097 H 1678.21 3.98236 -0.887238 0
M  V30 17098 H 1676.88 3.65144 -1.99105 0
M  V30 17099 H 1675.46 3.72552 -0.161087 0
M  V30 17100 N 1677.64 0.747635 1.38738 0
M  V30 17101 C 1678.92 0.226908 1.94279 0
M  V30 17102 C 1679.3 -1.27373 1.68343 0
M  V30 17103 O 1678.65 -2.04538 1.01865 0
M  V30 17104 C 1678.86 0.574164 3.44245 0
M  V30 17105 C 1680.21 0.530498 4.21273 0
M  V30 17106 O 1681.23 0.512102 3.525 0
M  V30 17107 O 1680.09 0.536171 5.43863 0
M  V30 17108 H 1677.18 0.0456834 0.825737 0
M  V30 17109 H 1679.73 0.827353 1.48165 0
M  V30 17110 H 1678.5 1.6108 3.56607 0
M  V30 17111 H 1678.12 -0.0545964 3.97563 0
M  V30 17112 N 1679.12 -1.49583 0.496242 0
M  V30 17113 C 1680.03 -2.32808 -0.289404 0
M  V30 17114 C 1681.05 -1.44324 -0.971933 0
M  V30 17115 O 1682.22 -1.77352 -0.954366 0
M  V30 17116 C 1679.29 -3.19645 -1.34269 0
M  V30 17117 C 1678.35 -4.23975 -0.6741 0
M  V30 17118 C 1677.58 -5.06661 -1.6772 0
M  V30 17119 O 1677.81 -4.90792 -2.90654 0
M  V30 17120 O 1676.74 -5.89091 -1.23514 0
M  V30 17121 H 1680.57 -3.01164 0.391664 0
M  V30 17122 H 1678.15 -1.47162 0.257652 0
M  V30 17123 H 1680.03 -3.73453 -1.9522 0
M  V30 17124 H 1678.71 -2.53989 -2.00677 0
M  V30 17125 H 1677.61 -3.74092 -0.0249732 0
M  V30 17126 H 1678.95 -4.92172 -0.0525442 0
M  V30 17127 N 1680.6 -0.229873 -1.55915 0
M  V30 17128 C 1681.51 0.687953 -2.24286 0
M  V30 17129 C 1682.53 1.20705 -1.25325 0
M  V30 17130 O 1683.7 1.2469 -1.58159 0
M  V30 17131 C 1680.77 1.87563 -2.91584 0
M  V30 17132 C 1679.83 1.39769 -4.0591 0
M  V30 17133 C 1679.06 2.52876 -4.69989 0
M  V30 17134 O 1679.28 3.71208 -4.33083 0
M  V30 17135 O 1678.22 2.23603 -5.58825 0
M  V30 17136 H 1682.04 0.135464 -3.03398 0
M  V30 17137 H 1679.63 0.000925172 -1.494 0
M  V30 17138 H 1681.51 2.56907 -3.34031 0
M  V30 17139 H 1680.19 2.41606 -2.15426 0
M  V30 17140 H 1679.09 0.672029 -3.68014 0
M  V30 17141 H 1680.43 0.903543 -4.83836 0
M  V30 17142 N 1682.08 1.5754 0.0434337 0
M  V30 17143 C 1683.03 2.06683 1.067 0
M  V30 17144 C 1684.02 0.977691 1.38339 0
M  V30 17145 O 1685.23 1.16266 1.37412 0
M  V30 17146 H 1681.6 0.659378 0.361559 0
M  V30 17147 H 1683.57 2.91747 0.626605 0
M  V30 17148 C 1682.32 2.54985 2.36385 0
M  V30 17149 H 1681.64 3.384 2.12897 0
M  V30 17150 H 1683.08 2.93095 3.06384 0
M  V30 17151 C 1681.54 1.44484 3.04345 0
M  V30 17152 O 1682.07 0.80291 3.93594 0
M  V30 17153 N 1680.28 1.18292 2.65434 0
M  V30 17154 H 1679.83 1.70676 1.92944 0
M  V30 17155 H 1679.78 0.445676 3.11225 0
M  V30 17156 N 1683.56 -0.31543 1.54411 0
M  V30 17157 C 1684.8 -1.06053 1.74734 0
M  V30 17158 C 1685.16 -1.84978 0.51451 0
M  V30 17159 O 1686.36 -2.62127 0.595228 0
M  V30 17160 C 1684.63 -1.95417 2.99244 0
M  V30 17161 S 1686.19 -2.76769 3.40506 0
M  V30 17162 H 1683.01 -0.357904 0.61435 0
M  V30 17163 H 1685.61 -0.33558 1.92598 0
M  V30 17164 H 1684.31 -1.36285 3.8711 0
M  V30 17165 H 1683.85 -2.72304 2.83926 0
M  V30 17166 H 1685.86 -3.97914 2.96444 0
M  V30 17167 N 1685.03 -1.46622 -0.577906 0
M  V30 17168 C 1685.94 -1.60143 -1.71439 0
M  V30 17169 C 1686.96 -0.484781 -1.6711 0
M  V30 17170 O 1688.14 -0.749551 -1.86932 0
M  V30 17171 C 1685.2 -1.59282 -3.07945 0
M  V30 17172 C 1684.26 -2.82216 -3.235 0
M  V30 17173 C 1683.5 -2.81387 -4.53495 0
M  V30 17174 O 1683.72 -1.90407 -5.37681 0
M  V30 17175 O 1682.65 -3.72991 -4.724 0
M  V30 17176 H 1686.48 -2.56265 -1.62978 0
M  V30 17177 H 1684.06 -1.2947 -0.745514 0
M  V30 17178 H 1685.95 -1.61515 -3.89218 0
M  V30 17179 H 1684.62 -0.663212 -3.16833 0
M  V30 17180 H 1683.53 -2.85536 -2.41702 0
M  V30 17181 H 1684.86 -3.74402 -3.19506 0
M  V30 17182 N 1686.51 0.822941 -1.34408 0
M  V30 17183 C 1687.74 1.61607 -1.29992 0
M  V30 17184 C 1688.16 1.87695 0.123301 0
M  V30 17185 O 1687.52 1.45247 1.08504 0
M  V30 17186 C 1687.57 2.934 -2.09639 0
M  V30 17187 O 1686.67 3.85467 -1.4659 0
M  V30 17188 H 1686.01 0.491504 -0.446452 0
M  V30 17189 H 1688.54 1.02264 -1.7721 0
M  V30 17190 H 1688.55 3.42966 -2.20994 0
M  V30 17191 H 1687.23 2.73736 -3.13116 0
M  V30 17192 H 1685.81 3.43984 -1.43978 0
M  V30 17193 N 1687.99 1.18137 1.04314 0
M  V30 17194 C 1688.92 0.929593 2.14198 0
M  V30 17195 C 1689.9 -0.131766 1.69589 0
M  V30 17196 O 1691.09 0.0203104 1.94189 0
M  V30 17197 C 1688.22 0.451799 3.44349 0
M  V30 17198 C 1687.17 1.45336 4.02569 0
M  V30 17199 C 1686.5 0.833176 5.28169 0
M  V30 17200 C 1687.8 2.8293 4.39031 0
M  V30 17201 H 1689.49 1.84856 2.35518 0
M  V30 17202 H 1687.04 0.890217 1.13186 0
M  V30 17203 H 1688.99 0.26303 4.20578 0
M  V30 17204 H 1687.71 -0.502725 3.22708 0
M  V30 17205 H 1686.37 1.62902 3.28418 0
M  V30 17206 H 1686.02 -0.128459 5.02836 0
M  V30 17207 H 1685.72 1.50185 5.68083 0
M  V30 17208 H 1687.24 0.654881 6.07078 0
M  V30 17209 H 1688.66 2.6903 5.06257 0
M  V30 17210 H 1687.06 3.46458 4.89987 0
M  V30 17211 H 1688.13 3.3667 3.48972 0
M  V30 17212 N 1689.47 -1.23186 0.98301 0
M  V30 17213 C 1690.43 -2.22979 0.530366 0
M  V30 17214 C 1691.43 -1.56211 -0.381421 0
M  V30 17215 O 1692.62 -1.73321 -0.17475 0
M  V30 17216 C 1689.75 -3.40124 -0.229882 0
M  V30 17217 H 1690.95 -2.64539 1.41277 0
M  V30 17218 H 1688.5 -1.36064 0.769172 0
M  V30 17219 H 1689.23 -3.04024 -1.12871 0
M  V30 17220 H 1689.02 -3.89794 0.424653 0
M  V30 17221 H 1690.51 -4.14158 -0.535078 0
M  V30 17222 N 1690.95 -0.754982 -1.38339 0
M  V30 17223 C 1692.19 -0.316707 -2.01931 0
M  V30 17224 C 1692.55 1.08162 -1.58635 0
M  V30 17225 O 1693.75 1.61909 -2.14567 0
M  V30 17226 C 1692.02 -0.436974 -3.54719 0
M  V30 17227 S 1693.58 -0.0814864 -4.38724 0
M  V30 17228 H 1690.4 -0.122791 -0.700317 0
M  V30 17229 H 1693 -0.985907 -1.6882 0
M  V30 17230 H 1691.71 -1.45561 -3.83719 0
M  V30 17231 H 1691.24 0.249361 -3.92609 0
M  V30 17232 H 1693.25 1.12846 -4.83198 0
M  V30 17233 N 1692.42 1.49318 -0.504168 0
M  V30 17234 C 1693.84 1.58793 -0.160331 0
M  V30 17235 C 1694.04 1.50906 1.33527 0
M  V30 17236 O 1693.1 1.38466 2.11148 0
M  V30 17237 C 1694.41 2.91454 -0.739945 0
M  V30 17238 C 1695.96 3.04926 -0.706338 0
M  V30 17239 C 1696.43 4.4021 -1.26407 0
M  V30 17240 N 1697.92 4.46711 -1.22491 0
M  V30 17241 C 1698.66 5.49844 -1.62661 0
M  V30 17242 N 1698.15 6.60066 -2.10439 0
M  V30 17243 N 1699.95 5.40576 -1.54058 0
M  V30 17244 H 1692.1 1.52687 -1.4765 0
M  V30 17245 H 1694.36 0.723463 -0.612622 0
M  V30 17246 H 1694.07 3.02802 -1.78896 0
M  V30 17247 H 1693.94 3.76658 -0.202187 0
M  V30 17248 H 1696.33 2.93206 0.333845 0
M  V30 17249 H 1696.41 2.21398 -1.28128 0
M  V30 17250 H 1696.05 4.52683 -2.30305 0
M  V30 17251 H 1695.98 5.22384 -0.665041 0
M  V30 17252 H 1698.47 3.67634 -0.874869 0
M  V30 17253 H 1698.79 7.34865 -2.39153 0
M  V30 17254 H 1697.13 6.61098 -2.14415 0
M  V30 17255 H 1700.32 4.53359 -1.16548 0
M  V30 17256 H 1700.5 6.20826 -1.85687 0
M  V30 17257 N 1693.9 0.238138 1.5579 0
M  V30 17258 C 1695.31 -0.266656 1.84786 0
M  V30 17259 C 1695.66 -1.58248 1.15983 0
M  V30 17260 O 1694.79 -2.11979 0.43518 0
M  V30 17261 C 1695.38 -0.4906 3.35229 0
M  V30 17262 C 1693.94 -0.939672 3.64482 0
M  V30 17263 C 1693.09 -0.0119682 2.77297 0
M  V30 17264 H 1696.04 0.460924 1.51859 0
M  V30 17265 H 1696.06 -1.3344 3.56334 0
M  V30 17266 H 1695.57 0.467239 3.85277 0
M  V30 17267 H 1693.68 -1.91029 3.19904 0
M  V30 17268 H 1693.79 -0.8026 4.72329 0
M  V30 17269 H 1692.15 -0.521767 2.49298 0
M  V30 17270 H 1692.94 0.941085 3.30149 0
M  V30 17271 N 1695.38 -1.57561 -0.0350783 0
M  V30 17272 C 1696.79 -1.77383 -0.582437 0
M  V30 17273 C 1697.14 -0.868453 -1.75933 0
M  V30 17274 O 1696.27 -0.061745 -2.16312 0
M  V30 17275 C 1696.86 -3.2168 -1.06337 0
M  V30 17276 C 1695.42 -3.42719 -1.55629 0
M  V30 17277 C 1694.57 -2.72906 -0.4917 0
M  V30 17278 H 1697.52 -1.57545 0.19115 0
M  V30 17279 H 1697.54 -3.27863 -1.93097 0
M  V30 17280 H 1697.05 -3.8755 -0.206603 0
M  V30 17281 H 1695.15 -2.82016 -2.43511 0
M  V30 17282 H 1695.27 -4.51312 -1.60794 0
M  V30 17283 H 1693.63 -2.36506 -0.945349 0
M  V30 17284 H 1694.41 -3.41454 0.355502 0
M  V30 17285 N 1696.86 0.307236 -1.54576 0
M  V30 17286 C 1698.08 1.06668 -1.77867 0
M  V30 17287 C 1698.51 1.80375 -0.533536 0
M  V30 17288 O 1697.87 1.73812 0.515663 0
M  V30 17289 C 1697.91 2.02777 -2.98184 0
M  V30 17290 O 1697.02 3.10969 -2.70872 0
M  V30 17291 H 1696.36 0.306741 -0.588902 0
M  V30 17292 H 1698.89 0.346557 -2.01644 0
M  V30 17293 H 1698.9 2.45355 -3.25983 0
M  V30 17294 H 1697.57 1.48534 -3.88472 0
M  V30 17295 H 1696.15 2.7295 -2.54072 0
M  V30 17296 N 1698.34 1.46926 0.570122 0
M  V30 17297 C 1699.29 1.54854 1.67345 0
M  V30 17298 C 1700.27 0.40843 1.5563 0
M  V30 17299 O 1701.46 0.657596 1.64331 0
M  V30 17300 C 1698.59 1.55369 3.0613 0
M  V30 17301 C 1697.68 2.74718 3.23096 0
M  V30 17302 N 1698.07 3.99532 3.10173 0
M  V30 17303 C 1696.37 2.71207 3.54066 0
M  V30 17304 C 1697.07 4.79391 3.29483 0
M  V30 17305 N 1696.04 4.11484 3.55221 0
M  V30 17306 H 1699.85 2.49141 1.55903 0
M  V30 17307 H 1697.36 1.42741 0.774518 0
M  V30 17308 H 1699.36 1.59136 3.85333 0
M  V30 17309 H 1698.02 0.62167 3.18693 0
M  V30 17310 H 1699.03 4.3059 2.87772 0
M  V30 17311 H 1695.7 1.87086 3.73236 0
M  V30 17312 H 1697.09 5.88307 3.24569 0
M  V30 17313 N 1699.82 -0.815801 1.34842 0
M  V30 17314 C 1701.23 -1.38911 1.24742 0
M  V30 17315 C 1701.58 -1.95807 -0.124101 0
M  V30 17316 O 1700.7 -1.906 -1.02472 0
M  V30 17317 C 1701.3 -2.52532 2.25861 0
M  V30 17318 C 1699.86 -3.05751 2.1953 0
M  V30 17319 C 1699 -1.78661 2.12075 0
M  V30 17320 H 1701.95 -0.619601 1.46105 0
M  V30 17321 H 1701.98 -3.30826 1.87974 0
M  V30 17322 H 1701.49 -2.11092 3.25671 0
M  V30 17323 H 1699.59 -3.51678 1.23099 0
M  V30 17324 H 1699.7 -3.64358 3.11095 0
M  V30 17325 H 1698.07 -1.99844 1.57907 0
M  V30 17326 H 1698.85 -1.39385 3.1373 0
M  V30 17327 N 1701.29 -1.18689 -1.03686 0
M  V30 17328 C 1702.53 -0.995625 -1.78512 0
M  V30 17329 C 1702.9 0.466151 -1.86255 0
M  V30 17330 O 1704.1 0.776976 -2.57326 0
M  V30 17331 C 1702.37 -1.63695 -3.17709 0
M  V30 17332 S 1703.93 -1.59397 -4.08825 0
M  V30 17333 H 1700.75 -0.357446 -0.614616 0
M  V30 17334 H 1703.35 -1.50899 -1.24297 0
M  V30 17335 H 1702.05 -2.69301 -3.09685 0
M  V30 17336 H 1701.58 -1.12404 -3.77 0
M  V30 17337 H 1703.6 -0.61254 -4.92405 0
M  V30 17338 N 1702.77 1.22662 -0.989529 0
M  V30 17339 C 1703.73 2.22695 -0.542183 0
M  V30 17340 C 1704.73 1.56411 0.373132 0
M  V30 17341 O 1705.92 1.73412 0.165556 0
M  V30 17342 C 1703.06 3.40241 0.211841 0
M  V30 17343 H 1704.25 2.63786 -1.42678 0
M  V30 17344 H 1701.8 1.35654 -0.776377 0
M  V30 17345 H 1702.54 3.04618 1.11257 0
M  V30 17346 H 1702.32 3.89563 -0.445319 0
M  V30 17347 H 1703.81 4.14436 0.513107 0
M  V30 17348 N 1704.25 0.762308 1.37937 0
M  V30 17349 C 1705.2 0.129897 2.32237 0
M  V30 17350 C 1706.19 -0.695577 1.54461 0
M  V30 17351 O 1707.4 -0.593697 1.69927 0
M  V30 17352 H 1703.77 0.023214 0.751642 0
M  V30 17353 H 1705.74 0.941144 2.8317 0
M  V30 17354 C 1704.49 -0.742235 3.39685 0
M  V30 17355 H 1703.82 -0.116427 3.9963 0
M  V30 17356 H 1705.26 -1.15187 4.08054 0
M  V30 17357 C 1703.71 -1.8887 2.7898 0
M  V30 17358 O 1704.24 -2.98351 2.68979 0
M  V30 17359 N 1702.45 -1.68642 2.36661 0
M  V30 17360 H 1702 -0.795945 2.44995 0
M  V30 17361 H 1701.96 -2.45519 1.96387 0
M  V30 17362 N 1705.73 -1.49049 0.51208 0
M  V30 17363 C 1706.68 -2.30981 -0.273991 0
M  V30 17364 C 1707.67 -1.40092 -0.952402 0
M  V30 17365 O 1708.88 -1.57088 -0.878828 0
M  V30 17366 H 1705.25 -0.744317 -0.107221 0
M  V30 17367 H 1707.22 -2.95185 0.436866 0
M  V30 17368 C 1705.97 -3.21714 -1.31892 0
M  V30 17369 H 1705.29 -3.91585 -0.806302 0
M  V30 17370 H 1706.73 -3.81961 -1.8407 0
M  V30 17371 C 1705.19 -2.42082 -2.34303 0
M  V30 17372 O 1705.72 -2.13285 -3.40401 0
M  V30 17373 N 1703.93 -2.03903 -2.07055 0
M  V30 17374 H 1703.48 -2.27523 -1.20794 0
M  V30 17375 H 1703.43 -1.50932 -2.75802 0
M  V30 17376 N 1707.21 -0.246397 -1.55662 0
M  V30 17377 C 1708.43 0.382645 -2.03331 0
M  V30 17378 C 1708.85 1.51573 -1.12566 0
M  V30 17379 O 1708.21 1.81962 -0.139992 0
M  V30 17380 C 1708.26 0.890907 -3.5035 0
M  V30 17381 O 1707.98 -0.197023 -4.37657 0
M  V30 17382 C 1709.48 1.59069 -4.13778 0
M  V30 17383 H 1706.7 0.0909834 -0.664803 0
M  V30 17384 H 1709.24 -0.370113 -2.01123 0
M  V30 17385 H 1707.4 1.59385 -3.53094 0
M  V30 17386 H 1707.81 0.188846 -5.2416 0
M  V30 17387 H 1709.29 1.89805 -5.18342 0
M  V30 17388 H 1709.76 2.51248 -3.60238 0
M  V30 17389 H 1710.37 0.932333 -4.14955 0
M  V30 17390 N 1708.68 1.57577 0.026722 0
M  V30 17391 C 1709.91 1.94035 0.732473 0
M  V30 17392 C 1710.33 0.846575 1.67972 0
M  V30 17393 O 1709.69 -0.197514 1.80221 0
M  V30 17394 C 1709.74 3.2956 1.46365 0
M  V30 17395 O 1708.84 3.21975 2.57694 0
M  V30 17396 H 1708.18 0.634155 0.196832 0
M  V30 17397 H 1710.71 2.04592 -0.018503 0
M  V30 17398 H 1710.72 3.64504 1.83305 0
M  V30 17399 H 1709.4 4.0873 0.768943 0
M  V30 17400 H 1707.98 2.98665 2.23279 0
M  V30 17401 N 1710.16 -0.299034 1.54737 0
M  V30 17402 C 1711.41 -1.03553 1.74369 0
M  V30 17403 C 1711.74 -1.86856 0.529019 0
M  V30 17404 O 1711.02 -1.8864 -0.473854 0
M  V30 17405 C 1711.3 -1.93988 3.03382 0
M  V30 17406 C 1711.15 -1.13852 4.35153 0
M  V30 17407 C 1712.47 -2.93128 3.28274 0
M  V30 17408 H 1709.59 -0.375055 0.634431 0
M  V30 17409 H 1712.23 -0.310018 1.87454 0
M  V30 17410 H 1710.38 -2.5585 2.92358 0
M  V30 17411 H 1712.05 -0.542614 4.58098 0
M  V30 17412 H 1710.3 -0.441278 4.3155 0
M  V30 17413 H 1710.97 -1.80385 5.21694 0
M  V30 17414 H 1713.44 -2.41396 3.38921 0
M  V30 17415 H 1712.32 -3.53569 4.19857 0
M  V30 17416 H 1712.58 -3.66892 2.46663 0
M  V30 17417 N 1711.64 -1.47227 -0.562322 0
M  V30 17418 C 1712.88 -1.55163 -1.33056 0
M  V30 17419 C 1713.24 -0.206867 -1.90882 0
M  V30 17420 O 1714.44 -0.161056 -2.68317 0
M  V30 17421 C 1712.72 -2.63484 -2.41477 0
M  V30 17422 S 1714.27 -2.90968 -3.28455 0
M  V30 17423 H 1711.09 -0.547974 -0.45304 0
M  V30 17424 H 1713.69 -1.84578 -0.644301 0
M  V30 17425 H 1712.4 -3.59797 -1.9742 0
M  V30 17426 H 1711.93 -2.35867 -3.14849 0
M  V30 17427 H 1713.94 -2.27793 -4.40823 0
M  V30 17428 N 1713.12 0.808639 -1.35273 0
M  V30 17429 C 1714.05 1.93502 -1.30687 0
M  V30 17430 C 1715.03 1.69127 -0.181675 0
M  V30 17431 O 1716.21 1.90519 -0.376312 0
M  V30 17432 C 1713.34 3.30211 -1.07602 0
M  V30 17433 C 1712.3 3.69063 -2.16741 0
M  V30 17434 C 1711.62 5.03911 -1.78824 0
M  V30 17435 C 1712.92 3.79656 -3.5869 0
M  V30 17436 H 1714.62 1.97597 -2.24935 0
M  V30 17437 H 1712.16 0.949284 -1.0828 0
M  V30 17438 H 1714.12 4.0861 -1.03034 0
M  V30 17439 H 1712.84 3.26453 -0.0979944 0
M  V30 17440 H 1711.5 2.92948 -2.20402 0
M  V30 17441 H 1711.15 4.96655 -0.796449 0
M  V30 17442 H 1710.85 5.30877 -2.51881 0
M  V30 17443 H 1712.37 5.84752 -1.75777 0
M  V30 17444 H 1713.79 4.48292 -3.57362 0
M  V30 17445 H 1712.18 4.1809 -4.30489 0
M  V30 17446 H 1713.25 2.81265 -3.94991 0
M  V30 17447 N 1714.6 1.19237 1.03055 0
M  V30 17448 C 1716.01 0.996569 1.57878 0
M  V30 17449 C 1716.36 -0.450987 1.90946 0
M  V30 17450 O 1715.48 -1.33009 1.70697 0
M  V30 17451 C 1716.08 1.80272 2.86858 0
M  V30 17452 C 1714.64 1.65097 3.3826 0
M  V30 17453 C 1713.78 1.79079 2.11721 0
M  V30 17454 H 1716.74 1.33633 0.856037 0
M  V30 17455 H 1716.76 1.29781 3.57683 0
M  V30 17456 H 1716.27 2.85621 2.62759 0
M  V30 17457 H 1714.37 0.623267 3.6735 0
M  V30 17458 H 1714.48 2.45527 4.11404 0
M  V30 17459 H 1712.85 1.22124 2.23512 0
M  V30 17460 H 1713.63 2.85885 1.90065 0
M  V30 17461 N 1716.07 -1.22136 0.99602 0
M  V30 17462 C 1717.49 -1.72743 0.708295 0
M  V30 17463 C 1717.84 -1.8026 -0.774649 0
M  V30 17464 O 1716.96 -1.45102 -1.60544 0
M  V30 17465 C 1717.56 -3.13729 1.27905 0
M  V30 17466 C 1716.12 -3.61729 1.04064 0
M  V30 17467 C 1715.26 -2.39519 1.39735 0
M  V30 17468 H 1718.21 -1.07439 1.16801 0
M  V30 17469 H 1718.23 -3.74746 0.65919 0
M  V30 17470 H 1717.75 -3.08225 2.35836 0
M  V30 17471 H 1715.85 -3.72594 -0.0219029 0
M  V30 17472 H 1715.96 -4.47689 1.70621 0
M  V30 17473 H 1714.32 -2.41275 0.815986 0
M  V30 17474 H 1715.11 -2.36675 2.48677 0
M  V30 17475 N 1717.55 -0.769612 -1.37531 0
M  V30 17476 C 1718.83 -0.257788 -1.93894 0
M  V30 17477 C 1719.21 1.24679 -1.70348 0
M  V30 17478 O 1718.56 2.02892 -1.05106 0
M  V30 17479 C 1718.77 -0.628857 -3.43288 0
M  V30 17480 C 1720.12 -0.597452 -4.20376 0
M  V30 17481 O 1721.14 -0.568117 -3.5164 0
M  V30 17482 O 1720 -0.622627 -5.42942 0
M  V30 17483 H 1717.09 -0.0588144 -0.824906 0
M  V30 17484 H 1719.64 -0.85082 -1.4683 0
M  V30 17485 H 1718.41 -1.66733 -3.54 0
M  V30 17486 H 1718.03 -0.00865929 -3.97599 0
M  V30 17487 N 1719.03 1.48775 -0.519977 0
M  V30 17488 C 1719.98 2.29461 0.248242 0
M  V30 17489 C 1720.95 1.36734 0.943027 0
M  V30 17490 O 1722.13 1.65697 0.946003 0
M  V30 17491 C 1719.27 3.19868 1.29531 0
M  V30 17492 C 1718.39 4.27666 0.610379 0
M  V30 17493 C 1717.52 5.05266 1.63951 0
M  V30 17494 C 1716.56 6.04878 0.937496 0
M  V30 17495 N 1715.7 6.75573 1.91171 0
M  V30 17496 H 1720.54 2.94643 -0.446016 0
M  V30 17497 H 1718.07 1.45262 -0.231792 0
M  V30 17498 H 1720.03 3.70675 1.91456 0
M  V30 17499 H 1718.66 2.5663 1.95808 0
M  V30 17500 H 1717.71 3.80202 -0.122598 0
M  V30 17501 H 1719.03 4.98765 0.0586864 0
M  V30 17502 H 1718.18 5.60037 2.33332 0
M  V30 17503 H 1716.92 4.33983 2.22509 0
M  V30 17504 H 1715.92 5.49321 0.229562 0
M  V30 17505 H 1717.15 6.78155 0.358166 0
M  V30 17506 H 1715.09 6.07048 2.48655 0
M  V30 17507 H 1715.01 7.42712 1.41118 0
M  V30 17508 H 1716.28 7.34938 2.59781 0
M  V30 17509 N 1720.51 0.254649 1.55529 0
M  V30 17510 C 1721.44 -0.635656 2.24681 0
M  V30 17511 C 1722.42 -1.17519 1.22977 0
M  V30 17512 O 1723.6 -1.21311 1.51649 0
M  V30 17513 C 1720.73 -1.82922 2.95224 0
M  V30 17514 C 1719.69 -1.42212 4.03683 0
M  V30 17515 C 1719.01 -2.69713 4.61691 0
M  V30 17516 C 1720.31 -0.587436 5.18986 0
M  V30 17517 H 1722.01 -0.0590063 2.99342 0
M  V30 17518 H 1719.55 -0.02694 1.43975 0
M  V30 17519 H 1721.51 -2.45777 3.42304 0
M  V30 17520 H 1720.23 -2.43137 2.18064 0
M  V30 17521 H 1718.89 -0.81687 3.57383 0
M  V30 17522 H 1718.54 -3.28143 3.81223 0
M  V30 17523 H 1718.24 -2.43194 5.34911 0
M  V30 17524 H 1719.76 -3.33453 5.11509 0
M  V30 17525 H 1721.18 -1.12048 5.62244 0
M  V30 17526 H 1719.57 -0.417988 5.98643 0
M  V30 17527 H 1720.64 0.398577 4.83259 0
M  V30 17528 N 1721.99 -1.57589 -0.0183649 0
M  V30 17529 C 1723.23 -1.91608 -0.711726 0
M  V30 17530 C 1723.59 -0.854347 -1.71945 0
M  V30 17531 O 1724.79 -1.07921 -2.46184 0
M  V30 17532 C 1723.06 -3.30745 -1.35434 0
M  V30 17533 S 1724.62 -3.86618 -2.07537 0
M  V30 17534 H 1721.44 -0.670853 -0.235536 0
M  V30 17535 H 1724.04 -1.95471 0.0339114 0
M  V30 17536 H 1722.75 -4.05874 -0.607828 0
M  V30 17537 H 1722.28 -3.30212 -2.1383 0
M  V30 17538 H 1724.29 -3.66209 -3.34821 0
M  V30 17539 N 1723.46 0.290824 -1.54893 0
M  V30 17540 C 1724.74 1.04495 -1.65348 0
M  V30 17541 C 1725.12 2.04888 -0.508348 0
M  V30 17542 O 1724.47 2.23102 0.493749 0
M  V30 17543 C 1724.68 1.71772 -3.03801 0
M  V30 17544 C 1726.03 2.23595 -3.60958 0
M  V30 17545 O 1727.05 1.81788 -3.06319 0
M  V30 17546 O 1725.91 3.00225 -4.56648 0
M  V30 17547 H 1723 0.483605 -0.670862 0
M  V30 17548 H 1725.55 0.288101 -1.67237 0
M  V30 17549 H 1724.32 0.989296 -3.78588 0
M  V30 17550 H 1723.95 2.54188 -3.05735 0
M  V30 17551 N 1724.94 1.47523 0.554506 0
M  V30 17552 C 1726.19 1.53982 1.30897 0
M  V30 17553 C 1726.51 0.20487 1.93921 0
M  V30 17554 O 1725.78 -0.771422 1.80072 0
M  V30 17555 H 1724.36 0.567206 0.486092 0
M  V30 17556 H 1727.02 1.83838 0.647284 0
M  V30 17557 H 1726.12 2.30783 2.10109 0
M  V30 17558 N 1726.42 -0.801453 1.357 0
M  V30 17559 C 1727.37 -1.93495 1.29083 0
M  V30 17560 C 1728.36 -1.68389 0.184806 0
M  V30 17561 O 1729.57 -1.76543 0.351097 0
M  V30 17562 H 1725.94 -0.635809 0.40156 0
M  V30 17563 H 1727.91 -1.96195 2.24833 0
M  V30 17564 C 1726.66 -3.30342 1.08487 0
M  V30 17565 H 1725.99 -3.50221 1.92835 0
M  V30 17566 H 1727.43 -4.10041 1.079 0
M  V30 17567 C 1725.89 -3.36238 -0.211057 0
M  V30 17568 O 1726.42 -3.83198 -1.20508 0
M  V30 17569 N 1724.62 -2.89509 -0.251599 0
M  V30 17570 H 1724.17 -2.51486 0.557916 0
M  V30 17571 H 1724.13 -2.93836 -1.11839 0
M  V30 17572 N 1727.9 -1.19782 -1.02421 0
M  V30 17573 C 1729.18 -0.912541 -1.73009 0
M  V30 17574 C 1729.56 0.58061 -2.02958 0
M  V30 17575 O 1728.9 1.54013 -1.68797 0
M  V30 17576 C 1729.11 -1.77745 -3.00346 0
M  V30 17577 C 1730.46 -2.01462 -3.73762 0
M  V30 17578 O 1731.49 -1.74935 -3.10284 0
M  V30 17579 O 1730.34 -2.46219 -4.87892 0
M  V30 17580 H 1727.44 -0.340513 -0.753644 0
M  V30 17581 H 1729.98 -1.30618 -1.08338 0
M  V30 17582 H 1728.76 -2.78887 -2.74477 0
M  V30 17583 H 1728.38 -1.38339 -3.72757 0
M  V30 17584 N 1729.38 1.21606 -1.00248 0
M  V30 17585 C 1730.65 1.86191 -0.599348 0
M  V30 17586 C 1731.03 1.89847 0.923104 0
M  V30 17587 O 1730.38 1.39595 1.80902 0
M  V30 17588 C 1730.59 3.26576 -1.23082 0
M  V30 17589 C 1731.94 4.02989 -1.33736 0
M  V30 17590 O 1732.96 3.35877 -1.18595 0
M  V30 17591 O 1731.82 5.23142 -1.58065 0
M  V30 17592 H 1728.92 0.801204 -0.204943 0
M  V30 17593 H 1731.46 1.29309 -1.09897 0
M  V30 17594 H 1730.24 3.18601 -2.27176 0
M  V30 17595 H 1729.86 3.91074 -0.717394 0
M  V30 17596 N 1730.86 0.776895 1.37121 0
M  V30 17597 C 1732.1 0.348792 2.01402 0
M  V30 17598 C 1732.46 -1.05625 1.60335 0
M  V30 17599 O 1733.66 -1.58475 2.17116 0
M  V30 17600 C 1731.93 0.493351 3.53979 0
M  V30 17601 S 1733.49 0.151273 4.38539 0
M  V30 17602 H 1730.31 0.133916 0.698275 0
M  V30 17603 H 1732.91 1.01264 1.6723 0
M  V30 17604 H 1731.61 1.51647 3.81355 0
M  V30 17605 H 1731.15 -0.186869 3.92956 0
M  V30 17606 H 1733.16 -1.05145 4.84932 0
M  V30 17607 N 1732.33 -1.48497 0.527859 0
M  V30 17608 C 1733.58 -2.02099 -0.00699772 0
M  V30 17609 C 1733.9 -1.40742 -1.34969 0
M  V30 17610 O 1733.17 -0.572059 -1.87361 0
M  V30 17611 H 1731.75 -0.746979 -0.00557445 0
M  V30 17612 H 1734.41 -1.82231 0.691209 0
M  V30 17613 H 1733.51 -3.11881 -0.116893 0
M  V30 17614 N 1733.81 -0.262893 -1.55392 0
M  V30 17615 C 1735.09 0.408525 -1.91286 0
M  V30 17616 C 1735.47 1.74657 -1.18566 0
M  V30 17617 O 1734.82 2.26409 -0.308422 0
M  V30 17618 C 1735.03 0.560865 -3.44464 0
M  V30 17619 C 1736.37 0.849401 -4.16017 0
M  V30 17620 O 1737.4 0.646134 -3.50291 0
M  V30 17621 O 1736.26 1.23741 -5.32307 0
M  V30 17622 H 1733.35 0.221707 -0.796728 0
M  V30 17623 H 1735.9 -0.308143 -1.66879 0
M  V30 17624 H 1734.67 -0.381279 -3.89438 0
M  V30 17625 H 1734.29 1.32747 -3.74785 0
M  V30 17626 N 1735.29 1.57597 0.0100073 0
M  V30 17627 C 1736.54 1.89754 0.695559 0
M  V30 17628 C 1736.86 0.862983 1.74865 0
M  V30 17629 O 1736.13 -0.100949 1.9564 0
M  V30 17630 H 1734.71 0.700331 0.259895 0
M  V30 17631 H 1737.37 1.94879 -0.0285521 0
M  V30 17632 H 1736.47 2.89213 1.17313 0
M  V30 17633 N 1736.77 -0.282606 1.55045 0
M  V30 17634 C 1737.99 -1.03825 1.79542 0
M  V30 17635 C 1738.42 -1.79503 0.562165 0
M  V30 17636 O 1737.78 -1.7461 -0.487946 0
M  V30 17637 C 1737.82 -1.98007 3.01373 0
M  V30 17638 O 1736.93 -3.06621 2.75785 0
M  V30 17639 H 1736.27 -0.297333 0.593708 0
M  V30 17640 H 1738.8 -0.314434 2.02169 0
M  V30 17641 H 1738.81 -2.40138 3.29845 0
M  V30 17642 H 1737.48 -1.42335 3.90786 0
M  V30 17643 H 1736.06 -2.68874 2.58382 0
M  V30 17644 N 1738.25 -1.47815 -0.546675 0
M  V30 17645 C 1739.52 -1.45464 -1.30765 0
M  V30 17646 C 1739.9 -0.157249 -2.10514 0
M  V30 17647 O 1739.25 0.861203 -2.1165 0
M  V30 17648 C 1739.46 -2.70661 -2.20326 0
M  V30 17649 C 1740.81 -3.18309 -2.81007 0
M  V30 17650 O 1741.83 -2.71462 -2.30623 0
M  V30 17651 O 1740.69 -3.9978 -3.7261 0
M  V30 17652 H 1737.79 -0.580175 -0.589343 0
M  V30 17653 H 1740.33 -1.60029 -0.564707 0
M  V30 17654 H 1739.1 -3.56612 -1.61069 0
M  V30 17655 H 1738.73 -2.58734 -3.01898 0
M  V30 17656 N 1739.72 0.794246 -1.36123 0
M  V30 17657 C 1740.63 1.93807 -1.32197 0
M  V30 17658 C 1741.65 1.7254 -0.2249 0
M  V30 17659 O 1742.83 1.9616 -0.456431 0
M  V30 17660 C 1739.89 3.28593 -1.10578 0
M  V30 17661 C 1738.95 3.6267 -2.29715 0
M  V30 17662 C 1738.18 4.91025 -2.09118 0
M  V30 17663 O 1738.41 5.6039 -1.06389 0
M  V30 17664 O 1737.34 5.23647 -2.96779 0
M  V30 17665 H 1741.17 2.00068 -2.28487 0
M  V30 17666 H 1738.75 0.933808 -1.16621 0
M  V30 17667 H 1740.63 4.0926 -1.0042 0
M  V30 17668 H 1739.31 3.23235 -0.17347 0
M  V30 17669 H 1738.22 2.82329 -2.4544 0
M  V30 17670 H 1739.55 3.72747 -3.21435 0
M  V30 17671 N 1741.2 1.20323 1.01785 0
M  V30 17672 C 1742.45 1.01063 1.75016 0
M  V30 17673 C 1742.77 -0.458458 1.89534 0
M  V30 17674 O 1742.04 -1.3315 1.43694 0
M  V30 17675 H 1740.62 0.370957 0.648383 0
M  V30 17676 H 1743.28 1.51411 1.22722 0
M  V30 17677 H 1742.38 1.46792 2.75424 0
M  V30 17678 N 1742.68 -1.21073 1.00892 0
M  V30 17679 C 1743.59 -2.27265 0.582065 0
M  V30 17680 C 1744.61 -1.69872 -0.376785 0
M  V30 17681 O 1745.78 -1.99969 -0.239644 0
M  V30 17682 C 1742.85 -3.46606 -0.0806764 0
M  V30 17683 C 1741.91 -4.19257 0.923147 0
M  V30 17684 C 1741.14 -5.32901 0.291938 0
M  V30 17685 O 1741.36 -5.6309 -0.910282 0
M  V30 17686 O 1740.3 -5.93453 1.00483 0
M  V30 17687 H 1744.12 -2.65977 1.46594 0
M  V30 17688 H 1741.71 -1.27544 0.777999 0
M  V30 17689 H 1743.59 -4.18978 -0.451177 0
M  V30 17690 H 1742.27 -3.09785 -0.93887 0
M  V30 17691 H 1741.17 -3.4909 1.34488 0
M  V30 17692 H 1742.51 -4.59999 1.75106 0
M  V30 17693 N 1744.16 -0.784156 -1.36707 0
M  V30 17694 C 1745.09 -0.193081 -2.327 0
M  V30 17695 C 1746.07 0.668999 -1.56392 0
M  V30 17696 O 1747.25 0.603908 -1.84571 0
M  V30 17697 C 1744.38 0.677092 -3.40636 0
M  V30 17698 C 1743.34 -0.0846718 -4.27916 0
M  V30 17699 C 1742.66 0.905754 -5.26973 0
M  V30 17700 C 1743.96 -1.27085 -5.06603 0
M  V30 17701 H 1745.66 -0.995029 -2.82382 0
M  V30 17702 H 1743.2 -0.479929 -1.35767 0
M  V30 17703 H 1745.16 1.1005 -4.06776 0
M  V30 17704 H 1743.88 1.51169 -2.89509 0
M  V30 17705 H 1742.54 -0.488992 -3.63324 0
M  V30 17706 H 1742.19 1.73524 -4.72121 0
M  V30 17707 H 1741.89 0.400524 -5.86233 0
M  V30 17708 H 1743.41 1.32784 -5.95987 0
M  V30 17709 H 1744.83 -0.923469 -5.65814 0
M  V30 17710 H 1743.22 -1.70901 -5.7525 0
M  V30 17711 H 1744.29 -2.06882 -4.38552 0
M  V30 17712 N 1745.64 1.48215 -0.535727 0
M  V30 17713 C 1746.88 2.04399 -0.0058065 0
M  V30 17714 C 1747.24 1.40332 1.31037 0
M  V30 17715 O 1748.44 1.87437 1.92668 0
M  V30 17716 C 1746.71 3.57237 0.107773 0
M  V30 17717 S 1748.27 4.34857 0.586926 0
M  V30 17718 H 1745.09 0.710846 -0.0148167 0
M  V30 17719 H 1747.69 1.81854 -0.717592 0
M  V30 17720 H 1746.4 4.01398 -0.85488 0
M  V30 17721 H 1745.93 3.84245 0.843764 0
M  V30 17722 H 1747.94 4.60405 1.85045 0
M  V30 17723 N 1747.11 0.27113 1.5525 0
M  V30 17724 C 1748.39 -0.398374 1.915 0
M  V30 17725 C 1748.77 -1.74026 1.19491 0
M  V30 17726 O 1748.12 -2.26242 0.320425 0
M  V30 17727 C 1748.33 -0.542589 3.44756 0
M  V30 17728 C 1749.68 -0.827326 4.16462 0
M  V30 17729 O 1750.7 -0.627548 3.50628 0
M  V30 17730 O 1749.56 -1.20917 5.32955 0
M  V30 17731 H 1746.65 -0.217479 0.797892 0
M  V30 17732 H 1749.2 0.316988 1.66713 0
M  V30 17733 H 1747.97 0.401926 3.8923 0
M  V30 17734 H 1747.6 -1.30757 3.75484 0
M  V30 17735 N 1748.59 -1.576 -0.00164943 0
M  V30 17736 C 1749.52 -2.05167 -1.02173 0
M  V30 17737 C 1750.54 -0.969293 -1.308 0
M  V30 17738 O 1751.73 -1.24612 -1.27805 0
M  V30 17739 C 1748.83 -2.43525 -2.35688 0
M  V30 17740 C 1748 -3.74475 -2.26025 0
M  V30 17741 C 1747.06 -3.99719 -3.42215 0
M  V30 17742 O 1746.08 -4.70408 -3.20476 0
M  V30 17743 N 1747.29 -3.47486 -4.65009 0
M  V30 17744 H 1750.05 -2.93299 -0.616095 0
M  V30 17745 H 1747.61 -1.60792 -0.189066 0
M  V30 17746 H 1749.6 -2.57528 -3.12188 0
M  V30 17747 H 1748.17 -1.6092 -2.67999 0
M  V30 17748 H 1747.39 -3.70564 -1.34447 0
M  V30 17749 H 1748.68 -4.60328 -2.16739 0
M  V30 17750 H 1748.08 -2.9024 -4.85569 0
M  V30 17751 H 1746.64 -3.66822 -5.38781 0
M  V30 17752 N 1750.07 0.274379 -1.55193 0
M  V30 17753 C 1751.31 1.01383 -1.77485 0
M  V30 17754 C 1751.67 1.83549 -0.563373 0
M  V30 17755 O 1752.88 2.60457 -0.664517 0
M  V30 17756 C 1751.15 1.87414 -3.0432 0
M  V30 17757 S 1752.71 2.67644 -3.47725 0
M  V30 17758 H 1749.52 0.341489 -0.623623 0
M  V30 17759 H 1752.13 0.284398 -1.9342 0
M  V30 17760 H 1750.83 1.25974 -3.90588 0
M  V30 17761 H 1750.36 2.6468 -2.91046 0
M  V30 17762 H 1752.38 3.89914 -3.06889 0
M  V30 17763 N 1751.55 1.48103 0.538828 0
M  V30 17764 C 1752.77 1.59568 1.32487 0
M  V30 17765 C 1753.2 0.252908 1.86392 0
M  V30 17766 O 1752.56 -0.774094 1.63944 0
M  V30 17767 C 1752.6 2.63863 2.45782 0
M  V30 17768 O 1751.71 2.20409 3.48559 0
M  V30 17769 H 1751.05 0.53538 0.392765 0
M  V30 17770 H 1753.58 1.94024 0.649299 0
M  V30 17771 H 1753.59 2.8486 2.92093 0
M  V30 17772 H 1752.26 3.61352 2.05906 0
M  V30 17773 H 1750.84 2.09588 3.08427 0
M  V30 17774 N 1753.03 -0.787016 1.36542 0
M  V30 17775 C 1753.96 -1.91399 1.33749 0
M  V30 17776 C 1754.94 -1.68817 0.208559 0
M  V30 17777 O 1756.12 -1.89896 0.406574 0
M  V30 17778 C 1753.25 -3.28457 1.12842 0
M  V30 17779 C 1752.21 -3.65568 2.22585 0
M  V30 17780 C 1751.53 -5.01002 1.86818 0
M  V30 17781 C 1752.83 -3.73902 3.64684 0
M  V30 17782 H 1754.53 -1.93993 2.2805 0
M  V30 17783 H 1752.07 -0.931937 1.09777 0
M  V30 17784 H 1754.03 -4.06919 1.09522 0
M  V30 17785 H 1752.75 -3.26256 0.149918 0
M  V30 17786 H 1751.41 -2.89405 2.25035 0
M  V30 17787 H 1751.06 -4.95325 0.875361 0
M  V30 17788 H 1750.76 -5.26802 2.60294 0
M  V30 17789 H 1752.28 -5.81881 1.85058 0
M  V30 17790 H 1753.69 -4.4255 3.64448 0
M  V30 17791 H 1752.09 -4.11188 4.37086 0
M  V30 17792 H 1753.16 -2.74946 3.99416 0
M  V30 17793 N 1754.5 -1.20861 -1.01145 0
M  V30 17794 C 1755.45 -0.959005 -2.1191 0
M  V30 17795 C 1756.45 0.0914738 -1.69153 0
M  V30 17796 O 1757.65 -0.0593443 -1.79902 0
M  V30 17797 H 1754.03 -0.292825 -0.692645 0
M  V30 17798 H 1756 -1.89937 -2.30145 0
M  V30 17799 C 1754.75 -0.533258 -3.43586 0
M  V30 17800 H 1754.07 -1.33319 -3.76917 0
M  V30 17801 H 1755.51 -0.397868 -4.22129 0
M  V30 17802 C 1753.97 0.755011 -3.28331 0
M  V30 17803 O 1754.5 1.81217 -3.58502 0
M  V30 17804 N 1752.71 0.719026 -2.81564 0
M  V30 17805 H 1752.25 -0.141544 -2.57211 0
M  V30 17806 H 1752.21 1.58132 -2.71738 0
M  V30 17807 N 1755.98 1.20536 -1.01532 0
M  V30 17808 C 1756.93 2.2531 -0.577786 0
M  V30 17809 C 1757.92 1.65017 0.382843 0
M  V30 17810 O 1759.13 1.78214 0.252904 0
M  V30 17811 H 1755.51 0.732872 -0.168532 0
M  V30 17812 H 1757.48 2.59544 -1.4724 0
M  V30 17813 C 1756.23 3.47631 0.0694263 0
M  V30 17814 H 1755.55 3.94302 -0.660748 0
M  V30 17815 H 1756.99 4.22645 0.338706 0
M  V30 17816 C 1755.45 3.1031 1.31185 0
M  V30 17817 O 1755.98 3.21729 2.40527 0
M  V30 17818 N 1754.18 2.64871 1.19547 0
M  V30 17819 H 1753.73 2.55779 0.305741 0
M  V30 17820 H 1753.69 2.4027 2.02775 0
M  V30 17821 N 1757.46 0.791395 1.36289 0
M  V30 17822 C 1758.71 0.363981 1.98795 0
M  V30 17823 C 1759.03 -1.0685 1.6312 0
M  V30 17824 O 1758.3 -1.73682 0.906161 0
M  V30 17825 H 1756.88 0.131594 0.735318 0
M  V30 17826 H 1759.54 1.01387 1.66453 0
M  V30 17827 H 1758.64 0.457407 3.0873 0
M  V30 17828 N 1758.94 -1.47929 0.54358 0
M  V30 17829 C 1760.19 -2.02095 0.0144379 0
M  V30 17830 C 1760.51 -1.42166 -1.33469 0
M  V30 17831 O 1759.78 -0.591899 -1.86744 0
M  V30 17832 H 1758.36 -0.746996 0.00234858 0
M  V30 17833 H 1761.02 -1.81488 0.710498 0
M  V30 17834 H 1760.12 -3.11987 -0.0838074 0
M  V30 17835 N 1760.42 -0.27936 -1.55104 0
M  V30 17836 C 1761.66 0.337344 -2.01597 0
M  V30 17837 C 1762.02 1.52732 -1.16348 0
M  V30 17838 O 1763.22 2.21394 -1.5244 0
M  V30 17839 C 1761.49 0.705839 -3.50361 0
M  V30 17840 S 1763.05 1.30847 -4.18837 0
M  V30 17841 H 1759.87 0.104703 -0.703248 0
M  V30 17842 H 1762.47 -0.402184 -1.91318 0
M  V30 17843 H 1761.18 -0.169038 -4.10052 0
M  V30 17844 H 1760.71 1.47672 -3.64632 0
M  V30 17845 H 1762.72 2.59696 -4.22815 0
M  V30 17846 N 1761.9 1.57599 -0.0067085 0
M  V30 17847 C 1763.12 1.95545 0.69115 0
M  V30 17848 C 1763.55 0.882014 1.66139 0
M  V30 17849 O 1762.9 -0.159242 1.80599 0
M  V30 17850 C 1762.95 3.3259 1.39342 0
M  V30 17851 O 1762.06 3.27368 2.50806 0
M  V30 17852 H 1761.4 0.638188 0.183336 0
M  V30 17853 H 1763.93 2.04506 -0.0618957 0
M  V30 17854 H 1763.94 3.6831 1.75532 0
M  V30 17855 H 1762.61 4.10269 0.682072 0
M  V30 17856 H 1761.19 3.03334 2.16894 0
M  V30 17857 N 1763.37 -0.266145 1.55336 0
M  V30 17858 C 1764.32 -1.33159 1.85075 0
M  V30 17859 C 1765.31 -1.44381 0.710142 0
M  V30 17860 O 1766.5 -1.47946 0.971644 0
M  V30 17861 C 1763.63 -2.69063 2.13214 0
M  V30 17862 C 1762.71 -2.61924 3.33552 0
M  V30 17863 N 1763.11 -2.24407 4.53294 0
M  V30 17864 C 1761.4 -2.92973 3.36278 0
M  V30 17865 C 1762.1 -2.27428 5.35398 0
M  V30 17866 N 1761.08 -2.66173 4.73976 0
M  V30 17867 H 1764.88 -1.03172 2.75196 0
M  V30 17868 H 1762.4 -0.474782 1.55305 0
M  V30 17869 H 1764.39 -3.45929 2.32677 0
M  V30 17870 H 1763.05 -2.99933 1.2438 0
M  V30 17871 H 1764.06 -1.9627 4.79269 0
M  V30 17872 H 1760.74 -3.2851 2.57658 0
M  V30 17873 H 1762.13 -2.00925 6.41154 0
M  V30 17874 N 1764.85 -1.48386 -0.530967 0
M  V30 17875 C 1765.8 -1.63279 -1.65658 0
M  V30 17876 C 1766.79 -0.499261 -1.61876 0
M  V30 17877 O 1768 -0.677951 -1.66745 0
M  V30 17878 H 1764.37 -0.514332 -0.548605 0
M  V30 17879 H 1766.35 -2.57818 -1.50241 0
M  V30 17880 C 1765.09 -1.68878 -3.03933 0
M  V30 17881 H 1764.42 -2.55462 -3.07537 0
M  V30 17882 H 1765.86 -1.83343 -3.82311 0
M  V30 17883 C 1764.32 -0.427267 -3.3418 0
M  V30 17884 O 1764.85 0.460276 -3.99054 0
M  V30 17885 N 1763.05 -0.299268 -2.89055 0
M  V30 17886 H 1762.6 -1.02248 -2.36438 0
M  V30 17887 H 1762.56 0.543787 -3.09662 0
M  V30 17888 N 1766.33 0.779763 -1.36958 0
M  V30 17889 C 1767.57 1.55113 -1.33114 0
M  V30 17890 C 1767.93 1.91808 0.0859451 0
M  V30 17891 O 1769.13 2.67644 0.24903 0
M  V30 17892 C 1767.41 2.78752 -2.23679 0
M  V30 17893 S 1768.96 3.68899 -2.37611 0
M  V30 17894 H 1765.78 0.531134 -0.472671 0
M  V30 17895 H 1768.38 0.917613 -1.72627 0
M  V30 17896 H 1767.09 2.4986 -3.25573 0
M  V30 17897 H 1766.62 3.47069 -1.85221 0
M  V30 17898 H 1768.63 4.70347 -1.58075 0
M  V30 17899 N 1767.81 1.21396 1.00503 0
M  V30 17900 C 1769.03 1.05791 1.7839 0
M  V30 17901 C 1769.46 -0.387921 1.84056 0
M  V30 17902 O 1768.82 -1.27983 1.28413 0
M  V30 17903 C 1768.86 1.65967 3.20137 0
M  V30 17904 O 1767.97 0.905123 4.02345 0
M  V30 17905 H 1767.31 0.372331 0.549787 0
M  V30 17906 H 1769.84 1.60938 1.26334 0
M  V30 17907 H 1769.85 1.70186 3.70811 0
M  V30 17908 H 1768.52 2.71185 3.15327 0
M  V30 17909 H 1767.1 0.938019 3.60909 0
M  V30 17910 N 1769.29 -1.19996 1.0217 0
M  V30 17911 C 1770.53 -1.89776 0.715047 0
M  V30 17912 C 1770.86 -1.78971 -0.753862 0
M  V30 17913 O 1770.14 -1.17729 -1.54823 0
M  V30 17914 C 1770.42 -3.4098 1.15779 0
M  V30 17915 C 1770.28 -3.60693 2.68739 0
M  V30 17916 C 1771.59 -4.33953 0.733008 0
M  V30 17917 H 1768.71 -0.689148 0.261236 0
M  V30 17918 H 1771.36 -1.41287 1.27035 0
M  V30 17919 H 1769.51 -3.82407 0.68534 0
M  V30 17920 H 1771.18 -3.28484 3.23876 0
M  V30 17921 H 1769.42 -3.0399 3.09472 0
M  V30 17922 H 1770.09 -4.66704 2.94773 0
M  V30 17923 H 1772.57 -4.002 1.13925 0
M  V30 17924 H 1771.44 -5.38355 1.07077 0
M  V30 17925 H 1771.7 -4.4059 -0.365047 0
M  V30 17926 N 1770.76 -0.798611 -1.35867 0
M  V30 17927 C 1771.73 -0.209177 -2.28243 0
M  V30 17928 C 1772.73 0.598842 -1.49233 0
M  V30 17929 O 1773.92 0.418491 -1.69098 0
M  V30 17930 C 1771.05 0.709336 -3.33438 0
M  V30 17931 H 1772.24 -1.02382 -2.81883 0
M  V30 17932 H 1769.79 -0.568687 -1.45587 0
M  V30 17933 H 1770.53 1.54797 -2.84971 0
M  V30 17934 H 1770.31 0.131756 -3.91879 0
M  V30 17935 H 1771.8 1.11632 -4.02403 0
M  V30 17936 N 1772.24 1.47639 -0.551417 0
M  V30 17937 C 1773.65 1.86336 -0.116513 0
M  V30 17938 C 1774 1.45869 1.31213 0
M  V30 17939 O 1773.13 0.859103 1.98616 0
M  V30 17940 C 1773.72 3.38181 -0.204671 0
M  V30 17941 C 1772.28 3.75992 0.175161 0
M  V30 17942 C 1771.43 2.71692 -0.554843 0
M  V30 17943 H 1774.38 1.39238 -0.761471 0
M  V30 17944 H 1774.4 3.76081 0.578214 0
M  V30 17945 H 1773.91 3.67604 -1.24456 0
M  V30 17946 H 1772.01 3.52186 1.21638 0
M  V30 17947 H 1772.13 4.78764 -0.179368 0
M  V30 17948 H 1770.49 2.547 0.00140775 0
M  V30 17949 H 1771.27 3.03957 -1.59578 0
M  V30 17950 N 1773.72 0.287581 1.54954 0
M  V30 17951 C 1774.97 -0.324967 1.9947 0
M  V30 17952 C 1775.29 -1.55437 1.17747 0
M  V30 17953 O 1774.56 -1.9403 0.270067 0
M  V30 17954 H 1773.14 -0.123062 0.736794 0
M  V30 17955 H 1775.8 0.395805 1.90839 0
M  V30 17956 H 1774.9 -0.606265 3.06155 0
M  V30 17957 N 1775.2 -1.57593 0.0150662 0
M  V30 17958 C 1776.11 -2.12807 -0.987437 0
M  V30 17959 C 1777.12 -1.07691 -1.3667 0
M  V30 17960 O 1778.3 -1.39674 -1.45097 0
M  V30 17961 C 1775.37 -2.63276 -2.2558 0
M  V30 17962 C 1774.43 -3.83053 -1.93827 0
M  V30 17963 C 1773.66 -4.31106 -3.14616 0
M  V30 17964 O 1773.88 -3.78405 -4.26809 0
M  V30 17965 O 1772.82 -5.23104 -2.97734 0
M  V30 17966 H 1776.64 -2.98715 -0.548015 0
M  V30 17967 H 1774.23 -1.47991 -0.20469 0
M  V30 17968 H 1776.11 -2.95869 -3.00066 0
M  V30 17969 H 1774.78 -1.80459 -2.68731 0
M  V30 17970 H 1773.69 -3.55409 -1.1677 0
M  V30 17971 H 1775.02 -4.6699 -1.55502 0
M  V30 17972 N 1776.68 0.257904 -1.55475 0
M  V30 17973 C 1777.92 0.985519 -1.76442 0
M  V30 17974 C 1778.25 1.86267 -0.577033 0
M  V30 17975 O 1777.52 1.91613 0.407582 0
M  V30 17976 H 1776.1 0.366872 -0.650702 0
M  V30 17977 H 1778.76 0.278498 -1.929 0
M  V30 17978 H 1777.85 1.61367 -2.67146 0
M  V30 17979 N 1778.15 1.48666 0.52309 0
M  V30 17980 C 1779.4 1.56286 1.27505 0
M  V30 17981 C 1779.72 0.244774 1.94062 0
M  V30 17982 O 1780.92 0.199289 2.70768 0
M  V30 17983 C 1779.38 2.75654 2.31393 0
M  V30 17984 C 1778.99 4.14133 1.70874 0
M  V30 17985 C 1780.73 2.92591 3.07556 0
M  V30 17986 C 1778.64 5.24752 2.72743 0
M  V30 17987 H 1777.57 0.581842 0.479558 0
M  V30 17988 H 1780.22 1.75013 0.551611 0
M  V30 17989 H 1778.6 2.50376 3.06803 0
M  V30 17990 H 1779.77 4.49458 1.01607 0
M  V30 17991 H 1778.09 4.0237 1.0718 0
M  V30 17992 H 1780.69 3.72403 3.83692 0
M  V30 17993 H 1781.03 2.02308 3.63837 0
M  V30 17994 H 1781.56 3.17804 2.39261 0
M  V30 17995 H 1778.3 6.17024 2.21273 0
M  V30 17996 H 1777.82 4.93907 3.40318 0
M  V30 17997 H 1779.5 5.53158 3.35598 0
M  V30 17998 N 1779.63 -0.772489 1.37369 0
M  V30 17999 C 1780.88 -1.53329 1.32733 0
M  V30 18000 C 1781.21 -1.93999 -0.0882815 0
M  V30 18001 O 1780.49 -1.64014 -1.04545 0
M  V30 18002 C 1780.77 -2.79885 2.26575 0
M  V30 18003 C 1780.62 -2.45474 3.76912 0
M  V30 18004 C 1781.94 -3.81812 2.18878 0
M  V30 18005 H 1779.06 -0.55625 0.483482 0
M  V30 18006 H 1781.7 -0.886251 1.68064 0
M  V30 18007 H 1779.85 -3.35097 1.96576 0
M  V30 18008 H 1781.52 -1.96182 4.17505 0
M  V30 18009 H 1779.77 -1.78181 3.95517 0
M  V30 18010 H 1780.44 -3.35937 4.38007 0
M  V30 18011 H 1782.91 -3.36091 2.4532 0
M  V30 18012 H 1781.79 -4.68087 2.86681 0
M  V30 18013 H 1782.05 -4.26021 1.18146 0
M  V30 18014 N 1781.11 -1.21927 -0.998575 0
M  V30 18015 C 1782.35 -1.05191 -1.75255 0
M  V30 18016 C 1782.71 0.40666 -1.87644 0
M  V30 18017 O 1783.92 0.694716 -2.59667 0
M  V30 18018 C 1782.19 -1.7372 -3.1234 0
M  V30 18019 S 1783.75 -1.72323 -4.03547 0
M  V30 18020 H 1780.56 -0.376819 -0.602933 0
M  V30 18021 H 1783.17 -1.54777 -1.19434 0
M  V30 18022 H 1781.87 -2.79018 -3.00961 0
M  V30 18023 H 1781.4 -1.24341 -3.73233 0
M  V30 18024 H 1783.42 -0.768885 -4.90207 0
M  V30 18025 N 1782.59 1.19452 -1.02805 0
M  V30 18026 C 1783.81 1.93616 -0.743485 0
M  V30 18027 C 1784.24 1.74934 0.691342 0
M  V30 18028 O 1783.6 1.05111 1.47721 0
M  V30 18029 C 1783.64 3.43451 -1.0988 0
M  V30 18030 O 1782.75 4.11829 -0.216978 0
M  V30 18031 H 1782.09 0.60448 -0.274771 0
M  V30 18032 H 1784.62 1.51554 -1.37451 0
M  V30 18033 H 1784.63 3.94115 -1.05535 0
M  V30 18034 H 1783.3 3.5637 -2.14413 0
M  V30 18035 H 1781.88 3.71533 -0.318954 0
M  V30 18036 N 1784.07 0.805805 1.35442 0
M  V30 18037 C 1785.31 0.391434 2.00617 0
M  V30 18038 C 1785.67 -1.022 1.6254 0
M  V30 18039 O 1786.87 -1.53834 2.20428 0
M  V30 18040 C 1785.14 0.568324 3.52852 0
M  V30 18041 S 1786.7 0.24426 4.3812 0
M  V30 18042 H 1783.52 0.148698 0.695277 0
M  V30 18043 H 1786.12 1.04788 1.65044 0
M  V30 18044 H 1784.83 1.59702 3.78052 0
M  V30 18045 H 1784.36 -0.103475 3.93264 0
M  V30 18046 H 1786.37 -0.948351 4.87053 0
M  V30 18047 N 1785.54 -1.47344 0.559239 0
M  V30 18048 C 1786.96 -1.86272 0.126394 0
M  V30 18049 C 1787.31 -1.46563 -1.30437 0
M  V30 18050 O 1786.43 -0.869624 -1.98158 0
M  V30 18051 C 1787.03 -3.38068 0.222602 0
M  V30 18052 C 1785.59 -3.7608 -0.155219 0
M  V30 18053 C 1784.73 -2.71394 0.569244 0
M  V30 18054 H 1787.68 -1.38833 0.768845 0
M  V30 18055 H 1787.7 -3.76382 -0.558262 0
M  V30 18056 H 1787.22 -3.66938 1.26404 0
M  V30 18057 H 1785.32 -3.52826 -1.19768 0
M  V30 18058 H 1785.43 -4.78662 0.204756 0
M  V30 18059 H 1783.79 -2.54697 0.0120996 0
M  V30 18060 H 1784.58 -3.03107 1.61187 0
M  V30 18061 N 1787.02 -0.295795 -1.54799 0
M  V30 18062 C 1787.95 0.575863 -2.26288 0
M  V30 18063 C 1788.93 1.14217 -1.26049 0
M  V30 18064 O 1790.12 1.17248 -1.54812 0
M  V30 18065 C 1787.25 1.7503 -2.9997 0
M  V30 18066 C 1786.2 1.31459 -4.07311 0
M  V30 18067 C 1785.53 2.57377 -4.6868 0
M  V30 18068 C 1786.83 0.449629 -5.20361 0
M  V30 18069 H 1788.52 -0.0203797 -2.99393 0
M  V30 18070 H 1786.07 -0.0112418 -1.43996 0
M  V30 18071 H 1788.02 2.36615 -3.487 0
M  V30 18072 H 1786.75 2.3727 -2.24434 0
M  V30 18073 H 1785.4 0.721829 -3.59423 0
M  V30 18074 H 1785.05 3.1792 -3.89789 0
M  V30 18075 H 1784.75 2.28927 -5.41171 0
M  V30 18076 H 1786.28 3.19774 -5.2017 0
M  V30 18077 H 1787.69 0.971014 -5.65017 0
M  V30 18078 H 1786.09 0.259121 -5.9954 0
M  V30 18079 H 1787.16 -0.526564 -4.82032 0
M  V30 18080 N 1788.5 1.57583 -0.0234236 0
M  V30 18081 C 1789.75 1.91186 0.655152 0
M  V30 18082 C 1790.07 0.89988 1.72995 0
M  V30 18083 O 1789.34 -0.0594278 1.9581 0
M  V30 18084 H 1787.92 0.705686 0.244982 0
M  V30 18085 H 1790.58 1.94775 -0.0698824 0
M  V30 18086 H 1789.68 2.91636 1.11152 0
M  V30 18087 N 1789.98 -0.249655 1.5561 0
M  V30 18088 C 1790.91 -1.33534 1.85051 0
M  V30 18089 C 1791.89 -1.46503 0.705373 0
M  V30 18090 O 1793.07 -1.62761 0.950841 0
M  V30 18091 C 1790.2 -2.70916 2.03278 0
M  V30 18092 C 1789.25 -2.75111 3.25908 0
M  V30 18093 S 1790.08 -2.31998 4.82636 0
M  V30 18094 C 1791.24 -3.7131 5.03865 0
M  V30 18095 H 1791.47 -1.08362 2.76848 0
M  V30 18096 H 1789 -0.450498 1.47682 0
M  V30 18097 H 1790.96 -3.50022 2.14464 0
M  V30 18098 H 1789.62 -2.93328 1.12328 0
M  V30 18099 H 1788.81 -3.75999 3.3562 0
M  V30 18100 H 1788.42 -2.04047 3.13434 0
M  V30 18101 H 1790.71 -4.66784 4.91039 0
M  V30 18102 H 1791.65 -3.66535 6.05853 0
M  V30 18103 H 1792.06 -3.63696 4.31724 0
M  V30 18104 N 1791.46 -1.48941 -0.515198 0
M  V30 18105 C 1792.37 -1.67271 -1.64492 0
M  V30 18106 C 1793.38 -0.555222 -1.64904 0
M  V30 18107 O 1794.56 -0.828161 -1.83585 0
M  V30 18108 C 1791.62 -1.722 -3.00912 0
M  V30 18109 C 1790.69 -2.95683 -3.11239 0
M  V30 18110 C 1789.92 -3.00368 -4.41152 0
M  V30 18111 O 1790.14 -2.13041 -5.29122 0
M  V30 18112 O 1789.08 -3.92691 -4.56155 0
M  V30 18113 H 1792.9 -2.62947 -1.51962 0
M  V30 18114 H 1790.49 -1.32515 -0.68993 0
M  V30 18115 H 1792.37 -1.77877 -3.82018 0
M  V30 18116 H 1791.04 -0.796995 -3.13735 0
M  V30 18117 H 1789.95 -2.95531 -2.29374 0
M  V30 18118 H 1791.28 -3.87617 -3.03338 0
M  V30 18119 N 1792.94 0.765193 -1.37777 0
M  V30 18120 C 1793.87 1.89247 -1.36777 0
M  V30 18121 C 1794.85 1.68463 -0.235389 0
M  V30 18122 O 1796.03 1.89225 -0.436733 0
M  V30 18123 C 1793.16 3.2662 -1.18053 0
M  V30 18124 C 1792.12 3.61981 -2.28372 0
M  V30 18125 C 1791.44 4.97967 -1.94765 0
M  V30 18126 C 1792.74 3.68053 -3.70587 0
M  V30 18127 H 1794.44 1.90341 -2.31108 0
M  V30 18128 H 1791.98 0.914355 -1.11245 0
M  V30 18129 H 1793.93 4.05125 -1.15982 0
M  V30 18130 H 1792.66 3.25976 -0.201803 0
M  V30 18131 H 1791.32 2.85788 -2.2961 0
M  V30 18132 H 1790.97 4.93869 -0.954052 0
M  V30 18133 H 1790.67 5.22594 -2.68642 0
M  V30 18134 H 1792.19 5.78864 -1.94292 0
M  V30 18135 H 1793.6 4.36696 -3.71443 0
M  V30 18136 H 1792 4.04183 -4.43572 0
M  V30 18137 H 1793.07 2.68556 -4.03739 0
M  V30 18138 N 1794.41 1.22455 0.992094 0
M  V30 18139 C 1795.66 1.04752 1.72833 0
M  V30 18140 C 1795.98 -0.418152 1.90464 0
M  V30 18141 O 1795.25 -1.30072 1.46486 0
M  V30 18142 H 1793.83 0.384626 0.640368 0
M  V30 18143 H 1796.49 1.5398 1.19483 0
M  V30 18144 H 1795.59 1.52601 2.72249 0
M  V30 18145 N 1795.89 -1.18905 1.03437 0
M  V30 18146 C 1797.3 -1.70402 0.762893 0
M  V30 18147 C 1797.65 -1.82633 -0.716908 0
M  V30 18148 O 1796.78 -1.50136 -1.55847 0
M  V30 18149 C 1797.37 -3.09501 1.37822 0
M  V30 18150 C 1795.93 -3.58235 1.1552 0
M  V30 18151 C 1795.08 -2.34953 1.47284 0
M  V30 18152 H 1798.03 -1.03669 1.2016 0
M  V30 18153 H 1798.05 -3.7246 0.778079 0
M  V30 18154 H 1797.56 -3.00566 2.45523 0
M  V30 18155 H 1795.66 -3.72475 0.096646 0
M  V30 18156 H 1795.78 -4.42034 1.84778 0
M  V30 18157 H 1794.14 -2.38557 0.892333 0
M  V30 18158 H 1794.92 -2.28643 2.5608 0
M  V30 18159 N 1797.37 -0.812977 -1.35013 0
M  V30 18160 C 1798.65 -0.319343 -1.92976 0
M  V30 18161 C 1799.03 1.19196 -1.74228 0
M  V30 18162 O 1798.37 1.99445 -1.11507 0
M  V30 18163 C 1798.58 -0.737753 -3.41113 0
M  V30 18164 C 1799.93 -0.730889 -4.18262 0
M  V30 18165 O 1800.96 -0.679701 -3.49655 0
M  V30 18166 O 1799.82 -0.795045 -5.40686 0
M  V30 18167 H 1796.91 -0.0850284 -0.822617 0
M  V30 18168 H 1799.46 -0.897102 -1.44049 0
M  V30 18169 H 1798.23 -1.77911 -3.48516 0
M  V30 18170 H 1797.85 -0.135148 -3.9737 0
M  V30 18171 N 1798.85 1.47045 -0.567045 0
M  V30 18172 C 1799.8 2.31838 0.188075 0
M  V30 18173 C 1800.79 1.4353 0.899752 0
M  V30 18174 O 1802 1.60241 0.81992 0
M  V30 18175 H 1798.37 0.747783 0.0795226 0
M  V30 18176 H 1800.34 2.9336 -0.546121 0
M  V30 18177 C 1799.09 3.26387 1.19861 0
M  V30 18178 H 1798.41 3.94308 0.660412 0
M  V30 18179 H 1799.85 3.8853 1.69767 0
M  V30 18180 C 1798.31 2.50612 2.25157 0
M  V30 18181 O 1798.84 2.25771 3.3225 0
M  V30 18182 N 1797.05 2.11447 1.99345 0
M  V30 18183 H 1796.6 2.31849 1.12267 0
M  V30 18184 H 1796.55 1.61064 2.7001 0
M  V30 18185 N 1800.33 0.304 1.5464 0
M  V30 18186 C 1801.28 -0.585901 2.20343 0
M  V30 18187 C 1802.26 -1.09663 1.17741 0
M  V30 18188 O 1803.45 -1.0369 1.43448 0
M  V30 18189 C 1800.58 -1.75586 2.94999 0
M  V30 18190 C 1799.67 -1.26096 4.04921 0
M  V30 18191 N 1800.06 -0.484268 5.03476 0
M  V30 18192 C 1798.36 -1.54143 4.18517 0
M  V30 18193 C 1799.06 -0.220353 5.81282 0
M  V30 18194 N 1798.03 -0.801002 5.37666 0
M  V30 18195 H 1801.83 0.0150187 2.93896 0
M  V30 18196 H 1799.35 0.108905 1.62034 0
M  V30 18197 H 1801.35 -2.40496 3.40539 0
M  V30 18198 H 1800.01 -2.36045 2.22964 0
M  V30 18199 H 1801.02 -0.128891 5.1774 0
M  V30 18200 H 1797.69 -2.15328 3.57687 0
M  V30 18201 H 1799.08 0.403637 6.70687 0
M  V30 18202 N 1801.8 -1.57568 0.0317802 0
M  V30 18203 C 1803.03 -1.96212 -0.656401 0
M  V30 18204 C 1803.45 -0.908406 -1.6551 0
M  V30 18205 O 1802.8 0.109502 -1.82171 0
M  V30 18206 C 1802.85 -3.34924 -1.36044 0
M  V30 18207 O 1802.58 -4.36254 -0.401757 0
M  V30 18208 C 1804.08 -3.88215 -2.14019 0
M  V30 18209 H 1801.3 -0.646181 -0.180808 0
M  V30 18210 H 1803.84 -2.04291 0.0923341 0
M  V30 18211 H 1802 -3.28055 -2.06055 0
M  V30 18212 H 1802.41 -5.16686 -0.902005 0
M  V30 18213 H 1803.88 -4.87609 -2.5873 0
M  V30 18214 H 1804.36 -3.22602 -2.98034 0
M  V30 18215 H 1804.97 -3.98361 -1.4896 0
M  V30 18216 N 1803.28 0.241399 -1.5574 0
M  V30 18217 C 1804.52 0.975956 -1.79595 0
M  V30 18218 C 1804.89 1.82312 -0.60218 0
M  V30 18219 O 1806.09 2.58988 -0.719614 0
M  V30 18220 C 1804.36 1.80917 -3.08227 0
M  V30 18221 S 1805.92 2.60208 -3.53323 0
M  V30 18222 H 1802.74 0.328184 -0.630727 0
M  V30 18223 H 1805.34 0.243307 -1.9398 0
M  V30 18224 H 1804.04 1.1766 -3.93172 0
M  V30 18225 H 1803.57 2.58447 -2.96595 0
M  V30 18226 H 1805.59 3.83317 -3.15091 0
M  V30 18227 N 1804.76 1.49212 0.507292 0
M  V30 18228 C 1805.69 1.61529 1.62606 0
M  V30 18229 C 1806.71 0.498303 1.54986 0
M  V30 18230 O 1807.89 0.7701 1.61033 0
M  V30 18231 C 1804.99 1.55015 3.0137 0
M  V30 18232 C 1804.17 2.8214 3.34239 0
M  V30 18233 C 1803.23 2.68765 4.52385 0
M  V30 18234 O 1802.25 3.42691 4.54479 0
M  V30 18235 N 1803.45 1.7989 5.51924 0
M  V30 18236 H 1806.22 2.58018 1.52469 0
M  V30 18237 H 1803.78 1.46222 0.695042 0
M  V30 18238 H 1805.77 1.4373 3.78317 0
M  V30 18239 H 1804.34 0.6641 3.05464 0
M  V30 18240 H 1803.56 3.07823 2.46249 0
M  V30 18241 H 1804.85 3.66432 3.52994 0
M  V30 18242 H 1804.25 1.19074 5.53026 0
M  V30 18243 H 1802.81 1.74531 6.27999 0
M  V30 18244 N 1806.24 -0.757876 1.38181 0
M  V30 18245 C 1807.49 -1.51222 1.33472 0
M  V30 18246 C 1807.8 -1.9546 -0.0740525 0
M  V30 18247 O 1809.01 -2.70404 -0.243664 0
M  V30 18248 C 1807.46 -2.73138 2.34358 0
M  V30 18249 C 1807.07 -2.35943 3.80835 0
M  V30 18250 C 1808.81 -3.51041 2.38685 0
M  V30 18251 C 1806.72 -3.54444 4.73417 0
M  V30 18252 H 1805.65 -0.567789 0.496116 0
M  V30 18253 H 1808.3 -0.828861 1.63714 0
M  V30 18254 H 1806.68 -3.43433 1.97153 0
M  V30 18255 H 1807.86 -1.73341 4.26954 0
M  V30 18256 H 1806.17 -1.71184 3.79585 0
M  V30 18257 H 1808.77 -4.39143 3.05054 0
M  V30 18258 H 1809.11 -3.91892 1.40451 0
M  V30 18259 H 1809.65 -2.87755 2.74667 0
M  V30 18260 H 1806.39 -3.18663 5.7283 0
M  V30 18261 H 1805.91 -4.16103 4.31993 0
M  V30 18262 H 1807.58 -4.21081 4.91223 0
M  V30 18263 N 1807.72 -1.22979 -0.985586 0
M  V30 18264 C 1808.65 -0.964185 -2.07933 0
M  V30 18265 C 1809.66 0.0599162 -1.6269 0
M  V30 18266 O 1810.85 -0.174984 -1.7764 0
M  V30 18267 C 1807.95 -0.429879 -3.36163 0
M  V30 18268 C 1807.12 -1.51293 -4.10401 0
M  V30 18269 C 1806.18 -0.984411 -5.1691 0
M  V30 18270 O 1805.21 -1.67225 -5.44081 0
M  V30 18271 N 1806.41 0.190439 -5.80188 0
M  V30 18272 H 1809.18 -1.90582 -2.31297 0
M  V30 18273 H 1806.74 -1.13767 -1.15189 0
M  V30 18274 H 1808.73 -0.0614639 -4.04653 0
M  V30 18275 H 1807.3 0.417049 -3.09806 0
M  V30 18276 H 1806.52 -2.05434 -3.36438 0
M  V30 18277 H 1807.81 -2.24141 -4.56769 0
M  V30 18278 H 1807.2 0.765928 -5.60491 0
M  V30 18279 H 1805.76 0.500168 -6.49878 0
M  V30 18280 N 1809.19 1.18355 -1.04066 0
M  V30 18281 C 1810.42 1.92816 -0.763979 0
M  V30 18282 C 1810.84 1.75658 0.672749 0
M  V30 18283 O 1810.2 1.06671 1.46598 0
M  V30 18284 C 1810.25 3.42267 -1.13516 0
M  V30 18285 O 1809.35 4.11576 -0.260646 0
M  V30 18286 H 1808.7 0.601532 -0.281167 0
M  V30 18287 H 1811.23 1.50087 -1.3905 0
M  V30 18288 H 1811.24 3.92973 -1.09709 0
M  V30 18289 H 1809.91 3.54076 -2.18181 0
M  V30 18290 H 1808.49 3.71174 -0.358342 0
M  V30 18291 N 1810.67 0.820125 1.3458 0
M  V30 18292 C 1811.9 0.419155 2.02303 0
M  V30 18293 C 1812.31 -0.978742 1.61918 0
M  V30 18294 O 1811.65 -1.64433 0.818983 0
M  V30 18295 C 1811.72 0.438576 3.56815 0
M  V30 18296 C 1811.38 1.78932 4.20514 0
M  V30 18297 C 1812.38 2.74974 4.41232 0
M  V30 18298 C 1810.06 2.07704 4.57345 0
M  V30 18299 C 1812.06 3.97961 4.97901 0
M  V30 18300 C 1809.74 3.30952 5.13726 0
M  V30 18301 C 1810.74 4.25898 5.33947 0
M  V30 18302 O 1810.43 5.46969 5.89135 0
M  V30 18303 H 1810.16 0.166787 0.655102 0
M  V30 18304 H 1812.71 1.10892 1.72893 0
M  V30 18305 H 1810.94 -0.307871 3.85472 0
M  V30 18306 H 1812.63 0.0580448 4.05858 0
M  V30 18307 H 1813.4 2.54041 4.13144 0
M  V30 18308 H 1809.28 1.34605 4.40911 0
M  V30 18309 H 1812.82 4.72081 5.136 0
M  V30 18310 H 1808.72 3.5175 5.41242 0
M  V30 18311 H 1809.49 5.48451 6.07572 0
M  V30 18312 N 1812.15 -1.46743 0.574835 0
M  V30 18313 C 1813.39 -2.04312 0.0599973 0
M  V30 18314 C 1813.75 -1.43757 -1.27271 0
M  V30 18315 O 1814.96 -1.92479 -1.87631 0
M  V30 18316 C 1813.23 -3.57398 -0.0130197 0
M  V30 18317 S 1814.79 -4.3626 -0.471425 0
M  V30 18318 H 1811.6 -0.710203 0.0336583 0
M  V30 18319 H 1814.21 -1.79887 0.765555 0
M  V30 18320 H 1812.91 -3.9899 0.961003 0
M  V30 18321 H 1812.44 -3.86347 -0.741591 0
M  V30 18322 H 1814.46 -4.65149 -1.72773 0
M  V30 18323 N 1813.63 -0.312197 -1.54477 0
M  V30 18324 C 1814.59 0.54612 -2.22599 0
M  V30 18325 C 1815.59 1.05252 -1.21568 0
M  V30 18326 O 1816.78 0.946756 -1.46226 0
M  V30 18327 C 1813.91 1.75733 -2.92114 0
M  V30 18328 H 1815.11 -0.0492216 -2.9986 0
M  V30 18329 H 1812.66 -0.063149 -1.56172 0
M  V30 18330 H 1813.39 2.39221 -2.18961 0
M  V30 18331 H 1813.18 1.40175 -3.66188 0
M  V30 18332 H 1814.67 2.36685 -3.44049 0
M  V30 18333 N 1815.11 1.57549 -0.040136 0
M  V30 18334 C 1816.05 2.10879 0.938013 0
M  V30 18335 C 1817.02 1.01348 1.31597 0
M  V30 18336 O 1818.21 1.28832 1.40737 0
M  V30 18337 C 1815.35 2.64938 2.21138 0
M  V30 18338 C 1814.46 3.88516 1.88889 0
M  V30 18339 C 1813.6 4.3093 3.10601 0
M  V30 18340 C 1812.64 5.47237 2.74223 0
M  V30 18341 N 1811.77 5.84755 3.88594 0
M  V30 18342 H 1816.61 2.94169 0.476328 0
M  V30 18343 H 1814.15 1.45392 0.223503 0
M  V30 18344 H 1816.11 2.94375 2.95633 0
M  V30 18345 H 1814.74 1.84463 2.64903 0
M  V30 18346 H 1813.79 3.6574 1.04588 0
M  V30 18347 H 1815.1 4.7308 1.58103 0
M  V30 18348 H 1814.26 4.61861 3.93407 0
M  V30 18349 H 1812.99 3.45155 3.44557 0
M  V30 18350 H 1812 5.15988 1.89831 0
M  V30 18351 H 1813.22 6.34719 2.41472 0
M  V30 18352 H 1811.17 5.01935 4.22371 0
M  V30 18353 H 1811.09 6.63984 3.6147 0
M  V30 18354 H 1812.36 6.20297 4.72072 0
M  V30 18355 N 1816.58 -0.233136 1.55866 0
M  V30 18356 C 1817.53 -1.29204 1.87857 0
M  V30 18357 C 1818.52 -1.42842 0.740607 0
M  V30 18358 O 1819.71 -1.45852 1.00281 0
M  V30 18359 C 1816.84 -2.6448 2.18873 0
M  V30 18360 C 1815.93 -2.5479 3.39032 0
M  V30 18361 N 1816.32 -2.14742 4.57952 0
M  V30 18362 C 1814.61 -2.85774 3.42417 0
M  V30 18363 C 1815.32 -2.1602 5.40102 0
M  V30 18364 N 1814.29 -2.5606 4.79515 0
M  V30 18365 H 1818.09 -0.973116 2.77322 0
M  V30 18366 H 1815.61 -0.441733 1.56277 0
M  V30 18367 H 1817.6 -3.40916 2.39962 0
M  V30 18368 H 1816.26 -2.97227 1.30714 0
M  V30 18369 H 1817.28 -1.8606 4.83324 0
M  V30 18370 H 1813.95 -3.2297 2.64568 0
M  V30 18371 H 1815.34 -1.8728 6.45272 0
M  V30 18372 N 1818.06 -1.49479 -0.499372 0
M  V30 18373 C 1818.99 -1.69182 -1.60934 0
M  V30 18374 C 1819.97 -0.54053 -1.61283 0
M  V30 18375 O 1821.16 -0.776554 -1.77998 0
M  V30 18376 C 1818.29 -1.75985 -2.99411 0
M  V30 18377 C 1817.24 -2.9092 -3.13926 0
M  V30 18378 C 1816.57 -2.82837 -4.5377 0
M  V30 18379 C 1817.87 -4.31833 -2.93799 0
M  V30 18380 H 1819.56 -2.62112 -1.44699 0
M  V30 18381 H 1817.11 -1.26135 -0.694688 0
M  V30 18382 H 1819.06 -1.88354 -3.76962 0
M  V30 18383 H 1817.79 -0.796557 -3.16737 0
M  V30 18384 H 1816.45 -2.78155 -2.388 0
M  V30 18385 H 1816.09 -1.84412 -4.67976 0
M  V30 18386 H 1815.79 -3.59979 -4.64423 0
M  V30 18387 H 1817.32 -2.97217 -5.3338 0
M  V30 18388 H 1818.73 -4.45271 -3.61119 0
M  V30 18389 H 1817.13 -5.10209 -3.15922 0
M  V30 18390 H 1818.2 -4.46165 -1.89908 0
M  V30 18391 N 1819.54 0.750537 -1.38581 0
M  V30 18392 C 1820.49 1.86434 -1.36056 0
M  V30 18393 C 1821.46 1.64601 -0.222625 0
M  V30 18394 O 1822.64 1.86225 -0.41533 0
M  V30 18395 C 1819.78 3.23769 -1.19447 0
M  V30 18396 C 1818.9 3.57412 -2.42653 0
M  V30 18397 C 1818.03 4.84067 -2.18751 0
M  V30 18398 C 1817.07 5.10506 -3.37713 0
M  V30 18399 N 1816.21 6.28358 -3.13227 0
M  V30 18400 H 1821.05 1.87927 -2.31274 0
M  V30 18401 H 1818.58 0.91849 -1.14901 0
M  V30 18402 H 1820.54 4.03024 -1.07832 0
M  V30 18403 H 1819.17 3.21595 -0.278665 0
M  V30 18404 H 1818.22 2.72978 -2.64929 0
M  V30 18405 H 1819.54 3.72876 -3.31307 0
M  V30 18406 H 1818.69 5.71271 -2.0429 0
M  V30 18407 H 1817.43 4.70748 -1.27467 0
M  V30 18408 H 1816.43 4.2177 -3.5269 0
M  V30 18409 H 1817.66 5.25721 -4.29877 0
M  V30 18410 H 1815.61 6.16355 -2.24593 0
M  V30 18411 H 1815.52 6.44337 -3.95432 0
M  V30 18412 H 1816.79 7.18441 -3.02428 0
M  V30 18413 N 1821.02 1.235 0.979051 0
M  V30 18414 C 1822.26 1.07966 1.73559 0
M  V30 18415 C 1822.62 -0.376756 1.88267 0
M  V30 18416 O 1823.82 -0.653318 2.6074 0
M  V30 18417 C 1822.1 1.78667 3.09537 0
M  V30 18418 S 1823.65 1.78721 4.00754 0
M  V30 18419 H 1820.47 0.386363 0.596862 0
M  V30 18420 H 1823.07 1.56657 1.16956 0
M  V30 18421 H 1821.78 2.8377 2.96484 0
M  V30 18422 H 1821.31 1.30263 3.71208 0
M  V30 18423 H 1823.32 0.846775 4.88921 0
M  V30 18424 N 1822.5 -1.17802 1.04693 0
M  V30 18425 C 1823.72 -1.92408 0.774194 0
M  V30 18426 C 1824.15 -1.76012 -0.663424 0
M  V30 18427 O 1823.51 -1.07447 -1.4603 0
M  V30 18428 C 1823.55 -3.4166 1.1533 0
M  V30 18429 O 1822.66 -4.11431 0.282469 0
M  V30 18430 H 1822 -0.600033 0.284353 0
M  V30 18431 H 1824.53 -1.49348 1.39844 0
M  V30 18432 H 1824.54 -3.92386 1.11791 0
M  V30 18433 H 1823.21 -3.52914 2.20056 0
M  V30 18434 H 1821.79 -3.70979 0.378021 0
M  V30 18435 N 1823.98 -0.827251 -1.34143 0
M  V30 18436 C 1824.91 -0.209663 -2.28239 0
M  V30 18437 C 1825.92 0.602945 -1.51223 0
M  V30 18438 O 1827.11 0.431917 -1.73196 0
M  V30 18439 C 1824.21 0.724345 -3.31069 0
M  V30 18440 C 1823.38 -0.0463812 -4.37375 0
M  V30 18441 C 1822.44 0.809208 -5.19941 0
M  V30 18442 O 1821.47 0.252619 -5.68639 0
M  V30 18443 N 1822.67 2.12835 -5.40075 0
M  V30 18444 H 1825.43 -1.0181 -2.81877 0
M  V30 18445 H 1823 -0.684618 -1.46713 0
M  V30 18446 H 1824.99 1.30143 -3.83204 0
M  V30 18447 H 1823.56 1.43352 -2.77793 0
M  V30 18448 H 1822.78 -0.804793 -3.85897 0
M  V30 18449 H 1824.07 -0.576775 -5.0552 0
M  V30 18450 H 1823.46 2.60423 -5.02191 0
M  V30 18451 H 1822.02 2.65419 -5.95312 0
M  V30 18452 N 1825.45 1.46436 -0.582609 0
M  V30 18453 C 1826.4 2.30308 0.150697 0
M  V30 18454 C 1827.37 1.40611 0.884185 0
M  V30 18455 O 1828.56 1.6956 0.874874 0
M  V30 18456 C 1825.7 3.25074 1.15847 0
M  V30 18457 C 1824.81 4.2987 0.428442 0
M  V30 18458 C 1823.94 5.11765 1.42373 0
M  V30 18459 C 1822.98 6.0831 0.680103 0
M  V30 18460 N 1822.12 6.83073 1.62345 0
M  V30 18461 H 1826.96 2.92487 -0.570583 0
M  V30 18462 H 1824.5 1.44148 -0.293195 0
M  V30 18463 H 1826.45 3.78462 1.75563 0
M  V30 18464 H 1825.08 2.64704 1.84747 0
M  V30 18465 H 1824.14 3.7934 -0.283744 0
M  V30 18466 H 1825.45 4.98566 -0.15291 0
M  V30 18467 H 1824.6 5.69429 2.09369 0
M  V30 18468 H 1823.34 4.4303 2.03902 0
M  V30 18469 H 1822.35 5.498 -0.00363067 0
M  V30 18470 H 1823.57 6.79064 0.0702152 0
M  V30 18471 H 1821.52 6.17048 2.22684 0
M  V30 18472 H 1821.43 7.48029 1.0949 0
M  V30 18473 H 1822.7 7.45295 2.28376 0
M  V30 18474 N 1826.93 0.320385 1.54309 0
M  V30 18475 C 1828.17 -0.283775 2.02421 0
M  V30 18476 C 1828.54 -1.49594 1.20357 0
M  V30 18477 O 1829.74 -2.17275 1.58256 0
M  V30 18478 C 1828.01 -0.612699 3.52109 0
M  V30 18479 S 1829.57 -1.19697 4.22159 0
M  V30 18480 H 1826.38 -0.0860212 0.705777 0
M  V30 18481 H 1828.99 0.452768 1.90185 0
M  V30 18482 H 1827.69 0.277697 4.09459 0
M  V30 18483 H 1827.22 -1.37952 3.68419 0
M  V30 18484 H 1829.24 -2.48394 4.29552 0
M  V30 18485 N 1828.41 -1.57525 0.0484906 0
M  V30 18486 C 1829.69 -1.83927 -0.66561 0
M  V30 18487 C 1830.07 -0.93636 -1.89197 0
M  V30 18488 O 1829.41 0.00326905 -2.285 0
M  V30 18489 C 1829.62 -3.33595 -1.02545 0
M  V30 18490 C 1830.97 -4.00544 -1.40889 0
M  V30 18491 O 1832 -3.38204 -1.11787 0
M  V30 18492 O 1830.86 -5.10454 -1.95189 0
M  V30 18493 H 1827.95 -0.759042 -0.328305 0
M  V30 18494 H 1830.5 -1.69522 0.0776497 0
M  V30 18495 H 1829.27 -3.90999 -0.153456 0
M  V30 18496 H 1828.89 -3.53177 -1.82625 0
M  V30 18497 N 1829.89 0.224867 -1.55988 0
M  V30 18498 C 1830.82 1.30204 -1.88626 0
M  V30 18499 C 1831.83 1.4321 -0.774248 0
M  V30 18500 O 1833.02 1.44167 -1.05253 0
M  V30 18501 C 1830.12 2.67806 -2.07685 0
M  V30 18502 C 1829.29 2.76789 -3.38684 0
M  V30 18503 C 1828.35 3.95383 -3.47216 0
M  V30 18504 O 1827.38 3.83876 -4.20271 0
M  V30 18505 N 1828.58 5.09541 -2.78116 0
M  V30 18506 H 1831.35 1.02533 -2.81615 0
M  V30 18507 H 1828.91 0.414916 -1.56493 0
M  V30 18508 H 1830.9 3.45518 -2.10712 0
M  V30 18509 H 1829.47 2.88091 -1.21336 0
M  V30 18510 H 1828.69 1.8558 -3.47784 0
M  V30 18511 H 1829.98 2.79758 -4.24986 0
M  V30 18512 H 1829.38 5.21785 -2.18535 0
M  V30 18513 H 1827.93 5.85307 -2.86808 0
M  V30 18514 N 1831.37 1.49742 0.491438 0
M  V30 18515 C 1832.31 1.67614 1.61271 0
M  V30 18516 C 1833.31 0.542004 1.60495 0
M  V30 18517 O 1834.51 0.721922 1.64889 0
M  V30 18518 H 1830.89 0.528696 0.534775 0
M  V30 18519 H 1832.86 2.61711 1.43352 0
M  V30 18520 C 1831.61 1.76877 2.99349 0
M  V30 18521 H 1830.93 2.63526 3.00656 0
M  V30 18522 H 1832.37 1.93414 3.77315 0
M  V30 18523 C 1830.83 0.515719 3.32929 0
M  V30 18524 O 1831.36 -0.354312 4.00134 0
M  V30 18525 N 1829.57 0.3758 2.8816 0
M  V30 18526 H 1829.11 1.08481 2.33644 0
M  V30 18527 H 1829.07 -0.461494 3.10995 0
M  V30 18528 N 1832.84 -0.743177 1.38977 0
M  V30 18529 C 1833.79 -1.85709 1.37043 0
M  V30 18530 C 1834.76 -1.64481 0.231351 0
M  V30 18531 O 1835.95 -1.86002 0.4252 0
M  V30 18532 C 1833.09 -3.23131 1.21162 0
M  V30 18533 C 1832.2 -3.5612 2.44545 0
M  V30 18534 C 1831.33 -4.82901 2.21315 0
M  V30 18535 C 1830.37 -5.08708 3.40415 0
M  V30 18536 N 1829.51 -6.26688 3.16555 0
M  V30 18537 H 1834.35 -1.86698 2.32267 0
M  V30 18538 H 1831.89 -0.912384 1.15386 0
M  V30 18539 H 1833.85 -4.02446 1.09968 0
M  V30 18540 H 1832.48 -3.21443 0.295716 0
M  V30 18541 H 1831.53 -2.71569 2.66373 0
M  V30 18542 H 1832.84 -3.71114 3.3328 0
M  V30 18543 H 1831.99 -5.70179 2.07317 0
M  V30 18544 H 1830.73 -4.70065 1.29962 0
M  V30 18545 H 1829.74 -4.19894 3.54921 0
M  V30 18546 H 1830.96 -5.23434 4.32659 0
M  V30 18547 H 1828.91 -6.15156 2.27858 0
M  V30 18548 H 1828.83 -6.4223 3.98843 0
M  V30 18549 H 1830.09 -7.16827 3.06233 0
M  V30 18550 N 1834.32 -1.24018 -0.972487 0
M  V30 18551 C 1835.57 -1.07702 -1.71484 0
M  V30 18552 C 1835.9 0.384897 -1.90654 0
M  V30 18553 O 1835.15 1.30098 -1.46195 0
M  V30 18554 C 1835.45 -1.75657 -3.11255 0
M  V30 18555 C 1835.12 -3.25583 -3.1194 0
M  V30 18556 C 1833.78 -3.66487 -3.11834 0
M  V30 18557 C 1836.13 -4.2145 -3.06642 0
M  V30 18558 C 1833.46 -5.01703 -3.04157 0
M  V30 18559 C 1835.81 -5.56668 -3.00506 0
M  V30 18560 C 1834.48 -5.96924 -2.98726 0
M  V30 18561 H 1833.75 -0.394108 -0.627503 0
M  V30 18562 H 1836.39 -1.54057 -1.13748 0
M  V30 18563 H 1834.7 -1.21682 -3.72425 0
M  V30 18564 H 1836.39 -1.60502 -3.67478 0
M  V30 18565 H 1832.98 -2.93026 -3.12784 0
M  V30 18566 H 1837.17 -3.90852 -3.05856 0
M  V30 18567 H 1832.42 -5.32096 -3.01137 0
M  V30 18568 H 1836.6 -6.30661 -2.95365 0
M  V30 18569 H 1834.23 -7.01661 -2.92532 0
M  V30 18570 N 1835.8 1.17245 -1.05316 0
M  V30 18571 C 1837.03 1.91995 -0.784387 0
M  V30 18572 C 1837.45 1.76362 0.65408 0
M  V30 18573 O 1836.81 1.0822 1.45458 0
M  V30 18574 C 1836.86 3.41043 -1.1714 0
M  V30 18575 O 1835.96 4.11276 -0.304285 0
M  V30 18576 H 1835.3 0.598516 -0.287532 0
M  V30 18577 H 1837.83 1.48604 -1.40634 0
M  V30 18578 H 1837.84 3.91788 -1.13871 0
M  V30 18579 H 1836.52 3.51742 -2.21924 0
M  V30 18580 H 1835.09 3.70773 -0.39769 0
M  V30 18581 N 1837.28 0.834353 1.33702 0
M  V30 18582 C 1838.52 0.428521 1.98221 0
M  V30 18583 C 1838.86 -1.00858 1.65956 0
M  V30 18584 O 1838.13 -1.70437 0.937094 0
M  V30 18585 C 1838.42 0.644357 3.54288 0
M  V30 18586 C 1838.27 2.1284 3.96256 0
M  V30 18587 C 1839.59 0.0876063 4.40013 0
M  V30 18588 H 1836.71 0.15717 0.720046 0
M  V30 18589 H 1839.35 1.04903 1.58415 0
M  V30 18590 H 1837.5 0.116173 3.88326 0
M  V30 18591 H 1839.17 2.72111 3.72496 0
M  V30 18592 H 1837.41 2.61461 3.46151 0
M  V30 18593 H 1838.08 2.23019 5.04942 0
M  V30 18594 H 1840.56 0.539025 4.12594 0
M  V30 18595 H 1839.44 0.268345 5.48244 0
M  V30 18596 H 1839.7 -1.00829 4.30449 0
M  V30 18597 N 1838.76 -1.46125 0.590367 0
M  V30 18598 C 1839.7 -2.30384 -0.138481 0
M  V30 18599 C 1840.67 -1.41078 -0.876715 0
M  V30 18600 O 1841.86 -1.70022 -0.86587 0
M  V30 18601 C 1839 -3.25684 -1.14122 0
M  V30 18602 C 1838.11 -4.30091 -0.405639 0
M  V30 18603 C 1837.25 -5.12513 -1.39657 0
M  V30 18604 C 1836.29 -6.08662 -0.647833 0
M  V30 18605 N 1835.42 -6.83924 -1.5872 0
M  V30 18606 H 1840.26 -2.9218 0.586086 0
M  V30 18607 H 1837.8 -1.43991 0.300835 0
M  V30 18608 H 1839.76 -3.79388 -1.73553 0
M  V30 18609 H 1838.39 -2.6568 -1.8334 0
M  V30 18610 H 1837.44 -3.79184 0.303858 0
M  V30 18611 H 1838.75 -4.98477 0.179348 0
M  V30 18612 H 1837.91 -5.70531 -2.06346 0
M  V30 18613 H 1836.64 -4.44105 -2.01549 0
M  V30 18614 H 1835.65 -5.4979 0.0327878 0
M  V30 18615 H 1836.87 -6.79091 -0.0342018 0
M  V30 18616 H 1834.82 -6.1822 -2.19408 0
M  V30 18617 H 1834.74 -7.48599 -1.05522 0
M  V30 18618 H 1836.01 -7.46496 -2.2442 0
M  V30 18619 N 1840.23 -0.328564 -1.54137 0
M  V30 18620 C 1841.47 0.273037 -2.02568 0
M  V30 18621 C 1841.84 1.48953 -1.21148 0
M  V30 18622 O 1843.04 2.16433 -1.59406 0
M  V30 18623 C 1841.31 0.594017 -3.52429 0
M  V30 18624 S 1842.87 1.17456 -4.22788 0
M  V30 18625 H 1839.69 0.0822771 -0.706223 0
M  V30 18626 H 1842.29 -0.462847 -1.89942 0
M  V30 18627 H 1840.99 -0.299408 -4.09306 0
M  V30 18628 H 1840.52 1.35997 -3.69146 0
M  V30 18629 H 1842.54 2.46113 -4.30863 0
M  V30 18630 N 1841.71 1.57497 -0.0568439 0
M  V30 18631 C 1842.94 1.97645 0.628589 0
M  V30 18632 C 1843.36 0.934424 1.63249 0
M  V30 18633 O 1842.72 -0.101706 1.81015 0
M  V30 18634 C 1842.77 3.36855 1.2869 0
M  V30 18635 O 1841.87 3.35182 2.40264 0
M  V30 18636 H 1841.21 0.643698 0.16294 0
M  V30 18637 H 1843.74 2.04206 -0.126927 0
M  V30 18638 H 1843.75 3.73708 1.63726 0
M  V30 18639 H 1842.43 4.12231 0.551203 0
M  V30 18640 H 1841.01 3.10081 2.07133 0
M  V30 18641 N 1843.19 -0.216591 1.56105 0
M  V30 18642 C 1844.43 -0.947261 1.81125 0
M  V30 18643 C 1844.79 -1.81331 0.631108 0
M  V30 18644 O 1846 -2.57811 0.760726 0
M  V30 18645 C 1844.27 -1.75991 3.11066 0
M  V30 18646 S 1845.83 -2.54554 3.57418 0
M  V30 18647 H 1842.64 -0.318109 0.635868 0
M  V30 18648 H 1845.25 -0.212416 1.94343 0
M  V30 18649 H 1843.95 -1.1139 3.94994 0
M  V30 18650 H 1843.48 -2.53696 3.00669 0
M  V30 18651 H 1845.5 -3.78256 3.21149 0
M  V30 18652 N 1844.67 -1.5 -0.48349 0
M  V30 18653 C 1845.9 -1.63867 -1.25821 0
M  V30 18654 C 1846.31 -0.316335 -1.86537 0
M  V30 18655 O 1845.65 0.710307 -1.69412 0
M  V30 18656 C 1845.71 -2.66251 -2.41559 0
M  V30 18657 C 1845.38 -4.10141 -2.01577 0
M  V30 18658 C 1846.37 -4.964 -1.5454 0
M  V30 18659 C 1844.06 -4.55983 -2.10677 0
M  V30 18660 C 1846.05 -6.26546 -1.17129 0
M  V30 18661 C 1843.74 -5.86137 -1.72877 0
M  V30 18662 C 1844.74 -6.71243 -1.2618 0
M  V30 18663 O 1844.42 -7.98969 -0.888988 0
M  V30 18664 H 1844.16 -0.554155 -0.387154 0
M  V30 18665 H 1846.71 -1.96893 -0.585005 0
M  V30 18666 H 1844.94 -2.28442 -3.12011 0
M  V30 18667 H 1846.63 -2.69466 -3.03551 0
M  V30 18668 H 1847.4 -4.62205 -1.46942 0
M  V30 18669 H 1843.27 -3.89895 -2.45974 0
M  V30 18670 H 1846.82 -6.92927 -0.806093 0
M  V30 18671 H 1842.72 -6.19857 -1.80131 0
M  V30 18672 H 1843.48 -8.12133 -1.01893 0
M  V30 18673 N 1846.15 0.735796 -1.39369 0
M  V30 18674 C 1847.06 1.88026 -1.40298 0
M  V30 18675 C 1848.07 1.71431 -0.297878 0
M  V30 18676 O 1849.25 1.94047 -0.539219 0
M  V30 18677 C 1846.31 3.23607 -1.24415 0
M  V30 18678 C 1845.37 3.52601 -2.4489 0
M  V30 18679 C 1844.61 4.81714 -2.29755 0
M  V30 18680 O 1844.83 5.55374 -1.30061 0
M  V30 18681 O 1843.76 5.10588 -3.18722 0
M  V30 18682 H 1847.59 1.90197 -2.36767 0
M  V30 18683 H 1845.18 0.883504 -1.20476 0
M  V30 18684 H 1847.06 4.04633 -1.17688 0
M  V30 18685 H 1845.73 3.22208 -0.310409 0
M  V30 18686 H 1844.64 2.71665 -2.57194 0
M  V30 18687 H 1845.97 3.58778 -3.36955 0
M  V30 18688 N 1847.63 1.24532 0.965897 0
M  V30 18689 C 1848.87 1.08395 1.70572 0
M  V30 18690 C 1849.19 -0.377657 1.91308 0
M  V30 18691 O 1848.46 -1.26935 1.49212 0
M  V30 18692 H 1847.04 0.398123 0.632066 0
M  V30 18693 H 1849.71 1.5648 1.1619 0
M  V30 18694 H 1848.8 1.58342 2.6895 0
M  V30 18695 N 1849.1 -1.16685 1.05936 0
M  V30 18696 C 1850.35 -1.87647 0.784866 0
M  V30 18697 C 1850.7 -1.79941 -0.681098 0
M  V30 18698 O 1850 -1.20171 -1.4923 0
M  V30 18699 C 1850.19 -3.36322 1.20923 0
M  V30 18700 C 1850.02 -3.58501 2.71491 0
M  V30 18701 C 1848.79 -3.74795 3.38906 0
M  V30 18702 C 1850.99 -3.57521 3.69707 0
M  V30 18703 N 1848.97 -3.84889 4.78261 0
M  V30 18704 C 1850.34 -3.73556 4.94829 0
M  V30 18705 C 1852.4 -3.40713 3.63069 0
M  V30 18706 C 1851.1 -3.74522 6.14106 0
M  V30 18707 C 1853.13 -3.4297 4.81794 0
M  V30 18708 C 1852.49 -3.59521 6.05743 0
M  V30 18709 H 1848.59 -0.704437 0.339547 0
M  V30 18710 H 1851.17 -1.40027 1.35279 0
M  V30 18711 H 1849.34 -3.82592 0.669175 0
M  V30 18712 H 1851.07 -3.94932 0.883784 0
M  V30 18713 H 1847.83 -3.74965 2.89306 0
M  V30 18714 H 1848.25 -3.93715 5.50743 0
M  V30 18715 H 1852.89 -3.26847 2.68199 0
M  V30 18716 H 1850.61 -3.8717 7.09313 0
M  V30 18717 H 1854.2 -3.31213 4.78319 0
M  V30 18718 H 1853.08 -3.61182 6.96073 0
M  V30 18719 N 1850.58 -0.841432 -1.33258 0
M  V30 18720 C 1851.83 -0.439027 -1.97991 0
M  V30 18721 C 1852.16 0.999767 -1.66488 0
M  V30 18722 O 1851.44 1.69938 -0.94612 0
M  V30 18723 C 1851.72 -0.663137 -3.53941 0
M  V30 18724 C 1851.57 -2.14939 -3.95122 0
M  V30 18725 C 1852.89 -0.11094 -4.3996 0
M  V30 18726 H 1850.01 -0.160987 -0.719203 0
M  V30 18727 H 1852.65 -1.05742 -1.57856 0
M  V30 18728 H 1850.8 -0.136765 -3.88259 0
M  V30 18729 H 1852.47 -2.74082 -3.71048 0
M  V30 18730 H 1850.72 -2.63293 -3.4476 0
M  V30 18731 H 1851.39 -2.25694 -5.03752 0
M  V30 18732 H 1853.86 -0.560898 -4.12302 0
M  V30 18733 H 1852.74 -0.297416 -5.48094 0
M  V30 18734 H 1853 0.985446 -4.30977 0
M  V30 18735 N 1852.06 1.4581 -0.598108 0
M  V30 18736 C 1852.99 2.33223 0.113747 0
M  V30 18737 C 1853.97 1.46268 0.868312 0
M  V30 18738 O 1855.16 1.75058 0.840737 0
M  V30 18739 C 1852.29 3.28815 1.11795 0
M  V30 18740 C 1851.24 4.25331 0.477223 0
M  V30 18741 C 1850.57 5.10544 1.589 0
M  V30 18742 C 1851.87 5.18894 -0.595518 0
M  V30 18743 H 1853.56 2.92992 -0.616123 0
M  V30 18744 H 1851.11 1.40888 -0.297741 0
M  V30 18745 H 1853.06 3.88832 1.62443 0
M  V30 18746 H 1851.78 2.67185 1.87829 0
M  V30 18747 H 1850.44 3.66599 -0.00831044 0
M  V30 18748 H 1850.09 4.45288 2.33939 0
M  V30 18749 H 1849.79 5.75918 1.16584 0
M  V30 18750 H 1851.31 5.73427 2.09794 0
M  V30 18751 H 1852.73 5.73037 -0.173494 0
M  V30 18752 H 1851.12 5.92694 -0.939873 0
M  V30 18753 H 1852.19 4.61895 -1.47584 0
M  V30 18754 N 1853.54 0.336733 1.53961 0
M  V30 18755 C 1854.45 -0.531812 2.28493 0
M  V30 18756 C 1855.46 -1.11784 1.33343 0
M  V30 18757 O 1856.64 -1.13499 1.66373 0
M  V30 18758 C 1853.7 -1.67031 3.03812 0
M  V30 18759 C 1852.77 -1.11475 4.14574 0
M  V30 18760 C 1852 -2.19898 4.86292 0
M  V30 18761 O 1852.22 -3.40492 4.57625 0
M  V30 18762 O 1851.16 -1.84576 5.72901 0
M  V30 18763 H 1854.98 0.0738624 3.0361 0
M  V30 18764 H 1852.57 0.101996 1.49051 0
M  V30 18765 H 1854.45 -2.33286 3.50936 0
M  V30 18766 H 1853.12 -2.26192 2.31558 0
M  V30 18767 H 1852.03 -0.416915 3.7177 0
M  V30 18768 H 1853.36 -0.568092 4.88911 0
M  V30 18769 N 1855.02 -1.57465 0.0651956 0
M  V30 18770 C 1856.43 -1.80728 -0.468449 0
M  V30 18771 C 1856.78 -0.978581 -1.70054 0
M  V30 18772 O 1855.9 -0.199186 -2.15481 0
M  V30 18773 C 1856.5 -3.27791 -0.856641 0
M  V30 18774 C 1855.06 -3.51923 -1.33519 0
M  V30 18775 C 1854.2 -2.7548 -0.317147 0
M  V30 18776 H 1857.15 -1.5601 0.290955 0
M  V30 18777 H 1857.18 -3.39479 -1.71855 0
M  V30 18778 H 1856.69 -3.88079 0.0402823 0
M  V30 18779 H 1854.79 -2.96932 -2.25083 0
M  V30 18780 H 1854.9 -4.60624 -1.31767 0
M  V30 18781 H 1853.27 -2.4204 -0.793026 0
M  V30 18782 H 1854.05 -3.38502 0.571935 0
M  V30 18783 N 1856.49 0.20831 -1.56217 0
M  V30 18784 C 1857.77 0.955838 -1.70655 0
M  V30 18785 C 1858.15 2.01905 -0.61624 0
M  V30 18786 O 1857.5 2.25405 0.374793 0
M  V30 18787 C 1857.71 1.55427 -3.1248 0
M  V30 18788 C 1859.06 2.04147 -3.72303 0
M  V30 18789 O 1860.08 1.65295 -3.15525 0
M  V30 18790 O 1858.94 2.75597 -4.7192 0
M  V30 18791 H 1856.03 0.447364 -0.695553 0
M  V30 18792 H 1858.58 0.199047 -1.68529 0
M  V30 18793 H 1857.35 0.787224 -3.83299 0
M  V30 18794 H 1856.97 2.37625 -3.18779 0
M  V30 18795 N 1857.97 1.50255 0.475528 0
M  V30 18796 C 1859.22 1.60704 1.22551 0
M  V30 18797 C 1859.54 0.307375 1.92562 0
M  V30 18798 O 1858.81 -0.674885 1.83908 0
M  V30 18799 H 1857.39 0.592176 0.455343 0
M  V30 18800 H 1860.05 1.8701 0.548926 0
M  V30 18801 H 1859.15 2.41596 1.9758 0
M  V30 18802 N 1859.45 -0.728395 1.39758 0
M  V30 18803 C 1860.36 -1.87279 1.41293 0
M  V30 18804 C 1861.38 -1.71271 0.306965 0
M  V30 18805 O 1862.55 -1.93759 0.549502 0
M  V30 18806 C 1859.62 -3.22943 1.2613 0
M  V30 18807 C 1858.68 -3.51297 2.46756 0
M  V30 18808 C 1857.91 -4.80489 2.32307 0
M  V30 18809 O 1858.13 -5.54676 1.33005 0
M  V30 18810 O 1857.07 -5.08891 3.21425 0
M  V30 18811 H 1860.89 -1.88939 2.37773 0
M  V30 18812 H 1858.48 -0.877103 1.20943 0
M  V30 18813 H 1860.36 -4.04003 1.19832 0
M  V30 18814 H 1859.04 -3.22039 0.327492 0
M  V30 18815 H 1857.94 -2.70298 2.58631 0
M  V30 18816 H 1859.28 -3.56986 3.38853 0
M  V30 18817 N 1860.93 -1.25042 -0.959279 0
M  V30 18818 C 1862.15 -1.12339 -1.74341 0
M  V30 18819 C 1862.58 0.319342 -1.85369 0
M  V30 18820 O 1861.94 1.23129 -1.33075 0
M  V30 18821 C 1861.98 -1.77734 -3.13756 0
M  V30 18822 O 1861.09 -1.05383 -3.98708 0
M  V30 18823 H 1860.43 -0.392479 -0.535589 0
M  V30 18824 H 1862.96 -1.65516 -1.20274 0
M  V30 18825 H 1862.97 -1.83832 -3.64239 0
M  V30 18826 H 1861.64 -2.82702 -3.05045 0
M  V30 18827 H 1860.22 -1.07132 -3.57179 0
M  V30 18828 N 1862.41 1.16121 -1.06553 0
M  V30 18829 C 1863.65 1.88387 -0.793066 0
M  V30 18830 C 1864.01 1.79992 0.66835 0
M  V30 18831 O 1865.21 2.47209 1.05552 0
M  V30 18832 C 1863.48 3.33797 -1.27726 0
M  V30 18833 S 1865.04 4.23887 -1.13425 0
M  V30 18834 H 1861.86 0.650229 -0.287616 0
M  V30 18835 H 1864.46 1.40153 -1.36299 0
M  V30 18836 H 1863.17 3.37448 -2.33574 0
M  V30 18837 H 1862.7 3.87082 -0.702203 0
M  V30 18838 H 1864.71 4.96155 -0.0667742 0
M  V30 18839 N 1863.88 0.848487 1.3281 0
M  V30 18840 C 1865.3 0.537529 1.50276 0
M  V30 18841 C 1865.5 -0.93314 1.78591 0
M  V30 18842 O 1864.56 -1.71649 1.85184 0
M  V30 18843 C 1865.87 1.41919 2.65103 0
M  V30 18844 C 1867.42 1.41897 2.78988 0
M  V30 18845 C 1867.89 2.2857 3.96888 0
M  V30 18846 N 1869.38 2.26331 4.04139 0
M  V30 18847 C 1870.12 2.90127 4.94585 0
M  V30 18848 N 1869.61 3.63011 5.9008 0
M  V30 18849 N 1871.41 2.79547 4.87658 0
M  V30 18850 H 1863.56 1.80038 1.12695 0
M  V30 18851 H 1865.82 0.768636 0.554889 0
M  V30 18852 H 1865.53 2.4647 2.50889 0
M  V30 18853 H 1865.4 1.10213 3.60739 0
M  V30 18854 H 1867.79 0.381128 2.92628 0
M  V30 18855 H 1867.87 1.77614 1.84084 0
M  V30 18856 H 1867.51 3.32418 3.84006 0
M  V30 18857 H 1867.44 1.90188 4.91056 0
M  V30 18858 H 1869.93 1.73337 3.35802 0
M  V30 18859 H 1870.25 4.08872 6.55777 0
M  V30 18860 H 1868.59 3.67119 5.90126 0
M  V30 18861 H 1871.78 2.22162 4.12021 0
M  V30 18862 H 1871.96 3.29548 5.57944 0
M  V30 18863 N 1865.36 -1.4549 0.605832 0
M  V30 18864 C 1866.59 -2.07135 0.104838 0
M  V30 18865 C 1867.01 -1.4478 -1.20085 0
M  V30 18866 O 1866.37 -0.539875 -1.73075 0
M  V30 18867 C 1866.42 -3.60593 -0.0231858 0
M  V30 18868 O 1865.52 -3.98173 -1.07386 0
M  V30 18869 H 1864.86 -0.659945 0.0732691 0
M  V30 18870 H 1867.39 -1.8677 0.835343 0
M  V30 18871 H 1867.4 -4.07396 -0.221964 0
M  V30 18872 H 1866.08 -4.05364 0.930211 0
M  V30 18873 H 1864.66 -3.63044 -0.851689 0
M  V30 18874 N 1866.84 -0.344893 -1.5378 0
M  V30 18875 C 1867.77 0.503579 -2.28005 0
M  V30 18876 C 1868.75 1.10149 -1.29619 0
M  V30 18877 O 1869.94 1.12263 -1.58463 0
M  V30 18878 C 1867.07 1.65398 -3.05386 0
M  V30 18879 C 1866.02 1.18434 -4.11288 0
M  V30 18880 C 1865.35 2.42336 -4.76631 0
M  V30 18881 C 1866.65 0.283853 -5.21528 0
M  V30 18882 H 1868.34 -0.115619 -2.99177 0
M  V30 18883 H 1865.89 -0.0570472 -1.43887 0
M  V30 18884 H 1867.84 2.25401 -3.56051 0
M  V30 18885 H 1866.56 2.3001 -2.31869 0
M  V30 18886 H 1865.22 0.607115 -3.61538 0
M  V30 18887 H 1864.87 3.05358 -3.99707 0
M  V30 18888 H 1864.57 2.11594 -5.4818 0
M  V30 18889 H 1866.09 3.03063 -5.3008 0
M  V30 18890 H 1867.51 0.790766 -5.6782 0
M  V30 18891 H 1865.91 0.0682509 -6.00061 0
M  V30 18892 H 1866.98 -0.679653 -4.80113 0
M  V30 18893 N 1868.32 1.57428 -0.0735454 0
M  V30 18894 C 1869.6 1.84962 0.636265 0
M  V30 18895 C 1869.98 0.966341 1.87683 0
M  V30 18896 O 1869.32 0.0330837 2.28476 0
M  V30 18897 C 1869.53 3.35184 0.972251 0
M  V30 18898 C 1870.88 4.02735 1.34499 0
M  V30 18899 O 1871.91 3.3994 1.06393 0
M  V30 18900 O 1870.76 5.13495 1.87043 0
M  V30 18901 H 1867.86 0.764169 0.316187 0
M  V30 18902 H 1870.4 1.69377 -0.104609 0
M  V30 18903 H 1869.18 3.91194 0.0912319 0
M  V30 18904 H 1868.8 3.56038 1.76983 0
M  V30 18905 N 1869.8 -0.200022 1.56326 0
M  V30 18906 C 1871.21 -0.765141 1.70301 0
M  V30 18907 C 1871.56 -1.84066 0.679277 0
M  V30 18908 O 1870.68 -2.15768 -0.165308 0
M  V30 18909 C 1871.28 -1.39466 3.08763 0
M  V30 18910 C 1869.84 -1.90692 3.2452 0
M  V30 18911 C 1868.98 -0.77502 2.66249 0
M  V30 18912 H 1871.94 0.024977 1.5868 0
M  V30 18913 H 1871.96 -2.26396 3.05819 0
M  V30 18914 H 1871.47 -0.61165 3.8325 0
M  V30 18915 H 1869.57 -2.71728 2.54941 0
M  V30 18916 H 1869.68 -2.0721 4.31973 0
M  V30 18917 H 1868.05 -1.18802 2.25296 0
M  V30 18918 H 1868.83 -0.00432851 3.433 0
M  V30 18919 N 1871.27 -1.50505 -0.467553 0
M  V30 18920 C 1872.52 -1.61671 -1.21938 0
M  V30 18921 C 1872.85 -0.318688 -1.91871 0
M  V30 18922 O 1872.1 0.695639 -1.82919 0
M  V30 18923 C 1872.4 -2.74913 -2.28381 0
M  V30 18924 C 1872.07 -4.1527 -1.75674 0
M  V30 18925 C 1870.73 -4.5346 -1.6102 0
M  V30 18926 C 1873.08 -5.02978 -1.3661 0
M  V30 18927 C 1870.41 -5.77094 -1.05732 0
M  V30 18928 C 1872.76 -6.27163 -0.827621 0
M  V30 18929 C 1871.43 -6.64152 -0.667746 0
M  V30 18930 H 1870.7 -0.591596 -0.446201 0
M  V30 18931 H 1873.34 -1.84449 -0.514858 0
M  V30 18932 H 1871.65 -2.46237 -3.04754 0
M  V30 18933 H 1873.35 -2.80756 -2.86317 0
M  V30 18934 H 1869.94 -3.85144 -1.88047 0
M  V30 18935 H 1874.12 -4.74103 -1.46764 0
M  V30 18936 H 1869.38 -6.04424 -0.920946 0
M  V30 18937 H 1873.55 -6.94484 -0.516286 0
M  V30 18938 H 1871.18 -7.5983 -0.237178 0
M  V30 18939 N 1872.75 0.720973 -1.40142 0
M  V30 18940 C 1873.7 1.83506 -1.3998 0
M  V30 18941 C 1874.67 1.64092 -0.257489 0
M  V30 18942 O 1875.85 1.85302 -0.454738 0
M  V30 18943 C 1872.99 3.21163 -1.26288 0
M  V30 18944 C 1872.11 3.52185 -2.5018 0
M  V30 18945 C 1871.24 4.79318 -2.2897 0
M  V30 18946 C 1870.28 5.03228 -3.48465 0
M  V30 18947 N 1869.42 6.21572 -3.26485 0
M  V30 18948 H 1874.26 1.82979 -2.35208 0
M  V30 18949 H 1871.8 0.893911 -1.16823 0
M  V30 18950 H 1873.75 4.00646 -1.16357 0
M  V30 18951 H 1872.38 3.20931 -0.346817 0
M  V30 18952 H 1871.44 2.67297 -2.70659 0
M  V30 18953 H 1872.75 3.65765 -3.39142 0
M  V30 18954 H 1871.9 5.66809 -2.16362 0
M  V30 18955 H 1870.64 4.67938 -1.37424 0
M  V30 18956 H 1869.65 4.14194 -3.61557 0
M  V30 18957 H 1870.87 5.16484 -4.40932 0
M  V30 18958 H 1868.82 6.11453 -2.37616 0
M  V30 18959 H 1868.73 6.35804 -4.0901 0
M  V30 18960 H 1870 7.11865 -3.17599 0
M  V30 18961 N 1874.23 1.25549 0.952634 0
M  V30 18962 C 1875.64 1.09496 1.5122 0
M  V30 18963 C 1875.99 -0.328639 1.93428 0
M  V30 18964 O 1875.12 -1.21884 1.78811 0
M  V30 18965 C 1875.71 1.9815 2.74813 0
M  V30 18966 C 1874.27 1.86275 3.27076 0
M  V30 18967 C 1873.42 1.92181 1.99904 0
M  V30 18968 H 1876.37 1.38806 0.769318 0
M  V30 18969 H 1876.39 1.52265 3.48705 0
M  V30 18970 H 1875.9 3.01754 2.44062 0
M  V30 18971 H 1874 0.855627 3.62643 0
M  V30 18972 H 1874.12 2.71194 3.94957 0
M  V30 18973 H 1872.48 1.36092 2.15293 0
M  V30 18974 H 1873.26 2.97393 1.71499 0
M  V30 18975 N 1875.71 -1.15554 1.07168 0
M  V30 18976 C 1876.96 -1.86296 0.793718 0
M  V30 18977 C 1877.28 -1.8222 -0.680145 0
M  V30 18978 O 1876.54 -1.23899 -1.51485 0
M  V30 18979 C 1876.84 -3.3502 1.24484 0
M  V30 18980 C 1876.5 -3.59292 2.72434 0
M  V30 18981 C 1875.17 -3.65625 3.12844 0
M  V30 18982 C 1877.52 -3.69147 3.6794 0
M  V30 18983 C 1874.85 -3.79323 4.47584 0
M  V30 18984 C 1877.2 -3.84368 5.02438 0
M  V30 18985 C 1875.86 -3.88946 5.42473 0
M  V30 18986 H 1875.13 -0.681707 0.290442 0
M  V30 18987 H 1877.78 -1.36575 1.34236 0
M  V30 18988 H 1876.08 -3.86934 0.615546 0
M  V30 18989 H 1877.78 -3.88158 1.00669 0
M  V30 18990 H 1874.37 -3.55002 2.40149 0
M  V30 18991 H 1878.55 -3.63556 3.37847 0
M  V30 18992 H 1873.81 -3.81124 4.78074 0
M  V30 18993 H 1877.98 -3.90935 5.76318 0
M  V30 18994 H 1875.61 -3.99312 6.4688 0
M  V30 18995 N 1877.19 -0.855519 -1.32358 0
M  V30 18996 C 1878.44 -0.455543 -1.96488 0
M  V30 18997 C 1878.75 0.99419 -1.68449 0
M  V30 18998 O 1879.96 1.49964 -2.26325 0
M  V30 18999 C 1878.41 -0.763678 -3.51704 0
M  V30 19000 C 1878.02 -2.2292 -3.88601 0
M  V30 19001 C 1879.76 -0.431467 -4.22302 0
M  V30 19002 C 1877.67 -2.48051 -5.36866 0
M  V30 19003 H 1876.6 -0.166617 -0.73536 0
M  V30 19004 H 1879.25 -1.04642 -1.50739 0
M  V30 19005 H 1877.63 -0.102224 -3.95868 0
M  V30 19006 H 1878.81 -2.93251 -3.55444 0
M  V30 19007 H 1877.12 -2.52602 -3.31031 0
M  V30 19008 H 1879.72 -0.596641 -5.31361 0
M  V30 19009 H 1880.06 0.62698 -4.11552 0
M  V30 19010 H 1880.6 -1.04885 -3.83724 0
M  V30 19011 H 1877.33 -3.52523 -5.52637 0
M  V30 19012 H 1876.85 -1.82298 -5.71426 0
M  V30 19013 H 1878.53 -2.32044 -6.03957 0
M  V30 19014 N 1878.67 1.45167 -0.61354 0
M  V30 19015 C 1879.91 2.01407 -0.10861 0
M  V30 19016 C 1880.23 1.48701 1.27072 0
M  V30 19017 O 1881.43 1.96956 1.8687 0
M  V30 19018 C 1879.89 3.59614 -0.143466 0
M  V30 19019 C 1879.5 4.21317 -1.52302 0
M  V30 19020 C 1881.24 4.23396 0.305912 0
M  V30 19021 C 1879.15 5.71694 -1.51393 0
M  V30 19022 H 1878.08 0.7531 -0.0368359 0
M  V30 19023 H 1880.73 1.66575 -0.769748 0
M  V30 19024 H 1879.11 3.91664 0.584438 0
M  V30 19025 H 1880.29 4.00832 -2.2731 0
M  V30 19026 H 1878.6 3.69753 -1.91499 0
M  V30 19027 H 1881.2 5.33668 0.331977 0
M  V30 19028 H 1881.54 3.9449 1.32978 0
M  V30 19029 H 1882.07 3.96086 -0.36892 0
M  V30 19030 H 1878.81 6.05308 -2.5156 0
M  V30 19031 H 1878.33 5.94353 -0.80652 0
M  V30 19032 H 1880.01 6.35003 -1.24017 0
M  V30 19033 N 1880.14 0.353044 1.53595 0
M  V30 19034 C 1881.39 -0.240548 2.01066 0
M  V30 19035 C 1881.72 -1.49793 1.24065 0
M  V30 19036 O 1880.97 -1.93083 0.318982 0
M  V30 19037 C 1881.27 -0.590811 3.52483 0
M  V30 19038 C 1880.94 0.570791 4.47273 0
M  V30 19039 C 1879.6 0.889548 4.72906 0
M  V30 19040 C 1881.95 1.34962 5.03423 0
M  V30 19041 C 1879.28 1.98933 5.51944 0
M  V30 19042 C 1881.63 2.43972 5.83661 0
M  V30 19043 C 1880.3 2.76397 6.07586 0
M  V30 19044 H 1879.57 -0.0880227 0.735753 0
M  V30 19045 H 1882.21 0.48292 1.85311 0
M  V30 19046 H 1880.52 -1.39512 3.6612 0
M  V30 19047 H 1882.22 -1.06213 3.86678 0
M  V30 19048 H 1878.81 0.3123 4.27461 0
M  V30 19049 H 1882.99 1.11661 4.83576 0
M  V30 19050 H 1878.25 2.24468 5.68704 0
M  V30 19051 H 1882.42 3.04746 6.26181 0
M  V30 19052 H 1880.05 3.61741 6.68616 0
M  V30 19053 N 1881.62 -1.57387 0.0818932 0
M  V30 19054 C 1882.85 -1.9862 -0.597066 0
M  V30 19055 C 1883.27 -0.960277 -1.61741 0
M  V30 19056 O 1882.63 0.0728948 -1.81153 0
M  V30 19057 C 1882.68 -3.3886 -1.23315 0
M  V30 19058 O 1881.78 -3.38962 -2.34901 0
M  V30 19059 H 1881.12 -0.646208 -0.152679 0
M  V30 19060 H 1883.65 -2.03978 0.159398 0
M  V30 19061 H 1883.66 -3.76266 -1.5776 0
M  V30 19062 H 1882.34 -4.13056 -0.485551 0
M  V30 19063 H 1880.91 -3.13337 -2.02174 0
M  V30 19064 N 1883.1 0.191729 -1.56429 0
M  V30 19065 C 1884.05 1.25706 -1.95706 0
M  V30 19066 C 1885.04 1.46938 -0.842948 0
M  V30 19067 O 1886.25 1.47759 -1.02797 0
M  V30 19068 H 1882.62 0.422099 -0.622364 0
M  V30 19069 H 1884.59 0.8988 -2.84542 0
M  V30 19070 C 1883.34 2.59366 -2.3157 0
M  V30 19071 H 1882.67 2.43845 -3.16827 0
M  V30 19072 H 1884.11 3.32646 -2.62912 0
M  V30 19073 C 1882.56 3.16609 -1.15155 0
M  V30 19074 O 1883.09 3.9941 -0.428355 0
M  V30 19075 N 1881.3 2.75402 -0.927467 0
M  V30 19076 H 1880.85 2.08172 -1.5173 0
M  V30 19077 H 1880.81 3.1404 -0.150348 0
M  V30 19078 N 1884.58 1.50751 0.459565 0
M  V30 19079 C 1885.99 1.38432 0.794269 0
M  V30 19080 C 1886.19 0.449353 1.96426 0
M  V30 19081 O 1885.25 -0.103761 2.52287 0
M  V30 19082 C 1886.56 2.80034 1.09551 0
M  V30 19083 C 1888.11 2.8903 1.20127 0
M  V30 19084 C 1888.59 4.3149 1.53558 0
M  V30 19085 N 1890.08 4.34494 1.60527 0
M  V30 19086 C 1890.81 5.41732 1.87921 0
M  V30 19087 N 1890.31 6.59161 2.13258 0
M  V30 19088 N 1892.1 5.29187 1.89519 0
M  V30 19089 H 1884.25 2.10106 -0.311312 0
M  V30 19090 H 1886.51 0.944884 -0.0767974 0
M  V30 19091 H 1886.22 3.50342 0.308751 0
M  V30 19092 H 1886.09 3.17992 2.02882 0
M  V30 19093 H 1888.48 2.18934 1.97869 0
M  V30 19094 H 1888.56 2.546 0.247486 0
M  V30 19095 H 1888.21 5.02128 0.763522 0
M  V30 19096 H 1888.14 4.63416 2.50106 0
M  V30 19097 H 1890.63 3.49824 1.42939 0
M  V30 19098 H 1890.94 7.3669 2.33468 0
M  V30 19099 H 1889.29 6.62315 2.10626 0
M  V30 19100 H 1892.48 4.36439 1.69229 0
M  V30 19101 H 1892.65 6.12846 2.10532 0
M  V30 19102 N 1886.06 -0.713531 1.40522 0
M  V30 19103 C 1887.01 -1.81927 1.37429 0
M  V30 19104 C 1887.99 -1.58922 0.251499 0
M  V30 19105 O 1889.18 -1.7006 0.490768 0
M  V30 19106 C 1886.31 -3.20074 1.24127 0
M  V30 19107 C 1885.4 -3.48835 2.41195 0
M  V30 19108 N 1885.79 -3.484 3.66676 0
M  V30 19109 C 1884.09 -3.79302 2.34619 0
M  V30 19110 C 1884.79 -3.75562 4.44217 0
M  V30 19111 N 1883.76 -3.94413 3.74084 0
M  V30 19112 H 1887.56 -1.79927 2.32387 0
M  V30 19113 H 1885.08 -0.912746 1.34323 0
M  V30 19114 H 1887.08 -3.99258 1.19993 0
M  V30 19115 H 1885.74 -3.23298 0.301379 0
M  V30 19116 H 1886.75 -3.29201 3.99809 0
M  V30 19117 H 1883.42 -3.90004 1.49007 0
M  V30 19118 H 1884.81 -3.81513 5.5308 0
M  V30 19119 N 1887.53 -1.26053 -0.945962 0
M  V30 19120 C 1888.44 -1.08959 -2.07762 0
M  V30 19121 C 1889.46 -0.0243726 -1.73983 0
M  V30 19122 O 1890.64 -0.227113 -2.00115 0
M  V30 19123 C 1887.7 -0.719365 -3.39155 0
M  V30 19124 C 1886.76 -1.86347 -3.86747 0
M  V30 19125 C 1885.99 -1.51082 -5.11869 0
M  V30 19126 O 1886.22 -0.410377 -5.68922 0
M  V30 19127 O 1885.15 -2.34395 -5.54385 0
M  V30 19128 H 1888.98 -2.03884 -2.25089 0
M  V30 19129 H 1886.56 -1.05071 -1.0621 0
M  V30 19130 H 1888.44 -0.525412 -4.18112 0
M  V30 19131 H 1887.12 0.20054 -3.23078 0
M  V30 19132 H 1886.03 -2.11235 -3.08756 0
M  V30 19133 H 1887.36 -2.76293 -4.07336 0
M  V30 19134 N 1889.01 1.14984 -1.07779 0
M  V30 19135 C 1890.26 1.85219 -0.798561 0
M  V30 19136 C 1890.57 1.83476 0.677935 0
M  V30 19137 O 1891.78 2.49436 1.0721 0
M  V30 19138 C 1890.24 3.32454 -1.37849 0
M  V30 19139 C 1889.84 3.42631 -2.88631 0
M  V30 19140 C 1891.59 4.07843 -1.17747 0
M  V30 19141 C 1889.49 4.8404 -3.39794 0
M  V30 19142 H 1888.42 0.693872 -0.295054 0
M  V30 19143 H 1891.08 1.29668 -1.2984 0
M  V30 19144 H 1889.46 3.87703 -0.806374 0
M  V30 19145 H 1890.63 2.97466 -3.51925 0
M  V30 19146 H 1888.95 2.80691 -3.07573 0
M  V30 19147 H 1891.54 5.1221 -1.53444 0
M  V30 19148 H 1891.89 4.16136 -0.116815 0
M  V30 19149 H 1892.42 3.58876 -1.71618 0
M  V30 19150 H 1889.16 4.80932 -4.45404 0
M  V30 19151 H 1888.68 5.29769 -2.81256 0
M  V30 19152 H 1890.36 5.5291 -3.36005 0
M  V30 19153 N 1890.49 0.862526 1.31902 0
M  V30 19154 C 1891.91 0.553438 1.49697 0
M  V30 19155 C 1892.11 -0.914146 1.79571 0
M  V30 19156 O 1891.16 -1.69675 1.86994 0
M  V30 19157 C 1892.47 1.44722 2.63583 0
M  V30 19158 C 1894.02 1.44848 2.77467 0
M  V30 19159 C 1894.5 2.32766 3.94441 0
M  V30 19160 N 1895.99 2.30605 4.01716 0
M  V30 19161 C 1896.72 2.95356 4.9148 0
M  V30 19162 N 1896.22 3.6925 5.86197 0
M  V30 19163 N 1898.01 2.84703 4.84665 0
M  V30 19164 H 1890.16 1.81223 1.10779 0
M  V30 19165 H 1892.43 0.774478 0.546706 0
M  V30 19166 H 1892.13 2.49117 2.48261 0
M  V30 19167 H 1892.01 1.14033 3.5955 0
M  V30 19168 H 1894.39 0.412143 2.92208 0
M  V30 19169 H 1894.47 1.79557 1.8219 0
M  V30 19170 H 1894.12 3.36472 3.80459 0
M  V30 19171 H 1894.05 1.95386 4.89011 0
M  V30 19172 H 1896.54 1.76889 3.33944 0
M  V30 19173 H 1896.85 4.15804 6.51404 0
M  V30 19174 H 1895.2 3.73358 5.86199 0
M  V30 19175 H 1898.39 2.2652 4.09642 0
M  V30 19176 H 1898.56 3.35447 5.54418 0
M  V30 19177 N 1891.97 -1.4484 0.62123 0
M  V30 19178 C 1893.38 -1.57016 0.286009 0
M  V30 19179 C 1893.58 -1.6104 -1.21113 0
M  V30 19180 O 1892.64 -1.54807 -1.99477 0
M  V30 19181 C 1893.95 -2.84652 0.969209 0
M  V30 19182 C 1895.5 -2.98349 0.946414 0
M  V30 19183 C 1895.98 -4.28773 1.60989 0
M  V30 19184 N 1897.47 -4.35564 1.57601 0
M  V30 19185 C 1898.2 -5.3518 2.0584 0
M  V30 19186 N 1897.7 -6.41256 2.62226 0
M  V30 19187 N 1899.49 -5.26625 1.96527 0
M  V30 19188 H 1891.64 -1.40471 1.59316 0
M  V30 19189 H 1893.91 -0.672493 0.668174 0
M  V30 19190 H 1893.61 -2.87629 2.02392 0
M  V30 19191 H 1893.49 -3.7386 0.500859 0
M  V30 19192 H 1895.87 -2.94931 -0.0997935 0
M  V30 19193 H 1895.95 -2.10516 1.45316 0
M  V30 19194 H 1895.6 -4.3295 2.65549 0
M  V30 19195 H 1895.53 -5.15447 1.07805 0
M  V30 19196 H 1898.02 -3.59519 1.16424 0
M  V30 19197 H 1898.33 -7.13536 2.96792 0
M  V30 19198 H 1896.68 -6.41969 2.66272 0
M  V30 19199 H 1899.87 -4.42664 1.52206 0
M  V30 19200 H 1900.04 -6.04107 2.34434 0
M  V30 19201 N 1893.45 -0.361184 -1.53405 0
M  V30 19202 C 1894.7 0.230977 -2.00373 0
M  V30 19203 C 1895.01 1.50228 -1.25264 0
M  V30 19204 O 1896.21 2.17277 -1.62798 0
M  V30 19205 C 1894.67 0.462153 -3.5692 0
M  V30 19206 C 1894.28 -0.794263 -4.40903 0
M  V30 19207 C 1896.02 1.01221 -4.12255 0
M  V30 19208 C 1893.93 -0.532914 -5.88994 0
M  V30 19209 H 1892.86 0.0900886 -0.748599 0
M  V30 19210 H 1895.51 -0.479245 -1.77131 0
M  V30 19211 H 1893.89 1.23352 -3.76298 0
M  V30 19212 H 1895.07 -1.56809 -4.33298 0
M  V30 19213 H 1893.38 -1.26722 -3.96649 0
M  V30 19214 H 1895.98 1.22299 -5.20526 0
M  V30 19215 H 1896.32 1.97304 -3.66575 0
M  V30 19216 H 1896.85 0.301113 -3.96659 0
M  V30 19217 H 1893.59 -1.46395 -6.38943 0
M  V30 19218 H 1893.11 0.202496 -5.99458 0
M  V30 19219 H 1894.79 -0.156772 -6.4681 0
M  V30 19220 N 1894.92 1.57341 -0.0902386 0
M  V30 19221 C 1896.2 1.85627 0.616611 0
M  V30 19222 C 1896.58 0.986193 1.86648 0
M  V30 19223 O 1895.93 0.0573148 2.28428 0
M  V30 19224 C 1896.14 3.36196 0.936645 0
M  V30 19225 C 1897.49 4.04139 1.30219 0
M  V30 19226 O 1898.51 3.41049 1.02781 0
M  V30 19227 O 1897.37 5.1545 1.81586 0
M  V30 19228 H 1894.46 0.76748 0.308065 0
M  V30 19229 H 1897.01 1.69257 -0.122568 0
M  V30 19230 H 1895.78 3.91268 0.0497354 0
M  V30 19231 H 1895.41 3.57895 1.73197 0
M  V30 19232 N 1896.4 -0.183431 1.56529 0
M  V30 19233 C 1897.33 -1.22973 1.98494 0
M  V30 19234 C 1898.31 -1.46837 0.858653 0
M  V30 19235 O 1899.5 -1.58377 1.12385 0
M  V30 19236 C 1896.63 -2.57138 2.33446 0
M  V30 19237 C 1895.58 -2.47865 3.48922 0
M  V30 19238 C 1894.91 -3.8641 3.69582 0
M  V30 19239 C 1896.21 -1.99371 4.82751 0
M  V30 19240 H 1897.9 -0.880938 2.86147 0
M  V30 19241 H 1895.45 -0.422321 1.37668 0
M  V30 19242 H 1897.4 -3.30527 2.614 0
M  V30 19243 H 1896.13 -2.93781 1.42689 0
M  V30 19244 H 1894.78 -1.76932 3.21077 0
M  V30 19245 H 1894.43 -4.20426 2.76136 0
M  V30 19246 H 1894.13 -3.81077 4.47274 0
M  V30 19247 H 1895.66 -4.61403 3.99924 0
M  V30 19248 H 1897.07 -2.62526 5.0966 0
M  V30 19249 H 1895.47 -2.05014 5.63994 0
M  V30 19250 H 1896.54 -0.947442 4.75554 0
M  V30 19251 N 1897.88 -1.50992 -0.451564 0
M  V30 19252 C 1898.83 -1.67662 -1.5451 0
M  V30 19253 C 1899.81 -0.53081 -1.51892 0
M  V30 19254 O 1901.01 -0.786103 -1.58586 0
M  V30 19255 C 1898.14 -1.79204 -2.92815 0
M  V30 19256 C 1897.22 -2.99524 -3.00244 0
M  V30 19257 N 1897.61 -4.22917 -2.77443 0
M  V30 19258 C 1895.91 -2.98485 -3.31395 0
M  V30 19259 C 1896.61 -5.04058 -2.90346 0
M  V30 19260 N 1895.59 -4.3841 -3.21399 0
M  V30 19261 H 1899.39 -2.60742 -1.35612 0
M  V30 19262 H 1896.9 -1.48444 -0.658639 0
M  V30 19263 H 1898.9 -1.89254 -3.71468 0
M  V30 19264 H 1897.56 -0.872954 -3.12745 0
M  V30 19265 H 1898.57 -4.52096 -2.52645 0
M  V30 19266 H 1895.25 -2.16153 -3.57189 0
M  V30 19267 H 1896.64 -6.12238 -2.76792 0
M  V30 19268 N 1899.36 0.706069 -1.40899 0
M  V30 19269 C 1900.31 1.82011 -1.41918 0
M  V30 19270 C 1901.28 1.6381 -0.274879 0
M  V30 19271 O 1902.46 1.84809 -0.474366 0
M  V30 19272 C 1899.6 3.19805 -1.29687 0
M  V30 19273 C 1898.71 3.49512 -2.53901 0
M  V30 19274 C 1897.85 4.76863 -2.34041 0
M  V30 19275 C 1896.89 4.99504 -3.53783 0
M  V30 19276 N 1896.02 6.18074 -3.33059 0
M  V30 19277 H 1900.86 1.80474 -2.37135 0
M  V30 19278 H 1898.4 0.881471 -1.17765 0
M  V30 19279 H 1900.36 3.99389 -1.206 0
M  V30 19280 H 1898.99 3.20546 -0.380837 0
M  V30 19281 H 1898.04 2.64411 -2.73479 0
M  V30 19282 H 1899.35 3.62147 -3.43002 0
M  V30 19283 H 1898.51 5.64482 -2.22361 0
M  V30 19284 H 1897.25 4.66454 -1.42379 0
M  V30 19285 H 1896.25 4.10336 -3.65929 0
M  V30 19286 H 1897.48 5.11779 -4.46385 0
M  V30 19287 H 1895.42 6.08898 -2.44088 0
M  V30 19288 H 1895.34 6.3143 -4.15731 0
M  V30 19289 H 1896.61 7.08456 -3.25131 0
M  V30 19290 N 1900.84 1.26553 0.939264 0
M  V30 19291 C 1902.08 1.11989 1.68235 0
M  V30 19292 C 1902.41 -0.336993 1.92066 0
M  V30 19293 O 1901.68 -1.23742 1.51871 0
M  V30 19294 H 1900.26 0.41144 0.623479 0
M  V30 19295 H 1902.92 1.58909 1.12845 0
M  V30 19296 H 1902.01 1.64011 2.65531 0
M  V30 19297 N 1902.31 -1.14411 1.08387 0
M  V30 19298 C 1903.59 -1.8162 0.726188 0
M  V30 19299 C 1903.97 -1.95755 -0.790129 0
M  V30 19300 O 1903.32 -1.51725 -1.70856 0
M  V30 19301 C 1903.53 -3.17321 1.45287 0
M  V30 19302 C 1904.88 -3.92818 1.6118 0
M  V30 19303 O 1905.9 -3.2691 1.41451 0
M  V30 19304 O 1904.76 -5.1101 1.93728 0
M  V30 19305 H 1901.85 -0.785182 0.25965 0
M  V30 19306 H 1904.4 -1.21431 1.18544 0
M  V30 19307 H 1903.17 -3.02195 2.48584 0
M  V30 19308 H 1902.8 -3.85203 0.985093 0
M  V30 19309 N 1903.79 -0.869509 -1.31443 0
M  V30 19310 C 1905.02 -0.49395 -2.00608 0
M  V30 19311 C 1905.43 0.917973 -1.65439 0
M  V30 19312 O 1904.77 1.61281 -0.879447 0
M  V30 19313 C 1904.84 -0.570703 -3.54941 0
M  V30 19314 C 1904.5 -1.94416 -4.13584 0
M  V30 19315 C 1905.5 -2.9116 -4.30722 0
M  V30 19316 C 1903.18 -2.24535 -4.49321 0
M  V30 19317 C 1905.18 -4.16167 -4.82788 0
M  V30 19318 C 1902.86 -3.49791 -5.01089 0
M  V30 19319 C 1903.86 -4.45422 -5.17773 0
M  V30 19320 O 1903.55 -5.68458 -5.68429 0
M  V30 19321 H 1903.28 -0.190986 -0.64846 0
M  V30 19322 H 1905.83 -1.17233 -1.68658 0
M  V30 19323 H 1904.06 0.164593 -3.8635 0
M  V30 19324 H 1905.75 -0.208637 -4.05363 0
M  V30 19325 H 1906.52 -2.69199 -4.03431 0
M  V30 19326 H 1902.4 -1.50876 -4.35612 0
M  V30 19327 H 1905.94 -4.90818 -4.95725 0
M  V30 19328 H 1901.84 -3.71595 -5.27814 0
M  V30 19329 H 1902.61 -5.70623 -5.86798 0
M  V30 19330 N 1905.27 1.44508 -0.628902 0
M  V30 19331 C 1906.5 2.06942 -0.137778 0
M  V30 19332 C 1906.92 1.46672 1.17766 0
M  V30 19333 O 1906.28 0.567342 1.72194 0
M  V30 19334 C 1906.33 3.60584 -0.0341843 0
M  V30 19335 O 1905.43 3.99831 1.01038 0
M  V30 19336 H 1904.77 0.658696 -0.083759 0
M  V30 19337 H 1907.3 1.85418 -0.864951 0
M  V30 19338 H 1907.31 4.07697 0.157123 0
M  V30 19339 H 1905.99 4.03833 -0.994583 0
M  V30 19340 H 1904.56 3.64353 0.793824 0
M  V30 19341 N 1906.75 0.369315 1.53212 0
M  V30 19342 C 1908 -0.219533 2.01608 0
M  V30 19343 C 1908.33 -1.48115 1.25601 0
M  V30 19344 O 1907.6 -1.91311 0.350762 0
M  V30 19345 C 1907.89 -0.507713 3.56503 0
M  V30 19346 C 1907.74 0.767792 4.43199 0
M  V30 19347 C 1909.06 -1.30674 4.20253 0
M  V30 19348 H 1906.18 -0.0783156 0.732827 0
M  V30 19349 H 1908.82 0.494943 1.8344 0
M  V30 19350 H 1906.97 -1.11637 3.72115 0
M  V30 19351 H 1908.64 1.4052 4.39377 0
M  V30 19352 H 1906.88 1.38737 4.11017 0
M  V30 19353 H 1907.56 0.521063 5.49535 0
M  V30 19354 H 1910.03 -0.791822 4.08497 0
M  V30 19355 H 1908.91 -1.47712 5.28652 0
M  V30 19356 H 1909.17 -2.31631 3.76562 0
M  V30 19357 N 1908.23 -1.57291 0.0985816 0
M  V30 19358 C 1909.16 -2.17239 -0.856131 0
M  V30 19359 C 1910.14 -1.10669 -1.29176 0
M  V30 19360 O 1911.32 -1.38821 -1.35803 0
M  V30 19361 C 1908.45 -2.75551 -2.11398 0
M  V30 19362 C 1907.41 -3.87524 -1.81685 0
M  V30 19363 C 1906.73 -4.32553 -3.14327 0
M  V30 19364 C 1908.03 -5.10562 -1.10108 0
M  V30 19365 H 1909.73 -2.97268 -0.356657 0
M  V30 19366 H 1907.27 -1.42992 -0.170108 0
M  V30 19367 H 1909.23 -3.16141 -2.78627 0
M  V30 19368 H 1907.95 -1.92781 -2.63634 0
M  V30 19369 H 1906.61 -3.47478 -1.16853 0
M  V30 19370 H 1906.26 -3.46669 -3.64458 0
M  V30 19371 H 1905.96 -5.08049 -2.95228 0
M  V30 19372 H 1907.48 -4.7578 -3.82709 0
M  V30 19373 H 1908.9 -5.483 -1.67453 0
M  V30 19374 H 1907.29 -5.91509 -1.01176 0
M  V30 19375 H 1908.36 -4.84827 -0.0844041 0
M  V30 19376 N 1909.71 0.175127 -1.56624 0
M  V30 19377 C 1910.95 0.89369 -1.82047 0
M  V30 19378 C 1911.28 1.82061 -0.675831 0
M  V30 19379 O 1910.56 1.91808 0.322453 0
M  V30 19380 C 1910.84 1.69266 -3.17838 0
M  V30 19381 C 1910.7 0.789122 -4.42824 0
M  V30 19382 C 1912.01 2.66115 -3.50529 0
M  V30 19383 H 1909.13 0.323454 -0.662228 0
M  V30 19384 H 1911.78 0.160077 -1.89324 0
M  V30 19385 H 1909.93 2.31808 -3.11765 0
M  V30 19386 H 1911.6 0.17687 -4.60961 0
M  V30 19387 H 1909.84 0.0969508 -4.33692 0
M  V30 19388 H 1910.51 1.38358 -5.34379 0
M  V30 19389 H 1912.99 2.137 -3.57031 0
M  V30 19390 H 1911.86 3.19087 -4.46626 0
M  V30 19391 H 1912.12 3.4613 -2.75038 0
M  V30 19392 N 1911.18 1.5123 0.44355 0
M  V30 19393 C 1912.59 1.56137 1.02362 0
M  V30 19394 C 1912.95 0.381135 1.92462 0
M  V30 19395 O 1912.07 -0.502817 2.10477 0
M  V30 19396 C 1912.67 2.82967 1.8632 0
M  V30 19397 C 1911.22 2.90466 2.39388 0
M  V30 19398 C 1910.37 2.50735 1.18438 0
M  V30 19399 H 1913.32 1.57096 0.22506 0
M  V30 19400 H 1913.34 2.66378 2.71704 0
M  V30 19401 H 1912.86 3.68848 1.20717 0
M  V30 19402 H 1910.96 2.09 3.08463 0
M  V30 19403 H 1911.07 3.9398 2.7261 0
M  V30 19404 H 1909.43 2.03792 1.52778 0
M  V30 19405 H 1910.22 3.38954 0.544549 0
M  V30 19406 N 1912.66 -0.698586 1.41271 0
M  V30 19407 C 1913.91 -1.45573 1.40189 0
M  V30 19408 C 1914.23 -1.94997 0.0108379 0
M  V30 19409 O 1913.5 -1.715 -0.946822 0
M  V30 19410 H 1912.08 -0.540134 0.516008 0
M  V30 19411 H 1914.74 -0.827048 1.76482 0
M  V30 19412 H 1913.84 -2.32036 2.08724 0
M  V30 19413 N 1914.14 -1.27049 -0.93254 0
M  V30 19414 C 1915.07 -1.11867 -2.04959 0
M  V30 19415 C 1916.05 -0.0214563 -1.70086 0
M  V30 19416 O 1917.24 -0.195063 -1.93218 0
M  V30 19417 C 1914.37 -0.759993 -3.38883 0
M  V30 19418 C 1913.32 -1.8099 -3.87849 0
M  V30 19419 C 1912.65 -1.30532 -5.18522 0
M  V30 19420 C 1913.95 -3.21309 -4.11774 0
M  V30 19421 H 1915.64 -2.05309 -2.17918 0
M  V30 19422 H 1913.19 -0.988507 -1.04712 0
M  V30 19423 H 1915.14 -0.640623 -4.16502 0
M  V30 19424 H 1913.86 0.210139 -3.25923 0
M  V30 19425 H 1912.52 -1.91809 -3.12418 0
M  V30 19426 H 1912.17 -0.324784 -5.0195 0
M  V30 19427 H 1911.87 -2.00722 -5.52254 0
M  V30 19428 H 1913.39 -1.19879 -5.98716 0
M  V30 19429 H 1914.81 -3.13517 -4.79979 0
M  V30 19430 H 1913.2 -3.89166 -4.56804 0
M  V30 19431 H 1914.27 -3.66722 -3.17243 0
M  V30 19432 N 1915.62 1.13835 -1.08993 0
M  V30 19433 C 1917.03 1.36999 -0.81874 0
M  V30 19434 C 1917.23 1.93296 0.569102 0
M  V30 19435 O 1916.29 2.14954 1.3248 0
M  V30 19436 C 1917.6 2.3255 -1.90634 0
M  V30 19437 C 1919.15 2.46175 -1.93305 0
M  V30 19438 C 1919.63 3.4503 -3.01195 0
M  V30 19439 N 1921.12 3.52577 -3.00406 0
M  V30 19440 C 1921.85 4.28934 -3.8053 0
M  V30 19441 N 1921.35 5.08484 -4.70549 0
M  V30 19442 N 1923.14 4.24191 -3.68807 0
M  V30 19443 H 1915.29 0.756425 -1.98474 0
M  V30 19444 H 1917.55 0.395302 -0.86165 0
M  V30 19445 H 1917.26 1.98331 -2.90444 0
M  V30 19446 H 1917.13 3.32519 -1.78076 0
M  V30 19447 H 1919.52 2.79683 -0.941359 0
M  V30 19448 H 1919.6 1.46146 -2.0994 0
M  V30 19449 H 1919.25 3.12254 -4.00574 0
M  V30 19450 H 1919.18 4.44853 -2.81803 0
M  V30 19451 H 1921.67 2.95814 -2.35165 0
M  V30 19452 H 1921.98 5.6404 -5.28279 0
M  V30 19453 H 1920.33 5.07732 -4.74588 0
M  V30 19454 H 1923.52 3.61118 -2.97844 0
M  V30 19455 H 1923.69 4.83447 -4.31489 0
M  V30 19456 N 1917.1 0.876467 1.3098 0
M  V30 19457 C 1918.04 0.326251 2.30301 0
M  V30 19458 C 1919.04 -0.562168 1.598 0
M  V30 19459 O 1920.24 -0.447547 1.74347 0
M  V30 19460 H 1916.62 0.0868325 0.74697 0
M  V30 19461 H 1918.59 1.17775 2.74175 0
M  V30 19462 C 1917.34 -0.451679 3.44754 0
M  V30 19463 H 1916.66 0.222681 3.99179 0
M  V30 19464 H 1918.1 -0.801899 4.16348 0
M  V30 19465 C 1916.56 -1.64547 2.93983 0
M  V30 19466 O 1917.09 -2.74482 2.93296 0
M  V30 19467 N 1915.3 -1.47978 2.50102 0
M  V30 19468 H 1914.84 -0.585447 2.50859 0
M  V30 19469 H 1914.8 -2.27992 2.16488 0
M  V30 19470 N 1918.57 -1.44173 0.636557 0
M  V30 19471 C 1919.8 -2.06352 0.150456 0
M  V30 19472 C 1920.22 -1.47608 -1.17718 0
M  V30 19473 O 1919.57 -0.601003 -1.7232 0
M  V30 19474 C 1919.62 -3.61483 0.0353658 0
M  V30 19475 O 1919.35 -4.1804 1.3105 0
M  V30 19476 C 1920.85 -4.40707 -0.478789 0
M  V30 19477 H 1918.07 -0.665948 0.0821807 0
M  V30 19478 H 1920.61 -1.84953 0.872495 0
M  V30 19479 H 1918.77 -3.82125 -0.637142 0
M  V30 19480 H 1919.18 -5.11538 1.15886 0
M  V30 19481 H 1920.65 -5.49655 -0.508315 0
M  V30 19482 H 1921.13 -4.1254 -1.5069 0
M  V30 19483 H 1921.74 -4.24996 0.160654 0
M  V30 19484 N 1920.05 -0.377435 -1.53014 0
M  V30 19485 C 1921.3 0.209712 -2.00607 0
M  V30 19486 C 1921.61 1.48891 -1.2685 0
M  V30 19487 O 1922.82 2.15538 -1.65093 0
M  V30 19488 C 1921.28 0.424271 -3.5739 0
M  V30 19489 C 1920.88 -0.840982 -4.40036 0
M  V30 19490 C 1922.63 0.968428 -4.13306 0
M  V30 19491 C 1920.53 -0.595355 -5.88396 0
M  V30 19492 H 1919.46 0.0821436 -0.749512 0
M  V30 19493 H 1922.12 -0.498005 -1.76613 0
M  V30 19494 H 1920.5 1.19354 -3.77585 0
M  V30 19495 H 1921.67 -1.61396 -4.31611 0
M  V30 19496 H 1919.99 -1.30922 -3.95283 0
M  V30 19497 H 1922.58 1.16771 -5.21794 0
M  V30 19498 H 1922.93 1.93405 -3.68647 0
M  V30 19499 H 1923.46 0.259025 -3.96956 0
M  V30 19500 H 1920.2 -1.53164 -6.37355 0
M  V30 19501 H 1919.72 0.138904 -5.99639 0
M  V30 19502 H 1921.4 -0.225366 -6.46607 0
M  V30 19503 N 1921.53 1.57237 -0.106922 0
M  V30 19504 C 1922.49 2.13515 0.833317 0
M  V30 19505 C 1923.49 1.06715 1.20285 0
M  V30 19506 O 1924.68 1.32548 1.13034 0
M  V30 19507 C 1921.82 2.66546 2.12523 0
M  V30 19508 H 1923.01 2.97916 0.344435 0
M  V30 19509 H 1920.56 1.55652 0.142199 0
M  V30 19510 H 1921.3 1.85699 2.65869 0
M  V30 19511 H 1921.08 3.44643 1.86985 0
M  V30 19512 H 1922.57 3.10039 2.7976 0
M  V30 19513 N 1923.01 -0.166818 1.56715 0
M  V30 19514 C 1923.94 -1.2086 1.99787 0
M  V30 19515 C 1924.92 -1.45918 0.874178 0
M  V30 19516 O 1926.1 -1.57176 1.14058 0
M  V30 19517 C 1923.23 -2.54648 2.3616 0
M  V30 19518 C 1922.19 -2.44151 3.51532 0
M  V30 19519 C 1921.51 -3.82469 3.7366 0
M  V30 19520 C 1922.81 -1.9424 4.84838 0
M  V30 19521 H 1924.51 -0.850538 2.87065 0
M  V30 19522 H 1922.05 -0.407696 1.38108 0
M  V30 19523 H 1924.01 -3.27736 2.64891 0
M  V30 19524 H 1922.73 -2.92251 1.45797 0
M  V30 19525 H 1921.39 -1.73516 3.22936 0
M  V30 19526 H 1921.04 -4.17473 2.8058 0
M  V30 19527 H 1920.74 -3.76312 4.5129 0
M  V30 19528 H 1922.26 -4.57136 4.04796 0
M  V30 19529 H 1923.68 -2.57105 5.12416 0
M  V30 19530 H 1922.07 -1.99021 5.66137 0
M  V30 19531 H 1923.14 -0.89695 4.76532 0
M  V30 19532 N 1924.49 -1.51463 -0.435524 0
M  V30 19533 C 1925.76 -1.54763 -1.19615 0
M  V30 19534 C 1926.14 -0.312969 -2.08767 0
M  V30 19535 O 1925.49 0.701834 -2.17455 0
M  V30 19536 C 1925.7 -2.86259 -1.99642 0
M  V30 19537 C 1927.05 -3.38276 -2.56621 0
M  V30 19538 O 1928.07 -2.87821 -2.09851 0
M  V30 19539 O 1926.93 -4.26318 -3.41929 0
M  V30 19540 H 1924.03 -0.622293 -0.544684 0
M  V30 19541 H 1926.57 -1.63777 -0.444446 0
M  V30 19542 H 1925.34 -3.67578 -1.34173 0
M  V30 19543 H 1924.97 -2.80416 -2.81874 0
M  V30 19544 N 1925.96 0.691085 -1.4164 0
M  V30 19545 C 1927.21 1.45114 -1.41238 0
M  V30 19546 C 1927.54 1.94486 -0.0230695 0
M  V30 19547 O 1926.79 1.70206 0.96583 0
M  V30 19548 C 1927.09 2.67547 -2.36967 0
M  V30 19549 C 1926.76 2.36807 -3.8371 0
M  V30 19550 C 1925.42 2.28134 -4.23684 0
M  V30 19551 C 1927.77 2.11542 -4.7634 0
M  V30 19552 C 1925.1 1.92299 -5.54291 0
M  V30 19553 C 1927.45 1.77214 -6.07271 0
M  V30 19554 C 1926.12 1.6704 -6.46262 0
M  V30 19555 H 1925.39 0.531011 -0.516825 0
M  V30 19556 H 1928.03 0.789481 -1.74469 0
M  V30 19557 H 1926.34 3.38668 -1.97006 0
M  V30 19558 H 1928.04 3.25697 -2.33928 0
M  V30 19559 H 1924.63 2.44453 -3.52052 0
M  V30 19560 H 1928.81 2.17184 -4.46256 0
M  V30 19561 H 1924.07 1.82978 -5.83377 0
M  V30 19562 H 1928.24 1.56685 -6.78545 0
M  V30 19563 H 1925.87 1.3904 -7.47377 0
M  V30 19564 N 1927.44 1.27542 0.925789 0
M  V30 19565 C 1928.39 1.07085 2.01288 0
M  V30 19566 C 1929.38 -0.0017417 1.609 0
M  V30 19567 O 1930.57 0.217017 1.75665 0
M  V30 19568 C 1927.7 0.72208 3.3562 0
M  V30 19569 C 1926.78 1.83291 3.82446 0
M  V30 19570 N 1927.17 3.07277 4.01764 0
M  V30 19571 C 1925.47 1.72002 4.11499 0
M  V30 19572 C 1926.17 3.79576 4.40791 0
M  V30 19573 N 1925.15 3.07351 4.48371 0
M  V30 19574 H 1928.95 2.01175 2.14257 0
M  V30 19575 H 1926.47 1.18285 1.11277 0
M  V30 19576 H 1928.46 0.556635 4.13167 0
M  V30 19577 H 1927.12 -0.211174 3.24013 0
M  V30 19578 H 1928.13 3.43018 3.88019 0
M  V30 19579 H 1924.81 0.857729 4.08594 0
M  V30 19580 H 1926.2 4.86147 4.63801 0
M  V30 19581 N 1928.92 -1.13255 1.09595 0
M  V30 19582 C 1929.85 -2.20827 0.758791 0
M  V30 19583 C 1930.83 -1.68034 -0.264325 0
M  V30 19584 O 1932.02 -1.93751 -0.132005 0
M  V30 19585 C 1929.15 -3.46831 0.180424 0
M  V30 19586 C 1928.1 -4.12724 1.13325 0
M  V30 19587 C 1927.43 -5.33075 0.416504 0
M  V30 19588 C 1928.73 -4.59862 2.47637 0
M  V30 19589 H 1930.42 -2.49287 1.65821 0
M  V30 19590 H 1927.97 -1.19818 0.798734 0
M  V30 19591 H 1929.92 -4.21346 -0.0675313 0
M  V30 19592 H 1928.64 -3.17773 -0.754194 0
M  V30 19593 H 1927.3 -3.40179 1.36651 0
M  V30 19594 H 1926.95 -5.00281 -0.522308 0
M  V30 19595 H 1926.65 -5.78109 1.05183 0
M  V30 19596 H 1928.17 -6.10344 0.17689 0
M  V30 19597 H 1929.59 -5.25791 2.28509 0
M  V30 19598 H 1927.99 -5.15642 3.06974 0
M  V30 19599 H 1929.06 -3.74294 3.08273 0
M  V30 19600 N 1930.4 -0.883401 -1.30514 0
M  V30 19601 C 1931.62 -0.515186 -2.00899 0
M  V30 19602 C 1932.05 0.888515 -1.65792 0
M  V30 19603 O 1931.41 1.58859 -0.873692 0
M  V30 19604 C 1931.45 -0.695291 -3.53833 0
M  V30 19605 O 1930.56 0.259516 -4.11583 0
M  V30 19606 H 1929.9 -0.20321 -0.63214 0
M  V30 19607 H 1932.43 -1.19051 -1.66397 0
M  V30 19608 H 1932.44 -0.593688 -4.03657 0
M  V30 19609 H 1931.11 -1.71874 -3.78724 0
M  V30 19610 H 1929.69 0.111741 -3.72733 0
M  V30 19611 N 1931.88 1.43833 -0.644194 0
M  V30 19612 C 1932.81 2.29017 0.0914574 0
M  V30 19613 C 1933.82 1.4201 0.79605 0
M  V30 19614 O 1935.01 1.66036 0.655313 0
M  V30 19615 C 1932.11 3.18711 1.15225 0
M  V30 19616 C 1931.28 4.34206 0.527588 0
M  V30 19617 C 1930.34 5.04839 1.48406 0
M  V30 19618 O 1929.37 5.60416 0.996143 0
M  V30 19619 N 1930.57 5.075 2.81822 0
M  V30 19620 H 1933.34 2.92794 -0.639656 0
M  V30 19621 H 1930.9 1.54424 -0.486308 0
M  V30 19622 H 1932.89 3.62827 1.79272 0
M  V30 19623 H 1931.46 2.56595 1.78543 0
M  V30 19624 H 1930.68 3.93119 -0.291782 0
M  V30 19625 H 1931.97 5.08718 0.091139 0
M  V30 19626 H 1931.36 4.63703 3.24031 0
M  V30 19627 H 1929.92 5.55364 3.41195 0
M  V30 19628 N 1933.35 0.385544 1.52811 0
M  V30 19629 C 1934.58 -0.200568 2.06428 0
M  V30 19630 C 1935 -1.40049 1.2557 0
M  V30 19631 O 1934.36 -1.79128 0.279782 0
M  V30 19632 C 1934.41 -0.552623 3.5634 0
M  V30 19633 O 1933.51 -1.64711 3.7808 0
M  V30 19634 H 1932.86 -0.0244676 0.663549 0
M  V30 19635 H 1935.39 0.551927 1.97015 0
M  V30 19636 H 1935.4 -0.817996 3.99716 0
M  V30 19637 H 1934.07 0.324665 4.14631 0
M  V30 19638 H 1932.65 -1.37574 3.46595 0
M  V30 19639 N 1934.83 -1.57178 0.115259 0
M  V30 19640 C 1935.8 -2.13953 -0.821982 0
M  V30 19641 C 1936.8 -1.07352 -1.19717 0
M  V30 19642 O 1937.99 -1.33146 -1.12329 0
M  V30 19643 C 1935.12 -2.6767 -2.11106 0
M  V30 19644 H 1936.31 -2.98094 -0.328631 0
M  V30 19645 H 1933.86 -1.55725 -0.133942 0
M  V30 19646 H 1934.6 -1.87106 -2.6488 0
M  V30 19647 H 1934.38 -3.4563 -1.85155 0
M  V30 19648 H 1935.87 -3.11519 -2.78111 0
M  V30 19649 N 1936.31 0.158505 -1.56801 0
M  V30 19650 C 1937.24 1.19799 -2.00426 0
M  V30 19651 C 1938.22 1.45453 -0.881905 0
M  V30 19652 O 1939.41 1.56569 -1.1489 0
M  V30 19653 C 1936.54 2.53392 -2.37508 0
M  V30 19654 C 1935.49 2.42283 -3.52822 0
M  V30 19655 C 1934.82 3.80482 -3.75683 0
M  V30 19656 C 1936.12 1.91666 -4.85862 0
M  V30 19657 H 1937.81 0.835303 -2.87512 0
M  V30 19658 H 1935.36 0.400366 -1.38322 0
M  V30 19659 H 1937.31 3.26326 -2.66625 0
M  V30 19660 H 1936.03 2.91474 -1.47345 0
M  V30 19661 H 1934.69 1.71801 -3.23852 0
M  V30 19662 H 1934.34 4.15979 -2.8279 0
M  V30 19663 H 1934.04 3.73913 -4.5328 0
M  V30 19664 H 1935.57 4.54982 -4.07214 0
M  V30 19665 H 1936.98 2.54384 -5.13772 0
M  V30 19666 H 1935.38 1.96016 -5.67184 0
M  V30 19667 H 1936.45 0.871666 -4.77001 0
M  V30 19668 N 1937.79 1.51692 0.427485 0
M  V30 19669 C 1939.02 1.68424 1.19653 0
M  V30 19670 C 1939.43 0.385349 1.85234 0
M  V30 19671 O 1938.77 -0.646942 1.71931 0
M  V30 19672 C 1938.83 2.75033 2.31511 0
M  V30 19673 C 1938.5 4.1734 1.86216 0
M  V30 19674 C 1939.49 5.01794 1.3601 0
M  V30 19675 C 1937.18 4.63488 1.93608 0
M  V30 19676 C 1939.17 6.30461 0.937946 0
M  V30 19677 C 1936.86 5.92149 1.51004 0
M  V30 19678 C 1937.86 6.75464 1.0118 0
M  V30 19679 O 1937.55 8.01718 0.591843 0
M  V30 19680 H 1937.28 0.568142 0.36632 0
M  V30 19681 H 1939.83 1.98929 0.511527 0
M  V30 19682 H 1938.06 2.39865 3.03318 0
M  V30 19683 H 1939.75 2.80546 2.9334 0
M  V30 19684 H 1940.52 4.6734 1.29686 0
M  V30 19685 H 1936.4 3.98755 2.31334 0
M  V30 19686 H 1939.94 6.95441 0.548362 0
M  V30 19687 H 1935.84 6.26116 1.57001 0
M  V30 19688 H 1936.6 8.15355 0.716808 0
M  V30 19689 N 1939.27 -0.683564 1.42004 0
M  V30 19690 C 1940.51 -1.44433 1.43215 0
M  V30 19691 C 1940.87 -1.92348 0.0445644 0
M  V30 19692 O 1940.16 -1.6742 -0.931726 0
M  V30 19693 C 1940.36 -2.66286 2.38383 0
M  V30 19694 C 1940.18 -2.30293 3.86258 0
M  V30 19695 C 1938.95 -2.20076 4.54857 0
M  V30 19696 C 1941.15 -1.92498 4.76916 0
M  V30 19697 N 1939.13 -1.77094 5.87802 0
M  V30 19698 C 1940.51 -1.60367 5.98901 0
M  V30 19699 C 1942.56 -1.79413 4.64452 0
M  V30 19700 C 1941.26 -1.16466 7.09809 0
M  V30 19701 C 1943.29 -1.36916 5.75333 0
M  V30 19702 C 1942.65 -1.05704 6.96424 0
M  V30 19703 H 1938.75 -0.525345 0.579255 0
M  V30 19704 H 1941.33 -0.789697 1.77966 0
M  V30 19705 H 1939.51 -3.29452 2.05708 0
M  V30 19706 H 1941.24 -3.32829 2.30233 0
M  V30 19707 H 1937.99 -2.38861 4.08953 0
M  V30 19708 H 1938.42 -1.58051 6.58292 0
M  V30 19709 H 1943.06 -2.02193 3.71319 0
M  V30 19710 H 1940.78 -0.924313 8.02796 0
M  V30 19711 H 1944.36 -1.27325 5.67697 0
M  V30 19712 H 1943.24 -0.733189 7.80765 0
M  V30 19713 N 1940.75 -1.28031 -0.919012 0
M  V30 19714 C 1941.97 -1.17714 -1.7015 0
M  V30 19715 C 1942.39 0.264914 -1.86932 0
M  V30 19716 O 1941.75 1.17957 -1.39256 0
M  V30 19717 C 1941.8 -1.86548 -3.09648 0
M  V30 19718 O 1941.52 -3.25121 -2.93646 0
M  V30 19719 C 1943.02 -1.82467 -4.04006 0
M  V30 19720 H 1940.24 -0.408863 -0.532045 0
M  V30 19721 H 1942.78 -1.69061 -1.1506 0
M  V30 19722 H 1940.94 -1.39085 -3.61572 0
M  V30 19723 H 1941.35 -3.59518 -3.81899 0
M  V30 19724 H 1942.83 -2.35229 -4.99371 0
M  V30 19725 H 1943.3 -0.795892 -4.31928 0
M  V30 19726 H 1943.91 -2.29585 -3.5801 0
M  V30 19727 N 1942.22 1.12672 -1.10194 0
M  V30 19728 C 1943.5 1.80442 -0.75499 0
M  V30 19729 C 1943.88 1.96988 0.758887 0
M  V30 19730 O 1943.23 1.54424 1.6842 0
M  V30 19731 C 1943.44 3.14969 -1.50317 0
M  V30 19732 C 1944.79 3.90205 -1.67409 0
M  V30 19733 O 1945.81 3.24618 -1.46634 0
M  V30 19734 O 1944.67 5.07864 -2.01833 0
M  V30 19735 H 1941.76 0.780952 -0.272109 0
M  V30 19736 H 1944.31 1.1953 -1.20461 0
M  V30 19737 H 1943.08 2.98202 -2.5336 0
M  V30 19738 H 1942.7 3.83587 -1.04625 0
M  V30 19739 N 1943.7 0.89031 1.30043 0
M  V30 19740 C 1944.95 0.512208 1.96225 0
M  V30 19741 C 1945.28 -0.937287 1.70084 0
M  V30 19742 O 1944.56 -1.66309 1.00854 0
M  V30 19743 C 1944.84 0.794043 3.51236 0
M  V30 19744 C 1944.69 2.29456 3.86872 0
M  V30 19745 C 1946.01 0.274152 4.39245 0
M  V30 19746 H 1943.13 0.187568 0.712732 0
M  V30 19747 H 1945.77 1.11528 1.53823 0
M  V30 19748 H 1943.92 0.28077 3.87484 0
M  V30 19749 H 1945.59 2.87665 3.6062 0
M  V30 19750 H 1943.84 2.75907 3.34751 0
M  V30 19751 H 1944.51 2.44235 4.95029 0
M  V30 19752 H 1946.98 0.713535 4.09936 0
M  V30 19753 H 1945.86 0.500633 5.46612 0
M  V30 19754 H 1946.12 -0.824812 4.34338 0
M  V30 19755 N 1945.18 -1.43489 0.651812 0
M  V30 19756 C 1946.43 -2.02129 0.164876 0
M  V30 19757 C 1946.76 -1.51296 -1.2175 0
M  V30 19758 O 1946.03 -0.705492 -1.81254 0
M  V30 19759 C 1946.32 -3.59678 0.174184 0
M  V30 19760 C 1946.17 -4.20746 1.59038 0
M  V30 19761 C 1947.49 -4.37362 -0.490177 0
M  V30 19762 H 1944.61 -0.734439 0.0613871 0
M  V30 19763 H 1947.25 -1.70804 0.832229 0
M  V30 19764 H 1945.4 -3.86496 -0.394077 0
M  V30 19765 H 1947.07 -4.04964 2.20912 0
M  V30 19766 H 1945.31 -3.7745 2.13809 0
M  V30 19767 H 1945.99 -5.29828 1.54876 0
M  V30 19768 H 1948.46 -4.16099 -0.00670015 0
M  V30 19769 H 1947.34 -5.47028 -0.452932 0
M  V30 19770 H 1947.6 -4.13509 -1.56406 0
M  V30 19771 N 1946.66 -0.393643 -1.52605 0
M  V30 19772 C 1947.57 0.446642 -2.30309 0
M  V30 19773 C 1948.58 1.06758 -1.374 0
M  V30 19774 O 1949.76 1.07246 -1.70471 0
M  V30 19775 C 1946.82 1.5564 -3.09802 0
M  V30 19776 C 1945.89 0.960113 -4.18426 0
M  V30 19777 C 1945.12 2.01698 -4.94119 0
M  V30 19778 O 1945.34 3.23273 -4.69947 0
M  V30 19779 O 1944.28 1.63186 -5.79357 0
M  V30 19780 H 1948.1 -0.186494 -3.03127 0
M  V30 19781 H 1945.69 -0.157245 -1.4857 0
M  V30 19782 H 1947.57 2.201 -3.59352 0
M  V30 19783 H 1946.24 2.17442 -2.39793 0
M  V30 19784 H 1945.15 0.278648 -3.73061 0
M  V30 19785 H 1946.48 0.386245 -4.90682 0
M  V30 19786 N 1948.14 1.57115 -0.123593 0
M  V30 19787 C 1949.41 1.86893 0.577099 0
M  V30 19788 C 1949.79 1.02556 1.84514 0
M  V30 19789 O 1949.14 0.105755 2.28255 0
M  V30 19790 C 1949.35 3.38107 0.865122 0
M  V30 19791 C 1950.7 4.0681 1.21618 0
M  V30 19792 O 1951.72 3.43153 0.955237 0
M  V30 19793 O 1950.58 5.19186 1.70612 0
M  V30 19794 H 1947.68 0.773842 0.291716 0
M  V30 19795 H 1950.22 1.68959 -0.158443 0
M  V30 19796 H 1948.99 3.91286 -0.0332696 0
M  V30 19797 H 1948.62 3.61488 1.65566 0
M  V30 19798 N 1949.61 -0.150187 1.56883 0
M  V30 19799 C 1950.56 -1.18552 1.98025 0
M  V30 19800 C 1951.53 -1.42861 0.847353 0
M  V30 19801 O 1952.72 -1.55249 1.10917 0
M  V30 19802 C 1949.86 -2.51479 2.36331 0
M  V30 19803 C 1948.97 -2.34371 3.62897 0
M  V30 19804 C 1948.1 -3.60311 3.9032 0
M  V30 19805 C 1947.14 -3.38226 5.10166 0
M  V30 19806 N 1946.28 -4.56289 5.33615 0
M  V30 19807 H 1951.12 -0.827667 2.86276 0
M  V30 19808 H 1948.66 -0.397238 1.41635 0
M  V30 19809 H 1950.61 -3.28981 2.56568 0
M  V30 19810 H 1949.24 -2.85218 1.51164 0
M  V30 19811 H 1948.3 -1.47939 3.50454 0
M  V30 19812 H 1949.61 -2.1401 4.50556 0
M  V30 19813 H 1948.76 -4.46243 4.11038 0
M  V30 19814 H 1947.5 -3.83672 3.01076 0
M  V30 19815 H 1946.51 -2.50682 4.89324 0
M  V30 19816 H 1947.73 -3.16266 6.0096 0
M  V30 19817 H 1945.68 -4.79829 4.47325 0
M  V30 19818 H 1945.59 -4.38919 6.15537 0
M  V30 19819 H 1946.86 -5.43443 5.58829 0
M  V30 19820 N 1951.09 -1.51916 -0.419434 0
M  V30 19821 C 1952.34 -1.64698 -1.16436 0
M  V30 19822 C 1952.65 -0.377878 -1.91915 0
M  V30 19823 O 1953.86 -0.385341 -2.68752 0
M  V30 19824 C 1952.32 -2.90939 -2.11854 0
M  V30 19825 C 1951.92 -4.2492 -1.4194 0
M  V30 19826 C 1953.67 -3.13083 -2.86669 0
M  V30 19827 C 1951.58 -5.42294 -2.35946 0
M  V30 19828 H 1950.51 -0.613496 -0.438337 0
M  V30 19829 H 1953.16 -1.78397 -0.429738 0
M  V30 19830 H 1951.54 -2.70916 -2.88826 0
M  V30 19831 H 1952.71 -4.5539 -0.70403 0
M  V30 19832 H 1951.03 -4.08797 -0.792071 0
M  V30 19833 H 1953.62 -3.97951 -3.57127 0
M  V30 19834 H 1953.97 -2.26891 -3.49036 0
M  V30 19835 H 1954.5 -3.33531 -2.168 0
M  V30 19836 H 1951.24 -6.30801 -1.78242 0
M  V30 19837 H 1950.76 -5.16177 -3.05485 0
M  V30 19838 H 1952.44 -5.74962 -2.96695 0
M  V30 19839 N 1952.57 0.676023 -1.42365 0
M  V30 19840 C 1953.8 1.46224 -1.45952 0
M  V30 19841 C 1954.21 1.89074 -0.0689817 0
M  V30 19842 O 1953.55 1.58634 0.926337 0
M  V30 19843 C 1953.61 2.74388 -2.32274 0
M  V30 19844 C 1953.28 2.53622 -3.80164 0
M  V30 19845 C 1954.27 2.18303 -4.71847 0
M  V30 19846 C 1951.96 2.68654 -4.24417 0
M  V30 19847 C 1953.95 1.98282 -6.05775 0
M  V30 19848 C 1951.64 2.48249 -5.58404 0
M  V30 19849 C 1952.64 2.13116 -6.48899 0
M  V30 19850 O 1952.33 1.92907 -7.80412 0
M  V30 19851 H 1952.06 0.456481 -0.498599 0
M  V30 19852 H 1954.61 0.838156 -1.87521 0
M  V30 19853 H 1952.84 3.39274 -1.85553 0
M  V30 19854 H 1954.53 3.36267 -2.27332 0
M  V30 19855 H 1955.3 2.06286 -4.38943 0
M  V30 19856 H 1951.18 2.9498 -3.54271 0
M  V30 19857 H 1954.72 1.70783 -6.76372 0
M  V30 19858 H 1950.62 2.59862 -5.90882 0
M  V30 19859 H 1951.39 2.07515 -7.91757 0
M  V30 19860 N 1954.05 1.28517 0.912209 0
M  V30 19861 C 1955.46 1.06257 1.19087 0
M  V30 19862 C 1955.66 -0.194098 2.00563 0
M  V30 19863 O 1954.72 -0.895341 2.36093 0
M  V30 19864 C 1956.03 2.31094 1.92396 0
M  V30 19865 C 1957.58 2.36288 2.05273 0
M  V30 19866 C 1958.06 3.60896 2.8199 0
M  V30 19867 N 1959.55 3.61545 2.89551 0
M  V30 19868 C 1960.28 4.54639 3.49416 0
M  V30 19869 N 1959.78 5.58053 4.10547 0
M  V30 19870 N 1961.57 4.42231 3.46969 0
M  V30 19871 H 1953.72 2.09183 0.368283 0
M  V30 19872 H 1955.99 0.920767 0.225593 0
M  V30 19873 H 1955.69 3.22653 1.39956 0
M  V30 19874 H 1955.57 2.37627 2.92939 0
M  V30 19875 H 1957.95 1.45225 2.56893 0
M  V30 19876 H 1958.03 2.33748 1.03901 0
M  V30 19877 H 1957.68 4.52304 2.31049 0
M  V30 19878 H 1957.61 3.6069 3.8368 0
M  V30 19879 H 1960.1 2.86764 2.46119 0
M  V30 19880 H 1960.41 6.25229 4.54212 0
M  V30 19881 H 1958.76 5.61877 4.09047 0
M  V30 19882 H 1961.95 3.60641 2.98422 0
M  V30 19883 H 1962.12 5.1497 3.93332 0
M  V30 19884 N 1955.53 -1.12086 1.1079 0
M  V30 19885 C 1956.77 -1.83314 0.850901 0
M  V30 19886 C 1957.1 -1.84703 -0.625275 0
M  V30 19887 O 1956.37 -1.31277 -1.45406 0
M  V30 19888 H 1954.95 -0.678817 0.311797 0
M  V30 19889 H 1957.61 -1.35707 1.39891 0
M  V30 19890 H 1956.7 -2.87393 1.21704 0
M  V30 19891 N 1957 -0.897194 -1.29569 0
M  V30 19892 C 1957.95 -0.371435 -2.27792 0
M  V30 19893 C 1958.92 0.545087 -1.56901 0
M  V30 19894 O 1960.11 0.47087 -1.84899 0
M  V30 19895 C 1957.25 0.397236 -3.42806 0
M  V30 19896 C 1956.36 -0.549895 -4.28486 0
M  V30 19897 C 1955.49 0.23558 -5.30677 0
M  V30 19898 C 1954.53 -0.706236 -6.08012 0
M  V30 19899 N 1953.67 0.0446763 -7.02086 0
M  V30 19900 H 1958.51 -1.21414 -2.72145 0
M  V30 19901 H 1956.05 -0.610055 -1.33853 0
M  V30 19902 H 1958.01 0.858933 -4.08262 0
M  V30 19903 H 1956.64 1.20441 -2.99489 0
M  V30 19904 H 1955.69 -1.13011 -3.63226 0
M  V30 19905 H 1957 -1.27092 -4.82337 0
M  V30 19906 H 1956.15 0.758588 -6.01939 0
M  V30 19907 H 1954.89 0.989757 -4.77551 0
M  V30 19908 H 1953.9 -1.24077 -5.35617 0
M  V30 19909 H 1955.12 -1.4597 -6.63227 0
M  V30 19910 H 1953.07 0.781165 -6.51332 0
M  V30 19911 H 1952.99 -0.616488 -7.53482 0
M  V30 19912 H 1954.25 0.548029 -7.77571 0
M  V30 19913 N 1958.48 1.43142 -0.659413 0
M  V30 19914 C 1959.41 2.33495 0.0147266 0
M  V30 19915 C 1960.39 1.49819 0.805493 0
M  V30 19916 O 1961.58 1.78466 0.765732 0
M  V30 19917 C 1958.71 3.33261 0.977483 0
M  V30 19918 C 1957.66 4.26972 0.296396 0
M  V30 19919 C 1956.99 5.16824 1.37103 0
M  V30 19920 C 1958.29 5.15901 -0.815063 0
M  V30 19921 H 1959.98 2.90115 -0.739837 0
M  V30 19922 H 1957.53 1.39499 -0.357229 0
M  V30 19923 H 1959.48 3.95372 1.45805 0
M  V30 19924 H 1958.21 2.74911 1.76328 0
M  V30 19925 H 1956.86 3.66234 -0.16379 0
M  V30 19926 H 1956.51 4.5481 2.14842 0
M  V30 19927 H 1956.21 5.80345 0.920528 0
M  V30 19928 H 1957.74 5.81809 1.85284 0
M  V30 19929 H 1959.15 5.71786 -0.416382 0
M  V30 19930 H 1957.55 5.88175 -1.19041 0
M  V30 19931 H 1958.62 4.5522 -1.67042 0
M  V30 19932 N 1959.96 0.40173 1.52394 0
M  V30 19933 C 1960.89 -0.41861 2.29717 0
M  V30 19934 C 1961.87 -1.05263 1.33618 0
M  V30 19935 O 1963.06 -1.06304 1.62521 0
M  V30 19936 C 1960.19 -1.5395 3.11314 0
M  V30 19937 C 1959.14 -1.03088 4.154 0
M  V30 19938 C 1958.47 -2.2448 4.85297 0
M  V30 19939 C 1959.77 -0.0900956 5.22222 0
M  V30 19940 H 1961.46 0.226577 2.98541 0
M  V30 19941 H 1959.01 0.110411 1.43576 0
M  V30 19942 H 1960.96 -2.12031 3.64171 0
M  V30 19943 H 1959.68 -2.21246 2.40246 0
M  V30 19944 H 1958.34 -0.472515 3.63542 0
M  V30 19945 H 1957.99 -2.90313 4.10764 0
M  V30 19946 H 1957.69 -1.91103 5.55656 0
M  V30 19947 H 1959.21 -2.83181 5.40963 0
M  V30 19948 H 1960.63 -0.579479 5.70364 0
M  V30 19949 H 1959.03 0.154505 5.99901 0
M  V30 19950 H 1960.1 0.857375 4.7726 0
M  V30 19951 N 1961.44 -1.57047 0.131923 0
M  V30 19952 C 1962.72 -1.87196 -0.567179 0
M  V30 19953 C 1963.1 -1.03533 -1.83968 0
M  V30 19954 O 1962.44 -0.117858 -2.28196 0
M  V30 19955 C 1962.65 -3.38561 -0.847179 0
M  V30 19956 C 1964 -4.07449 -1.19459 0
M  V30 19957 O 1965.03 -3.43654 -0.937026 0
M  V30 19958 O 1963.88 -5.20083 -1.67856 0
M  V30 19959 H 1960.98 -0.775378 -0.287608 0
M  V30 19960 H 1963.52 -1.68872 0.167401 0
M  V30 19961 H 1962.3 -3.91263 0.05402 0
M  V30 19962 H 1961.92 -3.62361 -1.63647 0
M  V30 19963 N 1962.92 0.141865 -1.5696 0
M  V30 19964 C 1963.86 1.19416 -1.99606 0
M  V30 19965 C 1964.86 1.44182 -0.889268 0
M  V30 19966 O 1966.06 1.44414 -1.07446 0
M  V30 19967 H 1962.44 0.402085 -0.635477 0
M  V30 19968 H 1964.41 0.80782 -2.87257 0
M  V30 19969 C 1963.16 2.51868 -2.39704 0
M  V30 19970 H 1962.48 2.33642 -3.24425 0
M  V30 19971 H 1963.92 3.24113 -2.73362 0
M  V30 19972 C 1962.38 3.12785 -1.25169 0
M  V30 19973 O 1962.91 3.97845 -0.555208 0
M  V30 19974 N 1961.12 2.72312 -1.01461 0
M  V30 19975 H 1960.66 2.0324 -1.58276 0
M  V30 19976 H 1960.62 3.13403 -0.250181 0
M  V30 19977 N 1964.39 1.52136 0.411372 0
M  V30 19978 C 1965.64 1.65757 1.15624 0
M  V30 19979 C 1965.96 0.388771 1.91085 0
M  V30 19980 O 1965.23 -0.596276 1.86605 0
M  V30 19981 H 1963.81 0.610955 0.429817 0
M  V30 19982 H 1966.48 1.8917 0.469114 0
M  V30 19983 H 1965.57 2.49759 1.87155 0
M  V30 19984 N 1965.87 -0.668464 1.42721 0
M  V30 19985 C 1966.84 -1.76365 1.46384 0
M  V30 19986 C 1967.84 -1.56932 0.350554 0
M  V30 19987 O 1969.03 -1.63109 0.611658 0
M  V30 19988 C 1966.16 -3.15071 1.30164 0
M  V30 19989 H 1967.35 -1.74503 2.43903 0
M  V30 19990 H 1964.9 -0.878695 1.29262 0
M  V30 19991 H 1965.64 -3.22555 0.335926 0
M  V30 19992 H 1965.42 -3.3058 2.10853 0
M  V30 19993 H 1966.91 -3.94963 1.35625 0
M  V30 19994 N 1967.35 -1.28999 -0.905381 0
M  V30 19995 C 1968.28 -1.16189 -2.0254 0
M  V30 19996 C 1969.26 -0.0575293 -1.70003 0
M  V30 19997 O 1970.45 -0.236004 -1.92761 0
M  V30 19998 C 1967.58 -0.831704 -3.37194 0
M  V30 19999 C 1966.53 -1.89176 -3.83922 0
M  V30 20000 C 1965.86 -1.41501 -5.15637 0
M  V30 20001 C 1967.16 -3.29971 -4.04866 0
M  V30 20002 H 1968.85 -2.09886 -2.13514 0
M  V30 20003 H 1966.4 -1.0105 -1.02591 0
M  V30 20004 H 1968.35 -0.728825 -4.1505 0
M  V30 20005 H 1967.07 0.140958 -3.26296 0
M  V30 20006 H 1965.73 -1.98393 -3.08279 0
M  V30 20007 H 1965.38 -0.431182 -5.01149 0
M  V30 20008 H 1965.08 -2.12391 -5.47872 0
M  V30 20009 H 1966.61 -1.32552 -5.96039 0
M  V30 20010 H 1968.02 -3.23628 -4.73221 0
M  V30 20011 H 1966.42 -3.98768 -4.48447 0
M  V30 20012 H 1967.49 -3.73369 -3.09393 0
M  V30 20013 N 1968.83 1.11497 -1.11383 0
M  V30 20014 C 1970.06 1.87027 -0.884793 0
M  V30 20015 C 1970.47 1.80136 0.565362 0
M  V30 20016 O 1969.83 1.18222 1.39032 0
M  V30 20017 C 1969.88 3.35862 -1.33713 0
M  V30 20018 O 1969.6 3.42606 -2.73043 0
M  V30 20019 C 1971.1 4.283 -1.14342 0
M  V30 20020 H 1968.32 0.591449 -0.316905 0
M  V30 20021 H 1970.87 1.4102 -1.481 0
M  V30 20022 H 1969.02 3.79376 -0.784385 0
M  V30 20023 H 1969.44 4.35278 -2.92632 0
M  V30 20024 H 1970.91 5.30975 -1.50894 0
M  V30 20025 H 1971.39 4.39122 -0.0829321 0
M  V30 20026 H 1971.99 3.90578 -1.68312 0
M  V30 20027 N 1970.31 0.904053 1.29092 0
M  V30 20028 C 1971.53 0.547082 2.00054 0
M  V30 20029 C 1971.96 -0.862026 1.67185 0
M  V30 20030 O 1971.32 -1.57449 0.898855 0
M  V30 20031 C 1971.36 0.751495 3.52682 0
M  V30 20032 O 1970.47 -0.194004 4.11943 0
M  V30 20033 H 1969.81 0.213241 0.628828 0
M  V30 20034 H 1972.34 1.21683 1.64482 0
M  V30 20035 H 1972.35 0.657831 4.02662 0
M  V30 20036 H 1971.02 1.77878 3.75942 0
M  V30 20037 H 1969.6 -0.0524281 3.72863 0
M  V30 20038 N 1971.79 -1.4279 0.666995 0
M  V30 20039 C 1973.03 -2.01644 0.18603 0
M  V30 20040 C 1973.36 -1.52694 -1.20477 0
M  V30 20041 O 1972.62 -0.716418 -1.82115 0
M  V30 20042 C 1972.91 -3.57038 0.160763 0
M  V30 20043 C 1972.58 -4.25389 1.49517 0
M  V30 20044 C 1971.24 -4.43775 1.86056 0
M  V30 20045 C 1973.59 -4.63976 2.37436 0
M  V30 20046 C 1970.92 -4.98018 3.10152 0
M  V30 20047 C 1973.27 -5.19596 3.60837 0
M  V30 20048 C 1971.94 -5.36197 3.97554 0
M  V30 20049 H 1971.21 -0.737867 0.0680731 0
M  V30 20050 H 1973.86 -1.71081 0.860435 0
M  V30 20051 H 1972.16 -3.87223 -0.597132 0
M  V30 20052 H 1973.86 -4.00349 -0.228461 0
M  V30 20053 H 1970.45 -4.11432 1.20091 0
M  V30 20054 H 1974.63 -4.49451 2.10494 0
M  V30 20055 H 1969.89 -5.09057 3.38632 0
M  V30 20056 H 1974.06 -5.4844 4.2917 0
M  V30 20057 H 1971.69 -5.77992 4.9379 0
M  V30 20058 N 1973.26 -0.409806 -1.52179 0
M  V30 20059 C 1974.17 0.42219 -2.3077 0
M  V30 20060 C 1975.19 1.05295 -1.38524 0
M  V30 20061 O 1976.37 1.05432 -1.71599 0
M  V30 20062 C 1973.43 1.52345 -3.11435 0
M  V30 20063 C 1972.49 0.91568 -4.19421 0
M  V30 20064 C 1971.72 1.96446 -4.9623 0
M  V30 20065 O 1971.95 3.18271 -4.7335 0
M  V30 20066 O 1970.88 1.57032 -5.81055 0
M  V30 20067 H 1974.71 -0.218635 -3.02912 0
M  V30 20068 H 1972.29 -0.172994 -1.48395 0
M  V30 20069 H 1974.17 2.16276 -3.61666 0
M  V30 20070 H 1972.85 2.14886 -2.42086 0
M  V30 20071 H 1971.76 0.239064 -3.73335 0
M  V30 20072 H 1973.09 0.33418 -4.91064 0
M  V30 20073 N 1974.74 1.56975 -0.14025 0
M  V30 20074 C 1975.99 1.96196 0.513302 0
M  V30 20075 C 1976.32 1.02482 1.64958 0
M  V30 20076 O 1975.6 0.0659332 1.94388 0
M  V30 20077 C 1975.88 3.45178 1.02589 0
M  V30 20078 C 1975.73 4.49669 -0.108432 0
M  V30 20079 C 1977.05 3.96499 1.90989 0
M  V30 20080 H 1974.17 0.713374 0.185114 0
M  V30 20081 H 1976.81 1.88721 -0.220112 0
M  V30 20082 H 1974.96 3.51679 1.65088 0
M  V30 20083 H 1976.63 4.55252 -0.744538 0
M  V30 20084 H 1974.88 4.26937 -0.768558 0
M  V30 20085 H 1975.55 5.51228 0.291822 0
M  V30 20086 H 1978.02 3.92434 1.38329 0
M  V30 20087 H 1976.9 5.01219 2.23765 0
M  V30 20088 H 1977.16 3.38452 2.84433 0
M  V30 20089 N 1976.22 -0.133539 1.57033 0
M  V30 20090 C 1977.47 -0.845109 1.84352 0
M  V30 20091 C 1977.8 -1.80205 0.723864 0
M  V30 20092 O 1977.07 -1.92596 -0.271485 0
M  V30 20093 C 1977.36 -1.6078 3.22214 0
M  V30 20094 C 1977.21 -0.671438 4.4476 0
M  V30 20095 C 1978.53 -2.56728 3.57462 0
M  V30 20096 H 1975.65 -0.305783 0.670571 0
M  V30 20097 H 1978.29 -0.109825 1.89682 0
M  V30 20098 H 1976.44 -2.23461 3.17801 0
M  V30 20099 H 1978.11 -0.0545922 4.61268 0
M  V30 20100 H 1976.35 0.018069 4.33796 0
M  V30 20101 H 1977.03 -1.24142 5.37859 0
M  V30 20102 H 1979.5 -2.04159 3.62572 0
M  V30 20103 H 1978.38 -3.07133 4.54929 0
M  V30 20104 H 1978.64 -3.38717 2.84119 0
M  V30 20105 N 1977.7 -1.52352 -0.403298 0
M  V30 20106 C 1978.95 -1.65924 -1.14683 0
M  V30 20107 C 1979.26 -0.398212 -1.91504 0
M  V30 20108 O 1980.47 -0.413824 -2.68328 0
M  V30 20109 C 1978.92 -2.9317 -2.08757 0
M  V30 20110 C 1978.53 -4.26402 -1.37425 0
M  V30 20111 C 1980.27 -3.16106 -2.83332 0
M  V30 20112 C 1978.18 -5.44766 -2.30181 0
M  V30 20113 H 1977.11 -0.61811 -0.431805 0
M  V30 20114 H 1979.76 -1.78843 -0.410792 0
M  V30 20115 H 1978.14 -2.73964 -2.85937 0
M  V30 20116 H 1979.32 -4.56111 -0.65569 0
M  V30 20117 H 1977.63 -4.09614 -0.748668 0
M  V30 20118 H 1980.23 -4.01716 -3.52886 0
M  V30 20119 H 1980.57 -2.30581 -3.4661 0
M  V30 20120 H 1981.11 -3.35811 -2.1325 0
M  V30 20121 H 1977.84 -6.32656 -1.71541 0
M  V30 20122 H 1977.36 -5.19388 -2.99993 0
M  V30 20123 H 1979.04 -5.78077 -2.9058 0
M  V30 20124 N 1979.18 0.660885 -1.43074 0
M  V30 20125 C 1980.11 1.78641 -1.43597 0
M  V30 20126 C 1981.12 1.59355 -0.333119 0
M  V30 20127 O 1982.31 1.68218 -0.597082 0
M  V30 20128 C 1979.41 3.15957 -1.22575 0
M  V30 20129 C 1978.58 3.61969 -2.45556 0
M  V30 20130 C 1977.64 4.78062 -2.19871 0
M  V30 20131 O 1976.67 4.87893 -2.93171 0
M  V30 20132 N 1977.87 5.67738 -1.21053 0
M  V30 20133 H 1980.63 1.78672 -2.40617 0
M  V30 20134 H 1978.2 0.844466 -1.38132 0
M  V30 20135 H 1980.19 3.91298 -1.03287 0
M  V30 20136 H 1978.76 3.10742 -0.34029 0
M  V30 20137 H 1977.98 2.77155 -2.80319 0
M  V30 20138 H 1979.27 3.89455 -3.27418 0
M  V30 20139 H 1978.66 5.6246 -0.604562 0
M  V30 20140 H 1977.22 6.42832 -1.0775 0
M  V30 20141 N 1980.65 1.29477 0.898527 0
M  V30 20142 C 1981.88 1.20232 1.68011 0
M  V30 20143 C 1982.29 -0.239393 1.87679 0
M  V30 20144 O 1981.64 -1.17197 1.41459 0
M  V30 20145 C 1981.7 1.84564 3.08507 0
M  V30 20146 C 1981.36 3.33862 3.12065 0
M  V30 20147 C 1982.36 4.30068 2.92125 0
M  V30 20148 C 1980.04 3.75082 3.34094 0
M  V30 20149 C 1982.04 5.65469 2.94149 0
M  V30 20150 C 1979.72 5.10604 3.35748 0
M  V30 20151 C 1980.72 6.05607 3.15798 0
M  V30 20152 O 1980.41 7.38655 3.17243 0
M  V30 20153 H 1980.14 0.417733 0.531484 0
M  V30 20154 H 1982.7 1.71396 1.13193 0
M  V30 20155 H 1980.93 1.27913 3.64932 0
M  V30 20156 H 1982.62 1.69625 3.68758 0
M  V30 20157 H 1983.38 3.99556 2.74918 0
M  V30 20158 H 1979.26 3.01588 3.48662 0
M  V30 20159 H 1982.8 6.39598 2.78496 0
M  V30 20160 H 1978.7 5.40761 3.52488 0
M  V30 20161 H 1979.47 7.47475 3.33502 0
M  V30 20162 N 1982.13 -1.10905 1.11972 0
M  V30 20163 C 1983.38 -1.82401 0.870296 0
M  V30 20164 C 1983.7 -1.85356 -0.605649 0
M  V30 20165 O 1982.97 -1.32812 -1.44006 0
M  V30 20166 H 1981.55 -0.675471 0.318979 0
M  V30 20167 H 1984.21 -1.34216 1.41323 0
M  V30 20168 H 1983.31 -2.86086 1.24746 0
M  V30 20169 N 1983.61 -0.910886 -1.2861 0
M  V30 20170 C 1984.54 -0.413998 -2.29801 0
M  V30 20171 C 1985.52 0.51689 -1.62056 0
M  V30 20172 O 1986.71 0.425236 -1.89487 0
M  V30 20173 C 1983.84 0.349336 -3.45539 0
M  V30 20174 C 1982.79 -0.49215 -4.25161 0
M  V30 20175 C 1982.12 0.399352 -5.33207 0
M  V30 20176 C 1983.42 -1.74792 -4.92184 0
M  V30 20177 H 1985.11 -1.25965 -2.71612 0
M  V30 20178 H 1982.66 -0.607149 -1.30575 0
M  V30 20179 H 1984.61 0.70777 -4.15414 0
M  V30 20180 H 1983.33 1.22887 -3.02599 0
M  V30 20181 H 1981.99 -0.833064 -3.57009 0
M  V30 20182 H 1981.64 1.27734 -4.86511 0
M  V30 20183 H 1981.34 -0.160062 -5.87382 0
M  V30 20184 H 1982.86 0.753731 -6.0593 0
M  V30 20185 H 1984.28 -1.45856 -5.54436 0
M  V30 20186 H 1982.68 -2.24952 -5.56342 0
M  V30 20187 H 1983.75 -2.4774 -4.16837 0
M  V30 20188 N 1985.09 1.42434 -0.674558 0
M  V30 20189 C 1986.05 2.29199 -0.00527063 0
M  V30 20190 C 1987.05 1.43313 0.729245 0
M  V30 20191 O 1988.24 1.64704 0.567284 0
M  V30 20192 C 1985.37 3.25805 1.0032 0
M  V30 20193 H 1986.57 2.89874 -0.768954 0
M  V30 20194 H 1984.12 1.5007 -0.436898 0
M  V30 20195 H 1984.85 2.70068 1.79538 0
M  V30 20196 H 1984.64 3.89152 0.479902 0
M  V30 20197 H 1986.13 3.90875 1.46993 0
M  V30 20198 N 1986.57 0.417871 1.51959 0
M  V30 20199 C 1987.79 -0.154295 2.06324 0
M  V30 20200 C 1988.21 -1.38123 1.28714 0
M  V30 20201 O 1987.57 -1.79279 0.341355 0
M  V30 20202 C 1987.62 -0.496014 3.58081 0
M  V30 20203 O 1987.34 0.682208 4.32756 0
M  V30 20204 C 1988.84 -1.12097 4.28893 0
M  V30 20205 H 1986.06 -0.0165345 0.670796 0
M  V30 20206 H 1988.6 0.591345 1.95764 0
M  V30 20207 H 1986.76 -1.19155 3.6862 0
M  V30 20208 H 1987.17 0.394868 5.23012 0
M  V30 20209 H 1988.65 -1.31021 5.36225 0
M  V30 20210 H 1989.12 -2.09655 3.85929 0
M  V30 20211 H 1989.73 -0.465383 4.22746 0
M  V30 20212 N 1988.04 -1.56898 0.148573 0
M  V30 20213 C 1989.46 -1.82957 -0.371991 0
M  V30 20214 C 1989.81 -1.06735 -1.64627 0
M  V30 20215 O 1988.93 -0.313128 -2.14123 0
M  V30 20216 C 1989.53 -3.31871 -0.681682 0
M  V30 20217 C 1988.09 -3.58506 -1.14676 0
M  V30 20218 C 1987.23 -2.76774 -0.170675 0
M  V30 20219 H 1990.18 -1.54248 0.373244 0
M  V30 20220 H 1990.2 -3.48112 -1.53618 0
M  V30 20221 H 1989.72 -3.8732 0.245938 0
M  V30 20222 H 1987.82 -3.08445 -2.09027 0
M  V30 20223 H 1987.93 -4.66961 -1.07165 0
M  V30 20224 H 1986.29 -2.45903 -0.663611 0
M  V30 20225 H 1987.08 -3.34995 0.750563 0
M  V30 20226 N 1989.52 0.125209 -1.57102 0
M  V30 20227 C 1990.43 1.17286 -2.03177 0
M  V30 20228 C 1991.45 1.4571 -0.951035 0
M  V30 20229 O 1992.62 1.56949 -1.2621 0
M  V30 20230 C 1989.69 2.4811 -2.42161 0
M  V30 20231 C 1988.75 2.2714 -3.64288 0
M  V30 20232 C 1987.98 3.51726 -4.01404 0
M  V30 20233 O 1988.21 4.58785 -3.38929 0
M  V30 20234 O 1987.14 3.43096 -4.94539 0
M  V30 20235 H 1990.97 0.811619 -2.92654 0
M  V30 20236 H 1988.55 0.335551 -1.45583 0
M  V30 20237 H 1990.43 3.252 -2.67998 0
M  V30 20238 H 1989.11 2.83721 -1.55833 0
M  V30 20239 H 1988.02 1.47929 -3.4361 0
M  V30 20240 H 1989.35 1.96435 -4.51303 0
M  V30 20241 N 1991 1.52564 0.395213 0
M  V30 20242 C 1992.25 1.66974 1.1386 0
M  V30 20243 C 1992.57 0.409016 1.90662 0
M  V30 20244 O 1991.84 -0.576451 1.87227 0
M  V30 20245 H 1990.42 0.61548 0.423313 0
M  V30 20246 H 1993.08 1.89657 0.449024 0
M  V30 20247 H 1992.18 2.5173 1.84496 0
M  V30 20248 N 1992.48 -0.653289 1.43422 0
M  V30 20249 C 1993.41 -1.77779 1.51383 0
M  V30 20250 C 1994.39 -1.6606 0.368515 0
M  V30 20251 O 1995.57 -1.85157 0.585721 0
M  V30 20252 C 1992.7 -3.16206 1.43635 0
M  V30 20253 C 1991.66 -3.42688 2.56415 0
M  V30 20254 C 1990.98 -4.80915 2.3372 0
M  V30 20255 C 1992.28 -3.3744 3.98662 0
M  V30 20256 H 1993.98 -1.71374 2.45502 0
M  V30 20257 H 1991.52 -0.823062 1.1816 0
M  V30 20258 H 1993.48 -3.94627 1.47808 0
M  V30 20259 H 1992.2 -3.23341 0.460202 0
M  V30 20260 H 1990.86 -2.66638 2.51594 0
M  V30 20261 H 1990.51 -4.84726 1.34349 0
M  V30 20262 H 1990.21 -4.99594 3.09321 0
M  V30 20263 H 1991.73 -5.61594 2.39677 0
M  V30 20264 H 1993.15 -4.05798 4.0497 0
M  V30 20265 H 1991.54 -3.67656 4.74288 0
M  V30 20266 H 1992.61 -2.35624 4.23803 0
M  V30 20267 N 1993.96 -1.29952 -0.891648 0
M  V30 20268 C 1994.92 -1.15756 -1.97821 0
M  V30 20269 C 1995.92 -0.0906975 -1.60544 0
M  V30 20270 O 1997.11 -0.338283 -1.70884 0
M  V30 20271 C 1994.24 -0.771976 -3.32044 0
M  V30 20272 H 1995.43 -2.12281 -2.11842 0
M  V30 20273 H 1992.99 -1.13253 -1.07719 0
M  V30 20274 H 1993.72 0.193059 -3.23725 0
M  V30 20275 H 1993.51 -1.54291 -3.60467 0
M  V30 20276 H 1995 -0.695941 -4.1176 0
M  V30 20277 N 1995.44 1.1031 -1.12559 0
M  V30 20278 C 1996.68 1.82567 -0.883005 0
M  V30 20279 C 1997.01 1.85031 0.589667 0
M  V30 20280 O 1996.29 1.3119 1.43595 0
M  V30 20281 C 1996.57 3.29171 -1.46009 0
M  V30 20282 C 1996.43 3.35032 -3.00122 0
M  V30 20283 C 1997.74 4.25591 -1.12073 0
M  V30 20284 H 1994.86 0.662829 -0.322221 0
M  V30 20285 H 1997.51 1.29276 -1.3924 0
M  V30 20286 H 1995.66 3.74684 -1.02685 0
M  V30 20287 H 1997.33 2.9799 -3.52135 0
M  V30 20288 H 1995.57 2.74892 -3.35584 0
M  V30 20289 H 1996.24 4.3827 -3.35595 0
M  V30 20290 H 1998.72 3.88318 -1.49494 0
M  V30 20291 H 1997.59 5.26528 -1.55112 0
M  V30 20292 H 1997.85 4.42088 -0.0331138 0
M  V30 20293 N 1996.91 0.917694 1.28125 0
M  V30 20294 C 1998.19 0.471682 1.89828 0
M  V30 20295 C 1998.57 -1.04974 1.83149 0
M  V30 20296 O 1997.92 -1.89953 1.27004 0
M  V30 20297 C 1998.13 1.00649 3.34172 0
M  V30 20298 C 1999.48 1.06095 4.11131 0
M  V30 20299 O 2000.5 0.955405 3.43148 0
M  V30 20300 O 1999.36 1.22219 5.32658 0
M  V30 20301 H 1996.45 0.150129 0.813259 0
M  V30 20302 H 1999 1.00873 1.36465 0
M  V30 20303 H 1997.77 2.05043 3.33276 0
M  V30 20304 H 1997.39 0.450491 3.9504 0
M  V30 20305 N 1998.39 -1.42074 0.682102 0
M  V30 20306 C 1999.64 -2.02245 0.21642 0
M  V30 20307 C 1999.99 -1.53004 -1.16652 0
M  V30 20308 O 1999.29 -0.725603 -1.77329 0
M  V30 20309 C 1999.48 -3.56848 0.198622 0
M  V30 20310 C 1999.31 -4.21094 1.5783 0
M  V30 20311 C 1998.08 -4.55958 2.17785 0
M  V30 20312 C 2000.28 -4.48197 2.52237 0
M  V30 20313 N 1998.26 -5.05421 3.48457 0
M  V30 20314 C 1999.63 -4.9929 3.67572 0
M  V30 20315 C 2001.68 -4.30194 2.50675 0
M  V30 20316 C 2000.39 -5.34272 4.81607 0
M  V30 20317 C 2002.41 -4.66256 3.63812 0
M  V30 20318 C 2001.78 -5.17508 4.77875 0
M  V30 20319 H 1997.87 -0.772061 0.12428 0
M  V30 20320 H 2000.46 -1.72823 0.89667 0
M  V30 20321 H 1998.63 -3.85772 -0.451066 0
M  V30 20322 H 2000.36 -4.03726 -0.280625 0
M  V30 20323 H 1997.12 -4.4196 1.70202 0
M  V30 20324 H 1997.54 -5.34574 4.15402 0
M  V30 20325 H 2002.18 -3.89818 1.63712 0
M  V30 20326 H 1999.9 -5.73578 5.6924 0
M  V30 20327 H 2003.49 -4.53996 3.63839 0
M  V30 20328 H 2002.37 -5.44891 5.63971 0
M  V30 20329 N 1999.87 -0.425924 -1.51735 0
M  V30 20330 C 2001.12 0.145784 -2.01172 0
M  V30 20331 C 2001.43 1.4478 -1.31523 0
M  V30 20332 O 2002.64 2.10177 -1.71866 0
M  V30 20333 C 2001.09 0.310355 -3.58559 0
M  V30 20334 C 2000.7 -0.98055 -4.37138 0
M  V30 20335 C 2002.45 0.836447 -4.16178 0
M  V30 20336 C 2000.35 -0.782247 -5.86204 0
M  V30 20337 H 1999.28 0.0582569 -0.751746 0
M  V30 20338 H 2001.93 -0.553941 -1.74939 0
M  V30 20339 H 2000.32 1.07281 -3.81191 0
M  V30 20340 H 2001.49 -1.75046 -4.26258 0
M  V30 20341 H 1999.8 -1.43431 -3.90917 0
M  V30 20342 H 2002.4 1.00112 -5.25244 0
M  V30 20343 H 2002.74 1.81579 -3.74613 0
M  V30 20344 H 2003.28 0.132605 -3.97579 0
M  V30 20345 H 2000.02 -1.73363 -6.32159 0
M  V30 20346 H 1999.54 -0.0519371 -5.99778 0
M  V30 20347 H 2001.22 -0.430966 -6.45563 0
M  V30 20348 N 2001.35 1.56817 -0.156891 0
M  V30 20349 C 2002.31 2.16058 0.764967 0
M  V30 20350 C 2003.31 1.10488 1.16829 0
M  V30 20351 O 2004.5 1.36077 1.0876 0
M  V30 20352 C 2001.63 2.73173 2.03935 0
M  V30 20353 H 2002.83 2.98861 0.249482 0
M  V30 20354 H 2000.38 1.56025 0.0926074 0
M  V30 20355 H 2001.11 1.94064 2.59827 0
M  V30 20356 H 2000.9 3.50417 1.75926 0
M  V30 20357 H 2002.39 3.18783 2.69754 0
M  V30 20358 N 2002.83 -0.116876 1.57166 0
M  V30 20359 C 2004.07 -0.822659 1.84599 0
M  V30 20360 C 2004.39 -1.80315 0.742392 0
M  V30 20361 O 2003.66 -1.94505 -0.233411 0
M  V30 20362 H 2002.24 -0.306797 0.681091 0
M  V30 20363 H 2004.91 -0.103693 1.94624 0
M  V30 20364 H 2004 -1.36659 2.8059 0
M  V30 20365 N 2004.3 -1.52772 -0.387116 0
M  V30 20366 C 2005.25 -1.78325 -1.49341 0
M  V30 20367 C 2006.25 -0.651278 -1.5638 0
M  V30 20368 O 2007.45 -0.833795 -1.59524 0
M  V30 20369 H 2003.83 -0.56428 -0.497084 0
M  V30 20370 H 2005.8 -2.70965 -1.24983 0
M  V30 20371 C 2004.55 -1.97079 -2.86453 0
M  V30 20372 H 2003.87 -2.83612 -2.81788 0
M  V30 20373 H 2005.31 -2.18947 -3.63095 0
M  V30 20374 C 2003.77 -0.743842 -3.28586 0
M  V30 20375 O 2004.3 0.0778266 -4.01625 0
M  V30 20376 N 2002.5 -0.573415 -2.84886 0
M  V30 20377 H 2002.05 -1.24319 -2.25616 0
M  V30 20378 H 2002.01 0.24616 -3.13435 0
M  V30 20379 N 2005.78 0.645673 -1.43767 0
M  V30 20380 C 2007.03 1.40137 -1.45067 0
M  V30 20381 C 2007.34 1.9543 -0.0815041 0
M  V30 20382 O 2008.55 2.71486 0.0280161 0
M  V30 20383 C 2007.01 2.53651 -2.55322 0
M  V30 20384 C 2006.61 2.04934 -3.98379 0
M  V30 20385 C 2008.36 3.30964 -2.65826 0
M  V30 20386 C 2006.26 3.15703 -5.00086 0
M  V30 20387 H 2005.19 0.52657 -0.539667 0
M  V30 20388 H 2007.85 0.696144 -1.69782 0
M  V30 20389 H 2006.23 3.26681 -2.23821 0
M  V30 20390 H 2007.4 1.38865 -4.39378 0
M  V30 20391 H 2005.72 1.40478 -3.91988 0
M  V30 20392 H 2008.31 4.13513 -3.38986 0
M  V30 20393 H 2008.66 3.79492 -1.71149 0
M  V30 20394 H 2009.19 2.65018 -2.96665 0
M  V30 20395 H 2005.93 2.72136 -5.96341 0
M  V30 20396 H 2005.45 3.80459 -4.63693 0
M  V30 20397 H 2007.13 3.80714 -5.23131 0
M  V30 20398 N 2007.26 1.30423 0.884744 0
M  V30 20399 C 2008.49 1.22007 1.66727 0
M  V30 20400 C 2008.9 -0.219474 1.87923 0
M  V30 20401 O 2008.24 -1.1569 1.42694 0
M  V30 20402 C 2008.3 1.87825 3.06532 0
M  V30 20403 C 2007.97 3.37154 3.08507 0
M  V30 20404 C 2008.96 4.33143 2.87547 0
M  V30 20405 C 2006.65 3.78604 3.30097 0
M  V30 20406 C 2008.64 5.68557 2.88135 0
M  V30 20407 C 2006.33 5.14136 3.30314 0
M  V30 20408 C 2007.33 6.08923 3.09357 0
M  V30 20409 O 2007.02 7.41979 3.09391 0
M  V30 20410 H 2006.75 0.423347 0.527023 0
M  V30 20411 H 2009.3 1.72587 1.11369 0
M  V30 20412 H 2007.53 1.31776 3.63555 0
M  V30 20413 H 2009.22 1.73527 3.66938 0
M  V30 20414 H 2009.99 4.0245 2.70664 0
M  V30 20415 H 2005.87 3.05269 3.45444 0
M  V30 20416 H 2009.41 6.42516 2.71696 0
M  V30 20417 H 2005.31 5.44469 3.46733 0
M  V30 20418 H 2006.07 7.5097 3.25555 0
M  V30 20419 N 2008.74 -1.09711 1.13142 0
M  V30 20420 C 2009.98 -1.82276 0.902614 0
M  V30 20421 C 2010.34 -1.83908 -0.565283 0
M  V30 20422 O 2009.63 -1.29418 -1.41285 0
M  V30 20423 C 2009.83 -3.27951 1.42067 0
M  V30 20424 C 2009.65 -3.40509 2.93741 0
M  V30 20425 C 2008.42 -3.52483 3.62055 0
M  V30 20426 C 2010.62 -3.33285 3.91696 0
M  V30 20427 N 2008.6 -3.53695 5.0177 0
M  V30 20428 C 2009.98 -3.41331 5.17584 0
M  V30 20429 C 2012.03 -3.16933 3.84002 0
M  V30 20430 C 2010.73 -3.34709 6.36681 0
M  V30 20431 C 2012.76 -3.11636 5.0263 0
M  V30 20432 C 2012.12 -3.2027 6.27381 0
M  V30 20433 H 2008.22 -0.681417 0.38366 0
M  V30 20434 H 2010.8 -1.3114 1.43911 0
M  V30 20435 H 2008.98 -3.77562 0.911135 0
M  V30 20436 H 2010.71 -3.88512 1.13316 0
M  V30 20437 H 2007.46 -3.55807 3.12567 0
M  V30 20438 H 2007.89 -3.57892 5.74667 0
M  V30 20439 H 2012.53 -3.09129 2.88442 0
M  V30 20440 H 2010.25 -3.41277 7.325 0
M  V30 20441 H 2013.83 -3.00123 4.98415 0
M  V30 20442 H 2012.71 -3.16184 7.17633 0
M  V30 20443 N 2010.22 -0.924476 -1.27637 0
M  V30 20444 C 2011.46 -0.564054 -1.94798 0
M  V30 20445 C 2011.8 0.891863 -1.72509 0
M  V30 20446 O 2011.07 1.63577 -1.05228 0
M  V30 20447 C 2011.35 -0.886888 -3.49008 0
M  V30 20448 C 2011.21 -2.39632 -3.80653 0
M  V30 20449 C 2012.53 -0.390514 -4.38364 0
M  V30 20450 H 2009.64 -0.206399 -0.707509 0
M  V30 20451 H 2012.29 -1.15567 -1.50812 0
M  V30 20452 H 2010.44 -0.383406 -3.86603 0
M  V30 20453 H 2012.11 -2.97125 -3.52866 0
M  V30 20454 H 2010.35 -2.84685 -3.27318 0
M  V30 20455 H 2011.02 -2.57274 -4.88379 0
M  V30 20456 H 2013.5 -0.821972 -4.07901 0
M  V30 20457 H 2012.37 -0.645381 -5.45093 0
M  V30 20458 H 2012.64 0.709365 -4.36372 0
M  V30 20459 N 2011.69 1.41711 -0.689627 0
M  V30 20460 C 2012.6 2.34591 -0.0208935 0
M  V30 20461 C 2013.62 1.55906 0.772616 0
M  V30 20462 O 2014.8 1.88412 0.711542 0
M  V30 20463 C 2011.86 3.34589 0.908354 0
M  V30 20464 C 2010.92 4.29165 0.107717 0
M  V30 20465 C 2010.16 5.24386 0.992705 0
M  V30 20466 O 2010.38 5.24907 2.23224 0
M  V30 20467 O 2009.31 6.00249 0.445563 0
M  V30 20468 H 2013.14 2.93343 -0.786347 0
M  V30 20469 H 2010.72 1.42464 -0.449929 0
M  V30 20470 H 2012.61 3.95982 1.44138 0
M  V30 20471 H 2011.28 2.78288 1.6534 0
M  V30 20472 H 2010.19 3.71139 -0.469771 0
M  V30 20473 H 2011.52 4.88547 -0.598537 0
M  V30 20474 N 2013.17 0.433965 1.51507 0
M  V30 20475 C 2014.4 -0.134793 2.06962 0
M  V30 20476 C 2014.82 -1.35984 1.29962 0
M  V30 20477 O 2014.18 -1.78147 0.336629 0
M  V30 20478 C 2014.23 -0.438976 3.57918 0
M  V30 20479 O 2013.33 -1.52599 3.83128 0
M  V30 20480 H 2012.67 -0.00334493 0.663992 0
M  V30 20481 H 2015.2 0.614327 1.95159 0
M  V30 20482 H 2015.21 -0.690415 4.02116 0
M  V30 20483 H 2013.89 0.456413 4.13388 0
M  V30 20484 H 2012.47 -1.26478 3.50796 0
M  V30 20485 N 2014.65 -1.56732 0.165206 0
M  V30 20486 C 2015.6 -2.18974 -0.784415 0
M  V30 20487 C 2016.59 -1.15199 -1.242 0
M  V30 20488 O 2017.8 -1.33411 -1.20837 0
M  V30 20489 H 2014.17 -0.701387 -0.27122 0
M  V30 20490 H 2016.14 -2.9747 -0.235435 0
M  V30 20491 C 2014.89 -2.83996 -2.00603 0
M  V30 20492 H 2014.22 -3.63574 -1.66295 0
M  V30 20493 H 2015.66 -3.31025 -2.6495 0
M  V30 20494 C 2014.12 -1.83448 -2.82574 0
M  V30 20495 O 2014.65 -1.31617 -3.79526 0
M  V30 20496 N 2012.85 -1.52342 -2.47468 0
M  V30 20497 H 2012.4 -1.94684 -1.68689 0
M  V30 20498 H 2012.36 -0.853184 -3.02602 0
M  V30 20499 N 2016.13 0.10854 -1.57226 0
M  V30 20500 C 2017.06 1.13362 -2.04135 0
M  V30 20501 C 2018.04 1.42573 -0.927733 0
M  V30 20502 O 2019.22 1.52835 -1.19813 0
M  V30 20503 C 2016.35 2.45708 -2.45449 0
M  V30 20504 C 2015.31 2.30935 -3.60351 0
M  V30 20505 C 2014.63 3.68337 -3.87597 0
M  V30 20506 C 2015.93 1.76112 -4.91713 0
M  V30 20507 H 2017.63 0.74341 -2.90024 0
M  V30 20508 H 2015.17 0.356157 -1.39526 0
M  V30 20509 H 2017.13 3.17679 -2.76872 0
M  V30 20510 H 2015.85 2.86639 -1.56544 0
M  V30 20511 H 2014.51 1.61411 -3.29153 0
M  V30 20512 H 2014.16 4.06772 -2.95881 0
M  V30 20513 H 2013.86 3.59303 -4.64946 0
M  V30 20514 H 2015.38 4.41797 -4.21483 0
M  V30 20515 H 2016.8 2.3791 -5.21605 0
M  V30 20516 H 2015.19 1.77872 -5.73133 0
M  V30 20517 H 2016.26 0.71947 -4.79533 0
M  V30 20518 N 2017.61 1.52975 0.379009 0
M  V30 20519 C 2018.88 1.59096 1.13789 0
M  V30 20520 C 2019.26 0.390236 2.07462 0
M  V30 20521 O 2018.61 -0.620644 2.1991 0
M  V30 20522 C 2018.82 2.93471 1.8888 0
M  V30 20523 C 2020.17 3.47567 2.43889 0
M  V30 20524 O 2021.19 2.95411 1.99024 0
M  V30 20525 O 2020.05 4.38714 3.25871 0
M  V30 20526 H 2017.15 0.64208 0.521213 0
M  V30 20527 H 2019.69 1.65313 0.383355 0
M  V30 20528 H 2018.46 3.72304 1.20438 0
M  V30 20529 H 2018.09 2.90684 2.71272 0
M  V30 20530 N 2019.08 -0.63804 1.44107 0
M  V30 20531 C 2020.02 -1.76333 1.46421 0
M  V30 20532 C 2021.03 -1.58805 0.358429 0
M  V30 20533 O 2022.22 -1.67246 0.623768 0
M  V30 20534 C 2019.32 -3.13967 1.27586 0
M  V30 20535 C 2018.49 -3.58016 2.51283 0
M  V30 20536 C 2017.55 -4.74503 2.27449 0
M  V30 20537 O 2016.58 -4.83167 3.00895 0
M  V30 20538 N 2017.78 -5.6574 1.3007 0
M  V30 20539 H 2020.54 -1.74822 2.43429 0
M  V30 20540 H 2018.1 -0.822384 1.39458 0
M  V30 20541 H 2020.1 -3.89605 1.09499 0
M  V30 20542 H 2018.67 -3.10162 0.389684 0
M  V30 20543 H 2017.89 -2.7266 2.84693 0
M  V30 20544 H 2019.17 -3.84197 3.33572 0
M  V30 20545 H 2018.57 -5.61427 0.693968 0
M  V30 20546 H 2017.13 -6.41037 1.17964 0
M  V30 20547 N 2020.56 -1.3089 -0.877815 0
M  V30 20548 C 2021.81 -1.19488 -1.62498 0
M  V30 20549 C 2022.12 0.247666 -1.94026 0
M  V30 20550 O 2023.33 0.483286 -2.67164 0
M  V30 20551 C 2021.79 -2.09126 -2.92906 0
M  V30 20552 C 2021.39 -3.58331 -2.68891 0
M  V30 20553 C 2023.14 -2.06505 -3.70885 0
M  V30 20554 C 2021.05 -4.40003 -3.9516 0
M  V30 20555 H 2019.98 -0.44363 -0.609679 0
M  V30 20556 H 2022.63 -1.5569 -0.971235 0
M  V30 20557 H 2021.01 -1.65815 -3.59613 0
M  V30 20558 H 2022.18 -4.09838 -2.10642 0
M  V30 20559 H 2020.5 -3.62849 -2.04278 0
M  V30 20560 H 2023.09 -2.64772 -4.64543 0
M  V30 20561 H 2023.44 -1.05026 -4.02834 0
M  V30 20562 H 2023.97 -2.47975 -3.11052 0
M  V30 20563 H 2020.71 -5.42205 -3.68366 0
M  V30 20564 H 2020.23 -3.93258 -4.52889 0
M  V30 20565 H 2021.91 -4.5181 -4.63117 0
M  V30 20566 N 2022.04 1.0911 -1.13723 0
M  V30 20567 C 2022.95 2.19388 -0.831037 0
M  V30 20568 C 2023.97 1.73007 0.185658 0
M  V30 20569 O 2025.14 2.01394 0.015917 0
M  V30 20570 C 2022.21 3.45355 -0.305036 0
M  V30 20571 C 2021.27 4.064 -1.38338 0
M  V30 20572 C 2020.5 5.26355 -0.882388 0
M  V30 20573 O 2020.72 5.69718 0.278833 0
M  V30 20574 O 2019.66 5.78609 -1.65816 0
M  V30 20575 H 2023.48 2.48037 -1.75246 0
M  V30 20576 H 2021.07 1.18108 -0.91493 0
M  V30 20577 H 2022.95 4.21396 -0.0172636 0
M  V30 20578 H 2021.63 3.18301 0.588762 0
M  V30 20579 H 2020.53 3.31981 -1.72452 0
M  V30 20580 H 2021.87 4.37688 -2.25144 0
M  V30 20581 N 2023.52 0.931232 1.27145 0
M  V30 20582 C 2024.76 0.574376 1.94496 0
M  V30 20583 C 2025.1 -0.882702 1.7298 0
M  V30 20584 O 2024.37 -1.63016 1.06094 0
M  V30 20585 C 2024.66 0.905384 3.48532 0
M  V30 20586 C 2024.51 2.41647 3.79377 0
M  V30 20587 C 2025.83 0.413756 4.38151 0
M  V30 20588 H 2022.95 0.210149 0.706404 0
M  V30 20589 H 2025.59 1.16365 1.50197 0
M  V30 20590 H 2023.74 0.403903 3.86395 0
M  V30 20591 H 2025.41 2.98992 3.51286 0
M  V30 20592 H 2023.65 2.86417 3.25803 0
M  V30 20593 H 2024.32 2.5986 4.87008 0
M  V30 20594 H 2026.8 0.843592 4.07459 0
M  V30 20595 H 2025.68 0.67428 5.44743 0
M  V30 20596 H 2025.94 -0.686214 4.36742 0
M  V30 20597 N 2025 -1.41343 0.697132 0
M  V30 20598 C 2025.96 -2.29162 0.0417336 0
M  V30 20599 C 2026.96 -1.44455 -0.706353 0
M  V30 20600 O 2028.15 -1.65586 -0.54101 0
M  V30 20601 C 2025.28 -3.2736 -0.951235 0
M  V30 20602 H 2026.48 -2.88614 0.814974 0
M  V30 20603 H 2024.03 -1.49356 0.460717 0
M  V30 20604 H 2024.76 -2.7289 -1.75218 0
M  V30 20605 H 2024.55 -3.89866 -0.417931 0
M  V30 20606 H 2026.04 -3.93164 -1.40756 0
M  V30 20607 N 2026.48 -0.441993 -1.51275 0
M  V30 20608 C 2027.42 0.367101 -2.27862 0
M  V30 20609 C 2028.39 1.01278 -1.31651 0
M  V30 20610 O 2029.58 1.0308 -1.60559 0
M  V30 20611 C 2026.72 1.45971 -3.12708 0
M  V30 20612 C 2025.83 0.831707 -4.23918 0
M  V30 20613 C 2024.97 1.89976 -4.96067 0
M  V30 20614 C 2024 1.25043 -5.99192 0
M  V30 20615 N 2023.14 2.26005 -6.6473 0
M  V30 20616 H 2027.98 -0.292361 -2.96562 0
M  V30 20617 H 2025.52 -0.156023 -1.4627 0
M  V30 20618 H 2027.48 2.10453 -3.6023 0
M  V30 20619 H 2026.11 2.08874 -2.46113 0
M  V30 20620 H 2025.16 0.0750644 -3.80326 0
M  V30 20621 H 2026.47 0.317691 -4.97787 0
M  V30 20622 H 2025.62 2.62108 -5.4716 0
M  V30 20623 H 2024.36 2.44751 -4.21839 0
M  V30 20624 H 2023.37 0.514597 -5.47386 0
M  V30 20625 H 2024.59 0.709951 -6.75379 0
M  V30 20626 H 2022.54 2.79852 -5.93312 0
M  V30 20627 H 2022.46 1.79508 -7.34379 0
M  V30 20628 H 2023.72 2.97607 -7.20452 0
M  V30 20629 N 2027.95 1.56642 -0.173515 0
M  V30 20630 C 2028.88 2.21076 0.751509 0
M  V30 20631 C 2029.86 1.16706 1.23749 0
M  V30 20632 O 2031.05 1.45142 1.29025 0
M  V30 20633 C 2028.18 2.85323 1.9801 0
M  V30 20634 C 2027.13 3.95751 1.62989 0
M  V30 20635 C 2026.46 4.47058 2.93332 0
M  V30 20636 C 2027.76 5.15234 0.856231 0
M  V30 20637 H 2029.45 2.98631 0.21442 0
M  V30 20638 H 2027 1.4364 0.101692 0
M  V30 20639 H 2028.95 3.29075 2.63226 0
M  V30 20640 H 2027.68 2.0514 2.54136 0
M  V30 20641 H 2026.34 3.52658 1.00141 0
M  V30 20642 H 2025.98 3.63663 3.47503 0
M  V30 20643 H 2025.68 5.21556 2.70652 0
M  V30 20644 H 2027.21 4.93497 3.59573 0
M  V30 20645 H 2028.62 5.55665 1.41102 0
M  V30 20646 H 2027.02 5.95663 0.728389 0
M  V30 20647 H 2028.09 4.84677 -0.147009 0
M  V30 20648 N 2029.43 -0.1002 1.57281 0
M  V30 20649 C 2030.71 -0.836006 1.76834 0
M  V30 20650 C 2031.09 -1.9718 0.753864 0
M  V30 20651 O 2030.44 -2.27452 -0.218626 0
M  V30 20652 C 2030.65 -1.33532 3.22444 0
M  V30 20653 C 2031.99 -1.78015 3.85481 0
M  V30 20654 O 2033.02 -1.43167 3.26162 0
M  V30 20655 O 2031.88 -2.42432 4.89784 0
M  V30 20656 H 2028.97 -0.398386 0.724719 0
M  V30 20657 H 2031.52 -0.0824784 1.69499 0
M  V30 20658 H 2030.29 -0.521307 3.87812 0
M  V30 20659 H 2029.91 -2.151 3.34391 0
M  V30 20660 N 2030.91 -1.53174 -0.370891 0
M  V30 20661 C 2032.16 -1.68764 -1.11189 0
M  V30 20662 C 2032.48 -0.439297 -1.89987 0
M  V30 20663 O 2031.75 0.546592 -1.8812 0
M  V30 20664 H 2030.33 -0.622136 -0.413467 0
M  V30 20665 H 2032.99 -1.90347 -0.418794 0
M  V30 20666 H 2032.09 -2.54633 -1.80468 0
M  V30 20667 N 2032.39 0.630389 -1.44443 0
M  V30 20668 C 2033.62 1.41712 -1.50749 0
M  V30 20669 C 2034.03 1.88334 -0.132593 0
M  V30 20670 O 2033.39 1.60878 0.861649 0
M  V30 20671 C 2033.44 2.63694 -2.47281 0
M  V30 20672 O 2033.16 2.19016 -3.79425 0
M  V30 20673 C 2034.66 3.56813 -2.63058 0
M  V30 20674 H 2031.88 0.43458 -0.511255 0
M  V30 20675 H 2034.42 0.770878 -1.89414 0
M  V30 20676 H 2032.58 3.24409 -2.11749 0
M  V30 20677 H 2032.99 2.98104 -4.31549 0
M  V30 20678 H 2034.47 4.39008 -3.34628 0
M  V30 20679 H 2034.94 4.05669 -1.68313 0
M  V30 20680 H 2035.55 3.01966 -2.99494 0
M  V30 20681 N 2033.87 1.31354 0.870861 0
M  V30 20682 C 2034.8 1.21518 1.99388 0
M  V30 20683 C 2035.78 0.102582 1.6979 0
M  V30 20684 O 2036.96 0.287028 1.92067 0
M  V30 20685 C 2034.09 0.920813 3.34871 0
M  V30 20686 C 2033.05 1.99289 3.78772 0
M  V30 20687 C 2032.37 1.55123 5.11704 0
M  V30 20688 C 2033.67 3.40589 3.95975 0
M  V30 20689 H 2035.37 2.15473 2.07875 0
M  V30 20690 H 2032.91 1.03734 0.998761 0
M  V30 20691 H 2034.86 0.838612 4.12971 0
M  V30 20692 H 2033.59 -0.0543971 3.26555 0
M  V30 20693 H 2032.25 2.06496 3.0291 0
M  V30 20694 H 2031.9 0.563901 4.99829 0
M  V30 20695 H 2031.6 2.26842 5.42048 0
M  V30 20696 H 2033.12 1.48308 5.92315 0
M  V30 20697 H 2034.53 3.36061 4.64474 0
M  V30 20698 H 2032.93 4.10517 4.37716 0
M  V30 20699 H 2034 3.8144 2.99385 0
M  V30 20700 N 2035.34 -1.08505 1.143 0
M  V30 20701 C 2036.76 -1.32937 0.883172 0
M  V30 20702 C 2036.96 -1.95791 -0.47623 0
M  V30 20703 O 2036.02 -2.2103 -1.22073 0
M  V30 20704 C 2037.33 -2.23189 2.01512 0
M  V30 20705 C 2038.88 -2.36672 2.0483 0
M  V30 20706 C 2039.35 -3.30266 3.17314 0
M  V30 20707 N 2040.84 -3.37843 3.16886 0
M  V30 20708 C 2041.58 -4.1029 4.00561 0
M  V30 20709 N 2041.07 -4.85454 4.94274 0
M  V30 20710 N 2042.87 -4.06111 3.88626 0
M  V30 20711 H 2035.02 -0.660869 2.01857 0
M  V30 20712 H 2037.28 -0.353741 0.879529 0
M  V30 20713 H 2036.99 -1.84248 2.99576 0
M  V30 20714 H 2036.86 -3.23644 1.93738 0
M  V30 20715 H 2039.25 -2.74873 1.07373 0
M  V30 20716 H 2039.33 -1.35963 2.16674 0
M  V30 20717 H 2038.97 -2.92787 4.15016 0
M  V30 20718 H 2038.9 -4.30901 3.02707 0
M  V30 20719 H 2041.39 -2.84257 2.49011 0
M  V30 20720 H 2041.71 -5.38193 5.54588 0
M  V30 20721 H 2040.05 -4.8451 4.98272 0
M  V30 20722 H 2043.24 -3.46497 3.14734 0
M  V30 20723 H 2043.42 -4.6231 4.54064 0
M  V30 20724 N 2036.82 -0.937962 -1.26649 0
M  V30 20725 C 2038.05 -0.600464 -1.97995 0
M  V30 20726 C 2038.46 0.823838 -1.69877 0
M  V30 20727 O 2037.82 1.5489 -0.965163 0
M  V30 20728 C 2037.87 -0.829264 -3.5186 0
M  V30 20729 O 2037.59 -2.19754 -3.78998 0
M  V30 20730 C 2039.09 -0.501874 -4.4045 0
M  V30 20731 H 2036.31 -0.226587 -0.631585 0
M  V30 20732 H 2038.86 -1.25779 -1.61245 0
M  V30 20733 H 2037.01 -0.218596 -3.86783 0
M  V30 20734 H 2037.43 -2.25518 -4.73542 0
M  V30 20735 H 2038.9 -0.712605 -5.47381 0
M  V30 20736 H 2039.38 0.56301 -4.35576 0
M  V30 20737 H 2039.98 -1.09113 -4.11065 0
M  V30 20738 N 2038.3 1.40971 -0.704618 0
M  V30 20739 C 2039.53 2.05399 -0.248738 0
M  V30 20740 C 2039.94 1.53056 1.10541 0
M  V30 20741 O 2039.3 0.682534 1.69256 0
M  V30 20742 C 2039.35 3.60902 -0.207794 0
M  V30 20743 O 2039.07 4.11311 -1.50846 0
M  V30 20744 C 2040.57 4.42489 0.267977 0
M  V30 20745 H 2037.79 0.661269 -0.11386 0
M  V30 20746 H 2040.34 1.8058 -0.959745 0
M  V30 20747 H 2038.49 3.84729 0.4541 0
M  V30 20748 H 2038.91 5.05426 -1.4016 0
M  V30 20749 H 2040.38 5.51454 0.245489 0
M  V30 20750 H 2040.86 4.1926 1.30836 0
M  V30 20751 H 2041.46 4.23746 -0.363242 0
M  V30 20752 N 2039.78 0.45001 1.51039 0
M  V30 20753 C 2040.71 -0.345315 2.30933 0
M  V30 20754 C 2041.69 -1.00959 1.36899 0
M  V30 20755 O 2042.87 -1.0108 1.6582 0
M  V30 20756 C 2040 -1.43968 3.16055 0
M  V30 20757 C 2038.96 -0.898198 4.18469 0
M  V30 20758 C 2038.28 -2.08927 4.92193 0
M  V30 20759 C 2039.58 0.0760911 5.22245 0
M  V30 20760 H 2041.28 0.321441 2.97669 0
M  V30 20761 H 2038.82 0.156032 1.43152 0
M  V30 20762 H 2040.78 -2.00338 3.70732 0
M  V30 20763 H 2039.5 -2.1349 2.47163 0
M  V30 20764 H 2038.16 -0.356617 3.64861 0
M  V30 20765 H 2037.81 -2.77098 4.19792 0
M  V30 20766 H 2037.51 -1.73328 5.61454 0
M  V30 20767 H 2039.03 -2.65827 5.49698 0
M  V30 20768 H 2040.45 -0.397728 5.71919 0
M  V30 20769 H 2038.84 0.345281 5.99106 0
M  V30 20770 H 2039.91 1.00878 4.74291 0
M  V30 20771 N 2041.26 -1.56548 0.18182 0
M  V30 20772 C 2042.19 -2.21471 -0.739774 0
M  V30 20773 C 2043.17 -1.17361 -1.23128 0
M  V30 20774 O 2044.35 -1.45825 -1.28253 0
M  V30 20775 C 2041.48 -2.86369 -1.96494 0
M  V30 20776 C 2040.44 -3.96609 -1.60888 0
M  V30 20777 C 2039.76 -4.48607 -2.90957 0
M  V30 20778 C 2041.06 -5.15681 -0.828895 0
M  V30 20779 H 2042.76 -2.98741 -0.19858 0
M  V30 20780 H 2040.3 -1.43692 -0.0940725 0
M  V30 20781 H 2042.26 -3.30466 -2.61477 0
M  V30 20782 H 2040.98 -2.06485 -2.53045 0
M  V30 20783 H 2039.64 -3.53184 -0.982694 0
M  V30 20784 H 2039.29 -3.65501 -3.45569 0
M  V30 20785 H 2038.99 -5.22984 -2.67882 0
M  V30 20786 H 2040.51 -4.95397 -3.56951 0
M  V30 20787 H 2041.92 -5.56405 -1.38153 0
M  V30 20788 H 2040.32 -5.96041 -0.696789 0
M  V30 20789 H 2041.39 -4.84592 0.172711 0
M  V30 20790 N 2042.73 0.0918577 -1.57332 0
M  V30 20791 C 2043.7 1.09546 -2.01326 0
M  V30 20792 C 2044.7 1.32761 -0.907252 0
M  V30 20793 O 2045.89 1.2882 -1.17265 0
M  V30 20794 C 2043.02 2.44385 -2.37674 0
M  V30 20795 H 2044.21 0.71671 -2.9121 0
M  V30 20796 H 2041.77 0.337001 -1.52624 0
M  V30 20797 H 2042.5 2.8713 -1.50755 0
M  V30 20798 H 2042.29 2.28882 -3.18364 0
M  V30 20799 H 2043.78 3.16562 -2.72357 0
M  V30 20800 N 2044.21 1.53368 0.362763 0
M  V30 20801 C 2045.46 1.69352 1.10292 0
M  V30 20802 C 2045.78 0.449366 1.89752 0
M  V30 20803 O 2045.05 -0.536608 1.88407 0
M  V30 20804 H 2043.63 0.62432 0.410162 0
M  V30 20805 H 2046.29 1.90567 0.408694 0
M  V30 20806 H 2045.39 2.55586 1.79115 0
M  V30 20807 N 2045.69 -0.62272 1.44776 0
M  V30 20808 C 2046.97 -1.38145 1.38475 0
M  V30 20809 C 2047.35 -2.11046 0.0476847 0
M  V30 20810 O 2046.7 -2.0689 -0.969982 0
M  V30 20811 C 2046.91 -2.34088 2.58851 0
M  V30 20812 C 2048.25 -2.97162 3.03282 0
M  V30 20813 O 2049.28 -2.44412 2.59116 0
M  V30 20814 O 2048.14 -3.92874 3.79885 0
M  V30 20815 H 2045.23 -0.618685 0.548779 0
M  V30 20816 H 2047.78 -0.647072 1.56879 0
M  V30 20817 H 2046.55 -1.79376 3.47764 0
M  V30 20818 H 2046.17 -3.1493 2.42703 0
M  V30 20819 N 2047.17 -1.31814 -0.863883 0
M  V30 20820 C 2048.42 -1.21205 -1.61221 0
M  V30 20821 C 2048.73 0.227073 -1.94277 0
M  V30 20822 O 2049.94 0.454922 -2.67662 0
M  V30 20823 C 2048.39 -2.12221 -2.90672 0
M  V30 20824 C 2048 -3.61163 -2.65076 0
M  V30 20825 C 2049.74 -2.10427 -3.68674 0
M  V30 20826 C 2047.65 -4.44169 -3.90471 0
M  V30 20827 H 2046.58 -0.450072 -0.604939 0
M  V30 20828 H 2049.23 -1.56711 -0.954668 0
M  V30 20829 H 2047.61 -1.6962 -3.57834 0
M  V30 20830 H 2048.79 -4.12049 -2.06283 0
M  V30 20831 H 2047.1 -3.64995 -2.00418 0
M  V30 20832 H 2049.7 -2.69684 -4.61708 0
M  V30 20833 H 2050.04 -1.09293 -4.01697 0
M  V30 20834 H 2050.58 -2.5126 -3.08404 0
M  V30 20835 H 2047.32 -5.46082 -3.62595 0
M  V30 20836 H 2046.84 -3.98039 -4.48693 0
M  V30 20837 H 2048.51 -4.56696 -4.58299 0
M  V30 20838 N 2048.65 1.07897 -1.14873 0
M  V30 20839 C 2049.56 2.18494 -0.854259 0
M  V30 20840 C 2050.57 1.73194 0.167297 0
M  V30 20841 O 2051.75 2.01399 -0.00544437 0
M  V30 20842 C 2048.81 3.45013 -0.341649 0
M  V30 20843 C 2047.87 4.0491 -1.42641 0
M  V30 20844 C 2047.11 5.2539 -0.938165 0
M  V30 20845 O 2047.33 5.69982 0.218391 0
M  V30 20846 O 2046.26 5.76818 -1.71943 0
M  V30 20847 H 2050.09 2.46164 -1.77867 0
M  V30 20848 H 2047.68 1.1713 -0.927406 0
M  V30 20849 H 2049.56 4.21354 -0.0619573 0
M  V30 20850 H 2048.23 3.18907 0.554969 0
M  V30 20851 H 2047.14 3.30133 -1.75963 0
M  V30 20852 H 2048.47 4.35276 -2.29774 0
M  V30 20853 N 2050.12 0.944665 1.2615 0
M  V30 20854 C 2051.07 0.427821 2.2395 0
M  V30 20855 C 2052.06 -0.477398 1.53655 0
M  V30 20856 O 2053.25 -0.312076 1.74227 0
M  V30 20857 C 2050.38 -0.302536 3.41964 0
M  V30 20858 C 2049.47 0.620176 4.19541 0
M  V30 20859 N 2049.86 1.74748 4.74654 0
M  V30 20860 C 2048.15 0.426435 4.43957 0
M  V30 20861 C 2048.86 2.32276 5.33313 0
M  V30 20862 N 2047.83 1.61039 5.19199 0
M  V30 20863 H 2051.63 1.2883 2.64159 0
M  V30 20864 H 2049.15 0.80095 1.41275 0
M  V30 20865 H 2051.14 -0.689868 4.11153 0
M  V30 20866 H 2049.8 -1.15974 3.03282 0
M  V30 20867 H 2050.82 2.12956 4.72091 0
M  V30 20868 H 2047.49 -0.388715 4.15686 0
M  V30 20869 H 2048.88 3.27279 5.86803 0
M  V30 20870 N 2051.6 -1.40596 0.712085 0
M  V30 20871 C 2053.01 -1.83887 0.322883 0
M  V30 20872 C 2053.36 -1.59548 -1.14188 0
M  V30 20873 O 2052.49 -1.07452 -1.87838 0
M  V30 20874 C 2053.08 -3.33811 0.579252 0
M  V30 20875 C 2051.64 -3.7561 0.243796 0
M  V30 20876 C 2050.79 -2.63843 0.853361 0
M  V30 20877 H 2053.74 -1.29913 0.911501 0
M  V30 20878 H 2053.76 -3.80177 -0.156661 0
M  V30 20879 H 2053.27 -3.51494 1.6454 0
M  V30 20880 H 2051.38 -3.63523 -0.817429 0
M  V30 20881 H 2051.49 -4.73805 0.710348 0
M  V30 20882 H 2049.85 -2.53138 0.281671 0
M  V30 20883 H 2050.64 -2.84339 1.9237 0
M  V30 20884 N 2053.08 -0.458013 -1.50798 0
M  V30 20885 C 2054.5 -0.111425 -1.59211 0
M  V30 20886 C 2054.7 1.38104 -1.46729 0
M  V30 20887 O 2053.75 2.15306 -1.31907 0
M  V30 20888 C 2055.07 -0.649971 -2.93591 0
M  V30 20889 C 2056.61 -0.612237 -3.06954 0
M  V30 20890 C 2057.09 -1.1281 -4.43889 0
M  V30 20891 N 2058.58 -1.08696 -4.50266 0
M  V30 20892 C 2059.31 -1.45676 -5.54586 0
M  V30 20893 N 2058.81 -1.90042 -6.66225 0
M  V30 20894 N 2060.6 -1.37362 -5.45058 0
M  V30 20895 H 2052.75 -1.42885 -1.57155 0
M  V30 20896 H 2055.02 -0.590085 -0.741959 0
M  V30 20897 H 2054.72 -1.695 -3.0816 0
M  V30 20898 H 2054.6 -0.0862666 -3.77101 0
M  V30 20899 H 2056.98 0.42385 -2.9204 0
M  V30 20900 H 2057.07 -1.21259 -2.25233 0
M  V30 20901 H 2056.71 -2.16276 -4.59551 0
M  V30 20902 H 2056.64 -0.50409 -5.24182 0
M  V30 20903 H 2059.13 -0.761406 -3.7015 0
M  V30 20904 H 2059.44 -2.16442 -7.41871 0
M  V30 20905 H 2057.79 -1.93985 -6.67379 0
M  V30 20906 H 2060.98 -1.02552 -4.56728 0
M  V30 20907 H 2061.15 -1.66508 -6.26242 0
M  V30 20908 N 2054.56 1.56449 -0.190119 0
M  V30 20909 C 2055.52 2.17632 0.718966 0
M  V30 20910 C 2056.52 1.12941 1.14459 0
M  V30 20911 O 2057.71 1.38353 1.05849 0
M  V30 20912 C 2054.84 2.77437 1.98095 0
M  V30 20913 H 2056.04 2.99322 0.186033 0
M  V30 20914 H 2053.59 1.56187 0.0594913 0
M  V30 20915 H 2054.33 1.99531 2.55652 0
M  V30 20916 H 2054.11 3.5407 1.68454 0
M  V30 20917 H 2055.6 3.24433 2.62932 0
M  V30 20918 N 2056.04 -0.0835127 1.57379 0
M  V30 20919 C 2057.29 -0.783627 1.85855 0
M  V30 20920 C 2057.6 -1.79328 0.781081 0
M  V30 20921 O 2058.81 -2.54212 0.953327 0
M  V30 20922 C 2057.26 -1.44454 3.29638 0
M  V30 20923 C 2056.87 -0.474058 4.45485 0
M  V30 20924 C 2058.61 -2.1277 3.67327 0
M  V30 20925 C 2056.52 -1.14022 5.80304 0
M  V30 20926 H 2055.45 -0.296407 0.693295 0
M  V30 20927 H 2058.1 -0.0367253 1.83463 0
M  V30 20928 H 2056.48 -2.2393 3.26606 0
M  V30 20929 H 2057.66 0.290043 4.59886 0
M  V30 20930 H 2055.97 0.104026 4.1627 0
M  V30 20931 H 2058.57 -2.63365 4.65342 0
M  V30 20932 H 2058.91 -2.92187 2.96534 0
M  V30 20933 H 2059.45 -1.4014 3.72298 0
M  V30 20934 H 2056.18 -0.386619 6.54359 0
M  V30 20935 H 2055.7 -1.87547 5.69725 0
M  V30 20936 H 2057.38 -1.66341 6.25252 0
M  V30 20937 N 2057.52 -1.53558 -0.354624 0
M  V30 20938 C 2058.48 -1.80084 -1.41783 0
M  V30 20939 C 2059.48 -0.671552 -1.46105 0
M  V30 20940 O 2060.67 -0.939801 -1.46674 0
M  V30 20941 C 2057.8 -1.93284 -2.8081 0
M  V30 20942 H 2058.99 -2.75049 -1.19532 0
M  V30 20943 H 2056.55 -1.44802 -0.588388 0
M  V30 20944 H 2057.28 -1.00423 -3.0836 0
M  V30 20945 H 2057.07 -2.75432 -2.7907 0
M  V30 20946 H 2058.56 -2.15361 -3.57784 0
M  V30 20947 N 2058.99 0.615033 -1.45104 0
M  V30 20948 C 2059.92 1.73703 -1.56043 0
M  V30 20949 C 2060.9 1.65025 -0.412413 0
M  V30 20950 O 2062.09 1.83539 -0.634606 0
M  V30 20951 C 2059.22 3.12287 -1.51968 0
M  V30 20952 C 2058.17 3.35769 -2.65411 0
M  V30 20953 C 2057.5 4.74549 -2.46389 0
M  V30 20954 C 2058.8 3.26752 -4.07469 0
M  V30 20955 H 2060.49 1.64805 -2.4996 0
M  V30 20956 H 2058.04 0.791445 -1.203 0
M  V30 20957 H 2059.99 3.9057 -1.58219 0
M  V30 20958 H 2058.72 3.22008 -0.545769 0
M  V30 20959 H 2057.38 2.59874 -2.58575 0
M  V30 20960 H 2057.02 4.80994 -1.47153 0
M  V30 20961 H 2056.72 4.91217 -3.22458 0
M  V30 20962 H 2058.25 5.55041 -2.54482 0
M  V30 20963 H 2059.66 3.94918 -4.15587 0
M  V30 20964 H 2058.06 3.54952 -4.83869 0
M  V30 20965 H 2059.13 2.24305 -4.29902 0
M  V30 20966 N 2060.47 1.3227 0.85688 0
M  V30 20967 C 2061.75 1.13324 1.59427 0
M  V30 20968 C 2062.13 -0.307216 2.08853 0
M  V30 20969 O 2061.48 -1.30347 1.87675 0
M  V30 20970 C 2061.69 2.15889 2.74213 0
M  V30 20971 C 2063.03 2.49103 3.4385 0
M  V30 20972 O 2064.06 2.14417 2.84436 0
M  V30 20973 O 2062.92 3.08555 4.51061 0
M  V30 20974 H 2060.01 0.437152 0.702016 0
M  V30 20975 H 2062.56 1.43793 0.901202 0
M  V30 20976 H 2061.33 3.12724 2.35201 0
M  V30 20977 H 2060.95 1.86401 3.51198 0
M  V30 20978 N 2061.95 -1.07287 1.15444 0
M  V30 20979 C 2063.36 -1.61368 0.939004 0
M  V30 20980 C 2063.71 -1.89196 -0.519532 0
M  V30 20981 O 2062.84 -1.65791 -1.39076 0
M  V30 20982 C 2063.43 -2.93171 1.69813 0
M  V30 20983 C 2061.99 -3.43992 1.52796 0
M  V30 20984 C 2061.14 -2.1804 1.7133 0
M  V30 20985 H 2064.09 -0.903656 1.3046 0
M  V30 20986 H 2064.11 -3.62129 1.16802 0
M  V30 20987 H 2063.62 -2.72885 2.75963 0
M  V30 20988 H 2061.72 -3.69358 0.490429 0
M  V30 20989 H 2061.84 -4.19988 2.30536 0
M  V30 20990 H 2060.2 -2.2777 1.13987 0
M  V30 20991 H 2060.98 -2.00248 2.78847 0
M  V30 20992 N 2063.43 -0.951342 -1.25647 0
M  V30 20993 C 2064.84 -0.655246 -1.45529 0
M  V30 20994 C 2065.04 0.788272 -1.85441 0
M  V30 20995 O 2064.1 1.5639 -1.98238 0
M  V30 20996 C 2065.41 -1.62536 -2.52987 0
M  V30 20997 C 2066.96 -1.63618 -2.6683 0
M  V30 20998 C 2067.44 -2.59385 -3.77469 0
M  V30 20999 N 2068.93 -2.57731 -3.84876 0
M  V30 21000 C 2069.66 -3.28512 -4.69966 0
M  V30 21001 N 2069.16 -4.08754 -5.59367 0
M  V30 21002 N 2070.95 -3.17415 -4.63901 0
M  V30 21003 H 2063.1 -1.88424 -0.980317 0
M  V30 21004 H 2065.36 -0.8103 -0.492055 0
M  V30 21005 H 2065.07 -2.65628 -2.3051 0
M  V30 21006 H 2064.94 -1.38531 -3.5084 0
M  V30 21007 H 2067.33 -0.61246 -2.88674 0
M  V30 21008 H 2067.41 -1.91681 -1.69387 0
M  V30 21009 H 2067.06 -3.61882 -3.56376 0
M  V30 21010 H 2066.99 -2.28608 -4.7439 0
M  V30 21011 H 2069.48 -1.99473 -3.20966 0
M  V30 21012 H 2069.79 -4.5969 -6.21212 0
M  V30 21013 H 2068.14 -4.12853 -5.59086 0
M  V30 21014 H 2071.33 -2.54201 -3.93064 0
M  V30 21015 H 2071.5 -3.72843 -5.29992 0
M  V30 21016 N 2064.91 1.40216 -0.719531 0
M  V30 21017 C 2066.18 1.94697 -0.18772 0
M  V30 21018 C 2066.56 1.65742 1.30739 0
M  V30 21019 O 2065.91 0.97723 2.06549 0
M  V30 21020 C 2066.12 3.45332 -0.50469 0
M  V30 21021 C 2067.47 4.22256 -0.445515 0
M  V30 21022 O 2068.49 3.5346 -0.440978 0
M  V30 21023 O 2067.35 5.44833 -0.426487 0
M  V30 21024 H 2064.45 0.82649 -0.0290376 0
M  V30 21025 H 2066.99 1.49802 -0.797333 0
M  V30 21026 H 2065.76 3.5978 -1.53863 0
M  V30 21027 H 2065.39 3.97372 0.134684 0
M  V30 21028 N 2066.38 0.466004 1.50553 0
M  V30 21029 C 2067.63 -0.09056 2.01897 0
M  V30 21030 C 2067.95 -1.40673 1.35041 0
M  V30 21031 O 2067.22 -1.89567 0.494095 0
M  V30 21032 H 2065.8 -0.0364574 0.74611 0
M  V30 21033 H 2068.46 0.615265 1.84934 0
M  V30 21034 H 2067.56 -0.245757 3.11131 0
M  V30 21035 N 2067.86 -1.56346 0.198413 0
M  V30 21036 C 2069.11 -1.96849 -0.439713 0
M  V30 21037 C 2069.42 -1.08829 -1.62529 0
M  V30 21038 O 2070.63 -1.39128 -2.33143 0
M  V30 21039 C 2069.09 -3.50111 -0.83369 0
M  V30 21040 C 2068.69 -4.46799 0.327785 0
M  V30 21041 C 2070.44 -3.99376 -1.43871 0
M  V30 21042 C 2068.34 -5.91336 -0.0873357 0
M  V30 21043 H 2067.27 -0.735034 -0.168052 0
M  V30 21044 H 2069.93 -1.81179 0.290957 0
M  V30 21045 H 2068.31 -3.61297 -1.62112 0
M  V30 21046 H 2069.48 -4.47347 1.10532 0
M  V30 21047 H 2067.8 -4.07746 0.844522 0
M  V30 21048 H 2070.39 -5.04841 -1.76181 0
M  V30 21049 H 2070.74 -3.43877 -2.34637 0
M  V30 21050 H 2071.27 -3.91318 -0.715186 0
M  V30 21051 H 2068.01 -6.50768 0.786222 0
M  V30 21052 H 2067.53 -5.94034 -0.829663 0
M  V30 21053 H 2069.21 -6.44891 -0.522002 0
M  V30 21054 N 2069.34 0.0751653 -1.57421 0
M  V30 21055 C 2070.27 1.09007 -2.06494 0
M  V30 21056 C 2071.25 1.40573 -0.957766 0
M  V30 21057 O 2072.44 1.50259 -1.23028 0
M  V30 21058 C 2069.57 2.40446 -2.50605 0
M  V30 21059 C 2068.52 2.2324 -3.65168 0
M  V30 21060 C 2067.85 3.60033 -3.95323 0
M  V30 21061 C 2069.15 1.65642 -4.95338 0
M  V30 21062 H 2070.84 0.681725 -2.91535 0
M  V30 21063 H 2068.39 0.326481 -1.4025 0
M  V30 21064 H 2070.34 3.11734 -2.83548 0
M  V30 21065 H 2069.06 2.83254 -1.62588 0
M  V30 21066 H 2067.72 1.54393 -3.32503 0
M  V30 21067 H 2067.37 4.00404 -3.04443 0
M  V30 21068 H 2067.07 3.4936 -4.72463 0
M  V30 21069 H 2068.59 4.32757 -4.30759 0
M  V30 21070 H 2070.01 2.26793 -5.26534 0
M  V30 21071 H 2068.41 1.65675 -5.76777 0
M  V30 21072 H 2069.48 0.617593 -4.80951 0
M  V30 21073 N 2070.82 1.53744 0.346476 0
M  V30 21074 C 2072.07 1.70849 1.08705 0
M  V30 21075 C 2072.39 0.470151 1.88732 0
M  V30 21076 O 2071.65 -0.548082 1.87868 0
M  V30 21077 C 2071.95 2.92192 2.05812 0
M  V30 21078 C 2071.61 4.27917 1.42119 0
M  V30 21079 C 2070.28 4.64821 1.24477 0
M  V30 21080 C 2072.63 5.12243 0.962087 0
M  V30 21081 C 2069.96 5.83671 0.595386 0
M  V30 21082 C 2072.31 6.31756 0.326627 0
M  V30 21083 C 2070.97 6.67358 0.137866 0
M  V30 21084 H 2070.24 0.625182 0.397779 0
M  V30 21085 H 2072.89 1.87957 0.366657 0
M  V30 21086 H 2071.19 2.69675 2.84223 0
M  V30 21087 H 2072.89 3.0262 2.63101 0
M  V30 21088 H 2069.48 3.9887 1.56847 0
M  V30 21089 H 2073.66 4.84267 1.08625 0
M  V30 21090 H 2068.92 6.09831 0.437727 0
M  V30 21091 H 2073.09 6.9639 -0.0372189 0
M  V30 21092 H 2070.72 7.59312 -0.367372 0
M  V30 21093 N 2072.3 -0.607329 1.45428 0
M  V30 21094 C 2073.54 -1.36639 1.5067 0
M  V30 21095 C 2073.9 -1.91842 0.146461 0
M  V30 21096 O 2073.19 -1.72123 -0.84167 0
M  V30 21097 C 2073.38 -2.53276 2.52163 0
M  V30 21098 C 2073.21 -2.09494 3.97922 0
M  V30 21099 C 2071.98 -1.95655 4.65883 0
M  V30 21100 C 2074.18 -1.66947 4.8645 0
M  V30 21101 N 2072.16 -1.45687 5.96363 0
M  V30 21102 C 2073.53 -1.28396 6.0656 0
M  V30 21103 C 2075.59 -1.54541 4.73309 0
M  V30 21104 C 2074.29 -0.78677 7.14984 0
M  V30 21105 C 2076.32 -1.06227 5.81782 0
M  V30 21106 C 2075.68 -0.686398 7.01048 0
M  V30 21107 H 2071.78 -0.493901 0.606288 0
M  V30 21108 H 2074.36 -0.694251 1.81902 0
M  V30 21109 H 2072.53 -3.18085 2.22883 0
M  V30 21110 H 2074.27 -3.20157 2.47552 0
M  V30 21111 H 2071.02 -2.16848 4.21039 0
M  V30 21112 H 2071.45 -1.22934 6.65745 0
M  V30 21113 H 2076.09 -1.82226 3.81515 0
M  V30 21114 H 2073.81 -0.497468 8.06567 0
M  V30 21115 H 2077.39 -0.970533 5.73648 0
M  V30 21116 H 2076.27 -0.318291 7.83554 0
M  V30 21117 N 2073.77 -1.32722 -0.849853 0
M  V30 21118 C 2075 -1.26568 -1.63671 0
M  V30 21119 C 2075.42 0.165453 -1.88074 0
M  V30 21120 O 2074.77 1.1041 -1.45313 0
M  V30 21121 C 2074.83 -2.027 -2.99324 0
M  V30 21122 O 2074.55 -3.40229 -2.75999 0
M  V30 21123 C 2076.05 -2.03626 -3.93766 0
M  V30 21124 H 2073.27 -0.436491 -0.509624 0
M  V30 21125 H 2075.81 -1.74922 -1.05937 0
M  V30 21126 H 2073.97 -1.58056 -3.53691 0
M  V30 21127 H 2074.38 -3.79256 -3.62305 0
M  V30 21128 H 2075.85 -2.61369 -4.862 0
M  V30 21129 H 2076.33 -1.02373 -4.27102 0
M  V30 21130 H 2076.94 -2.48239 -3.45337 0
M  V30 21131 N 2075.25 1.06673 -1.16011 0
M  V30 21132 C 2076.53 1.76186 -0.849577 0
M  V30 21133 C 2076.91 2.00733 0.653401 0
M  V30 21134 O 2076.26 1.63135 1.59998 0
M  V30 21135 C 2076.47 3.06559 -1.66802 0
M  V30 21136 C 2077.82 3.80782 -1.87857 0
M  V30 21137 O 2078.84 3.16389 -1.63635 0
M  V30 21138 O 2077.7 4.96451 -2.2847 0
M  V30 21139 H 2074.79 0.76543 -0.313123 0
M  V30 21140 H 2077.34 1.12976 -1.26627 0
M  V30 21141 H 2076.11 2.84353 -2.68811 0
M  V30 21142 H 2075.73 3.77502 -1.24811 0
M  V30 21143 N 2076.73 0.957992 1.25141 0
M  V30 21144 C 2077.98 0.625071 1.93557 0
M  V30 21145 C 2078.33 -0.829302 1.7361 0
M  V30 21146 O 2077.62 -1.58763 1.07261 0
M  V30 21147 C 2077.82 0.923523 3.45262 0
M  V30 21148 C 2077.65 2.40536 3.79964 0
M  V30 21149 C 2076.42 3.0635 4.01843 0
M  V30 21150 C 2078.62 3.38489 3.87207 0
M  V30 21151 N 2076.6 4.44371 4.23565 0
M  V30 21152 C 2077.97 4.6183 4.13658 0
M  V30 21153 C 2080.02 3.33281 3.69903 0
M  V30 21154 C 2078.73 5.80608 4.24603 0
M  V30 21155 C 2080.75 4.514 3.82088 0
M  V30 21156 C 2080.11 5.73529 4.08954 0
M  V30 21157 H 2076.21 0.279402 0.730383 0
M  V30 21158 H 2078.8 1.23086 1.50857 0
M  V30 21159 H 2076.97 0.346636 3.8685 0
M  V30 21160 H 2078.7 0.550165 4.00943 0
M  V30 21161 H 2075.46 2.5691 3.97862 0
M  V30 21162 H 2075.88 5.15861 4.38425 0
M  V30 21163 H 2080.52 2.39904 3.48146 0
M  V30 21164 H 2078.24 6.74422 4.45174 0
M  V30 21165 H 2081.83 4.48922 3.70082 0
M  V30 21166 H 2080.71 6.63403 4.1817 0
M  V30 21167 N 2078.21 -1.39832 0.726957 0
M  V30 21168 C 2079.49 -1.94595 0.198042 0
M  V30 21169 C 2079.87 -1.66433 -1.29858 0
M  V30 21170 O 2079.21 -0.98817 -2.06028 0
M  V30 21171 C 2079.42 -3.45059 0.522997 0
M  V30 21172 C 2080.77 -4.22014 0.467902 0
M  V30 21173 O 2081.8 -3.53221 0.459717 0
M  V30 21174 O 2080.65 -5.44599 0.455375 0
M  V30 21175 H 2077.75 -0.826324 0.0334203 0
M  V30 21176 H 2080.29 -1.49377 0.805266 0
M  V30 21177 H 2079.07 -3.58959 1.55769 0
M  V30 21178 H 2078.69 -3.97438 -0.113609 0
M  V30 21179 N 2079.69 -0.473982 -1.50304 0
M  V30 21180 C 2080.65 0.307394 -2.27129 0
M  V30 21181 C 2081.65 0.917901 -1.32027 0
M  V30 21182 O 2082.84 0.78663 -1.55428 0
M  V30 21183 C 2079.97 1.4382 -3.09077 0
M  V30 21184 H 2081.16 -0.366396 -2.97653 0
M  V30 21185 H 2078.72 -0.228128 -1.54626 0
M  V30 21186 H 2079.45 2.14696 -2.43056 0
M  V30 21187 H 2079.24 1.0062 -3.7897 0
M  V30 21188 H 2080.73 1.98932 -3.67173 0
M  V30 21189 N 2081.16 1.56239 -0.206702 0
M  V30 21190 C 2082.39 2.02736 0.437344 0
M  V30 21191 C 2082.81 1.08577 1.53599 0
M  V30 21192 O 2082.17 0.0712895 1.8116 0
M  V30 21193 C 2082.22 3.47587 0.959974 0
M  V30 21194 O 2081.32 3.56556 2.07223 0
M  V30 21195 H 2080.67 0.656297 0.100845 0
M  V30 21196 H 2083.2 2.02066 -0.320985 0
M  V30 21197 H 2083.21 3.87612 1.27361 0
M  V30 21198 H 2081.88 4.15608 0.15578 0
M  V30 21199 H 2080.46 3.28412 1.76635 0
M  V30 21200 N 2082.64 -0.0668159 1.57458 0
M  V30 21201 C 2083.57 -1.0791 2.07069 0
M  V30 21202 C 2084.55 -1.40063 0.965207 0
M  V30 21203 O 2085.74 -1.49604 1.23823 0
M  V30 21204 C 2082.87 -2.39113 2.51877 0
M  V30 21205 C 2081.82 -2.213 3.66347 0
M  V30 21206 C 2081.15 -3.57931 3.97227 0
M  V30 21207 C 2082.45 -1.63013 4.9621 0
M  V30 21208 H 2084.14 -0.666254 2.91893 0
M  V30 21209 H 2081.69 -0.319039 1.40421 0
M  V30 21210 H 2083.64 -3.10226 2.85198 0
M  V30 21211 H 2082.37 -2.82387 1.64088 0
M  V30 21212 H 2081.02 -1.52628 3.33317 0
M  V30 21213 H 2080.67 -3.98784 3.06562 0
M  V30 21214 H 2080.37 -3.4685 4.74309 0
M  V30 21215 H 2081.9 -4.30467 4.33048 0
M  V30 21216 H 2083.31 -2.23997 5.27729 0
M  V30 21217 H 2081.71 -1.62614 5.77648 0
M  V30 21218 H 2082.78 -0.592078 4.81272 0
M  V30 21219 N 2084.12 -1.53926 -0.338317 0
M  V30 21220 C 2085.53 -1.62818 -0.913629 0
M  V30 21221 C 2085.88 -0.512813 -1.8938 0
M  V30 21222 O 2085.01 0.356629 -2.13441 0
M  V30 21223 C 2085.6 -2.9513 -1.66385 0
M  V30 21224 C 2084.16 -3.06267 -2.1881 0
M  V30 21225 C 2083.31 -2.58298 -1.00884 0
M  V30 21226 H 2086.26 -1.58273 -0.116306 0
M  V30 21227 H 2086.28 -2.84463 -2.52708 0
M  V30 21228 H 2085.79 -3.76288 -0.950215 0
M  V30 21229 H 2083.89 -2.29753 -2.93333 0
M  V30 21230 H 2084.01 -4.11824 -2.44822 0
M  V30 21231 H 2082.37 -2.13832 -1.38376 0
M  V30 21232 H 2083.15 -3.419 -0.309757 0
M  V30 21233 N 2085.6 0.599608 -1.45748 0
M  V30 21234 C 2087.02 0.921212 -1.3033 0
M  V30 21235 C 2087.22 1.99787 -0.262213 0
M  V30 21236 O 2086.27 2.50186 0.34109 0
M  V30 21237 C 2087.58 1.35457 -2.68462 0
M  V30 21238 C 2089.13 1.46835 -2.76421 0
M  V30 21239 C 2089.61 1.93544 -4.15096 0
M  V30 21240 N 2091.1 2.00765 -4.1743 0
M  V30 21241 C 2091.83 2.38145 -5.21608 0
M  V30 21242 N 2091.33 2.74437 -6.36126 0
M  V30 21243 N 2093.12 2.38554 -5.08968 0
M  V30 21244 H 2085.27 -0.111892 -2.12105 0
M  V30 21245 H 2087.54 0.0126042 -0.947916 0
M  V30 21246 H 2087.24 0.63759 -3.45872 0
M  V30 21247 H 2087.12 2.31951 -2.97453 0
M  V30 21248 H 2089.5 2.17623 -1.99309 0
M  V30 21249 H 2089.58 0.486356 -2.51134 0
M  V30 21250 H 2089.23 1.2334 -4.92696 0
M  V30 21251 H 2089.16 2.92672 -4.3778 0
M  V30 21252 H 2091.65 1.75275 -3.34794 0
M  V30 21253 H 2091.96 3.01865 -7.11405 0
M  V30 21254 H 2090.31 2.72115 -6.39514 0
M  V30 21255 H 2093.5 2.09612 -4.18546 0
M  V30 21256 H 2093.67 2.67359 -5.90274 0
M  V30 21257 N 2087.08 1.33171 0.842803 0
M  V30 21258 C 2088.33 1.23754 1.59273 0
M  V30 21259 C 2088.64 -0.196137 1.94614 0
M  V30 21260 O 2089.85 -0.412282 2.68351 0
M  V30 21261 C 2088.3 2.16819 2.87259 0
M  V30 21262 C 2087.91 3.65335 2.59296 0
M  V30 21263 C 2089.65 2.16266 3.6528 0
M  V30 21264 C 2087.56 4.50325 3.83355 0
M  V30 21265 H 2086.49 0.459639 0.597702 0
M  V30 21266 H 2089.14 1.5821 0.929616 0
M  V30 21267 H 2087.52 1.75291 3.5509 0
M  V30 21268 H 2088.7 4.15278 1.99701 0
M  V30 21269 H 2087.01 3.68138 1.94586 0
M  V30 21270 H 2089.61 2.76995 4.57359 0
M  V30 21271 H 2089.95 1.1567 3.99908 0
M  V30 21272 H 2090.49 2.56135 3.04368 0
M  V30 21273 H 2087.22 5.51781 3.53861 0
M  V30 21274 H 2086.74 4.05127 4.42303 0
M  V30 21275 H 2088.42 4.6393 4.50975 0
M  V30 21276 N 2088.56 -1.06056 1.16576 0
M  V30 21277 C 2089.47 -2.17107 0.888912 0
M  V30 21278 C 2090.48 -1.73438 -0.139723 0
M  V30 21279 O 2091.66 -2.01365 0.0374846 0
M  V30 21280 C 2088.72 -3.44425 0.396494 0
M  V30 21281 C 2087.78 -4.02589 1.49065 0
M  V30 21282 C 2087.02 -5.2383 1.02163 0
M  V30 21283 O 2087.24 -5.70257 -0.127684 0
M  V30 21284 O 2086.17 -5.7401 1.81098 0
M  V30 21285 H 2090 -2.43304 1.81761 0
M  V30 21286 H 2087.58 -1.1564 0.945923 0
M  V30 21287 H 2089.47 -4.21203 0.128983 0
M  V30 21288 H 2088.14 -3.1975 -0.504164 0
M  V30 21289 H 2087.05 -3.27292 1.81193 0
M  V30 21290 H 2088.38 -4.31565 2.3667 0
M  V30 21291 N 2090.03 -0.964615 -1.24631 0
M  V30 21292 C 2091 -0.497206 -2.23742 0
M  V30 21293 C 2092 0.404569 -1.55627 0
M  V30 21294 O 2093.19 0.200461 -1.73043 0
M  V30 21295 C 2090.32 0.280348 -3.39745 0
M  V30 21296 H 2091.51 -1.37334 -2.66607 0
M  V30 21297 H 2089.06 -0.748889 -1.37191 0
M  V30 21298 H 2089.8 1.17372 -3.02315 0
M  V30 21299 H 2089.58 -0.366741 -3.90381 0
M  V30 21300 H 2091.07 0.596501 -4.13318 0
M  V30 21301 N 2091.51 1.39445 -0.734362 0
M  V30 21302 C 2092.47 2.28971 -0.102477 0
M  V30 21303 C 2093.47 1.46277 0.667805 0
M  V30 21304 O 2094.66 1.66962 0.496917 0
M  V30 21305 C 2091.8 3.29767 0.864107 0
M  V30 21306 H 2092.99 2.86352 -0.891208 0
M  V30 21307 H 2090.54 1.48082 -0.500154 0
M  V30 21308 H 2091.28 2.7744 1.67922 0
M  V30 21309 H 2091.06 3.90837 0.314418 0
M  V30 21310 H 2092.55 3.96757 1.30282 0
M  V30 21311 N 2092.99 0.481946 1.5005 0
M  V30 21312 C 2094.21 -0.0688814 2.07286 0
M  V30 21313 C 2094.64 -1.3178 1.34222 0
M  V30 21314 O 2094 -1.76986 0.393135 0
M  V30 21315 C 2094.05 -0.324885 3.59133 0
M  V30 21316 O 2093.15 -1.40333 3.87789 0
M  V30 21317 H 2092.49 0.0177812 0.663762 0
M  V30 21318 H 2095.02 0.676104 1.93106 0
M  V30 21319 H 2095.03 -0.562135 4.04109 0
M  V30 21320 H 2093.71 0.587698 4.11727 0
M  V30 21321 H 2092.28 -1.15253 3.54642 0
M  V30 21322 N 2094.47 -1.56127 0.214985 0
M  V30 21323 C 2095.4 -2.15949 -0.737656 0
M  V30 21324 C 2096.38 -1.10195 -1.19566 0
M  V30 21325 O 2097.56 -1.38416 -1.27959 0
M  V30 21326 C 2094.69 -2.73447 -1.99861 0
M  V30 21327 C 2093.74 -3.9197 -1.68112 0
M  V30 21328 S 2094.57 -5.29313 -0.811685 0
M  V30 21329 C 2095.72 -5.90245 -2.08235 0
M  V30 21330 H 2095.96 -2.96415 -0.229174 0
M  V30 21331 H 2093.49 -1.544 -0.000249549 0
M  V30 21332 H 2095.45 -3.07215 -2.72267 0
M  V30 21333 H 2094.11 -1.92985 -2.47821 0
M  V30 21334 H 2093.3 -4.3068 -2.61783 0
M  V30 21335 H 2092.9 -3.59314 -1.03774 0
M  V30 21336 H 2095.2 -6.05819 -3.03299 0
M  V30 21337 H 2096.14 -6.86408 -1.73925 0
M  V30 21338 H 2096.55 -5.1902 -2.21989 0
M  V30 21339 N 2095.95 0.0584645 -1.57492 0
M  V30 21340 C 2097.17 0.771417 -1.9252 0
M  V30 21341 C 2097.6 1.69644 -0.812561 0
M  V30 21342 O 2096.95 1.79786 0.233784 0
M  V30 21343 C 2097 1.52975 -3.26544 0
M  V30 21344 O 2096.11 2.64128 -3.16718 0
M  V30 21345 H 2095.45 0.209569 -0.630061 0
M  V30 21346 H 2097.98 0.022721 -2.04587 0
M  V30 21347 H 2097.99 1.90612 -3.60737 0
M  V30 21348 H 2096.66 0.851136 -4.07098 0
M  V30 21349 H 2095.24 2.29251 -2.94106 0
M  V30 21350 N 2097.42 1.54103 0.330149 0
M  V30 21351 C 2098.67 1.71653 1.06675 0
M  V30 21352 C 2098.99 0.489514 1.88756 0
M  V30 21353 O 2098.26 -0.496523 1.89503 0
M  V30 21354 H 2096.84 0.63288 0.396827 0
M  V30 21355 H 2099.5 1.91391 0.36818 0
M  V30 21356 H 2098.6 2.59328 1.73653 0
M  V30 21357 N 2098.9 -0.59187 1.46064 0
M  V30 21358 C 2099.87 -1.68357 1.55526 0
M  V30 21359 C 2100.87 -1.54854 0.433247 0
M  V30 21360 O 2102.06 -1.59637 0.697258 0
M  V30 21361 C 2099.19 -3.07729 1.46683 0
M  V30 21362 H 2100.38 -1.61328 2.5281 0
M  V30 21363 H 2097.93 -0.808941 1.33738 0
M  V30 21364 H 2098.67 -3.20321 0.506433 0
M  V30 21365 H 2098.45 -3.18939 2.2808 0
M  V30 21366 H 2099.94 -3.87218 1.5637 0
M  V30 21367 N 2100.38 -1.33616 -0.835729 0
M  V30 21368 C 2101.63 -1.25003 -1.58804 0
M  V30 21369 C 2101.95 0.183302 -1.94137 0
M  V30 21370 O 2101.22 1.11282 -1.61224 0
M  V30 21371 H 2099.8 -0.459684 -0.588812 0
M  V30 21372 H 2102.46 -1.67374 -0.998599 0
M  V30 21373 H 2101.56 -1.84593 -2.51658 0
M  V30 21374 N 2101.86 1.05436 -1.17136 0
M  V30 21375 C 2103.27 1.30549 -0.918108 0
M  V30 21376 C 2103.47 1.96985 0.424152 0
M  V30 21377 O 2102.53 2.24189 1.1617 0
M  V30 21378 C 2103.84 2.17768 -2.07358 0
M  V30 21379 C 2105.39 2.31158 -2.11033 0
M  V30 21380 C 2105.87 3.21737 -3.25959 0
M  V30 21381 N 2107.36 3.29322 -3.25731 0
M  V30 21382 C 2108.09 3.99526 -4.11299 0
M  V30 21383 N 2107.59 4.72178 -5.06971 0
M  V30 21384 N 2109.38 3.95665 -3.99256 0
M  V30 21385 H 2101.53 0.607118 -2.03538 0
M  V30 21386 H 2103.8 0.330298 -0.888599 0
M  V30 21387 H 2103.5 1.7624 -3.04356 0
M  V30 21388 H 2103.38 3.18394 -2.02251 0
M  V30 21389 H 2105.76 2.71929 -1.14623 0
M  V30 21390 H 2105.84 1.30171 -2.20203 0
M  V30 21391 H 2105.49 2.8168 -4.22633 0
M  V30 21392 H 2105.42 4.22724 -3.14025 0
M  V30 21393 H 2107.91 2.77555 -2.5646 0
M  V30 21394 H 2108.22 5.233 -5.68662 0
M  V30 21395 H 2106.57 4.71129 -5.10943 0
M  V30 21396 H 2109.76 3.3803 -3.2381 0
M  V30 21397 H 2109.93 4.50108 -4.66161 0
M  V30 21398 N 2103.34 0.971211 1.24118 0
M  V30 21399 C 2104.75 0.678316 1.44468 0
M  V30 21400 C 2104.95 -0.75867 1.86672 0
M  V30 21401 O 2104.01 -1.53217 2.00701 0
M  V30 21402 C 2105.32 1.66541 2.50369 0
M  V30 21403 C 2106.87 1.67842 2.64193 0
M  V30 21404 C 2107.34 2.65358 3.73295 0
M  V30 21405 N 2108.84 2.63821 3.80727 0
M  V30 21406 C 2109.57 3.35947 4.6468 0
M  V30 21407 N 2109.07 4.17602 5.52794 0
M  V30 21408 N 2110.86 3.24755 4.58793 0
M  V30 21409 H 2103.01 1.8996 0.950216 0
M  V30 21410 H 2105.27 0.818026 0.479101 0
M  V30 21411 H 2104.98 2.69261 2.26255 0
M  V30 21412 H 2104.85 1.44095 3.48592 0
M  V30 21413 H 2107.24 0.658308 2.87664 0
M  V30 21414 H 2107.32 1.94351 1.66316 0
M  V30 21415 H 2106.97 3.67505 3.50574 0
M  V30 21416 H 2106.9 2.36127 4.70693 0
M  V30 21417 H 2109.39 2.04554 3.17751 0
M  V30 21418 H 2109.7 4.69515 6.13821 0
M  V30 21419 H 2108.04 4.21695 5.52447 0
M  V30 21420 H 2111.24 2.60422 3.8897 0
M  V30 21421 H 2111.41 3.81228 5.23994 0
M  V30 21422 N 2104.81 -1.39054 0.741747 0
M  V30 21423 C 2106.04 -2.04668 0.303108 0
M  V30 21424 C 2106.46 -1.55933 -1.06444 0
M  V30 21425 O 2105.81 -0.72717 -1.67387 0
M  V30 21426 C 2105.87 -3.60224 0.303407 0
M  V30 21427 O 2105.59 -4.07167 1.61698 0
M  V30 21428 C 2107.09 -4.43044 -0.150565 0
M  V30 21429 H 2104.31 -0.658018 0.131353 0
M  V30 21430 H 2106.85 -1.77972 1.00729 0
M  V30 21431 H 2105.01 -3.85798 -0.351936 0
M  V30 21432 H 2105.42 -5.01532 1.53511 0
M  V30 21433 H 2106.89 -5.51911 -0.0991946 0
M  V30 21434 H 2107.37 -4.22581 -1.19674 0
M  V30 21435 H 2107.98 -4.22634 0.475463 0
M  V30 21436 N 2106.29 -0.489897 -1.49792 0
M  V30 21437 C 2107.54 0.0586308 -2.02715 0
M  V30 21438 C 2107.87 1.37665 -1.36974 0
M  V30 21439 O 2107.15 1.87919 -0.501679 0
M  V30 21440 C 2107.43 0.222812 -3.5941 0
M  V30 21441 C 2107.28 -1.11755 -4.35696 0
M  V30 21442 C 2108.6 0.96865 -4.29308 0
M  V30 21443 H 2105.72 0.0198337 -0.736733 0
M  V30 21444 H 2108.36 -0.639149 -1.78927 0
M  V30 21445 H 2106.51 0.81714 -3.79809 0
M  V30 21446 H 2108.18 -1.74991 -4.26821 0
M  V30 21447 H 2106.43 -1.70959 -3.98692 0
M  V30 21448 H 2107.1 -0.956105 -5.43657 0
M  V30 21449 H 2109.57 0.464706 -4.13497 0
M  V30 21450 H 2108.45 1.05235 -5.38718 0
M  V30 21451 H 2108.71 2.00975 -3.93778 0
M  V30 21452 N 2107.77 1.56011 -0.223262 0
M  V30 21453 C 2108.72 2.17002 0.699568 0
M  V30 21454 C 2109.7 1.11885 1.15631 0
M  V30 21455 O 2110.9 1.37868 1.11001 0
M  V30 21456 C 2108.03 2.8548 1.90673 0
M  V30 21457 C 2107.11 3.97824 1.46959 0
M  V30 21458 N 2107.5 5.00281 0.745146 0
M  V30 21459 C 2105.8 4.09945 1.75674 0
M  V30 21460 C 2106.5 5.79353 0.522003 0
M  V30 21461 N 2105.48 5.32779 1.07921 0
M  V30 21462 H 2109.28 2.93577 0.137666 0
M  V30 21463 H 2106.79 1.62381 -0.0245891 0
M  V30 21464 H 2108.79 3.27587 2.57861 0
M  V30 21465 H 2107.45 2.10401 2.47308 0
M  V30 21466 H 2108.46 5.16371 0.397658 0
M  V30 21467 H 2105.14 3.46019 2.33618 0
M  V30 21468 H 2106.53 6.71878 -0.0547031 0
M  V30 21469 N 2109.25 -0.0501116 1.5752 0
M  V30 21470 C 2110.66 -0.405366 1.54366 0
M  V30 21471 C 2110.86 -1.77885 0.946523 0
M  V30 21472 O 2109.92 -2.46248 0.558406 0
M  V30 21473 C 2111.23 -0.326523 2.98922 0
M  V30 21474 C 2112.78 -0.40514 3.10367 0
M  V30 21475 C 2113.26 -0.355974 4.56615 0
M  V30 21476 N 2114.75 -0.415404 4.61334 0
M  V30 21477 C 2115.48 -0.39992 5.72004 0
M  V30 21478 N 2114.98 -0.337966 6.91975 0
M  V30 21479 N 2116.77 -0.448091 5.60311 0
M  V30 21480 H 2108.92 0.848979 1.94695 0
M  V30 21481 H 2111.19 0.320787 0.892076 0
M  V30 21482 H 2110.89 0.616487 3.46255 0
M  V30 21483 H 2110.77 -1.12839 3.59927 0
M  V30 21484 H 2113.15 -1.33858 2.62995 0
M  V30 21485 H 2113.23 0.425702 2.52233 0
M  V30 21486 H 2112.88 0.573705 5.04649 0
M  V30 21487 H 2112.81 -1.20464 5.12636 0
M  V30 21488 H 2115.3 -0.466654 3.75008 0
M  V30 21489 H 2115.61 -0.330673 7.72092 0
M  V30 21490 H 2113.96 -0.304327 6.94333 0
M  V30 21491 H 2117.15 -0.494336 4.65482 0
M  V30 21492 H 2117.32 -0.432555 6.46555 0
M  V30 21493 N 2110.73 -1.54276 -0.321972 0
M  V30 21494 C 2111.64 -1.86797 -1.41929 0
M  V30 21495 C 2112.65 -0.760051 -1.56522 0
M  V30 21496 O 2113.83 -1.0545 -1.71588 0
M  V30 21497 C 2110.89 -2.09003 -2.7662 0
M  V30 21498 C 2109.95 -3.32799 -2.71189 0
M  V30 21499 C 2109.19 -3.53936 -3.99456 0
M  V30 21500 O 2109.41 -2.78482 -4.97799 0
M  V30 21501 O 2108.34 -4.47417 -4.02619 0
M  V30 21502 H 2112.17 -2.8011 -1.17355 0
M  V30 21503 H 2109.76 -1.40201 -0.516141 0
M  V30 21504 H 2111.64 -2.2493 -3.56349 0
M  V30 21505 H 2110.31 -1.18879 -3.01081 0
M  V30 21506 H 2109.22 -3.22256 -1.90006 0
M  V30 21507 H 2110.55 -4.22986 -2.51683 0
M  V30 21508 N 2112.2 0.584116 -1.46376 0
M  V30 21509 C 2113.43 1.36845 -1.55181 0
M  V30 21510 C 2113.85 1.87817 -0.192443 0
M  V30 21511 O 2113.2 1.63538 0.81003 0
M  V30 21512 C 2113.26 2.55694 -2.55545 0
M  V30 21513 O 2112.98 2.06834 -3.86201 0
M  V30 21514 C 2114.48 3.48263 -2.74277 0
M  V30 21515 H 2111.7 0.418095 -0.524822 0
M  V30 21516 H 2114.24 0.710227 -1.91771 0
M  V30 21517 H 2112.4 3.17508 -2.21963 0
M  V30 21518 H 2112.81 2.84224 -4.40814 0
M  V30 21519 H 2114.28 4.2814 -3.48426 0
M  V30 21520 H 2114.76 4.00109 -1.81134 0
M  V30 21521 H 2115.37 2.92285 -3.08949 0
M  V30 21522 N 2113.68 1.34058 0.828631 0
M  V30 21523 C 2114.93 1.25844 1.58138 0
M  V30 21524 C 2115.25 -0.173004 1.94231 0
M  V30 21525 O 2114.52 -1.10425 1.61812 0
M  V30 21526 H 2113.1 0.4628 0.586366 0
M  V30 21527 H 2115.76 1.67901 0.989709 0
M  V30 21528 H 2114.86 1.85925 2.50676 0
M  V30 21529 N 2115.16 -1.04814 1.17694 0
M  V30 21530 C 2116.39 -1.82088 0.992908 0
M  V30 21531 C 2116.81 -1.82538 -0.454023 0
M  V30 21532 O 2116.17 -1.23716 -1.3253 0
M  V30 21533 C 2116.22 -3.25912 1.54318 0
M  V30 21534 O 2115.32 -4.05346 0.759486 0
M  V30 21535 H 2114.66 -0.562852 0.352268 0
M  V30 21536 H 2117.19 -1.32054 1.56279 0
M  V30 21537 H 2117.2 -3.76705 1.56708 0
M  V30 21538 H 2115.88 -3.24899 2.59641 0
M  V30 21539 H 2114.45 -3.64056 0.807298 0
M  V30 21540 N 2116.64 -0.977779 -1.23601 0
M  V30 21541 C 2117.89 -0.643936 -1.91567 0
M  V30 21542 C 2118.21 0.824798 -1.76698 0
M  V30 21543 O 2117.48 1.58974 -1.14473 0
M  V30 21544 H 2116.06 -0.235177 -0.709014 0
M  V30 21545 H 2118.72 -1.24103 -1.50282 0
M  V30 21546 H 2117.82 -0.893282 -2.99043 0
M  V30 21547 N 2118.12 1.38658 -0.749111 0
M  V30 21548 C 2119.37 1.99821 -0.302678 0
M  V30 21549 C 2119.69 1.59757 1.11816 0
M  V30 21550 O 2118.96 0.852324 1.76387 0
M  V30 21551 H 2117.54 0.739016 -0.108921 0
M  V30 21552 H 2120.2 1.69492 -0.962209 0
M  V30 21553 H 2119.29 3.09991 -0.362255 0
M  V30 21554 N 2119.6 0.497834 1.49531 0
M  V30 21555 C 2120.84 -0.0398871 2.03361 0
M  V30 21556 C 2121.2 -1.34984 1.37103 0
M  V30 21557 O 2120.49 -1.85052 0.496611 0
M  V30 21558 C 2120.68 -0.252156 3.56509 0
M  V30 21559 C 2120.51 1.03567 4.37612 0
M  V30 21560 C 2119.28 1.58657 4.79746 0
M  V30 21561 C 2121.48 1.93812 4.76384 0
M  V30 21562 N 2119.46 2.82063 5.45265 0
M  V30 21563 C 2120.83 3.01798 5.41589 0
M  V30 21564 C 2122.89 1.94528 4.58327 0
M  V30 21565 C 2121.59 4.10523 5.90647 0
M  V30 21566 C 2123.62 3.02226 5.08344 0
M  V30 21567 C 2122.98 4.08931 5.73546 0
M  V30 21568 H 2119.08 0.026105 0.781564 0
M  V30 21569 H 2121.66 0.671989 1.82736 0
M  V30 21570 H 2119.83 -0.933086 3.77025 0
M  V30 21571 H 2121.57 -0.786601 3.96982 0
M  V30 21572 H 2118.32 1.13215 4.59869 0
M  V30 21573 H 2118.74 3.44806 5.82613 0
M  V30 21574 H 2123.39 1.1334 4.07325 0
M  V30 21575 H 2121.1 4.92511 6.40671 0
M  V30 21576 H 2124.69 3.03796 4.96185 0
M  V30 21577 H 2123.57 4.90894 6.11549 0
M  V30 21578 N 2121.07 -1.5589 0.231532 0
M  V30 21579 C 2122.48 -1.84671 -0.274487 0
M  V30 21580 C 2122.84 -1.15311 -1.58738 0
M  V30 21581 O 2121.96 -0.42619 -2.12162 0
M  V30 21582 C 2122.56 -3.35018 -0.504806 0
M  V30 21583 C 2121.11 -3.6408 -0.955115 0
M  V30 21584 C 2120.26 -2.7729 -0.023723 0
M  V30 21585 H 2123.21 -1.52053 0.454483 0
M  V30 21586 H 2123.23 -3.55765 -1.3495 0
M  V30 21587 H 2122.75 -3.85472 0.450902 0
M  V30 21588 H 2120.85 -3.19092 -1.92383 0
M  V30 21589 H 2120.96 -4.71985 -0.822615 0
M  V30 21590 H 2119.32 -2.49075 -0.53233 0
M  V30 21591 H 2120.11 -3.30545 0.927081 0
M  V30 21592 N 2122.55 0.0417572 -1.57545 0
M  V30 21593 C 2123.5 1.0648 -2.06796 0
M  V30 21594 C 2124.49 1.38234 -0.979162 0
M  V30 21595 O 2125.7 1.37288 -1.16413 0
M  V30 21596 H 2122.07 0.360857 -0.659762 0
M  V30 21597 H 2124.05 0.6235 -2.91813 0
M  V30 21598 C 2122.79 2.36114 -2.55236 0
M  V30 21599 H 2122.12 2.12537 -3.38627 0
M  V30 21600 H 2123.56 3.06072 -2.93421 0
M  V30 21601 C 2122.02 3.04191 -1.44808 0
M  V30 21602 O 2122.55 3.93508 -0.807098 0
M  V30 21603 N 2120.75 2.65308 -1.18574 0
M  V30 21604 H 2120.3 1.92763 -1.70881 0
M  V30 21605 H 2120.26 3.11178 -0.448987 0
M  V30 21606 N 2124.03 1.54445 0.313786 0
M  V30 21607 C 2125.28 1.72775 1.04849 0
M  V30 21608 C 2125.6 0.509507 1.88226 0
M  V30 21609 O 2124.87 -0.476396 1.90019 0
M  V30 21610 H 2123.45 0.637053 0.390092 0
M  V30 21611 H 2126.11 1.91771 0.347859 0
M  V30 21612 H 2125.21 2.61155 1.70893 0
M  V30 21613 N 2125.51 -0.576345 1.46683 0
M  V30 21614 C 2126.44 -1.69505 1.60594 0
M  V30 21615 C 2127.42 -1.63873 0.456022 0
M  V30 21616 O 2128.6 -1.81791 0.683045 0
M  V30 21617 C 2125.73 -3.08148 1.60194 0
M  V30 21618 C 2124.69 -3.28615 2.7422 0
M  V30 21619 C 2124.01 -4.6785 2.58884 0
M  V30 21620 C 2125.31 -3.15834 4.15989 0
M  V30 21621 H 2127.01 -1.58119 2.54241 0
M  V30 21622 H 2124.55 -0.759271 1.22356 0
M  V30 21623 H 2126.51 -3.86237 1.68519 0
M  V30 21624 H 2125.23 -3.20447 0.630952 0
M  V30 21625 H 2123.89 -2.52927 2.65375 0
M  V30 21626 H 2123.54 -4.76923 1.59854 0
M  V30 21627 H 2123.24 -4.82495 3.35368 0
M  V30 21628 H 2124.76 -5.48099 2.69109 0
M  V30 21629 H 2126.18 -3.83761 4.25911 0
M  V30 21630 H 2124.57 -3.41998 4.9311 0
M  V30 21631 H 2125.64 -2.12828 4.35698 0
M  V30 21632 N 2126.99 -1.34495 -0.82151 0
M  V30 21633 C 2128.21 -1.30011 -1.60949 0
M  V30 21634 C 2128.63 0.125523 -1.88382 0
M  V30 21635 O 2127.99 1.07303 -1.47623 0
M  V30 21636 C 2128.04 -2.09003 -2.94957 0
M  V30 21637 O 2127.76 -3.46007 -2.68721 0
M  V30 21638 C 2129.26 -2.11933 -3.89358 0
M  V30 21639 H 2126.48 -0.447203 -0.500251 0
M  V30 21640 H 2129.02 -1.7713 -1.02202 0
M  V30 21641 H 2127.18 -1.65523 -3.50258 0
M  V30 21642 H 2127.59 -3.86856 -3.54179 0
M  V30 21643 H 2129.07 -2.71623 -4.80547 0
M  V30 21644 H 2129.54 -1.11409 -4.24835 0
M  V30 21645 H 2130.15 -2.55508 -3.39993 0
M  V30 21646 N 2128.46 1.04188 -1.18248 0
M  V30 21647 C 2129.71 1.7763 -0.978539 0
M  V30 21648 C 2130.04 1.87897 0.490757 0
M  V30 21649 O 2129.32 1.38617 1.36439 0
M  V30 21650 C 2129.6 3.20968 -1.63252 0
M  V30 21651 C 2129.45 3.18653 -3.1746 0
M  V30 21652 C 2130.77 4.19052 -1.34475 0
M  V30 21653 H 2127.89 0.644817 -0.356903 0
M  V30 21654 H 2130.53 1.21713 -1.45897 0
M  V30 21655 H 2128.68 3.68714 -1.22402 0
M  V30 21656 H 2130.36 2.78906 -3.67436 0
M  V30 21657 H 2128.6 2.56717 -3.49684 0
M  V30 21658 H 2129.27 4.19864 -3.58354 0
M  V30 21659 H 2131.75 3.79848 -1.69868 0
M  V30 21660 H 2130.62 5.17565 -1.82804 0
M  V30 21661 H 2130.88 4.41291 -0.267408 0
M  V30 21662 N 2129.94 0.98432 1.23081 0
M  V30 21663 C 2131.22 0.571642 1.8706 0
M  V30 21664 C 2131.6 -0.951185 1.88456 0
M  V30 21665 O 2130.95 -1.82954 1.36894 0
M  V30 21666 C 2131.16 1.18221 3.28367 0
M  V30 21667 C 2132.51 1.27739 4.04929 0
M  V30 21668 O 2133.53 1.13596 3.37601 0
M  V30 21669 O 2132.39 1.50282 5.25431 0
M  V30 21670 H 2129.48 0.193027 0.804158 0
M  V30 21671 H 2132.03 1.07965 1.30926 0
M  V30 21672 H 2130.8 2.22421 3.21939 0
M  V30 21673 H 2130.42 0.65926 3.92096 0
M  V30 21674 N 2131.42 -1.38259 0.756453 0
M  V30 21675 C 2132.65 -2.04038 0.324328 0
M  V30 21676 C 2133.06 -1.57176 -1.05321 0
M  V30 21677 O 2132.4 -0.741386 -1.68075 0
M  V30 21678 C 2132.46 -3.58472 0.271651 0
M  V30 21679 C 2132.13 -4.28403 1.59121 0
M  V30 21680 C 2133.12 -4.53578 2.54092 0
M  V30 21681 C 2130.81 -4.66536 1.86143 0
M  V30 21682 C 2132.8 -5.15923 3.74302 0
M  V30 21683 C 2130.49 -5.28605 3.06627 0
M  V30 21684 C 2131.49 -5.53233 4.00527 0
M  V30 21685 O 2131.18 -6.14009 5.18892 0
M  V30 21686 H 2130.91 -0.662169 0.136046 0
M  V30 21687 H 2133.46 -1.77878 1.02707 0
M  V30 21688 H 2131.69 -3.83617 -0.487352 0
M  V30 21689 H 2133.38 -4.05687 -0.131344 0
M  V30 21690 H 2134.15 -4.24545 2.34492 0
M  V30 21691 H 2130.03 -4.4671 1.1389 0
M  V30 21692 H 2133.57 -5.35063 4.47609 0
M  V30 21693 H 2129.47 -5.57061 3.26119 0
M  V30 21694 H 2130.24 -6.32495 5.19512 0
M  V30 21695 N 2132.9 -0.505757 -1.49264 0
M  V30 21696 C 2133.83 0.259368 -2.32055 0
M  V30 21697 C 2134.81 0.95808 -1.40552 0
M  V30 21698 O 2135.99 0.948562 -1.69458 0
M  V30 21699 C 2133.12 1.32138 -3.2118 0
M  V30 21700 C 2132.08 0.742267 -4.21514 0
M  V30 21701 C 2131.4 1.90515 -4.99608 0
M  V30 21702 C 2132.7 -0.269866 -5.21602 0
M  V30 21703 H 2134.4 -0.431697 -2.96271 0
M  V30 21704 H 2131.94 -0.209055 -1.42474 0
M  V30 21705 H 2133.9 1.86441 -3.77912 0
M  V30 21706 H 2132.62 2.0417 -2.54916 0
M  V30 21707 H 2131.28 0.220956 -3.65934 0
M  V30 21708 H 2130.93 2.61327 -4.29788 0
M  V30 21709 H 2130.63 1.52371 -5.67501 0
M  V30 21710 H 2132.15 2.45242 -5.59186 0
M  V30 21711 H 2133.57 0.18519 -5.73001 0
M  V30 21712 H 2131.96 -0.567397 -5.97412 0
M  V30 21713 H 2133.03 -1.18411 -4.7022 0
M  V30 21714 N 2134.38 1.55765 -0.239796 0
M  V30 21715 C 2135.29 2.2472 0.673658 0
M  V30 21716 C 2136.3 1.26091 1.19904 0
M  V30 21717 O 2137.48 1.5895 1.23681 0
M  V30 21718 C 2134.54 2.92772 1.85702 0
M  V30 21719 C 2133.6 4.06792 1.37182 0
M  V30 21720 C 2132.84 4.7159 2.49878 0
M  V30 21721 O 2133.06 4.35437 3.68443 0
M  V30 21722 O 2131.99 5.60237 2.2004 0
M  V30 21723 H 2135.82 3.03478 0.116142 0
M  V30 21724 H 2133.41 1.49398 -0.00858773 0
M  V30 21725 H 2135.29 3.3566 2.54774 0
M  V30 21726 H 2133.96 2.1696 2.40229 0
M  V30 21727 H 2132.87 3.68435 0.648582 0
M  V30 21728 H 2134.2 4.84401 0.872717 0
M  V30 21729 N 2135.85 -0.0334016 1.57565 0
M  V30 21730 C 2136.8 -1.03536 2.06274 0
M  V30 21731 C 2137.77 -1.36182 0.950989 0
M  V30 21732 O 2138.96 -1.46593 1.22127 0
M  V30 21733 C 2136.1 -2.33256 2.54334 0
M  V30 21734 C 2135.21 -2.06807 3.79282 0
M  V30 21735 C 2134.34 -3.30365 4.15971 0
M  V30 21736 C 2133.38 -2.99452 5.33849 0
M  V30 21737 N 2132.52 -4.15449 5.65991 0
M  V30 21738 H 2137.36 -0.613034 2.91626 0
M  V30 21739 H 2134.9 -0.291083 1.44191 0
M  V30 21740 H 2136.86 -3.09044 2.80264 0
M  V30 21741 H 2135.49 -2.73219 1.71905 0
M  V30 21742 H 2134.54 -1.21536 3.60463 0
M  V30 21743 H 2135.85 -1.8 4.6519 0
M  V30 21744 H 2135 -4.14524 4.43007 0
M  V30 21745 H 2133.74 -3.60282 3.28706 0
M  V30 21746 H 2132.75 -2.13695 5.06571 0
M  V30 21747 H 2133.97 -2.70817 6.22764 0
M  V30 21748 H 2131.92 -4.45326 4.81686 0
M  V30 21749 H 2131.84 -3.9205 6.464 0
M  V30 21750 H 2133.1 -5.00494 5.976 0
M  V30 21751 N 2137.33 -1.54609 -0.305591 0
M  V30 21752 C 2138.75 -1.4572 -0.650988 0
M  V30 21753 C 2138.95 -0.644662 -1.90909 0
M  V30 21754 O 2138 -0.150545 -2.52051 0
M  V30 21755 C 2139.32 -2.89634 -0.808259 0
M  V30 21756 C 2140.87 -2.99648 -0.904441 0
M  V30 21757 C 2141.34 -4.44748 -1.09375 0
M  V30 21758 N 2142.83 -4.48438 -1.16006 0
M  V30 21759 C 2143.57 -5.57887 -1.32474 0
M  V30 21760 N 2143.06 -6.77269 -1.4587 0
M  V30 21761 N 2144.86 -5.45567 -1.35326 0
M  V30 21762 H 2137.01 -2.05909 0.521082 0
M  V30 21763 H 2139.27 -0.932366 0.171455 0
M  V30 21764 H 2138.98 -3.51671 0.0452303 0
M  V30 21765 H 2138.85 -3.36787 -1.69866 0
M  V30 21766 H 2141.24 -2.37727 -1.74842 0
M  V30 21767 H 2141.32 -2.55798 0.00987599 0
M  V30 21768 H 2140.96 -5.07262 -0.25455 0
M  V30 21769 H 2140.89 -4.86224 -2.02222 0
M  V30 21770 H 2143.38 -3.62428 -1.07025 0
M  V30 21771 H 2143.7 -7.56439 -1.58179 0
M  V30 21772 H 2142.04 -6.80143 -1.42934 0
M  V30 21773 H 2145.23 -4.51248 -1.24469 0
M  V30 21774 H 2145.4 -6.30915 -1.47817 0
M  V30 21775 N 2138.81 0.568558 -1.46987 0
M  V30 21776 C 2140.06 1.32251 -1.52291 0
M  V30 21777 C 2140.37 1.94723 -0.184983 0
M  V30 21778 O 2141.58 2.71252 -0.115932 0
M  V30 21779 C 2140.03 2.3976 -2.68408 0
M  V30 21780 C 2139.64 1.83528 -4.08682 0
M  V30 21781 C 2141.39 3.16408 -2.82996 0
M  V30 21782 C 2139.29 2.88751 -5.16117 0
M  V30 21783 H 2138.22 0.497223 -0.56682 0
M  V30 21784 H 2140.87 0.605168 -1.73234 0
M  V30 21785 H 2139.26 3.14357 -2.40823 0
M  V30 21786 H 2140.43 1.1538 -4.46121 0
M  V30 21787 H 2138.75 1.19503 -3.98884 0
M  V30 21788 H 2141.34 3.94962 -3.60429 0
M  V30 21789 H 2141.69 3.69886 -1.91024 0
M  V30 21790 H 2142.22 2.4892 -3.10296 0
M  V30 21791 H 2138.96 2.40142 -6.09928 0
M  V30 21792 H 2138.48 3.55345 -4.83208 0
M  V30 21793 H 2140.16 3.52449 -5.42576 0
M  V30 21794 N 2140.29 1.34929 0.814366 0
M  V30 21795 C 2141.22 1.29866 1.94055 0
M  V30 21796 C 2142.2 0.174504 1.69203 0
M  V30 21797 O 2143.38 0.368232 1.90677 0
M  V30 21798 C 2140.51 1.06201 3.30664 0
M  V30 21799 C 2139.47 2.15174 3.69978 0
M  V30 21800 C 2138.79 1.76686 5.04664 0
M  V30 21801 C 2140.09 3.57077 3.81174 0
M  V30 21802 H 2141.79 2.24095 1.98549 0
M  V30 21803 H 2139.33 1.07877 0.953865 0
M  V30 21804 H 2141.29 1.01301 4.09043 0
M  V30 21805 H 2140.01 0.0841549 3.26492 0
M  V30 21806 H 2138.67 2.19158 2.9388 0
M  V30 21807 H 2138.32 0.775388 4.96988 0
M  V30 21808 H 2138.02 2.49628 5.3194 0
M  V30 21809 H 2139.54 1.73297 5.85492 0
M  V30 21810 H 2140.96 3.55458 4.49803 0
M  V30 21811 H 2139.35 4.28713 4.19911 0
M  V30 21812 H 2140.42 3.93795 2.82937 0
M  V30 21813 N 2141.77 -1.0356 1.18799 0
M  V30 21814 C 2143.01 -1.77235 0.997965 0
M  V30 21815 C 2143.37 -1.86646 -0.467003 0
M  V30 21816 O 2142.66 -1.36726 -1.34226 0
M  V30 21817 C 2142.85 -3.19959 1.59252 0
M  V30 21818 C 2142.68 -3.2446 3.11377 0
M  V30 21819 C 2141.45 -3.32796 3.8023 0
M  V30 21820 C 2143.65 -3.12053 4.08812 0
M  V30 21821 N 2141.63 -3.266 5.19813 0
M  V30 21822 C 2143 -3.13415 5.3495 0
M  V30 21823 C 2145.06 -2.96132 4.00263 0
M  V30 21824 C 2143.76 -3.00489 6.53528 0
M  V30 21825 C 2145.79 -2.84554 5.18443 0
M  V30 21826 C 2145.15 -2.86564 6.43475 0
M  V30 21827 H 2141.25 -0.660122 0.419241 0
M  V30 21828 H 2143.83 -1.23328 1.5066 0
M  V30 21829 H 2142 -3.72201 1.10999 0
M  V30 21830 H 2143.74 -3.81959 1.33751 0
M  V30 21831 H 2140.49 -3.38739 3.30988 0
M  V30 21832 H 2140.92 -3.26927 5.9283 0
M  V30 21833 H 2145.56 -2.93405 3.04423 0
M  V30 21834 H 2143.28 -3.01968 7.4956 0
M  V30 21835 H 2146.86 -2.73281 5.13623 0
M  V30 21836 H 2145.74 -2.77699 7.33385 0
M  V30 21837 N 2143.25 -0.990834 -1.22557 0
M  V30 21838 C 2144.49 -0.660998 -1.90562 0
M  V30 21839 C 2144.81 0.810271 -1.78028 0
M  V30 21840 O 2146.01 1.2516 -2.4093 0
M  V30 21841 C 2144.47 -1.13172 -3.41643 0
M  V30 21842 C 2144.08 -2.62807 -3.62817 0
M  V30 21843 C 2145.82 -0.876119 -4.15361 0
M  V30 21844 C 2143.73 -3.03493 -5.07588 0
M  V30 21845 H 2142.66 -0.243531 -0.713589 0
M  V30 21846 H 2145.31 -1.20012 -1.38814 0
M  V30 21847 H 2143.69 -0.520742 -3.92561 0
M  V30 21848 H 2144.87 -3.29233 -3.22401 0
M  V30 21849 H 2143.18 -2.86227 -3.02428 0
M  V30 21850 H 2145.78 -1.15582 -5.22058 0
M  V30 21851 H 2146.12 0.187761 -4.15876 0
M  V30 21852 H 2146.65 -1.44919 -3.70464 0
M  V30 21853 H 2143.39 -4.09048 -5.12211 0
M  V30 21854 H 2142.91 -2.41769 -5.48915 0
M  V30 21855 H 2144.59 -2.94679 -5.75998 0
M  V30 21856 N 2144.72 1.37856 -0.763775 0
M  V30 21857 C 2146 1.94001 -0.249566 0
M  V30 21858 C 2146.38 1.69818 1.254 0
M  V30 21859 O 2145.73 1.04245 2.03335 0
M  V30 21860 C 2145.94 3.43551 -0.614299 0
M  V30 21861 C 2147.29 4.20625 -0.579627 0
M  V30 21862 O 2148.31 3.51878 -0.553206 0
M  V30 21863 O 2147.17 5.43201 -0.599606 0
M  V30 21864 H 2144.26 0.825148 -0.055317 0
M  V30 21865 H 2146.81 1.4719 -0.844588 0
M  V30 21866 H 2145.58 3.54703 -1.65231 0
M  V30 21867 H 2145.2 3.97599 0.00819535 0
M  V30 21868 N 2146.2 0.513665 1.48994 0
M  V30 21869 C 2147.16 -0.247066 2.27864 0
M  V30 21870 C 2148.16 -0.882574 1.34415 0
M  V30 21871 O 2149.35 -0.745145 1.57459 0
M  V30 21872 C 2146.49 -1.35575 3.12782 0
M  V30 21873 H 2147.68 0.445185 2.96577 0
M  V30 21874 H 2145.23 0.269045 1.53967 0
M  V30 21875 H 2145.97 -2.08176 2.48663 0
M  V30 21876 H 2145.75 -0.905368 3.81504 0
M  V30 21877 H 2147.24 -1.89127 3.72318 0
M  V30 21878 N 2147.68 -1.55636 0.248053 0
M  V30 21879 C 2149.1 -1.59242 -0.10677 0
M  V30 21880 C 2149.3 -1.26521 -1.56827 0
M  V30 21881 O 2148.35 -1.01308 -2.31285 0
M  V30 21882 C 2149.66 -2.99713 0.243455 0
M  V30 21883 C 2151.21 -3.12436 0.187848 0
M  V30 21884 C 2151.69 -4.55128 0.512122 0
M  V30 21885 N 2153.18 -4.60884 0.462665 0
M  V30 21886 C 2153.91 -5.69273 0.686723 0
M  V30 21887 N 2153.41 -6.8592 0.973967 0
M  V30 21888 N 2155.2 -5.587 0.617351 0
M  V30 21889 H 2147.35 -1.75175 1.20114 0
M  V30 21890 H 2149.62 -0.81551 0.483371 0
M  V30 21891 H 2149.32 -3.28399 1.25884 0
M  V30 21892 H 2149.2 -3.74754 -0.428884 0
M  V30 21893 H 2151.58 -2.8353 -0.818215 0
M  V30 21894 H 2151.66 -2.39667 0.894055 0
M  V30 21895 H 2151.31 -4.84755 1.51575 0
M  V30 21896 H 2151.24 -5.26159 -0.215575 0
M  V30 21897 H 2153.73 -3.77076 0.249427 0
M  V30 21898 H 2154.04 -7.64459 1.13232 0
M  V30 21899 H 2152.39 -6.87601 1.01145 0
M  V30 21900 H 2155.58 -4.66447 0.392982 0
M  V30 21901 H 2155.75 -6.431 0.795363 0
M  V30 21902 N 2149.16 0.0250451 -1.5758 0
M  V30 21903 C 2150.38 0.730408 -1.94113 0
M  V30 21904 C 2150.81 1.67882 -0.848362 0
M  V30 21905 O 2150.17 1.80242 0.195596 0
M  V30 21906 C 2150.21 1.46014 -3.29715 0
M  V30 21907 O 2149.32 2.57351 -3.22249 0
M  V30 21908 H 2148.66 0.196157 -0.634365 0
M  V30 21909 H 2151.19 -0.0206802 -2.0459 0
M  V30 21910 H 2151.2 1.82917 -3.64699 0
M  V30 21911 H 2149.87 0.764593 -4.08811 0
M  V30 21912 H 2148.45 2.22961 -2.98903 0
M  V30 21913 N 2150.64 1.54769 0.297388 0
M  V30 21914 C 2151.91 1.64904 1.05195 0
M  V30 21915 C 2152.29 0.499658 2.05102 0
M  V30 21916 O 2151.64 -0.503202 2.2289 0
M  V30 21917 C 2151.85 3.03071 1.73058 0
M  V30 21918 C 2153.2 3.60007 2.25123 0
M  V30 21919 O 2154.22 3.05546 1.83085 0
M  V30 21920 O 2153.08 4.55371 3.02158 0
M  V30 21921 H 2150.18 0.668805 0.486444 0
M  V30 21922 H 2152.72 1.67113 0.295187 0
M  V30 21923 H 2151.49 3.78165 1.00534 0
M  V30 21924 H 2151.12 3.04655 2.55482 0
M  V30 21925 N 2152.11 -0.560755 1.47286 0
M  V30 21926 C 2153.08 -1.6502 1.59063 0
M  V30 21927 C 2154.08 -1.539 0.465997 0
M  V30 21928 O 2155.27 -1.58122 0.730962 0
M  V30 21929 C 2152.4 -3.04548 1.53177 0
M  V30 21930 H 2153.59 -1.5593 2.56176 0
M  V30 21931 H 2151.14 -0.780391 1.35424 0
M  V30 21932 H 2151.88 -3.19175 0.574264 0
M  V30 21933 H 2151.66 -3.14029 2.34794 0
M  V30 21934 H 2153.15 -3.83814 1.64549 0
M  V30 21935 N 2153.59 -1.35359 -0.807199 0
M  V30 21936 C 2154.84 -1.27934 -1.55935 0
M  V30 21937 C 2155.15 0.144469 -1.95066 0
M  V30 21938 O 2156.36 0.340989 -2.6935 0
M  V30 21939 C 2154.82 -2.24359 -2.81409 0
M  V30 21940 C 2154.42 -3.72081 -2.49519 0
M  V30 21941 C 2156.17 -2.25874 -3.59418 0
M  V30 21942 C 2154.07 -4.60331 -3.71281 0
M  V30 21943 H 2153 -0.475324 -0.585306 0
M  V30 21944 H 2155.66 -1.60619 -0.887342 0
M  V30 21945 H 2154.04 -1.84644 -3.50318 0
M  V30 21946 H 2155.21 -4.20427 -1.88621 0
M  V30 21947 H 2153.53 -3.73167 -1.84757 0
M  V30 21948 H 2156.12 -2.89024 -4.49855 0
M  V30 21949 H 2156.47 -1.26232 -3.967 0
M  V30 21950 H 2157 -2.64115 -2.9747 0
M  V30 21951 H 2153.74 -5.60969 -3.39107 0
M  V30 21952 H 2153.26 -4.16711 -4.31407 0
M  V30 21953 H 2154.94 -4.75723 -4.38516 0
M  V30 21954 N 2155.07 1.02928 -1.19346 0
M  V30 21955 C 2156.3 1.79687 -1.01961 0
M  V30 21956 C 2156.71 1.84137 0.434779 0
M  V30 21957 O 2156.05 1.28397 1.31377 0
M  V30 21958 C 2156.11 3.26152 -1.51213 0
M  V30 21959 C 2155.78 3.45338 -2.99317 0
M  V30 21960 C 2156.77 3.35591 -3.97083 0
M  V30 21961 C 2154.46 3.71566 -3.38 0
M  V30 21962 C 2156.45 3.51795 -5.31525 0
M  V30 21963 C 2154.14 3.87415 -4.72602 0
M  V30 21964 C 2155.14 3.77532 -5.69174 0
M  V30 21965 O 2154.83 3.92914 -7.01337 0
M  V30 21966 H 2154.56 0.572339 -0.359729 0
M  V30 21967 H 2157.11 1.30533 -1.58588 0
M  V30 21968 H 2155.34 3.76328 -0.889605 0
M  V30 21969 H 2157.03 3.84505 -1.30042 0
M  V30 21970 H 2157.8 3.1528 -3.68542 0
M  V30 21971 H 2153.68 3.78351 -2.63385 0
M  V30 21972 H 2157.22 3.43997 -6.06887 0
M  V30 21973 H 2153.12 4.07223 -5.00839 0
M  V30 21974 H 2153.88 4.10007 -7.08404 0
M  V30 21975 N 2156.55 0.997319 1.2203 0
M  V30 21976 C 2157.77 0.69397 1.95445 0
M  V30 21977 C 2158.2 -0.735638 1.73118 0
M  V30 21978 O 2157.56 -1.50348 1.01317 0
M  V30 21979 C 2157.6 1.01104 3.46136 0
M  V30 21980 O 2156.71 0.1121 4.12248 0
M  V30 21981 H 2156.05 0.259299 0.611277 0
M  V30 21982 H 2158.58 1.33549 1.55003 0
M  V30 21983 H 2158.59 0.954704 3.96673 0
M  V30 21984 H 2157.26 2.05274 3.61712 0
M  V30 21985 H 2155.84 0.224297 3.72225 0
M  V30 21986 N 2158.03 -1.37449 0.771075 0
M  V30 21987 C 2158.99 -2.28619 0.163149 0
M  V30 21988 C 2159.99 -1.47996 -0.628787 0
M  V30 21989 O 2161.18 -1.68221 -0.452475 0
M  V30 21990 C 2158.31 -3.31942 -0.776372 0
M  V30 21991 H 2159.5 -2.83888 0.966816 0
M  V30 21992 H 2157.06 -1.46703 0.53924 0
M  V30 21993 H 2157.79 -2.81794 -1.60507 0
M  V30 21994 H 2157.58 -3.91534 -0.210683 0
M  V30 21995 H 2159.07 -4.00072 -1.19717 0
M  V30 21996 N 2159.5 -0.52156 -1.4872 0
M  V30 21997 C 2160.92 -0.178852 -1.58595 0
M  V30 21998 C 2161.12 1.31757 -1.52455 0
M  V30 21999 O 2160.18 2.09518 -1.4092 0
M  V30 22000 C 2161.49 -0.773908 -2.9057 0
M  V30 22001 C 2163.04 -0.741876 -3.04081 0
M  V30 22002 C 2163.51 -1.31536 -4.38705 0
M  V30 22003 N 2165 -1.27696 -4.45251 0
M  V30 22004 C 2165.74 -1.69067 -5.47909 0
M  V30 22005 N 2165.23 -2.18128 -6.57565 0
M  V30 22006 N 2167.03 -1.60356 -5.38742 0
M  V30 22007 H 2159.18 -1.49422 -1.50953 0
M  V30 22008 H 2161.44 -0.621023 -0.716264 0
M  V30 22009 H 2161.15 -1.82417 -3.00694 0
M  V30 22010 H 2161.02 -0.246131 -3.76396 0
M  V30 22011 H 2163.41 0.299604 -2.93575 0
M  V30 22012 H 2163.49 -1.30703 -2.19887 0
M  V30 22013 H 2163.13 -2.35572 -4.49964 0
M  V30 22014 H 2163.06 -0.72596 -5.21572 0
M  V30 22015 H 2165.55 -0.917714 -3.66588 0
M  V30 22016 H 2165.87 -2.47712 -7.32023 0
M  V30 22017 H 2164.21 -2.22116 -6.58551 0
M  V30 22018 H 2167.4 -1.21831 -4.51968 0
M  V30 22019 H 2167.58 -1.92919 -6.18616 0
M  V30 22020 N 2160.98 1.55502 -0.256304 0
M  V30 22021 C 2162.21 2.03275 0.369154 0
M  V30 22022 C 2162.62 1.13467 1.514 0
M  V30 22023 O 2161.96 0.143417 1.83139 0
M  V30 22024 C 2162.03 3.47265 0.929919 0
M  V30 22025 C 2161.69 4.56923 -0.0838763 0
M  V30 22026 C 2162.69 5.12108 -0.896764 0
M  V30 22027 C 2160.37 5.0185 -0.212684 0
M  V30 22028 C 2162.37 6.1072 -1.82483 0
M  V30 22029 C 2160.05 6.00292 -1.14424 0
M  V30 22030 C 2161.05 6.54606 -1.94883 0
M  V30 22031 O 2160.74 7.51127 -2.86467 0
M  V30 22032 H 2160.47 0.669882 0.0907454 0
M  V30 22033 H 2163.02 2.01844 -0.380561 0
M  V30 22034 H 2161.25 3.45875 1.72937 0
M  V30 22035 H 2162.94 3.78484 1.46645 0
M  V30 22036 H 2163.71 4.78224 -0.807887 0
M  V30 22037 H 2159.59 4.59231 0.403528 0
M  V30 22038 H 2163.13 6.5304 -2.45325 0
M  V30 22039 H 2159.03 6.33595 -1.23401 0
M  V30 22040 H 2159.8 7.68777 -2.80935 0
M  V30 22041 N 2162.46 -0.0166879 1.57591 0
M  V30 22042 C 2163.74 -0.741095 1.81017 0
M  V30 22043 C 2164.12 -1.92907 0.857326 0
M  V30 22044 O 2163.47 -2.28291 -0.0977513 0
M  V30 22045 C 2163.68 -1.16252 3.29069 0
M  V30 22046 C 2165.02 -1.57331 3.94376 0
M  V30 22047 O 2166.05 -1.25676 3.33292 0
M  V30 22048 O 2164.91 -2.16129 5.01947 0
M  V30 22049 H 2162 -0.35941 0.744818 0
M  V30 22050 H 2164.55 0.00748551 1.69698 0
M  V30 22051 H 2163.32 -0.315003 3.9003 0
M  V30 22052 H 2162.94 -1.97072 3.45323 0
M  V30 22053 N 2163.94 -1.54924 -0.289176 0
M  V30 22054 C 2165.19 -1.74421 -1.02087 0
M  V30 22055 C 2165.51 -0.539388 -1.87392 0
M  V30 22056 O 2164.78 0.446105 -1.90753 0
M  V30 22057 H 2163.36 -0.643179 -0.379908 0
M  V30 22058 H 2166.02 -1.923 -0.317306 0
M  V30 22059 H 2165.12 -2.63841 -1.66716 0
M  V30 22060 N 2165.42 0.552936 -1.47582 0
M  V30 22061 C 2166.64 1.34003 -1.58297 0
M  V30 22062 C 2167.07 1.86625 -0.23511 0
M  V30 22063 O 2166.42 1.63197 0.789702 0
M  V30 22064 C 2166.47 2.48288 -2.61506 0
M  V30 22065 O 2165.58 3.50647 -2.17073 0
M  V30 22066 H 2164.92 0.397855 -0.531608 0
M  V30 22067 H 2167.45 0.667783 -1.93395 0
M  V30 22068 H 2167.46 2.94798 -2.8206 0
M  V30 22069 H 2166.13 2.09345 -3.59371 0
M  V30 22070 H 2164.71 3.10413 -2.06636 0
M  V30 22071 N 2166.89 1.35785 0.800009 0
M  V30 22072 C 2168.14 1.2917 1.55434 0
M  V30 22073 C 2168.46 -0.131766 1.94554 0
M  V30 22074 O 2167.73 -1.06968 1.64118 0
M  V30 22075 H 2166.31 0.475134 0.576417 0
M  V30 22076 H 2168.98 1.69963 0.953872 0
M  V30 22077 H 2168.07 1.912 2.46676 0
M  V30 22078 N 2168.37 -1.02294 1.19891 0
M  V30 22079 C 2169.32 -2.09064 0.909734 0
M  V30 22080 C 2170.31 -1.60391 -0.127889 0
M  V30 22081 O 2171.5 -1.76825 0.07862 0
M  V30 22082 C 2168.63 -3.40248 0.456716 0
M  V30 22083 C 2167.71 -3.9564 1.52741 0
M  V30 22084 N 2168.1 -4.24619 2.74831 0
M  V30 22085 C 2166.4 -4.23718 1.39209 0
M  V30 22086 C 2167.1 -4.69195 3.43848 0
M  V30 22087 N 2166.08 -4.71088 2.71251 0
M  V30 22088 H 2169.88 -2.2937 1.83757 0
M  V30 22089 H 2167.4 -1.20208 1.09196 0
M  V30 22090 H 2169.39 -4.1626 0.23098 0
M  V30 22091 H 2168.05 -3.21359 -0.464563 0
M  V30 22092 H 2169.06 -4.13719 3.1154 0
M  V30 22093 H 2165.74 -4.14061 0.534734 0
M  V30 22094 H 2167.13 -5.00489 4.48286 0
M  V30 22095 N 2169.85 -1.00378 -1.21499 0
M  V30 22096 C 2170.78 -0.507992 -2.22474 0
M  V30 22097 C 2171.76 0.437639 -1.566 0
M  V30 22098 O 2172.95 0.360646 -1.85018 0
M  V30 22099 C 2170.07 0.262267 -3.37683 0
M  V30 22100 C 2169.12 -0.630981 -4.21807 0
M  V30 22101 S 2169.95 -2.09268 -4.92917 0
M  V30 22102 C 2171.11 -1.33222 -6.11558 0
M  V30 22103 H 2171.34 -1.3636 -2.64184 0
M  V30 22104 H 2168.87 -0.811617 -1.31347 0
M  V30 22105 H 2170.83 0.700606 -4.04477 0
M  V30 22106 H 2169.49 1.09329 -2.94459 0
M  V30 22107 H 2168.69 -0.0377442 -5.03986 0
M  V30 22108 H 2168.29 -1.00654 -3.60201 0
M  V30 22109 H 2170.58 -0.605479 -6.74789 0
M  V30 22110 H 2171.52 -2.12968 -6.75315 0
M  V30 22111 H 2171.93 -0.840726 -5.58204 0
M  V30 22112 N 2171.33 1.37038 -0.778354 0
M  V30 22113 C 2172.24 2.33983 -0.170042 0
M  V30 22114 C 2173.25 1.60504 0.671902 0
M  V30 22115 O 2174.43 1.92556 0.590278 0
M  V30 22116 C 2171.5 3.39689 0.693729 0
M  V30 22117 C 2170.56 4.28981 -0.165434 0
M  V30 22118 C 2169.79 5.29638 0.657205 0
M  V30 22119 O 2170.01 5.38041 1.8939 0
M  V30 22120 O 2168.95 6.01867 0.0629255 0
M  V30 22121 H 2172.77 2.87749 -0.97131 0
M  V30 22122 H 2170.36 1.39314 -0.53962 0
M  V30 22123 H 2172.24 4.04348 1.18664 0
M  V30 22124 H 2170.91 2.8824 1.47307 0
M  V30 22125 H 2169.82 3.674 -0.704851 0
M  V30 22126 H 2171.15 4.83752 -0.908023 0
M  V30 22127 N 2172.81 0.529439 1.48441 0
M  V30 22128 C 2174.05 -0.00486384 2.02799 0
M  V30 22129 C 2174.39 -1.33985 1.40576 0
M  V30 22130 O 2173.66 -1.86523 0.551326 0
M  V30 22131 C 2173.94 -0.127443 3.59874 0
M  V30 22132 C 2173.8 1.23268 4.3258 0
M  V30 22133 C 2175.12 -0.854486 4.31725 0
M  V30 22134 H 2172.24 -0.00029358 0.737 0
M  V30 22135 H 2174.88 0.686364 1.7717 0
M  V30 22136 H 2173.03 -0.716153 3.81842 0
M  V30 22137 H 2174.7 1.86245 4.22031 0
M  V30 22138 H 2172.94 1.8147 3.94019 0
M  V30 22139 H 2173.61 1.09991 5.40931 0
M  V30 22140 H 2176.09 -0.354911 4.14584 0
M  V30 22141 H 2174.97 -0.909151 5.41318 0
M  V30 22142 H 2175.23 -1.90464 3.98968 0
M  V30 22143 N 2174.29 -1.55364 0.264547 0
M  V30 22144 C 2175.22 -2.25081 -0.621337 0
M  V30 22145 C 2176.2 -1.23722 -1.16734 0
M  V30 22146 O 2177.38 -1.52418 -1.20343 0
M  V30 22147 C 2174.51 -2.96382 -1.81038 0
M  V30 22148 C 2173.47 -4.0458 -1.39638 0
M  V30 22149 C 2172.79 -4.63399 -2.66768 0
M  V30 22150 C 2174.09 -5.1935 -0.554378 0
M  V30 22151 H 2175.79 -2.99373 -0.0399448 0
M  V30 22152 H 2173.33 -1.43989 -0.0177721 0
M  V30 22153 H 2175.28 -3.43862 -2.43592 0
M  V30 22154 H 2174.01 -2.19608 -2.41744 0
M  V30 22155 H 2172.67 -3.57896 -0.794097 0
M  V30 22156 H 2172.32 -3.83305 -3.25709 0
M  V30 22157 H 2172.02 -5.36449 -2.39784 0
M  V30 22158 H 2173.54 -5.13622 -3.30189 0
M  V30 22159 H 2174.95 -5.62946 -1.08465 0
M  V30 22160 H 2173.35 -5.98897 -0.379861 0
M  V30 22161 H 2174.42 -4.82996 0.42934 0
M  V30 22162 N 2175.76 0.00833021 -1.57598 0
M  V30 22163 C 2177.18 0.364296 -1.55387 0
M  V30 22164 C 2177.38 1.75313 -0.993353 0
M  V30 22165 O 2176.44 2.44681 -0.623498 0
M  V30 22166 C 2177.75 0.247154 -2.99683 0
M  V30 22167 C 2179.3 0.32271 -3.11332 0
M  V30 22168 C 2179.77 0.234786 -4.57398 0
M  V30 22169 N 2181.26 0.292944 -4.62273 0
M  V30 22170 C 2182 0.248123 -5.72863 0
M  V30 22171 N 2181.49 0.154382 -6.92628 0
M  V30 22172 N 2183.29 0.299377 -5.61302 0
M  V30 22173 H 2175.44 -0.900301 -1.92376 0
M  V30 22174 H 2177.7 -0.344326 -0.883257 0
M  V30 22175 H 2177.41 -0.708073 -3.44498 0
M  V30 22176 H 2177.28 1.03257 -3.62792 0
M  V30 22177 H 2179.67 1.26838 -2.66451 0
M  V30 22178 H 2179.75 -0.492428 -2.51016 0
M  V30 22179 H 2179.39 -0.707303 -5.02951 0
M  V30 22180 H 2179.32 1.0683 -5.1565 0
M  V30 22181 H 2181.81 0.367063 -3.76113 0
M  V30 22182 H 2182.13 0.12585 -7.72698 0
M  V30 22183 H 2180.47 0.12013 -6.94896 0
M  V30 22184 H 2183.66 0.370748 -4.66629 0
M  V30 22185 H 2183.84 0.260981 -6.47474 0
M  V30 22186 N 2177.24 1.55075 0.280956 0
M  V30 22187 C 2178.49 1.7496 1.0116 0
M  V30 22188 C 2178.81 0.549318 1.87103 0
M  V30 22189 O 2178.08 -0.435983 1.90987 0
M  V30 22190 H 2176.66 0.645185 0.376492 0
M  V30 22191 H 2179.32 1.92465 0.307104 0
M  V30 22192 H 2178.42 2.64721 1.65315 0
M  V30 22193 N 2178.72 -0.545102 1.47873 0
M  V30 22194 C 2179.67 -1.64692 1.57672 0
M  V30 22195 C 2180.65 -1.54914 0.434787 0
M  V30 22196 O 2181.85 -1.63191 0.685394 0
M  V30 22197 C 2178.97 -3.03449 1.60542 0
M  V30 22198 C 2178.06 -3.18386 2.80162 0
M  V30 22199 N 2178.45 -3.03347 4.0474 0
M  V30 22200 C 2176.75 -3.49412 2.77178 0
M  V30 22201 C 2177.45 -3.21298 4.84915 0
M  V30 22202 N 2176.43 -3.48186 4.17454 0
M  V30 22203 H 2180.23 -1.51652 2.51752 0
M  V30 22204 H 2177.74 -0.750179 1.44035 0
M  V30 22205 H 2179.74 -3.82576 1.65654 0
M  V30 22206 H 2178.4 -3.17592 0.675673 0
M  V30 22207 H 2179.41 -2.80422 4.35412 0
M  V30 22208 H 2176.09 -3.70007 1.93394 0
M  V30 22209 H 2177.48 -3.14536 5.93731 0
M  V30 22210 N 2180.2 -1.36208 -0.792797 0
M  V30 22211 C 2181.11 -1.32403 -1.93666 0
M  V30 22212 C 2182.12 -0.226736 -1.72516 0
M  V30 22213 O 2183.3 -0.458518 -1.96111 0
M  V30 22214 C 2180.36 -1.10928 -3.28475 0
M  V30 22215 C 2179.43 -2.301 -3.62426 0
M  V30 22216 C 2178.66 -2.0964 -4.90802 0
M  V30 22217 O 2178.88 -1.06985 -5.60277 0
M  V30 22218 O 2177.82 -2.97336 -5.23331 0
M  V30 22219 H 2181.64 -2.287 -1.99825 0
M  V30 22220 H 2179.23 -1.1672 -0.932566 0
M  V30 22221 H 2181.11 -1.00855 -4.09153 0
M  V30 22222 H 2179.78 -0.17691 -3.23216 0
M  V30 22223 H 2178.69 -2.45741 -2.82068 0
M  V30 22224 H 2180.02 -3.21832 -3.72405 0
M  V30 22225 N 2181.68 1.01656 -1.20431 0
M  V30 22226 C 2182.92 1.75255 -1.01449 0
M  V30 22227 C 2183.25 1.89142 0.453379 0
M  V30 22228 O 2182.51 1.4141 1.35284 0
M  V30 22229 C 2182.8 3.17385 -1.64322 0
M  V30 22230 C 2182.47 3.23475 -3.14126 0
M  V30 22231 C 2181.13 3.24844 -3.55007 0
M  V30 22232 C 2183.48 3.21636 -4.10122 0
M  V30 22233 C 2180.81 3.22046 -4.90411 0
M  V30 22234 C 2183.16 3.20379 -5.45472 0
M  V30 22235 C 2181.83 3.20052 -5.85767 0
M  V30 22236 H 2181.1 0.641303 -0.37123 0
M  V30 22237 H 2183.75 1.19228 -1.49857 0
M  V30 22238 H 2182.05 3.7657 -1.08177 0
M  V30 22239 H 2183.75 3.73025 -1.4715 0
M  V30 22240 H 2180.34 3.23145 -2.81559 0
M  V30 22241 H 2184.52 3.19748 -3.79572 0
M  V30 22242 H 2179.78 3.20123 -5.20894 0
M  V30 22243 H 2183.95 3.17908 -6.19602 0
M  V30 22244 H 2181.58 3.17638 -6.90659 0
M  V30 22245 N 2183.15 1.01021 1.20965 0
M  V30 22246 C 2184.08 0.5953 2.25784 0
M  V30 22247 C 2185.06 -0.386477 1.65651 0
M  V30 22248 O 2186.25 -0.273315 1.92267 0
M  V30 22249 C 2183.38 -0.0736489 3.47222 0
M  V30 22250 C 2182.33 0.828449 4.19906 0
M  V30 22251 C 2181.66 0.0256242 5.34694 0
M  V30 22252 C 2182.96 2.13351 4.76737 0
M  V30 22253 H 2184.65 1.4715 2.60744 0
M  V30 22254 H 2182.2 0.70899 1.25337 0
M  V30 22255 H 2184.15 -0.375423 4.19724 0
M  V30 22256 H 2182.88 -0.984519 3.11408 0
M  V30 22257 H 2181.54 1.11413 3.4926 0
M  V30 22258 H 2181.18 -0.886697 4.95123 0
M  V30 22259 H 2180.88 0.626319 5.84253 0
M  V30 22260 H 2182.41 -0.269844 6.10003 0
M  V30 22261 H 2183.82 1.89453 5.41092 0
M  V30 22262 H 2182.22 2.68451 5.36707 0
M  V30 22263 H 2183.29 2.80081 3.95832 0
M  V30 22264 N 2184.63 -1.36623 0.78561 0
M  V30 22265 C 2185.86 -2.04129 0.366917 0
M  V30 22266 C 2186.28 -1.58852 -1.00736 0
M  V30 22267 O 2185.64 -0.755202 -1.64822 0
M  V30 22268 C 2185.69 -3.5797 0.43472 0
M  V30 22269 O 2184.79 -4.08584 -0.559755 0
M  V30 22270 H 2184.13 -0.645306 0.156447 0
M  V30 22271 H 2186.66 -1.74656 1.06566 0
M  V30 22272 H 2186.67 -4.06918 0.296959 0
M  V30 22273 H 2185.35 -3.90277 1.43724 0
M  V30 22274 H 2183.92 -3.70918 -0.38397 0
M  V30 22275 N 2186.11 -0.537304 -1.48158 0
M  V30 22276 C 2187.06 0.241443 -2.26718 0
M  V30 22277 C 2188.04 0.903317 -1.3315 0
M  V30 22278 O 2189.24 0.804913 -1.57639 0
M  V30 22279 C 2186.36 1.28323 -3.18415 0
M  V30 22280 C 2185.45 0.625778 -4.19458 0
M  V30 22281 N 2185.84 -0.292719 -5.04952 0
M  V30 22282 C 2184.14 0.882109 -4.3719 0
M  V30 22283 C 2184.84 -0.67271 -5.77797 0
M  V30 22284 N 2183.82 -0.032099 -5.43591 0
M  V30 22285 H 2187.62 -0.465059 -2.90197 0
M  V30 22286 H 2185.13 -0.355839 -1.58454 0
M  V30 22287 H 2187.13 1.85491 -3.73361 0
M  V30 22288 H 2185.79 1.99103 -2.56492 0
M  V30 22289 H 2186.8 -0.665751 -5.13603 0
M  V30 22290 H 2183.48 1.57993 -3.86451 0
M  V30 22291 H 2184.87 -1.42629 -6.56587 0
M  V30 22292 N 2187.59 1.55221 -0.272782 0
M  V30 22293 C 2189 1.85334 0.225428 0
M  V30 22294 C 2189.35 1.19479 1.55625 0
M  V30 22295 O 2188.48 0.482291 2.10957 0
M  V30 22296 C 2189.07 3.36239 0.415804 0
M  V30 22297 C 2187.63 3.66485 0.858249 0
M  V30 22298 C 2186.78 2.77255 -0.0498039 0
M  V30 22299 H 2189.73 1.50795 -0.494637 0
M  V30 22300 H 2189.75 3.59218 1.2547 0
M  V30 22301 H 2189.26 3.84141 -0.552945 0
M  V30 22302 H 2187.36 3.2408 1.83855 0
M  V30 22303 H 2187.47 4.74 0.697187 0
M  V30 22304 H 2185.84 2.50399 0.466105 0
M  V30 22305 H 2186.62 3.27971 -1.01439 0
M  V30 22306 N 2189.07 2.77022e-05 1.576 0
M  V30 22307 C 2190.31 -0.684815 1.90569 0
M  V30 22308 C 2190.64 -1.73777 0.873597 0
M  V30 22309 O 2189.9 -1.95322 -0.12162 0
M  V30 22310 C 2190.2 -1.36534 3.30292 0
M  V30 22311 C 2189.86 -0.445583 4.48693 0
M  V30 22312 C 2188.52 -0.192344 4.80815 0
M  V30 22313 C 2190.88 0.187683 5.20862 0
M  V30 22314 C 2188.2 0.702454 5.8248 0
M  V30 22315 C 2190.56 1.07036 6.23479 0
M  V30 22316 C 2189.22 1.33277 6.54059 0
M  V30 22317 H 2188.49 -0.250591 0.697341 0
M  V30 22318 H 2191.14 0.0555609 1.91419 0
M  V30 22319 H 2189.44 -2.17977 3.25566 0
M  V30 22320 H 2191.14 -1.90129 3.53061 0
M  V30 22321 H 2187.73 -0.653128 4.23594 0
M  V30 22322 H 2191.91 0.00505024 4.963 0
M  V30 22323 H 2187.17 0.913771 6.04533 0
M  V30 22324 H 2191.34 1.56741 6.78532 0
M  V30 22325 H 2188.97 2.02782 7.32655 0
M  V30 22326 N 2190.54 -1.55222 -0.272728 0
M  V30 22327 C 2191.51 -1.87346 -1.32038 0
M  V30 22328 C 2192.51 -0.748055 -1.4234 0
M  V30 22329 O 2193.7 -1.01623 -1.41487 0
M  V30 22330 C 2190.83 -2.07898 -2.70169 0
M  V30 22331 H 2192.02 -2.80999 -1.04784 0
M  V30 22332 H 2189.58 -1.47718 -0.510804 0
M  V30 22333 H 2190.31 -1.16628 -3.02603 0
M  V30 22334 H 2190.1 -2.89837 -2.64077 0
M  V30 22335 H 2191.59 -2.34024 -3.45865 0
M  V30 22336 N 2192.02 0.537252 -1.4816 0
M  V30 22337 C 2193.27 1.29538 -1.56038 0
M  V30 22338 C 2193.6 1.92828 -0.230411 0
M  V30 22339 O 2192.88 1.78913 0.762921 0
M  V30 22340 C 2193.16 2.39029 -2.69327 0
M  V30 22341 C 2193.01 1.80478 -4.12005 0
M  V30 22342 C 2194.33 3.40842 -2.78414 0
M  V30 22343 H 2191.45 0.469622 -0.568 0
M  V30 22344 H 2194.09 0.599245 -1.80303 0
M  V30 22345 H 2192.24 2.98407 -2.48768 0
M  V30 22346 H 2193.91 1.25207 -4.43983 0
M  V30 22347 H 2192.16 1.11048 -4.19346 0
M  V30 22348 H 2192.83 2.59722 -4.87082 0
M  V30 22349 H 2195.3 2.9141 -2.97017 0
M  V30 22350 H 2194.18 4.14857 -3.59423 0
M  V30 22351 H 2194.44 4.00941 -1.86276 0
M  V30 22352 N 2193.5 1.36626 0.785562 0
M  V30 22353 C 2194.73 1.34233 1.57446 0
M  V30 22354 C 2195.14 -0.0755322 1.88649 0
M  V30 22355 O 2194.5 -1.03351 1.50416 0
M  V30 22356 C 2194.55 2.1675 2.89312 0
M  V30 22357 O 2194.27 3.5301 2.59452 0
M  V30 22358 C 2195.77 2.22181 3.83602 0
M  V30 22359 H 2192.99 0.460309 0.488218 0
M  V30 22360 H 2195.54 1.79777 0.974701 0
M  V30 22361 H 2193.69 1.74751 3.45747 0
M  V30 22362 H 2194.11 3.96111 3.43797 0
M  V30 22363 H 2195.58 2.84268 4.73176 0
M  V30 22364 H 2196.06 1.22634 4.21732 0
M  V30 22365 H 2196.66 2.64433 3.331 0
M  V30 22366 N 2194.98 -1.01016 1.20969 0
M  V30 22367 C 2195.91 -2.11553 0.988309 0
M  V30 22368 C 2196.89 -1.69888 -0.084948 0
M  V30 22369 O 2198.07 -1.9406 0.0738543 0
M  V30 22370 C 2195.2 -3.42972 0.546588 0
M  V30 22371 C 2194.16 -3.98408 1.56382 0
M  V30 22372 C 2193.48 -5.2567 0.978512 0
M  V30 22373 C 2194.78 -4.31061 2.9493 0
M  V30 22374 H 2196.48 -2.30331 1.9128 0
M  V30 22375 H 2194.02 -1.10688 0.921092 0
M  V30 22376 H 2195.98 -4.19693 0.378913 0
M  V30 22377 H 2194.7 -3.23971 -0.413541 0
M  V30 22378 H 2193.36 -3.23801 1.71897 0
M  V30 22379 H 2193.01 -5.02999 0.0102572 0
M  V30 22380 H 2192.71 -5.63725 1.65794 0
M  V30 22381 H 2194.23 -6.05041 0.822046 0
M  V30 22382 H 2195.65 -4.98645 2.82889 0
M  V30 22383 H 2194.04 -4.80246 3.59838 0
M  V30 22384 H 2195.11 -3.39555 3.46166 0
M  V30 22385 N 2196.46 -1.01661 -1.20428 0
M  V30 22386 C 2197.69 -0.724115 -1.93495 0
M  V30 22387 C 2198.09 0.719149 -1.75 0
M  V30 22388 O 2197.44 1.49947 -1.06121 0
M  V30 22389 C 2197.5 -0.980001 -3.45885 0
M  V30 22390 C 2197.16 -2.41238 -3.8814 0
M  V30 22391 C 2198.16 -3.3932 -3.93901 0
M  V30 22392 C 2195.85 -2.75313 -4.20129 0
M  V30 22393 C 2197.84 -4.69537 -4.31061 0
M  V30 22394 C 2195.53 -4.05743 -4.56964 0
M  V30 22395 C 2196.52 -5.02666 -4.62402 0
M  V30 22396 O 2196.21 -6.30762 -4.98392 0
M  V30 22397 H 2195.94 -0.265173 -0.621819 0
M  V30 22398 H 2198.5 -1.36069 -1.53865 0
M  V30 22399 H 2196.73 -0.286265 -3.85639 0
M  V30 22400 H 2198.42 -0.679091 -4.00179 0
M  V30 22401 H 2199.18 -3.14332 -3.69352 0
M  V30 22402 H 2195.06 -2.00559 -4.15087 0
M  V30 22403 H 2198.61 -5.45187 -4.3522 0
M  V30 22404 H 2194.5 -4.3051 -4.80969 0
M  V30 22405 H 2195.27 -6.35051 -5.16384 0
M  V30 22406 N 2197.93 1.36205 -0.792844 0
M  V30 22407 C 2199.18 1.98756 -0.366097 0
M  V30 22408 C 2199.5 1.63233 1.06677 0
M  V30 22409 O 2198.77 0.908009 1.73586 0
M  V30 22410 H 2197.35 0.735177 -0.132377 0
M  V30 22411 H 2200.02 1.66345 -1.01564 0
M  V30 22412 H 2199.11 3.08681 -0.460692 0
M  V30 22413 N 2199.41 0.545154 1.47871 0
M  V30 22414 C 2200.66 0.0165886 2.02093 0
M  V30 22415 C 2200.98 -1.33317 1.42308 0
M  V30 22416 O 2200.25 -1.86681 0.593886 0
M  V30 22417 H 2198.83 0.00314351 0.746993 0
M  V30 22418 H 2201.49 0.712429 1.81412 0
M  V30 22419 H 2200.59 -0.0804873 3.11996 0
M  V30 22420 N 2200.89 -1.55074 0.28101 0
M  V30 22421 C 2201.8 -2.26427 -0.61384 0
M  V30 22422 C 2202.82 -1.29226 -1.16519 0
M  V30 22423 O 2203.99 -1.62173 -1.19423 0
M  V30 22424 C 2201.06 -2.97593 -1.77875 0
M  V30 22425 C 2200.12 -4.10286 -1.26348 0
M  V30 22426 C 2199.35 -4.78049 -2.37287 0
M  V30 22427 O 2199.57 -4.45053 -3.56769 0
M  V30 22428 O 2198.51 -5.65874 -2.05109 0
M  V30 22429 H 2202.33 -3.03679 -0.0356398 0
M  V30 22430 H 2199.92 -1.49322 0.0481948 0
M  V30 22431 H 2201.8 -3.42297 -2.45785 0
M  V30 22432 H 2200.48 -2.23253 -2.34393 0
M  V30 22433 H 2199.38 -3.70025 -0.55067 0
M  V30 22434 H 2200.72 -4.86545 -0.743979 0
M  V30 22435 N 2202.37 -0.00838561 -1.57598 0
M  V30 22436 C 2203.62 0.675698 -1.91212 0
M  V30 22437 C 2203.95 1.72956 -0.883169 0
M  V30 22438 O 2203.22 1.94258 0.0969819 0
M  V30 22439 C 2203.51 1.31117 -3.35381 0
M  V30 22440 C 2203.36 0.268278 -4.48999 0
M  V30 22441 C 2204.68 2.23502 -3.79124 0
M  V30 22442 H 2201.8 0.244167 -0.695379 0
M  V30 22443 H 2204.44 -0.0613989 -1.89901 0
M  V30 22444 H 2202.59 1.93941 -3.36629 0
M  V30 22445 H 2204.26 -0.360925 -4.59886 0
M  V30 22446 H 2202.5 -0.408557 -4.31872 0
M  V30 22447 H 2203.18 0.752122 -5.46852 0
M  V30 22448 H 2205.65 1.70686 -3.7948 0
M  V30 22449 H 2204.53 2.64927 -4.80734 0
M  V30 22450 H 2204.79 3.11761 -3.13461 0
M  V30 22451 N 2203.85 1.55365 0.264492 0
M  V30 22452 C 2205.08 1.80145 1.0115 0
M  V30 22453 C 2205.49 0.579285 1.80114 0
M  V30 22454 O 2204.83 -0.461288 1.77814 0
M  V30 22455 C 2204.89 2.97997 2.01093 0
M  V30 22456 C 2204.55 4.34709 1.40988 0
M  V30 22457 C 2205.55 5.13373 0.821226 0
M  V30 22458 C 2203.24 4.8138 1.43452 0
M  V30 22459 C 2205.23 6.36848 0.265227 0
M  V30 22460 C 2202.92 6.04808 0.874665 0
M  V30 22461 C 2203.92 6.8238 0.291026 0
M  V30 22462 O 2203.6 8.03479 -0.260235 0
M  V30 22463 H 2203.34 0.603731 0.304114 0
M  V30 22464 H 2205.89 2.03226 0.298053 0
M  V30 22465 H 2204.12 2.70628 2.7622 0
M  V30 22466 H 2205.81 3.10025 2.61991 0
M  V30 22467 H 2206.57 4.78443 0.794819 0
M  V30 22468 H 2202.45 4.21005 1.87819 0
M  V30 22469 H 2206 6.97339 -0.190959 0
M  V30 22470 H 2201.89 6.39218 0.89834 0
M  V30 22471 H 2202.66 8.18362 -0.150409 0
M  V30 22472 N 2205.33 -0.529387 1.48443 0
M  V30 22473 C 2206.57 -1.2846 1.57701 0
M  V30 22474 C 2206.93 -1.90796 0.247947 0
M  V30 22475 O 2206.22 -1.76343 -0.749248 0
M  V30 22476 C 2206.41 -2.39553 2.65234 0
M  V30 22477 C 2206.24 -1.88107 4.08468 0
M  V30 22478 C 2205.01 -1.70685 4.75599 0
M  V30 22479 C 2207.21 -1.40926 4.94615 0
M  V30 22480 N 2205.19 -1.1387 6.03247 0
M  V30 22481 C 2206.56 -0.960627 6.12513 0
M  V30 22482 C 2208.62 -1.29235 4.80835 0
M  V30 22483 C 2207.32 -0.406666 7.1815 0
M  V30 22484 C 2209.35 -0.752384 5.86595 0
M  V30 22485 C 2208.71 -0.313823 7.03701 0
M  V30 22486 H 2204.81 -0.461069 0.631616 0
M  V30 22487 H 2207.39 -0.596853 1.85326 0
M  V30 22488 H 2205.56 -3.05823 2.3943 0
M  V30 22489 H 2207.3 -3.06584 2.64174 0
M  V30 22490 H 2204.05 -1.94225 4.31942 0
M  V30 22491 H 2204.47 -0.874713 6.71325 0
M  V30 22492 H 2209.12 -1.61747 3.90638 0
M  V30 22493 H 2206.83 -0.069225 8.0807 0
M  V30 22494 H 2210.42 -0.665091 5.77986 0
M  V30 22495 H 2209.3 0.097501 7.84139 0
M  V30 22496 N 2206.8 -1.37041 -0.778305 0
M  V30 22497 C 2208.03 -1.35066 -1.56731 0
M  V30 22498 C 2208.45 0.0655266 -1.88686 0
M  V30 22499 O 2207.8 1.02552 -1.50962 0
M  V30 22500 C 2207.85 -2.18281 -2.88159 0
M  V30 22501 O 2207.58 -3.54381 -2.57577 0
M  V30 22502 C 2209.08 -2.24212 -3.82418 0
M  V30 22503 H 2206.3 -0.462891 -0.48577 0
M  V30 22504 H 2208.84 -1.80292 -0.965154 0
M  V30 22505 H 2207 -1.76582 -3.44815 0
M  V30 22506 H 2207.41 -3.97928 -3.41692 0
M  V30 22507 H 2208.88 -2.86774 -4.71662 0
M  V30 22508 H 2209.36 -1.24869 -4.21075 0
M  V30 22509 H 2209.97 -2.66196 -3.31693 0
M  V30 22510 N 2208.28 1.00373 -1.21503 0
M  V30 22511 C 2209.56 1.71435 -0.941775 0
M  V30 22512 C 2209.94 2.03915 0.546078 0
M  V30 22513 O 2209.29 1.71387 1.51125 0
M  V30 22514 C 2209.5 2.97286 -1.82817 0
M  V30 22515 C 2210.84 3.70289 -2.07777 0
M  V30 22516 O 2211.87 3.0727 -1.80176 0
M  V30 22517 O 2210.73 4.83642 -2.54465 0
M  V30 22518 H 2207.82 0.747756 -0.353256 0
M  V30 22519 H 2210.37 1.06105 -1.32438 0
M  V30 22520 H 2209.14 2.69704 -2.83506 0
M  V30 22521 H 2208.76 3.70356 -1.44646 0
M  V30 22522 N 2209.76 1.02298 1.19887 0
M  V30 22523 C 2211.01 0.726793 1.89972 0
M  V30 22524 C 2211.36 -0.736109 1.77762 0
M  V30 22525 O 2210.65 -1.52854 1.15525 0
M  V30 22526 C 2210.85 1.10524 3.39881 0
M  V30 22527 C 2210.68 2.60339 3.6668 0
M  V30 22528 C 2209.45 3.2722 3.85039 0
M  V30 22529 C 2211.64 3.58538 3.6872 0
M  V30 22530 N 2209.63 4.66199 3.99414 0
M  V30 22531 C 2211 4.83108 3.88596 0
M  V30 22532 C 2213.05 3.52421 3.51716 0
M  V30 22533 C 2211.76 6.02298 3.93229 0
M  V30 22534 C 2213.78 4.7102 3.57624 0
M  V30 22535 C 2213.14 5.94401 3.77978 0
M  V30 22536 H 2209.24 0.317725 0.714545 0
M  V30 22537 H 2211.83 1.30909 1.44121 0
M  V30 22538 H 2210 0.55121 3.84469 0
M  V30 22539 H 2211.73 0.761923 3.97463 0
M  V30 22540 H 2208.48 2.77639 3.83684 0
M  V30 22541 H 2208.91 5.38376 4.10464 0
M  V30 22542 H 2213.55 2.58021 3.3494 0
M  V30 22543 H 2211.27 6.97072 4.08799 0
M  V30 22544 H 2214.85 4.67908 3.45765 0
M  V30 22545 H 2213.73 6.84637 3.82416 0
M  V30 22546 N 2211.24 -1.35782 0.800057 0
M  V30 22547 C 2212.65 -1.52116 0.483004 0
M  V30 22548 C 2212.85 -1.75111 -0.996917 0
M  V30 22549 O 2211.91 -1.78875 -1.78213 0
M  V30 22550 C 2213.22 -2.70047 1.32269 0
M  V30 22551 C 2214.77 -2.83922 1.31747 0
M  V30 22552 C 2215.25 -4.0487 2.14113 0
M  V30 22553 N 2216.74 -4.12036 2.11615 0
M  V30 22554 C 2217.47 -5.04722 2.72108 0
M  V30 22555 N 2216.97 -6.02783 3.41503 0
M  V30 22556 N 2218.76 -4.97419 2.61785 0
M  V30 22557 H 2210.91 -1.19112 1.75858 0
M  V30 22558 H 2213.17 -0.582239 0.748132 0
M  V30 22559 H 2212.88 -2.59611 2.37265 0
M  V30 22560 H 2212.75 -3.64478 0.971367 0
M  V30 22561 H 2215.14 -2.93812 0.275385 0
M  V30 22562 H 2215.22 -1.90367 1.70862 0
M  V30 22563 H 2214.87 -3.95741 3.18358 0
M  V30 22564 H 2214.8 -4.97593 1.72361 0
M  V30 22565 H 2217.29 -3.41832 1.61118 0
M  V30 22566 H 2217.6 -6.70091 3.84964 0
M  V30 22567 H 2215.95 -6.02977 3.45606 0
M  V30 22568 H 2219.14 -4.19763 2.07164 0
M  V30 22569 H 2219.31 -5.69462 3.0922 0
M  V30 22570 N 2212.72 -0.552988 -1.4758 0
M  V30 22571 C 2213.94 -0.0320919 -2.06875 0
M  V30 22572 C 2214.36 1.25974 -1.40627 0
M  V30 22573 O 2213.72 1.75478 -0.50138 0
M  V30 22574 C 2213.77 0.171607 -3.61092 0
M  V30 22575 O 2213.49 -1.06906 -4.24856 0
M  V30 22576 C 2214.99 0.730267 -4.37244 0
M  V30 22577 H 2212.21 -0.0439268 -0.669561 0
M  V30 22578 H 2214.75 -0.765196 -1.89644 0
M  V30 22579 H 2212.91 0.854827 -3.77851 0
M  V30 22580 H 2213.32 -0.86415 -5.17332 0
M  V30 22581 H 2214.8 0.822107 -5.45844 0
M  V30 22582 H 2215.27 1.74057 -4.03238 0
M  V30 22583 H 2215.88 0.0828795 -4.25219 0
M  V30 22584 N 2214.19 1.54923 -0.28923 0
M  V30 22585 C 2215.14 2.24515 0.607926 0
M  V30 22586 C 2216.14 1.24704 1.14653 0
M  V30 22587 O 2217.34 1.42591 1.09853 0
M  V30 22588 H 2213.72 0.720721 0.214627 0
M  V30 22589 H 2215.69 2.984 -0.00169428 0
M  V30 22590 C 2214.44 2.99039 1.77401 0
M  V30 22591 H 2213.76 3.75639 1.36877 0
M  V30 22592 H 2215.2 3.51032 2.37807 0
M  V30 22593 C 2213.66 2.05323 2.67103 0
M  V30 22594 O 2214.19 1.6136 3.67867 0
M  V30 22595 N 2212.39 1.71526 2.34579 0
M  V30 22596 H 2211.94 2.07473 1.52685 0
M  V30 22597 H 2211.9 1.09095 2.94865 0
M  V30 22598 N 2215.67 0.0167433 1.57591 0
M  V30 22599 C 2216.9 -0.675094 1.95576 0
M  V30 22600 C 2217.31 -1.66369 0.892571 0
M  V30 22601 O 2216.67 -1.82058 -0.12688 0
M  V30 22602 C 2216.72 -1.39234 3.33611 0
M  V30 22603 O 2216.44 -0.443367 4.35851 0
M  V30 22604 C 2217.94 -2.17714 3.86155 0
M  V30 22605 H 2215.16 -0.186966 0.644426 0
M  V30 22606 H 2217.71 0.0728359 2.0437 0
M  V30 22607 H 2215.86 -2.09176 3.26074 0
M  V30 22608 H 2216.28 -0.951268 5.15801 0
M  V30 22609 H 2217.75 -2.63371 4.85118 0
M  V30 22610 H 2218.23 -3.01099 3.19744 0
M  V30 22611 H 2218.83 -1.52754 3.96921 0
M  V30 22612 N 2217.15 -1.55503 -0.256249 0
M  V30 22613 C 2218.08 -1.92542 -1.32098 0
M  V30 22614 C 2219.06 -0.789221 -1.50683 0
M  V30 22615 O 2220.25 -1.04874 -1.63447 0
M  V30 22616 C 2217.38 -2.21197 -2.67748 0
M  V30 22617 C 2216.33 -3.3698 -2.63872 0
M  V30 22618 C 2215.66 -3.51154 -4.0323 0
M  V30 22619 C 2216.96 -4.72925 -2.21674 0
M  V30 22620 H 2218.65 -2.81726 -1.01346 0
M  V30 22621 H 2216.2 -1.35548 -0.486081 0
M  V30 22622 H 2218.15 -2.45697 -3.42361 0
M  V30 22623 H 2216.87 -1.2883 -3.00117 0
M  V30 22624 H 2215.53 -3.12474 -1.91717 0
M  V30 22625 H 2215.18 -2.56224 -4.32849 0
M  V30 22626 H 2214.88 -4.2901 -4.01527 0
M  V30 22627 H 2216.4 -3.77965 -4.79557 0
M  V30 22628 H 2217.82 -4.96859 -2.86015 0
M  V30 22629 H 2216.22 -5.53816 -2.311 0
M  V30 22630 H 2217.29 -4.70617 -1.16825 0
M  V30 22631 N 2218.63 0.521507 -1.48721 0
M  V30 22632 C 2219.59 1.60745 -1.63382 0
M  V30 22633 C 2220.59 1.5261 -0.506637 0
M  V30 22634 O 2221.78 1.56128 -0.772629 0
M  V30 22635 C 2218.91 3.0038 -1.61198 0
M  V30 22636 H 2220.11 1.49083 -2.6022 0
M  V30 22637 H 2217.66 0.744211 -1.37445 0
M  V30 22638 H 2218.39 3.1754 -0.658686 0
M  V30 22639 H 2218.18 3.07693 -2.43038 0
M  V30 22640 H 2219.67 3.79317 -1.74667 0
M  V30 22641 N 2220.11 1.37452 0.771027 0
M  V30 22642 C 2221.05 1.33273 1.88433 0
M  V30 22643 C 2222.02 0.198165 1.64914 0
M  V30 22644 O 2223.21 0.387639 1.86821 0
M  V30 22645 C 2220.35 1.14627 3.25507 0
M  V30 22646 C 2219.46 2.3732 3.60975 0
M  V30 22647 C 2218.6 2.11541 4.87261 0
M  V30 22648 C 2217.64 3.30097 5.15463 0
M  V30 22649 N 2216.77 3.03864 6.32938 0
M  V30 22650 H 2221.61 2.28458 1.9134 0
M  V30 22651 H 2219.15 1.13525 0.935446 0
M  V30 22652 H 2221.11 1.01838 4.0458 0
M  V30 22653 H 2219.74 0.230893 3.21973 0
M  V30 22654 H 2218.79 2.60847 2.76881 0
M  V30 22655 H 2220.1 3.25736 3.77754 0
M  V30 22656 H 2219.26 1.95787 5.74241 0
M  V30 22657 H 2217.99 1.20465 4.72588 0
M  V30 22658 H 2217 3.46389 4.26959 0
M  V30 22659 H 2218.22 4.22025 5.32045 0
M  V30 22660 H 2216.17 2.15418 6.19622 0
M  V30 22661 H 2216.09 3.85823 6.50136 0
M  V30 22662 H 2217.36 2.91729 7.22852 0
M  V30 22663 N 2221.58 -0.997276 1.22033 0
M  V30 22664 C 2222.55 -2.06815 0.987945 0
M  V30 22665 C 2223.55 -1.6074 -0.0439802 0
M  V30 22666 O 2224.74 -1.73115 0.194083 0
M  V30 22667 C 2221.87 -3.3734 0.49138 0
M  V30 22668 H 2223.06 -2.28864 1.93807 0
M  V30 22669 H 2220.62 -1.1682 1.0384 0
M  V30 22670 H 2221.35 -3.20973 -0.463307 0
M  V30 22671 H 2221.14 -3.72115 1.23582 0
M  V30 22672 H 2222.63 -4.1614 0.348897 0
M  V30 22673 N 2223.06 -1.02932 -1.19343 0
M  V30 22674 C 2224.01 -0.604041 -2.2462 0
M  V30 22675 C 2225 0.363558 -1.65453 0
M  V30 22676 O 2226.21 0.232088 -1.78497 0
M  V30 22677 H 2222.59 -0.177073 -0.730855 0
M  V30 22678 H 2224.56 -1.50259 -2.57808 0
M  V30 22679 C 2223.31 0.0288516 -3.47688 0
M  V30 22680 H 2222.63 -0.70672 -3.93504 0
M  V30 22681 H 2224.07 0.289358 -4.23011 0
M  V30 22682 C 2222.53 1.27555 -3.11819 0
M  V30 22683 O 2223.06 2.36756 -3.24514 0
M  V30 22684 N 2221.26 1.16448 -2.66248 0
M  V30 22685 H 2220.81 0.275869 -2.56119 0
M  V30 22686 H 2220.77 1.99957 -2.4262 0
M  V30 22687 N 2224.54 1.35356 -0.807246 0
M  V30 22688 C 2225.49 2.29786 -0.216077 0
M  V30 22689 C 2226.46 1.52843 0.650252 0
M  V30 22690 O 2227.64 1.81279 0.595195 0
M  V30 22691 C 2224.78 3.39322 0.628834 0
M  V30 22692 C 2223.9 4.31229 -0.258003 0
M  V30 22693 C 2223.03 5.27857 0.594976 0
M  V30 22694 C 2222.07 6.11402 -0.292218 0
M  V30 22695 N 2221.21 7.00166 0.520772 0
M  V30 22696 H 2226.05 2.79753 -1.02676 0
M  V30 22697 H 2223.58 1.37683 -0.517863 0
M  V30 22698 H 2225.54 4.01496 1.13386 0
M  V30 22699 H 2224.17 2.9063 1.40477 0
M  V30 22700 H 2223.22 3.70054 -0.881141 0
M  V30 22701 H 2224.54 4.89846 -0.940845 0
M  V30 22702 H 2223.69 5.95407 1.16511 0
M  V30 22703 H 2222.43 4.69738 1.31138 0
M  V30 22704 H 2221.43 5.42799 -0.87462 0
M  V30 22705 H 2222.66 6.716 -1.0065 0
M  V30 22706 H 2220.6 6.44534 1.22114 0
M  V30 22707 H 2220.52 7.55928 -0.10401 0
M  V30 22708 H 2221.79 7.72063 1.07416 0
M  V30 22709 N 2226.02 0.560807 1.47284 0
M  V30 22710 C 2227.26 0.0464011 2.03347 0
M  V30 22711 C 2227.62 -1.29047 1.42704 0
M  V30 22712 O 2226.91 -1.82779 0.574651 0
M  V30 22713 C 2227.11 -0.100721 3.57258 0
M  V30 22714 C 2226.94 1.22034 4.32825 0
M  V30 22715 C 2225.71 1.78862 4.72585 0
M  V30 22716 C 2227.9 2.13842 4.67735 0
M  V30 22717 N 2225.89 3.04936 5.32811 0
M  V30 22718 C 2227.26 3.24497 5.28301 0
M  V30 22719 C 2229.31 2.13792 4.49664 0
M  V30 22720 C 2228.01 4.35204 5.72704 0
M  V30 22721 C 2230.04 3.23515 4.95068 0
M  V30 22722 C 2229.4 4.32889 5.55686 0
M  V30 22723 H 2225.5 0.0592303 0.779754 0
M  V30 22724 H 2228.09 0.748889 1.79721 0
M  V30 22725 H 2226.26 -0.772337 3.80644 0
M  V30 22726 H 2227.99 -0.617519 3.99961 0
M  V30 22727 H 2224.74 1.32617 4.54653 0
M  V30 22728 H 2225.17 3.69207 5.67464 0
M  V30 22729 H 2229.81 1.30514 4.02152 0
M  V30 22730 H 2227.53 5.1924 6.19205 0
M  V30 22731 H 2231.11 3.24568 4.82853 0
M  V30 22732 H 2229.99 5.1639 5.90179 0
M  V30 22733 N 2227.5 -1.54768 0.297442 0
M  V30 22734 C 2228.72 -2.04479 -0.315587 0
M  V30 22735 C 2229.14 -1.17489 -1.4779 0
M  V30 22736 O 2228.5 -0.199742 -1.81404 0
M  V30 22737 C 2228.55 -3.5309 -0.775238 0
M  V30 22738 O 2228.27 -4.36772 0.340808 0
M  V30 22739 C 2229.77 -4.18784 -1.45379 0
M  V30 22740 H 2226.99 -0.667435 -0.0690769 0
M  V30 22741 H 2229.53 -1.99797 0.436038 0
M  V30 22742 H 2227.69 -3.58143 -1.47689 0
M  V30 22743 H 2228.1 -5.24497 -0.0164113 0
M  V30 22744 H 2229.58 -5.24302 -1.7266 0
M  V30 22745 H 2230.05 -3.68303 -2.39268 0
M  V30 22746 H 2230.66 -4.17796 -0.795401 0
M  V30 22747 N 2228.97 -0.0251005 -1.5758 0
M  V30 22748 C 2230.22 0.653118 -1.91256 0
M  V30 22749 C 2230.54 1.72899 -0.901721 0
M  V30 22750 O 2229.81 1.95816 0.0573441 0
M  V30 22751 H 2228.39 0.24423 -0.705947 0
M  V30 22752 H 2231.06 -0.0719551 -1.94767 0
M  V30 22753 H 2230.15 1.10842 -2.91754 0
M  V30 22754 N 2230.45 1.55637 0.247999 0
M  V30 22755 C 2231.4 1.86616 1.3099 0
M  V30 22756 C 2232.39 0.726943 1.43542 0
M  V30 22757 O 2233.58 0.988844 1.46802 0
M  V30 22758 C 2230.71 2.16339 2.66556 0
M  V30 22759 C 2229.79 3.36586 2.58013 0
M  V30 22760 N 2230.18 4.55882 2.19102 0
M  V30 22761 C 2228.48 3.39674 2.89029 0
M  V30 22762 C 2229.18 5.38016 2.21164 0
M  V30 22763 N 2228.16 4.7705 2.60623 0
M  V30 22764 H 2231.96 2.76381 0.999535 0
M  V30 22765 H 2229.48 1.55848 0.456625 0
M  V30 22766 H 2231.47 2.36698 3.4319 0
M  V30 22767 H 2230.13 1.27872 2.98461 0
M  V30 22768 H 2231.14 4.81526 1.90664 0
M  V30 22769 H 2227.82 2.61474 3.2548 0
M  V30 22770 H 2229.21 6.43455 1.93429 0
M  V30 22771 N 2231.93 -0.513613 1.48996 0
M  V30 22772 C 2232.88 -1.63741 1.65201 0
M  V30 22773 C 2233.87 -1.61282 0.518118 0
M  V30 22774 O 2235.08 -1.65942 0.697364 0
M  V30 22775 H 2231.45 -0.542565 0.520699 0
M  V30 22776 H 2233.43 -1.47222 2.59554 0
M  V30 22777 C 2232.17 -3.01942 1.72414 0
M  V30 22778 H 2231.5 -3.04535 2.59034 0
M  V30 22779 H 2232.94 -3.80145 1.87792 0
M  V30 22780 C 2231.4 -3.33658 0.466238 0
M  V30 22781 O 2231.93 -3.99564 -0.413674 0
M  V30 22782 N 2230.13 -2.88686 0.332981 0
M  V30 22783 H 2229.68 -2.35229 1.05001 0
M  V30 22784 H 2229.64 -3.10275 -0.507611 0
M  V30 22785 N 2233.41 -1.37859 -0.763727 0
M  V30 22786 C 2234.66 -1.33707 -1.52481 0
M  V30 22787 C 2234.99 0.075927 -1.94052 0
M  V30 22788 O 2234.26 1.03498 -1.64677 0
M  V30 22789 C 2234.55 -2.28353 -2.78437 0
M  V30 22790 C 2234.4 -3.78468 -2.43069 0
M  V30 22791 C 2235.72 -2.21304 -3.80411 0
M  V30 22792 H 2232.84 -0.487014 -0.55316 0
M  V30 22793 H 2235.48 -1.68625 -0.875532 0
M  V30 22794 H 2233.63 -1.98705 -3.33839 0
M  V30 22795 H 2235.3 -4.18746 -1.93519 0
M  V30 22796 H 2233.54 -3.96644 -1.75659 0
M  V30 22797 H 2234.22 -4.40138 -3.33141 0
M  V30 22798 H 2236.69 -2.47455 -3.34523 0
M  V30 22799 H 2235.57 -2.89656 -4.66252 0
M  V30 22800 H 2235.83 -1.20856 -4.2526 0
M  V30 22801 N 2234.89 0.990791 -1.22561 0
M  V30 22802 C 2236.12 1.76609 -1.07782 0
M  V30 22803 C 2236.53 1.85109 0.371481 0
M  V30 22804 O 2235.89 1.32276 1.25735 0
M  V30 22805 C 2235.94 3.19819 -1.68518 0
M  V30 22806 O 2235.66 3.11775 -3.07779 0
M  V30 22807 C 2237.16 4.13788 -1.59042 0
M  V30 22808 H 2234.38 0.554576 -0.377738 0
M  V30 22809 H 2236.92 1.24548 -1.62197 0
M  V30 22810 H 2235.08 3.6894 -1.18161 0
M  V30 22811 H 2235.49 4.01852 -3.37069 0
M  V30 22812 H 2236.97 5.12017 -2.06259 0
M  V30 22813 H 2237.44 4.35776 -0.547349 0
M  V30 22814 H 2238.05 3.70564 -2.08715 0
M  V30 22815 N 2236.37 1.03564 1.18795 0
M  V30 22816 C 2237.61 0.737146 1.88929 0
M  V30 22817 C 2237.94 -0.732924 1.79838 0
M  V30 22818 O 2237.22 -1.53438 1.19528 0
M  V30 22819 C 2237.5 1.19751 3.39605 0
M  V30 22820 C 2237.36 2.7293 3.57532 0
M  V30 22821 C 2238.67 0.783602 4.33068 0
M  V30 22822 H 2235.79 0.269261 0.686052 0
M  V30 22823 H 2238.44 1.28676 1.39795 0
M  V30 22824 H 2236.59 0.729922 3.81581 0
M  V30 22825 H 2238.26 3.27688 3.24682 0
M  V30 22826 H 2236.5 3.12998 3.00357 0
M  V30 22827 H 2237.17 3.00199 4.63233 0
M  V30 22828 H 2239.65 1.18588 3.98843 0
M  V30 22829 H 2238.52 1.13353 5.37068 0
M  V30 22830 H 2238.78 -0.313604 4.40986 0
M  V30 22831 N 2237.84 -1.34926 0.814413 0
M  V30 22832 C 2239.09 -1.98835 0.399048 0
M  V30 22833 C 2239.42 -1.6444 -1.03311 0
M  V30 22834 O 2238.7 -0.911689 -1.71809 0
M  V30 22835 C 2238.98 -3.55206 0.591692 0
M  V30 22836 C 2238.83 -3.99372 2.06935 0
M  V30 22837 C 2240.15 -4.40094 0.0222763 0
M  V30 22838 H 2237.27 -0.7223 0.146464 0
M  V30 22839 H 2239.91 -1.59955 1.0254 0
M  V30 22840 H 2238.06 -3.88456 0.0585124 0
M  V30 22841 H 2239.74 -3.76495 2.66551 0
M  V30 22842 H 2237.98 -3.49995 2.56293 0
M  V30 22843 H 2238.65 -5.08197 2.15499 0
M  V30 22844 H 2241.13 -4.13349 0.477716 0
M  V30 22845 H 2240 -5.48582 0.186928 0
M  V30 22846 H 2240.26 -4.28904 -1.07208 0
M  V30 22847 N 2239.32 -0.56861 -1.46985 0
M  V30 22848 C 2240.25 0.210297 -2.28233 0
M  V30 22849 C 2241.27 0.868743 -1.37683 0
M  V30 22850 O 2242.46 0.740676 -1.62408 0
M  V30 22851 C 2239.56 1.31625 -3.12295 0
M  V30 22852 C 2238.73 0.752425 -4.3088 0
M  V30 22853 C 2237.79 1.7443 -4.96448 0
M  V30 22854 O 2236.81 1.28591 -5.54485 0
M  V30 22855 N 2238.02 3.07804 -4.92176 0
M  V30 22856 H 2240.78 -0.4867 -2.95722 0
M  V30 22857 H 2238.34 -0.405436 -1.56741 0
M  V30 22858 H 2240.33 1.97877 -3.53025 0
M  V30 22859 H 2238.9 1.91631 -2.46974 0
M  V30 22860 H 2238.12 -0.087182 -3.94104 0
M  V30 22861 H 2239.41 0.35527 -5.07558 0
M  V30 22862 H 2238.81 3.47681 -4.46245 0
M  V30 22863 H 2237.37 3.69583 -5.36891 0
M  V30 22864 N 2240.8 1.54608 -0.305646 0
M  V30 22865 C 2242.22 1.59529 0.0475947 0
M  V30 22866 C 2242.42 1.32255 1.52023 0
M  V30 22867 O 2241.47 1.09822 2.27366 0
M  V30 22868 C 2242.78 2.98603 -0.354524 0
M  V30 22869 C 2244.33 3.11523 -0.303677 0
M  V30 22870 C 2244.81 4.52914 -0.680687 0
M  V30 22871 N 2246.3 4.58849 -0.633401 0
M  V30 22872 C 2247.03 5.66332 -0.897531 0
M  V30 22873 N 2246.53 6.81832 -1.22787 0
M  V30 22874 N 2248.32 5.56023 -0.824284 0
M  V30 22875 H 2240.47 1.70596 -1.26533 0
M  V30 22876 H 2242.74 0.797008 -0.513305 0
M  V30 22877 H 2242.44 3.23501 -1.37986 0
M  V30 22878 H 2242.32 3.76087 0.289501 0
M  V30 22879 H 2244.7 2.86371 0.712421 0
M  V30 22880 H 2244.78 2.36184 -0.98239 0
M  V30 22881 H 2244.43 4.78796 -1.69462 0
M  V30 22882 H 2244.36 5.26596 0.020146 0
M  V30 22883 H 2246.85 3.7589 -0.389204 0
M  V30 22884 H 2247.16 7.5973 -1.41527 0
M  V30 22885 H 2245.51 6.83373 -1.26595 0
M  V30 22886 H 2248.7 4.64668 -0.56583 0
M  V30 22887 H 2248.87 6.39705 -1.0335 0
M  V30 22888 N 2242.28 0.033457 1.57564 0
M  V30 22889 C 2243.51 -0.654312 1.96281 0
M  V30 22890 C 2243.92 -1.65413 0.910167 0
M  V30 22891 O 2243.28 -1.82183 -0.107563 0
M  V30 22892 C 2243.33 -1.35687 3.35069 0
M  V30 22893 O 2243.05 -0.397115 4.36296 0
M  V30 22894 C 2244.55 -2.13606 3.88442 0
M  V30 22895 H 2241.77 -0.180121 0.646373 0
M  V30 22896 H 2244.31 0.094508 2.04282 0
M  V30 22897 H 2242.47 -2.05706 3.28274 0
M  V30 22898 H 2242.88 -0.896506 5.16781 0
M  V30 22899 H 2244.36 -2.58211 4.87884 0
M  V30 22900 H 2244.83 -2.97691 3.22919 0
M  V30 22901 H 2245.44 -1.48536 3.98519 0
M  V30 22902 N 2243.76 -1.55766 -0.239741 0
M  V30 22903 C 2244.7 -1.91748 -1.31665 0
M  V30 22904 C 2245.7 -0.797365 -1.49461 0
M  V30 22905 O 2246.9 -0.982047 -1.5085 0
M  V30 22906 H 2243.28 -0.60909 -0.441037 0
M  V30 22907 H 2245.25 -2.81644 -0.985873 0
M  V30 22908 C 2244 -2.23484 -2.66364 0
M  V30 22909 H 2243.32 -3.09179 -2.53473 0
M  V30 22910 H 2244.76 -2.52559 -3.40573 0
M  V30 22911 C 2243.22 -1.05364 -3.2 0
M  V30 22912 O 2243.75 -0.305332 -4.00538 0
M  V30 22913 N 2241.96 -0.842341 -2.78124 0
M  V30 22914 H 2241.5 -1.45257 -2.1274 0
M  V30 22915 H 2241.46 -0.0537073 -3.14354 0
M  V30 22916 N 2245.23 0.505704 -1.49266 0
M  V30 22917 C 2246.46 1.28426 -1.62217 0
M  V30 22918 C 2246.88 1.86533 -0.29173 0
M  V30 22919 O 2246.23 1.67602 0.722204 0
M  V30 22920 C 2246.28 2.41788 -2.68739 0
M  V30 22921 O 2246.01 1.86071 -3.96622 0
M  V30 22922 C 2247.51 3.33235 -2.92352 0
M  V30 22923 H 2244.73 0.389687 -0.546246 0
M  V30 22924 H 2247.27 0.607575 -1.95266 0
M  V30 22925 H 2245.43 3.05296 -2.38481 0
M  V30 22926 H 2245.84 2.60457 -4.55261 0
M  V30 22927 H 2247.31 4.09068 -3.70631 0
M  V30 22928 H 2247.79 3.89945 -2.02088 0
M  V30 22929 H 2248.4 2.75498 -3.24008 0
M  V30 22930 N 2246.71 1.38262 0.756405 0
M  V30 22931 C 2247.64 1.3115 1.87969 0
M  V30 22932 C 2248.66 0.224268 1.61248 0
M  V30 22933 O 2249.85 0.481611 1.7188 0
M  V30 22934 C 2246.95 1.00863 3.23543 0
M  V30 22935 C 2246.12 2.20439 3.7779 0
M  V30 22936 C 2245.18 1.8694 4.91874 0
M  V30 22937 O 2244.2 2.59403 5.06654 0
M  V30 22938 N 2245.41 0.822669 5.74641 0
M  V30 22939 H 2248.17 2.27944 1.94581 0
M  V30 22940 H 2245.73 1.32086 0.936211 0
M  V30 22941 H 2247.72 0.765091 3.97402 0
M  V30 22942 H 2246.29 0.128742 3.12335 0
M  V30 22943 H 2245.51 2.60875 2.9553 0
M  V30 22944 H 2246.8 3.00248 4.10766 0
M  V30 22945 H 2246.2 0.221675 5.65266 0
M  V30 22946 H 2244.76 0.639013 6.4866 0
M  V30 22947 N 2248.19 -0.984277 1.23084 0
M  V30 22948 C 2249.6 -1.53958 1.05612 0
M  V30 22949 C 2249.95 -1.92529 -0.377759 0
M  V30 22950 O 2249.08 -1.75651 -1.26395 0
M  V30 22951 C 2249.67 -2.79767 1.91092 0
M  V30 22952 C 2248.23 -3.3171 1.77891 0
M  V30 22953 C 2247.38 -2.0473 1.87032 0
M  V30 22954 H 2250.33 -0.804395 1.36803 0
M  V30 22955 H 2250.35 -3.52468 1.43342 0
M  V30 22956 H 2249.86 -2.51663 2.95445 0
M  V30 22957 H 2247.96 -3.64703 0.763059 0
M  V30 22958 H 2248.08 -4.0173 2.61055 0
M  V30 22959 H 2246.44 -2.18687 1.30568 0
M  V30 22960 H 2247.22 -1.79012 2.92933 0
M  V30 22961 N 2249.67 -1.04192 -1.18244 0
M  V30 22962 C 2250.92 -0.74605 -1.88256 0
M  V30 22963 C 2251.24 0.726299 -1.8043 0
M  V30 22964 O 2250.5 1.54589 -1.20003 0
M  V30 22965 C 2250.8 -1.15917 -3.3808 0
M  V30 22966 C 2250.46 -2.63202 -3.66109 0
M  V30 22967 C 2249.13 -3.03438 -3.73468 0
M  V30 22968 C 2251.48 -3.58426 -3.78391 0
M  V30 22969 C 2248.81 -4.37785 -3.90591 0
M  V30 22970 C 2251.16 -4.92493 -3.9703 0
M  V30 22971 C 2249.82 -5.32399 -4.02626 0
M  V30 22972 H 2249.09 -0.272999 -0.688878 0
M  V30 22973 H 2251.74 -1.30717 -1.39947 0
M  V30 22974 H 2250.04 -0.516874 -3.88376 0
M  V30 22975 H 2251.74 -0.907585 -3.90594 0
M  V30 22976 H 2248.33 -2.31037 -3.60999 0
M  V30 22977 H 2252.51 -3.28485 -3.72036 0
M  V30 22978 H 2247.77 -4.6822 -3.93167 0
M  V30 22979 H 2251.94 -5.66182 -4.05476 0
M  V30 22980 H 2249.57 -6.36508 -4.15646 0
M  V30 22981 N 2251.15 1.34492 -0.821557 0
M  V30 22982 C 2252.42 1.92768 -0.331624 0
M  V30 22983 C 2252.8 1.74983 1.18085 0
M  V30 22984 O 2252.15 1.12775 1.98731 0
M  V30 22985 C 2252.36 3.40637 -0.759458 0
M  V30 22986 C 2253.71 4.17788 -0.757507 0
M  V30 22987 O 2254.73 3.49215 -0.701951 0
M  V30 22988 O 2253.59 5.40169 -0.829456 0
M  V30 22989 H 2250.69 0.822059 -0.0902646 0
M  V30 22990 H 2253.23 1.43475 -0.906256 0
M  V30 22991 H 2252 3.47376 -1.80126 0
M  V30 22992 H 2251.63 3.97276 -0.160447 0
M  V30 22993 N 2252.62 0.576397 1.46681 0
M  V30 22994 C 2253.55 -0.148356 2.33028 0
M  V30 22995 C 2254.54 -0.88993 1.44963 0
M  V30 22996 O 2255.72 -0.866632 1.7379 0
M  V30 22997 C 2252.85 -1.16664 3.27119 0
M  V30 22998 C 2251.8 -0.540311 4.24576 0
M  V30 22999 C 2251.13 -1.66461 5.08129 0
M  V30 23000 C 2252.43 0.518422 5.19721 0
M  V30 23001 H 2254.12 0.572561 2.93874 0
M  V30 23002 H 2251.67 0.276793 1.41315 0
M  V30 23003 H 2253.62 -1.68198 3.86377 0
M  V30 23004 H 2252.35 -1.91775 2.64367 0
M  V30 23005 H 2251.01 -0.0461124 3.66571 0
M  V30 23006 H 2250.65 -2.40523 4.41766 0
M  V30 23007 H 2250.35 -1.25121 5.74124 0
M  V30 23008 H 2251.88 -2.18283 5.7025 0
M  V30 23009 H 2253.29 0.0884066 5.73232 0
M  V30 23010 H 2251.69 0.851784 5.94024 0
M  V30 23011 H 2252.76 1.40711 4.64035 0
M  V30 23012 N 2254.1 -1.54444 0.313841 0
M  V30 23013 C 2255.03 -2.21466 -0.590386 0
M  V30 23014 C 2256.05 -1.21149 -1.08751 0
M  V30 23015 O 2257.24 -1.47672 -1.00276 0
M  V30 23016 C 2254.34 -2.85772 -1.82174 0
M  V30 23017 C 2253.51 -4.12138 -1.46495 0
M  V30 23018 C 2252.57 -4.60129 -2.5528 0
M  V30 23019 O 2251.59 -5.25036 -2.19832 0
M  V30 23020 N 2252.8 -4.33532 -3.86045 0
M  V30 23021 H 2255.56 -2.99695 -0.0165506 0
M  V30 23022 H 2253.12 -1.61323 0.136607 0
M  V30 23023 H 2255.11 -3.14805 -2.54322 0
M  V30 23024 H 2253.68 -2.11307 -2.30365 0
M  V30 23025 H 2252.9 -3.89976 -0.575527 0
M  V30 23026 H 2254.19 -4.94395 -1.20213 0
M  V30 23027 H 2253.59 -3.81559 -4.17647 0
M  V30 23028 H 2252.15 -4.67243 -4.54453 0
M  V30 23029 N 2255.58 -0.0418125 -1.57545 0
M  V30 23030 C 2256.83 0.634987 -1.92603 0
M  V30 23031 C 2257.16 1.71044 -0.919657 0
M  V30 23032 O 2256.43 1.9442 0.055755 0
M  V30 23033 C 2256.72 1.23973 -3.38087 0
M  V30 23034 C 2256.57 0.172978 -4.49467 0
M  V30 23035 C 2257.89 2.1541 -3.83779 0
M  V30 23036 H 2255.01 0.229362 -0.700401 0
M  V30 23037 H 2257.65 -0.101666 -1.89728 0
M  V30 23038 H 2255.8 1.86756 -3.40667 0
M  V30 23039 H 2257.47 -0.458392 -4.59017 0
M  V30 23040 H 2255.72 -0.500072 -4.30908 0
M  V30 23041 H 2256.39 0.635957 -5.48324 0
M  V30 23042 H 2258.86 1.62599 -3.83016 0
M  V30 23043 H 2257.74 2.5467 -4.86245 0
M  V30 23044 H 2258 3.05042 -3.20003 0
M  V30 23045 N 2257.06 1.55891 0.231477 0
M  V30 23046 C 2258.29 1.8225 0.97306 0
M  V30 23047 C 2258.7 0.617359 1.78844 0
M  V30 23048 O 2258.04 -0.423468 1.78752 0
M  V30 23049 C 2258.1 3.02195 1.94727 0
M  V30 23050 C 2257.77 4.37601 1.31735 0
M  V30 23051 C 2258.76 5.14999 0.712147 0
M  V30 23052 C 2256.45 4.84315 1.33209 0
M  V30 23053 C 2258.44 6.37267 0.130083 0
M  V30 23054 C 2256.13 6.06527 0.746179 0
M  V30 23055 C 2257.13 6.82843 0.146217 0
M  V30 23056 O 2256.81 8.02746 -0.430606 0
M  V30 23057 H 2256.55 0.610046 0.29124 0
M  V30 23058 H 2259.1 2.03812 0.254879 0
M  V30 23059 H 2257.33 2.76426 2.70417 0
M  V30 23060 H 2259.02 3.15512 2.55356 0
M  V30 23061 H 2259.79 4.80021 0.693156 0
M  V30 23062 H 2255.66 4.24894 1.78846 0
M  V30 23063 H 2259.21 6.96777 -0.338832 0
M  V30 23064 H 2255.11 6.4098 0.76255 0
M  V30 23065 H 2255.87 8.17859 -0.323962 0
M  V30 23066 N 2258.54 -0.497781 1.49532 0
M  V30 23067 C 2259.49 -1.59593 1.62832 0
M  V30 23068 C 2260.47 -1.53453 0.483851 0
M  V30 23069 O 2261.66 -1.60928 0.736965 0
M  V30 23070 C 2258.79 -2.98188 1.70115 0
M  V30 23071 C 2257.88 -3.09312 2.9015 0
M  V30 23072 N 2258.27 -2.90317 4.14185 0
M  V30 23073 C 2256.57 -3.40417 2.88154 0
M  V30 23074 C 2257.27 -3.05708 4.94891 0
M  V30 23075 N 2256.24 -3.34729 4.2832 0
M  V30 23076 H 2260.05 -1.43566 2.56449 0
M  V30 23077 H 2257.56 -0.703975 1.46349 0
M  V30 23078 H 2259.56 -3.77112 1.77741 0
M  V30 23079 H 2258.22 -3.15282 0.77637 0
M  V30 23080 H 2259.23 -2.66428 4.44113 0
M  V30 23081 H 2255.9 -3.63667 2.05067 0
M  V30 23082 H 2257.29 -2.95488 6.03437 0
M  V30 23083 N 2260.01 -1.38661 -0.749062 0
M  V30 23084 C 2261.43 -1.31369 -1.32662 0
M  V30 23085 C 2261.78 0.0284495 -1.96179 0
M  V30 23086 O 2260.9 0.930536 -1.95371 0
M  V30 23087 C 2261.5 -2.37909 -2.41215 0
M  V30 23088 C 2260.06 -2.34181 -2.9468 0
M  V30 23089 C 2259.2 -2.20536 -1.68104 0
M  V30 23090 H 2262.15 -1.48953 -0.547602 0
M  V30 23091 H 2262.17 -2.03886 -3.21264 0
M  V30 23092 H 2261.69 -3.3558 -1.94956 0
M  V30 23093 H 2259.79 -1.40106 -3.45255 0
M  V30 23094 H 2259.9 -3.28496 -3.48751 0
M  V30 23095 H 2258.26 -1.67466 -1.91904 0
M  V30 23096 H 2259.05 -3.20155 -1.23918 0
M  V30 23097 N 2261.49 0.977736 -1.23605 0
M  V30 23098 C 2262.72 1.75989 -1.09738 0
M  V30 23099 C 2263.14 1.84875 0.346825 0
M  V30 23100 O 2262.5 1.31232 1.25091 0
M  V30 23101 C 2262.55 3.1636 -1.73057 0
M  V30 23102 O 2261.65 4.00229 -0.994522 0
M  V30 23103 H 2260.99 0.541357 -0.384485 0
M  V30 23104 H 2263.52 1.22717 -1.63712 0
M  V30 23105 H 2263.53 3.66928 -1.78404 0
M  V30 23106 H 2262.21 3.09208 -2.78142 0
M  V30 23107 H 2260.79 3.5873 -1.01818 0
M  V30 23108 N 2262.97 1.04818 1.1769 0
M  V30 23109 C 2264.39 0.768819 1.39862 0
M  V30 23110 C 2264.59 -0.638418 1.91119 0
M  V30 23111 O 2263.64 -1.40143 2.10039 0
M  V30 23112 C 2264.96 1.82126 2.39271 0
M  V30 23113 C 2266.5 1.84304 2.52984 0
M  V30 23114 C 2266.98 2.88561 3.55664 0
M  V30 23115 N 2268.47 2.875 3.63178 0
M  V30 23116 C 2269.21 3.64819 4.42374 0
M  V30 23117 N 2268.7 4.51912 5.25117 0
M  V30 23118 N 2270.49 3.53275 4.37211 0
M  V30 23119 H 2262.65 1.95618 0.827485 0
M  V30 23120 H 2264.91 0.846839 0.426108 0
M  V30 23121 H 2264.61 2.83105 2.08673 0
M  V30 23122 H 2264.49 1.65972 3.38723 0
M  V30 23123 H 2266.88 0.839919 2.82895 0
M  V30 23124 H 2266.96 2.04535 1.5362 0
M  V30 23125 H 2266.6 3.89057 3.26492 0
M  V30 23126 H 2266.53 2.65583 4.54723 0
M  V30 23127 H 2269.02 2.24348 3.04099 0
M  V30 23128 H 2269.33 5.07601 5.82719 0
M  V30 23129 H 2267.68 4.55975 5.24511 0
M  V30 23130 H 2270.87 2.84632 3.71621 0
M  V30 23131 H 2271.04 4.1378 4.98688 0
M  V30 23132 N 2264.45 -1.34055 0.828678 0
M  V30 23133 C 2265.38 -2.28217 0.212092 0
M  V30 23134 C 2266.39 -1.51287 -0.601336 0
M  V30 23135 O 2267.58 -1.73241 -0.430074 0
M  V30 23136 C 2264.68 -3.31146 -0.720822 0
M  V30 23137 C 2263.86 -4.3737 0.0510356 0
M  V30 23138 C 2262.92 -5.20026 -0.803674 0
M  V30 23139 O 2261.94 -5.68666 -0.246567 0
M  V30 23140 N 2263.14 -5.40302 -2.1226 0
M  V30 23141 H 2265.91 -2.81769 1.0211 0
M  V30 23142 H 2263.47 -1.4664 0.686179 0
M  V30 23143 H 2265.46 -3.83342 -1.29735 0
M  V30 23144 H 2264.03 -2.77945 -1.43056 0
M  V30 23145 H 2263.25 -3.85811 0.808899 0
M  V30 23146 H 2264.54 -5.05459 0.582154 0
M  V30 23147 H 2263.94 -5.02468 -2.59889 0
M  V30 23148 H 2262.49 -5.95594 -2.64785 0
M  V30 23149 N 2265.93 -0.584167 -1.46374 0
M  V30 23150 C 2267.34 -0.157992 -1.8603 0
M  V30 23151 C 2267.69 1.27931 -1.48755 0
M  V30 23152 O 2266.81 1.96653 -0.903133 0
M  V30 23153 C 2267.41 -0.279951 -3.37641 0
M  V30 23154 C 2265.97 0.0913639 -3.76289 0
M  V30 23155 C 2265.12 -0.615226 -2.70389 0
M  V30 23156 H 2268.07 -0.792298 -1.37508 0
M  V30 23157 H 2268.09 0.494297 -3.77276 0
M  V30 23158 H 2267.6 -1.32614 -3.6474 0
M  V30 23159 H 2265.7 1.13763 -3.54808 0
M  V30 23160 H 2265.81 -0.28597 -4.78246 0
M  V30 23161 H 2264.18 -0.055328 -2.5464 0
M  V30 23162 H 2264.96 -1.66309 -3.00327 0
M  V30 23163 N 2267.41 1.54275 -0.322027 0
M  V30 23164 C 2268.34 2.20517 0.587141 0
M  V30 23165 C 2269.32 1.18169 1.1169 0
M  V30 23166 O 2270.5 1.46901 1.18119 0
M  V30 23167 C 2267.63 2.86565 1.80549 0
M  V30 23168 C 2266.67 4.0262 1.40711 0
M  V30 23169 S 2267.51 5.33647 0.445124 0
M  V30 23170 C 2268.66 6.03188 1.67079 0
M  V30 23171 H 2268.9 2.9729 0.0244352 0
M  V30 23172 H 2266.43 1.54035 -0.106114 0
M  V30 23173 H 2268.39 3.25241 2.50457 0
M  V30 23174 H 2267.05 2.09599 2.33938 0
M  V30 23175 H 2266.24 4.47691 2.31493 0
M  V30 23176 H 2265.84 3.6561 0.787755 0
M  V30 23177 H 2268.13 6.25273 2.60845 0
M  V30 23178 H 2269.08 6.96758 1.26227 0
M  V30 23179 H 2269.49 5.33079 1.85707 0
M  V30 23180 N 2268.88 0.0501669 1.5752 0
M  V30 23181 C 2269.85 -0.909749 2.10372 0
M  V30 23182 C 2270.85 -1.24054 1.0231 0
M  V30 23183 O 2272.04 -1.17739 1.28387 0
M  V30 23184 C 2269.17 -2.21994 2.58712 0
M  V30 23185 H 2270.36 -0.451613 2.9648 0
M  V30 23186 H 2267.91 -0.19822 1.55038 0
M  V30 23187 H 2268.65 -2.72391 1.75994 0
M  V30 23188 H 2268.43 -1.99289 3.37678 0
M  V30 23189 H 2269.92 -2.90755 2.99752 0
M  V30 23190 N 2270.36 -1.56011 -0.223207 0
M  V30 23191 C 2271.77 -1.69147 -0.790338 0
M  V30 23192 C 2272.12 -0.651878 -1.85054 0
M  V30 23193 O 2271.25 0.197321 -2.15499 0
M  V30 23194 C 2271.84 -3.06659 -1.44034 0
M  V30 23195 C 2270.4 -3.21654 -1.95489 0
M  V30 23196 C 2269.55 -2.6507 -0.81446 0
M  V30 23197 H 2272.5 -1.587 0.001418 0
M  V30 23198 H 2272.52 -3.02424 -2.30911 0
M  V30 23199 H 2272.03 -3.823 -0.668476 0
M  V30 23200 H 2270.13 -2.50879 -2.75482 0
M  V30 23201 H 2270.25 -4.2885 -2.13599 0
M  V30 23202 H 2268.61 -2.23507 -1.22133 0
M  V30 23203 H 2269.39 -3.43255 -0.0552912 0
M  V30 23204 N 2271.84 0.489844 -1.49794 0
M  V30 23205 C 2272.79 1.61093 -1.67785 0
M  V30 23206 C 2273.78 1.60437 -0.543711 0
M  V30 23207 O 2274.99 1.64812 -0.723676 0
M  V30 23208 H 2271.36 0.534212 -0.529265 0
M  V30 23209 H 2273.33 1.43074 -2.61863 0
M  V30 23210 C 2272.08 2.9916 -1.77196 0
M  V30 23211 H 2271.41 3.00375 -2.63846 0
M  V30 23212 H 2272.85 3.77109 -1.93816 0
M  V30 23213 C 2271.3 3.32874 -0.519262 0
M  V30 23214 O 2271.83 4.00172 0.350054 0
M  V30 23215 N 2270.04 2.8812 -0.378867 0
M  V30 23216 H 2269.59 2.33529 -1.0873 0
M  V30 23217 H 2269.55 3.11043 0.458185 0
M  V30 23218 N 2273.32 1.39056 0.741698 0
M  V30 23219 C 2274.73 1.3207 1.31963 0
M  V30 23220 C 2275.08 -0.0180453 1.96192 0
M  V30 23221 O 2274.2 -0.920162 1.95862 0
M  V30 23222 C 2274.8 2.39185 2.3995 0
M  V30 23223 C 2273.36 2.35741 2.93434 0
M  V30 23224 C 2272.51 2.21425 1.66932 0
M  V30 23225 H 2275.46 1.49241 0.539695 0
M  V30 23226 H 2275.48 2.05587 3.20178 0
M  V30 23227 H 2274.99 3.36609 1.93174 0
M  V30 23228 H 2273.09 1.41935 3.44507 0
M  V30 23229 H 2273.2 3.30341 3.47004 0
M  V30 23230 H 2271.57 1.68481 1.91014 0
M  V30 23231 H 2272.35 3.20808 1.22218 0
M  V30 23232 N 2274.8 -0.971167 1.24121 0
M  V30 23233 C 2276.04 -1.72868 1.09069 0
M  V30 23234 C 2276.4 -1.88503 -0.36476 0
M  V30 23235 O 2277.6 -2.6115 -0.636702 0
M  V30 23236 C 2275.87 -3.08393 1.80634 0
M  V30 23237 S 2277.43 -3.99608 1.8127 0
M  V30 23238 H 2274.25 -0.59439 0.390156 0
M  V30 23239 H 2276.85 -1.15956 1.57399 0
M  V30 23240 H 2275.55 -2.94671 2.85652 0
M  V30 23241 H 2275.09 -3.70371 1.32624 0
M  V30 23242 H 2277.1 -4.88372 0.87789 0
M  V30 23243 N 2276.27 -1.05441 -1.17133 0
M  V30 23244 C 2277.18 -0.668405 -2.24877 0
M  V30 23245 C 2278.2 0.311657 -1.71186 0
M  V30 23246 O 2279.38 0.163126 -2.00738 0
M  V30 23247 C 2276.44 -0.0517089 -3.46661 0
M  V30 23248 C 2275.5 -1.08254 -4.15427 0
M  V30 23249 C 2274.74 -0.495175 -5.31398 0
M  V30 23250 O 2274.96 0.694643 -5.66154 0
M  V30 23251 O 2273.89 -1.23066 -5.89184 0
M  V30 23252 H 2277.72 -1.56642 -2.60187 0
M  V30 23253 H 2275.3 -0.826125 -1.24481 0
M  V30 23254 H 2277.19 0.290892 -4.20395 0
M  V30 23255 H 2275.86 0.819916 -3.13144 0
M  V30 23256 H 2274.77 -1.47717 -3.43701 0
M  V30 23257 H 2276.1 -1.9254 -4.52978 0
M  V30 23258 N 2277.75 1.33613 -0.835776 0
M  V30 23259 C 2278.72 2.2758 -0.27204 0
M  V30 23260 C 2279.72 1.50828 0.55746 0
M  V30 23261 O 2280.91 1.70188 0.3717 0
M  V30 23262 C 2278.04 3.35268 0.617114 0
M  V30 23263 H 2279.23 2.78952 -1.10116 0
M  V30 23264 H 2276.78 1.43964 -0.60862 0
M  V30 23265 H 2277.52 2.89131 1.46879 0
M  V30 23266 H 2277.3 3.92093 0.0236377 0
M  V30 23267 H 2278.79 4.05328 1.00493 0
M  V30 23268 N 2279.23 0.591922 1.46062 0
M  V30 23269 C 2280.18 -0.148698 2.32124 0
M  V30 23270 C 2281.17 -0.875261 1.45036 0
M  V30 23271 O 2282.38 -0.792604 1.6161 0
M  V30 23272 H 2278.75 -0.0668189 0.749026 0
M  V30 23273 H 2280.72 0.595835 2.92391 0
M  V30 23274 C 2279.47 -1.14304 3.28375 0
M  V30 23275 H 2278.8 -0.59339 3.95372 0
M  V30 23276 H 2280.24 -1.63148 3.91355 0
M  V30 23277 C 2278.7 -2.2087 2.54397 0
M  V30 23278 O 2279.23 -3.2837 2.31378 0
M  V30 23279 N 2277.43 -1.95727 2.148 0
M  V30 23280 H 2276.98 -1.08315 2.33721 0
M  V30 23281 H 2276.94 -2.67238 1.65624 0
M  V30 23282 N 2280.71 -1.54102 0.330204 0
M  V30 23283 C 2281.96 -2.00291 -0.269836 0
M  V30 23284 C 2282.28 -1.21989 -1.52131 0
M  V30 23285 O 2281.55 -0.323472 -1.93211 0
M  V30 23286 H 2280.13 -0.739907 -0.102697 0
M  V30 23287 H 2282.79 -1.89675 0.448282 0
M  V30 23288 H 2281.89 -3.0771 -0.521606 0
M  V30 23289 N 2282.19 -0.0585199 -1.57491 0
M  V30 23290 C 2283.43 0.612402 -1.92598 0
M  V30 23291 C 2283.76 1.70947 -0.938192 0
M  V30 23292 O 2283.03 1.95894 0.0157957 0
M  V30 23293 H 2281.61 0.229201 -0.710968 0
M  V30 23294 H 2284.27 -0.113252 -1.94571 0
M  V30 23295 H 2283.36 1.04628 -2.9404 0
M  V30 23296 N 2283.66 1.56128 0.21493 0
M  V30 23297 C 2284.6 1.89451 1.29 0
M  V30 23298 C 2285.61 0.783351 1.42715 0
M  V30 23299 O 2286.8 1.06168 1.43494 0
M  V30 23300 C 2283.9 2.09386 2.66478 0
M  V30 23301 C 2283.07 3.40439 2.74627 0
M  V30 23302 C 2282.13 3.49726 3.93164 0
M  V30 23303 O 2281.16 4.22707 3.81193 0
M  V30 23304 N 2282.36 2.81355 5.0776 0
M  V30 23305 H 2285.12 2.82262 1.00738 0
M  V30 23306 H 2282.68 1.56754 0.404943 0
M  V30 23307 H 2284.68 2.12908 3.44169 0
M  V30 23308 H 2283.25 1.23168 2.87312 0
M  V30 23309 H 2282.47 3.48959 1.83362 0
M  V30 23310 H 2283.75 4.26759 2.77046 0
M  V30 23311 H 2283.15 2.21853 5.20383 0
M  V30 23312 H 2281.71 2.90529 5.83469 0
M  V30 23313 N 2285.14 -0.481893 1.50052 0
M  V30 23314 C 2286.39 -1.23231 1.60183 0
M  V30 23315 C 2286.71 -1.92691 0.29921 0
M  V30 23316 O 2285.98 -1.8362 -0.682675 0
M  V30 23317 H 2284.56 -0.457849 0.59024 0
M  V30 23318 H 2287.22 -0.556848 1.86776 0
M  V30 23319 H 2286.32 -1.98602 2.40756 0
M  V30 23320 N 2286.62 -1.39448 -0.734313 0
M  V30 23321 C 2288.03 -1.32768 -1.31261 0
M  V30 23322 C 2288.38 0.00764048 -1.96199 0
M  V30 23323 O 2287.51 0.909762 -1.96347 0
M  V30 23324 C 2288.1 -2.40454 -2.38678 0
M  V30 23325 C 2286.66 -2.37293 -2.92179 0
M  V30 23326 C 2285.81 -2.22307 -1.65756 0
M  V30 23327 H 2288.76 -1.49525 -0.531773 0
M  V30 23328 H 2288.78 -2.07282 -3.19084 0
M  V30 23329 H 2288.29 -3.37629 -1.91386 0
M  V30 23330 H 2286.39 -1.4376 -3.4375 0
M  V30 23331 H 2286.51 -3.32176 -3.45247 0
M  V30 23332 H 2284.87 -1.69492 -1.90117 0
M  V30 23333 H 2285.65 -3.21451 -1.20515 0
M  V30 23334 N 2288.1 0.964571 -1.24635 0
M  V30 23335 C 2289.34 1.72287 -1.09984 0
M  V30 23336 C 2289.7 1.88694 0.354759 0
M  V30 23337 O 2290.9 2.61484 0.622844 0
M  V30 23338 C 2289.17 3.0743 -1.82267 0
M  V30 23339 S 2290.73 3.98641 -1.83386 0
M  V30 23340 H 2287.55 0.592313 -0.393302 0
M  V30 23341 H 2290.15 1.1512 -1.58011 0
M  V30 23342 H 2288.86 2.93152 -2.87211 0
M  V30 23343 H 2288.39 3.69662 -1.34586 0
M  V30 23344 H 2290.4 4.879 -0.903777 0
M  V30 23345 N 2289.58 1.0606 1.16572 0
M  V30 23346 C 2290.8 0.796596 1.91492 0
M  V30 23347 C 2291.23 -0.642837 1.76774 0
M  V30 23348 O 2290.58 -1.44766 1.09144 0
M  V30 23349 C 2290.63 1.19309 3.40291 0
M  V30 23350 O 2289.74 0.330466 4.11074 0
M  V30 23351 H 2289.08 0.291337 0.596673 0
M  V30 23352 H 2291.61 1.41578 1.47706 0
M  V30 23353 H 2291.62 1.16363 3.91055 0
M  V30 23354 H 2290.29 2.24159 3.50322 0
M  V30 23355 H 2288.87 0.42129 3.70513 0
M  V30 23356 N 2291.06 -1.33168 0.84285 0
M  V30 23357 C 2292.01 -2.26615 0.250917 0
M  V30 23358 C 2292.99 -1.49439 -0.5964 0
M  V30 23359 O 2294.18 -1.71244 -0.447716 0
M  V30 23360 C 2291.31 -3.3854 -0.56972 0
M  V30 23361 C 2290.4 -4.23112 0.289328 0
M  V30 23362 N 2290.79 -4.86894 1.36995 0
M  V30 23363 C 2289.09 -4.45933 0.0770415 0
M  V30 23364 C 2289.79 -5.49883 1.89747 0
M  V30 23365 N 2288.76 -5.30227 1.19836 0
M  V30 23366 H 2292.56 -2.73447 1.07723 0
M  V30 23367 H 2290.08 -1.4712 0.687719 0
M  V30 23368 H 2292.08 -4.04478 -1.01011 0
M  V30 23369 H 2290.74 -2.93256 -1.39396 0
M  V30 23370 H 2291.75 -4.87335 1.75286 0
M  V30 23371 H 2288.42 -4.11359 -0.713434 0
M  V30 23372 H 2289.81 -6.10657 2.80263 0
M  V30 23373 N 2292.53 -0.599659 -1.45746 0
M  V30 23374 C 2293.46 0.111265 -2.33235 0
M  V30 23375 C 2294.44 0.866755 -1.4636 0
M  V30 23376 O 2295.63 0.838873 -1.75147 0
M  V30 23377 C 2292.76 1.11445 -3.28934 0
M  V30 23378 C 2291.71 0.472697 -4.25382 0
M  V30 23379 C 2291.04 1.58356 -5.10713 0
M  V30 23380 C 2292.34 -0.60104 -5.1883 0
M  V30 23381 H 2294.03 -0.619241 -2.92926 0
M  V30 23382 H 2291.58 -0.29924 -1.40857 0
M  V30 23383 H 2293.53 1.62029 -3.89004 0
M  V30 23384 H 2292.26 1.87545 -2.67384 0
M  V30 23385 H 2290.92 -0.0122117 -3.66598 0
M  V30 23386 H 2290.56 2.33465 -4.45537 0
M  V30 23387 H 2290.26 1.15971 -5.76042 0
M  V30 23388 H 2291.79 2.09183 -5.7365 0
M  V30 23389 H 2293.2 -0.179592 -5.73019 0
M  V30 23390 H 2291.6 -0.94618 -5.92594 0
M  V30 23391 H 2292.67 -1.48076 -4.61738 0
M  V30 23392 N 2294.01 1.53925 -0.338371 0
M  V30 23393 C 2295.25 2.02738 0.260133 0
M  V30 23394 C 2295.62 1.22094 1.48179 0
M  V30 23395 O 2296.82 1.60781 2.15413 0
M  V30 23396 C 2295.09 3.528 0.571565 0
M  V30 23397 S 2296.65 4.23527 1.14762 0
M  V30 23398 H 2293.46 0.706733 0.0777786 0
M  V30 23399 H 2296.07 1.89643 -0.474932 0
M  V30 23400 H 2294.77 4.09107 -0.325464 0
M  V30 23401 H 2294.3 3.70004 1.33643 0
M  V30 23402 H 2296.32 4.32421 2.43364 0
M  V30 23403 N 2295.49 0.0668712 1.57458 0
M  V30 23404 C 2296.42 -0.899726 2.1547 0
M  V30 23405 C 2297.4 -1.31379 1.08044 0
M  V30 23406 O 2298.59 -1.38572 1.36057 0
M  V30 23407 C 2295.72 -2.16907 2.71236 0
M  V30 23408 C 2294.67 -1.89456 3.83784 0
M  V30 23409 C 2294 -3.22978 4.26133 0
M  V30 23410 C 2295.3 -1.20372 5.0824 0
M  V30 23411 H 2296.99 -0.416477 2.96489 0
M  V30 23412 H 2294.54 -0.198883 1.4262 0
M  V30 23413 H 2296.49 -2.84939 3.10463 0
M  V30 23414 H 2295.21 -2.67465 1.8743 0
M  V30 23415 H 2293.87 -1.2383 3.45053 0
M  V30 23416 H 2293.52 -3.71368 3.39256 0
M  V30 23417 H 2293.22 -3.05404 5.01998 0
M  V30 23418 H 2294.74 -3.92217 4.67973 0
M  V30 23419 H 2296.16 -1.78466 5.44814 0
M  V30 23420 H 2294.55 -1.13073 5.89351 0
M  V30 23421 H 2295.62 -0.182068 4.84558 0
M  V30 23422 N 2296.97 -1.56239 -0.206647 0
M  V30 23423 C 2298.22 -1.79139 -0.926933 0
M  V30 23424 C 2298.53 -0.638076 -1.849 0
M  V30 23425 O 2299.74 -0.751079 -2.60904 0
M  V30 23426 C 2298.19 -3.17297 -1.69854 0
M  V30 23427 C 2297.8 -4.40397 -0.821878 0
M  V30 23428 C 2299.54 -3.49514 -2.40915 0
M  V30 23429 C 2297.45 -5.69578 -1.59169 0
M  V30 23430 H 2296.38 -0.667922 -0.349852 0
M  V30 23431 H 2299.03 -1.82611 -0.180455 0
M  V30 23432 H 2297.41 -3.08043 -2.48848 0
M  V30 23433 H 2298.59 -4.60745 -0.0714209 0
M  V30 23434 H 2296.9 -4.15804 -0.222668 0
M  V30 23435 H 2299.5 -4.4326 -2.99039 0
M  V30 23436 H 2299.84 -2.72712 -3.14537 0
M  V30 23437 H 2300.38 -3.60164 -1.68899 0
M  V30 23438 H 2297.11 -6.49313 -0.898475 0
M  V30 23439 H 2296.63 -5.53267 -2.31638 0
M  V30 23440 H 2298.31 -6.10285 -2.14851 0
M  V30 23441 N 2298.45 0.473929 -1.50305 0
M  V30 23442 C 2299.39 1.59304 -1.69485 0
M  V30 23443 C 2300.39 1.59852 -0.560697 0
M  V30 23444 O 2301.59 1.64035 -0.741116 0
M  V30 23445 H 2297.97 0.528569 -0.534901 0
M  V30 23446 H 2299.94 1.40288 -2.63366 0
M  V30 23447 C 2298.69 2.97264 -1.80359 0
M  V30 23448 H 2298.01 2.9756 -2.67017 0
M  V30 23449 H 2299.45 3.75032 -1.97805 0
M  V30 23450 C 2297.91 3.32305 -0.554538 0
M  V30 23451 O 2298.44 4.00521 0.307591 0
M  V30 23452 N 2296.65 2.87702 -0.409404 0
M  V30 23453 H 2296.19 2.32362 -1.112 0
M  V30 23454 H 2296.15 3.11512 0.425168 0
M  V30 23455 N 2299.92 1.39835 0.726907 0
M  V30 23456 C 2301.15 1.40586 1.51391 0
M  V30 23457 C 2301.56 0.000773882 1.892 0
M  V30 23458 O 2300.9 -0.982924 1.55191 0
M  V30 23459 C 2300.97 2.22231 2.82584 0
M  V30 23460 C 2300.63 3.70774 2.67162 0
M  V30 23461 C 2301.63 4.63671 2.35172 0
M  V30 23462 C 2299.31 4.14456 2.8378 0
M  V30 23463 C 2301.31 5.98233 2.19992 0
M  V30 23464 C 2298.99 5.49092 2.68219 0
M  V30 23465 C 2299.99 6.40795 2.36371 0
M  V30 23466 O 2299.68 7.7295 2.20916 0
M  V30 23467 H 2299.41 0.481818 0.47416 0
M  V30 23468 H 2301.97 1.84377 0.905214 0
M  V30 23469 H 2300.2 1.73201 3.45743 0
M  V30 23470 H 2301.88 2.15061 3.44243 0
M  V30 23471 H 2302.65 4.31221 2.21976 0
M  V30 23472 H 2298.53 3.43406 3.0756 0
M  V30 23473 H 2302.07 6.69775 1.95056 0
M  V30 23474 H 2297.97 5.8113 2.80995 0
M  V30 23475 H 2298.74 7.83762 2.35924 0
M  V30 23476 N 2301.4 -0.957948 1.25144 0
M  V30 23477 C 2302.35 -2.0754 1.05023 0
M  V30 23478 C 2303.34 -1.69391 -0.0178454 0
M  V30 23479 O 2304.55 -1.79474 0.137504 0
M  V30 23480 H 2300.92 -0.679259 0.322662 0
M  V30 23481 H 2302.9 -2.21669 1.99763 0
M  V30 23482 C 2301.64 -3.40943 0.682134 0
M  V30 23483 H 2300.97 -3.70764 1.4958 0
M  V30 23484 H 2302.41 -4.2 0.581019 0
M  V30 23485 C 2300.87 -3.31303 -0.61155 0
M  V30 23486 O 2301.4 -3.66041 -1.65459 0
M  V30 23487 N 2299.6 -2.84424 -0.595932 0
M  V30 23488 H 2299.15 -2.56352 0.253237 0
M  V30 23489 H 2299.11 -2.78356 -1.46168 0
M  V30 23490 N 2302.88 -1.06677 -1.16008 0
M  V30 23491 C 2304.3 -0.790972 -1.38621 0
M  V30 23492 C 2304.5 0.607931 -1.9211 0
M  V30 23493 O 2303.55 1.36784 -2.12242 0
M  V30 23494 C 2304.86 -1.8591 -2.36343 0
M  V30 23495 C 2306.41 -1.88306 -2.5002 0
M  V30 23496 C 2306.89 -2.94183 -3.51028 0
M  V30 23497 N 2308.38 -2.93241 -3.58558 0
M  V30 23498 C 2309.11 -3.7181 -4.36514 0
M  V30 23499 N 2308.61 -4.60209 -5.17861 0
M  V30 23500 N 2310.4 -3.60186 -4.31535 0
M  V30 23501 H 2302.55 -1.9691 -0.79626 0
M  V30 23502 H 2304.82 -0.853511 -0.412582 0
M  V30 23503 H 2304.52 -2.86389 -2.04142 0
M  V30 23504 H 2304.4 -1.7134 -3.36039 0
M  V30 23505 H 2306.78 -0.884819 -2.81523 0
M  V30 23506 H 2306.86 -2.06953 -1.50346 0
M  V30 23507 H 2306.51 -3.94202 -3.20261 0
M  V30 23508 H 2306.44 -2.72784 -4.50441 0
M  V30 23509 H 2308.93 -2.29157 -3.00492 0
M  V30 23510 H 2309.24 -5.16807 -5.74569 0
M  V30 23511 H 2307.59 -4.64262 -5.1719 0
M  V30 23512 H 2310.78 -2.90508 -3.67046 0
M  V30 23513 H 2310.95 -4.21661 -4.92042 0
M  V30 23514 N 2304.36 1.32719 -0.8499 0
M  V30 23515 C 2305.59 2.01612 -0.464789 0
M  V30 23516 C 2306 1.63898 0.937163 0
M  V30 23517 O 2305.36 0.857885 1.61079 0
M  V30 23518 C 2305.41 3.56674 -0.588701 0
M  V30 23519 O 2305.13 3.93031 -1.93542 0
M  V30 23520 C 2306.63 4.4284 -0.201977 0
M  V30 23521 H 2303.85 0.645499 -0.183227 0
M  V30 23522 H 2306.39 1.69405 -1.14553 0
M  V30 23523 H 2304.55 3.87375 0.0442478 0
M  V30 23524 H 2304.96 4.87747 -1.9288 0
M  V30 23525 H 2306.44 5.50954 -0.339696 0
M  V30 23526 H 2306.91 4.30755 0.857149 0
M  V30 23527 H 2307.52 4.17519 -0.809806 0
M  V30 23528 N 2305.84 0.60738 1.45426 0
M  V30 23529 C 2307.08 0.102643 2.0254 0
M  V30 23530 C 2307.42 -1.26345 1.47481 0
M  V30 23531 O 2306.69 -1.83338 0.649422 0
M  V30 23532 C 2306.97 0.063498 3.60044 0
M  V30 23533 C 2306.83 1.46024 4.25437 0
M  V30 23534 C 2308.15 -0.624437 4.35648 0
M  V30 23535 H 2305.26 0.0387736 0.735979 0
M  V30 23536 H 2307.91 0.779312 1.73282 0
M  V30 23537 H 2306.06 -0.51274 3.85102 0
M  V30 23538 H 2307.73 2.08355 4.11565 0
M  V30 23539 H 2305.97 2.02101 3.83846 0
M  V30 23540 H 2306.64 1.3851 5.3434 0
M  V30 23541 H 2309.12 -0.13465 4.15882 0
M  V30 23542 H 2307.99 -0.620932 5.45377 0
M  V30 23543 H 2308.26 -1.69048 4.08504 0
M  V30 23544 N 2307.31 -1.53743 0.34653 0
M  V30 23545 C 2308.54 -2.05851 -0.253038 0
M  V30 23546 C 2308.96 -1.21965 -1.432 0
M  V30 23547 O 2308.32 -0.234104 -1.79782 0
M  V30 23548 C 2308.37 -3.54819 -0.64313 0
M  V30 23549 O 2307.47 -3.73765 -1.74279 0
M  V30 23550 H 2306.82 -0.662711 -0.0413466 0
M  V30 23551 H 2309.35 -1.98356 0.501609 0
M  V30 23552 H 2309.36 -3.97505 -0.919456 0
M  V30 23553 H 2308.03 -4.15323 0.219039 0
M  V30 23554 H 2306.61 -3.42981 -1.4635 0
M  V30 23555 N 2308.79 -0.0752207 -1.5742 0
M  V30 23556 C 2310.03 0.596722 -1.95496 0
M  V30 23557 C 2310.4 1.66569 -0.954915 0
M  V30 23558 O 2311.6 2.39343 -1.22345 0
M  V30 23559 C 2309.87 1.1556 -3.38202 0
M  V30 23560 S 2311.43 1.84219 -3.98257 0
M  V30 23561 H 2308.25 0.195295 -0.683653 0
M  V30 23562 H 2310.85 -0.149893 -1.94925 0
M  V30 23563 H 2309.55 0.365808 -4.08766 0
M  V30 23564 H 2309.08 1.9385 -3.42324 0
M  V30 23565 H 2311.1 3.1249 -3.8544 0
M  V30 23566 N 2310.27 1.56347 0.198358 0
M  V30 23567 C 2311.23 1.93433 1.22949 0
M  V30 23568 C 2312.23 0.815116 1.38609 0
M  V30 23569 O 2313.42 1.08258 1.36477 0
M  V30 23570 C 2310.56 2.20551 2.59942 0
M  V30 23571 H 2311.75 2.85678 0.912576 0
M  V30 23572 H 2309.3 1.49986 0.439744 0
M  V30 23573 H 2310.04 1.30932 2.96694 0
M  V30 23574 H 2309.82 3.02107 2.49948 0
M  V30 23575 H 2311.31 2.50259 3.34306 0
M  V30 23576 N 2311.75 -0.465951 1.50554 0
M  V30 23577 C 2312.99 -1.22745 1.63442 0
M  V30 23578 C 2313.35 -1.89145 0.329855 0
M  V30 23579 O 2314.55 -2.66714 0.334208 0
M  V30 23580 C 2312.82 -2.23935 2.78546 0
M  V30 23581 S 2314.38 -3.08955 3.11597 0
M  V30 23582 H 2311.2 -0.416661 0.57612 0
M  V30 23583 H 2313.8 -0.523608 1.88358 0
M  V30 23584 H 2312.51 -1.73743 3.71808 0
M  V30 23585 H 2312.04 -2.9894 2.55731 0
M  V30 23586 H 2314.05 -4.25172 2.55819 0
M  V30 23587 N 2313.23 -1.40218 -0.719481 0
M  V30 23588 C 2314.64 -1.34153 -1.29846 0
M  V30 23589 C 2314.99 -0.0131694 -1.96196 0
M  V30 23590 O 2314.11 0.888885 -1.97301 0
M  V30 23591 C 2314.71 -2.42972 -2.36114 0
M  V30 23592 C 2313.27 -2.40379 -2.89646 0
M  V30 23593 C 2312.41 -2.24052 -1.63389 0
M  V30 23594 H 2315.37 -1.50081 -0.515884 0
M  V30 23595 H 2315.39 -2.10655 -3.16867 0
M  V30 23596 H 2314.9 -3.39639 -1.87794 0
M  V30 23597 H 2313 -1.47398 -3.42206 0
M  V30 23598 H 2313.11 -3.3582 -3.41705 0
M  V30 23599 H 2311.48 -1.71499 -1.88309 0
M  V30 23600 H 2312.26 -3.22712 -1.17099 0
M  V30 23601 N 2314.7 0.951297 -1.25651 0
M  V30 23602 C 2315.65 2.03405 -1.03008 0
M  V30 23603 C 2316.64 1.60864 0.0341587 0
M  V30 23604 O 2317.83 1.76066 -0.18158 0
M  V30 23605 C 2314.96 3.37007 -0.654314 0
M  V30 23606 C 2314.05 3.86062 -1.75548 0
M  V30 23607 N 2314.44 4.07874 -2.9912 0
M  V30 23608 C 2312.73 4.14881 -1.63676 0
M  V30 23609 C 2313.44 4.48349 -3.70618 0
M  V30 23610 N 2312.41 4.54472 -2.98255 0
M  V30 23611 H 2316.21 2.18267 -1.96817 0
M  V30 23612 H 2313.73 1.13637 -1.16019 0
M  V30 23613 H 2315.72 4.14205 -0.473279 0
M  V30 23614 H 2314.38 3.23521 0.276411 0
M  V30 23615 H 2315.4 3.94852 -3.35131 0
M  V30 23616 H 2312.07 4.10239 -0.775234 0
M  V30 23617 H 2313.46 4.73501 -4.76704 0
M  V30 23618 N 2316.18 1.07291 1.1544 0
M  V30 23619 C 2317.11 0.714146 2.22311 0
M  V30 23620 C 2318.09 -0.298126 1.67467 0
M  V30 23621 O 2319.28 -0.171014 1.93446 0
M  V30 23622 C 2316.41 0.110509 3.47124 0
M  V30 23623 C 2315.36 1.04987 4.14924 0
M  V30 23624 C 2314.69 0.309018 5.33806 0
M  V30 23625 C 2315.99 2.38322 4.64758 0
M  V30 23626 H 2317.68 1.60765 2.52577 0
M  V30 23627 H 2315.23 0.774431 1.21402 0
M  V30 23628 H 2317.18 -0.152408 4.21124 0
M  V30 23629 H 2315.91 -0.818065 3.16189 0
M  V30 23630 H 2314.56 1.2977 3.42864 0
M  V30 23631 H 2314.21 -0.622997 4.99127 0
M  V30 23632 H 2313.91 0.935138 5.80111 0
M  V30 23633 H 2315.44 0.0538844 6.10576 0
M  V30 23634 H 2316.85 2.17869 5.30289 0
M  V30 23635 H 2315.25 2.96523 5.21722 0
M  V30 23636 H 2316.32 3.00669 3.80429 0
M  V30 23637 N 2317.66 -1.32267 0.856927 0
M  V30 23638 C 2318.59 -2.26849 0.247976 0
M  V30 23639 C 2319.57 -1.50506 -0.615356 0
M  V30 23640 O 2320.76 -1.79623 -0.571657 0
M  V30 23641 C 2317.88 -3.32404 -0.650035 0
M  V30 23642 C 2316.93 -4.26269 0.140213 0
M  V30 23643 S 2317.76 -5.13766 1.51013 0
M  V30 23644 C 2318.92 -6.22843 0.61789 0
M  V30 23645 H 2319.15 -2.7815 1.04976 0
M  V30 23646 H 2316.68 -1.39833 0.654689 0
M  V30 23647 H 2318.64 -3.93696 -1.1625 0
M  V30 23648 H 2317.3 -2.79882 -1.42565 0
M  V30 23649 H 2316.5 -5.01057 -0.543857 0
M  V30 23650 H 2316.1 -3.69407 0.584332 0
M  V30 23651 H 2318.39 -6.77269 -0.176934 0
M  V30 23652 H 2319.33 -6.95373 1.33648 0
M  V30 23653 H 2319.74 -5.64176 0.191223 0
M  V30 23654 N 2319.14 -0.615084 -1.45102 0
M  V30 23655 C 2320.09 0.0993573 -2.30586 0
M  V30 23656 C 2321.06 0.852644 -1.42545 0
M  V30 23657 O 2322.24 0.836887 -1.71467 0
M  V30 23658 C 2319.38 1.08577 -3.27574 0
M  V30 23659 C 2318.49 0.33258 -4.30718 0
M  V30 23660 C 2317.63 1.30938 -5.14809 0
M  V30 23661 C 2316.67 0.544431 -6.09674 0
M  V30 23662 N 2315.8 1.47089 -6.8652 0
M  V30 23663 H 2320.64 -0.635594 -2.91143 0
M  V30 23664 H 2318.18 -0.325231 -1.4346 0
M  V30 23665 H 2320.14 1.67089 -3.82279 0
M  V30 23666 H 2318.77 1.78805 -2.68754 0
M  V30 23667 H 2317.82 -0.368173 -3.78614 0
M  V30 23668 H 2319.13 -0.263929 -4.98101 0
M  V30 23669 H 2318.29 1.96633 -5.73952 0
M  V30 23670 H 2317.03 1.93982 -4.47462 0
M  V30 23671 H 2316.03 -0.1261 -5.49655 0
M  V30 23672 H 2317.26 -0.0810663 -6.79052 0
M  V30 23673 H 2315.2 2.08884 -6.21855 0
M  V30 23674 H 2315.12 0.928005 -7.50283 0
M  V30 23675 H 2316.39 2.11718 -7.50197 0
M  V30 23676 N 2320.62 1.53557 -0.354678 0
M  V30 23677 C 2321.55 2.28321 0.489051 0
M  V30 23678 C 2322.53 1.30318 1.09322 0
M  V30 23679 O 2323.71 1.59175 1.11252 0
M  V30 23680 C 2320.84 3.06433 1.6345 0
M  V30 23681 C 2319.8 4.12033 1.15813 0
M  V30 23682 C 2319.12 4.78164 2.39297 0
M  V30 23683 C 2320.42 5.21698 0.250639 0
M  V30 23684 H 2322.12 2.99097 -0.134666 0
M  V30 23685 H 2319.66 1.43848 -0.0662079 0
M  V30 23686 H 2321.62 3.57479 2.2313 0
M  V30 23687 H 2320.34 2.33329 2.28529 0
M  V30 23688 H 2319 3.61917 0.584083 0
M  V30 23689 H 2318.65 4.01643 3.02807 0
M  V30 23690 H 2318.35 5.49517 2.08099 0
M  V30 23691 H 2319.87 5.31999 2.99682 0
M  V30 23692 H 2321.29 5.68312 0.754595 0
M  V30 23693 H 2319.68 6.00092 0.0300413 0
M  V30 23694 H 2320.75 4.79671 -0.710209 0
M  V30 23695 N 2322.1 0.083568 1.57378 0
M  V30 23696 C 2323.05 -0.889868 2.09917 0
M  V30 23697 C 2324.03 -1.25127 1.01154 0
M  V30 23698 O 2325.22 -1.22828 1.27445 0
M  V30 23699 C 2322.35 -2.15317 2.67383 0
M  V30 23700 C 2321.44 -1.81772 3.83171 0
M  V30 23701 N 2321.83 -1.18731 4.91667 0
M  V30 23702 C 2320.13 -2.11452 3.92688 0
M  V30 23703 C 2320.83 -1.0354 5.72411 0
M  V30 23704 N 2319.8 -1.54896 5.21064 0
M  V30 23705 H 2323.6 -0.398327 2.91188 0
M  V30 23706 H 2321.12 -0.119985 1.61956 0
M  V30 23707 H 2323.12 -2.85985 3.03345 0
M  V30 23708 H 2321.78 -2.65048 1.87563 0
M  V30 23709 H 2322.79 -0.855514 5.10785 0
M  V30 23710 H 2319.46 -2.63478 3.23861 0
M  V30 23711 H 2320.85 -0.543307 6.697 0
M  V30 23712 N 2323.57 -1.5645 -0.190064 0
M  V30 23713 C 2324.52 -1.94944 -1.23553 0
M  V30 23714 C 2325.49 -0.810722 -1.44971 0
M  V30 23715 O 2326.68 -1.0693 -1.58021 0
M  V30 23716 C 2323.82 -2.29854 -2.57412 0
M  V30 23717 C 2322.93 -3.56815 -2.43531 0
M  V30 23718 C 2322.06 -3.81024 -3.70128 0
M  V30 23719 C 2321.1 -5.01393 -3.511 0
M  V30 23720 N 2320.24 -5.2183 -4.69721 0
M  V30 23721 H 2325.08 -2.84076 -0.900254 0
M  V30 23722 H 2322.62 -1.40578 -0.433155 0
M  V30 23723 H 2324.57 -2.48112 -3.35404 0
M  V30 23724 H 2323.2 -1.43857 -2.88973 0
M  V30 23725 H 2322.26 -3.46576 -1.5681 0
M  V30 23726 H 2323.57 -4.44964 -2.25407 0
M  V30 23727 H 2322.72 -3.99548 -4.56559 0
M  V30 23728 H 2321.46 -2.91214 -3.9121 0
M  V30 23729 H 2320.47 -4.82786 -2.63054 0
M  V30 23730 H 2321.69 -5.92716 -3.31458 0
M  V30 23731 H 2319.64 -4.34969 -4.91058 0
M  V30 23732 H 2319.55 -6.04168 -4.54442 0
M  V30 23733 H 2320.82 -5.44817 -5.57489 0
M  V30 23734 N 2325.05 0.45796 -1.50799 0
M  V30 23735 C 2326.33 1.21899 -1.5297 0
M  V30 23736 C 2326.71 2.09209 -0.281943 0
M  V30 23737 O 2326.06 2.16389 0.734038 0
M  V30 23738 C 2326.27 2.0387 -2.83263 0
M  V30 23739 C 2327.61 2.61615 -3.34429 0
M  V30 23740 O 2328.64 2.14101 -2.84674 0
M  V30 23741 O 2327.5 3.4822 -4.21195 0
M  V30 23742 H 2324.59 0.553862 -0.614139 0
M  V30 23743 H 2327.14 0.46871 -1.63099 0
M  V30 23744 H 2325.91 1.39615 -3.65545 0
M  V30 23745 H 2325.53 2.86006 -2.762 0
M  V30 23746 N 2326.53 1.40598 0.712035 0
M  V30 23747 C 2327.48 1.41324 1.84744 0
M  V30 23748 C 2328.47 0.293297 1.66842 0
M  V30 23749 O 2329.68 0.464511 1.73903 0
M  V30 23750 H 2326.05 0.44183 0.608515 0
M  V30 23751 H 2328.02 2.37048 1.81247 0
M  V30 23752 C 2326.77 1.2962 3.22636 0
M  V30 23753 H 2326.1 2.15077 3.37019 0
M  V30 23754 H 2327.54 1.34187 4.02206 0
M  V30 23755 C 2325.99 0.00679043 3.36899 0
M  V30 23756 O 2326.52 -0.954791 3.90188 0
M  V30 23757 N 2324.73 -0.0638816 2.9053 0
M  V30 23758 H 2324.28 0.719354 2.47352 0
M  V30 23759 H 2324.24 -0.926065 3.00452 0
M  V30 23760 N 2328.01 -0.94462 1.26153 0
M  V30 23761 C 2329.24 -1.72487 1.14262 0
M  V30 23762 C 2329.65 -1.86361 -0.302523 0
M  V30 23763 O 2329.01 -1.36852 -1.20739 0
M  V30 23764 C 2329.06 -3.13344 1.80272 0
M  V30 23765 O 2328.78 -3.00137 3.19138 0
M  V30 23766 C 2330.28 -4.076 1.7429 0
M  V30 23767 H 2327.5 -0.540174 0.398061 0
M  V30 23768 H 2330.04 -1.18443 1.66708 0
M  V30 23769 H 2328.2 -3.643 1.31772 0
M  V30 23770 H 2328.61 -3.89065 3.51751 0
M  V30 23771 H 2330.09 -5.04009 2.2512 0
M  V30 23772 H 2330.56 -4.33444 0.708708 0
M  V30 23773 H 2331.17 -3.62563 2.22325 0
M  V30 23774 N 2329.49 -1.07901 -1.1487 0
M  V30 23775 C 2330.71 -0.826863 -1.89659 0
M  V30 23776 C 2331.13 0.620488 -1.78313 0
M  V30 23777 O 2330.49 1.42602 -1.1389 0
M  V30 23778 C 2330.54 -1.23322 -3.39815 0
M  V30 23779 O 2330.26 -2.62379 -3.50841 0
M  V30 23780 C 2331.76 -1.01118 -4.31613 0
M  V30 23781 H 2328.98 -0.298567 -0.600915 0
M  V30 23782 H 2331.52 -1.43694 -1.45507 0
M  V30 23783 H 2329.68 -0.667353 -3.81609 0
M  V30 23784 H 2330.09 -2.79108 -4.44071 0
M  V30 23785 H 2331.57 -1.34495 -5.35364 0
M  V30 23786 H 2332.04 0.0521396 -4.39169 0
M  V30 23787 H 2332.65 -1.56222 -3.95569 0
M  V30 23788 N 2330.96 1.31811 -0.863929 0
M  V30 23789 C 2332.2 1.98725 -0.478285 0
M  V30 23790 C 2332.57 1.66829 0.950368 0
M  V30 23791 O 2333.77 2.26908 1.44105 0
M  V30 23792 C 2332.04 3.50048 -0.721195 0
M  V30 23793 S 2333.6 4.36643 -0.434509 0
M  V30 23794 H 2330.42 0.688155 -0.178785 0
M  V30 23795 H 2333.02 1.60332 -1.11865 0
M  V30 23796 H 2331.72 3.70752 -1.75987 0
M  V30 23797 H 2331.25 3.93342 -0.0676007 0
M  V30 23798 H 2333.27 4.90716 0.7357 0
M  V30 23799 N 2332.44 0.62277 1.44773 0
M  V30 23800 C 2333.67 0.130569 2.06187 0
M  V30 23801 C 2334.08 -1.19666 1.46549 0
M  V30 23802 O 2333.42 -1.74315 0.579667 0
M  V30 23803 C 2333.48 -0.0674351 3.59437 0
M  V30 23804 C 2333.15 1.18034 4.41494 0
M  V30 23805 C 2334.15 2.10209 4.75508 0
M  V30 23806 C 2331.83 1.41341 4.82004 0
M  V30 23807 C 2333.82 3.24008 5.48906 0
M  V30 23808 C 2331.51 2.55439 5.55152 0
M  V30 23809 C 2332.51 3.46599 5.88522 0
M  V30 23810 O 2332.2 4.58708 6.60183 0
M  V30 23811 H 2331.93 0.073028 0.672044 0
M  V30 23812 H 2334.48 0.854835 1.86767 0
M  V30 23813 H 2332.71 -0.846759 3.77315 0
M  V30 23814 H 2334.4 -0.513139 4.02643 0
M  V30 23815 H 2335.17 1.93433 4.44757 0
M  V30 23816 H 2331.05 0.712789 4.55456 0
M  V30 23817 H 2334.59 3.95184 5.7487 0
M  V30 23818 H 2330.49 2.72161 5.85319 0
M  V30 23819 H 2331.26 4.57583 6.78646 0
M  V30 23820 N 2333.92 -1.53367 0.362817 0
M  V30 23821 C 2334.83 -2.29362 -0.492953 0
M  V30 23822 C 2335.85 -1.35221 -1.09505 0
M  V30 23823 O 2337.02 -1.68275 -1.10659 0
M  V30 23824 C 2334.09 -3.06603 -1.6185 0
M  V30 23825 C 2333.15 -4.16407 -1.04422 0
M  V30 23826 C 2332.38 -4.89955 -2.11613 0
M  V30 23827 O 2332.6 -4.63339 -3.32676 0
M  V30 23828 O 2331.54 -5.75951 -1.74825 0
M  V30 23829 H 2335.36 -3.03441 0.125384 0
M  V30 23830 H 2332.95 -1.48857 0.12728 0
M  V30 23831 H 2334.83 -3.54845 -2.27295 0
M  V30 23832 H 2333.51 -2.35363 -2.22229 0
M  V30 23833 H 2332.41 -3.72424 -0.353754 0
M  V30 23834 H 2333.75 -4.89804 -0.485027 0
M  V30 23835 N 2335.4 -0.091913 -1.57332 0
M  V30 23836 C 2336.65 0.572543 -1.94237 0
M  V30 23837 C 2336.97 1.68388 -0.973428 0
M  V30 23838 O 2336.23 1.95699 0.00753472 0
M  V30 23839 C 2336.53 1.17045 -3.37691 0
M  V30 23840 C 2336.19 0.183224 -4.50528 0
M  V30 23841 C 2334.86 -0.0883122 -4.81119 0
M  V30 23842 C 2337.21 -0.491041 -5.18882 0
M  V30 23843 C 2334.54 -1.04086 -5.77393 0
M  V30 23844 C 2336.89 -1.43204 -6.16178 0
M  V30 23845 C 2335.55 -1.71184 -6.45176 0
M  V30 23846 H 2334.82 0.209508 -0.710765 0
M  V30 23847 H 2337.47 -0.167069 -1.9077 0
M  V30 23848 H 2335.77 1.98624 -3.37721 0
M  V30 23849 H 2337.47 1.69221 -3.63546 0
M  V30 23850 H 2334.06 0.405049 -4.26682 0
M  V30 23851 H 2338.24 -0.294399 -4.95426 0
M  V30 23852 H 2333.5 -1.26468 -5.98177 0
M  V30 23853 H 2337.67 -1.96034 -6.68239 0
M  V30 23854 H 2335.3 -2.45153 -7.19586 0
M  V30 23855 N 2336.88 1.56548 0.181765 0
M  V30 23856 C 2337.82 1.95597 1.22518 0
M  V30 23857 C 2338.79 0.818398 1.44539 0
M  V30 23858 O 2339.98 1.07766 1.57452 0
M  V30 23859 C 2337.12 2.31216 2.56189 0
M  V30 23860 C 2336.23 3.58101 2.41635 0
M  V30 23861 C 2335.37 3.82981 3.68102 0
M  V30 23862 C 2334.41 5.03248 3.48436 0
M  V30 23863 N 2333.54 5.24314 4.66947 0
M  V30 23864 H 2338.38 2.8455 0.885176 0
M  V30 23865 H 2335.92 1.40806 0.425694 0
M  V30 23866 H 2337.88 2.49888 3.34084 0
M  V30 23867 H 2336.51 1.45387 2.88206 0
M  V30 23868 H 2335.56 3.47403 1.5497 0
M  V30 23869 H 2336.87 4.46153 2.23045 0
M  V30 23870 H 2336.03 4.01964 4.54434 0
M  V30 23871 H 2334.76 2.93285 3.8966 0
M  V30 23872 H 2333.77 4.84175 2.6049 0
M  V30 23873 H 2334.99 5.94466 3.2831 0
M  V30 23874 H 2332.94 4.37567 4.88744 0
M  V30 23875 H 2332.86 6.06569 4.51231 0
M  V30 23876 H 2334.13 5.47766 5.54592 0
M  V30 23877 N 2338.35 -0.449957 1.5104 0
M  V30 23878 C 2339.3 -1.5452 1.71441 0
M  V30 23879 C 2340.27 -1.56521 0.555899 0
M  V30 23880 O 2341.46 -1.73727 0.788902 0
M  V30 23881 C 2338.6 -2.9234 1.83389 0
M  V30 23882 C 2337.71 -2.99965 3.10878 0
M  V30 23883 C 2336.84 -4.28829 3.13495 0
M  V30 23884 C 2335.88 -4.30274 4.35351 0
M  V30 23885 N 2335.02 -5.50643 4.35588 0
M  V30 23886 H 2339.86 -1.36428 2.64936 0
M  V30 23887 H 2337.4 -0.662959 1.31314 0
M  V30 23888 H 2339.36 -3.7229 1.88298 0
M  V30 23889 H 2337.99 -3.09018 0.93314 0
M  V30 23890 H 2337.04 -2.12755 3.1534 0
M  V30 23891 H 2338.35 -2.96893 4.00819 0
M  V30 23892 H 2337.5 -5.17143 3.1725 0
M  V30 23893 H 2336.24 -4.34539 2.21421 0
M  V30 23894 H 2335.25 -3.40354 4.31786 0
M  V30 23895 H 2336.47 -4.26239 5.28675 0
M  V30 23896 H 2334.42 -5.57098 3.46378 0
M  V30 23897 H 2334.34 -5.494 5.19323 0
M  V30 23898 H 2335.6 -6.41024 4.43518 0
M  V30 23899 N 2339.83 -1.40974 -0.704569 0
M  V30 23900 C 2341.08 -1.39847 -1.46455 0
M  V30 23901 C 2341.41 -0.00451012 -1.94499 0
M  V30 23902 O 2340.66 0.982027 -1.69277 0
M  V30 23903 C 2340.96 -2.34404 -2.69796 0
M  V30 23904 C 2340.63 -3.81433 -2.40458 0
M  V30 23905 C 2339.29 -4.21488 -2.32167 0
M  V30 23906 C 2341.64 -4.743 -2.16077 0
M  V30 23907 C 2338.97 -5.5243 -1.97579 0
M  V30 23908 C 2341.32 -6.05552 -1.83 0
M  V30 23909 C 2339.99 -6.44638 -1.73199 0
M  V30 23910 H 2339.26 -0.511735 -0.535918 0
M  V30 23911 H 2341.9 -1.73708 -0.806093 0
M  V30 23912 H 2340.21 -1.93765 -3.40532 0
M  V30 23913 H 2341.9 -2.30809 -3.27915 0
M  V30 23914 H 2338.49 -3.49703 -2.47801 0
M  V30 23915 H 2342.68 -4.44164 -2.21433 0
M  V30 23916 H 2337.93 -5.81605 -1.88537 0
M  V30 23917 H 2342.11 -6.77019 -1.63152 0
M  V30 23918 H 2339.74 -7.46016 -1.46166 0
M  V30 23919 N 2341.31 0.937917 -1.26653 0
M  V30 23920 C 2342.24 2.05431 -1.10997 0
M  V30 23921 C 2343.22 1.70094 -0.014246 0
M  V30 23922 O 2344.41 1.93299 -0.186871 0
M  V30 23923 C 2341.54 3.39202 -0.745621 0
M  V30 23924 C 2340.49 3.88612 -1.79344 0
M  V30 23925 C 2339.82 5.19071 -1.28333 0
M  V30 23926 C 2341.12 4.13133 -3.1956 0
M  V30 23927 H 2342.81 2.18787 -2.04384 0
M  V30 23928 H 2340.36 1.0513 -0.98406 0
M  V30 23929 H 2342.31 4.1677 -0.622961 0
M  V30 23930 H 2341.03 3.25831 0.223953 0
M  V30 23931 H 2339.69 3.13228 -1.90483 0
M  V30 23932 H 2339.34 5.02084 -0.303503 0
M  V30 23933 H 2339.04 5.531 -1.98379 0
M  V30 23934 H 2340.56 5.99219 -1.1734 0
M  V30 23935 H 2341.98 4.81304 -3.1148 0
M  V30 23936 H 2340.38 4.5845 -3.87226 0
M  V30 23937 H 2341.45 3.18794 -3.65374 0
M  V30 23938 N 2342.79 1.08509 1.14296 0
M  V30 23939 C 2343.72 0.737685 2.21541 0
M  V30 23940 C 2344.7 -0.280347 1.67774 0
M  V30 23941 O 2345.88 -0.150487 1.93616 0
M  V30 23942 C 2343.01 0.14732 3.46987 0
M  V30 23943 C 2341.97 1.09382 4.13787 0
M  V30 23944 C 2341.29 0.365618 5.33449 0
M  V30 23945 C 2342.59 2.43238 4.62204 0
M  V30 23946 H 2344.29 1.63435 2.50858 0
M  V30 23947 H 2341.83 0.787264 1.20574 0
M  V30 23948 H 2343.79 -0.107734 4.21262 0
M  V30 23949 H 2342.51 -0.784483 3.17039 0
M  V30 23950 H 2341.17 1.33399 3.41468 0
M  V30 23951 H 2340.82 -0.570022 4.9976 0
M  V30 23952 H 2340.52 0.996614 5.79087 0
M  V30 23953 H 2342.04 0.118641 6.10485 0
M  V30 23954 H 2343.46 2.23481 5.27948 0
M  V30 23955 H 2341.85 3.0204 5.18548 0
M  V30 23956 H 2342.92 3.04687 3.77218 0
M  V30 23957 N 2344.27 -1.31351 0.870907 0
M  V30 23958 C 2345.5 -2.00556 0.496085 0
M  V30 23959 C 2345.9 -1.65536 -0.916212 0
M  V30 23960 O 2345.25 -0.881163 -1.61187 0
M  V30 23961 C 2345.31 -3.5488 0.57448 0
M  V30 23962 C 2344.97 -4.13377 1.94856 0
M  V30 23963 C 2345.97 -4.30412 2.91618 0
M  V30 23964 C 2343.66 -4.49082 2.25013 0
M  V30 23965 C 2345.65 -4.82345 4.1668 0
M  V30 23966 C 2343.34 -5.00716 3.50324 0
M  V30 23967 C 2344.33 -5.17298 4.45973 0
M  V30 23968 O 2344.02 -5.67823 5.69062 0
M  V30 23969 H 2343.75 -0.648256 0.191676 0
M  V30 23970 H 2346.31 -1.68533 1.17412 0
M  V30 23971 H 2344.54 -3.86367 -0.160482 0
M  V30 23972 H 2346.23 -4.05341 0.21295 0
M  V30 23973 H 2346.99 -4.03144 2.69629 0
M  V30 23974 H 2342.87 -4.35451 1.5134 0
M  V30 23975 H 2346.42 -4.95203 4.91345 0
M  V30 23976 H 2342.31 -5.27418 3.72157 0
M  V30 23977 H 2343.08 -5.86191 5.71247 0
M  V30 23978 N 2345.74 -0.630439 -1.44441 0
M  V30 23979 C 2346.71 0.065212 -2.29107 0
M  V30 23980 C 2347.71 0.77297 -1.41003 0
M  V30 23981 O 2348.9 0.617664 -1.62882 0
M  V30 23982 C 2346.03 1.10291 -3.22566 0
M  V30 23983 H 2347.22 -0.679453 -2.92102 0
M  V30 23984 H 2344.78 -0.390544 -1.51342 0
M  V30 23985 H 2345.51 1.87758 -2.64419 0
M  V30 23986 H 2345.3 0.599342 -3.87492 0
M  V30 23987 H 2346.79 1.58943 -3.8617 0
M  V30 23988 N 2347.22 1.53172 -0.370945 0
M  V30 23989 C 2348.64 1.59587 -0.0201098 0
M  V30 23990 C 2348.84 1.38583 1.46277 0
M  V30 23991 O 2347.89 1.19367 2.22504 0
M  V30 23992 C 2349.21 2.9683 -0.480852 0
M  V30 23993 C 2350.76 3.09955 -0.435532 0
M  V30 23994 C 2351.23 4.49619 -0.872171 0
M  V30 23995 N 2352.72 4.55749 -0.827444 0
M  V30 23996 C 2353.46 5.62016 -1.13692 0
M  V30 23997 N 2352.95 6.76011 -1.51595 0
M  V30 23998 N 2354.75 5.52027 -1.05937 0
M  V30 23999 H 2346.9 1.65076 -1.33655 0
M  V30 24000 H 2349.16 0.77452 -0.546647 0
M  V30 24001 H 2348.87 3.17357 -1.51583 0
M  V30 24002 H 2348.74 3.76977 0.129729 0
M  V30 24003 H 2351.13 2.89135 0.59032 0
M  V30 24004 H 2351.21 2.31805 -1.08168 0
M  V30 24005 H 2350.85 4.71177 -1.89616 0
M  V30 24006 H 2350.78 5.26208 -0.20322 0
M  V30 24007 H 2353.27 3.73901 -0.548282 0
M  V30 24008 H 2353.59 7.53044 -1.73622 0
M  V30 24009 H 2351.93 6.77389 -1.55466 0
M  V30 24010 H 2355.12 4.6185 -0.762402 0
M  V30 24011 H 2355.29 6.34746 -1.30389 0
M  V30 24012 N 2348.7 0.100255 1.57281 0
M  V30 24013 C 2349.63 -0.886935 2.11344 0
M  V30 24014 C 2350.65 -1.24259 1.05184 0
M  V30 24015 O 2351.83 -1.1948 1.32615 0
M  V30 24016 C 2348.93 -2.19449 2.58254 0
M  V30 24017 C 2348.11 -2.01339 3.88306 0
M  V30 24018 C 2347.17 -3.15654 4.2101 0
M  V30 24019 O 2346.19 -2.8939 4.90145 0
M  V30 24020 N 2347.39 -4.41568 3.76826 0
M  V30 24021 H 2350.16 -0.425163 2.96669 0
M  V30 24022 H 2347.72 -0.084705 1.61678 0
M  V30 24023 H 2349.71 -2.94883 2.77175 0
M  V30 24024 H 2348.28 -2.57034 1.77912 0
M  V30 24025 H 2347.5 -1.10205 3.78482 0
M  V30 24026 H 2348.79 -1.86522 4.73378 0
M  V30 24027 H 2348.19 -4.65787 3.21029 0
M  V30 24028 H 2346.75 -5.13935 4.00892 0
M  V30 24029 N 2350.18 -1.56643 -0.17346 0
M  V30 24030 C 2351.11 -1.91344 -1.24349 0
M  V30 24031 C 2352.09 -0.77599 -1.42889 0
M  V30 24032 O 2353.27 -1.02909 -1.5793 0
M  V30 24033 C 2350.4 -2.1625 -2.60679 0
M  V30 24034 C 2349.45 -3.38939 -2.58888 0
M  V30 24035 S 2350.28 -4.93377 -2.08182 0
M  V30 24036 C 2351.44 -5.21375 -3.46293 0
M  V30 24037 H 2351.67 -2.81804 -0.947296 0
M  V30 24038 H 2349.2 -1.49703 -0.377931 0
M  V30 24039 H 2351.16 -2.3128 -3.39145 0
M  V30 24040 H 2349.82 -1.26501 -2.875 0
M  V30 24041 H 2349.01 -3.53559 -3.59182 0
M  V30 24042 H 2348.62 -3.23013 -1.88516 0
M  V30 24043 H 2350.91 -5.13221 -4.42278 0
M  V30 24044 H 2351.85 -6.23009 -3.36549 0
M  V30 24045 H 2352.26 -4.48949 -3.42206 0
M  V30 24046 N 2351.66 0.44194 -1.51277 0
M  V30 24047 C 2352.57 1.56138 -1.75094 0
M  V30 24048 C 2353.58 1.62 -0.634991 0
M  V30 24049 O 2354.76 1.79327 -0.916717 0
M  V30 24050 C 2351.82 2.92155 -1.86672 0
M  V30 24051 C 2350.89 2.96447 -3.10512 0
M  V30 24052 C 2350.12 4.25977 -3.21527 0
M  V30 24053 O 2350.34 5.18101 -2.38595 0
M  V30 24054 O 2349.28 4.36459 -4.14472 0
M  V30 24055 H 2353.1 1.38956 -2.70046 0
M  V30 24056 H 2350.69 0.624476 -1.35723 0
M  V30 24057 H 2352.57 3.72887 -1.96298 0
M  V30 24058 H 2351.24 3.09474 -0.949068 0
M  V30 24059 H 2350.15 2.14687 -3.06366 0
M  V30 24060 H 2351.48 2.84072 -4.0195 0
M  V30 24061 N 2353.14 1.41345 0.697083 0
M  V30 24062 C 2354.38 1.39921 1.45276 0
M  V30 24063 C 2354.7 0.0109968 1.95597 0
M  V30 24064 O 2355.9 -0.125871 2.71208 0
M  V30 24065 C 2354.36 2.46011 2.62691 0
M  V30 24066 C 2353.97 3.90732 2.19162 0
M  V30 24067 C 2355.71 2.53721 3.40332 0
M  V30 24068 C 2353.62 4.88379 3.33526 0
M  V30 24069 H 2352.55 0.520333 0.545683 0
M  V30 24070 H 2355.2 1.67162 0.7569 0
M  V30 24071 H 2353.58 2.11898 3.34537 0
M  V30 24072 H 2354.76 4.34086 1.54615 0
M  V30 24073 H 2353.07 3.86669 1.54519 0
M  V30 24074 H 2355.67 3.23858 4.25465 0
M  V30 24075 H 2356.01 1.57356 3.85415 0
M  V30 24076 H 2356.54 2.86918 2.75541 0
M  V30 24077 H 2353.28 5.86143 2.93457 0
M  V30 24078 H 2352.8 4.49675 3.96928 0
M  V30 24079 H 2354.48 5.09066 3.99326 0
M  V30 24080 N 2354.61 -0.931187 1.27148 0
M  V30 24081 C 2356.03 -1.20651 1.04477 0
M  V30 24082 C 2356.23 -2.00253 -0.22385 0
M  V30 24083 O 2355.29 -2.34738 -0.93029 0
M  V30 24084 C 2356.6 -1.95805 2.28212 0
M  V30 24085 C 2358.15 -2.08758 2.33215 0
M  V30 24086 C 2358.62 -2.87316 3.5667 0
M  V30 24087 N 2360.11 -2.94886 3.57206 0
M  V30 24088 C 2360.85 -3.56126 4.49401 0
M  V30 24089 N 2360.34 -4.18786 5.51896 0
M  V30 24090 N 2362.14 -3.53496 4.37032 0
M  V30 24091 H 2354.29 -0.399296 2.08613 0
M  V30 24092 H 2356.55 -0.239237 0.917317 0
M  V30 24093 H 2356.26 -1.44731 3.2054 0
M  V30 24094 H 2356.13 -2.96434 2.33253 0
M  V30 24095 H 2358.52 -2.5902 1.41395 0
M  V30 24096 H 2358.6 -1.0736 2.3218 0
M  V30 24097 H 2358.24 -2.37738 4.48824 0
M  V30 24098 H 2358.17 -3.88992 3.54955 0
M  V30 24099 H 2360.66 -2.50349 2.83079 0
M  V30 24100 H 2360.98 -4.63443 6.18418 0
M  V30 24101 H 2359.32 -4.17343 5.55743 0
M  V30 24102 H 2362.51 -3.03743 3.56171 0
M  V30 24103 H 2362.69 -4.00933 5.09074 0
M  V30 24104 N 2356.09 -1.09114 -1.13719 0
M  V30 24105 C 2357.34 -0.823594 -1.84557 0
M  V30 24106 C 2357.66 0.652625 -1.83755 0
M  V30 24107 O 2356.93 1.47339 -1.29104 0
M  V30 24108 H 2355.51 -0.301685 -0.68337 0
M  V30 24109 H 2358.17 -1.37861 -1.37769 0
M  V30 24110 H 2357.27 -1.17425 -2.89168 0
M  V30 24111 N 2357.57 1.30887 -0.877861 0
M  V30 24112 C 2358.82 1.96705 -0.49346 0
M  V30 24113 C 2359.15 1.69182 0.953474 0
M  V30 24114 O 2358.42 0.992624 1.67264 0
M  V30 24115 C 2358.71 3.51978 -0.760491 0
M  V30 24116 C 2358.56 3.89044 -2.25753 0
M  V30 24117 C 2359.88 4.39487 -0.232226 0
M  V30 24118 H 2357 0.714489 -0.180759 0
M  V30 24119 H 2359.64 1.5488 -1.10055 0
M  V30 24120 H 2357.79 3.87734 -0.243783 0
M  V30 24121 H 2359.46 3.63349 -2.8421 0
M  V30 24122 H 2357.7 3.37368 -2.727 0
M  V30 24123 H 2358.38 4.97337 -2.395 0
M  V30 24124 H 2360.85 4.10599 -0.674386 0
M  V30 24125 H 2359.73 5.47065 -0.448451 0
M  V30 24126 H 2359.99 4.33531 0.86622 0
M  V30 24127 N 2359.05 0.638091 1.44105 0
M  V30 24128 C 2360.32 0.0759664 1.95452 0
M  V30 24129 C 2360.7 -1.40012 1.57987 0
M  V30 24130 O 2360.05 -2.11804 0.857398 0
M  V30 24131 C 2360.26 0.306193 3.47654 0
M  V30 24132 C 2361.61 0.203083 4.24114 0
M  V30 24133 O 2362.63 0.237933 3.55404 0
M  V30 24134 O 2361.49 0.113923 5.46381 0
M  V30 24135 H 2358.59 -0.0183187 0.826797 0
M  V30 24136 H 2361.13 0.710278 1.54121 0
M  V30 24137 H 2359.91 1.33016 3.67998 0
M  V30 24138 H 2359.53 -0.361921 3.95949 0
M  V30 24139 N 2360.53 -1.52973 0.379063 0
M  V30 24140 C 2361.46 -2.2907 -0.452665 0
M  V30 24141 C 2362.44 -1.32041 -1.07235 0
M  V30 24142 O 2363.62 -1.60925 -1.08705 0
M  V30 24143 C 2360.75 -3.08995 -1.58554 0
M  V30 24144 C 2359.71 -4.13824 -1.09243 0
M  V30 24145 C 2359.03 -4.81911 -2.31659 0
M  V30 24146 C 2360.33 -5.22031 -0.16761 0
M  V30 24147 H 2362.03 -2.98845 0.182233 0
M  V30 24148 H 2359.57 -1.43724 0.0890845 0
M  V30 24149 H 2361.52 -3.60983 -2.17414 0
M  V30 24150 H 2360.25 -2.36935 -2.24788 0
M  V30 24151 H 2358.91 -3.62801 -0.526431 0
M  V30 24152 H 2358.56 -4.06409 -2.96379 0
M  V30 24153 H 2358.26 -5.52758 -1.9933 0
M  V30 24154 H 2359.78 -5.367 -2.9118 0
M  V30 24155 H 2361.19 -5.69441 -0.664086 0
M  V30 24156 H 2359.59 -6.00064 0.065432 0
M  V30 24157 H 2360.66 -4.7848 0.786431 0
M  V30 24158 N 2362 -0.108595 -1.57225 0
M  V30 24159 C 2363.28 0.594906 -1.86334 0
M  V30 24160 C 2363.66 1.85484 -1.00791 0
M  V30 24161 O 2363.01 2.28346 -0.0839694 0
M  V30 24162 C 2363.22 0.897346 -3.37267 0
M  V30 24163 C 2364.57 1.25494 -4.05631 0
M  V30 24164 O 2365.59 0.987938 -3.42225 0
M  V30 24165 O 2364.45 1.75558 -5.17534 0
M  V30 24166 H 2361.54 0.299087 -0.771023 0
M  V30 24167 H 2364.09 -0.142313 -1.69102 0
M  V30 24168 H 2362.86 0.00406928 -3.913 0
M  V30 24169 H 2362.48 1.69008 -3.59892 0
M  V30 24170 N 2363.48 1.56732 0.16515 0
M  V30 24171 C 2364.44 1.95997 1.18818 0
M  V30 24172 C 2365.44 0.844334 1.36849 0
M  V30 24173 O 2366.63 1.11128 1.3415 0
M  V30 24174 C 2363.77 2.26015 2.55206 0
M  V30 24175 H 2364.96 2.8755 0.851774 0
M  V30 24176 H 2362.51 1.50885 0.407831 0
M  V30 24177 H 2363.25 1.37196 2.9385 0
M  V30 24178 H 2363.03 3.0734 2.43484 0
M  V30 24179 H 2364.52 2.57294 3.28922 0
M  V30 24180 N 2364.96 -0.433911 1.51509 0
M  V30 24181 C 2366.37 -1.01366 1.56786 0
M  V30 24182 C 2366.72 -1.92216 0.393383 0
M  V30 24183 O 2365.85 -2.10793 -0.489404 0
M  V30 24184 C 2366.44 -1.84515 2.84147 0
M  V30 24185 C 2365 -2.37533 2.91984 0
M  V30 24186 C 2364.15 -1.16839 2.51484 0
M  V30 24187 H 2367.1 -0.215053 1.57236 0
M  V30 24188 H 2367.12 -2.70002 2.68103 0
M  V30 24189 H 2366.63 -1.18366 3.69609 0
M  V30 24190 H 2364.73 -3.07126 2.1096 0
M  V30 24191 H 2364.85 -2.70096 3.95708 0
M  V30 24192 H 2363.21 -1.51477 2.0476 0
M  V30 24193 H 2363.99 -0.522955 3.39293 0
M  V30 24194 N 2366.44 -1.41713 -0.689577 0
M  V30 24195 C 2367.67 -1.4455 -1.4761 0
M  V30 24196 C 2368.08 -0.0509366 -1.89131 0
M  V30 24197 O 2367.42 0.941432 -1.57743 0
M  V30 24198 C 2367.48 -2.29645 -2.76592 0
M  V30 24199 C 2367.15 -3.77727 -2.57238 0
M  V30 24200 C 2368.14 -4.69743 -2.22795 0
M  V30 24201 C 2365.83 -4.21834 -2.72692 0
M  V30 24202 C 2367.82 -6.03855 -2.04053 0
M  V30 24203 C 2365.51 -5.5601 -2.53567 0
M  V30 24204 C 2366.51 -6.46836 -2.19298 0
M  V30 24205 O 2366.19 -7.78535 -2.00345 0
M  V30 24206 H 2365.93 -0.49422 -0.461218 0
M  V30 24207 H 2368.48 -1.86713 -0.856012 0
M  V30 24208 H 2366.71 -1.82307 -3.4103 0
M  V30 24209 H 2368.4 -2.24112 -3.3842 0
M  V30 24210 H 2369.17 -4.36955 -2.10465 0
M  V30 24211 H 2365.04 -3.5144 -2.98347 0
M  V30 24212 H 2368.59 -6.74712 -1.77229 0
M  V30 24213 H 2364.49 -5.88376 -2.65489 0
M  V30 24214 H 2365.25 -7.89741 -2.15061 0
M  V30 24215 N 2367.92 0.924431 -1.2764 0
M  V30 24216 C 2369.15 1.704 -1.16822 0
M  V30 24217 C 2369.55 1.87159 0.277158 0
M  V30 24218 O 2368.9 1.39069 1.20023 0
M  V30 24219 C 2368.96 3.12163 -1.78311 0
M  V30 24220 C 2368.62 3.18729 -3.27507 0
M  V30 24221 C 2369.62 3.00731 -4.24095 0
M  V30 24222 C 2367.31 3.41583 -3.68275 0
M  V30 24223 C 2369.3 3.05482 -5.59428 0
M  V30 24224 C 2366.99 3.45968 -5.03736 0
M  V30 24225 C 2367.98 3.27936 -5.99122 0
M  V30 24226 O 2367.67 3.32061 -7.32114 0
M  V30 24227 H 2367.4 0.539792 -0.40694 0
M  V30 24228 H 2369.96 1.16623 -1.6908 0
M  V30 24229 H 2368.19 3.67435 -1.20534 0
M  V30 24230 H 2369.88 3.721 -1.62161 0
M  V30 24231 H 2370.64 2.82912 -3.93936 0
M  V30 24232 H 2366.52 3.54668 -2.94502 0
M  V30 24233 H 2370.07 2.91326 -6.33857 0
M  V30 24234 H 2365.96 3.63312 -5.33549 0
M  V30 24235 H 2366.73 3.48494 -7.40604 0
M  V30 24236 N 2369.39 1.09715 1.13139 0
M  V30 24237 C 2370.34 0.733973 2.20716 0
M  V30 24238 C 2371.34 -0.266476 1.67291 0
M  V30 24239 O 2372.54 -0.127624 1.79547 0
M  V30 24240 H 2368.92 0.219383 0.719288 0
M  V30 24241 H 2370.89 1.65034 2.48609 0
M  V30 24242 C 2369.64 0.17391 3.47265 0
M  V30 24243 H 2368.96 0.934942 3.88714 0
M  V30 24244 H 2370.4 -0.0422381 4.23979 0
M  V30 24245 C 2368.86 -1.09158 3.18726 0
M  V30 24246 O 2369.39 -2.17433 3.37766 0
M  V30 24247 N 2367.6 -1.00727 2.72585 0
M  V30 24248 H 2367.14 -0.126076 2.57291 0
M  V30 24249 H 2367.1 -1.85471 2.53866 0
M  V30 24250 N 2370.87 -1.30419 0.88479 0
M  V30 24251 C 2372.1 -2.00018 0.517328 0
M  V30 24252 C 2372.51 -1.66499 -0.898603 0
M  V30 24253 O 2371.85 -0.898209 -1.60243 0
M  V30 24254 C 2371.92 -3.54251 0.612088 0
M  V30 24255 C 2371.58 -4.11287 1.99229 0
M  V30 24256 C 2372.58 -4.27295 2.96167 0
M  V30 24257 C 2370.26 -4.4667 2.29763 0
M  V30 24258 C 2372.26 -4.77898 4.21773 0
M  V30 24259 C 2369.94 -4.96972 3.55615 0
M  V30 24260 C 2370.94 -5.12539 4.51434 0
M  V30 24261 O 2370.63 -5.61756 5.75053 0
M  V30 24262 H 2370.36 -0.646187 0.198541 0
M  V30 24263 H 2372.91 -1.67279 1.19193 0
M  V30 24264 H 2371.14 -3.86515 -0.119493 0
M  V30 24265 H 2372.83 -4.05092 0.25593 0
M  V30 24266 H 2373.6 -4.00262 2.73889 0
M  V30 24267 H 2369.48 -4.33821 1.5595 0
M  V30 24268 H 2373.02 -4.89964 4.9657 0
M  V30 24269 H 2368.92 -5.23441 3.7773 0
M  V30 24270 H 2369.69 -5.80099 5.77432 0
M  V30 24271 N 2372.35 -0.645724 -1.43764 0
M  V30 24272 C 2373.6 -0.153448 -2.01115 0
M  V30 24273 C 2373.91 1.23728 -1.51495 0
M  V30 24274 O 2375.12 1.82437 -2.0107 0
M  V30 24275 C 2373.57 -0.223536 -3.59205 0
M  V30 24276 C 2373.18 -1.61649 -4.1782 0
M  V30 24277 C 2374.93 0.211523 -4.23973 0
M  V30 24278 C 2372.83 -1.64091 -5.6818 0
M  V30 24279 H 2371.76 -0.0536024 -0.752092 0
M  V30 24280 H 2374.41 -0.806662 -1.64819 0
M  V30 24281 H 2372.8 0.497049 -3.92868 0
M  V30 24282 H 2373.97 -2.36183 -3.9567 0
M  V30 24283 H 2372.29 -1.99688 -3.65395 0
M  V30 24284 H 2374.88 0.213018 -5.34276 0
M  V30 24285 H 2375.23 1.24158 -3.97354 0
M  V30 24286 H 2375.76 -0.457058 -3.95166 0
M  V30 24287 H 2372.5 -2.64981 -5.99554 0
M  V30 24288 H 2372.02 -0.938715 -5.92409 0
M  V30 24289 H 2373.7 -1.38131 -6.32083 0
M  V30 24290 N 2373.83 1.5277 -0.38717 0
M  V30 24291 C 2375.08 2.00736 0.196934 0
M  V30 24292 C 2375.39 1.27796 1.4808 0
M  V30 24293 O 2376.6 1.66462 2.14482 0
M  V30 24294 C 2375.05 3.57653 0.401505 0
M  V30 24295 C 2374.66 4.39491 -0.868984 0
M  V30 24296 C 2376.4 4.13914 0.942091 0
M  V30 24297 C 2374.31 5.88005 -0.632808 0
M  V30 24298 H 2373.24 0.75002 0.0773695 0
M  V30 24299 H 2375.89 1.76292 -0.509241 0
M  V30 24300 H 2374.27 3.78337 1.16948 0
M  V30 24301 H 2375.45 4.30575 -1.64141 0
M  V30 24302 H 2373.76 3.94441 -1.33436 0
M  V30 24303 H 2376.36 5.22527 1.13446 0
M  V30 24304 H 2376.7 3.69871 1.91053 0
M  V30 24305 H 2377.24 3.97113 0.233744 0
M  V30 24306 H 2373.98 6.36367 -1.57219 0
M  V30 24307 H 2373.5 5.99715 0.10072 0
M  V30 24308 H 2375.17 6.46451 -0.266534 0
M  V30 24309 N 2375.31 0.116931 1.57166 0
M  V30 24310 C 2376.53 -0.552675 1.99901 0
M  V30 24311 C 2376.96 -1.59562 0.996067 0
M  V30 24312 O 2376.31 -1.81271 -0.0325241 0
M  V30 24313 C 2376.36 -1.15736 3.41522 0
M  V30 24314 O 2375.47 -2.27292 3.4411 0
M  V30 24315 H 2374.81 -0.138246 0.649449 0
M  V30 24316 H 2377.34 0.204795 2.03572 0
M  V30 24317 H 2377.35 -1.49339 3.79686 0
M  V30 24318 H 2376.02 -0.393421 4.14035 0
M  V30 24319 H 2374.6 -1.95144 3.17763 0
M  V30 24320 N 2376.78 -1.56818 -0.156836 0
M  V30 24321 C 2378.03 -1.82807 -0.871093 0
M  V30 24322 C 2378.36 -0.696294 -1.81609 0
M  V30 24323 O 2377.61 0.315425 -1.93141 0
M  V30 24324 C 2377.91 -3.15063 -1.68731 0
M  V30 24325 C 2377.58 -4.4203 -0.889968 0
M  V30 24326 C 2376.24 -4.76513 -0.669958 0
M  V30 24327 C 2378.59 -5.20144 -0.331678 0
M  V30 24328 C 2375.92 -5.86579 0.119207 0
M  V30 24329 C 2378.27 -6.31037 0.444476 0
M  V30 24330 C 2376.94 -6.64077 0.675152 0
M  V30 24331 H 2376.21 -0.668936 -0.318755 0
M  V30 24332 H 2378.85 -1.91022 -0.13524 0
M  V30 24333 H 2377.16 -3.02254 -2.49299 0
M  V30 24334 H 2378.86 -3.32384 -2.24326 0
M  V30 24335 H 2375.45 -4.1499 -1.0715 0
M  V30 24336 H 2379.63 -4.93886 -0.488956 0
M  V30 24337 H 2374.89 -6.10626 0.307525 0
M  V30 24338 H 2379.06 -6.90763 0.884261 0
M  V30 24339 H 2376.69 -7.492 1.28852 0
M  V30 24340 N 2378.26 0.425871 -1.51737 0
M  V30 24341 C 2379.49 1.19647 -1.68796 0
M  V30 24342 C 2379.91 1.84724 -0.390197 0
M  V30 24343 O 2379.26 1.71195 0.632346 0
M  V30 24344 C 2379.31 2.27203 -2.81178 0
M  V30 24345 O 2379.03 1.64786 -4.05928 0
M  V30 24346 C 2380.54 3.17269 -3.09605 0
M  V30 24347 H 2377.76 0.360184 -0.566135 0
M  V30 24348 H 2380.3 0.503214 -1.98212 0
M  V30 24349 H 2378.45 2.92225 -2.54329 0
M  V30 24350 H 2378.87 2.35959 -4.68427 0
M  V30 24351 H 2380.34 3.88847 -3.91793 0
M  V30 24352 H 2380.82 3.78684 -2.22474 0
M  V30 24353 H 2381.43 2.57935 -3.38156 0
M  V30 24354 N 2379.74 1.42077 0.682052 0
M  V30 24355 C 2380.99 1.42369 1.44426 0
M  V30 24356 C 2381.32 0.0373397 1.94164 0
M  V30 24357 O 2380.59 -0.93721 1.70431 0
M  V30 24358 C 2380.88 2.44198 2.64649 0
M  V30 24359 C 2380.73 3.91995 2.20589 0
M  V30 24360 C 2382.05 2.43107 3.66861 0
M  V30 24361 H 2379.17 0.518437 0.523825 0
M  V30 24362 H 2381.81 1.73443 0.77573 0
M  V30 24363 H 2379.96 2.17831 3.21686 0
M  V30 24364 H 2381.63 4.29316 1.68776 0
M  V30 24365 H 2379.88 4.06211 1.52235 0
M  V30 24366 H 2380.55 4.58812 3.06913 0
M  V30 24367 H 2383.02 2.66537 3.19526 0
M  V30 24368 H 2381.9 3.16347 4.48571 0
M  V30 24369 H 2382.16 1.45444 4.17491 0
M  V30 24370 N 2381.22 -0.917649 1.28129 0
M  V30 24371 C 2382.63 -1.48143 1.13624 0
M  V30 24372 C 2382.98 -1.94261 -0.275173 0
M  V30 24373 O 2382.11 -1.82104 -1.16907 0
M  V30 24374 C 2382.7 -2.69244 2.05653 0
M  V30 24375 C 2381.26 -3.21814 1.95224 0
M  V30 24376 C 2380.41 -1.94528 1.97621 0
M  V30 24377 H 2383.36 -0.730747 1.40875 0
M  V30 24378 H 2383.38 -3.44374 1.61824 0
M  V30 24379 H 2382.89 -2.35648 3.08369 0
M  V30 24380 H 2380.99 -3.60145 0.955307 0
M  V30 24381 H 2381.11 -3.87328 2.81982 0
M  V30 24382 H 2379.47 -2.11458 1.41977 0
M  V30 24383 H 2380.25 -1.63233 3.0201 0
M  V30 24384 N 2382.7 -1.10314 -1.12555 0
M  V30 24385 C 2383.97 -0.75691 -1.80361 0
M  V30 24386 C 2384.35 0.75679 -1.97068 0
M  V30 24387 O 2383.7 1.68256 -1.54603 0
M  V30 24388 C 2383.91 -1.50652 -3.14809 0
M  V30 24389 C 2385.26 -1.67824 -3.90026 0
M  V30 24390 O 2386.28 -1.46979 -3.24462 0
M  V30 24391 O 2385.14 -2.02374 -5.07649 0
M  V30 24392 H 2382.24 -0.272939 -0.780662 0
M  V30 24393 H 2384.78 -1.20588 -1.19401 0
M  V30 24394 H 2383.56 -2.53677 -2.97932 0
M  V30 24395 H 2383.18 -1.05033 -3.83476 0
M  V30 24396 N 2384.18 1.29948 -0.891694 0
M  V30 24397 C 2385.42 1.95157 -0.509555 0
M  V30 24398 C 2385.74 1.71127 0.947358 0
M  V30 24399 O 2386.94 2.30375 1.43665 0
M  V30 24400 C 2385.4 3.49465 -0.860377 0
M  V30 24401 C 2385.01 3.82306 -2.33552 0
M  V30 24402 C 2386.75 4.20951 -0.547761 0
M  V30 24403 C 2384.66 5.29821 -2.62762 0
M  V30 24404 H 2383.59 0.730486 -0.186833 0
M  V30 24405 H 2386.24 1.47796 -1.08759 0
M  V30 24406 H 2384.62 3.95436 -0.211354 0
M  V30 24407 H 2385.8 3.47222 -3.02942 0
M  V30 24408 H 2384.11 3.23939 -2.61634 0
M  V30 24409 H 2386.71 5.29513 -0.742947 0
M  V30 24410 H 2387.05 4.13124 0.513248 0
M  V30 24411 H 2387.58 3.80685 -1.15427 0
M  V30 24412 H 2384.32 5.42705 -3.67629 0
M  V30 24413 H 2383.84 5.66181 -1.97987 0
M  V30 24414 H 2385.52 5.97329 -2.48611 0
M  V30 24415 N 2385.65 0.653339 1.4342 0
M  V30 24416 C 2386.93 0.0966925 1.95361 0
M  V30 24417 C 2387.31 -1.38328 1.59463 0
M  V30 24418 O 2386.66 -2.10883 0.879815 0
M  V30 24419 C 2386.87 0.343049 3.4731 0
M  V30 24420 C 2388.22 0.248054 4.23875 0
M  V30 24421 O 2389.24 0.275615 3.55132 0
M  V30 24422 O 2388.1 0.171867 5.4623 0
M  V30 24423 H 2385.19 -0.00954838 0.826945 0
M  V30 24424 H 2387.74 0.726585 1.53359 0
M  V30 24425 H 2386.51 1.36912 3.66566 0
M  V30 24426 H 2386.13 -0.319905 3.96311 0
M  V30 24427 N 2387.13 -1.52563 0.395266 0
M  V30 24428 C 2388.08 -2.2817 -0.451818 0
M  V30 24429 C 2389.07 -1.32306 -1.0579 0
M  V30 24430 O 2390.28 -1.4982 -0.997692 0
M  V30 24431 H 2386.65 -0.733794 -0.164468 0
M  V30 24432 H 2388.63 -2.97679 0.207252 0
M  V30 24433 C 2387.37 -3.10549 -1.56379 0
M  V30 24434 H 2386.7 -3.84176 -1.10675 0
M  V30 24435 H 2388.14 -3.6658 -2.13061 0
M  V30 24436 C 2386.6 -2.23235 -2.52324 0
M  V30 24437 O 2387.13 -1.86318 -3.55877 0
M  V30 24438 N 2385.33 -1.87278 -2.22206 0
M  V30 24439 H 2384.88 -2.17498 -1.3803 0
M  V30 24440 H 2384.84 -1.29148 -2.8665 0
M  V30 24441 N 2388.61 -0.125265 -1.57101 0
M  V30 24442 C 2389.86 0.532 -1.95698 0
M  V30 24443 C 2390.19 1.65928 -1.00903 0
M  V30 24444 O 2389.46 1.94442 -0.0473812 0
M  V30 24445 C 2389.75 1.05878 -3.44183 0
M  V30 24446 C 2389.6 -0.0655182 -4.49752 0
M  V30 24447 C 2390.92 1.94764 -3.94658 0
M  V30 24448 H 2388.04 0.191913 -0.711575 0
M  V30 24449 H 2390.68 -0.202094 -1.88922 0
M  V30 24450 H 2388.83 1.68436 -3.50088 0
M  V30 24451 H 2390.5 -0.701063 -4.55942 0
M  V30 24452 H 2388.74 -0.727784 -4.27651 0
M  V30 24453 H 2389.42 0.344409 -5.50925 0
M  V30 24454 H 2391.89 1.42067 -3.91096 0
M  V30 24455 H 2390.77 2.28538 -4.99061 0
M  V30 24456 H 2391.03 2.8765 -3.35723 0
M  V30 24457 N 2390.09 1.56899 0.148518 0
M  V30 24458 C 2391.32 1.87424 0.876356 0
M  V30 24459 C 2391.73 0.713287 1.74807 0
M  V30 24460 O 2391.09 -0.316994 1.79726 0
M  V30 24461 C 2391.14 3.17181 1.73432 0
M  V30 24462 O 2390.86 4.28803 0.897734 0
M  V30 24463 C 2392.36 3.6121 2.56987 0
M  V30 24464 H 2389.58 0.621281 0.253478 0
M  V30 24465 H 2392.12 2.04008 0.141762 0
M  V30 24466 H 2390.28 3.02355 2.42199 0
M  V30 24467 H 2390.69 5.02991 1.48663 0
M  V30 24468 H 2392.17 4.54843 3.12765 0
M  V30 24469 H 2392.64 2.86425 3.32952 0
M  V30 24470 H 2393.25 3.78725 1.93513 0
M  V30 24471 N 2391.57 -0.417818 1.51961 0
M  V30 24472 C 2392.81 -1.16729 1.65838 0
M  V30 24473 C 2393.14 -1.90388 0.382914 0
M  V30 24474 O 2392.42 -1.8441 -0.618335 0
M  V30 24475 C 2392.7 -2.16871 2.8747 0
M  V30 24476 C 2392.56 -1.47167 4.25043 0
M  V30 24477 C 2393.87 -3.1764 3.04619 0
M  V30 24478 H 2390.99 -0.423001 0.603522 0
M  V30 24479 H 2393.64 -0.454072 1.84494 0
M  V30 24480 H 2391.79 -2.77695 2.71694 0
M  V30 24481 H 2393.46 -0.895297 4.52529 0
M  V30 24482 H 2391.7 -0.773731 4.26844 0
M  V30 24483 H 2392.37 -2.20195 5.0618 0
M  V30 24484 H 2394.85 -2.66886 3.19235 0
M  V30 24485 H 2393.72 -3.84983 3.91253 0
M  V30 24486 H 2393.98 -3.84871 2.17548 0
M  V30 24487 N 2393.04 -1.42436 -0.674508 0
M  V30 24488 C 2393.97 -1.48727 -1.80007 0
M  V30 24489 C 2394.95 -0.343822 -1.66589 0
M  V30 24490 O 2396.14 -0.558169 -1.86006 0
M  V30 24491 C 2393.27 -1.38925 -3.18304 0
M  V30 24492 C 2392.22 -2.513 -3.46457 0
M  V30 24493 C 2391.55 -2.26555 -4.84331 0
M  V30 24494 C 2392.85 -3.93609 -3.43321 0
M  V30 24495 H 2394.54 -2.42931 -1.74999 0
M  V30 24496 H 2392.09 -1.16925 -0.840512 0
M  V30 24497 H 2394.04 -1.41934 -3.96778 0
M  V30 24498 H 2392.77 -0.412151 -3.23989 0
M  V30 24499 H 2391.43 -2.47608 -2.70344 0
M  V30 24500 H 2391.07 -1.27138 -4.86667 0
M  V30 24501 H 2390.77 -3.0187 -5.04131 0
M  V30 24502 H 2392.3 -2.31314 -5.6509 0
M  V30 24503 H 2393.71 -3.98902 -4.11765 0
M  V30 24504 H 2392.11 -4.68778 -3.74656 0
M  V30 24505 H 2393.18 -4.20259 -2.41889 0
M  V30 24506 N 2394.52 0.910841 -1.28614 0
M  V30 24507 C 2395.8 1.63977 -1.06635 0
M  V30 24508 C 2396.18 2.07404 0.393314 0
M  V30 24509 O 2395.53 1.82125 1.37996 0
M  V30 24510 C 2395.74 2.82906 -2.04365 0
M  V30 24511 C 2397.08 3.53856 -2.34672 0
M  V30 24512 O 2398.11 2.93059 -2.02472 0
M  V30 24513 O 2396.97 4.63434 -2.89639 0
M  V30 24514 H 2394.06 0.719492 -0.40775 0
M  V30 24515 H 2396.61 0.95989 -1.39944 0
M  V30 24516 H 2395.38 2.47931 -3.02731 0
M  V30 24517 H 2395 3.58606 -1.7172 0
M  V30 24518 N 2396 1.10909 1.11969 0
M  V30 24519 C 2397.23 0.875586 1.87128 0
M  V30 24520 C 2397.64 -0.577811 1.80161 0
M  V30 24521 O 2396.98 -1.4104 1.17701 0
M  V30 24522 C 2397.04 1.25176 3.37003 0
M  V30 24523 C 2396.71 2.71319 3.67743 0
M  V30 24524 C 2397.7 3.69548 3.65691 0
M  V30 24525 C 2395.39 3.07828 3.96923 0
M  V30 24526 C 2397.38 5.02307 3.92386 0
M  V30 24527 C 2395.07 4.40773 4.23276 0
M  V30 24528 C 2396.07 5.37821 4.20995 0
M  V30 24529 O 2395.76 6.68372 4.46692 0
M  V30 24530 H 2395.49 0.313747 0.598781 0
M  V30 24531 H 2398.04 1.47866 1.42566 0
M  V30 24532 H 2396.27 0.591809 3.82145 0
M  V30 24533 H 2397.96 0.994946 3.93517 0
M  V30 24534 H 2398.73 3.42688 3.43205 0
M  V30 24535 H 2394.61 2.32909 3.97837 0
M  V30 24536 H 2398.15 5.78048 3.90521 0
M  V30 24537 H 2394.05 4.67369 4.45237 0
M  V30 24538 H 2394.82 6.74077 4.64287 0
M  V30 24539 N 2397.48 -1.29474 0.898573 0
M  V30 24540 C 2398.76 -1.90507 0.44345 0
M  V30 24541 C 2399.14 -1.81571 -1.07682 0
M  V30 24542 O 2398.48 -1.2417 -1.91818 0
M  V30 24543 C 2398.69 -3.35629 0.956767 0
M  V30 24544 C 2400.04 -4.12661 0.9998 0
M  V30 24545 O 2401.07 -3.44528 0.904359 0
M  V30 24546 O 2399.92 -5.34414 1.14298 0
M  V30 24547 H 2397.02 -0.815398 0.138039 0
M  V30 24548 H 2399.56 -1.37947 0.988364 0
M  V30 24549 H 2398.34 -3.36283 2.00073 0
M  V30 24550 H 2397.96 -3.95665 0.391798 0
M  V30 24551 N 2398.96 -0.660936 -1.43071 0
M  V30 24552 C 2399.92 0.0166003 -2.29194 0
M  V30 24553 C 2400.92 0.742887 -1.42611 0
M  V30 24554 O 2402.11 0.582975 -1.64156 0
M  V30 24555 C 2399.24 1.03424 -3.24833 0
M  V30 24556 H 2400.43 -0.741259 -2.90595 0
M  V30 24557 H 2397.99 -0.422558 -1.5048 0
M  V30 24558 H 2398.72 1.82107 -2.68342 0
M  V30 24559 H 2398.51 0.517014 -3.88676 0
M  V30 24560 H 2400 1.50716 -3.89454 0
M  V30 24561 N 2400.43 1.52351 -0.403352 0
M  V30 24562 C 2401.85 1.59509 -0.0539561 0
M  V30 24563 C 2402.05 1.41655 1.43304 0
M  V30 24564 O 2401.11 1.24059 2.19922 0
M  V30 24565 C 2402.42 2.95744 -0.543706 0
M  V30 24566 C 2403.97 3.08961 -0.50118 0
M  V30 24567 C 2404.44 4.47668 -0.967345 0
M  V30 24568 N 2405.93 4.53892 -0.923929 0
M  V30 24569 C 2406.67 5.59478 -1.25588 0
M  V30 24570 N 2406.16 6.72643 -1.65901 0
M  V30 24571 N 2407.96 5.49656 -1.17623 0
M  V30 24572 H 2400.11 1.62204 -1.37126 0
M  V30 24573 H 2402.37 0.76275 -0.562953 0
M  V30 24574 H 2402.08 3.14071 -1.5828 0
M  V30 24575 H 2401.95 3.77167 0.0497379 0
M  V30 24576 H 2404.34 2.90322 0.528858 0
M  V30 24577 H 2404.42 2.29458 -1.1306 0
M  V30 24578 H 2404.06 4.67049 -1.99568 0
M  V30 24579 H 2403.99 5.25658 -0.31479 0
M  V30 24580 H 2406.48 3.72654 -0.627469 0
M  V30 24581 H 2406.8 7.49192 -1.89556 0
M  V30 24582 H 2405.14 6.73939 -1.69799 0
M  V30 24583 H 2408.33 4.60129 -0.860196 0
M  V30 24584 H 2408.51 6.31838 -1.43823 0
M  V30 24585 N 2401.91 0.133594 1.57033 0
M  V30 24586 C 2402.82 -0.824525 2.19633 0
M  V30 24587 C 2403.84 -1.2818 1.17668 0
M  V30 24588 O 2405.01 -1.34177 1.50195 0
M  V30 24589 C 2402.08 -2.05132 2.79502 0
M  V30 24590 C 2401.14 -1.64457 3.96551 0
M  V30 24591 C 2400.37 -2.81289 4.53555 0
M  V30 24592 O 2400.6 -3.97129 4.09445 0
M  V30 24593 O 2399.53 -2.57532 5.44023 0
M  V30 24594 H 2403.36 -0.321712 3.01991 0
M  V30 24595 H 2400.94 -0.0927627 1.49112 0
M  V30 24596 H 2402.82 -2.76954 3.17607 0
M  V30 24597 H 2401.5 -2.54392 2.00166 0
M  V30 24598 H 2400.41 -0.896984 3.63187 0
M  V30 24599 H 2401.74 -1.19926 4.77366 0
M  V30 24600 N 2403.39 -1.56975 -0.140195 0
M  V30 24601 C 2404.32 -1.9539 -1.19814 0
M  V30 24602 C 2405.34 -0.85055 -1.38815 0
M  V30 24603 O 2406.52 -1.12894 -1.38265 0
M  V30 24604 C 2403.62 -2.21862 -2.56185 0
M  V30 24605 C 2402.8 -3.53154 -2.58071 0
M  V30 24606 C 2401.86 -3.68086 -3.7603 0
M  V30 24607 O 2400.88 -4.40412 -3.60591 0
M  V30 24608 N 2402.08 -3.0526 -4.93758 0
M  V30 24609 H 2404.85 -2.86747 -0.871559 0
M  V30 24610 H 2402.41 -1.58508 -0.329692 0
M  V30 24611 H 2404.4 -2.29086 -3.33619 0
M  V30 24612 H 2402.97 -1.36736 -2.81109 0
M  V30 24613 H 2402.19 -3.5731 -1.66504 0
M  V30 24614 H 2403.48 -4.39491 -2.56369 0
M  V30 24615 H 2402.88 -2.46428 -5.09205 0
M  V30 24616 H 2401.44 -3.18036 -5.68943 0
M  V30 24617 N 2404.87 0.409753 -1.5218 0
M  V30 24618 C 2406.28 0.748326 -1.40969 0
M  V30 24619 C 2406.48 1.94842 -0.513691 0
M  V30 24620 O 2405.54 2.52491 0.0207582 0
M  V30 24621 C 2406.85 1.00285 -2.83485 0
M  V30 24622 C 2408.4 1.1056 -2.92823 0
M  V30 24623 C 2408.88 1.39288 -4.36306 0
M  V30 24624 N 2410.37 1.46155 -4.39537 0
M  V30 24625 C 2411.1 1.70009 -5.47617 0
M  V30 24626 N 2410.6 1.91471 -6.65816 0
M  V30 24627 N 2412.39 1.72018 -5.35132 0
M  V30 24628 H 2404.54 -0.380222 -2.08969 0
M  V30 24629 H 2406.81 -0.107822 -0.941848 0
M  V30 24630 H 2406.51 0.193399 -3.51168 0
M  V30 24631 H 2406.39 1.92318 -3.2449 0
M  V30 24632 H 2408.77 1.90564 -2.25321 0
M  V30 24633 H 2408.85 0.163645 -2.55276 0
M  V30 24634 H 2408.5 0.59802 -5.04367 0
M  V30 24635 H 2408.43 2.34735 -4.71389 0
M  V30 24636 H 2410.92 1.31361 -3.54334 0
M  V30 24637 H 2411.23 2.09121 -7.43968 0
M  V30 24638 H 2409.58 1.88737 -6.68882 0
M  V30 24639 H 2412.77 1.54788 -4.41767 0
M  V30 24640 H 2412.94 1.90269 -6.19436 0
M  V30 24641 N 2406.35 1.42792 0.666944 0
M  V30 24642 C 2407.59 1.43893 1.42908 0
M  V30 24643 C 2407.93 0.0579313 1.94114 0
M  V30 24644 O 2407.2 -0.91908 1.71415 0
M  V30 24645 C 2407.48 2.46991 2.62044 0
M  V30 24646 C 2407.34 3.94313 2.16419 0
M  V30 24647 C 2408.66 2.46984 3.64262 0
M  V30 24648 H 2405.77 0.523963 0.518297 0
M  V30 24649 H 2408.42 1.74256 0.75729 0
M  V30 24650 H 2406.57 2.21231 3.19357 0
M  V30 24651 H 2408.24 4.31082 1.64213 0
M  V30 24652 H 2406.48 4.07802 1.47918 0
M  V30 24653 H 2407.15 4.62041 3.02029 0
M  V30 24654 H 2409.63 2.69911 3.16681 0
M  V30 24655 H 2408.5 3.21087 4.45191 0
M  V30 24656 H 2408.77 1.49864 4.15924 0
M  V30 24657 N 2407.82 -0.904008 1.29095 0
M  V30 24658 C 2409.05 -1.6852 1.19519 0
M  V30 24659 C 2409.46 -1.87576 -0.247347 0
M  V30 24660 O 2408.81 -1.40961 -1.17795 0
M  V30 24661 C 2408.87 -3.09286 1.83254 0
M  V30 24662 C 2408.53 -3.13478 3.32537 0
M  V30 24663 C 2409.53 -2.93946 4.28826 0
M  V30 24664 C 2407.21 -3.35681 3.73662 0
M  V30 24665 C 2409.21 -2.96543 5.64217 0
M  V30 24666 C 2406.89 -3.3791 5.09176 0
M  V30 24667 C 2407.89 -3.18363 6.04263 0
M  V30 24668 O 2407.58 -3.20372 7.37304 0
M  V30 24669 H 2407.31 -0.53325 0.415476 0
M  V30 24670 H 2409.87 -1.13919 1.70914 0
M  V30 24671 H 2408.1 -3.65471 1.26365 0
M  V30 24672 H 2409.79 -3.69473 1.6806 0
M  V30 24673 H 2410.55 -2.76609 3.98387 0
M  V30 24674 H 2406.43 -3.49938 3.00108 0
M  V30 24675 H 2409.97 -2.81205 6.38412 0
M  V30 24676 H 2405.87 -3.54777 5.39262 0
M  V30 24677 H 2406.64 -3.36668 7.46054 0
M  V30 24678 N 2409.3 -1.11501 -1.11379 0
M  V30 24679 C 2410.55 -0.875456 -1.83596 0
M  V30 24680 C 2410.9 0.592523 -1.83049 0
M  V30 24681 O 2410.2 1.43191 -1.27307 0
M  V30 24682 C 2410.39 -1.37183 -3.30023 0
M  V30 24683 C 2410.22 -2.88654 -3.44832 0
M  V30 24684 C 2408.99 -3.56782 -3.57819 0
M  V30 24685 C 2411.19 -3.86705 -3.39063 0
M  V30 24686 N 2409.17 -4.96464 -3.61105 0
M  V30 24687 C 2410.54 -5.1246 -3.48977 0
M  V30 24688 C 2412.6 -3.79255 -3.22599 0
M  V30 24689 C 2411.3 -6.31642 -3.44124 0
M  V30 24690 C 2413.32 -4.97949 -3.19063 0
M  V30 24691 C 2412.69 -6.22557 -3.29549 0
M  V30 24692 H 2408.79 -0.373502 -0.687038 0
M  V30 24693 H 2411.37 -1.41948 -1.33262 0
M  V30 24694 H 2409.54 -0.854985 -3.78873 0
M  V30 24695 H 2411.27 -1.07536 -3.90151 0
M  V30 24696 H 2408.03 -3.07251 -3.60408 0
M  V30 24697 H 2408.45 -5.69291 -3.66384 0
M  V30 24698 H 2413.09 -2.83821 -3.13377 0
M  V30 24699 H 2410.81 -7.27353 -3.52113 0
M  V30 24700 H 2414.4 -4.93905 -3.07489 0
M  V30 24701 H 2413.28 -7.1286 -3.26802 0
M  V30 24702 N 2410.78 1.28995 -0.905426 0
M  V30 24703 C 2412.01 1.99996 -0.54921 0
M  V30 24704 C 2412.43 1.67276 0.860247 0
M  V30 24705 O 2411.79 0.90053 1.57354 0
M  V30 24706 C 2411.84 3.52602 -0.755247 0
M  V30 24707 O 2410.94 4.11964 0.18962 0
M  V30 24708 H 2410.28 0.6286 -0.21391 0
M  V30 24709 H 2412.81 1.64352 -1.21858 0
M  V30 24710 H 2412.82 4.02592 -0.662116 0
M  V30 24711 H 2411.5 3.75752 -1.78278 0
M  V30 24712 H 2410.07 3.72869 0.0484602 0
M  V30 24713 N 2412.26 0.668514 1.42719 0
M  V30 24714 C 2413.54 0.117408 1.95247 0
M  V30 24715 C 2413.92 -1.36629 1.60921 0
M  V30 24716 O 2413.26 -2.09938 0.902132 0
M  V30 24717 C 2413.47 0.379867 3.46927 0
M  V30 24718 C 2414.82 0.292998 4.23588 0
M  V30 24719 O 2415.85 0.313266 3.5482 0
M  V30 24720 O 2414.71 0.229793 5.46017 0
M  V30 24721 H 2411.8 -0.000776984 0.827 0
M  V30 24722 H 2414.35 0.74281 1.52579 0
M  V30 24723 H 2413.12 1.40792 3.65093 0
M  V30 24724 H 2412.74 -0.277853 3.96628 0
M  V30 24725 N 2413.74 -1.52135 0.411426 0
M  V30 24726 C 2414.98 -2.02137 -0.163852 0
M  V30 24727 C 2415.32 -1.29638 -1.44595 0
M  V30 24728 O 2414.59 -0.403387 -1.90271 0
M  V30 24729 C 2414.87 -3.57767 -0.409208 0
M  V30 24730 C 2414.73 -4.40913 0.889721 0
M  V30 24731 C 2416.05 -4.23697 -1.19035 0
M  V30 24732 H 2413.17 -0.734708 -0.0580766 0
M  V30 24733 H 2415.81 -1.82006 0.545342 0
M  V30 24734 H 2413.96 -3.75052 -1.01333 0
M  V30 24735 H 2415.63 -4.35334 1.52583 0
M  V30 24736 H 2413.87 -4.07034 1.50018 0
M  V30 24737 H 2414.54 -5.47889 0.672411 0
M  V30 24738 H 2417.02 -4.10525 -0.67887 0
M  V30 24739 H 2415.9 -5.32524 -1.33077 0
M  V30 24740 H 2416.16 -3.82807 -2.21159 0
M  V30 24741 N 2415.22 -0.14192 -1.5696 0
M  V30 24742 C 2416.63 0.214532 -1.58152 0
M  V30 24743 C 2416.83 1.65047 -1.15593 0
M  V30 24744 O 2415.89 2.37624 -0.853874 0
M  V30 24745 C 2417.2 -0.0396105 -3.00674 0
M  V30 24746 C 2418.75 0.0244978 -3.1299 0
M  V30 24747 C 2419.22 -0.202247 -4.57553 0
M  V30 24748 N 2420.71 -0.149 -4.6296 0
M  V30 24749 C 2421.45 -0.299025 -5.7262 0
M  V30 24750 N 2420.95 -0.506491 -6.90946 0
M  V30 24751 N 2422.74 -0.236985 -5.616 0
M  V30 24752 H 2414.89 -1.07956 -1.82919 0
M  V30 24753 H 2417.15 -0.426945 -0.846417 0
M  V30 24754 H 2416.86 -1.0332 -3.36181 0
M  V30 24755 H 2416.73 0.682078 -3.70982 0
M  V30 24756 H 2419.12 1.00864 -2.77327 0
M  V30 24757 H 2419.2 -0.729439 -2.45179 0
M  V30 24758 H 2418.84 -1.18346 -4.9392 0
M  V30 24759 H 2418.77 0.571952 -5.23485 0
M  V30 24760 H 2421.27 0.00690373 -3.77899 0
M  V30 24761 H 2421.58 -0.611211 -7.70379 0
M  V30 24762 H 2419.92 -0.54275 -6.92877 0
M  V30 24763 H 2423.11 -0.0757031 -4.68039 0
M  V30 24764 H 2423.29 -0.357341 -6.47014 0
M  V30 24765 N 2416.69 1.57047 0.131868 0
M  V30 24766 C 2417.92 1.88343 0.856428 0
M  V30 24767 C 2418.34 0.731787 1.74041 0
M  V30 24768 O 2417.69 -0.297914 1.80052 0
M  V30 24769 C 2417.74 3.19002 1.70058 0
M  V30 24770 O 2417.47 4.29731 0.852203 0
M  V30 24771 C 2418.97 3.63915 2.53141 0
M  V30 24772 H 2416.19 0.623934 0.246874 0
M  V30 24773 H 2418.73 2.04147 0.120117 0
M  V30 24774 H 2416.89 3.04906 2.38979 0
M  V30 24775 H 2417.3 5.04539 1.4332 0
M  V30 24776 H 2418.77 4.58135 3.07923 0
M  V30 24777 H 2419.25 2.8994 3.29896 0
M  V30 24778 H 2419.86 3.80756 1.89486 0
M  V30 24779 N 2418.17 -0.401677 1.52395 0
M  V30 24780 C 2419.1 -1.50909 1.72508 0
M  V30 24781 C 2420.12 -1.51121 0.605494 0
M  V30 24782 O 2421.31 -1.55252 0.880855 0
M  V30 24783 C 2418.41 -2.89788 1.75716 0
M  V30 24784 C 2417.58 -3.13684 3.04829 0
M  V30 24785 C 2416.64 -4.32476 2.99751 0
M  V30 24786 O 2415.66 -4.29395 3.73642 0
M  V30 24787 N 2416.87 -5.37989 2.18056 0
M  V30 24788 H 2419.63 -1.34048 2.68051 0
M  V30 24789 H 2417.19 -0.591058 1.50725 0
M  V30 24790 H 2419.18 -3.67337 1.69841 0
M  V30 24791 H 2417.75 -3.00071 0.876144 0
M  V30 24792 H 2416.97 -2.24113 3.24294 0
M  V30 24793 H 2418.26 -3.26498 3.90227 0
M  V30 24794 H 2417.66 -5.43342 1.57466 0
M  V30 24795 H 2416.22 -6.14252 2.18032 0
M  V30 24796 N 2419.65 -1.43144 -0.659362 0
M  V30 24797 C 2420.61 -1.47504 -1.75429 0
M  V30 24798 C 2421.61 -0.360539 -1.56706 0
M  V30 24799 O 2422.8 -0.622031 -1.62716 0
M  V30 24800 C 2419.93 -1.32168 -3.14236 0
M  V30 24801 H 2421.13 -2.4501 -1.72946 0
M  V30 24802 H 2418.68 -1.29819 -0.870447 0
M  V30 24803 H 2419.42 -0.356457 -3.22335 0
M  V30 24804 H 2419.2 -2.12954 -3.29231 0
M  V30 24805 H 2420.69 -1.38137 -3.94091 0
M  V30 24806 N 2421.13 0.897149 -1.29572 0
M  V30 24807 C 2422.38 1.64254 -1.17063 0
M  V30 24808 C 2422.69 1.93637 0.276442 0
M  V30 24809 O 2423.9 2.66417 0.522893 0
M  V30 24810 C 2422.35 2.95979 -2.04755 0
M  V30 24811 C 2421.96 2.74181 -3.543 0
M  V30 24812 C 2423.7 3.7391 -2.00976 0
M  V30 24813 C 2421.61 4.01648 -4.34088 0
M  V30 24814 H 2420.54 0.616197 -0.434531 0
M  V30 24815 H 2423.19 0.994241 -1.54231 0
M  V30 24816 H 2421.57 3.62035 -1.60458 0
M  V30 24817 H 2422.75 2.16702 -4.06665 0
M  V30 24818 H 2421.06 2.09642 -3.59777 0
M  V30 24819 H 2423.66 4.68422 -2.57847 0
M  V30 24820 H 2424 4.04349 -0.990344 0
M  V30 24821 H 2424.54 3.14699 -2.4333 0
M  V30 24822 H 2421.27 3.76375 -5.36677 0
M  V30 24823 H 2420.79 4.58677 -3.86491 0
M  V30 24824 H 2422.47 4.69773 -4.44885 0
M  V30 24825 N 2422.61 1.1209 1.10786 0
M  V30 24826 C 2423.55 0.785445 2.17024 0
M  V30 24827 C 2424.52 -0.246162 1.64266 0
M  V30 24828 O 2425.71 -0.121551 1.90412 0
M  V30 24829 C 2422.85 0.242237 3.44249 0
M  V30 24830 C 2421.96 1.33122 4.10977 0
M  V30 24831 C 2421.1 0.747833 5.2591 0
M  V30 24832 C 2420.13 1.81619 5.84535 0
M  V30 24833 N 2419.27 1.25179 6.90851 0
M  V30 24834 H 2424.11 1.69553 2.45063 0
M  V30 24835 H 2421.65 0.846603 1.20296 0
M  V30 24836 H 2423.61 -0.0907293 4.17101 0
M  V30 24837 H 2422.24 -0.631016 3.16572 0
M  V30 24838 H 2421.29 1.78103 3.3613 0
M  V30 24839 H 2422.6 2.13925 4.50597 0
M  V30 24840 H 2421.75 0.365322 6.05599 0
M  V30 24841 H 2420.49 -0.0914331 4.87614 0
M  V30 24842 H 2419.5 2.20794 5.03518 0
M  V30 24843 H 2420.72 2.65861 6.24896 0
M  V30 24844 H 2418.67 0.434289 6.54561 0
M  V30 24845 H 2418.59 1.99645 7.29162 0
M  V30 24846 H 2419.85 0.896395 7.74329 0
M  V30 24847 N 2424.08 -1.28513 0.912254 0
M  V30 24848 C 2425.5 -1.47475 0.610185 0
M  V30 24849 C 2425.7 -1.8293 -0.844923 0
M  V30 24850 O 2424.76 -1.93335 -1.62412 0
M  V30 24851 C 2426.07 -2.57865 1.5468 0
M  V30 24852 C 2427.62 -2.71735 1.55335 0
M  V30 24853 C 2428.09 -3.85267 2.47655 0
M  V30 24854 N 2429.58 -3.92619 2.45774 0
M  V30 24855 C 2430.32 -4.79845 3.13905 0
M  V30 24856 N 2429.81 -5.71672 3.9136 0
M  V30 24857 N 2431.61 -4.73443 3.02999 0
M  V30 24858 H 2423.76 -1.03779 1.8532 0
M  V30 24859 H 2426.02 -0.516739 0.794786 0
M  V30 24860 H 2425.73 -2.38569 2.58414 0
M  V30 24861 H 2425.6 -3.54934 1.27677 0
M  V30 24862 H 2427.99 -2.90421 0.523401 0
M  V30 24863 H 2428.07 -1.75202 1.86381 0
M  V30 24864 H 2427.71 -3.67336 3.50752 0
M  V30 24865 H 2427.64 -4.81195 2.13912 0
M  V30 24866 H 2430.13 -3.26948 1.89509 0
M  V30 24867 H 2430.45 -6.35054 4.4037 0
M  V30 24868 H 2428.79 -5.71517 3.95465 0
M  V30 24869 H 2431.98 -4.00695 2.41994 0
M  V30 24870 H 2432.16 -5.41207 3.56369 0
M  V30 24871 N 2425.56 -0.676073 -1.42362 0
M  V30 24872 C 2426.53 -0.00770969 -2.29199 0
M  V30 24873 C 2427.53 0.72772 -1.43391 0
M  V30 24874 O 2428.72 0.565531 -1.64765 0
M  V30 24875 C 2425.85 0.999727 -3.25911 0
M  V30 24876 H 2427.04 -0.772039 -2.89792 0
M  V30 24877 H 2424.59 -0.438495 -1.50023 0
M  V30 24878 H 2425.33 1.7925 -2.70259 0
M  V30 24879 H 2425.11 0.475761 -3.89203 0
M  V30 24880 H 2426.6 1.46577 -3.91031 0
M  V30 24881 N 2427.04 1.51915 -0.419488 0
M  V30 24882 C 2428.29 2.01922 0.152904 0
M  V30 24883 C 2428.62 1.3046 1.44258 0
M  V30 24884 O 2427.87 0.402627 1.91513 0
M  V30 24885 C 2428.17 3.54718 0.437004 0
M  V30 24886 C 2427.84 4.44368 -0.76471 0
M  V30 24887 C 2426.5 4.68592 -1.09431 0
M  V30 24888 C 2428.85 4.97079 -1.56722 0
M  V30 24889 C 2426.18 5.42773 -2.22742 0
M  V30 24890 C 2428.53 5.72502 -2.69117 0
M  V30 24891 C 2427.19 5.94995 -3.02552 0
M  V30 24892 H 2426.46 0.738885 0.0559514 0
M  V30 24893 H 2429.11 1.83036 -0.56303 0
M  V30 24894 H 2427.42 3.71839 1.23463 0
M  V30 24895 H 2429.11 3.9093 0.893014 0
M  V30 24896 H 2425.7 4.25699 -0.49785 0
M  V30 24897 H 2429.89 4.78264 -1.3258 0
M  V30 24898 H 2425.14 5.58407 -2.48981 0
M  V30 24899 H 2429.32 6.1234 -3.31682 0
M  V30 24900 H 2426.94 6.52257 -3.90468 0
M  V30 24901 N 2428.52 0.150242 1.56882 0
M  V30 24902 C 2429.77 -0.500037 1.95403 0
M  V30 24903 C 2430.08 -1.65799 1.03779 0
M  V30 24904 O 2431.29 -2.37311 1.31893 0
M  V30 24905 C 2429.74 -0.940957 3.47382 0
M  V30 24906 C 2429.35 0.190237 4.47596 0
M  V30 24907 C 2431.09 -1.56084 3.94763 0
M  V30 24908 C 2429 -0.269134 5.90787 0
M  V30 24909 H 2427.93 -0.190575 0.729518 0
M  V30 24910 H 2430.58 0.235106 1.81988 0
M  V30 24911 H 2428.96 -1.73146 3.56141 0
M  V30 24912 H 2430.14 0.967236 4.50534 0
M  V30 24913 H 2428.45 0.718738 4.1015 0
M  V30 24914 H 2431.05 -1.91622 4.99185 0
M  V30 24915 H 2431.39 -2.45101 3.36499 0
M  V30 24916 H 2431.93 -0.83518 3.88934 0
M  V30 24917 H 2428.67 0.585736 6.52878 0
M  V30 24918 H 2428.19 -1.01194 5.91202 0
M  V30 24919 H 2429.86 -0.720063 6.42981 0
M  V30 24920 N 2430 -1.57115 -0.123538 0
M  V30 24921 C 2430.94 -2.00986 -1.17078 0
M  V30 24922 C 2431.94 -0.906034 -1.43134 0
M  V30 24923 O 2433.14 -1.09124 -1.4315 0
M  V30 24924 H 2429.52 -0.640127 -0.394641 0
M  V30 24925 H 2431.49 -2.88181 -0.774241 0
M  V30 24926 C 2430.24 -2.42627 -2.49053 0
M  V30 24927 H 2429.56 -3.27129 -2.2984 0
M  V30 24928 H 2431 -2.77126 -3.20901 0
M  V30 24929 C 2429.46 -1.28811 -3.11303 0
M  V30 24930 O 2429.99 -0.6016 -3.9717 0
M  V30 24931 N 2428.2 -1.04633 -2.7111 0
M  V30 24932 H 2427.74 -1.60637 -2.01379 0
M  V30 24933 H 2427.7 -0.28674 -3.1309 0
M  V30 24934 N 2431.47 0.393589 -1.52606 0
M  V30 24935 C 2432.72 1.13682 -1.67095 0
M  V30 24936 C 2433.04 1.90619 -0.411045 0
M  V30 24937 O 2432.31 1.87288 0.574458 0
M  V30 24938 H 2430.89 0.422657 -0.61593 0
M  V30 24939 H 2433.56 0.447005 -1.89705 0
M  V30 24940 H 2432.65 1.84228 -2.51926 0
M  V30 24941 N 2432.95 1.43492 0.651762 0
M  V30 24942 C 2434.18 1.48629 1.43934 0
M  V30 24943 C 2434.6 0.10462 1.8851 0
M  V30 24944 O 2433.95 -0.885436 1.59582 0
M  V30 24945 C 2434 2.43339 2.67336 0
M  V30 24946 O 2433.72 3.76132 2.24624 0
M  V30 24947 C 2435.23 2.57732 3.60679 0
M  V30 24948 H 2432.45 0.504747 0.442121 0
M  V30 24949 H 2434.99 1.88249 0.798911 0
M  V30 24950 H 2433.14 2.0691 3.27516 0
M  V30 24951 H 2433.56 4.27076 3.04477 0
M  V30 24952 H 2435.03 3.28074 4.43927 0
M  V30 24953 H 2435.51 1.62272 4.08123 0
M  V30 24954 H 2436.12 2.94978 3.06379 0
M  V30 24955 N 2434.43 -0.890264 1.30046 0
M  V30 24956 C 2435.68 -1.63837 1.1833 0
M  V30 24957 C 2436 -1.93213 -0.263421 0
M  V30 24958 O 2435.27 -1.56485 -1.17853 0
M  V30 24959 H 2433.85 -0.607316 0.434944 0
M  V30 24960 H 2436.51 -1.06695 1.63101 0
M  V30 24961 H 2435.61 -2.59076 1.74029 0
M  V30 24962 N 2435.91 -1.12676 -1.1019 0
M  V30 24963 C 2437.15 -0.884947 -1.82473 0
M  V30 24964 C 2437.49 0.587698 -1.85094 0
M  V30 24965 O 2436.76 1.43455 -1.31343 0
M  V30 24966 C 2437.05 -1.46359 -3.29015 0
M  V30 24967 C 2436.9 -3.00479 -3.34713 0
M  V30 24968 C 2438.22 -1.12526 -4.25471 0
M  V30 24969 H 2435.34 -0.322926 -0.662486 0
M  V30 24970 H 2437.98 -1.39378 -1.29127 0
M  V30 24971 H 2436.13 -1.03084 -3.74574 0
M  V30 24972 H 2437.8 -3.52452 -2.97616 0
M  V30 24973 H 2436.04 -3.35877 -2.74535 0
M  V30 24974 H 2436.71 -3.36061 -4.37912 0
M  V30 24975 H 2439.19 -1.49907 -3.88159 0
M  V30 24976 H 2438.07 -1.55672 -5.26362 0
M  V30 24977 H 2438.33 -0.0378184 -4.42084 0
M  V30 24978 N 2437.39 1.28028 -0.919057 0
M  V30 24979 C 2438.3 2.30868 -0.416796 0
M  V30 24980 C 2439.31 1.66715 0.498206 0
M  V30 24981 O 2440.49 1.97723 0.383109 0
M  V30 24982 C 2437.55 3.45124 0.330213 0
M  V30 24983 C 2436.61 4.24819 -0.618652 0
M  V30 24984 C 2435.85 5.33619 0.0928021 0
M  V30 24985 O 2436.07 5.55067 1.31365 0
M  V30 24986 O 2435 5.99151 -0.574604 0
M  V30 24987 H 2438.83 2.75849 -1.27048 0
M  V30 24988 H 2436.42 1.32819 -0.684075 0
M  V30 24989 H 2438.3 4.14638 0.751899 0
M  V30 24990 H 2436.97 3.02215 1.15964 0
M  V30 24991 H 2435.88 3.57873 -1.08984 0
M  V30 24992 H 2437.21 4.7142 -1.41505 0
M  V30 24993 N 2438.86 0.683613 1.42002 0
M  V30 24994 C 2440.09 0.218218 2.05746 0
M  V30 24995 C 2440.51 -1.12801 1.51398 0
M  V30 24996 O 2439.86 -1.70251 0.657333 0
M  V30 24997 C 2439.92 0.154194 3.61171 0
M  V30 24998 O 2439.64 1.44723 4.13505 0
M  V30 24999 C 2441.14 -0.333635 4.42043 0
M  V30 25000 H 2438.36 0.104031 0.662886 0
M  V30 25001 H 2440.9 0.932832 1.81985 0
M  V30 25002 H 2439.06 -0.511163 3.84013 0
M  V30 25003 H 2439.47 1.32641 5.07451 0
M  V30 25004 H 2440.94 -0.327326 5.51029 0
M  V30 25005 H 2441.42 -1.37045 4.17271 0
M  V30 25006 H 2442.03 0.300297 4.24239 0
M  V30 25007 N 2440.34 -1.5169 0.427538 0
M  V30 25008 C 2441.59 -2.02299 -0.142404 0
M  V30 25009 C 2441.92 -1.31164 -1.43211 0
M  V30 25010 O 2441.2 -0.423545 -1.89832 0
M  V30 25011 C 2441.48 -3.58181 -0.371238 0
M  V30 25012 C 2441.33 -4.39944 0.936436 0
M  V30 25013 C 2442.65 -4.24935 -1.14534 0
M  V30 25014 H 2439.77 -0.735283 -0.0502808 0
M  V30 25015 H 2442.41 -1.81417 0.564616 0
M  V30 25016 H 2440.56 -3.76106 -0.973493 0
M  V30 25017 H 2442.24 -4.33692 1.57192 0
M  V30 25018 H 2440.48 -4.0542 1.54327 0
M  V30 25019 H 2441.15 -5.47145 0.730484 0
M  V30 25020 H 2443.63 -4.11222 -0.63529 0
M  V30 25021 H 2442.5 -5.33905 -1.27421 0
M  V30 25022 H 2442.76 -3.85131 -2.17086 0
M  V30 25023 N 2441.82 -0.15856 -1.568 0
M  V30 25024 C 2443.07 0.49037 -1.96782 0
M  V30 25025 C 2443.4 1.63751 -1.044 0
M  V30 25026 O 2442.68 1.94298 -0.0886146 0
M  V30 25027 C 2442.96 0.985533 -3.46351 0
M  V30 25028 C 2442.81 -0.160903 -4.49512 0
M  V30 25029 C 2444.13 1.86348 -3.98701 0
M  V30 25030 H 2441.25 0.176776 -0.715485 0
M  V30 25031 H 2443.89 -0.242121 -1.88451 0
M  V30 25032 H 2442.04 1.60972 -3.53582 0
M  V30 25033 H 2443.71 -0.797617 -4.54352 0
M  V30 25034 H 2441.96 -0.818331 -4.26011 0
M  V30 25035 H 2442.63 0.227472 -5.51531 0
M  V30 25036 H 2445.1 1.3374 -3.94021 0
M  V30 25037 H 2443.98 2.179 -5.03796 0
M  V30 25038 H 2444.24 2.80464 -3.41749 0
M  V30 25039 N 2443.3 1.57178 0.115204 0
M  V30 25040 C 2444.52 1.89614 0.840321 0
M  V30 25041 C 2444.95 0.750875 1.72463 0
M  V30 25042 O 2444.31 -0.298447 1.78827 0
M  V30 25043 C 2444.36 3.20817 1.64648 0
M  V30 25044 O 2443.46 3.0699 2.75375 0
M  V30 25045 H 2442.8 0.622096 0.232147 0
M  V30 25046 H 2445.33 2.04372 0.0964618 0
M  V30 25047 H 2445.34 3.53631 2.03493 0
M  V30 25048 H 2444.02 4.03765 0.997345 0
M  V30 25049 H 2442.59 2.8565 2.39705 0
M  V30 25050 N 2444.78 -0.38549 1.52813 0
M  V30 25051 C 2445.74 -1.45382 1.77191 0
M  V30 25052 C 2446.74 -1.47429 0.641979 0
M  V30 25053 O 2447.93 -1.48538 0.910059 0
M  V30 25054 C 2445.06 -2.84647 1.87587 0
M  V30 25055 H 2446.26 -1.25049 2.72585 0
M  V30 25056 H 2443.81 -0.617442 1.43587 0
M  V30 25057 H 2444.54 -3.1032 0.941903 0
M  V30 25058 H 2444.33 -2.84562 2.69753 0
M  V30 25059 H 2445.82 -3.6205 2.08109 0
M  V30 25060 N 2446.26 -1.43835 -0.644143 0
M  V30 25061 C 2447.53 -1.36409 -1.40186 0
M  V30 25062 C 2447.91 -0.0163495 -2.11094 0
M  V30 25063 O 2447.26 1.00059 -2.05428 0
M  V30 25064 C 2447.47 -2.55347 -2.37905 0
M  V30 25065 C 2448.82 -2.98837 -3.01631 0
M  V30 25066 O 2449.84 -2.55459 -2.48232 0
M  V30 25067 O 2448.7 -3.7401 -3.9847 0
M  V30 25068 H 2445.8 -0.539534 -0.626764 0
M  V30 25069 H 2448.34 -1.55901 -0.670289 0
M  V30 25070 H 2447.11 -3.45063 -1.84519 0
M  V30 25071 H 2446.74 -2.38001 -3.18498 0
M  V30 25072 N 2447.73 0.883355 -1.30517 0
M  V30 25073 C 2448.66 2.00538 -1.1961 0
M  V30 25074 C 2449.64 1.69881 -0.0863759 0
M  V30 25075 O 2450.83 1.92332 -0.268687 0
M  V30 25076 C 2447.96 3.35734 -0.888817 0
M  V30 25077 C 2446.91 3.80656 -1.95665 0
M  V30 25078 C 2446.24 5.13161 -1.50233 0
M  V30 25079 C 2447.54 3.99207 -3.36795 0
M  V30 25080 H 2449.23 2.09921 -2.13479 0
M  V30 25081 H 2446.78 1.00861 -1.02776 0
M  V30 25082 H 2448.73 4.13753 -0.799167 0
M  V30 25083 H 2447.46 3.26488 0.0855552 0
M  V30 25084 H 2446.12 3.04867 -2.03597 0
M  V30 25085 H 2445.76 5.00344 -0.51618 0
M  V30 25086 H 2445.46 5.44188 -2.21659 0
M  V30 25087 H 2446.99 5.93703 -1.4265 0
M  V30 25088 H 2448.4 4.6766 -3.31613 0
M  V30 25089 H 2446.8 4.41614 -4.06322 0
M  V30 25090 H 2447.87 3.03011 -3.78566 0
M  V30 25091 N 2449.21 1.13259 1.09591 0
M  V30 25092 C 2450.62 0.906302 1.63227 0
M  V30 25093 C 2450.97 -0.557545 1.88111 0
M  V30 25094 O 2450.1 -1.42388 1.62956 0
M  V30 25095 C 2450.69 1.63872 2.96532 0
M  V30 25096 C 2449.25 1.45834 3.47001 0
M  V30 25097 C 2448.4 1.66902 2.21447 0
M  V30 25098 H 2451.35 1.28613 0.929757 0
M  V30 25099 H 2451.37 1.09482 3.64409 0
M  V30 25100 H 2450.88 2.70409 2.78389 0
M  V30 25101 H 2448.98 0.415913 3.70271 0
M  V30 25102 H 2449.1 2.22027 4.24548 0
M  V30 25103 H 2447.46 1.09375 2.3002 0
M  V30 25104 H 2448.24 2.74756 2.05826 0
M  V30 25105 N 2450.69 -1.27539 0.925834 0
M  V30 25106 C 2451.64 -2.28887 0.413937 0
M  V30 25107 C 2452.63 -1.6183 -0.50075 0
M  V30 25108 O 2453.84 -1.75929 -0.380659 0
M  V30 25109 H 2450.21 -0.74311 0.115287 0
M  V30 25110 H 2452.18 -2.69478 1.28156 0
M  V30 25111 C 2450.93 -3.46227 -0.319731 0
M  V30 25112 H 2450.26 -3.98038 0.374916 0
M  V30 25113 H 2451.7 -4.19106 -0.642362 0
M  V30 25114 C 2450.15 -3.0005 -1.53204 0
M  V30 25115 O 2450.68 -3.03562 -2.63084 0
M  V30 25116 N 2448.89 -2.55569 -1.38322 0
M  V30 25117 H 2448.44 -2.52911 -0.489248 0
M  V30 25118 H 2448.4 -2.25035 -2.1956 0
M  V30 25119 N 2452.17 -0.691135 -1.41637 0
M  V30 25120 C 2453.13 -0.0320188 -2.29178 0
M  V30 25121 C 2454.13 0.71247 -1.44154 0
M  V30 25122 O 2455.32 0.548024 -1.65355 0
M  V30 25123 C 2452.45 0.965104 -3.26953 0
M  V30 25124 H 2453.65 -0.802732 -2.88957 0
M  V30 25125 H 2451.2 -0.454382 -1.4955 0
M  V30 25126 H 2451.93 1.76374 -2.72145 0
M  V30 25127 H 2451.72 0.434454 -3.89686 0
M  V30 25128 H 2453.21 1.42421 -3.92563 0
M  V30 25129 N 2453.65 1.51461 -0.435577 0
M  V30 25130 C 2454.6 2.24558 0.394661 0
M  V30 25131 C 2455.58 1.26717 0.991548 0
M  V30 25132 O 2456.77 1.51817 0.90998 0
M  V30 25133 C 2453.9 3.08978 1.49624 0
M  V30 25134 C 2452.99 4.14247 0.908839 0
M  V30 25135 N 2453.38 5.05775 0.0504446 0
M  V30 25136 C 2451.68 4.302 1.17661 0
M  V30 25137 C 2452.38 5.81029 -0.279263 0
M  V30 25138 N 2451.35 5.42556 0.336672 0
M  V30 25139 H 2455.15 2.92683 -0.267158 0
M  V30 25140 H 2452.67 1.60502 -0.247546 0
M  V30 25141 H 2454.67 3.5992 2.10387 0
M  V30 25142 H 2453.33 2.42396 2.16042 0
M  V30 25143 H 2454.34 5.16936 -0.315861 0
M  V30 25144 H 2451.01 3.74845 1.8384 0
M  V30 25145 H 2452.4 6.64749 -0.97767 0
M  V30 25146 N 2455.12 0.166873 1.56714 0
M  V30 25147 C 2456.37 -0.478271 1.96359 0
M  V30 25148 C 2456.69 -1.64078 1.05373 0
M  V30 25149 O 2455.96 -1.95537 0.119189 0
M  V30 25150 H 2454.54 -0.17968 0.725068 0
M  V30 25151 H 2457.21 0.247018 1.93328 0
M  V30 25152 H 2456.3 -0.84124 3.00549 0
M  V30 25153 N 2456.6 -1.57237 -0.106866 0
M  V30 25154 C 2457.53 -2.04256 -1.13145 0
M  V30 25155 C 2458.51 -0.929249 -1.42474 0
M  V30 25156 O 2459.7 -1.19976 -1.52707 0
M  V30 25157 C 2456.83 -2.4571 -2.45446 0
M  V30 25158 C 2455.78 -3.60597 -2.30552 0
M  V30 25159 C 2455.11 -3.87989 -3.67925 0
M  V30 25160 C 2456.41 -4.919 -1.75588 0
M  V30 25161 H 2458.1 -2.90103 -0.740323 0
M  V30 25162 H 2455.65 -1.39564 -0.354672 0
M  V30 25163 H 2457.6 -2.7721 -3.17384 0
M  V30 25164 H 2456.33 -1.56848 -2.86472 0
M  V30 25165 H 2454.98 -3.29325 -1.61061 0
M  V30 25166 H 2454.63 -2.96314 -4.06457 0
M  V30 25167 H 2454.33 -4.65328 -3.58808 0
M  V30 25168 H 2455.86 -4.21953 -4.41348 0
M  V30 25169 H 2457.27 -5.21858 -2.37355 0
M  V30 25170 H 2455.67 -5.73322 -1.77262 0
M  V30 25171 H 2456.74 -4.79609 -0.714367 0
M  V30 25172 N 2458.08 0.377381 -1.53015 0
M  V30 25173 C 2459.04 1.44441 -1.77959 0
M  V30 25174 C 2460.04 1.47086 -0.649789 0
M  V30 25175 O 2461.23 1.48053 -0.917923 0
M  V30 25176 C 2458.37 2.83648 -1.89094 0
M  V30 25177 H 2459.56 1.23602 -2.73245 0
M  V30 25178 H 2457.11 0.609819 -1.43913 0
M  V30 25179 H 2457.85 3.09816 -0.958347 0
M  V30 25180 H 2457.63 2.83128 -2.71258 0
M  V30 25181 H 2459.12 3.60942 -2.10026 0
M  V30 25182 N 2459.56 1.44175 0.636506 0
M  V30 25183 C 2460.8 1.46892 1.39823 0
M  V30 25184 C 2461.14 0.0990926 1.93947 0
M  V30 25185 O 2460.41 -0.882514 1.73326 0
M  V30 25186 C 2460.7 2.52494 2.56746 0
M  V30 25187 C 2460.55 3.98815 2.08007 0
M  V30 25188 C 2461.87 2.54655 3.58941 0
M  V30 25189 H 2458.99 0.534839 0.507066 0
M  V30 25190 H 2461.63 1.75823 0.720157 0
M  V30 25191 H 2459.78 2.27955 3.14593 0
M  V30 25192 H 2461.45 4.34468 1.55032 0
M  V30 25193 H 2459.69 4.10848 1.39235 0
M  V30 25194 H 2460.36 4.68344 2.92161 0
M  V30 25195 H 2462.84 2.76568 3.10885 0
M  V30 25196 H 2461.72 3.30457 4.3828 0
M  V30 25197 H 2461.98 1.58653 4.12652 0
M  V30 25198 N 2461.04 -0.876421 1.30983 0
M  V30 25199 C 2462.31 -1.61092 1.10945 0
M  V30 25200 C 2462.69 -2.08373 -0.338187 0
M  V30 25201 O 2462.04 -1.85719 -1.33119 0
M  V30 25202 C 2462.25 -2.77388 2.11794 0
M  V30 25203 C 2463.6 -3.4751 2.43971 0
M  V30 25204 O 2464.62 -2.87587 2.10171 0
M  V30 25205 O 2463.48 -4.55592 3.01825 0
M  V30 25206 H 2460.58 -0.708429 0.426682 0
M  V30 25207 H 2463.12 -0.922449 1.42439 0
M  V30 25208 H 2461.89 -2.39817 3.09198 0
M  V30 25209 H 2461.52 -3.53927 1.81167 0
M  V30 25210 N 2462.51 -1.13839 -1.08989 0
M  V30 25211 C 2463.76 -0.914202 -1.81697 0
M  V30 25212 C 2464.12 0.553562 -1.84265 0
M  V30 25213 O 2463.41 1.40458 -1.30315 0
M  V30 25214 C 2463.6 -1.44153 -3.27039 0
M  V30 25215 C 2463.43 -2.95903 -3.38632 0
M  V30 25216 C 2462.2 -3.64292 -3.5017 0
M  V30 25217 C 2464.4 -3.9381 -3.30784 0
M  V30 25218 N 2462.38 -5.04012 -3.50493 0
M  V30 25219 C 2463.75 -5.19747 -3.38028 0
M  V30 25220 C 2465.81 -3.86013 -3.14481 0
M  V30 25221 C 2464.51 -6.38799 -3.30648 0
M  V30 25222 C 2466.54 -5.04604 -3.08429 0
M  V30 25223 C 2465.9 -6.29407 -3.16269 0
M  V30 25224 H 2462 -0.387991 -0.67896 0
M  V30 25225 H 2464.58 -1.44743 -1.30221 0
M  V30 25226 H 2462.75 -0.935157 -3.76974 0
M  V30 25227 H 2464.48 -1.15787 -3.87783 0
M  V30 25228 H 2461.24 -3.14826 -3.5381 0
M  V30 25229 H 2461.66 -5.76934 -3.54226 0
M  V30 25230 H 2466.31 -2.90405 -3.07286 0
M  V30 25231 H 2464.02 -7.34658 -3.36605 0
M  V30 25232 H 2467.61 -5.00316 -2.96943 0
M  V30 25233 H 2466.49 -7.19632 -3.11608 0
M  V30 25234 N 2463.99 1.27046 -0.932584 0
M  V30 25235 C 2465.24 1.94435 -0.576446 0
M  V30 25236 C 2465.57 1.73074 0.88086 0
M  V30 25237 O 2464.85 1.06267 1.62903 0
M  V30 25238 C 2465.13 3.48436 -0.909093 0
M  V30 25239 C 2464.98 3.79119 -2.42051 0
M  V30 25240 C 2466.3 4.38106 -0.418418 0
M  V30 25241 H 2463.42 0.70618 -0.2109 0
M  V30 25242 H 2466.06 1.50073 -1.16525 0
M  V30 25243 H 2464.21 3.86352 -0.408015 0
M  V30 25244 H 2465.88 3.50967 -2.99365 0
M  V30 25245 H 2464.13 3.25498 -2.86763 0
M  V30 25246 H 2464.8 4.86731 -2.60378 0
M  V30 25247 H 2467.27 4.07369 -0.847928 0
M  V30 25248 H 2466.15 5.44671 -0.680076 0
M  V30 25249 H 2466.41 4.36815 0.681566 0
M  V30 25250 N 2465.47 0.698636 1.41269 0
M  V30 25251 C 2466.7 0.238548 2.06024 0
M  V30 25252 C 2467.12 -1.10472 1.52242 0
M  V30 25253 O 2466.48 -1.69222 0.650653 0
M  V30 25254 C 2466.53 0.210016 3.59988 0
M  V30 25255 O 2465.63 -0.814164 4.04283 0
M  V30 25256 H 2464.97 0.115787 0.653827 0
M  V30 25257 H 2467.5 0.954357 1.80978 0
M  V30 25258 H 2467.51 0.0419154 4.07978 0
M  V30 25259 H 2466.19 1.19037 3.98501 0
M  V30 25260 H 2464.76 -0.615169 3.67791 0
M  V30 25261 N 2466.95 -1.51228 0.443603 0
M  V30 25262 C 2468.36 -1.5931 0.0962281 0
M  V30 25263 C 2468.56 -1.45405 -1.39498 0
M  V30 25264 O 2467.62 -1.29847 -2.16555 0
M  V30 25265 C 2468.93 -2.94198 0.621926 0
M  V30 25266 C 2470.48 -3.07524 0.582919 0
M  V30 25267 C 2470.96 -4.44946 1.0857 0
M  V30 25268 N 2472.45 -4.51283 1.04395 0
M  V30 25269 C 2473.18 -5.55951 1.40377 0
M  V30 25270 N 2472.68 -6.68008 1.83676 0
M  V30 25271 N 2474.47 -5.46344 1.32154 0
M  V30 25272 H 2466.62 -1.58511 1.41379 0
M  V30 25273 H 2468.89 -0.747556 0.582978 0
M  V30 25274 H 2468.59 -3.09764 1.66552 0
M  V30 25275 H 2468.47 -3.77166 0.0502788 0
M  V30 25276 H 2470.85 -2.91623 -0.451698 0
M  V30 25277 H 2470.93 -2.2638 1.19104 0
M  V30 25278 H 2470.58 -4.61594 2.11881 0
M  V30 25279 H 2470.51 -5.24639 0.454049 0
M  V30 25280 H 2473 -3.7086 0.726051 0
M  V30 25281 H 2473.31 -7.43903 2.09353 0
M  V30 25282 H 2471.66 -6.692 1.87608 0
M  V30 25283 H 2474.85 -4.57686 0.981888 0
M  V30 25284 H 2475.02 -6.27802 1.60525 0
M  V30 25285 N 2468.43 -0.175182 -1.56623 0
M  V30 25286 C 2469.37 0.770456 -2.19469 0
M  V30 25287 C 2470.37 1.23464 -1.15987 0
M  V30 25288 O 2471.57 1.19985 -1.34178 0
M  V30 25289 H 2467.95 0.266749 -0.7031 0
M  V30 25290 H 2469.92 0.216489 -2.97614 0
M  V30 25291 C 2468.67 1.98791 -2.85267 0
M  V30 25292 H 2467.99 1.63976 -3.64626 0
M  V30 25293 H 2469.43 2.62837 -3.32705 0
M  V30 25294 C 2467.89 2.81401 -1.85244 0
M  V30 25295 O 2468.42 3.7868 -1.34031 0
M  V30 25296 N 2466.63 2.46492 -1.53915 0
M  V30 25297 H 2466.17 1.67446 -1.95754 0
M  V30 25298 H 2466.13 3.02053 -0.872435 0
M  V30 25299 N 2469.91 1.57292 0.0985263 0
M  V30 25300 C 2470.84 2.04853 1.1206 0
M  V30 25301 C 2471.82 0.936792 1.4198 0
M  V30 25302 O 2473 1.20784 1.52069 0
M  V30 25303 C 2470.13 2.47008 2.4414 0
M  V30 25304 C 2469.09 3.61814 2.28636 0
M  V30 25305 C 2468.41 3.89935 3.65862 0
M  V30 25306 C 2469.71 4.92825 1.72977 0
M  V30 25307 H 2471.41 2.90491 0.724928 0
M  V30 25308 H 2468.95 1.3975 0.347266 0
M  V30 25309 H 2470.9 2.78889 3.15909 0
M  V30 25310 H 2469.63 1.58365 2.85636 0
M  V30 25311 H 2468.29 3.30174 1.59312 0
M  V30 25312 H 2467.94 2.98465 4.0488 0
M  V30 25313 H 2467.64 4.67224 3.56336 0
M  V30 25314 H 2469.16 4.24288 4.39104 0
M  V30 25315 H 2470.57 5.23109 2.34584 0
M  V30 25316 H 2468.97 5.74254 1.74219 0
M  V30 25317 H 2470.04 4.79981 0.688922 0
M  V30 25318 N 2471.38 -0.369261 1.53213 0
M  V30 25319 C 2472.63 -1.11229 1.69217 0
M  V30 25320 C 2472.96 -1.89409 0.442081 0
M  V30 25321 O 2472.21 -1.87034 -0.575911 0
M  V30 25322 C 2472.51 -2.10127 2.89104 0
M  V30 25323 C 2472.18 -1.48455 4.2576 0
M  V30 25324 C 2470.84 -1.31363 4.62922 0
M  V30 25325 C 2473.19 -1.03802 5.10759 0
M  V30 25326 C 2470.52 -0.681967 5.82723 0
M  V30 25327 C 2472.87 -0.420376 6.31202 0
M  V30 25328 C 2471.54 -0.23692 6.67079 0
M  V30 25329 H 2470.81 -0.407016 0.619209 0
M  V30 25330 H 2473.45 -0.394519 1.87392 0
M  V30 25331 H 2471.76 -2.88195 2.65426 0
M  V30 25332 H 2473.46 -2.67564 2.98681 0
M  V30 25333 H 2470.05 -1.62751 3.96497 0
M  V30 25334 H 2474.23 -1.15802 4.82601 0
M  V30 25335 H 2469.49 -0.528209 6.09114 0
M  V30 25336 H 2473.66 -0.066165 6.96369 0
M  V30 25337 H 2471.29 0.254611 7.59774 0
M  V30 25338 N 2472.86 -1.4451 -0.628851 0
M  V30 25339 C 2474.11 -1.48625 -1.3886 0
M  V30 25340 C 2474.46 -0.117966 -1.92038 0
M  V30 25341 O 2473.76 0.86713 -1.70855 0
M  V30 25342 C 2473.95 -2.48375 -2.56991 0
M  V30 25343 C 2473.78 -3.94769 -2.15379 0
M  V30 25344 C 2472.55 -4.62927 -2.0255 0
M  V30 25345 C 2474.75 -4.83918 -1.7415 0
M  V30 25346 N 2472.73 -5.94134 -1.54524 0
M  V30 25347 C 2474.1 -6.04587 -1.37386 0
M  V30 25348 C 2476.15 -4.70963 -1.61551 0
M  V30 25349 C 2474.86 -7.13737 -0.892823 0
M  V30 25350 C 2476.88 -5.80141 -1.14852 0
M  V30 25351 C 2476.25 -6.99952 -0.790393 0
M  V30 25352 H 2472.34 -0.598889 -0.502847 0
M  V30 25353 H 2474.93 -1.80851 -0.721178 0
M  V30 25354 H 2473.1 -2.18136 -3.21358 0
M  V30 25355 H 2474.83 -2.42772 -3.23796 0
M  V30 25356 H 2471.59 -4.17774 -2.23074 0
M  V30 25357 H 2472.01 -6.63847 -1.32803 0
M  V30 25358 H 2476.65 -3.78767 -1.8787 0
M  V30 25359 H 2474.37 -8.0574 -0.617149 0
M  V30 25360 H 2477.96 -5.72144 -1.05559 0
M  V30 25361 H 2476.84 -7.82995 -0.434576 0
M  V30 25362 N 2474.34 0.869463 -1.31446 0
M  V30 25363 C 2475.57 1.65532 -1.24125 0
M  V30 25364 C 2475.98 1.87807 0.193354 0
M  V30 25365 O 2475.34 1.43658 1.12555 0
M  V30 25366 C 2475.39 3.023 -1.98234 0
M  V30 25367 O 2475.11 2.8102 -3.36094 0
M  V30 25368 C 2476.61 3.96745 -1.97758 0
M  V30 25369 H 2473.83 0.516048 -0.428878 0
M  V30 25370 H 2476.38 1.08522 -1.7333 0
M  V30 25371 H 2474.53 3.55998 -1.52788 0
M  V30 25372 H 2474.95 3.67895 -3.73836 0
M  V30 25373 H 2476.42 4.90026 -2.54122 0
M  V30 25374 H 2476.9 4.28575 -0.960212 0
M  V30 25375 H 2477.5 3.48984 -2.43085 0
M  V30 25376 N 2475.82 1.14415 1.08383 0
M  V30 25377 C 2477.04 0.936445 1.85055 0
M  V30 25378 C 2477.47 -0.509939 1.81056 0
M  V30 25379 O 2476.83 -1.36271 1.19582 0
M  V30 25380 C 2476.87 1.44223 3.30503 0
M  V30 25381 O 2475.98 0.63448 4.0749 0
M  V30 25382 H 2475.32 0.334794 0.573419 0
M  V30 25383 H 2477.85 1.52144 1.36797 0
M  V30 25384 H 2477.86 1.4505 3.81346 0
M  V30 25385 H 2476.53 2.49528 3.32729 0
M  V30 25386 H 2475.11 0.694967 3.66367 0
M  V30 25387 N 2477.3 -1.26549 0.939309 0
M  V30 25388 C 2478.53 -1.97644 0.601697 0
M  V30 25389 C 2478.93 -1.7016 -0.827176 0
M  V30 25390 O 2478.28 -0.965366 -1.56289 0
M  V30 25391 C 2478.34 -3.51336 0.761787 0
M  V30 25392 C 2478 -4.02466 2.16494 0
M  V30 25393 C 2479 -4.14349 3.14024 0
M  V30 25394 C 2476.68 -4.36523 2.48501 0
M  V30 25395 C 2478.68 -4.59579 4.41662 0
M  V30 25396 C 2476.37 -4.81442 3.76373 0
M  V30 25397 C 2477.36 -4.92931 4.72766 0
M  V30 25398 O 2477.05 -5.3686 5.98361 0
M  V30 25399 H 2476.78 -0.637185 0.225769 0
M  V30 25400 H 2479.34 -1.62073 1.26181 0
M  V30 25401 H 2477.57 -3.86674 0.0445488 0
M  V30 25402 H 2479.26 -4.03642 0.427513 0
M  V30 25403 H 2480.02 -3.88285 2.90619 0
M  V30 25404 H 2475.9 -4.26816 1.74209 0
M  V30 25405 H 2479.45 -4.68461 5.16904 0
M  V30 25406 H 2475.34 -5.06949 3.99591 0
M  V30 25407 H 2476.11 -5.55086 6.01516 0
M  V30 25408 N 2478.77 -0.706118 -1.40896 0
M  V30 25409 C 2480.05 -0.169133 -1.94867 0
M  V30 25410 C 2480.43 1.32315 -1.64487 0
M  V30 25411 O 2479.78 2.07472 -0.957476 0
M  V30 25412 C 2479.99 -0.471715 -3.45797 0
M  V30 25413 C 2481.34 -0.405202 -4.22662 0
M  V30 25414 O 2482.36 -0.40723 -3.53864 0
M  V30 25415 O 2481.22 -0.374479 -5.45215 0
M  V30 25416 H 2478.31 -0.0211497 -0.82673 0
M  V30 25417 H 2480.86 -0.783002 -1.50556 0
M  V30 25418 H 2479.63 -1.50423 -3.61232 0
M  V30 25419 H 2479.25 0.172596 -3.97225 0
M  V30 25420 N 2480.25 1.50991 -0.451617 0
M  V30 25421 C 2481.48 2.06616 0.108298 0
M  V30 25422 C 2481.89 1.31759 1.35222 0
M  V30 25423 O 2481.25 0.381206 1.78474 0
M  V30 25424 C 2481.3 3.59097 0.416127 0
M  V30 25425 O 2481.02 4.31129 -0.778436 0
M  V30 25426 C 2482.52 4.31284 1.02515 0
M  V30 25427 H 2479.74 0.670998 0.00158816 0
M  V30 25428 H 2482.29 1.94398 -0.634806 0
M  V30 25429 H 2480.44 3.71183 1.10914 0
M  V30 25430 H 2480.86 5.22002 -0.511273 0
M  V30 25431 H 2482.33 5.39011 1.19044 0
M  V30 25432 H 2482.81 3.90504 2.01006 0
M  V30 25433 H 2483.41 4.23678 0.371099 0
M  V30 25434 N 2481.73 0.183486 1.56528 0
M  V30 25435 C 2482.68 -0.758806 2.19875 0
M  V30 25436 C 2483.67 -1.22847 1.1664 0
M  V30 25437 O 2484.88 -1.19271 1.34812 0
M  V30 25438 H 2481.25 -0.263016 0.704504 0
M  V30 25439 H 2483.22 -0.200703 2.97724 0
M  V30 25440 C 2481.97 -1.97275 2.86318 0
M  V30 25441 H 2481.3 -1.6204 3.6549 0
M  V30 25442 H 2482.74 -2.61069 3.34094 0
M  V30 25443 C 2481.19 -2.80414 1.86734 0
M  V30 25444 O 2481.72 -3.77964 1.36037 0
M  V30 25445 N 2479.93 -2.45673 1.5522 0
M  V30 25446 H 2479.48 -1.66405 1.96639 0
M  V30 25447 H 2479.44 -3.01586 0.888441 0
M  V30 25448 N 2483.21 -1.57342 -0.0901833 0
M  V30 25449 C 2484.15 -2.02407 -1.10905 0
M  V30 25450 C 2485.12 -0.901276 -1.39521 0
M  V30 25451 O 2486.31 -1.16763 -1.50901 0
M  V30 25452 C 2483.45 -2.4576 -2.42273 0
M  V30 25453 C 2482.56 -3.7158 -2.20346 0
M  V30 25454 C 2481.7 -4.03791 -3.45147 0
M  V30 25455 C 2480.74 -5.22707 -3.18503 0
M  V30 25456 N 2479.87 -5.50646 -4.35584 0
M  V30 25457 H 2484.71 -2.89227 -0.71777 0
M  V30 25458 H 2482.25 -1.43048 -0.342876 0
M  V30 25459 H 2484.21 -2.68941 -3.18946 0
M  V30 25460 H 2482.84 -1.61943 -2.79239 0
M  V30 25461 H 2481.89 -3.55847 -1.34452 0
M  V30 25462 H 2483.2 -4.58398 -1.96653 0
M  V30 25463 H 2482.36 -4.27775 -4.30225 0
M  V30 25464 H 2481.1 -3.15504 -3.71898 0
M  V30 25465 H 2480.1 -4.98538 -2.31818 0
M  V30 25466 H 2481.33 -6.12596 -2.93092 0
M  V30 25467 H 2479.27 -4.65318 -4.62401 0
M  V30 25468 H 2479.19 -6.31846 -4.15099 0
M  V30 25469 H 2480.46 -5.79169 -5.21712 0
M  V30 25470 N 2484.69 0.36113 -1.53407 0
M  V30 25471 C 2485.63 1.44262 -1.80159 0
M  V30 25472 C 2486.6 1.53014 -0.646209 0
M  V30 25473 O 2487.79 1.68832 -0.888848 0
M  V30 25474 C 2484.93 2.8115 -2.00121 0
M  V30 25475 C 2484.04 2.81329 -3.27838 0
M  V30 25476 C 2483.18 4.09822 -3.37964 0
M  V30 25477 C 2482.22 4.0416 -4.59696 0
M  V30 25478 N 2481.35 5.2431 -4.66951 0
M  V30 25479 H 2486.19 1.2075 -2.7244 0
M  V30 25480 H 2483.73 0.585272 -1.34955 0
M  V30 25481 H 2485.69 3.60678 -2.09683 0
M  V30 25482 H 2484.32 3.03052 -1.11172 0
M  V30 25483 H 2483.37 1.94008 -3.27208 0
M  V30 25484 H 2484.68 2.7302 -4.17447 0
M  V30 25485 H 2483.84 4.97767 -3.46861 0
M  V30 25486 H 2482.57 4.2089 -2.4638 0
M  V30 25487 H 2481.58 3.14601 -4.50895 0
M  V30 25488 H 2482.8 3.9469 -5.52627 0
M  V30 25489 H 2480.75 5.35955 -3.7827 0
M  V30 25490 H 2480.67 5.18187 -5.50471 0
M  V30 25491 H 2481.94 6.14075 -4.80137 0
M  V30 25492 N 2486.16 1.44842 0.621179 0
M  V30 25493 C 2487.1 1.48469 1.74613 0
M  V30 25494 C 2488.11 0.376938 1.58376 0
M  V30 25495 O 2489.3 0.643244 1.66507 0
M  V30 25496 C 2486.4 1.31241 3.12456 0
M  V30 25497 C 2485.57 2.55444 3.55059 0
M  V30 25498 C 2484.63 2.32971 4.71817 0
M  V30 25499 O 2483.66 3.06514 4.79623 0
M  V30 25500 N 2484.86 1.36664 5.64184 0
M  V30 25501 H 2487.62 2.45452 1.71969 0
M  V30 25502 H 2485.18 1.40408 0.806052 0
M  V30 25503 H 2487.18 1.14039 3.883 0
M  V30 25504 H 2485.75 0.425855 3.09686 0
M  V30 25505 H 2484.97 2.87856 2.69319 0
M  V30 25506 H 2486.25 3.38033 3.80278 0
M  V30 25507 H 2485.65 0.759442 5.60579 0
M  V30 25508 H 2484.21 1.25437 6.39616 0
M  V30 25509 N 2487.64 -0.862479 1.31905 0
M  V30 25510 C 2488.89 -1.61092 1.21376 0
M  V30 25511 C 2489.2 -1.94302 -0.225006 0
M  V30 25512 O 2490.41 -2.6771 -0.452074 0
M  V30 25513 C 2488.87 -2.90446 2.1253 0
M  V30 25514 C 2488.47 -2.64691 3.61445 0
M  V30 25515 C 2490.22 -3.6845 2.10819 0
M  V30 25516 C 2488.13 -3.89998 4.44585 0
M  V30 25517 H 2487.06 -0.60446 0.450715 0
M  V30 25518 H 2489.71 -0.953 1.56813 0
M  V30 25519 H 2488.09 -3.57653 1.7 0
M  V30 25520 H 2489.26 -2.05844 4.12268 0
M  V30 25521 H 2487.58 -2.00029 3.65209 0
M  V30 25522 H 2490.17 -4.61421 2.70175 0
M  V30 25523 H 2490.52 -4.01581 1.0972 0
M  V30 25524 H 2491.05 -3.08137 2.51588 0
M  V30 25525 H 2487.79 -3.62013 5.46467 0
M  V30 25526 H 2487.31 -4.48269 3.98516 0
M  V30 25527 H 2488.99 -4.57812 4.57184 0
M  V30 25528 N 2489.12 -1.14988 -1.07775 0
M  V30 25529 C 2490.07 -0.838444 -2.16963 0
M  V30 25530 C 2491.06 0.186356 -1.68372 0
M  V30 25531 O 2492.27 0.0418149 -1.79951 0
M  V30 25532 H 2488.64 -0.253451 -0.708002 0
M  V30 25533 H 2490.61 -1.76708 -2.40451 0
M  V30 25534 C 2489.36 -0.339396 -3.4604 0
M  V30 25535 H 2488.69 -1.11934 -3.83811 0
M  V30 25536 H 2490.13 -0.160096 -4.23698 0
M  V30 25537 C 2488.59 0.938268 -3.23571 0
M  V30 25538 O 2489.12 2.0107 -3.47755 0
M  V30 25539 N 2487.32 0.876068 -2.7708 0
M  V30 25540 H 2486.87 0.00317509 -2.576 0
M  V30 25541 H 2486.83 1.73148 -2.62426 0
M  V30 25542 N 2490.6 1.26049 -0.946007 0
M  V30 25543 C 2491.84 1.93813 -0.597036 0
M  V30 25544 C 2492.18 1.73998 0.862454 0
M  V30 25545 O 2491.45 1.07989 1.61767 0
M  V30 25546 C 2491.74 3.47452 -0.945998 0
M  V30 25547 C 2491.59 3.76531 -2.46058 0
M  V30 25548 C 2492.91 4.37638 -0.464862 0
M  V30 25549 H 2490.03 0.703903 -0.218378 0
M  V30 25550 H 2492.67 1.48829 -1.1811 0
M  V30 25551 H 2490.82 3.85897 -0.44897 0
M  V30 25552 H 2492.49 3.47772 -3.03071 0
M  V30 25553 H 2490.73 3.22438 -2.902 0
M  V30 25554 H 2491.4 4.83942 -2.65526 0
M  V30 25555 H 2493.88 4.06447 -0.891087 0
M  V30 25556 H 2492.76 5.43919 -0.737808 0
M  V30 25557 H 2493.02 4.37513 0.635197 0
M  V30 25558 N 2492.08 0.71358 1.4052 0
M  V30 25559 C 2493.04 0.068475 2.29098 0
M  V30 25560 C 2494.04 -0.689446 1.4527 0
M  V30 25561 O 2495.23 -0.521648 1.66206 0
M  V30 25562 C 2492.36 -0.912966 3.28447 0
M  V30 25563 H 2493.55 0.848601 2.87643 0
M  V30 25564 H 2491.11 0.478116 1.48808 0
M  V30 25565 H 2491.84 -1.72022 2.74916 0
M  V30 25566 H 2491.63 -0.372403 3.90328 0
M  V30 25567 H 2493.12 -1.36158 3.9478 0
M  V30 25568 N 2493.55 -1.50749 0.459618 0
M  V30 25569 C 2494.97 -1.59199 0.11312 0
M  V30 25570 C 2495.17 -1.46876 -1.37948 0
M  V30 25571 O 2494.23 -1.32136 -2.15166 0
M  V30 25572 C 2495.54 -2.93522 0.653095 0
M  V30 25573 C 2497.09 -3.06889 0.615503 0
M  V30 25574 C 2497.56 -4.43769 1.13283 0
M  V30 25575 N 2499.05 -4.5015 1.09175 0
M  V30 25576 C 2499.79 -5.54431 1.46266 0
M  V30 25577 N 2499.28 -6.66022 1.90751 0
M  V30 25578 N 2501.08 -5.44911 1.37942 0
M  V30 25579 H 2493.23 -1.57003 1.43052 0
M  V30 25580 H 2495.49 -0.741331 0.590874 0
M  V30 25581 H 2495.2 -3.0798 1.69828 0
M  V30 25582 H 2495.07 -3.77092 0.0902795 0
M  V30 25583 H 2497.46 -2.92085 -0.420742 0
M  V30 25584 H 2497.54 -2.25104 1.21499 0
M  V30 25585 H 2497.18 -4.59321 2.16765 0
M  V30 25586 H 2497.11 -5.24128 0.509668 0
M  V30 25587 H 2499.6 -3.70069 0.765345 0
M  V30 25588 H 2499.92 -7.4164 2.17231 0
M  V30 25589 H 2498.26 -6.67172 1.94695 0
M  V30 25590 H 2501.45 -4.56619 1.03038 0
M  V30 25591 H 2501.63 -6.26064 1.67175 0
M  V30 25592 N 2495.03 -0.191784 -1.56429 0
M  V30 25593 C 2495.96 0.725657 -2.21938 0
M  V30 25594 C 2496.94 1.22378 -1.18142 0
M  V30 25595 O 2498.13 1.27322 -1.46638 0
M  V30 25596 C 2495.26 1.94667 -2.87615 0
M  V30 25597 C 2494.21 1.58359 -3.97626 0
M  V30 25598 C 2493.54 2.88094 -4.50451 0
M  V30 25599 C 2494.84 0.796042 -5.16198 0
M  V30 25600 H 2496.53 0.179554 -2.98861 0
M  V30 25601 H 2494.08 0.0849212 -1.43749 0
M  V30 25602 H 2496.03 2.59367 -3.32124 0
M  V30 25603 H 2494.76 2.51725 -2.08092 0
M  V30 25604 H 2493.41 0.960185 -3.53802 0
M  V30 25605 H 2493.06 3.43235 -3.67694 0
M  V30 25606 H 2492.76 2.64547 -5.2468 0
M  V30 25607 H 2494.29 3.53789 -4.9766 0
M  V30 25608 H 2495.7 1.34608 -5.57273 0
M  V30 25609 H 2494.1 0.658823 -5.96473 0
M  V30 25610 H 2495.17 -0.203563 -4.84473 0
M  V30 25611 N 2496.51 1.57387 0.0818378 0
M  V30 25612 C 2497.79 1.77798 0.815312 0
M  V30 25613 C 2498.17 0.776825 1.96287 0
M  V30 25614 O 2497.52 -0.192066 2.27691 0
M  V30 25615 C 2497.73 3.23981 1.29759 0
M  V30 25616 C 2499.07 3.87533 1.73504 0
M  V30 25617 O 2500.1 3.27811 1.39351 0
M  V30 25618 O 2498.96 4.9258 2.367 0
M  V30 25619 H 2496.05 0.729319 0.389901 0
M  V30 25620 H 2498.6 1.69584 0.0626915 0
M  V30 25621 H 2497.37 3.88394 0.476012 0
M  V30 25622 H 2496.99 3.36879 2.11183 0
M  V30 25623 N 2497.99 -0.35299 1.53596 0
M  V30 25624 C 2499.24 -1.09212 1.70051 0
M  V30 25625 C 2499.56 -1.89462 0.46144 0
M  V30 25626 O 2498.83 -1.88745 -0.5246 0
M  V30 25627 H 2497.41 -0.406179 0.626919 0
M  V30 25628 H 2500.07 -0.396551 1.90823 0
M  V30 25629 H 2499.17 -1.77484 2.56722 0
M  V30 25630 N 2499.47 -1.45169 -0.613489 0
M  V30 25631 C 2500.69 -1.5262 -1.40434 0
M  V30 25632 C 2501.12 -0.15774 -1.87437 0
M  V30 25633 O 2500.48 0.856509 -1.59792 0
M  V30 25634 C 2500.52 -2.51016 -2.58889 0
M  V30 25635 O 2499.63 -2.02388 -3.59323 0
M  V30 25636 H 2498.97 -0.514702 -0.419497 0
M  V30 25637 H 2501.5 -1.90469 -0.747181 0
M  V30 25638 H 2501.51 -2.69629 -3.06209 0
M  V30 25639 H 2500.18 -3.50407 -2.24026 0
M  V30 25640 H 2498.76 -1.93624 -3.18692 0
M  V30 25641 N 2500.95 0.855472 -1.32361 0
M  V30 25642 C 2502.19 1.6096 -1.22875 0
M  V30 25643 C 2502.52 1.93367 0.209624 0
M  V30 25644 O 2501.78 1.57438 1.1624 0
M  V30 25645 C 2502.07 2.93959 -2.0328 0
M  V30 25646 C 2501.74 2.80985 -3.52645 0
M  V30 25647 C 2500.4 2.77154 -3.93369 0
M  V30 25648 C 2502.75 2.66975 -4.47631 0
M  V30 25649 C 2500.08 2.5719 -5.27323 0
M  V30 25650 C 2502.43 2.48548 -5.81727 0
M  V30 25651 C 2501.1 2.43109 -6.21655 0
M  V30 25652 H 2500.37 0.588994 -0.44963 0
M  V30 25653 H 2503.02 0.992414 -1.63779 0
M  V30 25654 H 2501.32 3.59793 -1.55102 0
M  V30 25655 H 2503.02 3.51329 -1.9331 0
M  V30 25656 H 2499.61 2.84791 -3.203 0
M  V30 25657 H 2503.79 2.68981 -4.17089 0
M  V30 25658 H 2499.05 2.51414 -5.57316 0
M  V30 25659 H 2503.22 2.36688 -6.54944 0
M  V30 25660 H 2500.85 2.27399 -7.25392 0
M  V30 25661 N 2502.42 1.15558 1.07164 0
M  V30 25662 C 2503.37 0.854092 2.14415 0
M  V30 25663 C 2504.34 -0.193777 1.64966 0
M  V30 25664 O 2505.53 -0.0609108 1.90703 0
M  V30 25665 C 2502.67 0.351635 3.43304 0
M  V30 25666 C 2501.78 1.4613 4.06534 0
M  V30 25667 C 2500.91 0.914769 5.23264 0
M  V30 25668 C 2499.95 2.00124 5.78461 0
M  V30 25669 N 2499.09 1.47095 6.86518 0
M  V30 25670 H 2503.93 1.77263 2.39545 0
M  V30 25671 H 2501.47 0.884446 1.17541 0
M  V30 25672 H 2503.42 0.0420143 4.17179 0
M  V30 25673 H 2502.05 -0.529981 3.1842 0
M  V30 25674 H 2501.11 1.88706 3.30294 0
M  V30 25675 H 2502.42 2.28152 4.43563 0
M  V30 25676 H 2501.57 0.557804 6.0413 0
M  V30 25677 H 2500.31 0.063744 4.87658 0
M  V30 25678 H 2499.32 2.36701 4.96239 0
M  V30 25679 H 2500.54 2.85607 6.16121 0
M  V30 25680 H 2498.49 0.642313 6.52848 0
M  V30 25681 H 2498.4 2.22742 7.22442 0
M  V30 25682 H 2499.67 1.14229 7.71085 0
M  V30 25683 N 2503.9 -1.25546 0.952678 0
M  V30 25684 C 2504.85 -2.27958 0.462394 0
M  V30 25685 C 2505.84 -1.62855 -0.466311 0
M  V30 25686 O 2507.05 -1.76697 -0.343256 0
M  V30 25687 H 2503.42 -0.740498 0.131023 0
M  V30 25688 H 2505.4 -2.66699 1.33843 0
M  V30 25689 C 2504.14 -3.46827 -0.246219 0
M  V30 25690 H 2503.47 -3.97153 0.459262 0
M  V30 25691 H 2504.91 -4.20374 -0.553319 0
M  V30 25692 C 2503.37 -3.03233 -1.46805 0
M  V30 25693 O 2503.9 -3.09074 -2.56586 0
M  V30 25694 N 2502.1 -2.58445 -1.3287 0
M  V30 25695 H 2501.65 -2.53892 -0.435491 0
M  V30 25696 H 2501.61 -2.29641 -2.14738 0
M  V30 25697 N 2505.38 -0.721022 -1.40139 0
M  V30 25698 C 2506.34 -0.0806236 -2.29058 0
M  V30 25699 C 2507.34 0.681733 -1.45633 0
M  V30 25700 O 2508.53 0.512827 -1.6648 0
M  V30 25701 C 2505.66 0.895535 -3.28927 0
M  V30 25702 H 2506.86 -0.863843 -2.87189 0
M  V30 25703 H 2504.41 -0.486001 -1.48552 0
M  V30 25704 H 2505.15 1.70561 -2.75825 0
M  V30 25705 H 2504.93 0.351698 -3.9052 0
M  V30 25706 H 2506.42 1.34062 -3.95496 0
M  V30 25707 N 2506.86 1.50503 -0.467606 0
M  V30 25708 C 2508.1 2.02606 0.0887176 0
M  V30 25709 C 2508.44 1.34915 1.39683 0
M  V30 25710 O 2507.71 0.473727 1.88643 0
M  V30 25711 C 2507.99 3.5904 0.276143 0
M  V30 25712 C 2507.85 4.37307 -1.05275 0
M  V30 25713 C 2509.17 4.27823 1.03227 0
M  V30 25714 H 2506.29 0.736357 0.0307684 0
M  V30 25715 H 2508.93 1.79856 -0.612517 0
M  V30 25716 H 2507.08 3.78554 0.873433 0
M  V30 25717 H 2508.75 4.29372 -1.68635 0
M  V30 25718 H 2506.99 4.01186 -1.65022 0
M  V30 25719 H 2507.66 5.45016 -0.875293 0
M  V30 25720 H 2510.14 4.12761 0.526038 0
M  V30 25721 H 2509.02 5.37096 1.13221 0
M  V30 25722 H 2509.28 3.90751 2.06799 0
M  V30 25723 N 2508.34 0.200077 1.56325 0
M  V30 25724 C 2509.58 -0.438024 1.98013 0
M  V30 25725 C 2509.91 -1.60925 1.08705 0
M  V30 25726 O 2509.19 -1.93995 0.140098 0
M  V30 25727 C 2509.47 -0.893358 3.48843 0
M  V30 25728 C 2509.33 0.280026 4.48927 0
M  V30 25729 C 2510.64 -1.75712 4.03501 0
M  V30 25730 H 2507.76 -0.157744 0.719921 0
M  V30 25731 H 2510.41 0.292001 1.87743 0
M  V30 25732 H 2508.56 -1.51541 3.57726 0
M  V30 25733 H 2510.23 0.9178 4.52078 0
M  V30 25734 H 2508.47 0.930993 4.23692 0
M  V30 25735 H 2509.14 -0.0811631 5.5194 0
M  V30 25736 H 2511.62 -1.23246 3.97429 0
M  V30 25737 H 2510.49 -2.04467 5.09396 0
M  V30 25738 H 2510.75 -2.71305 3.49065 0
M  V30 25739 N 2509.81 -1.57429 -0.0734901 0
M  V30 25740 C 2510.75 -2.00296 -1.11419 0
M  V30 25741 C 2511.76 -0.90866 -1.35082 0
M  V30 25742 O 2512.95 -1.18656 -1.33353 0
M  V30 25743 C 2510.05 -2.32528 -2.46544 0
M  V30 25744 C 2509.22 -3.63782 -2.42861 0
M  V30 25745 C 2508.28 -3.83704 -3.6008 0
M  V30 25746 O 2507.31 -4.5531 -3.41587 0
M  V30 25747 N 2508.51 -3.25927 -4.80366 0
M  V30 25748 H 2511.27 -2.90186 -0.749155 0
M  V30 25749 H 2508.83 -1.59763 -0.262167 0
M  V30 25750 H 2510.83 -2.4303 -3.23603 0
M  V30 25751 H 2509.4 -1.48536 -2.75056 0
M  V30 25752 H 2508.62 -3.6405 -1.51199 0
M  V30 25753 H 2509.9 -4.49969 -2.37498 0
M  V30 25754 H 2509.3 -2.67803 -4.98295 0
M  V30 25755 H 2507.86 -3.41881 -5.54942 0
M  V30 25756 N 2511.29 0.344839 -1.53781 0
M  V30 25757 C 2512.54 1.08308 -1.70627 0
M  V30 25758 C 2512.86 1.89214 -0.471481 0
M  V30 25759 O 2512.13 1.89021 0.514583 0
M  V30 25760 H 2510.71 0.402848 -0.629065 0
M  V30 25761 H 2513.37 0.386426 -1.91031 0
M  V30 25762 H 2512.47 1.7612 -2.57659 0
M  V30 25763 N 2512.77 1.45492 0.605781 0
M  V30 25764 C 2513.7 1.57146 1.72706 0
M  V30 25765 C 2514.68 0.422913 1.64759 0
M  V30 25766 O 2515.87 0.646279 1.83131 0
M  V30 25767 C 2513 1.53953 3.11313 0
M  V30 25768 C 2511.95 2.67543 3.34073 0
M  V30 25769 C 2511.28 2.49405 4.72971 0
M  V30 25770 C 2512.58 4.09541 3.24151 0
M  V30 25771 H 2514.27 2.51004 1.6321 0
M  V30 25772 H 2511.82 1.20802 0.783769 0
M  V30 25773 H 2513.77 1.60703 3.89554 0
M  V30 25774 H 2512.49 0.566261 3.21654 0
M  V30 25775 H 2511.15 2.60225 2.58222 0
M  V30 25776 H 2510.8 1.50213 4.80047 0
M  V30 25777 H 2510.5 3.25579 4.89154 0
M  V30 25778 H 2512.02 2.58011 5.5341 0
M  V30 25779 H 2513.44 4.18093 3.92264 0
M  V30 25780 H 2511.83 4.86119 3.51863 0
M  V30 25781 H 2512.9 4.31321 2.21563 0
M  V30 25782 N 2514.25 -0.848441 1.32813 0
M  V30 25783 C 2515.16 -1.98975 1.24282 0
M  V30 25784 C 2516.17 -1.73306 0.155206 0
M  V30 25785 O 2517.35 -1.97839 0.377034 0
M  V30 25786 C 2514.42 -3.32781 0.972502 0
M  V30 25787 C 2513.48 -3.7163 2.14917 0
M  V30 25788 C 2512.71 -4.99051 1.89166 0
M  V30 25789 O 2512.93 -5.64222 0.837264 0
M  V30 25790 O 2511.87 -5.35178 2.75442 0
M  V30 25791 H 2515.69 -2.09111 2.20242 0
M  V30 25792 H 2513.28 -0.980032 1.12764 0
M  V30 25793 H 2515.16 -4.12973 0.838504 0
M  V30 25794 H 2513.83 -3.23671 0.0431079 0
M  V30 25795 H 2512.74 -2.91988 2.33867 0
M  V30 25796 H 2514.07 -3.85394 3.06157 0
M  V30 25797 N 2515.73 -1.16125 -1.06549 0
M  V30 25798 C 2516.66 -0.823208 -2.13906 0
M  V30 25799 C 2517.67 0.168401 -1.61927 0
M  V30 25800 O 2518.86 -0.0559933 -1.78412 0
M  V30 25801 C 2515.96 -0.204483 -3.38283 0
M  V30 25802 C 2515.13 -1.23555 -4.19587 0
M  V30 25803 C 2514.19 -0.637103 -5.22329 0
M  V30 25804 O 2513.22 -1.30526 -5.54032 0
M  V30 25805 N 2514.42 0.577373 -5.77622 0
M  V30 25806 H 2517.19 -1.74715 -2.43505 0
M  V30 25807 H 2514.75 -1.05823 -1.22528 0
M  V30 25808 H 2516.74 0.208838 -4.04161 0
M  V30 25809 H 2515.31 0.622958 -3.0633 0
M  V30 25810 H 2514.53 -1.82514 -3.49403 0
M  V30 25811 H 2515.82 -1.93145 -4.70715 0
M  V30 25812 H 2515.21 1.13843 -5.54127 0
M  V30 25813 H 2513.77 0.932939 -6.45089 0
M  V30 25814 N 2517.2 1.25039 -0.959323 0
M  V30 25815 C 2518.62 1.74769 -0.6567 0
M  V30 25816 C 2518.97 1.77881 0.827821 0
M  V30 25817 O 2518.09 1.40272 1.64781 0
M  V30 25818 C 2518.69 3.17387 -1.18535 0
M  V30 25819 C 2517.25 3.64659 -0.932798 0
M  V30 25820 C 2516.39 2.43562 -1.32563 0
M  V30 25821 H 2519.34 1.1086 -1.1356 0
M  V30 25822 H 2519.36 3.76538 -0.547649 0
M  V30 25823 H 2518.88 3.15091 -2.26582 0
M  V30 25824 H 2516.98 3.72364 0.132505 0
M  V30 25825 H 2517.09 4.52557 -1.57256 0
M  V30 25826 H 2515.45 2.43591 -0.743999 0
M  V30 25827 H 2516.24 2.43953 -2.41541 0
M  V30 25828 N 2518.68 0.728444 1.39755 0
M  V30 25829 C 2519.63 0.0603824 2.2792 0
M  V30 25830 C 2520.62 -0.719373 1.43923 0
M  V30 25831 O 2521.81 -0.58946 1.66896 0
M  V30 25832 C 2518.94 -0.851045 3.32584 0
M  V30 25833 C 2518.02 -0.0657896 4.24049 0
M  V30 25834 N 2518.41 0.957665 4.96651 0
M  V30 25835 C 2516.71 -0.296431 4.45014 0
M  V30 25836 C 2517.41 1.43062 5.63834 0
M  V30 25837 N 2516.39 0.750409 5.38396 0
M  V30 25838 H 2520.19 0.844599 2.81503 0
M  V30 25839 H 2517.71 0.562182 1.52359 0
M  V30 25840 H 2519.7 -1.34507 3.94605 0
M  V30 25841 H 2518.36 -1.6345 2.80561 0
M  V30 25842 H 2519.37 1.33886 5.00295 0
M  V30 25843 H 2516.05 -1.0552 4.03945 0
M  V30 25844 H 2517.44 2.28174 6.3197 0
M  V30 25845 N 2520.16 -1.50253 0.475581 0
M  V30 25846 C 2521.41 -2.01951 -0.0777025 0
M  V30 25847 C 2521.73 -1.35934 -1.39811 0
M  V30 25848 O 2521 -0.506156 -1.89248 0
M  V30 25849 H 2519.58 -0.746327 -0.0317059 0
M  V30 25850 H 2522.24 -1.84538 0.627028 0
M  V30 25851 H 2521.34 -3.11281 -0.225941 0
M  V30 25852 N 2521.64 -0.208365 -1.56217 0
M  V30 25853 C 2522.57 0.702077 -2.22695 0
M  V30 25854 C 2523.55 1.21118 -1.19434 0
M  V30 25855 O 2524.73 1.2576 -1.4798 0
M  V30 25856 C 2521.86 1.91605 -2.89663 0
M  V30 25857 C 2520.82 1.54133 -3.99283 0
M  V30 25858 C 2520.14 2.833 -4.53481 0
M  V30 25859 C 2521.44 0.741248 -5.17013 0
M  V30 25860 H 2523.14 0.147846 -2.99035 0
M  V30 25861 H 2520.68 0.0696698 -1.43831 0
M  V30 25862 H 2522.64 2.5583 -3.34857 0
M  V30 25863 H 2521.36 2.49504 -2.1075 0
M  V30 25864 H 2520.02 0.922606 -3.54801 0
M  V30 25865 H 2519.67 3.39316 -3.71314 0
M  V30 25866 H 2519.37 2.58967 -5.27456 0
M  V30 25867 H 2520.89 3.48491 -5.01385 0
M  V30 25868 H 2522.31 1.2869 -5.5867 0
M  V30 25869 H 2520.7 0.595522 -5.97138 0
M  V30 25870 H 2521.77 -0.254936 -4.84229 0
M  V30 25871 N 2523.12 1.57465 0.0651402 0
M  V30 25872 C 2524.36 1.87852 0.76416 0
M  V30 25873 C 2524.7 0.801526 1.76888 0
M  V30 25874 O 2523.97 -0.187494 1.93594 0
M  V30 25875 C 2524.25 3.289 1.46619 0
M  V30 25876 C 2524.11 4.47259 0.477436 0
M  V30 25877 C 2525.43 3.68285 2.40944 0
M  V30 25878 H 2522.54 0.683232 0.276339 0
M  V30 25879 H 2525.19 1.8998 0.0272534 0
M  V30 25880 H 2523.34 3.27216 2.09433 0
M  V30 25881 H 2525.01 4.61069 -0.146003 0
M  V30 25882 H 2523.25 4.33308 -0.206652 0
M  V30 25883 H 2523.92 5.42748 1.0064 0
M  V30 25884 H 2526.4 3.71105 1.88203 0
M  V30 25885 H 2525.27 4.67852 2.87064 0
M  V30 25886 H 2525.54 2.98576 3.26044 0
M  V30 25887 N 2524.59 -0.336679 1.53962 0
M  V30 25888 C 2525.84 -1.07774 1.71792 0
M  V30 25889 C 2526.17 -1.8809 0.483296 0
M  V30 25890 O 2525.45 -1.87428 -0.519714 0
M  V30 25891 C 2525.73 -2.01328 2.98561 0
M  V30 25892 C 2525.58 -1.24429 4.32247 0
M  V30 25893 C 2526.9 -3.01046 3.21028 0
M  V30 25894 H 2524.02 -0.390415 0.625096 0
M  V30 25895 H 2526.66 -0.355637 1.86642 0
M  V30 25896 H 2524.81 -2.62903 2.86032 0
M  V30 25897 H 2526.49 -0.654162 4.56638 0
M  V30 25898 H 2524.73 -0.546383 4.30345 0
M  V30 25899 H 2525.4 -1.93054 5.1714 0
M  V30 25900 H 2527.88 -2.49589 3.32933 0
M  V30 25901 H 2526.75 -3.63702 4.1111 0
M  V30 25902 H 2527.01 -3.72798 2.37643 0
M  V30 25903 N 2526.07 -1.45812 -0.598057 0
M  V30 25904 C 2527.02 -1.51632 -1.7027 0
M  V30 25905 C 2528.01 -0.378656 -1.56381 0
M  V30 25906 O 2529.2 -0.626116 -1.65556 0
M  V30 25907 C 2526.33 -1.49498 -3.09039 0
M  V30 25908 C 2525.41 -2.68502 -3.2828 0
M  V30 25909 N 2525.8 -3.93541 -3.17741 0
M  V30 25910 C 2524.1 -2.64401 -3.59177 0
M  V30 25911 C 2524.8 -4.73016 -3.38571 0
M  V30 25912 N 2523.78 -4.0463 -3.63009 0
M  V30 25913 H 2527.58 -2.46121 -1.60629 0
M  V30 25914 H 2525.1 -1.41237 -0.801617 0
M  V30 25915 H 2527.09 -1.51754 -3.88299 0
M  V30 25916 H 2525.75 -0.560739 -3.19822 0
M  V30 25917 H 2526.76 -4.2502 -2.95937 0
M  V30 25918 H 2523.44 -1.79929 -3.76738 0
M  V30 25919 H 2524.83 -5.82006 -3.35736 0
M  V30 25920 N 2527.55 0.841385 -1.33261 0
M  V30 25921 C 2528.96 1.41267 -1.22068 0
M  V30 25922 C 2529.31 1.95535 0.161445 0
M  V30 25923 O 2528.44 1.8861 1.06091 0
M  V30 25924 C 2529.03 2.56796 -2.21001 0
M  V30 25925 C 2527.59 3.09885 -2.13655 0
M  V30 25926 C 2526.74 1.82675 -2.08626 0
M  V30 25927 H 2529.69 0.64737 -1.44896 0
M  V30 25928 H 2529.71 3.34353 -1.81626 0
M  V30 25929 H 2529.22 2.17268 -3.21584 0
M  V30 25930 H 2527.32 3.53963 -1.16366 0
M  V30 25931 H 2527.44 3.70228 -3.04085 0
M  V30 25932 H 2525.8 2.02821 -1.54064 0
M  V30 25933 H 2526.58 1.45347 -3.11013 0
M  V30 25934 N 2529.03 1.16688 1.05932 0
M  V30 25935 C 2529.96 0.899986 2.15459 0
M  V30 25936 C 2530.94 -0.155124 1.69391 0
M  V30 25937 O 2532.13 -0.00645279 1.94199 0
M  V30 25938 C 2529.26 0.404301 3.44939 0
M  V30 25939 C 2528.21 1.39774 4.04533 0
M  V30 25940 C 2527.54 0.760309 5.29267 0
M  V30 25941 C 2528.84 2.76853 4.42888 0
M  V30 25942 H 2530.53 1.81592 2.38043 0
M  V30 25943 H 2528.08 0.874534 1.14402 0
M  V30 25944 H 2530.03 0.205045 4.20901 0
M  V30 25945 H 2528.75 -0.54715 3.21984 0
M  V30 25946 H 2527.41 1.58361 3.30632 0
M  V30 25947 H 2527.06 -0.197743 5.02611 0
M  V30 25948 H 2526.76 1.42342 5.70099 0
M  V30 25949 H 2528.28 0.571157 6.07923 0
M  V30 25950 H 2529.7 2.62028 5.09916 0
M  V30 25951 H 2528.09 3.39672 4.94715 0
M  V30 25952 H 2529.16 3.31829 3.53578 0
M  V30 25953 N 2530.51 -1.24529 0.96594 0
M  V30 25954 C 2531.92 -1.44754 0.672185 0
M  V30 25955 C 2532.12 -1.86349 -0.766576 0
M  V30 25956 O 2531.18 -2.0005 -1.54066 0
M  V30 25957 C 2532.49 -2.51073 1.65478 0
M  V30 25958 C 2534.04 -2.64902 1.66721 0
M  V30 25959 C 2534.52 -3.74417 2.63773 0
M  V30 25960 N 2536.01 -3.81841 2.62205 0
M  V30 25961 C 2536.74 -4.661 3.33974 0
M  V30 25962 N 2536.24 -5.54559 4.15254 0
M  V30 25963 N 2538.03 -4.60165 3.22807 0
M  V30 25964 H 2530.18 -0.95826 1.89555 0
M  V30 25965 H 2532.44 -0.482565 0.815987 0
M  V30 25966 H 2532.15 -2.27394 2.683 0
M  V30 25967 H 2532.02 -3.492 1.42616 0
M  V30 25968 H 2534.41 -2.8794 0.646108 0
M  V30 25969 H 2534.49 -1.67139 1.93645 0
M  V30 25970 H 2534.14 -3.52129 3.66016 0
M  V30 25971 H 2534.07 -4.7169 2.34129 0
M  V30 25972 H 2536.56 -3.18616 2.03205 0
M  V30 25973 H 2536.87 -6.15805 4.66909 0
M  V30 25974 H 2535.22 -5.5423 4.1935 0
M  V30 25975 H 2538.41 -3.90071 2.58771 0
M  V30 25976 H 2538.58 -5.25605 3.79003 0
M  V30 25977 N 2531.99 -0.735845 -1.39367 0
M  V30 25978 C 2533.23 -0.283597 -2.001 0
M  V30 25979 C 2533.55 1.13335 -1.58682 0
M  V30 25980 O 2532.82 1.77192 -0.835454 0
M  V30 25981 H 2531.4 -0.101864 -0.740022 0
M  V30 25982 H 2534.07 -0.945992 -1.70402 0
M  V30 25983 H 2533.16 -0.332658 -3.10322 0
M  V30 25984 N 2533.46 1.49999 -0.483543 0
M  V30 25985 C 2534.41 2.28788 0.304124 0
M  V30 25986 C 2535.38 1.34394 0.97609 0
M  V30 25987 O 2536.57 1.63341 0.986128 0
M  V30 25988 C 2533.71 3.16615 1.37292 0
M  V30 25989 C 2532.82 4.26051 0.714486 0
M  V30 25990 C 2531.95 5.01117 1.76223 0
M  V30 25991 C 2530.99 6.02412 1.08472 0
M  V30 25992 N 2530.13 6.7071 2.07588 0
M  V30 25993 H 2534.97 2.95643 -0.374033 0
M  V30 25994 H 2532.51 1.45784 -0.1963 0
M  V30 25995 H 2534.46 3.65896 2.00439 0
M  V30 25996 H 2533.09 2.51779 2.02007 0
M  V30 25997 H 2532.15 3.80388 -0.0298467 0
M  V30 25998 H 2533.46 4.98474 0.180296 0
M  V30 25999 H 2532.61 5.5418 2.46919 0
M  V30 26000 H 2531.35 4.28428 2.33025 0
M  V30 26001 H 2530.36 5.48597 0.363448 0
M  V30 26002 H 2531.58 6.7708 0.523432 0
M  V30 26003 H 2529.53 6.00804 2.63384 0
M  V30 26004 H 2529.44 7.3905 1.59188 0
M  V30 26005 H 2530.71 7.28385 2.77626 0
M  V30 26006 N 2534.94 0.216646 1.56104 0
M  V30 26007 C 2535.87 -0.690257 2.23064 0
M  V30 26008 C 2536.85 -1.20483 1.20074 0
M  V30 26009 O 2538.04 -1.24973 1.48645 0
M  V30 26010 C 2535.17 -1.90066 2.90675 0
M  V30 26011 C 2534.12 -1.52013 4.00095 0
M  V30 26012 C 2533.45 -2.80891 4.54977 0
M  V30 26013 C 2534.75 -0.713819 5.17399 0
M  V30 26014 H 2536.44 -0.131985 2.99109 0
M  V30 26015 H 2533.99 -0.0620411 1.43866 0
M  V30 26016 H 2535.94 -2.54051 3.36209 0
M  V30 26017 H 2534.66 -2.48382 2.1207 0
M  V30 26018 H 2533.32 -0.903777 3.55285 0
M  V30 26019 H 2532.97 -3.37342 3.73108 0
M  V30 26020 H 2532.67 -2.56166 5.28822 0
M  V30 26021 H 2534.2 -3.45827 5.03226 0
M  V30 26022 H 2535.61 -1.25725 5.59344 0
M  V30 26023 H 2534.01 -0.563846 5.97445 0
M  V30 26024 H 2535.08 0.280613 4.84087 0
M  V30 26025 N 2536.42 -1.57498 -0.0567885 0
M  V30 26026 C 2537.65 -1.91936 -0.764482 0
M  V30 26027 C 2538.06 -0.8123 -1.70875 0
M  V30 26028 O 2537.4 0.222181 -1.82351 0
M  V30 26029 C 2537.46 -3.21965 -1.59935 0
M  V30 26030 C 2537.13 -4.49531 -0.822846 0
M  V30 26031 C 2538.12 -5.19724 -0.135373 0
M  V30 26032 C 2535.81 -4.96119 -0.785579 0
M  V30 26033 C 2537.8 -6.34765 0.578973 0
M  V30 26034 C 2535.49 -6.11063 -0.067471 0
M  V30 26035 C 2536.49 -6.80238 0.613591 0
M  V30 26036 O 2536.18 -7.92987 1.3201 0
M  V30 26037 H 2535.91 -0.638634 -0.221636 0
M  V30 26038 H 2538.46 -2.05383 -0.0267857 0
M  V30 26039 H 2536.69 -3.04768 -2.3802 0
M  V30 26040 H 2538.38 -3.41937 -2.18709 0
M  V30 26041 H 2539.15 -4.84751 -0.155373 0
M  V30 26042 H 2535.03 -4.42139 -1.30516 0
M  V30 26043 H 2538.57 -6.88694 1.11112 0
M  V30 26044 H 2534.47 -6.45484 -0.0454501 0
M  V30 26045 H 2535.23 -8.09191 1.23091 0
M  V30 26046 N 2537.9 0.328509 -1.54138 0
M  V30 26047 C 2539.14 1.06485 -1.73299 0
M  V30 26048 C 2539.5 1.85844 -0.49799 0
M  V30 26049 O 2538.79 1.847 0.509559 0
M  V30 26050 C 2538.99 2.02388 -2.94574 0
M  V30 26051 C 2538.81 1.32459 -4.2975 0
M  V30 26052 C 2537.58 1.06315 -4.93989 0
M  V30 26053 C 2539.78 0.743047 -5.08904 0
M  V30 26054 N 2537.76 0.331252 -6.13006 0
M  V30 26055 C 2539.14 0.142493 -6.19836 0
M  V30 26056 C 2541.19 0.645373 -4.937 0
M  V30 26057 C 2539.89 -0.546251 -7.17223 0
M  V30 26058 C 2541.92 -0.0296598 -5.91393 0
M  V30 26059 C 2541.28 -0.619179 -7.01673 0
M  V30 26060 H 2537.38 0.373527 -0.687024 0
M  V30 26061 H 2539.96 0.346626 -1.9159 0
M  V30 26062 H 2538.14 2.71488 -2.77757 0
M  V30 26063 H 2539.87 2.68972 -3.02384 0
M  V30 26064 H 2536.62 1.3542 -4.53826 0
M  V30 26065 H 2537.05 -0.0204129 -6.76997 0
M  V30 26066 H 2541.69 1.08687 -4.08591 0
M  V30 26067 H 2539.41 -0.9996 -8.01894 0
M  V30 26068 H 2542.99 -0.104807 -5.81706 0
M  V30 26069 H 2541.87 -1.13323 -7.75969 0
M  V30 26070 N 2539.38 1.46127 0.590316 0
M  V30 26071 C 2540.6 1.546 1.37501 0
M  V30 26072 C 2541.02 0.18448 1.87897 0
M  V30 26073 O 2540.38 -0.816956 1.63193 0
M  V30 26074 C 2540.43 2.54458 2.56775 0
M  V30 26075 O 2540.15 3.85321 2.08469 0
M  V30 26076 C 2541.65 2.72798 3.49423 0
M  V30 26077 H 2538.87 0.523045 0.420316 0
M  V30 26078 H 2541.41 1.91468 0.71835 0
M  V30 26079 H 2539.57 2.20615 3.18446 0
M  V30 26080 H 2539.98 4.39605 2.8609 0
M  V30 26081 H 2541.46 3.46608 4.29613 0
M  V30 26082 H 2541.93 1.79436 4.00873 0
M  V30 26083 H 2542.54 3.07707 2.93592 0
M  V30 26084 N 2540.85 -0.834306 1.33705 0
M  V30 26085 C 2542.13 -1.57481 1.16014 0
M  V30 26086 C 2542.51 -2.09344 -0.271723 0
M  V30 26087 O 2541.86 -1.8986 -1.27143 0
M  V30 26088 C 2542.07 -2.7051 2.20512 0
M  V30 26089 C 2543.42 -3.39572 2.54904 0
M  V30 26090 O 2544.44 -2.80755 2.19214 0
M  V30 26091 O 2543.3 -4.45759 3.16166 0
M  V30 26092 H 2540.39 -0.694495 0.449004 0
M  V30 26093 H 2542.94 -0.876666 1.45302 0
M  V30 26094 H 2541.71 -2.29859 3.16671 0
M  V30 26095 H 2541.33 -3.47984 1.92335 0
M  V30 26096 N 2542.33 -1.17248 -1.05312 0
M  V30 26097 C 2543.58 -0.958225 -1.77939 0
M  V30 26098 C 2543.9 0.514523 -1.8809 0
M  V30 26099 O 2543.17 1.37357 -1.39678 0
M  V30 26100 H 2541.75 -0.351545 -0.659109 0
M  V30 26101 H 2544.41 -1.47701 -1.27163 0
M  V30 26102 H 2543.51 -1.38551 -2.79661 0
M  V30 26103 N 2543.81 1.24015 -0.972531 0
M  V30 26104 C 2545.09 1.87597 -0.553766 0
M  V30 26105 C 2545.47 1.8754 0.969125 0
M  V30 26106 O 2544.82 1.35142 1.84252 0
M  V30 26107 C 2545.03 3.2948 -1.15082 0
M  V30 26108 C 2546.37 4.0613 -1.23869 0
M  V30 26109 O 2547.4 3.3867 -1.10369 0
M  V30 26110 O 2546.26 5.26841 -1.45261 0
M  V30 26111 H 2543.35 0.805963 -0.185345 0
M  V30 26112 H 2545.9 1.3195 -1.06711 0
M  V30 26113 H 2544.67 3.24046 -2.19339 0
M  V30 26114 H 2544.29 3.92708 -0.621815 0
M  V30 26115 N 2545.29 0.743226 1.38974 0
M  V30 26116 C 2546.24 0.0978798 2.32394 0
M  V30 26117 C 2547.23 -0.716797 1.53487 0
M  V30 26118 O 2548.44 -0.617059 1.69093 0
M  V30 26119 H 2544.81 0.0128534 0.75189 0
M  V30 26120 H 2546.78 0.902031 2.8444 0
M  V30 26121 C 2545.53 -0.788977 3.3863 0
M  V30 26122 H 2544.85 -0.171489 3.99432 0
M  V30 26123 H 2546.29 -1.208 4.06428 0
M  V30 26124 C 2544.75 -1.92697 2.7635 0
M  V30 26125 O 2545.28 -3.0203 2.64841 0
M  V30 26126 N 2543.49 -1.71887 2.34314 0
M  V30 26127 H 2543.04 -0.829632 2.43875 0
M  V30 26128 H 2542.99 -2.48202 1.92985 0
M  V30 26129 N 2546.77 -1.4974 0.491491 0
M  V30 26130 C 2548.02 -2.01616 -0.0581834 0
M  V30 26131 C 2548.33 -1.37693 -1.38925 0
M  V30 26132 O 2549.53 -1.80842 -2.02506 0
M  V30 26133 C 2547.99 -3.5957 -0.154172 0
M  V30 26134 C 2547.6 -4.32461 1.16968 0
M  V30 26135 C 2549.34 -4.19421 -0.654717 0
M  V30 26136 C 2547.25 -5.82249 1.03637 0
M  V30 26137 H 2546.18 -0.753568 -0.0255184 0
M  V30 26138 H 2548.83 -1.72365 0.629475 0
M  V30 26139 H 2547.21 -3.85495 -0.90607 0
M  V30 26140 H 2548.39 -4.18244 1.93412 0
M  V30 26141 H 2546.7 -3.84312 1.60292 0
M  V30 26142 H 2549.3 -5.291 -0.77181 0
M  V30 26143 H 2549.64 -3.82153 -1.6512 0
M  V30 26144 H 2550.17 -3.9778 0.040374 0
M  V30 26145 H 2546.91 -6.24024 2.00683 0
M  V30 26146 H 2546.43 -5.98985 0.312651 0
M  V30 26147 H 2548.11 -6.43079 0.711227 0
M  V30 26148 N 2548.24 -0.224922 -1.55987 0
M  V30 26149 C 2549.47 0.413654 -2.03233 0
M  V30 26150 C 2549.89 1.52322 -1.10362 0
M  V30 26151 O 2549.25 1.81064 -0.0924268 0
M  V30 26152 C 2549.3 0.919343 -3.48684 0
M  V30 26153 O 2548.4 2.03047 -3.58951 0
M  V30 26154 H 2547.75 0.0931788 -0.65743 0
M  V30 26155 H 2550.28 -0.344545 -2.01678 0
M  V30 26156 H 2550.29 1.22829 -3.89072 0
M  V30 26157 H 2548.96 0.107266 -4.15762 0
M  V30 26158 H 2547.54 1.72791 -3.30451 0
M  V30 26159 N 2549.72 1.57526 0.0484352 0
M  V30 26160 C 2550.66 2.0062 1.08751 0
M  V30 26161 C 2551.63 0.887082 1.3627 0
M  V30 26162 O 2552.82 1.15134 1.49253 0
M  V30 26163 C 2549.94 2.36281 2.4267 0
M  V30 26164 C 2548.99 3.58439 2.31135 0
M  V30 26165 S 2549.82 5.0836 1.68317 0
M  V30 26166 C 2550.98 5.47245 3.03767 0
M  V30 26167 H 2551.21 2.88441 0.720364 0
M  V30 26168 H 2548.75 1.52233 0.257774 0
M  V30 26169 H 2550.7 2.57499 3.19694 0
M  V30 26170 H 2549.36 1.48947 2.76539 0
M  V30 26171 H 2548.56 3.80984 3.29951 0
M  V30 26172 H 2548.16 3.36972 1.62252 0
M  V30 26173 H 2550.45 5.46744 4.00096 0
M  V30 26174 H 2551.39 6.47783 2.85977 0
M  V30 26175 H 2551.8 4.74723 3.05448 0
M  V30 26176 N 2551.2 -0.32033 1.5431 0
M  V30 26177 C 2552.16 -1.37736 1.83198 0
M  V30 26178 C 2553.16 -1.44573 0.703931 0
M  V30 26179 O 2554.35 -1.44545 0.97224 0
M  V30 26180 C 2551.49 -2.76434 1.99491 0
M  V30 26181 H 2552.68 -1.13375 2.77644 0
M  V30 26182 H 2550.23 -0.555986 1.46077 0
M  V30 26183 H 2550.97 -3.06046 1.07267 0
M  V30 26184 H 2550.75 -2.72865 2.8158 0
M  V30 26185 H 2552.24 -3.52898 2.23277 0
M  V30 26186 N 2552.68 -1.46438 -0.582558 0
M  V30 26187 C 2553.63 -1.57383 -1.7127 0
M  V30 26188 C 2554.62 -0.442319 -1.63523 0
M  V30 26189 O 2555.83 -0.619196 -1.69015 0
M  V30 26190 H 2552.2 -0.494822 -0.566264 0
M  V30 26191 H 2554.17 -2.52404 -1.59169 0
M  V30 26192 C 2552.92 -1.58141 -3.09656 0
M  V30 26193 H 2552.24 -2.44546 -3.16287 0
M  V30 26194 H 2553.68 -1.69854 -3.88491 0
M  V30 26195 C 2552.14 -0.310085 -3.3547 0
M  V30 26196 O 2552.67 0.599613 -3.972 0
M  V30 26197 N 2550.88 -0.197952 -2.89925 0
M  V30 26198 H 2550.43 -0.939133 -2.39871 0
M  V30 26199 H 2550.38 0.651796 -3.07569 0
M  V30 26200 N 2554.16 0.827204 -1.34146 0
M  V30 26201 C 2555.09 1.9428 -1.1971 0
M  V30 26202 C 2556.07 1.62352 -0.0897542 0
M  V30 26203 O 2557.25 1.86779 -0.254128 0
M  V30 26204 C 2554.38 3.28152 -0.838704 0
M  V30 26205 C 2553.42 3.79044 -1.9552 0
M  V30 26206 S 2554.26 3.99317 -3.568 0
M  V30 26207 C 2555.41 5.36122 -3.22993 0
M  V30 26208 H 2555.65 2.06227 -2.14144 0
M  V30 26209 H 2553.18 0.9823 -1.19123 0
M  V30 26210 H 2555.14 4.05501 -0.638708 0
M  V30 26211 H 2553.8 3.13979 0.0872224 0
M  V30 26212 H 2552.99 4.75945 -1.65808 0
M  V30 26213 H 2552.59 3.08627 -2.11246 0
M  V30 26214 H 2554.89 6.19381 -2.74541 0
M  V30 26215 H 2555.83 5.70815 -4.19018 0
M  V30 26216 H 2556.24 5.01429 -2.59285 0
M  V30 26217 N 2555.63 1.17805 1.04688 0
M  V30 26218 C 2556.91 0.879359 1.74719 0
M  V30 26219 C 2557.29 -0.619236 2.01813 0
M  V30 26220 O 2556.64 -1.57206 1.65827 0
M  V30 26221 C 2556.85 1.71981 3.03683 0
M  V30 26222 C 2558.2 1.94293 3.77539 0
M  V30 26223 O 2559.22 1.68982 3.13566 0
M  V30 26224 O 2558.08 2.36864 4.92502 0
M  V30 26225 H 2555.17 0.326069 0.760005 0
M  V30 26226 H 2557.72 1.28527 1.10811 0
M  V30 26227 H 2556.49 2.73599 2.79749 0
M  V30 26228 H 2556.12 1.31201 3.75329 0
M  V30 26229 N 2557.11 -1.23497 0.979094 0
M  V30 26230 C 2558.36 -1.91498 0.645974 0
M  V30 26231 C 2558.68 -1.76785 -0.822917 0
M  V30 26232 O 2557.95 -1.14642 -1.58852 0
M  V30 26233 H 2556.53 -0.708763 0.235931 0
M  V30 26234 H 2559.19 -1.50149 1.24262 0
M  V30 26235 H 2558.29 -2.98948 0.896464 0
M  V30 26236 N 2558.59 -0.750586 -1.38578 0
M  V30 26237 C 2559.82 -0.314848 -2.04996 0
M  V30 26238 C 2560.24 1.04746 -1.56237 0
M  V30 26239 O 2559.6 1.66691 -0.713011 0
M  V30 26240 C 2559.65 -0.343478 -3.5896 0
M  V30 26241 O 2558.75 0.663556 -4.07027 0
M  V30 26242 H 2558.09 -0.139973 -0.649079 0
M  V30 26243 H 2560.62 -1.02087 -1.77312 0
M  V30 26244 H 2560.63 -0.193305 -4.07542 0
M  V30 26245 H 2559.31 -1.33745 -3.93809 0
M  V30 26246 H 2557.88 0.478242 -3.69821 0
M  V30 26247 N 2560.07 1.49477 -0.499425 0
M  V30 26248 C 2561.02 2.3074 0.293564 0
M  V30 26249 C 2562.01 1.39279 0.964245 0
M  V30 26250 O 2563.22 1.56337 0.892114 0
M  V30 26251 H 2559.59 0.743381 0.113528 0
M  V30 26252 H 2561.56 2.95545 -0.411824 0
M  V30 26253 C 2560.31 3.20584 1.34615 0
M  V30 26254 H 2559.64 3.90887 0.839472 0
M  V30 26255 H 2561.08 3.80387 1.87302 0
M  V30 26256 C 2559.53 2.40087 2.36347 0
M  V30 26257 O 2560.06 2.10391 3.42197 0
M  V30 26258 N 2558.27 2.0214 2.08777 0
M  V30 26259 H 2557.82 2.2649 1.22719 0
M  V30 26260 H 2557.78 1.48588 2.77072 0
M  V30 26261 N 2561.55 0.233191 1.55865 0
M  V30 26262 C 2562.96 -0.12196 1.59133 0
M  V30 26263 C 2563.16 -1.58027 1.25019 0
M  V30 26264 O 2562.22 -2.32242 0.990963 0
M  V30 26265 C 2563.53 0.214845 2.99932 0
M  V30 26266 C 2565.08 0.158026 3.12601 0
M  V30 26267 C 2565.56 0.46867 4.55596 0
M  V30 26268 N 2567.05 0.418666 4.61304 0
M  V30 26269 C 2567.78 0.63237 5.69902 0
M  V30 26270 N 2567.28 0.908471 6.86818 0
M  V30 26271 N 2569.07 0.564011 5.59263 0
M  V30 26272 H 2561.22 1.18437 1.76313 0
M  V30 26273 H 2563.48 0.475567 0.820085 0
M  V30 26274 H 2563.19 1.22745 3.29585 0
M  V30 26275 H 2563.06 -0.464625 3.74328 0
M  V30 26276 H 2565.45 -0.845233 2.82736 0
M  V30 26277 H 2565.53 0.871144 2.40509 0
M  V30 26278 H 2565.18 1.46942 4.86179 0
M  V30 26279 H 2565.11 -0.265772 5.25929 0
M  V30 26280 H 2567.6 0.213434 3.77297 0
M  V30 26281 H 2567.91 1.05932 7.65505 0
M  V30 26282 H 2566.26 0.945794 6.88534 0
M  V30 26283 H 2569.45 0.348454 4.66801 0
M  V30 26284 H 2569.62 0.73396 6.4383 0
M  V30 26285 N 2563.03 -1.57549 -0.0400806 0
M  V30 26286 C 2564.25 -1.93015 -0.745162 0
M  V30 26287 C 2564.67 -0.832013 -1.69479 0
M  V30 26288 O 2564.03 0.192431 -1.81483 0
M  V30 26289 C 2564.08 -3.28375 -1.5117 0
M  V30 26290 O 2563.8 -4.33969 -0.600207 0
M  V30 26291 C 2565.3 -3.78055 -2.31494 0
M  V30 26292 H 2562.52 -0.637267 -0.210077 0
M  V30 26293 H 2565.06 -2.045 -0.000888743 0
M  V30 26294 H 2563.22 -3.18321 -2.20795 0
M  V30 26295 H 2563.63 -5.12037 -1.1366 0
M  V30 26296 H 2565.11 -4.75308 -2.80689 0
M  V30 26297 H 2565.58 -3.08681 -3.1243 0
M  V30 26298 H 2566.19 -3.91156 -1.66964 0
M  V30 26299 N 2564.5 0.312142 -1.54478 0
M  V30 26300 C 2565.43 1.38954 -1.87654 0
M  V30 26301 C 2566.41 1.5343 -0.734385 0
M  V30 26302 O 2567.6 1.67122 -0.989139 0
M  V30 26303 C 2564.73 2.75549 -2.11401 0
M  V30 26304 C 2563.68 2.75849 -3.27248 0
M  V30 26305 C 2563.01 4.15628 -3.36389 0
M  V30 26306 C 2564.31 2.38579 -4.64626 0
M  V30 26307 H 2566 1.11437 -2.77889 0
M  V30 26308 H 2563.55 0.534631 -1.33707 0
M  V30 26309 H 2565.5 3.50996 -2.33195 0
M  V30 26310 H 2564.23 3.04567 -1.17926 0
M  V30 26311 H 2562.89 2.02857 -3.0536 0
M  V30 26312 H 2562.53 4.41805 -2.40452 0
M  V30 26313 H 2562.23 4.16732 -4.14256 0
M  V30 26314 H 2563.76 4.92871 -3.60431 0
M  V30 26315 H 2565.17 3.03741 -4.86225 0
M  V30 26316 H 2563.57 2.50916 -5.45125 0
M  V30 26317 H 2564.64 1.33715 -4.66099 0
M  V30 26318 N 2565.98 1.46745 0.574784 0
M  V30 26319 C 2566.91 1.60774 1.69334 0
M  V30 26320 C 2567.89 0.457765 1.63825 0
M  V30 26321 O 2569.08 0.684979 1.81719 0
M  V30 26322 C 2566.21 1.60522 3.07977 0
M  V30 26323 C 2565.16 2.74569 3.28323 0
M  V30 26324 C 2564.49 2.59382 4.67574 0
M  V30 26325 C 2565.79 4.16324 3.15391 0
M  V30 26326 H 2567.48 2.54409 1.57849 0
M  V30 26327 H 2565.03 1.22437 0.757968 0
M  V30 26328 H 2566.98 1.6893 3.86058 0
M  V30 26329 H 2565.7 0.634361 3.2038 0
M  V30 26330 H 2564.36 2.65644 2.52644 0
M  V30 26331 H 2564.01 1.60362 4.76753 0
M  V30 26332 H 2563.71 3.35882 4.82138 0
M  V30 26333 H 2565.24 2.69692 5.47813 0
M  V30 26334 H 2566.65 4.2632 3.83307 0
M  V30 26335 H 2565.05 4.93474 3.41473 0
M  V30 26336 H 2566.12 4.35924 2.12364 0
M  V30 26337 N 2567.46 -0.820078 1.34583 0
M  V30 26338 C 2568.71 -1.57645 1.27099 0
M  V30 26339 C 2569.03 -1.93855 -0.158283 0
M  V30 26340 O 2568.29 -1.60465 -1.12025 0
M  V30 26341 C 2568.59 -2.88466 2.11002 0
M  V30 26342 C 2568.25 -2.71536 3.59971 0
M  V30 26343 C 2566.92 -2.66627 4.00579 0
M  V30 26344 C 2569.27 -2.55013 4.54552 0
M  V30 26345 C 2566.6 -2.43119 5.33957 0
M  V30 26346 C 2568.95 -2.33037 5.88113 0
M  V30 26347 C 2567.61 -2.26541 6.27882 0
M  V30 26348 H 2566.88 -0.576865 0.465089 0
M  V30 26349 H 2569.53 -0.948642 1.66352 0
M  V30 26350 H 2567.83 -3.55554 1.64586 0
M  V30 26351 H 2569.53 -3.46081 2.02556 0
M  V30 26352 H 2566.12 -2.76199 3.27738 0
M  V30 26353 H 2570.31 -2.57828 4.24074 0
M  V30 26354 H 2565.56 -2.3655 5.63786 0
M  V30 26355 H 2569.74 -2.1924 6.60989 0
M  V30 26356 H 2567.36 -2.08087 7.31166 0
M  V30 26357 N 2568.94 -1.18359 -1.04062 0
M  V30 26358 C 2570.16 -1.00448 -1.81452 0
M  V30 26359 C 2570.59 0.44239 -1.82824 0
M  V30 26360 O 2569.95 1.31739 -1.24557 0
M  V30 26361 C 2569.99 -1.5639 -3.24923 0
M  V30 26362 O 2569.1 -0.78528 -4.04854 0
M  V30 26363 H 2568.44 -0.355845 -0.560598 0
M  V30 26364 H 2570.97 -1.57116 -1.31056 0
M  V30 26365 H 2570.98 -1.59103 -3.757 0
M  V30 26366 H 2569.65 -2.61705 -3.23239 0
M  V30 26367 H 2568.23 -0.830462 -3.63535 0
M  V30 26368 N 2570.42 1.22976 -0.98563 0
M  V30 26369 C 2571.66 1.91153 -0.656121 0
M  V30 26370 C 2571.98 1.77219 0.81353 0
M  V30 26371 O 2571.25 1.15483 1.58242 0
M  V30 26372 H 2569.83 0.707502 -0.239687 0
M  V30 26373 H 2572.5 1.49488 -1.25057 0
M  V30 26374 H 2571.59 2.98468 -0.912305 0
M  V30 26375 N 2571.89 0.757924 1.38178 0
M  V30 26376 C 2572.83 0.0932579 2.2901 0
M  V30 26377 C 2573.84 -0.67911 1.47959 0
M  V30 26378 O 2575.03 -0.519483 1.70774 0
M  V30 26379 C 2572.13 -0.891863 3.26954 0
M  V30 26380 C 2571.3 -0.176226 4.37045 0
M  V30 26381 C 2570.36 -1.07272 5.1515 0
M  V30 26382 O 2569.39 -0.541629 5.66617 0
M  V30 26383 N 2570.59 -2.4004 5.28546 0
M  V30 26384 H 2573.35 0.873354 2.86693 0
M  V30 26385 H 2570.91 0.60908 1.50006 0
M  V30 26386 H 2572.91 -1.49473 3.76085 0
M  V30 26387 H 2571.48 -1.57301 2.70139 0
M  V30 26388 H 2570.7 0.607397 3.89492 0
M  V30 26389 H 2571.98 0.318807 5.078 0
M  V30 26390 H 2571.38 -2.85639 4.8829 0
M  V30 26391 H 2569.94 -2.95366 5.81036 0
M  V30 26392 N 2573.37 -1.4921 0.507345 0
M  V30 26393 C 2574.32 -2.29242 -0.267687 0
M  V30 26394 C 2575.29 -1.3593 -0.954585 0
M  V30 26395 O 2576.47 -1.64889 -0.960017 0
M  V30 26396 C 2573.61 -3.18759 -1.32238 0
M  V30 26397 C 2572.73 -4.27133 -0.646615 0
M  V30 26398 C 2571.86 -5.03858 -1.68229 0
M  V30 26399 C 2570.9 -6.04061 -0.988744 0
M  V30 26400 N 2570.04 -6.73927 -1.96891 0
M  V30 26401 H 2574.88 -2.95011 0.42102 0
M  V30 26402 H 2572.42 -1.45454 0.219469 0
M  V30 26403 H 2574.37 -3.69039 -1.94592 0
M  V30 26404 H 2573 -2.54961 -1.97976 0
M  V30 26405 H 2572.06 -3.80293 0.0903594 0
M  V30 26406 H 2573.37 -4.98698 -0.10097 0
M  V30 26407 H 2572.52 -5.58038 -2.38072 0
M  V30 26408 H 2571.26 -4.32081 -2.2618 0
M  V30 26409 H 2570.27 -5.49106 -0.276125 0
M  V30 26410 H 2571.49 -6.77827 -0.415648 0
M  V30 26411 H 2569.44 -6.04918 -2.53792 0
M  V30 26412 H 2569.35 -7.41489 -1.4741 0
M  V30 26413 H 2570.62 -7.32709 -2.66003 0
M  V30 26414 N 2574.85 -0.241454 -1.55739 0
M  V30 26415 C 2576.1 0.384041 -1.98418 0
M  V30 26416 C 2576.42 1.58864 -1.13081 0
M  V30 26417 O 2575.69 1.94746 -0.212346 0
M  V30 26418 H 2574.27 0.144881 -0.732815 0
M  V30 26419 H 2576.93 -0.338977 -1.9193 0
M  V30 26420 H 2576.03 0.696886 -3.0422 0
M  V30 26421 N 2576.33 1.57568 0.0317248 0
M  V30 26422 C 2577.74 1.77506 0.57866 0
M  V30 26423 C 2578.09 0.872195 1.75748 0
M  V30 26424 O 2577.22 0.0663487 2.16298 0
M  V30 26425 C 2577.81 3.21905 1.05652 0
M  V30 26426 C 2576.37 3.4305 1.549 0
M  V30 26427 C 2575.52 2.7301 0.485891 0
M  V30 26428 H 2578.47 1.57504 -0.194502 0
M  V30 26429 H 2578.49 3.28273 1.92399 0
M  V30 26430 H 2578 3.87593 0.198354 0
M  V30 26431 H 2576.1 2.82534 2.4291 0
M  V30 26432 H 2576.21 4.51653 1.59833 0
M  V30 26433 H 2574.58 2.36707 0.940313 0
M  V30 26434 H 2575.36 3.41378 -0.362769 0
M  V30 26435 N 2577.81 -0.303946 1.54641 0
M  V30 26436 C 2579.05 -1.04106 1.7404 0
M  V30 26437 C 2579.39 -1.87023 0.523084 0
M  V30 26438 O 2578.66 -1.88488 -0.479841 0
M  V30 26439 C 2578.94 -1.9495 3.02765 0
M  V30 26440 C 2578.8 -1.15233 4.34789 0
M  V30 26441 C 2580.12 -2.94169 3.27342 0
M  V30 26442 H 2577.23 -0.377068 0.633237 0
M  V30 26443 H 2579.88 -0.315968 1.87354 0
M  V30 26444 H 2578.03 -2.56776 2.91544 0
M  V30 26445 H 2579.7 -0.557155 4.57923 0
M  V30 26446 H 2577.94 -0.454977 4.31407 0
M  V30 26447 H 2578.61 -1.82041 5.21119 0
M  V30 26448 H 2581.09 -2.42471 3.38152 0
M  V30 26449 H 2579.96 -3.549 4.18733 0
M  V30 26450 H 2580.23 -3.67673 2.45497 0
M  V30 26451 N 2579.28 -1.47047 -0.566994 0
M  V30 26452 C 2580.53 -1.52867 -1.32198 0
M  V30 26453 C 2580.85 -0.188422 -1.94088 0
M  V30 26454 O 2580.12 0.786661 -1.79411 0
M  V30 26455 H 2578.7 -0.563065 -0.490884 0
M  V30 26456 H 2581.37 -1.83282 -0.662847 0
M  V30 26457 H 2580.46 -2.28993 -2.12058 0
M  V30 26458 N 2580.76 0.812929 -1.35016 0
M  V30 26459 C 2581.69 1.93916 -1.30072 0
M  V30 26460 C 2582.67 1.69184 -0.176304 0
M  V30 26461 O 2583.86 1.90638 -0.370261 0
M  V30 26462 C 2580.99 3.30551 -1.06553 0
M  V30 26463 C 2579.94 3.69749 -2.15568 0
M  V30 26464 C 2579.27 5.04476 -1.77223 0
M  V30 26465 C 2580.57 3.80793 -3.57483 0
M  V30 26466 H 2582.26 1.9831 -2.24307 0
M  V30 26467 H 2579.81 0.952717 -1.07978 0
M  V30 26468 H 2581.76 4.08935 -1.01736 0
M  V30 26469 H 2580.49 3.26482 -0.0876293 0
M  V30 26470 H 2579.14 2.93646 -2.19471 0
M  V30 26471 H 2578.79 4.96905 -0.780676 0
M  V30 26472 H 2578.49 5.31674 -2.50194 0
M  V30 26473 H 2580.02 5.85307 -1.7392 0
M  V30 26474 H 2581.43 4.49424 -3.55937 0
M  V30 26475 H 2579.83 4.19455 -4.2916 0
M  V30 26476 H 2580.9 2.82518 -3.94096 0
M  V30 26477 N 2582.24 1.18909 1.03433 0
M  V30 26478 C 2583.2 0.923881 2.09755 0
M  V30 26479 C 2584.2 -0.0933878 1.60529 0
M  V30 26480 O 2585.39 0.140757 1.7363 0
M  V30 26481 C 2582.53 0.387413 3.38691 0
M  V30 26482 H 2583.72 1.86678 2.34716 0
M  V30 26483 H 2581.27 1.00199 1.19958 0
M  V30 26484 H 2582.01 -0.561789 3.19397 0
M  V30 26485 H 2581.79 1.12081 3.7574 0
M  V30 26486 H 2583.28 0.220767 4.17016 0
M  V30 26487 N 2583.72 -1.22452 0.992137 0
M  V30 26488 C 2584.97 -1.90491 0.663026 0
M  V30 26489 C 2585.28 -1.78114 -0.808376 0
M  V30 26490 O 2586.49 -2.41063 -1.24904 0
M  V30 26491 C 2584.94 -3.41523 1.13536 0
M  V30 26492 C 2584.55 -3.62538 2.63193 0
M  V30 26493 C 2586.29 -4.15267 0.880538 0
M  V30 26494 C 2584.2 -5.07265 3.04033 0
M  V30 26495 H 2583.13 -0.713329 0.24429 0
M  V30 26496 H 2585.78 -1.38686 1.2016 0
M  V30 26497 H 2584.16 -3.92506 0.524919 0
M  V30 26498 H 2585.34 -3.2205 3.29576 0
M  V30 26499 H 2583.65 -3.02124 2.86549 0
M  V30 26500 H 2586.25 -5.21935 1.16138 0
M  V30 26501 H 2586.59 -4.15896 -0.183335 0
M  V30 26502 H 2587.13 -3.70309 1.45313 0
M  V30 26503 H 2583.87 -5.11775 4.09593 0
M  V30 26504 H 2583.39 -5.48658 2.42353 0
M  V30 26505 H 2585.06 -5.75684 2.95292 0
M  V30 26506 N 2585.2 -0.765242 -1.37774 0
M  V30 26507 C 2586.47 -0.251631 -1.93975 0
M  V30 26508 C 2586.85 1.25219 -1.69951 0
M  V30 26509 O 2586.2 2.03224 -1.04461 0
M  V30 26510 C 2586.41 -0.617955 -3.43486 0
M  V30 26511 C 2587.76 -0.584102 -4.20563 0
M  V30 26512 O 2588.78 -0.55695 -3.51819 0
M  V30 26513 O 2587.64 -0.605386 -5.43137 0
M  V30 26514 H 2584.74 -0.0561951 -0.825089 0
M  V30 26515 H 2587.28 -0.846154 -1.471 0
M  V30 26516 H 2586.05 -1.65608 -3.54527 0
M  V30 26517 H 2585.68 0.00396422 -3.976 0
M  V30 26518 N 2586.67 1.48939 -0.515251 0
M  V30 26519 C 2587.92 2.02486 0.0241794 0
M  V30 26520 C 2588.25 1.39371 1.35669 0
M  V30 26521 O 2587.5 0.523607 1.88565 0
M  V30 26522 C 2587.8 3.56779 0.210532 0
M  V30 26523 C 2587.47 4.38605 -1.04576 0
M  V30 26524 C 2586.13 4.60684 -1.3901 0
M  V30 26525 C 2588.48 4.86106 -1.88017 0
M  V30 26526 C 2585.81 5.27509 -2.56809 0
M  V30 26527 C 2588.16 5.54228 -3.04982 0
M  V30 26528 C 2586.83 5.74549 -3.39779 0
M  V30 26529 H 2586.1 0.740947 0.00884786 0
M  V30 26530 H 2588.74 1.79085 -0.678294 0
M  V30 26531 H 2587.05 3.78938 0.995653 0
M  V30 26532 H 2588.75 3.95818 0.64259 0
M  V30 26533 H 2585.34 4.21671 -0.767571 0
M  V30 26534 H 2589.52 4.68864 -1.62727 0
M  V30 26535 H 2584.78 5.41442 -2.8399 0
M  V30 26536 H 2588.95 5.90007 -3.69953 0
M  V30 26537 H 2586.58 6.26104 -4.31159 0
M  V30 26538 N 2588.15 0.249709 1.55609 0
M  V30 26539 C 2589.56 -0.252916 1.84979 0
M  V30 26540 C 2589.92 -1.57382 1.17156 0
M  V30 26541 O 2589.04 -2.1165 0.450921 0
M  V30 26542 C 2589.64 -0.465673 3.35584 0
M  V30 26543 C 2588.19 -0.91256 3.6517 0
M  V30 26544 C 2587.34 0.00863959 2.77299 0
M  V30 26545 H 2590.29 0.472197 1.51512 0
M  V30 26546 H 2590.31 -1.30789 3.57316 0
M  V30 26547 H 2589.83 0.495858 3.84919 0
M  V30 26548 H 2587.93 -1.88646 3.21315 0
M  V30 26549 H 2588.04 -0.767476 4.72913 0
M  V30 26550 H 2586.4 -0.503226 2.49679 0
M  V30 26551 H 2587.19 0.965594 3.29441 0
M  V30 26552 N 2589.63 -1.57583 -0.0233682 0
M  V30 26553 C 2590.54 -2.10336 -1.03904 0
M  V30 26554 C 2591.56 -1.04326 -1.39256 0
M  V30 26555 O 2592.73 -1.36094 -1.4846 0
M  V30 26556 C 2589.8 -2.57697 -2.31933 0
M  V30 26557 C 2588.86 -3.78213 -2.0311 0
M  V30 26558 C 2588.09 -4.23306 -3.25036 0
M  V30 26559 O 2588.32 -3.67884 -4.3591 0
M  V30 26560 O 2587.25 -5.15688 -3.10402 0
M  V30 26561 H 2591.08 -2.9729 -0.620695 0
M  V30 26562 H 2588.66 -1.47448 -0.240717 0
M  V30 26563 H 2590.54 -2.88464 -3.07191 0
M  V30 26564 H 2589.22 -1.73852 -2.73052 0
M  V30 26565 H 2588.12 -3.52456 -1.25402 0
M  V30 26566 H 2589.46 -4.63059 -1.66844 0
M  V30 26567 N 2591.11 0.29574 -1.548 0
M  V30 26568 C 2592.33 1.05343 -1.78655 0
M  V30 26569 C 2592.76 1.79973 -0.546926 0
M  V30 26570 O 2592.12 1.7419 0.502732 0
M  V30 26571 C 2592.17 2.00555 -2.99683 0
M  V30 26572 O 2591.27 3.08948 -2.73176 0
M  V30 26573 H 2590.61 0.302356 -0.591166 0
M  V30 26574 H 2593.14 0.331562 -2.01896 0
M  V30 26575 H 2593.15 2.42926 -3.27797 0
M  V30 26576 H 2591.83 1.45643 -3.89565 0
M  V30 26577 H 2590.4 2.71055 -2.56093 0
M  V30 26578 N 2592.59 1.47346 0.559187 0
M  V30 26579 C 2593.53 1.59684 1.66642 0
M  V30 26580 C 2594.5 0.439968 1.60167 0
M  V30 26581 O 2595.69 0.659768 1.7903 0
M  V30 26582 C 2592.83 1.61523 3.04966 0
M  V30 26583 C 2591.94 2.88114 3.21892 0
M  V30 26584 C 2591.08 2.81302 4.50603 0
M  V30 26585 C 2590.12 4.02725 4.60954 0
M  V30 26586 N 2589.25 3.94161 5.81017 0
M  V30 26587 H 2594.09 2.54252 1.55434 0
M  V30 26588 H 2591.63 1.26115 0.757196 0
M  V30 26589 H 2593.59 1.60573 3.85061 0
M  V30 26590 H 2592.22 0.7047 3.15014 0
M  V30 26591 H 2591.27 2.9894 2.35242 0
M  V30 26592 H 2592.58 3.78038 3.25405 0
M  V30 26593 H 2591.74 2.78589 5.38955 0
M  V30 26594 H 2590.48 1.89057 4.49565 0
M  V30 26595 H 2589.48 4.05745 3.71014 0
M  V30 26596 H 2590.71 4.96095 4.63753 0
M  V30 26597 H 2588.65 3.04718 5.80933 0
M  V30 26598 H 2588.57 4.77763 5.859 0
M  V30 26599 H 2589.84 3.95462 6.71737 0
M  V30 26600 N 2594.07 -0.805758 1.35445 0
M  V30 26601 C 2595 -1.93224 1.31099 0
M  V30 26602 C 2595.98 -1.69088 0.185274 0
M  V30 26603 O 2597.16 -1.90439 0.380366 0
M  V30 26604 C 2594.29 -3.29981 1.08305 0
M  V30 26605 C 2593.25 -3.68601 2.17526 0
M  V30 26606 C 2592.57 -5.03529 1.79896 0
M  V30 26607 C 2593.87 -3.78892 3.59497 0
M  V30 26608 H 2595.57 -1.97118 2.25355 0
M  V30 26609 H 2593.11 -0.946977 1.08482 0
M  V30 26610 H 2595.06 -4.08389 1.03904 0
M  V30 26611 H 2593.79 -3.26431 0.104942 0
M  V30 26612 H 2592.45 -2.92478 2.21025 0
M  V30 26613 H 2592.1 -4.96484 0.807017 0
M  V30 26614 H 2591.8 -5.30339 2.5301 0
M  V30 26615 H 2593.32 -5.84376 1.77022 0
M  V30 26616 H 2594.73 -4.4753 3.58315 0
M  V30 26617 H 2593.13 -4.17173 4.31378 0
M  V30 26618 H 2594.2 -2.80424 3.95589 0
M  V30 26619 N 2595.54 -1.19456 -1.02801 0
M  V30 26620 C 2596.77 -1.02152 -1.79579 0
M  V30 26621 C 2597.18 0.432819 -1.84183 0
M  V30 26622 O 2596.52 1.3124 -1.28537 0
M  V30 26623 C 2596.59 -1.5156 -3.2599 0
M  V30 26624 C 2596.25 -2.99684 -3.4502 0
M  V30 26625 C 2597.25 -3.9744 -3.35168 0
M  V30 26626 C 2594.93 -3.38396 -3.71206 0
M  V30 26627 C 2596.93 -5.31899 -3.51229 0
M  V30 26628 C 2594.61 -4.73014 -3.86912 0
M  V30 26629 C 2595.61 -5.69575 -3.76926 0
M  V30 26630 O 2595.3 -7.01755 -3.92167 0
M  V30 26631 H 2595.03 -0.360337 -0.571955 0
M  V30 26632 H 2597.59 -1.58727 -1.30365 0
M  V30 26633 H 2595.82 -0.893609 -3.76233 0
M  V30 26634 H 2597.5 -1.30451 -3.84366 0
M  V30 26635 H 2598.27 -3.68877 -3.14888 0
M  V30 26636 H 2594.15 -2.63787 -3.78071 0
M  V30 26637 H 2597.69 -6.07253 -3.43351 0
M  V30 26638 H 2593.59 -5.01272 -4.0669 0
M  V30 26639 H 2594.36 -7.0884 -4.09253 0
M  V30 26640 N 2597.02 1.21924 -0.998617 0
M  V30 26641 C 2598.27 1.91398 -0.68837 0
M  V30 26642 C 2598.62 1.76242 0.771774 0
M  V30 26643 O 2597.92 1.12422 1.55151 0
M  V30 26644 C 2598.11 3.42039 -1.03654 0
M  V30 26645 C 2597.94 3.7185 -2.52898 0
M  V30 26646 C 2596.71 3.91554 -3.19396 0
M  V30 26647 C 2598.91 3.75869 -3.51037 0
M  V30 26648 N 2596.89 4.08726 -4.58057 0
M  V30 26649 C 2598.26 3.9825 -4.75181 0
M  V30 26650 C 2600.31 3.58745 -3.45263 0
M  V30 26651 C 2599.02 4.05284 -5.94254 0
M  V30 26652 C 2601.04 3.67041 -4.63719 0
M  V30 26653 C 2600.41 3.89877 -5.86665 0
M  V30 26654 H 2596.5 0.720802 -0.303264 0
M  V30 26655 H 2599.09 1.46729 -1.27979 0
M  V30 26656 H 2597.26 3.85501 -0.473637 0
M  V30 26657 H 2598.99 3.98917 -0.681689 0
M  V30 26658 H 2595.75 3.892 -2.69852 0
M  V30 26659 H 2596.17 4.21228 -5.29997 0
M  V30 26660 H 2600.81 3.40071 -2.51221 0
M  V30 26661 H 2598.53 4.2276 -6.88694 0
M  V30 26662 H 2602.12 3.55122 -4.60847 0
M  V30 26663 H 2601 3.96132 -6.76793 0
M  V30 26664 N 2598.5 0.772537 1.37367 0
M  V30 26665 C 2599.75 0.333896 1.98917 0
M  V30 26666 C 2600.06 -1.09586 1.62019 0
M  V30 26667 O 2601.27 -1.63593 2.16679 0
M  V30 26668 C 2599.72 0.546033 3.55734 0
M  V30 26669 C 2599.33 1.9861 4.01569 0
M  V30 26670 C 2601.08 0.171054 4.24155 0
M  V30 26671 C 2598.98 2.14579 5.51099 0
M  V30 26672 H 2597.91 0.121098 0.744212 0
M  V30 26673 H 2600.56 0.951778 1.56887 0
M  V30 26674 H 2598.95 -0.141317 3.95748 0
M  V30 26675 H 2600.12 2.70847 3.72798 0
M  V30 26676 H 2598.43 2.31775 3.45933 0
M  V30 26677 H 2601.03 0.268874 5.34024 0
M  V30 26678 H 2601.37 -0.878783 4.06919 0
M  V30 26679 H 2601.91 0.810983 3.89446 0
M  V30 26680 H 2598.65 3.17885 5.73262 0
M  V30 26681 H 2598.17 1.46827 5.81551 0
M  V30 26682 H 2599.85 1.94479 6.17079 0
M  V30 26683 N 2599.98 -1.48664 0.523142 0
M  V30 26684 C 2601.2 -2.07397 -0.011692 0
M  V30 26685 C 2601.63 -1.37805 -1.28029 0
M  V30 26686 O 2600.99 -0.441793 -1.75835 0
M  V30 26687 C 2601.03 -3.59893 -0.225723 0
M  V30 26688 O 2600.14 -3.91512 -1.29585 0
M  V30 26689 H 2599.48 -0.663019 0.036079 0
M  V30 26690 H 2602.01 -1.91168 0.7291 0
M  V30 26691 H 2602.02 -4.05505 -0.45048 0
M  V30 26692 H 2600.69 -4.09949 0.701016 0
M  V30 26693 H 2599.27 -3.57686 -1.05429 0
M  V30 26694 N 2601.46 -0.257958 -1.55475 0
M  V30 26695 C 2602.68 0.370453 -2.04065 0
M  V30 26696 C 2603.11 1.49946 -1.13568 0
M  V30 26697 O 2602.46 1.80827 -0.130812 0
M  V30 26698 C 2602.51 0.845176 -3.50555 0
M  V30 26699 O 2601.62 1.95388 -3.63177 0
M  V30 26700 H 2600.96 0.0792128 -0.659258 0
M  V30 26701 H 2603.49 -0.387247 -2.00902 0
M  V30 26702 H 2603.5 1.14548 -3.9159 0
M  V30 26703 H 2602.17 0.0190528 -4.15896 0
M  V30 26704 H 2600.75 1.65742 -3.34042 0
M  V30 26705 N 2602.93 1.57593 0.0150108 0
M  V30 26706 C 2604.18 1.89532 0.70158 0
M  V30 26707 C 2604.5 0.857427 1.75138 0
M  V30 26708 O 2603.77 -0.10716 1.95607 0
M  V30 26709 H 2602.35 0.699502 0.262117 0
M  V30 26710 H 2605.02 1.94887 -0.0223647 0
M  V30 26711 H 2604.11 2.88839 1.18231 0
M  V30 26712 N 2604.41 -0.287527 1.54955 0
M  V30 26713 C 2605.36 -1.37499 1.87608 0
M  V30 26714 C 2606.35 -1.51842 0.751028 0
M  V30 26715 O 2607.56 -1.53799 0.935196 0
M  V30 26716 H 2603.94 -0.459558 0.595239 0
M  V30 26717 H 2605.91 -1.07201 2.78479 0
M  V30 26718 C 2604.66 -2.73111 2.15188 0
M  V30 26719 H 2603.98 -2.6286 3.01238 0
M  V30 26720 H 2605.42 -3.48179 2.41966 0
M  V30 26721 C 2603.88 -3.23089 0.954743 0
M  V30 26722 O 2604.41 -4.01287 0.18202 0
M  V30 26723 N 2602.61 -2.80583 0.756418 0
M  V30 26724 H 2602.16 -2.17106 1.38646 0
M  V30 26725 H 2602.12 -3.14371 -0.0429839 0
M  V30 26726 N 2605.89 -1.47641 -0.551365 0
M  V30 26727 C 2606.84 -1.56972 -1.65359 0
M  V30 26728 C 2607.82 -0.428216 -1.55097 0
M  V30 26729 O 2609.02 -0.67847 -1.6348 0
M  V30 26730 C 2606.15 -1.59254 -3.04127 0
M  V30 26731 C 2605.23 -2.7881 -3.19571 0
M  V30 26732 N 2605.62 -4.0345 -3.0506 0
M  V30 26733 C 2603.92 -2.75694 -3.50584 0
M  V30 26734 C 2604.62 -4.83548 -3.23351 0
M  V30 26735 N 2603.6 -4.15974 -3.49952 0
M  V30 26736 H 2607.4 -2.51107 -1.52718 0
M  V30 26737 H 2604.91 -1.43716 -0.756278 0
M  V30 26738 H 2606.91 -1.6403 -3.83275 0
M  V30 26739 H 2605.57 -0.662204 -3.17876 0
M  V30 26740 H 2606.58 -4.3422 -2.82265 0
M  V30 26741 H 2603.26 -1.91823 -3.70823 0
M  V30 26742 H 2604.65 -5.92392 -3.1705 0
M  V30 26743 N 2607.37 0.798563 -1.3587 0
M  V30 26744 C 2608.6 1.58719 -1.32725 0
M  V30 26745 C 2609.01 1.88568 0.09353 0
M  V30 26746 O 2608.37 1.49423 1.04781 0
M  V30 26747 C 2608.42 2.91367 -2.1398 0
M  V30 26748 O 2608.14 2.62809 -3.50518 0
M  V30 26749 C 2609.64 3.85705 -2.18511 0
M  V30 26750 H 2606.86 0.492588 -0.455629 0
M  V30 26751 H 2609.41 0.991812 -1.78839 0
M  V30 26752 H 2607.56 3.47399 -1.71444 0
M  V30 26753 H 2607.97 3.47562 -3.92812 0
M  V30 26754 H 2609.45 4.75867 -2.7974 0
M  V30 26755 H 2609.93 4.22883 -1.18604 0
M  V30 26756 H 2610.53 3.35608 -2.61242 0
M  V30 26757 N 2608.85 1.19999 1.02166 0
M  V30 26758 C 2610.1 1.00133 1.7509 0
M  V30 26759 C 2610.41 -0.467802 1.89924 0
M  V30 26760 O 2611.61 -0.785469 2.5989 0
M  V30 26761 C 2610.07 1.74279 3.14889 0
M  V30 26762 C 2609.68 3.25251 3.08084 0
M  V30 26763 C 2611.42 1.62762 3.92057 0
M  V30 26764 C 2609.33 3.91956 4.4286 0
M  V30 26765 H 2608.26 0.371041 0.656387 0
M  V30 26766 H 2610.91 1.43569 1.14281 0
M  V30 26767 H 2609.29 1.23627 3.76208 0
M  V30 26768 H 2610.47 3.83077 2.56103 0
M  V30 26769 H 2608.78 3.37124 2.4441 0
M  V30 26770 H 2611.38 2.09943 4.9176 0
M  V30 26771 H 2611.72 0.582966 4.12198 0
M  V30 26772 H 2612.25 2.10799 3.37355 0
M  V30 26773 H 2608.99 4.96551 4.27923 0
M  V30 26774 H 2608.51 3.38918 4.94868 0
M  V30 26775 H 2610.19 3.95918 5.11721 0
M  V30 26776 N 2610.32 -1.21392 1.00507 0
M  V30 26777 C 2611.27 -2.25791 0.558663 0
M  V30 26778 C 2612.27 -1.64687 -0.396819 0
M  V30 26779 O 2613.47 -1.77994 -0.268004 0
M  V30 26780 H 2609.85 -0.734274 0.162313 0
M  V30 26781 H 2611.82 -2.60783 1.45034 0
M  V30 26782 C 2610.57 -3.47559 -0.0988963 0
M  V30 26783 H 2609.89 -3.94848 0.627295 0
M  V30 26784 H 2611.33 -4.22343 -0.374526 0
M  V30 26785 C 2609.79 -3.09186 -1.33811 0
M  V30 26786 O 2610.32 -3.19678 -2.43246 0
M  V30 26787 N 2608.53 -2.63848 -1.21789 0
M  V30 26788 H 2608.07 -2.55511 -0.327415 0
M  V30 26789 H 2608.03 -2.38542 -2.04805 0
M  V30 26790 N 2611.8 -0.779811 -1.36955 0
M  V30 26791 C 2613.22 -0.460369 -1.52816 0
M  V30 26792 C 2613.42 1.0228 -1.73612 0
M  V30 26793 O 2612.47 1.80849 -1.7621 0
M  V30 26794 C 2613.79 -1.28246 -2.71981 0
M  V30 26795 C 2615.34 -1.27517 -2.85847 0
M  V30 26796 C 2615.81 -2.08079 -4.08004 0
M  V30 26797 N 2617.3 -2.05475 -4.15132 0
M  V30 26798 C 2618.04 -2.64586 -5.08706 0
M  V30 26799 N 2617.53 -3.32517 -6.07787 0
M  V30 26800 N 2619.33 -2.54372 -5.0125 0
M  V30 26801 H 2611.48 -1.74071 -1.2171 0
M  V30 26802 H 2613.74 -0.739407 -0.593281 0
M  V30 26803 H 2613.45 -2.33385 -2.63105 0
M  V30 26804 H 2613.32 -0.917153 -3.6588 0
M  V30 26805 H 2615.71 -0.231738 -2.94189 0
M  V30 26806 H 2615.79 -1.68018 -1.92883 0
M  V30 26807 H 2615.43 -3.12448 -4.00423 0
M  V30 26808 H 2615.36 -1.64956 -5.00097 0
M  V30 26809 H 2617.85 -1.56026 -3.44187 0
M  V30 26810 H 2618.17 -3.74974 -6.75732 0
M  V30 26811 H 2616.51 -3.36617 -6.08041 0
M  V30 26812 H 2619.7 -2.0091 -4.22792 0
M  V30 26813 H 2619.87 -3.00732 -5.7399 0
M  V30 26814 N 2613.28 1.48384 -0.531019 0
M  V30 26815 C 2614.52 2.044 0.000683054 0
M  V30 26816 C 2614.88 1.39916 1.31482 0
M  V30 26817 O 2616.09 1.86824 1.93262 0
M  V30 26818 C 2614.36 3.57201 0.119114 0
M  V30 26819 S 2615.92 4.34668 0.60073 0
M  V30 26820 H 2612.73 0.710889 -0.0125597 0
M  V30 26821 H 2615.34 1.82081 -0.711815 0
M  V30 26822 H 2614.04 4.01667 -0.842132 0
M  V30 26823 H 2613.57 3.83975 0.855959 0
M  V30 26824 H 2615.59 4.59815 1.86506 0
M  V30 26825 N 2614.76 0.2662 1.55336 0
M  V30 26826 C 2615.71 -0.641189 2.23588 0
M  V30 26827 C 2616.7 -1.16492 1.22988 0
M  V30 26828 O 2617.91 -1.11958 1.40945 0
M  V30 26829 H 2614.28 -0.225302 0.717456 0
M  V30 26830 H 2616.25 -0.0426037 2.9837 0
M  V30 26831 C 2615 -1.81821 2.96372 0
M  V30 26832 H 2614.32 -1.42439 3.73566 0
M  V30 26833 H 2615.76 -2.42992 3.47463 0
M  V30 26834 C 2614.22 -2.70122 2.01335 0
M  V30 26835 O 2614.75 -3.70222 1.55881 0
M  V30 26836 N 2612.96 -2.37099 1.68024 0
M  V30 26837 H 2612.51 -1.55748 2.05184 0
M  V30 26838 H 2612.46 -2.96453 1.04706 0
M  V30 26839 N 2616.24 -1.57599 -0.0066531 0
M  V30 26840 C 2617.17 -2.11038 -0.999259 0
M  V30 26841 C 2618.15 -1.01798 -1.36276 0
M  V30 26842 O 2619.33 -1.29445 -1.44768 0
M  V30 26843 C 2616.46 -2.60822 -2.29323 0
M  V30 26844 C 2615.42 -3.74529 -2.07153 0
M  V30 26845 C 2614.74 -4.10602 -3.42505 0
M  V30 26846 C 2616.04 -5.02071 -1.4395 0
M  V30 26847 H 2617.74 -2.94224 -0.55433 0
M  V30 26848 H 2615.28 -1.41537 -0.265197 0
M  V30 26849 H 2617.24 -2.96833 -2.99112 0
M  V30 26850 H 2615.96 -1.7475 -2.75917 0
M  V30 26851 H 2614.62 -3.38901 -1.39791 0
M  V30 26852 H 2614.27 -3.21563 -3.8679 0
M  V30 26853 H 2613.97 -4.87205 -3.28489 0
M  V30 26854 H 2615.49 -4.49167 -4.1362 0
M  V30 26855 H 2616.9 -5.35896 -2.03686 0
M  V30 26856 H 2615.3 -5.83435 -1.40442 0
M  V30 26857 H 2616.37 -4.83181 -0.407908 0
M  V30 26858 N 2617.72 0.279305 -1.55105 0
M  V30 26859 C 2618.99 1.03264 -1.6612 0
M  V30 26860 C 2619.37 2.04504 -0.523561 0
M  V30 26861 O 2618.72 2.23462 0.477155 0
M  V30 26862 C 2618.93 1.6951 -3.0507 0
M  V30 26863 C 2620.28 2.20906 -3.6261 0
M  V30 26864 O 2621.3 1.79507 -3.07662 0
M  V30 26865 O 2620.16 2.96823 -4.58867 0
M  V30 26866 H 2617.26 0.478606 -0.674437 0
M  V30 26867 H 2619.8 0.275664 -1.67446 0
M  V30 26868 H 2618.57 0.961134 -3.79312 0
M  V30 26869 H 2618.2 2.51909 -3.07616 0
M  V30 26870 N 2619.19 1.47931 0.543528 0
M  V30 26871 C 2620.44 1.5495 1.29749 0
M  V30 26872 C 2620.76 0.219276 1.93763 0
M  V30 26873 O 2620.03 -0.758019 1.8064 0
M  V30 26874 H 2618.61 0.570803 0.481864 0
M  V30 26875 H 2621.27 1.84314 0.633604 0
M  V30 26876 H 2620.37 2.32338 2.08388 0
M  V30 26877 N 2620.67 -0.791347 1.36292 0
M  V30 26878 C 2621.9 -1.58529 1.33729 0
M  V30 26879 C 2622.32 -1.87932 -0.0794603 0
M  V30 26880 O 2621.68 -1.4774 -1.05084 0
M  V30 26881 C 2621.73 -2.88427 2.1643 0
M  V30 26882 O 2620.83 -3.81941 1.55547 0
M  V30 26883 H 2620.17 -0.480951 0.457802 0
M  V30 26884 H 2622.7 -0.980999 1.79548 0
M  V30 26885 H 2622.71 -3.37714 2.28939 0
M  V30 26886 H 2621.39 -2.66353 3.1942 0
M  V30 26887 H 2619.96 -3.4053 1.51967 0
M  V30 26888 N 2622.15 -1.2054 -1.01528 0
M  V30 26889 C 2623.4 -1.01435 -1.74801 0
M  V30 26890 C 2623.72 0.454423 -1.89631 0
M  V30 26891 O 2622.99 1.32843 -1.43977 0
M  V30 26892 H 2621.57 -0.372336 -0.647592 0
M  V30 26893 H 2624.23 -1.51672 -1.224 0
M  V30 26894 H 2623.33 -1.47378 -2.75111 0
M  V30 26895 N 2623.63 1.20858 -1.01149 0
M  V30 26896 C 2624.56 2.25721 -0.597702 0
M  V30 26897 C 2625.54 1.65692 0.384714 0
M  V30 26898 O 2626.72 1.92296 0.271269 0
M  V30 26899 C 2623.85 3.4723 0.0699539 0
M  V30 26900 C 2622.81 4.19817 -0.832917 0
M  V30 26901 C 2622.13 5.34691 -0.0313142 0
M  V30 26902 C 2623.43 4.7651 -2.13858 0
M  V30 26903 H 2625.13 2.60587 -1.47428 0
M  V30 26904 H 2622.67 1.25261 -0.710323 0
M  V30 26905 H 2624.63 4.19764 0.370956 0
M  V30 26906 H 2623.35 3.11512 0.981205 0
M  V30 26907 H 2622.01 3.49142 -1.11784 0
M  V30 26908 H 2621.66 4.95217 0.881428 0
M  V30 26909 H 2621.36 5.84186 -0.632536 0
M  V30 26910 H 2622.88 6.10032 0.263353 0
M  V30 26911 H 2624.3 5.4089 -1.90029 0
M  V30 26912 H 2622.69 5.36421 -2.69022 0
M  V30 26913 H 2623.76 3.95533 -2.80502 0
M  V30 26914 N 2625.11 0.787064 1.3654 0
M  V30 26915 C 2626.02 0.184937 2.3387 0
M  V30 26916 C 2627.03 -0.661668 1.60928 0
M  V30 26917 O 2628.21 -0.578006 1.92928 0
M  V30 26918 C 2625.27 -0.672085 3.40123 0
M  V30 26919 C 2624.33 0.192746 4.28867 0
M  V30 26920 C 2623.57 -0.623468 5.30046 0
M  V30 26921 O 2623.79 -1.8596 5.39236 0
M  V30 26922 O 2622.72 -0.024601 6.01895 0
M  V30 26923 H 2626.55 0.989613 2.87124 0
M  V30 26924 H 2624.13 0.54848 1.38968 0
M  V30 26925 H 2626.02 -1.16087 4.05095 0
M  V30 26926 H 2624.69 -1.45469 2.89172 0
M  V30 26927 H 2623.6 0.72823 3.66944 0
M  V30 26928 H 2624.93 0.938807 4.83164 0
M  V30 26929 N 2626.58 -1.48101 0.53888 0
M  V30 26930 C 2627.83 -2.02798 0.0080493 0
M  V30 26931 C 2628.16 -1.41426 -1.33087 0
M  V30 26932 O 2627.44 -0.563191 -1.86168 0
M  V30 26933 C 2627.72 -3.59948 -0.104526 0
M  V30 26934 C 2627.57 -4.31786 1.2602 0
M  V30 26935 C 2628.89 -4.3226 -0.826979 0
M  V30 26936 H 2626.01 -0.736987 0.0043992 0
M  V30 26937 H 2628.65 -1.76729 0.697631 0
M  V30 26938 H 2626.8 -3.8229 -0.691825 0
M  V30 26939 H 2628.48 -4.20837 1.88929 0
M  V30 26940 H 2626.72 -3.92856 1.83975 0
M  V30 26941 H 2627.39 -5.40219 1.13433 0
M  V30 26942 H 2629.87 -4.14801 -0.328505 0
M  V30 26943 H 2628.74 -5.41886 -0.874665 0
M  V30 26944 H 2629 -4.00173 -1.8792 0
M  V30 26945 N 2628.06 -0.274434 -1.55192 0
M  V30 26946 C 2629.31 0.343178 -1.98759 0
M  V30 26947 C 2629.62 1.57027 -1.16626 0
M  V30 26948 O 2630.83 2.26079 -1.50334 0
M  V30 26949 C 2629.29 0.661934 -3.5376 0
M  V30 26950 C 2628.89 -0.545318 -4.44669 0
M  V30 26951 C 2630.64 1.24221 -4.05918 0
M  V30 26952 C 2628.54 -0.201188 -5.91058 0
M  V30 26953 H 2627.47 0.132001 -0.742356 0
M  V30 26954 H 2630.13 -0.378979 -1.79544 0
M  V30 26955 H 2628.51 1.44297 -3.68774 0
M  V30 26956 H 2629.68 -1.32219 -4.41423 0
M  V30 26957 H 2628 -1.04239 -4.03142 0
M  V30 26958 H 2630.59 1.51348 -5.12833 0
M  V30 26959 H 2630.94 2.17586 -3.54911 0
M  V30 26960 H 2631.47 0.523472 -3.94341 0
M  V30 26961 H 2628.21 -1.10269 -6.46159 0
M  V30 26962 H 2627.73 0.53894 -5.97374 0
M  V30 26963 H 2629.41 0.20684 -6.46669 0
M  V30 26964 N 2629.54 1.576 -0.00170483 0
M  V30 26965 C 2630.82 1.8187 0.719919 0
M  V30 26966 C 2631.2 0.87978 1.91893 0
M  V30 26967 O 2630.54 -0.0711021 2.28389 0
M  V30 26968 C 2630.75 3.30403 1.12403 0
M  V30 26969 C 2632.1 3.96185 1.52717 0
M  V30 26970 O 2633.13 3.34736 1.21778 0
M  V30 26971 O 2631.99 5.04435 2.10256 0
M  V30 26972 H 2629.08 0.748961 0.350694 0
M  V30 26973 H 2631.63 1.69678 -0.0272895 0
M  V30 26974 H 2630.4 3.90371 0.269464 0
M  V30 26975 H 2630.02 3.476 1.93029 0
M  V30 26976 N 2631.02 -0.271076 1.55251 0
M  V30 26977 C 2631.98 -1.31838 1.87487 0
M  V30 26978 C 2632.98 -1.42261 0.74957 0
M  V30 26979 O 2634.17 -1.41378 1.01773 0
M  V30 26980 C 2631.3 -2.69948 2.08185 0
M  V30 26981 H 2632.5 -1.04485 2.8111 0
M  V30 26982 H 2630.05 -0.509232 1.47772 0
M  V30 26983 H 2630.78 -3.02479 1.1695 0
M  V30 26984 H 2630.57 -2.63769 2.90118 0
M  V30 26985 H 2632.06 -3.45616 2.34392 0
M  V30 26986 N 2632.5 -1.48217 -0.535675 0
M  V30 26987 C 2633.43 -1.56879 -1.65723 0
M  V30 26988 C 2634.41 -0.41957 -1.57094 0
M  V30 26989 O 2635.59 -0.630383 -1.77647 0
M  V30 26990 C 2632.72 -1.49147 -3.04093 0
M  V30 26991 C 2631.76 -2.6884 -3.311 0
M  V30 26992 S 2632.6 -4.3086 -3.17994 0
M  V30 26993 C 2633.75 -4.25717 -4.5882 0
M  V30 26994 H 2633.99 -2.51762 -1.58125 0
M  V30 26995 H 2631.52 -1.3668 -0.718194 0
M  V30 26996 H 2633.48 -1.45373 -3.83897 0
M  V30 26997 H 2632.14 -0.556122 -3.09138 0
M  V30 26998 H 2631.33 -2.59553 -4.32028 0
M  V30 26999 H 2630.93 -2.69847 -2.58956 0
M  V30 27000 H 2633.23 -3.95299 -5.50223 0
M  V30 27001 H 2634.17 -5.26805 -4.73162 0
M  V30 27002 H 2634.58 -3.56265 -4.37876 0
M  V30 27003 N 2633.97 0.784108 -1.3671 0
M  V30 27004 C 2635.39 1.08292 -1.17239 0
M  V30 27005 C 2635.59 2.015 -9.48134e-05 0
M  V30 27006 O 2634.65 2.43623 0.663643 0
M  V30 27007 C 2635.96 1.69229 -2.4856 0
M  V30 27008 C 2637.51 1.81545 -2.54971 0
M  V30 27009 C 2637.98 2.45897 -3.86392 0
M  V30 27010 N 2639.47 2.5336 -3.87767 0
M  V30 27011 C 2640.21 3.03974 -4.86197 0
M  V30 27012 N 2639.7 3.54855 -5.95021 0
M  V30 27013 N 2641.5 3.02735 -4.73612 0
M  V30 27014 H 2633.65 0.164973 -2.11758 0
M  V30 27015 H 2635.91 0.135805 -0.938222 0
M  V30 27016 H 2635.62 1.0821 -3.34639 0
M  V30 27017 H 2635.49 2.68674 -2.64753 0
M  V30 27018 H 2637.88 2.41701 -1.69306 0
M  V30 27019 H 2637.96 0.808908 -2.42673 0
M  V30 27020 H 2637.6 1.86384 -4.72465 0
M  V30 27021 H 2637.53 3.47133 -3.95988 0
M  V30 27022 H 2640.02 2.17337 -3.09149 0
M  V30 27023 H 2640.34 3.91842 -6.66093 0
M  V30 27024 H 2638.68 3.52993 -5.98683 0
M  V30 27025 H 2641.87 2.62277 -3.87722 0
M  V30 27026 H 2642.05 3.41872 -5.50479 0
M  V30 27027 N 2635.45 1.21076 1.00888 0
M  V30 27028 C 2636.68 1.05224 1.78725 0
M  V30 27029 C 2637.1 -0.393762 1.83932 0
M  V30 27030 O 2636.46 -1.2839 1.28006 0
M  V30 27031 C 2636.51 1.64949 3.20662 0
M  V30 27032 O 2635.61 0.892344 4.0263 0
M  V30 27033 H 2634.95 0.370583 0.550966 0
M  V30 27034 H 2637.48 1.60536 1.26844 0
M  V30 27035 H 2637.49 1.69008 3.71349 0
M  V30 27036 H 2636.17 2.70183 3.16187 0
M  V30 27037 H 2634.75 0.926555 3.61205 0
M  V30 27038 N 2636.93 -1.2032 1.01789 0
M  V30 27039 C 2637.86 -2.22567 0.547396 0
M  V30 27040 C 2638.88 -1.58519 -0.370894 0
M  V30 27041 O 2640.06 -1.77698 -0.169036 0
M  V30 27042 C 2637.16 -3.38166 -0.222972 0
M  V30 27043 C 2636.34 -4.31802 0.697547 0
M  V30 27044 C 2635.4 -5.26194 -0.0254695 0
M  V30 27045 O 2634.42 -5.66056 0.597466 0
M  V30 27046 N 2635.62 -5.65759 -1.29989 0
M  V30 27047 H 2638.39 -2.63561 1.42673 0
M  V30 27048 H 2635.95 -1.34874 0.895576 0
M  V30 27049 H 2637.94 -3.98317 -0.715932 0
M  V30 27050 H 2636.51 -2.96051 -1.00361 0
M  V30 27051 H 2635.73 -3.69598 1.37079 0
M  V30 27052 H 2637.02 -4.91283 1.32356 0
M  V30 27053 H 2636.42 -5.35388 -1.8269 0
M  V30 27054 H 2634.98 -6.28214 -1.73755 0
M  V30 27055 N 2638.41 -0.794293 -1.3612 0
M  V30 27056 C 2639.34 -0.210369 -2.3255 0
M  V30 27057 C 2640.32 0.657359 -1.56885 0
M  V30 27058 O 2641.5 0.590174 -1.85015 0
M  V30 27059 C 2638.63 0.651759 -3.4113 0
M  V30 27060 C 2637.59 -0.11647 -4.27841 0
M  V30 27061 C 2636.91 0.866567 -5.27631 0
M  V30 27062 C 2638.21 -1.30846 -5.05645 0
M  V30 27063 H 2639.91 -1.01599 -2.81635 0
M  V30 27064 H 2637.45 -0.490005 -1.35407 0
M  V30 27065 H 2639.41 1.07023 -4.07583 0
M  V30 27066 H 2638.13 1.49013 -2.90624 0
M  V30 27067 H 2636.79 -0.515979 -3.62951 0
M  V30 27068 H 2636.44 1.70011 -4.73398 0
M  V30 27069 H 2636.14 0.356947 -5.86515 0
M  V30 27070 H 2637.66 1.28351 -5.96958 0
M  V30 27071 H 2639.08 -0.965492 -5.65112 0
M  V30 27072 H 2637.47 -1.75171 -5.73964 0
M  V30 27073 H 2638.54 -2.10136 -4.37002 0
M  V30 27074 N 2639.89 1.47813 -0.546727 0
M  V30 27075 C 2641.13 2.02091 -0.0187392 0
M  V30 27076 C 2641.46 1.42449 1.33166 0
M  V30 27077 O 2640.73 0.595872 1.86618 0
M  V30 27078 H 2639.31 0.74699 -0.00393844 0
M  V30 27079 H 2641.97 1.81336 -0.714359 0
M  V30 27080 H 2641.06 3.12005 0.0771671 0
M  V30 27081 N 2641.36 0.28266 1.55044 0
M  V30 27082 C 2642.31 -0.601526 2.22823 0
M  V30 27083 C 2643.28 -1.1439 1.20433 0
M  V30 27084 O 2644.47 -1.19181 1.48998 0
M  V30 27085 C 2641.61 -1.77627 2.95876 0
M  V30 27086 C 2640.72 -1.26703 4.13002 0
M  V30 27087 C 2639.85 -2.40418 4.7368 0
M  V30 27088 C 2638.89 -1.86535 5.82985 0
M  V30 27089 N 2638.03 -2.93751 6.37695 0
M  V30 27090 H 2642.87 -0.0169004 2.97995 0
M  V30 27091 H 2640.41 0.0034255 1.471 0
M  V30 27092 H 2642.37 -2.46691 3.36451 0
M  V30 27093 H 2641 -2.33281 2.23114 0
M  V30 27094 H 2640.05 -0.469247 3.77495 0
M  V30 27095 H 2641.36 -0.832431 4.91805 0
M  V30 27096 H 2640.51 -3.17461 5.17014 0
M  V30 27097 H 2639.25 -2.87196 3.94169 0
M  V30 27098 H 2638.26 -1.07973 5.39094 0
M  V30 27099 H 2639.48 -1.40683 6.64368 0
M  V30 27100 H 2637.43 -3.39898 5.61075 0
M  V30 27101 H 2637.35 -2.54731 7.11792 0
M  V30 27102 H 2638.61 -3.70748 6.85687 0
M  V30 27103 N 2642.84 -1.57597 0.0100627 0
M  V30 27104 C 2643.81 -2.07988 -0.962993 0
M  V30 27105 C 2644.81 -0.991195 -1.26617 0
M  V30 27106 O 2646 -1.25349 -1.20968 0
M  V30 27107 C 2643.13 -2.52978 -2.28506 0
M  V30 27108 H 2644.32 -2.95235 -0.526919 0
M  V30 27109 H 2641.87 -1.54483 -0.237612 0
M  V30 27110 H 2642.61 -1.69004 -2.76782 0
M  V30 27111 H 2642.39 -3.32497 -2.07818 0
M  V30 27112 H 2643.88 -2.92256 -2.98289 0
M  V30 27113 N 2644.32 0.262839 -1.55393 0
M  V30 27114 C 2645.55 1.01105 -1.80514 0
M  V30 27115 C 2645.96 1.79555 -0.583565 0
M  V30 27116 O 2645.32 1.76927 0.447554 0
M  V30 27117 C 2645.37 1.96159 -3.03651 0
M  V30 27118 O 2645.09 1.20886 -4.21092 0
M  V30 27119 C 2646.59 2.82709 -3.41453 0
M  V30 27120 H 2643.81 0.298225 -0.601085 0
M  V30 27121 H 2646.36 0.290546 -2.02425 0
M  V30 27122 H 2644.51 2.63658 -2.83837 0
M  V30 27123 H 2644.93 1.85042 -4.90775 0
M  V30 27124 H 2646.4 3.45184 -4.30757 0
M  V30 27125 H 2646.88 3.53004 -2.61314 0
M  V30 27126 H 2647.48 2.20686 -3.63562 0
M  V30 27127 N 2645.8 1.48499 0.527807 0
M  V30 27128 C 2646.76 1.62699 1.61436 0
M  V30 27129 C 2647.76 0.500163 1.52823 0
M  V30 27130 O 2648.95 0.766003 1.56455 0
M  V30 27131 C 2646.08 1.59923 3.01061 0
M  V30 27132 H 2647.28 2.59585 1.50185 0
M  V30 27133 H 2644.83 1.37128 0.750031 0
M  V30 27134 H 2645.56 0.645219 3.17817 0
M  V30 27135 H 2645.35 2.41731 3.08721 0
M  V30 27136 H 2646.84 1.73057 3.80054 0
M  V30 27137 N 2647.28 -0.776847 1.37123 0
M  V30 27138 C 2648.21 -1.90399 1.35168 0
M  V30 27139 C 2649.19 -1.68657 0.221099 0
M  V30 27140 O 2650.37 -1.89589 0.420675 0
M  V30 27141 C 2647.5 -3.27609 1.1528 0
M  V30 27142 C 2646.46 -3.63904 2.25295 0
M  V30 27143 C 2645.78 -4.996 1.90536 0
M  V30 27144 C 2647.08 -3.71181 3.67453 0
M  V30 27145 H 2648.78 -1.92293 2.29486 0
M  V30 27146 H 2646.32 -0.923753 1.10466 0
M  V30 27147 H 2648.28 -4.06094 1.12543 0
M  V30 27148 H 2647 -3.26135 0.17416 0
M  V30 27149 H 2645.66 -2.87724 2.27179 0
M  V30 27150 H 2645.31 -4.9466 0.912147 0
M  V30 27151 H 2645.01 -5.24853 2.64202 0
M  V30 27152 H 2646.53 -5.8049 1.89377 0
M  V30 27153 H 2647.95 -4.39829 3.67727 0
M  V30 27154 H 2646.34 -4.07929 4.4013 0
M  V30 27155 H 2647.41 -2.7197 4.01448 0
M  V30 27156 N 2648.76 -1.2161 -1.00244 0
M  V30 27157 C 2649.72 -0.979169 -2.07232 0
M  V30 27158 C 2650.72 0.0507937 -1.6072 0
M  V30 27159 O 2651.91 -0.186743 -1.73196 0
M  V30 27160 C 2649.04 -0.477075 -3.37545 0
M  V30 27161 H 2650.23 -1.92835 -2.29684 0
M  V30 27162 H 2647.79 -1.03344 -1.17259 0
M  V30 27163 H 2648.52 0.476909 -3.20774 0
M  V30 27164 H 2648.31 -1.22003 -3.72636 0
M  V30 27165 H 2649.8 -0.331254 -4.16284 0
M  V30 27166 N 2650.23 1.19778 -1.02425 0
M  V30 27167 C 2651.48 1.88666 -0.713298 0
M  V30 27168 C 2651.8 1.80195 0.760868 0
M  V30 27169 O 2653 2.4429 1.18469 0
M  V30 27170 C 2651.46 3.38392 -1.22551 0
M  V30 27171 C 2651.07 3.55432 -2.72713 0
M  V30 27172 C 2652.81 4.12787 -0.99033 0
M  V30 27173 C 2650.72 4.99026 -3.17375 0
M  V30 27174 H 2649.65 0.706601 -0.263117 0
M  V30 27175 H 2652.3 1.35452 -1.23795 0
M  V30 27176 H 2650.68 3.90976 -0.628801 0
M  V30 27177 H 2651.85 3.13199 -3.37999 0
M  V30 27178 H 2650.17 2.9442 -2.94458 0
M  V30 27179 H 2652.77 5.18672 -1.29935 0
M  V30 27180 H 2653.11 4.16236 0.0730029 0
M  V30 27181 H 2653.64 3.66326 -1.5508 0
M  V30 27182 H 2650.38 5.00736 -4.23018 0
M  V30 27183 H 2649.9 5.42039 -2.56814 0
M  V30 27184 H 2651.58 5.67652 -3.10451 0
M  V30 27185 N 2651.71 0.801501 1.35697 0
M  V30 27186 C 2652.64 0.153962 2.2768 0
M  V30 27187 C 2653.62 -0.677064 1.47833 0
M  V30 27188 O 2654.81 -0.645443 1.77105 0
M  V30 27189 C 2651.93 -0.786929 3.29432 0
M  V30 27190 C 2650.98 -0.0361697 4.26485 0
M  V30 27191 S 2651.81 1.29639 5.19571 0
M  V30 27192 C 2652.97 0.359815 6.24865 0
M  V30 27193 H 2653.2 0.93385 2.82253 0
M  V30 27194 H 2650.73 0.596308 1.4242 0
M  V30 27195 H 2652.69 -1.32429 3.88552 0
M  V30 27196 H 2651.35 -1.54016 2.73748 0
M  V30 27197 H 2650.55 -0.75058 4.9838 0
M  V30 27198 H 2650.15 0.431082 3.71507 0
M  V30 27199 H 2652.44 -0.456835 6.75958 0
M  V30 27200 H 2653.38 1.0478 7.00305 0
M  V30 27201 H 2653.79 -0.0422281 5.64484 0
M  V30 27202 N 2653.19 -1.47521 0.554558 0
M  V30 27203 C 2654.44 -2.02079 0.0294563 0
M  V30 27204 C 2654.76 -1.43154 -1.32409 0
M  V30 27205 O 2654.03 -0.605761 -1.86299 0
M  V30 27206 H 2652.61 -0.746958 0.00789985 0
M  V30 27207 H 2655.27 -1.80955 0.723966 0
M  V30 27208 H 2654.37 -3.12041 -0.0606196 0
M  V30 27209 N 2654.67 -0.290879 -1.54892 0
M  V30 27210 C 2655.94 0.373955 -1.91992 0
M  V30 27211 C 2656.32 1.7249 -1.21697 0
M  V30 27212 O 2655.67 2.25816 -0.34921 0
M  V30 27213 C 2655.88 0.498642 -3.45419 0
M  V30 27214 C 2657.23 0.774225 -4.17482 0
M  V30 27215 O 2658.25 0.582846 -3.51399 0
M  V30 27216 O 2657.11 1.1412 -5.34452 0
M  V30 27217 H 2654.21 0.207301 -0.800597 0
M  V30 27218 H 2656.75 -0.338193 -1.66296 0
M  V30 27219 H 2655.53 -0.45146 -3.88687 0
M  V30 27220 H 2655.15 1.25965 -3.77119 0
M  V30 27221 N 2656.15 1.57589 -0.0184203 0
M  V30 27222 C 2657.09 2.09566 0.966985 0
M  V30 27223 C 2658.06 0.995249 1.32981 0
M  V30 27224 O 2659.25 1.26881 1.42499 0
M  V30 27225 C 2656.39 2.61865 2.24768 0
M  V30 27226 C 2655.5 3.85876 1.94225 0
M  V30 27227 C 2654.64 4.26608 3.1651 0
M  V30 27228 C 2653.67 5.43406 2.81738 0
M  V30 27229 N 2652.81 5.79345 3.96616 0
M  V30 27230 H 2657.65 2.93484 0.516822 0
M  V30 27231 H 2655.19 1.4507 0.243518 0
M  V30 27232 H 2657.15 2.90273 2.99662 0
M  V30 27233 H 2655.78 1.80794 2.6742 0
M  V30 27234 H 2654.83 3.64264 1.09619 0
M  V30 27235 H 2656.14 4.70856 1.64608 0
M  V30 27236 H 2655.29 4.56396 3.99735 0
M  V30 27237 H 2654.03 3.40374 3.4928 0
M  V30 27238 H 2653.04 5.13323 1.96924 0
M  V30 27239 H 2654.26 6.31331 2.50196 0
M  V30 27240 H 2652.21 4.96067 4.29248 0
M  V30 27241 H 2652.13 6.5894 3.70586 0
M  V30 27242 H 2653.39 6.13733 4.80575 0
M  V30 27243 N 2657.62 -0.254594 1.5553 0
M  V30 27244 C 2658.55 -1.31893 1.92682 0
M  V30 27245 C 2659.53 -1.50599 0.790824 0
M  V30 27246 O 2660.72 -1.63335 1.05048 0
M  V30 27247 C 2657.85 -2.67513 2.21482 0
M  V30 27248 C 2656.8 -2.63513 3.37261 0
M  V30 27249 C 2656.13 -4.02856 3.51583 0
M  V30 27250 C 2657.43 -2.2117 4.73161 0
M  V30 27251 H 2659.12 -1.01046 2.81833 0
M  V30 27252 H 2656.67 -0.484638 1.356 0
M  V30 27253 H 2658.62 -3.42099 2.46061 0
M  V30 27254 H 2657.35 -2.9998 1.29149 0
M  V30 27255 H 2656.01 -1.91384 3.12678 0
M  V30 27256 H 2655.65 -4.32576 2.56684 0
M  V30 27257 H 2655.35 -4.0107 4.29437 0
M  V30 27258 H 2656.88 -4.79154 3.78475 0
M  V30 27259 H 2658.29 -2.85486 4.97163 0
M  V30 27260 H 2656.69 -2.30511 5.54062 0
M  V30 27261 H 2657.76 -1.16324 4.70741 0
M  V30 27262 N 2659.1 -1.48777 -0.519925 0
M  V30 27263 C 2660.35 -1.58516 -1.27453 0
M  V30 27264 C 2660.7 -0.26009 -1.90634 0
M  V30 27265 O 2660 0.738005 -1.76816 0
M  V30 27266 C 2660.19 -2.66754 -2.37859 0
M  V30 27267 C 2660.02 -4.09657 -1.85502 0
M  V30 27268 C 2658.79 -4.76677 -1.67653 0
M  V30 27269 C 2660.99 -4.95503 -1.37774 0
M  V30 27270 N 2658.97 -6.0396 -1.10026 0
M  V30 27271 C 2660.34 -6.13112 -0.921606 0
M  V30 27272 C 2662.39 -4.81649 -1.26171 0
M  V30 27273 C 2661.1 -7.18394 -0.36093 0
M  V30 27274 C 2663.12 -5.87062 -0.715018 0
M  V30 27275 C 2662.49 -7.03886 -0.269009 0
M  V30 27276 H 2658.58 -0.634539 -0.457038 0
M  V30 27277 H 2661.17 -1.85702 -0.58504 0
M  V30 27278 H 2659.34 -2.41373 -3.04292 0
M  V30 27279 H 2661.07 -2.66121 -3.04896 0
M  V30 27280 H 2657.83 -4.3317 -1.9147 0
M  V30 27281 H 2658.25 -6.71869 -0.831949 0
M  V30 27282 H 2662.89 -3.9166 -1.59256 0
M  V30 27283 H 2660.61 -8.08098 -0.0177706 0
M  V30 27284 H 2664.2 -5.78398 -0.628275 0
M  V30 27285 H 2663.08 -7.84061 0.147428 0
M  V30 27286 N 2660.58 0.769564 -1.37534 0
M  V30 27287 C 2661.83 1.52964 -1.34066 0
M  V30 27288 C 2662.18 1.92259 0.0737604 0
M  V30 27289 O 2661.47 1.61376 1.03288 0
M  V30 27290 C 2661.67 2.80436 -2.21563 0
M  V30 27291 C 2661.5 2.53601 -3.71371 0
M  V30 27292 C 2660.27 2.4762 -4.40468 0
M  V30 27293 C 2662.46 2.21451 -4.64181 0
M  V30 27294 N 2660.45 2.12892 -5.75804 0
M  V30 27295 C 2661.82 1.9688 -5.8791 0
M  V30 27296 C 2663.87 2.07625 -4.52544 0
M  V30 27297 C 2662.58 1.59879 -7.01307 0
M  V30 27298 C 2664.6 1.72024 -5.65828 0
M  V30 27299 C 2663.96 1.48315 -6.88609 0
M  V30 27300 H 2660.06 0.55996 -0.545866 0
M  V30 27301 H 2662.65 0.897603 -1.72775 0
M  V30 27302 H 2660.82 3.41474 -1.85067 0
M  V30 27303 H 2662.55 3.46352 -2.09338 0
M  V30 27304 H 2659.3 2.63549 -3.93496 0
M  V30 27305 H 2659.73 1.98218 -6.47332 0
M  V30 27306 H 2664.37 2.24637 -3.58187 0
M  V30 27307 H 2662.09 1.41606 -7.95596 0
M  V30 27308 H 2665.67 1.61981 -5.58796 0
M  V30 27309 H 2664.55 1.21175 -7.74781 0
M  V30 27310 N 2662.06 1.22139 0.995977 0
M  V30 27311 C 2663.02 0.990145 2.06709 0
M  V30 27312 C 2664.02 -0.0422696 1.60744 0
M  V30 27313 O 2665.21 0.195925 1.73095 0
M  V30 27314 C 2662.34 0.494969 3.37288 0
M  V30 27315 H 2663.54 1.94051 2.28658 0
M  V30 27316 H 2661.09 1.03965 1.16709 0
M  V30 27317 H 2661.82 -0.459891 3.21023 0
M  V30 27318 H 2661.61 1.23978 3.71984 0
M  V30 27319 H 2663.1 0.353326 4.16103 0
M  V30 27320 N 2663.54 -1.19233 1.03059 0
M  V30 27321 C 2664.81 -1.84742 0.642641 0
M  V30 27322 C 2665.19 -1.9195 -0.878544 0
M  V30 27323 O 2664.54 -1.43779 -1.77595 0
M  V30 27324 C 2664.75 -3.23614 1.30671 0
M  V30 27325 C 2666.1 -3.99757 1.43105 0
M  V30 27326 O 2667.12 -3.33018 1.26402 0
M  V30 27327 O 2665.98 -5.1931 1.70232 0
M  V30 27328 H 2663.08 -0.796202 0.223587 0
M  V30 27329 H 2665.62 -1.26709 1.12885 0
M  V30 27330 H 2664.39 -3.13212 2.3455 0
M  V30 27331 H 2664.02 -3.89294 0.808473 0
M  V30 27332 N 2665.01 -0.808686 -1.3527 0
M  V30 27333 C 2665.95 -0.178189 -2.28506 0
M  V30 27334 C 2666.96 0.623728 -1.50378 0
M  V30 27335 O 2668.15 0.455744 -1.72584 0
M  V30 27336 C 2665.25 0.769901 -3.30039 0
M  V30 27337 C 2664.42 0.0138981 -4.37398 0
M  V30 27338 C 2663.48 0.880784 -5.18776 0
M  V30 27339 O 2662.51 0.330959 -5.68237 0
M  V30 27340 N 2663.71 2.20258 -5.37091 0
M  V30 27341 H 2666.47 -0.979156 -2.83254 0
M  V30 27342 H 2664.03 -0.664334 -1.47642 0
M  V30 27343 H 2666.03 1.35411 -3.81374 0
M  V30 27344 H 2664.6 1.47167 -2.75791 0
M  V30 27345 H 2663.82 -0.751536 -3.8697 0
M  V30 27346 H 2665.1 -0.507054 -5.06267 0
M  V30 27347 H 2664.5 2.67319 -4.98555 0
M  V30 27348 H 2663.06 2.73598 -5.91598 0
M  V30 27349 N 2666.49 1.47225 -0.562374 0
M  V30 27350 C 2667.74 2.0276 -0.0403117 0
M  V30 27351 C 2668.07 1.43526 1.30821 0
M  V30 27352 O 2667.35 0.592737 1.85248 0
M  V30 27353 C 2667.63 3.60069 0.0472477 0
M  V30 27354 C 2667.48 4.29726 -1.32873 0
M  V30 27355 C 2668.8 4.33521 0.758106 0
M  V30 27356 H 2665.92 0.736824 -0.0161235 0
M  V30 27357 H 2668.56 1.75597 -0.725659 0
M  V30 27358 H 2666.71 3.83343 0.630919 0
M  V30 27359 H 2668.38 4.17778 -1.956 0
M  V30 27360 H 2666.63 3.89879 -1.90202 0
M  V30 27361 H 2667.3 5.38346 -1.22013 0
M  V30 27362 H 2669.77 4.15271 0.262473 0
M  V30 27363 H 2668.65 5.43209 0.788345 0
M  V30 27364 H 2668.91 4.03112 1.8153 0
M  V30 27365 N 2667.97 0.299089 1.54736 0
M  V30 27366 C 2669.2 -0.316218 2.04975 0
M  V30 27367 C 2669.62 -1.46883 1.17504 0
M  V30 27368 O 2668.98 -1.80417 0.17871 0
M  V30 27369 C 2669.03 -0.751935 3.52673 0
M  V30 27370 O 2668.13 -1.8569 3.68229 0
M  V30 27371 H 2667.47 -0.0617058 0.661127 0
M  V30 27372 H 2670 0.440376 1.99805 0
M  V30 27373 H 2670.01 -1.04126 3.94489 0
M  V30 27374 H 2668.69 0.0912213 4.158 0
M  V30 27375 H 2667.26 -1.56828 3.38319 0
M  V30 27376 N 2669.45 -1.57577 0.0267774 0
M  V30 27377 C 2670.36 -2.13535 -0.971595 0
M  V30 27378 C 2671.37 -1.08703 -1.35866 0
M  V30 27379 O 2672.55 -1.40748 -1.44055 0
M  V30 27380 C 2669.62 -2.64945 -2.23618 0
M  V30 27381 C 2668.68 -3.84483 -1.90975 0
M  V30 27382 C 2667.91 -4.33432 -3.11404 0
M  V30 27383 O 2668.13 -3.81566 -4.23985 0
M  V30 27384 O 2667.07 -5.25302 -2.93838 0
M  V30 27385 H 2670.89 -2.99114 -0.525801 0
M  V30 27386 H 2668.48 -1.48139 -0.193686 0
M  V30 27387 H 2670.36 -2.98091 -2.97859 0
M  V30 27388 H 2669.03 -1.82451 -2.67382 0
M  V30 27389 H 2667.94 -3.56267 -1.14125 0
M  V30 27390 H 2669.27 -4.68133 -1.52028 0
M  V30 27391 N 2670.93 0.246342 -1.55663 0
M  V30 27392 C 2671.87 1.30501 -1.90363 0
M  V30 27393 C 2672.84 1.47799 -0.757931 0
M  V30 27394 O 2674.03 1.61773 -1.01163 0
M  V30 27395 C 2671.17 2.65531 -2.20425 0
M  V30 27396 C 2670.28 2.56236 -3.47803 0
M  V30 27397 C 2669.42 3.83623 -3.67433 0
M  V30 27398 C 2668.46 3.68948 -4.8841 0
M  V30 27399 N 2667.59 4.88228 -5.04557 0
M  V30 27400 H 2672.43 1.00208 -2.80646 0
M  V30 27401 H 2669.97 0.483553 -1.38925 0
M  V30 27402 H 2671.93 3.44131 -2.35859 0
M  V30 27403 H 2670.56 2.93971 -1.33345 0
M  V30 27404 H 2669.61 1.69202 -3.40697 0
M  V30 27405 H 2670.92 2.41302 -4.36549 0
M  V30 27406 H 2670.08 4.70666 -3.82829 0
M  V30 27407 H 2668.81 4.01455 -2.76921 0
M  V30 27408 H 2667.82 2.80288 -4.72989 0
M  V30 27409 H 2669.04 3.5261 -5.80381 0
M  V30 27410 H 2666.99 5.0642 -4.16983 0
M  V30 27411 H 2666.91 4.75927 -5.87392 0
M  V30 27412 H 2668.18 5.76768 -5.24365 0
M  V30 27413 N 2672.4 1.4905 0.512027 0
M  V30 27414 C 2673.34 1.59496 1.63206 0
M  V30 27415 C 2674.32 0.444509 1.56406 0
M  V30 27416 O 2675.5 0.658566 1.76622 0
M  V30 27417 C 2672.63 1.53966 3.01682 0
M  V30 27418 C 2671.67 2.74073 3.26781 0
M  V30 27419 S 2672.51 4.35864 3.11099 0
M  V30 27420 C 2673.66 4.32962 4.5199 0
M  V30 27421 H 2673.89 2.54245 1.54099 0
M  V30 27422 H 2671.43 1.37805 0.696358 0
M  V30 27423 H 2673.39 1.51462 3.81536 0
M  V30 27424 H 2672.05 0.605232 3.08214 0
M  V30 27425 H 2671.24 2.66393 4.27844 0
M  V30 27426 H 2670.84 2.73933 2.54631 0
M  V30 27427 H 2673.13 4.04002 5.43864 0
M  V30 27428 H 2674.08 5.34265 4.64721 0
M  V30 27429 H 2674.48 3.63186 4.32153 0
M  V30 27430 N 2673.88 -0.762259 1.3794 0
M  V30 27431 C 2675.13 -1.51812 1.33407 0
M  V30 27432 C 2675.45 -1.94844 -0.0780633 0
M  V30 27433 O 2674.72 -1.67005 -1.02402 0
M  V30 27434 H 2673.3 -0.563095 0.490849 0
M  V30 27435 H 2675.96 -0.906638 1.72528 0
M  V30 27436 H 2675.06 -2.41309 1.9793 0
M  V30 27437 N 2675.36 -1.22666 -0.989486 0
M  V30 27438 C 2676.59 -1.0797 -1.76494 0
M  V30 27439 C 2677 0.369511 -1.85149 0
M  V30 27440 O 2676.36 1.25594 -1.3241 0
M  V30 27441 C 2676.41 -1.68858 -3.19639 0
M  V30 27442 O 2676.13 -3.08111 -3.11447 0
M  V30 27443 C 2677.63 -1.59483 -4.13618 0
M  V30 27444 H 2674.85 -0.378328 -0.554174 0
M  V30 27445 H 2677.4 -1.6233 -1.24376 0
M  V30 27446 H 2675.55 -1.18553 -3.68814 0
M  V30 27447 H 2675.97 -3.37496 -4.01493 0
M  V30 27448 H 2677.44 -2.06804 -5.11797 0
M  V30 27449 H 2677.92 -0.551986 -4.35718 0
M  V30 27450 H 2678.52 -2.0911 -3.70342 0
M  V30 27451 N 2676.84 1.18685 -1.0369 0
M  V30 27452 C 2678.08 1.90265 -0.746891 0
M  V30 27453 C 2678.44 1.78309 0.712043 0
M  V30 27454 O 2679.64 2.44561 1.11549 0
M  V30 27455 C 2677.92 3.36813 -1.19549 0
M  V30 27456 S 2679.47 4.26527 -1.03054 0
M  V30 27457 H 2676.29 0.65705 -0.271674 0
M  V30 27458 H 2678.89 1.43435 -1.32841 0
M  V30 27459 H 2677.6 3.43044 -2.25276 0
M  V30 27460 H 2677.13 3.8868 -0.607601 0
M  V30 27461 H 2679.14 4.9617 0.054236 0
M  V30 27462 N 2678.32 0.815849 1.34839 0
M  V30 27463 C 2679.54 0.412296 2.03261 0
M  V30 27464 C 2679.97 -0.971723 1.61056 0
M  V30 27465 O 2679.33 -1.63099 0.791729 0
M  V30 27466 C 2679.37 0.514351 3.56913 0
M  V30 27467 O 2678.48 -0.468603 4.09729 0
M  V30 27468 H 2677.82 0.170782 0.641661 0
M  V30 27469 H 2680.35 1.1043 1.72239 0
M  V30 27470 H 2680.36 0.387528 4.06155 0
M  V30 27471 H 2679.03 1.52381 3.86979 0
M  V30 27472 H 2677.61 -0.301251 3.71681 0
M  V30 27473 N 2679.8 -1.46924 0.570174 0
M  V30 27474 C 2680.74 -2.30171 -0.170217 0
M  V30 27475 C 2681.71 -1.39856 -0.896074 0
M  V30 27476 O 2682.9 -1.68812 -0.889218 0
M  V30 27477 C 2680.04 -3.24081 -1.18599 0
M  V30 27478 C 2679.15 -4.29491 -0.464871 0
M  V30 27479 C 2678.29 -5.10539 -1.46707 0
M  V30 27480 C 2677.32 -6.07712 -0.731651 0
M  V30 27481 N 2676.46 -6.81672 -1.6813 0
M  V30 27482 H 2681.3 -2.9296 0.545765 0
M  V30 27483 H 2678.84 -1.44392 0.280963 0
M  V30 27484 H 2680.8 -3.7696 -1.78765 0
M  V30 27485 H 2679.43 -2.63129 -1.86984 0
M  V30 27486 H 2678.48 -3.79567 0.251573 0
M  V30 27487 H 2679.79 -4.98677 0.110636 0
M  V30 27488 H 2678.94 -5.67634 -2.14189 0
M  V30 27489 H 2677.68 -4.41285 -2.0765 0
M  V30 27490 H 2676.69 -5.49783 -0.042982 0
M  V30 27491 H 2677.91 -6.7898 -0.127784 0
M  V30 27492 H 2675.86 -6.15138 -2.27907 0
M  V30 27493 H 2675.78 -7.47074 -1.15828 0
M  V30 27494 H 2677.04 -7.43332 -2.34687 0
M  V30 27495 N 2681.27 -0.307291 -1.54575 0
M  V30 27496 C 2682.24 0.553185 -2.22424 0
M  V30 27497 C 2683.24 1.05637 -1.21233 0
M  V30 27498 O 2684.43 0.951394 -1.45925 0
M  V30 27499 C 2681.56 1.76659 -2.91555 0
M  V30 27500 H 2682.75 -0.0397011 -2.99874 0
M  V30 27501 H 2680.3 -0.0581903 -1.56192 0
M  V30 27502 H 2681.04 2.39915 -2.18201 0
M  V30 27503 H 2680.82 1.41337 -3.65741 0
M  V30 27504 H 2682.31 2.37777 -3.43296 0
M  V30 27505 N 2682.75 1.57561 -0.0351337 0
M  V30 27506 C 2684.03 1.83356 0.68118 0
M  V30 27507 C 2684.41 0.920286 1.89984 0
M  V30 27508 O 2683.76 -0.0226414 2.28489 0
M  V30 27509 C 2683.97 3.32713 1.0537 0
M  V30 27510 C 2685.31 3.99335 1.44279 0
M  V30 27511 O 2686.34 3.37244 1.14651 0
M  V30 27512 O 2685.2 5.08781 1.99509 0
M  V30 27513 H 2682.29 0.756232 0.334728 0
M  V30 27514 H 2684.84 1.69582 -0.0632746 0
M  V30 27515 H 2683.61 3.90855 0.1866 0
M  V30 27516 H 2683.23 3.51616 1.85612 0
M  V30 27517 N 2684.23 -0.238084 1.55791 0
M  V30 27518 C 2685.48 -0.96297 1.77683 0
M  V30 27519 C 2685.8 -1.85517 0.600706 0
M  V30 27520 O 2685.07 -1.92117 -0.383148 0
M  V30 27521 H 2683.65 -0.358556 0.655322 0
M  V30 27522 H 2686.31 -0.253911 1.93239 0
M  V30 27523 H 2685.41 -1.57952 2.6918 0
M  V30 27524 N 2685.71 -1.4932 -0.504115 0
M  V30 27525 C 2686.93 -1.62617 -1.28726 0
M  V30 27526 C 2687.36 -0.296342 -1.85751 0
M  V30 27527 O 2686.72 0.73562 -1.65706 0
M  V30 27528 C 2686.76 -2.69528 -2.39556 0
M  V30 27529 O 2685.87 -2.28484 -3.4332 0
M  V30 27530 H 2685.21 -0.544401 -0.380162 0
M  V30 27531 H 2687.74 -1.95486 -0.603838 0
M  V30 27532 H 2687.75 -2.916 -2.85365 0
M  V30 27533 H 2686.42 -3.66059 -1.97417 0
M  V30 27534 H 2685 -2.1673 -3.03451 0
M  V30 27535 N 2687.19 0.754933 -1.38342 0
M  V30 27536 C 2688.43 1.51103 -1.3421 0
M  V30 27537 C 2688.75 1.94882 0.0677291 0
M  V30 27538 O 2688.02 1.67546 1.01515 0
M  V30 27539 H 2686.6 0.560484 -0.493828 0
M  V30 27540 H 2689.27 0.897476 -1.73007 0
M  V30 27541 H 2688.36 2.40256 -1.99207 0
M  V30 27542 N 2688.66 1.23189 0.982967 0
M  V30 27543 C 2689.89 1.08991 1.76453 0
M  V30 27544 C 2690.31 -0.354659 1.84726 0
M  V30 27545 O 2689.67 -1.25646 1.30701 0
M  V30 27546 C 2689.72 1.71714 3.17091 0
M  V30 27547 O 2688.82 0.977547 4.00647 0
M  V30 27548 H 2688.16 0.382187 0.542982 0
M  V30 27549 H 2690.69 1.6319 1.2341 0
M  V30 27550 H 2690.7 1.76847 3.67681 0
M  V30 27551 H 2689.38 2.76829 3.10385 0
M  V30 27552 H 2687.96 1.00296 3.59159 0
M  V30 27553 N 2690.14 -1.18133 1.04318 0
M  V30 27554 C 2691.39 -1.88455 0.749161 0
M  V30 27555 C 2691.72 -1.80301 -0.721459 0
M  V30 27556 O 2691 -1.20502 -1.52674 0
M  V30 27557 C 2691.28 -3.38836 1.21911 0
M  V30 27558 C 2691.13 -3.55787 2.75201 0
M  V30 27559 C 2692.45 -4.3256 0.811161 0
M  V30 27560 H 2689.57 -0.684324 0.273624 0
M  V30 27561 H 2692.21 -1.38973 1.29563 0
M  V30 27562 H 2690.36 -3.81109 0.754204 0
M  V30 27563 H 2692.03 -3.22589 3.29748 0
M  V30 27564 H 2690.28 -2.98358 3.14905 0
M  V30 27565 H 2690.95 -4.61312 3.03143 0
M  V30 27566 H 2693.42 -3.9808 1.21125 0
M  V30 27567 H 2692.3 -5.36336 1.1677 0
M  V30 27568 H 2692.56 -4.41177 -0.285518 0
M  V30 27569 N 2691.62 -0.822988 -1.34405 0
M  V30 27570 C 2692.87 -0.411701 -1.98577 0
M  V30 27571 C 2693.2 1.02262 -1.65095 0
M  V30 27572 O 2692.47 1.71225 -0.922611 0
M  V30 27573 C 2692.76 -0.614297 -3.54822 0
M  V30 27574 C 2692.61 -2.09473 -3.98046 0
M  V30 27575 C 2693.93 -0.0502984 -4.40071 0
M  V30 27576 H 2691.05 -0.15106 -0.721353 0
M  V30 27577 H 2693.69 -1.03556 -1.59299 0
M  V30 27578 H 2691.84 -0.0832457 -3.88411 0
M  V30 27579 H 2693.51 -2.68943 -3.7479 0
M  V30 27580 H 2691.76 -2.58516 -3.48356 0
M  V30 27581 H 2692.43 -2.1873 -5.06815 0
M  V30 27582 H 2694.9 -0.504026 -4.13036 0
M  V30 27583 H 2693.78 -0.221855 -5.48451 0
M  V30 27584 H 2694.04 1.04475 -4.29578 0
M  V30 27585 N 2693.1 1.4662 -0.577957 0
M  V30 27586 C 2694.03 2.33044 0.145876 0
M  V30 27587 C 2695.01 1.45058 0.888387 0
M  V30 27588 O 2696.19 1.73883 0.864782 0
M  V30 27589 C 2693.32 3.27243 1.16316 0
M  V30 27590 C 2692.28 4.24633 0.535793 0
M  V30 27591 C 2691.6 5.08306 1.6592 0
M  V30 27592 C 2692.9 5.19665 -0.523953 0
M  V30 27593 H 2694.6 2.93813 -0.575688 0
M  V30 27594 H 2692.14 1.41285 -0.278297 0
M  V30 27595 H 2694.1 3.86556 1.67786 0
M  V30 27596 H 2692.82 2.64571 1.91494 0
M  V30 27597 H 2691.48 3.66576 0.0422115 0
M  V30 27598 H 2691.13 4.42022 2.40053 0
M  V30 27599 H 2690.83 5.74257 1.2451 0
M  V30 27600 H 2692.35 5.70482 2.17676 0
M  V30 27601 H 2693.77 5.73222 -0.0945067 0
M  V30 27602 H 2692.16 5.93933 -0.858105 0
M  V30 27603 H 2693.23 4.63885 -1.41205 0
M  V30 27604 N 2694.58 0.315484 1.5441 0
M  V30 27605 C 2695.99 -0.0374359 1.59556 0
M  V30 27606 C 2696.19 -1.51178 1.3322 0
M  V30 27607 O 2695.25 -2.26662 1.11268 0
M  V30 27608 C 2696.56 0.37353 2.98371 0
M  V30 27609 C 2698.11 0.323507 3.11324 0
M  V30 27610 C 2698.58 0.709512 4.52471 0
M  V30 27611 N 2700.08 0.662605 4.58436 0
M  V30 27612 C 2700.81 0.933574 5.65749 0
M  V30 27613 N 2700.31 1.27126 6.81037 0
M  V30 27614 N 2702.1 0.859671 5.55487 0
M  V30 27615 H 2694.25 1.27617 1.69787 0
M  V30 27616 H 2696.51 0.51837 0.793723 0
M  V30 27617 H 2696.22 1.40043 3.22616 0
M  V30 27618 H 2696.09 -0.265549 3.76264 0
M  V30 27619 H 2698.48 -0.694172 2.86819 0
M  V30 27620 H 2698.56 0.997408 2.35553 0
M  V30 27621 H 2698.21 1.72507 4.77707 0
M  V30 27622 H 2698.14 0.0133849 5.26598 0
M  V30 27623 H 2700.63 0.413131 3.75635 0
M  V30 27624 H 2700.94 1.46361 7.58814 0
M  V30 27625 H 2699.28 1.30944 6.82553 0
M  V30 27626 H 2702.48 0.595406 4.64298 0
M  V30 27627 H 2702.65 1.07421 6.39034 0
M  V30 27628 N 2696.05 -1.5754 0.0434891 0
M  V30 27629 C 2697 -2.12251 -0.951427 0
M  V30 27630 C 2698 -1.05247 -1.32738 0
M  V30 27631 O 2699.2 -1.23665 -1.30793 0
M  V30 27632 H 2695.58 -0.678309 -0.324656 0
M  V30 27633 H 2697.55 -2.94758 -0.464803 0
M  V30 27634 C 2696.3 -2.6763 -2.21967 0
M  V30 27635 H 2695.62 -3.49623 -1.93917 0
M  V30 27636 H 2697.06 -3.09541 -2.89759 0
M  V30 27637 C 2695.52 -1.61044 -2.95917 0
M  V30 27638 O 2696.05 -1.01869 -3.88569 0
M  V30 27639 N 2694.26 -1.32746 -2.58509 0
M  V30 27640 H 2693.8 -1.81054 -1.83241 0
M  V30 27641 H 2693.76 -0.616586 -3.08295 0
M  V30 27642 N 2697.53 0.229818 -1.55915 0
M  V30 27643 C 2698.76 0.97671 -1.82962 0
M  V30 27644 C 2699.18 1.77491 -0.622767 0
M  V30 27645 O 2698.54 1.76166 0.4284 0
M  V30 27646 C 2698.59 1.87664 -3.0792 0
M  V30 27647 O 2697.69 2.97083 -2.86034 0
M  V30 27648 H 2697.03 0.277011 -0.603458 0
M  V30 27649 H 2699.56 0.245633 -2.0312 0
M  V30 27650 H 2699.57 2.28804 -3.37806 0
M  V30 27651 H 2698.25 1.28989 -3.95392 0
M  V30 27652 H 2696.83 2.59949 -2.67359 0
M  V30 27653 N 2699.01 1.49585 0.49619 0
M  V30 27654 C 2700.24 1.63031 1.27391 0
M  V30 27655 C 2700.65 0.303601 1.86343 0
M  V30 27656 O 2700.01 -0.711517 1.68059 0
M  V30 27657 C 2700.06 2.70273 2.40072 0
M  V30 27658 O 2699.78 3.97799 1.83542 0
M  V30 27659 C 2701.28 2.94468 3.31366 0
M  V30 27660 H 2698.5 0.548716 0.386201 0
M  V30 27661 H 2701.05 1.95649 0.595129 0
M  V30 27662 H 2699.2 2.4042 3.03771 0
M  V30 27663 H 2699.62 4.5691 2.57553 0
M  V30 27664 H 2701.09 3.73228 4.067 0
M  V30 27665 H 2701.57 2.04567 3.8865 0
M  V30 27666 H 2702.17 3.25756 2.73429 0
M  V30 27667 N 2700.49 -0.747586 1.3874 0
M  V30 27668 C 2701.72 -1.53684 1.38524 0
M  V30 27669 C 2702.13 -1.88785 -0.0234797 0
M  V30 27670 O 2701.49 -1.53208 -0.991635 0
M  V30 27671 C 2701.54 -2.83225 2.24646 0
M  V30 27672 O 2701.26 -2.49619 3.60031 0
M  V30 27673 C 2702.76 -3.77329 2.32675 0
M  V30 27674 H 2699.98 -0.475338 0.473597 0
M  V30 27675 H 2702.53 -0.924754 1.82397 0
M  V30 27676 H 2700.68 -3.40796 1.84219 0
M  V30 27677 H 2701.09 -3.32743 4.05441 0
M  V30 27678 H 2702.57 -4.65157 2.97209 0
M  V30 27679 H 2703.05 -4.18189 1.34217 0
M  V30 27680 H 2703.65 -3.25681 2.73518 0
M  V30 27681 N 2701.97 -1.23709 -0.97642 0
M  V30 27682 C 2702.9 -1.04627 -2.08747 0
M  V30 27683 C 2703.88 0.0380657 -1.70057 0
M  V30 27684 O 2705.06 -0.127342 -1.93782 0
M  V30 27685 C 2702.19 -0.640962 -3.41334 0
M  V30 27686 C 2701.15 -1.67309 -3.93944 0
M  V30 27687 C 2700.47 -1.1231 -5.22772 0
M  V30 27688 C 2701.77 -3.06705 -4.22764 0
M  V30 27689 H 2703.47 -1.97559 -2.24968 0
M  V30 27690 H 2701.01 -0.951266 -1.08106 0
M  V30 27691 H 2702.97 -0.494507 -4.18488 0
M  V30 27692 H 2701.69 0.324042 -3.24989 0
M  V30 27693 H 2700.35 -1.80761 -3.18937 0
M  V30 27694 H 2700 -0.148965 -5.02779 0
M  V30 27695 H 2699.7 -1.81277 -5.58939 0
M  V30 27696 H 2701.22 -0.988585 -6.02544 0
M  V30 27697 H 2702.63 -2.96532 -4.90654 0
M  V30 27698 H 2701.03 -3.72945 -4.7014 0
M  V30 27699 H 2702.1 -3.55398 -3.29879 0
M  V30 27700 N 2703.44 1.17579 -1.04943 0
M  V30 27701 C 2704.69 1.88055 -0.759145 0
M  V30 27702 C 2705.02 1.80682 0.711887 0
M  V30 27703 O 2704.3 1.2131 1.52033 0
M  V30 27704 C 2704.58 3.38185 -1.23706 0
M  V30 27705 C 2704.43 3.54322 -2.77084 0
M  V30 27706 C 2705.75 4.32124 -0.83409 0
M  V30 27707 H 2702.87 0.682863 -0.277249 0
M  V30 27708 H 2705.51 1.38284 -1.30298 0
M  V30 27709 H 2703.66 3.80704 -0.774404 0
M  V30 27710 H 2705.34 3.20836 -3.31455 0
M  V30 27711 H 2703.58 2.96684 -3.16482 0
M  V30 27712 H 2704.25 4.59698 -3.05585 0
M  V30 27713 H 2706.73 3.97432 -1.23235 0
M  V30 27714 H 2705.6 5.35709 -1.19613 0
M  V30 27715 H 2705.86 4.41322 0.262117 0
M  V30 27716 N 2704.92 0.830104 1.33967 0
M  V30 27717 C 2705.86 0.202222 2.27302 0
M  V30 27718 C 2706.83 -0.645554 1.49236 0
M  V30 27719 O 2708.02 -0.607731 1.78435 0
M  V30 27720 C 2705.14 -0.716874 3.31027 0
M  V30 27721 C 2704.19 0.0543021 4.26465 0
M  V30 27722 S 2705.02 1.40631 5.16704 0
M  V30 27723 C 2706.18 0.492277 6.23961 0
M  V30 27724 H 2706.41 0.99351 2.80208 0
M  V30 27725 H 2703.95 0.626384 1.41123 0
M  V30 27726 H 2705.9 -1.24158 3.91274 0
M  V30 27727 H 2704.56 -1.48175 2.76953 0
M  V30 27728 H 2703.76 -0.644698 4.9986 0
M  V30 27729 H 2703.36 0.509787 3.70509 0
M  V30 27730 H 2705.65 -0.313351 6.76775 0
M  V30 27731 H 2706.59 1.19611 6.97925 0
M  V30 27732 H 2707 0.0775168 5.64447 0
M  V30 27733 N 2706.4 -1.46311 0.585725 0
M  V30 27734 C 2707.35 -2.27389 -0.166773 0
M  V30 27735 C 2708.34 -1.36048 -0.859052 0
M  V30 27736 O 2709.53 -1.602 -0.75265 0
M  V30 27737 C 2706.66 -3.22462 -1.17785 0
M  V30 27738 C 2705.74 -4.21288 -0.487531 0
M  V30 27739 N 2706.13 -5.03717 0.458579 0
M  V30 27740 C 2704.43 -4.39854 -0.737894 0
M  V30 27741 C 2705.13 -5.75273 0.862314 0
M  V30 27742 N 2704.11 -5.43191 0.210803 0
M  V30 27743 H 2707.91 -2.88511 0.560218 0
M  V30 27744 H 2705.42 -1.57198 0.407743 0
M  V30 27745 H 2707.42 -3.79258 -1.73115 0
M  V30 27746 H 2706.08 -2.62899 -1.90563 0
M  V30 27747 H 2707.09 -5.11137 0.834253 0
M  V30 27748 H 2703.77 -3.91437 -1.45202 0
M  V30 27749 H 2705.16 -6.51543 1.64139 0
M  V30 27750 N 2707.88 -0.323668 -1.54241 0
M  V30 27751 C 2708.81 0.584794 -2.2058 0
M  V30 27752 C 2709.79 1.11565 -1.18288 0
M  V30 27753 O 2710.97 1.17963 -1.47027 0
M  V30 27754 C 2708.1 1.80244 -2.86757 0
M  V30 27755 C 2707.15 1.40282 -4.02769 0
M  V30 27756 S 2707.98 0.439445 -5.33694 0
M  V30 27757 C 2709.14 1.66437 -6.03365 0
M  V30 27758 H 2709.37 0.0212716 -2.97292 0
M  V30 27759 H 2706.9 -0.107753 -1.54024 0
M  V30 27760 H 2708.86 2.5011 -3.25507 0
M  V30 27761 H 2707.52 2.33715 -2.09848 0
M  V30 27762 H 2706.71 2.31016 -4.47937 0
M  V30 27763 H 2706.32 0.783864 -3.65693 0
M  V30 27764 H 2708.61 2.60179 -6.2555 0
M  V30 27765 H 2709.55 1.25485 -6.96892 0
M  V30 27766 H 2709.96 1.8514 -5.33276 0
M  V30 27767 N 2709.36 1.57515 -0.0518432 0
M  V30 27768 C 2710.3 2.1157 0.922315 0
M  V30 27769 C 2711.27 1.02323 1.3084 0
M  V30 27770 O 2712.46 1.29875 1.39775 0
M  V30 27771 C 2709.6 2.66574 2.19163 0
M  V30 27772 C 2708.71 3.89909 1.85996 0
M  V30 27773 C 2707.85 4.33226 3.0739 0
M  V30 27774 C 2706.89 5.4926 2.70148 0
M  V30 27775 N 2706.02 5.87627 3.84238 0
M  V30 27776 H 2710.86 2.94514 0.454454 0
M  V30 27777 H 2708.4 1.45554 0.212692 0
M  V30 27778 H 2710.36 2.96564 2.93437 0
M  V30 27779 H 2708.99 1.86426 2.63524 0
M  V30 27780 H 2708.04 3.66507 1.01867 0
M  V30 27781 H 2709.35 4.74242 1.54583 0
M  V30 27782 H 2708.51 4.64772 3.89964 0
M  V30 27783 H 2707.25 3.47706 3.41982 0
M  V30 27784 H 2706.25 5.17385 1.85992 0
M  V30 27785 H 2707.48 6.36496 2.36748 0
M  V30 27786 H 2705.42 5.0506 4.18629 0
M  V30 27787 H 2705.34 6.66652 3.56526 0
M  V30 27788 H 2706.61 6.23788 4.67449 0
M  V30 27789 N 2710.84 -0.221546 1.56035 0
M  V30 27790 C 2712.08 -0.94734 1.79313 0
M  V30 27791 C 2712.41 -1.83987 0.621485 0
M  V30 27792 O 2711.69 -1.90767 -0.379253 0
M  V30 27793 C 2711.97 -1.78627 3.12673 0
M  V30 27794 C 2711.83 -0.920235 4.40286 0
M  V30 27795 C 2713.14 -2.76404 3.42475 0
M  V30 27796 H 2710.26 -0.342971 0.652334 0
M  V30 27797 H 2712.91 -0.216211 1.88766 0
M  V30 27798 H 2711.06 -2.40961 3.04746 0
M  V30 27799 H 2712.73 -0.313637 4.60233 0
M  V30 27800 H 2710.97 -0.225658 4.33213 0
M  V30 27801 H 2711.64 -1.54162 5.30036 0
M  V30 27802 H 2714.12 -2.24205 3.5053 0
M  V30 27803 H 2712.99 -3.32205 4.36956 0
M  V30 27804 H 2713.25 -3.54143 2.64642 0
M  V30 27805 N 2712.31 -1.49846 -0.48825 0
M  V30 27806 C 2713.54 -1.63467 -1.26341 0
M  V30 27807 C 2713.95 -0.310411 -1.86636 0
M  V30 27808 O 2713.29 0.715682 -1.69185 0
M  V30 27809 C 2713.36 -2.65483 -2.42403 0
M  V30 27810 C 2713.02 -4.09499 -2.02879 0
M  V30 27811 C 2714.02 -4.95907 -1.56115 0
M  V30 27812 C 2711.7 -4.55312 -2.12123 0
M  V30 27813 C 2713.7 -6.26171 -1.19118 0
M  V30 27814 C 2711.38 -5.85585 -1.74737 0
M  V30 27815 C 2712.38 -6.70839 -1.2831 0
M  V30 27816 O 2712.07 -7.98683 -0.91435 0
M  V30 27817 H 2711.8 -0.552923 -0.388911 0
M  V30 27818 H 2714.36 -1.96706 -0.591254 0
M  V30 27819 H 2712.59 -2.2745 -3.12735 0
M  V30 27820 H 2714.27 -2.68501 -3.04405 0
M  V30 27821 H 2715.04 -4.61736 -1.48409 0
M  V30 27822 H 2710.92 -3.89112 -2.4721 0
M  V30 27823 H 2714.46 -6.92668 -0.828089 0
M  V30 27824 H 2710.36 -6.19282 -1.82098 0
M  V30 27825 H 2711.13 -8.11805 -1.04471 0
M  V30 27826 N 2713.79 0.740218 -1.39135 0
M  V30 27827 C 2715.07 1.49115 -1.26587 0
M  V30 27828 C 2715.45 2.10718 0.126865 0
M  V30 27829 O 2714.8 1.98168 1.13762 0
M  V30 27830 C 2715.01 2.54676 -2.38623 0
M  V30 27831 C 2716.35 3.21206 -2.77691 0
M  V30 27832 O 2717.38 2.64987 -2.38034 0
M  V30 27833 O 2716.24 4.2292 -3.46122 0
M  V30 27834 H 2713.33 0.661915 -0.49578 0
M  V30 27835 H 2715.88 0.774488 -1.50996 0
M  V30 27836 H 2714.65 2.07498 -3.31753 0
M  V30 27837 H 2714.27 3.33908 -2.1585 0
M  V30 27838 N 2715.27 1.24225 0.969846 0
M  V30 27839 C 2716.18 1.04974 2.09804 0
M  V30 27840 C 2717.2 -0.00883396 1.73998 0
M  V30 27841 O 2718.37 0.188883 2.00512 0
M  V30 27842 C 2715.44 0.654512 3.40466 0
M  V30 27843 C 2714.5 1.78933 3.90233 0
M  V30 27844 C 2713.73 1.41286 5.14659 0
M  V30 27845 O 2713.95 0.301732 5.69601 0
M  V30 27846 O 2712.89 2.23773 5.58757 0
M  V30 27847 H 2716.71 1.99552 2.28939 0
M  V30 27848 H 2714.3 1.03025 1.08195 0
M  V30 27849 H 2716.18 0.445525 4.19038 0
M  V30 27850 H 2714.86 -0.262159 3.22637 0
M  V30 27851 H 2713.76 2.05304 3.12731 0
M  V30 27852 H 2715.1 2.68469 4.12535 0
M  V30 27853 N 2716.75 -1.1702 1.05565 0
M  V30 27854 C 2717.97 -1.91828 0.788471 0
M  V30 27855 C 2718.4 -1.765 -0.650325 0
M  V30 27856 O 2717.76 -1.0853 -1.45227 0
M  V30 27857 C 2717.8 -3.40793 1.17866 0
M  V30 27858 O 2716.91 -4.1121 0.313037 0
M  V30 27859 H 2716.25 -0.597903 0.288805 0
M  V30 27860 H 2718.78 -1.48304 1.4095 0
M  V30 27861 H 2718.79 -3.91544 1.14704 0
M  V30 27862 H 2717.46 -3.51269 2.22672 0
M  V30 27863 H 2716.04 -3.70688 0.40558 0
M  V30 27864 N 2718.23 -0.837197 -1.33524 0
M  V30 27865 C 2719.47 -0.428421 -1.97098 0
M  V30 27866 C 2719.79 1.01731 -1.67063 0
M  V30 27867 O 2720.99 1.53068 -2.24237 0
M  V30 27868 C 2719.45 -0.715137 -3.52723 0
M  V30 27869 C 2719.06 -2.17543 -3.91636 0
M  V30 27870 C 2720.8 -0.373229 -4.22856 0
M  V30 27871 C 2718.71 -2.40629 -5.40233 0
M  V30 27872 H 2717.64 -0.156468 -0.737587 0
M  V30 27873 H 2720.29 -1.02555 -1.52167 0
M  V30 27874 H 2718.67 -0.04766 -3.95971 0
M  V30 27875 H 2719.85 -2.88325 -3.59451 0
M  V30 27876 H 2718.16 -2.48016 -3.34481 0
M  V30 27877 H 2720.76 -0.523357 -5.32133 0
M  V30 27878 H 2721.1 0.683636 -4.10648 0
M  V30 27879 H 2721.63 -0.995869 -3.85133 0
M  V30 27880 H 2718.37 -3.44874 -5.57443 0
M  V30 27881 H 2717.89 -1.74406 -5.73884 0
M  V30 27882 H 2719.57 -2.23699 -6.07098 0
M  V30 27883 N 2719.7 1.45999 -0.593476 0
M  V30 27884 C 2720.64 2.28557 0.171529 0
M  V30 27885 C 2721.65 1.39138 0.845248 0
M  V30 27886 O 2722.84 1.63641 0.713004 0
M  V30 27887 C 2719.94 3.14484 1.26305 0
M  V30 27888 C 2719.11 4.32095 0.679182 0
M  V30 27889 C 2718.17 4.99337 1.65978 0
M  V30 27890 O 2717.2 5.56587 1.19161 0
M  V30 27891 N 2718.4 4.9733 2.99405 0
M  V30 27892 H 2721.16 2.94853 -0.536823 0
M  V30 27893 H 2718.72 1.56031 -0.431982 0
M  V30 27894 H 2720.72 3.56333 1.91856 0
M  V30 27895 H 2719.29 2.50191 1.87412 0
M  V30 27896 H 2718.51 3.93899 -0.154061 0
M  V30 27897 H 2719.79 5.08088 0.26907 0
M  V30 27898 H 2719.19 4.52082 3.40056 0
M  V30 27899 H 2717.75 5.43086 3.60417 0
M  V30 27900 N 2721.18 0.331843 1.54067 0
M  V30 27901 C 2722.11 -0.522892 2.2757 0
M  V30 27902 C 2723.09 -1.11244 1.28681 0
M  V30 27903 O 2724.28 -1.13603 1.57506 0
M  V30 27904 C 2721.41 -1.67981 3.03973 0
M  V30 27905 C 2720.36 -1.21917 4.10269 0
M  V30 27906 C 2719.69 -2.46369 4.74559 0
M  V30 27907 C 2720.99 -0.328058 5.21269 0
M  V30 27908 H 2722.68 0.0902503 2.99264 0
M  V30 27909 H 2720.23 0.0448463 1.4393 0
M  V30 27910 H 2722.18 -2.28412 3.54127 0
M  V30 27911 H 2720.91 -2.31967 2.2991 0
M  V30 27912 H 2719.56 -0.637745 3.6101 0
M  V30 27913 H 2719.21 -3.08736 3.97103 0
M  V30 27914 H 2718.91 -2.16234 5.46367 0
M  V30 27915 H 2720.44 -3.07546 5.27492 0
M  V30 27916 H 2721.85 -0.838878 5.67129 0
M  V30 27917 H 2720.25 -0.119122 5.99982 0
M  V30 27918 H 2721.32 0.638924 4.80672 0
M  V30 27919 N 2722.66 -1.57485 0.0601958 0
M  V30 27920 C 2723.94 -1.84416 -0.651923 0
M  V30 27921 C 2724.32 -0.950394 -1.88496 0
M  V30 27922 O 2723.67 -0.0137121 -2.28496 0
M  V30 27923 C 2723.88 -3.34348 -1.00063 0
M  V30 27924 C 2725.22 -4.0158 -1.37908 0
M  V30 27925 O 2726.25 -3.39026 -1.09271 0
M  V30 27926 O 2725.11 -5.11891 -1.9139 0
M  V30 27927 H 2722.2 -0.761461 -0.322655 0
M  V30 27928 H 2724.75 -1.6946 0.0902457 0
M  V30 27929 H 2723.52 -3.91102 -0.124394 0
M  V30 27930 H 2723.14 -3.54524 -1.79995 0
M  V30 27931 N 2724.14 0.213268 -1.5615 0
M  V30 27932 C 2725.09 1.26801 -1.89488 0
M  V30 27933 C 2726.07 1.41887 -0.758738 0
M  V30 27934 O 2727.26 1.44563 -1.0213 0
M  V30 27935 C 2724.39 2.61671 -2.22223 0
M  V30 27936 C 2723.48 2.50452 -3.42249 0
M  V30 27937 N 2723.87 2.08892 -4.60649 0
M  V30 27938 C 2722.17 2.81391 -3.46028 0
M  V30 27939 C 2722.87 2.09125 -5.42809 0
M  V30 27940 N 2721.85 2.49932 -4.82737 0
M  V30 27941 H 2725.65 0.937722 -2.78539 0
M  V30 27942 H 2723.16 0.421796 -1.56827 0
M  V30 27943 H 2725.16 3.37832 -2.44284 0
M  V30 27944 H 2723.82 2.95538 -1.34489 0
M  V30 27945 H 2724.83 1.7989 -4.85654 0
M  V30 27946 H 2721.51 3.19575 -2.6866 0
M  V30 27947 H 2722.9 1.79048 -6.47604 0
M  V30 27948 N 2725.62 1.50103 0.480296 0
M  V30 27949 C 2726.56 1.68293 1.57943 0
M  V30 27950 C 2727.53 0.524251 1.5761 0
M  V30 27951 O 2728.72 0.75374 1.75281 0
M  V30 27952 C 2725.86 1.77462 2.95975 0
M  V30 27953 C 2724.97 3.04771 3.06167 0
M  V30 27954 C 2724.11 3.04792 4.35058 0
M  V30 27955 C 2723.15 4.26593 4.38958 0
M  V30 27956 N 2722.28 4.24406 5.59307 0
M  V30 27957 H 2727.12 2.62134 1.41738 0
M  V30 27958 H 2724.66 1.29951 0.689281 0
M  V30 27959 H 2726.62 1.80759 3.76008 0
M  V30 27960 H 2725.25 0.870691 3.10836 0
M  V30 27961 H 2724.3 3.10989 2.19066 0
M  V30 27962 H 2725.61 3.94756 3.04909 0
M  V30 27963 H 2724.77 3.06767 5.2343 0
M  V30 27964 H 2723.5 2.12622 4.38912 0
M  V30 27965 H 2722.51 4.24841 3.48985 0
M  V30 27966 H 2723.73 5.1998 4.36804 0
M  V30 27967 H 2721.68 3.35084 5.63963 0
M  V30 27968 H 2721.6 5.08148 5.59751 0
M  V30 27969 H 2722.87 4.30513 6.4983 0
M  V30 27970 N 2727.09 -0.732829 1.39526 0
M  V30 27971 C 2728.34 -1.48948 1.36597 0
M  V30 27972 C 2728.66 -1.94965 -0.0367165 0
M  V30 27973 O 2727.93 -1.6914 -0.988362 0
M  V30 27974 H 2726.51 -0.552557 0.502683 0
M  V30 27975 H 2729.18 -0.869839 1.74413 0
M  V30 27976 H 2728.27 -2.37057 2.03004 0
M  V30 27977 N 2728.57 -1.24737 -0.963244 0
M  V30 27978 C 2729.8 -1.11689 -1.74164 0
M  V30 27979 C 2730.22 0.330155 -1.85891 0
M  V30 27980 O 2729.57 1.22757 -1.35044 0
M  V30 27981 C 2729.62 -1.756 -3.15985 0
M  V30 27982 O 2729.34 -3.14648 -3.04842 0
M  V30 27983 C 2730.85 -1.6822 -4.10142 0
M  V30 27984 H 2728.07 -0.389998 -0.546024 0
M  V30 27985 H 2730.61 -1.64931 -1.20904 0
M  V30 27986 H 2728.76 -1.2635 -3.66216 0
M  V30 27987 H 2729.18 -3.45936 -3.94244 0
M  V30 27988 H 2730.65 -2.17613 -5.07295 0
M  V30 27989 H 2731.13 -0.644284 -4.34449 0
M  V30 27990 H 2731.74 -2.16918 -3.65823 0
M  V30 27991 N 2730.05 1.16459 -1.06184 0
M  V30 27992 C 2731 2.22869 -0.665755 0
M  V30 27993 C 2731.99 1.66392 0.317793 0
M  V30 27994 O 2733.2 1.7907 0.182776 0
M  V30 27995 H 2729.57 0.725694 -0.197161 0
M  V30 27996 H 2731.54 2.53566 -1.57312 0
M  V30 27997 C 2730.29 3.47635 -0.0670414 0
M  V30 27998 H 2729.62 3.91406 -0.814968 0
M  V30 27999 H 2731.06 4.23649 0.172594 0
M  V30 28000 C 2729.52 3.15218 1.18907 0
M  V30 28001 O 2730.05 3.3092 2.27717 0
M  V30 28002 N 2728.25 2.69358 1.09061 0
M  V30 28003 H 2727.8 2.56782 0.205135 0
M  V30 28004 H 2727.76 2.48042 1.9319 0
M  V30 28005 N 2731.53 0.844266 1.33079 0
M  V30 28006 C 2732.94 0.498597 1.79919 0
M  V30 28007 C 2733.29 -0.982804 1.6981 0
M  V30 28008 O 2732.42 -1.76608 1.25054 0
M  V30 28009 C 2733.01 0.898261 3.26675 0
M  V30 28010 C 2731.57 0.604648 3.71512 0
M  V30 28011 C 2730.72 1.10366 2.54391 0
M  V30 28012 H 2733.67 1.03246 1.20524 0
M  V30 28013 H 2733.69 0.210457 3.79918 0
M  V30 28014 H 2733.2 1.97649 3.34001 0
M  V30 28015 H 2731.3 -0.463285 3.69709 0
M  V30 28016 H 2731.41 1.16366 4.64753 0
M  V30 28017 H 2729.78 0.524317 2.49245 0
M  V30 28018 H 2730.56 2.18878 2.64476 0
M  V30 28019 N 2733.01 -1.45682 0.60121 0
M  V30 28020 C 2734.25 -2.0417 0.0968396 0
M  V30 28021 C 2734.61 -1.4603 -1.24657 0
M  V30 28022 O 2735.81 -1.95832 -1.84128 0
M  V30 28023 C 2734.08 -3.57363 0.0514468 0
M  V30 28024 S 2735.64 -4.3704 -0.39266 0
M  V30 28025 H 2732.46 -0.70948 0.0464629 0
M  V30 28026 H 2735.06 -1.78477 0.797877 0
M  V30 28027 H 2733.77 -3.97192 1.03281 0
M  V30 28028 H 2733.3 -3.87622 -0.671785 0
M  V30 28029 H 2735.31 -4.6819 -1.64355 0
M  V30 28030 N 2734.48 -0.340009 -1.53889 0
M  V30 28031 C 2735.71 0.261761 -2.05742 0
M  V30 28032 C 2736.13 1.43715 -1.21357 0
M  V30 28033 O 2735.49 1.7988 -0.226481 0
M  V30 28034 C 2735.54 0.658165 -3.54543 0
M  V30 28035 O 2734.64 1.75862 -3.73023 0
M  V30 28036 H 2733.99 0.0441556 -0.66253 0
M  V30 28037 H 2736.52 -0.493196 -1.98567 0
M  V30 28038 H 2736.53 0.936298 -3.97111 0
M  V30 28039 H 2735.2 -0.201431 -4.15412 0
M  V30 28040 H 2733.78 1.47803 -3.42358 0
M  V30 28041 N 2735.96 1.57451 -0.0685468 0
M  V30 28042 C 2737.21 1.93653 0.602205 0
M  V30 28043 C 2737.54 0.948556 1.69458 0
M  V30 28044 O 2736.82 -0.0227478 1.94487 0
M  V30 28045 C 2737.1 3.40142 1.18217 0
M  V30 28046 C 2736.95 4.49696 0.0966641 0
M  V30 28047 C 2738.27 3.8738 2.08865 0
M  V30 28048 H 2735.39 0.704194 0.217441 0
M  V30 28049 H 2738.03 1.89528 -0.133854 0
M  V30 28050 H 2736.18 3.43788 1.80947 0
M  V30 28051 H 2737.86 4.58173 -0.536236 0
M  V30 28052 H 2736.1 4.29997 -0.573139 0
M  V30 28053 H 2736.77 5.49325 0.542798 0
M  V30 28054 H 2739.25 3.8572 1.56074 0
M  V30 28055 H 2738.12 4.90497 2.46381 0
M  V30 28056 H 2738.38 3.25135 2.99566 0
M  V30 28057 N 2737.44 -0.204984 1.56261 0
M  V30 28058 C 2738.39 -1.27361 1.94633 0
M  V30 28059 C 2739.38 -1.47647 0.83046 0
M  V30 28060 O 2740.59 -1.48625 1.01541 0
M  V30 28061 H 2736.96 -0.42736 0.618763 0
M  V30 28062 H 2738.94 -0.922891 2.8377 0
M  V30 28063 C 2737.68 -2.6132 2.29362 0
M  V30 28064 H 2737.01 -2.46523 3.14748 0
M  V30 28065 H 2738.45 -3.34863 2.60082 0
M  V30 28066 C 2736.91 -3.17574 1.12466 0
M  V30 28067 O 2737.44 -3.99758 0.394478 0
M  V30 28068 N 2735.64 -2.76179 0.904085 0
M  V30 28069 H 2735.19 -2.09451 1.4996 0
M  V30 28070 H 2735.15 -3.14156 0.123718 0
M  V30 28071 N 2738.92 -1.50356 -0.472329 0
M  V30 28072 C 2739.87 -1.69654 -1.59123 0
M  V30 28073 C 2740.86 -0.562398 -1.59792 0
M  V30 28074 O 2742.07 -0.742861 -1.63956 0
M  V30 28075 H 2738.44 -0.535463 -0.527999 0
M  V30 28076 H 2740.41 -2.63515 -1.40008 0
M  V30 28077 C 2739.16 -1.80675 -2.97072 0
M  V30 28078 H 2738.49 -2.67334 -2.97275 0
M  V30 28079 H 2739.93 -1.98204 -3.74822 0
M  V30 28080 C 2738.38 -0.558074 -3.32246 0
M  V30 28081 O 2738.91 0.303328 -4.00553 0
M  V30 28082 N 2737.12 -0.412466 -2.87658 0
M  V30 28083 H 2736.67 -1.11448 -2.32244 0
M  V30 28084 H 2736.63 0.421853 -3.11557 0
M  V30 28085 N 2740.4 0.725419 -1.39912 0
M  V30 28086 C 2741.65 1.48222 -1.37385 0
M  V30 28087 C 2741.97 1.94982 0.0263765 0
M  V30 28088 O 2741.24 1.69661 0.979378 0
M  V30 28089 H 2739.82 0.549883 -0.505606 0
M  V30 28090 H 2742.48 0.860577 -1.74872 0
M  V30 28091 H 2741.57 2.35977 -2.04258 0
M  V30 28092 N 2741.88 1.25246 0.956615 0
M  V30 28093 C 2743.15 1.00654 1.67715 0
M  V30 28094 C 2743.53 -0.46783 2.05851 0
M  V30 28095 O 2742.88 -1.44472 1.77031 0
M  V30 28096 C 2743.09 1.94034 2.9009 0
M  V30 28097 C 2744.44 2.21763 3.62086 0
M  V30 28098 O 2745.46 1.91776 3.00167 0
M  V30 28099 O 2744.32 2.72744 4.73575 0
M  V30 28100 H 2741.42 0.381546 0.733724 0
M  V30 28101 H 2743.96 1.36392 1.00972 0
M  V30 28102 H 2742.73 2.93596 2.58683 0
M  V30 28103 H 2742.36 1.5868 3.64563 0
M  V30 28104 N 2743.35 -1.15894 1.068 0
M  V30 28105 C 2744.59 -1.88218 0.797074 0
M  V30 28106 C 2744.96 -1.80134 -0.664518 0
M  V30 28107 O 2746.16 -2.47433 -1.05026 0
M  V30 28108 C 2744.43 -3.33525 1.28437 0
M  V30 28109 S 2745.99 -4.23645 1.14327 0
M  V30 28110 H 2742.81 -0.649616 0.288999 0
M  V30 28111 H 2745.41 -1.39863 1.36597 0
M  V30 28112 H 2744.11 -3.3695 2.34292 0
M  V30 28113 H 2743.64 -3.86932 0.710439 0
M  V30 28114 H 2745.66 -4.9614 0.0773339 0
M  V30 28115 N 2744.83 -0.851312 -1.32629 0
M  V30 28116 C 2746.06 -0.466042 -2.02096 0
M  V30 28117 C 2746.48 0.92868 -1.63576 0
M  V30 28118 O 2745.84 1.60943 -0.834694 0
M  V30 28119 C 2745.89 -0.6088 -3.55424 0
M  V30 28120 O 2744.99 0.359806 -4.10827 0
M  V30 28121 H 2744.33 -0.187735 -0.636908 0
M  V30 28122 H 2746.86 -1.14958 -1.69251 0
M  V30 28123 H 2746.87 -0.495077 -4.04985 0
M  V30 28124 H 2745.55 -1.62588 -3.82803 0
M  V30 28125 H 2744.12 0.202601 -3.72349 0
M  V30 28126 N 2746.31 1.45361 -0.608928 0
M  V30 28127 C 2747.24 2.28726 0.147277 0
M  V30 28128 C 2748.25 1.40027 0.830443 0
M  V30 28129 O 2749.44 1.64388 0.695607 0
M  V30 28130 C 2746.54 3.15806 1.22963 0
M  V30 28131 C 2745.72 4.32791 0.633315 0
M  V30 28132 C 2744.78 5.0107 1.60673 0
M  V30 28133 O 2743.8 5.5782 1.13251 0
M  V30 28134 N 2745 5.00477 2.94114 0
M  V30 28135 H 2747.77 2.94267 -0.568066 0
M  V30 28136 H 2745.33 1.55564 -0.448507 0
M  V30 28137 H 2747.32 3.58348 1.88066 0
M  V30 28138 H 2745.89 2.52165 1.84747 0
M  V30 28139 H 2745.11 3.93713 -0.195831 0
M  V30 28140 H 2746.4 5.08345 0.215166 0
M  V30 28141 H 2745.8 4.55663 3.35242 0
M  V30 28142 H 2744.35 5.46879 3.54636 0
M  V30 28143 N 2747.79 0.348166 1.53706 0
M  V30 28144 C 2748.72 -0.498726 2.28112 0
M  V30 28145 C 2749.7 -1.09873 1.29853 0
M  V30 28146 O 2750.88 -1.11926 1.58702 0
M  V30 28147 C 2748.01 -1.64748 3.05738 0
M  V30 28148 C 2746.97 -1.17558 4.11539 0
M  V30 28149 C 2746.29 -2.41321 4.77146 0
M  V30 28150 C 2747.59 -0.272752 5.21587 0
M  V30 28151 H 2749.29 0.121986 2.99151 0
M  V30 28152 H 2746.83 0.0601095 1.43874 0
M  V30 28153 H 2748.79 -2.24643 3.5653 0
M  V30 28154 H 2747.51 -2.29516 2.32358 0
M  V30 28155 H 2746.17 -0.599419 3.61666 0
M  V30 28156 H 2745.82 -3.04507 4.00356 0
M  V30 28157 H 2745.52 -2.10427 5.4863 0
M  V30 28158 H 2747.04 -3.01934 5.30724 0
M  V30 28159 H 2748.46 -0.778679 5.67987 0
M  V30 28160 H 2746.85 -0.0554795 6.00074 0
M  V30 28161 H 2747.92 0.689869 4.79968 0
M  V30 28162 N 2749.27 -1.57412 0.0768958 0
M  V30 28163 C 2750.51 -1.95559 -0.594642 0
M  V30 28164 C 2750.87 -0.956687 -1.66468 0
M  V30 28165 O 2752.07 -1.226 -2.39213 0
M  V30 28166 C 2750.34 -3.38325 -1.152 0
M  V30 28167 S 2751.9 -3.98453 -1.83795 0
M  V30 28168 H 2748.72 -0.68386 -0.194567 0
M  V30 28169 H 2751.32 -1.94908 0.151967 0
M  V30 28170 H 2750.02 -4.08805 -0.361458 0
M  V30 28171 H 2749.56 -3.4253 -1.93485 0
M  V30 28172 H 2751.57 -3.85773 -3.1208 0
M  V30 28173 N 2750.74 0.196695 -1.56368 0
M  V30 28174 C 2751.67 1.24651 -1.97445 0
M  V30 28175 C 2752.66 1.4756 -0.846173 0
M  V30 28176 O 2753.84 1.59324 -1.11038 0
M  V30 28177 C 2750.97 2.59108 -2.31258 0
M  V30 28178 C 2749.92 2.50815 -3.46808 0
M  V30 28179 C 2749.25 3.8953 -3.66293 0
M  V30 28180 C 2750.55 2.03457 -4.81043 0
M  V30 28181 H 2752.24 0.905166 -2.85389 0
M  V30 28182 H 2749.79 0.433977 -1.37305 0
M  V30 28183 H 2751.74 3.32731 -2.58588 0
M  V30 28184 H 2750.47 2.9498 -1.40194 0
M  V30 28185 H 2749.13 1.79648 -3.19566 0
M  V30 28186 H 2748.77 4.22752 -2.72562 0
M  V30 28187 H 2748.47 3.84856 -4.44027 0
M  V30 28188 H 2750 4.64777 -3.95998 0
M  V30 28189 H 2751.41 2.66837 -5.07416 0
M  V30 28190 H 2749.81 2.09788 -5.62236 0
M  V30 28191 H 2750.88 0.987726 -4.74734 0
M  V30 28192 N 2752.22 1.50604 0.464349 0
M  V30 28193 C 2753.63 1.54712 1.04504 0
M  V30 28194 C 2753.98 0.354576 1.92969 0
M  V30 28195 O 2753.11 -0.531775 2.09764 0
M  V30 28196 C 2753.7 2.80372 1.90202 0
M  V30 28197 C 2752.26 2.87139 2.43368 0
M  V30 28198 C 2751.41 2.49078 1.21882 0
M  V30 28199 H 2754.36 1.56771 0.246689 0
M  V30 28200 H 2754.38 2.62609 2.75349 0
M  V30 28201 H 2753.89 3.67149 1.25789 0
M  V30 28202 H 2752 2.0473 3.11314 0
M  V30 28203 H 2752.11 3.90186 2.78014 0
M  V30 28204 H 2750.47 2.01667 1.55572 0
M  V30 28205 H 2751.26 3.38171 0.591209 0
M  V30 28206 N 2753.7 -0.717989 1.40295 0
M  V30 28207 C 2754.93 -1.50711 1.41753 0
M  V30 28208 C 2755.34 -1.88793 0.0165698 0
M  V30 28209 O 2754.7 -1.55277 -0.958915 0
M  V30 28210 C 2754.75 -2.78396 2.30603 0
M  V30 28211 O 2754.47 -2.41926 3.65244 0
M  V30 28212 C 2755.97 -3.72309 2.40627 0
M  V30 28213 H 2753.19 -0.465186 0.483573 0
M  V30 28214 H 2755.74 -0.885857 1.84317 0
M  V30 28215 H 2753.89 -3.36812 1.91407 0
M  V30 28216 H 2754.31 -3.24068 4.12408 0
M  V30 28217 H 2755.78 -4.58748 3.07009 0
M  V30 28218 H 2756.26 -4.15248 1.43058 0
M  V30 28219 H 2756.86 -3.19806 2.80365 0
M  V30 28220 N 2755.18 -1.25752 -0.94996 0
M  V30 28221 C 2756.4 -1.13631 -1.73501 0
M  V30 28222 C 2756.83 0.305557 -1.85602 0
M  V30 28223 O 2756.19 1.22137 -1.33986 0
M  V30 28224 C 2756.23 -1.80061 -3.12427 0
M  V30 28225 O 2755.34 -1.08343 -3.97914 0
M  V30 28226 H 2754.68 -0.396449 -0.532658 0
M  V30 28227 H 2757.21 -1.66405 -1.1904 0
M  V30 28228 H 2757.22 -1.86533 -3.62863 0
M  V30 28229 H 2755.89 -2.84961 -3.02936 0
M  V30 28230 H 2754.47 -1.09784 -3.56373 0
M  V30 28231 N 2756.66 1.15326 -1.07413 0
M  V30 28232 C 2757.57 2.2371 -0.706477 0
M  V30 28233 C 2758.58 1.7169 0.282556 0
M  V30 28234 O 2759.76 2.00986 0.129031 0
M  V30 28235 C 2756.82 3.46524 -0.110541 0
M  V30 28236 C 2755.88 4.1353 -1.15289 0
M  V30 28237 C 2755.12 5.30481 -0.585299 0
M  V30 28238 O 2755.34 5.67252 0.598449 0
M  V30 28239 O 2754.27 5.87011 -1.33049 0
M  V30 28240 H 2758.1 2.5749 -1.61035 0
M  V30 28241 H 2755.69 1.23061 -0.847135 0
M  V30 28242 H 2757.57 4.20828 0.219496 0
M  V30 28243 H 2756.24 3.1449 0.766648 0
M  V30 28244 H 2755.15 3.41144 -1.53529 0
M  V30 28245 H 2756.48 4.49645 -2.002 0
M  V30 28246 N 2758.13 0.858334 1.32176 0
M  V30 28247 C 2759.36 0.477617 2.01312 0
M  V30 28248 C 2759.78 -0.926707 1.64492 0
M  V30 28249 O 2759.13 -1.6053 0.868124 0
M  V30 28250 C 2759.19 0.6114 3.56292 0
M  V30 28251 O 2758.91 1.96041 3.9179 0
M  V30 28252 C 2760.41 0.230171 4.42702 0
M  V30 28253 H 2757.63 0.187333 0.644319 0
M  V30 28254 H 2760.17 1.15629 1.68672 0
M  V30 28255 H 2758.33 -0.0195813 3.87395 0
M  V30 28256 H 2758.74 1.95982 4.86509 0
M  V30 28257 H 2760.21 0.37477 5.50726 0
M  V30 28258 H 2760.69 -0.829704 4.31292 0
M  V30 28259 H 2761.3 0.836375 4.16995 0
M  V30 28260 N 2759.61 -1.45036 0.616628 0
M  V30 28261 C 2760.84 -2.0654 0.122004 0
M  V30 28262 C 2761.26 -1.45971 -1.19741 0
M  V30 28263 O 2760.61 -0.577198 -1.73132 0
M  V30 28264 C 2760.66 -3.61497 -0.0144536 0
M  V30 28265 O 2760.38 -4.19806 1.25276 0
M  V30 28266 C 2761.89 -4.40005 -0.539478 0
M  V30 28267 H 2759.11 -0.667018 0.0729954 0
M  V30 28268 H 2761.65 -1.86138 0.846924 0
M  V30 28269 H 2759.8 -3.8121 -0.689742 0
M  V30 28270 H 2760.22 -5.13086 1.08825 0
M  V30 28271 H 2761.69 -5.48902 -0.584015 0
M  V30 28272 H 2762.17 -4.10424 -1.56361 0
M  V30 28273 H 2762.78 -4.25178 0.10207 0
M  V30 28274 N 2761.09 -0.356312 -1.53519 0
M  V30 28275 C 2762.51 -0.00488072 -1.59599 0
M  V30 28276 C 2762.71 1.47593 -1.37181 0
M  V30 28277 O 2761.76 2.23632 -1.17238 0
M  V30 28278 C 2763.08 -0.452506 -2.97276 0
M  V30 28279 C 2764.62 -0.405935 -3.10357 0
M  V30 28280 C 2765.1 -0.829228 -4.50431 0
M  V30 28281 N 2766.59 -0.783918 -4.56518 0
M  V30 28282 C 2767.32 -1.08324 -5.63075 0
M  V30 28283 N 2766.82 -1.45138 -6.77427 0
M  V30 28284 N 2768.61 -1.00665 -5.53013 0
M  V30 28285 H 2760.76 -1.32074 -1.66344 0
M  V30 28286 H 2763.03 -0.539232 -0.779701 0
M  V30 28287 H 2762.73 -1.48547 -3.18789 0
M  V30 28288 H 2762.61 0.165696 -3.76836 0
M  V30 28289 H 2764.99 0.617883 -2.88559 0
M  V30 28290 H 2765.08 -1.05951 -2.32826 0
M  V30 28291 H 2764.72 -1.85112 -4.72965 0
M  V30 28292 H 2764.65 -0.152998 -5.26378 0
M  V30 28293 H 2767.14 -0.512579 -3.74408 0
M  V30 28294 H 2767.45 -1.66428 -7.54666 0
M  V30 28295 H 2765.8 -1.48995 -6.78841 0
M  V30 28296 H 2768.99 -0.718297 -4.62556 0
M  V30 28297 H 2769.16 -1.24326 -6.35962 0
M  V30 28298 N 2762.57 1.57369 -0.0852427 0
M  V30 28299 C 2763.79 1.98747 0.592838 0
M  V30 28300 C 2764.22 0.963717 1.61537 0
M  V30 28301 O 2763.58 -0.0690391 1.81169 0
M  V30 28302 C 2763.62 3.39121 1.22593 0
M  V30 28303 O 2762.73 3.39461 2.34179 0
M  V30 28304 H 2762.07 0.646532 0.151303 0
M  V30 28305 H 2764.6 2.03944 -0.163739 0
M  V30 28306 H 2764.61 3.76601 1.56959 0
M  V30 28307 H 2763.28 4.13158 0.476759 0
M  V30 28308 H 2761.86 3.13767 2.01507 0
M  V30 28309 N 2764.05 -0.188399 1.5647 0
M  V30 28310 C 2765.29 -0.914437 1.82804 0
M  V30 28311 C 2765.65 -1.80163 0.663712 0
M  V30 28312 O 2766.85 -2.56397 0.807104 0
M  V30 28313 C 2765.12 -1.70351 3.1419 0
M  V30 28314 S 2766.68 -2.48065 3.61952 0
M  V30 28315 H 2763.5 -0.306588 0.641502 0
M  V30 28316 H 2766.1 -0.177327 1.94694 0
M  V30 28317 H 2764.81 -1.04248 3.96939 0
M  V30 28318 H 2764.34 -2.48232 3.05196 0
M  V30 28319 H 2766.35 -3.72402 3.2792 0
M  V30 28320 N 2765.53 -1.50848 -0.456355 0
M  V30 28321 C 2766.46 -1.65443 -1.57174 0
M  V30 28322 C 2767.44 -0.502252 -1.54649 0
M  V30 28323 O 2768.62 -0.723664 -1.74056 0
M  V30 28324 C 2765.75 -1.65057 -2.9576 0
M  V30 28325 C 2764.79 -2.86013 -3.16384 0
M  V30 28326 S 2765.63 -4.4711 -2.94708 0
M  V30 28327 C 2766.78 -4.49439 -4.35609 0
M  V30 28328 H 2767.02 -2.5979 -1.44557 0
M  V30 28329 H 2764.55 -1.40295 -0.644733 0
M  V30 28330 H 2766.51 -1.65518 -3.75651 0
M  V30 28331 H 2765.17 -0.719207 -3.05755 0
M  V30 28332 H 2764.36 -2.82089 -4.17663 0
M  V30 28333 H 2763.96 -2.83195 -2.44288 0
M  V30 28334 H 2766.25 -4.23909 -5.28495 0
M  V30 28335 H 2767.2 -5.51145 -4.44572 0
M  V30 28336 H 2767.61 -3.78975 -4.18376 0
M  V30 28337 N 2767 0.710538 -1.40674 0
M  V30 28338 C 2768.24 1.48286 -1.40679 0
M  V30 28339 C 2768.61 1.91998 -0.00975305 0
M  V30 28340 O 2769.81 2.68552 0.115334 0
M  V30 28341 C 2768.08 2.67258 -2.37293 0
M  V30 28342 S 2769.64 3.56599 -2.557 0
M  V30 28343 H 2766.46 0.506918 -0.498553 0
M  V30 28344 H 2769.06 0.830441 -1.76986 0
M  V30 28345 H 2767.76 2.33324 -3.37621 0
M  V30 28346 H 2767.29 3.37406 -2.02288 0
M  V30 28347 H 2769.31 4.61885 -1.81319 0
M  V30 28348 N 2768.48 1.26254 0.943277 0
M  V30 28349 C 2769.71 1.14446 1.72365 0
M  V30 28350 C 2770.12 -0.300539 1.86393 0
M  V30 28351 O 2769.48 -1.20593 1.3698 0
M  V30 28352 C 2769.53 1.80605 3.13152 0
M  V30 28353 O 2769.25 3.19458 2.99797 0
M  V30 28354 C 2770.75 1.74724 4.07414 0
M  V30 28355 H 2767.97 0.398636 0.539751 0
M  V30 28356 H 2770.52 1.66834 1.18265 0
M  V30 28357 H 2768.67 1.3216 3.6416 0
M  V30 28358 H 2769.09 3.52165 3.8869 0
M  V30 28359 H 2770.56 2.25656 5.03769 0
M  V30 28360 H 2771.04 0.71332 4.33369 0
M  V30 28361 H 2771.64 2.22711 3.62326 0
M  V30 28362 N 2769.96 -1.14755 1.08024 0
M  V30 28363 C 2770.92 -2.17909 0.710519 0
M  V30 28364 C 2771.92 -1.58802 -0.252703 0
M  V30 28365 O 2773.11 -1.74169 -0.0327609 0
M  V30 28366 C 2770.24 -3.40866 0.0483802 0
M  V30 28367 H 2771.44 -2.52131 1.62389 0
M  V30 28368 H 2768.99 -1.29335 0.877618 0
M  V30 28369 H 2769.73 -3.12219 -0.876904 0
M  V30 28370 H 2769.51 -3.8503 0.741256 0
M  V30 28371 H 2771 -4.17143 -0.195397 0
M  V30 28372 N 2771.44 -0.865331 -1.31719 0
M  V30 28373 C 2772.69 -0.47303 -1.96486 0
M  V30 28374 C 2773.01 0.976946 -1.68762 0
M  V30 28375 O 2772.28 1.68422 -1.00054 0
M  V30 28376 H 2770.86 -0.171934 -0.726944 0
M  V30 28377 H 2773.52 -1.1041 -1.6061 0
M  V30 28378 H 2772.61 -0.626924 -3.05739 0
M  V30 28379 N 2772.92 1.44707 -0.624311 0
M  V30 28380 C 2774.15 2.06173 -0.132763 0
M  V30 28381 C 2774.55 1.46676 1.1951 0
M  V30 28382 O 2773.9 0.581522 1.74253 0
M  V30 28383 C 2773.96 3.59444 0.0636101 0
M  V30 28384 C 2773.62 4.41368 -1.18503 0
M  V30 28385 C 2774.62 4.75285 -2.10715 0
M  V30 28386 C 2772.3 4.81853 -1.41854 0
M  V30 28387 C 2774.3 5.48561 -3.24592 0
M  V30 28388 C 2771.99 5.5488 -2.56029 0
M  V30 28389 C 2772.98 5.88153 -3.47225 0
M  V30 28390 O 2772.67 6.59695 -4.59411 0
M  V30 28391 H 2772.4 0.671966 -0.0737432 0
M  V30 28392 H 2774.96 1.86675 -0.856822 0
M  V30 28393 H 2773.19 3.77405 0.842743 0
M  V30 28394 H 2774.88 4.02698 0.508853 0
M  V30 28395 H 2775.64 4.44551 -1.93906 0
M  V30 28396 H 2771.52 4.5538 -0.717636 0
M  V30 28397 H 2775.07 5.74449 -3.95795 0
M  V30 28398 H 2770.96 5.85029 -2.72784 0
M  V30 28399 H 2771.73 6.78158 -4.58305 0
M  V30 28400 N 2774.39 0.364449 1.53328 0
M  V30 28401 C 2775.62 -0.228997 2.06132 0
M  V30 28402 C 2776.04 -1.41767 1.23628 0
M  V30 28403 O 2775.4 -1.79497 0.25507 0
M  V30 28404 C 2775.45 -0.601678 3.55545 0
M  V30 28405 O 2774.55 -1.69905 3.75774 0
M  V30 28406 H 2773.89 -0.0336097 0.663149 0
M  V30 28407 H 2776.42 0.524724 1.97757 0
M  V30 28408 H 2776.43 -0.873003 3.98551 0
M  V30 28409 H 2775.11 0.267494 4.15039 0
M  V30 28410 H 2773.69 -1.42337 3.44666 0
M  V30 28411 N 2775.87 -1.57322 0.0935872 0
M  V30 28412 C 2776.8 -2.16966 -0.863024 0
M  V30 28413 C 2777.78 -1.10258 -1.29527 0
M  V30 28414 O 2778.97 -1.38389 -1.36243 0
M  V30 28415 C 2776.1 -2.74878 -2.12272 0
M  V30 28416 C 2775.05 -3.86945 -1.82915 0
M  V30 28417 C 2774.38 -4.31553 -3.15699 0
M  V30 28418 C 2775.68 -5.1021 -1.11728 0
M  V30 28419 H 2777.37 -2.97153 -0.366093 0
M  V30 28420 H 2774.92 -1.42937 -0.174647 0
M  V30 28421 H 2776.87 -3.15255 -2.79629 0
M  V30 28422 H 2775.59 -1.91943 -2.64245 0
M  V30 28423 H 2774.25 -3.47105 -1.17955 0
M  V30 28424 H 2773.9 -3.4551 -3.65557 0
M  V30 28425 H 2773.6 -5.07109 -2.9684 0
M  V30 28426 H 2775.13 -4.74562 -3.84217 0
M  V30 28427 H 2776.54 -5.47765 -1.69193 0
M  V30 28428 H 2774.94 -5.91185 -1.03053 0
M  V30 28429 H 2776.01 -4.84797 -0.0997966 0
M  V30 28430 N 2777.35 0.180099 -1.56568 0
M  V30 28431 C 2778.77 0.531532 -1.50489 0
M  V30 28432 C 2778.97 1.85098 -0.7963 0
M  V30 28433 O 2778.02 2.5002 -0.353022 0
M  V30 28434 C 2779.33 0.572404 -2.95202 0
M  V30 28435 C 2780.88 0.66021 -3.05958 0
M  V30 28436 C 2781.36 0.732056 -4.52112 0
M  V30 28437 N 2782.85 0.795182 -4.56323 0
M  V30 28438 C 2783.58 0.871197 -5.66743 0
M  V30 28439 N 2783.08 0.908587 -6.86816 0
M  V30 28440 N 2784.87 0.909542 -5.54692 0
M  V30 28441 H 2777.02 -0.6852 -2.01044 0
M  V30 28442 H 2779.29 -0.245978 -0.915532 0
M  V30 28443 H 2778.99 -0.32827 -3.50165 0
M  V30 28444 H 2778.87 1.42194 -3.49372 0
M  V30 28445 H 2781.25 1.55131 -2.51035 0
M  V30 28446 H 2781.33 -0.215828 -2.54888 0
M  V30 28447 H 2780.98 -0.154754 -5.07664 0
M  V30 28448 H 2780.91 1.62411 -5.00929 0
M  V30 28449 H 2783.4 0.774925 -3.69869 0
M  V30 28450 H 2783.71 0.967519 -7.6672 0
M  V30 28451 H 2782.06 0.877011 -6.89444 0
M  V30 28452 H 2785.25 0.877272 -4.59806 0
M  V30 28453 H 2785.42 0.965322 -6.40769 0
M  V30 28454 N 2778.83 1.51088 0.448349 0
M  V30 28455 C 2780.05 1.67283 1.22602 0
M  V30 28456 C 2780.48 0.365078 1.84523 0
M  V30 28457 O 2779.84 -0.673612 1.68322 0
M  V30 28458 C 2779.88 2.78233 2.29388 0
M  V30 28459 O 2778.99 2.41069 3.34604 0
M  V30 28460 H 2778.33 0.558136 0.359695 0
M  V30 28461 H 2780.86 1.97593 0.530868 0
M  V30 28462 H 2780.87 3.0199 2.74346 0
M  V30 28463 H 2779.54 3.73134 1.83694 0
M  V30 28464 H 2778.12 2.27843 2.95198 0
M  V30 28465 N 2780.31 -0.703068 1.41049 0
M  V30 28466 C 2781.55 -1.46018 1.39726 0
M  V30 28467 C 2781.88 -1.94999 0.00464685 0
M  V30 28468 O 2781.15 -1.71198 -0.952262 0
M  V30 28469 H 2779.73 -0.54177 0.51429 0
M  V30 28470 H 2782.39 -0.832647 1.76219 0
M  V30 28471 H 2781.48 -2.32697 2.07986 0
M  V30 28472 N 2781.78 -1.26752 -0.936569 0
M  V30 28473 C 2782.72 -1.04504 -2.03989 0
M  V30 28474 C 2783.73 -0.00397122 -1.628 0
M  V30 28475 O 2784.92 -0.244558 -1.76817 0
M  V30 28476 C 2782.02 -0.561462 -3.34217 0
M  V30 28477 C 2781.19 -1.67281 -4.04148 0
M  V30 28478 C 2780.25 -1.18649 -5.12649 0
M  V30 28479 O 2779.28 -1.88446 -5.371 0
M  V30 28480 N 2780.48 -0.03738 -5.80488 0
M  V30 28481 H 2783.24 -1.99512 -2.2364 0
M  V30 28482 H 2780.8 -1.182 -1.10636 0
M  V30 28483 H 2782.8 -0.220207 -4.041 0
M  V30 28484 H 2781.37 0.295156 -3.11203 0
M  V30 28485 H 2780.59 -2.18478 -3.28117 0
M  V30 28486 H 2781.87 -2.41893 -4.47622 0
M  V30 28487 H 2781.27 0.545395 -5.63065 0
M  V30 28488 H 2779.83 0.244763 -6.5134 0
M  V30 28489 N 2783.26 1.1418 -1.08631 0
M  V30 28490 C 2784.19 2.18997 -0.676228 0
M  V30 28491 C 2785.21 1.60412 0.277842 0
M  V30 28492 O 2786.4 1.78381 0.0651458 0
M  V30 28493 C 2783.5 3.3889 0.025432 0
M  V30 28494 C 2782.67 4.27001 -0.948114 0
M  V30 28495 C 2781.73 5.25447 -0.28136 0
M  V30 28496 O 2780.75 5.61609 -0.926477 0
M  V30 28497 N 2781.96 5.72375 0.967822 0
M  V30 28498 H 2784.72 2.54795 -1.57796 0
M  V30 28499 H 2782.28 1.29423 -0.972688 0
M  V30 28500 H 2784.27 4.01814 0.482484 0
M  V30 28501 H 2782.84 3.01399 0.829296 0
M  V30 28502 H 2782.06 3.60978 -1.58395 0
M  V30 28503 H 2783.35 4.82731 -1.60774 0
M  V30 28504 H 2782.75 5.45129 1.51165 0
M  V30 28505 H 2781.31 6.37275 1.36833 0
M  V30 28506 N 2784.74 0.872304 1.31258 0
M  V30 28507 C 2785.7 0.334696 2.26743 0
M  V30 28508 C 2786.7 -0.515655 1.52308 0
M  V30 28509 O 2787.89 -0.324626 1.71149 0
M  V30 28510 C 2785.03 -0.524423 3.36842 0
M  V30 28511 H 2786.22 1.17767 2.7581 0
M  V30 28512 H 2783.77 0.648089 1.4223 0
M  V30 28513 H 2784.51 -1.3885 2.93072 0
M  V30 28514 H 2784.29 0.0844988 3.92009 0
M  V30 28515 H 2785.78 -0.892767 4.07945 0
M  V30 28516 N 2786.22 -1.44374 0.631976 0
M  V30 28517 C 2787.46 -2.03919 0.140125 0
M  V30 28518 C 2787.82 -1.48641 -1.21531 0
M  V30 28519 O 2789.02 -1.99694 -1.79933 0
M  V30 28520 C 2787.29 -3.57173 0.127237 0
M  V30 28521 S 2788.85 -4.37774 -0.299869 0
M  V30 28522 H 2785.67 -0.708335 0.0615016 0
M  V30 28523 H 2788.27 -1.76745 0.835555 0
M  V30 28524 H 2786.98 -3.94911 1.11683 0
M  V30 28525 H 2786.51 -3.88959 -0.589413 0
M  V30 28526 H 2788.52 -4.71571 -1.54387 0
M  V30 28527 N 2787.7 -0.372575 -1.53133 0
M  V30 28528 C 2788.61 0.478339 -2.29672 0
M  V30 28529 C 2789.62 1.08642 -1.35915 0
M  V30 28530 O 2790.8 1.09585 -1.68977 0
M  V30 28531 C 2787.86 1.59894 -3.07627 0
M  V30 28532 C 2786.92 1.01769 -4.17063 0
M  V30 28533 C 2786.16 2.08489 -4.91292 0
M  V30 28534 O 2786.38 3.29719 -4.65448 0
M  V30 28535 O 2785.31 1.71154 -5.77053 0
M  V30 28536 H 2789.14 -0.144703 -3.03355 0
M  V30 28537 H 2786.73 -0.136755 -1.48773 0
M  V30 28538 H 2788.61 2.25031 -3.56285 0
M  V30 28539 H 2787.28 2.20726 -2.36774 0
M  V30 28540 H 2786.19 0.330033 -3.72641 0
M  V30 28541 H 2787.52 0.453829 -4.90103 0
M  V30 28542 N 2789.17 1.5727 -0.101929 0
M  V30 28543 C 2790.42 1.94214 0.559057 0
M  V30 28544 C 2790.74 0.984978 1.68295 0
M  V30 28545 O 2790.01 0.0382319 1.95863 0
M  V30 28546 H 2788.59 0.717018 0.209508 0
M  V30 28547 H 2791.26 1.94184 -0.166866 0
M  V30 28548 H 2790.35 2.96813 0.964798 0
M  V30 28549 N 2790.65 -0.171793 1.56661 0
M  V30 28550 C 2791.9 -0.889813 1.82237 0
M  V30 28551 C 2792.23 -1.81917 0.679705 0
M  V30 28552 O 2791.51 -1.91877 -0.31837 0
M  V30 28553 C 2791.79 -1.68589 3.18198 0
M  V30 28554 C 2791.64 -0.779695 4.42991 0
M  V30 28555 C 2792.96 -2.65368 3.51095 0
M  V30 28556 H 2790.08 -0.322044 0.662915 0
M  V30 28557 H 2792.72 -0.156047 1.89358 0
M  V30 28558 H 2790.87 -2.31144 3.12257 0
M  V30 28559 H 2792.54 -0.167059 4.60997 0
M  V30 28560 H 2790.79 -0.0877201 4.33711 0
M  V30 28561 H 2791.46 -1.37221 5.34672 0
M  V30 28562 H 2793.93 -2.1294 3.57485 0
M  V30 28563 H 2792.81 -3.18136 4.47304 0
M  V30 28564 H 2793.07 -3.45544 2.75775 0
M  V30 28565 N 2792.13 -1.51324 -0.44033 0
M  V30 28566 C 2793.38 -1.6352 -1.18767 0
M  V30 28567 C 2793.7 -0.352234 -1.91792 0
M  V30 28568 O 2792.97 0.631779 -1.85433 0
M  V30 28569 H 2791.55 -0.602642 -0.441398 0
M  V30 28570 H 2794.21 -1.8824 -0.505129 0
M  V30 28571 H 2793.31 -2.46141 -1.91887 0
M  V30 28572 N 2793.61 0.695578 -1.41419 0
M  V30 28573 C 2794.83 1.4894 -1.44332 0
M  V30 28574 C 2795.26 1.88033 -0.0501909 0
M  V30 28575 O 2794.62 1.54628 0.946571 0
M  V30 28576 C 2794.66 2.72833 -2.35785 0
M  V30 28577 O 2793.77 3.70318 -1.81488 0
M  V30 28578 H 2793.11 0.448271 -0.489846 0
M  V30 28579 H 2795.64 0.854982 -1.8588 0
M  V30 28580 H 2795.65 3.21141 -2.51659 0
M  V30 28581 H 2794.32 2.43716 -3.37009 0
M  V30 28582 H 2792.9 3.29252 -1.75064 0
M  V30 28583 N 2795.09 1.27247 0.929833 0
M  V30 28584 C 2796.33 1.1346 1.67729 0
M  V30 28585 C 2796.66 -0.319965 1.9185 0
M  V30 28586 O 2795.92 -1.25061 1.50526 0
M  V30 28587 C 2796.22 1.8612 3.05113 0
M  V30 28588 C 2795.88 3.35983 3.0071 0
M  V30 28589 C 2794.54 3.7686 2.99216 0
M  V30 28590 C 2796.9 4.31615 2.9216 0
M  V30 28591 C 2794.22 5.11737 2.86953 0
M  V30 28592 C 2796.58 5.66547 2.81439 0
M  V30 28593 C 2795.24 6.0672 2.78294 0
M  V30 28594 H 2794.51 0.415179 0.613765 0
M  V30 28595 H 2797.16 1.57829 1.08453 0
M  V30 28596 H 2795.46 1.34253 3.68081 0
M  V30 28597 H 2797.16 1.72882 3.61819 0
M  V30 28598 H 2793.75 3.03473 3.02658 0
M  V30 28599 H 2797.93 4.01008 2.92414 0
M  V30 28600 H 2793.19 5.42011 2.82903 0
M  V30 28601 H 2797.36 6.40322 2.73789 0
M  V30 28602 H 2794.99 7.11186 2.68548 0
M  V30 28603 N 2796.57 -1.13603 1.09235 0
M  V30 28604 C 2797.5 -2.21067 0.751776 0
M  V30 28605 C 2798.48 -1.67949 -0.269659 0
M  V30 28606 O 2799.66 -1.93708 -0.138156 0
M  V30 28607 C 2796.79 -3.46887 0.169411 0
M  V30 28608 C 2795.75 -4.13082 1.12014 0
M  V30 28609 C 2795.07 -5.33205 0.399577 0
M  V30 28610 C 2796.37 -4.60646 2.46176 0
M  V30 28611 H 2798.07 -2.49812 1.65029 0
M  V30 28612 H 2795.61 -1.20071 0.794926 0
M  V30 28613 H 2797.56 -4.21322 -0.0809084 0
M  V30 28614 H 2796.29 -3.17532 -0.76428 0
M  V30 28615 H 2794.95 -3.40612 1.3557 0
M  V30 28616 H 2794.6 -5.00113 -0.538189 0
M  V30 28617 H 2794.3 -5.7844 1.03347 0
M  V30 28618 H 2795.82 -6.10397 0.157511 0
M  V30 28619 H 2797.23 -5.26514 2.26838 0
M  V30 28620 H 2795.63 -5.16614 3.05335 0
M  V30 28621 H 2796.7 -3.75271 3.07083 0
M  V30 28622 N 2798.04 -0.879253 -1.30793 0
M  V30 28623 C 2798.97 -0.357836 -2.30742 0
M  V30 28624 C 2799.95 0.556255 -1.60748 0
M  V30 28625 O 2801.14 0.471317 -1.88394 0
M  V30 28626 C 2798.27 0.433494 -3.44584 0
M  V30 28627 C 2797.22 -0.388326 -4.26235 0
M  V30 28628 C 2796.55 0.529259 -5.32074 0
M  V30 28629 C 2797.85 -1.62738 -4.963 0
M  V30 28630 H 2799.54 -1.19304 -2.74603 0
M  V30 28631 H 2797.09 -0.575127 -1.32016 0
M  V30 28632 H 2799.04 0.808861 -4.13564 0
M  V30 28633 H 2797.77 1.30229 -2.99513 0
M  V30 28634 H 2796.43 -0.745758 -3.58935 0
M  V30 28635 H 2796.07 1.3956 -4.83251 0
M  V30 28636 H 2795.77 -0.0167774 -5.87598 0
M  V30 28637 H 2797.3 0.901267 -6.03912 0
M  V30 28638 H 2798.71 -1.32293 -5.57827 0
M  V30 28639 H 2797.11 -2.11318 -5.61662 0
M  V30 28640 H 2798.18 -2.37502 -4.22754 0
M  V30 28641 N 2799.52 1.44037 -0.639624 0
M  V30 28642 C 2800.75 2.06021 -0.154623 0
M  V30 28643 C 2801.16 1.47935 1.17948 0
M  V30 28644 O 2800.5 0.599971 1.73626 0
M  V30 28645 C 2800.56 3.59491 0.0254827 0
M  V30 28646 C 2800.23 4.40087 -1.23178 0
M  V30 28647 C 2801.23 4.73023 -2.15744 0
M  V30 28648 C 2798.91 4.80322 -1.46957 0
M  V30 28649 C 2800.9 5.45087 -3.30391 0
M  V30 28650 C 2798.59 5.52134 -2.619 0
M  V30 28651 C 2799.59 5.84437 -3.53444 0
M  V30 28652 O 2799.28 6.54785 -4.66382 0
M  V30 28653 H 2799.01 0.671146 -0.0808661 0
M  V30 28654 H 2801.56 1.85756 -0.876573 0
M  V30 28655 H 2799.79 3.78278 0.802666 0
M  V30 28656 H 2801.48 4.03215 0.466113 0
M  V30 28657 H 2802.25 4.42469 -1.9861 0
M  V30 28658 H 2798.13 4.54593 -0.765895 0
M  V30 28659 H 2801.67 5.70219 -4.01866 0
M  V30 28660 H 2797.57 5.82103 -2.78974 0
M  V30 28661 H 2798.34 6.73259 -4.65472 0
M  V30 28662 N 2801 0.380691 1.52933 0
M  V30 28663 C 2802.22 -0.207121 2.06363 0
M  V30 28664 C 2802.65 -1.40447 1.25124 0
M  V30 28665 O 2802.01 -1.79216 0.274094 0
M  V30 28666 C 2802.06 -0.563933 3.56163 0
M  V30 28667 O 2801.16 -1.6591 3.77555 0
M  V30 28668 H 2800.5 -0.0265742 0.663468 0
M  V30 28669 H 2803.03 0.545669 1.97189 0
M  V30 28670 H 2803.04 -0.830682 3.99454 0
M  V30 28671 H 2801.72 0.3115 4.14732 0
M  V30 28672 H 2800.29 -1.38674 3.46156 0
M  V30 28673 N 2802.48 -1.57214 0.110268 0
M  V30 28674 C 2803.72 -1.95181 -0.55065 0
M  V30 28675 C 2804.06 -0.993151 -1.66884 0
M  V30 28676 O 2803.33 -0.0288249 -1.94479 0
M  V30 28677 C 2803.61 -3.43157 -1.09157 0
M  V30 28678 C 2803.47 -4.49794 0.0225989 0
M  V30 28679 C 2804.79 -3.92782 -1.98521 0
M  V30 28680 H 2801.91 -0.709711 -0.198694 0
M  V30 28681 H 2804.55 -1.89106 0.184057 0
M  V30 28682 H 2802.7 -3.48465 -1.71769 0
M  V30 28683 H 2804.37 -4.5659 0.657524 0
M  V30 28684 H 2802.61 -4.28326 0.686943 0
M  V30 28685 H 2803.28 -5.50571 -0.396963 0
M  V30 28686 H 2805.76 -3.89723 -1.45793 0
M  V30 28687 H 2804.64 -4.96857 -2.33289 0
M  V30 28688 H 2804.9 -3.32963 -2.90841 0
M  V30 28689 N 2803.96 0.163482 -1.5675 0
M  V30 28690 C 2804.91 1.20708 -1.93426 0
M  V30 28691 C 2805.89 1.39402 -0.803494 0
M  V30 28692 O 2807.08 1.41241 -1.06677 0
M  V30 28693 C 2804.21 2.54469 -2.30436 0
M  V30 28694 C 2803.3 2.39437 -3.50044 0
M  V30 28695 N 2803.69 1.94131 -4.67062 0
M  V30 28696 C 2801.99 2.70239 -3.54805 0
M  V30 28697 C 2802.69 1.9175 -5.49187 0
M  V30 28698 N 2801.66 2.34448 -4.90444 0
M  V30 28699 H 2805.46 0.848632 -2.81381 0
M  V30 28700 H 2802.98 0.371689 -1.58089 0
M  V30 28701 H 2804.98 3.2989 -2.54909 0
M  V30 28702 H 2803.64 2.9111 -1.43823 0
M  V30 28703 H 2804.65 1.64349 -4.91131 0
M  V30 28704 H 2801.32 3.10866 -2.78691 0
M  V30 28705 H 2802.71 1.58354 -6.52973 0
M  V30 28706 N 2805.43 1.51555 0.432299 0
M  V30 28707 C 2806.34 1.76085 1.5502 0
M  V30 28708 C 2807.36 0.645294 1.61592 0
M  V30 28709 O 2808.54 0.928117 1.7874 0
M  V30 28710 C 2805.6 1.88528 2.90961 0
M  V30 28711 C 2804.66 3.12393 2.94464 0
M  V30 28712 C 2803.89 3.24233 4.23921 0
M  V30 28713 O 2804.12 2.41889 5.16571 0
M  V30 28714 O 2803.05 4.17243 4.33811 0
M  V30 28715 H 2806.88 2.70925 1.37234 0
M  V30 28716 H 2804.46 1.36118 0.615821 0
M  V30 28717 H 2806.34 1.98669 3.7163 0
M  V30 28718 H 2805.02 0.968755 3.08864 0
M  V30 28719 H 2803.93 3.07727 2.12732 0
M  V30 28720 H 2805.26 4.03751 2.81507 0
M  V30 28721 N 2806.91 -0.688069 1.41786 0
M  V30 28722 C 2808.16 -1.44527 1.41267 0
M  V30 28723 C 2808.48 -1.94984 0.0253289 0
M  V30 28724 O 2807.75 -1.72198 -0.934051 0
M  V30 28725 H 2806.33 -0.536285 0.520007 0
M  V30 28726 H 2808.99 -0.81391 1.77092 0
M  V30 28727 H 2808.09 -2.30478 2.10443 0
M  V30 28728 N 2808.39 -1.27739 -0.923072 0
M  V30 28729 C 2809.64 -1.13729 -1.66579 0
M  V30 28730 C 2809.95 0.315399 -1.9304 0
M  V30 28731 O 2811.16 0.576464 -2.6531 0
M  V30 28732 C 2809.61 -1.9875 -3.00044 0
M  V30 28733 C 2809.22 -3.48704 -2.81264 0
M  V30 28734 C 2810.97 -1.93402 -3.77883 0
M  V30 28735 C 2808.87 -4.25908 -4.10313 0
M  V30 28736 H 2807.8 -0.422028 -0.624827 0
M  V30 28737 H 2810.45 -1.52196 -1.02511 0
M  V30 28738 H 2808.84 -1.53132 -3.65194 0
M  V30 28739 H 2810.01 -4.02217 -2.24852 0
M  V30 28740 H 2808.32 -3.5548 -2.16848 0
M  V30 28741 H 2810.92 -2.48357 -4.73522 0
M  V30 28742 H 2811.26 -0.908676 -4.06262 0
M  V30 28743 H 2811.8 -2.3694 -3.19537 0
M  V30 28744 H 2808.54 -5.28985 -3.87111 0
M  V30 28745 H 2808.06 -3.77171 -4.66371 0
M  V30 28746 H 2809.74 -4.3533 -4.78641 0
M  V30 28747 N 2809.87 1.13022 -1.09836 0
M  V30 28748 C 2811.28 1.36387 -0.828899 0
M  V30 28749 C 2811.48 1.93714 0.554722 0
M  V30 28750 O 2810.54 2.15933 1.30879 0
M  V30 28751 C 2811.85 2.31127 -1.92356 0
M  V30 28752 C 2813.4 2.44732 -1.95129 0
M  V30 28753 C 2813.88 3.42782 -3.03751 0
M  V30 28754 N 2815.37 3.50335 -3.03018 0
M  V30 28755 C 2816.1 4.26095 -3.83707 0
M  V30 28756 N 2815.6 5.04973 -4.74315 0
M  V30 28757 N 2817.39 4.21438 -3.71949 0
M  V30 28758 H 2809.54 0.741655 -1.99031 0
M  V30 28759 H 2811.81 0.388888 -0.864564 0
M  V30 28760 H 2811.51 1.96167 -2.9191 0
M  V30 28761 H 2811.39 3.31186 -1.80542 0
M  V30 28762 H 2813.77 2.78975 -0.962118 0
M  V30 28763 H 2813.85 1.44582 -2.11021 0
M  V30 28764 H 2813.5 3.09269 -4.02884 0
M  V30 28765 H 2813.43 4.42747 -2.85102 0
M  V30 28766 H 2815.92 2.94058 -2.37357 0
M  V30 28767 H 2816.23 5.60099 -5.32456 0
M  V30 28768 H 2814.58 5.04191 -4.78348 0
M  V30 28769 H 2817.77 3.58895 -3.0052 0
M  V30 28770 H 2817.94 4.80227 -4.3507 0
M  V30 28771 N 2811.35 0.886177 1.30325 0
M  V30 28772 C 2812.59 0.504229 1.95709 0
M  V30 28773 C 2812.92 -0.949973 1.70295 0
M  V30 28774 O 2812.19 -1.66809 1.02721 0
M  V30 28775 H 2810.77 0.183478 0.724117 0
M  V30 28776 H 2813.43 1.12951 1.58833 0
M  V30 28777 H 2812.52 0.675485 3.04702 0
M  V30 28778 N 2812.82 -1.43695 0.647253 0
M  V30 28779 C 2814.07 -2.01099 0.155588 0
M  V30 28780 C 2814.39 -1.51627 -1.23567 0
M  V30 28781 O 2815.59 -2.01264 -1.82222 0
M  V30 28782 C 2814.05 -3.59181 0.227359 0
M  V30 28783 C 2813.66 -4.17648 1.62093 0
M  V30 28784 C 2815.4 -4.23995 -0.207011 0
M  V30 28785 C 2813.31 -5.68005 1.64695 0
M  V30 28786 H 2812.24 -0.752035 0.0544027 0
M  V30 28787 H 2814.89 -1.64733 0.808415 0
M  V30 28788 H 2813.27 -3.92921 -0.492868 0
M  V30 28789 H 2814.44 -3.95418 2.36603 0
M  V30 28790 H 2812.76 -3.65183 2.00077 0
M  V30 28791 H 2815.36 -5.34298 -0.207332 0
M  V30 28792 H 2815.7 -3.97486 -1.23735 0
M  V30 28793 H 2816.23 -3.95117 0.461263 0
M  V30 28794 H 2812.97 -5.99272 2.65619 0
M  V30 28795 H 2812.49 -5.92309 0.945018 0
M  V30 28796 H 2814.17 -6.31936 1.38804 0
M  V30 28797 N 2814.3 -0.388796 -1.52729 0
M  V30 28798 C 2815.71 0.085346 -1.86505 0
M  V30 28799 C 2816.06 1.46194 -1.3085 0
M  V30 28800 O 2815.19 2.0673 -0.639645 0
M  V30 28801 C 2815.78 0.161644 -3.38414 0
M  V30 28802 C 2814.34 0.580078 -3.71903 0
M  V30 28803 C 2813.49 -0.258266 -2.76095 0
M  V30 28804 H 2816.44 -0.606691 -1.46646 0
M  V30 28805 H 2816.46 0.980871 -3.6764 0
M  V30 28806 H 2815.97 -0.8404 -3.78892 0
M  V30 28807 H 2814.08 1.58951 -3.36995 0
M  V30 28808 H 2814.19 0.338579 -4.77902 0
M  V30 28809 H 2812.55 0.276387 -2.53196 0
M  V30 28810 H 2813.34 -1.25828 -3.19409 0
M  V30 28811 N 2815.78 1.57153 -0.118604 0
M  V30 28812 C 2816.71 2.18311 0.828398 0
M  V30 28813 C 2817.69 1.12305 1.27756 0
M  V30 28814 O 2818.88 1.40539 1.34024 0
M  V30 28815 C 2816.01 2.78221 2.07872 0
M  V30 28816 C 2814.96 3.89806 1.76735 0
M  V30 28817 C 2814.29 4.36521 3.08793 0
M  V30 28818 C 2815.59 5.11923 1.03597 0
M  V30 28819 H 2817.28 2.97698 0.318772 0
M  V30 28820 H 2814.83 1.43197 0.151885 0
M  V30 28821 H 2816.78 3.19664 2.74578 0
M  V30 28822 H 2815.5 1.96123 2.61158 0
M  V30 28823 H 2814.16 3.48938 1.12418 0
M  V30 28824 H 2813.81 3.51282 3.60013 0
M  V30 28825 H 2813.51 5.11768 2.88734 0
M  V30 28826 H 2815.03 4.80615 3.76619 0
M  V30 28827 H 2816.45 5.50388 1.60457 0
M  V30 28828 H 2814.85 5.9275 0.93635 0
M  V30 28829 H 2815.92 4.84895 0.0226569 0
M  V30 28830 N 2817.26 -0.155167 1.56834 0
M  V30 28831 C 2818.54 -0.897364 1.73801 0
M  V30 28832 C 2818.92 -1.99697 0.684415 0
M  V30 28833 O 2818.26 -2.26548 -0.298071 0
M  V30 28834 C 2818.47 -1.44731 3.17575 0
M  V30 28835 C 2819.82 -1.91393 3.79017 0
M  V30 28836 O 2820.85 -1.54491 3.20953 0
M  V30 28837 O 2819.7 -2.5942 4.81003 0
M  V30 28838 H 2816.8 -0.423498 0.710337 0
M  V30 28839 H 2819.34 -0.141731 1.69107 0
M  V30 28840 H 2818.12 -0.656673 3.85751 0
M  V30 28841 H 2817.74 -2.26668 3.26661 0
M  V30 28842 N 2818.74 -1.51782 -0.424256 0
M  V30 28843 C 2820.15 -1.57428 -1.00365 0
M  V30 28844 C 2820.5 -0.405614 -1.91961 0
M  V30 28845 O 2819.62 0.475972 -2.11101 0
M  V30 28846 C 2820.22 -2.85316 -1.82702 0
M  V30 28847 C 2818.78 -2.93491 -2.35669 0
M  V30 28848 C 2817.92 -2.52222 -1.15235 0
M  V30 28849 H 2820.88 -1.5737 -0.205037 0
M  V30 28850 H 2820.9 -2.69817 -2.68289 0
M  V30 28851 H 2820.41 -3.70355 -1.16011 0
M  V30 28852 H 2818.51 -2.12912 -3.05777 0
M  V30 28853 H 2818.62 -3.9742 -2.67571 0
M  V30 28854 H 2816.99 -2.05721 -1.5017 0
M  V30 28855 H 2817.77 -3.3962 -0.501341 0
M  V30 28856 N 2820.21 0.68054 -1.42149 0
M  V30 28857 C 2821.16 1.8155 -1.45404 0
M  V30 28858 C 2822.16 1.66147 -0.330389 0
M  V30 28859 O 2823.36 1.72825 -0.503134 0
M  V30 28860 H 2819.74 0.598522 -0.455275 0
M  V30 28861 H 2821.71 1.75922 -2.41027 0
M  V30 28862 C 2820.46 3.19669 -1.36774 0
M  V30 28863 H 2819.78 3.32145 -2.2253 0
M  V30 28864 H 2821.22 3.99117 -1.43113 0
M  V30 28865 C 2819.68 3.36801 -0.0818344 0
M  V30 28866 O 2820.21 3.92218 0.867638 0
M  V30 28867 N 2818.42 2.906 -0.000850892 0
M  V30 28868 H 2817.96 2.45688 -0.774275 0
M  V30 28869 H 2817.92 3.0244 0.858908 0
M  V30 28870 N 2821.69 1.28226 0.916285 0
M  V30 28871 C 2822.97 1.05939 1.64427 0
M  V30 28872 C 2823.35 -0.402103 2.07235 0
M  V30 28873 O 2822.7 -1.38767 1.81538 0
M  V30 28874 C 2822.91 2.03164 2.8377 0
M  V30 28875 C 2824.26 2.3317 3.54848 0
M  V30 28876 O 2825.28 2.01228 2.93914 0
M  V30 28877 O 2824.14 2.87672 4.64658 0
M  V30 28878 H 2821.23 0.404696 0.721214 0
M  V30 28879 H 2823.78 1.39535 0.965813 0
M  V30 28880 H 2822.55 3.01677 2.49212 0
M  V30 28881 H 2822.17 1.70198 3.5933 0
M  V30 28882 N 2823.17 -1.12438 1.10433 0
M  V30 28883 C 2824.12 -2.18166 0.753141 0
M  V30 28884 C 2825.09 -1.63882 -0.27052 0
M  V30 28885 O 2826.27 -1.90211 -0.149804 0
M  V30 28886 C 2823.41 -3.4457 0.191106 0
M  V30 28887 C 2822.53 -4.12908 1.27006 0
M  V30 28888 C 2821.66 -5.26962 0.669679 0
M  V30 28889 C 2820.7 -5.87166 1.72922 0
M  V30 28890 N 2819.84 -6.92633 1.1491 0
M  V30 28891 H 2824.68 -2.47553 1.65896 0
M  V30 28892 H 2822.21 -1.21539 0.828652 0
M  V30 28893 H 2824.17 -4.16921 -0.152638 0
M  V30 28894 H 2822.8 -3.15601 -0.677942 0
M  V30 28895 H 2821.85 -3.38737 1.73093 0
M  V30 28896 H 2823.17 -4.53723 2.07212 0
M  V30 28897 H 2822.32 -6.06075 0.27538 0
M  V30 28898 H 2821.06 -4.87425 -0.16381 0
M  V30 28899 H 2820.06 -5.0674 2.13294 0
M  V30 28900 H 2821.29 -6.28774 2.56555 0
M  V30 28901 H 2819.23 -6.55133 0.337071 0
M  V30 28902 H 2819.15 -7.32046 1.88799 0
M  V30 28903 H 2820.42 -7.75574 0.781346 0
M  V30 28904 N 2824.65 -0.893076 -1.29853 0
M  V30 28905 C 2825.87 -0.530101 -2.00511 0
M  V30 28906 C 2826.3 0.876169 -1.66448 0
M  V30 28907 O 2825.66 1.58206 -0.885474 0
M  V30 28908 C 2825.71 -0.721567 -3.53307 0
M  V30 28909 O 2824.81 0.228922 -4.11764 0
M  V30 28910 H 2824.15 -0.207902 -0.630613 0
M  V30 28911 H 2826.68 -1.20285 -1.65508 0
M  V30 28912 H 2826.69 -0.623669 -4.03205 0
M  V30 28913 H 2825.37 -1.74684 -3.77436 0
M  V30 28914 H 2823.94 0.0840379 -3.72805 0
M  V30 28915 N 2826.13 1.4335 -0.654865 0
M  V30 28916 C 2827.4 1.9535 -0.0987714 0
M  V30 28917 C 2827.78 1.5961 1.38159 0
M  V30 28918 O 2827.13 0.882058 2.10789 0
M  V30 28919 C 2827.34 3.47273 -0.346745 0
M  V30 28920 C 2828.69 4.23848 -0.252565 0
M  V30 28921 O 2829.71 3.55103 -0.279394 0
M  V30 28922 O 2828.57 5.46211 -0.17768 0
M  V30 28923 H 2825.67 0.826955 0.00866836 0
M  V30 28924 H 2828.21 1.53281 -0.728216 0
M  V30 28925 H 2826.99 3.6642 -1.37302 0
M  V30 28926 H 2826.61 3.96345 0.315687 0
M  V30 28927 N 2827.61 0.39689 1.52521 0
M  V30 28928 C 2828.57 -0.422564 2.25271 0
M  V30 28929 C 2829.57 -0.983891 1.27186 0
M  V30 28930 O 2830.76 -0.864697 1.51224 0
M  V30 28931 C 2827.89 -1.5936 3.01359 0
M  V30 28932 H 2829.08 0.214469 2.99132 0
M  V30 28933 H 2826.64 0.149156 1.55587 0
M  V30 28934 H 2827.37 -2.26785 2.31817 0
M  V30 28935 H 2827.16 -1.19772 3.73359 0
M  V30 28936 H 2828.65 -2.17357 3.56575 0
M  V30 28937 N 2829.08 -1.57088 0.126936 0
M  V30 28938 C 2830.01 -2.18748 -0.816808 0
M  V30 28939 C 2830.99 -1.12981 -1.27159 0
M  V30 28940 O 2832.18 -1.41248 -1.33277 0
M  V30 28941 C 2829.31 -2.79319 -2.06393 0
M  V30 28942 C 2828.26 -3.90738 -1.74666 0
M  V30 28943 C 2827.59 -4.38153 -3.06474 0
M  V30 28944 C 2828.89 -5.12465 -1.00881 0
M  V30 28945 H 2830.58 -2.97863 -0.30298 0
M  V30 28946 H 2828.13 -1.43275 -0.144289 0
M  V30 28947 H 2830.08 -3.21115 -2.72879 0
M  V30 28948 H 2828.81 -1.97505 -2.60114 0
M  V30 28949 H 2827.47 -3.49529 -1.10566 0
M  V30 28950 H 2827.11 -3.53187 -3.58145 0
M  V30 28951 H 2826.81 -5.13292 -2.86016 0
M  V30 28952 H 2828.34 -4.82605 -3.74065 0
M  V30 28953 H 2829.75 -5.51231 -1.57536 0
M  V30 28954 H 2828.15 -5.93238 -0.904902 0
M  V30 28955 H 2829.22 -4.849 0.00305858 0
M  V30 28956 N 2830.56 0.146848 -1.56914 0
M  V30 28957 C 2831.81 0.860708 -1.83629 0
M  V30 28958 C 2832.14 1.80812 -0.70856 0
M  V30 28959 O 2831.42 1.92359 0.287804 0
M  V30 28960 C 2831.7 1.63506 -3.20839 0
M  V30 28961 C 2831.55 0.709121 -4.44175 0
M  V30 28962 C 2832.87 2.59749 -3.55272 0
M  V30 28963 H 2829.99 0.311457 -0.667955 0
M  V30 28964 H 2832.63 0.125902 -1.89582 0
M  V30 28965 H 2830.78 2.26147 -3.15895 0
M  V30 28966 H 2832.45 0.093697 -4.61205 0
M  V30 28967 H 2830.7 0.0187093 -4.33796 0
M  V30 28968 H 2831.37 1.28697 -5.36788 0
M  V30 28969 H 2833.84 2.07226 -3.60828 0
M  V30 28970 H 2832.72 3.10979 -4.52309 0
M  V30 28971 H 2832.98 3.41113 -2.81237 0
M  V30 28972 N 2832.04 1.52005 0.4162 0
M  V30 28973 C 2833.45 1.57958 0.995292 0
M  V30 28974 C 2833.8 0.415788 1.91744 0
M  V30 28975 O 2832.93 -0.464771 2.1135 0
M  V30 28976 C 2833.52 2.86281 1.81186 0
M  V30 28977 C 2832.08 2.94737 2.3411 0
M  V30 28978 C 2831.23 2.5283 1.13896 0
M  V30 28979 H 2834.18 1.57476 0.196688 0
M  V30 28980 H 2834.2 2.71236 2.66855 0
M  V30 28981 H 2833.71 3.70965 1.14045 0
M  V30 28982 H 2831.81 2.1453 3.04643 0
M  V30 28983 H 2831.93 3.98833 2.65459 0
M  V30 28984 H 2830.29 2.06514 1.49077 0
M  V30 28985 H 2831.07 3.39881 0.483323 0
M  V30 28986 N 2833.52 -0.672992 1.42508 0
M  V30 28987 C 2834.76 -1.43516 1.43286 0
M  V30 28988 C 2835.1 -1.94136 0.0497021 0
M  V30 28989 O 2834.37 -1.71024 -0.926339 0
M  V30 28990 C 2834.65 -2.63089 2.45878 0
M  V30 28991 C 2834.51 -2.18089 3.93392 0
M  V30 28992 C 2835.83 -3.65306 2.45438 0
M  V30 28993 H 2832.95 -0.520513 0.521762 0
M  V30 28994 H 2835.59 -0.76467 1.73933 0
M  V30 28995 H 2833.74 -3.20292 2.19875 0
M  V30 28996 H 2835.41 -1.66039 4.30382 0
M  V30 28997 H 2833.65 -1.49645 4.07172 0
M  V30 28998 H 2834.32 -3.03985 4.60757 0
M  V30 28999 H 2836.8 -3.17823 2.68567 0
M  V30 29000 H 2835.68 -4.46548 3.19196 0
M  V30 29001 H 2835.94 -4.16556 1.481 0
M  V30 29002 N 2835 -1.2871 -0.909472 0
M  V30 29003 C 2836.22 -1.19093 -1.69798 0
M  V30 29004 C 2836.65 0.246355 -1.8648 0
M  V30 29005 O 2836 1.17812 -1.37804 0
M  V30 29006 C 2836.05 -1.89909 -3.0654 0
M  V30 29007 O 2835.16 -1.20947 -3.94266 0
M  V30 29008 H 2834.5 -0.413194 -0.519776 0
M  V30 29009 H 2837.03 -1.70108 -1.13686 0
M  V30 29010 H 2837.04 -1.97983 -3.56745 0
M  V30 29011 H 2835.71 -2.94454 -2.93717 0
M  V30 29012 H 2834.29 -1.21066 -3.527 0
M  V30 29013 N 2836.47 1.1185 -1.11028 0
M  V30 29014 C 2837.72 1.83133 -0.854801 0
M  V30 29015 C 2838.04 1.84836 0.621342 0
M  V30 29016 O 2837.31 1.31587 1.45127 0
M  V30 29017 H 2835.89 0.678151 -0.313241 0
M  V30 29018 H 2838.55 1.35409 -1.4018 0
M  V30 29019 H 2837.65 2.87133 -1.22316 0
M  V30 29020 N 2837.95 0.89995 1.29378 0
M  V30 29021 C 2839.18 0.541421 1.9969 0
M  V30 29022 C 2839.59 -0.873907 1.67357 0
M  V30 29023 O 2838.95 -1.57687 0.918756 0
M  V30 29024 C 2839 0.724442 3.54167 0
M  V30 29025 O 2838.72 2.08406 3.85355 0
M  V30 29026 C 2840.22 0.370896 4.41746 0
M  V30 29027 H 2837.44 0.207737 0.638033 0
M  V30 29028 H 2839.99 1.20937 1.64908 0
M  V30 29029 H 2838.14 0.103675 3.87261 0
M  V30 29030 H 2838.56 2.1136 4.80028 0
M  V30 29031 H 2840.03 0.54979 5.49255 0
M  V30 29032 H 2840.51 -0.692071 4.33713 0
M  V30 29033 H 2841.11 0.968615 4.14123 0
M  V30 29034 N 2839.43 -1.43001 0.662458 0
M  V30 29035 C 2840.66 -2.06564 0.186039 0
M  V30 29036 C 2841.08 -1.49381 -1.14311 0
M  V30 29037 O 2840.44 -0.607376 -1.70823 0
M  V30 29038 C 2840.49 -3.60406 0.118333 0
M  V30 29039 O 2839.59 -4.02081 -0.916788 0
M  V30 29040 H 2838.93 -0.656562 0.0991096 0
M  V30 29041 H 2841.46 -1.83349 0.90799 0
M  V30 29042 H 2841.47 -4.07953 -0.0619264 0
M  V30 29043 H 2840.15 -4.01401 1.08856 0
M  V30 29044 H 2838.72 -3.66106 -0.70857 0
M  V30 29045 N 2840.91 -0.404973 -1.52308 0
M  V30 29046 C 2841.84 0.41372 -2.29806 0
M  V30 29047 C 2842.82 1.04978 -1.33842 0
M  V30 29048 O 2844 1.05958 -1.62747 0
M  V30 29049 C 2841.13 1.53287 -3.11641 0
M  V30 29050 C 2840.09 1.02203 -4.15618 0
M  V30 29051 C 2839.41 2.23446 -4.85774 0
M  V30 29052 C 2840.71 0.0789807 -5.2224 0
M  V30 29053 H 2842.41 -0.23293 -2.98493 0
M  V30 29054 H 2839.95 -0.113466 -1.43552 0
M  V30 29055 H 2841.91 2.11256 -3.64622 0
M  V30 29056 H 2840.63 2.20734 -2.40716 0
M  V30 29057 H 2839.29 0.464776 -3.63642 0
M  V30 29058 H 2838.94 2.89438 -4.11381 0
M  V30 29059 H 2838.64 1.8992 -5.56061 0
M  V30 29060 H 2840.16 2.82029 -5.41565 0
M  V30 29061 H 2841.58 0.567338 -5.70486 0
M  V30 29062 H 2839.97 -0.167272 -5.99867 0
M  V30 29063 H 2841.04 -0.867531 -4.77076 0
M  V30 29064 N 2842.39 1.57018 -0.135265 0
M  V30 29065 C 2843.35 2.14983 0.794669 0
M  V30 29066 C 2844.35 1.08868 1.1834 0
M  V30 29067 O 2845.54 1.34565 1.10625 0
M  V30 29068 C 2842.67 2.70336 2.0768 0
M  V30 29069 H 2843.86 2.98488 0.290644 0
M  V30 29070 H 2841.42 1.55883 0.114101 0
M  V30 29071 H 2842.15 1.90464 2.62476 0
M  V30 29072 H 2841.94 3.4796 1.80739 0
M  V30 29073 H 2843.43 3.15035 2.74122 0
M  V30 29074 N 2843.86 -0.138524 1.5699 0
M  V30 29075 C 2845.11 -0.850958 1.84083 0
M  V30 29076 C 2845.44 -1.80434 0.718139 0
M  V30 29077 O 2844.72 -1.92509 -0.277599 0
M  V30 29078 C 2845 -1.61802 3.21702 0
M  V30 29079 C 2844.85 -0.685555 4.44545 0
M  V30 29080 C 2846.17 -2.57862 3.56645 0
M  V30 29081 H 2843.29 -0.30791 0.669597 0
M  V30 29082 H 2845.93 -0.115846 1.89647 0
M  V30 29083 H 2844.08 -2.24469 3.1709 0
M  V30 29084 H 2845.76 -0.0692369 4.61248 0
M  V30 29085 H 2844 0.00429618 4.338 0
M  V30 29086 H 2844.67 -1.25849 5.37463 0
M  V30 29087 H 2847.15 -2.05309 3.61922 0
M  V30 29088 H 2846.02 -3.08576 4.53952 0
M  V30 29089 H 2846.28 -3.39617 2.83042 0
M  V30 29090 N 2845.34 -1.52224 -0.408133 0
M  V30 29091 C 2846.59 -1.66003 -1.15271 0
M  V30 29092 C 2846.91 -0.392837 -1.91002 0
M  V30 29093 O 2846.18 0.592303 -1.86731 0
M  V30 29094 H 2844.76 -0.611869 -0.428515 0
M  V30 29095 H 2847.42 -1.8927 -0.465087 0
M  V30 29096 H 2846.52 -2.50156 -1.86623 0
M  V30 29097 N 2846.82 0.665425 -1.42863 0
M  V30 29098 C 2848.07 1.42123 -1.43122 0
M  V30 29099 C 2848.38 1.95524 -0.054564 0
M  V30 29100 O 2849.59 2.71421 0.065427 0
M  V30 29101 C 2848.04 2.57145 -2.51802 0
M  V30 29102 C 2847.65 2.10404 -3.95517 0
M  V30 29103 C 2849.4 3.34596 -2.61239 0
M  V30 29104 C 2847.3 3.22565 -4.95687 0
M  V30 29105 H 2846.23 0.533957 -0.532359 0
M  V30 29106 H 2848.88 0.719476 -1.68807 0
M  V30 29107 H 2847.27 3.29734 -2.19298 0
M  V30 29108 H 2848.44 1.44907 -4.37423 0
M  V30 29109 H 2846.76 1.45867 -3.90015 0
M  V30 29110 H 2849.35 4.18145 -3.33255 0
M  V30 29111 H 2849.7 3.81814 -1.65903 0
M  V30 29112 H 2850.23 2.69082 -2.92984 0
M  V30 29113 H 2846.97 2.80328 -5.92534 0
M  V30 29114 H 2846.49 3.86813 -4.58406 0
M  V30 29115 H 2848.17 3.87887 -5.17834 0
M  V30 29116 N 2848.3 1.29191 0.902633 0
M  V30 29117 C 2849.58 1.07677 1.63295 0
M  V30 29118 C 2849.96 -0.3801 2.0765 0
M  V30 29119 O 2849.3 -1.36834 1.83 0
M  V30 29120 C 2849.51 2.06163 2.81599 0
M  V30 29121 C 2850.86 2.3692 3.52355 0
M  V30 29122 O 2851.89 2.04334 2.91763 0
M  V30 29123 O 2850.74 2.92584 4.61581 0
M  V30 29124 H 2847.84 0.412323 0.716881 0
M  V30 29125 H 2850.38 1.40552 0.950959 0
M  V30 29126 H 2849.16 3.04303 2.45998 0
M  V30 29127 H 2848.78 1.74 3.57505 0
M  V30 29128 N 2849.78 -1.1126 1.1162 0
M  V30 29129 C 2851.02 -1.83038 0.866212 0
M  V30 29130 C 2851.35 -1.84749 -0.608116 0
M  V30 29131 O 2850.61 -1.29748 -1.46506 0
M  V30 29132 C 2850.91 -3.29877 1.37534 0
M  V30 29133 C 2850.57 -3.48325 2.86323 0
M  V30 29134 C 2849.23 -3.53067 3.26951 0
M  V30 29135 C 2851.59 -3.54424 3.82142 0
M  V30 29136 C 2848.91 -3.61467 4.62124 0
M  V30 29137 C 2851.27 -3.64356 5.17134 0
M  V30 29138 C 2849.93 -3.67359 5.57318 0
M  V30 29139 H 2849.2 -0.669785 0.316969 0
M  V30 29140 H 2851.85 -1.31203 1.39492 0
M  V30 29141 H 2850.15 -3.84221 0.766909 0
M  V30 29142 H 2851.85 -3.83909 1.15824 0
M  V30 29143 H 2848.44 -3.45305 2.53895 0
M  V30 29144 H 2852.62 -3.50019 3.51853 0
M  V30 29145 H 2847.88 -3.6207 4.92661 0
M  V30 29146 H 2852.05 -3.68019 5.91215 0
M  V30 29147 H 2849.68 -3.7362 6.62051 0
M  V30 29148 N 2851.25 -0.906798 -1.28899 0
M  V30 29149 C 2852.2 -0.361148 -2.25122 0
M  V30 29150 C 2853.19 0.522803 -1.5217 0
M  V30 29151 O 2854.38 0.363661 -1.73224 0
M  V30 29152 C 2851.51 0.403922 -3.40915 0
M  V30 29153 C 2850.6 -0.495353 -4.21197 0
M  V30 29154 N 2850.99 -1.6058 -4.79633 0
M  V30 29155 C 2849.28 -0.29445 -4.45027 0
M  V30 29156 C 2849.99 -2.16341 -5.39973 0
M  V30 29157 N 2848.96 -1.45555 -5.23751 0
M  V30 29158 H 2852.76 -1.20932 -2.67867 0
M  V30 29159 H 2850.28 -0.758657 -1.4359 0
M  V30 29160 H 2852.27 0.811623 -4.08923 0
M  V30 29161 H 2850.93 1.24927 -2.99706 0
M  V30 29162 H 2851.95 -1.98847 -4.78205 0
M  V30 29163 H 2848.62 0.511948 -4.14349 0
M  V30 29164 H 2850.01 -3.09714 -5.96261 0
M  V30 29165 N 2852.73 1.42648 -0.670032 0
M  V30 29166 C 2853.7 2.292 0.00200631 0
M  V30 29167 C 2854.7 1.43081 0.733792 0
M  V30 29168 O 2855.89 1.64523 0.572511 0
M  V30 29169 C 2853.02 3.25485 1.01353 0
M  V30 29170 H 2854.21 2.90117 -0.759747 0
M  V30 29171 H 2851.76 1.50208 -0.432131 0
M  V30 29172 H 2852.5 2.69497 1.80394 0
M  V30 29173 H 2852.28 3.88998 0.492255 0
M  V30 29174 H 2853.77 3.90406 1.48233 0
M  V30 29175 N 2854.21 0.413044 1.52091 0
M  V30 29176 C 2855.12 -0.417277 2.30859 0
M  V30 29177 C 2856.14 -1.05 1.38748 0
M  V30 29178 O 2857.31 -1.05066 1.71823 0
M  V30 29179 C 2854.38 -1.51682 3.11759 0
M  V30 29180 C 2853.44 -0.906751 4.19615 0
M  V30 29181 C 2852.67 -1.9539 4.96647 0
M  V30 29182 O 2852.9 -3.17263 4.74026 0
M  V30 29183 O 2851.83 -1.55795 5.81388 0
M  V30 29184 H 2855.66 0.225081 3.02865 0
M  V30 29185 H 2853.24 0.176152 1.48358 0
M  V30 29186 H 2855.12 -2.15506 3.62126 0
M  V30 29187 H 2853.8 -2.14371 2.42543 0
M  V30 29188 H 2852.7 -0.231118 3.73385 0
M  V30 29189 H 2854.04 -0.323727 4.91134 0
M  V30 29190 N 2855.69 -1.56945 0.143591 0
M  V30 29191 C 2856.64 -2.17872 -0.814517 0
M  V30 29192 C 2857.63 -1.13476 -1.25776 0
M  V30 29193 O 2858.84 -1.31733 -1.22664 0
M  V30 29194 H 2855.21 -0.697583 -0.28086 0
M  V30 29195 H 2857.18 -2.97117 -0.276407 0
M  V30 29196 C 2855.93 -2.81204 -2.04498 0
M  V30 29197 H 2855.26 -3.61248 -1.71289 0
M  V30 29198 H 2856.7 -3.27342 -2.69487 0
M  V30 29199 C 2855.15 -1.79537 -2.85076 0
M  V30 29200 O 2855.68 -1.26374 -3.81304 0
M  V30 29201 N 2853.89 -1.48918 -2.49543 0
M  V30 29202 H 2853.44 -1.92341 -1.71356 0
M  V30 29203 H 2853.4 -0.811401 -3.03749 0
M  V30 29204 N 2857.17 0.130197 -1.57061 0
M  V30 29205 C 2858.44 0.8696 -1.75206 0
M  V30 29206 C 2858.82 1.98583 -0.716098 0
M  V30 29207 O 2858.17 2.26993 0.261992 0
M  V30 29208 C 2858.38 1.39661 -3.19837 0
M  V30 29209 C 2859.73 1.85338 -3.82014 0
M  V30 29210 O 2860.75 1.49365 -3.23371 0
M  V30 29211 O 2859.61 2.51735 -4.85069 0
M  V30 29212 H 2856.71 0.412144 -0.716984 0
M  V30 29213 H 2859.25 0.11481 -1.69311 0
M  V30 29214 H 2858.03 0.59522 -3.86746 0
M  V30 29215 H 2857.65 2.21442 -3.30226 0
M  V30 29216 N 2858.65 1.52438 0.400055 0
M  V30 29217 C 2859.87 1.70803 1.16765 0
M  V30 29218 C 2860.29 0.421494 1.84035 0
M  V30 29219 O 2859.65 -0.603198 1.72243 0
M  V30 29220 C 2859.7 2.84994 2.22398 0
M  V30 29221 O 2859.42 4.08666 1.57872 0
M  V30 29222 C 2860.92 3.14945 3.11969 0
M  V30 29223 H 2858.14 0.572167 0.350523 0
M  V30 29224 H 2860.68 1.99038 0.469499 0
M  V30 29225 H 2858.84 2.59252 2.87866 0
M  V30 29226 H 2859.25 4.72364 2.27974 0
M  V30 29227 H 2860.73 3.98337 3.82141 0
M  V30 29228 H 2861.2 2.2887 3.74854 0
M  V30 29229 H 2861.81 3.42485 2.52159 0
M  V30 29230 N 2860.12 -0.657839 1.43214 0
M  V30 29231 C 2861.37 -1.41362 1.43874 0
M  V30 29232 C 2861.69 -1.95492 0.0649324 0
M  V30 29233 O 2862.89 -2.71452 -0.0510319 0
M  V30 29234 C 2861.35 -2.55806 2.53162 0
M  V30 29235 C 2860.96 -2.08304 3.96628 0
M  V30 29236 C 2862.7 -3.33206 2.6301 0
M  V30 29237 C 2860.61 -3.19932 4.97391 0
M  V30 29238 H 2859.54 -0.531126 0.535183 0
M  V30 29239 H 2862.19 -0.710514 1.69186 0
M  V30 29240 H 2860.57 -3.28566 2.21043 0
M  V30 29241 H 2861.74 -1.42585 4.38185 0
M  V30 29242 H 2860.06 -1.43797 3.90783 0
M  V30 29243 H 2862.66 -4.16372 3.35468 0
M  V30 29244 H 2863 -3.80929 1.67925 0
M  V30 29245 H 2863.53 -2.67524 2.94407 0
M  V30 29246 H 2860.27 -2.77182 5.94012 0
M  V30 29247 H 2859.79 -3.84377 4.6045 0
M  V30 29248 H 2861.47 -3.85136 5.19884 0
M  V30 29249 N 2861.6 -1.29668 -0.895769 0
M  V30 29250 C 2862.83 -1.20589 -1.67755 0
M  V30 29251 C 2863.24 0.235399 -1.8773 0
M  V30 29252 O 2862.58 1.16895 -1.41708 0
M  V30 29253 C 2862.64 -1.8522 -3.08113 0
M  V30 29254 C 2862.31 -3.34526 -3.11354 0
M  V30 29255 C 2863.31 -4.30689 -2.91209 0
M  V30 29256 C 2860.99 -3.75792 -3.33295 0
M  V30 29257 C 2862.98 -5.66094 -2.92945 0
M  V30 29258 C 2860.67 -5.11317 -3.34661 0
M  V30 29259 C 2861.67 -6.06278 -3.14509 0
M  V30 29260 O 2861.36 -7.39329 -3.15671 0
M  V30 29261 H 2861.09 -0.418863 -0.530594 0
M  V30 29262 H 2863.64 -1.71636 -1.12828 0
M  V30 29263 H 2861.87 -1.28689 -3.64659 0
M  V30 29264 H 2863.56 -1.70409 -3.68396 0
M  V30 29265 H 2864.33 -4.00141 -2.74067 0
M  V30 29266 H 2860.21 -3.0233 -3.4802 0
M  V30 29267 H 2863.75 -6.4019 -2.77134 0
M  V30 29268 H 2859.65 -5.4151 -3.51336 0
M  V30 29269 H 2860.42 -7.48183 -3.3191 0
M  V30 29270 N 2863.08 1.10667 -1.12208 0
M  V30 29271 C 2864.33 1.83034 -0.887128 0
M  V30 29272 C 2864.68 1.83423 0.580855 0
M  V30 29273 O 2863.97 1.28216 1.42377 0
M  V30 29274 C 2864.17 3.29143 -1.39282 0
M  V30 29275 C 2864 3.42987 -2.90843 0
M  V30 29276 C 2862.77 3.5554 -3.59054 0
M  V30 29277 C 2864.96 3.36594 -3.88856 0
M  V30 29278 N 2862.95 3.57936 -4.98753 0
M  V30 29279 C 2864.32 3.45706 -5.14672 0
M  V30 29280 C 2866.37 3.20177 -3.81302 0
M  V30 29281 C 2865.08 3.40095 -6.3382 0
M  V30 29282 C 2867.1 3.15886 -4.9997 0
M  V30 29283 C 2866.46 3.25578 -6.24643 0
M  V30 29284 H 2862.56 0.684645 -0.377869 0
M  V30 29285 H 2865.15 1.32356 -1.42794 0
M  V30 29286 H 2863.32 3.78321 -0.879092 0
M  V30 29287 H 2865.05 3.89459 -1.10018 0
M  V30 29288 H 2861.8 3.58444 -3.09539 0
M  V30 29289 H 2862.23 3.62752 -5.71612 0
M  V30 29290 H 2866.87 3.11564 -2.85811 0
M  V30 29291 H 2864.59 3.47474 -7.2958 0
M  V30 29292 H 2868.17 3.04338 -4.95852 0
M  V30 29293 H 2867.05 3.22256 -7.14927 0
M  V30 29294 N 2864.56 0.913621 1.28416 0
M  V30 29295 C 2865.8 0.547518 1.95269 0
M  V30 29296 C 2866.14 -0.906456 1.71747 0
M  V30 29297 O 2865.41 -1.64463 1.03837 0
M  V30 29298 C 2865.69 0.857267 3.49747 0
M  V30 29299 C 2865.55 2.36396 3.82671 0
M  V30 29300 C 2866.87 0.353335 4.38679 0
M  V30 29301 H 2863.99 0.200394 0.709233 0
M  V30 29302 H 2866.63 1.14284 1.51786 0
M  V30 29303 H 2864.78 0.350616 3.86915 0
M  V30 29304 H 2866.45 2.94122 3.55373 0
M  V30 29305 H 2864.69 2.819 3.29719 0
M  V30 29306 H 2865.36 2.53124 4.90543 0
M  V30 29307 H 2867.84 0.78736 4.08583 0
M  V30 29308 H 2866.72 0.599144 5.4562 0
M  V30 29309 H 2866.98 -0.746336 4.35755 0
M  V30 29310 N 2866.04 -1.4229 0.677588 0
M  V30 29311 C 2867.31 -1.95169 0.129837 0
M  V30 29312 C 2867.69 -1.61788 -1.35602 0
M  V30 29313 O 2867.04 -0.915481 -2.09359 0
M  V30 29314 C 2867.25 -3.46678 0.401949 0
M  V30 29315 C 2868.6 -4.23393 0.319963 0
M  V30 29316 O 2869.62 -3.54613 0.335853 0
M  V30 29317 O 2868.48 -5.45859 0.264555 0
M  V30 29318 H 2865.58 -0.826988 0.00448886 0
M  V30 29319 H 2868.12 -1.52103 0.75251 0
M  V30 29320 H 2866.89 -3.6419 1.43114 0
M  V30 29321 H 2866.52 -3.96797 -0.252592 0
M  V30 29322 N 2867.51 -0.421104 -1.5187 0
M  V30 29323 C 2868.45 0.44333 -2.23852 0
M  V30 29324 C 2869.42 1.03816 -1.25144 0
M  V30 29325 O 2870.61 1.08374 -1.54231 0
M  V30 29326 C 2867.74 1.61643 -2.9764 0
M  V30 29327 C 2866.78 1.14384 -4.10875 0
M  V30 29328 S 2867.61 0.0991462 -5.35408 0
M  V30 29329 C 2868.77 1.27729 -6.12728 0
M  V30 29330 H 2869 -0.167838 -2.96826 0
M  V30 29331 H 2866.54 -0.205488 -1.53026 0
M  V30 29332 H 2868.49 2.28903 -3.40755 0
M  V30 29333 H 2867.16 2.19897 -2.24286 0
M  V30 29334 H 2866.35 2.02061 -4.61722 0
M  V30 29335 H 2865.95 0.54971 -3.69938 0
M  V30 29336 H 2868.24 2.1987 -6.4083 0
M  V30 29337 H 2869.19 0.809115 -7.03462 0
M  V30 29338 H 2869.59 1.5085 -5.43971 0
M  V30 29339 N 2868.99 1.56866 -0.151912 0
M  V30 29340 C 2870.24 1.95894 0.496986 0
M  V30 29341 C 2870.56 1.03802 1.65076 0
M  V30 29342 O 2869.83 0.100525 1.95642 0
M  V30 29343 H 2868.41 0.723321 0.18659 0
M  V30 29344 H 2871.07 1.93555 -0.228559 0
M  V30 29345 H 2870.17 2.99732 0.86988 0
M  V30 29346 N 2870.47 -0.121866 1.57128 0
M  V30 29347 C 2871.4 -1.15089 2.03167 0
M  V30 29348 C 2872.38 -1.43355 0.915612 0
M  V30 29349 O 2873.57 -1.53845 1.18513 0
M  V30 29350 C 2870.7 -2.4778 2.43357 0
M  V30 29351 C 2869.65 -2.33982 3.5838 0
M  V30 29352 C 2868.98 -3.7161 3.84461 0
M  V30 29353 C 2870.28 -1.80274 4.90203 0
M  V30 29354 H 2871.97 -0.767972 2.89383 0
M  V30 29355 H 2869.52 -0.367973 1.39219 0
M  V30 29356 H 2871.47 -3.20015 2.74169 0
M  V30 29357 H 2870.19 -2.87955 1.54108 0
M  V30 29358 H 2868.85 -1.64196 3.27773 0
M  V30 29359 H 2868.5 -4.09266 2.92422 0
M  V30 29360 H 2868.2 -3.63232 4.61883 0
M  V30 29361 H 2869.72 -4.45354 4.17722 0
M  V30 29362 H 2871.14 -2.42324 5.19569 0
M  V30 29363 H 2869.54 -1.82725 5.71605 0
M  V30 29364 H 2870.61 -0.7601 4.78906 0
M  V30 29365 N 2871.95 -1.52648 -0.391965 0
M  V30 29366 C 2873.17 -1.71718 -1.16309 0
M  V30 29367 C 2873.6 -0.433311 -1.83041 0
M  V30 29368 O 2872.96 0.610677 -1.70706 0
M  V30 29369 C 2873 -2.86555 -2.18903 0
M  V30 29370 O 2872.11 -2.53321 -3.25426 0
M  V30 29371 H 2871.45 -0.571101 -0.338733 0
M  V30 29372 H 2873.98 -1.99427 -0.457167 0
M  V30 29373 H 2873.99 -3.11964 -2.62949 0
M  V30 29374 H 2872.66 -3.79695 -1.69719 0
M  V30 29375 H 2871.24 -2.38642 -2.86539 0
M  V30 29376 N 2873.43 0.650235 -1.43561 0
M  V30 29377 C 2874.65 1.43776 -1.48782 0
M  V30 29378 C 2875.07 1.88499 -0.106626 0
M  V30 29379 O 2874.43 1.59676 0.883738 0
M  V30 29380 C 2874.48 2.67077 -2.43623 0
M  V30 29381 O 2874.2 2.24224 -3.76371 0
M  V30 29382 C 2875.7 3.60404 -2.58116 0
M  V30 29383 H 2872.92 0.441584 -0.505217 0
M  V30 29384 H 2875.46 0.796908 -1.88334 0
M  V30 29385 H 2873.62 3.27296 -2.07258 0
M  V30 29386 H 2874.03 3.04023 -4.274 0
M  V30 29387 H 2875.51 4.43578 -3.28547 0
M  V30 29388 H 2875.98 4.0795 -1.62707 0
M  V30 29389 H 2876.59 3.06065 -2.95304 0
M  V30 29390 N 2874.9 1.30141 0.88888 0
M  V30 29391 C 2876.15 1.18106 1.63505 0
M  V30 29392 C 2876.47 -0.264107 1.93809 0
M  V30 29393 O 2877.67 -0.505919 2.66745 0
M  V30 29394 C 2876.13 2.06636 2.94669 0
M  V30 29395 C 2875.74 3.56039 2.7192 0
M  V30 29396 C 2877.48 2.03353 3.72623 0
M  V30 29397 C 2875.39 4.36637 3.98876 0
M  V30 29398 H 2874.32 0.438445 0.613418 0
M  V30 29399 H 2876.97 1.54861 0.9844 0
M  V30 29400 H 2875.35 1.6276 3.61006 0
M  V30 29401 H 2876.52 4.08037 2.14109 0
M  V30 29402 H 2874.84 3.61104 2.07347 0
M  V30 29403 H 2877.44 2.60824 4.66771 0
M  V30 29404 H 2877.78 1.01607 4.0371 0
M  V30 29405 H 2878.31 2.45329 3.13143 0
M  V30 29406 H 2875.05 5.39063 3.7295 0
M  V30 29407 H 2874.57 3.89404 4.56207 0
M  V30 29408 H 2876.25 4.47867 4.66931 0
M  V30 29409 N 2876.38 -1.1007 1.12794 0
M  V30 29410 C 2877.61 -1.86425 0.90887 0
M  V30 29411 C 2878.03 -1.80279 -0.536761 0
M  V30 29412 O 2877.39 -1.17546 -1.38031 0
M  V30 29413 C 2877.44 -3.32608 1.393 0
M  V30 29414 O 2876.54 -4.08387 0.573918 0
M  V30 29415 H 2875.88 -0.578326 0.326245 0
M  V30 29416 H 2878.41 -1.3904 1.50097 0
M  V30 29417 H 2878.42 -3.83457 1.39373 0
M  V30 29418 H 2877.1 -3.36397 2.44561 0
M  V30 29419 H 2875.68 -3.67358 0.640503 0
M  V30 29420 N 2877.86 -0.920419 -1.2793 0
M  V30 29421 C 2879.28 -0.619563 -1.47084 0
M  V30 29422 C 2879.48 0.833258 -1.83464 0
M  V30 29423 O 2878.53 1.61178 -1.94365 0
M  V30 29424 C 2879.85 -1.56319 -2.56875 0
M  V30 29425 C 2881.39 -1.57062 -2.7074 0
M  V30 29426 C 2881.87 -2.50104 -3.83682 0
M  V30 29427 N 2883.36 -2.48269 -3.91046 0
M  V30 29428 C 2884.09 -3.16954 -4.77837 0
M  V30 29429 N 2883.59 -3.94992 -5.69169 0
M  V30 29430 N 2885.38 -3.06008 -4.71504 0
M  V30 29431 H 2877.53 -1.85977 -1.02597 0
M  V30 29432 H 2879.8 -0.79806 -0.511668 0
M  V30 29433 H 2879.5 -2.59928 -2.36919 0
M  V30 29434 H 2879.38 -1.29934 -3.54114 0
M  V30 29435 H 2881.76 -0.541883 -2.90082 0
M  V30 29436 H 2881.85 -1.87493 -1.74011 0
M  V30 29437 H 2881.49 -3.53084 -3.65095 0
M  V30 29438 H 2881.42 -2.16972 -4.79824 0
M  V30 29439 H 2883.91 -1.91587 -3.25734 0
M  V30 29440 H 2884.22 -4.44405 -6.32238 0
M  V30 29441 H 2882.57 -3.99096 -5.68988 0
M  V30 29442 H 2885.76 -2.4454 -3.99146 0
M  V30 29443 H 2885.93 -3.59808 -5.38927 0
M  V30 29444 N 2879.34 1.41929 -0.685124 0
M  V30 29445 C 2880.3 2.29189 -0.0223035 0
M  V30 29446 C 2881.3 1.43851 0.718575 0
M  V30 29447 O 2882.49 1.65121 0.555029 0
M  V30 29448 C 2879.62 3.26541 0.978955 0
M  V30 29449 H 2880.82 2.89295 -0.790475 0
M  V30 29450 H 2878.37 1.49741 -0.448038 0
M  V30 29451 H 2879.1 2.71395 1.77526 0
M  V30 29452 H 2878.89 3.89498 0.450969 0
M  V30 29453 H 2880.38 3.91956 1.44084 0
M  V30 29454 N 2880.82 0.429152 1.51644 0
M  V30 29455 C 2881.76 -0.386406 2.27542 0
M  V30 29456 C 2882.73 -1.02391 1.30788 0
M  V30 29457 O 2883.92 -1.04437 1.59679 0
M  V30 29458 C 2881.06 -1.48617 3.11459 0
M  V30 29459 C 2880.17 -0.867617 4.23198 0
M  V30 29460 C 2879.31 -1.94175 4.94439 0
M  V30 29461 C 2878.35 -1.30119 5.9811 0
M  V30 29462 N 2877.48 -2.31633 6.6279 0
M  V30 29463 H 2882.32 0.267207 2.968 0
M  V30 29464 H 2879.86 0.143616 1.46397 0
M  V30 29465 H 2881.82 -2.13499 3.58433 0
M  V30 29466 H 2880.45 -2.10953 2.44333 0
M  V30 29467 H 2879.5 -0.107306 3.80249 0
M  V30 29468 H 2880.81 -0.359883 4.975 0
M  V30 29469 H 2879.97 -2.66738 5.44918 0
M  V30 29470 H 2878.7 -2.48319 4.19749 0
M  V30 29471 H 2877.71 -0.560986 5.46931 0
M  V30 29472 H 2878.93 -0.767185 6.74753 0
M  V30 29473 H 2876.88 -2.84872 5.90918 0
M  V30 29474 H 2876.8 -1.85728 7.32831 0
M  V30 29475 H 2878.07 -3.03704 7.17903 0
M  V30 29476 N 2882.29 -1.56783 0.160229 0
M  V30 29477 C 2883.71 -1.58391 -0.196061 0
M  V30 29478 C 2883.91 -1.17511 -1.63687 0
M  V30 29479 O 2882.97 -0.881548 -2.36611 0
M  V30 29480 C 2884.28 -3.00607 0.0746977 0
M  V30 29481 C 2885.83 -3.12998 0.0120312 0
M  V30 29482 C 2886.3 -4.57286 0.255632 0
M  V30 29483 N 2887.79 -4.62755 0.20302 0
M  V30 29484 C 2888.53 -5.72232 0.365832 0
M  V30 29485 N 2888.02 -6.90308 0.587093 0
M  V30 29486 N 2889.82 -5.61285 0.30251 0
M  V30 29487 H 2881.97 -1.81646 1.10084 0
M  V30 29488 H 2884.23 -0.841377 0.436794 0
M  V30 29489 H 2883.94 -3.34952 1.07237 0
M  V30 29490 H 2883.81 -3.71753 -0.638736 0
M  V30 29491 H 2886.2 -2.78486 -0.976205 0
M  V30 29492 H 2886.28 -2.44311 0.758003 0
M  V30 29493 H 2885.92 -4.92505 1.24103 0
M  V30 29494 H 2885.85 -5.24117 -0.51082 0
M  V30 29495 H 2888.34 -3.77882 0.0371993 0
M  V30 29496 H 2888.66 -7.69613 0.701076 0
M  V30 29497 H 2887 -6.92197 0.623575 0
M  V30 29498 H 2890.19 -4.67919 0.13032 0
M  V30 29499 H 2890.37 -6.46553 0.432826 0
M  V30 29500 N 2883.77 0.113531 -1.57191 0
M  V30 29501 C 2885.05 0.850968 -1.76119 0
M  V30 29502 C 2885.43 1.97812 -0.73712 0
M  V30 29503 O 2884.78 2.27258 0.237902 0
M  V30 29504 C 2884.99 1.3626 -3.21301 0
M  V30 29505 C 2886.34 1.81276 -3.83958 0
M  V30 29506 O 2887.36 1.45927 -3.24937 0
M  V30 29507 O 2886.22 2.46576 -4.87711 0
M  V30 29508 H 2883.31 0.404516 -0.721315 0
M  V30 29509 H 2885.86 0.0968458 -1.69423 0
M  V30 29510 H 2884.63 0.554167 -3.87356 0
M  V30 29511 H 2884.25 2.17928 -3.32556 0
M  V30 29512 N 2885.25 1.52854 0.383864 0
M  V30 29513 C 2886.18 1.74257 1.48886 0
M  V30 29514 C 2887.2 0.623089 1.50404 0
M  V30 29515 O 2888.39 0.898914 1.54213 0
M  V30 29516 C 2885.49 1.79086 2.87718 0
M  V30 29517 C 2884.66 3.08469 3.10106 0
M  V30 29518 C 2883.72 3.04778 4.28949 0
M  V30 29519 O 2882.74 3.78628 4.25005 0
M  V30 29520 N 2883.95 2.2432 5.35407 0
M  V30 29521 H 2886.71 2.69597 1.3091 0
M  V30 29522 H 2884.27 1.51405 0.573427 0
M  V30 29523 H 2886.26 1.74116 3.6533 0
M  V30 29524 H 2884.83 0.911104 2.99028 0
M  V30 29525 H 2884.05 3.26888 2.20313 0
M  V30 29526 H 2885.34 3.9401 3.21921 0
M  V30 29527 H 2884.74 1.63796 5.41468 0
M  V30 29528 H 2883.3 2.25185 6.11666 0
M  V30 29529 N 2886.73 -0.642612 1.43904 0
M  V30 29530 C 2887.96 -1.42985 1.49542 0
M  V30 29531 C 2888.37 -1.88439 0.116621 0
M  V30 29532 O 2887.73 -1.60142 -0.875257 0
M  V30 29533 C 2887.78 -2.65781 2.45036 0
M  V30 29534 O 2887.5 -2.22225 3.77555 0
M  V30 29535 C 2889 -3.5903 2.60024 0
M  V30 29536 H 2886.22 -0.438899 0.507552 0
M  V30 29537 H 2888.77 -0.786909 1.88754 0
M  V30 29538 H 2886.92 -3.26192 2.08991 0
M  V30 29539 H 2887.34 -3.01752 4.29006 0
M  V30 29540 H 2888.81 -4.41829 3.30894 0
M  V30 29541 H 2889.29 -4.07081 1.64868 0
M  V30 29542 H 2889.89 -3.04495 2.96923 0
M  V30 29543 N 2888.21 -1.30611 -0.881966 0
M  V30 29544 C 2889.45 -1.20794 -1.63647 0
M  V30 29545 C 2889.81 0.234403 -1.90967 0
M  V30 29546 O 2889.1 1.16431 -1.52165 0
M  V30 29547 C 2889.3 -1.97316 -2.97995 0
M  V30 29548 C 2889.12 -3.48844 -2.83792 0
M  V30 29549 C 2887.89 -4.182 -2.83614 0
M  V30 29550 C 2890.09 -4.44019 -2.59521 0
M  V30 29551 N 2888.07 -5.55967 -2.60334 0
M  V30 29552 C 2889.45 -5.69371 -2.45391 0
M  V30 29553 C 2891.5 -4.33581 -2.4477 0
M  V30 29554 C 2890.2 -6.85466 -2.18011 0
M  V30 29555 C 2892.23 -5.49446 -2.18775 0
M  V30 29556 C 2891.59 -6.73781 -2.05424 0
M  V30 29557 H 2887.69 -0.497088 -0.603679 0
M  V30 29558 H 2890.27 -1.64657 -1.03905 0
M  V30 29559 H 2888.45 -1.5584 -3.55765 0
M  V30 29560 H 2890.18 -1.79617 -3.62657 0
M  V30 29561 H 2886.93 -3.70059 -2.95556 0
M  V30 29562 H 2887.36 -6.28472 -2.51698 0
M  V30 29563 H 2892 -3.38131 -2.53825 0
M  V30 29564 H 2889.72 -7.80954 -2.07693 0
M  V30 29565 H 2893.3 -5.4328 -2.08179 0
M  V30 29566 H 2892.18 -7.61922 -1.85592 0
M  V30 29567 N 2889.69 1.0947 -1.13376 0
M  V30 29568 C 2891.1 1.33681 -0.87187 0
M  V30 29569 C 2891.3 1.95381 0.492812 0
M  V30 29570 O 2890.36 2.19988 1.23943 0
M  V30 29571 C 2891.67 2.2489 -1.99612 0
M  V30 29572 C 2893.22 2.384 -2.02816 0
M  V30 29573 C 2893.69 3.32945 -3.14503 0
M  V30 29574 N 2895.18 3.40517 -3.1401 0
M  V30 29575 C 2895.92 4.13672 -3.97068 0
M  V30 29576 N 2895.42 4.89627 -4.9014 0
M  V30 29577 N 2897.21 4.09392 -3.85169 0
M  V30 29578 H 2889.36 0.677959 -2.0129 0
M  V30 29579 H 2891.62 0.361185 -0.876498 0
M  V30 29580 H 2891.33 1.86781 -2.98003 0
M  V30 29581 H 2891.2 3.25275 -1.90987 0
M  V30 29582 H 2893.59 2.75773 -1.05038 0
M  V30 29583 H 2893.67 1.37795 -2.15513 0
M  V30 29584 H 2893.31 2.96295 -4.12519 0
M  V30 29585 H 2893.24 4.33452 -2.99043 0
M  V30 29586 H 2895.74 2.86358 -2.46592 0
M  V30 29587 H 2896.05 5.42876 -5.50005 0
M  V30 29588 H 2894.39 4.88717 -4.94146 0
M  V30 29589 H 2897.58 3.49153 -3.11785 0
M  V30 29590 H 2897.76 4.66143 -4.50128 0
M  V30 29591 N 2891.16 0.92719 1.2744 0
M  V30 29592 C 2892.07 0.431488 2.30598 0
M  V30 29593 C 2893.09 -0.48758 1.67029 0
M  V30 29594 O 2894.27 -0.370512 1.97963 0
M  V30 29595 C 2891.33 -0.308231 3.45327 0
M  V30 29596 C 2890.39 0.64569 4.24416 0
M  V30 29597 C 2889.62 -0.0588226 5.33668 0
M  V30 29598 O 2889.85 -1.27828 5.55892 0
M  V30 29599 O 2888.78 0.612743 5.98773 0
M  V30 29600 H 2892.61 1.28802 2.75034 0
M  V30 29601 H 2890.19 0.692518 1.3238 0
M  V30 29602 H 2892.07 -0.725482 4.15108 0
M  V30 29603 H 2890.75 -1.14038 3.02947 0
M  V30 29604 H 2889.66 1.11261 3.57172 0
M  V30 29605 H 2890.99 1.44504 4.7051 0
M  V30 29606 N 2892.64 -1.41564 0.692641 0
M  V30 29607 C 2893.92 -1.9502 0.15053 0
M  V30 29608 C 2894.3 -1.63217 -1.33878 0
M  V30 29609 O 2893.65 -0.937635 -2.08376 0
M  V30 29610 C 2893.86 -3.46232 0.438697 0
M  V30 29611 C 2895.2 -4.2303 0.364852 0
M  V30 29612 O 2896.23 -3.54237 0.373445 0
M  V30 29613 O 2895.09 -5.45548 0.322436 0
M  V30 29614 H 2892.18 -0.826894 0.0132599 0
M  V30 29615 H 2894.73 -1.51296 0.7686 0
M  V30 29616 H 2893.5 -3.62651 1.46969 0
M  V30 29617 H 2893.12 -3.97042 -0.210493 0
M  V30 29618 N 2894.12 -0.437188 -1.51415 0
M  V30 29619 C 2895.37 0.12952 -2.02386 0
M  V30 29620 C 2895.7 1.42373 -1.32074 0
M  V30 29621 O 2894.97 1.89559 -0.435624 0
M  V30 29622 C 2895.26 0.348424 -3.5841 0
M  V30 29623 C 2895.11 -0.96443 -4.39339 0
M  V30 29624 C 2896.43 1.11826 -4.25656 0
M  V30 29625 H 2893.55 0.045598 -0.735588 0
M  V30 29626 H 2896.19 -0.576156 -1.81054 0
M  V30 29627 H 2894.34 0.949525 -3.76718 0
M  V30 29628 H 2896.01 -1.5995 -4.32682 0
M  V30 29629 H 2894.25 -1.56905 -4.04429 0
M  V30 29630 H 2894.93 -0.765308 -5.46669 0
M  V30 29631 H 2897.4 0.609093 -4.11618 0
M  V30 29632 H 2896.28 1.24019 -5.34706 0
M  V30 29633 H 2896.54 2.1463 -3.86506 0
M  V30 29634 N 2895.6 1.56696 -0.168541 0
M  V30 29635 C 2896.84 1.9709 0.47783 0
M  V30 29636 C 2897.18 1.0544 1.63083 0
M  V30 29637 O 2896.45 0.100985 1.94238 0
M  V30 29638 C 2896.73 3.46972 0.96346 0
M  V30 29639 C 2896.59 4.49401 -0.189522 0
M  V30 29640 C 2897.91 3.99879 1.83806 0
M  V30 29641 H 2895.03 0.716596 0.172217 0
M  V30 29642 H 2897.67 1.88293 -0.254116 0
M  V30 29643 H 2895.82 3.546 1.58717 0
M  V30 29644 H 2897.49 4.53835 -0.826531 0
M  V30 29645 H 2895.73 4.25482 -0.845441 0
M  V30 29646 H 2896.4 5.51665 0.192349 0
M  V30 29647 H 2898.88 3.94865 1.31228 0
M  V30 29648 H 2897.76 5.05173 2.14688 0
M  V30 29649 H 2898.02 3.43528 2.78282 0
M  V30 29650 N 2897.08 -0.105193 1.57249 0
M  V30 29651 C 2898.3 -0.824337 1.89769 0
M  V30 29652 C 2898.72 -1.72774 0.761222 0
M  V30 29653 O 2898.08 -1.80532 -0.26731 0
M  V30 29654 C 2898.13 -1.64619 3.21843 0
M  V30 29655 O 2897.85 -0.779141 4.31116 0
M  V30 29656 C 2899.35 -2.46928 3.68159 0
M  V30 29657 H 2896.57 -0.236248 0.628035 0
M  V30 29658 H 2899.11 -0.0854491 2.04321 0
M  V30 29659 H 2897.27 -2.33769 3.08919 0
M  V30 29660 H 2897.68 -1.34736 5.06899 0
M  V30 29661 H 2899.16 -3.00103 4.63295 0
M  V30 29662 H 2899.63 -3.24927 2.95498 0
M  V30 29663 H 2900.24 -1.82996 3.83918 0
M  V30 29664 N 2898.55 -1.53055 -0.375752 0
M  V30 29665 C 2899.5 -1.7943 -1.48012 0
M  V30 29666 C 2900.5 -0.662881 -1.55892 0
M  V30 29667 O 2901.7 -0.845627 -1.589 0
M  V30 29668 H 2898.08 -0.567958 -0.492877 0
M  V30 29669 H 2900.05 -2.71886 -1.22966 0
M  V30 29670 C 2898.8 -1.99202 -2.8498 0
M  V30 29671 H 2898.12 -2.85698 -2.79672 0
M  V30 29672 H 2899.56 -2.2164 -3.61458 0
M  V30 29673 C 2898.02 -0.76824 -3.28024 0
M  V30 29674 O 2898.55 0.0479776 -4.01671 0
M  V30 29675 N 2896.76 -0.594571 -2.84452 0
M  V30 29676 H 2896.3 -1.25992 -2.24686 0
M  V30 29677 H 2896.26 0.222861 -3.13609 0
M  V30 29678 N 2900.03 0.634971 -1.44242 0
M  V30 29679 C 2901.28 1.39185 -1.46533 0
M  V30 29680 C 2901.6 1.94755 -0.0976783 0
M  V30 29681 O 2900.87 1.75546 0.869497 0
M  V30 29682 H 2899.45 0.516615 -0.539553 0
M  V30 29683 H 2902.11 0.747623 -1.79991 0
M  V30 29684 H 2901.21 2.22509 -2.18852 0
M  V30 29685 N 2901.51 1.31076 0.875027 0
M  V30 29686 C 2902.76 1.19834 1.62243 0
M  V30 29687 C 2903.07 -0.243536 1.94078 0
M  V30 29688 O 2904.28 -0.477599 2.67266 0
M  V30 29689 C 2902.73 2.09749 2.92461 0
M  V30 29690 C 2902.34 3.58903 2.68128 0
M  V30 29691 C 2904.09 2.07294 3.70445 0
M  V30 29692 C 2901.99 4.40843 3.94223 0
M  V30 29693 H 2900.92 0.444927 0.608733 0
M  V30 29694 H 2903.57 1.55896 0.96792 0
M  V30 29695 H 2901.96 1.6658 3.59259 0
M  V30 29696 H 2903.13 4.10285 2.09769 0
M  V30 29697 H 2901.45 3.63283 2.03505 0
M  V30 29698 H 2904.04 2.6576 4.63978 0
M  V30 29699 H 2904.39 1.05883 4.0261 0
M  V30 29700 H 2904.92 2.48637 3.10523 0
M  V30 29701 H 2901.66 5.42988 3.67211 0
M  V30 29702 H 2901.18 3.94221 4.52051 0
M  V30 29703 H 2902.86 4.52794 4.62154 0
M  V30 29704 N 2902.99 -1.08867 1.13955 0
M  V30 29705 C 2904.24 -1.80802 0.903055 0
M  V30 29706 C 2904.56 -1.86418 -0.572118 0
M  V30 29707 O 2903.83 -1.35388 -1.41587 0
M  V30 29708 H 2902.41 -0.669608 0.33111 0
M  V30 29709 H 2905.07 -1.31645 1.43721 0
M  V30 29710 H 2904.17 -2.83789 1.29885 0
M  V30 29711 N 2904.47 -0.933936 -1.26946 0
M  V30 29712 C 2905.88 -0.635128 -1.46418 0
M  V30 29713 C 2906.08 0.813753 -1.84338 0
M  V30 29714 O 2905.14 1.59107 -1.96064 0
M  V30 29715 C 2906.45 -1.59034 -2.55203 0
M  V30 29716 C 2908 -1.59925 -2.69059 0
M  V30 29717 C 2908.47 -2.54159 -3.81008 0
M  V30 29718 N 2909.97 -2.52402 -3.88391 0
M  V30 29719 C 2910.7 -3.22004 -4.74448 0
M  V30 29720 N 2910.2 -4.01007 -5.64947 0
M  V30 29721 N 2911.99 -3.10992 -4.68231 0
M  V30 29722 H 2904.14 -1.87055 -1.00619 0
M  V30 29723 H 2906.4 -0.803442 -0.503175 0
M  V30 29724 H 2906.11 -2.62426 -2.34149 0
M  V30 29725 H 2905.98 -1.33683 -3.52716 0
M  V30 29726 H 2908.37 -0.57262 -2.89491 0
M  V30 29727 H 2908.45 -1.89328 -1.72013 0
M  V30 29728 H 2908.1 -3.56936 -3.6133 0
M  V30 29729 H 2908.03 -2.22049 -4.77495 0
M  V30 29730 H 2910.52 -1.95031 -3.23684 0
M  V30 29731 H 2910.83 -4.51085 -6.27488 0
M  V30 29732 H 2909.17 -4.05109 -5.64723 0
M  V30 29733 H 2912.37 -2.4876 -3.9653 0
M  V30 29734 H 2912.54 -3.65504 -5.3508 0
M  V30 29735 N 2905.94 1.41194 -0.700139 0
M  V30 29736 C 2907.19 2.01453 -0.233387 0
M  V30 29737 C 2907.52 1.55341 1.16545 0
M  V30 29738 O 2906.8 0.766606 1.78755 0
M  V30 29739 C 2907.08 3.5888 -0.296163 0
M  V30 29740 C 2906.93 4.15105 -1.73227 0
M  V30 29741 C 2908.25 4.38773 0.341448 0
M  V30 29742 H 2905.37 0.731932 -0.0862796 0
M  V30 29743 H 2908.01 1.67881 -0.889723 0
M  V30 29744 H 2906.16 3.87611 0.262667 0
M  V30 29745 H 2907.84 3.97232 -2.3453 0
M  V30 29746 H 2906.08 3.69975 -2.26497 0
M  V30 29747 H 2906.75 5.24266 -1.7277 0
M  V30 29748 H 2909.23 4.15882 -0.134534 0
M  V30 29749 H 2908.1 5.4825 0.267002 0
M  V30 29750 H 2908.36 4.18579 1.42281 0
M  V30 29751 N 2907.42 0.445212 1.51181 0
M  V30 29752 C 2908.33 -0.368215 2.31692 0
M  V30 29753 C 2909.35 -1.02033 1.40944 0
M  V30 29754 O 2910.52 -1.01398 1.74013 0
M  V30 29755 C 2907.59 -1.45035 3.14906 0
M  V30 29756 C 2906.65 -0.81754 4.21444 0
M  V30 29757 C 2905.88 -1.84811 5.0068 0
M  V30 29758 O 2906.11 -3.07136 4.80649 0
M  V30 29759 O 2905.04 -1.43427 5.84562 0
M  V30 29760 H 2908.87 0.289273 3.02319 0
M  V30 29761 H 2906.45 0.207581 1.47951 0
M  V30 29762 H 2908.33 -2.07776 3.66616 0
M  V30 29763 H 2907.01 -2.09178 2.47035 0
M  V30 29764 H 2905.92 -0.151865 3.73792 0
M  V30 29765 H 2907.25 -0.219478 4.9171 0
M  V30 29766 N 2908.9 -1.56605 0.176849 0
M  V30 29767 C 2910.15 -1.9666 -0.465758 0
M  V30 29768 C 2910.47 -1.06415 -1.63404 0
M  V30 29769 O 2909.74 -0.131637 -1.95457 0
M  V30 29770 H 2908.32 -0.726198 -0.175059 0
M  V30 29771 H 2910.98 -1.93167 0.259323 0
M  V30 29772 H 2910.08 -3.01078 -0.822085 0
M  V30 29773 N 2910.38 0.0968524 -1.57302 0
M  V30 29774 C 2911.63 0.799356 -1.85184 0
M  V30 29775 C 2911.94 1.79984 -0.765849 0
M  V30 29776 O 2913.15 2.55011 -0.93174 0
M  V30 29777 C 2911.6 1.47244 -3.28401 0
M  V30 29778 C 2911.21 0.51181 -4.45067 0
M  V30 29779 C 2912.95 2.15877 -3.6551 0
M  V30 29780 C 2910.86 1.18938 -5.79317 0
M  V30 29781 H 2909.79 0.302275 -0.690758 0
M  V30 29782 H 2912.44 0.0522781 -1.83426 0
M  V30 29783 H 2910.82 2.26691 -3.24696 0
M  V30 29784 H 2912 -0.251043 -4.60116 0
M  V30 29785 H 2910.31 -0.0687308 -4.16343 0
M  V30 29786 H 2912.91 2.67301 -4.63092 0
M  V30 29787 H 2913.25 2.94691 -2.94046 0
M  V30 29788 H 2913.79 1.43292 -3.71096 0
M  V30 29789 H 2910.53 0.442083 -6.54008 0
M  V30 29790 H 2910.05 1.9237 -5.68114 0
M  V30 29791 H 2911.72 1.71636 -6.23819 0
M  V30 29792 N 2911.86 1.53252 0.36763 0
M  V30 29793 C 2912.82 1.78875 1.43305 0
M  V30 29794 C 2913.82 0.659141 1.4667 0
M  V30 29795 O 2915.01 0.927332 1.47466 0
M  V30 29796 C 2912.14 1.90897 2.82438 0
M  V30 29797 H 2913.33 2.74026 1.21859 0
M  V30 29798 H 2910.89 1.44298 0.600643 0
M  V30 29799 H 2911.62 0.978055 3.092 0
M  V30 29800 H 2911.41 2.73056 2.81395 0
M  V30 29801 H 2912.9 2.1232 3.59597 0
M  V30 29802 N 2913.34 -0.627313 1.44577 0
M  V30 29803 C 2914.58 -1.38885 1.4778 0
M  V30 29804 C 2914.91 -1.9388 0.11144 0
M  V30 29805 O 2914.19 -1.73885 -0.87146 0
M  V30 29806 C 2914.47 -2.55133 2.54124 0
M  V30 29807 C 2914.33 -2.05463 4.00131 0
M  V30 29808 C 2915.64 -3.57312 2.56936 0
M  V30 29809 H 2912.76 -0.50365 0.538057 0
M  V30 29810 H 2915.41 -0.708947 1.76278 0
M  V30 29811 H 2913.56 -3.13135 2.29954 0
M  V30 29812 H 2915.23 -1.52263 4.35447 0
M  V30 29813 H 2913.47 -1.36616 4.11726 0
M  V30 29814 H 2914.14 -2.89173 4.70195 0
M  V30 29815 H 2916.62 -3.09117 2.78542 0
M  V30 29816 H 2915.49 -4.36167 3.33241 0
M  V30 29817 H 2915.75 -4.11633 1.61277 0
M  V30 29818 N 2914.81 -1.31539 -0.868063 0
M  V30 29819 C 2916.09 -1.11968 -1.60382 0
M  V30 29820 C 2916.47 0.324912 -2.08585 0
M  V30 29821 O 2915.82 1.31934 -1.86563 0
M  V30 29822 C 2916.03 -2.13556 -2.76034 0
M  V30 29823 C 2917.38 -2.46179 -3.45949 0
M  V30 29824 O 2918.4 -2.11998 -2.86243 0
M  V30 29825 O 2917.26 -3.04719 -4.53661 0
M  V30 29826 H 2914.35 -0.431185 -0.705697 0
M  V30 29827 H 2916.9 -1.43024 -0.91336 0
M  V30 29828 H 2915.67 -3.10719 -2.37844 0
M  V30 29829 H 2915.29 -1.83417 -3.52766 0
M  V30 29830 N 2916.29 1.08262 -1.1453 0
M  V30 29831 C 2917.54 1.81112 -0.925753 0
M  V30 29832 C 2917.89 1.84613 0.541818 0
M  V30 29833 O 2917.19 1.31207 1.39625 0
M  V30 29834 C 2917.38 3.26115 -1.46232 0
M  V30 29835 C 2917.21 3.36741 -2.98053 0
M  V30 29836 C 2915.98 3.47844 -3.66514 0
M  V30 29837 C 2918.18 3.2827 -3.95908 0
M  V30 29838 N 2916.16 3.47276 -5.06234 0
M  V30 29839 C 2917.53 3.34712 -5.21889 0
M  V30 29840 C 2919.58 3.12017 -3.88007 0
M  V30 29841 C 2918.29 3.26574 -6.40891 0
M  V30 29842 C 2920.31 3.0521 -5.06558 0
M  V30 29843 C 2919.68 3.12255 -6.31408 0
M  V30 29844 H 2915.77 0.676476 -0.392306 0
M  V30 29845 H 2918.36 1.29297 -1.45569 0
M  V30 29846 H 2916.53 3.76371 -0.959142 0
M  V30 29847 H 2918.26 3.87038 -1.18254 0
M  V30 29848 H 2915.02 3.51798 -3.17073 0
M  V30 29849 H 2915.44 3.50545 -5.79178 0
M  V30 29850 H 2920.08 3.05431 -2.92355 0
M  V30 29851 H 2917.8 3.31921 -7.36786 0
M  V30 29852 H 2921.39 2.93752 -5.02196 0
M  V30 29853 H 2920.27 3.07019 -7.21602 0
M  V30 29854 N 2917.77 0.940655 1.26449 0
M  V30 29855 C 2919.02 0.58369 1.9307 0
M  V30 29856 C 2919.33 -0.881335 1.74619 0
M  V30 29857 O 2920.54 -1.34765 2.35692 0
M  V30 29858 C 2918.99 0.993167 3.45925 0
M  V30 29859 C 2918.6 2.47977 3.73111 0
M  V30 29860 C 2920.35 0.708072 4.18553 0
M  V30 29861 C 2918.25 2.82797 5.19403 0
M  V30 29862 H 2917.18 0.214585 0.72282 0
M  V30 29863 H 2919.83 1.14322 1.43536 0
M  V30 29864 H 2918.22 0.362168 3.9434 0
M  V30 29865 H 2919.39 3.15977 3.35403 0
M  V30 29866 H 2917.7 2.73811 3.13714 0
M  V30 29867 H 2920.3 0.944562 5.26291 0
M  V30 29868 H 2920.64 -0.355152 4.14782 0
M  V30 29869 H 2921.18 1.29877 3.76001 0
M  V30 29870 H 2917.92 3.88081 5.28274 0
M  V30 29871 H 2917.44 2.19458 5.5821 0
M  V30 29872 H 2919.12 2.71235 5.87402 0
M  V30 29873 N 2919.25 -1.40821 0.707617 0
M  V30 29874 C 2920.21 -2.29125 0.0587627 0
M  V30 29875 C 2921.21 -1.44976 -0.695598 0
M  V30 29876 O 2922.4 -1.65983 -0.528689 0
M  V30 29877 C 2919.53 -3.28057 -0.926881 0
M  V30 29878 H 2920.73 -2.88001 0.8364 0
M  V30 29879 H 2918.28 -1.49009 0.471804 0
M  V30 29880 H 2919.01 -2.74185 -1.73186 0
M  V30 29881 H 2918.8 -3.90166 -0.388946 0
M  V30 29882 H 2920.29 -3.94199 -1.3783 0
M  V30 29883 N 2920.73 -0.453223 -1.50943 0
M  V30 29884 C 2921.97 0.107674 -2.01813 0
M  V30 29885 C 2922.29 1.41813 -1.33843 0
M  V30 29886 O 2921.56 1.89979 -0.478006 0
M  V30 29887 H 2920.14 0.0427817 -0.745774 0
M  V30 29888 H 2922.81 -0.599564 -1.85449 0
M  V30 29889 H 2921.9 0.272126 -3.10911 0
M  V30 29890 N 2922.2 1.56509 -0.185151 0
M  V30 29891 C 2923.15 2.19955 0.756466 0
M  V30 29892 C 2924.15 1.16771 1.22723 0
M  V30 29893 O 2925.35 1.34939 1.19128 0
M  V30 29894 H 2921.73 0.704784 0.262267 0
M  V30 29895 H 2923.7 2.97745 0.197535 0
M  V30 29896 C 2922.45 2.86527 1.9697 0
M  V30 29897 H 2921.77 3.65662 1.61651 0
M  V30 29898 H 2923.21 3.34372 2.60713 0
M  V30 29899 C 2921.67 1.87032 2.80215 0
M  V30 29900 O 2922.2 1.36439 3.77819 0
M  V30 29901 N 2920.4 1.55481 2.45507 0
M  V30 29902 H 2919.95 1.96816 1.66196 0
M  V30 29903 H 2919.91 0.89165 3.01491 0
M  V30 29904 N 2923.68 -0.0885089 1.57351 0
M  V30 29905 C 2924.93 -0.789524 1.85606 0
M  V30 29906 C 2925.24 -1.79575 0.775384 0
M  V30 29907 O 2926.45 -2.54514 0.945251 0
M  V30 29908 C 2924.91 -1.455 3.29177 0
M  V30 29909 C 2924.51 -0.4882 4.45332 0
M  V30 29910 C 2926.26 -2.13936 3.66649 0
M  V30 29911 C 2924.16 -1.15864 5.79939 0
M  V30 29912 H 2923.09 -0.298607 0.692351 0
M  V30 29913 H 2925.75 -0.0425499 1.83451 0
M  V30 29914 H 2924.13 -2.24966 3.25893 0
M  V30 29915 H 2925.3 0.27544 4.59976 0
M  V30 29916 H 2923.62 0.0908095 4.16301 0
M  V30 29917 H 2926.21 -2.64842 4.64503 0
M  V30 29918 H 2926.56 -2.93127 2.95605 0
M  V30 29919 H 2927.09 -1.41322 3.71851 0
M  V30 29920 H 2923.83 -0.407393 6.54233 0
M  V30 29921 H 2923.35 -1.89354 5.69126 0
M  V30 29922 H 2925.03 -1.68325 6.24721 0
M  V30 29923 N 2925.16 -1.53445 -0.359498 0
M  V30 29924 C 2926.39 -1.73587 -1.12032 0
M  V30 29925 C 2926.8 -0.46747 -1.83334 0
M  V30 29926 O 2926.14 0.569722 -1.74642 0
M  V30 29927 C 2926.2 -2.85071 -2.19031 0
M  V30 29928 C 2925.87 -4.2522 -1.67443 0
M  V30 29929 C 2926.86 -5.07354 -1.13525 0
M  V30 29930 C 2924.55 -4.71651 -1.72772 0
M  V30 29931 C 2926.54 -6.34013 -0.656209 0
M  V30 29932 C 2924.23 -5.98288 -1.2448 0
M  V30 29933 C 2925.23 -6.793 -0.709948 0
M  V30 29934 O 2924.92 -8.03559 -0.234173 0
M  V30 29935 H 2924.65 -0.583894 -0.340651 0
M  V30 29936 H 2927.2 -2.01009 -0.422417 0
M  V30 29937 H 2925.43 -2.53137 -2.92333 0
M  V30 29938 H 2927.12 -2.93333 -2.80554 0
M  V30 29939 H 2927.89 -4.72652 -1.08743 0
M  V30 29940 H 2923.77 -4.08663 -2.13344 0
M  V30 29941 H 2927.31 -6.97194 -0.23807 0
M  V30 29942 H 2923.21 -6.32487 -1.28958 0
M  V30 29943 H 2923.97 -8.17739 -0.35294 0
M  V30 29944 N 2926.64 0.619637 -1.44908 0
M  V30 29945 C 2927.88 1.37911 -1.49506 0
M  V30 29946 C 2928.24 1.91959 -0.130192 0
M  V30 29947 O 2927.53 1.71404 0.856233 0
M  V30 29948 C 2927.73 2.55404 -2.50007 0
M  V30 29949 C 2927.55 2.12861 -3.96132 0
M  V30 29950 C 2926.32 1.99598 -4.64208 0
M  V30 29951 C 2928.52 1.71065 -4.85017 0
M  V30 29952 N 2926.5 1.50737 -5.95106 0
M  V30 29953 C 2927.88 1.33533 -6.05449 0
M  V30 29954 C 2929.93 1.58548 -4.71982 0
M  V30 29955 C 2928.63 0.847358 -7.14291 0
M  V30 29956 C 2930.66 1.11155 -5.8086 0
M  V30 29957 C 2930.02 0.745809 -7.00441 0
M  V30 29958 H 2926.12 0.499024 -0.602079 0
M  V30 29959 H 2928.7 0.709648 -1.81307 0
M  V30 29960 H 2926.88 3.19963 -2.20178 0
M  V30 29961 H 2928.61 3.22244 -2.44828 0
M  V30 29962 H 2925.36 2.2041 -4.19186 0
M  V30 29963 H 2925.79 1.28574 -6.64679 0
M  V30 29964 H 2930.43 1.85454 -3.79956 0
M  V30 29965 H 2928.15 0.565832 -8.06117 0
M  V30 29966 H 2931.73 1.01913 -5.72804 0
M  V30 29967 H 2930.61 0.38471 -7.83256 0
M  V30 29968 N 2928.12 1.31997 0.861075 0
M  V30 29969 C 2929.34 1.25176 1.64738 0
M  V30 29970 C 2929.76 -0.181392 1.87927 0
M  V30 29971 O 2929.12 -1.11638 1.44372 0
M  V30 29972 C 2929.17 2.00155 3.01032 0
M  V30 29973 O 2928.89 3.37877 2.78874 0
M  V30 29974 C 2930.39 2.0028 3.95478 0
M  V30 29975 H 2927.61 0.432155 0.513306 0
M  V30 29976 H 2930.15 1.74018 1.07416 0
M  V30 29977 H 2928.31 1.55052 3.55018 0
M  V30 29978 H 2928.72 3.76171 3.65507 0
M  V30 29979 H 2930.2 2.57237 4.88398 0
M  V30 29980 H 2930.67 0.987482 4.27955 0
M  V30 29981 H 2931.28 2.45302 3.47429 0
M  V30 29982 N 2929.59 -1.07653 1.15103 0
M  V30 29983 C 2930.87 -1.769 0.834609 0
M  V30 29984 C 2931.25 -2.00172 -0.670396 0
M  V30 29985 O 2930.6 -1.61772 -1.61375 0
M  V30 29986 C 2930.81 -3.07962 1.64197 0
M  V30 29987 C 2932.16 -3.82361 1.84622 0
M  V30 29988 O 2933.18 -3.17765 1.60947 0
M  V30 29989 O 2932.04 -4.9837 2.24253 0
M  V30 29990 H 2929.13 -0.768057 0.306622 0
M  V30 29991 H 2931.68 -1.14046 1.25665 0
M  V30 29992 H 2930.45 -2.86621 2.66391 0
M  V30 29993 H 2930.08 -3.78547 1.21606 0
M  V30 29994 N 2931.07 -0.947348 -1.25949 0
M  V30 29995 C 2932 -0.4191 -2.25336 0
M  V30 29996 C 2933.02 0.461023 -1.56136 0
M  V30 29997 O 2934.21 0.270474 -1.76439 0
M  V30 29998 C 2931.31 0.416174 -3.36335 0
M  V30 29999 C 2930.48 -0.449238 -4.35087 0
M  V30 30000 C 2929.54 0.326624 -5.25185 0
M  V30 30001 O 2928.56 -0.272474 -5.68547 0
M  V30 30002 N 2929.77 1.6216 -5.57391 0
M  V30 30003 H 2932.53 -1.27352 -2.71296 0
M  V30 30004 H 2930.09 -0.816905 -1.39779 0
M  V30 30005 H 2932.08 0.942757 -3.93566 0
M  V30 30006 H 2930.65 1.17142 -2.89821 0
M  V30 30007 H 2929.87 -1.15698 -3.76839 0
M  V30 30008 H 2931.16 -1.04017 -4.98054 0
M  V30 30009 H 2930.56 2.13037 -5.24053 0
M  V30 30010 H 2929.12 2.0943 -6.17238 0
M  V30 30011 N 2932.55 1.40444 -0.715075 0
M  V30 30012 C 2933.8 2.00499 -0.253861 0
M  V30 30013 C 2934.12 1.56983 1.15678 0
M  V30 30014 O 2933.39 0.809058 1.78413 0
M  V30 30015 H 2931.97 0.741453 -0.0908668 0
M  V30 30016 H 2934.63 1.71788 -0.920592 0
M  V30 30017 H 2933.73 3.10782 -0.286554 0
M  V30 30018 N 2934.03 0.461222 1.507 0
M  V30 30019 C 2935.28 -0.0971615 2.02267 0
M  V30 30020 C 2935.6 -1.40605 1.34389 0
M  V30 30021 O 2934.86 -1.9033 0.455287 0
M  V30 30022 C 2935.16 -0.339017 3.55788 0
M  V30 30023 C 2934.82 0.886963 4.4209 0
M  V30 30024 C 2933.49 1.22312 4.65396 0
M  V30 30025 C 2935.84 1.7037 4.92568 0
M  V30 30026 C 2933.17 2.37625 5.36424 0
M  V30 30027 C 2935.52 2.84803 5.64863 0
M  V30 30028 C 2934.18 3.18845 5.86425 0
M  V30 30029 H 2933.45 -0.0355539 0.740147 0
M  V30 30030 H 2936.1 0.613292 1.81414 0
M  V30 30031 H 2934.4 -1.13162 3.75102 0
M  V30 30032 H 2936.1 -0.784868 3.93244 0
M  V30 30033 H 2932.69 0.615056 4.24164 0
M  V30 30034 H 2936.87 1.45718 4.74426 0
M  V30 30035 H 2932.13 2.64285 5.51329 0
M  V30 30036 H 2936.3 3.48442 6.0296 0
M  V30 30037 H 2933.93 4.08307 6.41241 0
M  V30 30038 N 2935.51 -1.56408 0.193449 0
M  V30 30039 C 2936.78 -1.89278 -0.493284 0
M  V30 30040 C 2937.16 -1.10673 -1.79763 0
M  V30 30041 O 2936.51 -0.207314 -2.27558 0
M  V30 30042 C 2936.72 -3.41625 -0.713672 0
M  V30 30043 C 2938.07 -4.11823 -1.03378 0
M  V30 30044 O 2939.09 -3.47067 -0.80145 0
M  V30 30045 O 2937.95 -5.2627 -1.47318 0
M  V30 30046 H 2935.05 -0.786067 -0.25696 0
M  V30 30047 H 2937.59 -1.68085 0.233539 0
M  V30 30048 H 2936.36 -3.90749 0.207514 0
M  V30 30049 H 2935.99 -3.68504 -1.49301 0
M  V30 30050 N 2936.98 0.0801629 -1.57396 0
M  V30 30051 C 2938.23 0.782051 -1.87114 0
M  V30 30052 C 2938.56 1.77644 -0.784611 0
M  V30 30053 O 2937.84 1.93406 0.205959 0
M  V30 30054 C 2938.12 1.49751 -3.27485 0
M  V30 30055 C 2937.97 0.520093 -4.46783 0
M  V30 30056 C 2939.29 2.44447 -3.65969 0
M  V30 30057 H 2936.41 0.282846 -0.680564 0
M  V30 30058 H 2939.05 0.0453805 -1.89946 0
M  V30 30059 H 2937.2 2.12545 -3.25203 0
M  V30 30060 H 2938.88 -0.102 -4.61187 0
M  V30 30061 H 2937.12 -0.165295 -4.33485 0
M  V30 30062 H 2937.79 1.05814 -5.41763 0
M  V30 30063 H 2940.27 1.91735 -3.69292 0
M  V30 30064 H 2939.14 2.91515 -4.65091 0
M  V30 30065 H 2939.4 3.28878 -2.95452 0
M  V30 30066 N 2938.46 1.53634 0.351355 0
M  V30 30067 C 2939.71 1.69721 1.08985 0
M  V30 30068 C 2940.02 0.462981 1.90042 0
M  V30 30069 O 2941.23 0.50466 2.66768 0
M  V30 30070 C 2939.69 3.00087 1.98686 0
M  V30 30071 C 2939.29 4.3082 1.22873 0
M  V30 30072 C 2941.04 3.25541 2.7244 0
M  V30 30073 C 2938.95 5.52265 2.11559 0
M  V30 30074 H 2937.88 0.63241 0.410577 0
M  V30 30075 H 2940.53 1.80134 0.349854 0
M  V30 30076 H 2938.91 2.83511 2.76473 0
M  V30 30077 H 2940.08 4.58074 0.500501 0
M  V30 30078 H 2938.4 4.11919 0.609207 0
M  V30 30079 H 2940.99 4.13462 3.39048 0
M  V30 30080 H 2941.34 2.42212 3.38584 0
M  V30 30081 H 2941.87 3.42856 2.01729 0
M  V30 30082 H 2938.61 6.38114 1.49969 0
M  V30 30083 H 2938.13 5.29271 2.82192 0
M  V30 30084 H 2939.81 5.87606 2.70791 0
M  V30 30085 N 2939.94 -0.611943 1.45234 0
M  V30 30086 C 2940.85 -1.75127 1.56102 0
M  V30 30087 C 2941.87 -1.68196 0.445676 0
M  V30 30088 O 2943.04 -1.8863 0.705751 0
M  V30 30089 C 2940.11 -3.11576 1.52057 0
M  V30 30090 C 2939.17 -3.29994 2.74595 0
M  V30 30091 C 2938.4 -4.59934 2.70734 0
M  V30 30092 O 2938.62 -5.41976 1.77816 0
M  V30 30093 O 2937.56 -4.8097 3.61872 0
M  V30 30094 H 2941.38 -1.6891 2.52395 0
M  V30 30095 H 2938.97 -0.775505 1.27696 0
M  V30 30096 H 2940.85 -3.92879 1.52393 0
M  V30 30097 H 2939.53 -3.18294 0.589141 0
M  V30 30098 H 2938.43 -2.48296 2.79822 0
M  V30 30099 H 2939.77 -3.2815 3.66849 0
M  V30 30100 N 2941.42 -1.32452 -0.854063 0
M  V30 30101 C 2942.66 -1.23228 -1.61067 0
M  V30 30102 C 2943 0.205315 -1.93112 0
M  V30 30103 O 2942.27 1.14262 -1.57399 0
M  V30 30104 C 2942.56 -2.09254 -2.93061 0
M  V30 30105 C 2942.41 -3.61395 -2.67794 0
M  V30 30106 C 2943.73 -1.95413 -3.94337 0
M  V30 30107 H 2940.85 -0.448996 -0.584441 0
M  V30 30108 H 2943.49 -1.62403 -0.98616 0
M  V30 30109 H 2941.64 -1.75974 -3.4636 0
M  V30 30110 H 2943.31 -4.04891 -2.21045 0
M  V30 30111 H 2941.55 -3.84031 -2.01749 0
M  V30 30112 H 2942.22 -4.16914 -3.61783 0
M  V30 30113 H 2944.7 -2.24568 -3.50297 0
M  V30 30114 H 2943.58 -2.5788 -4.8455 0
M  V30 30115 H 2943.84 -0.921941 -4.3238 0
M  V30 30116 N 2942.9 1.07041 -1.15672 0
M  V30 30117 C 2943.86 2.12497 -0.858943 0
M  V30 30118 C 2944.86 1.60165 0.142707 0
M  V30 30119 O 2946.05 1.73981 -0.0872984 0
M  V30 30120 C 2943.18 3.39723 -0.28308 0
M  V30 30121 H 2944.38 2.40345 -1.79372 0
M  V30 30122 H 2941.93 1.22982 -0.964629 0
M  V30 30123 H 2942.66 3.17518 0.65974 0
M  V30 30124 H 2942.45 3.79009 -1.00473 0
M  V30 30125 H 2943.94 4.17498 -0.0924277 0
M  V30 30126 N 2944.38 0.954014 1.25445 0
M  V30 30127 C 2945.79 0.658342 1.45389 0
M  V30 30128 C 2945.99 -0.784323 1.85609 0
M  V30 30129 O 2945.05 -1.55968 1.9857 0
M  V30 30130 C 2946.36 1.63074 2.52641 0
M  V30 30131 C 2947.91 1.64185 2.66481 0
M  V30 30132 C 2948.38 2.60188 3.76917 0
M  V30 30133 N 2949.87 2.58549 3.84326 0
M  V30 30134 C 2950.61 3.29511 4.69265 0
M  V30 30135 N 2950.11 4.09944 5.58496 0
M  V30 30136 N 2951.9 3.18401 4.63225 0
M  V30 30137 H 2944.05 1.88632 0.976304 0
M  V30 30138 H 2946.31 0.811345 0.490329 0
M  V30 30139 H 2946.02 2.66118 2.29944 0
M  V30 30140 H 2945.89 1.39277 3.50545 0
M  V30 30141 H 2948.28 0.618603 2.88543 0
M  V30 30142 H 2948.36 1.92041 1.68979 0
M  V30 30143 H 2948 3.62639 3.55605 0
M  V30 30144 H 2947.93 2.29618 4.73902 0
M  V30 30145 H 2950.43 2.00156 3.2054 0
M  V30 30146 H 2950.74 4.61011 6.20233 0
M  V30 30147 H 2949.08 4.14042 5.58206 0
M  V30 30148 H 2952.27 2.55037 3.92522 0
M  V30 30149 H 2952.45 3.7397 5.29198 0
M  V30 30150 N 2945.85 -1.40063 0.722513 0
M  V30 30151 C 2946.78 -2.33329 0.0892862 0
M  V30 30152 C 2947.76 -1.53258 -0.737965 0
M  V30 30153 O 2948.95 -1.817 -0.685484 0
M  V30 30154 C 2946.08 -3.37283 -0.828079 0
M  V30 30155 C 2945.03 -4.27869 -0.10593 0
M  V30 30156 C 2944.36 -5.22417 -1.13948 0
M  V30 30157 C 2945.66 -5.11759 1.04404 0
M  V30 30158 H 2947.35 -2.86532 0.868319 0
M  V30 30159 H 2944.9 -1.37769 0.419006 0
M  V30 30160 H 2946.85 -4.01473 -1.28051 0
M  V30 30161 H 2945.58 -2.82492 -1.63909 0
M  V30 30162 H 2944.24 -3.65141 0.326747 0
M  V30 30163 H 2943.88 -4.63927 -1.94372 0
M  V30 30164 H 2943.58 -5.83869 -0.661131 0
M  V30 30165 H 2945.11 -5.89485 -1.59187 0
M  V30 30166 H 2946.52 -5.69364 0.670641 0
M  V30 30167 H 2944.92 -5.82289 1.4512 0
M  V30 30168 H 2945.99 -4.47328 1.87152 0
M  V30 30169 N 2947.33 -0.469207 -1.50453 0
M  V30 30170 C 2948.28 0.339993 -2.30102 0
M  V30 30171 C 2949.27 0.992111 -1.37308 0
M  V30 30172 O 2950.48 0.923431 -1.54508 0
M  V30 30173 H 2946.85 0.128482 -0.740943 0
M  V30 30174 H 2948.83 -0.352196 -2.96314 0
M  V30 30175 C 2947.57 1.41047 -3.17807 0
M  V30 30176 H 2946.9 0.918055 -3.89117 0
M  V30 30177 H 2948.34 1.94927 -3.76536 0
M  V30 30178 C 2946.8 2.41136 -2.35277 0
M  V30 30179 O 2947.33 3.46366 -2.03454 0
M  V30 30180 N 2945.53 2.12807 -1.97893 0
M  V30 30181 H 2945.08 1.27257 -2.23972 0
M  V30 30182 H 2945.04 2.80009 -1.42976 0
M  V30 30183 N 2948.81 1.56303 -0.201741 0
M  V30 30184 C 2950.06 1.97376 0.434412 0
M  V30 30185 C 2950.38 1.09001 1.6169 0
M  V30 30186 O 2949.65 0.162716 1.95223 0
M  V30 30187 H 2948.23 0.728891 0.163484 0
M  V30 30188 H 2950.89 1.9273 -0.290022 0
M  V30 30189 H 2949.99 3.02348 0.774082 0
M  V30 30190 N 2950.29 -0.0718147 1.57436 0
M  V30 30191 C 2951.51 -0.787712 1.91859 0
M  V30 30192 C 2951.94 -1.70327 0.798149 0
M  V30 30193 O 2951.3 -1.79582 -0.249018 0
M  V30 30194 C 2951.34 -1.55738 3.25235 0
M  V30 30195 O 2950.45 -2.66804 3.14467 0
M  V30 30196 H 2949.79 -0.214903 0.628262 0
M  V30 30197 H 2952.32 -0.0400653 2.04561 0
M  V30 30198 H 2952.33 -1.93663 3.59108 0
M  V30 30199 H 2951 -0.88562 4.06361 0
M  V30 30200 H 2949.58 -2.31736 2.92152 0
M  V30 30201 N 2951.77 -1.53818 -0.343203 0
M  V30 30202 C 2953.01 -1.7108 -1.08341 0
M  V30 30203 C 2953.34 -0.474166 -1.88632 0
M  V30 30204 O 2952.6 0.544083 -1.87985 0
M  V30 30205 C 2952.89 -2.92629 -2.0519 0
M  V30 30206 C 2952.56 -4.28219 -1.41208 0
M  V30 30207 C 2951.22 -4.65085 -1.23487 0
M  V30 30208 C 2953.57 -5.12447 -0.951183 0
M  V30 30209 C 2950.9 -5.83797 -0.582962 0
M  V30 30210 C 2953.25 -6.31824 -0.313181 0
M  V30 30211 C 2951.92 -6.67385 -0.123662 0
M  V30 30212 H 2951.19 -0.626028 -0.396447 0
M  V30 30213 H 2953.84 -1.88035 -0.362656 0
M  V30 30214 H 2952.14 -2.7028 -2.83648 0
M  V30 30215 H 2953.84 -3.03179 -2.62456 0
M  V30 30216 H 2950.43 -3.99203 -1.55998 0
M  V30 30217 H 2954.61 -4.84497 -1.07594 0
M  V30 30218 H 2949.87 -6.09923 -0.424747 0
M  V30 30219 H 2954.04 -6.96381 0.0520403 0
M  V30 30220 H 2951.67 -7.59232 0.383532 0
M  V30 30221 N 2953.24 0.604233 -1.45557 0
M  V30 30222 C 2954.66 0.925345 -1.30037 0
M  V30 30223 C 2954.86 1.99869 -0.255868 0
M  V30 30224 O 2953.92 2.50076 0.349032 0
M  V30 30225 C 2955.23 1.36309 -2.6803 0
M  V30 30226 C 2956.78 1.47712 -2.75953 0
M  V30 30227 C 2957.25 1.94861 -4.14479 0
M  V30 30228 N 2958.74 2.02089 -4.1679 0
M  V30 30229 C 2959.48 2.398 -5.20849 0
M  V30 30230 N 2958.97 2.76456 -6.35251 0
M  V30 30231 N 2960.77 2.40168 -5.08208 0
M  V30 30232 H 2952.92 -0.105157 -2.1214 0
M  V30 30233 H 2955.18 0.0156137 -0.947871 0
M  V30 30234 H 2954.89 0.648568 -3.45668 0
M  V30 30235 H 2954.76 2.32894 -2.96715 0
M  V30 30236 H 2957.15 2.18255 -1.98617 0
M  V30 30237 H 2957.23 0.494327 -2.50978 0
M  V30 30238 H 2956.87 1.24904 -4.92302 0
M  V30 30239 H 2956.8 2.9406 -4.36848 0
M  V30 30240 H 2959.29 1.76338 -3.34236 0
M  V30 30241 H 2959.61 3.04122 -7.10443 0
M  V30 30242 H 2957.95 2.74144 -6.38647 0
M  V30 30243 H 2961.14 2.1094 -4.17878 0
M  V30 30244 H 2961.32 2.69231 -5.89422 0
M  V30 30245 N 2954.72 1.32903 0.847027 0
M  V30 30246 C 2955.95 1.26732 1.63164 0
M  V30 30247 C 2956.36 -0.165562 1.88474 0
M  V30 30248 O 2955.7 -1.11555 1.45949 0
M  V30 30249 C 2955.76 1.96528 3.01027 0
M  V30 30250 C 2955.43 3.45851 2.98724 0
M  V30 30251 C 2956.43 4.412 2.75024 0
M  V30 30252 C 2954.11 3.87903 3.19118 0
M  V30 30253 C 2956.1 5.76576 2.71733 0
M  V30 30254 C 2953.79 5.23386 3.15453 0
M  V30 30255 C 2954.79 6.17533 2.9179 0
M  V30 30256 O 2954.48 7.50535 2.88013 0
M  V30 30257 H 2954.21 0.438267 0.514682 0
M  V30 30258 H 2956.76 1.75705 1.0638 0
M  V30 30259 H 2954.99 1.42135 3.59631 0
M  V30 30260 H 2956.68 1.83965 3.61817 0
M  V30 30261 H 2957.45 4.10037 2.59027 0
M  V30 30262 H 2953.33 3.15038 3.36559 0
M  V30 30263 H 2956.87 6.50034 2.53183 0
M  V30 30264 H 2952.77 5.54176 3.30997 0
M  V30 30265 H 2953.54 7.59986 3.03913 0
M  V30 30266 N 2956.2 -1.06426 1.16238 0
M  V30 30267 C 2957.45 -1.79465 0.944462 0
M  V30 30268 C 2957.78 -1.86926 -0.526525 0
M  V30 30269 O 2957.05 -1.35988 -1.39059 0
M  V30 30270 C 2957.34 -3.24025 1.57097 0
M  V30 30271 C 2957.19 -3.24653 3.11321 0
M  V30 30272 C 2958.51 -4.21542 1.26454 0
M  V30 30273 H 2955.63 -0.651511 0.344533 0
M  V30 30274 H 2958.27 -1.24475 1.43548 0
M  V30 30275 H 2956.42 -3.70983 1.15343 0
M  V30 30276 H 2958.09 -2.85867 3.62047 0
M  V30 30277 H 2956.33 -2.63344 3.44721 0
M  V30 30278 H 2957.01 -4.26627 3.50277 0
M  V30 30279 H 2959.48 -3.8302 1.62588 0
M  V30 30280 H 2958.36 -5.2096 1.72894 0
M  V30 30281 H 2958.62 -4.4172 0.183146 0
M  V30 30282 N 2957.68 -0.960653 -1.24937 0
M  V30 30283 C 2958.92 -0.619614 -1.93103 0
M  V30 30284 C 2959.26 0.842089 -1.74993 0
M  V30 30285 O 2958.53 1.60496 -1.0987 0
M  V30 30286 C 2958.82 -0.986483 -3.46324 0
M  V30 30287 C 2958.67 -2.50436 -3.73633 0
M  V30 30288 C 2959.99 -0.515904 -4.37066 0
M  V30 30289 H 2957.11 -0.226578 -0.701307 0
M  V30 30290 H 2959.75 -1.19839 -1.4744 0
M  V30 30291 H 2957.9 -0.493975 -3.85347 0
M  V30 30292 H 2959.57 -3.07109 -3.44212 0
M  V30 30293 H 2957.81 -2.93943 -3.1903 0
M  V30 30294 H 2958.48 -2.71156 -4.8081 0
M  V30 30295 H 2960.96 -0.938461 -4.05379 0
M  V30 30296 H 2959.84 -0.801235 -5.43021 0
M  V30 30297 H 2960.1 0.584094 -4.38225 0
M  V30 30298 N 2959.16 1.39677 -0.729931 0
M  V30 30299 C 2960.41 1.9985 -0.272569 0
M  V30 30300 C 2960.72 1.58573 1.14516 0
M  V30 30301 O 2961.92 2.11546 1.70178 0
M  V30 30302 C 2960.38 3.57245 -0.436385 0
M  V30 30303 C 2959.99 4.07487 -1.86168 0
M  V30 30304 C 2961.73 4.24481 -0.0405425 0
M  V30 30305 C 2959.64 5.57436 -1.97531 0
M  V30 30306 H 2958.57 0.747584 -0.0981559 0
M  V30 30307 H 2961.22 1.59739 -0.903084 0
M  V30 30308 H 2959.6 3.95126 0.262945 0
M  V30 30309 H 2960.78 3.80951 -2.59255 0
M  V30 30310 H 2959.09 3.52896 -2.21027 0
M  V30 30311 H 2961.69 5.34598 -0.104531 0
M  V30 30312 H 2962.03 4.04024 1.0035 0
M  V30 30313 H 2962.56 3.91755 -0.690842 0
M  V30 30314 H 2959.3 5.82766 -3.00106 0
M  V30 30315 H 2958.82 5.85791 -1.28874 0
M  V30 30316 H 2960.5 6.22768 -1.75411 0
M  V30 30317 N 2960.63 0.47718 1.50202 0
M  V30 30318 C 2961.86 -0.0754622 2.07263 0
M  V30 30319 C 2962.28 -1.32206 1.33803 0
M  V30 30320 O 2961.64 -1.7711 0.387513 0
M  V30 30321 C 2961.69 -0.336285 3.59029 0
M  V30 30322 O 2960.79 -1.41563 3.87342 0
M  V30 30323 H 2960.14 0.0156737 0.663815 0
M  V30 30324 H 2962.67 0.66997 1.9332 0
M  V30 30325 H 2962.68 -0.574963 4.03928 0
M  V30 30326 H 2961.35 0.574623 4.11911 0
M  V30 30327 H 2959.93 -1.16379 3.54275 0
M  V30 30328 N 2962.11 -1.56194 0.210027 0
M  V30 30329 C 2963.04 -2.1703 -0.736929 0
M  V30 30330 C 2964.06 -1.13618 -1.16597 0
M  V30 30331 O 2965.25 -1.40648 -1.09911 0
M  V30 30332 C 2962.35 -2.72972 -2.00847 0
M  V30 30333 C 2961.52 -4.01438 -1.73684 0
M  V30 30334 C 2960.58 -4.42058 -2.85431 0
M  V30 30335 O 2959.6 -5.09187 -2.54396 0
M  V30 30336 N 2960.81 -4.0679 -4.14128 0
M  V30 30337 H 2963.57 -2.98916 -0.216604 0
M  V30 30338 H 2961.13 -1.61875 0.0285956 0
M  V30 30339 H 2963.12 -2.97123 -2.74773 0
M  V30 30340 H 2961.69 -1.95455 -2.43959 0
M  V30 30341 H 2960.91 -3.85263 -0.834608 0
M  V30 30342 H 2962.2 -4.85266 -1.52952 0
M  V30 30343 H 2961.6 -3.52824 -4.4219 0
M  V30 30344 H 2960.16 -4.35859 -4.84634 0
M  V30 30345 N 2963.59 0.0634645 -1.57472 0
M  V30 30346 C 2964.84 0.75953 -1.87285 0
M  V30 30347 C 2965.16 1.77691 -0.803166 0
M  V30 30348 O 2964.43 1.95185 0.167259 0
M  V30 30349 H 2963.01 0.283503 -0.691111 0
M  V30 30350 H 2965.67 0.0375748 -1.94864 0
M  V30 30351 H 2964.77 1.27057 -2.85067 0
M  V30 30352 N 2965.07 1.53998 0.33504 0
M  V30 30353 C 2966 1.85571 1.41724 0
M  V30 30354 C 2966.98 0.711528 1.54503 0
M  V30 30355 O 2968.16 0.964221 1.68572 0
M  V30 30356 C 2965.29 2.07287 2.78657 0
M  V30 30357 C 2964.25 3.23117 2.80677 0
M  V30 30358 C 2963.57 3.30182 4.20575 0
M  V30 30359 C 2964.87 4.61033 2.4545 0
M  V30 30360 H 2966.57 2.76204 1.1555 0
M  V30 30361 H 2964.11 1.32899 0.554421 0
M  V30 30362 H 2966.07 2.27959 3.54419 0
M  V30 30363 H 2964.79 1.13392 3.06284 0
M  V30 30364 H 2963.45 3.02314 2.07368 0
M  V30 30365 H 2963.1 2.33867 4.45326 0
M  V30 30366 H 2962.8 4.08024 4.22836 0
M  V30 30367 H 2964.32 3.53075 4.98167 0
M  V30 30368 H 2965.74 4.81662 3.10925 0
M  V30 30369 H 2964.13 5.4134 2.58981 0
M  V30 30370 H 2965.2 4.64063 1.4062 0
M  V30 30371 N 2966.55 -0.596505 1.45875 0
M  V30 30372 C 2967.82 -1.35625 1.40944 0
M  V30 30373 C 2968.2 -2.10926 0.0857437 0
M  V30 30374 O 2967.55 -2.08606 -0.932507 0
M  V30 30375 C 2967.76 -2.29381 2.63031 0
M  V30 30376 C 2969.11 -2.91643 3.08593 0
M  V30 30377 O 2970.13 -2.39699 2.63482 0
M  V30 30378 O 2968.99 -3.85958 3.86909 0
M  V30 30379 H 2966.09 -0.608686 0.559849 0
M  V30 30380 H 2968.63 -0.61867 1.58021 0
M  V30 30381 H 2967.4 -1.73074 3.50943 0
M  V30 30382 H 2967.03 -3.10501 2.48344 0
M  V30 30383 N 2968.02 -1.3335 -0.839967 0
M  V30 30384 C 2968.97 -1.23513 -1.9497 0
M  V30 30385 C 2969.94 -0.113996 -1.65708 0
M  V30 30386 O 2971.13 -0.292078 -1.88551 0
M  V30 30387 C 2968.27 -0.979163 -3.30918 0
M  V30 30388 C 2967.38 -2.18646 -3.72583 0
M  V30 30389 C 2966.51 -1.86474 -4.97394 0
M  V30 30390 C 2965.55 -3.03442 -5.31592 0
M  V30 30391 N 2964.69 -2.71265 -6.4758 0
M  V30 30392 H 2969.53 -2.18427 -2.02716 0
M  V30 30393 H 2967.07 -1.08618 -0.991998 0
M  V30 30394 H 2969.03 -0.811198 -4.09238 0
M  V30 30395 H 2967.66 -0.0667667 -3.22731 0
M  V30 30396 H 2966.71 -2.46421 -2.89795 0
M  V30 30397 H 2968.02 -3.06093 -3.93839 0
M  V30 30398 H 2967.17 -1.66315 -5.83459 0
M  V30 30399 H 2965.91 -0.962624 -4.78105 0
M  V30 30400 H 2964.92 -3.24216 -4.44032 0
M  V30 30401 H 2966.14 -3.94407 -5.52829 0
M  V30 30402 H 2964.09 -1.83611 -6.2978 0
M  V30 30403 H 2964.01 -3.52243 -6.68925 0
M  V30 30404 H 2965.27 -2.54571 -7.36759 0
M  V30 30405 N 2969.5 1.05808 -1.16801 0
M  V30 30406 C 2970.91 1.60159 -0.959478 0
M  V30 30407 C 2971.26 1.89843 0.495396 0
M  V30 30408 O 2970.39 1.67549 1.36954 0
M  V30 30409 C 2970.98 2.90984 -1.73533 0
M  V30 30410 C 2969.54 3.42018 -1.57164 0
M  V30 30411 C 2968.69 2.1584 -1.74093 0
M  V30 30412 H 2971.64 0.886969 -1.316 0
M  V30 30413 H 2971.66 3.60613 -1.21404 0
M  V30 30414 H 2971.17 2.69348 -2.79416 0
M  V30 30415 H 2969.28 3.68704 -0.537425 0
M  V30 30416 H 2969.39 4.17018 -2.35866 0
M  V30 30417 H 2967.75 2.263 -1.16878 0
M  V30 30418 H 2968.54 1.96681 -2.81374 0
M  V30 30419 N 2970.98 0.967265 1.24426 0
M  V30 30420 C 2972.4 0.673725 1.44683 0
M  V30 30421 C 2972.6 -0.764593 1.8643 0
M  V30 30422 O 2971.65 -1.53853 2.00213 0
M  V30 30423 C 2972.97 1.65745 2.50897 0
M  V30 30424 C 2974.51 1.67003 2.64725 0
M  V30 30425 C 2974.99 2.64171 3.74136 0
M  V30 30426 N 2976.48 2.62611 3.81562 0
M  V30 30427 C 2977.21 3.3447 4.65744 0
M  V30 30428 N 2976.71 4.15844 5.54117 0
M  V30 30429 N 2978.5 3.23297 4.59821 0
M  V30 30430 H 2970.65 1.89657 0.956242 0
M  V30 30431 H 2972.92 0.8165 0.481696 0
M  V30 30432 H 2972.62 2.68542 2.27109 0
M  V30 30433 H 2972.5 1.42988 3.49048 0
M  V30 30434 H 2974.88 0.649172 2.87871 0
M  V30 30435 H 2974.97 1.93822 1.66933 0
M  V30 30436 H 2974.61 3.66391 3.51739 0
M  V30 30437 H 2974.54 2.34631 4.7144 0
M  V30 30438 H 2977.03 2.03544 3.18399 0
M  V30 30439 H 2977.34 4.67564 6.15308 0
M  V30 30440 H 2975.69 4.19939 5.53784 0
M  V30 30441 H 2978.88 2.59186 3.89795 0
M  V30 30442 H 2979.05 3.79562 5.25201 0
M  V30 30443 N 2972.46 -1.39288 0.737328 0
M  V30 30444 C 2973.42 -2.28948 0.10735 0
M  V30 30445 C 2974.42 -1.46419 -0.66469 0
M  V30 30446 O 2975.61 -1.67068 -0.493363 0
M  V30 30447 C 2972.74 -3.2995 -0.857087 0
M  V30 30448 H 2973.94 -2.86162 0.897301 0
M  V30 30449 H 2971.49 -1.47975 0.503305 0
M  V30 30450 H 2972.23 -2.77796 -1.67331 0
M  V30 30451 H 2972.01 -3.90903 -0.306098 0
M  V30 30452 H 2973.5 -3.97034 -1.29437 0
M  V30 30453 N 2973.94 -0.485139 -1.49947 0
M  V30 30454 C 2975.19 0.0667296 -2.0159 0
M  V30 30455 C 2975.5 1.39507 -1.37103 0
M  V30 30456 O 2976.71 2.0327 -1.79982 0
M  V30 30457 C 2975.16 0.169413 -3.59501 0
M  V30 30458 C 2974.77 -1.15133 -4.32953 0
M  V30 30459 C 2976.51 0.67249 -4.19139 0
M  V30 30460 C 2974.42 -1.01168 -5.82683 0
M  V30 30461 H 2973.35 0.0287126 -0.753453 0
M  V30 30462 H 2976 -0.622163 -1.72631 0
M  V30 30463 H 2974.38 0.922403 -3.85107 0
M  V30 30464 H 2975.56 -1.91638 -4.1906 0
M  V30 30465 H 2973.87 -1.58661 -3.84988 0
M  V30 30466 H 2976.47 0.794232 -5.28768 0
M  V30 30467 H 2976.81 1.66739 -3.8145 0
M  V30 30468 H 2977.35 -0.0235114 -3.97793 0
M  V30 30469 H 2974.08 -1.98036 -6.24869 0
M  V30 30470 H 2973.6 -0.287257 -5.99112 0
M  V30 30471 H 2975.28 -0.68396 -6.43375 0
M  V30 30472 N 2975.42 1.56081 -0.218307 0
M  V30 30473 C 2976.64 2.02608 0.419222 0
M  V30 30474 C 2977.06 1.09817 1.53577 0
M  V30 30475 O 2976.42 0.107181 1.82185 0
M  V30 30476 C 2976.47 3.48688 0.953894 0
M  V30 30477 O 2976.19 4.37941 -0.118127 0
M  V30 30478 C 2977.69 4.10844 1.66499 0
M  V30 30479 H 2974.91 0.663056 0.102948 0
M  V30 30480 H 2977.45 2.01757 -0.333811 0
M  V30 30481 H 2975.61 3.50165 1.65721 0
M  V30 30482 H 2976.02 5.23735 0.283267 0
M  V30 30483 H 2977.5 5.14837 1.99114 0
M  V30 30484 H 2977.97 3.55652 2.57698 0
M  V30 30485 H 2978.58 4.13208 1.00696 0
M  V30 30486 N 2976.89 -0.0551124 1.57504 0
M  V30 30487 C 2978.14 -0.752183 1.88335 0
M  V30 30488 C 2978.47 -1.76374 0.812773 0
M  V30 30489 O 2977.75 -1.9371 -0.175164 0
M  V30 30490 C 2978.03 -1.44522 3.29826 0
M  V30 30491 C 2977.88 -0.448948 4.47554 0
M  V30 30492 C 2979.2 -2.38594 3.69812 0
M  V30 30493 H 2976.32 -0.271983 0.684977 0
M  V30 30494 H 2978.96 -0.0151561 1.89994 0
M  V30 30495 H 2977.11 -2.07345 3.28543 0
M  V30 30496 H 2978.79 0.175358 4.60967 0
M  V30 30497 H 2977.03 0.234238 4.33167 0
M  V30 30498 H 2977.7 -0.971821 5.43378 0
M  V30 30499 H 2980.18 -1.85836 3.72296 0
M  V30 30500 H 2979.05 -2.84079 4.6967 0
M  V30 30501 H 2979.31 -3.24136 3.00646 0
M  V30 30502 N 2978.37 -1.54173 -0.326869 0
M  V30 30503 C 2979.32 -1.79709 -1.40316 0
M  V30 30504 C 2980.31 -0.652964 -1.47055 0
M  V30 30505 O 2981.5 -0.912867 -1.51643 0
M  V30 30506 C 2978.63 -2.02496 -2.77219 0
M  V30 30507 C 2977.71 -3.23021 -2.74806 0
M  V30 30508 N 2978.1 -4.44143 -2.42014 0
M  V30 30509 C 2976.4 -3.24528 -3.05938 0
M  V30 30510 C 2977.1 -5.26066 -2.48253 0
M  V30 30511 N 2976.08 -4.63171 -2.84559 0
M  V30 30512 H 2979.88 -2.70937 -1.13887 0
M  V30 30513 H 2977.39 -1.53323 -0.535333 0
M  V30 30514 H 2979.39 -2.18929 -3.54789 0
M  V30 30515 H 2978.05 -1.1252 -3.04581 0
M  V30 30516 H 2979.06 -4.71201 -2.14918 0
M  V30 30517 H 2975.74 -2.44575 -3.38363 0
M  V30 30518 H 2977.13 -6.3278 -2.25919 0
M  V30 30519 N 2979.85 0.58876 -1.4619 0
M  V30 30520 C 2981.26 1.17085 -1.45423 0
M  V30 30521 C 2981.61 1.9526 -0.191836 0
M  V30 30522 O 2980.74 2.04578 0.705461 0
M  V30 30523 C 2981.33 2.12999 -2.63471 0
M  V30 30524 C 2979.89 2.66545 -2.65764 0
M  V30 30525 C 2979.04 1.423 -2.38004 0
M  V30 30526 H 2981.99 0.377025 -1.54156 0
M  V30 30527 H 2982.01 2.96361 -2.38643 0
M  V30 30528 H 2981.52 1.56075 -3.55334 0
M  V30 30529 H 2979.62 3.27356 -1.77957 0
M  V30 30530 H 2979.74 3.09693 -3.6555 0
M  V30 30531 H 2978.1 1.71904 -1.87939 0
M  V30 30532 H 2978.88 0.87215 -3.32037 0
M  V30 30533 N 2981.33 1.33794 0.832883 0
M  V30 30534 C 2982.24 1.26595 1.97511 0
M  V30 30535 C 2983.25 0.175421 1.73113 0
M  V30 30536 O 2984.43 0.400097 1.97386 0
M  V30 30537 C 2981.49 1.01127 3.31624 0
M  V30 30538 C 2980.56 2.1924 3.69097 0
M  V30 30539 C 2979.79 1.94977 4.96809 0
M  V30 30540 O 2980.01 0.903054 5.63206 0
M  V30 30541 O 2978.95 2.81669 5.31927 0
M  V30 30542 H 2982.77 2.22667 2.06526 0
M  V30 30543 H 2980.36 1.139 0.966806 0
M  V30 30544 H 2982.24 0.886643 4.11967 0
M  V30 30545 H 2980.91 0.0808789 3.23599 0
M  V30 30546 H 2979.82 2.37259 2.89239 0
M  V30 30547 H 2981.15 3.10634 3.81795 0
M  V30 30548 N 2982.81 -1.05187 1.1736 0
M  V30 30549 C 2983.75 -2.12935 0.890362 0
M  V30 30550 C 2984.72 -1.65271 -0.165749 0
M  V30 30551 O 2985.91 -1.90779 -0.0285337 0
M  V30 30552 C 2983.05 -3.42658 0.409854 0
M  V30 30553 C 2982.16 -4.03995 1.53009 0
M  V30 30554 C 2981.3 -5.21636 1.00345 0
M  V30 30555 C 2980.33 -5.74981 2.09913 0
M  V30 30556 N 2979.47 -6.83923 1.58726 0
M  V30 30557 H 2984.31 -2.36502 1.81304 0
M  V30 30558 H 2981.85 -1.16023 0.904269 0
M  V30 30559 H 2983.81 -4.17047 0.112817 0
M  V30 30560 H 2982.44 -3.19273 -0.475859 0
M  V30 30561 H 2981.49 -3.27043 1.94285 0
M  V30 30562 H 2982.8 -4.39627 2.35648 0
M  V30 30563 H 2981.95 -6.03097 0.660264 0
M  V30 30564 H 2980.69 -4.8748 0.146506 0
M  V30 30565 H 2979.7 -4.9215 2.45089 0
M  V30 30566 H 2980.92 -6.11185 2.96024 0
M  V30 30567 H 2978.87 -6.51664 0.753029 0
M  V30 30568 H 2978.79 -7.18557 2.34972 0
M  V30 30569 H 2980.05 -7.69035 1.273 0
M  V30 30570 N 2984.28 -0.97385 -1.23911 0
M  V30 30571 C 2985.53 -0.637851 -1.9177 0
M  V30 30572 C 2985.85 0.830404 -1.76435 0
M  V30 30573 O 2985.12 1.59337 -1.13968 0
M  V30 30574 H 2983.7 -0.232925 -0.709757 0
M  V30 30575 H 2986.36 -1.23625 -1.50675 0
M  V30 30576 H 2985.46 -0.883783 -2.99325 0
M  V30 30577 N 2985.76 1.38895 -0.744705 0
M  V30 30578 C 2986.99 2.04306 -0.307018 0
M  V30 30579 C 2987.4 1.56277 1.0665 0
M  V30 30580 O 2986.74 0.72711 1.68697 0
M  V30 30581 C 2986.8 3.5869 -0.241249 0
M  V30 30582 C 2986.47 4.29737 -1.55483 0
M  V30 30583 C 2987.47 4.55716 -2.50237 0
M  V30 30584 C 2985.15 4.68097 -1.82181 0
M  V30 30585 C 2987.14 5.19078 -3.69915 0
M  V30 30586 C 2984.83 5.31185 -3.02135 0
M  V30 30587 C 2985.83 5.56609 -3.95822 0
M  V30 30588 O 2985.52 6.18386 -5.13667 0
M  V30 30589 H 2985.25 0.663298 -0.130427 0
M  V30 30590 H 2987.8 1.78742 -1.01195 0
M  V30 30591 H 2986.03 3.8319 0.519858 0
M  V30 30592 H 2987.72 4.05562 0.165734 0
M  V30 30593 H 2988.49 4.26518 -2.30884 0
M  V30 30594 H 2984.37 4.4766 -1.10099 0
M  V30 30595 H 2987.91 5.38839 -4.43056 0
M  V30 30596 H 2983.81 5.59806 -3.21384 0
M  V30 30597 H 2984.58 6.36877 -5.14131 0
M  V30 30598 N 2987.24 0.493084 1.49688 0
M  V30 30599 C 2988.17 -0.279033 2.31827 0
M  V30 30600 C 2989.15 -0.969962 1.39735 0
M  V30 30601 O 2990.34 -0.962895 1.68647 0
M  V30 30602 C 2987.47 -1.34857 3.20048 0
M  V30 30603 C 2986.42 -0.777976 4.2087 0
M  V30 30604 C 2985.75 -1.94744 4.97975 0
M  V30 30605 C 2987.05 0.225635 5.21812 0
M  V30 30606 H 2988.74 0.406564 2.96627 0
M  V30 30607 H 2986.29 0.196968 1.42647 0
M  V30 30608 H 2988.24 -1.89638 3.76318 0
M  V30 30609 H 2986.96 -2.06324 2.53176 0
M  V30 30610 H 2985.62 -0.251972 3.65733 0
M  V30 30611 H 2985.27 -2.64961 4.27557 0
M  V30 30612 H 2984.97 -1.57177 5.66188 0
M  V30 30613 H 2986.49 -2.49974 5.57086 0
M  V30 30614 H 2987.91 -0.233763 5.72823 0
M  V30 30615 H 2986.31 0.516727 5.97871 0
M  V30 30616 H 2987.38 1.1442 4.71207 0
M  V30 30617 N 2988.72 -1.55963 0.226582 0
M  V30 30618 C 2989.97 -1.98434 -0.403754 0
M  V30 30619 C 2990.29 -1.11433 -1.59414 0
M  V30 30620 O 2989.55 -0.160424 -1.95041 0
M  V30 30621 C 2989.85 -3.46489 -0.876359 0
M  V30 30622 C 2989.51 -4.50438 0.204053 0
M  V30 30623 C 2988.18 -4.78587 0.500838 0
M  V30 30624 C 2990.53 -5.12754 0.934487 0
M  V30 30625 C 2987.86 -5.66332 1.53249 0
M  V30 30626 C 2990.21 -6.01617 1.95551 0
M  V30 30627 C 2988.87 -6.28107 2.25916 0
M  V30 30628 H 2988.14 -0.726122 -0.147744 0
M  V30 30629 H 2990.79 -1.88633 0.330154 0
M  V30 30630 H 2989.09 -3.5352 -1.68912 0
M  V30 30631 H 2990.79 -3.76726 -1.374 0
M  V30 30632 H 2987.38 -4.28584 -0.0374164 0
M  V30 30633 H 2991.56 -4.91072 0.718442 0
M  V30 30634 H 2986.82 -5.85118 1.77331 0
M  V30 30635 H 2990.99 -6.48952 2.52653 0
M  V30 30636 H 2988.62 -6.95895 3.05997 0
M  V30 30637 N 2990.2 0.0467589 -1.57531 0
M  V30 30638 C 2991.44 0.736803 -1.89586 0
M  V30 30639 C 2991.8 1.739 -0.823201 0
M  V30 30640 O 2991.09 1.90844 0.170065 0
M  V30 30641 C 2991.28 1.4628 -3.26094 0
M  V30 30642 C 2991.11 0.532424 -4.46537 0
M  V30 30643 C 2989.88 0.16002 -5.05047 0
M  V30 30644 C 2992.08 -0.181645 -5.13979 0
M  V30 30645 N 2990.06 -0.773456 -6.09008 0
M  V30 30646 C 2991.43 -0.971404 -6.12343 0
M  V30 30647 C 2993.49 -0.250469 -4.9727 0
M  V30 30648 C 2992.19 -1.82363 -6.95799 0
M  V30 30649 C 2994.22 -1.08976 -5.81273 0
M  V30 30650 C 2993.58 -1.86749 -6.79194 0
M  V30 30651 H 2989.68 0.244264 -0.742872 0
M  V30 30652 H 2992.26 -0.00258232 -1.947 0
M  V30 30653 H 2990.43 2.17275 -3.21941 0
M  V30 30654 H 2992.17 2.10383 -3.45718 0
M  V30 30655 H 2988.92 0.518374 -4.70755 0
M  V30 30656 H 2989.35 -1.23418 -6.65655 0
M  V30 30657 H 2993.99 0.336504 -4.21459 0
M  V30 30658 H 2991.71 -2.42148 -7.70967 0
M  V30 30659 H 2995.29 -1.14631 -5.70395 0
M  V30 30660 H 2994.17 -2.50644 -7.43066 0
M  V30 30661 N 2991.67 1.54344 0.318688 0
M  V30 30662 C 2992.9 1.76752 1.07547 0
M  V30 30663 C 2993.32 0.518454 1.81542 0
M  V30 30664 O 2992.67 -0.511047 1.75199 0
M  V30 30665 C 2992.73 2.96382 2.06978 0
M  V30 30666 O 2992.45 4.1646 1.35988 0
M  V30 30667 C 2993.95 3.31039 2.94835 0
M  V30 30668 H 2991.17 0.589943 0.319701 0
M  V30 30669 H 2993.71 2.01246 0.363333 0
M  V30 30670 H 2991.87 2.74147 2.73719 0
M  V30 30671 H 2992.28 4.83785 2.02615 0
M  V30 30672 H 2993.75 4.18033 3.60489 0
M  V30 30673 H 2994.23 2.48418 3.62195 0
M  V30 30674 H 2994.84 3.5537 2.3365 0
M  V30 30675 N 2993.15 -0.580999 1.465 0
M  V30 30676 C 2994.06 -1.71776 1.59781 0
M  V30 30677 C 2995.08 -1.67212 0.481252 0
M  V30 30678 O 2996.25 -1.8709 0.745603 0
M  V30 30679 C 2993.32 -3.0828 1.58632 0
M  V30 30680 C 2992.38 -3.24095 2.81533 0
M  V30 30681 C 2991.61 -4.54087 2.80429 0
M  V30 30682 O 2991.84 -5.38082 1.89272 0
M  V30 30683 O 2990.77 -4.73186 3.71993 0
M  V30 30684 H 2994.6 -1.63518 2.55921 0
M  V30 30685 H 2992.18 -0.748245 1.29312 0
M  V30 30686 H 2994.06 -3.89558 1.60693 0
M  V30 30687 H 2992.74 -3.16972 0.656523 0
M  V30 30688 H 2991.65 -2.42304 2.85025 0
M  V30 30689 H 2992.98 -3.20295 3.73727 0
M  V30 30690 N 2994.63 -1.34234 -0.825776 0
M  V30 30691 C 2995.88 -1.27626 -1.58377 0
M  V30 30692 C 2996.23 0.153197 -1.91789 0
M  V30 30693 O 2995.52 1.09873 -1.56967 0
M  V30 30694 C 2995.72 -2.09777 -2.89358 0
M  V30 30695 C 2995.55 -3.60567 -2.68741 0
M  V30 30696 C 2994.32 -4.29852 -2.65622 0
M  V30 30697 C 2996.52 -4.54627 -2.40455 0
M  V30 30698 N 2994.5 -5.66508 -2.3652 0
M  V30 30699 C 2995.87 -5.79266 -2.21022 0
M  V30 30700 C 2997.92 -4.43572 -2.2616 0
M  V30 30701 C 2996.63 -6.94096 -1.88742 0
M  V30 30702 C 2998.65 -5.58231 -1.95274 0
M  V30 30703 C 2998.01 -6.81887 -1.76662 0
M  V30 30704 H 2994.11 -0.522244 -0.582052 0
M  V30 30705 H 2996.7 -1.68916 -0.968278 0
M  V30 30706 H 2994.87 -1.70789 -3.48835 0
M  V30 30707 H 2996.6 -1.94837 -3.54712 0
M  V30 30708 H 2993.36 -3.82262 -2.79594 0
M  V30 30709 H 2993.78 -6.38582 -2.24816 0
M  V30 30710 H 2998.42 -3.48592 -2.39256 0
M  V30 30711 H 2996.14 -7.8906 -1.74383 0
M  V30 30712 H 2999.73 -5.5162 -1.84949 0
M  V30 30713 H 2998.61 -7.69108 -1.53109 0
M  V30 30714 N 2996.11 1.04563 -1.17917 0
M  V30 30715 C 2997.36 1.77326 -0.969536 0
M  V30 30716 C 2997.68 1.88413 0.502536 0
M  V30 30717 O 2996.95 1.4055 1.36465 0
M  V30 30718 H 2995.53 0.656858 -0.355734 0
M  V30 30719 H 2998.19 1.2622 -1.48508 0
M  V30 30720 H 2997.29 2.78773 -1.40329 0
M  V30 30721 N 2997.59 0.980408 1.23393 0
M  V30 30722 C 2998.52 0.478696 2.24145 0
M  V30 30723 C 2999.53 -0.419464 1.57303 0
M  V30 30724 O 3000.72 -0.223599 1.77094 0
M  V30 30725 C 2997.82 -0.326854 3.3732 0
M  V30 30726 C 2996.99 0.564436 4.33743 0
M  V30 30727 C 2996.05 -0.187265 5.25867 0
M  V30 30728 O 2995.08 0.423118 5.67625 0
M  V30 30729 N 2996.28 -1.47325 5.61494 0
M  V30 30730 H 2999.05 1.34501 2.67824 0
M  V30 30731 H 2996.61 0.853677 1.37564 0
M  V30 30732 H 2998.6 -0.838078 3.95927 0
M  V30 30733 H 2997.17 -1.09417 2.92825 0
M  V30 30734 H 2996.39 1.25649 3.73639 0
M  V30 30735 H 2997.68 1.17186 4.95121 0
M  V30 30736 H 2997.07 -1.99067 5.29517 0
M  V30 30737 H 2995.63 -1.92991 6.22573 0
M  V30 30738 N 2999.06 -1.38498 0.75206 0
M  V30 30739 C 3000.29 -2.0414 0.317848 0
M  V30 30740 C 3000.7 -1.5684 -1.05819 0
M  V30 30741 O 3000.05 -0.736046 -1.68309 0
M  V30 30742 C 3000.11 -3.58557 0.260268 0
M  V30 30743 C 2999.77 -4.28906 1.5776 0
M  V30 30744 C 3000.77 -4.54383 2.5265 0
M  V30 30745 C 2998.45 -4.67125 1.84661 0
M  V30 30746 C 3000.45 -5.17109 3.72662 0
M  V30 30747 C 2998.13 -5.29576 3.04947 0
M  V30 30748 C 2999.13 -5.54502 3.98768 0
M  V30 30749 O 2998.82 -6.15653 5.16939 0
M  V30 30750 H 2998.55 -0.662597 0.133943 0
M  V30 30751 H 3001.11 -1.78203 1.02141 0
M  V30 30752 H 2999.34 -3.8346 -0.499529 0
M  V30 30753 H 3001.03 -4.05644 -0.144224 0
M  V30 30754 H 3001.79 -4.25287 2.33143 0
M  V30 30755 H 2997.67 -4.4707 1.12472 0
M  V30 30756 H 3001.21 -5.36481 4.45908 0
M  V30 30757 H 2997.11 -5.58093 3.24348 0
M  V30 30758 H 2997.88 -6.34141 5.17501 0
M  V30 30759 N 3000.54 -0.501015 -1.49424 0
M  V30 30760 C 3001.95 -0.0532339 -1.86624 0
M  V30 30761 C 3002.3 1.36086 -1.41334 0
M  V30 30762 O 3001.43 2.01416 -0.791231 0
M  V30 30763 C 3002.02 -0.0898288 -3.38681 0
M  V30 30764 C 3000.58 0.302611 -3.75182 0
M  V30 30765 C 2999.73 -0.462355 -2.73418 0
M  V30 30766 H 3002.68 -0.713798 -1.41741 0
M  V30 30767 H 3002.7 0.705463 -3.73903 0
M  V30 30768 H 3002.21 -1.11914 -3.71614 0
M  V30 30769 H 3000.32 1.33515 -3.47857 0
M  V30 30770 H 3000.43 -0.0168495 -4.79097 0
M  V30 30771 H 2998.79 0.087811 -2.54549 0
M  V30 30772 H 2999.58 -1.49174 -3.09196 0
M  V30 30773 N 3002.02 1.5584 -0.234849 0
M  V30 30774 C 3003.44 1.59146 0.120267 0
M  V30 30775 C 3003.64 1.25187 1.57894 0
M  V30 30776 O 3002.69 0.993434 2.32136 0
M  V30 30777 C 3004.01 2.99908 -0.218036 0
M  V30 30778 C 3005.55 3.12584 -0.161353 0
M  V30 30779 C 3006.03 4.55546 -0.473518 0
M  V30 30780 N 3007.52 4.61259 -0.423575 0
M  V30 30781 C 3008.26 5.69835 -0.638434 0
M  V30 30782 N 3007.75 6.86721 -0.915779 0
M  V30 30783 N 3009.54 5.59203 -0.569962 0
M  V30 30784 H 3001.7 1.76187 -1.18625 0
M  V30 30785 H 3003.96 0.819579 -0.47644 0
M  V30 30786 H 3003.66 3.29455 -1.23096 0
M  V30 30787 H 3003.54 3.74377 0.460641 0
M  V30 30788 H 3005.93 2.82826 0.842224 0
M  V30 30789 H 3006.01 2.40416 -0.873703 0
M  V30 30790 H 3005.65 4.86023 -1.47459 0
M  V30 30791 H 3005.58 5.25957 0.260175 0
M  V30 30792 H 3008.07 3.77274 -0.217449 0
M  V30 30793 H 3008.38 7.65392 -1.06747 0
M  V30 30794 H 3006.73 6.88433 -0.953121 0
M  V30 30795 H 3009.92 4.66764 -0.353422 0
M  V30 30796 H 3010.09 6.43751 -0.740811 0
M  V30 30797 N 3003.5 -0.038404 1.57553 0
M  V30 30798 C 3004.75 -0.730075 1.88023 0
M  V30 30799 C 3005.06 -1.77017 0.832121 0
M  V30 30800 O 3006.27 -2.51378 1.02574 0
M  V30 30801 C 3004.72 -1.34954 3.3364 0
M  V30 30802 C 3004.33 -0.346274 4.4666 0
M  V30 30803 C 3006.08 -2.02163 3.7327 0
M  V30 30804 C 3003.98 -0.973549 5.83332 0
M  V30 30805 H 3002.91 -0.276429 0.7015 0
M  V30 30806 H 3005.56 0.0158351 1.83493 0
M  V30 30807 H 3003.95 -2.14484 3.32885 0
M  V30 30808 H 3005.12 0.421638 4.58867 0
M  V30 30809 H 3003.43 0.223207 4.15801 0
M  V30 30810 H 3006.03 -2.4993 4.72694 0
M  V30 30811 H 3006.37 -2.83574 3.04781 0
M  V30 30812 H 3006.91 -1.2942 3.76159 0
M  V30 30813 H 3003.65 -0.199048 6.55198 0
M  V30 30814 H 3003.17 -1.71152 5.74863 0
M  V30 30815 H 3004.85 -1.48365 6.29759 0
M  V30 30816 N 3004.98 -1.54511 -0.310498 0
M  V30 30817 C 3005.89 -1.87847 -1.40537 0
M  V30 30818 C 3006.9 -0.771662 -1.55953 0
M  V30 30819 O 3008.08 -1.06722 -1.70799 0
M  V30 30820 C 3005.14 -2.11053 -2.75059 0
M  V30 30821 C 3004.21 -3.34805 -2.68709 0
M  V30 30822 C 3003.44 -3.56894 -3.96815 0
M  V30 30823 O 3003.66 -2.82173 -4.95716 0
M  V30 30824 O 3002.6 -4.50396 -3.99283 0
M  V30 30825 H 3006.42 -2.80974 -1.15271 0
M  V30 30826 H 3004.01 -1.40581 -0.505707 0
M  V30 30827 H 3005.89 -2.27572 -3.54667 0
M  V30 30828 H 3004.56 -1.21113 -3.00189 0
M  V30 30829 H 3003.47 -3.23659 -1.87605 0
M  V30 30830 H 3004.8 -4.24844 -2.48532 0
M  V30 30831 N 3006.46 0.573222 -1.46806 0
M  V30 30832 C 3007.87 0.897554 -1.3197 0
M  V30 30833 C 3008.07 1.99281 -0.298206 0
M  V30 30834 O 3007.13 2.5076 0.295909 0
M  V30 30835 C 3008.44 1.30593 -2.70861 0
M  V30 30836 C 3009.99 1.41825 -2.79024 0
M  V30 30837 C 3010.46 1.86025 -4.18519 0
M  V30 30838 N 3011.95 1.93203 -4.20983 0
M  V30 30839 C 3012.69 2.28698 -5.25818 0
M  V30 30840 N 3012.19 2.62919 -6.40972 0
M  V30 30841 N 3013.98 2.29334 -5.13188 0
M  V30 30842 H 3006.13 -0.150131 -2.11869 0
M  V30 30843 H 3008.39 -0.00449562 -0.947989 0
M  V30 30844 H 3008.1 0.5751 -3.46966 0
M  V30 30845 H 3007.97 2.26548 -3.01589 0
M  V30 30846 H 3010.36 2.13993 -2.03202 0
M  V30 30847 H 3010.44 0.440979 -2.5197 0
M  V30 30848 H 3010.08 1.14433 -4.94841 0
M  V30 30849 H 3010.01 2.84728 -4.42987 0
M  V30 30850 H 3012.51 1.69208 -3.37901 0
M  V30 30851 H 3012.82 2.88984 -7.16734 0
M  V30 30852 H 3011.16 2.60535 -6.44318 0
M  V30 30853 H 3014.35 2.02029 -4.22258 0
M  V30 30854 H 3014.53 2.56668 -5.95 0
M  V30 30855 N 3007.93 1.3467 0.818645 0
M  V30 30856 C 3009.16 1.30508 1.61191 0
M  V30 30857 C 3009.58 -0.117308 1.87734 0
M  V30 30858 O 3008.94 -1.08039 1.45592 0
M  V30 30859 C 3008.99 2.10575 2.92729 0
M  V30 30860 O 3008.09 1.4782 3.84997 0
M  V30 30861 H 3007.43 0.448019 0.490077 0
M  V30 30862 H 3009.96 1.77535 1.01697 0
M  V30 30863 H 3009.97 2.22088 3.42258 0
M  V30 30864 H 3008.65 3.13988 2.72735 0
M  V30 30865 H 3007.23 1.45075 3.43522 0
M  V30 30866 N 3009.41 -1.03936 1.1847 0
M  V30 30867 C 3010.83 -1.29369 0.934658 0
M  V30 30868 C 3011.03 -1.97509 -0.399033 0
M  V30 30869 O 3010.08 -2.2565 -1.13305 0
M  V30 30870 C 3011.4 -2.1511 2.10115 0
M  V30 30871 C 3012.94 -2.28452 2.13959 0
M  V30 30872 C 3013.42 -3.1756 3.3003 0
M  V30 30873 N 3014.91 -3.25148 3.29899 0
M  V30 30874 C 3015.65 -3.94256 4.16353 0
M  V30 30875 N 3015.14 -4.65684 5.12943 0
M  V30 30876 N 3016.93 -3.90548 4.04263 0
M  V30 30877 H 3009.09 -0.581149 2.04295 0
M  V30 30878 H 3011.35 -0.318955 0.892733 0
M  V30 30879 H 3011.05 -1.7235 3.06575 0
M  V30 30880 H 3010.93 -3.15792 2.06289 0
M  V30 30881 H 3013.32 -2.70448 1.18076 0
M  V30 30882 H 3013.4 -1.27356 2.21842 0
M  V30 30883 H 3013.04 -2.76276 4.26186 0
M  V30 30884 H 3012.97 -4.18691 3.19383 0
M  V30 30885 H 3015.46 -2.74266 2.59974 0
M  V30 30886 H 3015.77 -5.16016 5.7528 0
M  V30 30887 H 3014.12 -4.64584 5.16901 0
M  V30 30888 H 3017.31 -3.33879 3.28089 0
M  V30 30889 H 3017.48 -4.44136 4.71856 0
M  V30 30890 N 3010.89 -0.986938 -1.22871 0
M  V30 30891 C 3011.82 -0.552104 -2.26879 0
M  V30 30892 C 3012.8 0.418019 -1.64884 0
M  V30 30893 O 3013.99 0.309957 -1.9171 0
M  V30 30894 C 3011.12 0.139898 -3.47018 0
M  V30 30895 C 3010.07 -0.748165 -4.2141 0
M  V30 30896 C 3009.4 0.0764192 -5.34645 0
M  V30 30897 C 3010.7 -2.04214 -4.80722 0
M  V30 30898 H 3012.39 -1.42147 -2.63504 0
M  V30 30899 H 3009.94 -0.684942 -1.26667 0
M  V30 30900 H 3011.89 0.455453 -4.18931 0
M  V30 30901 H 3010.61 1.04377 -3.09472 0
M  V30 30902 H 3009.27 -1.04727 -3.51323 0
M  V30 30903 H 3008.92 0.981023 -4.93341 0
M  V30 30904 H 3008.62 -0.514709 -5.85341 0
M  V30 30905 H 3010.14 0.386206 -6.09377 0
M  V30 30906 H 3011.56 -1.79093 -5.44609 0
M  V30 30907 H 3009.95 -2.58159 -5.41732 0
M  V30 30908 H 3011.02 -2.72476 -4.01105 0
M  V30 30909 N 3012.37 1.38098 -0.759394 0
M  V30 30910 C 3013.64 1.9408 -0.243405 0
M  V30 30911 C 3014.02 1.69419 1.25939 0
M  V30 30912 O 3013.37 1.03599 2.03665 0
M  V30 30913 C 3013.58 3.43744 -0.603389 0
M  V30 30914 C 3014.93 4.20807 -0.566269 0
M  V30 30915 O 3015.95 3.52052 -0.542031 0
M  V30 30916 O 3014.81 5.43388 -0.582357 0
M  V30 30917 H 3011.91 0.825319 -0.052697 0
M  V30 30918 H 3014.45 1.47457 -0.83991 0
M  V30 30919 H 3013.23 3.55226 -1.64104 0
M  V30 30920 H 3012.85 3.97595 0.0208188 0
M  V30 30921 N 3013.85 0.508932 1.49156 0
M  V30 30922 C 3015.09 -0.032698 2.02074 0
M  V30 30923 C 3015.41 -1.36748 1.39014 0
M  V30 30924 O 3014.68 -1.88074 0.548186 0
M  V30 30925 H 3013.26 -0.0150733 0.746848 0
M  V30 30926 H 3015.93 0.667979 1.83096 0
M  V30 30927 H 3015.02 -0.156545 3.11707 0
M  V30 30928 N 3015.32 -1.55714 0.243111 0
M  V30 30929 C 3016.55 -2.0325 -0.386936 0
M  V30 30930 C 3016.97 -1.12246 -1.5181 0
M  V30 30931 O 3016.32 -0.136151 -1.81991 0
M  V30 30932 C 3016.37 -3.50161 -0.8983 0
M  V30 30933 O 3016.1 -4.37697 0.187784 0
M  V30 30934 C 3017.6 -4.13441 -1.59942 0
M  V30 30935 H 3014.82 -0.664609 -0.0923864 0
M  V30 30936 H 3017.36 -2.01201 0.365867 0
M  V30 30937 H 3015.52 -3.52757 -1.60129 0
M  V30 30938 H 3015.93 -5.24119 -0.199909 0
M  V30 30939 H 3017.4 -5.1794 -1.90898 0
M  V30 30940 H 3017.88 -3.59707 -2.52008 0
M  V30 30941 H 3018.49 -4.14757 -0.94109 0
M  V30 30942 N 3016.8 0.030048 -1.57571 0
M  V30 30943 C 3017.71 1.04794 -2.09893 0
M  V30 30944 C 3018.73 1.39697 -1.03735 0
M  V30 30945 O 3019.9 1.49036 -1.35464 0
M  V30 30946 C 3016.97 2.33024 -2.56712 0
M  V30 30947 C 3016.03 2.04712 -3.77348 0
M  V30 30948 C 3015.26 3.26827 -4.21924 0
M  V30 30949 O 3015.49 4.37466 -3.66033 0
M  V30 30950 O 3014.42 3.12585 -5.14368 0
M  V30 30951 H 3018.25 0.633292 -2.97024 0
M  V30 30952 H 3015.83 0.246966 -1.47345 0
M  V30 30953 H 3017.71 3.08411 -2.87159 0
M  V30 30954 H 3016.39 2.73786 -1.72693 0
M  V30 30955 H 3015.3 1.26895 -3.51921 0
M  V30 30956 H 3016.63 1.68805 -4.62348 0
M  V30 30957 N 3018.28 1.54674 0.3023 0
M  V30 30958 C 3019.7 1.45858 0.647886 0
M  V30 30959 C 3019.9 0.648724 1.90772 0
M  V30 30960 O 3018.95 0.155909 2.52018 0
M  V30 30961 C 3020.27 2.89805 0.802093 0
M  V30 30962 C 3021.81 2.9984 0.898062 0
M  V30 30963 C 3022.29 4.4498 1.08428 0
M  V30 30964 N 3023.78 4.48684 1.15051 0
M  V30 30965 C 3024.51 5.58168 1.31287 0
M  V30 30966 N 3024.01 6.77578 1.44428 0
M  V30 30967 N 3025.8 5.45854 1.34164 0
M  V30 30968 H 3017.95 2.05798 -0.525464 0
M  V30 30969 H 3020.22 0.931999 -0.173439 0
M  V30 30970 H 3019.92 3.5166 -0.0527149 0
M  V30 30971 H 3019.8 3.37148 1.69149 0
M  V30 30972 H 3022.18 2.38099 1.74336 0
M  V30 30973 H 3022.27 2.55795 -0.0153202 0
M  V30 30974 H 3021.91 5.07315 0.243753 0
M  V30 30975 H 3021.84 4.86654 2.01186 0
M  V30 30976 H 3024.33 3.62655 1.06253 0
M  V30 30977 H 3024.64 7.56774 1.56568 0
M  V30 30978 H 3022.99 6.80446 1.41487 0
M  V30 30979 H 3026.18 4.51512 1.23508 0
M  V30 30980 H 3026.35 6.31228 1.46474 0
M  V30 30981 N 3019.76 -0.565428 1.47108 0
M  V30 30982 C 3021 -1.32492 1.53537 0
M  V30 30983 C 3021.34 -1.93233 0.193571 0
M  V30 30984 O 3020.61 -1.77424 -0.796925 0
M  V30 30985 C 3020.9 -2.44126 2.64716 0
M  V30 30986 C 3020.75 -1.88307 4.08486 0
M  V30 30987 C 3022.07 -3.46093 2.71859 0
M  V30 30988 H 3019.19 -0.480376 0.558935 0
M  V30 30989 H 3021.83 -0.633544 1.79126 0
M  V30 30990 H 3019.98 -3.031 2.43028 0
M  V30 30991 H 3021.65 -1.33657 4.41513 0
M  V30 30992 H 3019.89 -1.1903 4.1715 0
M  V30 30993 H 3020.56 -2.6897 4.82036 0
M  V30 30994 H 3023.04 -2.97025 2.91402 0
M  V30 30995 H 3021.92 -4.2164 3.51441 0
M  V30 30996 H 3022.18 -4.04423 1.78591 0
M  V30 30997 N 3021.24 -1.35102 -0.811492 0
M  V30 30998 C 3022.48 -1.2829 -1.57065 0
M  V30 30999 C 3022.82 0.143774 -1.93667 0
M  V30 31000 O 3022.09 1.09196 -1.60955 0
M  V30 31001 C 3022.37 -2.18471 -2.86256 0
M  V30 31002 C 3022.23 -3.69732 -2.56161 0
M  V30 31003 C 3023.55 -2.07859 -3.87921 0
M  V30 31004 H 3020.66 -0.467363 -0.569861 0
M  V30 31005 H 3023.31 -1.65459 -0.933994 0
M  V30 31006 H 3021.46 -1.86904 -3.40587 0
M  V30 31007 H 3023.13 -4.11719 -2.08052 0
M  V30 31008 H 3021.37 -3.90255 -1.89429 0
M  V30 31009 H 3022.04 -4.28212 -3.48336 0
M  V30 31010 H 3024.52 -2.35599 -3.42976 0
M  V30 31011 H 3023.39 -2.73165 -4.76101 0
M  V30 31012 H 3023.66 -1.05903 -4.29228 0
M  V30 31013 N 3022.71 1.03306 -1.19019 0
M  V30 31014 C 3023.64 2.13401 -0.947757 0
M  V30 31015 C 3024.63 1.69695 0.117353 0
M  V30 31016 O 3025.81 1.94165 -0.0368074 0
M  V30 31017 C 3022.94 3.43952 -0.481037 0
M  V30 31018 C 3021.89 4.01319 -1.4875 0
M  V30 31019 C 3021.22 5.27442 -0.878017 0
M  V30 31020 C 3022.52 4.36611 -2.8665 0
M  V30 31021 H 3024.21 2.33939 -1.8685 0
M  V30 31022 H 3021.76 1.12426 -0.899801 0
M  V30 31023 H 3023.71 4.2034 -0.298751 0
M  V30 31024 H 3022.44 3.23123 0.475291 0
M  V30 31025 H 3021.1 3.27022 -1.65686 0
M  V30 31026 H 3020.74 5.02927 0.0857348 0
M  V30 31027 H 3020.44 5.66786 -1.55006 0
M  V30 31028 H 3021.97 6.065 -0.706433 0
M  V30 31029 H 3023.38 5.03953 -2.73321 0
M  V30 31030 H 3021.78 4.87026 -3.50608 0
M  V30 31031 H 3022.85 3.46099 -3.39623 0
M  V30 31032 N 3024.19 0.99344 1.22346 0
M  V30 31033 C 3025.44 0.670594 1.91392 0
M  V30 31034 C 3025.77 -0.795397 1.77164 0
M  V30 31035 O 3025.05 -1.57526 1.14086 0
M  V30 31036 C 3025.33 1.07796 3.43587 0
M  V30 31037 C 3025.18 2.60254 3.66862 0
M  V30 31038 C 3026.5 0.631603 4.35544 0
M  V30 31039 H 3023.62 0.245093 0.695053 0
M  V30 31040 H 3026.26 1.23706 1.44211 0
M  V30 31041 H 3024.41 0.595969 3.83902 0
M  V30 31042 H 3026.08 3.16127 3.35948 0
M  V30 31043 H 3024.33 3.02298 3.11124 0
M  V30 31044 H 3025 2.83808 4.73452 0
M  V30 31045 H 3027.47 1.04561 4.02748 0
M  V30 31046 H 3026.35 0.944926 5.40705 0
M  V30 31047 H 3026.61 -0.467701 4.39619 0
M  V30 31048 N 3025.67 -1.37693 0.766707 0
M  V30 31049 C 3026.62 -2.32194 0.13731 0
M  V30 31050 C 3027.61 -1.54682 -0.690642 0
M  V30 31051 O 3028.82 -1.70116 -0.588269 0
M  V30 31052 H 3025.19 -0.751564 0.0256135 0
M  V30 31053 H 3027.16 -2.82868 0.950179 0
M  V30 31054 C 3025.91 -3.39921 -0.731387 0
M  V30 31055 H 3025.24 -3.99666 -0.103668 0
M  V30 31056 H 3026.68 -4.0842 -1.13884 0
M  V30 31057 C 3025.14 -2.79581 -1.87979 0
M  V30 31058 O 3025.67 -2.6993 -2.97491 0
M  V30 31059 N 3023.87 -2.37198 -1.67885 0
M  V30 31060 H 3023.42 -2.45248 -0.788119 0
M  V30 31061 H 3023.38 -1.9717 -2.44891 0
M  V30 31062 N 3027.15 -0.516835 -1.48884 0
M  V30 31063 C 3028.39 0.0220572 -2.02788 0
M  V30 31064 C 3028.73 1.35172 -1.39435 0
M  V30 31065 O 3028 1.86983 -0.535492 0
M  V30 31066 C 3028.29 0.157949 -3.59753 0
M  V30 31067 C 3028.14 -1.19596 -4.33609 0
M  V30 31068 C 3029.46 0.891058 -4.30985 0
M  V30 31069 H 3026.58 0.00654193 -0.736971 0
M  V30 31070 H 3029.22 -0.671318 -1.77745 0
M  V30 31071 H 3027.37 0.748501 -3.81221 0
M  V30 31072 H 3029.04 -1.82661 -4.23595 0
M  V30 31073 H 3027.28 -1.78123 -3.95544 0
M  V30 31074 H 3027.95 -1.05401 -5.41844 0
M  V30 31075 H 3030.43 0.390047 -4.14268 0
M  V30 31076 H 3029.31 0.955012 -5.40528 0
M  V30 31077 H 3029.57 1.9384 -3.97339 0
M  V30 31078 N 3028.63 1.55583 -0.251365 0
M  V30 31079 C 3029.85 2.03906 0.3791 0
M  V30 31080 C 3030.28 1.12931 1.50426 0
M  V30 31081 O 3029.63 0.123146 1.80881 0
M  V30 31082 C 3029.68 3.50194 0.860028 0
M  V30 31083 O 3028.79 3.62345 1.96926 0
M  V30 31084 H 3028.13 0.658916 0.0820067 0
M  V30 31085 H 3030.66 2.01064 -0.378727 0
M  V30 31086 H 3030.67 3.91101 1.16207 0
M  V30 31087 H 3029.34 4.15884 0.0366828 0
M  V30 31088 H 3027.92 3.33336 1.67157 0
M  V30 31089 N 3030.1 -0.0216912 1.57585 0
M  V30 31090 C 3031.35 -0.710091 1.88787 0
M  V30 31091 C 3031.67 -1.76125 0.85085 0
M  V30 31092 O 3032.87 -2.50276 1.05235 0
M  V30 31093 C 3031.33 -1.31407 3.35052 0
M  V30 31094 C 3030.94 -0.29888 4.47002 0
M  V30 31095 C 3032.68 -1.98192 3.75393 0
M  V30 31096 C 3030.59 -0.911624 5.84332 0
M  V30 31097 H 3029.52 -0.268973 0.704393 0
M  V30 31098 H 3032.17 0.0352961 1.83466 0
M  V30 31099 H 3030.55 -2.10941 3.35141 0
M  V30 31100 H 3031.72 0.470284 4.58394 0
M  V30 31101 H 3030.04 0.267295 4.15541 0
M  V30 31102 H 3032.64 -2.44902 4.75318 0
M  V30 31103 H 3032.98 -2.80326 3.07771 0
M  V30 31104 H 3033.51 -1.25423 3.7751 0
M  V30 31105 H 3030.25 -0.129544 6.55372 0
M  V30 31106 H 3029.77 -1.65045 5.76646 0
M  V30 31107 H 3031.45 -1.41677 6.31298 0
M  V30 31108 N 3031.58 -1.54832 -0.294093 0
M  V30 31109 C 3032.81 -1.78767 -1.05153 0
M  V30 31110 C 3033.23 -0.548841 -1.79915 0
M  V30 31111 O 3032.59 0.500878 -1.74244 0
M  V30 31112 C 3032.64 -2.99896 -2.00236 0
M  V30 31113 O 3031.74 -2.73504 -3.08657 0
M  V30 31114 H 3031.08 -0.591487 -0.301727 0
M  V30 31115 H 3033.61 -2.01931 -0.329414 0
M  V30 31116 H 3033.62 -3.28056 -2.42577 0
M  V30 31117 H 3032.3 -3.8972 -1.45229 0
M  V30 31118 H 3030.88 -2.56382 -2.70782 0
M  V30 31119 N 3033.06 0.557619 -1.47405 0
M  V30 31120 C 3034.31 1.31446 -1.55221 0
M  V30 31121 C 3034.66 1.91234 -0.211491 0
M  V30 31122 O 3033.96 1.74881 0.782764 0
M  V30 31123 C 3034.15 2.44571 -2.60614 0
M  V30 31124 C 3033.98 1.95868 -4.04804 0
M  V30 31125 C 3032.75 1.7973 -4.72256 0
M  V30 31126 C 3034.95 1.5034 -4.91836 0
M  V30 31127 N 3032.93 1.25361 -6.00964 0
M  V30 31128 C 3034.3 1.07734 -6.10568 0
M  V30 31129 C 3036.35 1.38387 -4.78282 0
M  V30 31130 C 3035.06 0.54364 -7.17243 0
M  V30 31131 C 3037.08 0.86419 -5.85052 0
M  V30 31132 C 3036.45 0.448057 -7.02974 0
M  V30 31133 H 3032.54 0.473039 -0.622703 0
M  V30 31134 H 3035.13 0.632111 -1.84153 0
M  V30 31135 H 3033.3 3.10336 -2.33551 0
M  V30 31136 H 3035.03 3.1157 -2.58276 0
M  V30 31137 H 3031.79 2.02432 -4.28157 0
M  V30 31138 H 3032.21 1.00267 -6.69534 0
M  V30 31139 H 3036.85 1.69172 -3.8748 0
M  V30 31140 H 3034.57 0.223421 -8.07791 0
M  V30 31141 H 3038.16 0.77527 -5.76611 0
M  V30 31142 H 3037.04 0.0521586 -7.84183 0
M  V30 31143 N 3034.54 1.35531 0.804316 0
M  V30 31144 C 3035.95 1.25917 1.37847 0
M  V30 31145 C 3036.3 -0.107461 1.95905 0
M  V30 31146 O 3035.43 -1.00849 1.91464 0
M  V30 31147 C 3036.02 2.27998 2.50604 0
M  V30 31148 C 3034.58 2.22119 3.03875 0
M  V30 31149 C 3033.73 2.13585 1.76853 0
M  V30 31150 H 3036.68 1.46626 0.607166 0
M  V30 31151 H 3036.7 1.90778 3.29217 0
M  V30 31152 H 3036.21 3.27453 2.08317 0
M  V30 31153 H 3034.31 1.26083 3.50619 0
M  V30 31154 H 3034.43 3.14179 3.61702 0
M  V30 31155 H 3032.79 1.59599 1.98495 0
M  V30 31156 H 3033.57 3.14903 1.36715 0
M  V30 31157 N 3036.02 -1.02674 1.19565 0
M  V30 31158 C 3036.97 -2.13112 0.931979 0
M  V30 31159 C 3037.96 -1.69023 -0.112977 0
M  V30 31160 O 3039.17 -1.79963 0.0364614 0
M  V30 31161 H 3035.54 -0.696313 0.283993 0
M  V30 31162 H 3037.51 -2.32541 1.86995 0
M  V30 31163 C 3036.26 -3.44237 0.489521 0
M  V30 31164 H 3035.58 -3.78582 1.28515 0
M  V30 31165 H 3037.02 -4.22601 0.344154 0
M  V30 31166 C 3035.48 -3.27344 -0.796704 0
M  V30 31167 O 3036.01 -3.56168 -1.85761 0
M  V30 31168 N 3034.22 -2.80627 -0.754774 0
M  V30 31169 H 3033.77 -2.5737 0.108824 0
M  V30 31170 H 3033.72 -2.69705 -1.61575 0
M  V30 31171 N 3037.5 -0.999914 -1.21817 0
M  V30 31172 C 3038.74 -0.678385 -1.90374 0
M  V30 31173 C 3039.06 0.792792 -1.78157 0
M  V30 31174 O 3038.33 1.56883 -1.17322 0
M  V30 31175 H 3036.91 -0.247927 -0.704657 0
M  V30 31176 H 3039.58 -1.26793 -1.48019 0
M  V30 31177 H 3038.67 -0.947076 -2.97383 0
M  V30 31178 N 3038.97 1.37284 -0.773999 0
M  V30 31179 C 3040.22 1.98881 -0.336012 0
M  V30 31180 C 3040.54 1.62136 1.09413 0
M  V30 31181 O 3041.74 2.16853 1.63362 0
M  V30 31182 C 3040.2 3.55675 -0.549819 0
M  V30 31183 C 3039.81 4.01358 -1.99037 0
M  V30 31184 C 3041.55 4.24137 -0.175567 0
M  V30 31185 C 3039.46 5.5087 -2.15166 0
M  V30 31186 H 3038.39 0.744083 -0.12189 0
M  V30 31187 H 3041.04 1.56785 -0.953447 0
M  V30 31188 H 3039.42 3.95763 0.137106 0
M  V30 31189 H 3040.59 3.7251 -2.71243 0
M  V30 31190 H 3038.91 3.45686 -2.32143 0
M  V30 31191 H 3041.51 5.33995 -0.274557 0
M  V30 31192 H 3041.85 4.07012 0.874452 0
M  V30 31193 H 3042.38 3.89359 -0.815127 0
M  V30 31194 H 3039.12 5.72924 -3.18495 0
M  V30 31195 H 3038.64 5.81395 -1.47446 0
M  V30 31196 H 3040.32 6.16872 -1.95135 0
M  V30 31197 N 3040.45 0.524724 1.48608 0
M  V30 31198 C 3041.68 -0.00948494 2.07398 0
M  V30 31199 C 3042.1 -1.27882 1.37941 0
M  V30 31200 O 3041.46 -1.75788 0.443664 0
M  V30 31201 C 3041.51 -0.221893 3.59917 0
M  V30 31202 O 3040.61 -1.29169 3.91649 0
M  V30 31203 H 3039.95 0.0367845 0.66298 0
M  V30 31204 H 3042.48 0.731134 1.91091 0
M  V30 31205 H 3042.49 -0.446165 4.05553 0
M  V30 31206 H 3041.17 0.705378 4.09875 0
M  V30 31207 H 3039.74 -1.05049 3.57798 0
M  V30 31208 N 3041.93 -1.55447 0.259613 0
M  V30 31209 C 3043.18 -1.99541 -0.362108 0
M  V30 31210 C 3043.51 -1.14769 -1.56658 0
M  V30 31211 O 3042.78 -0.214059 -1.93318 0
M  V30 31212 C 3043.07 -3.51999 -0.759526 0
M  V30 31213 C 3042.92 -4.47531 0.451213 0
M  V30 31214 C 3044.24 -4.09915 -1.60179 0
M  V30 31215 H 3041.36 -0.725418 -0.130144 0
M  V30 31216 H 3044 -1.86491 0.363464 0
M  V30 31217 H 3042.15 -3.6325 -1.37773 0
M  V30 31218 H 3043.82 -4.48244 1.08972 0
M  V30 31219 H 3042.06 -4.19829 1.09207 0
M  V30 31220 H 3042.74 -5.51848 0.129615 0
M  V30 31221 H 3045.21 -4.01844 -1.07983 0
M  V30 31222 H 3044.09 -5.16831 -1.8487 0
M  V30 31223 H 3044.35 -3.59168 -2.5778 0
M  V30 31224 N 3043.41 0.0133338 -1.57594 0
M  V30 31225 C 3044.68 0.737241 -1.81174 0
M  V30 31226 C 3045.06 1.92724 -0.861429 0
M  V30 31227 O 3044.41 2.28311 0.0928923 0
M  V30 31228 C 3044.62 1.15551 -3.29316 0
M  V30 31229 C 3045.97 1.56491 -3.9471 0
M  V30 31230 O 3046.99 1.24967 -3.33559 0
M  V30 31231 O 3045.85 2.1506 -5.02406 0
M  V30 31232 H 3042.95 0.357824 -0.745581 0
M  V30 31233 H 3045.49 -0.0110972 -1.69696 0
M  V30 31234 H 3044.27 0.306702 -3.90096 0
M  V30 31235 H 3043.89 1.96337 -3.45742 0
M  V30 31236 N 3044.89 1.54985 0.285878 0
M  V30 31237 C 3046.12 1.78734 1.03623 0
M  V30 31238 C 3046.52 0.554408 1.80895 0
M  V30 31239 O 3045.87 -0.485749 1.77161 0
M  V30 31240 C 3045.93 2.95197 2.0518 0
M  V30 31241 C 3045.59 4.32724 1.46965 0
M  V30 31242 C 3046.59 5.12193 0.891896 0
M  V30 31243 C 3044.27 4.79357 1.50073 0
M  V30 31244 C 3046.27 6.36422 0.352966 0
M  V30 31245 C 3043.96 6.03545 0.957931 0
M  V30 31246 C 3044.95 6.81914 0.385037 0
M  V30 31247 O 3044.64 8.03761 -0.149482 0
M  V30 31248 H 3044.37 0.599482 0.312405 0
M  V30 31249 H 3046.93 2.02796 0.326032 0
M  V30 31250 H 3045.16 2.66796 2.79923 0
M  V30 31251 H 3046.85 3.06385 2.66239 0
M  V30 31252 H 3047.61 4.77302 0.860678 0
M  V30 31253 H 3043.49 4.18377 1.93603 0
M  V30 31254 H 3047.04 6.97536 -0.0948407 0
M  V30 31255 H 3042.93 6.3792 0.986345 0
M  V30 31256 H 3043.7 8.18491 -0.0376157 0
M  V30 31257 N 3046.36 -0.549794 1.47699 0
M  V30 31258 C 3047.3 -1.67163 1.56809 0
M  V30 31259 C 3048.31 -1.56349 0.453736 0
M  V30 31260 O 3049.5 -1.63172 0.723691 0
M  V30 31261 C 3046.6 -3.05683 1.46325 0
M  V30 31262 C 3045.77 -3.42178 2.72458 0
M  V30 31263 C 3044.83 -4.59892 2.55706 0
M  V30 31264 O 3043.86 -4.64102 3.29542 0
M  V30 31265 N 3045.06 -5.56847 1.64019 0
M  V30 31266 H 3047.82 -1.59792 2.53548 0
M  V30 31267 H 3045.38 -0.73661 1.44172 0
M  V30 31268 H 3047.38 -3.82276 1.32842 0
M  V30 31269 H 3045.95 -3.0724 0.576394 0
M  V30 31270 H 3045.17 -2.54959 3.00649 0
M  V30 31271 H 3046.45 -3.63338 3.56178 0
M  V30 31272 H 3045.85 -5.56208 1.03196 0
M  V30 31273 H 3044.41 -6.32737 1.56484 0
M  V30 31274 N 3047.84 -1.35955 -0.797117 0
M  V30 31275 C 3049.12 -1.20312 -1.54222 0
M  V30 31276 C 3049.5 0.213889 -2.10014 0
M  V30 31277 O 3048.85 1.21859 -1.93294 0
M  V30 31278 C 3049.06 -2.27888 -2.64326 0
M  V30 31279 C 3050.41 -2.64171 -3.32414 0
M  V30 31280 O 3051.43 -2.26873 -2.74603 0
M  V30 31281 O 3050.29 -3.28339 -4.36871 0
M  V30 31282 H 3047.38 -0.467986 -0.681849 0
M  V30 31283 H 3049.93 -1.47664 -0.836262 0
M  V30 31284 H 3048.7 -3.22889 -2.21039 0
M  V30 31285 H 3048.32 -2.01859 -3.42548 0
M  V30 31286 N 3049.32 1.02038 -1.20108 0
M  V30 31287 C 3050.57 1.75229 -1.00693 0
M  V30 31288 C 3050.89 1.89437 0.462457 0
M  V30 31289 O 3050.16 1.43413 1.33453 0
M  V30 31290 H 3048.74 0.649164 -0.369587 0
M  V30 31291 H 3051.4 1.23041 -1.51152 0
M  V30 31292 H 3050.5 2.75734 -1.4621 0
M  V30 31293 N 3050.8 1.00636 1.21285 0
M  V30 31294 C 3051.75 0.567916 2.23704 0
M  V30 31295 C 3052.72 -0.406724 1.61043 0
M  V30 31296 O 3053.9 -0.308466 1.8829 0
M  V30 31297 C 3051.04 -0.0979354 3.44961 0
M  V30 31298 C 3050.15 0.920046 4.22089 0
M  V30 31299 C 3049.29 0.226315 5.30718 0
M  V30 31300 C 3048.33 1.23175 5.99578 0
M  V30 31301 N 3047.46 0.565401 6.9982 0
M  V30 31302 H 3052.3 1.44596 2.60568 0
M  V30 31303 H 3049.84 0.724029 1.28048 0
M  V30 31304 H 3051.8 -0.501024 4.14181 0
M  V30 31305 H 3050.43 -0.93969 3.0882 0
M  V30 31306 H 3049.48 1.44137 3.52035 0
M  V30 31307 H 3050.79 1.68513 4.69473 0
M  V30 31308 H 3049.95 -0.23281 6.06253 0
M  V30 31309 H 3048.69 -0.571161 4.84344 0
M  V30 31310 H 3047.69 1.70137 5.22813 0
M  V30 31311 H 3048.92 2.03033 6.48039 0
M  V30 31312 H 3046.86 -0.212393 6.55656 0
M  V30 31313 H 3046.78 1.26872 7.45278 0
M  V30 31314 H 3048.05 0.129526 7.79392 0
M  V30 31315 N 3052.28 -1.36872 0.781268 0
M  V30 31316 C 3053.21 -2.32741 0.188169 0
M  V30 31317 C 3054.19 -1.5625 -0.672299 0
M  V30 31318 O 3055.37 -1.84444 -0.607802 0
M  V30 31319 C 3052.5 -3.40492 -0.684281 0
M  V30 31320 C 3051.46 -4.27933 0.0756394 0
M  V30 31321 C 3050.78 -5.2678 -0.916875 0
M  V30 31322 C 3052.08 -5.0687 1.26015 0
M  V30 31323 H 3053.78 -2.82591 0.989066 0
M  V30 31324 H 3051.32 -1.35868 0.477062 0
M  V30 31325 H 3053.28 -4.06543 -1.10908 0
M  V30 31326 H 3052 -2.89189 -1.5178 0
M  V30 31327 H 3050.66 -3.63427 0.481322 0
M  V30 31328 H 3050.31 -4.71754 -1.7452 0
M  V30 31329 H 3050.01 -5.86148 -0.412897 0
M  V30 31330 H 3051.53 -5.95706 -1.34041 0
M  V30 31331 H 3052.94 -5.66007 0.911524 0
M  V30 31332 H 3051.34 -5.7561 1.69686 0
M  V30 31333 H 3052.41 -4.38988 2.05956 0
M  V30 31334 N 3053.75 -0.532597 -1.48328 0
M  V30 31335 C 3054.98 -0.00357417 -2.066 0
M  V30 31336 C 3055.39 1.28449 -1.38916 0
M  V30 31337 O 3054.74 1.77548 -0.471416 0
M  V30 31338 C 3054.8 0.288261 -3.58342 0
M  V30 31339 C 3054.46 -0.906709 -4.47915 0
M  V30 31340 C 3055.46 -1.80581 -4.87531 0
M  V30 31341 C 3053.14 -1.11444 -4.89781 0
M  V30 31342 C 3055.14 -2.89652 -5.67785 0
M  V30 31343 C 3052.82 -2.20829 -5.69805 0
M  V30 31344 C 3053.82 -3.09766 -6.08715 0
M  V30 31345 O 3053.51 -4.17258 -6.87132 0
M  V30 31346 H 3053.24 -0.031578 -0.675262 0
M  V30 31347 H 3055.8 -0.738409 -1.91668 0
M  V30 31348 H 3054.03 1.0771 -3.71397 0
M  V30 31349 H 3055.72 0.759681 -3.98728 0
M  V30 31350 H 3056.48 -1.65727 -4.55807 0
M  V30 31351 H 3052.36 -0.431463 -4.58976 0
M  V30 31352 H 3055.9 -3.59098 -5.98076 0
M  V30 31353 H 3051.8 -2.35666 -6.00942 0
M  V30 31354 H 3052.57 -4.15 -7.05491 0
M  V30 31355 N 3055.23 1.55307 -0.267853 0
M  V30 31356 C 3056.48 2.00461 0.344545 0
M  V30 31357 C 3056.83 1.15299 1.54026 0
M  V30 31358 O 3056.13 0.213349 1.90408 0
M  V30 31359 C 3056.32 3.48691 0.784185 0
M  V30 31360 C 3056.15 4.48197 -0.367383 0
M  V30 31361 C 3054.92 4.98119 -0.848833 0
M  V30 31362 C 3057.12 5.0007 -1.20144 0
M  V30 31363 N 3055.1 5.81412 -1.97063 0
M  V30 31364 C 3056.47 5.80738 -2.17125 0
M  V30 31365 C 3058.53 4.82324 -1.23562 0
M  V30 31366 C 3057.23 6.45553 -3.17259 0
M  V30 31367 C 3059.25 5.47934 -2.22537 0
M  V30 31368 C 3058.62 6.28407 -3.18251 0
M  V30 31369 H 3054.72 0.776634 0.0914514 0
M  V30 31370 H 3057.3 1.9075 -0.390217 0
M  V30 31371 H 3055.47 3.58758 1.48819 0
M  V30 31372 H 3057.2 3.80687 1.3733 0
M  V30 31373 H 3053.96 4.7165 -0.429374 0
M  V30 31374 H 3054.38 6.27751 -2.53492 0
M  V30 31375 H 3059.02 4.1972 -0.509444 0
M  V30 31376 H 3056.74 7.07312 -3.90814 0
M  V30 31377 H 3060.33 5.36148 -2.25913 0
M  V30 31378 H 3059.21 6.78278 -3.93585 0
M  V30 31379 N 3056.71 -0.00497598 1.57599 0
M  V30 31380 C 3057.95 -0.695422 1.92206 0
M  V30 31381 C 3058.31 -1.71212 0.868924 0
M  V30 31382 O 3059.52 -2.45258 1.10008 0
M  V30 31383 C 3057.79 -1.32619 3.31884 0
M  V30 31384 S 3059.35 -2.04245 3.88368 0
M  V30 31385 H 3056.16 -0.229828 0.67283 0
M  V30 31386 H 3058.77 0.0505168 1.95435 0
M  V30 31387 H 3057.47 -0.573324 4.06376 0
M  V30 31388 H 3057 -2.11017 3.32017 0
M  V30 31389 H 3059.02 -3.31698 3.69041 0
M  V30 31390 N 3058.19 -1.55135 -0.277654 0
M  V30 31391 C 3059.47 -1.6623 -1.03087 0
M  V30 31392 C 3059.85 -0.525737 -2.04449 0
M  V30 31393 O 3059.19 0.474777 -2.23513 0
M  V30 31394 C 3059.4 -3.0525 -1.69185 0
M  V30 31395 C 3060.75 -3.62844 -2.2052 0
M  V30 31396 O 3061.78 -3.07853 -1.79179 0
M  V30 31397 O 3060.63 -4.59182 -2.96334 0
M  V30 31398 H 3057.73 -0.674946 -0.477888 0
M  V30 31399 H 3060.27 -1.67475 -0.273882 0
M  V30 31400 H 3059.05 -3.79414 -0.957097 0
M  V30 31401 H 3058.67 -3.07884 -2.51582 0
M  V30 31402 N 3059.67 0.541953 -1.47989 0
M  V30 31403 C 3060.63 1.62981 -1.61151 0
M  V30 31404 C 3061.63 1.53294 -0.485557 0
M  V30 31405 O 3062.82 1.57178 -0.751039 0
M  V30 31406 C 3059.95 3.02573 -1.57043 0
M  V30 31407 H 3061.14 1.52655 -2.58141 0
M  V30 31408 H 3058.7 0.763082 -1.36407 0
M  V30 31409 H 3059.43 3.18418 -0.614863 0
M  V30 31410 H 3059.22 3.11013 -2.38774 0
M  V30 31411 H 3060.71 3.81688 -1.69423 0
M  V30 31412 N 3061.15 1.36376 0.789896 0
M  V30 31413 C 3062.56 1.16779 1.08788 0
M  V30 31414 C 3062.76 -0.00844695 2.01498 0
M  V30 31415 O 3061.82 -0.673964 2.43339 0
M  V30 31416 C 3063.13 2.4784 1.70281 0
M  V30 31417 C 3064.68 2.54199 1.82624 0
M  V30 31418 C 3065.15 3.85346 2.47532 0
M  V30 31419 N 3066.64 3.86689 2.55001 0
M  V30 31420 C 3067.38 4.84904 3.06033 0
M  V30 31421 N 3066.88 5.93511 3.57374 0
M  V30 31422 N 3068.67 4.72324 3.0474 0
M  V30 31423 H 3060.82 2.11687 0.173948 0
M  V30 31424 H 3063.08 0.937638 0.139781 0
M  V30 31425 H 3062.79 3.34178 1.09627 0
M  V30 31426 H 3062.66 2.63611 2.69794 0
M  V30 31427 H 3065.05 1.6828 2.42417 0
M  V30 31428 H 3065.13 2.42328 0.819187 0
M  V30 31429 H 3064.77 4.71671 1.88385 0
M  V30 31430 H 3064.7 3.94513 3.48808 0
M  V30 31431 H 3067.2 3.08225 2.18646 0
M  V30 31432 H 3067.51 6.64426 3.94662 0
M  V30 31433 H 3065.85 5.97181 3.55528 0
M  V30 31434 H 3069.04 3.86607 2.63918 0
M  V30 31435 H 3069.22 5.49025 3.44202 0
M  V30 31436 N 3062.62 -1.014 1.20647 0
M  V30 31437 C 3063.85 -1.78633 1.04392 0
M  V30 31438 C 3064.27 -1.84367 -0.406738 0
M  V30 31439 O 3063.62 -1.29853 -1.28236 0
M  V30 31440 C 3063.67 -3.22976 1.62384 0
M  V30 31441 O 3063.4 -3.17592 3.01773 0
M  V30 31442 C 3064.9 -4.16748 1.51117 0
M  V30 31443 H 3062.12 -0.561684 0.367086 0
M  V30 31444 H 3064.66 -1.27621 1.59791 0
M  V30 31445 H 3062.82 -3.71128 1.11099 0
M  V30 31446 H 3063.23 -4.08211 3.29339 0
M  V30 31447 H 3064.7 -5.1586 1.9645 0
M  V30 31448 H 3065.18 -4.36741 0.464088 0
M  V30 31449 H 3065.79 -3.7448 2.01606 0
M  V30 31450 N 3064.1 -1.01278 -1.2075 0
M  V30 31451 C 3065.38 -0.615145 -1.85675 0
M  V30 31452 C 3065.76 0.906942 -1.90625 0
M  V30 31453 O 3065.11 1.79709 -1.41127 0
M  V30 31454 C 3065.32 -1.25852 -3.25518 0
M  V30 31455 C 3066.66 -1.37155 -4.01838 0
M  V30 31456 O 3067.69 -1.21444 -3.34858 0
M  V30 31457 O 3066.55 -1.62504 -5.2178 0
M  V30 31458 H 3063.64 -0.211743 -0.799434 0
M  V30 31459 H 3066.19 -1.10992 -1.2837 0
M  V30 31460 H 3064.96 -2.29874 -3.1666 0
M  V30 31461 H 3064.58 -0.750593 -3.90451 0
M  V30 31462 N 3065.58 1.36456 -0.788516 0
M  V30 31463 C 3066.53 2.30062 -0.18439 0
M  V30 31464 C 3067.5 1.51932 0.671253 0
M  V30 31465 O 3068.68 1.80442 0.62012 0
M  V30 31466 C 3065.82 3.38424 0.675536 0
M  V30 31467 C 3064.93 4.31543 -0.19855 0
M  V30 31468 C 3064.07 5.26987 0.667664 0
M  V30 31469 C 3063.11 6.11747 -0.207933 0
M  V30 31470 N 3062.25 6.99382 0.617212 0
M  V30 31471 H 3067.09 2.81141 -0.988106 0
M  V30 31472 H 3064.62 1.38384 -0.498839 0
M  V30 31473 H 3066.58 3.99896 1.18909 0
M  V30 31474 H 3065.21 2.88667 1.44469 0
M  V30 31475 H 3064.26 3.71233 -0.83006 0
M  V30 31476 H 3065.57 4.91097 -0.87325 0
M  V30 31477 H 3064.73 5.93745 1.24706 0
M  V30 31478 H 3063.47 4.67886 1.37599 0
M  V30 31479 H 3062.47 5.43952 -0.799734 0
M  V30 31480 H 3063.7 6.72923 -0.913848 0
M  V30 31481 H 3061.64 6.4279 1.30985 0
M  V30 31482 H 3061.56 7.56 0.000174369 0
M  V30 31483 H 3062.83 7.7051 1.18046 0
M  V30 31484 N 3067.06 0.540456 1.48043 0
M  V30 31485 C 3068.31 0.00813507 2.01698 0
M  V30 31486 C 3068.62 -1.34322 1.42186 0
M  V30 31487 O 3069.83 -1.9645 1.87402 0
M  V30 31488 C 3068.28 -0.0358697 3.59882 0
M  V30 31489 C 3067.89 1.31123 4.28382 0
M  V30 31490 C 3069.63 -0.516466 4.21347 0
M  V30 31491 C 3067.54 1.22724 5.78526 0
M  V30 31492 H 3066.47 -0.00072892 0.754 0
M  V30 31493 H 3069.12 0.685805 1.70203 0
M  V30 31494 H 3067.5 -0.778838 3.88266 0
M  V30 31495 H 3068.68 2.07059 4.11659 0
M  V30 31496 H 3066.99 1.7284 3.78834 0
M  V30 31497 H 3069.59 -0.597436 5.31352 0
M  V30 31498 H 3069.93 -1.52466 3.87375 0
M  V30 31499 H 3070.47 0.171133 3.97432 0
M  V30 31500 H 3067.2 2.21091 6.17089 0
M  V30 31501 H 3066.72 0.509415 5.97633 0
M  V30 31502 H 3068.4 0.922273 6.40393 0
M  V30 31503 N 3068.54 -1.55163 0.276085 0
M  V30 31504 C 3069.45 -2.26231 -0.621026 0
M  V30 31505 C 3070.46 -1.28855 -1.16929 0
M  V30 31506 O 3071.64 -1.61793 -1.19937 0
M  V30 31507 C 3068.7 -2.97027 -1.78819 0
M  V30 31508 C 3067.76 -4.09883 -1.2765 0
M  V30 31509 C 3067 -4.77293 -2.38803 0
M  V30 31510 O 3067.22 -4.43918 -3.5818 0
M  V30 31511 O 3066.15 -5.6522 -2.06905 0
M  V30 31512 H 3069.98 -3.03666 -0.0452812 0
M  V30 31513 H 3067.56 -1.49337 0.0434537 0
M  V30 31514 H 3069.45 -3.41515 -2.46871 0
M  V30 31515 H 3068.12 -2.22507 -2.351 0
M  V30 31516 H 3067.03 -3.69848 -0.562415 0
M  V30 31517 H 3068.36 -4.86306 -0.759423 0
M  V30 31518 N 3070.01 -0.00338196 -1.576 0
M  V30 31519 C 3071.43 0.352738 -1.55653 0
M  V30 31520 C 3071.63 1.7457 -1.00635 0
M  V30 31521 O 3070.69 2.44211 -0.641664 0
M  V30 31522 C 3072 0.224876 -2.99858 0
M  V30 31523 C 3073.55 0.299564 -3.11563 0
M  V30 31524 C 3074.02 0.200787 -4.5756 0
M  V30 31525 N 3075.51 0.258582 -4.62478 0
M  V30 31526 C 3076.25 0.205543 -5.73031 0
M  V30 31527 N 3075.74 0.102905 -6.92724 0
M  V30 31528 N 3077.54 0.257655 -5.61509 0
M  V30 31529 H 3069.69 -0.914572 -1.91701 0
M  V30 31530 H 3071.95 -0.350881 -0.880674 0
M  V30 31531 H 3071.66 -0.733655 -3.43963 0
M  V30 31532 H 3071.53 1.00558 -3.63549 0
M  V30 31533 H 3073.92 1.24854 -2.67386 0
M  V30 31534 H 3074 -0.511069 -2.50643 0
M  V30 31535 H 3073.64 -0.74466 -5.02411 0
M  V30 31536 H 3073.57 1.02995 -5.1643 0
M  V30 31537 H 3076.06 0.339102 -3.76375 0
M  V30 31538 H 3076.38 0.0684235 -7.7277 0
M  V30 31539 H 3074.72 0.0684848 -6.94966 0
M  V30 31540 H 3077.91 0.33606 -4.66892 0
M  V30 31541 H 3078.09 0.212856 -6.4765 0
M  V30 31542 N 3071.49 1.5528 0.269423 0
M  V30 31543 C 3072.74 1.75259 0.99835 0
M  V30 31544 C 3073.05 0.563067 1.8732 0
M  V30 31545 O 3074.26 0.645359 2.63718 0
M  V30 31546 C 3072.72 3.10197 1.82499 0
M  V30 31547 C 3072.32 4.36728 0.998633 0
M  V30 31548 C 3074.07 3.39524 2.54801 0
M  V30 31549 C 3071.97 5.62703 1.81987 0
M  V30 31550 H 3070.9 0.653285 0.376477 0
M  V30 31551 H 3073.56 1.81735 0.253877 0
M  V30 31552 H 3071.94 2.97768 2.61056 0
M  V30 31553 H 3073.11 4.60083 0.256983 0
M  V30 31554 H 3071.43 4.1457 0.390001 0
M  V30 31555 H 3074.02 4.30853 3.16654 0
M  V30 31556 H 3074.37 2.59819 3.25269 0
M  V30 31557 H 3074.9 3.53067 1.83271 0
M  V30 31558 H 3071.64 6.45166 1.15933 0
M  V30 31559 H 3071.16 5.43485 2.53739 0
M  V30 31560 H 3072.84 6.01134 2.39263 0
M  V30 31561 N 3072.97 -0.534097 1.48274 0
M  V30 31562 C 3074.25 -1.29525 1.4657 0
M  V30 31563 C 3074.63 -2.10372 0.175127 0
M  V30 31564 O 3073.97 -2.12374 -0.843191 0
M  V30 31565 C 3074.18 -2.18019 2.72523 0
M  V30 31566 C 3075.53 -2.78292 3.20685 0
M  V30 31567 O 3076.56 -2.28308 2.73412 0
M  V30 31568 O 3075.42 -3.69201 4.02931 0
M  V30 31569 H 3072.51 -0.584393 0.585161 0
M  V30 31570 H 3075.06 -0.551091 1.60503 0
M  V30 31571 H 3073.83 -1.58034 3.57968 0
M  V30 31572 H 3073.45 -2.99689 2.6129 0
M  V30 31573 N 3074.45 -1.36793 -0.782652 0
M  V30 31574 C 3075.38 -1.34359 -1.90971 0
M  V30 31575 C 3076.36 -0.213947 -1.68749 0
M  V30 31576 O 3077.54 -0.412634 -1.89766 0
M  V30 31577 C 3074.67 -1.1389 -3.28095 0
M  V30 31578 C 3073.63 -2.23751 -3.64856 0
M  V30 31579 C 3072.95 -1.88417 -5.00403 0
M  V30 31580 C 3074.25 -3.65876 -3.72736 0
M  V30 31581 H 3075.95 -2.28668 -1.93264 0
M  V30 31582 H 3073.49 -1.10074 -0.928428 0
M  V30 31583 H 3075.45 -1.1082 -4.06567 0
M  V30 31584 H 3074.17 -0.160333 -3.26206 0
M  V30 31585 H 3072.83 -2.25957 -2.88685 0
M  V30 31586 H 3072.48 -0.89117 -4.95043 0
M  V30 31587 H 3072.18 -2.61975 -5.25969 0
M  V30 31588 H 3073.7 -1.86915 -5.81288 0
M  V30 31589 H 3075.12 -3.65859 -4.41384 0
M  V30 31590 H 3073.51 -4.38397 -4.09791 0
M  V30 31591 H 3074.58 -4.00291 -2.73669 0
M  V30 31592 N 3075.93 1.00759 -1.21184 0
M  V30 31593 C 3076.84 2.12933 -0.984729 0
M  V30 31594 C 3077.85 1.73888 0.0623351 0
M  V30 31595 O 3079.03 2.00998 -0.127135 0
M  V30 31596 C 3076.09 3.42318 -0.549507 0
M  V30 31597 C 3075.15 3.95551 -1.66848 0
M  V30 31598 C 3074.39 5.1876 -1.25393 0
M  V30 31599 O 3074.61 5.7026 -0.126433 0
M  V30 31600 O 3073.54 5.65374 -2.06485 0
M  V30 31601 H 3077.37 2.34967 -1.92417 0
M  V30 31602 H 3074.96 1.11312 -0.99649 0
M  V30 31603 H 3076.84 4.2021 -0.316458 0
M  V30 31604 H 3075.51 3.21678 0.361248 0
M  V30 31605 H 3074.42 3.18897 -1.95591 0
M  V30 31606 H 3075.75 4.20595 -2.55657 0
M  V30 31607 N 3077.4 1.01917 1.20211 0
M  V30 31608 C 3078.63 0.729289 1.93621 0
M  V30 31609 C 3079.05 -0.710413 1.74924 0
M  V30 31610 O 3078.4 -1.48212 1.06487 0
M  V30 31611 C 3078.46 1.05871 3.45649 0
M  V30 31612 O 3078.18 2.44187 3.63737 0
M  V30 31613 C 3079.68 0.790253 4.36199 0
M  V30 31614 H 3076.9 0.267605 0.615328 0
M  V30 31615 H 3079.44 1.36104 1.5263 0
M  V30 31616 H 3077.6 0.472317 3.8451 0
M  V30 31617 H 3078.01 2.56151 4.57697 0
M  V30 31618 H 3079.48 1.0708 5.41514 0
M  V30 31619 H 3079.96 -0.275532 4.38335 0
M  V30 31620 H 3080.57 1.35892 4.03005 0
M  V30 31621 N 3078.88 -1.36036 0.795742 0
M  V30 31622 C 3080.13 -1.98678 0.370326 0
M  V30 31623 C 3080.45 -1.6346 -1.06329 0
M  V30 31624 O 3079.72 -0.911701 -1.73392 0
M  V30 31625 H 3078.3 -0.734894 0.133941 0
M  V30 31626 H 3080.96 -1.66128 1.01918 0
M  V30 31627 H 3080.06 -3.08582 0.467261 0
M  V30 31628 N 3080.36 -0.5483 -1.47755 0
M  V30 31629 C 3081.27 0.207732 -2.33678 0
M  V30 31630 C 3082.29 0.920817 -1.47638 0
M  V30 31631 O 3083.46 0.891699 -1.80584 0
M  V30 31632 C 3080.53 1.22997 -3.24149 0
M  V30 31633 C 3079.59 0.525275 -4.26074 0
M  V30 31634 C 3078.82 1.49881 -5.12222 0
M  V30 31635 O 3079.04 2.73296 -5.00665 0
M  V30 31636 O 3077.98 1.02818 -5.93053 0
M  V30 31637 H 3081.8 -0.496847 -2.99608 0
M  V30 31638 H 3079.39 -0.309008 -1.46169 0
M  V30 31639 H 3081.27 1.82027 -3.80058 0
M  V30 31640 H 3079.95 1.91663 -2.60858 0
M  V30 31641 H 3078.85 -0.105993 -3.7395 0
M  V30 31642 H 3080.19 -0.119773 -4.92054 0
M  V30 31643 N 3081.84 1.55014 -0.28431 0
M  V30 31644 C 3082.79 2.24321 0.615051 0
M  V30 31645 C 3083.78 1.24339 1.15048 0
M  V30 31646 O 3084.99 1.42242 1.10305 0
M  V30 31647 H 3081.36 0.720036 0.216914 0
M  V30 31648 H 3083.33 2.98399 0.00777971 0
M  V30 31649 C 3082.08 2.98474 1.7835 0
M  V30 31650 H 3081.4 3.75203 1.38069 0
M  V30 31651 H 3082.84 3.50275 2.38921 0
M  V30 31652 C 3081.3 2.04474 2.67754 0
M  V30 31653 O 3081.83 1.60191 3.68377 0
M  V30 31654 N 3080.04 1.7078 2.35122 0
M  V30 31655 H 3079.59 2.06987 1.53343 0
M  V30 31656 H 3079.54 1.08158 2.9521 0
M  V30 31657 N 3083.32 0.0117398 1.57596 0
M  V30 31658 C 3084.73 -0.344479 1.55838 0
M  V30 31659 C 3084.93 -1.74034 1.0156 0
M  V30 31660 O 3083.99 -2.43867 0.654606 0
M  V30 31661 C 3085.3 -0.208971 2.99973 0
M  V30 31662 C 3086.85 -0.283037 3.11718 0
M  V30 31663 C 3087.32 -0.176519 4.5766 0
M  V30 31664 N 3088.82 -0.234052 4.62608 0
M  V30 31665 C 3089.55 -0.175151 5.73132 0
M  V30 31666 N 3089.05 -0.066167 6.92768 0
M  V30 31667 N 3090.84 -0.227874 5.61638 0
M  V30 31668 H 3082.99 0.924726 1.91213 0
M  V30 31669 H 3085.25 0.355546 0.878801 0
M  V30 31670 H 3084.96 0.751886 3.43569 0
M  V30 31671 H 3084.83 -0.986286 3.64077 0
M  V30 31672 H 3087.22 -1.23434 2.68045 0
M  V30 31673 H 3087.3 0.524354 2.50368 0
M  V30 31674 H 3086.95 0.771294 5.02009 0
M  V30 31675 H 3086.88 -1.00255 5.16969 0
M  V30 31676 H 3089.37 -0.319137 3.7655 0
M  V30 31677 H 3089.68 -0.0274407 7.72795 0
M  V30 31678 H 3088.02 -0.0316281 6.94993 0
M  V30 31679 H 3091.22 -0.311294 4.67064 0
M  V30 31680 H 3091.39 -0.178507 6.47754 0
M  V30 31681 N 3084.79 -1.55421 -0.261185 0
M  V30 31682 C 3085.7 -1.92223 -1.3449 0
M  V30 31683 C 3086.72 -0.820887 -1.53419 0
M  V30 31684 O 3087.9 -1.12102 -1.67318 0
M  V30 31685 C 3084.96 -2.19697 -2.68205 0
M  V30 31686 C 3084.02 -3.43184 -2.57921 0
M  V30 31687 C 3083.26 -3.69338 -3.8526 0
M  V30 31688 O 3083.48 -2.97801 -4.86488 0
M  V30 31689 O 3082.41 -4.62871 -3.84752 0
M  V30 31690 H 3086.24 -2.84499 -1.06273 0
M  V30 31691 H 3083.82 -1.42119 -0.460727 0
M  V30 31692 H 3085.71 -2.3874 -3.47248 0
M  V30 31693 H 3084.38 -1.30602 -2.96184 0
M  V30 31694 H 3083.29 -3.29463 -1.77214 0
M  V30 31695 H 3084.62 -4.32536 -2.3489 0
M  V30 31696 N 3086.27 0.526227 -1.48555 0
M  V30 31697 C 3087.52 1.28375 -1.56996 0
M  V30 31698 C 3087.85 1.92652 -0.244735 0
M  V30 31699 O 3087.13 1.79475 0.749604 0
M  V30 31700 C 3087.41 2.37021 -2.71096 0
M  V30 31701 C 3087.26 1.77411 -4.13335 0
M  V30 31702 C 3088.58 3.38764 -2.8094 0
M  V30 31703 H 3085.7 0.465388 -0.571474 0
M  V30 31704 H 3088.34 0.585829 -1.80743 0
M  V30 31705 H 3086.49 2.9655 -2.50979 0
M  V30 31706 H 3088.16 1.21904 -4.44901 0
M  V30 31707 H 3086.41 1.07928 -4.20159 0
M  V30 31708 H 3087.08 2.56095 -4.88998 0
M  V30 31709 H 3089.55 2.89195 -2.99175 0
M  V30 31710 H 3088.43 4.12174 -3.62496 0
M  V30 31711 H 3088.69 3.99546 -1.89251 0
M  V30 31712 N 3087.75 1.37206 0.775387 0
M  V30 31713 C 3089 1.32409 1.53609 0
M  V30 31714 C 3089.33 -0.0923762 1.9398 0
M  V30 31715 O 3088.6 -1.04891 1.63793 0
M  V30 31716 C 3088.89 2.25984 2.80363 0
M  V30 31717 C 3088.74 3.76393 2.46269 0
M  V30 31718 C 3090.06 2.18071 3.82273 0
M  V30 31719 H 3087.18 0.482307 0.557269 0
M  V30 31720 H 3089.82 1.67877 0.889797 0
M  V30 31721 H 3087.97 1.95868 3.35512 0
M  V30 31722 H 3089.64 4.1709 1.97062 0
M  V30 31723 H 3087.89 3.9514 1.79016 0
M  V30 31724 H 3088.56 4.37297 3.3686 0
M  V30 31725 H 3091.03 2.4461 3.36609 0
M  V30 31726 H 3089.91 2.85692 4.68691 0
M  V30 31727 H 3090.17 1.17246 4.2627 0
M  V30 31728 N 3089.23 -1.00115 1.21716 0
M  V30 31729 C 3090.16 -2.10813 1.004 0
M  V30 31730 C 3091.14 -1.69946 -0.0723203 0
M  V30 31731 O 3092.32 -1.93999 0.0882739 0
M  V30 31732 C 3089.45 -3.42556 0.572061 0
M  V30 31733 C 3088.41 -3.97235 1.59338 0
M  V30 31734 C 3087.73 -5.24929 1.01755 0
M  V30 31735 C 3089.03 -4.28858 2.98125 0
M  V30 31736 H 3090.73 -2.28903 1.92987 0
M  V30 31737 H 3088.27 -1.10001 0.929292 0
M  V30 31738 H 3090.23 -4.194 0.410092 0
M  V30 31739 H 3088.95 -3.2427 -0.389453 0
M  V30 31740 H 3087.61 -3.22515 1.74298 0
M  V30 31741 H 3087.26 -5.02977 0.0476375 0
M  V30 31742 H 3086.96 -5.62478 1.69979 0
M  V30 31743 H 3088.48 -6.04414 0.866987 0
M  V30 31744 H 3089.9 -4.96529 2.86586 0
M  V30 31745 H 3088.29 -4.77559 3.63397 0
M  V30 31746 H 3089.36 -3.36973 3.4868 0
M  V30 31747 N 3090.71 -1.02553 -1.19669 0
M  V30 31748 C 3091.93 -0.739397 -1.93772 0
M  V30 31749 C 3092.36 0.695033 -1.74788 0
M  V30 31750 O 3091.72 1.47942 -1.04798 0
M  V30 31751 C 3091.76 -1.09155 -3.43682 0
M  V30 31752 O 3090.87 -0.208285 -4.11874 0
M  V30 31753 H 3090.21 -0.273495 -0.605059 0
M  V30 31754 H 3092.74 -1.3713 -1.51843 0
M  V30 31755 H 3092.75 -1.04702 -3.94337 0
M  V30 31756 H 3091.42 -2.1366 -3.56822 0
M  V30 31757 H 3090 -0.311111 -3.716 0
M  V30 31758 N 3092.19 1.35612 -0.802945 0
M  V30 31759 C 3093.41 2.03645 -0.392882 0
M  V30 31760 C 3093.84 1.60122 0.987047 0
M  V30 31761 O 3093.19 0.77613 1.63847 0
M  V30 31762 C 3093.24 3.57387 -0.480271 0
M  V30 31763 O 3092.35 4.09263 0.507679 0
M  V30 31764 H 3091.69 0.643262 -0.164652 0
M  V30 31765 H 3094.22 1.73285 -1.08782 0
M  V30 31766 H 3094.23 4.06507 -0.348754 0
M  V30 31767 H 3092.9 3.88415 -1.48682 0
M  V30 31768 H 3091.48 3.71377 0.336704 0
M  V30 31769 N 3093.66 0.556128 1.47462 0
M  V30 31770 C 3094.61 -0.205258 2.31693 0
M  V30 31771 C 3095.61 -0.910369 1.42859 0
M  V30 31772 O 3096.81 -0.831778 1.59629 0
M  V30 31773 H 3093.19 -0.0850644 0.747173 0
M  V30 31774 H 3095.16 0.524356 2.93757 0
M  V30 31775 C 3093.91 -1.22278 3.2549 0
M  V30 31776 H 3093.23 -0.689628 3.93807 0
M  V30 31777 H 3094.67 -1.72643 3.8726 0
M  V30 31778 C 3093.13 -2.27008 2.48935 0
M  V30 31779 O 3093.66 -3.33915 2.23302 0
M  V30 31780 N 3091.86 -2.00907 2.09963 0
M  V30 31781 H 3091.41 -1.13982 2.3101 0
M  V30 31782 H 3091.37 -2.71197 1.59058 0
M  V30 31783 N 3095.14 -1.54861 0.292527 0
M  V30 31784 C 3096.09 -2.24644 -0.603146 0
M  V30 31785 C 3097.08 -1.24948 -1.14387 0
M  V30 31786 O 3098.29 -1.42825 -1.09549 0
M  V30 31787 H 3094.66 -0.721177 -0.213092 0
M  V30 31788 H 3096.64 -2.98399 0.00804523 0
M  V30 31789 C 3095.38 -2.99416 -1.76764 0
M  V30 31790 H 3094.71 -3.75929 -1.36077 0
M  V30 31791 H 3096.15 -3.51538 -2.3706 0
M  V30 31792 C 3094.61 -2.05891 -2.66666 0
M  V30 31793 O 3095.14 -1.62142 -3.67522 0
M  V30 31794 N 3093.34 -1.72024 -2.34213 0
M  V30 31795 H 3092.89 -2.07798 -1.52243 0
M  V30 31796 H 3092.85 -1.09722 -2.94633 0
M  V30 31797 N 3096.62 -0.0200973 -1.57587 0
M  V30 31798 C 3097.55 0.999259 -2.05159 0
M  V30 31799 C 3098.53 1.32285 -0.945489 0
M  V30 31800 O 3099.71 1.44106 -1.21514 0
M  V30 31801 C 3096.84 2.32168 -2.46608 0
M  V30 31802 C 3095.89 2.15333 -3.68149 0
M  V30 31803 S 3096.72 1.46056 -5.15197 0
M  V30 31804 C 3097.88 2.79687 -5.59934 0
M  V30 31805 H 3098.11 0.594278 -2.913 0
M  V30 31806 H 3095.64 0.191345 -1.5321 0
M  V30 31807 H 3097.6 3.08197 -2.71155 0
M  V30 31808 H 3096.26 2.69801 -1.60829 0
M  V30 31809 H 3095.45 3.13075 -3.94969 0
M  V30 31810 H 3095.06 1.47448 -3.43708 0
M  V30 31811 H 3097.35 3.75947 -5.63622 0
M  V30 31812 H 3098.29 2.57543 -6.59604 0
M  V30 31813 H 3098.7 2.8452 -4.87554 0
M  V30 31814 N 3098.1 1.55557 0.252939 0
M  V30 31815 C 3099.37 1.67849 1.00429 0
M  V30 31816 C 3099.75 0.558196 2.03586 0
M  V30 31817 O 3099.1 -0.439158 2.2424 0
M  V30 31818 C 3099.31 3.07903 1.64307 0
M  V30 31819 C 3100.66 3.66307 2.1472 0
M  V30 31820 O 3101.68 3.10664 1.74259 0
M  V30 31821 O 3100.54 4.63838 2.88992 0
M  V30 31822 H 3097.64 0.682463 0.46709 0
M  V30 31823 H 3100.18 1.6789 0.247204 0
M  V30 31824 H 3098.96 3.80889 0.896614 0
M  V30 31825 H 3098.58 3.11847 2.46652 0
M  V30 31826 N 3099.58 -0.518341 1.48832 0
M  V30 31827 C 3100.51 -1.63881 1.58803 0
M  V30 31828 C 3101.49 -1.56593 0.437874 0
M  V30 31829 O 3102.67 -1.76899 0.651073 0
M  V30 31830 C 3099.8 -3.02332 1.52686 0
M  V30 31831 C 3098.84 -3.2794 2.72686 0
M  V30 31832 S 3099.68 -3.12944 4.34542 0
M  V30 31833 C 3100.83 -4.53821 4.31042 0
M  V30 31834 H 3101.07 -1.55176 2.5359 0
M  V30 31835 H 3098.6 -0.702194 1.37509 0
M  V30 31836 H 3100.56 -3.82174 1.49843 0
M  V30 31837 H 3099.22 -3.08468 0.592161 0
M  V30 31838 H 3098.41 -4.2897 2.64577 0
M  V30 31839 H 3098.01 -2.5579 2.72851 0
M  V30 31840 H 3100.3 -5.45572 4.01693 0
M  V30 31841 H 3101.25 -4.66982 5.32291 0
M  V30 31842 H 3101.66 -4.33689 3.61351 0
M  V30 31843 N 3101.05 -1.37615 -0.7681 0
M  V30 31844 C 3102.3 -1.33025 -1.52678 0
M  V30 31845 C 3102.63 0.0841577 -1.94318 0
M  V30 31846 O 3101.88 1.05817 -1.64624 0
M  V30 31847 C 3102.18 -2.21861 -2.802 0
M  V30 31848 C 3101.85 -3.70075 -2.57595 0
M  V30 31849 C 3100.51 -4.10466 -2.51139 0
M  V30 31850 C 3102.86 -4.63957 -2.37474 0
M  V30 31851 C 3100.19 -5.42849 -2.22556 0
M  V30 31852 C 3102.54 -5.96581 -2.10414 0
M  V30 31853 C 3101.21 -6.36073 -2.02405 0
M  V30 31854 H 3100.48 -0.486773 -0.558689 0
M  V30 31855 H 3103.12 -1.69853 -0.884441 0
M  V30 31856 H 3101.43 -1.78041 -3.49011 0
M  V30 31857 H 3103.13 -2.15621 -3.38095 0
M  V30 31858 H 3099.72 -3.38044 -2.63485 0
M  V30 31859 H 3103.9 -4.33608 -2.4145 0
M  V30 31860 H 3099.16 -5.72406 -2.14853 0
M  V30 31861 H 3103.33 -6.68878 -1.93845 0
M  V30 31862 H 3100.96 -7.38577 -1.80021 0
M  V30 31863 N 3102.53 0.994677 -1.22245 0
M  V30 31864 C 3103.76 1.77485 -1.07302 0
M  V30 31865 C 3104.18 1.84379 0.37227 0
M  V30 31866 O 3103.54 1.29496 1.26888 0
M  V30 31867 C 3103.59 3.18715 -1.6868 0
M  V30 31868 O 3102.69 4.01561 -0.939272 0
M  V30 31869 H 3102.03 0.546604 -0.376988 0
M  V30 31870 H 3104.56 1.24962 -1.62005 0
M  V30 31871 H 3104.57 3.69351 -1.73331 0
M  V30 31872 H 3103.25 3.13012 -2.73855 0
M  V30 31873 H 3101.82 3.60099 -0.968647 0
M  V30 31874 N 3104.01 1.03186 1.19123 0
M  V30 31875 C 3105.26 0.731144 1.89162 0
M  V30 31876 C 3105.59 -0.738631 1.79605 0
M  V30 31877 O 3104.86 -1.53817 1.1904 0
M  V30 31878 C 3105.15 1.18672 3.39984 0
M  V30 31879 C 3105 2.71794 3.58397 0
M  V30 31880 C 3106.32 0.769848 4.33314 0
M  V30 31881 H 3103.44 0.267081 0.686904 0
M  V30 31882 H 3106.08 1.28231 1.40203 0
M  V30 31883 H 3104.23 0.717803 3.81811 0
M  V30 31884 H 3105.9 3.26655 3.25721 0
M  V30 31885 H 3104.14 3.12043 3.01349 0
M  V30 31886 H 3104.82 2.98727 4.64183 0
M  V30 31887 H 3107.29 1.17321 3.99218 0
M  V30 31888 H 3106.17 1.11647 5.37426 0
M  V30 31889 H 3106.43 -0.327603 4.40885 0
M  V30 31890 N 3105.49 -1.35184 0.810125 0
M  V30 31891 C 3106.71 -2.03434 0.403676 0
M  V30 31892 C 3107.14 -1.60643 -0.978541 0
M  V30 31893 O 3106.5 -0.784808 -1.63433 0
M  V30 31894 C 3106.54 -3.57128 0.499217 0
M  V30 31895 O 3105.65 -4.09527 -0.485967 0
M  V30 31896 H 3104.99 -0.64238 0.168061 0
M  V30 31897 H 3107.52 -1.72706 1.09699 0
M  V30 31898 H 3107.53 -4.06316 0.370308 0
M  V30 31899 H 3106.2 -3.87621 1.5074 0
M  V30 31900 H 3104.78 -3.7155 -0.317004 0
M  V30 31901 N 3106.97 -0.56394 -1.47165 0
M  V30 31902 C 3108.21 -0.0424694 -2.02756 0
M  V30 31903 C 3108.55 1.30668 -1.43665 0
M  V30 31904 O 3107.82 1.85185 -0.594708 0
M  V30 31905 C 3108.1 0.043416 -3.60074 0
M  V30 31906 C 3107.96 -1.3333 -4.29585 0
M  V30 31907 C 3109.28 0.753492 -4.33602 0
M  V30 31908 H 3106.39 -0.0169076 -0.736806 0
M  V30 31909 H 3109.04 -0.727527 -1.75519 0
M  V30 31910 H 3107.19 0.626839 -3.8341 0
M  V30 31911 H 3108.86 -1.96045 -4.17569 0
M  V30 31912 H 3107.1 -1.90617 -3.89676 0
M  V30 31913 H 3107.77 -1.22586 -5.38216 0
M  V30 31914 H 3110.25 0.258053 -4.15299 0
M  V30 31915 H 3109.12 0.782564 -5.43293 0
M  V30 31916 H 3109.39 1.81101 -4.03305 0
M  V30 31917 N 3108.44 1.54704 -0.300735 0
M  V30 31918 C 3109.69 2.00134 0.308619 0
M  V30 31919 C 3110.02 1.18912 1.53916 0
M  V30 31920 O 3109.27 0.253298 1.94054 0
M  V30 31921 C 3109.57 3.50276 0.710046 0
M  V30 31922 C 3109.24 4.48952 -0.41873 0
M  V30 31923 C 3107.9 4.75652 -0.728608 0
M  V30 31924 C 3110.25 5.07712 -1.17806 0
M  V30 31925 C 3107.58 5.58375 -1.80095 0
M  V30 31926 C 3109.93 5.91602 -2.24032 0
M  V30 31927 C 3108.6 6.16613 -2.55626 0
M  V30 31928 H 3107.87 0.732344 0.112932 0
M  V30 31929 H 3110.51 1.86843 -0.419777 0
M  V30 31930 H 3108.82 3.61176 1.51852 0
M  V30 31931 H 3110.52 3.82852 1.1927 0
M  V30 31932 H 3107.11 4.28274 -0.167109 0
M  V30 31933 H 3111.29 4.87085 -0.951921 0
M  V30 31934 H 3106.55 5.75991 -2.05046 0
M  V30 31935 H 3110.72 6.36159 -2.83328 0
M  V30 31936 H 3108.35 6.80503 -3.38851 0
M  V30 31937 N 3109.92 0.0284543 1.57574 0
M  V30 31938 C 3110.83 -0.969322 2.13638 0
M  V30 31939 C 3111.85 -1.3575 1.08848 0
M  V30 31940 O 3113.02 -1.43905 1.40902 0
M  V30 31941 C 3110.09 -2.23335 2.65183 0
M  V30 31942 C 3109.15 -1.90565 3.84686 0
M  V30 31943 C 3108.38 -3.10942 4.33763 0
M  V30 31944 O 3108.61 -4.23579 3.82017 0
M  V30 31945 O 3107.54 -2.93279 5.25615 0
M  V30 31946 H 3111.37 -0.522617 2.9917 0
M  V30 31947 H 3108.95 -0.192109 1.4816 0
M  V30 31948 H 3110.83 -2.97541 2.98408 0
M  V30 31949 H 3109.51 -2.67188 1.82735 0
M  V30 31950 H 3108.42 -1.13746 3.56388 0
M  V30 31951 H 3109.75 -1.51529 4.68294 0
M  V30 31952 N 3111.4 -1.55689 -0.244686 0
M  V30 31953 C 3112.68 -1.68379 -0.995377 0
M  V30 31954 C 3113.06 -0.568985 -2.03287 0
M  V30 31955 O 3112.41 0.42726 -2.2447 0
M  V30 31956 C 3112.62 -3.0877 -1.62672 0
M  V30 31957 C 3113.96 -3.6744 -2.12774 0
M  V30 31958 O 3114.99 -3.11584 -1.72609 0
M  V30 31959 O 3113.85 -4.65365 -2.86528 0
M  V30 31960 H 3110.94 -0.684931 -0.463464 0
M  V30 31961 H 3113.49 -1.68019 -0.238297 0
M  V30 31962 H 3112.26 -3.81359 -0.876402 0
M  V30 31963 H 3111.88 -3.13151 -2.44995 0
M  V30 31964 N 3112.88 0.510441 -1.49105 0
M  V30 31965 C 3114.13 1.26515 -1.58114 0
M  V30 31966 C 3114.45 1.92705 -0.263637 0
M  V30 31967 O 3113.71 1.80853 0.747711 0
M  V30 31968 C 3114.01 2.36156 -2.68263 0
M  V30 31969 C 3113.67 1.87488 -4.10072 0
M  V30 31970 C 3112.34 1.73934 -4.48665 0
M  V30 31971 C 3114.69 1.50951 -4.98862 0
M  V30 31972 C 3112.02 1.22207 -5.73831 0
M  V30 31973 C 3114.37 1.0068 -6.24537 0
M  V30 31974 C 3113.03 0.857574 -6.61968 0
M  V30 31975 H 3112.3 0.462952 -0.578582 0
M  V30 31976 H 3114.95 0.567442 -1.829 0
M  V30 31977 H 3113.25 3.11677 -2.37413 0
M  V30 31978 H 3114.95 2.94236 -2.72445 0
M  V30 31979 H 3111.54 1.98994 -3.79604 0
M  V30 31980 H 3115.72 1.60274 -4.69708 0
M  V30 31981 H 3110.98 1.09357 -6.0154 0
M  V30 31982 H 3115.15 0.714858 -6.92721 0
M  V30 31983 H 3112.78 0.454569 -7.5884 0
M  V30 31984 N 3114.36 1.38021 0.760791 0
M  V30 31985 C 3115.61 1.33153 1.51503 0
M  V30 31986 C 3115.92 -0.078178 1.95444 0
M  V30 31987 O 3117.12 -0.249371 2.70352 0
M  V30 31988 C 3115.58 2.33781 2.73632 0
M  V30 31989 C 3115.19 3.80336 2.36746 0
M  V30 31990 C 3116.93 2.37943 3.51544 0
M  V30 31991 C 3114.84 4.72667 3.55443 0
M  V30 31992 H 3113.77 0.494917 0.568835 0
M  V30 31993 H 3116.42 1.63538 0.832314 0
M  V30 31994 H 3114.8 1.96428 3.43849 0
M  V30 31995 H 3115.98 4.26587 1.74242 0
M  V30 31996 H 3114.29 3.79223 1.71984 0
M  V30 31997 H 3116.89 3.04126 4.39785 0
M  V30 31998 H 3117.23 1.39624 3.92187 0
M  V30 31999 H 3117.76 2.74059 2.88334 0
M  V30 32000 H 3114.5 5.72156 3.19872 0
M  V30 32001 H 3114.02 4.31114 4.17014 0
M  V30 32002 H 3115.7 4.90333 4.22117 0
M  V30 32003 N 3115.83 -0.98818 1.22771 0
M  V30 32004 C 3117.06 -1.76123 1.08001 0
M  V30 32005 C 3117.47 -1.85506 -0.37203 0
M  V30 32006 O 3116.82 -1.32782 -1.26943 0
M  V30 32007 C 3116.88 -3.20831 1.62196 0
M  V30 32008 C 3116.54 -3.3498 3.10865 0
M  V30 32009 C 3117.54 -3.2192 4.08244 0
M  V30 32010 C 3115.22 -3.59879 3.50417 0
M  V30 32011 C 3117.22 -3.33551 5.43159 0
M  V30 32012 C 3114.9 -3.71151 4.85479 0
M  V30 32013 C 3115.9 -3.57996 5.8166 0
M  V30 32014 O 3115.59 -3.68883 7.14269 0
M  V30 32015 H 3115.32 -0.559799 0.378947 0
M  V30 32016 H 3117.88 -1.25076 1.62927 0
M  V30 32017 H 3116.11 -3.73092 1.01682 0
M  V30 32018 H 3117.8 -3.79869 1.43017 0
M  V30 32019 H 3118.56 -3.0259 3.79031 0
M  V30 32020 H 3114.44 -3.69193 2.76075 0
M  V30 32021 H 3117.98 -3.232 6.18213 0
M  V30 32022 H 3113.88 -3.89989 5.14372 0
M  V30 32023 H 3114.65 -3.85726 7.21912 0
M  V30 32024 N 3117.31 -1.03816 -1.18575 0
M  V30 32025 C 3118.56 -0.750926 -1.89031 0
M  V30 32026 C 3118.91 0.713412 -1.78685 0
M  V30 32027 O 3118.21 1.51371 -1.17463 0
M  V30 32028 C 3118.4 -1.14843 -3.38446 0
M  V30 32029 C 3118.23 -2.64987 -3.63335 0
M  V30 32030 C 3117 -3.32097 -3.80841 0
M  V30 32031 C 3119.2 -3.63205 -3.64125 0
M  V30 32032 N 3117.18 -4.71248 -3.93445 0
M  V30 32033 C 3118.55 -4.88017 -3.82412 0
M  V30 32034 C 3120.61 -3.56871 -3.472 0
M  V30 32035 C 3119.31 -6.07257 -3.85527 0
M  V30 32036 C 3121.33 -4.75535 -3.51596 0
M  V30 32037 C 3120.7 -5.99166 -3.70378 0
M  V30 32038 H 3116.8 -0.326799 -0.710441 0
M  V30 32039 H 3119.38 -1.32734 -1.42442 0
M  V30 32040 H 3117.55 -0.600125 -3.83736 0
M  V30 32041 H 3119.28 -0.812476 -3.9646 0
M  V30 32042 H 3116.04 -2.82503 -3.80117 0
M  V30 32043 H 3116.46 -5.43559 -4.03575 0
M  V30 32044 H 3121.1 -2.62266 -3.31627 0
M  V30 32045 H 3118.82 -7.02221 -3.99889 0
M  V30 32046 H 3122.41 -4.72273 -3.39778 0
M  V30 32047 H 3121.29 -6.89451 -3.73667 0
M  V30 32048 N 3118.79 1.34753 -0.817283 0
M  V30 32049 C 3120.02 2.03217 -0.414459 0
M  V30 32050 C 3120.44 1.6116 0.970008 0
M  V30 32051 O 3119.8 0.793464 1.63015 0
M  V30 32052 C 3119.85 3.56858 -0.518149 0
M  V30 32053 O 3118.95 4.09779 0.464242 0
M  V30 32054 H 3118.29 0.641479 -0.171465 0
M  V30 32055 H 3120.82 1.72121 -1.10614 0
M  V30 32056 H 3120.83 4.06114 -0.39185 0
M  V30 32057 H 3119.51 3.86817 -1.52793 0
M  V30 32058 H 3118.08 3.71713 0.297296 0
M  V30 32059 N 3120.27 0.571737 1.46864 0
M  V30 32060 C 3121.55 -0.0132101 1.95596 0
M  V30 32061 C 3121.93 -1.47068 1.5144 0
M  V30 32062 O 3121.27 -2.15492 0.759955 0
M  V30 32063 C 3121.48 0.147396 3.48689 0
M  V30 32064 C 3122.83 0.00953793 4.24599 0
M  V30 32065 O 3123.86 0.0756737 3.5612 0
M  V30 32066 O 3122.72 -0.135265 5.46333 0
M  V30 32067 H 3119.81 -0.0559894 0.825103 0
M  V30 32068 H 3122.36 0.639284 1.57198 0
M  V30 32069 H 3121.13 1.16103 3.73679 0
M  V30 32070 H 3120.75 -0.542039 3.93888 0
M  V30 32071 N 3121.75 -1.54542 0.308935 0
M  V30 32072 C 3123.16 -1.59539 -0.0441993 0
M  V30 32073 C 3123.36 -1.32578 -1.51741 0
M  V30 32074 O 3122.42 -1.10306 -2.27132 0
M  V30 32075 C 3123.73 -2.98527 0.360878 0
M  V30 32076 C 3125.28 -3.11458 0.310307 0
M  V30 32077 C 3125.76 -4.52768 0.690325 0
M  V30 32078 N 3127.25 -4.58713 0.643165 0
M  V30 32079 C 3127.98 -5.6614 0.909583 0
M  V30 32080 N 3127.48 -6.81569 1.24238 0
M  V30 32081 N 3129.27 -5.55847 0.836116 0
M  V30 32082 H 3121.42 -1.70327 1.26896 0
M  V30 32083 H 3123.68 -0.795914 0.515 0
M  V30 32084 H 3123.39 -3.23206 1.38674 0
M  V30 32085 H 3123.26 -3.76148 -0.281496 0
M  V30 32086 H 3125.65 -2.86522 -0.706325 0
M  V30 32087 H 3125.73 -2.35974 0.987414 0
M  V30 32088 H 3125.38 -4.78434 1.7048 0
M  V30 32089 H 3125.31 -5.26599 -0.00893818 0
M  V30 32090 H 3127.8 -3.75807 0.397204 0
M  V30 32091 H 3128.11 -7.59427 1.43143 0
M  V30 32092 H 3126.46 -6.83102 1.2805 0
M  V30 32093 H 3129.65 -4.64546 0.575718 0
M  V30 32094 H 3129.82 -6.39484 1.04711 0
M  V30 32095 N 3123.23 -0.0368104 -1.57557 0
M  V30 32096 C 3124.45 0.650133 -1.9642 0
M  V30 32097 C 3124.87 1.65219 -0.913685 0
M  V30 32098 O 3124.23 1.82205 0.103686 0
M  V30 32099 C 3124.28 1.34974 -3.35357 0
M  V30 32100 O 3124 0.387828 -4.3638 0
M  V30 32101 C 3125.5 2.12779 -3.88896 0
M  V30 32102 H 3122.72 0.178745 -0.646754 0
M  V30 32103 H 3125.26 -0.0988556 -2.04261 0
M  V30 32104 H 3123.42 2.05007 -3.28711 0
M  V30 32105 H 3123.83 0.885506 -5.16971 0
M  V30 32106 H 3125.31 2.57172 -4.88433 0
M  V30 32107 H 3125.78 2.97003 -3.23552 0
M  V30 32108 H 3126.39 1.47687 -3.98834 0
M  V30 32109 N 3124.7 1.55817 0.236426 0
M  V30 32110 C 3125.65 1.87584 1.296 0
M  V30 32111 C 3126.64 0.737591 1.42998 0
M  V30 32112 O 3127.83 0.999726 1.46063 0
M  V30 32113 C 3124.96 2.18314 2.64941 0
M  V30 32114 C 3124.04 3.38494 2.55505 0
M  V30 32115 N 3124.44 4.57497 2.15708 0
M  V30 32116 C 3122.73 3.41813 2.86496 0
M  V30 32117 C 3123.43 5.39645 2.1716 0
M  V30 32118 N 3122.41 4.78973 2.57071 0
M  V30 32119 H 3126.21 2.77116 0.978968 0
M  V30 32120 H 3123.73 1.56183 0.445031 0
M  V30 32121 H 3125.72 2.39242 3.41422 0
M  V30 32122 H 3124.38 1.30087 2.97502 0
M  V30 32123 H 3125.39 4.8293 1.8708 0
M  V30 32124 H 3122.07 2.63886 3.23528 0
M  V30 32125 H 3123.46 6.44875 1.88642 0
M  V30 32126 N 3126.18 -0.502526 1.49373 0
M  V30 32127 C 3127.14 -1.58651 1.65416 0
M  V30 32128 C 3128.14 -1.51953 0.52603 0
M  V30 32129 O 3129.33 -1.55132 0.792448 0
M  V30 32130 C 3126.47 -2.98303 1.6501 0
M  V30 32131 H 3127.66 -1.45757 2.62097 0
M  V30 32132 H 3125.21 -0.726648 1.38382 0
M  V30 32133 H 3125.95 -3.16676 0.69907 0
M  V30 32134 H 3125.73 -3.04573 2.46936 0
M  V30 32135 H 3127.22 -3.77062 1.79483 0
M  V30 32136 N 3127.66 -1.38422 -0.75346 0
M  V30 32137 C 3128.61 -1.35777 -1.88858 0
M  V30 32138 C 3129.6 -0.243637 -1.67639 0
M  V30 32139 O 3130.81 -0.41268 -1.75205 0
M  V30 32140 H 3127.18 -0.423571 -0.621363 0
M  V30 32141 H 3129.15 -2.31563 -1.88205 0
M  V30 32142 C 3127.9 -1.19984 -3.26342 0
M  V30 32143 H 3127.23 -2.04977 -3.43256 0
M  V30 32144 H 3128.67 -1.22188 -4.06012 0
M  V30 32145 C 3127.12 0.0932275 -3.36771 0
M  V30 32146 O 3127.65 1.0702 -3.87181 0
M  V30 32147 N 3125.86 0.150103 -2.90212 0
M  V30 32148 H 3125.41 -0.645606 -2.49379 0
M  V30 32149 H 3125.37 1.01485 -2.9757 0
M  V30 32150 N 3129.14 0.981655 -1.23294 0
M  V30 32151 C 3130.39 1.71937 -1.06217 0
M  V30 32152 C 3130.71 1.90812 0.401955 0
M  V30 32153 O 3129.98 1.47586 1.28822 0
M  V30 32154 H 3128.56 0.637078 -0.390053 0
M  V30 32155 H 3131.22 1.1817 -1.5499 0
M  V30 32156 H 3130.31 2.70942 -1.54909 0
M  V30 32157 N 3130.62 1.04444 1.18022 0
M  V30 32158 C 3131.84 0.770131 1.92571 0
M  V30 32159 C 3132.27 -0.667138 1.75872 0
M  V30 32160 O 3131.62 -1.46256 1.07139 0
M  V30 32161 C 3131.67 1.14608 3.41902 0
M  V30 32162 O 3130.78 0.273784 4.1149 0
M  V30 32163 H 3130.12 0.283086 0.600631 0
M  V30 32164 H 3132.65 1.39529 1.49643 0
M  V30 32165 H 3132.66 1.10963 3.92621 0
M  V30 32166 H 3131.33 2.1931 3.53378 0
M  V30 32167 H 3129.91 0.37019 3.71058 0
M  V30 32168 N 3132.09 -1.34317 0.824418 0
M  V30 32169 C 3133.34 -1.97497 0.409594 0
M  V30 32170 C 3133.66 -1.66085 -1.0332 0
M  V30 32171 O 3134.86 -2.22766 -1.55201 0
M  V30 32172 C 3133.32 -3.5339 0.681446 0
M  V30 32173 C 3132.93 -3.93694 2.13796 0
M  V30 32174 C 3134.67 -4.23193 0.332862 0
M  V30 32175 C 3132.58 -5.42505 2.35463 0
M  V30 32176 H 3131.51 -0.739046 0.149422 0
M  V30 32177 H 3134.16 -1.53139 1.01098 0
M  V30 32178 H 3132.54 -3.95999 0.00987336 0
M  V30 32179 H 3133.71 -3.62186 2.84882 0
M  V30 32180 H 3132.03 -3.36832 2.44813 0
M  V30 32181 H 3134.63 -5.32608 0.472556 0
M  V30 32182 H 3134.97 -4.09977 -0.72279 0
M  V30 32183 H 3135.5 -3.86066 0.959073 0
M  V30 32184 H 3132.24 -5.60708 3.39539 0
M  V30 32185 H 3131.76 -5.75522 1.68922 0
M  V30 32186 H 3133.44 -6.09205 2.17896 0
M  V30 32187 N 3133.57 -0.579517 -1.46558 0
M  V30 32188 C 3134.52 0.155558 -2.30275 0
M  V30 32189 C 3135.49 0.887151 -1.40424 0
M  V30 32190 O 3136.67 0.878451 -1.69375 0
M  V30 32191 C 3133.81 1.16533 -3.24829 0
M  V30 32192 C 3132.93 0.437514 -4.29779 0
M  V30 32193 C 3132.06 1.43453 -5.11463 0
M  V30 32194 C 3131.1 0.692941 -6.08165 0
M  V30 32195 N 3130.24 1.63787 -6.82729 0
M  V30 32196 H 3135.08 -0.564408 -2.92606 0
M  V30 32197 H 3132.61 -0.290151 -1.4421 0
M  V30 32198 H 3134.57 1.76361 -3.78091 0
M  V30 32199 H 3133.2 1.85305 -2.64314 0
M  V30 32200 H 3132.25 -0.275737 -3.79399 0
M  V30 32201 H 3133.57 -0.142386 -4.98597 0
M  V30 32202 H 3132.72 2.1057 -5.68986 0
M  V30 32203 H 3131.46 2.04836 -4.42598 0
M  V30 32204 H 3130.46 0.00797429 -5.49799 0
M  V30 32205 H 3131.69 0.0845485 -6.79047 0
M  V30 32206 H 3129.64 2.23986 -6.16576 0
M  V30 32207 H 3129.55 1.11069 -7.47797 0
M  V30 32208 H 3130.82 2.29949 -7.44811 0
M  V30 32209 N 3135.05 1.54376 -0.317127 0
M  V30 32210 C 3136.47 1.5956 0.035738 0
M  V30 32211 C 3136.67 1.33381 1.51036 0
M  V30 32212 O 3135.72 1.11509 2.26544 0
M  V30 32213 C 3137.04 2.98331 -0.376705 0
M  V30 32214 C 3138.58 3.11289 -0.32682 0
M  V30 32215 C 3139.06 4.52395 -0.714327 0
M  V30 32216 N 3140.55 4.58365 -0.667483 0
M  V30 32217 C 3141.28 5.65649 -0.939594 0
M  V30 32218 N 3140.78 6.80901 -1.27851 0
M  V30 32219 N 3142.57 5.55395 -0.865582 0
M  V30 32220 H 3134.72 1.69651 -1.27797 0
M  V30 32221 H 3136.99 0.793171 -0.519214 0
M  V30 32222 H 3136.69 3.22466 -1.40386 0
M  V30 32223 H 3136.57 3.76292 0.261544 0
M  V30 32224 H 3138.95 2.86893 0.69112 0
M  V30 32225 H 3139.04 2.35447 -0.999915 0
M  V30 32226 H 3138.68 4.77523 -1.73015 0
M  V30 32227 H 3138.61 5.26597 -0.0189888 0
M  V30 32228 H 3141.1 3.75591 -0.417128 0
M  V30 32229 H 3141.41 7.58658 -1.47169 0
M  V30 32230 H 3139.76 6.82413 -1.3167 0
M  V30 32231 H 3142.95 4.64234 -0.600346 0
M  V30 32232 H 3143.12 6.3892 -1.08101 0
M  V30 32233 N 3136.53 0.0451655 1.57535 0
M  V30 32234 C 3137.78 -0.628709 1.92072 0
M  V30 32235 C 3138.1 -1.71736 0.923666 0
M  V30 32236 O 3137.37 -1.95873 -0.0324032 0
M  V30 32237 H 3135.95 -0.235221 0.708999 0
M  V30 32238 H 3138.61 0.096752 1.9466 0
M  V30 32239 H 3137.71 -1.07117 2.93142 0
M  V30 32240 N 3138.01 -1.5594 -0.228159 0
M  V30 32241 C 3139.23 -1.83066 -0.974763 0
M  V30 32242 C 3139.66 -0.624655 -1.77425 0
M  V30 32243 O 3139.01 0.426525 -1.76211 0
M  V30 32244 C 3139.06 -3.08119 -1.87337 0
M  V30 32245 O 3138.17 -2.8635 -2.96779 0
M  V30 32246 H 3137.51 -0.603752 -0.276368 0
M  V30 32247 H 3140.04 -2.03146 -0.243471 0
M  V30 32248 H 3140.05 -3.38049 -2.28445 0
M  V30 32249 H 3138.72 -3.95529 -1.28568 0
M  V30 32250 H 3137.3 -2.67636 -2.59664 0
M  V30 32251 N 3139.48 0.494597 -1.49638 0
M  V30 32252 C 3140.43 1.59542 -1.66778 0
M  V30 32253 C 3141.4 1.58103 -0.509187 0
M  V30 32254 O 3142.59 1.75992 -0.73698 0
M  V30 32255 C 3139.73 2.97655 -1.7463 0
M  V30 32256 C 3138.84 3.09061 -3.01836 0
M  V30 32257 C 3137.97 4.37946 -3.00627 0
M  V30 32258 C 3137.01 4.43009 -4.22385 0
M  V30 32259 N 3136.15 5.63331 -4.19049 0
M  V30 32260 H 3140.99 1.44233 -2.6077 0
M  V30 32261 H 3138.53 0.70165 -1.29288 0
M  V30 32262 H 3140.49 3.77716 -1.77162 0
M  V30 32263 H 3139.12 3.11652 -0.840991 0
M  V30 32264 H 3138.17 2.22023 -3.08885 0
M  V30 32265 H 3139.48 3.08662 -3.91828 0
M  V30 32266 H 3138.63 5.26334 -3.01758 0
M  V30 32267 H 3137.37 4.4092 -2.08424 0
M  V30 32268 H 3136.38 3.53023 -4.21491 0
M  V30 32269 H 3137.6 4.41746 -5.15788 0
M  V30 32270 H 3135.55 5.67135 -3.29687 0
M  V30 32271 H 3135.47 5.64575 -5.02784 0
M  V30 32272 H 3136.73 6.53908 -4.24293 0
M  V30 32273 N 3140.96 1.3882 0.746109 0
M  V30 32274 C 3142.24 1.25953 1.4965 0
M  V30 32275 C 3142.62 -0.135796 2.10663 0
M  V30 32276 O 3141.97 -1.14601 1.97684 0
M  V30 32277 C 3142.18 2.37541 2.55686 0
M  V30 32278 C 3143.53 2.76326 3.2238 0
M  V30 32279 O 3144.55 2.36909 2.65994 0
M  V30 32280 O 3143.41 3.44327 4.24384 0
M  V30 32281 H 3140.5 0.49297 0.66401 0
M  V30 32282 H 3143.05 1.50666 0.780882 0
M  V30 32283 H 3141.82 3.30871 2.08903 0
M  V30 32284 H 3141.44 2.14433 3.3482 0
M  V30 32285 N 3142.44 -0.975103 1.23812 0
M  V30 32286 C 3143.39 -2.08968 1.02153 0
M  V30 32287 C 3144.38 -1.6935 -0.0411874 0
M  V30 32288 O 3145.59 -1.79646 0.112757 0
M  V30 32289 H 3141.96 -0.683641 0.313271 0
M  V30 32290 H 3143.93 -2.24401 1.96689 0
M  V30 32291 C 3142.68 -3.41851 0.635084 0
M  V30 32292 H 3142.01 -3.7279 1.44456 0
M  V30 32293 H 3143.45 -4.20761 0.523084 0
M  V30 32294 C 3141.91 -3.30429 -0.657149 0
M  V30 32295 O 3142.44 -3.63726 -1.70488 0
M  V30 32296 N 3140.64 -2.83576 -0.635072 0
M  V30 32297 H 3140.19 -2.56677 0.217885 0
M  V30 32298 H 3140.15 -2.76316 -1.4999 0
M  V30 32299 N 3143.92 -1.05068 -1.17467 0
M  V30 32300 C 3144.88 -0.654832 -2.19647 0
M  V30 32301 C 3145.88 0.293035 -1.58107 0
M  V30 32302 O 3147.07 0.0770754 -1.74029 0
M  V30 32303 C 3144.2 0.0383838 -3.40878 0
M  V30 32304 H 3145.4 -1.5592 -2.56182 0
M  V30 32305 H 3142.95 -0.844419 -1.31527 0
M  V30 32306 H 3143.68 0.956078 -3.09886 0
M  V30 32307 H 3143.47 -0.643029 -3.86791 0
M  V30 32308 H 3144.96 0.301494 -4.1651 0
M  V30 32309 N 3145.4 1.33878 -0.831529 0
M  V30 32310 C 3146.62 2.02233 -0.436961 0
M  V30 32311 C 3147.04 1.62591 0.95966 0
M  V30 32312 O 3146.4 0.835605 1.62246 0
M  V30 32313 C 3146.45 3.57452 -0.539492 0
M  V30 32314 O 3146.17 3.9566 -1.88108 0
M  V30 32315 C 3147.67 4.43076 -0.14093 0
M  V30 32316 H 3144.89 0.647963 -0.174314 0
M  V30 32317 H 3147.43 1.70967 -1.12207 0
M  V30 32318 H 3145.59 3.87277 0.0976279 0
M  V30 32319 H 3146 4.90359 -1.8614 0
M  V30 32320 H 3147.48 5.5137 -0.263736 0
M  V30 32321 H 3147.95 4.29533 0.91643 0
M  V30 32322 H 3148.56 4.18595 -0.752191 0
M  V30 32323 N 3146.87 0.587281 1.46249 0
M  V30 32324 C 3148.15 0.00753619 1.95599 0
M  V30 32325 C 3148.53 -1.45454 1.52991 0
M  V30 32326 O 3147.88 -2.14674 0.782768 0
M  V30 32327 C 3148.09 0.184371 3.48513 0
M  V30 32328 C 3149.44 0.0545718 4.24565 0
M  V30 32329 O 3150.46 0.113441 3.56019 0
M  V30 32330 O 3149.32 -0.0773115 5.46445 0
M  V30 32331 H 3146.41 -0.047235 0.82565 0
M  V30 32332 H 3148.96 0.655921 1.56511 0
M  V30 32333 H 3147.73 1.2006 3.72426 0
M  V30 32334 H 3147.36 -0.500232 3.94441 0
M  V30 32335 N 3148.35 -1.54206 0.325309 0
M  V30 32336 C 3149.58 -2.05482 -0.281382 0
M  V30 32337 C 3150 -1.1998 -1.44867 0
M  V30 32338 O 3149.36 -0.209306 -1.80088 0
M  V30 32339 C 3149.41 -3.53899 -0.691967 0
M  V30 32340 O 3148.51 -3.71328 -1.79414 0
M  V30 32341 H 3147.85 -0.662079 -0.0504756 0
M  V30 32342 H 3150.38 -1.99028 0.474226 0
M  V30 32343 H 3150.39 -3.962 -0.974149 0
M  V30 32344 H 3149.07 -4.15585 0.161783 0
M  V30 32345 H 3147.65 -3.40932 -1.51063 0
M  V30 32346 N 3149.83 -0.0535194 -1.57509 0
M  V30 32347 C 3151.08 0.620657 -1.93069 0
M  V30 32348 C 3151.41 1.70356 -0.932343 0
M  V30 32349 O 3150.69 1.94456 0.0413051 0
M  V30 32350 C 3150.97 1.21457 -3.38999 0
M  V30 32351 C 3150.82 0.139571 -4.49583 0
M  V30 32352 C 3152.14 2.12552 -3.8537 0
M  V30 32353 H 3149.26 0.22415 -0.702087 0
M  V30 32354 H 3151.9 -0.115763 -1.89647 0
M  V30 32355 H 3150.05 1.8422 -3.42046 0
M  V30 32356 H 3151.72 -0.492492 -4.58664 0
M  V30 32357 H 3149.97 -0.532081 -4.30524 0
M  V30 32358 H 3150.64 0.595191 -5.48782 0
M  V30 32359 H 3153.11 1.59748 -3.84213 0
M  V30 32360 H 3151.99 2.5105 -4.88124 0
M  V30 32361 H 3152.25 3.02655 -3.22261 0
M  V30 32362 N 3151.31 1.56059 0.219886 0
M  V30 32363 C 3152.72 1.69314 0.786736 0
M  V30 32364 C 3153.07 0.655815 1.84915 0
M  V30 32365 O 3152.2 -0.192734 2.1554 0
M  V30 32366 C 3152.79 3.06965 1.43381 0
M  V30 32367 C 3151.35 3.22069 1.94804 0
M  V30 32368 C 3150.5 2.65242 0.808816 0
M  V30 32369 H 3153.45 1.58699 -0.00479567 0
M  V30 32370 H 3153.47 3.02915 2.30267 0
M  V30 32371 H 3152.98 3.82441 0.660338 0
M  V30 32372 H 3151.08 2.51465 2.74948 0
M  V30 32373 H 3151.2 4.29303 2.12686 0
M  V30 32374 H 3149.56 2.23767 1.21658 0
M  V30 32375 H 3150.34 3.43266 0.0479854 0
M  V30 32376 N 3152.79 -0.486655 1.49898 0
M  V30 32377 C 3153.72 -1.59491 1.70543 0
M  V30 32378 C 3154.7 -1.60818 0.554213 0
M  V30 32379 O 3155.88 -1.77332 0.791648 0
M  V30 32380 C 3153.01 -2.97905 1.78522 0
M  V30 32381 C 3151.97 -3.11444 2.93576 0
M  V30 32382 C 3151.29 -4.51351 2.86682 0
M  V30 32383 C 3152.59 -2.90119 4.34313 0
M  V30 32384 H 3154.29 -1.42467 2.63331 0
M  V30 32385 H 3151.83 -0.683947 1.26721 0
M  V30 32386 H 3153.79 -3.75348 1.9155 0
M  V30 32387 H 3152.51 -3.16049 0.823437 0
M  V30 32388 H 3151.17 -2.36429 2.80173 0
M  V30 32389 H 3150.82 -4.66392 1.88381 0
M  V30 32390 H 3150.52 -4.61348 3.63912 0
M  V30 32391 H 3152.04 -5.30836 3.01737 0
M  V30 32392 H 3153.46 -3.57323 4.48323 0
M  V30 32393 H 3151.85 -3.11576 5.12875 0
M  V30 32394 H 3152.92 -1.86111 4.47762 0
M  V30 32395 N 3154.27 -1.39214 -0.738737 0
M  V30 32396 C 3155.68 -1.20736 -1.04379 0
M  V30 32397 C 3155.88 -0.0663436 -2.01391 0
M  V30 32398 O 3154.94 0.583186 -2.45673 0
M  V30 32399 C 3156.25 -2.53989 -1.60965 0
M  V30 32400 C 3157.8 -2.60802 -1.73064 0
M  V30 32401 C 3158.27 -3.94268 -2.3306 0
M  V30 32402 N 3159.76 -3.95887 -2.40474 0
M  V30 32403 C 3160.5 -4.95928 -2.87825 0
M  V30 32404 N 3160 -6.06366 -3.351 0
M  V30 32405 N 3161.79 -4.83309 -2.87 0
M  V30 32406 H 3153.94 -2.12186 -0.0952623 0
M  V30 32407 H 3156.2 -0.94218 -0.104885 0
M  V30 32408 H 3155.91 -3.38016 -0.971488 0
M  V30 32409 H 3155.78 -2.73443 -2.59824 0
M  V30 32410 H 3158.17 -1.77161 -2.36004 0
M  V30 32411 H 3158.25 -2.45202 -0.728684 0
M  V30 32412 H 3157.89 -4.78338 -1.70749 0
M  V30 32413 H 3157.82 -4.07187 -3.33926 0
M  V30 32414 H 3160.32 -3.16127 -2.07056 0
M  V30 32415 H 3160.63 -6.78616 -3.6973 0
M  V30 32416 H 3158.97 -6.09965 -3.33119 0
M  V30 32417 H 3162.16 -3.96136 -2.49388 0
M  V30 32418 H 3162.34 -5.61422 -3.23588 0
M  V30 32419 N 3155.74 0.968523 -1.24328 0
M  V30 32420 C 3156.97 1.74636 -1.1095 0
M  V30 32421 C 3157.39 1.85749 0.338032 0
M  V30 32422 O 3156.74 1.34523 1.23329 0
M  V30 32423 C 3156.79 3.16727 -1.74259 0
M  V30 32424 O 3156.52 3.06173 -3.13353 0
M  V30 32425 C 3158.02 4.10852 -1.6648 0
M  V30 32426 H 3155.24 0.547673 -0.38768 0
M  V30 32427 H 3157.78 1.21602 -1.64417 0
M  V30 32428 H 3155.94 3.66749 -1.24796 0
M  V30 32429 H 3156.35 3.95707 -3.44262 0
M  V30 32430 H 3157.82 5.08213 -2.15461 0
M  V30 32431 H 3158.3 4.34718 -0.625862 0
M  V30 32432 H 3158.91 3.66739 -2.15365 0
M  V30 32433 N 3157.22 1.0569 1.16908 0
M  V30 32434 C 3158.47 0.768442 1.86921 0
M  V30 32435 C 3158.79 -0.706889 1.81736 0
M  V30 32436 O 3158.06 -1.51107 1.24673 0
M  V30 32437 H 3156.64 0.281265 0.692025 0
M  V30 32438 H 3159.3 1.33711 1.41801 0
M  V30 32439 H 3158.4 1.08788 2.92526 0
M  V30 32440 N 3158.7 -1.33435 0.838617 0
M  V30 32441 C 3159.95 -1.97052 0.430518 0
M  V30 32442 C 3160.26 -1.67172 -1.01553 0
M  V30 32443 O 3161.47 -2.244 -1.5283 0
M  V30 32444 C 3159.92 -3.52647 0.71889 0
M  V30 32445 C 3159.53 -3.91404 2.1796 0
M  V30 32446 C 3161.28 -4.22816 0.377728 0
M  V30 32447 C 3159.18 -5.39977 2.41203 0
M  V30 32448 H 3158.11 -0.73742 0.157252 0
M  V30 32449 H 3160.76 -1.52058 1.02717 0
M  V30 32450 H 3159.15 -3.95966 0.0518738 0
M  V30 32451 H 3160.32 -3.59144 2.88707 0
M  V30 32452 H 3158.63 -3.34216 2.48371 0
M  V30 32453 H 3161.23 -5.32077 0.52902 0
M  V30 32454 H 3161.57 -4.10721 -0.679266 0
M  V30 32455 H 3162.11 -3.85027 0.999967 0
M  V30 32456 H 3158.85 -5.57075 3.45467 0
M  V30 32457 H 3158.37 -5.73698 1.75017 0
M  V30 32458 H 3160.05 -6.06859 2.24345 0
M  V30 32459 N 3160.18 -0.595029 -1.45935 0
M  V30 32460 C 3161.43 -0.0851723 -2.0192 0
M  V30 32461 C 3161.75 1.2841 -1.46751 0
M  V30 32462 O 3161.02 1.84558 -0.656906 0
M  V30 32463 H 3159.6 -0.0284957 -0.746456 0
M  V30 32464 H 3162.26 -0.773592 -1.7889 0
M  V30 32465 H 3161.35 -0.025455 -3.1209 0
M  V30 32466 N 3161.66 1.54031 -0.333483 0
M  V30 32467 C 3162.9 2.01041 0.266492 0
M  V30 32468 C 3163.23 1.22113 1.51004 0
M  V30 32469 O 3162.51 0.30605 1.92077 0
M  V30 32470 C 3162.79 3.55222 0.590718 0
M  V30 32471 C 3162.65 4.44869 -0.664222 0
M  V30 32472 C 3163.96 4.17091 1.40439 0
M  V30 32473 H 3161.08 0.730801 0.0953851 0
M  V30 32474 H 3163.73 1.84545 -0.452027 0
M  V30 32475 H 3161.88 3.6941 1.20285 0
M  V30 32476 H 3163.55 4.42534 -1.30235 0
M  V30 32477 H 3161.79 4.1414 -1.29113 0
M  V30 32478 H 3162.46 5.50601 -0.392761 0
M  V30 32479 H 3164.94 4.06539 0.886875 0
M  V30 32480 H 3163.81 5.25063 1.60001 0
M  V30 32481 H 3164.07 3.71058 2.40351 0
M  V30 32482 N 3163.13 0.0618717 1.57479 0
M  V30 32483 C 3164.07 -0.938209 2.09118 0
M  V30 32484 C 3165.08 -1.26787 1.02122 0
M  V30 32485 O 3166.27 -1.22679 1.29662 0
M  V30 32486 C 3163.37 -2.25682 2.52826 0
M  V30 32487 C 3162.54 -2.10748 3.8328 0
M  V30 32488 C 3161.6 -3.25826 4.13187 0
M  V30 32489 O 3160.63 -3.01256 4.82942 0
M  V30 32490 N 3161.83 -4.50626 3.65946 0
M  V30 32491 H 3164.59 -0.497381 2.95544 0
M  V30 32492 H 3162.15 -0.124106 1.61424 0
M  V30 32493 H 3164.15 -3.01555 2.69902 0
M  V30 32494 H 3162.72 -2.61296 1.71591 0
M  V30 32495 H 3161.94 -1.19402 3.75682 0
M  V30 32496 H 3163.22 -1.9801 4.68689 0
M  V30 32497 H 3162.62 -4.73477 3.09575 0
M  V30 32498 H 3161.18 -5.23558 3.8824 0
M  V30 32499 N 3164.61 -1.56173 -0.211607 0
M  V30 32500 C 3165.54 -1.96246 -1.26529 0
M  V30 32501 C 3166.52 -0.832054 -1.48361 0
M  V30 32502 O 3167.71 -1.09513 -1.60376 0
M  V30 32503 C 3164.84 -2.28775 -2.61303 0
M  V30 32504 C 3163.79 -3.44399 -2.54112 0
M  V30 32505 C 3163.12 -3.62559 -3.93007 0
M  V30 32506 C 3164.42 -4.7908 -2.08038 0
M  V30 32507 H 3166.11 -2.84513 -0.932357 0
M  V30 32508 H 3163.66 -1.36885 -0.44706 0
M  V30 32509 H 3165.61 -2.55402 -3.35184 0
M  V30 32510 H 3164.34 -1.37372 -2.96305 0
M  V30 32511 H 3162.99 -3.17837 -1.82689 0
M  V30 32512 H 3162.64 -2.68516 -4.25333 0
M  V30 32513 H 3162.34 -4.40334 -3.89075 0
M  V30 32514 H 3163.87 -3.91545 -4.68535 0
M  V30 32515 H 3165.28 -5.04846 -2.71667 0
M  V30 32516 H 3163.68 -5.60208 -2.15144 0
M  V30 32517 H 3164.75 -4.73769 -1.03298 0
M  V30 32518 N 3166.09 0.478699 -1.50154 0
M  V30 32519 C 3167.04 1.57764 -1.68461 0
M  V30 32520 C 3168.01 1.57554 -0.525927 0
M  V30 32521 O 3169.19 1.75201 -0.755605 0
M  V30 32522 C 3166.33 2.95786 -1.77777 0
M  V30 32523 C 3165.45 3.05843 -3.05097 0
M  V30 32524 C 3164.58 4.34733 -3.05255 0
M  V30 32525 C 3163.62 4.38504 -4.2706 0
M  V30 32526 N 3162.76 5.58855 -4.25001 0
M  V30 32527 H 3167.6 1.41459 -2.62285 0
M  V30 32528 H 3165.13 0.687898 -1.30025 0
M  V30 32529 H 3167.09 3.75816 -1.81159 0
M  V30 32530 H 3165.72 3.10743 -0.873999 0
M  V30 32531 H 3164.77 2.18734 -3.11222 0
M  V30 32532 H 3166.09 3.04488 -3.9508 0
M  V30 32533 H 3165.24 5.23103 -3.07323 0
M  V30 32534 H 3163.98 4.38685 -2.13089 0
M  V30 32535 H 3162.98 3.48532 -4.25212 0
M  V30 32536 H 3164.21 4.3625 -5.20445 0
M  V30 32537 H 3162.15 5.63607 -3.35684 0
M  V30 32538 H 3162.07 5.5921 -5.08743 0
M  V30 32539 H 3163.34 6.49371 -4.31205 0
M  V30 32540 N 3167.57 1.39603 0.731343 0
M  V30 32541 C 3168.85 1.27533 1.48306 0
M  V30 32542 C 3169.23 -0.113445 2.10795 0
M  V30 32543 O 3168.57 -1.12498 1.98888 0
M  V30 32544 C 3168.78 2.4024 2.53152 0
M  V30 32545 C 3170.13 2.7973 3.19431 0
M  V30 32546 O 3171.16 2.39716 2.63466 0
M  V30 32547 O 3170.01 3.48808 4.20708 0
M  V30 32548 H 3167.11 0.499985 0.658744 0
M  V30 32549 H 3169.65 1.51486 0.764857 0
M  V30 32550 H 3168.43 3.33068 2.05382 0
M  V30 32551 H 3168.05 2.17972 3.32527 0
M  V30 32552 N 3169.05 -0.961916 1.2484 0
M  V30 32553 C 3170.3 -1.69997 1.08553 0
M  V30 32554 C 3170.61 -1.91979 -0.374611 0
M  V30 32555 O 3171.81 -2.63411 -0.657775 0
M  V30 32556 C 3170.27 -3.06014 1.8943 0
M  V30 32557 C 3169.88 -2.91854 3.3989 0
M  V30 32558 C 3171.62 -3.83652 1.81691 0
M  V30 32559 C 3169.53 -4.23215 4.13089 0
M  V30 32560 H 3168.46 -0.637509 0.402614 0
M  V30 32561 H 3171.11 -1.07143 1.48972 0
M  V30 32562 H 3169.49 -3.6973 1.41829 0
M  V30 32563 H 3170.67 -2.37114 3.95112 0
M  V30 32564 H 3168.98 -2.27677 3.48644 0
M  V30 32565 H 3171.58 -4.80935 2.33678 0
M  V30 32566 H 3171.92 -4.08864 0.783319 0
M  V30 32567 H 3172.45 -3.26672 2.27002 0
M  V30 32568 H 3169.19 -4.03194 5.16831 0
M  V30 32569 H 3168.71 -4.77749 3.62652 0
M  V30 32570 H 3170.39 -4.91801 4.20405 0
M  V30 32571 N 3170.52 -1.06308 -1.16346 0
M  V30 32572 C 3171.47 -0.674001 -2.20739 0
M  V30 32573 C 3172.44 0.329425 -1.628 0
M  V30 32574 O 3173.63 0.218279 -1.89547 0
M  V30 32575 C 3170.77 -0.0667615 -3.45035 0
M  V30 32576 C 3169.88 -1.12038 -4.17219 0
M  V30 32577 C 3169.01 -0.479269 -5.29034 0
M  V30 32578 C 3168.05 -1.51642 -5.93019 0
M  V30 32579 N 3167.19 -0.898651 -6.96325 0
M  V30 32580 H 3172.03 -1.56864 -2.53373 0
M  V30 32581 H 3169.57 -0.784298 -1.24448 0
M  V30 32582 H 3171.53 0.302843 -4.16099 0
M  V30 32583 H 3170.16 0.791278 -3.12951 0
M  V30 32584 H 3169.21 -1.60769 -3.44757 0
M  V30 32585 H 3170.52 -1.9072 -4.60898 0
M  V30 32586 H 3169.67 -0.0567059 -6.06673 0
M  V30 32587 H 3168.41 0.339424 -4.86517 0
M  V30 32588 H 3167.42 -1.94887 -5.141 0
M  V30 32589 H 3168.64 -2.33721 -6.37614 0
M  V30 32590 H 3166.59 -0.100671 -6.55923 0
M  V30 32591 H 3166.51 -1.62285 -7.38376 0
M  V30 32592 H 3167.77 -0.501237 -7.77887 0
M  V30 32593 N 3172 1.32989 -0.845682 0
M  V30 32594 C 3173.25 1.9785 -0.445346 0
M  V30 32595 C 3173.58 1.66806 0.994446 0
M  V30 32596 O 3172.86 0.95154 1.69635 0
M  V30 32597 C 3173.14 3.53728 -0.674433 0
M  V30 32598 C 3172.99 3.94434 -2.16199 0
M  V30 32599 C 3174.31 4.39922 -0.124985 0
M  V30 32600 H 3171.43 0.718685 -0.163282 0
M  V30 32601 H 3174.07 1.57518 -1.06245 0
M  V30 32602 H 3172.22 3.88214 -0.149159 0
M  V30 32603 H 3173.89 3.70171 -2.75265 0
M  V30 32604 H 3172.14 3.43918 -2.64392 0
M  V30 32605 H 3172.81 5.03029 -2.27301 0
M  V30 32606 H 3175.28 4.12121 -0.574058 0
M  V30 32607 H 3174.16 5.47996 -0.314912 0
M  V30 32608 H 3174.42 4.3129 0.971682 0
M  V30 32609 N 3173.48 0.60276 1.45618 0
M  V30 32610 C 3174.73 0.0960692 2.02272 0
M  V30 32611 C 3175.06 -1.27156 1.47179 0
M  V30 32612 O 3174.31 -1.85124 0.634626 0
M  V30 32613 C 3174.61 0.00164192 3.574 0
M  V30 32614 C 3174.28 1.3043 4.31624 0
M  V30 32615 C 3172.94 1.66114 4.51619 0
M  V30 32616 C 3175.29 2.16543 4.74087 0
M  V30 32617 C 3172.62 2.87672 5.11333 0
M  V30 32618 C 3174.97 3.37346 5.35146 0
M  V30 32619 C 3173.63 3.73288 5.53365 0
M  V30 32620 H 3172.9 0.0351542 0.740166 0
M  V30 32621 H 3175.55 0.783412 1.74742 0
M  V30 32622 H 3173.86 -0.76894 3.8418 0
M  V30 32623 H 3175.55 -0.406478 3.98935 0
M  V30 32624 H 3172.14 1.01654 4.1637 0
M  V30 32625 H 3176.33 1.90274 4.58377 0
M  V30 32626 H 3171.58 3.15632 5.23628 0
M  V30 32627 H 3175.76 4.04326 5.67004 0
M  V30 32628 H 3173.38 4.67567 5.99404 0
M  V30 32629 N 3174.96 -1.53852 0.341647 0
M  V30 32630 C 3175.91 -2.26449 -0.531372 0
M  V30 32631 C 3176.9 -1.28523 -1.10354 0
M  V30 32632 O 3178.11 -1.46238 -1.0495 0
M  V30 32633 H 3174.48 -0.727591 -0.190041 0
M  V30 32634 H 3176.45 -2.98222 0.102974 0
M  V30 32635 C 3175.2 -3.04888 -1.67149 0
M  V30 32636 H 3174.52 -3.80068 -1.24049 0
M  V30 32637 H 3175.96 -3.58901 -2.25756 0
M  V30 32638 C 3174.42 -2.14271 -2.5998 0
M  V30 32639 O 3174.95 -1.73753 -3.62178 0
M  V30 32640 N 3173.16 -1.79389 -2.28622 0
M  V30 32641 H 3172.71 -2.12536 -1.45555 0
M  V30 32642 H 3172.66 -1.1904 -2.90993 0
M  V30 32643 N 3176.44 -0.0702223 -1.57443 0
M  V30 32644 C 3177.85 0.286403 -1.57009 0
M  V30 32645 C 3178.05 1.70145 -1.07949 0
M  V30 32646 O 3177.11 2.4127 -0.744665 0
M  V30 32647 C 3178.42 0.0974937 -3.00542 0
M  V30 32648 C 3179.97 0.16715 -3.12553 0
M  V30 32649 C 3180.44 0.00653997 -4.58 0
M  V30 32650 N 3181.94 0.0621964 -4.63158 0
M  V30 32651 C 3182.67 -0.0376839 -5.73388 0
M  V30 32652 N 3182.17 -0.190995 -6.92537 0
M  V30 32653 N 3183.96 0.0192684 -5.62097 0
M  V30 32654 H 3176.11 -0.995056 -1.8765 0
M  V30 32655 H 3178.37 -0.387917 -0.865 0
M  V30 32656 H 3178.08 -0.878882 -3.40542 0
M  V30 32657 H 3177.95 0.850482 -3.67487 0
M  V30 32658 H 3180.34 1.13401 -2.72441 0
M  V30 32659 H 3180.42 -0.616915 -2.48249 0
M  V30 32660 H 3180.07 -0.95708 -4.98801 0
M  V30 32661 H 3180 0.809989 -5.20333 0
M  V30 32662 H 3182.49 0.179163 -3.77475 0
M  V30 32663 H 3182.8 -0.259396 -7.72365 0
M  V30 32664 H 3181.14 -0.226336 -6.94631 0
M  V30 32665 H 3184.34 0.137732 -4.67897 0
M  V30 32666 H 3184.51 -0.062026 -6.4797 0
M  V30 32667 N 3177.91 1.56283 0.203321 0
M  V30 32668 C 3179.19 1.70959 0.950385 0
M  V30 32669 C 3179.57 0.622683 2.01707 0
M  V30 32670 O 3178.92 -0.367595 2.25524 0
M  V30 32671 C 3179.13 3.12974 1.54428 0
M  V30 32672 C 3180.48 3.72953 2.02957 0
M  V30 32673 O 3181.5 3.16051 1.64287 0
M  V30 32674 O 3180.36 4.72798 2.74089 0
M  V30 32675 H 3177.45 0.696978 0.445141 0
M  V30 32676 H 3180 1.68591 0.193666 0
M  V30 32677 H 3178.77 3.83549 0.774983 0
M  V30 32678 H 3178.4 3.19536 2.36606 0
M  V30 32679 N 3179.39 -0.470729 1.50406 0
M  V30 32680 C 3180.81 -0.80451 1.3784 0
M  V30 32681 C 3181.01 -1.96753 0.434778 0
M  V30 32682 O 3180.07 -2.52203 -0.122462 0
M  V30 32683 C 3181.38 -1.11624 2.79214 0
M  V30 32684 C 3182.93 -1.22267 2.88132 0
M  V30 32685 C 3183.4 -1.56753 4.3034 0
M  V30 32686 N 3184.89 -1.63743 4.33292 0
M  V30 32687 C 3185.63 -1.91932 5.40324 0
M  V30 32688 N 3185.12 -2.18139 6.57562 0
M  V30 32689 N 3186.92 -1.93437 5.27767 0
M  V30 32690 H 3179.07 0.295726 2.10331 0
M  V30 32691 H 3181.33 0.0697899 0.945428 0
M  V30 32692 H 3181.04 -0.334717 3.50104 0
M  V30 32693 H 3180.91 -2.05234 3.16479 0
M  V30 32694 H 3183.3 -1.99486 2.17461 0
M  V30 32695 H 3183.38 -0.266355 2.54409 0
M  V30 32696 H 3183.02 -0.800729 5.01548 0
M  V30 32697 H 3182.95 -2.53535 4.61549 0
M  V30 32698 H 3185.44 -1.45529 3.48755 0
M  V30 32699 H 3185.76 -2.38923 7.34939 0
M  V30 32700 H 3184.1 -2.15531 6.60736 0
M  V30 32701 H 3187.29 -1.7246 4.35172 0
M  V30 32702 H 3187.47 -2.1507 6.11268 0
M  V30 32703 N 3180.87 -1.39989 -0.72393 0
M  V30 32704 C 3181.8 -1.35501 -1.84857 0
M  V30 32705 C 3182.82 -0.261841 -1.60681 0
M  V30 32706 O 3184.01 -0.521596 -1.70709 0
M  V30 32707 C 3181.11 -1.08386 -3.21101 0
M  V30 32708 C 3180.28 -2.29196 -3.72542 0
M  V30 32709 C 3179.34 -1.98369 -4.87377 0
M  V30 32710 O 3178.36 -2.71158 -5.00462 0
M  V30 32711 N 3179.57 -0.956562 -5.72565 0
M  V30 32712 H 3182.33 -2.32423 -1.89208 0
M  V30 32713 H 3179.89 -1.34235 -0.905128 0
M  V30 32714 H 3181.88 -0.857633 -3.95508 0
M  V30 32715 H 3180.45 -0.201604 -3.11949 0
M  V30 32716 H 3179.67 -2.67702 -2.8936 0
M  V30 32717 H 3180.96 -3.09754 -4.03646 0
M  V30 32718 H 3180.36 -0.353543 -5.64594 0
M  V30 32719 H 3178.92 -0.790232 -6.46992 0
M  V30 32720 N 3182.35 0.955282 -1.25348 0
M  V30 32721 C 3183.3 2.05186 -1.05676 0
M  V30 32722 C 3184.27 1.66065 0.0338925 0
M  V30 32723 O 3185.45 1.90402 -0.123159 0
M  V30 32724 C 3182.59 3.38317 -0.680851 0
M  V30 32725 C 3181.7 3.90559 -1.84629 0
M  V30 32726 C 3180.84 5.12013 -1.4148 0
M  V30 32727 C 3179.88 5.56482 -2.54941 0
M  V30 32728 N 3179.02 6.69147 -2.12572 0
M  V30 32729 H 3183.86 2.21346 -1.99524 0
M  V30 32730 H 3181.39 1.08471 -0.993607 0
M  V30 32731 H 3183.35 4.14832 -0.443867 0
M  V30 32732 H 3181.98 3.22045 0.220643 0
M  V30 32733 H 3181.03 3.1057 -2.19659 0
M  V30 32734 H 3182.34 4.19511 -2.69837 0
M  V30 32735 H 3181.5 5.95943 -1.13743 0
M  V30 32736 H 3180.24 4.84774 -0.533419 0
M  V30 32737 H 3179.24 4.71117 -2.83423 0
M  V30 32738 H 3180.47 5.85728 -3.43655 0
M  V30 32739 H 3178.41 6.43619 -1.26849 0
M  V30 32740 H 3178.33 6.97613 -2.91329 0
M  V30 32741 H 3179.6 7.56487 -1.88009 0
M  V30 32742 N 3183.83 1.06924 1.1578 0
M  V30 32743 C 3185.08 0.788224 1.86095 0
M  V30 32744 C 3185.4 -0.687573 1.82476 0
M  V30 32745 O 3184.67 -1.49776 1.26269 0
M  V30 32746 H 3183.25 0.288589 0.689003 0
M  V30 32747 H 3185.91 1.35207 1.40375 0
M  V30 32748 H 3185 1.11885 2.91356 0
M  V30 32749 N 3185.31 -1.32538 0.852723 0
M  V30 32750 C 3186.53 -2.01512 0.469079 0
M  V30 32751 C 3186.95 -1.64098 -0.933672 0
M  V30 32752 O 3186.31 -0.861311 -1.60897 0
M  V30 32753 C 3186.36 -3.56548 0.596291 0
M  V30 32754 O 3186.08 -3.92618 1.94378 0
M  V30 32755 C 3187.58 -4.42796 0.211402 0
M  V30 32756 H 3184.8 -0.645108 0.1846 0
M  V30 32757 H 3187.34 -1.69161 1.14913 0
M  V30 32758 H 3185.5 -3.87383 -0.0360031 0
M  V30 32759 H 3185.91 -4.87336 1.93918 0
M  V30 32760 H 3187.39 -5.5088 0.351421 0
M  V30 32761 H 3187.86 -4.30936 -0.847979 0
M  V30 32762 H 3188.47 -4.17346 0.818691 0
M  V30 32763 N 3186.78 -0.610474 -1.45296 0
M  V30 32764 C 3187.73 0.119126 -2.32295 0
M  V30 32765 C 3188.73 0.85672 -1.46139 0
M  V30 32766 O 3189.93 0.771959 -1.62606 0
M  V30 32767 H 3186.31 0.057275 -0.749816 0
M  V30 32768 H 3188.28 -0.633021 -2.91608 0
M  V30 32769 C 3187.03 1.10113 -3.29804 0
M  V30 32770 H 3186.35 0.542993 -3.96095 0
M  V30 32771 H 3187.79 1.58151 -3.93401 0
M  V30 32772 C 3186.25 2.17613 -2.57189 0
M  V30 32773 O 3186.78 3.25397 -2.35541 0
M  V30 32774 N 3184.98 1.92976 -2.17275 0
M  V30 32775 H 3184.53 1.0533 -2.35082 0
M  V30 32776 H 3184.49 2.65107 -1.69014 0
M  V30 32777 N 3188.26 1.53669 -0.349801 0
M  V30 32778 C 3189.51 2.01313 0.245154 0
M  V30 32779 C 3189.84 1.23708 1.497 0
M  V30 32780 O 3189.12 0.326405 1.91742 0
M  V30 32781 C 3189.4 3.55828 0.553009 0
M  V30 32782 C 3189.25 4.44139 -0.711369 0
M  V30 32783 C 3190.57 4.18557 1.36007 0
M  V30 32784 H 3187.69 0.731772 0.0876286 0
M  V30 32785 H 3190.33 1.84055 -0.471575 0
M  V30 32786 H 3188.48 3.70665 1.1636 0
M  V30 32787 H 3190.15 4.41128 -1.34921 0
M  V30 32788 H 3188.4 4.12748 -1.33499 0
M  V30 32789 H 3189.07 5.50153 -0.451137 0
M  V30 32790 H 3191.54 4.07457 0.843706 0
M  V30 32791 H 3190.42 5.2673 1.54423 0
M  V30 32792 H 3190.68 3.73586 2.36401 0
M  V30 32793 N 3189.74 0.0785709 1.57404 0
M  V30 32794 C 3190.98 -0.59256 1.95622 0
M  V30 32795 C 3191.34 -1.66366 0.958458 0
M  V30 32796 O 3192.54 -2.39082 1.22854 0
M  V30 32797 C 3190.82 -1.1484 3.38447 0
M  V30 32798 S 3192.37 -1.83371 3.98648 0
M  V30 32799 H 3189.19 -0.193839 0.684067 0
M  V30 32800 H 3191.79 0.154041 1.94892 0
M  V30 32801 H 3190.5 -0.357107 4.08843 0
M  V30 32802 H 3190.03 -1.93121 3.42736 0
M  V30 32803 H 3192.04 -3.11669 3.86105 0
M  V30 32804 N 3191.22 -1.56389 -0.19503 0
M  V30 32805 C 3192.18 -1.93694 -1.22537 0
M  V30 32806 C 3193.18 -0.818064 -1.38435 0
M  V30 32807 O 3194.37 -1.08548 -1.36246 0
M  V30 32808 C 3191.5 -2.21104 -2.59472 0
M  V30 32809 H 3192.7 -2.85872 -0.906494 0
M  V30 32810 H 3190.25 -1.5008 -0.436551 0
M  V30 32811 H 3190.98 -1.31564 -2.96414 0
M  V30 32812 H 3190.77 -3.02638 -2.49304 0
M  V30 32813 H 3192.26 -2.5097 -3.33772 0
M  V30 32814 N 3192.7 0.462746 -1.50653 0
M  V30 32815 C 3193.94 1.21601 -1.62299 0
M  V30 32816 C 3194.27 1.9144 -0.326225 0
M  V30 32817 O 3193.55 1.82493 0.672808 0
M  V30 32818 C 3193.83 2.2531 -2.80905 0
M  V30 32819 C 3193.69 1.5972 -4.20487 0
M  V30 32820 C 3195 3.26543 -2.95055 0
M  V30 32821 H 3192.12 0.440731 -0.590699 0
M  V30 32822 H 3194.77 0.508643 -1.83065 0
M  V30 32823 H 3192.92 2.85638 -2.6333 0
M  V30 32824 H 3194.59 1.02924 -4.49671 0
M  V30 32825 H 3192.83 0.900107 -4.24359 0
M  V30 32826 H 3193.5 2.35125 -4.9942 0
M  V30 32827 H 3195.98 2.76246 -3.11171 0
M  V30 32828 H 3194.85 3.96429 -3.79652 0
M  V30 32829 H 3195.11 3.91159 -2.06026 0
M  V30 32830 N 3194.17 1.40371 0.716495 0
M  V30 32831 C 3195.14 1.40316 1.81229 0
M  V30 32832 C 3196.14 0.297115 1.58031 0
M  V30 32833 O 3197.33 0.555973 1.6509 0
M  V30 32834 C 3194.46 1.19401 3.19306 0
M  V30 32835 H 3195.65 2.37843 1.82676 0
M  V30 32836 H 3193.21 1.26207 0.92204 0
M  V30 32837 H 3193.94 0.226309 3.23509 0
M  V30 32838 H 3193.73 1.99517 3.37543 0
M  V30 32839 H 3195.22 1.22148 3.99336 0
M  V30 32840 N 3195.65 -0.948621 1.25853 0
M  V30 32841 C 3196.6 -2.06754 1.06562 0
M  V30 32842 C 3197.59 -1.69399 -0.00525654 0
M  V30 32843 O 3198.8 -1.79367 0.150837 0
M  V30 32844 H 3195.18 -0.676843 0.327701 0
M  V30 32845 H 3197.15 -2.20178 2.01405 0
M  V30 32846 C 3195.9 -3.40427 0.707452 0
M  V30 32847 H 3195.22 -3.69642 1.52331 0
M  V30 32848 H 3196.66 -4.19557 0.612216 0
M  V30 32849 C 3195.12 -3.31748 -0.586912 0
M  V30 32850 O 3195.65 -3.67261 -1.62734 0
M  V30 32851 N 3193.85 -2.84859 -0.574778 0
M  V30 32852 H 3193.4 -2.56157 0.272281 0
M  V30 32853 H 3193.36 -2.79435 -1.44096 0
M  V30 32854 N 3197.13 -1.07536 -1.15212 0
M  V30 32855 C 3198.38 -0.798082 -1.85675 0
M  V30 32856 C 3198.7 0.677887 -1.82838 0
M  V30 32857 O 3197.97 1.49104 -1.27062 0
M  V30 32858 H 3196.55 -0.292239 -0.687463 0
M  V30 32859 H 3199.21 -1.3595 -1.39656 0
M  V30 32860 H 3198.31 -1.13428 -2.90758 0
M  V30 32861 N 3198.61 1.32084 -0.85974 0
M  V30 32862 C 3199.86 1.96685 -0.464696 0
M  V30 32863 C 3200.18 1.68347 0.984091 0
M  V30 32864 O 3199.45 0.993391 1.68845 0
M  V30 32865 H 3198.03 0.727666 -0.168851 0
M  V30 32866 H 3200.69 1.61077 -1.09728 0
M  V30 32867 H 3199.79 3.06002 -0.613958 0
M  V30 32868 N 3200.09 0.618171 1.4497 0
M  V30 32869 C 3201.33 0.120661 2.04044 0
M  V30 32870 C 3201.69 -1.22944 1.47474 0
M  V30 32871 O 3202.89 -1.8183 1.97968 0
M  V30 32872 C 3201.16 0.0931491 3.57279 0
M  V30 32873 S 3202.72 -0.341629 4.37468 0
M  V30 32874 H 3199.54 0.0547397 0.70889 0
M  V30 32875 H 3202.14 0.818652 1.77534 0
M  V30 32876 H 3200.85 1.0791 3.95959 0
M  V30 32877 H 3200.38 -0.626502 3.88379 0
M  V30 32878 H 3202.39 -1.5888 4.70076 0
M  V30 32879 N 3201.56 -1.53481 0.357946 0
M  V30 32880 C 3202.5 -2.23066 -0.526714 0
M  V30 32881 C 3203.51 -1.24214 -1.05237 0
M  V30 32882 O 3204.7 -1.50483 -0.960052 0
M  V30 32883 C 3201.8 -2.90873 -1.73914 0
M  V30 32884 C 3200.97 -4.16165 -1.34631 0
M  V30 32885 C 3200.03 -4.67251 -2.41997 0
M  V30 32886 O 3199.06 -5.31116 -2.04705 0
M  V30 32887 N 3200.26 -4.4441 -3.7347 0
M  V30 32888 H 3203.02 -2.9962 0.0692913 0
M  V30 32889 H 3200.58 -1.60865 0.182755 0
M  V30 32890 H 3202.58 -3.2196 -2.45202 0
M  V30 32891 H 3201.15 -2.17818 -2.24219 0
M  V30 32892 H 3200.37 -3.91464 -0.463599 0
M  V30 32893 H 3201.65 -4.97635 -1.06004 0
M  V30 32894 H 3201.05 -3.93364 -4.06548 0
M  V30 32895 H 3199.61 -4.80067 -4.40884 0
M  V30 32896 N 3203.04 -0.0869173 -1.5736 0
M  V30 32897 C 3203.97 0.904821 -2.10584 0
M  V30 32898 C 3204.99 1.25146 -1.04127 0
M  V30 32899 O 3206.18 1.206 -1.31597 0
M  V30 32900 C 3203.28 2.21631 -2.56385 0
M  V30 32901 C 3202.45 2.04624 -3.86585 0
M  V30 32902 C 3201.51 3.19212 -4.18319 0
M  V30 32903 O 3200.53 2.93535 -4.87674 0
M  V30 32904 N 3201.74 4.44747 -3.73068 0
M  V30 32905 H 3204.5 0.4503 -2.96298 0
M  V30 32906 H 3202.06 0.0984092 -1.61601 0
M  V30 32907 H 3204.05 2.97222 -2.74665 0
M  V30 32908 H 3202.62 2.58533 -1.75726 0
M  V30 32909 H 3201.84 1.1341 -3.77534 0
M  V30 32910 H 3203.13 1.90529 -4.7178 0
M  V30 32911 H 3202.53 4.68492 -3.17068 0
M  V30 32912 H 3201.09 5.17315 -3.9652 0
M  V30 32913 N 3204.52 1.5649 0.186734 0
M  V30 32914 C 3205.45 1.98234 1.23391 0
M  V30 32915 C 3206.43 0.855551 1.47018 0
M  V30 32916 O 3207.62 1.1205 1.58614 0
M  V30 32917 C 3204.75 2.32903 2.57631 0
M  V30 32918 C 3203.7 3.48398 2.48601 0
M  V30 32919 C 3203.03 3.68766 3.8719 0
M  V30 32920 C 3204.33 4.82329 2.0039 0
M  V30 32921 H 3206.02 2.8596 0.886976 0
M  V30 32922 H 3203.57 1.37578 0.425226 0
M  V30 32923 H 3205.52 2.60702 3.31078 0
M  V30 32924 H 3204.24 1.42069 2.94082 0
M  V30 32925 H 3202.9 3.20703 1.77609 0
M  V30 32926 H 3202.55 2.75248 4.21008 0
M  V30 32927 H 3202.25 4.46468 3.82021 0
M  V30 32928 H 3203.77 3.98949 4.62246 0
M  V30 32929 H 3205.19 5.09105 2.63601 0
M  V30 32930 H 3203.59 5.6356 2.06204 0
M  V30 32931 H 3204.66 4.75353 0.957478 0
M  V30 32932 N 3206 -0.45475 1.50897 0
M  V30 32933 C 3207.24 -1.21526 1.64349 0
M  V30 32934 C 3207.6 -1.88895 0.343902 0
M  V30 32935 O 3208.8 -2.66459 0.35402 0
M  V30 32936 C 3207.07 -2.21859 2.80202 0
M  V30 32937 S 3208.63 -3.0663 3.13884 0
M  V30 32938 H 3205.45 -0.412368 0.579201 0
M  V30 32939 H 3208.05 -0.509596 1.88742 0
M  V30 32940 H 3206.76 -1.70975 3.73089 0
M  V30 32941 H 3206.29 -2.97031 2.57946 0
M  V30 32942 H 3208.3 -4.23259 2.58971 0
M  V30 32943 N 3207.48 -1.40749 -0.709041 0
M  V30 32944 C 3208.41 -1.44293 -1.8358 0
M  V30 32945 C 3209.39 -0.303096 -1.67378 0
M  V30 32946 O 3210.57 -0.512645 -1.87311 0
M  V30 32947 C 3207.7 -1.31121 -3.21597 0
M  V30 32948 C 3206.66 -2.42776 -3.52482 0
M  V30 32949 C 3205.98 -2.14677 -4.89712 0
M  V30 32950 C 3207.28 -3.8512 -3.52817 0
M  V30 32951 H 3208.98 -2.38591 -1.80871 0
M  V30 32952 H 3206.52 -1.1484 -0.868775 0
M  V30 32953 H 3208.48 -1.32216 -4.00121 0
M  V30 32954 H 3207.2 -0.333022 -3.24898 0
M  V30 32955 H 3205.86 -2.40942 -2.76301 0
M  V30 32956 H 3205.51 -1.15233 -4.89623 0
M  V30 32957 H 3205.21 -2.89487 -5.11342 0
M  V30 32958 H 3206.73 -2.17465 -5.70562 0
M  V30 32959 H 3208.14 -3.88742 -4.2137 0
M  V30 32960 H 3206.54 -4.59502 -3.85976 0
M  V30 32961 H 3207.61 -4.14235 -2.52066 0
M  V30 32962 N 3208.96 0.941933 -1.26354 0
M  V30 32963 C 3210.19 1.71993 -1.14463 0
M  V30 32964 C 3210.59 1.86759 0.302924 0
M  V30 32965 O 3209.94 1.37402 1.21928 0
M  V30 32966 C 3210 3.1459 -1.73992 0
M  V30 32967 C 3209.66 3.23212 -3.23084 0
M  V30 32968 C 3210.66 3.06547 -4.19911 0
M  V30 32969 C 3208.34 3.46626 -3.63532 0
M  V30 32970 C 3210.34 3.13163 -5.55165 0
M  V30 32971 C 3208.03 3.52877 -4.9892 0
M  V30 32972 C 3209.02 3.36161 -5.94546 0
M  V30 32973 O 3208.71 3.42119 -7.27468 0
M  V30 32974 H 3208.44 0.545349 -0.399463 0
M  V30 32975 H 3211 1.18942 -1.67457 0
M  V30 32976 H 3209.23 3.69061 -1.15459 0
M  V30 32977 H 3210.92 3.743 -1.57018 0
M  V30 32978 H 3211.68 2.88314 -3.9 0
M  V30 32979 H 3207.56 3.58693 -2.89587 0
M  V30 32980 H 3211.11 3.00033 -6.29782 0
M  V30 32981 H 3207 3.7063 -5.28492 0
M  V30 32982 H 3207.77 3.58667 -7.35731 0
M  V30 32983 N 3210.43 1.08146 1.1464 0
M  V30 32984 C 3211.85 0.808561 1.37603 0
M  V30 32985 C 3212.05 -0.583418 1.92869 0
M  V30 32986 O 3211.11 -1.3407 2.13966 0
M  V30 32987 C 3212.42 1.88904 2.33957 0
M  V30 32988 C 3213.97 1.91474 2.47602 0
M  V30 32989 C 3214.44 2.98629 3.47253 0
M  V30 32990 N 3215.93 2.97784 3.54795 0
M  V30 32991 C 3216.67 3.77339 4.31744 0
M  V30 32992 N 3216.16 4.66766 5.11958 0
M  V30 32993 N 3217.96 3.65652 4.26913 0
M  V30 32994 H 3210.11 1.97908 0.771119 0
M  V30 32995 H 3212.37 0.858695 0.401679 0
M  V30 32996 H 3212.08 2.88966 2.00479 0
M  V30 32997 H 3211.95 1.75606 3.3383 0
M  V30 32998 H 3214.34 0.920598 2.80373 0
M  V30 32999 H 3214.42 2.08851 1.47699 0
M  V30 33000 H 3214.06 3.98248 3.15216 0
M  V30 33001 H 3213.99 2.78498 4.4693 0
M  V30 33002 H 3216.48 2.32965 2.97549 0
M  V30 33003 H 3216.8 5.24082 5.67941 0
M  V30 33004 H 3215.14 4.7081 5.11236 0
M  V30 33005 H 3218.33 2.95159 3.63317 0
M  V30 33006 H 3218.51 4.27893 4.86633 0
M  V30 33007 N 3211.91 -1.31626 0.866732 0
M  V30 33008 C 3213.16 -1.96436 0.47512 0
M  V30 33009 C 3213.48 -1.68866 -0.975149 0
M  V30 33010 O 3212.75 -1.00233 -1.68316 0
M  V30 33011 H 3211.33 -0.726761 0.172708 0
M  V30 33012 H 3213.99 -1.60492 1.10581 0
M  V30 33013 H 3213.09 -3.05672 0.630177 0
M  V30 33014 N 3213.39 -0.62585 -1.4464 0
M  V30 33015 C 3214.81 -0.29102 -1.56924 0
M  V30 33016 C 3215.01 1.20598 -1.61426 0
M  V30 33017 O 3214.06 1.98982 -1.55443 0
M  V30 33018 C 3215.37 -0.978292 -2.84341 0
M  V30 33019 C 3216.92 -0.955934 -2.98045 0
M  V30 33020 C 3217.4 -1.62357 -4.28257 0
M  V30 33021 N 3218.89 -1.58991 -4.35059 0
M  V30 33022 C 3219.62 -2.07548 -5.3452 0
M  V30 33023 N 3219.12 -2.64272 -6.40416 0
M  V30 33024 N 3220.91 -1.98208 -5.25994 0
M  V30 33025 H 3213.06 -1.59764 -1.39962 0
M  V30 33026 H 3215.33 -0.670318 -0.670357 0
M  V30 33027 H 3215.03 -2.03309 -2.86981 0
M  V30 33028 H 3214.91 -0.512792 -3.73698 0
M  V30 33029 H 3217.29 0.0903773 -2.94962 0
M  V30 33030 H 3217.37 -1.45987 -2.10051 0
M  V30 33031 H 3217.02 -2.6693 -4.321 0
M  V30 33032 H 3216.95 -1.0945 -5.151 0
M  V30 33033 H 3219.44 -1.17571 -3.59145 0
M  V30 33034 H 3219.75 -2.99069 -7.12585 0
M  V30 33035 H 3218.1 -2.6832 -6.41116 0
M  V30 33036 H 3221.29 -1.53618 -4.42175 0
M  V30 33037 H 3221.46 -2.36361 -6.03355 0
M  V30 33038 N 3214.87 1.53289 -0.36608 0
M  V30 33039 C 3216.12 2.00866 0.223016 0
M  V30 33040 C 3216.44 1.25506 1.49242 0
M  V30 33041 O 3215.71 0.368478 1.92403 0
M  V30 33042 H 3214.29 0.742102 0.0854 0
M  V30 33043 H 3216.95 1.88577 -0.492429 0
M  V30 33044 H 3216.04 3.08844 0.449647 0
M  V30 33045 N 3216.35 0.0952613 1.57312 0
M  V30 33046 C 3217.28 -0.893641 2.11061 0
M  V30 33047 C 3218.29 -1.24592 1.04789 0
M  V30 33048 O 3219.48 -1.19901 1.32235 0
M  V30 33049 C 3216.58 -2.20268 2.57556 0
M  V30 33050 C 3215.75 -2.02571 3.87664 0
M  V30 33051 C 3214.81 -3.16989 4.20006 0
M  V30 33052 O 3213.84 -2.90945 4.89224 0
M  V30 33053 N 3215.04 -4.42763 3.75422 0
M  V30 33054 H 3217.8 -0.43458 2.96532 0
M  V30 33055 H 3215.37 -0.0898377 1.61651 0
M  V30 33056 H 3217.36 -2.95762 2.76237 0
M  V30 33057 H 3215.93 -2.57597 1.77095 0
M  V30 33058 H 3215.15 -1.11406 3.7813 0
M  V30 33059 H 3216.44 -1.88024 4.72784 0
M  V30 33060 H 3215.83 -4.66803 3.19548 0
M  V30 33061 H 3214.39 -5.15205 3.99258 0
M  V30 33062 N 3217.82 -1.56587 -0.178432 0
M  V30 33063 C 3219.24 -1.50545 -0.52993 0
M  V30 33064 C 3219.44 -0.798269 -1.85013 0
M  V30 33065 O 3218.5 -0.355683 -2.49982 0
M  V30 33066 C 3219.81 -2.95262 -0.569262 0
M  V30 33067 C 3221.36 -3.06028 -0.656954 0
M  V30 33068 C 3221.83 -4.52189 -0.727244 0
M  V30 33069 N 3223.32 -4.56408 -0.790325 0
M  V30 33070 C 3224.06 -5.66835 -0.865165 0
M  V30 33071 N 3223.55 -6.86913 -0.901278 0
M  V30 33072 N 3225.35 -5.54789 -0.903639 0
M  V30 33073 H 3217.5 -2.00971 0.687339 0
M  V30 33074 H 3219.76 -0.91527 0.246952 0
M  V30 33075 H 3219.47 -3.5013 0.331996 0
M  V30 33076 H 3219.34 -3.49523 -1.41822 0
M  V30 33077 H 3221.73 -2.512 -1.54864 0
M  V30 33078 H 3221.81 -2.54865 0.21854 0
M  V30 33079 H 3221.45 -5.07647 0.160156 0
M  V30 33080 H 3221.38 -5.01102 -1.61878 0
M  V30 33081 H 3223.87 -3.69952 -0.770989 0
M  V30 33082 H 3224.19 -7.66822 -0.95936 0
M  V30 33083 H 3222.53 -6.89537 -0.869674 0
M  V30 33084 H 3225.72 -4.59899 -0.872378 0
M  V30 33085 H 3225.9 -6.40872 -0.958502 0
M  V30 33086 N 3219.3 0.446741 -1.51136 0
M  V30 33087 C 3220.26 1.52403 -1.7119 0
M  V30 33088 C 3221.26 1.49895 -0.582064 0
M  V30 33089 O 3222.45 1.52084 -0.849478 0
M  V30 33090 C 3219.59 2.91973 -1.75968 0
M  V30 33091 H 3220.78 1.35929 -2.67326 0
M  V30 33092 H 3218.33 0.674788 -1.40983 0
M  V30 33093 H 3219.07 3.13863 -0.81612 0
M  V30 33094 H 3218.85 2.95199 -2.5807 0
M  V30 33095 H 3220.34 3.70141 -1.93354 0
M  V30 33096 N 3220.78 1.41123 0.701567 0
M  V30 33097 C 3222.02 1.4162 1.47387 0
M  V30 33098 C 3222.38 0.0219781 1.91987 0
M  V30 33099 O 3223.58 -0.0982321 2.6862 0
M  V30 33100 C 3221.86 2.3899 2.65741 0
M  V30 33101 S 3223.41 2.57966 3.54963 0
M  V30 33102 H 3220.23 0.501771 0.503733 0
M  V30 33103 H 3222.83 1.77511 0.819155 0
M  V30 33104 H 3221.54 3.391 2.3117 0
M  V30 33105 H 3221.07 2.04432 3.36112 0
M  V30 33106 H 3223.08 1.84257 4.60721 0
M  V30 33107 N 3222.26 -0.935219 1.26852 0
M  V30 33108 C 3223.22 -2.01634 1.08979 0
M  V30 33109 C 3224.22 -1.60759 0.0361826 0
M  V30 33110 O 3225.41 -1.71933 0.280118 0
M  V30 33111 C 3222.54 -3.34472 0.65889 0
M  V30 33112 H 3223.74 -2.18921 2.04972 0
M  V30 33113 H 3221.29 -1.11499 1.09533 0
M  V30 33114 H 3222.02 -3.22884 -0.302768 0
M  V30 33115 H 3221.81 -3.65494 1.41973 0
M  V30 33116 H 3223.3 -4.13884 0.555856 0
M  V30 33117 N 3223.74 -1.08752 -1.14065 0
M  V30 33118 C 3224.98 -0.828906 -1.86838 0
M  V30 33119 C 3225.34 0.633848 -1.81236 0
M  V30 33120 O 3226.54 1.00811 -2.4918 0
M  V30 33121 C 3224.81 -1.34079 -3.31297 0
M  V30 33122 S 3226.37 -1.21501 -4.21643 0
M  V30 33123 H 3223.19 -0.299984 -0.644617 0
M  V30 33124 H 3225.79 -1.38951 -1.37524 0
M  V30 33125 H 3224.5 -2.39977 -3.32925 0
M  V30 33126 H 3224.03 -0.776012 -3.8567 0
M  V30 33127 H 3226.04 -0.161533 -4.95937 0
M  V30 33128 N 3225.21 1.31165 -0.873701 0
M  V30 33129 C 3226.18 2.26707 -0.337109 0
M  V30 33130 C 3227.18 1.52363 0.514033 0
M  V30 33131 O 3228.37 1.71183 0.322804 0
M  V30 33132 C 3225.5 3.36898 0.520838 0
M  V30 33133 H 3226.69 2.75684 -1.1806 0
M  V30 33134 H 3224.25 1.42161 -0.649602 0
M  V30 33135 H 3224.98 2.9322 1.38538 0
M  V30 33136 H 3224.77 3.92 -0.0886704 0
M  V30 33137 H 3226.26 4.0804 0.888425 0
M  V30 33138 N 3226.69 0.633512 1.44307 0
M  V30 33139 C 3227.64 -0.0919218 2.27815 0
M  V30 33140 C 3228.63 -0.813858 1.38799 0
M  V30 33141 O 3229.82 -0.699572 1.62588 0
M  V30 33142 C 3226.95 -1.07119 3.2616 0
M  V30 33143 C 3226.03 -0.348757 4.22664 0
M  V30 33144 N 3226.42 0.623942 5.01937 0
M  V30 33145 C 3224.72 -0.592881 4.42042 0
M  V30 33146 C 3225.42 1.05099 5.72127 0
M  V30 33147 N 3224.4 0.389278 5.42204 0
M  V30 33148 H 3228.2 0.654771 2.86513 0
M  V30 33149 H 3225.72 0.459206 1.55772 0
M  V30 33150 H 3227.71 -1.60553 3.84745 0
M  V30 33151 H 3226.37 -1.81816 2.69022 0
M  V30 33152 H 3227.38 1.00185 5.08117 0
M  V30 33153 H 3224.06 -1.32254 3.95999 0
M  V30 33154 H 3225.45 1.85472 6.45794 0
M  V30 33155 N 3228.17 -1.53093 0.374204 0
M  V30 33156 C 3229.42 -2.00981 -0.21236 0
M  V30 33157 C 3229.74 -1.26296 -1.48574 0
M  V30 33158 O 3229.01 -0.378676 -1.92205 0
M  V30 33159 H 3227.59 -0.742545 -0.0814632 0
M  V30 33160 H 3230.25 -1.88313 0.502423 0
M  V30 33161 H 3229.35 -3.09078 -0.433262 0
M  V30 33162 N 3229.65 -0.103603 -1.57259 0
M  V30 33163 C 3230.58 0.889104 -2.10167 0
M  V30 33164 C 3231.56 1.27087 -1.01428 0
M  V30 33165 O 3232.74 1.37462 -1.28982 0
M  V30 33166 C 3229.87 2.1877 -2.58568 0
M  V30 33167 C 3228.92 1.95515 -3.79046 0
M  V30 33168 S 3229.75 1.18541 -5.22215 0
M  V30 33169 C 3230.91 2.49613 -5.73972 0
M  V30 33170 H 3231.14 0.439031 -2.9404 0
M  V30 33171 H 3228.67 0.109863 -1.54009 0
M  V30 33172 H 3230.63 2.9339 -2.87111 0
M  V30 33173 H 3229.29 2.60897 -1.74905 0
M  V30 33174 H 3228.48 2.91698 -4.11009 0
M  V30 33175 H 3228.09 1.29022 -3.5104 0
M  V30 33176 H 3230.38 3.45543 -5.82758 0
M  V30 33177 H 3231.32 2.22217 -6.72328 0
M  V30 33178 H 3231.73 2.58275 -5.0195 0
M  V30 33179 N 3231.13 1.56679 0.170126 0
M  V30 33180 C 3232.06 1.99532 1.21282 0
M  V30 33181 C 3233.04 0.871097 1.46102 0
M  V30 33182 O 3234.22 1.13726 1.57417 0
M  V30 33183 C 3231.35 2.35622 2.55146 0
M  V30 33184 C 3230.31 3.51016 2.44892 0
M  V30 33185 C 3229.63 3.72852 3.83257 0
M  V30 33186 C 3230.93 4.84427 1.95263 0
M  V30 33187 H 3232.63 2.86885 0.856596 0
M  V30 33188 H 3230.17 1.38022 0.41061 0
M  V30 33189 H 3232.13 2.64199 3.28294 0
M  V30 33190 H 3230.85 1.4518 2.92558 0
M  V30 33191 H 3229.51 3.22569 1.74198 0
M  V30 33192 H 3229.16 2.79698 4.18064 0
M  V30 33193 H 3228.86 4.50495 3.77264 0
M  V30 33194 H 3230.38 4.0383 4.57989 0
M  V30 33195 H 3231.79 5.11872 2.58186 0
M  V30 33196 H 3230.19 5.65715 2.00215 0
M  V30 33197 H 3231.26 4.76342 0.907007 0
M  V30 33198 N 3232.6 -0.43872 1.5137 0
M  V30 33199 C 3233.57 -1.51493 1.71996 0
M  V30 33200 C 3234.57 -1.49585 0.590005 0
M  V30 33201 O 3235.76 -1.51631 0.857532 0
M  V30 33202 C 3232.89 -2.91036 1.77513 0
M  V30 33203 H 3234.08 -1.34509 2.68043 0
M  V30 33204 H 3231.64 -0.667302 1.41339 0
M  V30 33205 H 3232.37 -3.13426 0.832754 0
M  V30 33206 H 3232.16 -2.93826 2.59632 0
M  V30 33207 H 3233.65 -3.6911 1.95314 0
M  V30 33208 N 3234.08 -1.41493 -0.694073 0
M  V30 33209 C 3234.99 -1.45821 -1.83775 0
M  V30 33210 C 3236.01 -0.348669 -1.70471 0
M  V30 33211 O 3237.18 -0.596621 -1.9236 0
M  V30 33212 C 3234.25 -1.33973 -3.19769 0
M  V30 33213 C 3233.31 -2.55256 -3.45171 0
M  V30 33214 C 3232.54 -2.43963 -4.74676 0
M  V30 33215 O 3232.77 -1.46501 -5.51265 0
M  V30 33216 O 3231.7 -3.33748 -5.00895 0
M  V30 33217 H 3235.53 -2.42313 -1.8308 0
M  V30 33218 H 3233.11 -1.23048 -0.847328 0
M  V30 33219 H 3234.99 -1.29655 -4.00958 0
M  V30 33220 H 3233.67 -0.405982 -3.21144 0
M  V30 33221 H 3232.58 -2.6515 -2.63906 0
M  V30 33222 H 3233.91 -3.47464 -3.48611 0
M  V30 33223 N 3235.56 0.928479 -1.27346 0
M  V30 33224 C 3236.84 1.65431 -1.04365 0
M  V30 33225 C 3237.22 2.06842 0.421859 0
M  V30 33226 O 3236.57 1.80206 1.40493 0
M  V30 33227 C 3236.78 2.85695 -2.00447 0
M  V30 33228 C 3238.12 3.57057 -2.29773 0
M  V30 33229 O 3239.15 2.95821 -1.98415 0
M  V30 33230 O 3238.01 4.67382 -2.83225 0
M  V30 33231 H 3235.1 0.725043 -0.397796 0
M  V30 33232 H 3237.65 0.979084 -1.38607 0
M  V30 33233 H 3236.42 2.52079 -2.99285 0
M  V30 33234 H 3236.04 3.60938 -1.66762 0
M  V30 33235 N 3237.04 1.09355 1.13486 0
M  V30 33236 C 3238.29 0.827521 1.84381 0
M  V30 33237 C 3238.61 -0.648713 1.83893 0
M  V30 33238 O 3237.88 -1.47064 1.29418 0
M  V30 33239 H 3236.46 0.303139 0.682727 0
M  V30 33240 H 3239.12 1.38154 1.37475 0
M  V30 33241 H 3238.22 1.1804 2.88917 0
M  V30 33242 N 3238.52 -1.307 0.880644 0
M  V30 33243 C 3239.48 -2.26525 0.349127 0
M  V30 33244 C 3240.48 -1.52633 -0.505946 0
M  V30 33245 O 3241.67 -1.71352 -0.313721 0
M  V30 33246 C 3238.8 -3.37169 -0.502964 0
M  V30 33247 H 3240 -2.75054 1.19521 0
M  V30 33248 H 3237.55 -1.41815 0.657132 0
M  V30 33249 H 3238.28 -2.9395 -1.36981 0
M  V30 33250 H 3238.07 -3.91947 0.109458 0
M  V30 33251 H 3239.56 -4.08506 -0.866773 0
M  V30 33252 N 3240 -0.641156 -1.43969 0
M  V30 33253 C 3241.22 -0.155354 -2.06817 0
M  V30 33254 C 3241.65 1.16516 -1.47667 0
M  V30 33255 O 3241 1.71706 -0.58195 0
M  V30 33256 C 3241.05 -0.064817 -3.60542 0
M  V30 33257 O 3240.16 0.976377 -4.00675 0
M  V30 33258 H 3239.5 -0.089352 -0.657961 0
M  V30 33259 H 3242.03 -0.880672 -1.84676 0
M  V30 33260 H 3242.04 0.122481 -4.07816 0
M  V30 33261 H 3240.71 -1.02886 -4.02973 0
M  V30 33262 H 3239.29 0.762841 -3.65014 0
M  V30 33263 N 3241.47 1.52892 -0.382318 0
M  V30 33264 C 3242.71 2.034 0.20196 0
M  V30 33265 C 3243.08 1.26288 1.44621 0
M  V30 33266 O 3244.28 1.66885 2.1072 0
M  V30 33267 C 3242.55 3.54292 0.470286 0
M  V30 33268 S 3244.11 4.2664 1.02585 0
M  V30 33269 H 3240.93 0.708671 0.0575053 0
M  V30 33270 H 3243.53 1.88205 -0.529053 0
M  V30 33271 H 3242.23 4.08007 -0.442502 0
M  V30 33272 H 3241.76 3.7368 1.22991 0
M  V30 33273 H 3243.78 4.39214 2.30879 0
M  V30 33274 N 3242.95 0.111941 1.57202 0
M  V30 33275 C 3244.37 -0.244674 1.57713 0
M  V30 33276 C 3244.57 -1.67223 1.12422 0
M  V30 33277 O 3243.62 -2.3921 0.808371 0
M  V30 33278 C 3244.94 -0.0177761 3.00695 0
M  V30 33279 C 3246.48 -0.0842231 3.12887 0
M  V30 33280 C 3246.96 0.114893 4.57856 0
M  V30 33281 N 3248.45 0.0606237 4.6316 0
M  V30 33282 C 3249.19 0.189694 5.73086 0
M  V30 33283 N 3248.68 0.374542 6.91787 0
M  V30 33284 N 3250.47 0.129768 5.6195 0
M  V30 33285 H 3242.63 1.04446 1.84945 0
M  V30 33286 H 3244.89 0.410715 0.854411 0
M  V30 33287 H 3244.59 0.968861 3.38092 0
M  V30 33288 H 3244.47 -0.75275 3.69613 0
M  V30 33289 H 3246.86 -1.06138 2.75352 0
M  V30 33290 H 3246.94 0.682517 2.46527 0
M  V30 33291 H 3246.58 1.08899 4.96088 0
M  V30 33292 H 3246.51 -0.671747 5.22298 0
M  V30 33293 H 3249 -0.0790192 3.77817 0
M  V30 33294 H 3249.31 0.464084 7.71405 0
M  V30 33295 H 3247.66 0.410425 6.93787 0
M  V30 33296 H 3250.85 -0.0136292 4.68098 0
M  V30 33297 H 3251.02 0.233802 6.47578 0
M  V30 33298 N 3244.43 -1.56767 -0.161814 0
M  V30 33299 C 3245.34 -2.00387 -1.21993 0
M  V30 33300 C 3246.36 -0.916794 -1.47888 0
M  V30 33301 O 3247.53 -1.22515 -1.5985 0
M  V30 33302 C 3244.6 -2.36309 -2.5369 0
M  V30 33303 C 3243.66 -3.58892 -2.35574 0
M  V30 33304 C 3242.89 -3.93092 -3.60991 0
M  V30 33305 O 3243.11 -3.28137 -4.66564 0
M  V30 33306 O 3242.05 -4.86403 -3.54536 0
M  V30 33307 H 3245.87 -2.90682 -0.87965 0
M  V30 33308 H 3243.46 -1.44761 -0.369412 0
M  V30 33309 H 3245.34 -2.60341 -3.31362 0
M  V30 33310 H 3244.02 -1.49174 -2.87278 0
M  V30 33311 H 3242.92 -3.40067 -1.55902 0
M  V30 33312 H 3244.26 -4.46599 -2.06907 0
M  V30 33313 N 3245.91 0.430686 -1.51601 0
M  V30 33314 C 3247.14 1.20008 -1.68171 0
M  V30 33315 C 3247.55 1.85315 -0.381439 0
M  V30 33316 O 3246.89 1.71794 0.650569 0
M  V30 33317 C 3246.95 2.32091 -2.74544 0
M  V30 33318 C 3246.61 1.87097 -4.16946 0
M  V30 33319 C 3247.61 1.37069 -5.01506 0
M  V30 33320 C 3245.3 1.94586 -4.63078 0
M  V30 33321 C 3247.29 0.951252 -6.30262 0
M  V30 33322 C 3244.98 1.52253 -5.91829 0
M  V30 33323 C 3245.98 1.02606 -6.75249 0
M  V30 33324 O 3245.66 0.608764 -8.01592 0
M  V30 33325 H 3245.4 0.367518 -0.567368 0
M  V30 33326 H 3247.95 0.515725 -1.9882 0
M  V30 33327 H 3246.18 3.03824 -2.39224 0
M  V30 33328 H 3247.87 2.93932 -2.79927 0
M  V30 33329 H 3248.63 1.30673 -4.67065 0
M  V30 33330 H 3244.51 2.32175 -3.98266 0
M  V30 33331 H 3248.06 0.56304 -6.95324 0
M  V30 33332 H 3243.95 1.58322 -6.25783 0
M  V30 33333 H 3244.72 0.734017 -8.15202 0
M  V30 33334 N 3247.39 1.4186 0.686559 0
M  V30 33335 C 3248.35 1.44129 1.78212 0
M  V30 33336 C 3249.35 0.330569 1.57365 0
M  V30 33337 O 3250.54 0.590866 1.63873 0
M  V30 33338 C 3247.67 1.26147 3.16701 0
M  V30 33339 H 3248.86 2.41664 1.7759 0
M  V30 33340 H 3246.42 1.28134 0.895062 0
M  V30 33341 H 3247.15 0.294879 3.22957 0
M  V30 33342 H 3246.94 2.06632 3.33235 0
M  V30 33343 H 3248.43 1.30591 3.96656 0
M  V30 33344 N 3248.86 -0.921712 1.27837 0
M  V30 33345 C 3250.11 -1.66674 1.14299 0
M  V30 33346 C 3250.43 -1.92513 -0.310459 0
M  V30 33347 O 3249.7 -1.53564 -1.21634 0
M  V30 33348 H 3248.28 -0.617742 0.420004 0
M  V30 33349 H 3250.94 -1.10641 1.60451 0
M  V30 33350 H 3250.04 -2.63243 1.67659 0
M  V30 33351 N 3250.34 -1.09956 -1.12905 0
M  V30 33352 C 3251.57 -0.859689 -1.87864 0
M  V30 33353 C 3251.98 0.593065 -1.79665 0
M  V30 33354 O 3251.32 1.42032 -1.16501 0
M  V30 33355 C 3251.38 -1.22314 -3.38052 0
M  V30 33356 C 3251.05 -2.68192 -3.7003 0
M  V30 33357 C 3252.05 -3.66435 -3.68811 0
M  V30 33358 C 3249.73 -3.04451 -3.99518 0
M  V30 33359 C 3251.72 -4.98962 -3.9663 0
M  V30 33360 C 3249.41 -4.37168 -4.26998 0
M  V30 33361 C 3250.41 -5.34233 -4.2554 0
M  V30 33362 O 3250.1 -6.64561 -4.52342 0
M  V30 33363 H 3249.83 -0.30866 -0.601419 0
M  V30 33364 H 3252.38 -1.46652 -1.43814 0
M  V30 33365 H 3250.61 -0.559389 -3.82633 0
M  V30 33366 H 3252.3 -0.961548 -3.94346 0
M  V30 33367 H 3253.07 -3.39766 -3.46098 0
M  V30 33368 H 3248.95 -2.29528 -3.99797 0
M  V30 33369 H 3252.49 -5.74716 -3.95407 0
M  V30 33370 H 3248.39 -4.63578 -4.49184 0
M  V30 33371 H 3249.16 -6.70117 -4.69985 0
M  V30 33372 N 3251.82 1.30231 -0.887563 0
M  V30 33373 C 3252.75 2.30509 -0.372521 0
M  V30 33374 C 3253.73 1.61099 0.546008 0
M  V30 33375 O 3254.92 1.8869 0.459312 0
M  V30 33376 C 3252.05 3.44853 0.411544 0
M  V30 33377 C 3251 4.25979 -0.415458 0
M  V30 33378 C 3250.33 5.324 0.495369 0
M  V30 33379 C 3251.63 4.95254 -1.65895 0
M  V30 33380 H 3253.32 2.73838 -1.2105 0
M  V30 33381 H 3250.87 1.31647 -0.583521 0
M  V30 33382 H 3252.82 4.14071 0.782511 0
M  V30 33383 H 3251.54 3.00336 1.28319 0
M  V30 33384 H 3250.2 3.58452 -0.768597 0
M  V30 33385 H 3249.85 4.8413 1.3648 0
M  V30 33386 H 3249.55 5.87575 -0.0541917 0
M  V30 33387 H 3251.07 6.04473 0.862795 0
M  V30 33388 H 3252.49 5.56974 -1.35842 0
M  V30 33389 H 3250.88 5.60305 -2.14891 0
M  V30 33390 H 3251.95 4.21233 -2.40189 0
M  V30 33391 N 3253.3 0.648782 1.43627 0
M  V30 33392 C 3254.23 -0.0320375 2.33478 0
M  V30 33393 C 3255.21 -0.816579 1.49218 0
M  V30 33394 O 3256.39 -0.778943 1.77894 0
M  V30 33395 C 3253.52 -1.00216 3.32527 0
M  V30 33396 C 3252.48 -0.328044 4.26741 0
M  V30 33397 C 3251.8 -1.40931 5.15793 0
M  V30 33398 C 3253.1 0.776792 5.16491 0
M  V30 33399 H 3254.8 0.718308 2.90656 0
M  V30 33400 H 3252.34 0.346876 1.3976 0
M  V30 33401 H 3254.3 -1.48733 3.9428 0
M  V30 33402 H 3253.02 -1.78362 2.73596 0
M  V30 33403 H 3251.68 0.136633 3.66345 0
M  V30 33404 H 3251.33 -2.18208 4.53204 0
M  V30 33405 H 3251.03 -0.963529 5.79646 0
M  V30 33406 H 3252.55 -1.89592 5.8042 0
M  V30 33407 H 3253.97 0.373979 5.72079 0
M  V30 33408 H 3252.36 1.14677 5.89041 0
M  V30 33409 H 3253.43 1.63663 4.56446 0
M  V30 33410 N 3254.78 -1.52688 0.390421 0
M  V30 33411 C 3256.01 -2.05714 -0.191171 0
M  V30 33412 C 3256.41 -1.2619 -1.4097 0
M  V30 33413 O 3255.76 -0.30197 -1.81201 0
M  V30 33414 C 3255.82 -3.5403 -0.624732 0
M  V30 33415 C 3255.48 -4.54467 0.480493 0
M  V30 33416 C 3256.48 -5.02381 1.33825 0
M  V30 33417 C 3254.17 -4.98105 0.647842 0
M  V30 33418 C 3256.16 -5.92559 2.34847 0
M  V30 33419 C 3253.85 -5.88082 1.6614 0
M  V30 33420 C 3254.84 -6.35202 2.51013 0
M  V30 33421 O 3254.53 -7.23402 3.50635 0
M  V30 33422 H 3254.26 -0.675232 -0.0322091 0
M  V30 33423 H 3256.82 -1.97775 0.554466 0
M  V30 33424 H 3255.05 -3.59591 -1.42236 0
M  V30 33425 H 3256.74 -3.89792 -1.13212 0
M  V30 33426 H 3257.5 -4.69398 1.22027 0
M  V30 33427 H 3253.38 -4.61 -0.00306408 0
M  V30 33428 H 3256.93 -6.2926 3.01128 0
M  V30 33429 H 3252.82 -6.2048 1.77975 0
M  V30 33430 H 3253.59 -7.41466 3.46657 0
M  V30 33431 N 3256.25 -0.120276 -1.5714 0
M  V30 33432 C 3257.48 0.548419 -2.00018 0
M  V30 33433 C 3257.9 1.5935 -0.999461 0
M  V30 33434 O 3257.26 1.81277 0.028666 0
M  V30 33435 C 3257.31 1.15009 -3.41768 0
M  V30 33436 O 3256.41 2.2656 -3.44593 0
M  V30 33437 H 3255.76 0.136864 -0.649742 0
M  V30 33438 H 3258.29 -0.209127 -2.03528 0
M  V30 33439 H 3258.3 1.48531 -3.80003 0
M  V30 33440 H 3256.97 0.384608 -4.14118 0
M  V30 33441 H 3255.55 1.94467 -3.18177 0
M  V30 33442 N 3257.73 1.56851 0.153498 0
M  V30 33443 C 3258.64 2.01031 1.20928 0
M  V30 33444 C 3259.66 0.924624 1.474 0
M  V30 33445 O 3260.83 1.23361 1.59198 0
M  V30 33446 C 3257.9 2.37651 2.52434 0
M  V30 33447 C 3256.96 3.60136 2.33667 0
M  V30 33448 C 3256.19 3.95 3.58902 0
M  V30 33449 O 3256.42 3.30607 4.64817 0
M  V30 33450 O 3255.35 4.88276 3.51951 0
M  V30 33451 H 3259.18 2.91144 0.864222 0
M  V30 33452 H 3256.76 1.44955 0.36173 0
M  V30 33453 H 3258.64 2.62094 3.29977 0
M  V30 33454 H 3257.32 1.50695 2.86483 0
M  V30 33455 H 3256.23 3.40889 1.54097 0
M  V30 33456 H 3257.56 4.4769 2.04536 0
M  V30 33457 N 3259.21 -0.42264 1.51827 0
M  V30 33458 C 3260.63 -0.76025 1.40329 0
M  V30 33459 C 3260.83 -1.95271 0.497153 0
M  V30 33460 O 3259.88 -2.52465 -0.0421639 0
M  V30 33461 C 3261.2 -1.02684 2.82624 0
M  V30 33462 C 3262.74 -1.13038 2.91876 0
M  V30 33463 C 3263.22 -1.42982 4.35109 0
M  V30 33464 N 3264.71 -1.49876 4.38282 0
M  V30 33465 C 3265.44 -1.74645 5.46156 0
M  V30 33466 N 3264.94 -1.97109 6.64169 0
M  V30 33467 N 3266.73 -1.76549 5.33654 0
M  V30 33468 H 3258.88 0.362492 2.09284 0
M  V30 33469 H 3261.15 0.0998326 0.942729 0
M  V30 33470 H 3260.85 -0.223164 3.50991 0
M  V30 33471 H 3260.73 -1.95062 3.22848 0
M  V30 33472 H 3263.11 -1.92467 2.23697 0
M  V30 33473 H 3263.2 -0.185282 2.55128 0
M  V30 33474 H 3262.84 -0.64076 5.03842 0
M  V30 33475 H 3262.77 -2.38723 4.69382 0
M  V30 33476 H 3265.26 -1.3436 3.53208 0
M  V30 33477 H 3265.57 -2.15421 7.42168 0
M  V30 33478 H 3263.92 -1.94401 6.67258 0
M  V30 33479 H 3267.11 -1.58528 4.40439 0
M  V30 33480 H 3267.28 -1.95514 6.17801 0
M  V30 33481 N 3260.69 -1.42222 -0.679027 0
M  V30 33482 C 3261.92 -1.45855 -1.46745 0
M  V30 33483 C 3262.33 -0.0686268 -1.88675 0
M  V30 33484 O 3261.69 0.915729 -1.57863 0
M  V30 33485 C 3261.74 -2.38193 -2.71931 0
M  V30 33486 O 3261.46 -3.71777 -2.31761 0
M  V30 33487 C 3262.96 -2.50802 -3.65531 0
M  V30 33488 H 3260.18 -0.496218 -0.451673 0
M  V30 33489 H 3262.73 -1.8669 -0.83469 0
M  V30 33490 H 3260.88 -2.00622 -3.31405 0
M  V30 33491 H 3261.29 -4.21188 -3.12572 0
M  V30 33492 H 3262.77 -3.19543 -4.50107 0
M  V30 33493 H 3263.25 -1.54454 -4.11145 0
M  V30 33494 H 3263.85 -2.89077 -3.11952 0
M  V30 33495 N 3262.17 0.91492 -1.28324 0
M  V30 33496 C 3263.42 1.65851 -1.14788 0
M  V30 33497 C 3263.73 1.93237 0.303101 0
M  V30 33498 O 3264.93 2.65671 0.559559 0
M  V30 33499 C 3263.39 2.98772 -2.00657 0
M  V30 33500 C 3263 2.79038 -3.50488 0
M  V30 33501 C 3264.74 3.76644 -1.95804 0
M  V30 33502 C 3262.65 4.07592 -4.28512 0
M  V30 33503 H 3261.58 0.622127 -0.425998 0
M  V30 33504 H 3264.23 1.0154 -1.52846 0
M  V30 33505 H 3262.61 3.64212 -1.55454 0
M  V30 33506 H 3263.79 2.22286 -4.0364 0
M  V30 33507 H 3262.1 2.1458 -3.56853 0
M  V30 33508 H 3264.7 4.71931 -2.51367 0
M  V30 33509 H 3265.04 4.05675 -0.934526 0
M  V30 33510 H 3265.57 3.18022 -2.3897 0
M  V30 33511 H 3262.31 3.83735 -5.31439 0
M  V30 33512 H 3261.83 4.6396 -3.80133 0
M  V30 33513 H 3263.51 4.75859 -4.38369 0
M  V30 33514 N 3263.64 1.10553 1.1232 0
M  V30 33515 C 3264.57 0.777525 2.20174 0
M  V30 33516 C 3265.56 -0.25004 1.68252 0
M  V30 33517 O 3266.74 -0.11554 1.93856 0
M  V30 33518 C 3263.87 0.209883 3.46665 0
M  V30 33519 C 3262.82 1.16827 4.11747 0
M  V30 33520 C 3262.15 0.461777 5.32702 0
M  V30 33521 C 3263.45 2.51535 4.57742 0
M  V30 33522 H 3265.14 1.67933 2.47869 0
M  V30 33523 H 3262.69 0.808884 1.19135 0
M  V30 33524 H 3264.64 -0.0317327 4.21388 0
M  V30 33525 H 3263.37 -0.72717 3.18402 0
M  V30 33526 H 3262.03 1.39536 3.39006 0
M  V30 33527 H 3261.67 -0.479787 5.00707 0
M  V30 33528 H 3261.37 1.1009 5.77195 0
M  V30 33529 H 3262.9 0.228736 6.10171 0
M  V30 33530 H 3264.31 2.32968 5.23831 0
M  V30 33531 H 3262.71 3.11344 5.13016 0
M  V30 33532 H 3263.78 3.11442 3.71661 0
M  V30 33533 N 3265.12 -1.29758 0.894457 0
M  V30 33534 C 3266.07 -2.27869 0.366626 0
M  V30 33535 C 3267.04 -1.56786 -0.548397 0
M  V30 33536 O 3268.22 -1.84799 -0.474771 0
M  V30 33537 C 3265.36 -3.42722 -0.404471 0
M  V30 33538 C 3264.48 -4.28601 0.540849 0
M  V30 33539 C 3263.61 -5.30626 -0.246781 0
M  V30 33540 C 3262.65 -6.0816 0.693401 0
M  V30 33541 N 3261.79 -7.02075 -0.0594956 0
M  V30 33542 H 3266.63 -2.724 1.20839 0
M  V30 33543 H 3264.17 -1.33982 0.607229 0
M  V30 33544 H 3266.12 -4.0808 -0.867549 0
M  V30 33545 H 3264.75 -2.99234 -1.21073 0
M  V30 33546 H 3263.81 -3.63463 1.12244 0
M  V30 33547 H 3265.12 -4.82604 1.26074 0
M  V30 33548 H 3264.27 -6.01777 -0.771292 0
M  V30 33549 H 3263.01 -4.77341 -0.999834 0
M  V30 33550 H 3262.02 -5.35877 1.22946 0
M  V30 33551 H 3263.24 -6.63533 1.4457 0
M  V30 33552 H 3261.19 -6.51166 -0.794911 0
M  V30 33553 H 3261.1 -7.53611 0.600583 0
M  V30 33554 H 3262.37 -7.77454 -0.564441 0
M  V30 33555 N 3266.6 -0.65639 -1.4328 0
M  V30 33556 C 3267.83 -0.177281 -2.06641 0
M  V30 33557 C 3268.25 1.14943 -1.48895 0
M  V30 33558 O 3267.61 1.71079 -0.60013 0
M  V30 33559 C 3267.66 -0.103054 -3.60453 0
M  V30 33560 O 3266.76 0.933825 -4.01688 0
M  V30 33561 H 3266.1 -0.0963255 -0.656976 0
M  V30 33562 H 3268.63 -0.90021 -1.83732 0
M  V30 33563 H 3268.64 0.0792193 -4.07923 0
M  V30 33564 H 3267.32 -1.07154 -4.01859 0
M  V30 33565 H 3265.89 0.724083 -3.65802 0
M  V30 33566 N 3268.08 1.52478 -0.398513 0
M  V30 33567 C 3269.33 2.00877 0.182011 0
M  V30 33568 C 3269.64 1.28893 1.47126 0
M  V30 33569 O 3270.85 1.68051 2.13239 0
M  V30 33570 C 3269.3 3.57942 0.374915 0
M  V30 33571 C 3268.91 4.38833 -0.901621 0
M  V30 33572 C 3270.66 4.14603 0.911305 0
M  V30 33573 C 3268.56 5.87518 -0.676489 0
M  V30 33574 H 3267.49 0.750574 0.0717936 0
M  V30 33575 H 3270.14 1.75909 -0.522328 0
M  V30 33576 H 3268.53 3.79196 1.14133 0
M  V30 33577 H 3269.7 4.29343 -1.67336 0
M  V30 33578 H 3268.01 3.93438 -1.36364 0
M  V30 33579 H 3270.61 5.23355 1.0956 0
M  V30 33580 H 3270.95 3.7128 1.88299 0
M  V30 33581 H 3271.49 3.97275 0.204226 0
M  V30 33582 H 3268.23 6.35181 -1.61944 0
M  V30 33583 H 3267.75 5.99774 0.0561488 0
M  V30 33584 H 3269.43 6.46235 -0.314568 0
M  V30 33585 N 3269.56 0.128608 1.57074 0
M  V30 33586 C 3270.51 -0.829381 2.1238 0
M  V30 33587 C 3271.49 -1.22179 1.04696 0
M  V30 33588 O 3272.68 -1.19127 1.30911 0
M  V30 33589 C 3269.81 -2.07571 2.7344 0
M  V30 33590 C 3268.9 -1.70723 3.8822 0
M  V30 33591 N 3269.29 -1.046 4.94866 0
M  V30 33592 C 3267.59 -2.00118 3.98583 0
M  V30 33593 C 3268.29 -0.871036 5.75142 0
M  V30 33594 N 3267.26 -1.39909 5.25287 0
M  V30 33595 H 3271.07 -0.314765 2.9221 0
M  V30 33596 H 3268.58 -0.0735503 1.62233 0
M  V30 33597 H 3270.58 -2.7718 3.11411 0
M  V30 33598 H 3269.24 -2.59567 1.95077 0
M  V30 33599 H 3270.25 -0.708871 5.13026 0
M  V30 33600 H 3266.93 -2.54094 3.31274 0
M  V30 33601 H 3268.32 -0.351278 6.70981 0
M  V30 33602 N 3271.04 -1.5693 -0.145178 0
M  V30 33603 C 3271.97 -2.01436 -1.18092 0
M  V30 33604 C 3272.95 -0.89423 -1.44698 0
M  V30 33605 O 3274.13 -1.16216 -1.55587 0
M  V30 33606 C 3271.26 -2.39652 -2.51365 0
M  V30 33607 C 3270.22 -3.54867 -2.39277 0
M  V30 33608 C 3269.54 -3.78902 -3.77276 0
M  V30 33609 C 3270.84 -4.87472 -1.87531 0
M  V30 33610 H 3272.54 -2.88211 -0.810847 0
M  V30 33611 H 3270.08 -1.38657 -0.3886 0
M  V30 33612 H 3272.03 -2.69388 -3.24049 0
M  V30 33613 H 3270.76 -1.49816 -2.90211 0
M  V30 33614 H 3269.42 -3.25299 -1.69044 0
M  V30 33615 H 3269.07 -2.86314 -4.13562 0
M  V30 33616 H 3268.77 -4.5644 -3.70049 0
M  V30 33617 H 3270.29 -4.11065 -4.51506 0
M  V30 33618 H 3271.7 -5.15915 -2.5001 0
M  V30 33619 H 3270.1 -5.68829 -1.9119 0
M  V30 33620 H 3271.17 -4.77724 -0.83111 0
M  V30 33621 N 3272.51 0.414582 -1.52049 0
M  V30 33622 C 3273.74 1.18845 -1.69972 0
M  V30 33623 C 3274.16 1.83664 -0.40609 0
M  V30 33624 O 3273.52 1.6978 0.635951 0
M  V30 33625 C 3273.57 2.23133 -2.83274 0
M  V30 33626 O 3272.67 3.29151 -2.48462 0
M  V30 33627 H 3272.01 0.347173 -0.566009 0
M  V30 33628 H 3274.54 0.486722 -1.98726 0
M  V30 33629 H 3274.55 2.67551 -3.08027 0
M  V30 33630 H 3273.23 1.75337 -3.77134 0
M  V30 33631 H 3271.81 2.9005 -2.34362 0
M  V30 33632 N 3273.99 1.4258 0.671475 0
M  V30 33633 C 3275.27 1.33709 1.42763 0
M  V30 33634 C 3275.65 -0.0239377 2.11086 0
M  V30 33635 O 3275 -1.03961 2.03481 0
M  V30 33636 C 3275.21 2.50761 2.42735 0
M  V30 33637 C 3276.55 2.93027 3.07279 0
M  V30 33638 O 3277.58 2.50675 2.53062 0
M  V30 33639 O 3276.44 3.66338 4.05535 0
M  V30 33640 H 3273.53 0.527474 0.636946 0
M  V30 33641 H 3276.08 1.54594 0.699919 0
M  V30 33642 H 3274.85 3.41479 1.9107 0
M  V30 33643 H 3274.47 2.3188 3.22982 0
M  V30 33644 N 3275.47 -0.908102 1.28807 0
M  V30 33645 C 3276.38 -2.04434 1.15082 0
M  V30 33646 C 3277.4 -1.73834 0.0760426 0
M  V30 33647 O 3278.57 -1.99352 0.286456 0
M  V30 33648 C 3275.64 -3.36868 0.819792 0
M  V30 33649 C 3274.7 -3.81041 1.97753 0
M  V30 33650 C 3273.93 -5.07155 1.6622 0
M  V30 33651 O 3274.15 -5.67452 0.579191 0
M  V30 33652 O 3273.09 -5.47178 2.50759 0
M  V30 33653 H 3276.91 -2.18933 2.1048 0
M  V30 33654 H 3274.5 -1.03042 1.08179 0
M  V30 33655 H 3276.38 -4.16366 0.649378 0
M  V30 33656 H 3275.06 -3.23531 -0.104483 0
M  V30 33657 H 3273.96 -3.02346 2.20313 0
M  V30 33658 H 3275.3 -3.9895 2.88271 0
M  V30 33659 N 3276.95 -1.11147 -1.11732 0
M  V30 33660 C 3278.36 -0.84476 -1.3541 0
M  V30 33661 C 3278.56 0.532077 -1.94348 0
M  V30 33662 O 3277.62 1.2835 -2.17446 0
M  V30 33663 C 3278.93 -1.95041 -2.28866 0
M  V30 33664 C 3280.48 -1.97972 -2.42438 0
M  V30 33665 C 3280.96 -3.07731 -3.39213 0
M  V30 33666 N 3282.45 -3.07086 -3.46775 0
M  V30 33667 C 3283.18 -3.88653 -4.21588 0
M  V30 33668 N 3282.68 -4.80176 -4.99403 0
M  V30 33669 N 3284.47 -3.76842 -4.17069 0
M  V30 33670 H 3276.62 -1.99883 -0.718377 0
M  V30 33671 H 3278.88 -0.869043 -0.378771 0
M  V30 33672 H 3278.59 -2.94179 -1.92747 0
M  V30 33673 H 3278.46 -1.84395 -3.29057 0
M  V30 33674 H 3280.85 -0.99461 -2.77834 0
M  V30 33675 H 3280.93 -2.12694 -1.4211 0
M  V30 33676 H 3280.58 -4.06466 -3.04546 0
M  V30 33677 H 3280.51 -2.90249 -4.39389 0
M  V30 33678 H 3283 -2.40773 -2.91268 0
M  V30 33679 H 3283.31 -5.38956 -5.53847 0
M  V30 33680 H 3281.66 -4.84199 -4.98574 0
M  V30 33681 H 3284.85 -3.04688 -3.55363 0
M  V30 33682 H 3285.02 -4.40645 -4.75117 0
M  V30 33683 N 3278.43 1.29282 -0.901326 0
M  V30 33684 C 3279.37 2.29635 -0.370182 0
M  V30 33685 C 3280.37 1.60845 0.531542 0
M  V30 33686 O 3281.57 1.7517 0.414163 0
M  V30 33687 H 3277.95 0.745175 -0.101085 0
M  V30 33688 H 3279.92 2.71875 -1.2299 0
M  V30 33689 C 3278.67 3.45554 0.385745 0
M  V30 33690 H 3277.99 3.98681 -0.298888 0
M  V30 33691 H 3279.43 4.17804 0.722225 0
M  V30 33692 C 3277.89 2.97072 1.58902 0
M  V30 33693 O 3278.42 2.98486 2.68829 0
M  V30 33694 N 3276.63 2.52883 1.43174 0
M  V30 33695 H 3276.17 2.51932 0.537423 0
M  V30 33696 H 3276.13 2.20804 2.23815 0
M  V30 33697 N 3279.9 0.663979 1.4293 0
M  V30 33698 C 3280.83 -0.00727223 2.33499 0
M  V30 33699 C 3281.81 -0.800706 1.50076 0
M  V30 33700 O 3283 -0.760031 1.7871 0
M  V30 33701 C 3280.13 -0.966839 3.33571 0
M  V30 33702 C 3279.08 -0.282764 4.27065 0
M  V30 33703 C 3278.41 -1.35452 5.17259 0
M  V30 33704 C 3279.71 0.831529 5.15638 0
M  V30 33705 H 3281.4 0.749095 2.89877 0
M  V30 33706 H 3278.95 0.36168 1.39384 0
M  V30 33707 H 3280.9 -1.44542 3.95835 0
M  V30 33708 H 3279.63 -1.7545 2.75472 0
M  V30 33709 H 3278.29 0.175481 3.6618 0
M  V30 33710 H 3277.93 -2.13389 4.55493 0
M  V30 33711 H 3277.63 -0.901996 5.80636 0
M  V30 33712 H 3279.16 -1.83426 5.82398 0
M  V30 33713 H 3280.57 0.434634 5.7165 0
M  V30 33714 H 3278.97 1.20918 5.87791 0
M  V30 33715 H 3280.04 1.68495 4.54684 0
M  V30 33716 N 3281.38 -1.52265 0.406593 0
M  V30 33717 C 3282.33 -2.28499 -0.434849 0
M  V30 33718 C 3283.32 -1.33088 -1.04804 0
M  V30 33719 O 3284.53 -1.50558 -0.986531 0
M  V30 33720 H 3280.9 -0.734996 -0.15901 0
M  V30 33721 H 3282.88 -2.97517 0.229368 0
M  V30 33722 C 3281.62 -3.11703 -1.54067 0
M  V30 33723 H 3280.95 -3.84988 -1.07817 0
M  V30 33724 H 3282.39 -3.68154 -2.10331 0
M  V30 33725 C 3280.85 -2.25104 -2.50658 0
M  V30 33726 O 3281.38 -1.88958 -3.54483 0
M  V30 33727 N 3279.58 -1.88924 -2.20808 0
M  V30 33728 H 3279.13 -2.18518 -1.36409 0
M  V30 33729 H 3279.09 -1.31275 -2.85682 0
M  V30 33730 N 3282.86 -0.136936 -1.57004 0
M  V30 33731 C 3283.82 0.792381 -2.15067 0
M  V30 33732 C 3284.82 1.18225 -1.08994 0
M  V30 33733 O 3286.01 1.10481 -1.34683 0
M  V30 33734 C 3283.15 2.07392 -2.70557 0
M  V30 33735 H 3284.34 0.287467 -2.98519 0
M  V30 33736 H 3281.89 0.112442 -1.55895 0
M  V30 33737 H 3282.63 2.62273 -1.90744 0
M  V30 33738 H 3282.41 1.80368 -3.48152 0
M  V30 33739 H 3283.9 2.73786 -3.15326 0
M  V30 33740 N 3284.34 1.57005 0.136853 0
M  V30 33741 C 3285.75 1.73247 0.69588 0
M  V30 33742 C 3286.1 0.752912 1.81179 0
M  V30 33743 O 3285.23 -0.0782097 2.16259 0
M  V30 33744 C 3285.82 3.14133 1.26908 0
M  V30 33745 C 3284.38 3.31942 1.77458 0
M  V30 33746 C 3283.53 2.69157 0.66708 0
M  V30 33747 H 3286.48 1.58451 -0.088912 0
M  V30 33748 H 3286.5 3.14695 2.13886 0
M  V30 33749 H 3286.01 3.85404 0.456686 0
M  V30 33750 H 3284.11 2.65686 2.61232 0
M  V30 33751 H 3284.22 4.39974 1.89631 0
M  V30 33752 H 3282.59 2.29901 1.09625 0
M  V30 33753 H 3283.37 3.43038 -0.13404 0
M  V30 33754 N 3285.82 -0.406513 1.52267 0
M  V30 33755 C 3287.06 -1.15493 1.66701 0
M  V30 33756 C 3287.4 -1.90098 0.397052 0
M  V30 33757 O 3286.67 -1.84864 -0.604614 0
M  V30 33758 C 3286.95 -2.14729 2.89073 0
M  V30 33759 C 3286.81 -1.44004 4.26125 0
M  V30 33760 C 3288.13 -3.15368 3.06971 0
M  V30 33761 H 3285.24 -0.418504 0.606649 0
M  V30 33762 H 3287.89 -0.440349 1.84827 0
M  V30 33763 H 3286.04 -2.75668 2.7375 0
M  V30 33764 H 3287.71 -0.861642 4.53181 0
M  V30 33765 H 3285.95 -0.741989 4.27407 0
M  V30 33766 H 3286.62 -2.16427 5.07803 0
M  V30 33767 H 3289.1 -2.64506 3.21209 0
M  V30 33768 H 3287.97 -3.82065 3.94104 0
M  V30 33769 H 3288.24 -3.83243 2.20402 0
M  V30 33770 N 3287.29 -1.42934 -0.663904 0
M  V30 33771 C 3288.23 -1.4322 -1.78943 0
M  V30 33772 C 3289.24 -0.329755 -1.59425 0
M  V30 33773 O 3290.43 -0.59353 -1.68343 0
M  V30 33774 C 3287.53 -1.21908 -3.16215 0
M  V30 33775 C 3286.7 -2.44791 -3.62486 0
M  V30 33776 C 3285.76 -2.18862 -4.78525 0
M  V30 33777 O 3284.79 -2.9214 -4.88511 0
M  V30 33778 N 3285.99 -1.19855 -5.67992 0
M  V30 33779 H 3288.75 -2.40239 -1.7918 0
M  V30 33780 H 3286.31 -1.37953 -0.84738 0
M  V30 33781 H 3288.31 -1.02461 -3.91515 0
M  V30 33782 H 3286.88 -0.333731 -3.10813 0
M  V30 33783 H 3286.1 -2.79734 -2.77746 0
M  V30 33784 H 3287.38 -3.26595 -3.90145 0
M  V30 33785 H 3286.78 -0.592689 -5.62587 0
M  V30 33786 H 3285.34 -1.06393 -6.43058 0
M  V30 33787 N 3288.77 0.901258 -1.29287 0
M  V30 33788 C 3290.18 1.46684 -1.15501 0
M  V30 33789 C 3290.53 1.94595 0.250412 0
M  V30 33790 O 3289.66 1.83578 1.14578 0
M  V30 33791 C 3290.25 2.66603 -2.09065 0
M  V30 33792 C 3288.81 3.19302 -1.99307 0
M  V30 33793 C 3287.96 1.91996 -2.00082 0
M  V30 33794 H 3290.91 0.712748 -1.41794 0
M  V30 33795 H 3290.93 3.42285 -1.66196 0
M  V30 33796 H 3290.44 2.31702 -3.11345 0
M  V30 33797 H 3288.55 3.589 -1.00109 0
M  V30 33798 H 3288.66 3.83705 -2.86892 0
M  V30 33799 H 3287.02 2.09633 -1.44658 0
M  V30 33800 H 3287.81 1.59374 -3.04064 0
M  V30 33801 N 3290.25 1.11738 1.11141 0
M  V30 33802 C 3291.5 0.868159 1.82946 0
M  V30 33803 C 3291.83 -0.60615 1.84814 0
M  V30 33804 O 3291.08 -1.46368 1.29903 0
M  V30 33805 C 3291.38 1.37885 3.29731 0
M  V30 33806 C 3291.05 2.86693 3.4802 0
M  V30 33807 C 3289.71 3.27327 3.52719 0
M  V30 33808 C 3292.06 3.82519 3.54017 0
M  V30 33809 C 3289.39 4.62508 3.60975 0
M  V30 33810 C 3291.74 5.17522 3.63805 0
M  V30 33811 C 3290.4 5.57709 3.66766 0
M  V30 33812 H 3289.67 0.317682 0.669447 0
M  V30 33813 H 3292.32 1.39632 1.31054 0
M  V30 33814 H 3290.63 0.770998 3.84139 0
M  V30 33815 H 3292.32 1.16232 3.83785 0
M  V30 33816 H 3288.91 2.54262 3.45034 0
M  V30 33817 H 3293.1 3.52225 3.49644 0
M  V30 33818 H 3288.35 4.93046 3.61546 0
M  V30 33819 H 3292.53 5.91606 3.67389 0
M  V30 33820 H 3290.15 6.62448 3.72916 0
M  V30 33821 N 3291.73 -1.28802 0.90817 0
M  V30 33822 C 3292.64 -2.31213 0.397208 0
M  V30 33823 C 3293.65 -1.66287 -0.512322 0
M  V30 33824 O 3294.83 -1.97391 -0.399859 0
M  V30 33825 C 3291.9 -3.44832 -0.359462 0
M  V30 33826 C 3290.96 -4.25328 0.582613 0
M  V30 33827 C 3290.19 -5.33521 -0.13804 0
M  V30 33828 O 3290.41 -5.53933 -1.36066 0
M  V30 33829 O 3289.35 -5.99617 0.523787 0
M  V30 33830 H 3293.17 -2.76916 1.24705 0
M  V30 33831 H 3290.76 -1.33394 0.67279 0
M  V30 33832 H 3292.64 -4.13985 -0.787025 0
M  V30 33833 H 3291.31 -3.01221 -1.18523 0
M  V30 33834 H 3290.22 -3.58784 1.05946 0
M  V30 33835 H 3291.55 -4.72603 1.37503 0
M  V30 33836 N 3293.21 -0.67155 -1.42576 0
M  V30 33837 C 3294.48 -0.121563 -1.95222 0
M  V30 33838 C 3294.86 1.36287 -1.61212 0
M  V30 33839 O 3294.21 2.09745 -0.906598 0
M  V30 33840 C 3294.42 -0.38725 -3.46845 0
M  V30 33841 C 3295.77 -0.302012 -4.23525 0
M  V30 33842 O 3296.79 -0.320817 -3.54752 0
M  V30 33843 O 3295.65 -0.241413 -5.45967 0
M  V30 33844 H 3292.75 -0.000983152 -0.826999 0
M  V30 33845 H 3295.29 -0.746055 -1.52421 0
M  V30 33846 H 3294.06 -1.41569 -3.64793 0
M  V30 33847 H 3293.69 0.269411 -3.96686 0
M  V30 33848 N 3294.68 1.52047 -0.414663 0
M  V30 33849 C 3296.1 1.86623 0.0536779 0
M  V30 33850 C 3296.45 1.33312 1.43952 0
M  V30 33851 O 3295.57 0.674642 2.05615 0
M  V30 33852 C 3296.17 3.3864 0.104181 0
M  V30 33853 C 3294.73 3.72834 0.516871 0
M  V30 33854 C 3293.87 2.75617 -0.305091 0
M  V30 33855 H 3296.82 1.45595 -0.631494 0
M  V30 33856 H 3296.84 3.69252 0.91833 0
M  V30 33857 H 3296.36 3.77411 -0.904589 0
M  V30 33858 H 3294.46 3.39644 1.53208 0
M  V30 33859 H 3294.57 4.78408 0.257416 0
M  V30 33860 H 3292.93 2.53629 0.233372 0
M  V30 33861 H 3293.72 3.17227 -1.31231 0
M  V30 33862 N 3296.16 0.145261 1.56929 0
M  V30 33863 C 3297.07 -0.80818 2.2024 0
M  V30 33864 C 3298.09 -1.27302 1.18618 0
M  V30 33865 O 3299.26 -1.33057 1.51188 0
M  V30 33866 C 3296.33 -2.0305 2.81019 0
M  V30 33867 C 3295.39 -1.61505 3.97762 0
M  V30 33868 C 3294.62 -2.7791 4.55633 0
M  V30 33869 O 3294.85 -3.94075 4.12385 0
M  V30 33870 O 3293.78 -2.53482 5.45922 0
M  V30 33871 H 3297.61 -0.299261 3.02222 0
M  V30 33872 H 3295.19 -0.0816789 1.49177 0
M  V30 33873 H 3297.07 -2.74586 3.19656 0
M  V30 33874 H 3295.75 -2.52897 2.02051 0
M  V30 33875 H 3294.66 -0.869969 3.63844 0
M  V30 33876 H 3295.99 -1.16375 4.78244 0
M  V30 33877 N 3297.64 -1.57075 -0.128525 0
M  V30 33878 C 3298.59 -1.96067 -1.1637 0
M  V30 33879 C 3299.58 -0.834347 -1.37577 0
M  V30 33880 O 3300.77 -1.09797 -1.38829 0
M  V30 33881 C 3297.9 -2.36047 -2.49272 0
M  V30 33882 C 3296.98 -3.55291 -2.3158 0
M  V30 33883 N 3297.37 -4.7127 -1.83679 0
M  V30 33884 C 3295.67 -3.60737 -2.62269 0
M  V30 33885 C 3296.37 -5.53322 -1.79469 0
M  V30 33886 N 3295.35 -4.95545 -2.23465 0
M  V30 33887 H 3299.15 -2.83202 -0.785743 0
M  V30 33888 H 3296.66 -1.58878 -0.336382 0
M  V30 33889 H 3298.66 -2.62194 -3.2413 0
M  V30 33890 H 3297.32 -1.50272 -2.87834 0
M  V30 33891 H 3298.33 -4.9467 -1.53368 0
M  V30 33892 H 3295.01 -2.85546 -3.04581 0
M  V30 33893 H 3296.4 -6.56338 -1.4377 0
M  V30 33894 N 3299.12 0.398432 -1.5248 0
M  V30 33895 C 3300.05 1.50743 -1.71323 0
M  V30 33896 C 3301.03 1.52618 -0.560927 0
M  V30 33897 O 3302.21 1.71166 -0.789587 0
M  V30 33898 C 3299.34 2.89243 -1.76228 0
M  V30 33899 C 3298.39 3.05234 -2.97883 0
M  V30 33900 S 3299.22 2.77423 -4.58036 0
M  V30 33901 C 3300.38 4.18133 -4.65742 0
M  V30 33902 H 3300.61 1.34533 -2.65119 0
M  V30 33903 H 3298.14 0.590702 -1.42654 0
M  V30 33904 H 3300.1 3.69058 -1.79739 0
M  V30 33905 H 3298.76 3.02786 -0.835413 0
M  V30 33906 H 3297.95 4.06589 -2.97828 0
M  V30 33907 H 3297.56 2.33298 -2.92315 0
M  V30 33908 H 3299.85 5.11926 -4.43777 0
M  V30 33909 H 3300.79 4.23207 -5.67716 0
M  V30 33910 H 3301.2 4.03602 -3.94671 0
M  V30 33911 N 3300.6 1.43284 0.656314 0
M  V30 33912 C 3301.54 1.48202 1.76931 0
M  V30 33913 C 3302.51 0.332052 1.62747 0
M  V30 33914 O 3303.7 0.538768 1.83035 0
M  V30 33915 C 3300.84 1.40802 3.15069 0
M  V30 33916 C 3299.95 2.6598 3.4041 0
M  V30 33917 C 3299.09 2.5059 4.68378 0
M  V30 33918 C 3298.13 3.71052 4.86813 0
M  V30 33919 N 3297.26 3.54491 6.06037 0
M  V30 33920 H 3302.1 2.43307 1.72063 0
M  V30 33921 H 3299.64 1.20778 0.839707 0
M  V30 33922 H 3301.6 1.34506 3.94923 0
M  V30 33923 H 3300.23 0.49281 3.19016 0
M  V30 33924 H 3299.28 2.82567 2.54676 0
M  V30 33925 H 3300.59 3.55469 3.49919 0
M  V30 33926 H 3299.75 2.41985 5.56353 0
M  V30 33927 H 3298.49 1.5862 4.61184 0
M  V30 33928 H 3297.49 3.80069 3.97275 0
M  V30 33929 H 3298.72 4.64026 4.95839 0
M  V30 33930 H 3296.66 2.65253 5.99981 0
M  V30 33931 H 3296.58 4.37579 6.1649 0
M  V30 33932 H 3297.85 3.49731 6.96641 0
M  V30 33933 N 3302.08 -0.894389 1.29763 0
M  V30 33934 C 3303.02 -2.02048 1.15236 0
M  V30 33935 C 3304.02 -1.69269 0.0665962 0
M  V30 33936 O 3305.22 -1.78566 0.226777 0
M  V30 33937 H 3301.6 -0.662335 0.356114 0
M  V30 33938 H 3303.57 -2.11438 2.10562 0
M  V30 33939 C 3302.32 -3.3712 0.851202 0
M  V30 33940 H 3301.64 -3.62849 1.67872 0
M  V30 33941 H 3303.08 -4.16583 0.789613 0
M  V30 33942 C 3301.54 -3.33939 -0.445678 0
M  V30 33943 O 3302.07 -3.73832 -1.47011 0
M  V30 33944 N 3300.28 -2.87041 -0.453443 0
M  V30 33945 H 3299.82 -2.54772 0.380681 0
M  V30 33946 H 3299.78 -2.85295 -1.32114 0
M  V30 33947 N 3303.55 -1.12326 -1.10547 0
M  V30 33948 C 3304.8 -0.87915 -1.82753 0
M  V30 33949 C 3305.13 0.593571 -1.84906 0
M  V30 33950 O 3304.41 1.43871 -1.30887 0
M  V30 33951 C 3304.69 -1.45314 -3.29478 0
M  V30 33952 C 3304.54 -2.99414 -3.35665 0
M  V30 33953 C 3305.86 -1.11175 -4.25826 0
M  V30 33954 H 3302.98 -0.320821 -0.663508 0
M  V30 33955 H 3305.62 -1.38967 -1.29569 0
M  V30 33956 H 3303.77 -1.01894 -3.749 0
M  V30 33957 H 3305.45 -3.51506 -2.98733 0
M  V30 33958 H 3303.69 -3.35003 -2.756 0
M  V30 33959 H 3304.36 -3.34669 -4.38977 0
M  V30 33960 H 3306.84 -1.48674 -3.88633 0
M  V30 33961 H 3305.71 -1.54 -5.26854 0
M  V30 33962 H 3305.97 -0.0237824 -4.42094 0
M  V30 33963 N 3305.03 1.28319 -0.914988 0
M  V30 33964 C 3306.28 1.94207 -0.544673 0
M  V30 33965 C 3306.59 1.72808 0.916338 0
M  V30 33966 O 3307.8 2.32929 1.39486 0
M  V30 33967 C 3306.26 3.47856 -0.92327 0
M  V30 33968 C 3305.86 3.78031 -2.40409 0
M  V30 33969 C 3307.61 4.19895 -0.6236 0
M  V30 33970 C 3305.51 5.24995 -2.72275 0
M  V30 33971 H 3304.44 0.726997 -0.199979 0
M  V30 33972 H 3307.1 1.4581 -1.11407 0
M  V30 33973 H 3305.48 3.9499 -0.282645 0
M  V30 33974 H 3306.65 3.41701 -3.09155 0
M  V30 33975 H 3304.97 3.19167 -2.67435 0
M  V30 33976 H 3307.56 5.28087 -0.838336 0
M  V30 33977 H 3307.91 4.13983 0.438648 0
M  V30 33978 H 3308.44 3.78542 -1.22275 0
M  V30 33979 H 3305.18 5.35986 -3.77358 0
M  V30 33980 H 3304.7 5.62518 -2.08167 0
M  V30 33981 H 3306.38 5.92747 -2.59345 0
M  V30 33982 N 3306.51 0.679102 1.42218 0
M  V30 33983 C 3307.47 0.0125878 2.29197 0
M  V30 33984 C 3308.47 -0.724666 1.43545 0
M  V30 33985 O 3309.66 -0.562023 1.64885 0
M  V30 33986 C 3306.79 -0.992789 3.26123 0
M  V30 33987 H 3307.99 0.778205 2.89627 0
M  V30 33988 H 3305.54 0.441687 1.49929 0
M  V30 33989 H 3306.28 -1.78675 2.7064 0
M  V30 33990 H 3306.06 -0.467476 3.89303 0
M  V30 33991 H 3307.55 -1.45744 3.91342 0
M  V30 33992 N 3307.99 -1.51825 0.42272 0
M  V30 33993 C 3308.92 -2.30273 -0.386872 0
M  V30 33994 C 3309.9 -1.35058 -1.03409 0
M  V30 33995 O 3311.08 -1.63972 -1.04052 0
M  V30 33996 C 3308.21 -3.13409 -1.4964 0
M  V30 33997 C 3307.17 -4.16783 -0.973458 0
M  V30 33998 C 3306.49 -4.88348 -2.17762 0
M  V30 33999 C 3307.79 -5.22297 -0.0180276 0
M  V30 34000 H 3309.49 -2.982 0.26775 0
M  V30 34001 H 3307.03 -1.4341 0.130212 0
M  V30 34002 H 3308.99 -3.67062 -2.06986 0
M  V30 34003 H 3307.71 -2.43276 -2.1791 0
M  V30 34004 H 3306.37 -3.64159 -0.422306 0
M  V30 34005 H 3306.02 -4.14731 -2.84617 0
M  V30 34006 H 3305.72 -5.5824 -1.83417 0
M  V30 34007 H 3307.24 -5.44819 -2.75689 0
M  V30 34008 H 3308.66 -5.71109 -0.500721 0
M  V30 34009 H 3307.05 -5.99631 0.237268 0
M  V30 34010 H 3308.12 -4.76031 0.923149 0
M  V30 34011 N 3309.47 -0.153581 -1.5685 0
M  V30 34012 C 3310.43 0.769526 -2.15896 0
M  V30 34013 C 3311.43 1.17062 -1.10241 0
M  V30 34014 O 3312.62 1.09047 -1.35847 0
M  V30 34015 C 3309.75 2.04511 -2.72742 0
M  V30 34016 H 3310.94 0.255789 -2.98807 0
M  V30 34017 H 3308.5 0.0959005 -1.56006 0
M  V30 34018 H 3309.23 2.60236 -1.93515 0
M  V30 34019 H 3309.02 1.76666 -3.50045 0
M  V30 34020 H 3310.51 2.70427 -3.18213 0
M  V30 34021 N 3310.94 1.57141 0.120193 0
M  V30 34022 C 3312.19 1.8479 0.82819 0
M  V30 34023 C 3312.52 0.73849 1.79935 0
M  V30 34024 O 3311.77 -0.270261 1.93825 0
M  V30 34025 C 3312.07 3.18915 1.61332 0
M  V30 34026 C 3311.74 4.43987 0.786558 0
M  V30 34027 C 3310.4 4.77947 0.558561 0
M  V30 34028 C 3312.75 5.20776 0.21019 0
M  V30 34029 C 3310.08 5.86141 -0.256078 0
M  V30 34030 C 3312.43 6.29827 -0.591634 0
M  V30 34031 C 3311.1 6.6232 -0.829959 0
M  V30 34032 H 3310.37 0.676194 0.303056 0
M  V30 34033 H 3313.01 1.91285 0.0906202 0
M  V30 34034 H 3311.32 3.0799 2.42176 0
M  V30 34035 H 3313.02 3.37529 2.16507 0
M  V30 34036 H 3309.61 4.17378 0.974353 0
M  V30 34037 H 3313.79 4.94892 0.373554 0
M  V30 34038 H 3309.05 6.09742 -0.449957 0
M  V30 34039 H 3313.22 6.88511 -1.04524 0
M  V30 34040 H 3310.85 7.45989 -1.46303 0
M  V30 34041 N 3312.42 -0.39034 1.5269 0
M  V30 34042 C 3313.7 -1.14965 1.58248 0
M  V30 34043 C 3314.08 -2.07745 0.374844 0
M  V30 34044 O 3313.43 -2.19443 -0.636931 0
M  V30 34045 C 3313.64 -1.91051 2.92063 0
M  V30 34046 C 3314.99 -2.4646 3.4575 0
M  V30 34047 O 3316.01 -2.01209 2.93928 0
M  V30 34048 O 3314.87 -3.29115 4.36286 0
M  V30 34049 H 3311.96 -0.525959 0.638198 0
M  V30 34050 H 3314.51 -0.395601 1.65025 0
M  V30 34051 H 3313.28 -1.23195 3.71401 0
M  V30 34052 H 3312.9 -2.7342 2.88665 0
M  V30 34053 N 3313.9 -1.4363 -0.648706 0
M  V30 34054 C 3315.13 -1.48719 -1.4341 0
M  V30 34055 C 3315.54 -0.105084 -1.88908 0
M  V30 34056 O 3314.88 0.895868 -1.60374 0
M  V30 34057 C 3314.94 -2.37473 -2.69902 0
M  V30 34058 C 3314.61 -3.84939 -2.46314 0
M  V30 34059 C 3315.6 -4.75931 -2.0925 0
M  V30 34060 C 3313.29 -4.29472 -2.60499 0
M  V30 34061 C 3315.28 -6.09452 -1.86675 0
M  V30 34062 C 3312.97 -5.63044 -2.37538 0
M  V30 34063 C 3313.97 -6.52852 -2.00683 0
M  V30 34064 O 3313.66 -7.83954 -1.77965 0
M  V30 34065 H 3313.39 -0.507227 -0.446874 0
M  V30 34066 H 3315.94 -1.89088 -0.802185 0
M  V30 34067 H 3314.17 -1.91999 -3.35668 0
M  V30 34068 H 3315.86 -2.33713 -3.31863 0
M  V30 34069 H 3316.63 -4.42803 -1.97864 0
M  V30 34070 H 3312.51 -3.59841 -2.88159 0
M  V30 34071 H 3316.05 -6.79511 -1.57832 0
M  V30 34072 H 3311.95 -5.95738 -2.48528 0
M  V30 34073 H 3312.72 -7.95577 -1.92354 0
M  V30 34074 N 3315.38 0.887495 -1.30236 0
M  V30 34075 C 3316.79 1.17035 -1.08512 0
M  V30 34076 C 3316.99 2.00897 0.155752 0
M  V30 34077 O 3316.05 2.3776 0.850081 0
M  V30 34078 C 3317.36 1.87947 -2.34727 0
M  V30 34079 C 3318.91 2.00722 -2.40166 0
M  V30 34080 C 3319.39 2.75045 -3.66216 0
M  V30 34081 N 3320.88 2.82592 -3.67009 0
M  V30 34082 C 3321.61 3.40668 -4.6123 0
M  V30 34083 N 3321.11 3.99813 -5.65793 0
M  V30 34084 N 3322.9 3.38459 -4.48778 0
M  V30 34085 H 3315.05 0.32826 -2.09848 0
M  V30 34086 H 3317.32 0.207964 -0.924908 0
M  V30 34087 H 3317.02 1.33768 -3.25268 0
M  V30 34088 H 3316.9 2.88346 -2.4318 0
M  V30 34089 H 3319.28 2.54072 -1.50105 0
M  V30 34090 H 3319.36 0.994176 -2.3569 0
M  V30 34091 H 3319.01 2.22368 -4.56634 0
M  V30 34092 H 3318.94 3.7672 -3.67953 0
M  V30 34093 H 3321.43 2.40597 -2.91413 0
M  V30 34094 H 3321.74 4.42186 -6.33791 0
M  V30 34095 H 3320.09 3.9824 -5.69588 0
M  V30 34096 H 3323.28 2.91479 -3.66275 0
M  V30 34097 H 3323.45 3.83424 -5.22389 0
M  V30 34098 N 3316.86 1.12911 1.0995 0
M  V30 34099 C 3317.82 0.804586 2.14614 0
M  V30 34100 C 3318.82 -0.183422 1.5975 0
M  V30 34101 O 3320.01 0.0429929 1.74147 0
M  V30 34102 C 3317.14 0.196531 3.40333 0
M  V30 34103 H 3318.33 1.73197 2.44832 0
M  V30 34104 H 3315.89 0.933019 1.25397 0
M  V30 34105 H 3316.62 -0.740333 3.15737 0
M  V30 34106 H 3316.41 0.907953 3.81443 0
M  V30 34107 H 3317.9 -0.013853 4.17598 0
M  V30 34108 N 3318.33 -1.27832 0.92178 0
M  V30 34109 C 3319.58 -1.94244 0.558008 0
M  V30 34110 C 3319.9 -1.7285 -0.90265 0
M  V30 34111 O 3319.17 -1.07282 -1.63913 0
M  V30 34112 H 3317.75 -0.718782 0.203377 0
M  V30 34113 H 3320.42 -1.55658 1.17289 0
M  V30 34114 H 3319.51 -3.02724 0.759256 0
M  V30 34115 N 3319.81 -0.686634 -1.41856 0
M  V30 34116 C 3321.04 -0.222597 -2.05699 0
M  V30 34117 C 3321.46 1.12478 -1.51638 0
M  V30 34118 O 3320.81 1.70111 -0.660955 0
M  V30 34119 C 3320.86 -0.161881 -3.61137 0
M  V30 34120 O 3320.58 -1.45603 -4.13197 0
M  V30 34121 C 3322.09 0.324226 -4.42113 0
M  V30 34122 H 3319.31 -0.105442 -0.662664 0
M  V30 34123 H 3321.85 -0.936703 -1.81786 0
M  V30 34124 H 3320 0.502989 -3.84121 0
M  V30 34125 H 3320.42 -1.33721 -5.07168 0
M  V30 34126 H 3321.89 0.315597 -5.51097 0
M  V30 34127 H 3322.37 1.36157 -4.17562 0
M  V30 34128 H 3322.98 -0.309325 -4.24174 0
M  V30 34129 N 3321.29 1.51599 -0.430766 0
M  V30 34130 C 3322.52 2.06933 0.139161 0
M  V30 34131 C 3322.94 1.29674 1.36258 0
M  V30 34132 O 3322.3 0.332868 1.78218 0
M  V30 34133 C 3322.35 3.57825 0.44653 0
M  V30 34134 O 3321.45 3.82805 1.53407 0
M  V30 34135 H 3320.79 0.663983 0.00474644 0
M  V30 34136 H 3323.32 1.95289 -0.610206 0
M  V30 34137 H 3323.33 4.01969 0.698901 0
M  V30 34138 H 3322.01 4.13483 -0.447686 0
M  V30 34139 H 3320.58 3.50528 1.27218 0
M  V30 34140 N 3322.77 0.161897 1.56766 0
M  V30 34141 C 3324.18 -0.356434 1.83266 0
M  V30 34142 C 3324.53 -1.63715 1.08129 0
M  V30 34143 O 3323.66 -2.13849 0.331308 0
M  V30 34144 C 3324.25 -0.653463 3.32438 0
M  V30 34145 C 3322.81 -1.11626 3.59467 0
M  V30 34146 C 3321.96 -0.147155 2.76909 0
M  V30 34147 H 3324.91 0.386335 1.53926 0
M  V30 34148 H 3324.93 -1.50655 3.49404 0
M  V30 34149 H 3324.44 0.278835 3.87097 0
M  V30 34150 H 3322.54 -2.06399 3.1021 0
M  V30 34151 H 3322.65 -1.03194 4.67855 0
M  V30 34152 H 3321.02 -0.642696 2.46458 0
M  V30 34153 H 3321.8 0.778996 3.34345 0
M  V30 34154 N 3324.25 -1.57203 -0.111858 0
M  V30 34155 C 3325.49 -1.84861 -0.816762 0
M  V30 34156 C 3325.82 -0.748145 -1.80077 0
M  V30 34157 O 3325.09 0.2272 -1.94578 0
M  V30 34158 H 3323.67 -0.682067 -0.304621 0
M  V30 34159 H 3326.33 -1.94656 -0.0974788 0
M  V30 34160 H 3325.42 -2.81025 -1.35763 0
M  V30 34161 N 3325.72 0.382237 -1.52894 0
M  V30 34162 C 3326.95 1.14763 -1.72154 0
M  V30 34163 C 3327.37 1.83531 -0.442943 0
M  V30 34164 O 3326.72 1.72936 0.583055 0
M  V30 34165 C 3326.78 2.19057 -2.8757 0
M  V30 34166 O 3326.5 1.53092 -4.10481 0
M  V30 34167 C 3328 3.08272 -3.18565 0
M  V30 34168 H 3325.22 0.343822 -0.576218 0
M  V30 34169 H 3327.76 0.446238 -1.99572 0
M  V30 34170 H 3325.92 2.84821 -2.62594 0
M  V30 34171 H 3326.33 2.22446 -4.74993 0
M  V30 34172 H 3327.8 3.77466 -4.02769 0
M  V30 34173 H 3328.28 3.72157 -2.33229 0
M  V30 34174 H 3328.89 2.48144 -3.45405 0
M  V30 34175 N 3327.2 1.43972 0.64108 0
M  V30 34176 C 3328.61 1.41108 1.22252 0
M  V30 34177 C 3328.97 0.121318 1.95825 0
M  V30 34178 O 3328.09 -0.778755 2.01902 0
M  V30 34179 C 3328.69 2.5562 2.22359 0
M  V30 34180 C 3327.24 2.55983 2.75953 0
M  V30 34181 C 3326.39 2.3272 1.50787 0
M  V30 34182 H 3329.34 1.52697 0.432355 0
M  V30 34183 H 3329.36 2.27804 3.04771 0
M  V30 34184 H 3328.88 3.49477 1.68783 0
M  V30 34185 H 3326.98 1.6604 3.33559 0
M  V30 34186 H 3327.09 3.54148 3.2267 0
M  V30 34187 H 3325.45 1.8162 1.78567 0
M  V30 34188 H 3326.24 3.28677 0.991285 0
M  V30 34189 N 3328.68 -0.880575 1.30704 0
M  V30 34190 C 3329.63 -2.00815 1.17372 0
M  V30 34191 C 3330.62 -1.69189 0.0845457 0
M  V30 34192 O 3331.83 -1.78315 0.245704 0
M  V30 34193 H 3328.2 -0.65852 0.363119 0
M  V30 34194 H 3330.18 -2.09193 2.12793 0
M  V30 34195 C 3328.92 -3.36198 0.88691 0
M  V30 34196 H 3328.25 -3.61048 1.71711 0
M  V30 34197 H 3329.69 -4.15722 0.833753 0
M  V30 34198 C 3328.15 -3.34393 -0.410234 0
M  V30 34199 O 3328.68 -3.75371 -1.43038 0
M  V30 34200 N 3326.88 -2.87505 -0.422973 0
M  V30 34201 H 3326.43 -2.54354 0.407681 0
M  V30 34202 H 3326.39 -2.8668 -1.29081 0
M  V30 34203 N 3330.16 -1.13492 -1.09349 0
M  V30 34204 C 3331.58 -0.873292 -1.33588 0
M  V30 34205 C 3331.78 0.490733 -1.95433 0
M  V30 34206 O 3330.83 1.23708 -2.20119 0
M  V30 34207 C 3332.14 -1.99851 -2.24677 0
M  V30 34208 C 3333.69 -2.0307 -2.38184 0
M  V30 34209 C 3334.17 -3.14857 -3.3261 0
M  V30 34210 N 3335.66 -3.14372 -3.40183 0
M  V30 34211 C 3336.39 -3.97508 -4.13249 0
M  V30 34212 N 3335.89 -4.90661 -4.89105 0
M  V30 34213 N 3337.68 -3.85604 -4.08981 0
M  V30 34214 H 3329.83 -2.01362 -0.675817 0
M  V30 34215 H 3332.1 -0.876882 -0.360252 0
M  V30 34216 H 3331.8 -2.98202 -1.86464 0
M  V30 34217 H 3331.68 -1.91333 -3.25071 0
M  V30 34218 H 3334.06 -1.05332 -2.75661 0
M  V30 34219 H 3334.14 -2.1566 -1.37566 0
M  V30 34220 H 3333.79 -4.12834 -2.95856 0
M  V30 34221 H 3333.72 -2.99504 -4.33134 0
M  V30 34222 H 3336.21 -2.46897 -2.86095 0
M  V30 34223 H 3336.52 -5.50583 -5.4229 0
M  V30 34224 H 3334.87 -4.94666 -4.88191 0
M  V30 34225 H 3338.06 -3.12157 -3.48821 0
M  V30 34226 H 3338.23 -4.50624 -4.65663 0
M  V30 34227 N 3331.64 1.27341 -0.928546 0
M  V30 34228 C 3332.89 1.93618 -0.565241 0
M  V30 34229 C 3333.2 1.7377 0.897958 0
M  V30 34230 O 3334.41 2.34395 1.37008 0
M  V30 34231 C 3332.86 3.46857 -0.960113 0
M  V30 34232 C 3332.47 3.7546 -2.44405 0
M  V30 34233 C 3334.21 4.1921 -0.6681 0
M  V30 34234 C 3332.12 5.22078 -2.77828 0
M  V30 34235 H 3331.05 0.724835 -0.207678 0
M  V30 34236 H 3333.7 1.44621 -1.12947 0
M  V30 34237 H 3332.08 3.94668 -0.324523 0
M  V30 34238 H 3333.26 3.38403 -3.12762 0
M  V30 34239 H 3331.57 3.16313 -2.70805 0
M  V30 34240 H 3334.17 5.27168 -0.894299 0
M  V30 34241 H 3334.51 4.14425 0.394715 0
M  V30 34242 H 3335.05 3.77223 -1.26283 0
M  V30 34243 H 3331.78 5.31953 -3.83022 0
M  V30 34244 H 3331.3 5.60278 -2.14122 0
M  V30 34245 H 3332.98 5.89963 -2.65617 0
M  V30 34246 N 3333.12 0.694147 1.4149 0
M  V30 34247 C 3334.36 0.224512 2.01252 0
M  V30 34248 C 3334.69 -1.17539 1.54968 0
M  V30 34249 O 3333.95 -1.80714 0.751073 0
M  V30 34250 C 3334.24 0.228932 3.56666 0
M  V30 34251 C 3333.91 1.57615 4.22455 0
M  V30 34252 C 3332.57 1.94499 4.40141 0
M  V30 34253 C 3334.92 2.46255 4.59356 0
M  V30 34254 C 3332.25 3.19609 4.92003 0
M  V30 34255 C 3334.6 3.70696 5.12608 0
M  V30 34256 C 3333.27 4.07724 5.28505 0
M  V30 34257 H 3332.54 0.0821548 0.736432 0
M  V30 34258 H 3335.19 0.892956 1.69406 0
M  V30 34259 H 3333.49 -0.523059 3.88293 0
M  V30 34260 H 3335.19 -0.151948 4.00712 0
M  V30 34261 H 3331.78 1.27928 4.09063 0
M  V30 34262 H 3335.96 2.1904 4.45348 0
M  V30 34263 H 3331.22 3.48293 5.02495 0
M  V30 34264 H 3335.39 4.39567 5.40142 0
M  V30 34265 H 3333.02 5.0474 5.68455 0
M  V30 34266 N 3334.59 -1.51368 0.438799 0
M  V30 34267 C 3335.84 -2.021 -0.127177 0
M  V30 34268 C 3336.17 -1.32287 -1.42585 0
M  V30 34269 O 3335.42 -0.426982 -1.90985 0
M  V30 34270 C 3335.72 -3.55246 -0.391797 0
M  V30 34271 C 3335.39 -4.43358 0.821236 0
M  V30 34272 C 3334.05 -4.6716 1.15389 0
M  V30 34273 C 3336.4 -4.95043 1.63039 0
M  V30 34274 C 3333.73 -5.39893 2.29636 0
M  V30 34275 C 3336.08 -5.69029 2.76386 0
M  V30 34276 C 3334.75 -5.91094 3.10104 0
M  V30 34277 H 3334.02 -0.739537 -0.0465375 0
M  V30 34278 H 3336.66 -1.82304 0.586293 0
M  V30 34279 H 3334.97 -3.73381 -1.18718 0
M  V30 34280 H 3336.67 -3.92035 -0.843159 0
M  V30 34281 H 3333.26 -4.2503 0.55202 0
M  V30 34282 H 3337.44 -4.76537 1.38659 0
M  V30 34283 H 3332.7 -5.55191 2.56072 0
M  V30 34284 H 3336.87 -6.08066 3.39453 0
M  V30 34285 H 3334.5 -6.47231 3.98743 0
M  V30 34286 N 3336.07 -0.170208 -1.56678 0
M  V30 34287 C 3337.3 0.484507 -2.01661 0
M  V30 34288 C 3337.72 1.5609 -1.04965 0
M  V30 34289 O 3337.08 1.81277 -0.0290205 0
M  V30 34290 C 3337.13 1.04078 -3.45254 0
M  V30 34291 O 3336.23 2.15482 -3.51627 0
M  V30 34292 H 3335.57 0.116123 -0.653767 0
M  V30 34293 H 3338.1 -0.273773 -2.0276 0
M  V30 34294 H 3338.11 1.36366 -3.84536 0
M  V30 34295 H 3336.79 0.252665 -4.15132 0
M  V30 34296 H 3335.36 1.84246 -3.24203 0
M  V30 34297 N 3337.55 1.5726 0.10352 0
M  V30 34298 C 3338.83 1.76657 0.839737 0
M  V30 34299 C 3339.21 0.749701 1.97339 0
M  V30 34300 O 3338.55 -0.223426 2.27405 0
M  V30 34301 C 3338.76 3.22162 1.34212 0
M  V30 34302 C 3340.11 3.85105 1.78828 0
M  V30 34303 O 3341.14 3.25859 1.43855 0
M  V30 34304 O 3340 4.89272 2.43466 0
M  V30 34305 H 3337.09 0.723876 0.399915 0
M  V30 34306 H 3339.64 1.69482 0.086056 0
M  V30 34307 H 3338.41 3.87701 0.529492 0
M  V30 34308 H 3338.03 3.33937 2.15806 0
M  V30 34309 N 3339.03 -0.374123 1.53095 0
M  V30 34310 C 3340.28 -1.11492 1.68084 0
M  V30 34311 C 3340.59 -1.90708 0.434718 0
M  V30 34312 O 3341.8 -2.67488 0.465003 0
M  V30 34313 C 3340.25 -2.03119 2.97104 0
M  V30 34314 C 3339.86 -1.29255 4.28949 0
M  V30 34315 C 3341.6 -2.77243 3.2146 0
M  V30 34316 C 3339.51 -2.19734 5.49064 0
M  V30 34317 H 3338.44 -0.41992 0.626246 0
M  V30 34318 H 3341.09 -0.376556 1.79595 0
M  V30 34319 H 3339.47 -2.80651 2.79376 0
M  V30 34320 H 3340.65 -0.568448 4.5728 0
M  V30 34321 H 3338.96 -0.67029 4.1097 0
M  V30 34322 H 3341.56 -3.45148 4.08383 0
M  V30 34323 H 3341.9 -3.42142 2.37159 0
M  V30 34324 H 3342.44 -2.06797 3.39824 0
M  V30 34325 H 3339.17 -1.59426 6.35817 0
M  V30 34326 H 3338.69 -2.90018 5.25024 0
M  V30 34327 H 3340.37 -2.79485 5.83521 0
M  V30 34328 N 3340.51 -1.4431 -0.633436 0
M  V30 34329 C 3341.46 -1.47435 -1.73917 0
M  V30 34330 C 3342.44 -0.340409 -1.57258 0
M  V30 34331 O 3343.63 -0.585558 -1.67034 0
M  V30 34332 C 3340.76 -1.41918 -3.12593 0
M  V30 34333 C 3339.85 -2.60417 -3.3473 0
M  V30 34334 N 3340.24 -3.85675 -3.27243 0
M  V30 34335 C 3338.54 -2.55563 -3.65518 0
M  V30 34336 C 3339.24 -4.6462 -3.50005 0
M  V30 34337 N 3338.21 -3.95657 -3.72768 0
M  V30 34338 H 3342.01 -2.42131 -1.66583 0
M  V30 34339 H 3339.53 -1.3924 -0.83582 0
M  V30 34340 H 3341.53 -1.4224 -3.91884 0
M  V30 34341 H 3340.19 -0.482582 -3.21094 0
M  V30 34342 H 3341.2 -4.17677 -3.06213 0
M  V30 34343 H 3337.87 -1.70688 -3.81014 0
M  V30 34344 H 3339.26 -5.73646 -3.49829 0
M  V30 34345 N 3341.98 0.873632 -1.3117 0
M  V30 34346 C 3343.23 1.62638 -1.20645 0
M  V30 34347 C 3343.56 1.9306 0.236252 0
M  V30 34348 O 3342.81 1.55821 1.18399 0
M  V30 34349 C 3343.11 2.96733 -1.99209 0
M  V30 34350 C 3342.78 2.85818 -3.48739 0
M  V30 34351 C 3341.44 2.82548 -3.89512 0
M  V30 34352 C 3343.79 2.73119 -4.43909 0
M  V30 34353 C 3341.12 2.64433 -5.23729 0
M  V30 34354 C 3343.47 2.56541 -5.78247 0
M  V30 34355 C 3342.14 2.51653 -6.18245 0
M  V30 34356 H 3341.41 0.595134 -0.441471 0
M  V30 34357 H 3344.05 1.01489 -1.62395 0
M  V30 34358 H 3342.36 3.61896 -1.50129 0
M  V30 34359 H 3344.06 3.5396 -1.8845 0
M  V30 34360 H 3340.65 2.89178 -3.16345 0
M  V30 34361 H 3344.83 2.74703 -4.13342 0
M  V30 34362 H 3340.09 2.59071 -5.53798 0
M  V30 34363 H 3344.26 2.45691 -6.5162 0
M  V30 34364 H 3341.89 2.37375 -7.22189 0
M  V30 34365 N 3343.46 1.1407 1.08746 0
M  V30 34366 C 3344.71 0.904978 1.80706 0
M  V30 34367 C 3345.03 -0.570134 1.86479 0
M  V30 34368 O 3344.3 -1.41443 1.35539 0
M  V30 34369 H 3342.88 0.331823 0.669255 0
M  V30 34370 H 3345.54 1.43861 1.31492 0
M  V30 34371 H 3344.64 1.30187 2.83651 0
M  V30 34372 N 3344.94 -1.26847 0.935286 0
M  V30 34373 C 3345.89 -2.28573 0.430936 0
M  V30 34374 C 3346.88 -1.62197 -0.48871 0
M  V30 34375 O 3348.09 -1.76207 -0.367574 0
M  V30 34376 H 3344.46 -0.742233 0.120806 0
M  V30 34377 H 3346.43 -2.68519 1.30155 0
M  V30 34378 C 3345.18 -3.46455 -0.293992 0
M  V30 34379 H 3344.51 -3.97749 0.404486 0
M  V30 34380 H 3345.95 -4.19572 -0.611198 0
M  V30 34381 C 3344.41 -3.01181 -1.5097 0
M  V30 34382 O 3344.94 -3.05508 -2.60821 0
M  V30 34383 N 3343.14 -2.5659 -1.36419 0
M  V30 34384 H 3342.69 -2.53268 -0.470439 0
M  V30 34385 H 3342.65 -2.2666 -2.17882 0
M  V30 34386 N 3346.42 -0.701641 -1.4112 0
M  V30 34387 C 3347.67 -0.232249 -2.00358 0
M  V30 34388 C 3347.98 1.17688 -1.56234 0
M  V30 34389 O 3349.19 1.74406 -2.08074 0
M  V30 34390 C 3347.64 -0.36432 -3.58051 0
M  V30 34391 C 3347.25 -1.7792 -4.11155 0
M  V30 34392 C 3348.99 0.0449881 -4.24476 0
M  V30 34393 C 3346.9 -1.8626 -5.61303 0
M  V30 34394 H 3345.83 -0.083074 -0.74941 0
M  V30 34395 H 3348.48 -0.870717 -1.61526 0
M  V30 34396 H 3346.86 0.3425 -3.94516 0
M  V30 34397 H 3348.04 -2.51527 -3.86097 0
M  V30 34398 H 3346.35 -2.13873 -3.57278 0
M  V30 34399 H 3348.95 0.0031981 -5.347 0
M  V30 34400 H 3349.29 1.08469 -4.0192 0
M  V30 34401 H 3349.83 -0.611773 -3.93068 0
M  V30 34402 H 3346.57 -2.88304 -5.88694 0
M  V30 34403 H 3346.09 -1.17046 -5.88269 0
M  V30 34404 H 3347.76 -1.62828 -6.26176 0
M  V30 34405 N 3347.9 1.51133 -0.446821 0
M  V30 34406 C 3348.83 2.25757 0.395764 0
M  V30 34407 C 3349.84 1.30138 0.978155 0
M  V30 34408 O 3351.03 1.55825 0.870682 0
M  V30 34409 C 3348.13 3.00518 1.5666 0
M  V30 34410 C 3347.3 4.23306 1.10138 0
M  V30 34411 C 3346.36 4.80566 2.14343 0
M  V30 34412 O 3345.39 5.42148 1.73391 0
M  V30 34413 N 3346.59 4.65429 3.46924 0
M  V30 34414 H 3349.36 2.98706 -0.24386 0
M  V30 34415 H 3346.92 1.59526 -0.276233 0
M  V30 34416 H 3348.91 3.35708 2.26013 0
M  V30 34417 H 3347.48 2.3052 2.11138 0
M  V30 34418 H 3346.7 3.93501 0.234575 0
M  V30 34419 H 3347.99 5.02969 0.768097 0
M  V30 34420 H 3347.38 4.16398 3.82922 0
M  V30 34421 H 3345.94 5.04955 4.12145 0
M  V30 34422 N 3349.37 0.178515 1.56586 0
M  V30 34423 C 3350.31 -0.780505 2.15501 0
M  V30 34424 C 3351.32 -1.18862 1.11246 0
M  V30 34425 O 3352.51 -1.12723 1.38405 0
M  V30 34426 C 3349.61 -2.06306 2.6887 0
M  V30 34427 C 3348.78 -1.81737 3.97857 0
M  V30 34428 C 3347.84 -2.94279 4.36218 0
M  V30 34429 O 3346.87 -2.64603 5.03958 0
M  V30 34430 N 3348.07 -4.2224 3.98364 0
M  V30 34431 H 3350.83 -0.276784 2.98419 0
M  V30 34432 H 3348.39 -0.00402395 1.61899 0
M  V30 34433 H 3350.39 -2.80703 2.91527 0
M  V30 34434 H 3348.96 -2.47848 1.905 0
M  V30 34435 H 3348.18 -0.91206 3.83504 0
M  V30 34436 H 3349.46 -1.62698 4.82086 0
M  V30 34437 H 3348.86 -4.49209 3.43843 0
M  V30 34438 H 3347.42 -4.93317 4.26006 0
M  V30 34439 N 3350.85 -1.57312 -0.0951784 0
M  V30 34440 C 3352.1 -1.85269 -0.797384 0
M  V30 34441 C 3352.41 -0.767764 -1.79902 0
M  V30 34442 O 3353.62 -0.934454 -2.54912 0
M  V30 34443 C 3352.08 -3.28558 -1.46894 0
M  V30 34444 C 3351.68 -4.45121 -0.507074 0
M  V30 34445 C 3353.43 -3.65739 -2.15488 0
M  V30 34446 C 3351.34 -5.79443 -1.18321 0
M  V30 34447 H 3350.27 -0.691079 -0.301539 0
M  V30 34448 H 3352.92 -1.83431 -0.0503261 0
M  V30 34449 H 3351.3 -3.24937 -2.26345 0
M  V30 34450 H 3352.47 -4.60089 0.255939 0
M  V30 34451 H 3350.79 -4.16336 0.0731613 0
M  V30 34452 H 3353.38 -4.63376 -2.66808 0
M  V30 34453 H 3353.73 -2.94359 -2.94378 0
M  V30 34454 H 3354.26 -3.71248 -1.42897 0
M  V30 34455 H 3351 -6.54054 -0.435123 0
M  V30 34456 H 3350.52 -5.68319 -1.91765 0
M  V30 34457 H 3352.2 -6.24001 -1.70972 0
M  V30 34458 N 3352.33 0.365999 -1.53291 0
M  V30 34459 C 3353.28 1.46866 -1.80369 0
M  V30 34460 C 3354.27 1.55467 -0.672794 0
M  V30 34461 O 3355.48 1.58358 -0.855728 0
M  V30 34462 H 3351.85 0.48925 -0.571085 0
M  V30 34463 H 3353.82 1.21232 -2.72663 0
M  V30 34464 C 3352.57 2.83706 -2.01013 0
M  V30 34465 H 3351.9 2.77847 -2.87473 0
M  V30 34466 H 3353.34 3.60039 -2.23937 0
M  V30 34467 C 3351.8 3.27528 -0.789111 0
M  V30 34468 O 3352.33 4.01694 0.0224006 0
M  V30 34469 N 3350.53 2.84068 -0.612671 0
M  V30 34470 H 3350.08 2.23879 -1.2742 0
M  V30 34471 H 3350.04 3.13745 0.202887 0
M  V30 34472 N 3353.81 1.44644 0.625774 0
M  V30 34473 C 3355.09 1.38183 1.38437 0
M  V30 34474 C 3355.47 0.0432299 2.11056 0
M  V30 34475 O 3354.81 -0.974347 2.06685 0
M  V30 34476 C 3355.02 2.58356 2.34634 0
M  V30 34477 C 3356.37 3.02654 2.97801 0
M  V30 34478 O 3357.4 2.58599 2.44959 0
M  V30 34479 O 3356.25 3.79054 3.93675 0
M  V30 34480 H 3353.35 0.547471 0.619842 0
M  V30 34481 H 3355.89 1.56742 0.650382 0
M  V30 34482 H 3354.67 3.47385 1.8011 0
M  V30 34483 H 3354.29 2.42038 3.15442 0
M  V30 34484 N 3355.29 -0.866663 1.31631 0
M  V30 34485 C 3356.56 -1.60263 1.12139 0
M  V30 34486 C 3356.94 -2.08619 -0.322692 0
M  V30 34487 O 3356.29 -1.86703 -1.31735 0
M  V30 34488 C 3356.5 -2.75807 2.1385 0
M  V30 34489 C 3357.85 -3.45687 2.46547 0
M  V30 34490 O 3358.87 -2.86018 2.12303 0
M  V30 34491 O 3357.73 -4.53336 3.05202 0
M  V30 34492 H 3354.83 -0.705238 0.431935 0
M  V30 34493 H 3357.37 -0.911838 1.43121 0
M  V30 34494 H 3356.14 -2.37513 3.10972 0
M  V30 34495 H 3355.77 -3.52571 1.83792 0
M  V30 34496 N 3356.77 -1.14645 -1.0814 0
M  V30 34497 C 3358.01 -0.914549 -1.80223 0
M  V30 34498 C 3358.33 0.560236 -1.86779 0
M  V30 34499 O 3357.6 1.40722 -1.36287 0
M  V30 34500 H 3356.18 -0.335367 -0.667486 0
M  V30 34501 H 3358.85 -1.44556 -1.30727 0
M  V30 34502 H 3357.94 -1.3169 -2.82956 0
M  V30 34503 N 3358.24 1.26349 -0.942 0
M  V30 34504 C 3359.47 1.98341 -0.606266 0
M  V30 34505 C 3359.89 1.69672 0.811985 0
M  V30 34506 O 3359.25 0.945228 1.5471 0
M  V30 34507 C 3359.3 3.50295 -0.855926 0
M  V30 34508 O 3358.4 4.12338 0.0715526 0
M  V30 34509 H 3357.74 0.622216 -0.231826 0
M  V30 34510 H 3360.27 1.60795 -1.26516 0
M  V30 34511 H 3360.28 4.0053 -0.777149 0
M  V30 34512 H 3358.96 3.70492 -1.88967 0
M  V30 34513 H 3357.54 3.72854 -0.0583521 0
M  V30 34514 N 3359.72 0.709115 1.40746 0
M  V30 34515 C 3361.14 0.382016 1.54961 0
M  V30 34516 C 3361.34 -1.10982 1.68182 0
M  V30 34517 O 3360.39 -1.89581 1.66779 0
M  V30 34518 C 3361.71 1.14241 2.78154 0
M  V30 34519 C 3363.25 1.12808 2.91965 0
M  V30 34520 C 3363.73 1.87049 4.18063 0
M  V30 34521 N 3365.22 1.84086 4.25049 0
M  V30 34522 C 3365.96 2.38359 5.2151 0
M  V30 34523 N 3365.45 3.0116 6.23919 0
M  V30 34524 N 3367.24 2.28537 5.13544 0
M  V30 34525 H 3359.4 1.67652 1.30409 0
M  V30 34526 H 3361.66 0.708261 0.630135 0
M  V30 34527 H 3361.36 2.19695 2.74639 0
M  V30 34528 H 3361.24 0.729796 3.70073 0
M  V30 34529 H 3363.63 0.0817475 2.94987 0
M  V30 34530 H 3363.71 1.57986 2.01182 0
M  V30 34531 H 3363.35 2.91669 4.15802 0
M  V30 34532 H 3363.28 1.39296 5.07843 0
M  V30 34533 H 3365.77 1.38311 3.5168 0
M  V30 34534 H 3366.08 3.40106 6.93936 0
M  V30 34535 H 3364.43 3.05242 6.24381 0
M  V30 34536 H 3367.62 1.79137 4.32467 0
M  V30 34537 H 3367.79 2.71136 5.88548 0
M  V30 34538 N 3361.2 -1.50894 0.454829 0
M  V30 34539 C 3362.62 -1.59234 0.108065 0
M  V30 34540 C 3362.82 -1.46437 -1.38414 0
M  V30 34541 O 3361.87 -1.31452 -2.15584 0
M  V30 34542 C 3363.18 -2.93728 0.643773 0
M  V30 34543 C 3364.73 -3.07082 0.605757 0
M  V30 34544 C 3365.21 -4.44127 1.11873 0
M  V30 34545 N 3366.7 -4.50494 1.07745 0
M  V30 34546 C 3367.43 -5.54893 1.44505 0
M  V30 34547 N 3366.93 -6.66625 1.88635 0
M  V30 34548 N 3368.72 -5.45347 1.36211 0
M  V30 34549 H 3360.87 -1.57456 1.42553 0
M  V30 34550 H 3363.14 -0.743203 0.588517 0
M  V30 34551 H 3362.84 -3.08517 1.68849 0
M  V30 34552 H 3362.72 -3.77119 0.0783067 0
M  V30 34553 H 3365.1 -2.9195 -0.430013 0
M  V30 34554 H 3365.18 -2.25488 1.20783 0
M  V30 34555 H 3364.83 -4.60006 2.15305 0
M  V30 34556 H 3364.76 -5.24287 0.493025 0
M  V30 34557 H 3367.25 -3.7031 0.753591 0
M  V30 34558 H 3367.56 -7.42326 2.14876 0
M  V30 34559 H 3365.91 -6.67787 1.92576 0
M  V30 34560 H 3369.1 -4.56944 1.01587 0
M  V30 34561 H 3369.27 -6.26592 1.65186 0
M  V30 34562 N 3362.68 -0.186817 -1.56489 0
M  V30 34563 C 3363.93 0.454295 -1.96517 0
M  V30 34564 C 3364.24 1.63331 -1.07621 0
M  V30 34565 O 3365.45 2.34168 -1.37396 0
M  V30 34566 C 3363.9 0.859624 -3.49483 0
M  V30 34567 C 3363.51 -0.294651 -4.4703 0
M  V30 34568 C 3365.25 1.46828 -3.98298 0
M  V30 34569 C 3363.16 0.131175 -5.91255 0
M  V30 34570 H 3362.09 0.173497 -0.733768 0
M  V30 34571 H 3364.74 -0.277517 -1.81389 0
M  V30 34572 H 3363.12 1.64786 -3.60085 0
M  V30 34573 H 3364.3 -1.07212 -4.48154 0
M  V30 34574 H 3362.61 -0.814268 -4.08361 0
M  V30 34575 H 3365.21 1.79919 -5.03521 0
M  V30 34576 H 3365.55 2.3718 -3.42127 0
M  V30 34577 H 3366.09 0.744178 -3.90777 0
M  V30 34578 H 3362.82 -0.737953 -6.51333 0
M  V30 34579 H 3362.34 0.873681 -5.93403 0
M  V30 34580 H 3364.02 0.5698 -6.44486 0
M  V30 34581 N 3364.16 1.57361 0.0868344 0
M  V30 34582 C 3365.38 1.90718 0.802134 0
M  V30 34583 C 3365.8 0.781334 1.71874 0
M  V30 34584 O 3365.16 -0.246223 1.80831 0
M  V30 34585 C 3365.21 3.23742 1.60852 0
M  V30 34586 O 3364.93 4.31996 0.728775 0
M  V30 34587 C 3366.43 3.71016 2.42615 0
M  V30 34588 H 3363.65 0.630749 0.228903 0
M  V30 34589 H 3366.19 2.04407 0.0615981 0
M  V30 34590 H 3364.35 3.11626 2.30148 0
M  V30 34591 H 3364.76 5.08437 1.28811 0
M  V30 34592 H 3366.24 4.66766 2.94675 0
M  V30 34593 H 3366.71 2.9927 3.21456 0
M  V30 34594 H 3367.32 3.86027 1.78503 0
M  V30 34595 N 3365.63 -0.357865 1.53483 0
M  V30 34596 C 3366.88 -1.09703 1.69257 0
M  V30 34597 C 3367.2 -1.90236 0.454921 0
M  V30 34598 O 3368.4 -2.6698 0.493347 0
M  V30 34599 C 3366.86 -1.99956 2.99242 0
M  V30 34600 C 3366.47 -1.24698 4.30296 0
M  V30 34601 C 3368.21 -2.73818 3.24383 0
M  V30 34602 C 3366.12 -2.13898 5.51364 0
M  V30 34603 H 3365.05 -0.413254 0.630664 0
M  V30 34604 H 3367.7 -0.357487 1.79984 0
M  V30 34605 H 3366.08 -2.77672 2.82337 0
M  V30 34606 H 3367.25 -0.519915 4.57858 0
M  V30 34607 H 3365.57 -0.626664 4.11657 0
M  V30 34608 H 3368.17 -3.40797 4.12021 0
M  V30 34609 H 3368.51 -3.39608 2.40775 0
M  V30 34610 H 3369.04 -2.03181 3.41998 0
M  V30 34611 H 3365.78 -1.52673 6.37473 0
M  V30 34612 H 3365.3 -2.84433 5.2807 0
M  V30 34613 H 3366.98 -2.7328 5.86453 0
M  V30 34614 N 3367.11 -1.44974 -0.618094 0
M  V30 34615 C 3368.36 -1.48661 -1.37941 0
M  V30 34616 C 3368.69 -0.123783 -1.93805 0
M  V30 34617 O 3367.97 0.86037 -1.74436 0
M  V30 34618 C 3368.25 -2.55743 -2.5351 0
M  V30 34619 C 3368.1 -4.01431 -2.02911 0
M  V30 34620 C 3369.42 -2.59205 -3.55669 0
M  V30 34621 H 3366.54 -0.541253 -0.500214 0
M  V30 34622 H 3369.18 -1.76726 -0.697709 0
M  V30 34623 H 3367.33 -2.31943 -3.11665 0
M  V30 34624 H 3369 -4.36407 -1.49487 0
M  V30 34625 H 3367.25 -4.12588 -1.33991 0
M  V30 34626 H 3367.92 -4.72026 -2.86173 0
M  V30 34627 H 3370.39 -2.80505 -3.07338 0
M  V30 34628 H 3369.27 -3.36012 -4.34036 0
M  V30 34629 H 3369.53 -1.63895 -4.10598 0
M  V30 34630 N 3368.59 0.85967 -1.32089 0
M  V30 34631 C 3369.5 2.00022 -1.2259 0
M  V30 34632 C 3370.52 1.73432 -0.140507 0
M  V30 34633 O 3371.69 1.98152 -0.360247 0
M  V30 34634 C 3368.76 3.33594 -0.944254 0
M  V30 34635 C 3367.82 3.73439 -2.11759 0
M  V30 34636 C 3367.05 5.00637 -1.84928 0
M  V30 34637 O 3367.27 5.64911 -0.789398 0
M  V30 34638 O 3366.21 5.37494 -2.70895 0
M  V30 34639 H 3370.03 2.1097 -2.18461 0
M  V30 34640 H 3367.62 0.989557 -1.11929 0
M  V30 34641 H 3369.5 4.13669 -0.803462 0
M  V30 34642 H 3368.18 3.23696 -0.0156652 0
M  V30 34643 H 3367.08 2.9396 -2.31383 0
M  V30 34644 H 3368.42 3.87976 -3.02879 0
M  V30 34645 N 3370.07 1.15217 1.0753 0
M  V30 34646 C 3371.02 0.84306 2.16784 0
M  V30 34647 C 3372.01 -0.182772 1.68411 0
M  V30 34648 O 3373.22 -0.0379848 1.7996 0
M  V30 34649 H 3369.59 0.254958 0.707461 0
M  V30 34650 H 3371.56 1.77219 2.40075 0
M  V30 34651 C 3370.31 0.34676 3.45967 0
M  V30 34652 H 3369.63 1.1275 3.83572 0
M  V30 34653 H 3371.07 0.169113 4.23663 0
M  V30 34654 C 3369.53 -0.93138 3.2377 0
M  V30 34655 O 3370.06 -2.0033 3.48182 0
M  V30 34656 N 3368.27 -0.870169 2.77266 0
M  V30 34657 H 3367.82 0.00230751 2.576 0
M  V30 34658 H 3367.77 -1.72589 2.62793 0
M  V30 34659 N 3371.55 -1.25848 0.948687 0
M  V30 34660 C 3372.79 -1.93685 0.601159 0
M  V30 34661 C 3373.13 -1.74181 -0.858749 0
M  V30 34662 O 3372.4 -1.08333 -1.61537 0
M  V30 34663 C 3372.68 -3.4725 0.953391 0
M  V30 34664 C 3372.54 -3.76006 2.46859 0
M  V30 34665 C 3373.86 -4.37538 0.474175 0
M  V30 34666 H 3370.97 -0.703437 0.219876 0
M  V30 34667 H 3373.62 -1.48577 1.18426 0
M  V30 34668 H 3371.77 -3.85801 0.457182 0
M  V30 34669 H 3373.44 -3.47127 3.03811 0
M  V30 34670 H 3371.68 -3.2182 2.90885 0
M  V30 34671 H 3372.35 -4.83376 2.66555 0
M  V30 34672 H 3374.83 -4.06256 0.899736 0
M  V30 34673 H 3373.7 -5.4376 0.749382 0
M  V30 34674 H 3373.97 -4.37647 -0.625884 0
M  V30 34675 N 3373.02 -0.716569 -1.40368 0
M  V30 34676 C 3374.27 -0.255994 -2.00472 0
M  V30 34677 C 3374.59 1.15511 -1.57106 0
M  V30 34678 O 3373.86 1.78326 -0.810956 0
M  V30 34679 H 3372.44 -0.0916557 -0.741356 0
M  V30 34680 H 3375.11 -0.922419 -1.7169 0
M  V30 34681 H 3374.2 -0.289861 -3.10751 0
M  V30 34682 N 3374.5 1.50651 -0.462825 0
M  V30 34683 C 3375.73 2.07181 0.0952362 0
M  V30 34684 C 3376.15 1.32535 1.33476 0
M  V30 34685 O 3375.51 0.370596 1.77472 0
M  V30 34686 C 3375.56 3.58691 0.370529 0
M  V30 34687 O 3374.66 3.85973 1.45253 0
M  V30 34688 H 3374 0.663934 -0.00933869 0
M  V30 34689 H 3376.53 1.9395 -0.651492 0
M  V30 34690 H 3376.54 4.03361 0.61348 0
M  V30 34691 H 3375.22 4.12441 -0.535291 0
M  V30 34692 H 3373.8 3.53148 1.19754 0
M  V30 34693 N 3375.98 0.195113 1.56388 0
M  V30 34694 C 3377.23 -0.444309 1.97873 0
M  V30 34695 C 3377.56 -1.61269 1.08193 0
M  V30 34696 O 3376.83 -1.94038 0.133938 0
M  V30 34697 C 3377.12 -0.904429 3.48557 0
M  V30 34698 C 3376.97 0.265772 4.49014 0
M  V30 34699 C 3378.29 -1.76992 4.02941 0
M  V30 34700 H 3375.41 -0.160029 0.719416 0
M  V30 34701 H 3378.05 0.286038 1.87835 0
M  V30 34702 H 3376.2 -1.52676 3.57243 0
M  V30 34703 H 3377.87 0.903442 4.52367 0
M  V30 34704 H 3376.12 0.917536 4.23986 0
M  V30 34705 H 3376.79 -0.0986864 5.51912 0
M  V30 34706 H 3379.26 -1.24507 3.97036 0
M  V30 34707 H 3378.14 -2.06083 5.08745 0
M  V30 34708 H 3378.4 -2.72412 3.48202 0
M  V30 34709 N 3377.46 -1.57404 -0.0784879 0
M  V30 34710 C 3378.37 -2.06572 -1.11199 0
M  V30 34711 C 3379.38 -0.993897 -1.4282 0
M  V30 34712 O 3380.56 -1.30817 -1.53131 0
M  V30 34713 C 3377.63 -2.49425 -2.40808 0
M  V30 34714 C 3376.69 -3.70875 -2.16218 0
M  V30 34715 C 3375.92 -4.11674 -3.39647 0
M  V30 34716 O 3376.14 -3.52407 -4.48514 0
M  V30 34717 O 3375.08 -5.04512 -3.28254 0
M  V30 34718 H 3378.9 -2.94936 -0.724329 0
M  V30 34719 H 3376.49 -1.46516 -0.292158 0
M  V30 34720 H 3378.37 -2.77539 -3.17096 0
M  V30 34721 H 3377.04 -1.64192 -2.78967 0
M  V30 34722 H 3375.95 -3.47853 -1.37657 0
M  V30 34723 H 3377.28 -4.56938 -1.82943 0
M  V30 34724 N 3378.94 0.34972 -1.53671 0
M  V30 34725 C 3380.18 1.0885 -1.70283 0
M  V30 34726 C 3380.51 1.89363 -0.465471 0
M  V30 34727 O 3379.78 1.88856 0.520582 0
M  V30 34728 H 3378.36 0.404843 -0.627783 0
M  V30 34729 H 3381.02 0.392489 -1.90907 0
M  V30 34730 H 3380.11 1.76937 -2.57099 0
M  V30 34731 N 3380.41 1.45299 0.610397 0
M  V30 34732 C 3381.34 1.56597 1.73204 0
M  V30 34733 C 3382.33 0.41768 1.64892 0
M  V30 34734 O 3383.51 0.640462 1.83335 0
M  V30 34735 C 3380.64 1.52964 3.118 0
M  V30 34736 C 3379.59 2.66481 3.3492 0
M  V30 34737 C 3378.92 2.47902 4.7376 0
M  V30 34738 C 3380.22 4.0851 3.25449 0
M  V30 34739 H 3381.91 2.50484 1.64006 0
M  V30 34740 H 3379.46 1.20552 0.7876 0
M  V30 34741 H 3381.41 1.59465 3.90063 0
M  V30 34742 H 3380.14 0.556046 3.21832 0
M  V30 34743 H 3378.8 2.59404 2.59047 0
M  V30 34744 H 3378.44 1.48688 4.80521 0
M  V30 34745 H 3378.14 3.24025 4.90185 0
M  V30 34746 H 3379.67 2.56253 5.54226 0
M  V30 34747 H 3381.08 4.16846 3.93589 0
M  V30 34748 H 3379.48 4.85 3.53405 0
M  V30 34749 H 3380.55 4.30615 2.22931 0
M  V30 34750 N 3381.89 -0.852653 1.32543 0
M  V30 34751 C 3382.86 -1.94295 1.21581 0
M  V30 34752 C 3383.86 -1.60204 0.138346 0
M  V30 34753 O 3385.05 -1.69804 0.388894 0
M  V30 34754 C 3382.18 -3.29605 0.870267 0
M  V30 34755 H 3383.37 -2.05442 2.1848 0
M  V30 34756 H 3380.92 -1.04308 1.16403 0
M  V30 34757 H 3381.66 -3.24155 -0.0968128 0
M  V30 34758 H 3381.44 -3.55725 1.6493 0
M  V30 34759 H 3382.93 -4.09511 0.817946 0
M  V30 34760 N 3383.37 -1.15786 -1.06918 0
M  V30 34761 C 3384.6 -0.958063 -1.83043 0
M  V30 34762 C 3385.01 0.496995 -1.82556 0
M  V30 34763 O 3384.35 1.35657 -1.23866 0
M  V30 34764 C 3384.41 -1.40062 -3.31094 0
M  V30 34765 C 3384.08 -2.87429 -3.55294 0
M  V30 34766 C 3385.07 -3.8547 -3.48869 0
M  V30 34767 C 3382.76 -3.25201 -3.82818 0
M  V30 34768 C 3384.75 -5.19285 -3.69624 0
M  V30 34769 C 3382.44 -4.59188 -4.03224 0
M  V30 34770 C 3383.44 -5.56039 -3.96623 0
M  V30 34771 O 3383.13 -6.87605 -4.16479 0
M  V30 34772 H 3382.86 -0.340106 -0.584212 0
M  V30 34773 H 3385.41 -1.54069 -1.35838 0
M  V30 34774 H 3383.64 -0.761428 -3.79129 0
M  V30 34775 H 3385.33 -1.16923 -3.88695 0
M  V30 34776 H 3386.1 -3.57634 -3.27601 0
M  V30 34777 H 3381.98 -2.50398 -3.87068 0
M  V30 34778 H 3385.52 -5.94868 -3.64387 0
M  V30 34779 H 3381.42 -4.86736 -4.23979 0
M  V30 34780 H 3382.19 -6.94087 -4.33803 0
M  V30 34781 N 3384.85 1.25343 -0.955348 0
M  V30 34782 C 3385.8 2.23579 -0.446831 0
M  V30 34783 C 3386.78 1.54055 0.464327 0
M  V30 34784 O 3387.97 1.74486 0.297263 0
M  V30 34785 C 3385.1 3.42209 0.273473 0
M  V30 34786 C 3384.19 4.18999 -0.655796 0
M  V30 34787 N 3384.58 4.73153 -1.78774 0
M  V30 34788 C 3382.88 4.43578 -0.464137 0
M  V30 34789 C 3383.58 5.3132 -2.36799 0
M  V30 34790 N 3382.56 5.17812 -1.65444 0
M  V30 34791 H 3386.36 2.63055 -1.3107 0
M  V30 34792 H 3383.87 1.40589 -0.812923 0
M  V30 34793 H 3385.87 4.11724 0.654913 0
M  V30 34794 H 3384.53 3.04256 1.13394 0
M  V30 34795 H 3385.54 4.70265 -2.16959 0
M  V30 34796 H 3382.22 4.16002 0.353386 0
M  V30 34797 H 3383.61 5.84002 -3.32252 0
M  V30 34798 N 3386.33 0.724003 1.39986 0
M  V30 34799 C 3387.74 0.39843 1.54547 0
M  V30 34800 C 3387.94 -1.09192 1.6935 0
M  V30 34801 O 3387 -1.87801 1.68781 0
M  V30 34802 C 3388.31 1.17184 2.76927 0
M  V30 34803 C 3389.86 1.15898 2.90752 0
M  V30 34804 C 3390.34 1.91473 4.16056 0
M  V30 34805 N 3391.83 1.88583 4.23073 0
M  V30 34806 C 3392.56 2.43877 5.18953 0
M  V30 34807 N 3392.06 3.07761 6.20689 0
M  V30 34808 N 3393.85 2.33971 5.11091 0
M  V30 34809 H 3386 1.69026 1.28624 0
M  V30 34810 H 3388.26 0.714905 0.622587 0
M  V30 34811 H 3387.97 2.22596 2.72294 0
M  V30 34812 H 3387.84 0.769006 3.69278 0
M  V30 34813 H 3390.23 0.11303 2.94883 0
M  V30 34814 H 3390.31 1.60111 1.99495 0
M  V30 34815 H 3389.96 2.96063 4.12686 0
M  V30 34816 H 3389.89 1.44674 5.06337 0
M  V30 34817 H 3392.38 1.42033 3.50193 0
M  V30 34818 H 3392.69 3.47447 6.9029 0
M  V30 34819 H 3391.04 3.11847 6.21109 0
M  V30 34820 H 3394.23 1.83714 4.30543 0
M  V30 34821 H 3394.4 2.77363 5.85639 0
M  V30 34822 N 3387.81 -1.50403 0.470808 0
M  V30 34823 C 3389.05 -2.01925 -0.0841139 0
M  V30 34824 C 3389.37 -1.35489 -1.40242 0
M  V30 34825 O 3388.64 -0.500145 -1.89408 0
M  V30 34826 H 3387.22 -0.746222 -0.0340753 0
M  V30 34827 H 3389.89 -1.84736 0.621165 0
M  V30 34828 H 3388.98 -3.11208 -0.235822 0
M  V30 34829 N 3389.28 -0.203404 -1.56282 0
M  V30 34830 C 3390.53 0.427141 -1.98864 0
M  V30 34831 C 3390.88 1.58662 -1.08831 0
M  V30 34832 O 3390.18 1.91128 -0.134432 0
M  V30 34833 C 3390.37 0.927699 -3.4515 0
M  V30 34834 C 3390.2 -0.181739 -4.49333 0
M  V30 34835 C 3388.97 -0.642134 -5.01203 0
M  V30 34836 C 3391.17 -0.993637 -5.0461 0
M  V30 34837 N 3389.15 -1.72853 -5.89063 0
M  V30 34838 C 3390.52 -1.92926 -5.8922 0
M  V30 34839 C 3392.58 -1.03512 -4.87021 0
M  V30 34840 C 3391.28 -2.90294 -6.5812 0
M  V30 34841 C 3393.31 -1.99689 -5.56667 0
M  V30 34842 C 3392.67 -2.91994 -6.4103 0
M  V30 34843 H 3388.77 0.123487 -0.772188 0
M  V30 34844 H 3391.35 -0.311008 -1.922 0
M  V30 34845 H 3389.52 1.63526 -3.52298 0
M  V30 34846 H 3391.25 1.52954 -3.74683 0
M  V30 34847 H 3388.01 -0.233978 -4.73022 0
M  V30 34848 H 3388.43 -2.27317 -6.37696 0
M  V30 34849 H 3393.07 -0.335453 -4.21467 0
M  V30 34850 H 3390.79 -3.61232 -7.22867 0
M  V30 34851 H 3394.38 -2.0355 -5.45031 0
M  V30 34852 H 3393.26 -3.65201 -6.93972 0
M  V30 34853 N 3390.76 1.57444 0.0701393 0
M  V30 34854 C 3392.04 1.78399 0.802076 0
M  V30 34855 C 3392.42 0.791391 1.95704 0
M  V30 34856 O 3391.77 -0.17514 2.27828 0
M  V30 34857 C 3391.98 3.24936 1.27348 0
M  V30 34858 C 3393.32 3.88811 1.70619 0
M  V30 34859 O 3394.35 3.28837 1.36911 0
M  V30 34860 O 3393.21 4.94326 2.33033 0
M  V30 34861 H 3390.3 0.732196 0.384471 0
M  V30 34862 H 3392.85 1.69626 0.050087 0
M  V30 34863 H 3391.62 3.88737 0.447135 0
M  V30 34864 H 3391.24 3.38439 2.08674 0
M  V30 34865 N 3392.24 -0.341566 1.53854 0
M  V30 34866 C 3393.47 -1.10159 1.75136 0
M  V30 34867 C 3393.88 -1.82292 0.491447 0
M  V30 34868 O 3393.24 -1.74421 -0.536999 0
M  V30 34869 C 3393.29 -2.11355 2.93277 0
M  V30 34870 O 3393.01 -1.42155 4.14395 0
M  V30 34871 C 3394.51 -2.99717 3.26626 0
M  V30 34872 H 3391.73 -0.328423 0.585132 0
M  V30 34873 H 3394.28 -0.393169 2.00685 0
M  V30 34874 H 3392.43 -2.77759 2.70053 0
M  V30 34875 H 3392.85 -2.09774 4.80723 0
M  V30 34876 H 3394.32 -3.66655 4.12636 0
M  V30 34877 H 3394.8 -3.65843 2.43014 0
M  V30 34878 H 3395.4 -2.38899 3.51862 0
M  V30 34879 N 3393.72 -1.45621 -0.602683 0
M  V30 34880 C 3394.65 -1.57513 -1.72371 0
M  V30 34881 C 3395.63 -0.426418 -1.64668 0
M  V30 34882 O 3396.81 -0.650176 -1.82993 0
M  V30 34883 C 3393.94 -1.54615 -3.10984 0
M  V30 34884 C 3392.9 -2.68254 -3.33502 0
M  V30 34885 C 3392.22 -2.50411 -4.72439 0
M  V30 34886 C 3393.52 -4.1023 -3.23278 0
M  V30 34887 H 3395.22 -2.51351 -1.62675 0
M  V30 34888 H 3392.76 -1.20968 -0.781196 0
M  V30 34889 H 3394.72 -1.61532 -3.89211 0
M  V30 34890 H 3393.44 -0.573106 -3.21532 0
M  V30 34891 H 3392.1 -2.60774 -2.57668 0
M  V30 34892 H 3391.75 -1.51234 -4.79726 0
M  V30 34893 H 3391.45 -3.2662 -4.8846 0
M  V30 34894 H 3392.97 -2.59189 -5.52859 0
M  V30 34895 H 3394.39 -4.18927 -3.91373 0
M  V30 34896 H 3392.78 -4.86867 -3.50828 0
M  V30 34897 H 3393.85 -4.31792 -2.20644 0
M  V30 34898 N 3395.2 0.845612 -1.32993 0
M  V30 34899 C 3396.43 1.63029 -1.26906 0
M  V30 34900 C 3396.83 1.88492 0.163556 0
M  V30 34901 O 3396.18 1.46068 1.114 0
M  V30 34902 C 3396.24 3.00817 -1.96848 0
M  V30 34903 C 3395.9 2.98356 -3.46169 0
M  V30 34904 C 3396.9 2.74554 -4.41493 0
M  V30 34905 C 3394.58 3.18705 -3.88243 0
M  V30 34906 C 3396.58 2.71119 -5.76865 0
M  V30 34907 C 3394.27 3.14896 -5.23721 0
M  V30 34908 C 3395.26 2.91133 -6.17843 0
M  V30 34909 O 3394.95 2.87215 -7.50842 0
M  V30 34910 H 3394.68 0.514215 -0.438815 0
M  V30 34911 H 3397.24 1.06193 -1.75819 0
M  V30 34912 H 3395.47 3.5948 -1.42517 0
M  V30 34913 H 3397.16 3.61621 -1.8435 0
M  V30 34914 H 3397.92 2.5859 -4.10312 0
M  V30 34915 H 3393.8 3.36224 -3.15396 0
M  V30 34916 H 3397.35 2.52491 -6.50303 0
M  V30 34917 H 3393.24 3.30407 -5.54528 0
M  V30 34918 H 3394.01 3.03105 -7.60309 0
M  V30 34919 N 3396.67 1.16351 1.06302 0
M  V30 34920 C 3397.92 0.95636 1.79514 0
M  V30 34921 C 3398.27 -0.510405 1.85506 0
M  V30 34922 O 3397.57 -1.37378 1.33558 0
M  V30 34923 C 3397.76 1.51746 3.23586 0
M  V30 34924 C 3397.59 3.03726 3.31633 0
M  V30 34925 C 3396.36 3.72366 3.41573 0
M  V30 34926 C 3398.56 4.01423 3.21503 0
M  V30 34927 N 3396.54 5.12055 3.38634 0
M  V30 34928 C 3397.91 5.27495 3.25805 0
M  V30 34929 C 3399.97 3.93247 3.05387 0
M  V30 34930 C 3398.67 6.46342 3.15649 0
M  V30 34931 C 3400.7 5.11665 2.96568 0
M  V30 34932 C 3400.06 6.36617 3.01493 0
M  V30 34933 H 3396.16 0.403731 0.66972 0
M  V30 34934 H 3398.74 1.47743 1.26808 0
M  V30 34935 H 3396.91 1.02289 3.74689 0
M  V30 34936 H 3398.64 1.24806 3.84975 0
M  V30 34937 H 3395.4 3.22998 3.46366 0
M  V30 34938 H 3395.82 5.85044 3.40664 0
M  V30 34939 H 3400.46 2.97497 3.00425 0
M  V30 34940 H 3398.18 7.42314 3.19367 0
M  V30 34941 H 3401.77 5.0711 2.85186 0
M  V30 34942 H 3400.65 7.26709 2.94727 0
M  V30 34943 N 3398.15 -1.24835 0.961982 0
M  V30 34944 C 3399.38 -1.96812 0.638174 0
M  V30 34945 C 3399.79 -1.7142 -0.791239 0
M  V30 34946 O 3399.15 -0.994573 -1.53018 0
M  V30 34947 C 3399.2 -3.50212 0.896322 0
M  V30 34948 O 3398.92 -3.74731 2.26954 0
M  V30 34949 C 3400.42 -4.39411 0.585913 0
M  V30 34950 H 3397.64 -0.627142 0.238609 0
M  V30 34951 H 3400.19 -1.58813 1.28836 0
M  V30 34952 H 3398.34 -3.86295 0.292436 0
M  V30 34953 H 3398.76 -4.69148 2.34522 0
M  V30 34954 H 3400.23 -5.4592 0.817031 0
M  V30 34955 H 3400.71 -4.36572 -0.479708 0
M  V30 34956 H 3401.31 -4.08906 1.16945 0
M  V30 34957 N 3399.63 -0.731417 -1.396 0
M  V30 34958 C 3400.85 -0.286568 -2.05411 0
M  V30 34959 C 3401.28 1.06889 -1.54778 0
M  V30 34960 O 3400.64 1.67658 -0.689971 0
M  V30 34961 C 3400.69 -0.293977 -3.594 0
M  V30 34962 O 3399.79 0.719586 -4.06074 0
M  V30 34963 H 3399.13 -0.131015 -0.650946 0
M  V30 34964 H 3401.66 -0.996337 -1.78702 0
M  V30 34965 H 3401.67 -0.137123 -4.0777 0
M  V30 34966 H 3400.35 -1.28305 -3.95614 0
M  V30 34967 H 3398.92 0.529162 -3.69126 0
M  V30 34968 N 3401.11 1.50152 -0.478778 0
M  V30 34969 C 3402.34 2.06478 0.0709092 0
M  V30 34970 C 3402.75 1.34195 1.33373 0
M  V30 34971 O 3402.09 0.407102 1.79132 0
M  V30 34972 C 3402.15 3.5707 0.417259 0
M  V30 34973 C 3401.82 4.50893 -0.744643 0
M  V30 34974 C 3402.81 4.93724 -1.62887 0
M  V30 34975 C 3400.5 4.9348 -0.937149 0
M  V30 34976 C 3402.49 5.77859 -2.68995 0
M  V30 34977 C 3400.18 5.77396 -2.00144 0
M  V30 34978 C 3401.18 6.19487 -2.8762 0
M  V30 34979 O 3400.86 7.01728 -3.92215 0
M  V30 34980 H 3400.6 0.675962 -0.00721365 0
M  V30 34981 H 3403.15 1.94206 -0.668831 0
M  V30 34982 H 3401.38 3.67272 1.21029 0
M  V30 34983 H 3403.07 3.9573 0.902932 0
M  V30 34984 H 3403.84 4.61485 -1.49187 0
M  V30 34985 H 3399.71 4.60234 -0.265717 0
M  V30 34986 H 3403.26 6.10633 -3.37303 0
M  V30 34987 H 3399.16 6.09048 -2.13848 0
M  V30 34988 H 3399.92 7.19993 -3.89297 0
M  V30 34989 N 3402.59 0.211689 1.56172 0
M  V30 34990 C 3403.81 -0.427807 2.02429 0
M  V30 34991 C 3404.23 -1.54041 1.09165 0
M  V30 34992 O 3403.59 -1.82229 0.0994569 0
M  V30 34993 C 3403.64 -0.968666 3.4828 0
M  V30 34994 O 3403.36 0.0995611 4.37987 0
M  V30 34995 C 3404.86 -1.68239 4.10135 0
M  V30 34996 H 3402.08 -0.105758 0.662613 0
M  V30 34997 H 3404.62 0.325256 2.01897 0
M  V30 34998 H 3402.78 -1.67204 3.49459 0
M  V30 34999 H 3403.19 -0.305466 5.2361 0
M  V30 35000 H 3404.67 -2.01295 5.13989 0
M  V30 35001 H 3405.14 -2.59204 3.54556 0
M  V30 35002 H 3405.75 -1.02446 4.12777 0
M  V30 35003 N 3404.06 -1.57479 -0.0617887 0
M  V30 35004 C 3405.29 -1.9197 -0.771691 0
M  V30 35005 C 3405.71 -0.808579 -1.70609 0
M  V30 35006 O 3405.06 0.217423 -1.812 0
M  V30 35007 C 3405.12 -3.2626 -1.55681 0
M  V30 35008 O 3404.84 -4.33101 -0.659956 0
M  V30 35009 C 3406.34 -3.74829 -2.36682 0
M  V30 35010 H 3403.56 -0.634311 -0.218839 0
M  V30 35011 H 3406.1 -2.04479 -0.0290709 0
M  V30 35012 H 3404.26 -3.15248 -2.25161 0
M  V30 35013 H 3404.67 -5.10422 -1.20706 0
M  V30 35014 H 3406.14 -4.71395 -2.87212 0
M  V30 35015 H 3406.62 -3.04346 -3.16655 0
M  V30 35016 H 3407.23 -3.88818 -1.72339 0
M  V30 35017 N 3405.54 0.333401 -1.54033 0
M  V30 35018 C 3406.77 1.09668 -1.76033 0
M  V30 35019 C 3407.19 1.81253 -0.502876 0
M  V30 35020 O 3406.55 1.72913 0.54506 0
M  V30 35021 C 3406.6 2.07804 -2.94703 0
M  V30 35022 O 3405.7 3.15517 -2.65561 0
M  V30 35023 H 3405.04 0.316682 -0.583617 0
M  V30 35024 H 3407.57 0.380697 -2.01027 0
M  V30 35025 H 3407.58 2.50847 -3.21776 0
M  V30 35026 H 3406.26 1.551 -3.85898 0
M  V30 35027 H 3404.84 2.77219 -2.49407 0
M  V30 35028 N 3407.02 1.45939 0.594952 0
M  V30 35029 C 3408.25 1.54162 1.37991 0
M  V30 35030 C 3408.66 0.178513 1.87954 0
M  V30 35031 O 3408.02 -0.822133 1.62933 0
M  V30 35032 C 3408.07 2.53642 2.57581 0
M  V30 35033 O 3407.79 3.84657 2.09692 0
M  V30 35034 C 3409.29 2.71687 3.50287 0
M  V30 35035 H 3406.51 0.521708 0.421974 0
M  V30 35036 H 3409.06 1.91239 0.724425 0
M  V30 35037 H 3407.21 2.19603 3.19145 0
M  V30 35038 H 3407.63 4.38695 2.87484 0
M  V30 35039 H 3409.1 3.45242 4.30711 0
M  V30 35040 H 3409.58 1.78163 4.01441 0
M  V30 35041 H 3410.18 3.06773 2.94568 0
M  V30 35042 N 3408.5 -0.838547 1.3344 0
M  V30 35043 C 3409.75 -1.58877 1.24262 0
M  V30 35044 C 3410.06 -1.94676 -0.189923 0
M  V30 35045 O 3411.27 -2.68482 -0.403713 0
M  V30 35046 C 3409.72 -2.86565 2.17735 0
M  V30 35047 C 3409.33 -2.58129 3.66161 0
M  V30 35048 C 3411.07 -3.64588 2.17431 0
M  V30 35049 C 3408.98 -3.81915 4.51547 0
M  V30 35050 H 3407.91 -0.596232 0.461545 0
M  V30 35051 H 3410.56 -0.92456 1.58506 0
M  V30 35052 H 3408.94 -3.54529 1.76424 0
M  V30 35053 H 3410.12 -1.98375 4.15914 0
M  V30 35054 H 3408.43 -1.93409 3.68757 0
M  V30 35055 H 3411.03 -4.56473 2.78454 0
M  V30 35056 H 3411.37 -3.99536 1.16946 0
M  V30 35057 H 3411.91 -3.03549 2.57105 0
M  V30 35058 H 3408.65 -3.52098 5.52908 0
M  V30 35059 H 3408.17 -4.41008 4.06537 0
M  V30 35060 H 3409.84 -4.49492 4.65367 0
M  V30 35061 N 3409.98 -1.16914 -1.05683 0
M  V30 35062 C 3411.2 -0.978843 -1.82281 0
M  V30 35063 C 3411.62 0.47294 -1.82781 0
M  V30 35064 O 3410.98 1.32834 -1.25145 0
M  V30 35065 C 3411.03 -1.50635 -3.2862 0
M  V30 35066 O 3410.75 -2.90128 -3.28264 0
M  V30 35067 C 3412.25 -1.35995 -4.21925 0
M  V30 35068 H 3409.47 -0.346599 -0.574552 0
M  V30 35069 H 3412.01 -1.55086 -1.33299 0
M  V30 35070 H 3410.17 -0.97647 -3.74892 0
M  V30 35071 H 3410.58 -3.14408 -4.19819 0
M  V30 35072 H 3412.06 -1.77725 -5.22607 0
M  V30 35073 H 3412.53 -0.306337 -4.3813 0
M  V30 35074 H 3413.14 -1.87974 -3.81505 0
M  V30 35075 N 3411.45 1.24323 -0.968589 0
M  V30 35076 C 3412.87 1.44611 -0.675265 0
M  V30 35077 C 3413.07 1.86511 0.762608 0
M  V30 35078 O 3412.13 2.00377 1.5364 0
M  V30 35079 C 3413.44 2.5072 -1.66012 0
M  V30 35080 C 3414.99 2.64547 -1.67284 0
M  V30 35081 C 3415.46 3.73854 -2.64569 0
M  V30 35082 N 3416.95 3.81283 -2.63017 0
M  V30 35083 C 3417.69 4.65388 -3.34965 0
M  V30 35084 N 3417.18 5.53674 -4.16434 0
M  V30 35085 N 3418.98 4.59477 -3.23786 0
M  V30 35086 H 3411.13 0.954224 -1.89759 0
M  V30 35087 H 3413.39 0.480827 -0.817013 0
M  V30 35088 H 3413.1 2.26823 -2.68783 0
M  V30 35089 H 3412.97 3.48895 -1.43359 0
M  V30 35090 H 3415.36 2.87802 -0.652235 0
M  V30 35091 H 3415.44 1.66726 -1.94 0
M  V30 35092 H 3415.08 3.51349 -3.66765 0
M  V30 35093 H 3415.01 4.7119 -2.35133 0
M  V30 35094 H 3417.5 3.18183 -2.03883 0
M  V30 35095 H 3417.82 6.1481 -4.68218 0
M  V30 35096 H 3416.16 5.53336 -4.20528 0
M  V30 35097 H 3419.35 3.89519 -2.596 0
M  V30 35098 H 3419.53 5.24797 -3.80121 0
M  V30 35099 N 3412.93 0.73881 1.3921 0
M  V30 35100 C 3413.88 0.0773187 2.27869 0
M  V30 35101 C 3414.87 -0.708658 1.44454 0
M  V30 35102 O 3416.06 -0.577041 1.6733 0
M  V30 35103 C 3413.19 -0.826306 3.33207 0
M  V30 35104 C 3412.27 -0.0342744 4.24086 0
M  V30 35105 N 3412.66 0.994548 4.95926 0
M  V30 35106 C 3410.96 -0.263351 4.45222 0
M  V30 35107 C 3411.66 1.47248 5.62755 0
M  V30 35108 N 3410.64 0.7904 5.37823 0
M  V30 35109 H 3414.44 0.865496 2.80867 0
M  V30 35110 H 3411.96 0.573489 1.51937 0
M  V30 35111 H 3413.95 -1.31571 3.95594 0
M  V30 35112 H 3412.61 -1.6136 2.81768 0
M  V30 35113 H 3413.62 1.376 4.99286 0
M  V30 35114 H 3410.3 -1.02515 4.04718 0
M  V30 35115 H 3411.69 2.32864 6.30257 0
M  V30 35116 N 3414.41 -1.49895 0.486734 0
M  V30 35117 C 3415.64 -2.06813 -0.0600452 0
M  V30 35118 C 3416.05 -1.34879 -1.3211 0
M  V30 35119 O 3415.41 -0.422757 -1.77536 0
M  V30 35120 C 3415.46 -3.5997 -0.332203 0
M  V30 35121 O 3415.18 -4.29194 0.878847 0
M  V30 35122 C 3416.68 -4.33559 -0.924213 0
M  V30 35123 H 3413.9 -0.670852 0.0140729 0
M  V30 35124 H 3416.45 -1.92863 0.680004 0
M  V30 35125 H 3414.6 -3.73671 -1.02221 0
M  V30 35126 H 3415.02 -5.20667 0.632965 0
M  V30 35127 H 3416.49 -5.41642 -1.06431 0
M  V30 35128 H 3416.97 -3.95089 -1.91837 0
M  V30 35129 H 3417.57 -4.24429 -0.272114 0
M  V30 35130 N 3415.89 -0.219968 -1.56057 0
M  V30 35131 C 3417.14 0.412773 -1.98555 0
M  V30 35132 C 3417.47 1.59528 -1.10745 0
M  V30 35133 O 3416.74 1.93801 -0.164791 0
M  V30 35134 C 3417.03 0.848862 -3.49952 0
M  V30 35135 C 3416.88 -0.337172 -4.48534 0
M  V30 35136 C 3418.2 1.70559 -4.05706 0
M  V30 35137 H 3415.32 0.148563 -0.721871 0
M  V30 35138 H 3417.96 -0.315885 -1.87356 0
M  V30 35139 H 3416.11 1.46973 -3.59626 0
M  V30 35140 H 3417.78 -0.975295 -4.50872 0
M  V30 35141 H 3416.02 -0.984873 -4.22472 0
M  V30 35142 H 3416.7 0.0108695 -5.51999 0
M  V30 35143 H 3419.17 1.18175 -3.98966 0
M  V30 35144 H 3418.05 1.97963 -5.11959 0
M  V30 35145 H 3418.31 2.66838 -3.52491 0
M  V30 35146 N 3417.37 1.57509 0.0534363 0
M  V30 35147 C 3418.64 1.79239 0.78311 0
M  V30 35148 C 3419.02 0.812103 1.94854 0
M  V30 35149 O 3418.37 -0.150966 2.28001 0
M  V30 35150 C 3418.58 3.26268 1.23895 0
M  V30 35151 C 3419.93 3.90599 1.66485 0
M  V30 35152 O 3420.95 3.30271 1.33415 0
M  V30 35153 O 3419.81 4.9677 2.27777 0
M  V30 35154 H 3416.91 0.736233 0.376683 0
M  V30 35155 H 3419.45 1.6967 0.0320931 0
M  V30 35156 H 3418.23 3.89189 0.405879 0
M  V30 35157 H 3417.85 3.40633 2.05072 0
M  V30 35158 N 3418.85 -0.325228 1.54208 0
M  V30 35159 C 3419.78 -1.42124 1.79815 0
M  V30 35160 C 3420.79 -1.47916 0.680056 0
M  V30 35161 O 3421.98 -1.50669 0.957134 0
M  V30 35162 C 3419.08 -2.80671 1.8994 0
M  V30 35163 C 3418.25 -2.98103 3.20084 0
M  V30 35164 C 3417.31 -4.17 3.20932 0
M  V30 35165 O 3416.34 -4.1024 3.94578 0
M  V30 35166 N 3417.54 -5.26453 2.44597 0
M  V30 35167 H 3420.3 -1.20522 2.74398 0
M  V30 35168 H 3417.87 -0.515206 1.53484 0
M  V30 35169 H 3419.86 -3.58416 1.87937 0
M  V30 35170 H 3418.43 -2.95331 1.0246 0
M  V30 35171 H 3417.65 -2.07673 3.35061 0
M  V30 35172 H 3418.94 -3.06644 4.06013 0
M  V30 35173 H 3418.33 -5.3482 1.84349 0
M  V30 35174 H 3416.89 -6.02623 2.48373 0
M  V30 35175 N 3420.32 -1.46252 -0.587204 0
M  V30 35176 C 3421.55 -1.54892 -1.37172 0
M  V30 35177 C 3421.97 -0.188478 -1.87857 0
M  V30 35178 O 3421.32 0.81348 -1.63367 0
M  V30 35179 C 3421.37 -2.55004 -2.56232 0
M  V30 35180 O 3421.1 -3.85764 -2.07649 0
M  V30 35181 C 3422.6 -2.73541 -3.48841 0
M  V30 35182 H 3419.82 -0.523938 -0.419201 0
M  V30 35183 H 3422.36 -1.9162 -0.714273 0
M  V30 35184 H 3420.52 -2.21292 -3.17976 0
M  V30 35185 H 3420.93 -4.40213 -2.85153 0
M  V30 35186 H 3422.4 -3.47521 -4.28874 0
M  V30 35187 H 3422.88 -1.80289 -4.0049 0
M  V30 35188 H 3423.49 -3.08331 -2.92937 0
M  V30 35189 N 3421.8 0.831459 -1.33883 0
M  V30 35190 C 3423.22 1.12328 -1.13378 0
M  V30 35191 C 3423.42 2.01377 0.0704048 0
M  V30 35192 O 3422.47 2.41152 0.748474 0
M  V30 35193 C 3423.79 1.77822 -2.42487 0
M  V30 35194 C 3425.33 1.90355 -2.48463 0
M  V30 35195 C 3425.81 2.59265 -3.77552 0
M  V30 35196 N 3427.3 2.66772 -3.78665 0
M  V30 35197 C 3428.04 3.20799 -4.75264 0
M  V30 35198 N 3427.53 3.75456 -5.82241 0
M  V30 35199 N 3429.32 3.1912 -4.6273 0
M  V30 35200 H 3421.48 0.238961 -2.11052 0
M  V30 35201 H 3423.74 0.168548 -0.932896 0
M  V30 35202 H 3423.44 1.19851 -3.30649 0
M  V30 35203 H 3423.32 2.77773 -2.5519 0
M  V30 35204 H 3425.71 2.47477 -1.60746 0
M  V30 35205 H 3425.79 0.893317 -2.39695 0
M  V30 35206 H 3425.43 2.028 -4.65655 0
M  V30 35207 H 3425.36 3.60775 -3.836 0
M  V30 35208 H 3427.85 2.28021 -3.01355 0
M  V30 35209 H 3428.16 4.14907 -6.51976 0
M  V30 35210 H 3426.51 3.73723 -5.85966 0
M  V30 35211 H 3429.7 2.75682 -3.78308 0
M  V30 35212 H 3429.87 3.60922 -5.38181 0
M  V30 35213 N 3423.28 1.17472 1.05062 0
M  V30 35214 C 3424.69 0.969656 1.59545 0
M  V30 35215 C 3425.04 -0.483298 1.90154 0
M  V30 35216 O 3424.17 -1.35884 1.68418 0
M  V30 35217 C 3424.76 1.75382 2.89874 0
M  V30 35218 C 3423.32 1.59338 3.41011 0
M  V30 35219 C 3422.47 1.75464 2.14727 0
M  V30 35220 H 3425.42 1.32162 0.878572 0
M  V30 35221 H 3425.44 1.23697 3.59832 0
M  V30 35222 H 3424.95 2.81125 2.67564 0
M  V30 35223 H 3423.05 0.560891 3.68354 0
M  V30 35224 H 3423.17 2.38516 4.15508 0
M  V30 35225 H 3421.53 1.18317 2.25551 0
M  V30 35226 H 3422.31 2.82621 1.94885 0
M  V30 35227 N 3424.76 -1.23807 0.975168 0
M  V30 35228 C 3426.01 -1.91702 0.639891 0
M  V30 35229 C 3426.33 -1.76523 -0.828526 0
M  V30 35230 O 3425.6 -1.14137 -1.59215 0
M  V30 35231 H 3424.18 -0.709509 0.23368 0
M  V30 35232 H 3426.84 -1.50543 1.23785 0
M  V30 35233 H 3425.93 -2.99231 0.886968 0
M  V30 35234 N 3426.24 -0.746182 -1.38816 0
M  V30 35235 C 3427.2 -0.121926 -2.28875 0
M  V30 35236 C 3428.2 0.655354 -1.46839 0
M  V30 35237 O 3429.39 0.482715 -1.67378 0
M  V30 35238 C 3426.52 0.83606 -3.30489 0
M  V30 35239 H 3427.71 -0.915503 -2.85585 0
M  V30 35240 H 3425.27 -0.512717 -1.47651 0
M  V30 35241 H 3426 1.65559 -2.78856 0
M  V30 35242 H 3425.79 0.281202 -3.9109 0
M  V30 35243 H 3427.28 1.26907 -3.9785 0
M  V30 35244 N 3427.71 1.49635 -0.494676 0
M  V30 35245 C 3428.96 2.02433 0.0520817 0
M  V30 35246 C 3429.29 1.37488 1.37577 0
M  V30 35247 O 3428.54 0.497571 1.89269 0
M  V30 35248 C 3428.84 3.56455 0.25968 0
M  V30 35249 C 3428.51 4.40005 -0.98522 0
M  V30 35250 C 3427.17 4.62556 -1.32648 0
M  V30 35251 C 3429.52 4.88651 -1.813 0
M  V30 35252 C 3426.85 5.30998 -2.49515 0
M  V30 35253 C 3429.2 5.58379 -2.97315 0
M  V30 35254 C 3427.87 5.79177 -3.31828 0
M  V30 35255 H 3427.14 0.740755 0.019058 0
M  V30 35256 H 3429.78 1.80003 -0.65355 0
M  V30 35257 H 3428.09 3.7753 1.04778 0
M  V30 35258 H 3429.79 3.94895 0.697077 0
M  V30 35259 H 3426.38 4.22689 -0.709387 0
M  V30 35260 H 3430.56 4.71062 -1.5625 0
M  V30 35261 H 3425.82 5.45305 -2.76501 0
M  V30 35262 H 3429.99 5.95049 -3.61787 0
M  V30 35263 H 3427.62 6.31986 -4.22489 0
M  V30 35264 N 3429.19 0.228241 1.55939 0
M  V30 35265 C 3430.1 -0.6903 2.24214 0
M  V30 35266 C 3431.12 -1.20836 1.25199 0
M  V30 35267 O 3432.29 -1.24856 1.58028 0
M  V30 35268 C 3429.36 -1.87868 2.91387 0
M  V30 35269 C 3428.42 -1.40194 4.05764 0
M  V30 35270 C 3427.65 -2.53367 4.69724 0
M  V30 35271 O 3427.88 -3.71661 4.32694 0
M  V30 35272 O 3426.81 -2.24188 5.58591 0
M  V30 35273 H 3430.64 -0.138639 3.03383 0
M  V30 35274 H 3428.22 -0.00248878 1.494 0
M  V30 35275 H 3430.1 -2.57256 3.33762 0
M  V30 35276 H 3428.78 -2.41831 2.15173 0
M  V30 35277 H 3427.68 -0.67588 3.67944 0
M  V30 35278 H 3429.02 -0.908606 4.83741 0
M  V30 35279 N 3430.67 -1.57536 -0.0450825 0
M  V30 35280 C 3432.09 -1.54495 -0.400436 0
M  V30 35281 C 3432.29 -0.952197 -1.77582 0
M  V30 35282 O 3431.34 -0.566264 -2.46068 0
M  V30 35283 C 3432.66 -2.99025 -0.316978 0
M  V30 35284 C 3434.2 -3.10495 -0.39523 0
M  V30 35285 C 3434.68 -4.56726 -0.341395 0
M  V30 35286 N 3436.17 -4.61464 -0.400674 0
M  V30 35287 C 3436.9 -5.72128 -0.381657 0
M  V30 35288 N 3436.4 -6.9208 -0.315873 0
M  V30 35289 N 3438.19 -5.60451 -0.430201 0
M  V30 35290 H 3430.34 -1.94423 0.855191 0
M  V30 35291 H 3432.61 -0.891047 0.323633 0
M  V30 35292 H 3432.31 -3.46056 0.627538 0
M  V30 35293 H 3432.19 -3.60285 -1.1169 0
M  V30 35294 H 3434.57 -2.63421 -1.33017 0
M  V30 35295 H 3434.66 -2.52096 0.433753 0
M  V30 35296 H 3434.3 -5.04464 0.589813 0
M  V30 35297 H 3434.23 -5.13018 -1.18827 0
M  V30 35298 H 3436.72 -3.75155 -0.454679 0
M  V30 35299 H 3437.03 -7.72194 -0.306022 0
M  V30 35300 H 3435.38 -6.94427 -0.282159 0
M  V30 35301 H 3438.57 -4.65638 -0.479473 0
M  V30 35302 H 3438.74 -6.46689 -0.411912 0
M  V30 35303 N 3432.15 0.317045 -1.54378 0
M  V30 35304 C 3433.06 1.41332 -1.8725 0
M  V30 35305 C 3434.07 1.56279 -0.765044 0
M  V30 35306 O 3435.25 1.7125 -1.05997 0
M  V30 35307 C 3432.32 2.75951 -2.09885 0
M  V30 35308 C 3431.38 2.70125 -3.33663 0
M  V30 35309 C 3430.61 3.98324 -3.55209 0
M  V30 35310 O 3430.83 4.96908 -2.80069 0
M  V30 35311 O 3429.77 4.01188 -4.487 0
M  V30 35312 H 3433.59 1.16461 -2.80483 0
M  V30 35313 H 3431.18 0.511662 -1.40365 0
M  V30 35314 H 3433.06 3.55629 -2.26066 0
M  V30 35315 H 3431.73 3.007 -1.19839 0
M  V30 35316 H 3430.64 1.88976 -3.22861 0
M  V30 35317 H 3431.97 2.50331 -4.23787 0
M  V30 35318 N 3433.63 1.46561 0.57944 0
M  V30 35319 C 3434.85 1.55617 1.36348 0
M  V30 35320 C 3435.27 0.198438 1.87754 0
M  V30 35321 O 3434.63 -0.804805 1.63796 0
M  V30 35322 C 3434.68 2.5636 2.54876 0
M  V30 35323 O 3434.4 3.8686 2.056 0
M  V30 35324 C 3435.9 2.75387 3.47386 0
M  V30 35325 H 3433.12 0.526154 0.416417 0
M  V30 35326 H 3435.66 1.91997 0.704101 0
M  V30 35327 H 3433.82 2.22975 3.16798 0
M  V30 35328 H 3434.23 4.41719 2.82815 0
M  V30 35329 H 3435.71 3.49791 4.27025 0
M  V30 35330 H 3436.18 1.82411 3.99529 0
M  V30 35331 H 3436.79 3.0988 2.91297 0
M  V30 35332 N 3435.1 -0.824347 1.34322 0
M  V30 35333 C 3436.35 -1.58282 1.26785 0
M  V30 35334 C 3436.68 -1.93521 -0.162248 0
M  V30 35335 O 3435.96 -1.59905 -1.10727 0
M  V30 35336 C 3436.24 -2.88327 2.1573 0
M  V30 35337 C 3436.09 -2.59678 3.6727 0
M  V30 35338 C 3437.41 -3.89887 2.04148 0
M  V30 35339 H 3434.53 -0.574294 0.461904 0
M  V30 35340 H 3437.17 -0.94974 1.6456 0
M  V30 35341 H 3435.32 -3.42355 1.83645 0
M  V30 35342 H 3437 -2.11971 4.09715 0
M  V30 35343 H 3435.24 -1.93144 3.8843 0
M  V30 35344 H 3435.91 -3.52406 4.24869 0
M  V30 35345 H 3438.39 -3.45208 2.32316 0
M  V30 35346 H 3437.26 -4.78686 2.6861 0
M  V30 35347 H 3437.52 -4.30219 1.01803 0
M  V30 35348 N 3436.58 -1.18028 -1.04437 0
M  V30 35349 C 3437.83 -0.967731 -1.76969 0
M  V30 35350 C 3438.14 0.503961 -1.88996 0
M  V30 35351 O 3439.35 0.834923 -2.58343 0
M  V30 35352 C 3437.81 -1.68238 -3.18157 0
M  V30 35353 C 3437.41 -3.19312 -3.14235 0
M  V30 35354 C 3439.16 -1.5525 -3.95092 0
M  V30 35355 C 3437.07 -3.83433 -4.50259 0
M  V30 35356 H 3436 -0.358447 -0.663349 0
M  V30 35357 H 3438.65 -1.41362 -1.17 0
M  V30 35358 H 3437.03 -1.16425 -3.78499 0
M  V30 35359 H 3438.2 -3.7812 -2.63367 0
M  V30 35360 H 3436.52 -3.32398 -2.50799 0
M  V30 35361 H 3439.11 -2.0052 -4.95677 0
M  V30 35362 H 3439.46 -0.504198 -4.13235 0
M  V30 35363 H 3439.99 -2.04323 -3.41317 0
M  V30 35364 H 3436.73 -4.88294 -4.37321 0
M  V30 35365 H 3436.25 -3.29413 -5.01246 0
M  V30 35366 H 3437.93 -3.8608 -5.19183 0
M  V30 35367 N 3438.06 1.23288 -0.98172 0
M  V30 35368 C 3439.29 1.95772 -0.669404 0
M  V30 35369 C 3439.7 1.72657 0.763868 0
M  V30 35370 O 3439.06 1.01879 1.51416 0
M  V30 35371 C 3439.11 3.48742 -0.951924 0
M  V30 35372 O 3438.83 3.71073 -2.32887 0
M  V30 35373 C 3440.33 4.38423 -0.655745 0
M  V30 35374 H 3437.55 0.623266 -0.248556 0
M  V30 35375 H 3440.1 1.56743 -1.31346 0
M  V30 35376 H 3438.25 3.85781 -0.353855 0
M  V30 35377 H 3438.67 4.65358 -2.41956 0
M  V30 35378 H 3440.14 5.44551 -0.903778 0
M  V30 35379 H 3440.62 4.3728 0.410192 0
M  V30 35380 H 3441.22 4.06994 -1.23435 0
M  V30 35381 N 3439.54 0.753533 1.38418 0
M  V30 35382 C 3440.47 0.0742084 2.28079 0
M  V30 35383 C 3441.45 -0.728373 1.45374 0
M  V30 35384 O 3442.63 -0.707012 1.74739 0
M  V30 35385 C 3439.76 -0.901706 3.26477 0
M  V30 35386 C 3438.81 -0.185363 4.26097 0
M  V30 35387 S 3439.64 1.11381 5.23789 0
M  V30 35388 C 3440.8 0.140971 6.25741 0
M  V30 35389 H 3441.03 0.834525 2.85347 0
M  V30 35390 H 3438.56 0.546114 1.44419 0
M  V30 35391 H 3440.52 -1.45943 3.83681 0
M  V30 35392 H 3439.18 -1.63499 2.68192 0
M  V30 35393 H 3438.37 -0.924491 4.95448 0
M  V30 35394 H 3437.98 0.300837 3.72788 0
M  V30 35395 H 3440.27 -0.693055 6.73946 0
M  V30 35396 H 3441.21 0.802143 7.03542 0
M  V30 35397 H 3441.62 -0.239701 5.63991 0
M  V30 35398 N 3441.02 -1.49371 0.502605 0
M  V30 35399 C 3442.24 -2.07361 -0.0402723 0
M  V30 35400 C 3442.67 -1.36028 -1.29916 0
M  V30 35401 O 3442.02 -0.417519 -1.76427 0
M  V30 35402 C 3442.07 -3.59548 -0.275298 0
M  V30 35403 O 3441.18 -3.89689 -1.34968 0
M  V30 35404 H 3440.52 -0.663453 0.0269384 0
M  V30 35405 H 3443.05 -1.92155 0.702686 0
M  V30 35406 H 3443.06 -4.04846 -0.50632 0
M  V30 35407 H 3441.73 -4.10877 0.644455 0
M  V30 35408 H 3440.31 -3.56199 -1.10349 0
M  V30 35409 N 3442.49 -0.236508 -1.55815 0
M  V30 35410 C 3443.74 0.390338 -1.98295 0
M  V30 35411 C 3444.06 1.59222 -1.12576 0
M  V30 35412 O 3443.33 1.94812 -0.206162 0
M  V30 35413 H 3441.91 0.147207 -0.732352 0
M  V30 35414 H 3444.58 -0.332881 -1.92036 0
M  V30 35415 H 3443.67 0.706541 -3.03997 0
M  V30 35416 N 3443.97 1.57557 0.0367273 0
M  V30 35417 C 3445.25 1.8006 0.764055 0
M  V30 35418 C 3445.63 0.832724 1.93982 0
M  V30 35419 O 3444.98 -0.126775 2.28148 0
M  V30 35420 C 3445.19 3.27564 1.20427 0
M  V30 35421 C 3446.54 3.92343 1.62333 0
M  V30 35422 O 3447.56 3.31667 1.29905 0
M  V30 35423 O 3446.42 4.99158 2.22495 0
M  V30 35424 H 3443.51 0.740187 0.368853 0
M  V30 35425 H 3446.06 1.69694 0.0140956 0
M  V30 35426 H 3444.83 3.89598 0.364578 0
M  V30 35427 H 3444.45 3.42789 2.01448 0
M  V30 35428 N 3445.45 -0.308854 1.54544 0
M  V30 35429 C 3446.73 -1.06415 1.64119 0
M  V30 35430 C 3447.11 -2.05466 0.484438 0
M  V30 35431 O 3446.46 -2.22511 -0.519713 0
M  V30 35432 C 3446.67 -1.75301 3.01779 0
M  V30 35433 C 3448.01 -2.27786 3.58328 0
M  V30 35434 O 3449.04 -1.85345 3.0418 0
M  V30 35435 O 3447.9 -3.05526 4.53119 0
M  V30 35436 H 3444.99 -0.49139 0.665181 0
M  V30 35437 H 3447.54 -0.307569 1.66889 0
M  V30 35438 H 3446.31 -1.03335 3.77409 0
M  V30 35439 H 3445.93 -2.57734 3.02752 0
M  V30 35440 N 3446.93 -1.46867 -0.571659 0
M  V30 35441 C 3447.88 -1.54679 -1.67507 0
M  V30 35442 C 3448.86 -0.406801 -1.55673 0
M  V30 35443 O 3450.06 -0.655876 -1.644 0
M  V30 35444 C 3447.18 -1.55048 -3.06292 0
M  V30 35445 C 3446.27 -2.7438 -3.23383 0
M  V30 35446 N 3446.66 -3.99208 -3.10591 0
M  V30 35447 C 3444.96 -2.70836 -3.5435 0
M  V30 35448 C 3445.66 -4.79046 -3.29984 0
M  V30 35449 N 3444.64 -4.11112 -3.55652 0
M  V30 35450 H 3448.44 -2.48978 -1.56164 0
M  V30 35451 H 3445.95 -1.4266 -0.776011 0
M  V30 35452 H 3447.95 -1.58733 -3.85499 0
M  V30 35453 H 3446.61 -0.618334 -3.18758 0
M  V30 35454 H 3447.62 -4.30288 -2.88223 0
M  V30 35455 H 3444.3 -1.86695 -3.73432 0
M  V30 35456 H 3445.69 -5.87967 -3.25184 0
M  V30 35457 N 3448.41 0.817212 -1.34757 0
M  V30 35458 C 3449.82 1.39042 -1.24596 0
M  V30 35459 C 3450.17 1.95794 0.12615 0
M  V30 35460 O 3449.29 1.90493 1.02671 0
M  V30 35461 C 3449.89 2.52768 -2.25597 0
M  V30 35462 C 3448.45 3.05981 -2.1921 0
M  V30 35463 C 3447.6 1.78883 -2.11887 0
M  V30 35464 H 3450.55 0.62113 -1.4604 0
M  V30 35465 H 3450.57 3.31023 -1.87628 0
M  V30 35466 H 3450.08 2.11433 -3.2545 0
M  V30 35467 H 3448.18 3.51806 -1.22731 0
M  V30 35468 H 3448.29 3.64683 -3.10713 0
M  V30 35469 H 3446.66 2.00009 -1.57697 0
M  V30 35470 H 3447.44 1.39714 -3.13584 0
M  V30 35471 N 3449.89 1.1858 1.0381 0
M  V30 35472 C 3451.3 0.936034 1.29269 0
M  V30 35473 C 3451.5 -0.396931 1.97552 0
M  V30 35474 O 3450.56 -1.13065 2.25771 0
M  V30 35475 C 3451.87 2.10343 2.14886 0
M  V30 35476 C 3453.42 2.14202 2.28224 0
M  V30 35477 C 3453.89 3.30367 3.17209 0
M  V30 35478 N 3455.38 3.30245 3.24796 0
M  V30 35479 C 3456.12 4.16772 3.93813 0
M  V30 35480 N 3455.62 5.13438 4.65138 0
M  V30 35481 N 3457.41 4.04678 3.90118 0
M  V30 35482 H 3449.56 2.04357 0.578975 0
M  V30 35483 H 3451.82 0.893072 0.318005 0
M  V30 35484 H 3451.53 3.06758 1.72024 0
M  V30 35485 H 3451.4 2.06625 3.15573 0
M  V30 35486 H 3453.79 1.18364 2.70322 0
M  V30 35487 H 3453.87 2.21978 1.2712 0
M  V30 35488 H 3453.51 4.26479 2.75822 0
M  V30 35489 H 3453.44 3.19828 4.18351 0
M  V30 35490 H 3455.94 2.60265 2.7399 0
M  V30 35491 H 3456.25 5.75829 5.15403 0
M  V30 35492 H 3454.59 5.17395 4.64034 0
M  V30 35493 H 3457.78 3.28444 3.3353 0
M  V30 35494 H 3457.96 4.72328 4.43633 0
M  V30 35495 N 3451.36 -1.22766 0.988245 0
M  V30 35496 C 3452.33 -2.22752 0.539852 0
M  V30 35497 C 3453.33 -1.56372 -0.374769 0
M  V30 35498 O 3454.52 -1.73394 -0.167371 0
M  V30 35499 C 3451.65 -3.40219 -0.215402 0
M  V30 35500 H 3452.84 -2.63935 1.42402 0
M  V30 35501 H 3450.39 -1.35735 0.774957 0
M  V30 35502 H 3451.13 -3.04502 -1.11576 0
M  V30 35503 H 3450.91 -3.89609 0.441241 0
M  V30 35504 H 3452.4 -4.14382 -0.517444 0
M  V30 35505 N 3452.84 -0.760864 -1.38017 0
M  V30 35506 C 3454.09 -0.320276 -1.99951 0
M  V30 35507 C 3454.42 1.10011 -1.60399 0
M  V30 35508 O 3453.67 1.76924 -0.836439 0
M  V30 35509 C 3453.97 -0.398841 -3.55168 0
M  V30 35510 C 3453.64 -1.77592 -4.14454 0
M  V30 35511 C 3452.3 -2.15277 -4.3036 0
M  V30 35512 C 3454.65 -2.67891 -4.47084 0
M  V30 35513 C 3451.98 -3.42719 -4.76194 0
M  V30 35514 C 3454.33 -3.94731 -4.94338 0
M  V30 35515 C 3452.99 -4.32475 -5.0845 0
M  V30 35516 H 3452.26 -0.117197 -0.731673 0
M  V30 35517 H 3454.91 -0.972765 -1.64953 0
M  V30 35518 H 3453.22 0.337204 -3.90346 0
M  V30 35519 H 3454.91 -0.0394098 -4.00981 0
M  V30 35520 H 3451.5 -1.47299 -4.02493 0
M  V30 35521 H 3455.69 -2.40039 -4.3439 0
M  V30 35522 H 3450.94 -3.71871 -4.85306 0
M  V30 35523 H 3455.12 -4.64838 -5.18555 0
M  V30 35524 H 3452.74 -5.31287 -5.43726 0
M  V30 35525 N 3454.32 1.49102 -0.510519 0
M  V30 35526 C 3455.57 2.02777 0.0306534 0
M  V30 35527 C 3455.9 1.38861 1.35762 0
M  V30 35528 O 3455.17 0.527561 1.87209 0
M  V30 35529 C 3455.46 3.59683 0.173198 0
M  V30 35530 C 3455.31 4.34112 -1.17757 0
M  V30 35531 C 3456.63 4.30604 0.90932 0
M  V30 35532 H 3453.75 0.736937 0.00966595 0
M  V30 35533 H 3456.39 1.78028 -0.663778 0
M  V30 35534 H 3454.54 3.80901 0.764654 0
M  V30 35535 H 3456.21 4.24366 -1.80863 0
M  V30 35536 H 3454.45 3.96295 -1.76444 0
M  V30 35537 H 3455.13 5.42286 -1.03103 0
M  V30 35538 H 3457.6 4.14099 0.407604 0
M  V30 35539 H 3456.48 5.40118 0.977917 0
M  V30 35540 H 3456.74 3.96514 1.95523 0
M  V30 35541 N 3455.8 0.244768 1.55688 0
M  V30 35542 C 3456.73 -0.64991 2.24273 0
M  V30 35543 C 3457.71 -1.18298 1.22228 0
M  V30 35544 O 3458.89 -1.22271 1.50875 0
M  V30 35545 C 3456.02 -1.84793 2.94056 0
M  V30 35546 C 3454.98 -1.44772 4.02772 0
M  V30 35547 C 3454.3 -2.72639 4.59969 0
M  V30 35548 C 3455.6 -0.620379 5.18603 0
M  V30 35549 H 3457.3 -0.0780128 2.99298 0
M  V30 35550 H 3454.84 -0.0360816 1.43955 0
M  V30 35551 H 3456.8 -2.47945 3.40736 0
M  V30 35552 H 3455.52 -2.44517 2.16516 0
M  V30 35553 H 3454.18 -0.839546 3.56857 0
M  V30 35554 H 3453.83 -3.30557 3.79132 0
M  V30 35555 H 3453.53 -2.46586 5.33356 0
M  V30 35556 H 3455.05 -3.36694 5.09382 0
M  V30 35557 H 3456.47 -1.15616 5.61521 0
M  V30 35558 H 3454.86 -0.455992 5.98365 0
M  V30 35559 H 3455.93 0.367883 4.83502 0
M  V30 35560 N 3457.28 -1.57574 -0.0283712 0
M  V30 35561 C 3458.55 -1.80463 -0.754495 0
M  V30 35562 C 3458.93 -0.843 -1.93537 0
M  V30 35563 O 3458.28 0.114674 -2.28212 0
M  V30 35564 C 3458.49 -3.28198 -1.18688 0
M  V30 35565 C 3459.84 -3.93198 -1.6025 0
M  V30 35566 O 3460.86 -3.32352 -1.28144 0
M  V30 35567 O 3459.72 -5.00331 -2.19845 0
M  V30 35568 H 3456.82 -0.742132 -0.364923 0
M  V30 35569 H 3459.36 -1.69699 -0.00509606 0
M  V30 35570 H 3458.13 -3.89786 -0.343911 0
M  V30 35571 H 3457.76 -3.43853 -1.99627 0
M  V30 35572 N 3458.75 0.300654 -1.54706 0
M  V30 35573 C 3459.66 1.39338 -1.88738 0
M  V30 35574 C 3460.68 1.55459 -0.781577 0
M  V30 35575 O 3461.86 1.70116 -1.07807 0
M  V30 35576 C 3458.92 2.7371 -2.128 0
M  V30 35577 C 3457.98 2.66571 -3.36509 0
M  V30 35578 C 3457.21 3.94534 -3.59414 0
M  V30 35579 O 3457.44 4.93909 -2.85324 0
M  V30 35580 O 3456.37 3.96407 -4.5293 0
M  V30 35581 H 3460.2 1.13479 -2.81702 0
M  V30 35582 H 3457.78 0.496746 -1.409 0
M  V30 35583 H 3459.66 3.53211 -2.29826 0
M  V30 35584 H 3458.34 2.99412 -1.23022 0
M  V30 35585 H 3457.25 1.85541 -3.24847 0
M  V30 35586 H 3458.58 2.45822 -4.26418 0
M  V30 35587 N 3460.23 1.47168 0.563863 0
M  V30 35588 C 3461.47 1.55024 1.33218 0
M  V30 35589 C 3461.84 0.204869 1.90904 0
M  V30 35590 O 3463.04 0.158248 2.68334 0
M  V30 35591 C 3461.31 2.63231 2.41752 0
M  V30 35592 S 3462.87 2.90624 3.2876 0
M  V30 35593 H 3459.69 0.547499 0.453614 0
M  V30 35594 H 3462.29 1.8451 0.646233 0
M  V30 35595 H 3460.99 3.5959 1.97796 0
M  V30 35596 H 3460.52 2.35538 3.15096 0
M  V30 35597 H 3462.54 2.27331 4.41061 0
M  V30 35598 N 3461.71 -0.810054 1.35188 0
M  V30 35599 C 3462.64 -1.92968 1.23676 0
M  V30 35600 C 3463.66 -1.62003 0.160848 0
M  V30 35601 O 3464.84 -1.73637 0.413823 0
M  V30 35602 C 3461.94 -3.2725 0.880944 0
M  V30 35603 C 3461.12 -3.86146 2.05451 0
M  V30 35604 C 3460.18 -4.98828 1.67503 0
M  V30 35605 O 3459.2 -5.16439 2.39331 0
M  V30 35606 N 3460.4 -5.77426 0.596641 0
M  V30 35607 H 3463.17 -2.03372 2.20136 0
M  V30 35608 H 3460.73 -0.987299 1.28312 0
M  V30 35609 H 3462.72 -4.00097 0.608627 0
M  V30 35610 H 3461.29 -3.12599 0.00613421 0
M  V30 35611 H 3460.51 -3.05535 2.49083 0
M  V30 35612 H 3461.8 -4.22226 2.83906 0
M  V30 35613 H 3461.2 -5.657 -0.000213155 0
M  V30 35614 H 3459.76 -6.50667 0.384094 0
M  V30 35615 N 3463.19 -1.19129 -1.0318 0
M  V30 35616 C 3464.14 -0.922937 -2.13506 0
M  V30 35617 C 3465.13 0.120141 -1.68973 0
M  V30 35618 O 3466.34 -0.0288323 -1.79977 0
M  V30 35619 H 3462.71 -0.281039 -0.697511 0
M  V30 35620 H 3464.68 -1.86007 -2.33332 0
M  V30 35621 C 3463.43 -0.474925 -3.44441 0
M  V30 35622 H 3462.75 -1.26909 -3.79123 0
M  V30 35623 H 3464.19 -0.326236 -4.22743 0
M  V30 35624 C 3462.65 0.810573 -3.27004 0
M  V30 35625 O 3463.18 1.87269 -3.55377 0
M  V30 35626 N 3461.39 0.766664 -2.80305 0
M  V30 35627 H 3460.94 -0.0979124 -2.57414 0
M  V30 35628 H 3460.89 1.62717 -2.69018 0
M  V30 35629 N 3464.67 1.2224 -0.994741 0
M  V30 35630 C 3465.6 2.26523 -0.566539 0
M  V30 35631 C 3466.58 1.65146 0.407512 0
M  V30 35632 O 3467.76 1.91904 0.297743 0
M  V30 35633 C 3464.89 3.471 0.117799 0
M  V30 35634 C 3463.85 4.20925 -0.774982 0
M  V30 35635 C 3463.17 5.34683 0.0423747 0
M  V30 35636 C 3464.47 4.79412 -2.07271 0
M  V30 35637 H 3466.17 2.62594 -1.43822 0
M  V30 35638 H 3463.71 1.26228 -0.692993 0
M  V30 35639 H 3465.67 4.19213 0.428769 0
M  V30 35640 H 3464.39 3.10131 1.02404 0
M  V30 35641 H 3463.05 3.50649 -1.06962 0
M  V30 35642 H 3462.7 4.93955 0.94959 0
M  V30 35643 H 3462.4 5.85002 -0.55197 0
M  V30 35644 H 3463.92 6.09611 0.347397 0
M  V30 35645 H 3465.33 5.43457 -1.82557 0
M  V30 35646 H 3463.73 5.40077 -2.61604 0
M  V30 35647 H 3464.8 3.99361 -2.75024 0
M  V30 35648 N 3466.14 0.768172 1.37611 0
M  V30 35649 C 3467.08 0.0983951 2.27988 0
M  V30 35650 C 3468.06 -0.712913 1.46138 0
M  V30 35651 O 3469.24 -0.688439 1.75479 0
M  V30 35652 C 3466.37 -0.867028 3.27415 0
M  V30 35653 C 3465.41 -0.14016 4.2627 0
M  V30 35654 S 3466.25 1.16931 5.22578 0
M  V30 35655 C 3467.4 0.207331 6.25557 0
M  V30 35656 H 3467.63 0.864743 2.84446 0
M  V30 35657 H 3465.17 0.561401 1.43832 0
M  V30 35658 H 3467.13 -1.41865 3.85207 0
M  V30 35659 H 3465.79 -1.60646 2.69911 0
M  V30 35660 H 3464.98 -0.87189 4.96401 0
M  V30 35661 H 3464.58 0.340359 3.72448 0
M  V30 35662 H 3466.87 -0.621535 6.74643 0
M  V30 35663 H 3467.82 0.876718 7.02652 0
M  V30 35664 H 3468.22 -0.179868 5.64213 0
M  V30 35665 N 3467.62 -1.48829 0.518419 0
M  V30 35666 C 3468.87 -2.0249 -0.0198697 0
M  V30 35667 C 3469.2 -1.39659 -1.35372 0
M  V30 35668 O 3468.45 -0.527619 -1.88453 0
M  V30 35669 C 3468.75 -3.56823 -0.202938 0
M  V30 35670 C 3468.42 -4.38382 1.0551 0
M  V30 35671 C 3467.08 -4.60387 1.3999 0
M  V30 35672 C 3469.43 -4.85705 1.89051 0
M  V30 35673 C 3466.76 -5.26961 2.57931 0
M  V30 35674 C 3469.11 -5.53578 3.0616 0
M  V30 35675 C 3467.78 -5.73825 3.41001 0
M  V30 35676 H 3467.05 -0.740964 -0.00727085 0
M  V30 35677 H 3469.69 -1.7894 0.682104 0
M  V30 35678 H 3468 -3.79149 -0.987586 0
M  V30 35679 H 3469.69 -3.95954 -0.634164 0
M  V30 35680 H 3466.28 -4.21507 0.776544 0
M  V30 35681 H 3470.47 -4.68517 1.63725 0
M  V30 35682 H 3465.72 -5.40837 2.85141 0
M  V30 35683 H 3469.9 -5.89218 3.71208 0
M  V30 35684 H 3467.53 -6.25185 4.3249 0
M  V30 35685 N 3469.1 -0.253021 -1.55556 0
M  V30 35686 C 3470.35 0.363658 -2.00123 0
M  V30 35687 C 3470.7 1.55119 -1.13824 0
M  V30 35688 O 3469.99 1.90603 -0.19517 0
M  V30 35689 C 3470.19 0.817422 -3.47927 0
M  V30 35690 C 3470.02 -0.324599 -4.48527 0
M  V30 35691 C 3468.79 -0.801263 -4.98907 0
M  V30 35692 C 3470.99 -1.15367 -5.01193 0
M  V30 35693 N 3468.97 -1.91506 -5.83266 0
M  V30 35694 C 3470.34 -2.11574 -5.82784 0
M  V30 35695 C 3472.39 -1.18954 -4.83482 0
M  V30 35696 C 3471.1 -3.11084 -6.48551 0
M  V30 35697 C 3473.12 -2.17298 -5.50032 0
M  V30 35698 C 3472.48 -3.1224 -6.31416 0
M  V30 35699 H 3468.58 0.098858 -0.775726 0
M  V30 35700 H 3471.17 -0.371998 -1.91113 0
M  V30 35701 H 3469.34 1.52235 -3.57322 0
M  V30 35702 H 3471.07 1.40957 -3.79359 0
M  V30 35703 H 3467.83 -0.384348 -4.72038 0
M  V30 35704 H 3468.25 -2.4749 -6.30141 0
M  V30 35705 H 3472.89 -0.46937 -4.20187 0
M  V30 35706 H 3470.61 -3.84047 -7.11009 0
M  V30 35707 H 3474.2 -2.20787 -5.38279 0
M  V30 35708 H 3473.08 -3.87095 -6.82003 0
M  V30 35709 N 3470.58 1.57587 0.0200142 0
M  V30 35710 C 3471.81 1.93949 0.720522 0
M  V30 35711 C 3472.22 0.853528 1.68405 0
M  V30 35712 O 3471.58 -0.169305 1.81713 0
M  V30 35713 C 3471.63 3.30273 1.46976 0
M  V30 35714 O 3471.35 4.34698 0.544895 0
M  V30 35715 C 3472.85 3.80972 2.2666 0
M  V30 35716 H 3470.07 0.63989 0.201945 0
M  V30 35717 H 3472.62 2.04485 -0.0251534 0
M  V30 35718 H 3470.77 3.21107 2.16724 0
M  V30 35719 H 3471.18 5.13443 1.0713 0
M  V30 35720 H 3472.66 4.78844 2.74613 0
M  V30 35721 H 3473.14 3.12635 3.08474 0
M  V30 35722 H 3473.74 3.93251 1.61969 0
M  V30 35723 N 3472.06 -0.292445 1.54863 0
M  V30 35724 C 3473 -1.38094 1.87171 0
M  V30 35725 C 3474 -1.52079 0.746203 0
M  V30 35726 O 3475.2 -1.54095 0.930308 0
M  V30 35727 H 3471.58 -0.461446 0.593777 0
M  V30 35728 H 3473.55 -1.08085 2.78137 0
M  V30 35729 C 3472.3 -2.73793 2.1432 0
M  V30 35730 H 3471.62 -2.63815 3.00402 0
M  V30 35731 H 3473.06 -3.48945 2.4086 0
M  V30 35732 C 3471.52 -3.2339 0.94448 0
M  V30 35733 O 3472.05 -4.01343 0.169278 0
M  V30 35734 N 3470.26 -2.80821 0.747506 0
M  V30 35735 H 3469.8 -2.17545 1.37956 0
M  V30 35736 H 3469.76 -3.14355 -0.0529647 0
M  V30 35737 N 3473.53 -1.47465 -0.55605 0
M  V30 35738 C 3474.78 -1.55361 -1.31281 0
M  V30 35739 C 3475.14 -0.213526 -1.91211 0
M  V30 35740 O 3474.43 0.780903 -1.74964 0
M  V30 35741 C 3474.62 -2.60874 -2.44293 0
M  V30 35742 C 3474.45 -4.05012 -1.95437 0
M  V30 35743 C 3473.22 -4.72447 -1.79227 0
M  V30 35744 C 3475.42 -4.91995 -1.49816 0
M  V30 35745 N 3473.4 -6.01097 -1.24722 0
M  V30 35746 C 3474.77 -6.10682 -1.07084 0
M  V30 35747 C 3476.83 -4.78429 -1.37878 0
M  V30 35748 C 3475.53 -7.173 -0.536007 0
M  V30 35749 C 3477.56 -5.85144 -0.857964 0
M  V30 35750 C 3476.92 -7.03021 -0.440576 0
M  V30 35751 H 3473.02 -0.623206 -0.472376 0
M  V30 35752 H 3475.6 -1.8422 -0.630151 0
M  V30 35753 H 3473.77 -2.33881 -3.10088 0
M  V30 35754 H 3475.5 -2.58607 -3.11295 0
M  V30 35755 H 3472.26 -4.28372 -2.01976 0
M  V30 35756 H 3472.68 -6.6964 -0.995541 0
M  V30 35757 H 3477.33 -3.8766 -1.6876 0
M  V30 35758 H 3475.04 -8.07814 -0.214825 0
M  V30 35759 H 3478.63 -5.76694 -0.769133 0
M  V30 35760 H 3477.51 -7.84188 -0.0438135 0
M  V30 35761 N 3475.01 0.802873 -1.35616 0
M  V30 35762 C 3475.96 1.9363 -1.28881 0
M  V30 35763 C 3476.96 1.68408 -0.183044 0
M  V30 35764 O 3478.16 1.76579 -0.349249 0
M  V30 35765 H 3474.54 0.636229 -0.400894 0
M  V30 35766 H 3476.51 1.96431 -2.24628 0
M  V30 35767 C 3475.26 3.30455 -1.08141 0
M  V30 35768 H 3474.58 3.50422 -1.92469 0
M  V30 35769 H 3476.02 4.10154 -1.07471 0
M  V30 35770 C 3474.48 3.36216 0.214576 0
M  V30 35771 O 3475.01 3.83072 1.20909 0
M  V30 35772 N 3473.21 2.89482 0.254629 0
M  V30 35773 H 3472.76 2.51544 -0.555283 0
M  V30 35774 H 3472.72 2.93718 1.12147 0
M  V30 35775 N 3476.49 1.19674 1.02547 0
M  V30 35776 C 3477.4 0.95301 2.14371 0
M  V30 35777 C 3478.42 -0.0881421 1.73777 0
M  V30 35778 O 3479.59 0.0972825 2.01165 0
M  V30 35779 C 3476.66 0.498629 3.43096 0
M  V30 35780 C 3475.72 1.60958 3.97984 0
M  V30 35781 C 3474.95 1.17678 5.20565 0
M  V30 35782 O 3475.18 0.0417638 5.70385 0
M  V30 35783 O 3474.11 1.98069 5.68377 0
M  V30 35784 H 3477.94 1.88908 2.37797 0
M  V30 35785 H 3475.52 0.979856 1.12779 0
M  V30 35786 H 3477.4 0.254042 4.20634 0
M  V30 35787 H 3476.08 -0.408961 3.21106 0
M  V30 35788 H 3474.98 1.90835 3.21765 0
M  V30 35789 H 3476.32 2.49385 4.24344 0
M  V30 35790 N 3477.97 -1.21711 1.00121 0
M  V30 35791 C 3478.9 -2.23301 0.516672 0
M  V30 35792 C 3479.91 -1.57993 -0.392705 0
M  V30 35793 O 3481.1 -1.77448 -0.193509 0
M  V30 35794 C 3478.2 -3.37826 -0.269553 0
M  V30 35795 C 3477.38 -4.32722 0.637974 0
M  V30 35796 C 3476.44 -5.26109 -0.097982 0
M  V30 35797 O 3475.46 -5.66825 0.519401 0
M  V30 35798 N 3476.66 -5.63914 -1.37773 0
M  V30 35799 H 3479.43 -2.65502 1.39027 0
M  V30 35800 H 3476.99 -1.36096 0.876903 0
M  V30 35801 H 3478.98 -3.97293 -0.770756 0
M  V30 35802 H 3477.55 -2.9464 -1.04431 0
M  V30 35803 H 3476.77 -3.71452 1.31973 0
M  V30 35804 H 3478.06 -4.93061 1.25573 0
M  V30 35805 H 3477.46 -5.3282 -1.90051 0
M  V30 35806 H 3476.01 -6.25759 -1.82396 0
M  V30 35807 N 3479.45 -0.775459 -1.37202 0
M  V30 35808 C 3480.4 -0.137707 -2.27584 0
M  V30 35809 C 3481.38 0.670109 -1.46282 0
M  V30 35810 O 3482.57 0.532473 -1.68801 0
M  V30 35811 C 3479.7 0.737671 -3.35281 0
M  V30 35812 C 3478.79 -0.0781766 -4.24028 0
M  V30 35813 N 3479.18 -1.12568 -4.93115 0
M  V30 35814 C 3477.48 0.145216 -4.45764 0
M  V30 35815 C 3478.18 -1.62117 -5.58653 0
M  V30 35816 N 3477.15 -0.932716 -5.35538 0
M  V30 35817 H 3480.96 -0.939659 -2.78474 0
M  V30 35818 H 3478.47 -0.613571 -1.50363 0
M  V30 35819 H 3480.47 1.21036 -3.98943 0
M  V30 35820 H 3479.13 1.53833 -2.85947 0
M  V30 35821 H 3480.14 -1.50789 -4.95462 0
M  V30 35822 H 3476.82 0.917486 -4.07294 0
M  V30 35823 H 3478.21 -2.49493 -6.23861 0
M  V30 35824 N 3480.93 1.48552 -0.526305 0
M  V30 35825 C 3482.34 1.86507 -0.0849022 0
M  V30 35826 C 3482.69 1.43623 1.33667 0
M  V30 35827 O 3481.81 0.825303 2.00044 0
M  V30 35828 C 3482.41 3.3848 -0.147301 0
M  V30 35829 C 3480.97 3.75641 0.238888 0
M  V30 35830 C 3480.11 2.72594 -0.508696 0
M  V30 35831 H 3483.06 1.40509 -0.737753 0
M  V30 35832 H 3483.09 3.75047 0.641898 0
M  V30 35833 H 3482.6 3.69661 -1.18205 0
M  V30 35834 H 3480.7 3.50073 1.27592 0
M  V30 35835 H 3480.81 4.78999 -0.098165 0
M  V30 35836 H 3479.18 2.54661 0.0445934 0
M  V30 35837 H 3479.96 3.06619 -1.54401 0
M  V30 35838 N 3482.4 0.261267 1.55419 0
M  V30 35839 C 3483.63 -0.366109 2.04143 0
M  V30 35840 C 3484.05 -1.49704 1.13887 0
M  V30 35841 O 3483.41 -1.80799 0.134661 0
M  V30 35842 C 3483.46 -0.837713 3.50735 0
M  V30 35843 O 3482.56 -1.94615 3.63592 0
M  V30 35844 H 3481.9 -0.0778095 0.659425 0
M  V30 35845 H 3484.43 0.391522 2.00819 0
M  V30 35846 H 3484.44 -1.13715 3.91833 0
M  V30 35847 H 3483.12 -0.0102011 4.15899 0
M  V30 35848 H 3481.7 -1.65031 3.34394 0
M  V30 35849 N 3483.88 -1.57596 -0.0116567 0
M  V30 35850 C 3485.13 -1.89235 -0.698056 0
M  V30 35851 C 3485.44 -0.862047 -1.75579 0
M  V30 35852 O 3486.65 -1.06826 -2.496 0
M  V30 35853 C 3485.11 -3.35882 -1.29271 0
M  V30 35854 C 3484.71 -4.47183 -0.270412 0
M  V30 35855 C 3486.46 -3.76648 -1.95798 0
M  V30 35856 C 3484.36 -5.849 -0.874399 0
M  V30 35857 H 3483.29 -0.706091 -0.264483 0
M  V30 35858 H 3485.95 -1.8344 0.0469774 0
M  V30 35859 H 3484.33 -3.36478 -2.08803 0
M  V30 35860 H 3485.5 -4.58085 0.499462 0
M  V30 35861 H 3483.82 -4.15363 0.293749 0
M  V30 35862 H 3486.41 -4.76868 -2.41871 0
M  V30 35863 H 3486.76 -3.0955 -2.7836 0
M  V30 35864 H 3487.29 -3.78301 -1.23017 0
M  V30 35865 H 3484.03 -6.55441 -0.0878111 0
M  V30 35866 H 3483.55 -5.77685 -1.6137 0
M  V30 35867 H 3485.23 -6.32187 -1.37654 0
M  V30 35868 N 3485.36 0.284228 -1.55016 0
M  V30 35869 C 3486.29 1.3762 -1.82033 0
M  V30 35870 C 3487.27 1.48037 -0.67259 0
M  V30 35871 O 3488.45 1.64837 -0.914378 0
M  V30 35872 C 3485.58 2.75374 -1.97198 0
M  V30 35873 C 3484.63 2.82297 -3.19704 0
M  V30 35874 S 3485.46 2.42683 -4.77352 0
M  V30 35875 C 3486.62 3.82433 -4.95475 0
M  V30 35876 H 3486.85 1.14497 -2.74368 0
M  V30 35877 H 3484.38 0.483257 -1.46642 0
M  V30 35878 H 3486.34 3.54709 -2.0662 0
M  V30 35879 H 3485 2.95755 -1.05771 0
M  V30 35880 H 3484.19 3.83376 -3.27168 0
M  V30 35881 H 3483.8 2.10973 -3.08815 0
M  V30 35882 H 3486.09 4.77598 -4.80528 0
M  V30 35883 H 3487.03 3.79929 -5.97545 0
M  V30 35884 H 3487.44 3.73215 -4.23522 0
M  V30 35885 N 3486.84 1.47758 0.548222 0
M  V30 35886 C 3488.25 1.33475 0.875025 0
M  V30 35887 C 3488.45 0.331987 1.98746 0
M  V30 35888 O 3487.51 -0.253304 2.51226 0
M  V30 35889 C 3488.82 2.73039 1.25977 0
M  V30 35890 C 3490.37 2.81391 1.37069 0
M  V30 35891 C 3490.85 4.21617 1.78895 0
M  V30 35892 N 3492.34 4.24202 1.8603 0
M  V30 35893 C 3493.07 5.29624 2.1974 0
M  V30 35894 N 3492.57 6.45343 2.52002 0
M  V30 35895 N 3494.36 5.17007 2.20591 0
M  V30 35896 H 3486.51 2.11583 -0.18607 0
M  V30 35897 H 3488.77 0.947776 -0.0205853 0
M  V30 35898 H 3488.48 3.47892 0.516126 0
M  V30 35899 H 3488.35 3.0539 2.21397 0
M  V30 35900 H 3490.74 2.06805 2.10513 0
M  V30 35901 H 3490.82 2.52682 0.398149 0
M  V30 35902 H 3490.47 4.96712 1.06018 0
M  V30 35903 H 3490.4 4.47756 2.77168 0
M  V30 35904 H 3492.89 3.40724 1.63449 0
M  V30 35905 H 3493.2 7.21536 2.76777 0
M  V30 35906 H 3491.55 6.48648 2.49562 0
M  V30 35907 H 3494.74 4.25627 1.94832 0
M  V30 35908 H 3494.91 5.99271 2.46532 0
M  V30 35909 N 3488.32 -0.79567 1.3604 0
M  V30 35910 C 3489.28 -1.88964 1.29713 0
M  V30 35911 C 3490.28 -1.59473 0.20617 0
M  V30 35912 O 3491.47 -1.68001 0.460563 0
M  V30 35913 C 3488.6 -3.25617 1.00928 0
M  V30 35914 H 3489.79 -1.95991 2.26997 0
M  V30 35915 H 3487.35 -0.992769 1.20722 0
M  V30 35916 H 3488.08 -3.24274 0.0407597 0
M  V30 35917 H 3487.87 -3.4841 1.79869 0
M  V30 35918 H 3489.36 -4.05673 0.990897 0
M  V30 35919 N 3489.79 -1.20217 -1.0191 0
M  V30 35920 C 3490.76 -0.950518 -2.08561 0
M  V30 35921 C 3491.76 0.0729377 -1.60634 0
M  V30 35922 O 3492.95 -0.162857 -1.73437 0
M  V30 35923 C 3490.08 -0.430513 -3.38171 0
M  V30 35924 H 3491.27 -1.89652 -2.32319 0
M  V30 35925 H 3488.83 -1.01719 -1.18672 0
M  V30 35926 H 3489.56 0.52107 -3.20086 0
M  V30 35927 H 3489.35 -1.16856 -3.74282 0
M  V30 35928 H 3490.84 -0.273854 -4.16701 0
M  V30 35929 N 3491.27 1.21178 -1.00765 0
M  V30 35930 C 3492.2 2.25909 -0.590533 0
M  V30 35931 C 3493.18 1.65569 0.389973 0
M  V30 35932 O 3494.37 1.92209 0.277373 0
M  V30 35933 C 3491.5 3.47206 0.0809778 0
M  V30 35934 C 3490.45 4.2008 -0.819583 0
M  V30 35935 C 3489.78 5.34698 -0.014338 0
M  V30 35936 C 3491.08 4.77187 -2.12344 0
M  V30 35937 H 3492.77 2.61054 -1.46599 0
M  V30 35938 H 3490.32 1.25486 -0.706343 0
M  V30 35939 H 3492.27 4.19644 0.384282 0
M  V30 35940 H 3491 3.11199 0.99109 0
M  V30 35941 H 3489.65 3.49495 -1.10675 0
M  V30 35942 H 3489.3 4.94935 0.897146 0
M  V30 35943 H 3489 5.84383 -0.613986 0
M  V30 35944 H 3490.53 6.09945 0.28272 0
M  V30 35945 H 3491.94 5.4149 -1.88311 0
M  V30 35946 H 3490.34 5.37272 -2.67317 0
M  V30 35947 H 3491.41 3.96422 -2.79245 0
M  V30 35948 N 3492.75 0.782725 1.36789 0
M  V30 35949 C 3493.98 0.362607 2.04206 0
M  V30 35950 C 3494.4 -1.01071 1.58639 0
M  V30 35951 O 3493.76 -1.64981 0.751721 0
M  V30 35952 C 3493.81 0.427163 3.58061 0
M  V30 35953 O 3492.91 -0.568378 4.08464 0
M  V30 35954 H 3492.25 0.155084 0.645635 0
M  V30 35955 H 3494.78 1.06197 1.74881 0
M  V30 35956 H 3494.79 0.28837 4.0698 0
M  V30 35957 H 3493.47 1.42899 3.9058 0
M  V30 35958 H 3492.04 -0.391798 3.70836 0
M  V30 35959 N 3494.23 -1.48271 0.534176 0
M  V30 35960 C 3495.48 -2.021 0.001605 0
M  V30 35961 C 3495.8 -1.41315 -1.34369 0
M  V30 35962 O 3495.07 -0.580029 -1.87116 0
M  V30 35963 H 3493.65 -0.746996 -0.00239476 0
M  V30 35964 H 3496.31 -1.81936 0.69896 0
M  V30 35965 H 3495.41 -3.11928 -0.103616 0
M  V30 35966 N 3495.71 -0.269505 -1.55279 0
M  V30 35967 C 3496.67 0.60726 -2.21009 0
M  V30 35968 C 3497.67 1.08562 -1.18621 0
M  V30 35969 O 3498.86 0.986695 -1.43562 0
M  V30 35970 C 3495.99 1.83716 -2.8716 0
M  V30 35971 H 3497.18 0.0334367 -2.99881 0
M  V30 35972 H 3494.74 -0.0200848 -1.56287 0
M  V30 35973 H 3495.47 2.45164 -2.12285 0
M  V30 35974 H 3495.26 1.50213 -3.62186 0
M  V30 35975 H 3496.75 2.46077 -3.37396 0
M  V30 35976 N 3497.18 1.576 0.00329885 0
M  V30 35977 C 3498.13 2.09333 1.01402 0
M  V30 35978 C 3499.13 1.0126 1.35804 0
M  V30 35979 O 3500.33 1.19728 1.34407 0
M  V30 35980 H 3496.71 0.668372 0.344649 0
M  V30 35981 H 3498.68 2.93248 0.552103 0
M  V30 35982 C 3497.43 2.60922 2.29815 0
M  V30 35983 H 3496.75 3.43712 2.0421 0
M  V30 35984 H 3498.19 3.00803 2.98821 0
M  V30 35985 C 3496.65 1.52188 3.00567 0
M  V30 35986 O 3497.18 0.902886 3.91422 0
M  V30 35987 N 3495.39 1.25013 2.62336 0
M  V30 35988 H 3494.93 1.75534 1.88535 0
M  V30 35989 H 3494.89 0.524791 3.09989 0
M  V30 35990 N 3498.66 -0.276003 1.55164 0
M  V30 35991 C 3499.91 -1.0095 1.75889 0
M  V30 35992 C 3500.24 -1.86049 0.556732 0
M  V30 35993 O 3499.52 -1.89323 -0.445765 0
M  V30 35994 C 3499.8 -1.89457 3.06232 0
M  V30 35995 C 3499.65 -1.07372 4.36797 0
M  V30 35996 C 3500.97 -2.88217 3.32594 0
M  V30 35997 H 3498.09 -0.365584 0.639935 0
M  V30 35998 H 3500.73 -0.282123 1.87894 0
M  V30 35999 H 3498.88 -2.51476 2.96128 0
M  V30 36000 H 3500.55 -0.474468 4.58853 0
M  V30 36001 H 3498.8 -0.377089 4.32158 0
M  V30 36002 H 3499.47 -1.72612 5.24318 0
M  V30 36003 H 3501.94 -2.36332 3.42471 0
M  V30 36004 H 3500.82 -3.4729 4.25066 0
M  V30 36005 H 3501.08 -3.63185 2.52089 0
M  V30 36006 N 3500.14 -1.48046 -0.540378 0
M  V30 36007 C 3501.07 -1.64683 -1.65535 0
M  V30 36008 C 3502.05 -0.495876 -1.62712 0
M  V30 36009 O 3503.24 -0.727204 -1.8007 0
M  V30 36010 C 3500.37 -1.67666 -3.04147 0
M  V30 36011 C 3499.32 -2.82157 -3.21825 0
M  V30 36012 C 3498.65 -2.70224 -4.61393 0
M  V30 36013 C 3499.95 -4.23572 -3.05588 0
M  V30 36014 H 3501.64 -2.58024 -1.51868 0
M  V30 36015 H 3499.19 -1.24173 -0.729186 0
M  V30 36016 H 3501.14 -1.77894 -3.8201 0
M  V30 36017 H 3499.86 -0.708963 -3.18812 0
M  V30 36018 H 3498.52 -2.71468 -2.46375 0
M  V30 36019 H 3498.17 -1.71445 -4.7288 0
M  V30 36020 H 3497.87 -3.47043 -4.74168 0
M  V30 36021 H 3499.39 -2.82404 -5.41369 0
M  V30 36022 H 3500.81 -4.3515 -3.73253 0
M  V30 36023 H 3499.21 -5.01309 -3.29863 0
M  V30 36024 H 3500.28 -4.40761 -2.02132 0
M  V30 36025 N 3501.62 0.788444 -1.3646 0
M  V30 36026 C 3502.85 1.57729 -1.339 0
M  V30 36027 C 3503.26 1.88632 0.0795139 0
M  V30 36028 O 3502.62 1.50197 1.03668 0
M  V30 36029 C 3502.67 2.89769 -2.16139 0
M  V30 36030 O 3502.39 2.60197 -3.52462 0
M  V30 36031 C 3503.89 3.8407 -2.21371 0
M  V30 36032 H 3501.11 0.489189 -0.459277 0
M  V30 36033 H 3503.66 0.978494 -1.79571 0
M  V30 36034 H 3501.81 3.46115 -1.74021 0
M  V30 36035 H 3502.22 3.44633 -3.95384 0
M  V30 36036 H 3503.7 4.73775 -2.83269 0
M  V30 36037 H 3504.18 4.2199 -1.21743 0
M  V30 36038 H 3504.78 3.33657 -2.63729 0
M  V30 36039 N 3503.1 1.20755 1.01271 0
M  V30 36040 C 3504.03 0.983842 2.11761 0
M  V30 36041 C 3505.01 -0.0885337 1.69869 0
M  V30 36042 O 3506.19 0.069758 1.94075 0
M  V30 36043 C 3503.32 0.539348 3.43086 0
M  V30 36044 C 3502.28 1.55541 3.98737 0
M  V30 36045 C 3501.6 0.967414 5.25876 0
M  V30 36046 C 3502.9 2.94019 4.31683 0
M  V30 36047 H 3504.6 1.90794 2.30734 0
M  V30 36048 H 3502.14 0.918754 1.10882 0
M  V30 36049 H 3504.1 0.370053 4.19772 0
M  V30 36050 H 3502.82 -0.420378 3.23883 0
M  V30 36051 H 3501.48 1.71213 3.24163 0
M  V30 36052 H 3501.13 -0.000359892 5.03 0
M  V30 36053 H 3500.83 1.64604 5.64074 0
M  V30 36054 H 3502.35 0.809273 6.05213 0
M  V30 36055 H 3503.76 2.81835 4.99241 0
M  V30 36056 H 3502.16 3.58824 4.81005 0
M  V30 36057 H 3503.23 3.45448 3.40284 0
M  V30 36058 N 3504.58 -1.20642 1.01406 0
M  V30 36059 C 3505.82 -1.89264 0.697277 0
M  V30 36060 C 3506.14 -1.79543 -0.776118 0
M  V30 36061 O 3507.34 -2.43276 -1.20536 0
M  V30 36062 C 3505.8 -3.39419 1.19677 0
M  V30 36063 C 3505.41 -3.57731 2.69689 0
M  V30 36064 C 3507.15 -4.13611 0.955298 0
M  V30 36065 C 3505.06 -5.01699 3.13133 0
M  V30 36066 H 3503.99 -0.708807 0.257117 0
M  V30 36067 H 3506.64 -1.36496 1.22642 0
M  V30 36068 H 3505.02 -3.91495 0.595631 0
M  V30 36069 H 3506.2 -3.16053 3.35331 0
M  V30 36070 H 3504.51 -2.96906 2.91952 0
M  V30 36071 H 3507.11 -5.19755 1.25533 0
M  V30 36072 H 3507.45 -4.16159 -0.108289 0
M  V30 36073 H 3507.98 -3.67628 1.51969 0
M  V30 36074 H 3504.72 -5.04304 4.18757 0
M  V30 36075 H 3504.24 -5.44197 2.5221 0
M  V30 36076 H 3505.92 -5.70264 3.05627 0
M  V30 36077 N 3506.05 -0.789968 -1.36372 0
M  V30 36078 C 3506.96 -0.189914 -2.3383 0
M  V30 36079 C 3507.98 0.658242 -1.61069 0
M  V30 36080 O 3509.16 0.573898 -1.9305 0
M  V30 36081 C 3506.22 0.664845 -3.40266 0
M  V30 36082 C 3505.28 -0.201873 -4.28825 0
M  V30 36083 C 3504.51 0.612185 -5.30177 0
M  V30 36084 O 3504.74 1.84812 -5.3963 0
M  V30 36085 O 3503.67 0.0117906 -6.01899 0
M  V30 36086 H 3507.5 -0.995721 -2.86913 0
M  V30 36087 H 3505.08 -0.551436 -1.38851 0
M  V30 36088 H 3506.96 1.15224 -4.05341 0
M  V30 36089 H 3505.64 1.44853 -2.89481 0
M  V30 36090 H 3504.55 -0.736038 -3.66788 0
M  V30 36091 H 3505.88 -0.949088 -4.82963 0
M  V30 36092 N 3507.53 1.47986 -0.542031 0
M  V30 36093 C 3508.48 2.29805 0.214111 0
M  V30 36094 C 3509.45 1.38121 0.9226 0
M  V30 36095 O 3510.63 1.67084 0.921272 0
M  V30 36096 C 3507.77 3.21758 1.24762 0
M  V30 36097 C 3506.89 4.28526 0.546749 0
M  V30 36098 C 3506.02 5.07647 1.56423 0
M  V30 36099 C 3505.06 6.06205 0.847491 0
M  V30 36100 N 3504.2 6.78339 1.81109 0
M  V30 36101 H 3509.04 2.93948 -0.489758 0
M  V30 36102 H 3506.57 1.44902 -0.253357 0
M  V30 36103 H 3508.53 3.7348 1.85926 0
M  V30 36104 H 3507.16 2.59512 1.91972 0
M  V30 36105 H 3506.21 3.79978 -0.179092 0
M  V30 36106 H 3507.53 4.98798 -0.01545 0
M  V30 36107 H 3506.68 5.63443 2.24983 0
M  V30 36108 H 3505.42 4.37242 2.16034 0
M  V30 36109 H 3504.42 5.49601 0.147892 0
M  V30 36110 H 3505.65 6.78612 0.257335 0
M  V30 36111 H 3503.6 6.10676 2.39605 0
M  V30 36112 H 3503.51 7.44728 1.30064 0
M  V30 36113 H 3504.78 7.38718 2.48829 0
M  V30 36114 N 3509.01 0.277736 1.55133 0
M  V30 36115 C 3510.29 -0.390219 1.91668 0
M  V30 36116 C 3510.67 -1.73516 1.20231 0
M  V30 36117 O 3510.01 -2.26104 0.330052 0
M  V30 36118 C 3510.22 -0.527909 3.44984 0
M  V30 36119 C 3511.57 -0.809592 4.1681 0
M  V30 36120 O 3512.6 -0.612617 3.50892 0
M  V30 36121 O 3511.46 -1.18647 5.33465 0
M  V30 36122 H 3508.55 -0.214081 0.798811 0
M  V30 36123 H 3511.1 0.324082 1.66577 0
M  V30 36124 H 3509.87 0.418491 3.89056 0
M  V30 36125 H 3509.49 -1.29158 3.76037 0
M  V30 36126 N 3510.49 -1.57599 0.00505908 0
M  V30 36127 C 3511.74 -1.89965 -0.677946 0
M  V30 36128 C 3512.05 -0.880621 -1.74655 0
M  V30 36129 O 3513.26 -1.09468 -2.48453 0
M  V30 36130 C 3511.71 -3.37235 -1.25702 0
M  V30 36131 C 3511.32 -4.47445 -0.222967 0
M  V30 36132 C 3513.06 -3.78703 -1.91792 0
M  V30 36133 C 3510.97 -5.85795 -0.812313 0
M  V30 36134 H 3509.9 -0.708857 -0.256979 0
M  V30 36135 H 3512.55 -1.8338 0.066431 0
M  V30 36136 H 3510.93 -3.38674 -2.05222 0
M  V30 36137 H 3512.11 -4.5753 0.54802 0
M  V30 36138 H 3510.42 -4.15028 0.337787 0
M  V30 36139 H 3513.02 -4.79406 -2.36799 0
M  V30 36140 H 3513.36 -3.12485 -2.75062 0
M  V30 36141 H 3513.9 -3.79585 -1.18997 0
M  V30 36142 H 3510.63 -6.55497 -0.0182879 0
M  V30 36143 H 3510.15 -5.79364 -1.55234 0
M  V30 36144 H 3511.83 -6.33611 -1.30941 0
M  V30 36145 N 3511.97 0.267771 -1.55309 0
M  V30 36146 C 3513.38 0.615234 -1.47265 0
M  V30 36147 C 3513.58 1.89279 -0.691058 0
M  V30 36148 O 3512.64 2.51608 -0.212009 0
M  V30 36149 C 3513.95 0.737339 -2.9152 0
M  V30 36150 C 3515.5 0.831048 -3.01766 0
M  V30 36151 C 3515.97 0.984887 -4.47285 0
M  V30 36152 N 3517.46 1.05028 -4.51136 0
M  V30 36153 C 3518.2 1.18821 -5.60954 0
M  V30 36154 N 3517.7 1.29299 -6.80627 0
M  V30 36155 N 3519.49 1.21972 -5.48707 0
M  V30 36156 H 3511.64 -0.571176 -2.04576 0
M  V30 36157 H 3513.9 -0.194157 -0.927905 0
M  V30 36158 H 3513.61 -0.131036 -3.51456 0
M  V30 36159 H 3513.48 1.61597 -3.40832 0
M  V30 36160 H 3515.87 1.68989 -2.41923 0
M  V30 36161 H 3515.95 -0.0722959 -2.55698 0
M  V30 36162 H 3515.59 0.130686 -5.07732 0
M  V30 36163 H 3515.52 1.90296 -4.91014 0
M  V30 36164 H 3518.02 0.981487 -3.64932 0
M  V30 36165 H 3518.33 1.39672 -7.60073 0
M  V30 36166 H 3516.67 1.26294 -6.83429 0
M  V30 36167 H 3519.86 1.1342 -4.54152 0
M  V30 36168 H 3520.04 1.32377 -6.34335 0
M  V30 36169 N 3513.44 1.48331 0.532519 0
M  V30 36170 C 3514.67 1.59876 1.31329 0
M  V30 36171 C 3515.09 0.25807 1.87028 0
M  V30 36172 O 3514.44 -0.752287 1.66274 0
M  V30 36173 C 3514.49 2.64339 2.46591 0
M  V30 36174 O 3514.22 3.93205 1.93188 0
M  V30 36175 C 3515.72 2.863 3.38449 0
M  V30 36176 H 3512.94 0.539136 0.399467 0
M  V30 36177 H 3515.48 1.94139 0.642662 0
M  V30 36178 H 3513.64 2.32941 3.09544 0
M  V30 36179 H 3514.05 4.50493 2.68619 0
M  V30 36180 H 3515.52 3.63199 4.15681 0
M  V30 36181 H 3516 1.95029 3.93523 0
M  V30 36182 H 3516.61 3.18991 2.81291 0
M  V30 36183 N 3514.92 -0.781196 1.36876 0
M  V30 36184 C 3516.33 -1.3569 1.28239 0
M  V30 36185 C 3516.68 -1.9606 -0.0741942 0
M  V30 36186 O 3515.81 -1.93148 -0.975847 0
M  V30 36187 C 3516.4 -2.46698 2.32219 0
M  V30 36188 C 3514.96 -3.00061 2.27245 0
M  V30 36189 C 3514.11 -1.73202 2.16556 0
M  V30 36190 H 3517.06 -0.582191 1.47635 0
M  V30 36191 H 3517.08 -3.25932 1.96338 0
M  V30 36192 H 3516.59 -2.02729 3.30942 0
M  V30 36193 H 3514.69 -3.48429 1.32016 0
M  V30 36194 H 3514.81 -3.56317 3.20273 0
M  V30 36195 H 3513.17 -1.95758 1.62945 0
M  V30 36196 H 3513.95 -1.3135 3.17178 0
M  V30 36197 N 3516.4 -1.21291 -1.0063 0
M  V30 36198 C 3517.35 -0.968017 -2.115 0
M  V30 36199 C 3518.34 0.0842727 -1.6919 0
M  V30 36200 O 3519.55 -0.0670016 -1.79875 0
M  V30 36201 H 3515.92 -0.295771 -0.691392 0
M  V30 36202 H 3517.89 -1.90915 -2.29334 0
M  V30 36203 C 3516.64 -0.547879 -3.43356 0
M  V30 36204 H 3515.97 -1.34922 -3.76346 0
M  V30 36205 H 3517.41 -0.415833 -4.21956 0
M  V30 36206 C 3515.86 0.741028 -3.28649 0
M  V30 36207 O 3516.39 1.79689 -3.5927 0
M  V30 36208 N 3514.6 0.707034 -2.81868 0
M  V30 36209 H 3514.15 -0.152492 -2.57148 0
M  V30 36210 H 3514.11 1.56974 -2.72409 0
M  V30 36211 N 3517.88 1.20103 -1.02045 0
M  V30 36212 C 3519.13 1.89195 -0.710599 0
M  V30 36213 C 3519.45 1.79477 0.762439 0
M  V30 36214 O 3518.72 1.19968 1.54869 0
M  V30 36215 H 3517.3 0.700347 -0.259852 0
M  V30 36216 H 3519.96 1.45845 -1.29287 0
M  V30 36217 H 3519.05 2.95733 -0.997415 0
M  V30 36218 N 3519.36 0.797189 1.35951 0
M  V30 36219 C 3520.29 0.215318 2.32505 0
M  V30 36220 C 3521.27 -0.654018 1.57024 0
M  V30 36221 O 3522.45 -0.586235 1.8514 0
M  V30 36222 C 3519.58 -0.644497 3.41268 0
M  V30 36223 C 3518.54 0.125576 4.27816 0
M  V30 36224 C 3517.86 -0.855335 5.27814 0
M  V30 36225 C 3519.16 1.31922 5.05365 0
M  V30 36226 H 3520.86 1.02198 2.81418 0
M  V30 36227 H 3518.4 0.492886 1.35302 0
M  V30 36228 H 3520.36 -1.06156 4.0781 0
M  V30 36229 H 3519.08 -1.48395 2.90941 0
M  V30 36230 H 3517.74 0.523703 3.6284 0
M  V30 36231 H 3517.39 -1.69003 4.73758 0
M  V30 36232 H 3517.09 -0.344463 5.86589 0
M  V30 36233 H 3518.61 -1.2708 5.97229 0
M  V30 36234 H 3520.02 0.977518 5.64905 0
M  V30 36235 H 3518.42 1.76392 5.7359 0
M  V30 36236 H 3519.49 2.11065 4.36554 0
M  V30 36237 N 3520.83 -1.47696 0.549872 0
M  V30 36238 C 3521.8 -2.284 -0.191386 0
M  V30 36239 C 3522.8 -1.36528 -0.849509 0
M  V30 36240 O 3523.99 -1.5923 -0.706498 0
M  V30 36241 C 3521.12 -3.15997 -1.27902 0
M  V30 36242 H 3522.31 -2.95403 0.517427 0
M  V30 36243 H 3519.87 -1.53265 0.306537 0
M  V30 36244 H 3520.6 -2.53669 -2.02046 0
M  V30 36245 H 3520.39 -3.836 -0.811999 0
M  V30 36246 H 3521.88 -3.76822 -1.79985 0
M  V30 36247 N 3522.31 -0.285959 -1.54984 0
M  V30 36248 C 3523.56 0.328398 -1.99009 0
M  V30 36249 C 3523.87 1.56156 -1.1779 0
M  V30 36250 O 3525.08 2.24956 -1.5201 0
M  V30 36251 C 3523.54 0.635626 -3.54243 0
M  V30 36252 C 3523.14 -0.578349 -4.44251 0
M  V30 36253 C 3524.89 1.21201 -4.0683 0
M  V30 36254 C 3522.8 -0.245107 -5.90892 0
M  V30 36255 H 3521.73 0.126481 -0.743316 0
M  V30 36256 H 3524.38 -0.392312 -1.79257 0
M  V30 36257 H 3522.76 1.41553 -3.69836 0
M  V30 36258 H 3523.93 -1.35496 -4.40429 0
M  V30 36259 H 3522.25 -1.07232 -4.02356 0
M  V30 36260 H 3524.84 1.47532 -5.13944 0
M  V30 36261 H 3525.19 2.14942 -3.56519 0
M  V30 36262 H 3525.72 0.494152 -3.94719 0
M  V30 36263 H 3522.46 -1.15068 -6.45321 0
M  V30 36264 H 3521.98 0.494531 -5.97758 0
M  V30 36265 H 3523.66 0.158777 -6.46805 0
M  V30 36266 N 3523.79 1.57594 -0.0134169 0
M  V30 36267 C 3525.07 1.824 0.706384 0
M  V30 36268 C 3525.45 0.894017 1.91234 0
M  V30 36269 O 3524.8 -0.0541273 2.28436 0
M  V30 36270 C 3525.01 3.3123 1.09945 0
M  V30 36271 C 3526.35 3.97309 1.49769 0
M  V30 36272 O 3527.38 3.35632 1.19287 0
M  V30 36273 O 3526.24 5.05983 2.06502 0
M  V30 36274 H 3523.33 0.751547 0.345118 0
M  V30 36275 H 3525.88 1.69653 -0.0398985 0
M  V30 36276 H 3524.65 3.90561 0.240446 0
M  V30 36277 H 3524.27 3.49025 1.9044 0
M  V30 36278 N 3525.27 -0.259531 1.55448 0
M  V30 36279 C 3526.22 -1.3237 1.8564 0
M  V30 36280 C 3527.2 -1.44077 0.716281 0
M  V30 36281 O 3528.39 -1.47531 0.977933 0
M  V30 36282 C 3525.52 -2.68153 2.14357 0
M  V30 36283 C 3524.61 -2.60502 3.34663 0
M  V30 36284 N 3525 -2.22476 4.54245 0
M  V30 36285 C 3523.3 -2.91539 3.37522 0
M  V30 36286 C 3524 -2.25147 5.36362 0
M  V30 36287 N 3522.98 -2.64153 4.75104 0
M  V30 36288 H 3526.78 -1.02 2.75632 0
M  V30 36289 H 3524.29 -0.468167 1.55505 0
M  V30 36290 H 3526.29 -3.44936 2.34148 0
M  V30 36291 H 3524.95 -2.99401 1.25656 0
M  V30 36292 H 3525.96 -1.94229 4.801 0
M  V30 36293 H 3522.64 -3.2741 2.59054 0
M  V30 36294 H 3524.03 -1.98194 6.42004 0
M  V30 36295 N 3526.75 -1.48611 -0.524645 0
M  V30 36296 C 3528.16 -1.3485 -0.85368 0
M  V30 36297 C 3528.36 -0.363564 -1.98193 0
M  V30 36298 O 3527.42 0.213304 -2.51597 0
M  V30 36299 C 3528.73 -2.75009 -1.21617 0
M  V30 36300 C 3530.28 -2.83536 -1.32575 0
M  V30 36301 C 3530.75 -4.24409 -1.72165 0
M  V30 36302 N 3532.25 -4.27108 -1.79258 0
M  V30 36303 C 3532.98 -5.33053 -2.11287 0
M  V30 36304 N 3532.48 -6.4927 -2.41703 0
M  V30 36305 N 3534.27 -5.20451 -2.12338 0
M  V30 36306 H 3526.42 -2.11261 0.219708 0
M  V30 36307 H 3528.68 -0.947329 0.035661 0
M  V30 36308 H 3528.39 -3.48669 -0.460714 0
M  V30 36309 H 3528.26 -3.08874 -2.1651 0
M  V30 36310 H 3530.65 -2.10128 -2.07196 0
M  V30 36311 H 3530.73 -2.53284 -0.357899 0
M  V30 36312 H 3530.38 -4.98336 -0.981021 0
M  V30 36313 H 3530.31 -4.52109 -2.70009 0
M  V30 36314 H 3532.8 -3.43281 -1.58007 0
M  V30 36315 H 3533.11 -7.25848 -2.65263 0
M  V30 36316 H 3531.45 -6.52536 -2.39211 0
M  V30 36317 H 3534.65 -4.28672 -1.88036 0
M  V30 36318 H 3534.82 -6.03117 -2.36967 0
M  V30 36319 N 3528.22 0.773926 -1.37289 0
M  V30 36320 C 3529.19 1.86876 -1.32703 0
M  V30 36321 C 3530.19 1.59125 -0.231514 0
M  V30 36322 O 3531.38 1.67247 -0.487232 0
M  V30 36323 C 3528.51 3.2397 -1.06096 0
M  V30 36324 H 3529.7 1.92355 -2.30086 0
M  V30 36325 H 3527.26 0.973438 -1.22286 0
M  V30 36326 H 3527.99 3.24168 -0.0923438 0
M  V30 36327 H 3527.78 3.45504 -1.85389 0
M  V30 36328 H 3529.27 4.04046 -1.05531 0
M  V30 36329 N 3529.7 1.21823 0.99985 0
M  V30 36330 C 3530.61 0.998267 2.12301 0
M  V30 36331 C 3531.63 -0.0512617 1.73924 0
M  V30 36332 O 3532.8 0.139931 2.00913 0
M  V30 36333 C 3529.87 0.571292 3.41961 0
M  V30 36334 C 3528.93 1.69363 3.9448 0
M  V30 36335 C 3528.16 1.28694 5.17951 0
M  V30 36336 O 3528.39 0.162741 5.70168 0
M  V30 36337 O 3527.32 2.10081 5.64048 0
M  V30 36338 H 3531.15 1.93909 2.33737 0
M  V30 36339 H 3528.73 1.00356 1.10676 0
M  V30 36340 H 3530.61 0.343208 4.2 0
M  V30 36341 H 3529.29 -0.340758 3.21901 0
M  V30 36342 H 3528.2 1.97617 3.17645 0
M  V30 36343 H 3529.53 2.5833 4.18959 0
M  V30 36344 N 3531.18 -1.1956 1.0268 0
M  V30 36345 C 3532.13 -2.22708 0.605804 0
M  V30 36346 C 3533.1 -1.6171 -0.379332 0
M  V30 36347 O 3534.28 -1.88786 -0.276463 0
M  V30 36348 C 3531.42 -3.45078 -0.0393705 0
M  V30 36349 C 3530.54 -4.20467 0.991555 0
M  V30 36350 C 3529.67 -5.30257 0.316362 0
M  V30 36351 C 3528.71 -5.97401 1.33334 0
M  V30 36352 N 3527.85 -6.98759 0.684101 0
M  V30 36353 H 3532.69 -2.58077 1.48998 0
M  V30 36354 H 3530.22 -1.268 0.745658 0
M  V30 36355 H 3532.18 -4.14971 -0.430653 0
M  V30 36356 H 3530.81 -3.1037 -0.887138 0
M  V30 36357 H 3529.86 -3.49538 1.50091 0
M  V30 36358 H 3531.18 -4.66545 1.76457 0
M  V30 36359 H 3530.33 -6.06561 -0.129877 0
M  V30 36360 H 3529.07 -4.85244 -0.488871 0
M  V30 36361 H 3528.07 -5.1985 1.78986 0
M  V30 36362 H 3529.3 -6.44499 2.14003 0
M  V30 36363 H 3527.24 -6.55922 -0.101077 0
M  V30 36364 H 3527.16 -7.43017 1.39503 0
M  V30 36365 H 3528.43 -7.7906 0.261795 0
M  V30 36366 N 3532.66 -0.804387 -1.35526 0
M  V30 36367 C 3533.59 -0.227645 -2.32388 0
M  V30 36368 C 3534.57 0.645681 -1.57369 0
M  V30 36369 O 3535.75 0.576409 -1.85449 0
M  V30 36370 C 3532.88 0.62639 -3.41605 0
M  V30 36371 C 3531.84 -0.148262 -4.27743 0
M  V30 36372 C 3531.16 0.827332 -5.28261 0
M  V30 36373 C 3532.46 -1.346 -5.04658 0
M  V30 36374 H 3534.16 -1.03689 -2.80872 0
M  V30 36375 H 3531.7 -0.500054 -1.35039 0
M  V30 36376 H 3533.66 1.03992 -4.08367 0
M  V30 36377 H 3532.38 1.4685 -2.91724 0
M  V30 36378 H 3531.04 -0.542938 -3.62557 0
M  V30 36379 H 3530.69 1.66488 -4.74648 0
M  V30 36380 H 3530.39 0.31335 -5.86764 0
M  V30 36381 H 3531.91 1.23911 -5.97895 0
M  V30 36382 H 3533.33 -1.00746 -5.64378 0
M  V30 36383 H 3531.72 -1.79432 -5.72647 0
M  V30 36384 H 3532.79 -2.13377 -4.35429 0
M  V30 36385 N 3534.14 1.47403 -0.557697 0
M  V30 36386 C 3535.37 2.06564 -0.0386401 0
M  V30 36387 C 3535.78 1.41076 1.26072 0
M  V30 36388 O 3535.12 0.501484 1.76722 0
M  V30 36389 C 3535.18 3.5878 0.227397 0
M  V30 36390 C 3534.84 4.46311 -0.982604 0
M  V30 36391 C 3535.84 4.84396 -1.8883 0
M  V30 36392 C 3533.53 4.87819 -1.19741 0
M  V30 36393 C 3535.52 5.62787 -2.99248 0
M  V30 36394 C 3533.21 5.65975 -2.30469 0
M  V30 36395 C 3534.21 6.0337 -3.20053 0
M  V30 36396 O 3533.89 6.79951 -4.28861 0
M  V30 36397 H 3533.63 0.674629 -0.0430348 0
M  V30 36398 H 3536.18 1.90387 -0.770835 0
M  V30 36399 H 3534.41 3.73171 1.01391 0
M  V30 36400 H 3536.1 3.9996 0.691895 0
M  V30 36401 H 3536.86 4.52928 -1.73439 0
M  V30 36402 H 3532.74 4.58178 -0.509304 0
M  V30 36403 H 3536.29 5.91894 -3.69197 0
M  V30 36404 H 3532.18 5.96856 -2.45832 0
M  V30 36405 H 3532.95 6.98345 -4.26915 0
M  V30 36406 N 3535.62 0.294175 1.5483 0
M  V30 36407 C 3536.86 -0.3171 2.00002 0
M  V30 36408 C 3537.19 -1.54419 1.18259 0
M  V30 36409 O 3536.45 -1.94159 0.245069 0
M  V30 36410 C 3536.74 -0.724888 3.49972 0
M  V30 36411 C 3536.41 0.399695 4.49125 0
M  V30 36412 C 3535.07 0.708438 4.75957 0
M  V30 36413 C 3537.42 1.15653 5.08206 0
M  V30 36414 C 3534.75 1.77726 5.59134 0
M  V30 36415 C 3537.1 2.21522 5.92546 0
M  V30 36416 C 3535.77 2.5301 6.17691 0
M  V30 36417 H 3535.04 -0.116035 0.731858 0
M  V30 36418 H 3537.69 0.411853 1.87019 0
M  V30 36419 H 3535.99 -1.53382 3.60529 0
M  V30 36420 H 3537.69 -1.20892 3.82343 0
M  V30 36421 H 3534.28 0.148953 4.28341 0
M  V30 36422 H 3538.46 0.931264 4.87485 0
M  V30 36423 H 3533.72 2.02603 5.76855 0
M  V30 36424 H 3537.89 2.80629 6.37354 0
M  V30 36425 H 3535.52 3.35963 6.81933 0
M  V30 36426 N 3537.09 -1.57585 0.0217743 0
M  V30 36427 C 3538.32 -1.96197 -0.672425 0
M  V30 36428 C 3538.74 -0.897856 -1.65288 0
M  V30 36429 O 3538.1 0.14197 -1.80743 0
M  V30 36430 C 3538.15 -3.33907 -1.36156 0
M  V30 36431 O 3537.25 -3.29751 -2.47665 0
M  V30 36432 H 3536.59 -0.639911 -0.177227 0
M  V30 36433 H 3539.12 -2.04438 0.0814433 0
M  V30 36434 H 3539.13 -3.69971 -1.72003 0
M  V30 36435 H 3537.81 -4.10902 -0.64282 0
M  V30 36436 H 3536.39 -3.05394 -2.13984 0
M  V30 36437 N 3538.57 0.251283 -1.55584 0
M  V30 36438 C 3539.85 1.00251 -1.67956 0
M  V30 36439 C 3540.23 2.03527 -0.560362 0
M  V30 36440 O 3539.58 2.24287 0.436771 0
M  V30 36441 C 3539.79 1.6398 -3.08077 0
M  V30 36442 C 3541.13 2.1433 -3.66535 0
M  V30 36443 O 3542.16 1.73928 -3.10849 0
M  V30 36444 O 3541.02 2.88498 -4.64146 0
M  V30 36445 H 3538.11 0.466363 -0.68296 0
M  V30 36446 H 3540.66 0.245417 -1.67916 0
M  V30 36447 H 3539.43 0.89256 -3.80984 0
M  V30 36448 H 3539.05 2.4632 -3.12109 0
M  V30 36449 N 3540.05 1.48887 0.516757 0
M  V30 36450 C 3541.01 1.63894 1.60223 0
M  V30 36451 C 3542.01 0.511506 1.52448 0
M  V30 36452 O 3543.2 0.777609 1.55881 0
M  V30 36453 C 3540.33 1.62156 2.99864 0
M  V30 36454 H 3541.53 2.60694 1.48251 0
M  V30 36455 H 3539.08 1.37682 0.73982 0
M  V30 36456 H 3539.82 0.66882 3.17328 0
M  V30 36457 H 3539.6 2.44019 3.06916 0
M  V30 36458 H 3541.09 1.75877 3.78757 0
M  V30 36459 N 3541.53 -0.766635 1.37697 0
M  V30 36460 C 3542.76 -1.55578 1.36393 0
M  V30 36461 C 3543.17 -1.88735 -0.049494 0
M  V30 36462 O 3542.53 -1.51827 -1.01266 0
M  V30 36463 C 3542.58 -2.86294 2.20722 0
M  V30 36464 O 3542.3 -2.54557 3.56556 0
M  V30 36465 C 3543.8 -3.805 2.27453 0
M  V30 36466 H 3541.02 -0.48182 0.467002 0
M  V30 36467 H 3543.56 -0.949802 1.81105 0
M  V30 36468 H 3541.72 -3.43303 1.79505 0
M  V30 36469 H 3542.13 -3.38299 4.00817 0
M  V30 36470 H 3543.61 -4.69208 2.9077 0
M  V30 36471 H 3544.08 -4.19999 1.28442 0
M  V30 36472 H 3544.69 -3.29419 2.69004 0
M  V30 36473 N 3543.01 -1.22351 -0.993375 0
M  V30 36474 C 3543.94 -1.01741 -2.10169 0
M  V30 36475 C 3544.92 0.0614977 -1.69989 0
M  V30 36476 O 3546.1 -0.100625 -1.93939 0
M  V30 36477 C 3543.23 -0.593862 -3.42185 0
M  V30 36478 C 3542.19 -1.61865 -3.96212 0
M  V30 36479 C 3541.51 -1.05095 -5.2427 0
M  V30 36480 C 3542.81 -3.0085 -4.26951 0
M  V30 36481 H 3544.51 -1.9444 -2.27669 0
M  V30 36482 H 3542.05 -0.936278 -1.09407 0
M  V30 36483 H 3544 -0.436788 -4.1913 0
M  V30 36484 H 3542.73 0.368798 -3.24511 0
M  V30 36485 H 3541.39 -1.76349 -3.21398 0
M  V30 36486 H 3541.04 -0.0796631 -5.02937 0
M  V30 36487 H 3540.74 -1.73557 -5.61384 0
M  V30 36488 H 3542.26 -0.905455 -6.03849 0
M  V30 36489 H 3543.67 -2.89742 -4.94694 0
M  V30 36490 H 3542.07 -3.66431 -4.75235 0
M  V30 36491 H 3543.14 -3.50818 -3.34746 0
M  V30 36492 N 3544.48 1.19014 -1.03313 0
M  V30 36493 C 3545.76 1.84604 -0.646571 0
M  V30 36494 C 3546.14 1.92137 0.874456 0
M  V30 36495 O 3545.49 1.44157 1.77288 0
M  V30 36496 C 3545.7 3.23335 -1.31359 0
M  V30 36497 C 3547.05 3.99452 -1.43956 0
M  V30 36498 O 3548.07 3.32748 -1.2711 0
M  V30 36499 O 3546.93 5.18947 -1.71337 0
M  V30 36500 H 3544.02 0.795724 -0.225281 0
M  V30 36501 H 3546.57 1.26468 -1.13154 0
M  V30 36502 H 3545.34 3.12713 -2.35216 0
M  V30 36503 H 3544.96 3.89121 -0.816757 0
M  V30 36504 N 3545.96 0.811563 1.35098 0
M  V30 36505 C 3546.91 0.223412 2.29716 0
M  V30 36506 C 3547.88 -0.645369 1.5305 0
M  V30 36507 O 3549.06 -0.589404 1.81468 0
M  V30 36508 C 3546.2 -0.617998 3.39521 0
M  V30 36509 C 3545.32 0.271768 4.31144 0
M  V30 36510 C 3544.45 -0.578121 5.28045 0
M  V30 36511 C 3543.49 0.311736 6.11306 0
M  V30 36512 N 3542.63 -0.498416 7.00329 0
M  V30 36513 H 3547.47 1.03568 2.79424 0
M  V30 36514 H 3545 0.522256 1.37517 0
M  V30 36515 H 3546.96 -1.12104 4.01856 0
M  V30 36516 H 3545.59 -1.39549 2.91077 0
M  V30 36517 H 3544.64 0.89295 3.69771 0
M  V30 36518 H 3545.96 0.956478 4.89544 0
M  V30 36519 H 3545.11 -1.1461 5.95776 0
M  V30 36520 H 3543.85 -1.29638 4.70155 0
M  V30 36521 H 3542.85 0.891945 5.42517 0
M  V30 36522 H 3544.08 1.02793 6.71275 0
M  V30 36523 H 3542.03 -1.20056 6.44921 0
M  V30 36524 H 3541.94 0.128143 7.55891 0
M  V30 36525 H 3543.21 -1.04951 7.72402 0
M  V30 36526 N 3547.44 -1.47105 0.565506 0
M  V30 36527 C 3548.69 -2.01655 0.0423685 0
M  V30 36528 C 3549 -1.44445 -1.3189 0
M  V30 36529 O 3550.21 -1.90709 -1.93241 0
M  V30 36530 C 3548.66 -3.59891 0.0252188 0
M  V30 36531 C 3548.27 -4.26094 1.38375 0
M  V30 36532 C 3550.02 -4.22162 -0.444876 0
M  V30 36533 C 3547.92 -5.7636 1.32526 0
M  V30 36534 H 3546.85 -0.753903 0.0120689 0
M  V30 36535 H 3549.5 -1.69014 0.714595 0
M  V30 36536 H 3547.89 -3.89532 -0.712825 0
M  V30 36537 H 3549.06 -4.08086 2.14016 0
M  V30 36538 H 3547.37 -3.75846 1.79245 0
M  V30 36539 H 3549.97 -5.32289 -0.507163 0
M  V30 36540 H 3550.31 -3.89907 -1.45869 0
M  V30 36541 H 3550.85 -3.97084 0.238566 0
M  V30 36542 H 3547.59 -6.13247 2.31534 0
M  V30 36543 H 3547.11 -5.96682 0.610779 0
M  V30 36544 H 3548.79 -6.38735 1.03084 0
M  V30 36545 N 3548.92 -0.302382 -1.54672 0
M  V30 36546 C 3549.83 0.582538 -2.27252 0
M  V30 36547 C 3550.84 1.14725 -1.30821 0
M  V30 36548 O 3552.02 1.17174 -1.63805 0
M  V30 36549 C 3549.09 1.73751 -3.00019 0
M  V30 36550 C 3548.15 1.20675 -4.1199 0
M  V30 36551 C 3547.38 2.30668 -4.81278 0
M  V30 36552 O 3547.6 3.50594 -4.49934 0
M  V30 36553 O 3546.54 1.97281 -5.68651 0
M  V30 36554 H 3550.36 -0.00626703 -3.03699 0
M  V30 36555 H 3547.95 -0.0687946 -1.49242 0
M  V30 36556 H 3549.83 2.41039 -3.45656 0
M  V30 36557 H 3548.5 2.3129 -2.26466 0
M  V30 36558 H 3547.41 0.499559 -3.7075 0
M  V30 36559 H 3548.74 0.676772 -4.87525 0
M  V30 36560 N 3550.4 1.57571 -0.0301311 0
M  V30 36561 C 3551.81 1.56229 0.326268 0
M  V30 36562 C 3552.01 1.03584 1.72837 0
M  V30 36563 O 3551.07 0.683022 2.43087 0
M  V30 36564 C 3552.38 3.00196 0.173948 0
M  V30 36565 C 3553.93 3.12027 0.246639 0
M  V30 36566 C 3554.4 4.57835 0.123096 0
M  V30 36567 N 3555.9 4.6285 0.180047 0
M  V30 36568 C 3556.63 5.73298 0.108252 0
M  V30 36569 N 3556.13 6.92798 -0.0146866 0
M  V30 36570 N 3557.92 5.61866 0.162313 0
M  V30 36571 H 3550.07 1.90121 -0.946978 0
M  V30 36572 H 3552.33 0.874592 -0.365778 0
M  V30 36573 H 3552.04 3.42668 -0.791931 0
M  V30 36574 H 3551.91 3.65203 0.94373 0
M  V30 36575 H 3554.3 2.69467 1.20298 0
M  V30 36576 H 3554.38 2.49739 -0.553537 0
M  V30 36577 H 3554.03 5.01075 -0.829828 0
M  V30 36578 H 3553.96 5.18103 0.942149 0
M  V30 36579 H 3556.45 3.76897 0.27517 0
M  V30 36580 H 3556.76 7.72775 -0.0627498 0
M  V30 36581 H 3555.1 6.94982 -0.0494828 0
M  V30 36582 H 3558.3 4.67395 0.256765 0
M  V30 36583 H 3558.47 6.47918 0.102899 0
M  V30 36584 N 3551.87 -0.243029 1.55715 0
M  V30 36585 C 3553.11 -0.977835 1.79493 0
M  V30 36586 C 3553.48 -1.82375 0.600271 0
M  V30 36587 O 3554.68 -2.59064 0.716903 0
M  V30 36588 C 3552.95 -1.8124 3.08037 0
M  V30 36589 S 3554.51 -2.60577 3.53051 0
M  V30 36590 H 3551.33 -0.328844 0.630383 0
M  V30 36591 H 3553.93 -0.245337 1.93954 0
M  V30 36592 H 3552.63 -1.18072 3.93049 0
M  V30 36593 H 3552.16 -2.58758 2.96324 0
M  V30 36594 H 3554.18 -3.83647 3.1469 0
M  V30 36595 N 3553.35 -1.49159 -0.508854 0
M  V30 36596 C 3554.26 -1.67969 -1.63779 0
M  V30 36597 C 3555.28 -0.562236 -1.64666 0
M  V30 36598 O 3556.45 -0.835968 -1.83231 0
M  V30 36599 C 3553.52 -1.73479 -3.00176 0
M  V30 36600 C 3552.58 -2.97005 -3.09978 0
M  V30 36601 C 3551.81 -3.02243 -4.39869 0
M  V30 36602 O 3552.04 -2.15291 -5.2821 0
M  V30 36603 O 3550.97 -3.94629 -4.54479 0
M  V30 36604 H 3554.8 -2.63592 -1.50841 0
M  V30 36605 H 3552.38 -1.32808 -0.684283 0
M  V30 36606 H 3554.26 -1.79502 -3.81257 0
M  V30 36607 H 3552.94 -0.810343 -3.13393 0
M  V30 36608 H 3551.85 -2.96504 -2.28114 0
M  V30 36609 H 3553.18 -3.88904 -3.01686 0
M  V30 36610 N 3554.83 0.759322 -1.38102 0
M  V30 36611 C 3556.06 1.54628 -1.37017 0
M  V30 36612 C 3556.47 1.8915 0.043351 0
M  V30 36613 O 3555.81 1.52857 1.01885 0
M  V30 36614 C 3555.87 2.8769 -2.1558 0
M  V30 36615 C 3555.54 2.75737 -3.64442 0
M  V30 36616 C 3556.53 2.45921 -4.5806 0
M  V30 36617 C 3554.22 2.93369 -4.07725 0
M  V30 36618 C 3556.21 2.33884 -5.92939 0
M  V30 36619 C 3553.9 2.80952 -5.42687 0
M  V30 36620 C 3554.9 2.51251 -6.35108 0
M  V30 36621 O 3554.59 2.38882 -7.67587 0
M  V30 36622 H 3554.32 0.485268 -0.470629 0
M  V30 36623 H 3556.87 0.947968 -1.82216 0
M  V30 36624 H 3555.1 3.49689 -1.6509 0
M  V30 36625 H 3556.79 3.49165 -2.06974 0
M  V30 36626 H 3557.56 2.31973 -4.25927 0
M  V30 36627 H 3553.44 3.15485 -3.3614 0
M  V30 36628 H 3556.98 2.10623 -6.65044 0
M  V30 36629 H 3552.88 2.94472 -5.74418 0
M  V30 36630 H 3553.65 2.54138 -7.78046 0
M  V30 36631 N 3556.31 1.22876 0.986873 0
M  V30 36632 C 3557.59 0.965341 1.70119 0
M  V30 36633 C 3557.97 -0.517888 2.04649 0
M  V30 36634 O 3557.31 -1.48746 1.73456 0
M  V30 36635 C 3557.52 1.86902 2.94735 0
M  V30 36636 C 3558.87 2.12867 3.67386 0
M  V30 36637 O 3559.9 1.84399 3.04755 0
M  V30 36638 O 3558.75 2.61114 4.80085 0
M  V30 36639 H 3555.85 0.36354 0.74281 0
M  V30 36640 H 3558.39 1.33889 1.04268 0
M  V30 36641 H 3557.17 2.872 2.65766 0
M  V30 36642 H 3556.79 1.49743 3.68324 0
M  V30 36643 N 3557.79 -1.18464 1.03942 0
M  V30 36644 C 3559.03 -1.88041 0.740609 0
M  V30 36645 C 3559.36 -1.80667 -0.73379 0
M  V30 36646 O 3558.63 -1.22416 -1.52941 0
M  V30 36647 H 3557.21 -0.696124 0.270961 0
M  V30 36648 H 3559.87 -1.4377 1.31591 0
M  V30 36649 H 3558.96 -2.94109 1.04434 0
M  V30 36650 N 3559.26 -0.818716 -1.34665 0
M  V30 36651 C 3560.49 -0.416621 -2.03172 0
M  V30 36652 C 3560.91 0.968293 -1.61263 0
M  V30 36653 O 3560.27 1.6293 -0.795199 0
M  V30 36654 C 3560.32 -0.521947 -3.56803 0
M  V30 36655 O 3559.42 0.459881 -4.09828 0
M  V30 36656 H 3558.77 -0.172148 -0.641297 0
M  V30 36657 H 3561.3 -1.10797 -1.72004 0
M  V30 36658 H 3561.31 -0.396172 -4.06072 0
M  V30 36659 H 3559.98 -1.53205 -3.86654 0
M  V30 36660 H 3558.56 0.29334 -3.71744 0
M  V30 36661 N 3560.74 1.46803 -0.573299 0
M  V30 36662 C 3561.69 2.2724 0.186045 0
M  V30 36663 C 3562.68 1.35315 0.870555 0
M  V30 36664 O 3563.87 1.59557 0.766204 0
M  V30 36665 C 3561 3.21452 1.20515 0
M  V30 36666 C 3560.08 4.2086 0.523231 0
M  V30 36667 N 3560.47 5.04088 -0.415857 0
M  V30 36668 C 3558.77 4.39212 0.775159 0
M  V30 36669 C 3559.47 5.75983 -0.813511 0
M  V30 36670 N 3558.45 5.4335 -0.164743 0
M  V30 36671 H 3562.25 2.88976 -0.535737 0
M  V30 36672 H 3559.77 1.57538 -0.394401 0
M  V30 36673 H 3561.76 3.77777 1.76325 0
M  V30 36674 H 3560.42 2.61274 1.92785 0
M  V30 36675 H 3561.43 5.11826 -0.790888 0
M  V30 36676 H 3558.11 3.90192 1.48515 0
M  V30 36677 H 3559.5 6.52911 -1.5861 0
M  V30 36678 N 3562.22 0.31058 1.54509 0
M  V30 36679 C 3563.64 -0.0425015 1.59543 0
M  V30 36680 C 3563.84 -1.516 1.32739 0
M  V30 36681 O 3562.89 -2.27014 1.10547 0
M  V30 36682 C 3564.21 0.364055 2.98488 0
M  V30 36683 C 3565.75 0.313621 3.11425 0
M  V30 36684 C 3566.23 0.695143 4.52694 0
M  V30 36685 N 3567.72 0.648046 4.58644 0
M  V30 36686 C 3568.45 0.915607 5.66043 0
M  V30 36687 N 3567.95 1.24963 6.81437 0
M  V30 36688 N 3569.74 0.84203 5.55757 0
M  V30 36689 H 3561.89 1.27077 1.70192 0
M  V30 36690 H 3564.16 0.515847 0.795365 0
M  V30 36691 H 3563.86 1.39018 3.23059 0
M  V30 36692 H 3563.74 -0.277493 3.76178 0
M  V30 36693 H 3566.12 -0.703275 2.86597 0
M  V30 36694 H 3566.21 0.989925 2.35869 0
M  V30 36695 H 3565.85 1.70989 4.78252 0
M  V30 36696 H 3565.78 -0.00333427 5.266 0
M  V30 36697 H 3568.27 0.401203 3.75764 0
M  V30 36698 H 3568.58 1.43951 7.59275 0
M  V30 36699 H 3566.93 1.28776 6.82965 0
M  V30 36700 H 3570.12 0.580662 4.64485 0
M  V30 36701 H 3570.29 1.05391 6.39372 0
M  V30 36702 N 3563.7 -1.57553 0.0384871 0
M  V30 36703 C 3564.93 -1.96204 -0.647103 0
M  V30 36704 C 3565.34 -0.914071 -1.65654 0
M  V30 36705 O 3564.68 0.111585 -1.83361 0
M  V30 36706 C 3564.74 -3.31041 -1.40187 0
M  V30 36707 C 3564.41 -4.53682 -0.549702 0
M  V30 36708 C 3565.4 -5.19592 0.178931 0
M  V30 36709 C 3563.09 -4.99959 -0.484352 0
M  V30 36710 C 3565.08 -6.30106 0.961487 0
M  V30 36711 C 3562.77 -6.10354 0.301902 0
M  V30 36712 C 3563.77 -6.75287 1.02352 0
M  V30 36713 O 3563.46 -7.83561 1.79687 0
M  V30 36714 H 3563.19 -0.65086 -0.18264 0
M  V30 36715 H 3565.74 -2.05169 0.0973707 0
M  V30 36716 H 3563.97 -3.18594 -2.19169 0
M  V30 36717 H 3565.66 -3.54529 -1.97647 0
M  V30 36718 H 3566.43 -4.84804 0.137834 0
M  V30 36719 H 3562.31 -4.49217 -1.03561 0
M  V30 36720 H 3565.85 -6.80722 1.52525 0
M  V30 36721 H 3561.75 -6.44579 0.344682 0
M  V30 36722 H 3562.51 -8.00275 1.71764 0
M  V30 36723 N 3565.18 0.234767 -1.55842 0
M  V30 36724 C 3566.42 0.962508 -1.78504 0
M  V30 36725 C 3566.76 1.84507 -0.605864 0
M  V30 36726 O 3566.03 1.90438 0.395413 0
M  V30 36727 C 3566.31 1.81272 -3.11147 0
M  V30 36728 C 3566.17 0.95753 -4.3949 0
M  V30 36729 C 3567.49 2.79298 -3.40119 0
M  V30 36730 H 3564.61 0.348489 -0.649403 0
M  V30 36731 H 3567.25 0.232207 -1.88576 0
M  V30 36732 H 3565.4 2.43536 -3.02692 0
M  V30 36733 H 3567.07 0.352645 -4.5995 0
M  V30 36734 H 3565.31 0.262378 -4.33006 0
M  V30 36735 H 3565.98 1.5865 -5.2871 0
M  V30 36736 H 3568.46 2.27169 -3.48616 0
M  V30 36737 H 3567.34 3.35898 -4.34124 0
M  V30 36738 H 3567.6 3.56374 -2.6163 0
M  V30 36739 N 3566.66 1.49427 0.500936 0
M  V30 36740 C 3567.9 1.58164 1.25168 0
M  V30 36741 C 3568.22 0.27359 1.93677 0
M  V30 36742 O 3569.42 0.23951 2.70441 0
M  V30 36743 C 3567.88 2.79063 2.27271 0
M  V30 36744 C 3567.49 4.16627 1.647 0
M  V30 36745 C 3569.23 2.9713 3.03173 0
M  V30 36746 C 3567.14 5.28748 2.64914 0
M  V30 36747 H 3566.07 0.588905 0.470857 0
M  V30 36748 H 3568.72 1.75813 0.525538 0
M  V30 36749 H 3567.1 2.54908 3.03048 0
M  V30 36750 H 3568.28 4.50919 0.949152 0
M  V30 36751 H 3566.59 4.03918 1.01188 0
M  V30 36752 H 3569.19 3.78065 3.78115 0
M  V30 36753 H 3569.53 2.07693 3.6079 0
M  V30 36754 H 3570.06 3.21325 2.34511 0
M  V30 36755 H 3566.8 6.20244 2.12078 0
M  V30 36756 H 3566.32 4.9891 3.3294 0
M  V30 36757 H 3568 5.58084 3.27339 0
M  V30 36758 N 3568.13 -0.751987 1.38502 0
M  V30 36759 C 3569.06 -1.8793 1.3858 0
M  V30 36760 C 3570.04 -1.68231 0.251483 0
M  V30 36761 O 3571.23 -1.88799 0.454803 0
M  V30 36762 C 3568.36 -3.25477 1.2117 0
M  V30 36763 C 3567.31 -3.59781 2.31823 0
M  V30 36764 C 3566.64 -4.96082 1.99517 0
M  V30 36765 C 3567.94 -3.64493 3.74088 0
M  V30 36766 H 3569.63 -1.88123 2.32917 0
M  V30 36767 H 3567.18 -0.903678 1.12114 0
M  V30 36768 H 3569.13 -4.03998 1.19849 0
M  V30 36769 H 3567.86 -3.25768 0.232957 0
M  V30 36770 H 3566.52 -2.8358 2.32332 0
M  V30 36771 H 3566.16 -4.92935 1.00122 0
M  V30 36772 H 3565.86 -5.20002 2.73626 0
M  V30 36773 H 3567.39 -5.7698 1.99817 0
M  V30 36774 H 3568.8 -4.33125 3.75601 0
M  V30 36775 H 3567.2 -3.99924 4.47416 0
M  V30 36776 H 3568.27 -2.64685 4.06288 0
M  V30 36777 N 3569.61 -1.23398 -0.980343 0
M  V30 36778 C 3570.56 -1.0152 -2.07274 0
M  V30 36779 C 3571.53 0.0673437 -1.65963 0
M  V30 36780 O 3572.71 -0.0847727 -1.90612 0
M  V30 36781 C 3569.85 -0.61255 -3.3962 0
M  V30 36782 C 3568.97 -1.76722 -3.942 0
M  V30 36783 C 3568.1 -1.31135 -5.14759 0
M  V30 36784 C 3567.14 -2.43677 -5.61505 0
M  V30 36785 N 3566.28 -1.99047 -6.73294 0
M  V30 36786 H 3571.12 -1.95024 -2.25321 0
M  V30 36787 H 3568.65 -0.971552 -1.1045 0
M  V30 36788 H 3570.61 -0.360199 -4.15642 0
M  V30 36789 H 3569.24 0.285483 -3.21535 0
M  V30 36790 H 3568.29 -2.13358 -3.14933 0
M  V30 36791 H 3569.61 -2.6133 -4.24862 0
M  V30 36792 H 3568.76 -1.01713 -5.98113 0
M  V30 36793 H 3567.5 -0.435641 -4.8575 0
M  V30 36794 H 3566.5 -2.73874 -4.76732 0
M  V30 36795 H 3567.73 -3.31785 -5.92533 0
M  V30 36796 H 3565.68 -1.13856 -6.46044 0
M  V30 36797 H 3565.59 -2.77215 -7.03341 0
M  V30 36798 H 3566.86 -1.72729 -7.60122 0
M  V30 36799 N 3571.09 1.17911 -1.04569 0
M  V30 36800 C 3572.31 1.92489 -0.772179 0
M  V30 36801 C 3572.74 1.75943 0.665266 0
M  V30 36802 O 3572.1 1.07294 1.46142 0
M  V30 36803 C 3572.15 3.4178 -1.14972 0
M  V30 36804 O 3571.25 4.11461 -0.278163 0
M  V30 36805 H 3570.59 0.60033 -0.283725 0
M  V30 36806 H 3573.12 1.49494 -1.39688 0
M  V30 36807 H 3573.13 3.92503 -1.1138 0
M  V30 36808 H 3571.81 3.53144 -2.19686 0
M  V30 36809 H 3570.38 3.71018 -0.374138 0
M  V30 36810 N 3572.57 0.825847 1.34229 0
M  V30 36811 C 3573.48 0.251844 2.33244 0
M  V30 36812 C 3574.49 -0.615306 1.62757 0
M  V30 36813 O 3575.67 -0.522513 1.94504 0
M  V30 36814 C 3572.73 -0.574396 3.41909 0
M  V30 36815 C 3571.8 0.315497 4.28139 0
M  V30 36816 C 3571.03 -0.471403 5.31614 0
M  V30 36817 O 3571.25 -1.7044 5.4434 0
M  V30 36818 O 3570.19 0.147796 6.01719 0
M  V30 36819 H 3574.01 1.07144 2.84172 0
M  V30 36820 H 3571.6 0.588056 1.3734 0
M  V30 36821 H 3573.48 -1.04437 4.08254 0
M  V30 36822 H 3572.15 -1.37127 2.9322 0
M  V30 36823 H 3571.06 0.833027 3.64707 0
M  V30 36824 H 3572.39 1.0768 4.80277 0
M  V30 36825 N 3574.05 -1.46497 0.581077 0
M  V30 36826 C 3575.46 -1.86063 0.154065 0
M  V30 36827 C 3575.81 -1.48485 -1.28244 0
M  V30 36828 O 3574.93 -0.89898 -1.96843 0
M  V30 36829 C 3575.53 -3.377 0.272824 0
M  V30 36830 C 3574.09 -3.76269 -0.0993062 0
M  V30 36831 C 3573.23 -2.70518 0.609517 0
M  V30 36832 H 3576.18 -1.37674 0.789394 0
M  V30 36833 H 3576.21 -3.77171 -0.502259 0
M  V30 36834 H 3575.72 -3.65019 1.31843 0
M  V30 36835 H 3573.82 -3.54567 -1.14511 0
M  V30 36836 H 3573.93 -4.78305 0.275875 0
M  V30 36837 H 3572.3 -2.54651 0.0499531 0
M  V30 36838 H 3573.08 -3.00677 1.65674 0
M  V30 36839 N 3575.52 -0.31877 -1.54343 0
M  V30 36840 C 3576.77 0.285664 -2.00778 0
M  V30 36841 C 3577.1 1.52162 -1.20666 0
M  V30 36842 O 3576.38 1.9236 -0.287708 0
M  V30 36843 C 3576.66 0.624587 -3.54642 0
M  V30 36844 C 3576.51 -0.621741 -4.45482 0
M  V30 36845 C 3577.83 1.44413 -4.15732 0
M  V30 36846 H 3574.95 0.102354 -0.729858 0
M  V30 36847 H 3577.59 -0.434397 -1.84968 0
M  V30 36848 H 3575.74 1.23805 -3.68245 0
M  V30 36849 H 3577.42 -1.26006 -4.43757 0
M  V30 36850 H 3575.66 -1.25156 -4.15353 0
M  V30 36851 H 3576.33 -0.340203 -5.50951 0
M  V30 36852 H 3578.81 0.925627 -4.05674 0
M  V30 36853 H 3577.68 1.65004 -5.23512 0
M  V30 36854 H 3577.94 2.4388 -3.68748 0
M  V30 36855 N 3577 1.5753 -0.0468419 0
M  V30 36856 C 3577.95 2.07785 0.938582 0
M  V30 36857 C 3578.94 0.982079 1.27452 0
M  V30 36858 O 3580.13 1.24546 1.25767 0
M  V30 36859 C 3577.26 2.62288 2.21494 0
M  V30 36860 C 3576.34 3.78827 1.90659 0
M  V30 36861 N 3576.73 4.88764 1.30165 0
M  V30 36862 C 3575.03 3.8765 2.20552 0
M  V30 36863 C 3575.73 5.69841 1.16862 0
M  V30 36864 N 3574.71 5.1731 1.67006 0
M  V30 36865 H 3578.51 2.9018 0.466128 0
M  V30 36866 H 3576.02 1.61632 0.157723 0
M  V30 36867 H 3578.02 2.96593 2.92982 0
M  V30 36868 H 3576.68 1.81331 2.6935 0
M  V30 36869 H 3577.69 5.08651 0.974406 0
M  V30 36870 H 3574.37 3.17628 2.70959 0
M  V30 36871 H 3575.76 6.68251 0.699345 0
M  V30 36872 N 3578.48 -0.226499 1.55964 0
M  V30 36873 C 3579.89 -0.793907 1.68979 0
M  V30 36874 C 3580.24 -1.85191 0.64797 0
M  V30 36875 O 3579.37 -2.15456 -0.201869 0
M  V30 36876 C 3579.96 -1.44681 3.06354 0
M  V30 36877 C 3578.52 -1.96167 3.2124 0
M  V30 36878 C 3577.67 -0.820053 2.64897 0
M  V30 36879 H 3580.62 -0.00193177 1.587 0
M  V30 36880 H 3580.64 -2.31549 3.01936 0
M  V30 36881 H 3580.15 -0.676544 3.82158 0
M  V30 36882 H 3578.25 -2.76011 2.50297 0
M  V30 36883 H 3578.37 -2.14504 4.28398 0
M  V30 36884 H 3576.73 -1.22605 2.23249 0
M  V30 36885 H 3577.51 -0.0625364 3.43243 0
M  V30 36886 N 3579.96 -1.4969 -0.493005 0
M  V30 36887 C 3581.21 -1.5958 -1.24661 0
M  V30 36888 C 3581.53 -0.286109 -1.92384 0
M  V30 36889 O 3580.79 0.726554 -1.81713 0
M  V30 36890 C 3581.09 -2.71001 -2.33009 0
M  V30 36891 C 3580.75 -4.12232 -1.8269 0
M  V30 36892 C 3579.42 -4.50665 -1.68686 0
M  V30 36893 C 3581.77 -5.0059 -1.45119 0
M  V30 36894 C 3579.1 -5.75218 -1.15502 0
M  V30 36895 C 3581.45 -6.25669 -0.933841 0
M  V30 36896 C 3580.11 -6.62924 -0.780261 0
M  V30 36897 H 3579.38 -0.583945 -0.456168 0
M  V30 36898 H 3582.03 -1.8355 -0.546059 0
M  V30 36899 H 3580.33 -2.41034 -3.08885 0
M  V30 36900 H 3582.03 -2.75861 -2.91036 0
M  V30 36901 H 3578.62 -3.81901 -1.94551 0
M  V30 36902 H 3582.8 -4.71547 -1.54781 0
M  V30 36903 H 3578.06 -6.02776 -1.0233 0
M  V30 36904 H 3582.23 -6.93508 -0.633966 0
M  V30 36905 H 3579.86 -7.59319 -0.365978 0
M  V30 36906 N 3581.44 0.744631 -1.38899 0
M  V30 36907 C 3582.68 1.50101 -1.35329 0
M  V30 36908 C 3583.01 1.94927 0.0532445 0
M  V30 36909 O 3582.28 1.68296 1.00267 0
M  V30 36910 H 3580.86 0.556799 -0.49798 0
M  V30 36911 H 3583.52 0.884594 -1.73669 0
M  V30 36912 H 3582.61 2.38769 -2.00987 0
M  V30 36913 N 3582.91 1.23916 0.973785 0
M  V30 36914 C 3583.84 1.05071 2.08524 0
M  V30 36915 C 3584.83 -0.0344462 1.70065 0
M  V30 36916 O 3586.01 0.131466 1.93755 0
M  V30 36917 C 3583.14 0.648225 3.41197 0
M  V30 36918 C 3582.09 1.68147 3.93587 0
M  V30 36919 C 3581.42 1.13423 5.22532 0
M  V30 36920 C 3582.72 3.07604 4.2211 0
M  V30 36921 H 3584.41 1.98038 2.24547 0
M  V30 36922 H 3581.96 0.953565 1.07903 0
M  V30 36923 H 3583.91 0.503413 4.18382 0
M  V30 36924 H 3582.64 -0.317124 3.25057 0
M  V30 36925 H 3581.3 1.81439 3.18552 0
M  V30 36926 H 3580.94 0.159666 5.02747 0
M  V30 36927 H 3580.64 1.82466 5.58552 0
M  V30 36928 H 3582.17 1.00141 6.02332 0
M  V30 36929 H 3583.58 2.97576 4.90022 0
M  V30 36930 H 3581.98 3.73945 4.69346 0
M  V30 36931 H 3583.05 3.56099 3.29122 0
M  V30 36932 N 3584.39 -1.17355 1.05193 0
M  V30 36933 C 3585.36 -2.19577 0.657169 0
M  V30 36934 C 3586.36 -1.58138 -0.291352 0
M  V30 36935 O 3587.55 -1.74038 -0.0752234 0
M  V30 36936 C 3584.68 -3.40882 -0.0347562 0
M  V30 36937 H 3585.87 -2.56016 1.56192 0
M  V30 36938 H 3583.42 -1.31437 0.845818 0
M  V30 36939 H 3584.16 -3.09988 -0.95278 0
M  V30 36940 H 3583.94 -3.86723 0.647144 0
M  V30 36941 H 3585.43 -4.16542 -0.297062 0
M  V30 36942 N 3585.87 -0.832954 -1.3379 0
M  V30 36943 C 3587.12 -0.426447 -1.98266 0
M  V30 36944 C 3587.45 1.01032 -1.6585 0
M  V30 36945 O 3586.72 1.70535 -0.93531 0
M  V30 36946 C 3587.01 -0.640649 -3.54355 0
M  V30 36947 C 3586.86 -2.12426 -3.96479 0
M  V30 36948 C 3588.18 -0.0830011 -4.40022 0
M  V30 36949 H 3585.3 -0.156417 -0.72021 0
M  V30 36950 H 3587.94 -1.04737 -1.58525 0
M  V30 36951 H 3586.09 -0.112108 -3.88338 0
M  V30 36952 H 3587.76 -2.71721 -3.72781 0
M  V30 36953 H 3586.01 -2.61098 -3.46425 0
M  V30 36954 H 3586.68 -2.2249 -5.05175 0
M  V30 36955 H 3589.15 -0.534707 -4.1265 0
M  V30 36956 H 3588.03 -0.262607 -5.48271 0
M  V30 36957 H 3588.29 1.01279 -4.30343 0
M  V30 36958 N 3587.35 1.46186 -0.588837 0
M  V30 36959 C 3588.58 2.06435 -0.0824467 0
M  V30 36960 C 3588.99 1.43718 1.23052 0
M  V30 36961 O 3588.33 0.538856 1.75619 0
M  V30 36962 C 3588.39 3.59182 0.151244 0
M  V30 36963 C 3588.06 4.44127 -1.07705 0
M  V30 36964 C 3589.05 4.80282 -1.99062 0
M  V30 36965 C 3586.74 4.85169 -1.30062 0
M  V30 36966 C 3588.73 5.56313 -3.11118 0
M  V30 36967 C 3586.42 5.60959 -2.42422 0
M  V30 36968 C 3587.42 5.96445 -3.32779 0
M  V30 36969 O 3587.1 6.70701 -4.43187 0
M  V30 36970 H 3586.84 0.673564 -0.057335 0
M  V30 36971 H 3589.39 1.88709 -0.811045 0
M  V30 36972 H 3587.62 3.75238 0.934525 0
M  V30 36973 H 3589.31 4.01337 0.606902 0
M  V30 36974 H 3590.08 4.49147 -1.83008 0
M  V30 36975 H 3585.95 4.56995 -0.606375 0
M  V30 36976 H 3589.5 5.8393 -3.81669 0
M  V30 36977 H 3585.4 5.91507 -2.58437 0
M  V30 36978 H 3586.16 6.89133 -4.41632 0
M  V30 36979 N 3588.83 0.32695 1.54171 0
M  V30 36980 C 3590.07 -0.274063 2.00233 0
M  V30 36981 C 3590.4 -1.52388 1.21668 0
M  V30 36982 O 3589.67 -1.93279 0.319393 0
M  V30 36983 H 3588.25 -0.104258 0.739689 0
M  V30 36984 H 3590.91 0.444278 1.89769 0
M  V30 36985 H 3590 -0.5281 3.076 0
M  V30 36986 N 3590.3 -1.57503 0.0551955 0
M  V30 36987 C 3591.21 -2.15253 -0.932922 0
M  V30 36988 C 3592.23 -1.11136 -1.33883 0
M  V30 36989 O 3593.41 -1.43324 -1.41493 0
M  V30 36990 C 3590.47 -2.68936 -2.18802 0
M  V30 36991 C 3589.53 -3.87865 -1.84009 0
M  V30 36992 C 3588.77 -4.38978 -3.03535 0
M  V30 36993 O 3588.99 -3.89151 -4.17034 0
M  V30 36994 O 3587.92 -5.30517 -2.84316 0
M  V30 36995 H 3591.75 -3.00013 -0.471764 0
M  V30 36996 H 3589.33 -1.48464 -0.166934 0
M  V30 36997 H 3591.22 -3.03415 -2.92433 0
M  V30 36998 H 3589.89 -1.87244 -2.64048 0
M  V30 36999 H 3588.8 -3.58268 -1.07681 0
M  V30 37000 H 3590.13 -4.70799 -1.43559 0
M  V30 37001 N 3591.78 0.218225 -1.56082 0
M  V30 37002 C 3592.73 1.27402 -1.89084 0
M  V30 37003 C 3593.72 1.42127 -0.754229 0
M  V30 37004 O 3594.91 1.44887 -1.0167 0
M  V30 37005 C 3592.04 2.62375 -2.21392 0
M  V30 37006 C 3591.12 2.51537 -3.41453 0
M  V30 37007 N 3591.51 2.10354 -4.59984 0
M  V30 37008 C 3589.81 2.82488 -3.45133 0
M  V30 37009 C 3590.51 2.10847 -5.42142 0
M  V30 37010 N 3589.49 2.51464 -4.81941 0
M  V30 37011 H 3593.29 0.94656 -2.7824 0
M  V30 37012 H 3590.81 0.426773 -1.56692 0
M  V30 37013 H 3592.8 3.38606 -2.43211 0
M  V30 37014 H 3591.46 2.95964 -1.3355 0
M  V30 37015 H 3592.47 1.81431 -4.8508 0
M  V30 37016 H 3589.15 3.20426 -2.67644 0
M  V30 37017 H 3590.54 1.81103 -6.47033 0
M  V30 37018 N 3593.26 1.4995 0.485059 0
M  V30 37019 C 3594.51 1.59483 1.23484 0
M  V30 37020 C 3594.82 0.294116 1.93376 0
M  V30 37021 O 3596.03 0.26818 2.70172 0
M  V30 37022 C 3594.49 2.81458 2.24298 0
M  V30 37023 C 3594.09 4.1835 1.60272 0
M  V30 37024 C 3595.84 3.00329 3.00005 0
M  V30 37025 C 3593.74 5.31528 2.59291 0
M  V30 37026 H 3592.67 0.593866 0.464584 0
M  V30 37027 H 3595.33 1.76361 0.506862 0
M  V30 37028 H 3593.71 2.58108 3.00327 0
M  V30 37029 H 3594.88 4.519 0.901272 0
M  V30 37030 H 3593.2 4.04969 0.968982 0
M  V30 37031 H 3595.79 3.82054 3.74084 0
M  V30 37032 H 3596.14 2.11508 3.58567 0
M  V30 37033 H 3596.67 3.23794 2.3109 0
M  V30 37034 H 3593.41 6.22459 2.05487 0
M  V30 37035 H 3592.93 5.02413 3.27629 0
M  V30 37036 H 3594.61 5.61525 3.21402 0
M  V30 37037 N 3594.74 -0.737255 1.39292 0
M  V30 37038 C 3595.99 -1.49677 1.36393 0
M  V30 37039 C 3596.31 -1.94457 -0.0408517 0
M  V30 37040 O 3595.57 -1.66941 -1.02124 0
M  V30 37041 C 3595.87 -2.75189 2.28048 0
M  V30 37042 C 3595.53 -2.49288 3.75721 0
M  V30 37043 C 3594.2 -2.41933 4.15959 0
M  V30 37044 C 3596.55 -2.2708 4.69131 0
M  V30 37045 C 3593.88 -2.10409 5.47672 0
M  V30 37046 C 3596.23 -1.97073 6.0112 0
M  V30 37047 C 3594.89 -1.88186 6.40424 0
M  V30 37048 H 3594.16 -0.547707 0.499097 0
M  V30 37049 H 3596.81 -0.846386 1.71781 0
M  V30 37050 H 3595.11 -3.44959 1.85771 0
M  V30 37051 H 3596.81 -3.33208 2.23099 0
M  V30 37052 H 3593.4 -2.5589 3.43829 0
M  V30 37053 H 3597.59 -2.31731 4.38879 0
M  V30 37054 H 3592.84 -2.02049 5.77049 0
M  V30 37055 H 3597.02 -1.78897 6.7303 0
M  V30 37056 H 3594.64 -1.63524 7.42404 0
M  V30 37057 N 3596.22 -1.24431 -0.967199 0
M  V30 37058 C 3597.46 -1.09599 -1.71347 0
M  V30 37059 C 3597.82 0.361378 -1.88976 0
M  V30 37060 O 3597.11 1.26331 -1.44052 0
M  V30 37061 C 3597.31 -1.7698 -3.10504 0
M  V30 37062 C 3597.13 -3.29119 -3.06449 0
M  V30 37063 C 3595.9 -3.98331 -3.10903 0
M  V30 37064 C 3598.1 -4.25702 -2.88587 0
M  V30 37065 N 3596.08 -5.37345 -2.96872 0
M  V30 37066 C 3597.46 -5.51717 -2.82858 0
M  V30 37067 C 3599.51 -4.16271 -2.73171 0
M  V30 37068 C 3598.21 -6.69381 -2.63289 0
M  V30 37069 C 3600.24 -5.33614 -2.5497 0
M  V30 37070 C 3599.6 -6.58562 -2.49951 0
M  V30 37071 H 3595.7 -0.455674 -0.63552 0
M  V30 37072 H 3598.28 -1.57352 -1.14666 0
M  V30 37073 H 3596.46 -1.3174 -3.65375 0
M  V30 37074 H 3598.19 -1.55004 -3.73839 0
M  V30 37075 H 3594.94 -3.49501 -3.19603 0
M  V30 37076 H 3595.37 -6.10265 -2.93096 0
M  V30 37077 H 3600.01 -3.2043 -2.75834 0
M  V30 37078 H 3597.73 -7.65345 -2.59369 0
M  V30 37079 H 3601.31 -5.28169 -2.43986 0
M  V30 37080 H 3600.19 -7.47831 -2.36047 0
M  V30 37081 N 3597.7 1.16795 -1.05814 0
M  V30 37082 C 3598.92 1.91118 -0.792553 0
M  V30 37083 C 3599.34 1.77166 0.652518 0
M  V30 37084 O 3598.7 1.11302 1.44631 0
M  V30 37085 C 3598.75 3.41982 -1.17178 0
M  V30 37086 O 3598.47 3.55512 -2.56014 0
M  V30 37087 C 3599.97 4.33365 -0.933239 0
M  V30 37088 H 3597.19 0.606197 -0.287691 0
M  V30 37089 H 3599.73 1.48073 -1.41049 0
M  V30 37090 H 3597.89 3.82749 -0.598481 0
M  V30 37091 H 3598.3 4.49028 -2.71061 0
M  V30 37092 H 3599.78 5.37701 -1.24826 0
M  V30 37093 H 3600.25 4.39004 0.131268 0
M  V30 37094 H 3600.86 3.9832 -1.49069 0
M  V30 37095 N 3599.17 0.840037 1.33346 0
M  V30 37096 C 3600.45 0.358192 1.92292 0
M  V30 37097 C 3600.83 -1.15659 1.76596 0
M  V30 37098 O 3600.18 -1.97156 1.15507 0
M  V30 37099 C 3600.39 0.806389 3.39556 0
M  V30 37100 C 3601.74 0.815083 4.16703 0
M  V30 37101 O 3602.76 0.750071 3.48213 0
M  V30 37102 O 3601.62 0.903913 5.38973 0
M  V30 37103 H 3598.71 0.101599 0.820735 0
M  V30 37104 H 3601.26 0.925967 1.42211 0
M  V30 37105 H 3600.03 1.84903 3.44858 0
M  V30 37106 H 3599.65 0.215251 3.97017 0
M  V30 37107 N 3600.65 -1.45872 0.596582 0
M  V30 37108 C 3601.9 -2.03173 0.0960104 0
M  V30 37109 C 3602.25 -1.45811 -1.25527 0
M  V30 37110 O 3601.55 -0.619084 -1.81323 0
M  V30 37111 C 3601.74 -3.57397 -0.0135086 0
M  V30 37112 C 3601.57 -4.29718 1.3256 0
M  V30 37113 C 3600.34 -4.68079 1.90341 0
M  V30 37114 C 3602.54 -4.62377 2.25193 0
M  V30 37115 N 3600.52 -5.25211 3.17847 0
M  V30 37116 C 3601.89 -5.20225 3.37292 0
M  V30 37117 C 3603.94 -4.44312 2.24702 0
M  V30 37118 C 3602.65 -5.61913 4.49051 0
M  V30 37119 C 3604.67 -4.87026 3.355 0
M  V30 37120 C 3604.04 -5.44957 4.4632 0
M  V30 37121 H 3600.13 -0.778076 0.0782411 0
M  V30 37122 H 3602.72 -1.7784 0.792523 0
M  V30 37123 H 3600.89 -3.82415 -0.679218 0
M  V30 37124 H 3602.62 -4.01349 -0.519732 0
M  V30 37125 H 3599.38 -4.51282 1.43673 0
M  V30 37126 H 3599.8 -5.58285 3.82945 0
M  V30 37127 H 3604.44 -3.98847 1.40289 0
M  V30 37128 H 3602.16 -6.0635 5.34196 0
M  V30 37129 H 3605.75 -4.74789 3.36254 0
M  V30 37130 H 3604.63 -5.77401 5.30639 0
M  V30 37131 N 3602.13 -0.335122 -1.53996 0
M  V30 37132 C 3603.38 0.264353 -2.0107 0
M  V30 37133 C 3603.71 1.50874 -1.22274 0
M  V30 37134 O 3602.98 1.92044 -0.308094 0
M  V30 37135 C 3603.27 0.586937 -3.55284 0
M  V30 37136 C 3603.12 -0.668955 -4.44798 0
M  V30 37137 C 3604.44 1.39995 -4.1724 0
M  V30 37138 H 3601.56 0.0946073 -0.730902 0
M  V30 37139 H 3604.2 -0.453991 -1.84496 0
M  V30 37140 H 3602.35 1.19892 -3.69538 0
M  V30 37141 H 3604.02 -1.30705 -4.42395 0
M  V30 37142 H 3602.26 -1.29554 -4.14003 0
M  V30 37143 H 3602.94 -0.39862 -5.50559 0
M  V30 37144 H 3605.41 0.882548 -4.06633 0
M  V30 37145 H 3604.29 1.59442 -5.25233 0
M  V30 37146 H 3604.55 2.39956 -3.71314 0
M  V30 37147 N 3603.61 1.57472 -0.0635475 0
M  V30 37148 C 3605.02 1.56886 0.293056 0
M  V30 37149 C 3605.22 1.07227 1.70601 0
M  V30 37150 O 3604.28 0.73443 2.41583 0
M  V30 37151 C 3605.59 3.00498 0.110233 0
M  V30 37152 C 3607.14 3.1248 0.180398 0
M  V30 37153 C 3607.62 4.57993 0.0259549 0
M  V30 37154 N 3609.11 4.63128 0.0818295 0
M  V30 37155 C 3609.84 5.73398 -0.0133772 0
M  V30 37156 N 3609.34 6.92611 -0.161636 0
M  V30 37157 N 3611.13 5.62083 0.043096 0
M  V30 37158 H 3603.28 1.8807 -0.987093 0
M  V30 37159 H 3605.54 0.866636 -0.384247 0
M  V30 37160 H 3605.25 3.40911 -0.864438 0
M  V30 37161 H 3605.12 3.67123 0.866053 0
M  V30 37162 H 3607.51 2.71958 1.14555 0
M  V30 37163 H 3607.59 2.48509 -0.606386 0
M  V30 37164 H 3607.24 4.99202 -0.935927 0
M  V30 37165 H 3607.17 5.19985 0.832039 0
M  V30 37166 H 3609.66 3.77396 0.195163 0
M  V30 37167 H 3609.97 7.72468 -0.226653 0
M  V30 37168 H 3608.32 6.94721 -0.196888 0
M  V30 37169 H 3611.51 4.67835 0.157566 0
M  V30 37170 H 3611.68 6.47991 -0.0345574 0
M  V30 37171 N 3605.09 -0.209945 1.56195 0
M  V30 37172 C 3606.5 -0.560154 1.49447 0
M  V30 37173 C 3606.7 -1.86584 0.760831 0
M  V30 37174 O 3605.76 -2.50648 0.305245 0
M  V30 37175 C 3607.07 -0.628635 2.94056 0
M  V30 37176 C 3608.62 -0.718477 3.04642 0
M  V30 37177 C 3609.09 -0.818201 4.50632 0
M  V30 37178 N 3610.58 -0.88212 4.54723 0
M  V30 37179 C 3611.32 -0.979193 5.64977 0
M  V30 37180 N 3610.82 -1.03949 6.84957 0
M  V30 37181 N 3612.61 -1.01523 5.52856 0
M  V30 37182 H 3604.76 0.646709 2.02315 0
M  V30 37183 H 3607.02 0.228462 0.920059 0
M  V30 37184 H 3606.73 0.261386 3.50727 0
M  V30 37185 H 3606.6 -1.48836 3.46595 0
M  V30 37186 H 3608.99 -1.59893 2.48028 0
M  V30 37187 H 3609.07 0.167147 2.55253 0
M  V30 37188 H 3608.71 0.0578449 5.07867 0
M  V30 37189 H 3608.64 -1.71941 4.97739 0
M  V30 37190 H 3611.14 -0.845368 3.68323 0
M  V30 37191 H 3611.45 -1.11366 7.64734 0
M  V30 37192 H 3609.79 -1.00842 6.87645 0
M  V30 37193 H 3612.98 -0.964859 4.58048 0
M  V30 37194 H 3613.16 -1.08743 6.38811 0
M  V30 37195 N 3606.56 -1.50205 -0.4771 0
M  V30 37196 C 3607.53 -1.68085 -1.55821 0
M  V30 37197 C 3608.53 -0.551745 -1.51038 0
M  V30 37198 O 3609.72 -0.818665 -1.53764 0
M  V30 37199 C 3606.85 -1.70049 -2.95459 0
M  V30 37200 H 3608.04 -2.64533 -1.41287 0
M  V30 37201 H 3605.59 -1.39595 -0.703056 0
M  V30 37202 H 3606.33 -0.752719 -3.15444 0
M  V30 37203 H 3606.11 -2.5207 -3.00338 0
M  V30 37204 H 3607.6 -1.85857 -3.73961 0
M  V30 37205 N 3608.04 0.729857 -1.39681 0
M  V30 37206 C 3609.29 1.49172 -1.37388 0
M  V30 37207 C 3609.62 1.94179 0.0285497 0
M  V30 37208 O 3608.9 1.67153 0.994487 0
M  V30 37209 C 3609.18 2.72781 -2.3508 0
M  V30 37210 C 3609.03 2.3376 -3.84286 0
M  V30 37211 C 3610.35 3.74897 -2.30522 0
M  V30 37212 H 3607.47 0.541111 -0.500368 0
M  V30 37213 H 3610.11 0.834122 -1.70711 0
M  V30 37214 H 3608.26 3.2889 -2.06793 0
M  V30 37215 H 3609.93 1.83243 -4.23344 0
M  V30 37216 H 3608.18 1.65928 -4.00812 0
M  V30 37217 H 3608.85 3.22301 -4.48136 0
M  V30 37218 H 3611.32 3.28384 -2.55544 0
M  V30 37219 H 3610.2 4.59045 -3.00947 0
M  V30 37220 H 3610.46 4.22184 -1.31198 0
M  V30 37221 N 3609.52 1.24942 0.960587 0
M  V30 37222 C 3610.45 1.00592 2.05946 0
M  V30 37223 C 3611.47 -0.0270975 1.62777 0
M  V30 37224 O 3612.65 0.21077 1.77251 0
M  V30 37225 C 3609.75 0.497579 3.35227 0
M  V30 37226 C 3608.93 1.59538 4.07267 0
M  V30 37227 C 3607.99 1.08845 5.1482 0
M  V30 37228 O 3607.01 1.78162 5.40599 0
M  V30 37229 N 3608.21 -0.0734046 5.80454 0
M  V30 37230 H 3610.98 1.95208 2.27407 0
M  V30 37231 H 3608.54 1.16067 1.12872 0
M  V30 37232 H 3610.53 0.14305 4.04447 0
M  V30 37233 H 3609.1 -0.354491 3.10584 0
M  V30 37234 H 3608.32 2.12177 3.32227 0
M  V30 37235 H 3609.61 2.33307 4.52157 0
M  V30 37236 H 3609.01 -0.652749 5.61921 0
M  V30 37237 H 3607.57 -0.369017 6.50755 0
M  V30 37238 N 3611 -1.16233 1.06432 0
M  V30 37239 C 3612.41 -1.38788 0.788045 0
M  V30 37240 C 3612.61 -1.91982 -0.611985 0
M  V30 37241 O 3611.67 -2.11952 -1.37231 0
M  V30 37242 C 3612.98 -2.36735 1.8541 0
M  V30 37243 C 3614.53 -2.50417 1.87777 0
M  V30 37244 C 3615.01 -3.51648 2.93441 0
M  V30 37245 N 3616.5 -3.59176 2.92484 0
M  V30 37246 C 3617.23 -4.37298 3.70888 0
M  V30 37247 N 3616.73 -5.18831 4.59115 0
M  V30 37248 N 3618.52 -4.32294 3.59274 0
M  V30 37249 H 3610.67 -0.800414 1.96741 0
M  V30 37250 H 3612.94 -0.414382 0.852638 0
M  V30 37251 H 3612.64 -2.04746 2.85958 0
M  V30 37252 H 3612.52 -3.364 1.70631 0
M  V30 37253 H 3614.9 -2.81709 0.878874 0
M  V30 37254 H 3614.98 -1.50783 2.06635 0
M  V30 37255 H 3614.63 -3.21093 3.93525 0
M  V30 37256 H 3614.56 -4.51015 2.71832 0
M  V30 37257 H 3617.05 -3.00975 2.28523 0
M  V30 37258 H 3617.36 -5.75659 5.15593 0
M  V30 37259 H 3615.71 -5.18169 4.63169 0
M  V30 37260 H 3618.9 -3.67658 2.89733 0
M  V30 37261 H 3619.07 -4.92931 4.20622 0
M  V30 37262 N 3612.48 -0.847097 -1.32899 0
M  V30 37263 C 3613.44 -0.291364 -2.27341 0
M  V30 37264 C 3614.44 0.544626 -1.51296 0
M  V30 37265 O 3615.63 0.357228 -1.70498 0
M  V30 37266 C 3612.76 0.588609 -3.3578 0
M  V30 37267 H 3613.95 -1.12482 -2.78007 0
M  V30 37268 H 3611.51 -0.620829 -1.43441 0
M  V30 37269 H 3612.24 1.44418 -2.90369 0
M  V30 37270 H 3612.03 -0.00967407 -3.92099 0
M  V30 37271 H 3613.52 0.970455 -4.06167 0
M  V30 37272 N 3613.95 1.45554 -0.604309 0
M  V30 37273 C 3614.9 2.32242 0.128972 0
M  V30 37274 C 3615.9 1.45775 0.862908 0
M  V30 37275 O 3617.1 1.62278 0.778845 0
M  V30 37276 H 3613.48 0.749566 0.060453 0
M  V30 37277 H 3615.45 2.91874 -0.620654 0
M  V30 37278 C 3614.2 3.29334 1.1151 0
M  V30 37279 H 3613.52 3.95862 0.559779 0
M  V30 37280 H 3614.96 3.92727 1.59817 0
M  V30 37281 C 3613.42 2.56264 2.18701 0
M  V30 37282 O 3613.95 2.3416 3.26393 0
M  V30 37283 N 3612.16 2.16455 1.93895 0
M  V30 37284 H 3611.7 2.34633 1.06326 0
M  V30 37285 H 3611.66 1.67888 2.65821 0
M  V30 37286 N 3615.43 0.343284 1.53816 0
M  V30 37287 C 3616.38 -0.513625 2.25012 0
M  V30 37288 C 3617.35 -1.09576 1.24829 0
M  V30 37289 O 3618.53 -1.13243 1.5356 0
M  V30 37290 C 3615.67 -1.6588 3.02618 0
M  V30 37291 C 3614.79 -1.10399 4.17655 0
M  V30 37292 C 3613.92 -2.21645 4.8275 0
M  V30 37293 C 3612.96 -1.63514 5.89856 0
M  V30 37294 N 3612.1 -2.68501 6.48731 0
M  V30 37295 H 3616.94 0.100049 2.97832 0
M  V30 37296 H 3614.48 0.0611464 1.46973 0
M  V30 37297 H 3616.43 -2.33298 3.45873 0
M  V30 37298 H 3615.06 -2.24346 2.32096 0
M  V30 37299 H 3614.12 -0.320753 3.79045 0
M  V30 37300 H 3615.43 -0.6388 4.94693 0
M  V30 37301 H 3614.58 -2.96929 5.29073 0
M  V30 37302 H 3613.32 -2.71507 4.05136 0
M  V30 37303 H 3612.33 -0.867355 5.42915 0
M  V30 37304 H 3613.55 -1.14504 6.69377 0
M  V30 37305 H 3611.5 -3.17619 5.73981 0
M  V30 37306 H 3611.41 -2.26603 7.2124 0
M  V30 37307 H 3612.68 -3.43555 6.99707 0
M  V30 37308 N 3616.91 -1.57436 0.0718977 0
M  V30 37309 C 3617.86 -2.09252 -0.905407 0
M  V30 37310 C 3618.84 -1.00223 -1.25873 0
M  V30 37311 O 3620.04 -1.26531 -1.23769 0
M  V30 37312 C 3617.17 -2.65779 -2.17293 0
M  V30 37313 C 3616.25 -3.81812 -1.84608 0
M  V30 37314 N 3616.64 -4.90773 -1.22373 0
M  V30 37315 C 3614.94 -3.9111 -2.14357 0
M  V30 37316 C 3615.64 -5.71628 -1.07781 0
M  V30 37317 N 3614.62 -5.19902 -1.58755 0
M  V30 37318 H 3618.42 -2.90885 -0.419904 0
M  V30 37319 H 3615.93 -1.61863 -0.131989 0
M  V30 37320 H 3617.93 -3.01216 -2.88226 0
M  V30 37321 H 3616.59 -1.85593 -2.66431 0
M  V30 37322 H 3617.6 -5.10137 -0.89336 0
M  V30 37323 H 3614.28 -3.21899 -2.65871 0
M  V30 37324 H 3615.67 -6.69279 -0.592944 0
M  V30 37325 N 3618.39 0.201658 -1.56305 0
M  V30 37326 C 3619.63 0.924429 -1.80505 0
M  V30 37327 C 3619.97 1.83181 -0.644865 0
M  V30 37328 O 3619.24 1.91234 0.354929 0
M  V30 37329 C 3619.53 1.74631 -3.14922 0
M  V30 37330 C 3619.38 0.864092 -4.41422 0
M  V30 37331 C 3620.7 2.7202 -3.45967 0
M  V30 37332 H 3617.82 0.334636 -0.656649 0
M  V30 37333 H 3620.46 0.192155 -1.89026 0
M  V30 37334 H 3618.61 2.37061 -3.07789 0
M  V30 37335 H 3620.28 0.255003 -4.60595 0
M  V30 37336 H 3618.52 0.170472 -4.33465 0
M  V30 37337 H 3619.19 1.47399 -5.31956 0
M  V30 37338 H 3621.67 2.19723 -3.53357 0
M  V30 37339 H 3620.55 3.26614 -4.41151 0
M  V30 37340 H 3620.81 3.50744 -2.6913 0
M  V30 37341 N 3619.87 1.50456 0.469128 0
M  V30 37342 C 3621.11 1.61224 1.21865 0
M  V30 37343 C 3621.44 0.315569 1.9243 0
M  V30 37344 O 3620.71 -0.667051 1.84193 0
M  V30 37345 H 3619.29 0.594109 0.452818 0
M  V30 37346 H 3621.95 1.87242 0.54096 0
M  V30 37347 H 3621.04 2.42435 1.9655 0
M  V30 37348 N 3621.34 -0.722439 1.40066 0
M  V30 37349 C 3622.57 -1.51667 1.41463 0
M  V30 37350 C 3622.99 -1.88095 0.0142984 0
M  V30 37351 O 3622.35 -1.52793 -0.975907 0
M  V30 37352 C 3622.4 -2.77283 2.30535 0
M  V30 37353 O 3621.5 -3.73714 1.74388 0
M  V30 37354 H 3620.85 -0.457538 0.481202 0
M  V30 37355 H 3623.38 -0.890298 1.84214 0
M  V30 37356 H 3623.39 -3.25885 2.45485 0
M  V30 37357 H 3622.06 -2.50103 3.32297 0
M  V30 37358 H 3620.64 -3.32533 1.68749 0
M  V30 37359 N 3622.82 -1.2545 -0.953947 0
M  V30 37360 C 3623.77 -1.05685 -2.07204 0
M  V30 37361 C 3624.77 0.0124375 -1.69395 0
M  V30 37362 O 3625.97 -0.143233 -1.79429 0
M  V30 37363 H 3622.35 -0.324829 -0.678226 0
M  V30 37364 H 3624.32 -2.0047 -2.2103 0
M  V30 37365 C 3623.07 -0.693015 -3.40724 0
M  V30 37366 H 3622.39 -1.50763 -3.70285 0
M  V30 37367 H 3623.83 -0.594425 -4.19813 0
M  V30 37368 C 3622.29 0.60097 -3.31497 0
M  V30 37369 O 3622.82 1.6429 -3.66568 0
M  V30 37370 N 3621.02 0.586848 -2.84613 0
M  V30 37371 H 3620.57 -0.26142 -2.5627 0
M  V30 37372 H 3620.53 1.45279 -2.78822 0
M  V30 37373 N 3624.3 1.15667 -1.07047 0
M  V30 37374 C 3625.23 2.19268 -0.63221 0
M  V30 37375 C 3626.21 1.58812 0.348945 0
M  V30 37376 O 3627.4 1.86752 0.256104 0
M  V30 37377 C 3624.52 3.38623 0.0720896 0
M  V30 37378 C 3623.57 4.17594 -0.86702 0
M  V30 37379 S 3624.4 4.80378 -2.36637 0
M  V30 37380 C 3625.56 6.03105 -1.67378 0
M  V30 37381 H 3625.79 2.56104 -1.50991 0
M  V30 37382 H 3623.32 1.26579 -0.884146 0
M  V30 37383 H 3625.28 4.07775 0.472201 0
M  V30 37384 H 3623.94 3.00137 0.926086 0
M  V30 37385 H 3623.14 5.02977 -0.320902 0
M  V30 37386 H 3622.74 3.53975 -1.20737 0
M  V30 37387 H 3625.03 6.7032 -0.983724 0
M  V30 37388 H 3625.97 6.6228 -2.50581 0
M  V30 37389 H 3626.38 5.52598 -1.15308 0
M  V30 37390 N 3625.78 0.854133 1.32447 0
M  V30 37391 C 3626.73 0.296382 2.28889 0
M  V30 37392 C 3627.7 -0.596351 1.55025 0
M  V30 37393 O 3628.88 -0.531373 1.83251 0
M  V30 37394 C 3626.02 -0.509669 3.41316 0
M  V30 37395 C 3625.13 0.408796 4.30061 0
M  V30 37396 C 3624.27 -0.409835 5.29617 0
M  V30 37397 C 3623.31 0.50606 6.10004 0
M  V30 37398 N 3622.45 -0.27536 7.0156 0
M  V30 37399 H 3627.29 1.12405 2.75987 0
M  V30 37400 H 3624.82 0.565741 1.35786 0
M  V30 37401 H 3626.78 -0.992625 4.05219 0
M  V30 37402 H 3625.41 -1.30217 2.9537 0
M  V30 37403 H 3624.46 1.01014 3.66743 0
M  V30 37404 H 3625.77 1.11174 4.86253 0
M  V30 37405 H 3624.93 -0.955978 5.99121 0
M  V30 37406 H 3623.67 -1.14615 4.74041 0
M  V30 37407 H 3622.67 1.06409 5.39404 0
M  V30 37408 H 3623.9 1.24097 6.67665 0
M  V30 37409 H 3621.84 -0.994773 6.48414 0
M  V30 37410 H 3621.76 0.368559 7.55101 0
M  V30 37411 H 3623.03 -0.803245 7.7535 0
M  V30 37412 N 3627.26 -1.45231 0.61202 0
M  V30 37413 C 3628.19 -2.33321 -0.0914459 0
M  V30 37414 C 3629.17 -1.47091 -0.85429 0
M  V30 37415 O 3630.35 -1.75854 -0.823963 0
M  V30 37416 C 3627.48 -3.29868 -1.08647 0
M  V30 37417 C 3626.44 -4.25768 -0.436541 0
M  V30 37418 C 3625.76 -5.1204 -1.54012 0
M  V30 37419 C 3627.06 -5.18301 0.645096 0
M  V30 37420 H 3628.76 -2.9239 0.644105 0
M  V30 37421 H 3626.3 -1.40597 0.311196 0
M  V30 37422 H 3628.26 -3.90367 -1.58719 0
M  V30 37423 H 3626.98 -2.68968 -1.85267 0
M  V30 37424 H 3625.64 -3.66574 0.0433562 0
M  V30 37425 H 3625.29 -4.47504 -2.29671 0
M  V30 37426 H 3624.99 -5.77006 -1.11073 0
M  V30 37427 H 3626.51 -5.75407 -2.04302 0
M  V30 37428 H 3627.93 -5.72845 0.228267 0
M  V30 37429 H 3626.32 -5.91769 0.996491 0
M  V30 37430 H 3627.39 -4.60463 1.51993 0
M  V30 37431 N 3628.74 -0.351436 -1.53632 0
M  V30 37432 C 3629.67 0.493869 -2.28217 0
M  V30 37433 C 3630.65 1.09597 -1.30087 0
M  V30 37434 O 3631.83 1.11588 -1.5894 0
M  V30 37435 C 3628.96 1.64097 -3.06088 0
M  V30 37436 C 3627.92 1.16682 -4.11788 0
M  V30 37437 C 3627.24 2.40305 -4.77658 0
M  V30 37438 C 3628.54 0.261651 -5.21644 0
M  V30 37439 H 3630.24 -0.128353 -2.99125 0
M  V30 37440 H 3627.78 -0.0631715 -1.43861 0
M  V30 37441 H 3629.73 2.23884 -3.57007 0
M  V30 37442 H 3628.46 2.29021 -2.32846 0
M  V30 37443 H 3627.12 0.59172 -3.61793 0
M  V30 37444 H 3626.77 3.03654 -4.01003 0
M  V30 37445 H 3626.47 2.09259 -5.49076 0
M  V30 37446 H 3627.99 3.00804 -5.31366 0
M  V30 37447 H 3629.4 0.766589 -5.68152 0
M  V30 37448 H 3627.8 0.0427077 -6.00085 0
M  V30 37449 H 3628.87 -0.700083 -4.7982 0
M  V30 37450 N 3630.21 1.57396 -0.0802459 0
M  V30 37451 C 3631.63 1.57188 0.2764 0
M  V30 37452 C 3631.83 1.0903 1.69454 0
M  V30 37453 O 3630.89 0.760012 2.4079 0
M  V30 37454 C 3632.2 3.00598 0.0783551 0
M  V30 37455 C 3633.75 3.12653 0.147245 0
M  V30 37456 C 3634.22 4.57994 -0.0226228 0
M  V30 37457 N 3635.71 4.63188 0.032704 0
M  V30 37458 C 3636.45 5.73352 -0.074193 0
M  V30 37459 N 3635.94 6.92401 -0.235088 0
M  V30 37460 N 3637.74 5.62098 -0.0165229 0
M  V30 37461 H 3629.89 1.87012 -1.00698 0
M  V30 37462 H 3632.15 0.862512 -0.393417 0
M  V30 37463 H 3631.86 3.39975 -0.900547 0
M  V30 37464 H 3631.73 3.68021 0.827065 0
M  V30 37465 H 3634.12 2.73158 1.11664 0
M  V30 37466 H 3634.2 2.47852 -0.632709 0
M  V30 37467 H 3633.84 4.98181 -0.988821 0
M  V30 37468 H 3633.77 5.20838 0.776841 0
M  V30 37469 H 3636.26 3.77581 0.155124 0
M  V30 37470 H 3636.58 7.72184 -0.30857 0
M  V30 37471 H 3634.92 6.94473 -0.270561 0
M  V30 37472 H 3638.11 4.67976 0.107937 0
M  V30 37473 H 3638.29 6.47918 -0.103284 0
M  V30 37474 N 3631.69 -0.193366 1.56409 0
M  V30 37475 C 3632.94 -0.914843 1.80993 0
M  V30 37476 C 3633.27 -1.82836 0.65457 0
M  V30 37477 O 3632.55 -1.9142 -0.344783 0
M  V30 37478 C 3632.83 -1.72958 3.15844 0
M  V30 37479 C 3632.68 -0.84067 4.41874 0
M  V30 37480 C 3634 -2.70182 3.47404 0
M  V30 37481 H 3631.12 -0.331149 0.658414 0
M  V30 37482 H 3633.76 -0.182128 1.89125 0
M  V30 37483 H 3631.91 -2.35425 3.09042 0
M  V30 37484 H 3633.58 -0.230573 4.60723 0
M  V30 37485 H 3631.83 -0.147482 4.33549 0
M  V30 37486 H 3632.5 -1.44576 5.3273 0
M  V30 37487 H 3634.97 -2.17846 3.54517 0
M  V30 37488 H 3633.85 -3.2427 4.42877 0
M  V30 37489 H 3634.11 -3.49312 2.70986 0
M  V30 37490 N 3633.17 -1.50702 -0.461142 0
M  V30 37491 C 3634.45 -1.52713 -1.22222 0
M  V30 37492 C 3634.83 -0.277526 -2.09268 0
M  V30 37493 O 3634.17 0.738604 -2.16233 0
M  V30 37494 C 3634.38 -2.82832 -2.04467 0
M  V30 37495 C 3635.73 -3.33876 -2.6232 0
M  V30 37496 O 3636.76 -2.84222 -2.14701 0
M  V30 37497 O 3635.62 -4.20459 -3.49109 0
M  V30 37498 H 3632.71 -0.612968 -0.555157 0
M  V30 37499 H 3635.26 -1.62999 -0.472151 0
M  V30 37500 H 3634.03 -3.6525 -1.40386 0
M  V30 37501 H 3633.65 -2.75596 -2.86588 0
M  V30 37502 N 3634.65 0.715001 -1.40447 0
M  V30 37503 C 3635.9 1.47044 -1.38062 0
M  V30 37504 C 3636.21 1.95595 0.0138781 0
M  V30 37505 O 3637.42 2.71026 0.16035 0
M  V30 37506 C 3635.87 2.65798 -2.42651 0
M  V30 37507 C 3635.48 2.24114 -3.87914 0
M  V30 37508 C 3637.22 3.43531 -2.49373 0
M  V30 37509 C 3635.13 3.3971 -4.84098 0
M  V30 37510 H 3634.06 0.552256 -0.513351 0
M  V30 37511 H 3636.71 0.778097 -1.66186 0
M  V30 37512 H 3635.09 3.37205 -2.07627 0
M  V30 37513 H 3636.27 1.60123 -4.32085 0
M  V30 37514 H 3634.58 1.59423 -3.84673 0
M  V30 37515 H 3637.18 4.29549 -3.18421 0
M  V30 37516 H 3637.52 3.87385 -1.52442 0
M  V30 37517 H 3638.06 2.79168 -2.83391 0
M  V30 37518 H 3634.79 3.00887 -5.82363 0
M  V30 37519 H 3634.31 4.02615 -4.44591 0
M  V30 37520 H 3635.99 4.05767 -5.03946 0
M  V30 37521 N 3636.13 1.25954 0.947281 0
M  V30 37522 C 3637.54 1.10138 1.50753 0
M  V30 37523 C 3637.89 -0.320403 1.93566 0
M  V30 37524 O 3637.01 -1.21122 1.79328 0
M  V30 37525 C 3637.61 1.99318 2.73967 0
M  V30 37526 C 3636.17 1.87666 3.2628 0
M  V30 37527 C 3635.31 1.93031 1.99084 0
M  V30 37528 H 3638.26 1.39132 0.763403 0
M  V30 37529 H 3638.29 1.53748 3.48054 0
M  V30 37530 H 3637.8 3.0279 2.42776 0
M  V30 37531 H 3635.9 0.871055 3.62275 0
M  V30 37532 H 3636.01 2.72873 3.93799 0
M  V30 37533 H 3634.38 1.37007 2.14712 0
M  V30 37534 H 3635.16 2.98121 1.70232 0
M  V30 37535 N 3637.6 -1.15097 1.07659 0
M  V30 37536 C 3638.54 -2.19563 0.657637 0
M  V30 37537 C 3639.55 -1.6017 -0.291432 0
M  V30 37538 O 3640.74 -1.78319 -0.0802668 0
M  V30 37539 C 3637.84 -3.38857 -0.0541625 0
M  V30 37540 C 3637.01 -4.27789 0.911878 0
M  V30 37541 C 3636.07 -5.25667 0.236802 0
M  V30 37542 O 3635.1 -5.62375 0.87883 0
M  V30 37543 N 3636.3 -5.71534 -1.01631 0
M  V30 37544 H 3639.06 -2.56123 1.55631 0
M  V30 37545 H 3636.62 -1.30243 0.96168 0
M  V30 37546 H 3638.62 -4.0139 -0.516533 0
M  V30 37547 H 3637.19 -3.00685 -0.854819 0
M  V30 37548 H 3636.41 -3.62307 1.55329 0
M  V30 37549 H 3637.69 -4.84077 1.56675 0
M  V30 37550 H 3637.09 -5.43828 -1.55781 0
M  V30 37551 H 3635.65 -6.36092 -1.42231 0
M  V30 37552 N 3639.08 -0.861145 -1.31993 0
M  V30 37553 C 3640.01 -0.267721 -2.27631 0
M  V30 37554 C 3641.03 0.564238 -1.5271 0
M  V30 37555 O 3642.22 0.387669 -1.74239 0
M  V30 37556 C 3639.32 0.639797 -3.32806 0
M  V30 37557 C 3638.49 -0.157753 -4.37115 0
M  V30 37558 C 3637.55 0.676532 -5.21833 0
M  V30 37559 O 3636.57 0.107722 -5.69098 0
M  V30 37560 N 3637.78 1.99012 -5.45321 0
M  V30 37561 H 3640.54 -1.08955 -2.79193 0
M  V30 37562 H 3638.1 -0.721759 -1.44922 0
M  V30 37563 H 3640.09 1.20342 -3.86394 0
M  V30 37564 H 3638.66 1.36231 -2.81354 0
M  V30 37565 H 3637.88 -0.902808 -3.83723 0
M  V30 37566 H 3639.17 -0.705329 -5.03887 0
M  V30 37567 H 3638.57 2.4755 -5.08661 0
M  V30 37568 H 3637.13 2.50172 -6.01878 0
M  V30 37569 N 3640.56 1.44905 -0.619713 0
M  V30 37570 C 3641.97 1.85589 -0.203342 0
M  V30 37571 C 3642.32 1.51833 1.24263 0
M  V30 37572 O 3641.45 0.950853 1.94391 0
M  V30 37573 C 3642.04 3.36858 -0.362263 0
M  V30 37574 C 3640.6 3.764 -0.000489737 0
M  V30 37575 C 3639.75 2.68807 -0.681026 0
M  V30 37576 H 3642.7 1.35533 -0.825618 0
M  V30 37577 H 3642.72 3.7837 0.402083 0
M  V30 37578 H 3642.23 3.61395 -1.41475 0
M  V30 37579 H 3640.33 3.57479 1.0507 0
M  V30 37580 H 3640.45 4.77405 -0.402592 0
M  V30 37581 H 3638.81 2.54429 -0.117452 0
M  V30 37582 H 3639.59 2.96179 -1.73588 0
M  V30 37583 N 3642.04 0.359579 1.53443 0
M  V30 37584 C 3642.97 -0.533153 2.21884 0
M  V30 37585 C 3643.95 -1.08773 1.2086 0
M  V30 37586 O 3645.13 -1.14499 1.4974 0
M  V30 37587 C 3642.26 -1.73502 2.90886 0
M  V30 37588 C 3641.31 -1.30844 4.05934 0
M  V30 37589 S 3642.14 -0.314765 5.34574 0
M  V30 37590 C 3643.3 -1.5231 6.07085 0
M  V30 37591 H 3643.53 0.0481202 2.97261 0
M  V30 37592 H 3641.06 0.143672 1.5373 0
M  V30 37593 H 3643.02 -2.42445 3.31256 0
M  V30 37594 H 3641.68 -2.28754 2.15245 0
M  V30 37595 H 3640.87 -2.20499 4.53207 0
M  V30 37596 H 3640.48 -0.6983 3.67423 0
M  V30 37597 H 3642.77 -2.45508 6.31452 0
M  V30 37598 H 3643.71 -1.09186 6.99631 0
M  V30 37599 H 3644.12 -1.72643 5.37452 0
M  V30 37600 N 3643.52 -1.57351 0.0885919 0
M  V30 37601 C 3644.76 -1.93733 -0.575502 0
M  V30 37602 C 3645.09 -0.970674 -1.69124 0
M  V30 37603 O 3644.36 -0.0216251 -1.95888 0
M  V30 37604 H 3642.94 -0.715216 -0.215579 0
M  V30 37605 H 3645.6 -1.94319 0.150396 0
M  V30 37606 H 3644.69 -2.95985 -0.989927 0
M  V30 37607 N 3644.99 0.185069 -1.5651 0
M  V30 37608 C 3646.24 0.902126 -1.80401 0
M  V30 37609 C 3646.56 1.84002 -0.663529 0
M  V30 37610 O 3647.76 2.59843 -0.787009 0
M  V30 37611 C 3646.22 1.6546 -3.19611 0
M  V30 37612 C 3645.83 0.761032 -4.41489 0
M  V30 37613 C 3647.57 2.3607 -3.52805 0
M  V30 37614 C 3645.48 1.51295 -5.7172 0
M  V30 37615 H 3644.41 0.340603 -0.672686 0
M  V30 37616 H 3647.06 0.15524 -1.82842 0
M  V30 37617 H 3645.44 2.44574 -3.11448 0
M  V30 37618 H 3646.61 0.00783778 -4.60799 0
M  V30 37619 H 3644.93 0.165271 -4.16072 0
M  V30 37620 H 3647.53 2.92895 -4.47344 0
M  V30 37621 H 3647.87 3.10744 -2.77026 0
M  V30 37622 H 3648.4 1.63913 -3.6246 0
M  V30 37623 H 3645.14 0.808793 -6.50491 0
M  V30 37624 H 3644.66 2.23982 -5.5641 0
M  V30 37625 H 3646.34 2.06409 -6.13192 0
M  V30 37626 N 3646.47 1.50945 0.453144 0
M  V30 37627 C 3647.72 1.62066 1.20073 0
M  V30 37628 C 3648.03 0.335068 1.92709 0
M  V30 37629 O 3649.24 0.325428 2.69543 0
M  V30 37630 C 3647.7 2.86152 2.18277 0
M  V30 37631 C 3647.3 4.21656 1.51362 0
M  V30 37632 C 3649.05 3.06625 2.93567 0
M  V30 37633 C 3646.96 5.36908 2.47958 0
M  V30 37634 H 3645.89 0.603587 0.451883 0
M  V30 37635 H 3648.54 1.77396 0.469339 0
M  V30 37636 H 3646.92 2.6442 2.94785 0
M  V30 37637 H 3648.09 4.5371 0.805215 0
M  V30 37638 H 3646.41 4.06933 0.882864 0
M  V30 37639 H 3649 3.89903 3.65896 0
M  V30 37640 H 3649.35 2.19066 3.54 0
M  V30 37641 H 3649.88 3.28623 2.2417 0
M  V30 37642 H 3646.62 6.26678 1.92238 0
M  V30 37643 H 3646.14 5.0925 3.16899 0
M  V30 37644 H 3647.82 5.68216 3.09418 0
M  V30 37645 N 3647.95 -0.707543 1.40825 0
M  V30 37646 C 3648.91 -1.80332 1.41467 0
M  V30 37647 C 3649.91 -1.57839 0.307171 0
M  V30 37648 O 3651.1 -1.64732 0.566473 0
M  V30 37649 C 3648.24 -3.18539 1.21432 0
M  V30 37650 H 3649.43 -1.81158 2.39002 0
M  V30 37651 H 3646.98 -0.913985 1.26791 0
M  V30 37652 H 3647.72 -3.23359 0.246904 0
M  V30 37653 H 3647.5 -3.36266 2.01663 0
M  V30 37654 H 3648.99 -3.98551 1.24688 0
M  V30 37655 N 3649.43 -1.26454 -0.940588 0
M  V30 37656 C 3650.67 -1.122 -1.68935 0
M  V30 37657 C 3651.01 0.333787 -1.9131 0
M  V30 37658 O 3650.28 1.24515 -1.49419 0
M  V30 37659 C 3650.57 -1.89221 -3.06378 0
M  V30 37660 C 3650.42 -3.42709 -2.91325 0
M  V30 37661 C 3651.74 -1.68649 -4.06504 0
M  V30 37662 H 3648.86 -0.408975 -0.613114 0
M  V30 37663 H 3651.5 -1.55457 -1.09239 0
M  V30 37664 H 3649.65 -1.52456 -3.57336 0
M  V30 37665 H 3651.32 -3.8923 -2.47584 0
M  V30 37666 H 3649.56 -3.69704 -2.26938 0
M  V30 37667 H 3650.23 -3.91829 -3.88811 0
M  V30 37668 H 3652.71 -2.0068 -3.64509 0
M  V30 37669 H 3651.59 -2.24954 -5.00686 0
M  V30 37670 H 3651.85 -0.631208 -4.37571 0
M  V30 37671 N 3650.91 1.14525 -1.08268 0
M  V30 37672 C 3651.87 2.17757 -0.715155 0
M  V30 37673 C 3652.87 1.58855 0.249322 0
M  V30 37674 O 3654.06 1.74176 0.0290539 0
M  V30 37675 C 3651.19 3.40855 -0.0556349 0
M  V30 37676 H 3652.38 2.51785 -1.62925 0
M  V30 37677 H 3649.94 1.29148 -0.880369 0
M  V30 37678 H 3650.67 3.12405 0.870257 0
M  V30 37679 H 3650.46 3.84871 -0.74945 0
M  V30 37680 H 3651.95 4.17183 0.186519 0
M  V30 37681 N 3652.39 0.868133 1.31534 0
M  V30 37682 C 3653.33 0.311621 2.30503 0
M  V30 37683 C 3654.33 -0.572304 1.5944 0
M  V30 37684 O 3655.53 -0.458609 1.7406 0
M  V30 37685 H 3651.91 0.0820876 0.747506 0
M  V30 37686 H 3653.88 1.16031 2.74917 0
M  V30 37687 C 3652.63 -0.473562 3.4446 0
M  V30 37688 H 3651.95 0.197329 3.99313 0
M  V30 37689 H 3653.39 -0.82832 4.1583 0
M  V30 37690 C 3651.85 -1.66411 2.92932 0
M  V30 37691 O 3652.38 -2.76339 2.91547 0
M  V30 37692 N 3650.59 -1.49563 2.49157 0
M  V30 37693 H 3650.13 -0.601364 2.50482 0
M  V30 37694 H 3650.09 -2.29362 2.15036 0
M  V30 37695 N 3653.86 -1.44574 0.627389 0
M  V30 37696 C 3655.14 -1.95503 0.0614736 0
M  V30 37697 C 3655.52 -1.56944 -1.41179 0
M  V30 37698 O 3654.87 -0.841671 -2.12434 0
M  V30 37699 C 3655.08 -3.47872 0.28041 0
M  V30 37700 C 3656.43 -4.24253 0.171633 0
M  V30 37701 O 3657.45 -3.55571 0.211577 0
M  V30 37702 O 3656.31 -5.46451 0.0734112 0
M  V30 37703 H 3653.4 -0.826639 -0.024448 0
M  V30 37704 H 3655.95 -1.54643 0.698832 0
M  V30 37705 H 3654.72 -3.68974 1.30284 0
M  V30 37706 H 3654.34 -3.9567 -0.391267 0
M  V30 37707 N 3655.34 -0.367711 -1.5325 0
M  V30 37708 C 3656.57 0.222011 -2.05705 0
M  V30 37709 C 3656.98 1.42278 -1.24106 0
M  V30 37710 O 3656.34 1.80304 -0.282259 0
M  V30 37711 C 3656.39 0.613412 -3.56258 0
M  V30 37712 O 3656.11 -0.539634 -4.34764 0
M  V30 37713 C 3657.61 1.2613 -4.24978 0
M  V30 37714 H 3654.83 0.0385681 -0.669891 0
M  V30 37715 H 3657.38 -0.526697 -1.97601 0
M  V30 37716 H 3655.53 1.31203 -3.64506 0
M  V30 37717 H 3655.95 -0.222791 -5.24027 0
M  V30 37718 H 3657.42 1.48571 -5.3163 0
M  V30 37719 H 3657.9 2.22224 -3.78832 0
M  V30 37720 H 3658.5 0.604047 -4.20989 0
M  V30 37721 N 3656.82 1.57302 -0.0969353 0
M  V30 37722 C 3657.77 2.15358 0.878838 0
M  V30 37723 C 3658.76 1.09692 1.29089 0
M  V30 37724 O 3659.97 1.28034 1.2652 0
M  V30 37725 H 3656.34 0.688937 0.301446 0
M  V30 37726 H 3658.31 2.96166 0.36449 0
M  V30 37727 C 3657.06 2.7501 2.12756 0
M  V30 37728 H 3656.39 3.56004 1.81938 0
M  V30 37729 H 3657.83 3.19197 2.79086 0
M  V30 37730 C 3656.28 1.70995 2.9028 0
M  V30 37731 O 3656.81 1.14999 3.84887 0
M  V30 37732 N 3655.02 1.41444 2.53854 0
M  V30 37733 H 3654.57 1.87169 1.7699 0
M  V30 37734 H 3654.53 0.72087 3.06024 0
M  V30 37735 N 3658.3 -0.176766 1.56606 0
M  V30 37736 C 3659.52 -0.914048 1.86172 0
M  V30 37737 C 3659.95 -1.75275 0.682651 0
M  V30 37738 O 3659.31 -1.77518 -0.36836 0
M  V30 37739 C 3659.35 -1.77105 3.14112 0
M  V30 37740 O 3658.46 -2.87204 2.95952 0
M  V30 37741 H 3657.8 -0.256369 0.612512 0
M  V30 37742 H 3660.33 -0.17655 2.03837 0
M  V30 37743 H 3660.34 -2.17207 3.45377 0
M  V30 37744 H 3659.01 -1.15495 3.99542 0
M  V30 37745 H 3657.59 -2.50724 2.76028 0
M  V30 37746 N 3659.78 -1.51183 -0.445132 0
M  V30 37747 C 3661.02 -1.6512 -1.20478 0
M  V30 37748 C 3661.38 -0.355923 -1.88672 0
M  V30 37749 O 3662.58 -0.370979 -2.66228 0
M  V30 37750 C 3660.85 -2.81609 -2.2007 0
M  V30 37751 S 3662.41 -3.1583 -3.04626 0
M  V30 37752 H 3659.23 -0.581815 -0.408672 0
M  V30 37753 H 3661.83 -1.89062 -0.497568 0
M  V30 37754 H 3660.53 -3.7417 -1.68596 0
M  V30 37755 H 3660.07 -2.59832 -2.95383 0
M  V30 37756 H 3662.08 -2.61661 -4.21602 0
M  V30 37757 N 3661.25 0.700065 -1.41198 0
M  V30 37758 C 3662.16 1.84392 -1.45041 0
M  V30 37759 C 3663.18 1.70617 -0.34144 0
M  V30 37760 O 3664.36 1.92611 -0.588462 0
M  V30 37761 C 3661.42 3.20334 -1.32616 0
M  V30 37762 C 3660.48 3.4625 -2.5379 0
M  V30 37763 C 3659.71 4.75706 -2.41949 0
M  V30 37764 O 3659.94 5.51881 -1.44163 0
M  V30 37765 O 3658.87 5.02306 -3.31621 0
M  V30 37766 H 3662.7 1.84106 -2.41534 0
M  V30 37767 H 3660.28 0.852536 -1.22687 0
M  V30 37768 H 3662.16 4.01504 -1.27954 0
M  V30 37769 H 3660.84 3.21313 -0.392365 0
M  V30 37770 H 3659.75 2.65027 -2.64029 0
M  V30 37771 H 3661.08 3.50081 -3.45983 0
M  V30 37772 N 3662.73 1.26951 0.933869 0
M  V30 37773 C 3663.66 1.11652 2.05076 0
M  V30 37774 C 3664.64 0.0196762 1.70089 0
M  V30 37775 O 3665.83 0.193041 1.93238 0
M  V30 37776 C 3662.96 0.756446 3.38962 0
M  V30 37777 C 3661.91 1.80584 3.88038 0
M  V30 37778 C 3661.24 1.29989 5.18659 0
M  V30 37779 C 3662.54 3.20877 4.1211 0
M  V30 37780 H 3664.23 2.05081 2.18133 0
M  V30 37781 H 3661.78 0.987411 1.04815 0
M  V30 37782 H 3663.73 0.636263 4.16569 0
M  V30 37783 H 3662.45 -0.21355 3.25901 0
M  V30 37784 H 3661.11 1.91482 3.12618 0
M  V30 37785 H 3660.76 0.31953 5.01984 0
M  V30 37786 H 3660.46 2.00144 5.52464 0
M  V30 37787 H 3661.99 1.19253 5.98841 0
M  V30 37788 H 3663.4 3.13015 4.80307 0
M  V30 37789 H 3661.8 3.88687 4.57211 0
M  V30 37790 H 3662.87 3.6639 3.17626 0
M  V30 37791 N 3664.21 -1.13949 1.08873 0
M  V30 37792 C 3665.43 -1.89491 0.843089 0
M  V30 37793 C 3665.86 -1.78291 -0.599507 0
M  V30 37794 O 3665.22 -1.12644 -1.4206 0
M  V30 37795 C 3665.27 -3.37278 1.27578 0
M  V30 37796 O 3664.37 -4.10145 0.430683 0
M  V30 37797 H 3663.71 -0.589386 0.305811 0
M  V30 37798 H 3666.24 -1.44207 1.4514 0
M  V30 37799 H 3666.25 -3.88098 1.25871 0
M  V30 37800 H 3664.93 -3.44747 2.32641 0
M  V30 37801 H 3663.5 -3.69374 0.511581 0
M  V30 37802 N 3665.69 -0.875096 -1.31072 0
M  V30 37803 C 3667.1 -0.540453 -1.78706 0
M  V30 37804 C 3667.45 0.942904 -1.72057 0
M  V30 37805 O 3666.57 1.73641 -1.29142 0
M  V30 37806 C 3667.17 -0.97426 -3.2449 0
M  V30 37807 C 3665.73 -0.691192 -3.69999 0
M  V30 37808 C 3664.88 -1.16273 -2.51745 0
M  V30 37809 H 3667.83 -1.06031 -1.18081 0
M  V30 37810 H 3667.85 -0.29907 -3.79323 0
M  V30 37811 H 3667.36 -2.0539 -3.29297 0
M  V30 37812 H 3665.46 0.376872 -3.70689 0
M  V30 37813 H 3665.57 -1.27182 -4.61911 0
M  V30 37814 H 3663.94 -0.582346 -2.47953 0
M  V30 37815 H 3664.72 -2.24991 -2.59295 0
M  V30 37816 N 3667.17 1.44239 -0.635047 0
M  V30 37817 C 3668.41 2.03889 -0.144465 0
M  V30 37818 C 3668.77 1.48899 1.21215 0
M  V30 37819 O 3669.97 2.00076 1.79507 0
M  V30 37820 C 3668.24 3.57146 -0.134839 0
M  V30 37821 S 3669.8 4.37837 0.290551 0
M  V30 37822 H 3666.62 0.708203 -0.063009 0
M  V30 37823 H 3669.22 1.76567 -0.839315 0
M  V30 37824 H 3667.93 3.94673 -1.12523 0
M  V30 37825 H 3667.46 3.89084 0.581133 0
M  V30 37826 H 3669.47 4.71898 1.53383 0
M  V30 37827 N 3668.64 0.375833 1.53053 0
M  V30 37828 C 3670.06 0.0252045 1.5958 0
M  V30 37829 C 3670.26 -1.45834 1.3905 0
M  V30 37830 O 3669.32 -2.22121 1.20076 0
M  V30 37831 C 3670.63 0.490326 2.96675 0
M  V30 37832 C 3672.18 0.445425 3.09814 0
M  V30 37833 C 3672.65 0.88652 4.49338 0
M  V30 37834 N 3674.14 0.84199 4.55483 0
M  V30 37835 C 3674.88 1.15486 5.6165 0
M  V30 37836 N 3674.37 1.53753 6.75523 0
M  V30 37837 N 3676.17 1.07699 5.51686 0
M  V30 37838 H 3668.32 1.34181 1.64649 0
M  V30 37839 H 3670.58 0.549117 0.772771 0
M  V30 37840 H 3670.29 1.52595 3.16872 0
M  V30 37841 H 3670.16 -0.117694 3.77016 0
M  V30 37842 H 3672.55 -0.581087 2.89322 0
M  V30 37843 H 3672.63 1.08907 2.31458 0
M  V30 37844 H 3672.27 1.9112 4.7057 0
M  V30 37845 H 3672.2 0.220018 5.2614 0
M  V30 37846 H 3674.69 0.560216 3.73724 0
M  V30 37847 H 3675.01 1.76025 7.52486 0
M  V30 37848 H 3673.35 1.57627 6.76889 0
M  V30 37849 H 3676.54 0.777143 4.61604 0
M  V30 37850 H 3676.72 1.32415 6.34327 0
M  V30 37851 N 3670.12 -1.57248 0.105276 0
M  V30 37852 C 3671.37 -1.93892 -0.555763 0
M  V30 37853 C 3671.68 -0.989913 -1.68701 0
M  V30 37854 O 3672.89 -1.25047 -2.40989 0
M  V30 37855 C 3671.35 -3.44546 -1.04 0
M  V30 37856 C 3670.95 -4.47957 0.0620429 0
M  V30 37857 C 3672.7 -3.90134 -1.6732 0
M  V30 37858 C 3670.61 -5.89775 -0.438125 0
M  V30 37859 H 3669.54 -0.723765 -0.211378 0
M  V30 37860 H 3672.19 -1.82586 0.182919 0
M  V30 37861 H 3670.57 -3.51039 -1.83269 0
M  V30 37862 H 3671.74 -4.53118 0.837882 0
M  V30 37863 H 3670.06 -4.12039 0.601046 0
M  V30 37864 H 3672.65 -4.93495 -2.05831 0
M  V30 37865 H 3673 -3.29345 -2.54632 0
M  V30 37866 H 3673.53 -3.86384 -0.946163 0
M  V30 37867 H 3670.27 -6.54287 0.398621 0
M  V30 37868 H 3669.79 -5.88063 -1.18075 0
M  V30 37869 H 3671.47 -6.40656 -0.903809 0
M  V30 37870 N 3671.6 0.168458 -1.56697 0
M  V30 37871 C 3672.55 1.22783 -1.97553 0
M  V30 37872 C 3673.54 1.45669 -0.864693 0
M  V30 37873 O 3674.75 1.46215 -1.04982 0
M  V30 37874 H 3671.12 0.412802 -0.628569 0
M  V30 37875 H 3673.09 0.85641 -2.85846 0
M  V30 37876 C 3671.84 2.55896 -2.35399 0
M  V30 37877 H 3671.17 2.3911 -3.20416 0
M  V30 37878 H 3672.61 3.28702 -2.67827 0
M  V30 37879 C 3671.07 3.14862 -1.19848 0
M  V30 37880 O 3671.6 3.98729 -0.487671 0
M  V30 37881 N 3669.8 2.73993 -0.968297 0
M  V30 37882 H 3669.35 2.05894 -1.54807 0
M  V30 37883 H 3669.31 3.13782 -0.197006 0
M  V30 37884 N 3673.08 1.51417 0.437109 0
M  V30 37885 C 3674.03 1.73322 1.5512 0
M  V30 37886 C 3675.02 0.599539 1.58436 0
M  V30 37887 O 3676.23 0.780925 1.62178 0
M  V30 37888 H 3672.6 0.547641 0.515358 0
M  V30 37889 H 3674.57 2.66711 1.3382 0
M  V30 37890 C 3673.32 1.87559 2.92774 0
M  V30 37891 H 3672.64 2.74199 2.90955 0
M  V30 37892 H 3674.08 2.06898 3.70094 0
M  V30 37893 C 3672.54 0.635466 3.30853 0
M  V30 37894 O 3673.07 -0.20976 4.01152 0
M  V30 37895 N 3671.28 0.479491 2.86617 0
M  V30 37896 H 3670.83 1.16838 2.29579 0
M  V30 37897 H 3670.78 -0.349023 3.12457 0
M  V30 37898 N 3674.56 -0.692567 1.41567 0
M  V30 37899 C 3675.8 -1.44975 1.40807 0
M  V30 37900 C 3676.13 -1.94991 0.0191382 0
M  V30 37901 O 3675.4 -1.71901 -0.939513 0
M  V30 37902 H 3673.98 -0.537933 0.518302 0
M  V30 37903 H 3676.64 -0.819529 1.76833 0
M  V30 37904 H 3675.73 -2.31145 2.0971 0
M  V30 37905 N 3676.03 -1.27445 -0.927123 0
M  V30 37906 C 3677.28 -1.13592 -1.67157 0
M  V30 37907 C 3677.6 0.318617 -1.92379 0
M  V30 37908 O 3676.87 1.22284 -1.53047 0
M  V30 37909 H 3675.45 -0.417382 -0.619517 0
M  V30 37910 H 3678.12 -1.59981 -1.1132 0
M  V30 37911 H 3677.21 -1.66542 -2.63951 0
M  V30 37912 N 3677.51 1.1337 -1.09476 0
M  V30 37913 C 3678.75 1.86307 -0.840786 0
M  V30 37914 C 3679.12 1.81636 0.622295 0
M  V30 37915 O 3680.32 2.49817 0.992221 0
M  V30 37916 C 3678.59 3.30436 -1.36186 0
M  V30 37917 S 3680.15 4.20861 -1.24183 0
M  V30 37918 H 3676.97 0.642694 -0.304082 0
M  V30 37919 H 3679.57 1.36636 -1.39824 0
M  V30 37920 H 3678.27 3.3139 -2.42092 0
M  V30 37921 H 3677.8 3.85168 -0.800553 0
M  V30 37922 H 3679.82 4.95824 -0.193108 0
M  V30 37923 N 3678.99 0.882035 1.30606 0
M  V30 37924 C 3679.92 0.303901 2.27176 0
M  V30 37925 C 3680.94 -0.539872 1.53588 0
M  V30 37926 O 3682.12 -0.3599 1.74834 0
M  V30 37927 C 3679.22 -0.58677 3.33782 0
M  V30 37928 C 3678.4 0.227274 4.36809 0
M  V30 37929 C 3677.46 -0.593427 5.22843 0
M  V30 37930 O 3676.48 -0.0171694 5.69197 0
M  V30 37931 N 3677.68 -1.90311 5.48418 0
M  V30 37932 H 3680.45 1.13383 2.77424 0
M  V30 37933 H 3678.01 0.744723 1.43755 0
M  V30 37934 H 3680 -1.14179 3.88259 0
M  V30 37935 H 3678.57 -1.31738 2.83485 0
M  V30 37936 H 3677.79 0.963741 3.82238 0
M  V30 37937 H 3679.08 0.785403 5.02702 0
M  V30 37938 H 3678.48 -2.39426 5.12535 0
M  V30 37939 H 3677.04 -2.40565 6.05782 0
M  V30 37940 N 3680.47 -1.439 0.642688 0
M  V30 37941 C 3681.75 -1.95427 0.0822059 0
M  V30 37942 C 3682.13 -1.58433 -1.39507 0
M  V30 37943 O 3681.47 -0.864156 -2.11529 0
M  V30 37944 C 3681.68 -3.47555 0.317291 0
M  V30 37945 C 3683.03 -4.24047 0.216621 0
M  V30 37946 O 3684.06 -3.55327 0.249278 0
M  V30 37947 O 3682.91 -5.46342 0.131365 0
M  V30 37948 H 3680.01 -0.826851 -0.0156791 0
M  V30 37949 H 3682.55 -1.53893 0.715195 0
M  V30 37950 H 3681.33 -3.67571 1.34191 0
M  V30 37951 H 3680.95 -3.96063 -0.349278 0
M  V30 37952 N 3681.95 -0.383945 -1.52852 0
M  V30 37953 C 3682.88 0.44535 -2.29214 0
M  V30 37954 C 3683.86 1.06813 -1.32382 0
M  V30 37955 O 3685.04 1.08191 -1.61271 0
M  V30 37956 C 3682.17 1.57567 -3.09499 0
M  V30 37957 C 3681.13 1.07921 -4.1417 0
M  V30 37958 C 3680.45 2.30119 -4.82648 0
M  V30 37959 C 3681.75 0.150943 -5.22082 0
M  V30 37960 H 3683.45 -0.191773 -2.98785 0
M  V30 37961 H 3680.99 -0.0936724 -1.43695 0
M  V30 37962 H 3682.95 2.16261 -3.61676 0
M  V30 37963 H 3681.67 2.2403 -2.37651 0
M  V30 37964 H 3680.33 0.514846 -3.62967 0
M  V30 37965 H 3679.98 2.9508 -4.07353 0
M  V30 37966 H 3679.68 1.97565 -5.53391 0
M  V30 37967 H 3681.2 2.89465 -5.37627 0
M  V30 37968 H 3682.62 0.645903 -5.6965 0
M  V30 37969 H 3681.01 -0.0845887 -6.0004 0
M  V30 37970 H 3682.08 -0.801703 -4.78227 0
M  V30 37971 N 3683.43 1.5719 -0.113614 0
M  V30 37972 C 3684.67 1.96894 0.548837 0
M  V30 37973 C 3685.03 0.995279 1.6419 0
M  V30 37974 O 3686.23 1.28149 2.36286 0
M  V30 37975 C 3684.5 3.40921 1.07273 0
M  V30 37976 S 3686.06 4.02634 1.74446 0
M  V30 37977 H 3682.88 0.688215 0.178553 0
M  V30 37978 H 3685.48 1.94501 -0.197416 0
M  V30 37979 H 3684.18 4.09537 0.265947 0
M  V30 37980 H 3683.72 3.46953 1.85438 0
M  V30 37981 H 3685.73 3.92951 3.02991 0
M  V30 37982 N 3684.9 -0.160146 1.56784 0
M  V30 37983 C 3685.83 -1.20009 2.003 0
M  V30 37984 C 3686.81 -1.45545 0.880382 0
M  V30 37985 O 3688 -1.56689 1.14726 0
M  V30 37986 C 3685.13 -2.5364 2.37242 0
M  V30 37987 C 3684.08 -2.42652 3.52568 0
M  V30 37988 C 3683.41 -3.80875 3.75284 0
M  V30 37989 C 3684.71 -1.92174 4.85661 0
M  V30 37990 H 3686.4 -0.838311 2.87424 0
M  V30 37991 H 3683.95 -0.401813 1.3828 0
M  V30 37992 H 3685.9 -3.26605 2.66284 0
M  V30 37993 H 3684.63 -2.91628 1.4704 0
M  V30 37994 H 3683.29 -1.7214 3.23672 0
M  V30 37995 H 3682.93 -4.16275 2.82354 0
M  V30 37996 H 3682.63 -3.74388 4.52888 0
M  V30 37997 H 3684.16 -4.55408 4.06738 0
M  V30 37998 H 3685.57 -2.54922 5.13505 0
M  V30 37999 H 3683.97 -1.96609 5.66979 0
M  V30 38000 H 3685.04 -0.876658 4.7691 0
M  V30 38001 N 3686.38 -1.51647 -0.429072 0
M  V30 38002 C 3687.31 -1.76508 -1.52863 0
M  V30 38003 C 3688.29 -0.615205 -1.58585 0
M  V30 38004 O 3689.48 -0.858772 -1.7418 0
M  V30 38005 C 3686.61 -1.89765 -2.90872 0
M  V30 38006 C 3685.56 -3.05252 -3.00008 0
M  V30 38007 C 3684.89 -3.03704 -4.40077 0
M  V30 38008 C 3686.19 -4.45073 -2.73327 0
M  V30 38009 H 3687.88 -2.68579 -1.3231 0
M  V30 38010 H 3685.43 -1.2924 -0.635069 0
M  V30 38011 H 3687.38 -2.05741 -3.67762 0
M  V30 38012 H 3686.1 -0.943497 -3.12675 0
M  V30 38013 H 3684.76 -2.88995 -2.2556 0
M  V30 38014 H 3684.41 -2.0605 -4.5886 0
M  V30 38015 H 3684.11 -3.8126 -4.47118 0
M  V30 38016 H 3685.64 -3.21784 -5.18929 0
M  V30 38017 H 3687.05 -4.61638 -3.39946 0
M  V30 38018 H 3685.45 -5.24396 -2.91768 0
M  V30 38019 H 3686.52 -4.54541 -1.68881 0
M  V30 38020 N 3687.86 0.685049 -1.41932 0
M  V30 38021 C 3689.09 1.47362 -1.45231 0
M  V30 38022 C 3689.5 1.88703 -0.0606281 0
M  V30 38023 O 3688.86 1.57473 0.922413 0
M  V30 38024 C 3688.91 2.72938 -2.37038 0
M  V30 38025 O 3688.63 2.33335 -3.70791 0
M  V30 38026 C 3690.13 3.66591 -2.4925 0
M  V30 38027 H 3687.35 0.453773 -0.494299 0
M  V30 38028 H 3689.9 0.842597 -1.86335 0
M  V30 38029 H 3688.05 3.32253 -1.99215 0
M  V30 38030 H 3688.47 3.14355 -4.19859 0
M  V30 38031 H 3689.94 4.51458 -3.17632 0
M  V30 38032 H 3690.42 4.11796 -1.5271 0
M  V30 38033 H 3691.02 3.13175 -2.87752 0
M  V30 38034 N 3689.34 1.27935 0.920351 0
M  V30 38035 C 3690.29 1.07941 2.0083 0
M  V30 38036 C 3691.27 0.00510728 1.60899 0
M  V30 38037 O 3692.46 0.224492 1.75571 0
M  V30 38038 C 3689.59 0.736359 3.3531 0
M  V30 38039 C 3688.68 1.84917 3.81663 0
M  V30 38040 N 3689.07 3.08984 4.00453 0
M  V30 38041 C 3687.37 1.73752 4.10763 0
M  V30 38042 C 3688.07 3.81449 4.39171 0
M  V30 38043 N 3687.04 3.09257 4.47058 0
M  V30 38044 H 3690.85 2.02085 2.13399 0
M  V30 38045 H 3688.36 1.18757 1.10772 0
M  V30 38046 H 3690.36 0.574217 4.12927 0
M  V30 38047 H 3689.02 -0.19738 3.241 0
M  V30 38048 H 3690.03 3.44667 3.86556 0
M  V30 38049 H 3686.71 0.875114 4.08225 0
M  V30 38050 H 3688.1 4.88117 4.61727 0
M  V30 38051 N 3690.82 -1.12788 1.10076 0
M  V30 38052 C 3691.75 -2.18118 0.704061 0
M  V30 38053 C 3692.76 -1.60752 -0.257392 0
M  V30 38054 O 3693.95 -1.7845 -0.0424245 0
M  V30 38055 C 3691.05 -3.38895 0.0177262 0
M  V30 38056 C 3690.22 -4.25759 1.00241 0
M  V30 38057 C 3689.28 -5.25046 0.34825 0
M  V30 38058 O 3688.31 -5.60384 0.99792 0
M  V30 38059 N 3689.51 -5.73561 -0.894854 0
M  V30 38060 H 3692.27 -2.52765 1.61028 0
M  V30 38061 H 3689.84 -1.28174 0.98909 0
M  V30 38062 H 3691.83 -4.02395 -0.431276 0
M  V30 38063 H 3690.4 -3.02431 -0.790846 0
M  V30 38064 H 3689.62 -3.58931 1.62979 0
M  V30 38065 H 3690.91 -4.80645 1.66908 0
M  V30 38066 H 3690.3 -5.4701 -1.44211 0
M  V30 38067 H 3688.86 -6.38966 -1.28707 0
M  V30 38068 N 3692.29 -0.888949 -1.30136 0
M  V30 38069 C 3693.54 -0.508393 -1.95601 0
M  V30 38070 C 3693.86 0.946347 -1.70497 0
M  V30 38071 O 3693.13 1.6659 -1.03076 0
M  V30 38072 H 3691.71 -0.185018 -0.723725 0
M  V30 38073 H 3694.37 -1.13289 -1.58592 0
M  V30 38074 H 3693.47 -0.681968 -3.04558 0
M  V30 38075 N 3693.77 1.43557 -0.65031 0
M  V30 38076 C 3694.72 2.27906 0.0653286 0
M  V30 38077 C 3695.71 1.39739 0.797604 0
M  V30 38078 O 3696.9 1.63394 0.68055 0
M  V30 38079 C 3694.03 3.27388 1.03306 0
M  V30 38080 C 3693.11 4.23042 0.299406 0
M  V30 38081 N 3693.5 5.01175 -0.682478 0
M  V30 38082 C 3691.8 4.42704 0.541252 0
M  V30 38083 C 3692.5 5.70861 -1.11768 0
M  V30 38084 N 3691.48 5.41713 -0.452529 0
M  V30 38085 H 3695.28 2.8573 -0.688164 0
M  V30 38086 H 3692.79 1.55226 -0.477354 0
M  V30 38087 H 3694.79 3.86592 1.56051 0
M  V30 38088 H 3693.45 2.71126 1.78664 0
M  V30 38089 H 3694.46 5.06914 -1.06108 0
M  V30 38090 H 3691.14 3.97516 1.27623 0
M  V30 38091 H 3692.53 6.43585 -1.92996 0
M  V30 38092 N 3695.25 0.392045 1.52646 0
M  V30 38093 C 3696.5 -0.189545 2.01912 0
M  V30 38094 C 3696.83 -1.46231 1.27789 0
M  V30 38095 O 3696.1 -1.90769 0.379157 0
M  V30 38096 C 3696.39 -0.454672 3.57218 0
M  V30 38097 C 3696.24 0.833578 4.42008 0
M  V30 38098 C 3697.56 -1.24413 4.22149 0
M  V30 38099 H 3694.68 -0.0674152 0.73391 0
M  V30 38100 H 3697.32 0.522153 1.82684 0
M  V30 38101 H 3695.47 -1.06094 3.73733 0
M  V30 38102 H 3697.14 1.47035 4.3724 0
M  V30 38103 H 3695.38 1.4483 4.08909 0
M  V30 38104 H 3696.06 0.602681 5.487 0
M  V30 38105 H 3698.53 -0.731021 4.09628 0
M  V30 38106 H 3697.41 -1.39838 5.30789 0
M  V30 38107 H 3697.67 -2.26009 3.79964 0
M  V30 38108 N 3696.73 -1.57127 0.121948 0
M  V30 38109 C 3697.68 -2.16729 -0.844465 0
M  V30 38110 C 3698.67 -1.11732 -1.27328 0
M  V30 38111 O 3699.88 -1.3003 -1.24467 0
M  V30 38112 H 3696.25 -0.693646 -0.290447 0
M  V30 38113 H 3698.22 -2.96708 -0.317327 0
M  V30 38114 C 3696.97 -2.7836 -2.08354 0
M  V30 38115 H 3696.29 -3.58853 -1.76251 0
M  V30 38116 H 3697.73 -3.23597 -2.73972 0
M  V30 38117 C 3696.19 -1.75591 -2.87523 0
M  V30 38118 O 3696.72 -1.21107 -3.83009 0
M  V30 38119 N 3694.93 -1.45464 -2.51572 0
M  V30 38120 H 3694.48 -1.89961 -1.7399 0
M  V30 38121 H 3694.43 -0.769464 -3.04839 0
M  V30 38122 N 3698.21 0.151829 -1.56867 0
M  V30 38123 C 3699.45 0.871522 -1.84889 0
M  V30 38124 C 3699.81 1.78565 -0.70558 0
M  V30 38125 O 3701.01 2.54443 -0.866725 0
M  V30 38126 C 3699.28 1.62972 -3.1808 0
M  V30 38127 S 3700.84 2.3955 -3.67643 0
M  V30 38128 H 3697.66 0.291532 -0.648483 0
M  V30 38129 H 3700.26 0.131839 -1.95055 0
M  V30 38130 H 3698.97 0.949551 -3.99264 0
M  V30 38131 H 3698.5 2.41041 -3.10906 0
M  V30 38132 H 3700.51 3.64647 -3.36522 0
M  V30 38133 N 3699.68 1.51872 0.421024 0
M  V30 38134 C 3700.91 1.69467 1.19565 0
M  V30 38135 C 3701.33 0.398301 1.83835 0
M  V30 38136 O 3700.69 -0.643142 1.69509 0
M  V30 38137 C 3700.74 2.82325 2.24332 0
M  V30 38138 O 3699.84 2.47065 3.30201 0
M  V30 38139 H 3699.19 0.564533 0.349569 0
M  V30 38140 H 3701.72 1.98518 0.495142 0
M  V30 38141 H 3701.73 3.0689 2.68855 0
M  V30 38142 H 3700.4 3.76387 1.76934 0
M  V30 38143 H 3698.98 2.3313 2.91041 0
M  V30 38144 N 3701.16 -0.677513 1.42294 0
M  V30 38145 C 3702.4 -1.44962 1.44102 0
M  V30 38146 C 3702.77 -1.91922 0.0545612 0
M  V30 38147 O 3703.97 -2.68748 -0.0526246 0
M  V30 38148 C 3702.24 -2.61647 2.43466 0
M  V30 38149 S 3703.8 -3.50534 2.63954 0
M  V30 38150 H 3700.62 -0.495144 0.510249 0
M  V30 38151 H 3703.22 -0.788907 1.78876 0
M  V30 38152 H 3701.92 -2.25381 3.42975 0
M  V30 38153 H 3701.45 -3.32593 2.10108 0
M  V30 38154 H 3703.47 -4.57527 1.9205 0
M  V30 38155 N 3702.64 -1.28421 -0.913554 0
M  V30 38156 C 3704.06 -1.06132 -1.19198 0
M  V30 38157 C 3704.26 0.196197 -2.00543 0
M  V30 38158 O 3703.31 0.897811 -2.35999 0
M  V30 38159 C 3704.63 -2.30892 -1.92638 0
M  V30 38160 C 3706.17 -2.36073 -2.0552 0
M  V30 38161 C 3706.65 -3.606 -2.82368 0
M  V30 38162 N 3708.14 -3.61241 -2.89929 0
M  V30 38163 C 3708.87 -4.54273 -3.49891 0
M  V30 38164 N 3708.37 -5.57623 -4.11131 0
M  V30 38165 N 3710.16 -4.41868 -3.47432 0
M  V30 38166 H 3702.31 -2.09144 -0.370473 0
M  V30 38167 H 3704.58 -0.92053 -0.226556 0
M  V30 38168 H 3704.28 -3.22507 -1.40294 0
M  V30 38169 H 3704.16 -2.37321 -2.93187 0
M  V30 38170 H 3706.54 -1.44956 -2.57044 0
M  V30 38171 H 3706.63 -2.33639 -1.04146 0
M  V30 38172 H 3706.27 -4.52062 -2.31523 0
M  V30 38173 H 3706.2 -3.60289 -3.84057 0
M  V30 38174 H 3708.69 -2.86506 -2.46419 0
M  V30 38175 H 3709 -6.24754 -4.54866 0
M  V30 38176 H 3707.35 -5.61449 -4.09635 0
M  V30 38177 H 3710.54 -3.60328 -2.98799 0
M  V30 38178 H 3710.71 -5.14558 -3.93871 0
M  V30 38179 N 3704.12 1.12202 -1.10672 0
M  V30 38180 C 3705.37 1.83403 -0.848982 0
M  V30 38181 C 3705.69 1.84638 0.627208 0
M  V30 38182 O 3704.96 1.31125 1.45544 0
M  V30 38183 H 3703.54 0.679143 -0.311086 0
M  V30 38184 H 3706.2 1.35853 -1.39749 0
M  V30 38185 H 3705.3 2.8752 -1.21403 0
M  V30 38186 N 3705.6 0.895838 1.29663 0
M  V30 38187 C 3706.84 0.518759 1.95329 0
M  V30 38188 C 3707.17 -0.937292 1.70997 0
M  V30 38189 O 3706.44 -1.66041 1.03958 0
M  V30 38190 H 3705.02 0.188854 0.722733 0
M  V30 38191 H 3707.68 1.14129 1.57989 0
M  V30 38192 H 3706.77 0.69811 3.04192 0
M  V30 38193 N 3707.07 -1.43211 0.657914 0
M  V30 38194 C 3708.49 -1.56237 0.325903 0
M  V30 38195 C 3708.69 -1.64072 -1.16973 0
M  V30 38196 O 3707.75 -1.59837 -1.9547 0
M  V30 38197 C 3709.06 -2.82092 1.04139 0
M  V30 38198 C 3710.61 -2.95842 1.02209 0
M  V30 38199 C 3711.08 -4.24534 1.71856 0
M  V30 38200 N 3712.57 -4.31409 1.68643 0
M  V30 38201 C 3713.31 -5.29764 2.19403 0
M  V30 38202 N 3712.8 -6.3437 2.78472 0
M  V30 38203 N 3714.6 -5.21449 2.09875 0
M  V30 38204 H 3706.75 -1.36368 1.62842 0
M  V30 38205 H 3709.01 -0.655259 0.685084 0
M  V30 38206 H 3708.72 -2.82381 2.09652 0
M  V30 38207 H 3708.59 -3.72463 0.595907 0
M  V30 38208 H 3710.98 -2.9509 -0.024651 0
M  V30 38209 H 3711.06 -2.06747 1.5063 0
M  V30 38210 H 3710.7 -4.26047 2.76489 0
M  V30 38211 H 3710.63 -5.12534 1.20897 0
M  V30 38212 H 3713.12 -3.56437 1.25542 0
M  V30 38213 H 3713.44 -7.05746 3.14868 0
M  V30 38214 H 3711.78 -6.3498 2.82534 0
M  V30 38215 H 3714.97 -4.38644 1.63429 0
M  V30 38216 H 3715.15 -5.9794 2.49742 0
M  V30 38217 N 3708.55 -0.400135 -1.52436 0
M  V30 38218 C 3709.8 0.179873 -2.00896 0
M  V30 38219 C 3710.11 1.46989 -1.29049 0
M  V30 38220 O 3711.32 2.1306 -1.68278 0
M  V30 38221 C 3709.78 0.371106 -3.57982 0
M  V30 38222 C 3709.38 -0.90629 -4.38737 0
M  V30 38223 C 3711.13 0.906892 -4.147 0
M  V30 38224 C 3709.04 -0.682741 -5.87446 0
M  V30 38225 H 3707.97 0.0709948 -0.75065 0
M  V30 38226 H 3710.62 -0.5242 -1.75853 0
M  V30 38227 H 3709 1.13729 -3.79317 0
M  V30 38228 H 3710.17 -1.67793 -4.29165 0
M  V30 38229 H 3708.49 -1.36783 -3.93293 0
M  V30 38230 H 3711.08 1.09003 -5.23472 0
M  V30 38231 H 3711.43 1.87904 -3.7148 0
M  V30 38232 H 3711.96 0.199998 -3.97297 0
M  V30 38233 H 3708.7 -1.6262 -6.35008 0
M  V30 38234 H 3708.22 0.0497662 -5.99779 0
M  V30 38235 H 3709.9 -0.321445 -6.46201 0
M  V30 38236 N 3710.03 1.57061 -0.13028 0
M  V30 38237 C 3710.96 2.18921 0.812151 0
M  V30 38238 C 3711.94 1.13251 1.26918 0
M  V30 38239 O 3713.13 1.41531 1.32976 0
M  V30 38240 C 3710.26 2.79758 2.05798 0
M  V30 38241 C 3709.21 3.91108 1.73834 0
M  V30 38242 C 3708.54 4.38804 3.05541 0
M  V30 38243 C 3709.84 5.12678 0.997901 0
M  V30 38244 H 3711.53 2.97927 0.29664 0
M  V30 38245 H 3709.08 1.43306 0.141239 0
M  V30 38246 H 3711.03 3.21695 2.72195 0
M  V30 38247 H 3709.75 1.98058 2.59693 0
M  V30 38248 H 3708.41 3.49764 1.09822 0
M  V30 38249 H 3708.06 3.53948 3.57393 0
M  V30 38250 H 3707.76 5.13899 2.84923 0
M  V30 38251 H 3709.28 4.834 3.73037 0
M  V30 38252 H 3710.7 5.51565 1.56362 0
M  V30 38253 H 3709.1 5.93429 0.892274 0
M  V30 38254 H 3710.17 4.84898 -0.0133789 0
M  V30 38255 N 3711.51 -0.143508 1.56945 0
M  V30 38256 C 3712.44 -1.20226 1.95136 0
M  V30 38257 C 3713.45 -1.38994 0.847618 0
M  V30 38258 O 3714.64 -1.38503 1.12602 0
M  V30 38259 C 3711.74 -2.56652 2.2132 0
M  V30 38260 C 3710.92 -2.58816 3.52609 0
M  V30 38261 C 3709.98 -3.76807 3.67292 0
M  V30 38262 O 3709 -3.61519 4.3965 0
M  V30 38263 N 3710.2 -4.94401 3.04217 0
M  V30 38264 H 3712.97 -0.87761 2.86563 0
M  V30 38265 H 3710.53 -0.333037 1.58438 0
M  V30 38266 H 3712.52 -3.34102 2.28381 0
M  V30 38267 H 3711.09 -2.81397 1.36142 0
M  V30 38268 H 3710.31 -1.67258 3.56957 0
M  V30 38269 H 3711.6 -2.57296 4.38949 0
M  V30 38270 H 3711 -5.09724 2.45353 0
M  V30 38271 H 3709.55 -5.69613 3.16834 0
M  V30 38272 N 3712.99 -1.52093 -0.412964 0
M  V30 38273 C 3714.26 -1.56524 -1.17302 0
M  V30 38274 C 3714.64 -0.343963 -2.08279 0
M  V30 38275 O 3713.99 0.669437 -2.18474 0
M  V30 38276 C 3714.2 -2.89194 -1.95366 0
M  V30 38277 C 3715.55 -3.42053 -2.51565 0
M  V30 38278 O 3716.57 -2.90908 -2.0555 0
M  V30 38279 O 3715.43 -4.31352 -3.35555 0
M  V30 38280 H 3712.53 -0.63032 -0.535375 0
M  V30 38281 H 3715.07 -1.64419 -0.420055 0
M  V30 38282 H 3713.85 -3.69531 -1.28695 0
M  V30 38283 H 3713.47 -2.84574 -2.77675 0
M  V30 38284 N 3714.47 0.669957 -1.42651 0
M  V30 38285 C 3715.74 1.42621 -1.33861 0
M  V30 38286 C 3716.12 2.11089 0.0216914 0
M  V30 38287 O 3715.47 2.03591 1.03744 0
M  V30 38288 C 3715.68 2.42468 -2.51019 0
M  V30 38289 C 3717.03 3.06967 -2.93353 0
M  V30 38290 O 3718.05 2.52795 -2.50944 0
M  V30 38291 O 3716.91 4.05145 -3.66769 0
M  V30 38292 H 3714.01 0.636384 -0.528152 0
M  V30 38293 H 3716.55 0.698273 -1.54668 0
M  V30 38294 H 3715.32 1.90707 -3.41682 0
M  V30 38295 H 3714.95 3.22735 -2.32223 0
M  V30 38296 N 3715.94 1.28904 0.90673 0
M  V30 38297 C 3716.87 1.15977 2.02661 0
M  V30 38298 C 3717.85 0.05575 1.70009 0
M  V30 38299 O 3719.04 0.233986 1.92785 0
M  V30 38300 C 3716.17 0.828175 3.37281 0
M  V30 38301 C 3715.12 1.88774 3.8412 0
M  V30 38302 C 3714.45 1.40962 5.15785 0
M  V30 38303 C 3715.75 3.29547 4.05211 0
M  V30 38304 H 3717.44 2.09662 2.13734 0
M  V30 38305 H 3714.99 1.00942 1.02697 0
M  V30 38306 H 3716.94 0.724481 4.15126 0
M  V30 38307 H 3715.67 -0.144373 3.26281 0
M  V30 38308 H 3714.33 1.9807 3.08486 0
M  V30 38309 H 3713.97 0.425936 5.01193 0
M  V30 38310 H 3713.67 2.11817 5.48094 0
M  V30 38311 H 3715.2 1.31928 5.96177 0
M  V30 38312 H 3716.61 3.23132 4.73559 0
M  V30 38313 H 3715.01 3.98298 4.48864 0
M  V30 38314 H 3716.08 3.73045 3.09783 0
M  V30 38315 N 3717.42 -1.11614 1.11266 0
M  V30 38316 C 3718.65 -1.87119 0.882835 0
M  V30 38317 C 3719.06 -1.80077 -0.567247 0
M  V30 38318 O 3718.42 -1.18076 -1.39156 0
M  V30 38319 C 3718.47 -3.36002 1.33361 0
M  V30 38320 O 3718.19 -3.42892 2.72684 0
M  V30 38321 C 3719.69 -4.28419 1.13894 0
M  V30 38322 H 3716.91 -0.591781 0.316285 0
M  V30 38323 H 3719.46 -1.41175 1.47953 0
M  V30 38324 H 3717.61 -3.79458 0.780414 0
M  V30 38325 H 3718.03 -4.35584 2.92176 0
M  V30 38326 H 3719.5 -5.31133 1.50339 0
M  V30 38327 H 3719.98 -4.3913 0.0783362 0
M  V30 38328 H 3720.58 -3.90754 1.67903 0
M  V30 38329 N 3718.9 -0.902701 -1.29186 0
M  V30 38330 C 3720.14 -0.537105 -1.97217 0
M  V30 38331 C 3720.5 0.900393 -1.69579 0
M  V30 38332 O 3721.7 1.37301 -2.31088 0
M  V30 38333 C 3719.98 -0.824857 -3.47751 0
M  V30 38334 S 3721.53 -0.564019 -4.3516 0
M  V30 38335 H 3718.35 -0.199148 -0.68254 0
M  V30 38336 H 3720.95 -1.16578 -1.56939 0
M  V30 38337 H 3719.66 -1.86922 -3.6536 0
M  V30 38338 H 3719.19 -0.184411 -3.92968 0
M  V30 38339 H 3721.2 0.589611 -4.92685 0
M  V30 38340 N 3720.38 1.4286 -0.6655 0
M  V30 38341 C 3721.79 1.56062 -0.334184 0
M  V30 38342 C 3721.99 1.6469 1.16101 0
M  V30 38343 O 3721.05 1.60871 1.9462 0
M  V30 38344 C 3722.36 2.81535 -1.05633 0
M  V30 38345 C 3723.91 2.95296 -1.03776 0
M  V30 38346 C 3724.39 4.23617 -1.74105 0
M  V30 38347 N 3725.88 4.30509 -1.70928 0
M  V30 38348 C 3726.61 5.28593 -2.22209 0
M  V30 38349 N 3726.11 6.32884 -2.81832 0
M  V30 38350 N 3727.9 5.20328 -2.12638 0
M  V30 38351 H 3720.05 1.35503 -1.63563 0
M  V30 38352 H 3722.31 0.651616 -0.688549 0
M  V30 38353 H 3722.02 2.81265 -2.11146 0
M  V30 38354 H 3721.89 3.72142 -0.615652 0
M  V30 38355 H 3724.28 2.95099 0.00900137 0
M  V30 38356 H 3724.36 2.05945 -1.51724 0
M  V30 38357 H 3724.01 4.24575 -2.78745 0
M  V30 38358 H 3723.94 5.11886 -1.23613 0
M  V30 38359 H 3726.43 3.55766 -1.27431 0
M  V30 38360 H 3726.74 7.04067 -3.18606 0
M  V30 38361 H 3725.09 6.33473 -2.85898 0
M  V30 38362 H 3728.28 4.37771 -1.65753 0
M  V30 38363 H 3728.45 5.96608 -2.5291 0
M  V30 38364 N 3721.86 0.408213 1.52221 0
M  V30 38365 C 3722.82 -0.405811 2.25579 0
M  V30 38366 C 3723.82 -0.974412 1.27913 0
M  V30 38367 O 3725.01 -0.853435 1.51862 0
M  V30 38368 C 3722.14 -1.57116 3.02535 0
M  V30 38369 H 3723.33 0.236693 2.98965 0
M  V30 38370 H 3720.89 0.160714 1.55472 0
M  V30 38371 H 3721.62 -2.25056 2.33496 0
M  V30 38372 H 3721.41 -1.16994 3.74239 0
M  V30 38373 H 3722.9 -2.14701 3.5818 0
M  V30 38374 N 3723.33 -1.56989 0.138607 0
M  V30 38375 C 3724.58 -1.96143 -0.515355 0
M  V30 38376 C 3724.91 -1.02309 -1.65065 0
M  V30 38377 O 3724.19 -0.0638987 -1.94395 0
M  V30 38378 C 3724.47 -3.4507 -1.0295 0
M  V30 38379 C 3724.32 -4.4968 0.103725 0
M  V30 38380 C 3725.64 -3.96299 -1.91404 0
M  V30 38381 H 3722.76 -0.713179 -0.18586 0
M  V30 38382 H 3725.4 -1.88744 0.218136 0
M  V30 38383 H 3723.55 -3.51506 -1.65456 0
M  V30 38384 H 3725.23 -4.5533 0.739773 0
M  V30 38385 H 3723.47 -4.27018 0.764089 0
M  V30 38386 H 3724.14 -5.51197 -0.297591 0
M  V30 38387 H 3726.62 -3.92289 -1.3874 0
M  V30 38388 H 3725.49 -5.00984 -2.2429 0
M  V30 38389 H 3725.75 -3.38154 -2.84788 0
M  V30 38390 N 3724.81 0.135183 -1.57019 0
M  V30 38391 C 3725.76 1.18565 -2.00113 0
M  V30 38392 C 3726.75 1.43802 -0.895397 0
M  V30 38393 O 3727.96 1.43955 -1.0806 0
M  V30 38394 H 3724.33 0.399376 -0.637183 0
M  V30 38395 H 3726.31 0.795585 -2.87599 0
M  V30 38396 C 3725.05 2.50845 -2.40774 0
M  V30 38397 H 3724.38 2.32259 -3.25416 0
M  V30 38398 H 3725.82 3.22947 -2.74739 0
M  V30 38399 C 3724.28 3.12249 -1.26499 0
M  V30 38400 O 3724.81 3.97605 -0.572137 0
M  V30 38401 N 3723.01 2.71878 -1.0262 0
M  V30 38402 H 3722.56 2.02564 -1.5914 0
M  V30 38403 H 3722.52 3.13294 -0.263519 0
M  V30 38404 N 3726.29 1.5231 0.404892 0
M  V30 38405 C 3727.52 1.70725 1.17761 0
M  V30 38406 C 3727.94 0.417777 1.83402 0
M  V30 38407 O 3727.3 -0.625127 1.70182 0
M  V30 38408 C 3727.35 2.84689 2.21325 0
M  V30 38409 O 3726.45 2.50553 3.27562 0
M  V30 38410 H 3725.79 0.568209 0.343562 0
M  V30 38411 H 3728.32 1.99032 0.474058 0
M  V30 38412 H 3728.33 3.09724 2.65584 0
M  V30 38413 H 3727.01 3.78242 1.72932 0
M  V30 38414 H 3725.58 2.36204 2.88552 0
M  V30 38415 N 3727.77 -0.662382 1.43004 0
M  V30 38416 C 3728.99 -1.45531 1.47769 0
M  V30 38417 C 3729.42 -1.87865 0.0940628 0
M  V30 38418 O 3728.78 -1.56795 -0.910224 0
M  V30 38419 C 3728.82 -2.67256 2.42089 0
M  V30 38420 O 3727.93 -3.65982 1.90082 0
M  V30 38421 H 3727.27 -0.436716 0.500175 0
M  V30 38422 H 3729.8 -0.811366 1.87824 0
M  V30 38423 H 3729.81 -3.1518 2.59086 0
M  V30 38424 H 3728.48 -2.35784 3.42606 0
M  V30 38425 H 3727.06 -3.25077 1.82701 0
M  V30 38426 N 3729.25 -1.29383 -0.899882 0
M  V30 38427 C 3730.49 -1.18611 -1.66465 0
M  V30 38428 C 3730.85 0.258254 -1.90255 0
M  V30 38429 O 3732.05 0.488941 -2.64316 0
M  V30 38430 C 3730.32 -1.97679 -2.97755 0
M  V30 38431 S 3731.88 -2.03439 -3.8879 0
M  V30 38432 H 3728.7 -0.422941 -0.571526 0
M  V30 38433 H 3731.3 -1.63666 -1.06928 0
M  V30 38434 H 3730.01 -3.0176 -2.78153 0
M  V30 38435 H 3729.54 -1.53228 -3.62333 0
M  V30 38436 H 3731.55 -1.15095 -4.82667 0
M  V30 38437 N 3730.72 1.11022 -1.11856 0
M  V30 38438 C 3732.14 1.3487 -0.853365 0
M  V30 38439 C 3732.34 1.94683 0.519691 0
M  V30 38440 O 3731.4 2.18259 1.26962 0
M  V30 38441 C 3732.71 2.27619 -1.96494 0
M  V30 38442 C 3734.26 2.41173 -1.99511 0
M  V30 38443 C 3734.73 3.37247 -3.09884 0
M  V30 38444 N 3736.22 3.44812 -3.09287 0
M  V30 38445 C 3736.96 4.19104 -3.9133 0
M  V30 38446 N 3736.45 4.96335 -4.83346 0
M  V30 38447 N 3738.25 4.14661 -3.7949 0
M  V30 38448 H 3730.4 0.705635 -2.00336 0
M  V30 38449 H 3732.66 0.37323 -0.871438 0
M  V30 38450 H 3732.37 1.9087 -2.95401 0
M  V30 38451 H 3732.24 3.27876 -1.86486 0
M  V30 38452 H 3734.63 2.77195 -1.01228 0
M  V30 38453 H 3734.71 1.40752 -2.13594 0
M  V30 38454 H 3734.35 3.01952 -4.08396 0
M  V30 38455 H 3734.28 4.37532 -2.93041 0
M  V30 38456 H 3736.77 2.89729 -2.42622 0
M  V30 38457 H 3737.09 5.50404 -5.42472 0
M  V30 38458 H 3735.43 4.95481 -4.87364 0
M  V30 38459 H 3738.62 3.53416 -3.06944 0
M  V30 38460 H 3738.8 4.72302 -4.43661 0
M  V30 38461 N 3732.2 0.90954 1.28706 0
M  V30 38462 C 3733.17 0.3995 2.25691 0
M  V30 38463 C 3734.17 -0.471821 1.53722 0
M  V30 38464 O 3735.36 -0.275474 1.72008 0
M  V30 38465 C 3732.49 -0.427733 3.38206 0
M  V30 38466 H 3733.68 1.25618 2.72324 0
M  V30 38467 H 3731.23 0.688559 1.40316 0
M  V30 38468 H 3731.97 -1.30399 2.96928 0
M  V30 38469 H 3731.75 0.196738 3.91606 0
M  V30 38470 H 3733.24 -0.775562 4.10335 0
M  V30 38471 N 3733.68 -1.42505 0.673067 0
M  V30 38472 C 3734.61 -2.29155 -0.0452572 0
M  V30 38473 C 3735.63 -1.43587 -0.767252 0
M  V30 38474 O 3736.81 -1.67324 -0.621699 0
M  V30 38475 C 3733.91 -3.20969 -1.08775 0
M  V30 38476 C 3733.09 -4.35182 -0.439922 0
M  V30 38477 C 3732.15 -5.07729 -1.38196 0
M  V30 38478 O 3731.17 -5.6231 -0.882932 0
M  V30 38479 N 3732.37 -5.1308 -2.71531 0
M  V30 38480 H 3735.14 -2.91445 0.698568 0
M  V30 38481 H 3732.7 -1.53412 0.517349 0
M  V30 38482 H 3734.69 -3.66369 -1.71919 0
M  V30 38483 H 3733.26 -2.60143 -1.73333 0
M  V30 38484 H 3732.48 -3.9245 0.370995 0
M  V30 38485 H 3733.77 -5.08799 0.0114632 0
M  V30 38486 H 3733.17 -4.70143 -3.14615 0
M  V30 38487 H 3731.73 -5.62131 -3.29927 0
M  V30 38488 N 3735.16 -0.41628 -1.52003 0
M  V30 38489 C 3736.44 0.216069 -1.94403 0
M  V30 38490 C 3736.82 1.61987 -1.35365 0
M  V30 38491 O 3736.16 2.22214 -0.532281 0
M  V30 38492 C 3736.37 0.215164 -3.48336 0
M  V30 38493 C 3737.72 0.431035 -4.22406 0
M  V30 38494 O 3738.75 0.294209 -3.54983 0
M  V30 38495 O 3737.6 0.701355 -5.41981 0
M  V30 38496 H 3734.7 0.141292 -0.814841 0
M  V30 38497 H 3737.24 -0.472741 -1.62982 0
M  V30 38498 H 3736.02 -0.767072 -3.83708 0
M  V30 38499 H 3735.64 0.947773 -3.86139 0
M  V30 38500 N 3736.64 1.56914 -0.146931 0
M  V30 38501 C 3737.55 2.20326 0.805836 0
M  V30 38502 C 3738.56 1.18753 1.27176 0
M  V30 38503 O 3739.74 1.51329 1.32896 0
M  V30 38504 C 3736.8 2.81235 2.0275 0
M  V30 38505 C 3735.86 3.97933 1.61082 0
M  V30 38506 C 3735.1 4.55929 2.77425 0
M  V30 38507 O 3735.32 4.12804 3.93636 0
M  V30 38508 O 3734.25 5.46191 2.52901 0
M  V30 38509 H 3738.08 3.02254 0.296045 0
M  V30 38510 H 3735.67 1.49185 0.0800913 0
M  V30 38511 H 3737.55 3.19949 2.74246 0
M  V30 38512 H 3736.22 2.0232 2.52682 0
M  V30 38513 H 3735.13 3.63936 0.866096 0
M  V30 38514 H 3736.46 4.78368 1.15866 0
M  V30 38515 N 3738.11 -0.126854 1.57089 0
M  V30 38516 C 3739.36 -0.836016 1.84437 0
M  V30 38517 C 3739.69 -1.80246 0.730856 0
M  V30 38518 O 3738.94 -1.93709 -0.278475 0
M  V30 38519 C 3739.24 -1.62683 3.18228 0
M  V30 38520 C 3738.91 -0.805372 4.43649 0
M  V30 38521 C 3737.57 -0.578817 4.77706 0
M  V30 38522 C 3739.92 -0.232264 5.20682 0
M  V30 38523 C 3737.25 0.231229 5.86244 0
M  V30 38524 C 3739.6 0.56493 6.30072 0
M  V30 38525 C 3738.27 0.801875 6.62666 0
M  V30 38526 H 3737.54 -0.30592 0.674903 0
M  V30 38527 H 3740.18 -0.0987281 1.91245 0
M  V30 38528 H 3738.49 -2.4348 3.06961 0
M  V30 38529 H 3740.19 -2.17936 3.36608 0
M  V30 38530 H 3736.78 -0.992037 4.16961 0
M  V30 38531 H 3740.96 -0.394529 4.94729 0
M  V30 38532 H 3736.22 0.424105 6.09927 0
M  V30 38533 H 3740.39 1.01604 6.88948 0
M  V30 38534 H 3738.02 1.43139 7.46602 0
M  V30 38535 N 3739.59 -1.52523 -0.396809 0
M  V30 38536 C 3740.5 -1.79655 -1.50868 0
M  V30 38537 C 3741.52 -0.682832 -1.60042 0
M  V30 38538 O 3742.69 -0.969581 -1.76525 0
M  V30 38539 C 3739.76 -1.95268 -2.86481 0
M  V30 38540 C 3738.82 -3.1918 -2.87093 0
M  V30 38541 C 3738.05 -3.34039 -4.16238 0
M  V30 38542 O 3738.28 -2.53879 -5.10785 0
M  V30 38543 O 3737.21 -4.27254 -4.23955 0
M  V30 38544 H 3741.04 -2.74055 -1.30873 0
M  V30 38545 H 3738.62 -1.37518 -0.583884 0
M  V30 38546 H 3740.5 -2.07288 -3.66892 0
M  V30 38547 H 3739.18 -1.04058 -3.06519 0
M  V30 38548 H 3738.09 -3.12608 -2.05492 0
M  V30 38549 H 3739.42 -4.10211 -2.72007 0
M  V30 38550 N 3741.07 0.654789 -1.43354 0
M  V30 38551 C 3742.31 1.42651 -1.4639 0
M  V30 38552 C 3742.68 1.91811 -0.0850875 0
M  V30 38553 O 3743.88 2.68798 0.00986239 0
M  V30 38554 C 3742.15 2.5774 -2.47598 0
M  V30 38555 S 3743.71 3.4629 -2.69497 0
M  V30 38556 H 3740.52 0.486963 -0.518061 0
M  V30 38557 H 3743.13 0.76035 -1.80108 0
M  V30 38558 H 3741.83 2.19896 -3.46517 0
M  V30 38559 H 3741.36 3.29209 -2.15372 0
M  V30 38560 H 3743.38 4.54414 -1.99305 0
M  V30 38561 N 3742.55 1.29858 0.893007 0
M  V30 38562 C 3743.51 1.15549 1.97942 0
M  V30 38563 C 3744.51 0.0890172 1.60553 0
M  V30 38564 O 3745.7 0.336494 1.70919 0
M  V30 38565 C 3742.83 0.7685 3.32125 0
M  V30 38566 H 3744.03 2.12059 2.12064 0
M  V30 38567 H 3741.58 1.1314 1.07838 0
M  V30 38568 H 3742.32 -0.196447 3.23704 0
M  V30 38569 H 3742.1 1.53913 3.60629 0
M  V30 38570 H 3743.59 0.691632 4.11833 0
M  V30 38571 N 3744.03 -1.10427 1.12443 0
M  V30 38572 C 3744.98 -2.18859 0.787616 0
M  V30 38573 C 3745.97 -1.67891 -0.225573 0
M  V30 38574 O 3747.18 -1.79805 -0.0837712 0
M  V30 38575 H 3743.55 -0.71372 0.236871 0
M  V30 38576 H 3745.52 -2.44507 1.71052 0
M  V30 38577 C 3744.27 -3.46737 0.258601 0
M  V30 38578 H 3743.59 -3.86317 1.02952 0
M  V30 38579 H 3745.03 -4.23956 0.0612387 0
M  V30 38580 C 3743.49 -3.21295 -1.01348 0
M  V30 38581 O 3744.02 -3.42971 -2.09126 0
M  V30 38582 N 3742.23 -2.74962 -0.940449 0
M  V30 38583 H 3741.78 -2.57522 -0.0632509 0
M  V30 38584 H 3741.73 -2.58316 -1.79221 0
M  V30 38585 N 3745.51 -0.916353 -1.28221 0
M  V30 38586 C 3746.75 -0.549769 -1.94479 0
M  V30 38587 C 3747.07 0.909969 -1.72466 0
M  V30 38588 O 3746.34 1.64366 -1.06586 0
M  V30 38589 H 3744.92 -0.200328 -0.719637 0
M  V30 38590 H 3747.59 -1.16628 -1.56154 0
M  V30 38591 H 3746.68 -0.746416 -3.03043 0
M  V30 38592 N 3746.98 1.42146 -0.680615 0
M  V30 38593 C 3747.89 2.34599 -0.00599697 0
M  V30 38594 C 3748.91 1.55412 0.7825 0
M  V30 38595 O 3750.09 1.87956 0.723491 0
M  V30 38596 C 3747.15 3.34006 0.929581 0
M  V30 38597 C 3746.21 4.29088 0.134966 0
M  V30 38598 C 3745.44 5.23745 1.02598 0
M  V30 38599 O 3745.67 5.23479 2.26552 0
M  V30 38600 O 3744.6 5.99954 0.483669 0
M  V30 38601 H 3748.43 2.93837 -0.767704 0
M  V30 38602 H 3746.01 1.42747 -0.440874 0
M  V30 38603 H 3747.89 3.95059 1.4665 0
M  V30 38604 H 3746.57 2.77233 1.67104 0
M  V30 38605 H 3745.48 3.7143 -0.446195 0
M  V30 38606 H 3746.81 4.88917 -0.567503 0
M  V30 38607 N 3748.46 0.424336 1.5178 0
M  V30 38608 C 3749.7 -0.145792 2.03879 0
M  V30 38609 C 3750.07 -1.41084 1.30228 0
M  V30 38610 O 3751.27 -2.06038 1.72632 0
M  V30 38611 C 3749.54 -0.372403 3.55455 0
M  V30 38612 S 3751.1 -0.9078 4.29307 0
M  V30 38613 H 3747.91 -0.0379404 0.709987 0
M  V30 38614 H 3750.52 0.580753 1.86675 0
M  V30 38615 H 3749.22 0.55485 4.06632 0
M  V30 38616 H 3748.75 -1.1264 3.7693 0
M  V30 38617 H 3750.77 -2.18679 4.45414 0
M  V30 38618 N 3749.94 -1.56833 0.15525 0
M  V30 38619 C 3751.19 -1.95562 -0.493796 0
M  V30 38620 C 3751.5 -1.04308 -1.65466 0
M  V30 38621 O 3752.71 -1.3265 -2.36888 0
M  V30 38622 C 3751.16 -3.4768 -0.929862 0
M  V30 38623 C 3750.77 -4.47533 0.204526 0
M  V30 38624 C 3752.52 -3.95259 -1.54823 0
M  V30 38625 C 3750.42 -5.9087 -0.250271 0
M  V30 38626 H 3749.35 -0.730123 -0.188245 0
M  V30 38627 H 3752 -1.81912 0.240915 0
M  V30 38628 H 3750.39 -3.56692 -1.72008 0
M  V30 38629 H 3751.56 -4.50223 0.981614 0
M  V30 38630 H 3749.87 -4.09919 0.731828 0
M  V30 38631 H 3752.47 -4.99794 -1.90027 0
M  V30 38632 H 3752.81 -3.37279 -2.44025 0
M  V30 38633 H 3753.35 -3.89199 -0.822759 0
M  V30 38634 H 3750.09 -6.52687 0.606576 0
M  V30 38635 H 3749.61 -5.91522 -0.99306 0
M  V30 38636 H 3751.29 -6.43207 -0.699532 0
M  V30 38637 N 3751.42 0.118521 -1.57154 0
M  V30 38638 C 3752.37 1.16436 -2.01359 0
M  V30 38639 C 3753.36 1.42844 -0.910599 0
M  V30 38640 O 3754.57 1.42801 -1.0958 0
M  V30 38641 H 3750.94 0.392596 -0.641383 0
M  V30 38642 H 3752.91 0.765037 -2.88426 0
M  V30 38643 C 3751.66 2.48277 -2.43421 0
M  V30 38644 H 3750.98 2.28795 -3.27861 0
M  V30 38645 H 3752.42 3.20015 -2.78149 0
M  V30 38646 C 3750.88 3.1089 -1.29804 0
M  V30 38647 O 3751.41 3.96975 -0.614276 0
M  V30 38648 N 3749.62 2.70774 -1.05498 0
M  V30 38649 H 3749.17 2.00865 -1.61279 0
M  V30 38650 H 3749.12 3.12997 -0.296733 0
M  V30 38651 N 3752.9 1.52731 0.388715 0
M  V30 38652 C 3754.14 1.67789 1.13372 0
M  V30 38653 C 3754.47 0.417959 1.89956 0
M  V30 38654 O 3753.73 -0.59965 1.86287 0
M  V30 38655 C 3754.02 2.86409 2.13787 0
M  V30 38656 C 3753.69 4.23838 1.53858 0
M  V30 38657 C 3752.35 4.61214 1.3724 0
M  V30 38658 C 3754.7 5.09397 1.10289 0
M  V30 38659 C 3752.03 5.81809 0.756017 0
M  V30 38660 C 3754.38 6.30616 0.500612 0
M  V30 38661 C 3753.05 6.66724 0.321733 0
M  V30 38662 H 3752.32 0.613982 0.414857 0
M  V30 38663 H 3754.97 1.86875 0.418318 0
M  V30 38664 H 3753.27 2.6174 2.91547 0
M  V30 38665 H 3754.97 2.95254 2.71341 0
M  V30 38666 H 3751.56 3.94396 1.6778 0
M  V30 38667 H 3755.74 4.81089 1.2193 0
M  V30 38668 H 3751 6.08393 0.605627 0
M  V30 38669 H 3755.17 6.96228 0.154716 0
M  V30 38670 H 3752.8 7.60036 -0.15797 0
M  V30 38671 N 3754.37 -0.647178 1.43699 0
M  V30 38672 C 3755.6 -1.43955 1.49304 0
M  V30 38673 C 3756.02 -1.87754 0.113983 0
M  V30 38674 O 3755.38 -1.57751 -0.893543 0
M  V30 38675 C 3755.43 -2.64673 2.44909 0
M  V30 38676 O 3754.53 -3.63945 1.93953 0
M  V30 38677 H 3753.87 -0.431387 0.504779 0
M  V30 38678 H 3756.4 -0.791399 1.88674 0
M  V30 38679 H 3756.41 -3.12414 2.62414 0
M  V30 38680 H 3755.09 -2.32137 3.45087 0
M  V30 38681 H 3753.67 -3.23121 1.86138 0
M  V30 38682 N 3755.85 -1.3033 -0.886108 0
M  V30 38683 C 3756.78 -1.19187 -2.0079 0
M  V30 38684 C 3757.76 -0.0827899 -1.69898 0
M  V30 38685 O 3758.95 -0.264627 -1.92389 0
M  V30 38686 C 3756.08 -0.881728 -3.35921 0
M  V30 38687 C 3755.03 -1.94861 -3.81068 0
M  V30 38688 C 3754.36 -1.49149 -5.13477 0
M  V30 38689 C 3755.66 -3.35952 -3.99917 0
M  V30 38690 H 3757.35 -2.13036 -2.10371 0
M  V30 38691 H 3754.9 -1.02563 -1.01078 0
M  V30 38692 H 3756.85 -0.790432 -4.1392 0
M  V30 38693 H 3755.58 0.0924463 -3.26469 0
M  V30 38694 H 3754.23 -2.02953 -3.05296 0
M  V30 38695 H 3753.88 -0.505618 -5.00452 0
M  V30 38696 H 3753.58 -2.2051 -5.44655 0
M  V30 38697 H 3755.11 -1.41396 -5.94003 0
M  V30 38698 H 3756.52 -3.30625 -4.68359 0
M  V30 38699 H 3754.92 -4.05389 -4.4247 0
M  V30 38700 H 3755.99 -3.77926 -3.03809 0
M  V30 38701 N 3757.33 1.0983 -1.13028 0
M  V30 38702 C 3758.56 1.85691 -0.912493 0
M  V30 38703 C 3758.97 1.80957 0.538526 0
M  V30 38704 O 3758.33 1.20275 1.3726 0
M  V30 38705 C 3758.38 3.33837 -1.3869 0
M  V30 38706 O 3758.1 3.3851 -2.78105 0
M  V30 38707 C 3759.6 4.26553 -1.20695 0
M  V30 38708 H 3756.82 0.586674 -0.32566 0
M  V30 38709 H 3759.37 1.38803 -1.5018 0
M  V30 38710 H 3757.52 3.78168 -0.840683 0
M  V30 38711 H 3757.94 4.30881 -2.99069 0
M  V30 38712 H 3759.41 5.28674 -1.58769 0
M  V30 38713 H 3759.89 4.3895 -0.148188 0
M  V30 38714 H 3760.49 3.88033 -1.74099 0
M  V30 38715 N 3758.81 0.92314 1.27734 0
M  V30 38716 C 3760.05 0.568412 1.96338 0
M  V30 38717 C 3760.41 -0.8733 1.7099 0
M  V30 38718 O 3761.61 -1.33607 2.33244 0
M  V30 38719 C 3759.88 0.880077 3.46395 0
M  V30 38720 S 3761.44 0.633178 4.34208 0
M  V30 38721 H 3758.26 0.209981 0.679286 0
M  V30 38722 H 3760.86 1.1906 1.55064 0
M  V30 38723 H 3759.57 1.92711 3.6234 0
M  V30 38724 H 3759.1 0.246905 3.92624 0
M  V30 38725 H 3761.11 -0.511154 4.9356 0
M  V30 38726 N 3760.29 -1.41783 0.688143 0
M  V30 38727 C 3761.56 -1.95067 0.144338 0
M  V30 38728 C 3761.94 -1.62791 -1.34396 0
M  V30 38729 O 3761.29 -0.931015 -2.08673 0
M  V30 38730 C 3761.5 -3.46369 0.427702 0
M  V30 38731 C 3762.85 -4.23143 0.351419 0
M  V30 38732 O 3763.87 -3.54354 0.362197 0
M  V30 38733 O 3762.73 -5.45648 0.305114 0
M  V30 38734 H 3759.83 -0.826932 0.0106345 0
M  V30 38735 H 3762.37 -1.5154 0.763793 0
M  V30 38736 H 3761.14 -3.63116 1.45817 0
M  V30 38737 H 3760.77 -3.96974 -0.223097 0
M  V30 38738 N 3761.76 -0.432379 -1.51553 0
M  V30 38739 C 3763.01 0.135475 -2.01645 0
M  V30 38740 C 3763.33 1.43644 -1.31876 0
M  V30 38741 O 3762.6 1.90619 -0.45178 0
M  V30 38742 H 3761.18 0.0530552 -0.745114 0
M  V30 38743 H 3763.85 -0.57395 -1.86257 0
M  V30 38744 H 3762.94 0.314947 -3.10507 0
M  V30 38745 N 3763.24 1.56749 -0.163565 0
M  V30 38746 C 3764.49 1.96938 0.484085 0
M  V30 38747 C 3764.82 1.04922 1.63417 0
M  V30 38748 O 3764.1 0.0948171 1.94269 0
M  V30 38749 C 3764.38 3.46664 0.974471 0
M  V30 38750 C 3764.23 4.49458 -0.175252 0
M  V30 38751 C 3765.55 3.99294 1.85075 0
M  V30 38752 H 3762.67 0.716046 0.174491 0
M  V30 38753 H 3765.31 1.88373 -0.248136 0
M  V30 38754 H 3763.46 3.54094 1.59842 0
M  V30 38755 H 3765.13 4.54095 -0.812118 0
M  V30 38756 H 3763.38 4.25748 -0.831928 0
M  V30 38757 H 3764.05 5.51601 0.209863 0
M  V30 38758 H 3766.52 3.94446 1.32481 0
M  V30 38759 H 3765.4 5.04489 2.16291 0
M  V30 38760 H 3765.66 3.42642 2.79372 0
M  V30 38761 N 3764.72 -0.110185 1.57214 0
M  V30 38762 C 3766.13 -0.666375 1.74403 0
M  V30 38763 C 3766.48 -1.79875 0.783555 0
M  V30 38764 O 3765.61 -2.1636 -0.0414925 0
M  V30 38765 C 3766.2 -1.21558 3.16242 0
M  V30 38766 C 3764.76 -1.71798 3.34907 0
M  V30 38767 C 3763.91 -0.6213 2.7025 0
M  V30 38768 H 3766.86 0.115793 1.58277 0
M  V30 38769 H 3766.88 -2.08514 3.1828 0
M  V30 38770 H 3766.39 -0.391205 3.86123 0
M  V30 38771 H 3764.49 -2.56684 2.70081 0
M  V30 38772 H 3764.61 -1.82136 4.43129 0
M  V30 38773 H 3762.97 -1.05707 2.31728 0
M  V30 38774 H 3763.75 0.192245 3.42761 0
M  V30 38775 N 3766.2 -1.52935 -0.38061 0
M  V30 38776 C 3767.15 -1.7469 -1.46518 0
M  V30 38777 C 3768.13 -0.601114 -1.4925 0
M  V30 38778 O 3769.32 -0.859252 -1.54745 0
M  V30 38779 C 3766.45 -1.92673 -2.84134 0
M  V30 38780 C 3765.54 -3.13209 -2.85939 0
M  V30 38781 N 3765.93 -4.35403 -2.57405 0
M  V30 38782 C 3764.23 -3.13625 -3.17105 0
M  V30 38783 C 3764.93 -5.17058 -2.66507 0
M  V30 38784 N 3763.91 -4.52931 -3.0059 0
M  V30 38785 H 3767.71 -2.66787 -1.23297 0
M  V30 38786 H 3765.22 -1.51356 -0.588649 0
M  V30 38787 H 3767.22 -2.06382 -3.62232 0
M  V30 38788 H 3765.88 -1.01795 -3.08331 0
M  V30 38789 H 3766.89 -4.63393 -2.31273 0
M  V30 38790 H 3763.57 -2.32586 -3.46713 0
M  V30 38791 H 3764.96 -6.24488 -2.4792 0
M  V30 38792 N 3767.68 0.639548 -1.4404 0
M  V30 38793 C 3768.92 1.41091 -1.47894 0
M  V30 38794 C 3769.28 1.9171 -0.105427 0
M  V30 38795 O 3770.48 2.68794 -0.0186478 0
M  V30 38796 C 3768.75 2.551 -2.50318 0
M  V30 38797 S 3770.31 3.43412 -2.73155 0
M  V30 38798 H 3767.13 0.481441 -0.523197 0
M  V30 38799 H 3769.73 0.741204 -1.80904 0
M  V30 38800 H 3768.44 2.16208 -3.4883 0
M  V30 38801 H 3767.97 3.26906 -2.18852 0
M  V30 38802 H 3769.98 4.52275 -2.04113 0
M  V30 38803 N 3769.15 1.30798 0.879184 0
M  V30 38804 C 3770.1 1.1767 1.98551 0
M  V30 38805 C 3771.07 0.0647523 1.65974 0
M  V30 38806 O 3772.26 0.235974 1.89335 0
M  V30 38807 C 3769.4 0.880493 3.33678 0
M  V30 38808 C 3768.51 2.07488 3.7891 0
M  V30 38809 C 3767.64 1.71626 5.02711 0
M  V30 38810 C 3766.68 2.87527 5.40366 0
M  V30 38811 N 3765.82 2.51921 6.55347 0
M  V30 38812 H 3770.66 2.12312 2.09111 0
M  V30 38813 H 3768.2 1.05625 1.02381 0
M  V30 38814 H 3770.16 0.68935 4.11465 0
M  V30 38815 H 3768.79 -0.0290716 3.22787 0
M  V30 38816 H 3767.84 2.37709 2.96982 0
M  V30 38817 H 3769.15 2.94266 4.02752 0
M  V30 38818 H 3768.3 1.4892 5.88139 0
M  V30 38819 H 3767.04 0.820265 4.80752 0
M  V30 38820 H 3766.05 3.10891 4.53461 0
M  V30 38821 H 3767.27 3.77821 5.64294 0
M  V30 38822 H 3765.22 1.64834 6.34953 0
M  V30 38823 H 3765.14 3.32229 6.79087 0
M  V30 38824 H 3766.4 2.32586 7.43992 0
M  V30 38825 N 3770.63 -1.09229 1.13608 0
M  V30 38826 C 3771.91 -1.78033 0.810151 0
M  V30 38827 C 3772.29 -1.99229 -0.697918 0
M  V30 38828 O 3771.64 -1.59533 -1.63589 0
M  V30 38829 C 3771.85 -3.10195 1.59937 0
M  V30 38830 C 3773.2 -3.84869 1.79335 0
M  V30 38831 O 3774.22 -3.19953 1.56553 0
M  V30 38832 O 3773.08 -5.01413 2.17364 0
M  V30 38833 H 3770.17 -0.77221 0.296008 0
M  V30 38834 H 3772.72 -1.15767 1.24081 0
M  V30 38835 H 3771.49 -2.90265 2.62415 0
M  V30 38836 H 3771.11 -3.80187 1.16378 0
M  V30 38837 N 3772.11 -0.929901 -1.27242 0
M  V30 38838 C 3773.06 -0.429326 -2.26772 0
M  V30 38839 C 3774.03 0.504952 -1.58239 0
M  V30 38840 O 3775.21 0.423629 -1.86038 0
M  V30 38841 C 3772.35 0.309805 -3.43707 0
M  V30 38842 C 3771.47 -0.658839 -4.26947 0
M  V30 38843 C 3770.6 0.100356 -5.31105 0
M  V30 38844 C 3769.64 -0.860849 -6.06016 0
M  V30 38845 N 3768.78 -0.134138 -7.01972 0
M  V30 38846 H 3773.62 -1.28305 -2.68964 0
M  V30 38847 H 3771.15 -0.643946 -1.32256 0
M  V30 38848 H 3773.11 0.754682 -4.10317 0
M  V30 38849 H 3771.74 1.12775 -3.02459 0
M  V30 38850 H 3770.79 -1.22224 -3.6023 0
M  V30 38851 H 3772.11 -1.39335 -4.78944 0
M  V30 38852 H 3771.26 0.605047 -6.03675 0
M  V30 38853 H 3770 0.867818 -4.79917 0
M  V30 38854 H 3769 -1.37677 -5.32283 0
M  V30 38855 H 3770.23 -1.62813 -6.59294 0
M  V30 38856 H 3768.18 0.615037 -6.5311 0
M  V30 38857 H 3768.09 -0.808178 -7.51668 0
M  V30 38858 H 3769.36 0.349828 -7.78715 0
M  V30 38859 N 3773.59 1.41416 -0.695653 0
M  V30 38860 C 3774.81 2.06073 -0.234199 0
M  V30 38861 C 3775.24 1.52008 1.10793 0
M  V30 38862 O 3774.6 0.64708 1.69359 0
M  V30 38863 C 3774.65 3.60031 -0.202417 0
M  V30 38864 O 3773.75 4.04111 0.822696 0
M  V30 38865 H 3773.09 0.65407 -0.114406 0
M  V30 38866 H 3775.62 1.81179 -0.950535 0
M  V30 38867 H 3775.63 4.07986 -0.0333038 0
M  V30 38868 H 3774.31 3.98751 -1.18195 0
M  V30 38869 H 3772.88 3.6766 0.622931 0
M  V30 38870 N 3775.07 0.44041 1.51321 0
M  V30 38871 C 3776.34 -0.185114 1.94722 0
M  V30 38872 C 3776.72 -1.59813 1.37924 0
M  V30 38873 O 3776.07 -2.21339 0.567566 0
M  V30 38874 C 3776.28 -0.159719 3.48634 0
M  V30 38875 C 3777.63 -0.363779 4.23039 0
M  V30 38876 O 3778.65 -0.237697 3.55406 0
M  V30 38877 O 3777.51 -0.615042 5.43028 0
M  V30 38878 H 3774.61 -0.12831 0.816986 0
M  V30 38879 H 3777.15 0.49861 1.6221 0
M  V30 38880 H 3775.93 0.828019 3.82439 0
M  V30 38881 H 3775.55 -0.886222 3.87598 0
M  V30 38882 N 3776.55 -1.5666 0.171876 0
M  V30 38883 C 3777.46 -2.2158 -0.770682 0
M  V30 38884 C 3778.47 -1.20761 -1.25271 0
M  V30 38885 O 3779.65 -1.53425 -1.30472 0
M  V30 38886 C 3776.71 -2.84425 -1.98251 0
M  V30 38887 C 3775.77 -4.00446 -1.54731 0
M  V30 38888 C 3775.01 -4.60285 -2.70137 0
M  V30 38889 O 3775.23 -4.19014 -3.87019 0
M  V30 38890 O 3774.16 -5.50145 -2.4418 0
M  V30 38891 H 3777.99 -3.02686 -0.247921 0
M  V30 38892 H 3775.57 -1.49294 -0.0563471 0
M  V30 38893 H 3777.46 -3.24271 -2.69121 0
M  V30 38894 H 3776.13 -2.06315 -2.49431 0
M  V30 38895 H 3775.04 -3.65268 -0.808088 0
M  V30 38896 H 3776.37 -4.80151 -1.08241 0
M  V30 38897 N 3778.02 0.101846 -1.57271 0
M  V30 38898 C 3778.97 1.12403 -2.01579 0
M  V30 38899 C 3779.94 1.40186 -0.890908 0
M  V30 38900 O 3781.13 1.51762 -1.15641 0
M  V30 38901 C 3778.27 2.44088 -2.43957 0
M  V30 38902 C 3777.38 2.23095 -3.69936 0
M  V30 38903 C 3776.51 3.48131 -4.01221 0
M  V30 38904 C 3775.55 3.22369 -5.20331 0
M  V30 38905 N 3774.69 4.39654 -5.47402 0
M  V30 38906 H 3779.53 0.739193 -2.88687 0
M  V30 38907 H 3777.07 0.353472 -1.4279 0
M  V30 38908 H 3779.02 3.20932 -2.66569 0
M  V30 38909 H 3777.65 2.80432 -1.59868 0
M  V30 38910 H 3776.71 1.37086 -3.5484 0
M  V30 38911 H 3778.02 2.00046 -4.56928 0
M  V30 38912 H 3777.17 4.33385 -4.24573 0
M  V30 38913 H 3775.91 3.74227 -3.12738 0
M  V30 38914 H 3774.92 2.35508 -4.96806 0
M  V30 38915 H 3776.14 2.97626 -6.10406 0
M  V30 38916 H 3774.09 4.65839 -4.61877 0
M  V30 38917 H 3774 4.19772 -6.28751 0
M  V30 38918 H 3775.27 5.25992 -5.75285 0
M  V30 38919 N 3779.5 1.53135 0.372494 0
M  V30 38920 C 3780.91 1.60744 0.949643 0
M  V30 38921 C 3781.26 0.470534 1.90474 0
M  V30 38922 O 3780.39 -0.404048 2.12594 0
M  V30 38923 C 3780.98 2.91353 1.72912 0
M  V30 38924 C 3779.54 3.01321 2.25572 0
M  V30 38925 C 3778.69 2.55988 1.06608 0
M  V30 38926 H 3781.64 1.57975 0.151505 0
M  V30 38927 H 3781.66 2.78767 2.58977 0
M  V30 38928 H 3781.17 3.7408 1.03373 0
M  V30 38929 H 3779.27 2.23167 2.98374 0
M  V30 38930 H 3779.39 4.06273 2.53928 0
M  V30 38931 H 3777.75 2.10699 1.43101 0
M  V30 38932 H 3778.53 3.41126 0.38578 0
M  V30 38933 N 3780.98 -0.6319 1.44377 0
M  V30 38934 C 3782.2 -1.42364 1.50822 0
M  V30 38935 C 3782.63 -1.87623 0.133891 0
M  V30 38936 O 3781.99 -1.5869 -0.876761 0
M  V30 38937 C 3782.04 -2.6206 2.47703 0
M  V30 38938 O 3781.14 -3.61867 1.97802 0
M  V30 38939 H 3780.48 -0.426009 0.509326 0
M  V30 38940 H 3783.01 -0.771343 1.89503 0
M  V30 38941 H 3783.02 -3.09613 2.65713 0
M  V30 38942 H 3781.7 -2.28464 3.4753 0
M  V30 38943 H 3780.27 -3.21128 1.89555 0
M  V30 38944 N 3782.46 -1.31262 -0.872235 0
M  V30 38945 C 3783.69 -1.23595 -1.65553 0
M  V30 38946 C 3784.1 0.201499 -1.88124 0
M  V30 38947 O 3783.44 1.1432 -1.43794 0
M  V30 38948 C 3783.5 -1.90747 -3.04722 0
M  V30 38949 C 3783.16 -3.40087 -3.0527 0
M  V30 38950 C 3784.16 -4.35872 -2.83394 0
M  V30 38951 C 3781.85 -3.81743 -3.26462 0
M  V30 38952 C 3783.84 -5.71285 -2.82686 0
M  V30 38953 C 3781.53 -5.1727 -3.25384 0
M  V30 38954 C 3782.53 -6.11852 -3.03522 0
M  V30 38955 O 3782.21 -7.44902 -3.02284 0
M  V30 38956 H 3781.95 -0.428366 -0.522952 0
M  V30 38957 H 3784.5 -1.73643 -1.09714 0
M  V30 38958 H 3782.73 -1.35246 -3.62278 0
M  V30 38959 H 3784.42 -1.77026 -3.65262 0
M  V30 38960 H 3785.18 -4.05019 -2.66805 0
M  V30 38961 H 3781.06 -3.08558 -3.4251 0
M  V30 38962 H 3784.61 -6.45084 -2.65542 0
M  V30 38963 H 3780.5 -5.47759 -3.41512 0
M  V30 38964 H 3781.27 -7.54048 -3.18361 0
M  V30 38965 N 3783.94 1.08625 -1.14186 0
M  V30 38966 C 3785.18 1.82573 -0.919048 0
M  V30 38967 C 3785.54 1.84112 0.544697 0
M  V30 38968 O 3786.74 2.538 0.885373 0
M  V30 38969 C 3785.01 3.24363 -1.50078 0
M  V30 38970 S 3786.57 4.15215 -1.41922 0
M  V30 38971 H 3783.39 0.629218 -0.331067 0
M  V30 38972 H 3785.99 1.30583 -1.45493 0
M  V30 38973 H 3784.69 3.20824 -2.5593 0
M  V30 38974 H 3784.23 3.81426 -0.963196 0
M  V30 38975 H 3786.24 4.94559 -0.40323 0
M  V30 38976 N 3785.41 0.936635 1.26747 0
M  V30 38977 C 3786.36 0.433368 2.28527 0
M  V30 38978 C 3787.36 -0.486984 1.62249 0
M  V30 38979 O 3788.56 -0.365699 1.76246 0
M  V30 38980 H 3784.94 0.121596 0.742104 0
M  V30 38981 H 3786.91 1.30441 2.6838 0
M  V30 38982 C 3785.66 -0.290305 3.46486 0
M  V30 38983 H 3784.98 0.408719 3.97705 0
M  V30 38984 H 3786.42 -0.606733 4.19636 0
M  V30 38985 C 3784.88 -1.50649 3.01341 0
M  V30 38986 O 3785.41 -2.60496 3.05786 0
M  V30 38987 N 3783.62 -1.36146 2.56735 0
M  V30 38988 H 3783.16 -0.467743 2.53318 0
M  V30 38989 H 3783.12 -2.17641 2.26892 0
M  V30 38990 N 3786.89 -1.41045 0.703143 0
M  V30 38991 C 3788.12 -2.05946 0.245124 0
M  V30 38992 C 3788.54 -1.52593 -1.09986 0
M  V30 38993 O 3787.9 -0.656052 -1.69014 0
M  V30 38994 C 3787.95 -3.59919 0.221507 0
M  V30 38995 O 3787.05 -4.04541 -0.801253 0
M  V30 38996 H 3786.39 -0.653454 0.117873 0
M  V30 38997 H 3788.92 -1.80673 0.96013 0
M  V30 38998 H 3788.93 -4.07963 0.0549399 0
M  V30 38999 H 3787.61 -3.98119 1.20308 0
M  V30 39000 H 3786.19 -3.67985 -0.603424 0
M  V30 39001 N 3788.37 -0.448429 -1.51086 0
M  V30 39002 C 3789.79 -0.101314 -1.59278 0
M  V30 39003 C 3789.99 1.39033 -1.45849 0
M  V30 39004 O 3789.04 2.16139 -1.30537 0
M  V30 39005 C 3790.36 -0.631315 -2.93998 0
M  V30 39006 C 3791.9 -0.592734 -3.07336 0
M  V30 39007 C 3792.38 -1.0999 -4.44597 0
M  V30 39008 N 3793.87 -1.05835 -4.50947 0
M  V30 39009 C 3794.6 -1.42152 -5.555 0
M  V30 39010 N 3794.1 -1.85808 -6.67418 0
M  V30 39011 N 3795.89 -1.33898 -5.45919 0
M  V30 39012 H 3788.04 -1.41884 -1.58059 0
M  V30 39013 H 3790.31 -0.585362 -0.745691 0
M  V30 39014 H 3790.01 -1.6754 -3.0923 0
M  V30 39015 H 3789.89 -0.0623196 -3.77149 0
M  V30 39016 H 3792.27 0.442385 -2.91765 0
M  V30 39017 H 3792.36 -1.19827 -2.25998 0
M  V30 39018 H 3792 -2.13354 -4.60915 0
M  V30 39019 H 3791.93 -0.470795 -5.24491 0
M  V30 39020 H 3794.42 -0.737887 -3.70626 0
M  V30 39021 H 3794.73 -2.11727 -7.43231 0
M  V30 39022 H 3793.08 -1.89743 -6.68597 0
M  V30 39023 H 3796.27 -0.996495 -4.5737 0
M  V30 39024 H 3796.44 -1.62528 -6.27287 0
M  V30 39025 N 3789.85 1.56567 -0.180181 0
M  V30 39026 C 3791.26 1.58628 0.175874 0
M  V30 39027 C 3791.46 1.19586 1.62177 0
M  V30 39028 O 3790.52 0.911608 2.3547 0
M  V30 39029 C 3791.83 3.00488 -0.112973 0
M  V30 39030 C 3793.38 3.12957 -0.051889 0
M  V30 39031 C 3793.86 4.56923 -0.313844 0
M  V30 39032 N 3795.35 4.62459 -0.261933 0
M  V30 39033 C 3796.08 5.7172 -0.438673 0
M  V30 39034 N 3795.58 6.89504 -0.674953 0
M  V30 39035 N 3797.37 5.60855 -0.373963 0
M  V30 39036 H 3789.52 1.8023 -1.12388 0
M  V30 39037 H 3791.79 0.835746 -0.447473 0
M  V30 39038 H 3791.49 3.3356 -1.11494 0
M  V30 39039 H 3791.37 3.72536 0.591344 0
M  V30 39040 H 3793.75 2.79706 0.940662 0
M  V30 39041 H 3793.83 2.43326 -0.789053 0
M  V30 39042 H 3793.48 4.90884 -1.30364 0
M  V30 39043 H 3793.41 5.24725 0.444035 0
M  V30 39044 H 3795.9 3.77804 -0.0853177 0
M  V30 39045 H 3796.21 7.68658 -0.799026 0
M  V30 39046 H 3794.56 6.91347 -0.711672 0
M  V30 39047 H 3797.75 4.67715 -0.189897 0
M  V30 39048 H 3797.92 6.45949 -0.515126 0
M  V30 39049 N 3791.33 -0.0935042 1.57322 0
M  V30 39050 C 3792.57 -0.802302 1.87996 0
M  V30 39051 C 3792.93 -1.75824 0.771368 0
M  V30 39052 O 3794.13 -2.51051 0.960563 0
M  V30 39053 C 3792.4 -1.51054 3.23909 0
M  V30 39054 S 3793.96 -2.2574 3.7628 0
M  V30 39055 H 3790.78 -0.267263 0.658856 0
M  V30 39056 H 3793.38 -0.0593544 1.9541 0
M  V30 39057 H 3792.09 -0.800713 4.02513 0
M  V30 39058 H 3791.62 -2.29336 3.19638 0
M  V30 39059 H 3793.63 -3.51906 3.49824 0
M  V30 39060 N 3792.8 -1.5333 -0.364368 0
M  V30 39061 C 3793.75 -1.79854 -1.44642 0
M  V30 39062 C 3794.72 -0.642978 -1.5315 0
M  V30 39063 O 3795.91 -0.885282 -1.69019 0
M  V30 39064 C 3793.05 -1.99527 -2.81572 0
M  V30 39065 C 3792.16 -3.27244 -2.82021 0
M  V30 39066 C 3791.29 -3.37098 -4.10534 0
M  V30 39067 C 3790.33 -4.58842 -4.0513 0
M  V30 39068 N 3789.47 -4.65844 -5.25294 0
M  V30 39069 H 3794.31 -2.72184 -1.21324 0
M  V30 39070 H 3791.85 -1.34832 -0.588119 0
M  V30 39071 H 3793.81 -2.08921 -3.6112 0
M  V30 39072 H 3792.44 -1.10532 -3.03286 0
M  V30 39073 H 3791.49 -3.26798 -1.94699 0
M  V30 39074 H 3792.8 -4.16869 -2.739 0
M  V30 39075 H 3791.95 -3.4581 -4.98498 0
M  V30 39076 H 3790.69 -2.45491 -4.21409 0
M  V30 39077 H 3789.7 -4.5023 -3.15552 0
M  V30 39078 H 3790.92 -5.51792 -3.95856 0
M  V30 39079 H 3788.87 -3.77137 -5.36753 0
M  V30 39080 H 3788.79 -5.49376 -5.19348 0
M  V30 39081 H 3790.05 -4.7884 -6.15087 0
M  V30 39082 N 3794.28 0.624234 -1.4471 0
M  V30 39083 C 3795.23 1.73586 -1.52107 0
M  V30 39084 C 3796.2 1.61967 -0.368222 0
M  V30 39085 O 3797.38 1.8179 -0.579406 0
M  V30 39086 C 3794.52 3.11855 -1.47786 0
M  V30 39087 C 3793.64 3.344 -2.73497 0
M  V30 39088 C 3792.77 4.6268 -2.60961 0
M  V30 39089 C 3791.81 4.78427 -3.81803 0
M  V30 39090 N 3790.95 5.9799 -3.67902 0
M  V30 39091 H 3795.79 1.666 -2.4708 0
M  V30 39092 H 3793.33 0.812595 -1.22619 0
M  V30 39093 H 3795.28 3.91828 -1.4327 0
M  V30 39094 H 3793.91 3.17839 -0.56375 0
M  V30 39095 H 3792.97 2.48319 -2.8817 0
M  V30 39096 H 3794.28 3.41914 -3.63176 0
M  V30 39097 H 3793.43 5.50824 -2.54318 0
M  V30 39098 H 3792.17 4.57537 -1.68854 0
M  V30 39099 H 3791.18 3.88711 -3.88824 0
M  V30 39100 H 3792.4 4.8538 -4.74956 0
M  V30 39101 H 3790.35 5.93923 -2.78552 0
M  V30 39102 H 3790.26 6.0659 -4.51203 0
M  V30 39103 H 3791.53 6.88677 -3.65163 0
M  V30 39104 N 3795.76 1.31723 0.865262 0
M  V30 39105 C 3796.99 1.24652 1.65134 0
M  V30 39106 C 3797.4 -0.187358 1.87868 0
M  V30 39107 O 3796.76 -1.12096 1.44017 0
M  V30 39108 C 3796.81 1.99198 3.01666 0
M  V30 39109 O 3796.53 3.3699 2.79945 0
M  V30 39110 C 3798.03 1.99024 3.96112 0
M  V30 39111 H 3795.25 0.430523 0.514676 0
M  V30 39112 H 3797.8 1.73676 1.07968 0
M  V30 39113 H 3795.95 1.53924 3.55508 0
M  V30 39114 H 3796.37 3.75009 3.667 0
M  V30 39115 H 3797.84 2.55685 4.89213 0
M  V30 39116 H 3798.32 0.97389 4.28266 0
M  V30 39117 H 3798.92 2.44198 3.48206 0
M  V30 39118 N 3797.24 -1.08018 1.14761 0
M  V30 39119 C 3798.49 -1.80482 0.91828 0
M  V30 39120 C 3798.81 -1.86415 -0.554953 0
M  V30 39121 O 3798.07 -1.3389 -1.4273 0
M  V30 39122 C 3798.37 -3.25803 1.46926 0
M  V30 39123 C 3798.03 -3.39981 2.96182 0
M  V30 39124 C 3796.7 -3.43558 3.36929 0
M  V30 39125 C 3799.05 -3.43334 3.92137 0
M  V30 39126 C 3796.38 -3.48083 4.72287 0
M  V30 39127 C 3798.73 -3.49395 5.27357 0
M  V30 39128 C 3797.39 -3.51246 5.67611 0
M  V30 39129 H 3796.66 -0.660432 0.336022 0
M  V30 39130 H 3799.31 -1.27154 1.43193 0
M  V30 39131 H 3797.61 -3.81867 0.876639 0
M  V30 39132 H 3799.31 -3.80434 1.26772 0
M  V30 39133 H 3795.9 -3.37891 2.6368 0
M  V30 39134 H 3800.08 -3.39798 3.61734 0
M  V30 39135 H 3795.34 -3.47811 5.02829 0
M  V30 39136 H 3799.51 -3.50935 6.01513 0
M  V30 39137 H 3797.14 -3.54506 6.7248 0
M  V30 39138 N 3798.72 -0.943344 -1.26249 0
M  V30 39139 C 3800.13 -0.645992 -1.45942 0
M  V30 39140 C 3800.33 0.800031 -1.84937 0
M  V30 39141 O 3799.39 1.57646 -1.97241 0
M  V30 39142 C 3800.7 -1.60927 -2.54014 0
M  V30 39143 C 3802.25 -1.6192 -2.67863 0
M  V30 39144 C 3802.72 -2.56983 -3.79109 0
M  V30 39145 N 3804.22 -2.55282 -3.86504 0
M  V30 39146 C 3804.95 -3.25521 -4.72042 0
M  V30 39147 N 3804.45 -4.05194 -5.61952 0
M  V30 39148 N 3806.24 -3.14463 -4.65907 0
M  V30 39149 H 3798.39 -1.87798 -0.992262 0
M  V30 39150 H 3800.65 -0.807159 -0.49719 0
M  V30 39151 H 3800.36 -2.64159 -2.32192 0
M  V30 39152 H 3800.23 -1.363 -3.51713 0
M  V30 39153 H 3802.62 -0.594118 -2.89058 0
M  V30 39154 H 3802.7 -1.90601 -1.70601 0
M  V30 39155 H 3802.35 -3.59611 -3.58667 0
M  V30 39156 H 3802.28 -2.25591 -4.75832 0
M  V30 39157 H 3804.77 -1.97431 -3.22226 0
M  V30 39158 H 3805.08 -4.55736 -6.24119 0
M  V30 39159 H 3803.42 -4.09294 -5.61697 0
M  V30 39160 H 3806.62 -2.517 -3.94671 0
M  V30 39161 H 3806.79 -3.6947 -5.32349 0
M  V30 39162 N 3800.2 1.4067 -0.710613 0
M  V30 39163 C 3801.13 2.29195 -0.0155152 0
M  V30 39164 C 3802.14 1.4557 0.728913 0
M  V30 39165 O 3803.33 1.68913 0.577117 0
M  V30 39166 C 3800.43 3.2374 1.00226 0
M  V30 39167 C 3799.6 4.36195 0.324387 0
M  V30 39168 C 3798.66 5.11214 1.24686 0
M  V30 39169 O 3797.69 5.64454 0.733535 0
M  V30 39170 N 3798.89 5.20099 2.57832 0
M  V30 39171 H 3801.65 2.8949 -0.775594 0
M  V30 39172 H 3799.22 1.51986 -0.557842 0
M  V30 39173 H 3801.21 3.70798 1.62145 0
M  V30 39174 H 3799.78 2.64647 1.66375 0
M  V30 39175 H 3799 3.91329 -0.474916 0
M  V30 39176 H 3800.29 5.08589 -0.146358 0
M  V30 39177 H 3799.68 4.78319 3.02039 0
M  V30 39178 H 3798.24 5.70681 3.14907 0
M  V30 39179 N 3801.67 0.456435 1.50846 0
M  V30 39180 C 3802.91 -0.102513 2.04143 0
M  V30 39181 C 3803.28 -1.3829 1.33192 0
M  V30 39182 O 3804.48 -2.02329 1.76964 0
M  V30 39183 C 3802.75 -0.296922 3.56164 0
M  V30 39184 S 3804.31 -0.816534 4.31136 0
M  V30 39185 H 3801.13 -0.022872 0.710632 0
M  V30 39186 H 3803.73 0.620219 1.85401 0
M  V30 39187 H 3802.43 0.640978 4.05364 0
M  V30 39188 H 3801.96 -1.04619 3.79234 0
M  V30 39189 H 3803.98 -2.09182 4.49952 0
M  V30 39190 N 3803.15 -1.56469 0.188482 0
M  V30 39191 C 3804.38 -2.02213 -0.460939 0
M  V30 39192 C 3804.8 -1.0678 -1.54854 0
M  V30 39193 O 3804.16 -0.0501744 -1.81231 0
M  V30 39194 C 3804.21 -3.46445 -1.00041 0
M  V30 39195 O 3803.31 -3.54117 -2.11364 0
M  V30 39196 H 3802.65 -0.655078 -0.108486 0
M  V30 39197 H 3805.18 -2.02427 0.297417 0
M  V30 39198 H 3805.19 -3.86102 -1.31869 0
M  V30 39199 H 3803.87 -4.15398 -0.2042 0
M  V30 39200 H 3802.44 -3.26331 -1.8045 0
M  V30 39201 N 3804.63 0.0851597 -1.5737 0
M  V30 39202 C 3805.58 1.12139 -2.03783 0
M  V30 39203 C 3806.57 1.4088 -0.940694 0
M  V30 39204 O 3807.78 1.40445 -1.12585 0
M  V30 39205 H 3804.15 0.378903 -0.649567 0
M  V30 39206 H 3806.12 0.703685 -2.89984 0
M  V30 39207 C 3804.87 2.43058 -2.48632 0
M  V30 39208 H 3804.2 2.21789 -3.32641 0
M  V30 39209 H 3805.64 3.14043 -2.84874 0
M  V30 39210 C 3804.09 3.08067 -1.36369 0
M  V30 39211 O 3804.62 3.95583 -0.698343 0
M  V30 39212 N 3802.83 2.68475 -1.11217 0
M  V30 39213 H 3802.38 1.97399 -1.65504 0
M  V30 39214 H 3802.34 3.12297 -0.363058 0
M  V30 39215 N 3806.11 1.53521 0.356231 0
M  V30 39216 C 3807.36 1.6982 1.09571 0
M  V30 39217 C 3807.68 0.457439 1.89559 0
M  V30 39218 O 3806.95 -0.528583 1.88634 0
M  V30 39219 H 3805.53 0.626061 0.407501 0
M  V30 39220 H 3808.19 1.90739 0.400578 0
M  V30 39221 H 3807.28 2.56346 1.78025 0
M  V30 39222 N 3807.59 -0.616551 1.45039 0
M  V30 39223 C 3809 -0.936336 1.29247 0
M  V30 39224 C 3809.2 -2.00079 0.238914 0
M  V30 39225 O 3808.26 -2.49771 -0.370221 0
M  V30 39226 C 3809.57 -1.38577 2.66865 0
M  V30 39227 C 3811.12 -1.50046 2.74691 0
M  V30 39228 C 3811.59 -1.98368 4.12812 0
M  V30 39229 N 3813.08 -2.05616 4.15062 0
M  V30 39230 C 3813.82 -2.44207 5.18797 0
M  V30 39231 N 3813.32 -2.81831 6.32885 0
M  V30 39232 N 3815.11 -2.44468 5.06154 0
M  V30 39233 H 3807.26 0.0871678 2.12221 0
M  V30 39234 H 3809.52 -0.0236492 0.947705 0
M  V30 39235 H 3809.23 -0.67785 3.45106 0
M  V30 39236 H 3809.1 -2.35402 2.9473 0
M  V30 39237 H 3811.49 -2.19931 1.9676 0
M  V30 39238 H 3811.57 -0.515587 2.5055 0
M  V30 39239 H 3811.21 -1.29073 4.91226 0
M  V30 39240 H 3811.14 -2.97753 4.34339 0
M  V30 39241 H 3813.64 -1.79165 3.32729 0
M  V30 39242 H 3813.95 -3.10134 7.07839 0
M  V30 39243 H 3812.29 -2.79548 6.363 0
M  V30 39244 H 3815.48 -2.14475 4.16075 0
M  V30 39245 H 3815.66 -2.74219 5.87118 0
M  V30 39246 N 3809.06 -1.3218 -0.858264 0
M  V30 39247 C 3810.3 -1.23847 -1.62608 0
M  V30 39248 C 3810.67 0.197595 -1.90981 0
M  V30 39249 O 3811.87 0.404603 -2.65737 0
M  V30 39250 C 3810.14 -2.07052 -2.91315 0
M  V30 39251 S 3811.7 -2.15705 -3.82121 0
M  V30 39252 H 3808.52 -0.44091 -0.557781 0
M  V30 39253 H 3811.12 -1.66985 -1.01667 0
M  V30 39254 H 3809.82 -3.10457 -2.68412 0
M  V30 39255 H 3809.35 -1.64677 -3.57274 0
M  V30 39256 H 3811.37 -1.30392 -4.78761 0
M  V30 39257 N 3810.54 1.07407 -1.15332 0
M  V30 39258 C 3811.79 1.80259 -0.929213 0
M  V30 39259 C 3812.12 1.86473 0.542354 0
M  V30 39260 O 3811.4 1.34805 1.40207 0
M  V30 39261 C 3811.68 3.25346 -1.54344 0
M  V30 39262 C 3811.53 3.2728 -3.08557 0
M  V30 39263 C 3812.85 4.22599 -1.22876 0
M  V30 39264 H 3809.97 0.654408 -0.338997 0
M  V30 39265 H 3812.61 1.25688 -1.42487 0
M  V30 39266 H 3810.76 3.71947 -1.12194 0
M  V30 39267 H 3812.43 2.88926 -3.5961 0
M  V30 39268 H 3810.68 2.66257 -3.42476 0
M  V30 39269 H 3811.35 4.29581 -3.46647 0
M  V30 39270 H 3813.82 3.84385 -1.59335 0
M  V30 39271 H 3812.7 5.22407 -1.68471 0
M  V30 39272 H 3812.96 4.4186 -0.14569 0
M  V30 39273 N 3812.02 0.950026 1.25747 0
M  V30 39274 C 3813.24 0.618882 1.97951 0
M  V30 39275 C 3813.67 -0.801164 1.70185 0
M  V30 39276 O 3813.03 -1.54105 0.955059 0
M  V30 39277 C 3813.08 0.878213 3.49742 0
M  V30 39278 O 3812.18 -0.045296 4.12375 0
M  V30 39279 H 3811.52 0.235783 0.620727 0
M  V30 39280 H 3814.05 1.27537 1.59986 0
M  V30 39281 H 3814.06 0.802637 4.00027 0
M  V30 39282 H 3812.74 1.91322 3.69281 0
M  V30 39283 H 3811.31 0.082092 3.7281 0
M  V30 39284 N 3813.5 -1.40291 0.718063 0
M  V30 39285 C 3814.45 -2.32533 0.0559874 0
M  V30 39286 C 3815.44 -1.52171 -0.744339 0
M  V30 39287 O 3816.65 -1.67953 -0.647428 0
M  V30 39288 H 3813.02 -0.752 -0.000697409 0
M  V30 39289 H 3814.99 -2.86019 0.850629 0
M  V30 39290 C 3813.74 -3.37154 -0.849868 0
M  V30 39291 H 3813.06 -3.99058 -0.243437 0
M  V30 39292 H 3814.5 -4.04185 -1.28104 0
M  V30 39293 C 3812.96 -2.72833 -1.97645 0
M  V30 39294 O 3813.49 -2.59356 -3.06753 0
M  V30 39295 N 3811.7 -2.31179 -1.76082 0
M  V30 39296 H 3811.25 -2.4234 -0.873442 0
M  V30 39297 H 3811.2 -1.88481 -2.51639 0
M  V30 39298 N 3814.98 -0.464428 -1.50602 0
M  V30 39299 C 3815.91 0.379035 -2.2503 0
M  V30 39300 C 3816.89 1.00189 -1.28066 0
M  V30 39301 O 3818.07 1.03912 -1.57272 0
M  V30 39302 C 3815.2 1.53052 -3.02147 0
M  V30 39303 C 3814.24 1.02569 -4.13983 0
M  V30 39304 S 3815.08 -0.0542394 -5.35473 0
M  V30 39305 C 3816.23 1.10127 -6.16135 0
M  V30 39306 H 3816.47 -0.252783 -2.96223 0
M  V30 39307 H 3814 -0.249232 -1.52375 0
M  V30 39308 H 3815.96 2.1905 -3.47171 0
M  V30 39309 H 3814.62 2.13383 -2.30492 0
M  V30 39310 H 3813.81 1.88754 -4.6732 0
M  V30 39311 H 3813.41 0.443532 -3.71361 0
M  V30 39312 H 3815.71 2.01426 -6.46865 0
M  V30 39313 H 3816.65 0.607306 -7.05491 0
M  V30 39314 H 3817.06 1.35209 -5.48068 0
M  V30 39315 N 3816.45 1.56367 -0.196777 0
M  V30 39316 C 3817.38 2.22169 0.718568 0
M  V30 39317 C 3818.37 1.18532 1.22 0
M  V30 39318 O 3819.55 1.47044 1.26853 0
M  V30 39319 C 3816.68 2.88235 1.93748 0
M  V30 39320 C 3815.63 3.98129 1.57089 0
M  V30 39321 C 3814.96 4.51368 2.86655 0
M  V30 39322 C 3816.26 5.1645 0.779559 0
M  V30 39323 H 3817.95 2.98917 0.170012 0
M  V30 39324 H 3815.5 1.43776 0.0803315 0
M  V30 39325 H 3817.45 3.32951 2.58306 0
M  V30 39326 H 3816.18 2.08894 2.51059 0
M  V30 39327 H 3814.84 3.54107 0.948885 0
M  V30 39328 H 3814.48 3.68788 3.42059 0
M  V30 39329 H 3814.18 5.25521 2.62871 0
M  V30 39330 H 3815.71 4.98787 3.52198 0
M  V30 39331 H 3817.12 5.577 1.32828 0
M  V30 39332 H 3815.52 5.9668 0.639777 0
M  V30 39333 H 3816.59 4.84405 -0.219029 0
M  V30 39334 N 3817.93 -0.0768128 1.57413 0
M  V30 39335 C 3819.18 -0.772849 1.88145 0
M  V30 39336 C 3819.53 -1.75439 0.789864 0
M  V30 39337 O 3818.83 -1.90484 -0.206454 0
M  V30 39338 C 3819.02 -1.52476 3.23243 0
M  V30 39339 C 3818.85 -0.617542 4.4544 0
M  V30 39340 C 3817.62 -0.256372 5.04649 0
M  V30 39341 C 3819.82 0.0835267 5.14232 0
M  V30 39342 N 3817.8 0.657095 6.10373 0
M  V30 39343 C 3819.17 0.85437 6.14085 0
M  V30 39344 C 3821.23 0.155526 4.97657 0
M  V30 39345 C 3819.93 1.69052 6.99152 0
M  V30 39346 C 3821.95 0.97863 5.83247 0
M  V30 39347 C 3821.32 1.73754 6.82634 0
M  V30 39348 H 3817.42 -0.258396 0.738076 0
M  V30 39349 H 3820 -0.0345738 1.94669 0
M  V30 39350 H 3818.17 -2.23379 3.17736 0
M  V30 39351 H 3819.9 -2.16942 3.41641 0
M  V30 39352 H 3816.66 -0.608116 4.6968 0
M  V30 39353 H 3817.08 1.10692 6.67889 0
M  V30 39354 H 3821.72 -0.416872 4.2074 0
M  V30 39355 H 3819.44 2.27391 7.75448 0
M  V30 39356 H 3823.03 1.03725 5.72479 0
M  V30 39357 H 3821.91 2.36418 7.47714 0
M  V30 39358 N 3819.41 -1.53708 -0.348084 0
M  V30 39359 C 3820.65 -1.72447 -1.09733 0
M  V30 39360 C 3821.01 -0.475191 -1.86027 0
M  V30 39361 O 3822.22 -0.539539 -2.63329 0
M  V30 39362 C 3820.49 -2.95035 -2.01715 0
M  V30 39363 S 3822.05 -3.34564 -2.83923 0
M  V30 39364 H 3818.86 -0.606627 -0.370844 0
M  V30 39365 H 3821.47 -1.91844 -0.376324 0
M  V30 39366 H 3820.17 -3.84135 -1.44459 0
M  V30 39367 H 3819.7 -2.78091 -2.7826 0
M  V30 39368 H 3821.72 -2.87944 -4.04107 0
M  V30 39369 N 3820.89 0.608851 -1.45364 0
M  V30 39370 C 3821.84 1.74078 -1.54272 0
M  V30 39371 C 3822.83 1.64294 -0.412781 0
M  V30 39372 O 3824.04 1.70103 -0.58864 0
M  V30 39373 H 3820.41 0.575088 -0.484538 0
M  V30 39374 H 3822.38 1.63691 -2.49495 0
M  V30 39375 C 3821.13 3.12455 -1.52536 0
M  V30 39376 H 3820.45 3.20642 -2.38807 0
M  V30 39377 H 3821.89 3.91489 -1.62826 0
M  V30 39378 C 3820.35 3.35974 -0.249584 0
M  V30 39379 O 3820.88 3.96055 0.67109 0
M  V30 39380 N 3819.09 2.90235 -0.145676 0
M  V30 39381 H 3818.64 2.41524 -0.895756 0
M  V30 39382 H 3818.59 3.06345 0.707113 0
M  V30 39383 N 3822.37 1.32633 0.851242 0
M  V30 39384 C 3823.61 1.23144 1.6025 0
M  V30 39385 C 3823.94 -0.205912 1.9391 0
M  V30 39386 O 3823.21 -1.13153 1.59916 0
M  V30 39387 H 3821.79 0.452792 0.594129 0
M  V30 39388 H 3824.45 1.66199 1.01804 0
M  V30 39389 H 3823.54 1.81648 2.53792 0
M  V30 39390 N 3823.84 -1.06794 1.159 0
M  V30 39391 C 3824.81 -2.12313 0.863464 0
M  V30 39392 C 3825.81 -1.60196 -0.139298 0
M  V30 39393 O 3827 -1.73962 0.0910011 0
M  V30 39394 C 3824.13 -3.39662 0.29031 0
M  V30 39395 H 3825.32 -2.39963 1.79883 0
M  V30 39396 H 3822.88 -1.22777 0.967245 0
M  V30 39397 H 3823.61 -3.17658 -0.652981 0
M  V30 39398 H 3823.4 -3.78794 1.0128 0
M  V30 39399 H 3824.89 -4.17477 0.101313 0
M  V30 39400 N 3825.32 -0.956681 -1.25241 0
M  V30 39401 C 3826.6 -0.529865 -1.88286 0
M  V30 39402 C 3826.98 0.992896 -1.86292 0
M  V30 39403 O 3826.33 1.85956 -1.32788 0
M  V30 39404 C 3826.54 -1.10883 -3.30917 0
M  V30 39405 C 3827.89 -1.18695 -4.07672 0
M  V30 39406 O 3828.91 -1.06053 -3.40046 0
M  V30 39407 O 3827.77 -1.3855 -5.28646 0
M  V30 39408 H 3824.86 -0.17508 -0.808255 0
M  V30 39409 H 3827.41 -1.05024 -1.33297 0
M  V30 39410 H 3826.18 -2.152 -3.2681 0
M  V30 39411 H 3825.8 -0.571825 -3.93467 0
M  V30 39412 N 3826.8 1.39908 -0.725493 0
M  V30 39413 C 3828.08 1.94615 -0.196006 0
M  V30 39414 C 3828.46 1.66297 1.30033 0
M  V30 39415 O 3827.81 0.986013 2.06131 0
M  V30 39416 C 3828.02 3.45114 -0.519385 0
M  V30 39417 C 3829.36 4.22063 -0.463485 0
M  V30 39418 O 3830.39 3.53269 -0.45602 0
M  V30 39419 O 3829.25 5.44647 -0.449675 0
M  V30 39420 H 3826.34 0.826359 -0.0325554 0
M  V30 39421 H 3828.89 1.49461 -0.803702 0
M  V30 39422 H 3827.66 3.59122 -1.55393 0
M  V30 39423 H 3827.28 3.97426 0.117768 0
M  V30 39424 N 3828.28 0.472408 1.50353 0
M  V30 39425 C 3829.52 -0.0808555 2.0424 0
M  V30 39426 C 3829.88 -1.36869 1.34651 0
M  V30 39427 O 3831.08 -2.00441 1.791 0
M  V30 39428 C 3829.35 -0.25913 3.56459 0
M  V30 39429 S 3830.91 -0.77076 4.31978 0
M  V30 39430 H 3827.73 -0.0153335 0.710835 0
M  V30 39431 H 3830.33 0.639848 1.84733 0
M  V30 39432 H 3829.04 0.683936 4.04661 0
M  V30 39433 H 3828.57 -1.00591 3.80322 0
M  V30 39434 H 3830.58 -2.04398 4.52146 0
M  V30 39435 N 3829.76 -1.5626 0.205067 0
M  V30 39436 C 3831.01 -1.97468 -0.430211 0
M  V30 39437 C 3831.33 -1.09345 -1.61458 0
M  V30 39438 O 3830.6 -0.166871 -1.95188 0
M  V30 39439 H 3829.18 -0.729237 -0.161932 0
M  V30 39440 H 3831.84 -1.92668 0.294123 0
M  V30 39441 H 3830.93 -3.02512 -0.767646 0
M  V30 39442 N 3831.24 0.0684638 -1.57451 0
M  V30 39443 C 3832.51 0.800178 -1.78484 0
M  V30 39444 C 3832.89 1.9562 -0.793473 0
M  V30 39445 O 3832.24 2.27846 0.172716 0
M  V30 39446 C 3832.45 1.27002 -3.25071 0
M  V30 39447 C 3833.8 1.70205 -3.88993 0
M  V30 39448 O 3834.82 1.36561 -3.28983 0
M  V30 39449 O 3833.68 2.32506 -4.94574 0
M  V30 39450 H 3830.78 0.383691 -0.732605 0
M  V30 39451 H 3833.32 0.0482819 -1.69631 0
M  V30 39452 H 3832.09 0.442998 -3.88784 0
M  V30 39453 H 3831.72 2.08313 -3.38661 0
M  V30 39454 N 3832.71 1.5389 0.339928 0
M  V30 39455 C 3833.96 1.70972 1.07763 0
M  V30 39456 C 3834.28 0.477519 1.89063 0
M  V30 39457 O 3833.55 -0.508546 1.89184 0
M  V30 39458 H 3832.13 0.630348 0.400838 0
M  V30 39459 H 3834.79 1.91153 0.380325 0
M  V30 39460 H 3833.89 2.5822 1.75296 0
M  V30 39461 N 3834.19 -0.601133 1.45685 0
M  V30 39462 C 3835.42 -1.39132 1.53808 0
M  V30 39463 C 3835.84 -1.87297 0.173658 0
M  V30 39464 O 3835.2 -1.60514 -0.842903 0
M  V30 39465 C 3835.25 -2.56747 2.53206 0
M  V30 39466 O 3834.35 -3.5759 2.05433 0
M  V30 39467 H 3833.69 -0.415109 0.518247 0
M  V30 39468 H 3836.22 -0.730973 1.91097 0
M  V30 39469 H 3836.23 -3.03908 2.72221 0
M  V30 39470 H 3834.91 -2.21041 3.52298 0
M  V30 39471 H 3833.48 -3.17035 1.96324 0
M  V30 39472 N 3835.67 -1.33083 -0.844196 0
M  V30 39473 C 3836.95 -1.14843 -1.58337 0
M  V30 39474 C 3837.33 0.287236 -2.09137 0
M  V30 39475 O 3836.67 1.28547 -1.88912 0
M  V30 39476 C 3836.88 -2.185 -2.72137 0
M  V30 39477 C 3838.23 -2.52379 -3.41453 0
M  V30 39478 O 3839.26 -2.17127 -2.82373 0
M  V30 39479 O 3838.12 -3.12853 -4.48091 0
M  V30 39480 H 3835.21 -0.443843 -0.697805 0
M  V30 39481 H 3837.76 -1.44648 -0.887414 0
M  V30 39482 H 3836.53 -3.14958 -2.32201 0
M  V30 39483 H 3836.15 -1.8975 -3.494 0
M  V30 39484 N 3837.15 1.06178 -1.16464 0
M  V30 39485 C 3838.06 2.172 -0.886639 0
M  V30 39486 C 3839.07 1.73423 0.141538 0
M  V30 39487 O 3840.25 2.01369 -0.0353771 0
M  V30 39488 C 3837.31 3.44467 -0.392889 0
M  V30 39489 C 3836.38 4.02745 -1.48643 0
M  V30 39490 C 3835.61 5.23937 -1.01615 0
M  V30 39491 O 3835.83 5.70243 0.133653 0
M  V30 39492 O 3834.77 5.74199 -1.80498 0
M  V30 39493 H 3838.59 2.43494 -1.81506 0
M  V30 39494 H 3836.18 1.15739 -0.944712 0
M  V30 39495 H 3838.06 4.21216 -0.124575 0
M  V30 39496 H 3836.73 3.19697 0.50751 0
M  V30 39497 H 3835.64 3.27481 -1.8085 0
M  V30 39498 H 3836.97 4.31812 -2.36218 0
M  V30 39499 N 3838.63 0.96331 1.24732 0
M  V30 39500 C 3839.87 0.61842 1.91986 0
M  V30 39501 C 3840.19 -0.849695 1.7618 0
M  V30 39502 O 3841.39 -1.30492 2.38084 0
M  V30 39503 C 3839.85 1.0554 3.44077 0
M  V30 39504 C 3839.46 2.54666 3.68577 0
M  V30 39505 C 3841.2 0.783452 4.17208 0
M  V30 39506 C 3839.11 2.9212 5.14218 0
M  V30 39507 H 3838.04 0.227588 0.718832 0
M  V30 39508 H 3840.69 1.16893 1.41451 0
M  V30 39509 H 3839.07 0.433237 3.93623 0
M  V30 39510 H 3840.25 3.21975 3.29649 0
M  V30 39511 H 3838.56 2.79425 3.08724 0
M  V30 39512 H 3841.16 1.03934 5.24502 0
M  V30 39513 H 3841.5 -0.280279 4.15355 0
M  V30 39514 H 3842.03 1.36637 3.73597 0
M  V30 39515 H 3838.77 3.97546 5.21188 0
M  V30 39516 H 3838.29 2.29491 5.5416 0
M  V30 39517 H 3839.97 2.81785 5.82414 0
M  V30 39518 N 3840.1 -1.39522 0.732902 0
M  V30 39519 C 3841.51 -1.83387 0.350178 0
M  V30 39520 C 3841.87 -1.61227 -1.11804 0
M  V30 39521 O 3840.99 -1.10232 -1.8622 0
M  V30 39522 C 3841.59 -3.32914 0.628802 0
M  V30 39523 C 3840.14 -3.75206 0.299595 0
M  V30 39524 C 3839.29 -2.62545 0.89248 0
M  V30 39525 H 3842.24 -1.28544 0.930709 0
M  V30 39526 H 3842.26 -3.80368 -0.100139 0
M  V30 39527 H 3841.78 -3.4901 1.69746 0
M  V30 39528 H 3839.88 -3.64698 -0.763309 0
M  V30 39529 H 3839.99 -4.72697 0.78069 0
M  V30 39530 H 3838.35 -2.52691 0.319263 0
M  V30 39531 H 3839.14 -2.81448 1.96575 0
M  V30 39532 N 3841.58 -0.480375 -1.501 0
M  V30 39533 C 3842.82 0.070023 -2.0428 0
M  V30 39534 C 3843.19 1.36153 -1.35375 0
M  V30 39535 O 3844.39 1.99488 -1.8016 0
M  V30 39536 C 3842.66 0.240222 -3.56592 0
M  V30 39537 S 3844.22 0.74784 -4.3238 0
M  V30 39538 H 3841.03 0.0115636 -0.710906 0
M  V30 39539 H 3843.64 -0.649636 -1.84391 0
M  V30 39540 H 3842.34 -0.705386 -4.04293 0
M  V30 39541 H 3841.87 0.985725 -3.8085 0
M  V30 39542 H 3843.89 2.01997 -4.53223 0
M  V30 39543 N 3843.06 1.56149 -0.213351 0
M  V30 39544 C 3844.01 2.21284 0.716669 0
M  V30 39545 C 3845 1.18965 1.20597 0
M  V30 39546 O 3846.21 1.37066 1.16675 0
M  V30 39547 H 3842.58 0.7094 0.249512 0
M  V30 39548 H 3844.55 2.98053 0.143798 0
M  V30 39549 C 3843.3 2.90034 1.9177 0
M  V30 39550 H 3842.63 3.68519 1.55029 0
M  V30 39551 H 3844.07 3.3902 2.5464 0
M  V30 39552 C 3842.52 1.92056 2.76796 0
M  V30 39553 O 3843.05 1.43232 3.75297 0
M  V30 39554 N 3841.26 1.59884 2.42663 0
M  V30 39555 H 3840.81 1.99782 1.62619 0
M  V30 39556 H 3840.77 0.945885 2.99834 0
M  V30 39557 N 3844.54 -0.0601128 1.57485 0
M  V30 39558 C 3845.49 -1.07019 2.04489 0
M  V30 39559 C 3846.46 -1.37774 0.927762 0
M  V30 39560 O 3847.64 -1.48643 1.19624 0
M  V30 39561 C 3844.78 -2.37535 2.50342 0
M  V30 39562 C 3843.89 -2.13208 3.75721 0
M  V30 39563 C 3843.03 -3.37371 4.1031 0
M  V30 39564 C 3842.07 -3.0846 5.28695 0
M  V30 39565 N 3841.2 -4.24986 5.58866 0
M  V30 39566 H 3846.04 -0.662393 2.90545 0
M  V30 39567 H 3843.58 -0.315489 1.43677 0
M  V30 39568 H 3845.54 -3.13751 2.74984 0
M  V30 39569 H 3844.17 -2.76095 1.67247 0
M  V30 39570 H 3843.22 -1.2763 3.5835 0
M  V30 39571 H 3844.53 -1.87861 4.62071 0
M  V30 39572 H 3843.69 -4.21976 4.35914 0
M  V30 39573 H 3842.43 -3.65804 3.2255 0
M  V30 39574 H 3841.43 -2.22253 5.02875 0
M  V30 39575 H 3842.66 -2.81338 6.18082 0
M  V30 39576 H 3840.6 -4.53429 4.74066 0
M  V30 39577 H 3840.52 -4.02954 6.39659 0
M  V30 39578 H 3841.79 -5.10554 5.89028 0
M  V30 39579 N 3846.02 -1.54068 -0.331762 0
M  V30 39580 C 3847.24 -1.75834 -1.09041 0
M  V30 39581 C 3847.66 -0.503044 -1.81975 0
M  V30 39582 O 3847.02 0.525882 -1.74759 0
M  V30 39583 C 3847.07 -2.94617 -2.09484 0
M  V30 39584 O 3846.79 -4.15292 -1.39514 0
M  V30 39585 C 3848.29 -3.28528 -2.97631 0
M  V30 39586 H 3845.51 -0.587211 -0.324691 0
M  V30 39587 H 3848.05 -2.00931 -0.380382 0
M  V30 39588 H 3846.21 -2.71816 -2.76034 0
M  V30 39589 H 3846.62 -4.82049 -2.06709 0
M  V30 39590 H 3848.1 -4.14962 -3.6402 0
M  V30 39591 H 3848.57 -2.45339 -3.64288 0
M  V30 39592 H 3849.18 -3.53376 -2.36654 0
M  V30 39593 N 3847.49 0.593399 -1.46002 0
M  V30 39594 C 3848.46 1.6852 -1.5535 0
M  V30 39595 C 3849.46 1.54899 -0.431627 0
M  V30 39596 O 3850.65 1.5971 -0.695587 0
M  V30 39597 C 3847.78 3.07882 -1.46361 0
M  V30 39598 H 3848.97 1.61593 -2.52641 0
M  V30 39599 H 3846.53 0.81034 -1.33653 0
M  V30 39600 H 3847.26 3.20374 -0.50308 0
M  V30 39601 H 3847.05 3.19177 -2.27746 0
M  V30 39602 H 3848.54 3.87382 -1.55965 0
M  V30 39603 N 3848.97 1.33529 0.837127 0
M  V30 39604 C 3850.21 1.26418 1.60617 0
M  V30 39605 C 3850.58 -0.167186 1.91271 0
M  V30 39606 O 3851.78 -0.362276 2.66348 0
M  V30 39607 C 3850.05 2.1166 2.87984 0
M  V30 39608 S 3851.61 2.21757 3.78641 0
M  V30 39609 H 3848.43 0.449728 0.550696 0
M  V30 39610 H 3851.03 1.68582 0.989975 0
M  V30 39611 H 3849.73 3.14687 2.63439 0
M  V30 39612 H 3849.26 1.7034 3.54609 0
M  V30 39613 H 3851.28 1.37992 4.76626 0
M  V30 39614 N 3850.45 -1.05559 1.17026 0
M  V30 39615 C 3851.7 -1.78141 0.954467 0
M  V30 39616 C 3852.02 -1.8798 -0.518492 0
M  V30 39617 O 3851.29 -1.39388 -1.37651 0
M  V30 39618 H 3849.87 -0.65985 0.350153 0
M  V30 39619 H 3852.53 -1.27474 1.47432 0
M  V30 39620 H 3851.63 -2.79953 1.3796 0
M  V30 39621 N 3851.93 -0.969911 -1.2422 0
M  V30 39622 C 3853.17 -0.633947 -1.92637 0
M  V30 39623 C 3853.51 0.829061 -1.75614 0
M  V30 39624 O 3852.78 1.59675 -1.11059 0
M  V30 39625 C 3853.07 -1.01219 -3.45582 0
M  V30 39626 C 3852.92 -2.53206 -3.71762 0
M  V30 39627 C 3854.24 -0.548371 -4.3667 0
M  V30 39628 H 3851.36 -0.231784 -0.699604 0
M  V30 39629 H 3854 -1.20931 -1.46546 0
M  V30 39630 H 3852.15 -0.522599 -3.84969 0
M  V30 39631 H 3853.82 -3.09659 -3.4192 0
M  V30 39632 H 3852.06 -2.96306 -3.16837 0
M  V30 39633 H 3852.73 -2.74721 -4.78782 0
M  V30 39634 H 3855.21 -0.96856 -4.0467 0
M  V30 39635 H 3854.09 -0.841568 -5.4241 0
M  V30 39636 H 3854.35 0.551511 -4.38647 0
M  V30 39637 N 3853.41 1.39131 -0.740291 0
M  V30 39638 C 3854.65 2.00009 -0.289984 0
M  V30 39639 C 3854.98 1.59044 1.12828 0
M  V30 39640 O 3854.25 0.841107 1.76924 0
M  V30 39641 H 3852.83 0.739693 -0.104226 0
M  V30 39642 H 3855.49 1.701 -0.951428 0
M  V30 39643 H 3854.58 3.10214 -0.342563 0
M  V30 39644 N 3854.88 0.488329 1.49844 0
M  V30 39645 C 3855.79 -0.301705 2.32652 0
M  V30 39646 C 3856.81 -0.979548 1.43808 0
M  V30 39647 O 3857.99 -0.963727 1.76845 0
M  V30 39648 C 3855.05 -1.35956 3.18931 0
M  V30 39649 C 3854.11 -0.6965 4.23612 0
M  V30 39650 C 3853.35 -1.70396 5.05768 0
M  V30 39651 O 3853.57 -2.93244 4.89248 0
M  V30 39652 O 3852.5 -1.26626 5.8843 0
M  V30 39653 H 3856.33 0.37574 3.01367 0
M  V30 39654 H 3853.91 0.24987 1.47296 0
M  V30 39655 H 3855.8 -1.97191 3.72416 0
M  V30 39656 H 3854.47 -2.02017 2.52925 0
M  V30 39657 H 3853.38 -0.0447461 3.74073 0
M  V30 39658 H 3854.71 -0.0785581 4.92137 0
M  V30 39659 N 3856.36 -1.56034 0.221629 0
M  V30 39660 C 3857.61 -1.98305 -0.410052 0
M  V30 39661 C 3857.94 -1.10927 -1.59767 0
M  V30 39662 O 3857.19 -0.15423 -1.95091 0
M  V30 39663 C 3857.49 -3.46209 -0.887355 0
M  V30 39664 C 3857.16 -4.50501 0.189751 0
M  V30 39665 C 3855.82 -4.78743 0.485641 0
M  V30 39666 C 3858.17 -5.13048 0.918202 0
M  V30 39667 C 3855.5 -5.66815 1.5145 0
M  V30 39668 C 3857.85 -6.02235 1.9364 0
M  V30 39669 C 3856.52 -6.28821 2.23921 0
M  V30 39670 H 3855.79 -0.725649 -0.150049 0
M  V30 39671 H 3858.43 -1.88736 0.324164 0
M  V30 39672 H 3856.74 -3.52982 -1.70033 0
M  V30 39673 H 3858.43 -3.76287 -1.38596 0
M  V30 39674 H 3855.02 -4.2857 -0.0510234 0
M  V30 39675 H 3859.21 -4.91298 0.702847 0
M  V30 39676 H 3854.46 -5.85679 1.75473 0
M  V30 39677 H 3858.64 -6.49751 2.50592 0
M  V30 39678 H 3856.27 -6.96863 3.03786 0
M  V30 39679 N 3857.84 0.0517601 -1.57515 0
M  V30 39680 C 3859.26 0.406981 -1.54324 0
M  V30 39681 C 3859.46 1.77984 -0.94466 0
M  V30 39682 O 3858.51 2.46306 -0.555828 0
M  V30 39683 C 3859.83 0.329651 -2.98888 0
M  V30 39684 C 3861.37 0.408388 -3.10324 0
M  V30 39685 C 3861.85 0.360753 -4.56577 0
M  V30 39686 N 3863.34 0.420232 -4.6129 0
M  V30 39687 C 3864.07 0.405906 -5.71962 0
M  V30 39688 N 3863.57 0.345208 -6.91939 0
M  V30 39689 N 3865.36 0.453955 -5.60264 0
M  V30 39690 H 3857.51 -0.846941 -1.94784 0
M  V30 39691 H 3859.78 -0.319853 -0.892411 0
M  V30 39692 H 3859.48 -0.612863 -3.46319 0
M  V30 39693 H 3859.36 1.13216 -3.59808 0
M  V30 39694 H 3861.74 1.34133 -2.62854 0
M  V30 39695 H 3861.83 -0.423062 -2.52277 0
M  V30 39696 H 3861.47 -0.568424 -5.04709 0
M  V30 39697 H 3861.4 1.21001 -5.1251 0
M  V30 39698 H 3863.89 0.470578 -3.74959 0
M  V30 39699 H 3864.2 0.338754 -7.72057 0
M  V30 39700 H 3862.55 0.311593 -6.94301 0
M  V30 39701 H 3865.74 0.499207 -4.6543 0
M  V30 39702 H 3865.91 0.439322 -6.46509 0
M  V30 39703 N 3859.32 1.54242 0.323587 0
M  V30 39704 C 3860.56 1.74171 1.06975 0
M  V30 39705 C 3860.92 0.504726 1.85247 0
M  V30 39706 O 3862.12 0.581364 2.62438 0
M  V30 39707 C 3860.4 2.98207 1.96996 0
M  V30 39708 S 3861.95 3.39039 2.78565 0
M  V30 39709 H 3858.77 0.61245 0.361146 0
M  V30 39710 H 3861.37 1.92418 0.345756 0
M  V30 39711 H 3860.08 3.86385 1.38329 0
M  V30 39712 H 3859.61 2.82483 2.73801 0
M  V30 39713 H 3861.62 2.94336 3.99475 0
M  V30 39714 N 3860.8 -0.585648 1.46314 0
M  V30 39715 C 3862.21 -0.90871 1.31204 0
M  V30 39716 C 3862.41 -1.99527 0.2813 0
M  V30 39717 O 3861.47 -2.505 -0.317158 0
M  V30 39718 C 3862.78 -1.32885 2.69745 0
M  V30 39719 C 3864.33 -1.44186 2.77812 0
M  V30 39720 C 3864.81 -1.89567 4.16927 0
M  V30 39721 N 3866.3 -1.96765 4.1933 0
M  V30 39722 C 3867.03 -2.33148 5.2386 0
M  V30 39723 N 3866.53 -2.68344 6.3872 0
M  V30 39724 N 3868.32 -2.33677 5.11225 0
M  V30 39725 H 3860.47 0.132163 2.11988 0
M  V30 39726 H 3862.73 -0.00354169 0.947993 0
M  V30 39727 H 3862.44 -0.604496 3.46466 0
M  V30 39728 H 3862.31 -2.29097 2.99657 0
M  V30 39729 H 3864.7 -2.15708 2.0138 0
M  V30 39730 H 3864.78 -0.462326 2.51587 0
M  V30 39731 H 3864.43 -1.18624 4.93853 0
M  V30 39732 H 3864.36 -2.88473 4.40557 0
M  V30 39733 H 3866.85 -1.72067 3.36454 0
M  V30 39734 H 3867.16 -2.9505 7.14259 0
M  V30 39735 H 3865.51 -2.65989 6.42086 0
M  V30 39736 H 3868.7 -2.05601 4.2053 0
M  V30 39737 H 3868.87 -2.61703 5.92803 0
M  V30 39738 N 3862.28 -1.33971 -0.830033 0
M  V30 39739 C 3863.55 -1.16516 -1.5711 0
M  V30 39740 C 3863.93 0.265038 -2.0943 0
M  V30 39741 O 3863.28 1.26536 -1.90265 0
M  V30 39742 C 3863.49 -2.21374 -2.69804 0
M  V30 39743 C 3864.84 -2.55986 -3.38757 0
M  V30 39744 O 3865.86 -2.20109 -2.80054 0
M  V30 39745 O 3864.72 -3.17588 -4.44748 0
M  V30 39746 H 3861.82 -0.451219 -0.693058 0
M  V30 39747 H 3864.36 -1.45581 -0.872022 0
M  V30 39748 H 3863.13 -3.17403 -2.28847 0
M  V30 39749 H 3862.76 -1.93445 -3.47368 0
M  V30 39750 N 3863.75 1.04937 -1.17584 0
M  V30 39751 C 3865 1.77633 -0.963901 0
M  V30 39752 C 3865.32 1.88253 0.508515 0
M  V30 39753 O 3864.59 1.40116 1.3691 0
M  V30 39754 H 3863.17 0.657984 -0.353647 0
M  V30 39755 H 3865.83 1.26691 -1.48106 0
M  V30 39756 H 3864.93 2.79217 -1.39443 0
M  V30 39757 N 3865.23 0.976485 1.23703 0
M  V30 39758 C 3866.46 0.6611 1.96054 0
M  V30 39759 C 3866.87 -0.77118 1.72332 0
M  V30 39760 O 3866.23 -1.51847 1.01236 0
M  V30 39761 C 3866.28 0.937132 3.49142 0
M  V30 39762 O 3866 2.31311 3.72057 0
M  V30 39763 C 3867.5 0.637154 4.38697 0
M  V30 39764 H 3864.72 0.245912 0.624314 0
M  V30 39765 H 3867.27 1.30681 1.57299 0
M  V30 39766 H 3865.42 0.337498 3.85927 0
M  V30 39767 H 3865.84 2.39981 4.66379 0
M  V30 39768 H 3867.31 0.880686 5.44929 0
M  V30 39769 H 3867.79 -0.428725 4.37102 0
M  V30 39770 H 3868.39 1.21709 4.07513 0
M  V30 39771 N 3866.71 -1.38737 0.747659 0
M  V30 39772 C 3867.95 -2.02096 0.306029 0
M  V30 39773 C 3868.31 -1.58061 -1.08999 0
M  V30 39774 O 3869.51 -2.13708 -1.63041 0
M  V30 39775 C 3867.79 -3.54945 0.418219 0
M  V30 39776 S 3869.34 -4.38761 0.0582958 0
M  V30 39777 H 3866.16 -0.700956 0.119087 0
M  V30 39778 H 3868.76 -1.69339 0.97697 0
M  V30 39779 H 3867.47 -3.84483 1.4353 0
M  V30 39780 H 3867 -3.92472 -0.27011 0
M  V30 39781 H 3869.01 -4.82595 -1.15399 0
M  V30 39782 N 3868.19 -0.496268 -1.49583 0
M  V30 39783 C 3869.44 0.0517465 -2.01634 0
M  V30 39784 C 3869.75 1.38484 -1.38136 0
M  V30 39785 O 3870.96 2.01927 -1.81487 0
M  V30 39786 C 3869.41 0.142692 -3.59617 0
M  V30 39787 C 3869.02 -1.18348 -4.32085 0
M  V30 39788 C 3870.76 0.641323 -4.19628 0
M  V30 39789 C 3868.67 -1.05495 -5.81915 0
M  V30 39790 H 3867.6 0.0231125 -0.753646 0
M  V30 39791 H 3870.25 -0.634975 -1.72164 0
M  V30 39792 H 3868.63 0.893758 -3.85782 0
M  V30 39793 H 3869.81 -1.94747 -4.17625 0
M  V30 39794 H 3868.12 -1.61518 -3.83798 0
M  V30 39795 H 3870.72 0.754915 -5.29344 0
M  V30 39796 H 3871.06 1.63899 -3.82678 0
M  V30 39797 H 3871.6 -0.0530729 -3.97765 0
M  V30 39798 H 3868.33 -2.02675 -6.23381 0
M  V30 39799 H 3867.85 -0.331772 -5.98882 0
M  V30 39800 H 3869.53 -0.731754 -6.42849 0
M  V30 39801 N 3869.67 1.55914 -0.2299 0
M  V30 39802 C 3870.91 1.98127 0.398741 0
M  V30 39803 C 3871.23 1.119 1.59698 0
M  V30 39804 O 3870.5 0.197902 1.94898 0
M  V30 39805 H 3869.08 0.731721 0.15031 0
M  V30 39806 H 3871.75 1.92176 -0.324738 0
M  V30 39807 H 3870.84 3.03695 0.719421 0
M  V30 39808 N 3871.14 -0.043406 1.5754 0
M  V30 39809 C 3872.09 -1.06696 2.06685 0
M  V30 39810 C 3873.09 -1.38337 0.977715 0
M  V30 39811 O 3874.29 -1.3741 1.16269 0
M  V30 39812 H 3870.67 -0.361547 0.659384 0
M  V30 39813 H 3872.64 -0.626554 2.91748 0
M  V30 39814 C 3871.39 -2.36381 2.54989 0
M  V30 39815 H 3870.71 -2.12891 3.38404 0
M  V30 39816 H 3872.15 -3.06379 2.931 0
M  V30 39817 C 3870.61 -3.04343 1.44489 0
M  V30 39818 O 3871.14 -3.93593 0.802979 0
M  V30 39819 N 3869.34 -2.65432 1.18296 0
M  V30 39820 H 3868.89 -1.92941 1.70679 0
M  V30 39821 H 3868.85 -3.11224 0.44573 0
M  V30 39822 N 3872.62 -1.54412 -0.315402 0
M  V30 39823 C 3873.85 -1.77301 -1.07607 0
M  V30 39824 C 3874.27 -0.523995 -1.80654 0
M  V30 39825 O 3873.63 0.524843 -1.73537 0
M  V30 39826 C 3873.68 -2.97108 -2.0435 0
M  V30 39827 O 3872.78 -2.69225 -3.12397 0
M  V30 39828 H 3872.12 -0.587273 -0.30985 0
M  V30 39829 H 3874.65 -2.01458 -0.35721 0
M  V30 39830 H 3874.66 -3.24681 -2.47075 0
M  V30 39831 H 3873.34 -3.87681 -1.50585 0
M  V30 39832 H 3871.91 -2.52626 -2.74289 0
M  V30 39833 N 3874.1 0.57788 -1.46623 0
M  V30 39834 C 3875.33 1.36668 -1.56002 0
M  V30 39835 C 3875.75 1.86997 -0.203433 0
M  V30 39836 O 3875.11 1.61835 0.81726 0
M  V30 39837 C 3875.16 2.52686 -2.57258 0
M  V30 39838 O 3874.26 3.54277 -2.11096 0
M  V30 39839 H 3873.6 0.406812 -0.524786 0
M  V30 39840 H 3876.13 0.700478 -1.92235 0
M  V30 39841 H 3876.14 2.99538 -2.77021 0
M  V30 39842 H 3874.82 2.15408 -3.5577 0
M  V30 39843 H 3873.39 3.13872 -2.01343 0
M  V30 39844 N 3875.58 1.34409 0.822917 0
M  V30 39845 C 3876.99 1.14091 1.11604 0
M  V30 39846 C 3877.19 -0.057581 2.01418 0
M  V30 39847 O 3876.25 -0.733103 2.41623 0
M  V30 39848 C 3877.56 2.43614 1.76274 0
M  V30 39849 C 3879.11 2.4967 1.88769 0
M  V30 39850 C 3879.59 3.79195 2.56856 0
M  V30 39851 N 3881.08 3.80356 2.64355 0
M  V30 39852 C 3881.81 4.77297 3.17766 0
M  V30 39853 N 3881.31 5.8462 3.71741 0
M  V30 39854 N 3883.1 4.64752 3.16167 0
M  V30 39855 H 3875.25 2.11199 0.225518 0
M  V30 39856 H 3877.52 0.933951 0.162605 0
M  V30 39857 H 3877.22 3.31405 1.17744 0
M  V30 39858 H 3877.1 2.56954 2.76142 0
M  V30 39859 H 3879.48 1.62319 2.46448 0
M  V30 39860 H 3879.56 2.40259 0.878037 0
M  V30 39861 H 3879.21 4.66937 1.99831 0
M  V30 39862 H 3879.14 3.8589 3.58325 0
M  V30 39863 H 3881.63 3.02801 2.26097 0
M  V30 39864 H 3881.94 6.54604 4.10747 0
M  V30 39865 H 3880.29 5.88334 3.69985 0
M  V30 39866 H 3883.48 3.80056 2.73267 0
M  V30 39867 H 3883.65 5.40468 3.57488 0
M  V30 39868 N 3877.06 -1.04312 1.18139 0
M  V30 39869 C 3878.3 -1.79036 0.986176 0
M  V30 39870 C 3878.66 -1.86006 -0.47599 0
M  V30 39871 O 3879.86 -2.56911 -0.790566 0
M  V30 39872 C 3878.13 -3.18569 1.62013 0
M  V30 39873 S 3879.69 -4.09662 1.57234 0
M  V30 39874 H 3876.51 -0.616497 0.354192 0
M  V30 39875 H 3879.11 -1.25093 1.5024 0
M  V30 39876 H 3877.82 -3.11104 2.67661 0
M  V30 39877 H 3877.35 -3.77589 1.1041 0
M  V30 39878 H 3879.36 -4.92722 0.586505 0
M  V30 39879 N 3878.53 -0.983032 -1.23184 0
M  V30 39880 C 3879.48 -0.517886 -2.26761 0
M  V30 39881 C 3880.48 0.426431 -1.63945 0
M  V30 39882 O 3881.68 0.300034 -1.77482 0
M  V30 39883 H 3878.06 -0.149055 -0.73708 0
M  V30 39884 H 3880.03 -1.40312 -2.63354 0
M  V30 39885 C 3878.78 0.161509 -3.47325 0
M  V30 39886 H 3878.1 -0.556043 -3.95914 0
M  V30 39887 H 3879.54 0.450569 -4.21599 0
M  V30 39888 C 3878 1.39361 -3.06725 0
M  V30 39889 O 3878.53 2.48967 -3.15243 0
M  V30 39890 N 3876.74 1.26523 -2.61611 0
M  V30 39891 H 3876.28 0.373404 -2.54879 0
M  V30 39892 H 3876.24 2.0907 -2.34813 0
M  V30 39893 N 3880.01 1.38338 -0.755006 0
M  V30 39894 C 3880.94 2.29029 -0.0884239 0
M  V30 39895 C 3881.96 1.47816 0.682232 0
M  V30 39896 O 3883.15 1.70664 0.523087 0
M  V30 39897 C 3880.25 3.26765 0.898762 0
M  V30 39898 C 3879.42 4.37007 0.18545 0
M  V30 39899 C 3878.48 5.14922 1.08359 0
M  V30 39900 O 3877.5 5.66502 0.553587 0
M  V30 39901 N 3878.71 5.28038 2.41155 0
M  V30 39902 H 3881.47 2.86876 -0.8673 0
M  V30 39903 H 3879.03 1.50134 -0.605912 0
M  V30 39904 H 3881.02 3.75769 1.50266 0
M  V30 39905 H 3879.59 2.69807 1.57871 0
M  V30 39906 H 3878.81 3.8962 -0.599174 0
M  V30 39907 H 3880.1 5.07866 -0.308088 0
M  V30 39908 H 3879.5 4.87686 2.86669 0
M  V30 39909 H 3878.06 5.80411 2.96592 0
M  V30 39910 N 3881.49 0.504194 1.49317 0
M  V30 39911 C 3882.74 -0.0391909 2.02462 0
M  V30 39912 C 3883.07 -1.36699 1.38361 0
M  V30 39913 O 3882.32 -1.88948 0.509612 0
M  V30 39914 C 3882.62 -0.236978 3.56613 0
M  V30 39915 C 3882.29 1.01322 4.39369 0
M  V30 39916 C 3880.95 1.35591 4.61702 0
M  V30 39917 C 3883.3 1.84408 4.87487 0
M  V30 39918 C 3880.63 2.52891 5.29399 0
M  V30 39919 C 3882.98 3.00864 5.56474 0
M  V30 39920 C 3881.64 3.3551 5.77053 0
M  V30 39921 H 3880.91 -0.014341 0.740861 0
M  V30 39922 H 3883.56 0.664999 1.79583 0
M  V30 39923 H 3881.87 -1.02372 3.78189 0
M  V30 39924 H 3883.56 -0.671918 3.95331 0
M  V30 39925 H 3880.15 0.736287 4.22228 0
M  V30 39926 H 3884.34 1.59247 4.70058 0
M  V30 39927 H 3879.59 2.79968 5.43533 0
M  V30 39928 H 3883.77 3.65569 5.92733 0
M  V30 39929 H 3881.39 4.26505 6.29283 0
M  V30 39930 N 3882.97 -1.5579 0.238166 0
M  V30 39931 C 3884.21 -1.99023 -0.389573 0
M  V30 39932 C 3884.55 -1.12599 -1.58225 0
M  V30 39933 O 3883.82 -0.187397 -1.93595 0
M  V30 39934 C 3884.11 -3.50919 -0.807963 0
M  V30 39935 C 3883.96 -4.4811 0.389495 0
M  V30 39936 C 3885.28 -4.07669 -1.65813 0
M  V30 39937 H 3882.4 -0.723556 -0.140129 0
M  V30 39938 H 3885.04 -1.86974 0.337729 0
M  V30 39939 H 3883.19 -3.61317 -1.42766 0
M  V30 39940 H 3884.86 -4.49703 1.02785 0
M  V30 39941 H 3883.1 -4.21294 1.03411 0
M  V30 39942 H 3883.77 -5.51974 0.0535519 0
M  V30 39943 H 3886.25 -4.00318 -1.13511 0
M  V30 39944 H 3885.13 -5.14234 -1.91975 0
M  V30 39945 H 3885.39 -3.55581 -2.62706 0
M  V30 39946 N 3884.45 0.0350506 -1.57561 0
M  V30 39947 C 3885.72 0.762138 -1.80141 0
M  V30 39948 C 3886.1 1.93893 -0.834788 0
M  V30 39949 O 3885.45 2.28161 0.124347 0
M  V30 39950 C 3885.66 1.20078 -3.27692 0
M  V30 39951 C 3887.01 1.61916 -3.92516 0
M  V30 39952 O 3888.03 1.29552 -3.31805 0
M  V30 39953 O 3886.89 2.21964 -4.99394 0
M  V30 39954 H 3883.99 0.368065 -0.740579 0
M  V30 39955 H 3886.53 0.0122897 -1.69696 0
M  V30 39956 H 3885.3 0.360432 -3.89636 0
M  V30 39957 H 3884.93 2.01083 -3.43003 0
M  V30 39958 N 3885.92 1.54577 0.307209 0
M  V30 39959 C 3887.16 1.75296 1.05122 0
M  V30 39960 C 3887.53 0.524346 1.84701 0
M  V30 39961 O 3888.73 0.609167 2.61806 0
M  V30 39962 C 3887 3.00279 1.93822 0
M  V30 39963 S 3888.56 3.41974 2.74953 0
M  V30 39964 H 3885.38 0.616246 0.35463 0
M  V30 39965 H 3887.98 1.92774 0.325328 0
M  V30 39966 H 3886.68 3.8783 1.34223 0
M  V30 39967 H 3886.21 2.85371 2.70789 0
M  V30 39968 H 3888.23 2.98557 3.96331 0
M  V30 39969 N 3887.4 -0.570096 1.46927 0
M  V30 39970 C 3888.31 -1.70584 1.61053 0
M  V30 39971 C 3889.33 -1.6685 0.493665 0
M  V30 39972 O 3890.5 -1.86531 0.759486 0
M  V30 39973 C 3887.57 -3.07093 1.60918 0
M  V30 39974 C 3886.63 -3.21994 2.83934 0
M  V30 39975 C 3885.86 -4.51991 2.83796 0
M  V30 39976 O 3886.09 -5.36661 1.93265 0
M  V30 39977 O 3885.02 -4.70409 3.75499 0
M  V30 39978 H 3888.85 -1.61612 2.57129 0
M  V30 39979 H 3886.43 -0.738614 1.29865 0
M  V30 39980 H 3888.31 -3.88354 1.63583 0
M  V30 39981 H 3886.99 -3.16476 0.680061 0
M  V30 39982 H 3885.9 -2.40179 2.86818 0
M  V30 39983 H 3887.23 -3.17509 3.76097 0
M  V30 39984 N 3888.88 -1.34844 -0.815777 0
M  V30 39985 C 3890.16 -1.18176 -1.55865 0
M  V30 39986 C 3890.54 0.242811 -2.09699 0
M  V30 39987 O 3889.89 1.24511 -1.91597 0
M  V30 39988 C 3890.1 -2.24224 -2.67441 0
M  V30 39989 C 3891.44 -2.59565 -3.36023 0
M  V30 39990 O 3892.47 -2.23067 -2.77704 0
M  V30 39991 O 3891.33 -3.22287 -4.41354 0
M  V30 39992 H 3888.42 -0.458545 -0.688234 0
M  V30 39993 H 3890.97 -1.46498 -0.856533 0
M  V30 39994 H 3889.74 -3.19813 -2.25468 0
M  V30 39995 H 3889.36 -1.97119 -3.45297 0
M  V30 39996 N 3890.36 1.03684 -1.1869 0
M  V30 39997 C 3891.32 2.09949 -0.919452 0
M  V30 39998 C 3892.32 1.60509 0.096776 0
M  V30 39999 O 3893.51 1.7366 -0.137092 0
M  V30 40000 C 3890.64 3.38773 -0.380263 0
M  V30 40001 H 3891.84 2.35109 -1.86182 0
M  V30 40002 H 3889.39 1.20169 -0.999457 0
M  V30 40003 H 3890.13 3.19278 0.56853 0
M  V30 40004 H 3889.91 3.75975 -1.11287 0
M  V30 40005 H 3891.4 4.17062 -0.211964 0
M  V30 40006 N 3891.84 0.989551 1.22661 0
M  V30 40007 C 3893.06 0.681546 1.95882 0
M  V30 40008 C 3893.49 -0.746616 1.72648 0
M  V30 40009 O 3892.85 -1.50988 1.0036 0
M  V30 40010 C 3892.89 0.989036 3.46771 0
M  V30 40011 O 3892 0.0859209 4.1231 0
M  V30 40012 H 3891.34 0.255412 0.612912 0
M  V30 40013 H 3893.87 1.32562 1.55847 0
M  V30 40014 H 3893.88 0.929496 3.97271 0
M  V30 40015 H 3892.55 2.02973 3.63008 0
M  V30 40016 H 3891.13 0.200657 3.7236 0
M  V30 40017 N 3893.32 -1.37936 0.762332 0
M  V30 40018 C 3894.59 -1.94027 0.247536 0
M  V30 40019 C 3894.97 -1.69686 -1.25578 0
M  V30 40020 O 3894.32 -1.04032 -2.03444 0
M  V30 40021 C 3894.53 -3.43615 0.610703 0
M  V30 40022 C 3895.88 -4.20686 0.575224 0
M  V30 40023 O 3896.9 -3.51936 0.549523 0
M  V30 40024 O 3895.76 -5.43263 0.593921 0
M  V30 40025 H 3892.86 -0.825205 0.0544534 0
M  V30 40026 H 3895.4 -1.47278 0.843047 0
M  V30 40027 H 3894.17 -3.54876 1.6486 0
M  V30 40028 H 3893.8 -3.97598 -0.0123566 0
M  V30 40029 N 3894.79 -0.512106 -1.49048 0
M  V30 40030 C 3895.7 0.264654 -2.33102 0
M  V30 40031 C 3896.72 0.956545 -1.45349 0
M  V30 40032 O 3897.9 0.93547 -1.78356 0
M  V30 40033 C 3894.96 1.30865 -3.21053 0
M  V30 40034 C 3894.02 0.629019 -4.24667 0
M  V30 40035 C 3893.25 1.62328 -5.08415 0
M  V30 40036 O 3893.48 2.85424 -4.93852 0
M  V30 40037 O 3892.41 1.17249 -5.9037 0
M  V30 40038 H 3896.24 -0.423638 -3.00731 0
M  V30 40039 H 3893.82 -0.273272 -1.46879 0
M  V30 40040 H 3895.7 1.91241 -3.75506 0
M  V30 40041 H 3894.38 1.97967 -2.56107 0
M  V30 40042 H 3893.29 -0.0147714 -3.74097 0
M  V30 40043 H 3894.62 0.000253343 -4.922 0
M  V30 40044 N 3896.27 1.55662 -0.246424 0
M  V30 40045 C 3897.2 2.17392 0.69396 0
M  V30 40046 C 3898.18 1.12583 1.17319 0
M  V30 40047 O 3899.37 1.40968 1.25141 0
M  V30 40048 C 3896.49 2.77422 1.94306 0
M  V30 40049 C 3895.54 3.9528 1.60174 0
M  V30 40050 S 3896.37 5.30842 0.704783 0
M  V30 40051 C 3897.53 5.94324 1.9629 0
M  V30 40052 H 3897.76 2.96817 0.169355 0
M  V30 40053 H 3895.29 1.54369 -0.0308854 0
M  V30 40054 H 3897.25 3.12643 2.66016 0
M  V30 40055 H 3895.91 1.97943 2.43879 0
M  V30 40056 H 3895.11 4.35872 2.53045 0
M  V30 40057 H 3894.71 3.61334 0.965078 0
M  V30 40058 H 3897 6.11811 2.91021 0
M  V30 40059 H 3897.94 6.89775 1.60048 0
M  V30 40060 H 3898.35 5.2339 2.11477 0
M  V30 40061 N 3897.75 -0.0266943 1.57577 0
M  V30 40062 C 3898.7 -1.04498 2.07805 0
M  V30 40063 C 3899.69 -1.37292 0.992332 0
M  V30 40064 O 3900.9 -1.36169 1.1772 0
M  V30 40065 H 3897.27 -0.354533 0.663182 0
M  V30 40066 H 3899.24 -0.595575 2.92396 0
M  V30 40067 C 3897.99 -2.33663 2.57482 0
M  V30 40068 H 3897.32 -2.0929 3.40643 0
M  V30 40069 H 3898.76 -3.03253 2.96333 0
M  V30 40070 C 3897.21 -3.02793 1.47709 0
M  V30 40071 O 3897.74 -3.92719 0.84468 0
M  V30 40072 N 3895.95 -2.64163 1.21105 0
M  V30 40073 H 3895.5 -1.9112 1.72716 0
M  V30 40074 H 3895.46 -3.10734 0.478715 0
M  V30 40075 N 3899.23 -1.54738 -0.299007 0
M  V30 40076 C 3900.47 -1.75851 -1.04191 0
M  V30 40077 C 3900.83 -0.534133 -1.84421 0
M  V30 40078 O 3902.03 -0.623042 -2.6148 0
M  V30 40079 C 3900.3 -3.01303 -1.92227 0
M  V30 40080 S 3901.86 -3.43427 -2.73136 0
M  V30 40081 H 3898.68 -0.618118 -0.351357 0
M  V30 40082 H 3901.28 -1.92944 -0.3151 0
M  V30 40083 H 3899.99 -3.88537 -1.32165 0
M  V30 40084 H 3899.52 -2.86803 -2.69272 0
M  V30 40085 H 3901.53 -3.00654 -3.94742 0
M  V30 40086 N 3900.71 0.562296 -1.47228 0
M  V30 40087 C 3901.93 1.35006 -1.57443 0
M  V30 40088 C 3902.36 1.8677 -0.223255 0
M  V30 40089 O 3901.71 1.62693 0.800049 0
M  V30 40090 C 3901.76 2.49944 -2.59924 0
M  V30 40091 O 3900.87 3.52018 -2.14842 0
M  V30 40092 H 3900.21 0.401223 -0.529071 0
M  V30 40093 H 3902.74 0.68005 -1.92968 0
M  V30 40094 H 3902.75 2.96583 -2.80183 0
M  V30 40095 H 3901.42 2.11623 -3.58034 0
M  V30 40096 H 3900 3.11719 -2.04661 0
M  V30 40097 N 3902.18 1.35274 0.808615 0
M  V30 40098 C 3903.15 1.27904 1.90193 0
M  V30 40099 C 3904.15 0.190943 1.59662 0
M  V30 40100 O 3905.34 0.444511 1.68433 0
M  V30 40101 C 3902.47 0.978164 3.26565 0
M  V30 40102 H 3903.66 2.25116 1.98148 0
M  V30 40103 H 3901.21 1.19769 1.00424 0
M  V30 40104 H 3901.95 0.00981489 3.24299 0
M  V30 40105 H 3901.73 1.76536 3.5011 0
M  V30 40106 H 3903.22 0.952142 4.06601 0
M  V30 40107 N 3903.66 -1.03053 1.19239 0
M  V30 40108 C 3904.89 -1.80055 1.0192 0
M  V30 40109 C 3905.31 -1.83789 -0.432107 0
M  V30 40110 O 3904.66 -1.28073 -1.30014 0
M  V30 40111 C 3904.71 -3.25183 1.57918 0
M  V30 40112 O 3904.43 -3.2172 2.97368 0
M  V30 40113 C 3905.94 -4.18791 1.45359 0
M  V30 40114 H 3903.16 -0.566689 0.359311 0
M  V30 40115 H 3905.7 -1.29811 1.58017 0
M  V30 40116 H 3903.85 -3.72624 1.05974 0
M  V30 40117 H 3904.27 -4.12711 3.23682 0
M  V30 40118 H 3905.74 -5.18518 1.89323 0
M  V30 40119 H 3906.22 -4.37339 0.403856 0
M  V30 40120 H 3906.83 -3.77223 1.96426 0
M  V30 40121 N 3905.14 -0.996042 -1.22134 0
M  V30 40122 C 3906.42 -0.589498 -1.86505 0
M  V30 40123 C 3906.8 0.933126 -1.89357 0
M  V30 40124 O 3906.15 1.81637 -1.38637 0
M  V30 40125 C 3906.36 -1.21355 -3.27222 0
M  V30 40126 C 3907.7 -1.31604 -4.0369 0
M  V30 40127 O 3908.73 -1.16818 -3.365 0
M  V30 40128 O 3907.59 -1.55298 -5.2397 0
M  V30 40129 H 3904.68 -0.200706 -0.802276 0
M  V30 40130 H 3907.23 -1.09212 -1.29888 0
M  V30 40131 H 3906 -2.25489 -3.19798 0
M  V30 40132 H 3905.62 -0.696714 -3.91448 0
M  V30 40133 N 3906.62 1.37529 -0.769636 0
M  V30 40134 C 3907.86 2.01584 -0.338142 0
M  V30 40135 C 3908.22 1.59775 1.06471 0
M  V30 40136 O 3909.42 2.16275 1.5962 0
M  V30 40137 C 3907.69 3.54234 -0.474634 0
M  V30 40138 S 3909.25 4.38613 -0.128092 0
M  V30 40139 H 3906.07 0.698973 -0.130224 0
M  V30 40140 H 3908.67 1.67763 -1.00379 0
M  V30 40141 H 3907.38 3.82151 -1.49629 0
M  V30 40142 H 3906.91 3.92852 0.207636 0
M  V30 40143 H 3908.92 4.84369 1.07707 0
M  V30 40144 N 3908.1 0.520003 1.48774 0
M  V30 40145 C 3909.32 -0.0160696 2.07394 0
M  V30 40146 C 3909.75 -1.28319 1.37535 0
M  V30 40147 O 3909.1 -1.75928 0.43808 0
M  V30 40148 C 3909.15 -0.233319 3.59844 0
M  V30 40149 O 3908.26 -1.30411 3.91237 0
M  V30 40150 H 3907.6 0.0346794 0.663094 0
M  V30 40151 H 3910.13 0.725063 1.91322 0
M  V30 40152 H 3910.14 -0.459039 4.05409 0
M  V30 40153 H 3908.81 0.692362 4.10097 0
M  V30 40154 H 3907.39 -1.06184 3.57462 0
M  V30 40155 N 3909.57 -1.55529 0.254676 0
M  V30 40156 C 3910.8 -2.03986 -0.374759 0
M  V30 40157 C 3911.22 -1.13251 -1.50186 0
M  V30 40158 O 3910.58 -0.126995 -1.80855 0
M  V30 40159 C 3910.63 -3.50376 -0.852573 0
M  V30 40160 O 3909.73 -3.62763 -1.96154 0
M  V30 40161 H 3909.08 -0.65909 -0.0806041 0
M  V30 40162 H 3911.61 -2.00983 0.383005 0
M  V30 40163 H 3911.62 -3.91347 -1.15375 0
M  V30 40164 H 3910.29 -4.15891 -0.0278313 0
M  V30 40165 H 3908.87 -3.33691 -1.66447 0
M  V30 40166 N 3911.05 0.0183372 -1.57589 0
M  V30 40167 C 3912.28 0.717416 -1.93744 0
M  V30 40168 C 3912.69 1.68842 -0.853757 0
M  V30 40169 O 3912.03 1.82839 0.177616 0
M  V30 40170 C 3912.1 1.5203 -3.25772 0
M  V30 40171 C 3911.76 0.712901 -4.51405 0
M  V30 40172 C 3912.76 0.00850322 -5.19899 0
M  V30 40173 C 3910.44 0.664277 -4.97888 0
M  V30 40174 C 3912.44 -0.733703 -6.33163 0
M  V30 40175 C 3910.12 -0.0816677 -6.11045 0
M  V30 40176 C 3911.12 -0.779408 -6.78538 0
M  V30 40177 O 3910.81 -1.51322 -7.8953 0
M  V30 40178 H 3910.54 0.205985 -0.643853 0
M  V30 40179 H 3913.09 -0.0233421 -2.05387 0
M  V30 40180 H 3911.32 2.30512 -3.10485 0
M  V30 40181 H 3913.01 2.10299 -3.47173 0
M  V30 40182 H 3913.78 0.0370321 -4.84986 0
M  V30 40183 H 3909.66 1.19688 -4.45192 0
M  V30 40184 H 3913.2 -1.27885 -6.85778 0
M  V30 40185 H 3909.1 -0.112082 -6.45403 0
M  V30 40186 H 3909.87 -1.42801 -8.05947 0
M  V30 40187 N 3912.53 1.54894 0.290797 0
M  V30 40188 C 3913.78 1.74659 1.02472 0
M  V30 40189 C 3914.11 0.537918 1.86914 0
M  V30 40190 O 3913.36 -0.479964 1.89723 0
M  V30 40191 C 3913.66 2.99425 1.95139 0
M  V30 40192 C 3913.33 4.32765 1.26592 0
M  V30 40193 C 3911.99 4.69009 1.0763 0
M  V30 40194 C 3914.34 5.1538 0.776703 0
M  V30 40195 C 3911.67 5.85439 0.384478 0
M  V30 40196 C 3914.02 6.32523 0.0985502 0
M  V30 40197 C 3912.68 6.67421 -0.10293 0
M  V30 40198 H 3911.95 0.639123 0.37497 0
M  V30 40199 H 3914.6 1.89157 0.298625 0
M  V30 40200 H 3912.91 2.79751 2.74311 0
M  V30 40201 H 3914.6 3.11913 2.52015 0
M  V30 40202 H 3911.19 4.04267 1.42358 0
M  V30 40203 H 3915.38 4.8787 0.910874 0
M  V30 40204 H 3910.63 6.11013 0.217485 0
M  V30 40205 H 3914.81 6.95803 -0.288372 0
M  V30 40206 H 3912.43 7.57493 -0.641005 0
M  V30 40207 N 3914.01 -0.55448 1.47524 0
M  V30 40208 C 3915.42 -0.880675 1.33102 0
M  V30 40209 C 3915.62 -1.98885 0.323559 0
M  V30 40210 O 3914.68 -2.51117 -0.263951 0
M  V30 40211 C 3915.99 -1.27133 2.72503 0
M  V30 40212 C 3917.54 -1.38261 2.80808 0
M  V30 40213 C 3918.02 -1.80681 4.20854 0
M  V30 40214 N 3919.51 -1.87826 4.23409 0
M  V30 40215 C 3920.24 -2.21984 5.28688 0
M  V30 40216 N 3919.74 -2.54735 6.44268 0
M  V30 40217 N 3921.53 -2.22781 5.16067 0
M  V30 40218 H 3913.68 0.1771 2.1166 0
M  V30 40219 H 3915.95 0.0165675 0.947855 0
M  V30 40220 H 3915.65 -0.530869 3.4767 0
M  V30 40221 H 3915.53 -2.22689 3.04449 0
M  V30 40222 H 3917.91 -2.11388 2.05911 0
M  V30 40223 H 3917.99 -0.408856 2.52511 0
M  V30 40224 H 3917.64 -1.08122 4.96258 0
M  V30 40225 H 3917.57 -2.79063 4.46577 0
M  V30 40226 H 3920.06 -1.64891 3.40028 0
M  V30 40227 H 3920.37 -2.79833 7.20356 0
M  V30 40228 H 3918.72 -2.52309 6.47584 0
M  V30 40229 H 3921.91 -1.96635 4.24797 0
M  V30 40230 H 3922.08 -2.4907 5.98221 0
M  V30 40231 N 3915.49 -1.35701 -0.80143 0
M  V30 40232 C 3916.42 -1.31715 -1.92804 0
M  V30 40233 C 3917.4 -0.190671 -1.69028 0
M  V30 40234 O 3918.58 -0.386443 -1.90316 0
M  V30 40235 C 3915.71 -1.09358 -3.29633 0
M  V30 40236 C 3914.67 -2.18701 -3.67904 0
M  V30 40237 C 3913.99 -1.81503 -5.02952 0
M  V30 40238 C 3915.29 -3.60705 -3.77743 0
M  V30 40239 H 3916.99 -2.25983 -1.96397 0
M  V30 40240 H 3914.53 -1.08784 -0.943509 0
M  V30 40241 H 3916.49 -1.05207 -4.08056 0
M  V30 40242 H 3915.21 -0.115363 -3.26396 0
M  V30 40243 H 3913.87 -2.21958 -2.91771 0
M  V30 40244 H 3913.52 -0.822864 -4.96224 0
M  V30 40245 H 3913.22 -2.54702 -5.29529 0
M  V30 40246 H 3914.74 -1.78886 -5.83808 0
M  V30 40247 H 3916.15 -3.59742 -4.46384 0
M  V30 40248 H 3914.55 -4.32708 -4.15793 0
M  V30 40249 H 3915.62 -3.96482 -2.7916 0
M  V30 40250 N 3916.96 1.02419 -1.19783 0
M  V30 40251 C 3918.21 1.75548 -1.00136 0
M  V30 40252 C 3918.53 1.89289 0.46847 0
M  V30 40253 O 3917.8 1.42988 1.33907 0
M  V30 40254 H 3916.38 0.650334 -0.367524 0
M  V30 40255 H 3919.05 1.23521 -1.5076 0
M  V30 40256 H 3918.14 2.76196 -1.45334 0
M  V30 40257 N 3918.44 1.0025 1.21604 0
M  V30 40258 C 3919.69 0.684799 1.90888 0
M  V30 40259 C 3920.02 -0.782209 1.7775 0
M  V30 40260 O 3919.3 -1.56674 1.15254 0
M  V30 40261 C 3919.58 1.10346 3.42777 0
M  V30 40262 C 3919.43 2.62973 3.64918 0
M  V30 40263 C 3920.75 0.663953 4.35063 0
M  V30 40264 H 3917.87 0.250251 0.693212 0
M  V30 40265 H 3920.51 1.24774 1.43288 0
M  V30 40266 H 3918.66 0.624483 3.83448 0
M  V30 40267 H 3920.34 3.18615 3.3359 0
M  V30 40268 H 3918.58 3.04602 3.08869 0
M  V30 40269 H 3919.25 2.87319 4.7133 0
M  V30 40270 H 3921.73 1.07551 4.0196 0
M  V30 40271 H 3920.6 0.985082 5.39988 0
M  V30 40272 H 3920.86 -0.435018 4.39955 0
M  V30 40273 N 3919.92 -1.37119 0.776919 0
M  V30 40274 C 3920.87 -2.3021 0.164879 0
M  V30 40275 C 3921.84 -1.51358 -0.68411 0
M  V30 40276 O 3923.02 -1.79909 -0.635396 0
M  V30 40277 C 3920.16 -3.37839 -0.704204 0
M  V30 40278 C 3919.28 -4.31696 0.161957 0
M  V30 40279 C 3918.41 -5.26402 -0.712318 0
M  V30 40280 C 3917.45 -6.11901 0.156061 0
M  V30 40281 N 3916.59 -6.98833 -0.676484 0
M  V30 40282 H 3921.43 -2.81969 0.964235 0
M  V30 40283 H 3918.96 -1.38801 0.487089 0
M  V30 40284 H 3920.92 -3.98873 -1.22295 0
M  V30 40285 H 3919.55 -2.87432 -1.46911 0
M  V30 40286 H 3918.6 -3.71924 0.798557 0
M  V30 40287 H 3919.92 -4.91819 0.831582 0
M  V30 40288 H 3919.07 -5.92667 -1.29735 0
M  V30 40289 H 3917.81 -4.66703 -1.41561 0
M  V30 40290 H 3916.81 -5.44611 0.753588 0
M  V30 40291 H 3918.04 -6.73674 0.856764 0
M  V30 40292 H 3915.99 -6.41656 -1.3643 0
M  V30 40293 H 3915.9 -7.55973 -0.0642688 0
M  V30 40294 H 3917.17 -7.69481 -1.24574 0
M  V30 40295 N 3921.4 -0.527886 -1.48496 0
M  V30 40296 C 3922.65 0.0069622 -2.02099 0
M  V30 40297 C 3922.97 1.34967 -1.40744 0
M  V30 40298 O 3922.24 1.8736 -0.572092 0
M  V30 40299 H 3920.82 0.00556132 -0.746979 0
M  V30 40300 H 3923.48 -0.691241 -1.8223 0
M  V30 40301 H 3922.58 0.116838 -3.11881 0
M  V30 40302 N 3922.88 1.55391 -0.26292 0
M  V30 40303 C 3924.12 1.99618 0.35786 0
M  V30 40304 C 3924.46 1.15102 1.56413 0
M  V30 40305 O 3923.73 0.218173 1.93272 0
M  V30 40306 C 3924.01 3.5216 0.752033 0
M  V30 40307 C 3923.87 4.47434 -0.460737 0
M  V30 40308 C 3925.19 4.10255 1.59306 0
M  V30 40309 H 3922.31 0.725694 0.1286 0
M  V30 40310 H 3924.95 1.86413 -0.367432 0
M  V30 40311 H 3923.1 3.63543 1.37 0
M  V30 40312 H 3924.77 4.48011 -1.09926 0
M  V30 40313 H 3923.01 4.19595 -1.101 0
M  V30 40314 H 3923.68 5.51819 -0.141359 0
M  V30 40315 H 3926.16 4.02073 1.07127 0
M  V30 40316 H 3925.04 5.17223 1.83769 0
M  V30 40317 H 3925.3 3.59716 2.57015 0
M  V30 40318 N 3924.36 -0.00997961 1.57597 0
M  V30 40319 C 3925.29 -1.00371 2.10827 0
M  V30 40320 C 3926.27 -1.36491 1.0151 0
M  V30 40321 O 3927.45 -1.45041 1.29139 0
M  V30 40322 C 3924.58 -2.29873 2.60338 0
M  V30 40323 C 3923.54 -2.07943 3.74091 0
M  V30 40324 C 3922.86 -3.43371 4.09879 0
M  V30 40325 C 3924.16 -1.45009 5.01767 0
M  V30 40326 H 3925.86 -0.560539 2.94106 0
M  V30 40327 H 3923.4 -0.268183 1.41481 0
M  V30 40328 H 3925.35 -2.99738 2.96201 0
M  V30 40329 H 3924.08 -2.76285 1.74167 0
M  V30 40330 H 3922.74 -1.40506 3.38605 0
M  V30 40331 H 3922.39 -3.87468 3.20746 0
M  V30 40332 H 3922.09 -3.29517 4.86511 0
M  V30 40333 H 3923.61 -4.14567 4.48293 0
M  V30 40334 H 3925.02 -2.04817 5.35465 0
M  V30 40335 H 3923.42 -1.41673 5.83137 0
M  V30 40336 H 3924.49 -0.418105 4.83094 0
M  V30 40337 N 3925.83 -1.55046 -0.282578 0
M  V30 40338 C 3927.08 -1.752 -1.01544 0
M  V30 40339 C 3927.41 -0.547822 -1.86626 0
M  V30 40340 O 3926.66 0.469896 -1.89975 0
M  V30 40341 C 3926.96 -3.00456 -1.93549 0
M  V30 40342 C 3926.63 -4.3343 -1.24295 0
M  V30 40343 C 3925.29 -4.69573 -1.05142 0
M  V30 40344 C 3927.64 -5.15785 -0.74936 0
M  V30 40345 C 3924.97 -5.85635 -0.353425 0
M  V30 40346 C 3927.32 -6.32567 -0.0650045 0
M  V30 40347 C 3925.99 -6.67357 0.138323 0
M  V30 40348 H 3925.26 -0.641103 -0.371576 0
M  V30 40349 H 3927.9 -1.89313 -0.28859 0
M  V30 40350 H 3926.21 -2.81202 -2.72823 0
M  V30 40351 H 3927.91 -3.13245 -2.50357 0
M  V30 40352 H 3924.5 -4.05017 -1.40212 0
M  V30 40353 H 3928.68 -4.88346 -0.884988 0
M  V30 40354 H 3923.94 -6.1112 -0.185079 0
M  V30 40355 H 3928.11 -6.9564 0.325268 0
M  V30 40356 H 3925.74 -7.57142 0.681167 0
M  V30 40357 N 3927.31 0.546649 -1.47816 0
M  V30 40358 C 3928.24 1.66829 -1.57164 0
M  V30 40359 C 3929.26 1.56252 -0.457063 0
M  V30 40360 O 3930.45 1.63017 -0.727162 0
M  V30 40361 C 3927.55 3.05371 -1.46975 0
M  V30 40362 C 3926.72 3.41597 -2.73186 0
M  V30 40363 C 3925.78 4.59347 -2.56684 0
M  V30 40364 O 3924.8 4.634 -3.30529 0
M  V30 40365 N 3926.01 5.56496 -1.65203 0
M  V30 40366 H 3928.77 1.59252 -2.53887 0
M  V30 40367 H 3926.33 0.73354 -1.44329 0
M  V30 40368 H 3928.32 3.81993 -1.33655 0
M  V30 40369 H 3926.89 3.07117 -0.582932 0
M  V30 40370 H 3926.11 2.54318 -3.01191 0
M  V30 40371 H 3927.4 3.62579 -3.56951 0
M  V30 40372 H 3926.8 5.55987 -1.04379 0
M  V30 40373 H 3925.36 6.32402 -1.57831 0
M  V30 40374 N 3928.79 1.36124 0.794222 0
M  V30 40375 C 3930.2 1.26938 1.36907 0
M  V30 40376 C 3930.55 -0.0928993 1.9598 0
M  V30 40377 O 3929.68 -0.994233 1.92208 0
M  V30 40378 C 3930.27 2.29854 2.48902 0
M  V30 40379 C 3928.83 2.24371 3.02216 0
M  V30 40380 C 3927.98 2.14893 1.7526 0
M  V30 40381 H 3930.93 1.47073 0.596253 0
M  V30 40382 H 3930.95 1.93219 3.2779 0
M  V30 40383 H 3930.46 3.28992 2.05878 0
M  V30 40384 H 3928.56 1.28685 3.49673 0
M  V30 40385 H 3928.68 3.16858 3.59357 0
M  V30 40386 H 3927.04 1.61069 1.97304 0
M  V30 40387 H 3927.82 3.1591 1.34371 0
M  V30 40388 N 3930.27 -1.01782 1.20325 0
M  V30 40389 C 3931.51 -1.76904 1.02393 0
M  V30 40390 C 3931.87 -1.86974 -0.436428 0
M  V30 40391 O 3933.07 -2.58531 -0.735894 0
M  V30 40392 C 3931.34 -3.15061 1.68734 0
M  V30 40393 S 3932.9 -4.06234 1.65888 0
M  V30 40394 H 3929.72 -0.608846 0.367189 0
M  V30 40395 H 3932.32 -1.21878 1.52859 0
M  V30 40396 H 3931.03 -3.05357 2.742 0
M  V30 40397 H 3930.56 -3.75162 1.18394 0
M  V30 40398 H 3932.57 -4.91367 0.690887 0
M  V30 40399 N 3931.75 -1.00894 -1.21071 0
M  V30 40400 C 3932.66 -0.582105 -2.27264 0
M  V30 40401 C 3933.67 0.376755 -1.69872 0
M  V30 40402 O 3934.85 0.239609 -1.9997 0
M  V30 40403 C 3931.91 0.0806155 -3.46606 0
M  V30 40404 C 3930.97 -0.923221 -4.19255 0
M  V30 40405 C 3930.21 -0.292032 -5.329 0
M  V30 40406 O 3930.43 0.910183 -5.63091 0
M  V30 40407 O 3929.36 -1.00493 -5.93452 0
M  V30 40408 H 3933.19 -1.46599 -2.65975 0
M  V30 40409 H 3930.77 -0.778021 -1.27543 0
M  V30 40410 H 3932.66 0.451104 -4.18979 0
M  V30 40411 H 3931.33 0.938815 -3.09787 0
M  V30 40412 H 3930.24 -1.34494 -3.49088 0
M  V30 40413 H 3931.57 -1.75114 -4.59996 0
M  V30 40414 N 3933.22 1.36705 -0.78418 0
M  V30 40415 C 3934.64 1.52668 -0.465245 0
M  V30 40416 C 3934.84 1.73937 1.01726 0
M  V30 40417 O 3933.9 1.76786 1.80286 0
M  V30 40418 C 3935.21 2.7157 -1.29113 0
M  V30 40419 C 3936.76 2.85438 -1.28429 0
M  V30 40420 C 3937.23 4.07338 -2.0938 0
M  V30 40421 N 3938.72 4.14474 -2.06799 0
M  V30 40422 C 3939.46 5.07859 -2.66208 0
M  V30 40423 N 3938.95 6.06722 -3.34455 0
M  V30 40424 N 3940.75 5.00435 -2.55971 0
M  V30 40425 H 3932.9 1.21153 -1.74458 0
M  V30 40426 H 3935.16 0.590917 -0.741297 0
M  V30 40427 H 3934.87 2.62359 -2.34224 0
M  V30 40428 H 3934.74 3.65585 -0.928829 0
M  V30 40429 H 3937.13 2.94113 -0.241129 0
M  V30 40430 H 3937.21 1.92345 -1.68633 0
M  V30 40431 H 3936.85 3.99424 -3.13725 0
M  V30 40432 H 3936.78 4.99568 -1.66551 0
M  V30 40433 H 3939.27 3.43687 -1.57124 0
M  V30 40434 H 3939.59 6.74532 -3.7713 0
M  V30 40435 H 3937.93 6.06963 -3.38556 0
M  V30 40436 H 3941.12 4.22148 -2.02258 0
M  V30 40437 H 3941.3 5.73027 -3.02563 0
M  V30 40438 N 3934.7 0.535753 1.48214 0
M  V30 40439 C 3935.93 0.00798287 2.06898 0
M  V30 40440 C 3936.35 -1.27604 1.3915 0
M  V30 40441 O 3935.7 -1.7605 0.480898 0
M  V30 40442 C 3935.75 -0.213673 3.60868 0
M  V30 40443 O 3935.47 1.01948 4.26073 0
M  V30 40444 C 3936.98 -0.781169 4.36363 0
M  V30 40445 H 3934.2 0.0361215 0.670027 0
M  V30 40446 H 3936.74 0.743045 1.90523 0
M  V30 40447 H 3934.89 -0.8988 3.76829 0
M  V30 40448 H 3935.31 0.803807 5.18304 0
M  V30 40449 H 3936.78 -0.885657 5.44849 0
M  V30 40450 H 3937.26 -1.78744 4.01182 0
M  V30 40451 H 3937.87 -0.132424 4.25094 0
M  V30 40452 N 3936.18 -1.5525 0.271158 0
M  V30 40453 C 3937.41 -2.04372 -0.353103 0
M  V30 40454 C 3937.83 -1.14838 -1.48976 0
M  V30 40455 O 3937.19 -0.14617 -1.8071 0
M  V30 40456 C 3937.24 -3.51261 -0.815363 0
M  V30 40457 O 3936.34 -3.64824 -1.92295 0
M  V30 40458 H 3935.68 -0.659907 -0.0736091 0
M  V30 40459 H 3938.21 -2.00566 0.404301 0
M  V30 40460 H 3938.22 -3.92549 -1.11217 0
M  V30 40461 H 3936.9 -4.15897 0.016281 0
M  V30 40462 H 3935.47 -3.35438 -1.62899 0
M  V30 40463 N 3937.66 0.00162173 -1.576 0
M  V30 40464 C 3938.59 0.992517 -2.11356 0
M  V30 40465 C 3939.57 1.35951 -1.02232 0
M  V30 40466 O 3940.75 1.44354 -1.29906 0
M  V30 40467 C 3937.88 2.28489 -2.61553 0
M  V30 40468 C 3936.84 2.05956 -3.75188 0
M  V30 40469 C 3936.16 3.41192 -4.11694 0
M  V30 40470 C 3937.46 1.42346 -5.02528 0
M  V30 40471 H 3939.16 0.544934 -2.94399 0
M  V30 40472 H 3936.7 0.260677 -1.41621 0
M  V30 40473 H 3938.66 2.98163 -2.97787 0
M  V30 40474 H 3937.38 2.75358 -1.75629 0
M  V30 40475 H 3936.04 1.38708 -3.39346 0
M  V30 40476 H 3935.69 3.85761 -3.22796 0
M  V30 40477 H 3935.39 3.26932 -4.88251 0
M  V30 40478 H 3936.91 4.12184 -4.50485 0
M  V30 40479 H 3938.33 2.01974 -5.36544 0
M  V30 40480 H 3936.72 1.38579 -5.8388 0
M  V30 40481 H 3937.79 0.39248 -4.83309 0
M  V30 40482 N 3939.14 1.55194 0.274352 0
M  V30 40483 C 3940.38 1.77486 1.0138 0
M  V30 40484 C 3940.74 0.563405 1.83548 0
M  V30 40485 O 3941.94 0.664563 2.60455 0
M  V30 40486 C 3940.21 3.04323 1.87409 0
M  V30 40487 S 3941.77 3.47729 2.67637 0
M  V30 40488 H 3938.59 0.623629 0.341478 0
M  V30 40489 H 3941.19 1.93421 0.284364 0
M  V30 40490 H 3939.9 3.9059 1.25967 0
M  V30 40491 H 3939.43 2.91051 2.64675 0
M  V30 40492 H 3941.44 3.06896 3.89909 0
M  V30 40493 N 3940.61 -0.538802 1.48104 0
M  V30 40494 C 3941.84 -1.31814 1.59087 0
M  V30 40495 C 3942.25 -1.87582 0.246919 0
M  V30 40496 O 3941.6 -1.6666 -0.772665 0
M  V30 40497 C 3941.66 -2.51269 2.57107 0
M  V30 40498 C 3941.32 -2.16654 4.02381 0
M  V30 40499 C 3942.32 -1.72849 4.90326 0
M  V30 40500 C 3940 -2.27447 4.47854 0
M  V30 40501 C 3942 -1.40291 6.21769 0
M  V30 40502 C 3939.68 -1.94502 5.7932 0
M  V30 40503 C 3940.68 -1.50994 6.661 0
M  V30 40504 O 3940.37 -1.18477 7.95122 0
M  V30 40505 H 3940.1 -0.407445 0.539412 0
M  V30 40506 H 3942.66 -0.657644 1.94587 0
M  V30 40507 H 3940.89 -3.20271 2.1671 0
M  V30 40508 H 3942.58 -3.13338 2.5802 0
M  V30 40509 H 3943.34 -1.63987 4.56435 0
M  V30 40510 H 3939.22 -2.60268 3.80501 0
M  V30 40511 H 3942.76 -1.06259 6.8946 0
M  V30 40512 H 3938.66 -2.03001 6.12748 0
M  V30 40513 H 3939.43 -1.3195 8.07794 0
M  V30 40514 N 3942.09 -1.36544 -0.786992 0
M  V30 40515 C 3943.06 -1.30913 -1.88134 0
M  V30 40516 C 3944.06 -0.21632 -1.59338 0
M  V30 40517 O 3945.25 -0.471251 -1.67705 0
M  V30 40518 C 3942.38 -1.02999 -3.24968 0
M  V30 40519 H 3943.57 -2.2824 -1.94542 0
M  V30 40520 H 3941.12 -1.21352 -0.985062 0
M  V30 40521 H 3941.86 -0.0614067 -3.24242 0
M  V30 40522 H 3941.64 -1.82084 -3.47258 0
M  V30 40523 H 3943.13 -1.01671 -4.05034 0
M  V30 40524 N 3943.57 1.01143 -1.20863 0
M  V30 40525 C 3944.98 1.56271 -1.02159 0
M  V30 40526 C 3945.33 1.91641 0.420518 0
M  V30 40527 O 3944.46 1.72794 1.30273 0
M  V30 40528 C 3945.05 2.83951 -1.84817 0
M  V30 40529 C 3943.61 3.35588 -1.70464 0
M  V30 40530 C 3942.76 2.08842 -1.82429 0
M  V30 40531 H 3945.71 0.834645 -1.34979 0
M  V30 40532 H 3945.73 3.55571 -1.35461 0
M  V30 40533 H 3945.24 2.58176 -2.8977 0
M  V30 40534 H 3943.34 3.66311 -0.681695 0
M  V30 40535 H 3943.46 4.07441 -2.52048 0
M  V30 40536 H 3941.82 2.21539 -1.25669 0
M  V30 40537 H 3942.6 1.85488 -2.88876 0
M  V30 40538 N 3945.05 1.01535 1.20534 0
M  V30 40539 C 3946.27 0.722942 1.94392 0
M  V30 40540 C 3946.7 -0.709827 1.74193 0
M  V30 40541 O 3946.06 -1.48826 1.0354 0
M  V30 40542 C 3946.1 1.06237 3.44596 0
M  V30 40543 O 3945.21 0.173359 4.12035 0
M  V30 40544 H 3944.55 0.268355 0.607356 0
M  V30 40545 H 3947.08 1.35838 1.53001 0
M  V30 40546 H 3947.09 1.01355 3.9521 0
M  V30 40547 H 3945.76 2.10628 3.58621 0
M  V30 40548 H 3944.34 0.279595 3.7185 0
M  V30 40549 N 3946.53 -1.36288 0.791419 0
M  V30 40550 C 3947.77 -1.99925 0.374358 0
M  V30 40551 C 3948.13 -1.61681 -1.04294 0
M  V30 40552 O 3947.42 -0.862433 -1.71093 0
M  V30 40553 C 3947.61 -3.54191 0.477857 0
M  V30 40554 C 3947.44 -4.0742 1.90366 0
M  V30 40555 C 3946.21 -4.37475 2.52872 0
M  V30 40556 C 3948.41 -4.27036 2.86609 0
M  V30 40557 N 3946.39 -4.76538 3.8702 0
M  V30 40558 C 3947.76 -4.68927 4.05595 0
M  V30 40559 C 3949.82 -4.09211 2.83639 0
M  V30 40560 C 3948.52 -4.94858 5.22023 0
M  V30 40561 C 3950.55 -4.36289 3.99256 0
M  V30 40562 C 3949.91 -4.78438 5.16988 0
M  V30 40563 H 3946.01 -0.759937 0.184444 0
M  V30 40564 H 3948.59 -1.65259 1.02944 0
M  V30 40565 H 3946.76 -3.88121 -0.147148 0
M  V30 40566 H 3948.5 -4.04683 0.0368485 0
M  V30 40567 H 3945.25 -4.27251 2.04337 0
M  V30 40568 H 3945.68 -5.00351 4.56045 0
M  V30 40569 H 3950.32 -3.75779 1.93778 0
M  V30 40570 H 3948.04 -5.2717 6.12468 0
M  V30 40571 H 3951.62 -4.24065 3.98322 0
M  V30 40572 H 3950.5 -4.98986 6.04965 0
M  V30 40573 N 3948.01 -0.543606 -1.47928 0
M  V30 40574 C 3949.25 -0.0145236 -2.02795 0
M  V30 40575 C 3949.58 1.32635 -1.4185 0
M  V30 40576 O 3948.86 1.85987 -0.569132 0
M  V30 40577 C 3949.14 0.0930337 -3.5998 0
M  V30 40578 C 3949 -1.27397 -4.31381 0
M  V30 40579 C 3950.31 0.813175 -4.32522 0
M  V30 40580 H 3947.43 -0.006752 -0.736969 0
M  V30 40581 H 3950.08 -0.703269 -1.76505 0
M  V30 40582 H 3948.23 0.679617 -3.82509 0
M  V30 40583 H 3949.9 -1.90271 -4.20231 0
M  V30 40584 H 3948.14 -1.85228 -3.92266 0
M  V30 40585 H 3948.81 -1.15157 -5.39854 0
M  V30 40586 H 3951.29 0.315261 -4.14904 0
M  V30 40587 H 3950.16 0.857361 -5.42163 0
M  V30 40588 H 3950.42 1.86642 -4.00771 0
M  V30 40589 N 3949.48 1.55104 -0.279387 0
M  V30 40590 C 3950.72 2.01598 0.337309 0
M  V30 40591 C 3951.09 1.16351 1.5273 0
M  V30 40592 O 3952.29 1.52444 2.21392 0
M  V30 40593 C 3950.56 3.50362 0.705778 0
M  V30 40594 S 3952.12 4.18839 1.3084 0
M  V30 40595 H 3948.94 0.70325 0.104691 0
M  V30 40596 H 3951.54 1.91318 -0.402218 0
M  V30 40597 H 3950.24 4.10051 -0.16911 0
M  V30 40598 H 3949.77 3.64635 1.47666 0
M  V30 40599 H 3951.79 4.2282 2.59688 0
M  V30 40600 N 3950.96 0.0067362 1.57599 0
M  V30 40601 C 3952.24 -0.714109 1.82098 0
M  V30 40602 C 3952.62 -1.91612 0.885902 0
M  V30 40603 O 3951.97 -2.28411 -0.0638104 0
M  V30 40604 C 3952.18 -1.11348 3.30761 0
M  V30 40605 C 3953.52 -1.51452 3.96671 0
M  V30 40606 O 3954.55 -1.20709 3.35124 0
M  V30 40607 O 3953.41 -2.08645 5.05103 0
M  V30 40608 H 3950.5 -0.348301 0.750077 0
M  V30 40609 H 3953.05 0.0327064 1.69668 0
M  V30 40610 H 3951.82 -0.257 3.90455 0
M  V30 40611 H 3951.44 -1.91918 3.48214 0
M  V30 40612 N 3952.44 -1.55337 -0.266118 0
M  V30 40613 C 3953.69 -1.75919 -0.994831 0
M  V30 40614 C 3954.01 -0.567179 -1.86569 0
M  V30 40615 O 3953.28 0.417705 -1.91395 0
M  V30 40616 H 3951.86 -0.648754 -0.370307 0
M  V30 40617 H 3954.52 -1.9275 -0.28869 0
M  V30 40618 H 3953.62 -2.6629 -1.62777 0
M  V30 40619 N 3953.92 0.53094 -1.48387 0
M  V30 40620 C 3954.88 1.61779 -1.62358 0
M  V30 40621 C 3955.88 1.52929 -0.496936 0
M  V30 40622 O 3957.07 1.56616 -0.762699 0
M  V30 40623 C 3954.2 3.01397 -1.59287 0
M  V30 40624 H 3955.4 1.50732 -2.59268 0
M  V30 40625 H 3952.95 0.752924 -1.3697 0
M  V30 40626 H 3953.68 3.17952 -0.638509 0
M  V30 40627 H 3953.47 3.0923 -2.41079 0
M  V30 40628 H 3954.96 3.80418 -1.72255 0
M  V30 40629 N 3955.4 1.36959 0.779739 0
M  V30 40630 C 3956.34 1.32149 1.91415 0
M  V30 40631 C 3957.34 0.211602 1.68073 0
M  V30 40632 O 3958.54 0.37917 1.75961 0
M  V30 40633 H 3954.92 0.411636 0.629333 0
M  V30 40634 H 3956.89 2.27929 1.9259 0
M  V30 40635 C 3955.64 1.13735 3.28572 0
M  V30 40636 H 3954.96 1.98389 3.47105 0
M  V30 40637 H 3956.4 1.14417 4.0827 0
M  V30 40638 C 3954.86 -0.157479 3.36532 0
M  V30 40639 O 3955.39 -1.1439 3.85069 0
M  V30 40640 N 3953.6 -0.205458 2.89873 0
M  V30 40641 H 3953.14 0.597898 2.50565 0
M  V30 40642 H 3953.1 -1.07145 2.95579 0
M  V30 40643 N 3956.87 -1.00501 1.21398 0
M  V30 40644 C 3958.15 -1.71533 0.93998 0
M  V30 40645 C 3958.53 -2.03857 -0.548212 0
M  V30 40646 O 3957.88 -1.71228 -1.51305 0
M  V30 40647 C 3958.09 -2.97477 1.82506 0
M  V30 40648 C 3959.44 -3.70506 2.0739 0
M  V30 40649 O 3960.46 -3.07459 1.79855 0
M  V30 40650 O 3959.32 -4.83908 2.53959 0
M  V30 40651 H 3956.41 -0.748125 0.352473 0
M  V30 40652 H 3958.96 -1.06244 1.32327 0
M  V30 40653 H 3957.73 -2.7 2.83224 0
M  V30 40654 H 3957.35 -3.70507 1.44259 0
M  V30 40655 N 3958.35 -1.02172 -1.19994 0
M  V30 40656 C 3959.59 -0.722635 -1.912 0
M  V30 40657 C 3959.96 0.734661 -1.77389 0
M  V30 40658 O 3961.16 1.1465 -2.43123 0
M  V30 40659 C 3959.43 -1.15256 -3.38306 0
M  V30 40660 S 3960.99 -0.97622 -4.27803 0
M  V30 40661 H 3957.8 -0.263297 -0.660451 0
M  V30 40662 H 3960.41 -1.31006 -1.45113 0
M  V30 40663 H 3959.11 -2.20895 -3.45881 0
M  V30 40664 H 3958.64 -0.558124 -3.89421 0
M  V30 40665 H 3960.66 0.117329 -4.96061 0
M  V30 40666 N 3959.83 1.35866 -0.798635 0
M  V30 40667 C 3961.08 1.98599 -0.374554 0
M  V30 40668 C 3961.4 1.63686 1.05981 0
M  V30 40669 O 3960.67 0.91539 1.73198 0
M  V30 40670 H 3959.25 0.734607 -0.135505 0
M  V30 40671 H 3961.91 1.65911 -1.02272 0
M  V30 40672 H 3961.01 3.08482 -0.473828 0
M  V30 40673 N 3961.31 0.551443 1.47638 0
M  V30 40674 C 3962.58 -0.0401639 1.95559 0
M  V30 40675 C 3962.96 -1.49141 1.49399 0
M  V30 40676 O 3962.31 -2.16519 0.730186 0
M  V30 40677 C 3962.52 0.099329 3.48859 0
M  V30 40678 C 3963.87 -0.0489771 4.24572 0
M  V30 40679 O 3964.89 0.0265896 3.5619 0
M  V30 40680 O 3963.75 -0.210542 5.46094 0
M  V30 40681 H 3960.85 -0.0673549 0.824253 0
M  V30 40682 H 3963.39 0.617559 1.58064 0
M  V30 40683 H 3962.17 1.10942 3.75243 0
M  V30 40684 H 3961.79 -0.59627 3.93104 0
M  V30 40685 N 3962.79 -1.54953 0.287609 0
M  V30 40686 C 3964.02 -2.03978 -0.328088 0
M  V30 40687 C 3964.42 -1.16497 -1.49081 0
M  V30 40688 O 3963.77 -0.180318 -1.82813 0
M  V30 40689 C 3963.83 -3.49069 -0.859704 0
M  V30 40690 C 3963.49 -4.56661 0.175998 0
M  V30 40691 C 3964.49 -5.10195 0.999849 0
M  V30 40692 C 3962.18 -5.01319 0.313839 0
M  V30 40693 C 3964.17 -6.06916 1.94761 0
M  V30 40694 C 3961.86 -5.97862 1.26506 0
M  V30 40695 C 3962.85 -6.50544 2.08044 0
M  V30 40696 O 3962.54 -7.45198 3.01555 0
M  V30 40697 H 3962.27 -0.671575 -0.0772188 0
M  V30 40698 H 3964.83 -2.01035 0.421186 0
M  V30 40699 H 3963.06 -3.49292 -1.65927 0
M  V30 40700 H 3964.75 -3.81364 -1.38983 0
M  V30 40701 H 3965.51 -4.76498 0.904157 0
M  V30 40702 H 3961.39 -4.59951 -0.310841 0
M  V30 40703 H 3964.94 -6.4796 2.58444 0
M  V30 40704 H 3960.83 -6.30978 1.36152 0
M  V30 40705 H 3961.6 -7.62956 2.9638 0
M  V30 40706 N 3964.26 -0.0150939 -1.57593 0
M  V30 40707 C 3965.49 0.680736 -1.9591 0
M  V30 40708 C 3965.91 1.65667 -0.890842 0
M  V30 40709 O 3965.27 1.80681 0.149631 0
M  V30 40710 C 3965.32 1.3757 -3.33327 0
M  V30 40711 O 3964.42 2.49061 -3.28698 0
M  V30 40712 H 3963.77 0.179938 -0.639154 0
M  V30 40713 H 3966.3 -0.0727763 -2.04471 0
M  V30 40714 H 3966.31 1.7357 -3.69239 0
M  V30 40715 H 3964.98 0.660233 -4.10626 0
M  V30 40716 H 3963.56 2.15276 -3.04484 0
M  V30 40717 N 3965.74 1.55476 0.257876 0
M  V30 40718 C 3967.02 1.67529 1.00962 0
M  V30 40719 C 3967.4 0.551729 2.03762 0
M  V30 40720 O 3966.75 -0.446275 2.241 0
M  V30 40721 C 3966.96 3.0738 1.65284 0
M  V30 40722 C 3968.31 3.65623 2.15881 0
M  V30 40723 O 3969.33 3.10109 1.75244 0
M  V30 40724 O 3968.19 4.62919 2.90463 0
M  V30 40725 H 3965.28 0.680977 0.469254 0
M  V30 40726 H 3967.83 1.6781 0.252533 0
M  V30 40727 H 3966.6 3.80603 0.908702 0
M  V30 40728 H 3966.22 3.11062 2.47641 0
M  V30 40729 N 3967.22 -0.523064 1.48667 0
M  V30 40730 C 3968.13 -1.65374 1.66399 0
M  V30 40731 C 3969.15 -1.65195 0.546498 0
M  V30 40732 O 3970.32 -1.8402 0.818445 0
M  V30 40733 C 3967.39 -3.01818 1.70607 0
M  V30 40734 C 3966.45 -3.12798 2.94034 0
M  V30 40735 C 3965.68 -4.42733 2.98032 0
M  V30 40736 O 3965.9 -5.3024 2.10241 0
M  V30 40737 O 3964.84 -4.58224 3.90275 0
M  V30 40738 H 3968.66 -1.5335 2.6214 0
M  V30 40739 H 3966.25 -0.696925 1.32149 0
M  V30 40740 H 3968.13 -3.82953 1.75856 0
M  V30 40741 H 3966.81 -3.14152 0.780401 0
M  V30 40742 H 3965.71 -2.30933 2.94314 0
M  V30 40743 H 3967.05 -3.05383 3.86008 0
M  V30 40744 N 3968.7 -1.37371 -0.772465 0
M  V30 40745 C 3970.11 -1.18155 -1.07292 0
M  V30 40746 C 3970.31 -0.0172136 -2.01493 0
M  V30 40747 O 3969.37 0.642921 -2.44178 0
M  V30 40748 C 3970.68 -2.49989 -1.67111 0
M  V30 40749 C 3972.23 -2.56504 -1.79373 0
M  V30 40750 C 3972.71 -3.88467 -2.42605 0
M  V30 40751 N 3974.2 -3.89905 -2.50056 0
M  V30 40752 C 3974.93 -4.88762 -2.99833 0
M  V30 40753 N 3974.43 -5.98014 -3.49787 0
M  V30 40754 N 3976.22 -4.76166 -2.987 0
M  V30 40755 H 3968.37 -2.11891 -0.146977 0
M  V30 40756 H 3970.64 -0.939342 -0.12783 0
M  V30 40757 H 3970.34 -3.35547 -1.05363 0
M  V30 40758 H 3970.22 -2.67026 -2.66415 0
M  V30 40759 H 3972.6 -1.71354 -2.40254 0
M  V30 40760 H 3972.68 -2.43352 -0.788262 0
M  V30 40761 H 3972.33 -4.74032 -1.82363 0
M  V30 40762 H 3972.26 -3.98923 -3.43756 0
M  V30 40763 H 3974.75 -3.10984 -2.14703 0
M  V30 40764 H 3975.06 -6.69398 -3.86169 0
M  V30 40765 H 3973.41 -6.0166 -3.47894 0
M  V30 40766 H 3976.6 -3.89936 -2.58974 0
M  V30 40767 H 3976.77 -5.53364 -3.37183 0
M  V30 40768 N 3970.18 0.998553 -1.21929 0
M  V30 40769 C 3971.45 1.71033 -0.949064 0
M  V30 40770 C 3971.83 2.04145 0.537393 0
M  V30 40771 O 3971.18 1.72028 1.50394 0
M  V30 40772 C 3971.39 2.96505 -1.84081 0
M  V30 40773 C 3972.74 3.69401 -2.09352 0
M  V30 40774 O 3973.76 3.065 -1.81483 0
M  V30 40775 O 3972.62 4.82555 -2.56521 0
M  V30 40776 H 3969.72 0.746246 -0.356436 0
M  V30 40777 H 3972.26 1.0554 -1.32888 0
M  V30 40778 H 3971.03 2.68494 -2.84651 0
M  V30 40779 H 3970.66 3.69736 -1.46221 0
M  V30 40780 N 3971.65 1.02807 1.1945 0
M  V30 40781 C 3972.89 0.732764 1.90814 0
M  V30 40782 C 3973.26 -0.725244 1.77776 0
M  V30 40783 O 3974.46 -1.13359 2.43728 0
M  V30 40784 C 3972.73 1.17048 3.3769 0
M  V30 40785 S 3974.29 0.998893 4.27279 0
M  V30 40786 H 3971.11 0.266796 0.659046 0
M  V30 40787 H 3973.71 1.31774 1.44416 0
M  V30 40788 H 3972.41 2.22727 3.44704 0
M  V30 40789 H 3971.94 0.578768 3.89119 0
M  V30 40790 H 3973.96 -0.0910204 4.96117 0
M  V30 40791 N 3973.13 -1.35441 0.805829 0
M  V30 40792 C 3974.54 -1.81273 0.446894 0
M  V30 40793 C 3974.89 -1.66927 -1.03101 0
M  V30 40794 O 3974.02 -1.19948 -1.80115 0
M  V30 40795 C 3974.61 -3.29113 0.804388 0
M  V30 40796 C 3973.17 -3.7309 0.498062 0
M  V30 40797 C 3972.32 -2.57445 1.0304 0
M  V30 40798 H 3975.27 -1.2343 0.997539 0
M  V30 40799 H 3975.29 -3.80364 0.101626 0
M  V30 40800 H 3974.8 -3.39521 1.88007 0
M  V30 40801 H 3972.91 -3.68231 -0.568918 0
M  V30 40802 H 3973.02 -4.67894 1.03016 0
M  V30 40803 H 3971.38 -2.50644 0.45276 0
M  V30 40804 H 3972.17 -2.70633 2.11218 0
M  V30 40805 N 3974.61 -0.559265 -1.47343 0
M  V30 40806 C 3975.86 -0.0359075 -2.02068 0
M  V30 40807 C 3976.18 1.31951 -1.43576 0
M  V30 40808 O 3975.45 1.86105 -0.611705 0
M  V30 40809 H 3974.03 -0.0102845 -0.746929 0
M  V30 40810 H 3976.69 -0.729739 -1.80723 0
M  V30 40811 H 3975.79 0.0506574 -3.12059 0
M  V30 40812 N 3976.09 1.54799 -0.295822 0
M  V30 40813 C 3977.33 2.00332 0.315438 0
M  V30 40814 C 3977.67 1.18394 1.53936 0
M  V30 40815 O 3976.94 0.25912 1.92766 0
M  V30 40816 C 3977.23 3.53676 0.677165 0
M  V30 40817 C 3977.08 4.46356 -0.55554 0
M  V30 40818 C 3978.4 4.13542 1.50568 0
M  V30 40819 H 3975.52 0.728258 0.113178 0
M  V30 40820 H 3978.16 1.85592 -0.40689 0
M  V30 40821 H 3976.31 3.66367 1.29258 0
M  V30 40822 H 3977.98 4.45579 -1.19404 0
M  V30 40823 H 3976.22 4.17166 -1.18976 0
M  V30 40824 H 3976.89 5.51395 -0.258377 0
M  V30 40825 H 3979.37 4.04255 0.985748 0
M  V30 40826 H 3978.25 5.21005 1.72757 0
M  V30 40827 H 3978.51 3.65087 2.49328 0
M  V30 40828 N 3977.57 0.0234513 1.57583 0
M  V30 40829 C 3978.51 -0.96029 2.09874 0
M  V30 40830 C 3979.48 -1.32663 0.999489 0
M  V30 40831 O 3980.67 -1.42093 1.27335 0
M  V30 40832 C 3977.81 -2.2393 2.62582 0
M  V30 40833 C 3976.92 -1.92992 3.86495 0
M  V30 40834 C 3976.06 -3.15147 4.27617 0
M  V30 40835 C 3975.1 -2.80002 5.44303 0
M  V30 40836 N 3974.23 -3.94765 5.80608 0
M  V30 40837 H 3979.07 -0.50745 2.93648 0
M  V30 40838 H 3976.61 -0.238886 1.45147 0
M  V30 40839 H 3978.57 -2.98734 2.91228 0
M  V30 40840 H 3977.2 -2.66841 1.81647 0
M  V30 40841 H 3976.25 -1.08455 3.64612 0
M  V30 40842 H 3977.56 -1.63104 4.71379 0
M  V30 40843 H 3976.72 -3.98276 4.5767 0
M  V30 40844 H 3975.46 -3.48192 3.41487 0
M  V30 40845 H 3974.46 -1.95284 5.13949 0
M  V30 40846 H 3975.69 -2.48179 6.32127 0
M  V30 40847 H 3973.63 -4.27662 4.97434 0
M  V30 40848 H 3973.55 -3.68481 6.6012 0
M  V30 40849 H 3974.82 -4.78613 6.15264 0
M  V30 40850 N 3979.05 -1.5561 -0.249627 0
M  V30 40851 C 3980.46 -1.47973 -0.598006 0
M  V30 40852 C 3980.66 -0.7131 -1.8846 0
M  V30 40853 O 3979.72 -0.241358 -2.51344 0
M  V30 40854 C 3981.03 -2.9236 -0.703267 0
M  V30 40855 C 3982.58 -3.02715 -0.795774 0
M  V30 40856 C 3983.05 -4.48404 -0.93262 0
M  V30 40857 N 3984.54 -4.52331 -0.997558 0
M  V30 40858 C 3985.28 -5.62302 -1.12266 0
M  V30 40859 N 3984.78 -6.8209 -1.21347 0
M  V30 40860 N 3986.57 -5.50093 -1.1556 0
M  V30 40861 H 3978.72 -2.03895 0.595012 0
M  V30 40862 H 3980.98 -0.925576 0.204973 0
M  V30 40863 H 3980.69 -3.51279 0.172043 0
M  V30 40864 H 3980.56 -3.42695 -1.57608 0
M  V30 40865 H 3982.95 -2.43879 -1.66154 0
M  V30 40866 H 3983.03 -2.55596 0.102132 0
M  V30 40867 H 3982.67 -5.0785 -0.071423 0
M  V30 40868 H 3982.6 -4.93202 -1.84553 0
M  V30 40869 H 3985.1 -3.66052 -0.938831 0
M  V30 40870 H 3985.41 -7.61652 -1.30792 0
M  V30 40871 H 3983.75 -6.84856 -1.1831 0
M  V30 40872 H 3986.94 -4.55444 -1.08112 0
M  V30 40873 H 3987.12 -6.35836 -1.24965 0
M  V30 40874 N 3980.52 0.515172 -1.48942 0
M  V30 40875 C 3981.93 1.09692 -1.51078 0
M  V30 40876 C 3982.29 1.94061 -0.288909 0
M  V30 40877 O 3981.41 2.0784 0.602629 0
M  V30 40878 C 3982.01 1.99604 -2.73758 0
M  V30 40879 C 3980.56 2.52969 -2.78718 0
M  V30 40880 C 3979.71 1.30261 -2.448 0
M  V30 40881 H 3982.66 0.299729 -1.55844 0
M  V30 40882 H 3982.68 2.84099 -2.53117 0
M  V30 40883 H 3982.2 1.38172 -3.62671 0
M  V30 40884 H 3980.3 3.1808 -1.94051 0
M  V30 40885 H 3980.41 2.9109 -3.8053 0
M  V30 40886 H 3978.77 1.62324 -1.96273 0
M  V30 40887 H 3979.56 0.705589 -3.35971 0
M  V30 40888 N 3982 1.37779 0.765169 0
M  V30 40889 C 3983.42 1.18722 1.06664 0
M  V30 40890 C 3983.62 0.027899 2.01481 0
M  V30 40891 O 3982.67 -0.629963 2.44515 0
M  V30 40892 C 3983.99 2.50871 1.65783 0
M  V30 40893 C 3985.53 2.57452 1.7801 0
M  V30 40894 C 3986.01 3.89748 2.40542 0
M  V30 40895 N 3987.5 3.91226 2.47985 0
M  V30 40896 C 3988.24 4.90345 2.97237 0
M  V30 40897 N 3987.73 5.99861 3.46611 0
M  V30 40898 N 3989.52 4.77744 2.96171 0
M  V30 40899 H 3981.68 2.11966 0.135738 0
M  V30 40900 H 3983.94 0.940007 0.122846 0
M  V30 40901 H 3983.64 3.36101 1.03582 0
M  V30 40902 H 3983.52 2.68435 2.64995 0
M  V30 40903 H 3985.91 1.72625 2.39342 0
M  V30 40904 H 3985.99 2.43766 0.775345 0
M  V30 40905 H 3985.63 4.74992 1.79847 0
M  V30 40906 H 3985.56 4.0074 3.41636 0
M  V30 40907 H 3988.05 3.12118 2.13051 0
M  V30 40908 H 3988.36 6.71436 3.82613 0
M  V30 40909 H 3986.71 6.03497 3.44698 0
M  V30 40910 H 3989.9 3.91304 2.56902 0
M  V30 40911 H 3990.07 5.55144 3.34243 0
M  V30 40912 N 3983.48 -0.992073 1.22457 0
M  V30 40913 C 3984.72 -1.74692 1.06122 0
M  V30 40914 C 3985.08 -1.87858 -0.39667 0
M  V30 40915 O 3986.28 -2.60033 -0.68089 0
M  V30 40916 C 3984.56 -3.11411 1.75379 0
M  V30 40917 S 3986.11 -4.02624 1.74468 0
M  V30 40918 H 3982.93 -0.60092 0.380021 0
M  V30 40919 H 3985.53 -1.18608 1.5541 0
M  V30 40920 H 3984.24 -2.99472 2.80615 0
M  V30 40921 H 3983.77 -3.72566 1.26325 0
M  V30 40922 H 3985.78 -4.89791 0.794957 0
M  V30 40923 N 3984.96 -1.03439 -1.18904 0
M  V30 40924 C 3986.37 -0.762923 -1.70401 0
M  V30 40925 C 3986.72 0.716876 -1.82634 0
M  V30 40926 O 3985.84 1.55844 -1.50139 0
M  V30 40927 C 3986.44 -1.37827 -3.09498 0
M  V30 40928 C 3985 -1.15526 -3.58233 0
M  V30 40929 C 3984.15 -1.47288 -2.3495 0
M  V30 40930 H 3987.1 -1.20162 -1.03667 0
M  V30 40931 H 3987.12 -0.778144 -3.72458 0
M  V30 40932 H 3986.63 -2.45528 -3.00562 0
M  V30 40933 H 3984.73 -0.0967114 -3.72474 0
M  V30 40934 H 3984.84 -1.84785 -4.42031 0
M  V30 40935 H 3983.21 -0.892375 -2.38556 0
M  V30 40936 H 3983.99 -2.56084 -2.28639 0
M  V30 40937 N 3986.44 1.35011 -0.813001 0
M  V30 40938 C 3987.37 2.32238 -0.242437 0
M  V30 40939 C 3988.35 1.57777 0.635648 0
M  V30 40940 O 3989.53 1.85812 0.564589 0
M  V30 40941 C 3986.66 3.41996 0.604626 0
M  V30 40942 C 3985.62 4.2764 -0.175495 0
M  V30 40943 C 3984.94 5.28777 0.793679 0
M  V30 40944 C 3986.24 5.03791 -1.37811 0
M  V30 40945 H 3987.94 2.80206 -1.05475 0
M  V30 40946 H 3985.48 1.34718 -0.508643 0
M  V30 40947 H 3987.43 4.09021 1.01389 0
M  V30 40948 H 3986.16 2.92653 1.44989 0
M  V30 40949 H 3984.82 3.62204 -0.566012 0
M  V30 40950 H 3984.47 4.75699 1.63462 0
M  V30 40951 H 3984.17 5.86952 0.275982 0
M  V30 40952 H 3985.69 5.98672 1.20101 0
M  V30 40953 H 3987.1 5.63726 -1.04338 0
M  V30 40954 H 3985.5 5.71493 -1.83074 0
M  V30 40955 H 3986.57 4.34061 -2.16146 0
M  V30 40956 N 3987.91 0.567071 1.47044 0
M  V30 40957 C 3988.86 -0.188035 2.31839 0
M  V30 40958 C 3989.86 -0.899727 1.43531 0
M  V30 40959 O 3991.06 -0.819892 1.60243 0
M  V30 40960 H 3987.44 -0.0795094 0.747785 0
M  V30 40961 H 3989.41 0.546173 2.93359 0
M  V30 40962 C 3988.16 -1.19855 3.26389 0
M  V30 40963 H 3987.48 -0.660343 3.94309 0
M  V30 40964 H 3988.92 -1.6976 3.88533 0
M  V30 40965 C 3987.38 -2.25152 2.50615 0
M  V30 40966 O 3987.91 -3.32246 2.25777 0
M  V30 40967 N 3986.11 -1.99341 2.11451 0
M  V30 40968 H 3985.66 -1.12262 2.31851 0
M  V30 40969 H 3985.62 -2.70008 1.61069 0
M  V30 40970 N 3989.39 -1.5464 0.304027 0
M  V30 40971 C 3990.62 -2.04315 -0.306435 0
M  V30 40972 C 3991.03 -1.18072 -1.47837 0
M  V30 40973 O 3990.37 -0.199698 -1.82611 0
M  V30 40974 C 3990.43 -3.49961 -0.822632 0
M  V30 40975 C 3990.1 -4.56449 0.224423 0
M  V30 40976 C 3991.1 -5.09106 1.05391 0
M  V30 40977 C 3988.78 -5.00958 0.366993 0
M  V30 40978 C 3990.77 -6.04816 2.01187 0
M  V30 40979 C 3988.46 -5.96487 1.3284 0
M  V30 40980 C 3989.46 -6.483 2.14932 0
M  V30 40981 O 3989.15 -7.41957 3.09442 0
M  V30 40982 H 3988.88 -0.672356 -0.0700915 0
M  V30 40983 H 3991.43 -2.00577 0.442484 0
M  V30 40984 H 3989.66 -3.51033 -1.62213 0
M  V30 40985 H 3991.35 -3.82817 -1.34931 0
M  V30 40986 H 3992.12 -4.75512 0.954645 0
M  V30 40987 H 3988 -4.60255 -0.26204 0
M  V30 40988 H 3991.54 -6.45183 2.65302 0
M  V30 40989 H 3987.44 -6.29498 1.42837 0
M  V30 40990 H 3988.21 -7.59769 3.04455 0
M  V30 40991 N 3990.87 -0.0318079 -1.57568 0
M  V30 40992 C 3992.12 0.646247 -1.91911 0
M  V30 40993 C 3992.44 1.7198 -0.908462 0
M  V30 40994 O 3991.7 1.95527 0.0822082 0
M  V30 40995 C 3992 1.29846 -3.32979 0
M  V30 40996 C 3991.66 0.355013 -4.495 0
M  V30 40997 C 3990.33 0.0953481 -4.81106 0
M  V30 40998 C 3992.68 -0.292677 -5.20378 0
M  V30 40999 C 3990.01 -0.819769 -5.80945 0
M  V30 41000 C 3992.36 -1.19586 -6.21194 0
M  V30 41001 C 3991.02 -1.46439 -6.51239 0
M  V30 41002 H 3990.29 0.236479 -0.702253 0
M  V30 41003 H 3992.94 -0.0941495 -1.91268 0
M  V30 41004 H 3991.24 2.11367 -3.29896 0
M  V30 41005 H 3992.94 1.8297 -3.56823 0
M  V30 41006 H 3989.53 0.567577 -4.24825 0
M  V30 41007 H 3993.72 -0.105129 -4.96189 0
M  V30 41008 H 3988.97 -1.03549 -6.02567 0
M  V30 41009 H 3993.15 -1.70391 -6.75233 0
M  V30 41010 H 3990.77 -2.17515 -7.28417 0
M  V30 41011 N 3992.35 1.55741 0.241371 0
M  V30 41012 C 3993.31 1.89971 1.28233 0
M  V30 41013 C 3994.31 0.776606 1.40803 0
M  V30 41014 O 3995.5 1.04455 1.39409 0
M  V30 41015 C 3992.63 2.13303 2.65922 0
M  V30 41016 H 3993.83 2.83055 0.990961 0
M  V30 41017 H 3991.38 1.48718 0.480913 0
M  V30 41018 H 3992.11 1.22706 3.00189 0
M  V30 41019 H 3991.9 2.95103 2.58179 0
M  V30 41020 H 3993.39 2.4095 3.41076 0
M  V30 41021 N 3993.83 -0.507266 1.49213 0
M  V30 41022 C 3995.07 -1.27202 1.59997 0
M  V30 41023 C 3995.43 -1.89983 0.277602 0
M  V30 41024 O 3996.63 -2.67534 0.260576 0
M  V30 41025 C 3994.9 -2.31527 2.72269 0
M  V30 41026 S 3996.46 -3.17425 3.02964 0
M  V30 41027 H 3993.28 -0.432381 0.564418 0
M  V30 41028 H 3995.88 -0.57532 1.86843 0
M  V30 41029 H 3994.59 -1.83924 3.66879 0
M  V30 41030 H 3994.12 -3.05874 2.47396 0
M  V30 41031 H 3996.13 -4.32061 2.44004 0
M  V30 41032 N 3995.3 -1.38182 -0.757851 0
M  V30 41033 C 3996.72 -1.30523 -1.33493 0
M  V30 41034 C 3997.07 0.040906 -1.96157 0
M  V30 41035 O 3996.19 0.942923 -1.94777 0
M  V30 41036 C 3996.79 -2.36373 -2.42721 0
M  V30 41037 C 3995.35 -2.32305 -2.96161 0
M  V30 41038 C 3994.49 -2.19464 -1.69501 0
M  V30 41039 H 3997.44 -1.48602 -0.557049 0
M  V30 41040 H 3997.46 -2.01842 -3.22552 0
M  V30 41041 H 3996.98 -3.34335 -1.97083 0
M  V30 41042 H 3995.08 -1.37911 -3.46138 0
M  V30 41043 H 3995.19 -3.26275 -3.5083 0
M  V30 41044 H 3993.55 -1.66244 -1.92964 0
M  V30 41045 H 3994.34 -3.19362 -1.25948 0
M  V30 41046 N 3996.78 0.985565 -1.22981 0
M  V30 41047 C 3998.01 1.76683 -1.08618 0
M  V30 41048 C 3998.43 1.84651 0.358557 0
M  V30 41049 O 3997.79 1.30435 1.25922 0
M  V30 41050 C 3997.84 3.17453 -1.71044 0
M  V30 41051 O 3996.94 4.00852 -0.969088 0
M  V30 41052 H 3996.28 0.543787 -0.38104 0
M  V30 41053 H 3998.81 1.23754 -1.62929 0
M  V30 41054 H 3998.82 3.68053 -1.76071 0
M  V30 41055 H 3997.5 3.10968 -2.76173 0
M  V30 41056 H 3996.08 3.5937 -0.995381 0
M  V30 41057 N 3998.26 1.04068 1.18353 0
M  V30 41058 C 3999.51 0.742609 1.87962 0
M  V30 41059 C 3999.83 -0.731867 1.80745 0
M  V30 41060 O 3999.1 -1.52811 1.22579 0
M  V30 41061 H 3997.68 0.271701 0.695836 0
M  V30 41062 H 4000.34 1.31744 1.4363 0
M  V30 41063 H 3999.44 1.04747 2.93998 0
M  V30 41064 N 3999.74 -1.34578 0.820149 0
M  V30 41065 C 4001.15 -1.51381 0.505559 0
M  V30 41066 C 4001.35 -1.76573 -0.970781 0
M  V30 41067 O 4000.41 -1.81504 -1.75535 0
M  V30 41068 C 4001.72 -2.68051 1.36268 0
M  V30 41069 C 4003.27 -2.81933 1.35952 0
M  V30 41070 C 4003.75 -4.01643 2.20107 0
M  V30 41071 N 4005.24 -4.08845 2.17715 0
M  V30 41072 C 4005.97 -5.00622 2.7958 0
M  V30 41073 N 4005.47 -5.97641 3.50424 0
M  V30 41074 N 4007.26 -4.93473 2.69149 0
M  V30 41075 H 3999.41 -1.16485 1.77609 0
M  V30 41076 H 4001.68 -0.571055 0.756703 0
M  V30 41077 H 4001.38 -2.56056 2.41098 0
M  V30 41078 H 4001.26 -3.62994 1.02543 0
M  V30 41079 H 4003.64 -2.93371 0.319023 0
M  V30 41080 H 4003.72 -1.87807 1.73673 0
M  V30 41081 H 4003.37 -3.90965 3.24204 0
M  V30 41082 H 4003.3 -4.94977 1.79738 0
M  V30 41083 H 4005.79 -3.394 1.66181 0
M  V30 41084 H 4006.1 -6.64296 3.94881 0
M  V30 41085 H 4004.45 -5.97774 3.5453 0
M  V30 41086 H 4007.64 -4.16637 2.1338 0
M  V30 41087 H 4007.81 -5.64804 3.17649 0
M  V30 41088 N 4001.22 -0.574861 -1.46742 0
M  V30 41089 C 4002.46 -0.0600332 -2.04312 0
M  V30 41090 C 4002.82 1.27268 -1.4376 0
M  V30 41091 O 4004.02 1.87627 -1.92482 0
M  V30 41092 C 4002.29 0.0129569 -3.57398 0
M  V30 41093 S 4003.85 0.471349 -4.36261 0
M  V30 41094 H 4000.67 -0.0336708 -0.710202 0
M  V30 41095 H 4003.27 -0.765587 -1.79886 0
M  V30 41096 H 4001.98 -0.961073 -3.98988 0
M  V30 41097 H 4001.51 0.741523 -3.86348 0
M  V30 41098 H 4003.52 1.72765 -4.65152 0
M  V30 41099 N 4002.69 1.54476 -0.312224 0
M  V30 41100 C 4003.94 1.99537 0.294572 0
M  V30 41101 C 4004.26 1.20424 1.54135 0
M  V30 41102 O 4005.46 1.55807 2.22343 0
M  V30 41103 C 4003.92 3.5527 0.575408 0
M  V30 41104 C 4003.53 4.43206 -0.653669 0
M  V30 41105 C 4005.27 4.08829 1.14278 0
M  V30 41106 C 4003.18 5.90391 -0.345364 0
M  V30 41107 H 4002.11 0.745356 0.113846 0
M  V30 41108 H 4004.76 1.78566 -0.422681 0
M  V30 41109 H 4003.14 3.72186 1.35255 0
M  V30 41110 H 4004.31 4.38065 -1.42952 0
M  V30 41111 H 4002.63 4.00478 -1.14046 0
M  V30 41112 H 4005.23 5.16374 1.38788 0
M  V30 41113 H 4005.57 3.60116 2.0886 0
M  V30 41114 H 4006.1 3.95501 0.427085 0
M  V30 41115 H 4002.84 6.43275 -1.26005 0
M  V30 41116 H 4002.36 5.98511 0.393001 0
M  V30 41117 H 4004.04 6.46981 0.048971 0
M  V30 41118 N 4004.17 0.0401637 1.57549 0
M  V30 41119 C 4005.58 -0.497111 1.7996 0
M  V30 41120 C 4005.93 -1.71587 0.951434 0
M  V30 41121 O 4005.06 -2.15771 0.164918 0
M  V30 41122 C 4005.65 -0.908624 3.26389 0
M  V30 41123 C 4004.21 -1.39094 3.49757 0
M  V30 41124 C 4003.36 -0.360885 2.74942 0
M  V30 41125 H 4006.31 0.266126 1.56453 0
M  V30 41126 H 4006.33 -1.77228 3.36705 0
M  V30 41127 H 4005.84 -0.0213946 3.88094 0
M  V30 41128 H 4003.95 -2.29773 2.93317 0
M  V30 41129 H 4004.06 -1.3907 4.58472 0
M  V30 41130 H 4002.42 -0.831389 2.40749 0
M  V30 41131 H 4003.21 0.518069 3.39368 0
M  V30 41132 N 4005.65 -1.55866 -0.233109 0
M  V30 41133 C 4006.58 -1.86459 -1.31561 0
M  V30 41134 C 4007.56 -0.720898 -1.45746 0
M  V30 41135 O 4008.75 -0.968079 -1.61742 0
M  V30 41136 C 4005.87 -2.06145 -2.68741 0
M  V30 41137 C 4004.92 -3.28813 -2.71633 0
M  V30 41138 S 4005.75 -4.85073 -2.26857 0
M  V30 41139 C 4006.91 -5.07781 -3.65936 0
M  V30 41140 H 4007.14 -2.77984 -1.05414 0
M  V30 41141 H 4004.67 -1.48152 -0.434783 0
M  V30 41142 H 4006.63 -2.1817 -3.47724 0
M  V30 41143 H 4005.29 -1.15438 -2.92118 0
M  V30 41144 H 4004.49 -3.39595 -3.72412 0
M  V30 41145 H 4004.09 -3.15584 -2.00705 0
M  V30 41146 H 4006.38 -4.9597 -4.61541 0
M  V30 41147 H 4007.32 -6.09713 -3.60078 0
M  V30 41148 H 4007.73 -4.35564 -3.59088 0
M  V30 41149 N 4007.13 0.499346 -1.4948 0
M  V30 41150 C 4008.35 1.28206 -1.63027 0
M  V30 41151 C 4008.78 1.85655 -0.30227 0
M  V30 41152 O 4008.14 1.6594 0.730326 0
M  V30 41153 C 4008.19 2.38694 -2.70291 0
M  V30 41154 O 4007.29 3.42589 -2.29579 0
M  V30 41155 H 4006.63 0.378422 -0.545612 0
M  V30 41156 H 4009.16 0.597594 -1.95678 0
M  V30 41157 H 4009.17 2.84433 -2.9251 0
M  V30 41158 H 4007.85 1.96247 -3.66688 0
M  V30 41159 H 4006.42 3.02758 -2.17698 0
M  V30 41160 N 4008.61 1.38582 0.750513 0
M  V30 41161 C 4009.85 1.36164 1.51099 0
M  V30 41162 C 4010.21 -0.0472244 1.92342 0
M  V30 41163 O 4009.5 -1.01051 1.62786 0
M  V30 41164 C 4009.7 2.25412 2.77352 0
M  V30 41165 C 4009.52 3.74835 2.48453 0
M  V30 41166 C 4008.29 4.43843 2.41519 0
M  V30 41167 C 4010.49 4.67193 2.15025 0
M  V30 41168 N 4008.47 5.78687 2.04927 0
M  V30 41169 C 4009.85 5.90571 1.88749 0
M  V30 41170 C 4011.9 4.55366 2.0136 0
M  V30 41171 C 4010.6 7.03446 1.50187 0
M  V30 41172 C 4012.63 5.68148 1.642 0
M  V30 41173 C 4011.99 6.9059 1.38799 0
M  V30 41174 H 4008.09 0.55354 0.552374 0
M  V30 41175 H 4010.67 1.73997 0.873677 0
M  V30 41176 H 4008.85 1.89761 3.38888 0
M  V30 41177 H 4010.58 2.14097 3.43431 0
M  V30 41178 H 4007.33 3.97095 2.58094 0
M  V30 41179 H 4007.76 6.50005 1.89267 0
M  V30 41180 H 4012.4 3.61253 2.19673 0
M  V30 41181 H 4010.12 7.97474 1.30614 0
M  V30 41182 H 4013.7 5.60978 1.54255 0
M  V30 41183 H 4012.58 7.7638 1.10473 0
M  V30 41184 N 4010.09 -0.979029 1.23502 0
M  V30 41185 C 4011.31 -1.7557 1.09465 0
M  V30 41186 C 4011.73 -1.85456 -0.353768 0
M  V30 41187 O 4011.09 -1.33472 -1.24465 0
M  V30 41188 C 4011.14 -3.18193 1.71568 0
M  V30 41189 O 4010.86 -3.08818 3.10746 0
M  V30 41190 C 4012.36 -4.12249 1.62991 0
M  V30 41191 H 4009.58 -0.55094 0.383023 0
M  V30 41192 H 4012.12 -1.22992 1.63381 0
M  V30 41193 H 4010.28 -3.67794 1.21682 0
M  V30 41194 H 4010.69 -3.98611 3.40895 0
M  V30 41195 H 4012.17 -5.10022 2.11144 0
M  V30 41196 H 4012.64 -4.35233 0.588984 0
M  V30 41197 H 4013.25 -3.68552 2.12248 0
M  V30 41198 N 4011.56 -1.04695 -1.178 0
M  V30 41199 C 4012.8 -0.763028 -1.89624 0
M  V30 41200 C 4013.17 0.696869 -1.78907 0
M  V30 41201 O 4014.37 1.09467 -2.455 0
M  V30 41202 C 4012.64 -1.22406 -3.35785 0
M  V30 41203 S 4014.2 -1.06674 -4.25636 0
M  V30 41204 H 4011.02 -0.277247 -0.654718 0
M  V30 41205 H 4013.62 -1.34054 -1.42301 0
M  V30 41206 H 4012.32 -2.28182 -3.41117 0
M  V30 41207 H 4011.85 -0.640601 -3.88149 0
M  V30 41208 H 4013.87 0.012081 -4.96199 0
M  V30 41209 N 4013.04 1.34141 -0.827275 0
M  V30 41210 C 4014.32 1.92625 -0.339827 0
M  V30 41211 C 4014.7 1.75485 1.17339 0
M  V30 41212 O 4014.05 1.1362 1.98249 0
M  V30 41213 C 4014.26 3.4031 -0.773951 0
M  V30 41214 C 4015.6 4.17462 -0.775283 0
M  V30 41215 O 4016.63 3.48913 -0.71681 0
M  V30 41216 O 4015.49 5.39811 -0.852442 0
M  V30 41217 H 4012.58 0.821668 -0.093763 0
M  V30 41218 H 4015.13 1.43088 -0.912355 0
M  V30 41219 H 4013.9 3.46606 -1.81603 0
M  V30 41220 H 4013.52 3.97204 -0.177357 0
M  V30 41221 N 4014.52 0.582635 1.46435 0
M  V30 41222 C 4015.47 -0.150656 2.30308 0
M  V30 41223 C 4016.44 -0.88416 1.40612 0
M  V30 41224 O 4017.62 -0.874844 1.69562 0
M  V30 41225 C 4014.76 -1.15842 3.25077 0
M  V30 41226 C 4013.87 -0.428366 4.29871 0
M  V30 41227 C 4013.01 -1.42364 5.11767 0
M  V30 41228 C 4012.05 -0.679996 6.08311 0
M  V30 41229 N 4011.19 -1.62333 6.83076 0
M  V30 41230 H 4016.03 0.570634 2.92485 0
M  V30 41231 H 4013.56 0.29322 1.44148 0
M  V30 41232 H 4015.52 -1.75556 3.78465 0
M  V30 41233 H 4014.15 -1.84742 2.64708 0
M  V30 41234 H 4013.2 0.283811 3.7934 0
M  V30 41235 H 4014.51 0.152998 4.98565 0
M  V30 41236 H 4013.67 -2.09359 5.69433 0
M  V30 41237 H 4012.41 -2.03894 4.43033 0
M  V30 41238 H 4011.41 0.00372731 5.498 0
M  V30 41239 H 4012.64 -0.0700959 6.79064 0
M  V30 41240 H 4010.58 -2.22673 6.17052 0
M  V30 41241 H 4010.5 -1.09477 7.48031 0
M  V30 41242 H 4011.77 -2.28363 7.45299 0
M  V30 41243 N 4016 -1.54309 0.320412 0
M  V30 41244 C 4016.91 -2.27917 -0.555977 0
M  V30 41245 C 4017.92 -1.32151 -1.1319 0
M  V30 41246 O 4019.1 -1.65162 -1.15254 0
M  V30 41247 C 4016.16 -3.02026 -1.70238 0
M  V30 41248 C 4015.23 -4.13371 -1.15858 0
M  V30 41249 C 4014.46 -4.83937 -2.25035 0
M  V30 41250 O 4014.68 -4.53994 -3.45319 0
M  V30 41251 O 4013.62 -5.70914 -1.90632 0
M  V30 41252 H 4017.44 -3.03671 0.0417097 0
M  V30 41253 H 4015.03 -1.49151 0.0862071 0
M  V30 41254 H 4016.91 -3.48446 -2.36988 0
M  V30 41255 H 4015.58 -2.2915 -2.28631 0
M  V30 41256 H 4014.49 -3.71307 -0.456257 0
M  V30 41257 H 4015.82 -4.88282 -0.61983 0
M  V30 41258 N 4017.48 -0.0485183 -1.57525 0
M  V30 41259 C 4018.75 0.665578 -1.83928 0
M  V30 41260 C 4019.13 1.89195 -0.936393 0
M  V30 41261 O 4018.48 2.285 0.00322889 0
M  V30 41262 C 4018.69 1.02539 -3.33597 0
M  V30 41263 C 4020.04 1.40882 -4.00547 0
M  V30 41264 O 4021.06 1.11781 -3.38206 0
M  V30 41265 O 4019.92 1.9518 -5.10458 0
M  V30 41266 H 4017.02 0.328291 -0.759048 0
M  V30 41267 H 4019.56 -0.0776795 -1.69522 0
M  V30 41268 H 4018.33 0.153387 -3.90999 0
M  V30 41269 H 4017.96 1.82619 -3.5318 0
M  V30 41270 N 4018.95 1.55988 0.224839 0
M  V30 41271 C 4020.23 1.69633 0.973854 0
M  V30 41272 C 4020.61 0.594826 2.02546 0
M  V30 41273 O 4019.96 -0.39864 2.24996 0
M  V30 41274 C 4020.17 3.10816 1.58727 0
M  V30 41275 C 4021.52 3.7012 2.08077 0
M  V30 41276 O 4022.54 3.13757 1.68627 0
M  V30 41277 O 4021.4 4.68976 2.80578 0
M  V30 41278 H 4018.49 0.690777 0.454704 0
M  V30 41279 H 4021.04 1.68308 0.216881 0
M  V30 41280 H 4019.81 3.82444 0.827766 0
M  V30 41281 H 4019.43 3.16245 2.40987 0
M  V30 41282 N 4020.43 -0.491412 1.49743 0
M  V30 41283 C 4021.67 -1.25498 1.61337 0
M  V30 41284 C 4022.04 -1.89677 0.297737 0
M  V30 41285 O 4023.24 -2.67243 0.288937 0
M  V30 41286 C 4021.51 -2.28626 2.74709 0
M  V30 41287 S 4023.07 -3.14193 3.06313 0
M  V30 41288 H 4019.88 -0.42637 0.568972 0
M  V30 41289 H 4022.49 -0.55547 1.87443 0
M  V30 41290 H 4021.19 -1.80022 3.68809 0
M  V30 41291 H 4020.72 -3.03233 2.50626 0
M  V30 41292 H 4022.74 -4.29448 2.48573 0
M  V30 41293 N 4021.91 -1.38978 -0.743153 0
M  V30 41294 C 4022.82 -1.39302 -1.88765 0
M  V30 41295 C 4023.84 -0.288812 -1.71586 0
M  V30 41296 O 4025.01 -0.528954 -1.9433 0
M  V30 41297 C 4022.08 -1.22703 -3.2426 0
M  V30 41298 C 4021.14 -2.43023 -3.5389 0
M  V30 41299 C 4020.37 -2.27206 -4.82921 0
M  V30 41300 O 4020.59 -1.27124 -5.56054 0
M  V30 41301 O 4019.53 -3.16018 -5.12266 0
M  V30 41302 H 4023.35 -2.35759 -1.91446 0
M  V30 41303 H 4020.94 -1.20008 -0.88986 0
M  V30 41304 H 4022.82 -1.15547 -4.05249 0
M  V30 41305 H 4021.5 -0.293374 -3.22368 0
M  V30 41306 H 4020.4 -2.55754 -2.73021 0
M  V30 41307 H 4021.74 -3.35054 -3.60554 0
M  V30 41308 N 4023.39 0.972465 -1.2402 0
M  V30 41309 C 4024.34 2.05122 -0.99544 0
M  V30 41310 C 4025.32 1.60783 0.0614292 0
M  V30 41311 O 4026.51 1.76349 -0.151701 0
M  V30 41312 C 4023.64 3.38068 -0.597078 0
M  V30 41313 C 4022.73 3.88983 -1.68977 0
M  V30 41314 N 4023.12 4.12887 -2.92161 0
M  V30 41315 C 4021.42 4.17596 -1.56618 0
M  V30 41316 C 4022.12 4.54569 -3.62963 0
M  V30 41317 N 4021.1 4.59464 -2.90507 0
M  V30 41318 H 4024.9 2.21572 -1.93088 0
M  V30 41319 H 4022.41 1.15588 -1.14075 0
M  V30 41320 H 4024.41 4.14948 -0.40298 0
M  V30 41321 H 4023.07 3.23006 0.331227 0
M  V30 41322 H 4024.08 4.00477 -3.28388 0
M  V30 41323 H 4020.76 4.11495 -0.705564 0
M  V30 41324 H 4022.15 4.81516 -4.68607 0
M  V30 41325 N 4024.87 1.05318 1.17243 0
M  V30 41326 C 4026.11 0.762504 1.87164 0
M  V30 41327 C 4026.44 -0.712655 1.81511 0
M  V30 41328 O 4025.71 -1.51502 1.24193 0
M  V30 41329 H 4024.29 0.279066 0.692915 0
M  V30 41330 H 4026.95 1.3326 1.42224 0
M  V30 41331 H 4026.04 1.07859 2.9287 0
M  V30 41332 N 4026.34 -1.33701 0.834377 0
M  V30 41333 C 4027.25 -2.33079 0.26669 0
M  V30 41334 C 4028.27 -1.63146 -0.60493 0
M  V30 41335 O 4029.45 -1.94833 -0.510117 0
M  V30 41336 C 4026.51 -3.42268 -0.552613 0
M  V30 41337 C 4025.57 -4.2793 0.342752 0
M  V30 41338 C 4024.81 -5.31903 -0.437543 0
M  V30 41339 O 4025.03 -5.45415 -1.6697 0
M  V30 41340 O 4023.96 -6.01612 0.186107 0
M  V30 41341 H 4027.79 -2.83484 1.08951 0
M  V30 41342 H 4025.37 -1.36963 0.596789 0
M  V30 41343 H 4027.26 -4.0891 -1.01835 0
M  V30 41344 H 4025.93 -2.94087 -1.35257 0
M  V30 41345 H 4024.84 -3.6417 0.856232 0
M  V30 41346 H 4026.17 -4.79581 1.10736 0
M  V30 41347 N 4027.82 -0.590393 -1.46124 0
M  V30 41348 C 4029.1 -0.0116992 -1.95597 0
M  V30 41349 C 4029.48 1.45128 -1.53301 0
M  V30 41350 O 4028.83 2.14507 -0.787336 0
M  V30 41351 C 4029.04 -0.191788 -3.48473 0
M  V30 41352 C 4030.39 -0.0636078 -4.24552 0
M  V30 41353 O 4031.41 -0.121018 -3.55994 0
M  V30 41354 O 4030.27 0.0656811 -5.46461 0
M  V30 41355 H 4027.36 0.0454776 -0.825749 0
M  V30 41356 H 4029.91 -0.65925 -1.56371 0
M  V30 41357 H 4028.68 -1.20852 -3.7217 0
M  V30 41358 H 4028.3 0.491836 -3.94546 0
M  V30 41359 N 4029.3 1.54136 -0.328591 0
M  V30 41360 C 4030.21 2.28208 0.543882 0
M  V30 41361 C 4031.23 1.3275 1.12488 0
M  V30 41362 O 4032.4 1.65771 1.14377 0
M  V30 41363 C 4029.47 3.02925 1.68634 0
M  V30 41364 C 4028.53 4.13979 1.13665 0
M  V30 41365 C 4027.76 4.85123 2.22466 0
M  V30 41366 O 4027.98 4.55819 3.42906 0
M  V30 41367 O 4026.92 5.71917 1.87601 0
M  V30 41368 H 4030.74 3.03645 -0.0578135 0
M  V30 41369 H 4028.33 1.49103 -0.0941157 0
M  V30 41370 H 4030.21 3.49698 2.35137 0
M  V30 41371 H 4028.89 2.30359 2.27413 0
M  V30 41372 H 4027.79 3.71544 0.43656 0
M  V30 41373 H 4029.13 4.88603 0.593926 0
M  V30 41374 N 4030.78 0.0568716 1.57497 0
M  V30 41375 C 4032.01 -0.625067 1.97232 0
M  V30 41376 C 4032.42 -1.64042 0.934651 0
M  V30 41377 O 4031.78 -1.82322 -0.0804743 0
M  V30 41378 C 4031.83 -1.30692 3.37049 0
M  V30 41379 O 4031.55 -0.332226 4.36838 0
M  V30 41380 C 4033.05 -2.07809 3.91574 0
M  V30 41381 H 4030.27 -0.170494 0.648978 0
M  V30 41382 H 4032.82 0.124859 2.04118 0
M  V30 41383 H 4030.97 -2.00804 3.31295 0
M  V30 41384 H 4031.38 -0.8196 5.18057 0
M  V30 41385 H 4032.86 -2.50931 4.91668 0
M  V30 41386 H 4033.34 -2.92858 3.27308 0
M  V30 41387 H 4033.94 -1.42596 4.00682 0
M  V30 41388 N 4032.26 -1.56105 -0.216564 0
M  V30 41389 C 4033.21 -1.8922 -1.27201 0
M  V30 41390 C 4034.19 -0.755741 -1.42047 0
M  V30 41391 O 4035.38 -1.01825 -1.44778 0
M  V30 41392 C 4032.51 -2.21671 -2.62139 0
M  V30 41393 C 4031.6 -3.4172 -2.51174 0
M  V30 41394 N 4031.99 -4.60207 -2.09864 0
M  V30 41395 C 4030.29 -3.45433 -2.8212 0
M  V30 41396 C 4030.99 -5.42366 -2.1027 0
M  V30 41397 N 4029.96 -4.82208 -2.50951 0
M  V30 41398 H 4033.77 -2.7834 -0.943599 0
M  V30 41399 H 4031.28 -1.56737 -0.425105 0
M  V30 41400 H 4033.28 -2.43571 -3.38347 0
M  V30 41401 H 4031.94 -1.33865 -2.95821 0
M  V30 41402 H 4032.95 -4.85273 -1.80915 0
M  V30 41403 H 4029.62 -2.67985 -3.20141 0
M  V30 41404 H 4031.01 -6.47225 -1.80414 0
M  V30 41405 N 4033.73 0.483463 -1.50001 0
M  V30 41406 C 4034.97 1.24641 -1.62 0
M  V30 41407 C 4035.34 1.89517 -0.307792 0
M  V30 41408 O 4036.54 2.67086 -0.303106 0
M  V30 41409 C 4034.81 2.27166 -2.75918 0
M  V30 41410 S 4036.37 3.12565 -3.07975 0
M  V30 41411 H 4033.19 0.423347 -0.571226 0
M  V30 41412 H 4035.79 0.545522 -1.87735 0
M  V30 41413 H 4034.49 1.78064 -3.69759 0
M  V30 41414 H 4034.02 3.019 -2.52231 0
M  V30 41415 H 4036.04 4.28124 -2.50847 0
M  V30 41416 N 4035.21 1.39371 0.735772 0
M  V30 41417 C 4036.16 1.38171 1.87113 0
M  V30 41418 C 4037.15 0.264966 1.67315 0
M  V30 41419 O 4038.36 0.434958 1.74666 0
M  V30 41420 H 4034.74 0.431449 0.615919 0
M  V30 41421 H 4036.71 2.33941 1.85241 0
M  V30 41422 C 4035.46 1.2413 3.24787 0
M  V30 41423 H 4034.78 2.09331 3.40618 0
M  V30 41424 H 4036.22 1.27348 4.04424 0
M  V30 41425 C 4034.68 -0.0503338 3.36862 0
M  V30 41426 O 4035.21 -1.02081 3.88513 0
M  V30 41427 N 4033.41 -0.113133 2.9038 0
M  V30 41428 H 4032.96 0.677311 2.48536 0
M  V30 41429 H 4032.92 -0.976875 2.98839 0
M  V30 41430 N 4036.69 -0.965875 1.24534 0
M  V30 41431 C 4037.64 -2.06075 1.03932 0
M  V30 41432 C 4038.61 -1.66031 -0.0479705 0
M  V30 41433 O 4039.79 -1.905 0.107012 0
M  V30 41434 C 4036.93 -3.38882 0.652143 0
M  V30 41435 C 4036.05 -3.9211 1.81311 0
M  V30 41436 C 4035.18 -5.13194 1.37134 0
M  V30 41437 C 4034.22 -5.58623 2.50213 0
M  V30 41438 N 4033.36 -6.70925 2.06891 0
M  V30 41439 H 4038.2 -2.2303 1.9764 0
M  V30 41440 H 4035.73 -1.09309 0.984376 0
M  V30 41441 H 4037.69 -4.15193 0.408681 0
M  V30 41442 H 4036.32 -3.21846 -0.247939 0
M  V30 41443 H 4035.37 -3.12421 2.17019 0
M  V30 41444 H 4036.69 -4.21783 2.66271 0
M  V30 41445 H 4035.84 -5.96885 1.08686 0
M  V30 41446 H 4034.58 -4.85209 0.4923 0
M  V30 41447 H 4033.58 -4.73503 2.79419 0
M  V30 41448 H 4034.81 -5.88621 3.38677 0
M  V30 41449 H 4032.76 -6.44671 1.21388 0
M  V30 41450 H 4032.67 -7.00057 2.85404 0
M  V30 41451 H 4033.94 -7.58054 1.81589 0
M  V30 41452 N 4038.17 -1.05938 -1.16683 0
M  V30 41453 C 4039.42 -0.773947 -1.87126 0
M  V30 41454 C 4039.74 0.699402 -1.8149 0
M  V30 41455 O 4039 1.52788 -1.22288 0
M  V30 41456 C 4039.3 -1.20929 -3.3632 0
M  V30 41457 C 4038.96 -2.68614 -3.62157 0
M  V30 41458 C 4037.63 -3.08955 -3.68917 0
M  V30 41459 C 4039.98 -3.64011 -3.73022 0
M  V30 41460 C 4037.31 -4.43542 -3.84041 0
M  V30 41461 C 4039.66 -4.9834 -3.89667 0
M  V30 41462 C 4038.32 -5.38324 -3.94668 0
M  V30 41463 H 4037.59 -0.283207 -0.684744 0
M  V30 41464 H 4040.24 -1.32783 -1.37989 0
M  V30 41465 H 4038.54 -0.57454 -3.87565 0
M  V30 41466 H 4040.24 -0.965537 -3.89202 0
M  V30 41467 H 4036.83 -2.36377 -3.57525 0
M  V30 41468 H 4041.02 -3.33979 -3.67113 0
M  V30 41469 H 4036.27 -4.74011 -3.86165 0
M  V30 41470 H 4040.45 -5.72146 -3.97016 0
M  V30 41471 H 4038.07 -6.42616 -4.0614 0
M  V30 41472 N 4039.65 1.33256 -0.841456 0
M  V30 41473 C 4040.89 1.99508 -0.444522 0
M  V30 41474 C 4041.25 1.65194 0.978518 0
M  V30 41475 O 4042.45 2.24432 1.47931 0
M  V30 41476 C 4040.72 3.5122 -0.661739 0
M  V30 41477 S 4042.28 4.37317 -0.360411 0
M  V30 41478 H 4039.1 0.691087 -0.167092 0
M  V30 41479 H 4041.7 1.62206 -1.0913 0
M  V30 41480 H 4040.41 3.73682 -1.69676 0
M  V30 41481 H 4039.94 3.934 -0.000897539 0
M  V30 41482 H 4041.95 4.89398 0.818798 0
M  V30 41483 N 4041.13 0.598134 1.45809 0
M  V30 41484 C 4042.35 0.0938879 2.07187 0
M  V30 41485 C 4042.78 -1.20848 1.44143 0
M  V30 41486 O 4042.13 -1.73358 0.53072 0
M  V30 41487 C 4042.18 -0.0422452 3.60575 0
M  V30 41488 O 4041.29 -1.09489 3.976 0
M  V30 41489 H 4040.63 0.0697798 0.660323 0
M  V30 41490 H 4043.16 0.825459 1.87209 0
M  V30 41491 H 4043.17 -0.243495 4.07273 0
M  V30 41492 H 4041.84 0.908772 4.0585 0
M  V30 41493 H 4040.42 -0.870866 3.62588 0
M  V30 41494 N 4042.6 -1.5396 0.33676 0
M  V30 41495 C 4043.51 -2.28494 -0.531772 0
M  V30 41496 C 4044.53 -1.33345 -1.11782 0
M  V30 41497 O 4045.71 -1.66375 -1.13496 0
M  V30 41498 C 4042.77 -3.03815 -1.67025 0
M  V30 41499 C 4041.83 -4.14576 -1.11468 0
M  V30 41500 C 4041.06 -4.86296 -2.1989 0
M  V30 41501 O 4041.29 -4.57631 -3.40484 0
M  V30 41502 O 4040.22 -5.72904 -1.84566 0
M  V30 41503 H 4044.05 -3.0361 0.0739157 0
M  V30 41504 H 4041.63 -1.49051 0.102022 0
M  V30 41505 H 4043.51 -3.5094 -2.33279 0
M  V30 41506 H 4042.19 -2.31562 -2.26188 0
M  V30 41507 H 4041.1 -3.7177 -0.41685 0
M  V30 41508 H 4042.43 -4.88912 -0.568006 0
M  V30 41509 N 4044.08 -0.0652232 -1.57465 0
M  V30 41510 C 4045.04 0.889597 -2.11232 0
M  V30 41511 C 4046.04 1.2307 -1.03491 0
M  V30 41512 O 4047.23 1.16506 -1.29507 0
M  V30 41513 C 4044.37 2.1951 -2.60822 0
M  V30 41514 H 4045.56 0.423249 -2.96898 0
M  V30 41515 H 4043.11 0.18339 -1.5522 0
M  V30 41516 H 4043.85 2.70696 -1.7859 0
M  V30 41517 H 4043.63 1.96051 -3.39568 0
M  V30 41518 H 4045.12 2.87876 -3.02518 0
M  V30 41519 N 4045.56 1.56218 0.208282 0
M  V30 41520 C 4046.49 1.89998 1.28193 0
M  V30 41521 C 4047.5 0.789419 1.4238 0
M  V30 41522 O 4048.69 1.06778 1.43041 0
M  V30 41523 C 4045.79 2.10518 2.65585 0
M  V30 41524 C 4044.97 3.41605 2.73175 0
M  V30 41525 C 4044.03 3.51397 3.91672 0
M  V30 41526 O 4043.05 4.24325 3.7939 0
M  V30 41527 N 4044.25 2.83513 5.06557 0
M  V30 41528 H 4047.02 2.82689 0.995353 0
M  V30 41529 H 4044.58 1.56925 0.398267 0
M  V30 41530 H 4046.57 2.14371 3.4326 0
M  V30 41531 H 4045.14 1.2439 2.86785 0
M  V30 41532 H 4044.36 3.49736 1.81875 0
M  V30 41533 H 4045.65 4.27934 2.75227 0
M  V30 41534 H 4045.05 2.24066 5.19433 0
M  V30 41535 H 4043.6 2.9301 5.82227 0
M  V30 41536 N 4047.04 -0.475502 1.50256 0
M  V30 41537 C 4048.28 -1.2279 1.61024 0
M  V30 41538 C 4048.61 -1.92037 0.308541 0
M  V30 41539 O 4047.87 -1.82549 -0.705298 0
M  V30 41540 C 4048.17 -2.2983 2.73702 0
M  V30 41541 C 4047.83 -1.77866 4.14336 0
M  V30 41542 C 4046.49 -1.63415 4.52602 0
M  V30 41543 C 4048.85 -1.39267 5.02249 0
M  V30 41544 C 4046.17 -1.08781 5.76527 0
M  V30 41545 C 4048.53 -0.860759 6.26717 0
M  V30 41546 C 4047.19 -0.702842 6.63789 0
M  V30 41547 H 4046.46 -0.449322 0.589229 0
M  V30 41548 H 4049.11 -0.5246 1.84174 0
M  V30 41549 H 4047.41 -3.06051 2.44622 0
M  V30 41550 H 4049.11 -2.87797 2.79238 0
M  V30 41551 H 4045.7 -1.9008 3.84145 0
M  V30 41552 H 4049.88 -1.49268 4.73321 0
M  V30 41553 H 4045.14 -0.952881 6.03929 0
M  V30 41554 H 4049.31 -0.552987 6.94201 0
M  V30 41555 H 4046.94 -0.277337 7.59694 0
M  V30 41556 N 4048.52 -1.39759 -0.72837 0
M  V30 41557 C 4049.43 -1.41296 -1.87276 0
M  V30 41558 C 4050.44 -0.306995 -1.7127 0
M  V30 41559 O 4051.62 -0.549536 -1.93758 0
M  V30 41560 C 4048.68 -1.26135 -3.22941 0
M  V30 41561 C 4047.74 -2.46763 -3.51293 0
M  V30 41562 C 4046.98 -2.32315 -4.80484 0
M  V30 41563 O 4047.2 -1.33015 -5.54674 0
M  V30 41564 O 4046.13 -3.21434 -5.08885 0
M  V30 41565 H 4049.96 -2.37776 -1.88935 0
M  V30 41566 H 4047.54 -1.20945 -0.877082 0
M  V30 41567 H 4049.43 -1.19839 -4.04001 0
M  V30 41568 H 4048.1 -0.327549 -3.22039 0
M  V30 41569 H 4047.01 -2.58636 -2.70293 0
M  V30 41570 H 4048.34 -3.3886 -3.5698 0
M  V30 41571 N 4049.99 0.959257 -1.25044 0
M  V30 41572 C 4051.23 1.71817 -1.10717 0
M  V30 41573 C 4051.6 1.88843 0.346723 0
M  V30 41574 O 4052.8 2.61747 0.611708 0
M  V30 41575 C 4051.07 3.06652 -1.83574 0
M  V30 41576 S 4052.63 3.97857 -1.85082 0
M  V30 41577 H 4049.45 0.590633 -0.39582 0
M  V30 41578 H 4052.05 1.14446 -1.585 0
M  V30 41579 H 4050.75 2.91927 -2.88456 0
M  V30 41580 H 4050.28 3.69086 -1.36159 0
M  V30 41581 H 4052.3 4.87511 -0.924537 0
M  V30 41582 N 4051.47 1.06556 1.16119 0
M  V30 41583 C 4052.4 0.636656 2.2018 0
M  V30 41584 C 4053.42 -0.306703 1.59885 0
M  V30 41585 O 4054.61 -0.0972787 1.78235 0
M  V30 41586 C 4051.71 -0.0864945 3.3879 0
M  V30 41587 C 4050.88 0.871016 4.2864 0
M  V30 41588 C 4049.94 0.186631 5.25869 0
M  V30 41589 O 4048.96 0.825127 5.63188 0
M  V30 41590 N 4050.17 -1.0708 5.70538 0
M  V30 41591 H 4052.93 1.5318 2.57597 0
M  V30 41592 H 4050.49 0.949208 1.31155 0
M  V30 41593 H 4052.48 -0.554811 4.00879 0
M  V30 41594 H 4051.05 -0.883472 2.99856 0
M  V30 41595 H 4050.27 1.51864 3.63773 0
M  V30 41596 H 4051.56 1.52049 4.8555 0
M  V30 41597 H 4050.96 -1.60963 5.42317 0
M  V30 41598 H 4049.52 -1.48294 6.34706 0
M  V30 41599 N 4052.95 -1.32808 0.848511 0
M  V30 41600 C 4053.9 -2.3094 0.277368 0
M  V30 41601 C 4054.89 -1.58573 -0.59591 0
M  V30 41602 O 4056.1 -1.7336 -0.484398 0
M  V30 41603 H 4052.47 -0.748642 0.0709818 0
M  V30 41604 H 4054.44 -2.76609 1.11937 0
M  V30 41605 C 4053.19 -3.43719 -0.524645 0
M  V30 41606 H 4052.52 -3.99562 0.138029 0
M  V30 41607 H 4053.96 -4.14555 -0.889959 0
M  V30 41608 C 4052.42 -2.90429 -1.70741 0
M  V30 41609 O 4052.95 -2.87413 -2.80636 0
M  V30 41610 N 4051.15 -2.46909 -1.53245 0
M  V30 41611 H 4050.7 -2.49562 -0.638482 0
M  V30 41612 H 4050.66 -2.11608 -2.32529 0
M  V30 41613 N 4054.43 -0.605858 -1.45489 0
M  V30 41614 C 4055.38 0.13538 -2.27598 0
M  V30 41615 C 4056.36 0.840197 -1.37221 0
M  V30 41616 O 4057.55 0.730473 -1.61224 0
M  V30 41617 C 4054.68 1.13324 -3.24056 0
M  V30 41618 C 4053.77 0.429353 -4.21921 0
M  V30 41619 N 4054.16 -0.528041 -5.03036 0
M  V30 41620 C 4052.46 0.67713 -4.4083 0
M  V30 41621 C 4053.16 -0.941612 -5.74028 0
M  V30 41622 N 4052.14 -0.285735 -5.42849 0
M  V30 41623 H 4055.94 -0.599975 -2.87711 0
M  V30 41624 H 4053.45 -0.429395 -1.5662 0
M  V30 41625 H 4055.45 1.67866 -3.81611 0
M  V30 41626 H 4054.11 1.86917 -2.65503 0
M  V30 41627 H 4055.12 -0.904703 -5.09937 0
M  V30 41628 H 4051.8 1.39787 -3.93403 0
M  V30 41629 H 4053.19 -1.73114 -6.49216 0
M  V30 41630 N 4055.91 1.53779 -0.34492 0
M  V30 41631 C 4057.32 1.59598 0.00695204 0
M  V30 41632 C 4057.52 1.36083 1.48606 0
M  V30 41633 O 4056.58 1.15577 2.24496 0
M  V30 41634 C 4057.89 2.97603 -0.430454 0
M  V30 41635 C 4059.44 3.10649 -0.382914 0
M  V30 41636 C 4059.91 4.51033 -0.79581 0
M  V30 41637 N 4061.41 4.57087 -0.75005 0
M  V30 41638 C 4062.14 5.63863 -1.04147 0
M  V30 41639 N 4061.64 6.78484 -1.40111 0
M  V30 41640 N 4063.43 5.53744 -0.965619 0
M  V30 41641 H 4055.58 1.67319 -1.30837 0
M  V30 41642 H 4057.84 0.783677 -0.533436 0
M  V30 41643 H 4057.55 3.19882 -1.4618 0
M  V30 41644 H 4057.42 3.76703 0.193629 0
M  V30 41645 H 4059.81 2.88093 0.63926 0
M  V30 41646 H 4059.89 2.33605 -1.04222 0
M  V30 41647 H 4059.54 4.74325 -1.816 0
M  V30 41648 H 4059.47 5.26477 -0.113969 0
M  V30 41649 H 4061.96 3.74777 -0.484806 0
M  V30 41650 H 4062.27 7.5588 -1.60829 0
M  V30 41651 H 4060.61 6.79927 -1.43958 0
M  V30 41652 H 4063.81 4.63076 -0.683983 0
M  V30 41653 H 4063.98 6.36866 -1.19608 0
M  V30 41654 N 4057.38 0.0735731 1.57428 0
M  V30 41655 C 4058.62 -0.598768 1.95433 0
M  V30 41656 C 4058.99 -1.66669 0.953171 0
M  V30 41657 O 4060.19 -2.39471 1.22094 0
M  V30 41658 C 4058.46 -1.15914 3.38081 0
M  V30 41659 S 4060.02 -1.84636 3.98064 0
M  V30 41660 H 4056.84 -0.19601 0.683448 0
M  V30 41661 H 4059.44 0.147853 1.9494 0
M  V30 41662 H 4058.14 -0.370086 4.08728 0
M  V30 41663 H 4057.67 -1.94208 3.42121 0
M  V30 41664 H 4059.69 -3.12894 3.85113 0
M  V30 41665 N 4058.86 -1.56326 -0.199995 0
M  V30 41666 C 4060.11 -1.79532 -0.919299 0
M  V30 41667 C 4060.42 -0.645941 -1.84627 0
M  V30 41668 O 4061.63 -0.762178 -2.60582 0
M  V30 41669 C 4060.09 -3.18017 -1.68502 0
M  V30 41670 C 4059.69 -4.40742 -0.803125 0
M  V30 41671 C 4061.44 -3.50536 -2.39426 0
M  V30 41672 C 4059.35 -5.7025 -1.56743 0
M  V30 41673 H 4058.28 -0.669405 -0.347006 0
M  V30 41674 H 4060.93 -1.82686 -0.172681 0
M  V30 41675 H 4059.31 -3.091 -2.47535 0
M  V30 41676 H 4060.48 -4.60771 -0.0518079 0
M  V30 41677 H 4058.8 -4.15895 -0.204966 0
M  V30 41678 H 4061.39 -4.44529 -2.9715 0
M  V30 41679 H 4061.74 -2.74049 -3.13374 0
M  V30 41680 H 4062.27 -3.6088 -1.67364 0
M  V30 41681 H 4059.01 -6.4969 -0.870828 0
M  V30 41682 H 4058.53 -5.54248 -2.29281 0
M  V30 41683 H 4060.21 -6.11194 -2.12251 0
M  V30 41684 N 4060.34 0.467527 -1.50506 0
M  V30 41685 C 4061.57 1.2472 -1.6571 0
M  V30 41686 C 4061.99 1.84972 -0.341582 0
M  V30 41687 O 4061.35 1.67451 0.694963 0
M  V30 41688 C 4061.4 2.32908 -2.75293 0
M  V30 41689 O 4060.5 3.37642 -2.36794 0
M  V30 41690 H 4059.84 0.366764 -0.553516 0
M  V30 41691 H 4062.37 0.555953 -1.96902 0
M  V30 41692 H 4062.38 2.78164 -2.98477 0
M  V30 41693 H 4061.06 1.88425 -3.70768 0
M  V30 41694 H 4059.63 2.98072 -2.2407 0
M  V30 41695 N 4061.82 1.40143 0.720948 0
M  V30 41696 C 4062.77 1.39983 1.83503 0
M  V30 41697 C 4063.74 0.257518 1.64092 0
M  V30 41698 O 4064.92 0.45477 1.85301 0
M  V30 41699 C 4062.06 1.26293 3.2116 0
M  V30 41700 C 4061.17 2.50186 3.5218 0
M  V30 41701 C 4060.31 2.28978 4.79314 0
M  V30 41702 C 4059.35 3.48474 5.03222 0
M  V30 41703 N 4058.48 3.26496 6.21566 0
M  V30 41704 H 4063.32 2.35211 1.82975 0
M  V30 41705 H 4060.86 1.16825 0.893891 0
M  V30 41706 H 4062.82 1.16364 4.00644 0
M  V30 41707 H 4061.45 0.346874 3.20931 0
M  V30 41708 H 4060.5 2.70664 2.67292 0
M  V30 41709 H 4061.81 3.39149 3.65759 0
M  V30 41710 H 4060.97 2.16372 5.66805 0
M  V30 41711 H 4059.71 1.37432 4.67936 0
M  V30 41712 H 4058.71 3.61564 4.14188 0
M  V30 41713 H 4059.94 4.40941 5.16477 0
M  V30 41714 H 4057.88 2.37627 6.11449 0
M  V30 41715 H 4057.8 4.09021 6.35797 0
M  V30 41716 H 4059.07 3.17611 7.11859 0
M  V30 41717 N 4063.3 -0.952612 1.25551 0
M  V30 41718 C 4064.23 -2.05302 1.01901 0
M  V30 41719 C 4065.24 -1.62791 -0.0167322 0
M  V30 41720 O 4066.43 -1.77113 0.222052 0
M  V30 41721 C 4063.53 -3.34904 0.518915 0
M  V30 41722 C 4062.7 -4.06243 1.62128 0
M  V30 41723 C 4061.76 -5.14116 1.12121 0
M  V30 41724 O 4060.79 -5.39453 1.81601 0
M  V30 41725 N 4061.99 -5.80489 -0.0364434 0
M  V30 41726 H 4064.76 -2.2616 1.96652 0
M  V30 41727 H 4062.32 -1.1213 1.16783 0
M  V30 41728 H 4064.31 -4.04348 0.1688 0
M  V30 41729 H 4062.88 -3.10803 -0.334708 0
M  V30 41730 H 4062.1 -3.30869 2.14288 0
M  V30 41731 H 4063.39 -4.50662 2.36181 0
M  V30 41732 H 4062.78 -5.62326 -0.616956 0
M  V30 41733 H 4061.34 -6.50976 -0.327574 0
M  V30 41734 N 4064.77 -1.0717 -1.15553 0
M  V30 41735 C 4066.02 -0.804757 -1.86803 0
M  V30 41736 C 4066.38 0.661943 -1.80655 0
M  V30 41737 O 4065.67 1.47944 -1.2175 0
M  V30 41738 C 4065.86 -1.2449 -3.35018 0
M  V30 41739 C 4065.69 -2.75284 -3.55596 0
M  V30 41740 C 4064.46 -3.42868 -3.71173 0
M  V30 41741 C 4066.66 -3.73485 -3.53573 0
M  V30 41742 N 4064.64 -4.82323 -3.79787 0
M  V30 41743 C 4066.01 -4.9877 -3.68278 0
M  V30 41744 C 4068.07 -3.66669 -3.36836 0
M  V30 41745 C 4066.77 -6.1805 -3.67977 0
M  V30 41746 C 4068.8 -4.8541 -3.37832 0
M  V30 41747 C 4068.16 -6.09528 -3.53065 0
M  V30 41748 H 4064.26 -0.347012 -0.70079 0
M  V30 41749 H 4066.84 -1.36759 -1.38582 0
M  V30 41750 H 4065.01 -0.709784 -3.81859 0
M  V30 41751 H 4066.74 -0.925692 -3.93971 0
M  V30 41752 H 4063.5 -2.93274 -3.7187 0
M  V30 41753 H 4063.92 -5.54895 -3.87841 0
M  V30 41754 H 4068.57 -2.71656 -3.2398 0
M  V30 41755 H 4066.28 -7.13386 -3.79612 0
M  V30 41756 H 4069.87 -4.81811 -3.26113 0
M  V30 41757 H 4068.75 -6.9987 -3.53767 0
M  V30 41758 N 4066.25 1.32356 -0.855542 0
M  V30 41759 C 4067.18 2.31349 -0.3162 0
M  V30 41760 C 4068.16 1.59719 0.585131 0
M  V30 41761 O 4069.35 1.87514 0.505188 0
M  V30 41762 C 4066.48 3.43747 0.495516 0
M  V30 41763 C 4065.43 4.26865 -0.311457 0
M  V30 41764 C 4064.76 5.31034 0.625051 0
M  V30 41765 C 4066.06 4.99152 -1.53769 0
M  V30 41766 H 4067.75 2.76708 -1.14336 0
M  V30 41767 H 4065.3 1.33031 -0.551245 0
M  V30 41768 H 4067.25 4.1204 0.883252 0
M  V30 41769 H 4065.98 2.97118 1.35605 0
M  V30 41770 H 4064.64 3.6022 -0.680958 0
M  V30 41771 H 4064.28 4.80658 1.48246 0
M  V30 41772 H 4063.98 5.87532 0.089108 0
M  V30 41773 H 4065.51 6.0219 1.00994 0
M  V30 41774 H 4066.92 5.60121 -1.22219 0
M  V30 41775 H 4065.32 5.65379 -2.01163 0
M  V30 41776 H 4066.39 4.26965 -2.29845 0
M  V30 41777 N 4067.73 0.613565 1.45166 0
M  V30 41778 C 4068.97 0.114182 2.04081 0
M  V30 41779 C 4069.34 -1.23412 1.47083 0
M  V30 41780 O 4070.54 -1.82458 1.97389 0
M  V30 41781 C 4068.81 0.0818053 3.57306 0
M  V30 41782 S 4070.37 -0.355516 4.37357 0
M  V30 41783 H 4067.18 0.0524887 0.70906 0
M  V30 41784 H 4069.79 0.813011 1.77793 0
M  V30 41785 H 4068.49 1.06652 3.963 0
M  V30 41786 H 4068.02 -0.638829 3.88178 0
M  V30 41787 H 4070.04 -1.60372 4.69569 0
M  V30 41788 N 4069.21 -1.53594 0.353071 0
M  V30 41789 C 4070.49 -1.93343 -0.29627 0
M  V30 41790 C 4070.87 -1.28551 -1.67445 0
M  V30 41791 O 4070.21 -0.43994 -2.24225 0
M  V30 41792 C 4070.42 -3.47148 -0.359018 0
M  V30 41793 C 4071.77 -4.20263 -0.605332 0
M  V30 41794 O 4072.8 -3.53463 -0.440743 0
M  V30 41795 O 4071.66 -5.38617 -0.924865 0
M  V30 41796 H 4068.75 -0.808302 -0.174865 0
M  V30 41797 H 4071.3 -1.64798 0.404943 0
M  V30 41798 H 4070.07 -3.86552 0.607752 0
M  V30 41799 H 4069.69 -3.81889 -1.10663 0
M  V30 41800 N 4070.69 -0.0819208 -1.57387 0
M  V30 41801 C 4071.94 0.58371 -1.93487 0
M  V30 41802 C 4072.26 1.69534 -0.963496 0
M  V30 41803 O 4071.53 1.95895 -0.0133211 0
M  V30 41804 H 4070.11 0.218609 -0.714296 0
M  V30 41805 H 4072.77 -0.142158 -1.94381 0
M  V30 41806 H 4071.86 1.00247 -2.95562 0
M  V30 41807 N 4072.17 1.5643 0.191702 0
M  V30 41808 C 4073.39 1.85291 0.931771 0
M  V30 41809 C 4073.82 0.665895 1.75919 0
M  V30 41810 O 4073.17 -0.385282 1.77159 0
M  V30 41811 C 4073.22 3.12407 1.80094 0
M  V30 41812 O 4072.33 2.93198 2.90015 0
M  V30 41813 H 4071.67 0.610038 0.262202 0
M  V30 41814 H 4074.2 2.03659 0.195992 0
M  V30 41815 H 4074.21 3.43288 2.20493 0
M  V30 41816 H 4072.88 3.98422 1.19302 0
M  V30 41817 H 4071.46 2.73623 2.53347 0
M  V30 41818 N 4073.64 -0.459538 1.50751 0
M  V30 41819 C 4074.92 -1.22059 1.52843 0
M  V30 41820 C 4075.3 -2.09238 0.279753 0
M  V30 41821 O 4074.65 -2.16312 -0.736302 0
M  V30 41822 C 4074.86 -2.04166 2.8305 0
M  V30 41823 C 4076.21 -2.61964 3.34155 0
M  V30 41824 O 4077.23 -2.14398 2.8445 0
M  V30 41825 O 4076.09 -3.48661 4.2083 0
M  V30 41826 H 4073.18 -0.554504 0.613559 0
M  V30 41827 H 4075.73 -0.470417 1.6305 0
M  V30 41828 H 4074.5 -1.39997 3.65399 0
M  V30 41829 H 4074.12 -2.86294 2.75901 0
M  V30 41830 N 4075.12 -1.40523 -0.713506 0
M  V30 41831 C 4076.4 -1.29412 -1.4667 0
M  V30 41832 C 4076.78 0.0865922 -2.10922 0
M  V30 41833 O 4076.13 1.09956 -2.00305 0
M  V30 41834 C 4076.34 -2.43444 -2.50072 0
M  V30 41835 C 4077.68 -2.83775 -3.15843 0
M  V30 41836 O 4078.71 -2.43052 -2.60392 0
M  V30 41837 O 4077.57 -3.54138 -4.16232 0
M  V30 41838 H 4074.66 -0.508333 -0.652324 0
M  V30 41839 H 4077.21 -1.52448 -0.745504 0
M  V30 41840 H 4075.98 -3.35656 -2.01123 0
M  V30 41841 H 4075.6 -2.22189 -3.29724 0
M  V30 41842 N 4076.6 0.94594 -1.26054 0
M  V30 41843 C 4077.84 1.70633 -1.12533 0
M  V30 41844 C 4078.2 1.89201 0.326674 0
M  V30 41845 O 4079.4 2.62381 0.583911 0
M  V30 41846 C 4077.68 3.04688 -1.86816 0
M  V30 41847 S 4079.23 3.95872 -1.89291 0
M  V30 41848 H 4076.05 0.586402 -0.402062 0
M  V30 41849 H 4078.65 1.12759 -1.59705 0
M  V30 41850 H 4077.36 2.88851 -2.91536 0
M  V30 41851 H 4076.89 3.67621 -1.40066 0
M  V30 41852 H 4078.9 4.86503 -0.976192 0
M  V30 41853 N 4078.08 1.07781 1.14983 0
M  V30 41854 C 4079.33 0.802032 1.85504 0
M  V30 41855 C 4079.65 -0.673994 1.82982 0
M  V30 41856 O 4078.92 -1.48834 1.27379 0
M  V30 41857 H 4077.5 0.293701 0.68684 0
M  V30 41858 H 4080.16 1.36247 1.39366 0
M  V30 41859 H 4079.25 1.14047 2.90516 0
M  V30 41860 N 4079.56 -1.31901 0.862549 0
M  V30 41861 C 4080.83 -1.91657 0.390778 0
M  V30 41862 C 4081.21 -1.78534 -1.12645 0
M  V30 41863 O 4080.56 -1.18836 -1.95167 0
M  V30 41864 C 4080.77 -3.38139 0.863906 0
M  V30 41865 C 4082.12 -4.1526 0.885694 0
M  V30 41866 O 4083.14 -3.4689 0.809066 0
M  V30 41867 O 4082 -5.37361 0.995264 0
M  V30 41868 H 4079.1 -0.818893 0.115515 0
M  V30 41869 H 4081.64 -1.40619 0.949972 0
M  V30 41870 H 4080.41 -3.41669 1.90729 0
M  V30 41871 H 4080.04 -3.96594 0.282606 0
M  V30 41872 N 4081.03 -0.621255 -1.44838 0
M  V30 41873 C 4082.28 -0.121579 -2.01734 0
M  V30 41874 C 4082.6 1.25743 -1.49043 0
M  V30 41875 O 4081.87 1.83343 -0.690088 0
M  V30 41876 H 4080.45 -0.041955 -0.745821 0
M  V30 41877 H 4083.12 -0.805733 -1.77465 0
M  V30 41878 H 4082.21 -0.081743 -3.11993 0
M  V30 41879 N 4082.51 1.53405 -0.361211 0
M  V30 41880 C 4083.74 2.06083 0.233347 0
M  V30 41881 C 4084.16 1.23328 1.42027 0
M  V30 41882 O 4083.52 0.251281 1.7955 0
M  V30 41883 C 4083.57 3.55417 0.609181 0
M  V30 41884 O 4082.67 3.75414 1.70698 0
M  V30 41885 H 4082.01 0.663076 0.0350094 0
M  V30 41886 H 4084.54 1.97867 -0.520549 0
M  V30 41887 H 4084.55 3.98366 0.881413 0
M  V30 41888 H 4083.23 4.15094 -0.258733 0
M  V30 41889 H 4081.81 3.44365 1.43064 0
M  V30 41890 N 4083.99 0.0902663 1.57341 0
M  V30 41891 C 4085.27 -0.616579 1.85628 0
M  V30 41892 C 4085.65 -1.86646 0.986226 0
M  V30 41893 O 4085 -2.28428 0.0573549 0
M  V30 41894 C 4085.21 -0.936586 3.36198 0
M  V30 41895 C 4086.55 -1.30212 4.04141 0
M  V30 41896 O 4087.58 -1.02775 3.41051 0
M  V30 41897 O 4086.44 -1.81577 5.15453 0
M  V30 41898 H 4083.53 -0.308051 0.767485 0
M  V30 41899 H 4086.08 0.122598 1.69257 0
M  V30 41900 H 4084.85 -0.0496666 3.91268 0
M  V30 41901 H 4084.47 -1.7319 3.57898 0
M  V30 41902 N 4085.47 -1.56529 -0.183403 0
M  V30 41903 C 4086.38 -1.98687 -1.24743 0
M  V30 41904 C 4087.39 -0.896327 -1.49137 0
M  V30 41905 O 4088.57 -1.20301 -1.61523 0
M  V30 41906 C 4085.64 -2.32791 -2.56923 0
M  V30 41907 C 4084.7 -3.55612 -2.40497 0
M  V30 41908 C 4083.93 -3.88079 -3.66374 0
M  V30 41909 O 4084.15 -3.21676 -4.71042 0
M  V30 41910 O 4083.09 -4.81471 -3.61205 0
M  V30 41911 H 4086.91 -2.89442 -0.919625 0
M  V30 41912 H 4084.5 -1.44238 -0.389326 0
M  V30 41913 H 4086.38 -2.55749 -3.34918 0
M  V30 41914 H 4085.05 -1.45201 -2.89307 0
M  V30 41915 H 4083.96 -3.37886 -1.60574 0
M  V30 41916 H 4085.29 -4.43705 -2.13042 0
M  V30 41917 N 4086.95 0.451537 -1.50993 0
M  V30 41918 C 4087.91 1.52946 -1.70705 0
M  V30 41919 C 4088.91 1.5008 -0.577302 0
M  V30 41920 O 4090.1 1.52353 -0.844646 0
M  V30 41921 C 4087.23 2.9253 -1.7504 0
M  V30 41922 H 4088.42 1.36777 -2.66893 0
M  V30 41923 H 4085.98 0.679261 -1.40768 0
M  V30 41924 H 4086.71 3.14121 -0.806151 0
M  V30 41925 H 4086.5 2.96017 -2.57132 0
M  V30 41926 H 4087.99 3.70753 -1.92178 0
M  V30 41927 N 4088.42 1.409 0.706044 0
M  V30 41928 C 4089.39 1.41659 1.80181 0
M  V30 41929 C 4090.39 0.308851 1.57806 0
M  V30 41930 O 4091.58 0.568226 1.64672 0
M  V30 41931 C 4088.71 1.21771 3.1841 0
M  V30 41932 H 4089.9 2.39194 1.80904 0
M  V30 41933 H 4087.46 1.26888 0.912635 0
M  V30 41934 H 4088.19 0.250345 3.23332 0
M  V30 41935 H 4087.98 2.0202 3.36051 0
M  V30 41936 H 4089.47 1.25113 3.98418 0
M  V30 41937 N 4089.9 -0.939242 1.26554 0
M  V30 41938 C 4090.85 -2.02411 1.04947 0
M  V30 41939 C 4091.84 -1.60889 -0.0187789 0
M  V30 41940 O 4093.03 -1.75885 0.198404 0
M  V30 41941 C 4090.16 -3.36366 0.686501 0
M  V30 41942 C 4089.24 -3.84366 1.79231 0
M  V30 41943 N 4089.63 -4.04996 3.03005 0
M  V30 41944 C 4087.93 -4.13297 1.67635 0
M  V30 41945 C 4088.63 -4.44786 3.74888 0
M  V30 41946 N 4087.61 -4.516 3.02586 0
M  V30 41947 H 4091.41 -2.16375 1.98895 0
M  V30 41948 H 4088.93 -1.12523 1.171 0
M  V30 41949 H 4090.92 -4.13734 0.512854 0
M  V30 41950 H 4089.58 -3.23771 -0.245471 0
M  V30 41951 H 4090.59 -3.9163 3.3889 0
M  V30 41952 H 4087.27 -4.0948 0.814416 0
M  V30 41953 H 4088.66 -4.68922 4.81208 0
M  V30 41954 N 4091.38 -1.08389 -1.14409 0
M  V30 41955 C 4092.62 -0.82297 -1.871 0
M  V30 41956 C 4092.98 0.639598 -1.81034 0
M  V30 41957 O 4094.19 1.01601 -2.48859 0
M  V30 41958 C 4092.46 -1.33027 -3.31721 0
M  V30 41959 S 4094.02 -1.20162 -4.22027 0
M  V30 41960 H 4090.83 -0.297936 -0.645566 0
M  V30 41961 H 4093.44 -1.38514 -1.37964 0
M  V30 41962 H 4092.14 -2.38919 -3.33685 0
M  V30 41963 H 4091.67 -0.763763 -3.85915 0
M  V30 41964 H 4093.69 -0.145787 -4.95986 0
M  V30 41965 N 4092.86 1.31442 -0.869532 0
M  V30 41966 C 4093.77 2.3229 -0.328393 0
M  V30 41967 C 4094.78 1.64692 0.561462 0
M  V30 41968 O 4095.96 1.96117 0.458281 0
M  V30 41969 C 4093.03 3.43612 0.461673 0
M  V30 41970 C 4092.09 4.2687 -0.45609 0
M  V30 41971 C 4091.32 5.32877 0.296365 0
M  V30 41972 O 4091.54 5.4965 1.52451 0
M  V30 41973 O 4090.48 6.00907 -0.345549 0
M  V30 41974 H 4094.3 2.80496 -1.16429 0
M  V30 41975 H 4091.89 1.35332 -0.632893 0
M  V30 41976 H 4093.77 4.11466 0.909578 0
M  V30 41977 H 4092.44 2.9757 1.27413 0
M  V30 41978 H 4091.35 3.61771 -0.952485 0
M  V30 41979 H 4092.68 4.76477 -1.23413 0
M  V30 41980 N 4094.34 0.628927 1.44507 0
M  V30 41981 C 4095.58 0.132276 2.01667 0
M  V30 41982 C 4095.91 -1.2495 1.49708 0
M  V30 41983 O 4095.18 -1.82974 0.699801 0
M  V30 41984 H 4093.76 0.0459097 0.745588 0
M  V30 41985 H 4096.42 0.815133 1.77036 0
M  V30 41986 H 4095.51 0.0982876 3.11945 0
M  V30 41987 N 4095.82 -1.53211 0.369342 0
M  V30 41988 C 4096.76 -2.25852 -0.475359 0
M  V30 41989 C 4097.73 -1.26671 -1.07442 0
M  V30 41990 O 4098.92 -1.5546 -1.1062 0
M  V30 41991 C 4096.06 -3.0539 -1.60719 0
M  V30 41992 C 4095.17 -4.19469 -1.03294 0
M  V30 41993 C 4094.31 -4.86442 -2.13419 0
M  V30 41994 C 4093.34 -5.92546 -1.53479 0
M  V30 41995 N 4092.48 -6.53195 -2.57451 0
M  V30 41996 H 4097.32 -2.97619 0.150586 0
M  V30 41997 H 4094.86 -1.46848 0.0860835 0
M  V30 41998 H 4096.82 -3.49783 -2.27394 0
M  V30 41999 H 4095.45 -2.35871 -2.20374 0
M  V30 42000 H 4094.5 -3.79535 -0.256371 0
M  V30 42001 H 4095.81 -4.95706 -0.554743 0
M  V30 42002 H 4094.96 -5.34037 -2.87906 0
M  V30 42003 H 4093.7 -4.09686 -2.64592 0
M  V30 42004 H 4092.71 -5.44309 -0.77508 0
M  V30 42005 H 4093.93 -6.71224 -1.03126 0
M  V30 42006 H 4091.88 -5.79289 -3.07831 0
M  V30 42007 H 4091.8 -7.24982 -2.14329 0
M  V30 42008 H 4093.06 -7.05438 -3.31629 0
M  V30 42009 N 4097.29 -0.0986092 -1.57291 0
M  V30 42010 C 4098.52 0.572555 -1.9882 0
M  V30 42011 C 4098.94 1.61506 -0.977815 0
M  V30 42012 O 4098.29 1.82472 0.0321064 0
M  V30 42013 C 4098.34 1.2171 -3.40395 0
M  V30 42014 O 4098.07 0.216289 -4.37566 0
M  V30 42015 C 4099.57 1.97354 -3.96946 0
M  V30 42016 H 4096.79 0.153228 -0.65327 0
M  V30 42017 H 4099.33 -0.178934 -2.03716 0
M  V30 42018 H 4097.49 1.9195 -3.36503 0
M  V30 42019 H 4097.9 0.681958 -5.20048 0
M  V30 42020 H 4099.37 2.37807 -4.98148 0
M  V30 42021 H 4099.85 2.84077 -3.34958 0
M  V30 42022 H 4100.46 1.31923 -4.04322 0
M  V30 42023 N 4098.77 1.56624 0.175099 0
M  V30 42024 C 4100.01 1.83575 0.898873 0
M  V30 42025 C 4100.38 0.678994 1.79593 0
M  V30 42026 O 4101.58 0.828857 2.55702 0
M  V30 42027 C 4099.85 3.15626 1.67676 0
M  V30 42028 S 4101.41 3.64046 2.44981 0
M  V30 42029 H 4098.22 0.644084 0.301127 0
M  V30 42030 H 4100.83 1.94838 0.16078 0
M  V30 42031 H 4099.53 3.9781 1.00872 0
M  V30 42032 H 4099.06 3.07294 2.4563 0
M  V30 42033 H 4101.08 3.31072 3.69602 0
M  V30 42034 N 4100.25 -0.443523 1.5123 0
M  V30 42035 C 4101.5 -1.19111 1.63269 0
M  V30 42036 C 4101.82 -1.91866 0.348185 0
M  V30 42037 O 4101.09 -1.85299 -0.635691 0
M  V30 42038 H 4099.67 -0.442669 0.601709 0
M  V30 42039 H 4102.33 -0.509101 1.88133 0
M  V30 42040 H 4101.43 -1.92407 2.45736 0
M  V30 42041 N 4101.73 -1.41272 -0.698562 0
M  V30 42042 C 4103.14 -1.36068 -1.27837 0
M  V30 42043 C 4103.49 -0.0423279 -1.96154 0
M  V30 42044 O 4102.61 0.859463 -1.98601 0
M  V30 42045 C 4103.21 -2.46455 -2.32477 0
M  V30 42046 C 4101.77 -2.44657 -2.86041 0
M  V30 42047 C 4100.92 -2.26456 -1.60041 0
M  V30 42048 H 4103.87 -1.50831 -0.49352 0
M  V30 42049 H 4103.89 -2.15341 -3.13701 0
M  V30 42050 H 4103.4 -3.42393 -1.82726 0
M  V30 42051 H 4101.5 -1.52467 -3.39977 0
M  V30 42052 H 4101.61 -3.40861 -3.36676 0
M  V30 42053 H 4099.98 -1.74279 -1.85739 0
M  V30 42054 H 4100.76 -3.24416 -1.12289 0
M  V30 42055 N 4103.21 0.932517 -1.27051 0
M  V30 42056 C 4104.43 1.71917 -1.16014 0
M  V30 42057 C 4104.86 1.86006 0.279918 0
M  V30 42058 O 4104.21 1.35659 1.20276 0
M  V30 42059 C 4104.26 3.09912 -1.84355 0
M  V30 42060 O 4103.37 3.96381 -1.13823 0
M  V30 42061 H 4102.71 0.527137 -0.403761 0
M  V30 42062 H 4105.24 1.16733 -1.68032 0
M  V30 42063 H 4105.25 3.60254 -1.91523 0
M  V30 42064 H 4103.92 2.98975 -2.89114 0
M  V30 42065 H 4102.5 3.54825 -1.14691 0
M  V30 42066 N 4104.68 1.08995 1.13833 0
M  V30 42067 C 4105.91 0.845105 1.89401 0
M  V30 42068 C 4106.33 -0.59761 1.78354 0
M  V30 42069 O 4105.69 -1.4194 1.12796 0
M  V30 42070 C 4105.74 1.27937 3.37142 0
M  V30 42071 O 4104.84 0.435047 4.10099 0
M  V30 42072 H 4104.18 0.306438 0.58906 0
M  V30 42073 H 4106.71 1.45293 1.44052 0
M  V30 42074 H 4106.72 1.26284 3.87964 0
M  V30 42075 H 4105.4 2.33008 3.445 0
M  V30 42076 H 4103.98 0.515512 3.69319 0
M  V30 42077 N 4106.16 -1.30979 0.87649 0
M  V30 42078 C 4107.41 -1.96465 0.490675 0
M  V30 42079 C 4107.74 -1.69247 -0.958413 0
M  V30 42080 O 4106.99 -0.985173 -1.69094 0
M  V30 42081 C 4107.29 -3.50435 0.702142 0
M  V30 42082 C 4106.96 -3.97686 2.12501 0
M  V30 42083 C 4105.62 -4.10299 2.51412 0
M  V30 42084 C 4107.97 -4.22447 3.05267 0
M  V30 42085 C 4105.3 -4.45029 3.82317 0
M  V30 42086 C 4107.65 -4.58643 4.35695 0
M  V30 42087 C 4106.31 -4.69464 4.7451 0
M  V30 42088 H 4105.58 -0.718918 0.179551 0
M  V30 42089 H 4108.23 -1.55997 1.11072 0
M  V30 42090 H 4106.54 -3.918 -0.00100109 0
M  V30 42091 H 4108.23 -3.99163 0.383349 0
M  V30 42092 H 4104.82 -3.88369 1.81294 0
M  V30 42093 H 4109.01 -4.1219 2.76429 0
M  V30 42094 H 4104.26 -4.51605 4.12144 0
M  V30 42095 H 4108.44 -4.76754 5.07621 0
M  V30 42096 H 4106.06 -4.9613 5.75985 0
M  V30 42097 N 4107.64 -0.636582 -1.44171 0
M  V30 42098 C 4108.86 -0.148787 -2.06866 0
M  V30 42099 C 4109.29 1.16984 -1.47297 0
M  V30 42100 O 4108.65 1.7189 -0.576496 0
M  V30 42101 C 4108.7 -0.0533698 -3.60561 0
M  V30 42102 O 4107.8 0.989093 -4.00363 0
M  V30 42103 H 4107.14 -0.0872626 -0.658241 0
M  V30 42104 H 4109.67 -0.874804 -1.84955 0
M  V30 42105 H 4109.68 0.135428 -4.07775 0
M  V30 42106 H 4108.36 -1.01606 -4.03298 0
M  V30 42107 H 4106.93 0.774426 -3.6477 0
M  V30 42108 N 4109.12 1.53013 -0.377462 0
M  V30 42109 C 4110.36 2.03335 0.208417 0
M  V30 42110 C 4110.72 1.25828 1.45022 0
M  V30 42111 O 4111.92 1.66215 2.11249 0
M  V30 42112 C 4110.19 3.54141 0.481532 0
M  V30 42113 S 4111.75 4.26312 1.03939 0
M  V30 42114 H 4108.57 0.708485 0.059755 0
M  V30 42115 H 4111.17 1.88372 -0.523075 0
M  V30 42116 H 4109.88 4.08146 -0.429546 0
M  V30 42117 H 4109.41 3.73288 1.24177 0
M  V30 42118 H 4111.42 4.38479 2.32273 0
M  V30 42119 N 4110.6 0.106949 1.57237 0
M  V30 42120 C 4112.01 -0.420336 1.81907 0
M  V30 42121 C 4112.36 -1.67397 1.02335 0
M  V30 42122 O 4111.48 -2.14877 0.256285 0
M  V30 42123 C 4112.08 -0.769374 3.29949 0
M  V30 42124 C 4110.64 -1.24135 3.55341 0
M  V30 42125 C 4109.78 -0.243948 2.76225 0
M  V30 42126 H 4112.74 0.332244 1.55183 0
M  V30 42127 H 4112.76 -1.62788 3.43919 0
M  V30 42128 H 4112.27 0.143229 3.87836 0
M  V30 42129 H 4110.37 -2.17126 3.02799 0
M  V30 42130 H 4110.48 -1.195 4.63958 0
M  V30 42131 H 4108.85 -0.728532 2.44058 0
M  V30 42132 H 4109.63 0.661541 3.36866 0
M  V30 42133 N 4112.07 -1.56715 -0.166791 0
M  V30 42134 C 4113.32 -1.8189 -0.88094 0
M  V30 42135 C 4113.64 -0.684682 -1.82585 0
M  V30 42136 O 4112.91 0.295139 -1.93664 0
M  V30 42137 H 4111.49 -0.670991 -0.328299 0
M  V30 42138 H 4114.16 -1.94196 -0.165524 0
M  V30 42139 H 4113.25 -2.76103 -1.45512 0
M  V30 42140 N 4113.55 0.435497 -1.51463 0
M  V30 42141 C 4114.78 1.20716 -1.68033 0
M  V30 42142 C 4115.2 1.84968 -0.378459 0
M  V30 42143 O 4114.55 1.7079 0.643204 0
M  V30 42144 C 4114.6 2.28984 -2.7973 0
M  V30 42145 O 4114.32 1.6736 -4.04873 0
M  V30 42146 C 4115.83 3.19229 -3.07584 0
M  V30 42147 H 4113.05 0.363771 -0.563836 0
M  V30 42148 H 4115.59 0.51579 -1.97888 0
M  V30 42149 H 4113.74 2.93834 -2.52468 0
M  V30 42150 H 4114.16 2.38928 -4.66919 0
M  V30 42151 H 4115.63 3.91327 -3.89316 0
M  V30 42152 H 4116.11 3.80089 -2.20065 0
M  V30 42153 H 4116.72 2.60077 -3.36511 0
M  V30 42154 N 4115.03 1.41641 0.69106 0
M  V30 42155 C 4115.98 1.40309 1.79715 0
M  V30 42156 C 4116.96 0.276778 1.58502 0
M  V30 42157 O 4118.16 0.51779 1.69257 0
M  V30 42158 C 4115.29 1.29209 3.18056 0
M  V30 42159 C 4114.37 2.4672 3.44949 0
M  V30 42160 N 4114.76 3.72178 3.42515 0
M  V30 42161 C 4113.06 2.4063 3.75517 0
M  V30 42162 C 4113.76 4.50142 3.68439 0
M  V30 42163 N 4112.74 3.80319 3.88405 0
M  V30 42164 H 4116.54 2.35223 1.76203 0
M  V30 42165 H 4114.05 1.3576 0.891237 0
M  V30 42166 H 4116.05 1.26336 3.97297 0
M  V30 42167 H 4114.71 0.352831 3.22777 0
M  V30 42168 H 4115.72 4.05001 3.22792 0
M  V30 42169 H 4112.4 1.552 3.87581 0
M  V30 42170 H 4113.79 5.59086 3.72656 0
M  V30 42171 N 4116.51 -0.925766 1.27543 0
M  V30 42172 C 4117.75 -1.67614 1.14164 0
M  V30 42173 C 4118.09 -1.91686 -0.311437 0
M  V30 42174 O 4117.36 -1.50862 -1.22763 0
M  V30 42175 C 4117.65 -3.04149 1.92783 0
M  V30 42176 C 4117.5 -2.87306 3.46086 0
M  V30 42177 C 4118.82 -4.04508 1.73381 0
M  V30 42178 H 4115.94 -0.608299 0.416102 0
M  V30 42179 H 4118.58 -1.07417 1.56721 0
M  V30 42180 H 4116.73 -3.55533 1.56616 0
M  V30 42181 H 4118.4 -2.43025 3.92093 0
M  V30 42182 H 4116.64 -2.22608 3.72328 0
M  V30 42183 H 4117.31 -3.84212 3.9634 0
M  V30 42184 H 4119.79 -3.62142 2.0492 0
M  V30 42185 H 4118.67 -4.98027 2.30782 0
M  V30 42186 H 4118.93 -4.36804 0.682231 0
M  V30 42187 N 4117.99 -1.09597 -1.13253 0
M  V30 42188 C 4119.23 -0.842768 -1.86217 0
M  V30 42189 C 4119.59 0.620361 -1.81702 0
M  V30 42190 O 4120.79 0.989562 -2.49922 0
M  V30 42191 C 4119.06 -1.36537 -3.30291 0
M  V30 42192 S 4120.62 -1.24631 -4.20729 0
M  V30 42193 H 4117.44 -0.304766 -0.64237 0
M  V30 42194 H 4120.04 -1.39969 -1.36488 0
M  V30 42195 H 4118.75 -2.42445 -3.31132 0
M  V30 42196 H 4118.28 -0.804651 -3.85083 0
M  V30 42197 H 4120.29 -0.198385 -4.95803 0
M  V30 42198 N 4119.46 1.30512 -0.883424 0
M  V30 42199 C 4120.71 1.96493 -0.501829 0
M  V30 42200 C 4121.04 1.69586 0.946264 0
M  V30 42201 O 4120.32 0.999734 1.6684 0
M  V30 42202 C 4120.6 3.51651 -0.775467 0
M  V30 42203 C 4120.45 3.8808 -2.27407 0
M  V30 42204 C 4121.77 4.39384 -0.250931 0
M  V30 42205 H 4118.89 0.713714 -0.183799 0
M  V30 42206 H 4121.53 1.54411 -1.10713 0
M  V30 42207 H 4119.68 3.87627 -0.260285 0
M  V30 42208 H 4121.36 3.62135 -2.85754 0
M  V30 42209 H 4119.6 3.36204 -2.74134 0
M  V30 42210 H 4120.27 4.96313 -2.41615 0
M  V30 42211 H 4122.75 4.10308 -0.691858 0
M  V30 42212 H 4121.62 5.46869 -0.471733 0
M  V30 42213 H 4121.88 4.33896 0.847759 0
M  V30 42214 N 4120.94 0.644219 1.43832 0
M  V30 42215 C 4122.35 0.234813 1.85217 0
M  V30 42216 C 4122.7 -1.21668 1.5392 0
M  V30 42217 O 4121.83 -1.92749 0.983711 0
M  V30 42218 C 4122.42 0.419386 3.36194 0
M  V30 42219 C 4120.98 0.0643766 3.76345 0
M  V30 42220 C 4120.13 0.726553 2.67613 0
M  V30 42221 H 4123.08 0.848504 1.34112 0
M  V30 42222 H 4123.1 -0.337804 3.78998 0
M  V30 42223 H 4122.61 1.47588 3.58942 0
M  V30 42224 H 4120.72 -0.989876 3.59211 0
M  V30 42225 H 4120.83 0.483565 4.76653 0
M  V30 42226 H 4119.19 0.160619 2.54193 0
M  V30 42227 H 4119.98 1.7859 2.9319 0
M  V30 42228 N 4122.42 -1.52811 0.385571 0
M  V30 42229 C 4123.33 -2.3007 -0.458809 0
M  V30 42230 C 4124.35 -1.36833 -1.07483 0
M  V30 42231 O 4125.52 -1.69901 -1.08145 0
M  V30 42232 C 4122.59 -3.08975 -1.57275 0
M  V30 42233 C 4121.65 -4.17913 -0.982217 0
M  V30 42234 C 4120.88 -4.93046 -2.04307 0
M  V30 42235 O 4121.1 -4.68232 -3.25753 0
M  V30 42236 O 4120.04 -5.78486 -1.66246 0
M  V30 42237 H 4123.86 -3.03221 0.17047 0
M  V30 42238 H 4121.45 -1.48651 0.14939 0
M  V30 42239 H 4123.33 -3.58184 -2.21996 0
M  V30 42240 H 4122.01 -2.3864 -2.18706 0
M  V30 42241 H 4120.91 -3.72908 -0.298363 0
M  V30 42242 H 4122.25 -4.90471 -0.412175 0
M  V30 42243 N 4123.9 -0.115287 -1.57178 0
M  V30 42244 C 4125.31 0.241317 -1.57765 0
M  V30 42245 C 4125.51 1.66983 -1.12778 0
M  V30 42246 O 4124.57 2.39038 -0.813461 0
M  V30 42247 C 4125.88 0.0113762 -3.00698 0
M  V30 42248 C 4127.43 0.0775637 -3.12904 0
M  V30 42249 C 4127.91 -0.124637 -4.5783 0
M  V30 42250 N 4129.4 -0.0704812 -4.63146 0
M  V30 42251 C 4130.13 -0.201891 -5.73044 0
M  V30 42252 N 4129.63 -0.389264 -6.91706 0
M  V30 42253 N 4131.42 -0.141728 -5.61921 0
M  V30 42254 H 4123.57 -1.04839 -1.84723 0
M  V30 42255 H 4125.84 -0.412532 -0.853534 0
M  V30 42256 H 4125.54 -0.976055 -3.37885 0
M  V30 42257 H 4125.42 0.744882 -3.69772 0
M  V30 42258 H 4127.8 1.05552 -2.75577 0
M  V30 42259 H 4127.88 -0.687762 -2.46381 0
M  V30 42260 H 4127.53 -1.09955 -4.95855 0
M  V30 42261 H 4127.46 0.660629 -5.2244 0
M  V30 42262 H 4129.95 0.0709778 -3.77833 0
M  V30 42263 H 4130.26 -0.480501 -7.71305 0
M  V30 42264 H 4128.61 -0.425191 -6.93698 0
M  V30 42265 H 4131.8 0.00366645 -4.681 0
M  V30 42266 H 4131.97 -0.247584 -6.47527 0
M  V30 42267 N 4125.38 1.56801 0.158477 0
M  V30 42268 C 4126.62 1.83877 0.869538 0
M  V30 42269 C 4126.98 0.697666 1.79305 0
M  V30 42270 O 4126.27 -0.305122 1.89155 0
M  V30 42271 C 4126.47 3.14886 1.69061 0
M  V30 42272 C 4126.29 4.4163 0.848093 0
M  V30 42273 C 4125.06 5.02636 0.518167 0
M  V30 42274 C 4127.26 5.13972 0.183705 0
M  V30 42275 N 4125.24 6.12962 -0.339149 0
M  V30 42276 C 4126.62 6.17694 -0.53423 0
M  V30 42277 C 4128.67 4.97793 0.103192 0
M  V30 42278 C 4127.37 7.0699 -1.32506 0
M  V30 42279 C 4129.4 5.87543 -0.674341 0
M  V30 42280 C 4128.76 6.90738 -1.3806 0
M  V30 42281 H 4124.86 0.723657 0.296386 0
M  V30 42282 H 4127.44 1.94227 0.135648 0
M  V30 42283 H 4125.62 3.05704 2.39582 0
M  V30 42284 H 4127.35 3.2991 2.34396 0
M  V30 42285 H 4124.1 4.65887 0.851271 0
M  V30 42286 H 4124.53 6.72738 -0.758493 0
M  V30 42287 H 4129.17 4.18006 0.634863 0
M  V30 42288 H 4126.89 7.86213 -1.86803 0
M  V30 42289 H 4130.47 5.77094 -0.738477 0
M  V30 42290 H 4129.35 7.58985 -1.97259 0
M  V30 42291 N 4126.86 -0.427458 1.51692 0
M  V30 42292 C 4127.79 -1.52676 1.7667 0
M  V30 42293 C 4128.77 -1.5852 0.616893 0
M  V30 42294 O 4129.95 -1.74089 0.860626 0
M  V30 42295 C 4127.08 -2.9067 1.90075 0
M  V30 42296 C 4126.04 -2.99683 3.05571 0
M  V30 42297 C 4125.36 -4.39754 3.04172 0
M  V30 42298 C 4126.66 -2.72853 4.45363 0
M  V30 42299 H 4128.36 -1.32024 2.68719 0
M  V30 42300 H 4125.9 -0.633693 1.29307 0
M  V30 42301 H 4127.85 -3.67543 2.06132 0
M  V30 42302 H 4126.58 -3.12574 0.946824 0
M  V30 42303 H 4125.24 -2.25252 2.89235 0
M  V30 42304 H 4124.89 -4.5864 2.06538 0
M  V30 42305 H 4124.59 -4.46712 3.81735 0
M  V30 42306 H 4126.11 -5.18587 3.22336 0
M  V30 42307 H 4127.52 -3.39455 4.61999 0
M  V30 42308 H 4125.92 -2.9121 5.24706 0
M  V30 42309 H 4126.99 -1.68397 4.5472 0
M  V30 42310 N 4128.33 -1.42005 -0.683539 0
M  V30 42311 C 4129.57 -1.43486 -1.45572 0
M  V30 42312 C 4129.94 -0.046425 -1.91944 0
M  V30 42313 O 4131.14 0.0640166 -2.68724 0
M  V30 42314 C 4129.41 -2.42355 -2.62676 0
M  V30 42315 S 4130.97 -2.62465 -3.5165 0
M  V30 42316 H 4127.79 -0.508145 -0.497302 0
M  V30 42317 H 4130.39 -1.7854 -0.796483 0
M  V30 42318 H 4129.09 -3.42016 -2.26833 0
M  V30 42319 H 4128.62 -2.08696 -3.33481 0
M  V30 42320 H 4130.64 -1.90109 -4.58337 0
M  V30 42321 N 4129.81 0.918989 -1.28033 0
M  V30 42322 C 4131.09 1.64651 -1.05591 0
M  V30 42323 C 4131.47 2.0715 0.406476 0
M  V30 42324 O 4130.82 1.81245 1.3915 0
M  V30 42325 C 4131.03 2.84198 -2.02565 0
M  V30 42326 C 4132.37 3.55339 -2.3242 0
M  V30 42327 O 4133.4 2.94338 -2.00607 0
M  V30 42328 O 4132.26 4.65264 -2.86691 0
M  V30 42329 H 4129.35 0.722067 -0.403173 0
M  V30 42330 H 4131.9 0.968756 -1.39331 0
M  V30 42331 H 4130.67 2.49848 -3.0115 0
M  V30 42332 H 4130.29 3.59689 -1.69439 0
M  V30 42333 N 4131.29 1.10196 1.12671 0
M  V30 42334 C 4132.54 0.8412 1.83761 0
M  V30 42335 C 4132.86 -0.635029 1.8437 0
M  V30 42336 O 4132.13 -1.46098 1.30507 0
M  V30 42337 H 4130.71 0.308204 0.680455 0
M  V30 42338 H 4133.37 1.39172 1.36444 0
M  V30 42339 H 4132.47 1.20184 2.88032 0
M  V30 42340 N 4132.77 -1.30042 0.890333 0
M  V30 42341 C 4134.04 -1.90785 0.431344 0
M  V30 42342 C 4134.42 -1.80883 -1.08833 0
M  V30 42343 O 4133.77 -1.22949 -1.92602 0
M  V30 42344 C 4133.98 -3.3623 0.935436 0
M  V30 42345 C 4135.33 -4.13288 0.973577 0
M  V30 42346 O 4136.35 -3.45096 0.882464 0
M  V30 42347 O 4135.21 -5.35129 1.10902 0
M  V30 42348 H 4132.31 -0.816258 0.132859 0
M  V30 42349 H 4134.85 -1.38572 0.979585 0
M  V30 42350 H 4133.63 -3.37547 1.97934 0
M  V30 42351 H 4133.25 -3.95906 0.366666 0
M  V30 42352 N 4134.25 -0.651838 -1.43488 0
M  V30 42353 C 4135.19 0.0406017 -2.30764 0
M  V30 42354 C 4136.16 0.816065 -1.44671 0
M  V30 42355 O 4137.35 0.792948 -1.73542 0
M  V30 42356 C 4134.49 1.002 -3.30233 0
M  V30 42357 C 4133.6 0.222781 -4.31425 0
M  V30 42358 C 4132.74 1.17785 -5.17977 0
M  V30 42359 C 4131.77 0.388988 -6.10863 0
M  V30 42360 N 4130.91 1.29558 -6.90043 0
M  V30 42361 H 4135.75 -0.709533 -2.8943 0
M  V30 42362 H 4133.29 -0.361661 -1.42585 0
M  V30 42363 H 4135.25 1.57299 -3.8641 0
M  V30 42364 H 4133.88 1.71902 -2.73221 0
M  V30 42365 H 4132.93 -0.464476 -3.77554 0
M  V30 42366 H 4134.24 -0.390695 -4.97268 0
M  V30 42367 H 4133.39 1.81952 -5.78773 0
M  V30 42368 H 4132.13 1.82524 -4.52257 0
M  V30 42369 H 4131.14 -0.26604 -5.49156 0
M  V30 42370 H 4132.36 -0.253974 -6.78625 0
M  V30 42371 H 4130.31 1.92979 -6.26973 0
M  V30 42372 H 4130.23 0.73663 -7.52403 0
M  V30 42373 H 4131.49 1.92544 -7.55346 0
M  V30 42374 N 4135.72 1.52604 -0.39367 0
M  V30 42375 C 4137 1.94061 0.244905 0
M  V30 42376 C 4137.38 1.32945 1.63978 0
M  V30 42377 O 4136.73 0.499234 2.2298 0
M  V30 42378 C 4136.94 3.47978 0.266851 0
M  V30 42379 C 4138.29 4.2172 0.493694 0
M  V30 42380 O 4139.31 3.54507 0.346874 0
M  V30 42381 O 4138.17 5.4088 0.781735 0
M  V30 42382 H 4135.26 0.812654 0.153372 0
M  V30 42383 H 4137.81 1.63666 -0.448494 0
M  V30 42384 H 4136.58 3.84804 -0.710025 0
M  V30 42385 H 4136.2 3.84689 1.00499 0
M  V30 42386 N 4137.2 0.12362 1.57114 0
M  V30 42387 C 4138.44 -0.536289 1.97239 0
M  V30 42388 C 4138.81 -1.63552 1.00571 0
M  V30 42389 O 4140.01 -2.35466 1.29651 0
M  V30 42390 C 4138.28 -1.051 3.41597 0
M  V30 42391 S 4139.84 -1.71879 4.03737 0
M  V30 42392 H 4136.65 -0.174168 0.689338 0
M  V30 42393 H 4139.26 0.209797 1.94371 0
M  V30 42394 H 4137.96 -0.239865 4.09698 0
M  V30 42395 H 4137.49 -1.83225 3.48126 0
M  V30 42396 H 4139.51 -3.00483 3.94873 0
M  V30 42397 N 4138.68 -1.56883 -0.15016 0
M  V30 42398 C 4139.64 -1.97124 -1.16939 0
M  V30 42399 C 4140.64 -0.857377 -1.36036 0
M  V30 42400 O 4141.83 -1.12406 -1.33081 0
M  V30 42401 C 4138.96 -2.28444 -2.53033 0
M  V30 42402 H 4140.16 -2.88351 -0.824246 0
M  V30 42403 H 4137.71 -1.51268 -0.393388 0
M  V30 42404 H 4138.45 -1.39999 -2.92525 0
M  V30 42405 H 4138.23 -3.09654 -2.40534 0
M  V30 42406 H 4139.72 -2.60426 -3.26447 0
M  V30 42407 N 4140.16 0.419408 -1.51917 0
M  V30 42408 C 4141.44 1.17964 -1.56025 0
M  V30 42409 C 4141.82 2.08423 -0.335131 0
M  V30 42410 O 4141.16 2.18188 0.678692 0
M  V30 42411 C 4141.37 1.9659 -2.88363 0
M  V30 42412 C 4142.72 2.53013 -3.40983 0
M  V30 42413 O 4143.75 2.06781 -2.90034 0
M  V30 42414 O 4142.6 3.37381 -4.29926 0
M  V30 42415 H 4139.7 0.538042 -0.628045 0
M  V30 42416 H 4142.24 0.427021 -1.6424 0
M  V30 42417 H 4141.02 1.3026 -3.68982 0
M  V30 42418 H 4140.64 2.78879 -2.83394 0
M  V30 42419 N 4141.64 1.42366 0.675998 0
M  V30 42420 C 4142.88 1.42489 1.43322 0
M  V30 42421 C 4143.21 0.0418931 1.94955 0
M  V30 42422 O 4142.48 -0.919388 1.72986 0
M  V30 42423 H 4141.06 0.524545 0.531848 0
M  V30 42424 H 4143.72 1.77777 0.798836 0
M  V30 42425 H 4142.81 2.12393 2.28682 0
M  V30 42426 N 4143.11 -0.912187 1.28518 0
M  V30 42427 C 4144.08 -1.99636 1.12598 0
M  V30 42428 C 4145.08 -1.60668 0.0651731 0
M  V30 42429 O 4146.27 -1.714 0.311084 0
M  V30 42430 C 4143.4 -3.33229 0.719112 0
M  V30 42431 H 4144.59 -2.15188 2.08888 0
M  V30 42432 H 4142.15 -1.09506 1.11527 0
M  V30 42433 H 4142.88 -3.23377 -0.244479 0
M  V30 42434 H 4142.67 -3.62874 1.48543 0
M  V30 42435 H 4144.16 -4.12814 0.630418 0
M  V30 42436 N 4144.59 -1.10792 -1.12085 0
M  V30 42437 C 4145.87 -0.76458 -1.80038 0
M  V30 42438 C 4146.25 0.748394 -1.97389 0
M  V30 42439 O 4145.6 1.67596 -1.55318 0
M  V30 42440 C 4145.81 -1.51991 -3.14165 0
M  V30 42441 C 4147.16 -1.69482 -3.89308 0
M  V30 42442 O 4148.18 -1.48359 -3.23833 0
M  V30 42443 O 4147.04 -2.04533 -5.06783 0
M  V30 42444 H 4144.13 -0.27626 -0.779493 0
M  V30 42445 H 4146.68 -1.21095 -1.18887 0
M  V30 42446 H 4145.45 -2.54943 -2.9685 0
M  V30 42447 H 4145.07 -1.06665 -3.83025 0
M  V30 42448 N 4146.07 1.29568 -0.897217 0
M  V30 42449 C 4146.98 2.31541 -0.377591 0
M  V30 42450 C 4148 1.65846 0.526402 0
M  V30 42451 O 4149.17 1.97045 0.416579 0
M  V30 42452 C 4146.24 3.44514 0.388684 0
M  V30 42453 C 4145.3 4.25807 -0.546533 0
M  V30 42454 C 4144.53 5.33385 0.183267 0
M  V30 42455 O 4144.75 5.5276 1.40758 0
M  V30 42456 O 4143.69 6.00039 -0.472932 0
M  V30 42457 H 4147.51 2.77963 -1.22353 0
M  V30 42458 H 4145.1 1.33959 -0.661456 0
M  V30 42459 H 4146.98 4.13303 0.822095 0
M  V30 42460 H 4145.66 3.00205 1.21072 0
M  V30 42461 H 4144.56 3.5967 -1.02901 0
M  V30 42462 H 4145.9 4.73752 -1.33492 0
M  V30 42463 N 4147.55 0.659438 1.4314 0
M  V30 42464 C 4148.77 0.181679 2.06603 0
M  V30 42465 C 4149.2 -1.14626 1.49139 0
M  V30 42466 O 4148.56 -1.70951 0.603769 0
M  V30 42467 C 4148.6 0.110725 3.6043 0
M  V30 42468 O 4147.71 -0.925273 4.01886 0
M  V30 42469 H 4147.05 0.0977236 0.656769 0
M  V30 42470 H 4149.58 0.904118 1.8354 0
M  V30 42471 H 4149.59 -0.0705372 4.07939 0
M  V30 42472 H 4148.26 1.08009 4.0163 0
M  V30 42473 H 4146.84 -0.716296 3.65956 0
M  V30 42474 N 4149.03 -1.52393 0.401757 0
M  V30 42475 C 4150.28 -2.00915 -0.177735 0
M  V30 42476 C 4150.59 -1.29205 -1.46851 0
M  V30 42477 O 4151.79 -1.68505 -2.12881 0
M  V30 42478 C 4150.25 -3.58021 -0.367296 0
M  V30 42479 C 4149.86 -4.38641 0.910959 0
M  V30 42480 C 4151.6 -4.14796 -0.902479 0
M  V30 42481 C 4149.51 -5.87373 0.688992 0
M  V30 42482 H 4148.44 -0.750725 -0.0701959 0
M  V30 42483 H 4151.09 -1.75797 0.526071 0
M  V30 42484 H 4149.47 -3.79438 -1.13326 0
M  V30 42485 H 4150.65 -4.28986 1.6825 0
M  V30 42486 H 4148.96 -3.93147 1.37201 0
M  V30 42487 H 4151.56 -5.23587 -1.08446 0
M  V30 42488 H 4151.9 -3.7168 -1.87509 0
M  V30 42489 H 4152.43 -3.97318 -0.19577 0
M  V30 42490 H 4149.17 -6.34835 1.63295 0
M  V30 42491 H 4148.69 -5.99784 -0.0433835 0
M  V30 42492 H 4150.37 -6.46166 0.328321 0
M  V30 42493 N 4150.5 -0.131951 -1.57047 0
M  V30 42494 C 4151.47 0.799205 -2.14815 0
M  V30 42495 C 4152.47 1.1857 -1.08618 0
M  V30 42496 O 4153.66 1.10909 -1.34331 0
M  V30 42497 C 4150.79 2.0825 -2.69897 0
M  V30 42498 H 4151.98 0.296944 -2.98426 0
M  V30 42499 H 4149.54 0.117391 -1.55859 0
M  V30 42500 H 4150.27 2.62878 -1.8991 0
M  V30 42501 H 4150.06 1.81473 -3.47577 0
M  V30 42502 H 4151.55 2.74786 -3.14456 0
M  V30 42503 N 4151.98 1.5696 0.141838 0
M  V30 42504 C 4152.95 1.97741 1.15892 0
M  V30 42505 C 4153.95 0.86458 1.35579 0
M  V30 42506 O 4155.14 1.1311 1.32483 0
M  V30 42507 C 4152.27 2.29783 2.51818 0
M  V30 42508 H 4153.46 2.88784 0.808943 0
M  V30 42509 H 4151.01 1.51475 0.38536 0
M  V30 42510 H 4151.75 1.41549 2.91778 0
M  V30 42511 H 4151.53 3.10925 2.38889 0
M  V30 42512 H 4153.02 2.62154 3.25062 0
M  V30 42513 N 4153.46 -0.411345 1.52137 0
M  V30 42514 C 4154.71 -1.15621 1.65759 0
M  V30 42515 C 4155.03 -1.91085 0.388805 0
M  V30 42516 O 4154.3 -1.86606 -0.596244 0
M  V30 42517 H 4152.88 -0.429806 0.610963 0
M  V30 42518 H 4155.54 -0.469081 1.89171 0
M  V30 42519 H 4154.64 -1.87151 2.49762 0
M  V30 42520 N 4154.94 -1.42722 -0.668439 0
M  V30 42521 C 4156.18 -1.45022 -1.44042 0
M  V30 42522 C 4156.54 -0.0667806 -1.91884 0
M  V30 42523 O 4157.74 0.0355113 -2.68777 0
M  V30 42524 C 4156.02 -2.45127 -2.60091 0
M  V30 42525 S 4157.57 -2.6618 -3.48846 0
M  V30 42526 H 4154.39 -0.513391 -0.491885 0
M  V30 42527 H 4156.99 -1.79374 -0.777502 0
M  V30 42528 H 4155.7 -3.44403 -2.23192 0
M  V30 42529 H 4155.23 -2.12221 -3.31249 0
M  V30 42530 H 4157.24 -1.94959 -4.56295 0
M  V30 42531 N 4156.42 0.905358 -1.29 0
M  V30 42532 C 4157.35 2.02538 -1.16193 0
M  V30 42533 C 4158.33 1.70003 -0.0575592 0
M  V30 42534 O 4159.51 1.9276 -0.236038 0
M  V30 42535 C 4156.64 3.37193 -0.831764 0
M  V30 42536 C 4155.6 3.83919 -1.89183 0
M  V30 42537 C 4154.92 5.15634 -1.4151 0
M  V30 42538 C 4156.22 4.0486 -3.29978 0
M  V30 42539 H 4157.92 2.13511 -2.09889 0
M  V30 42540 H 4155.46 1.0259 -1.01051 0
M  V30 42541 H 4157.42 4.15048 -0.728898 0
M  V30 42542 H 4156.14 3.26296 0.140901 0
M  V30 42543 H 4154.8 3.08275 -1.98398 0
M  V30 42544 H 4154.45 5.01148 -0.43127 0
M  V30 42545 H 4154.15 5.47868 -2.124 0
M  V30 42546 H 4155.67 5.96037 -1.32563 0
M  V30 42547 H 4157.09 4.73215 -3.23636 0
M  V30 42548 H 4155.48 4.4844 -3.98776 0
M  V30 42549 H 4156.55 3.09386 -3.73374 0
M  V30 42550 N 4157.9 1.11385 1.11495 0
M  V30 42551 C 4159.13 0.883543 1.86754 0
M  V30 42552 C 4159.53 -0.570137 1.80405 0
M  V30 42553 O 4158.88 -1.40537 1.183 0
M  V30 42554 C 4158.94 1.26609 3.36467 0
M  V30 42555 C 4158.6 2.72882 3.66585 0
M  V30 42556 C 4159.6 3.71102 3.64115 0
M  V30 42557 C 4157.28 3.09514 3.95609 0
M  V30 42558 C 4159.28 5.03973 3.90244 0
M  V30 42559 C 4156.97 4.4257 4.21396 0
M  V30 42560 C 4157.96 5.39609 4.18702 0
M  V30 42561 O 4157.65 6.70268 4.43843 0
M  V30 42562 H 4157.38 0.316293 0.59744 0
M  V30 42563 H 4159.94 1.48471 1.41935 0
M  V30 42564 H 4158.17 0.60807 3.81889 0
M  V30 42565 H 4159.86 1.01169 3.9309 0
M  V30 42566 H 4160.62 3.44146 3.41743 0
M  V30 42567 H 4156.5 2.34601 3.96842 0
M  V30 42568 H 4160.05 5.79705 3.88057 0
M  V30 42569 H 4155.94 4.6926 4.43244 0
M  V30 42570 H 4156.71 6.76047 4.61413 0
M  V30 42571 N 4159.37 -1.2909 0.904076 0
M  V30 42572 C 4160.32 -2.29556 0.375069 0
M  V30 42573 C 4161.32 -1.60957 -0.528118 0
M  V30 42574 O 4162.52 -1.75258 -0.410434 0
M  V30 42575 H 4158.9 -0.744958 0.10267 0
M  V30 42576 H 4160.87 -2.71613 1.23568 0
M  V30 42577 C 4159.62 -3.45635 -0.37839 0
M  V30 42578 H 4158.94 -3.98617 0.307373 0
M  V30 42579 H 4160.38 -4.17956 -0.713331 0
M  V30 42580 C 4158.84 -2.9741 -1.58269 0
M  V30 42581 O 4159.37 -2.99057 -2.68193 0
M  V30 42582 N 4157.57 -2.53187 -1.42635 0
M  V30 42583 H 4157.12 -2.52045 -0.53206 0
M  V30 42584 H 4157.08 -2.21279 -2.23344 0
M  V30 42585 N 4160.85 -0.66702 -1.42789 0
M  V30 42586 C 4162.08 -0.192633 -2.06503 0
M  V30 42587 C 4162.5 1.13833 -1.49745 0
M  V30 42588 O 4161.86 1.70629 -0.612827 0
M  V30 42589 C 4161.91 -0.129838 -3.60366 0
M  V30 42590 O 4161.01 0.903947 -4.02371 0
M  V30 42591 H 4160.35 -0.101205 -0.656242 0
M  V30 42592 H 4162.88 -0.913839 -1.83058 0
M  V30 42593 H 4162.89 0.0489022 -4.07971 0
M  V30 42594 H 4161.57 -1.10137 -4.01052 0
M  V30 42595 H 4160.14 0.696879 -3.6633 0
M  V30 42596 N 4162.33 1.52178 -0.409833 0
M  V30 42597 C 4163.56 2.06239 0.165199 0
M  V30 42598 C 4163.97 1.27983 1.38802 0
M  V30 42599 O 4163.33 0.331875 1.79457 0
M  V30 42600 C 4163.38 3.57814 0.514934 0
M  V30 42601 O 4163.1 4.3311 -0.659324 0
M  V30 42602 C 4164.6 4.28295 1.14362 0
M  V30 42603 H 4161.82 0.670699 0.0200799 0
M  V30 42604 H 4164.37 1.96073 -0.58099 0
M  V30 42605 H 4162.52 3.67985 1.21102 0
M  V30 42606 H 4162.94 5.23213 -0.367218 0
M  V30 42607 H 4164.41 5.35525 1.33853 0
M  V30 42608 H 4164.89 3.84816 2.11692 0
M  V30 42609 H 4165.49 4.22494 0.487721 0
M  V30 42610 N 4163.81 0.140278 1.56974 0
M  V30 42611 C 4165.05 -0.515339 1.97797 0
M  V30 42612 C 4165.41 -1.62477 1.023 0
M  V30 42613 O 4166.61 -2.34077 1.32141 0
M  V30 42614 C 4164.88 -1.01471 3.42693 0
M  V30 42615 S 4166.44 -1.67587 4.05537 0
M  V30 42616 H 4163.26 -0.166846 0.691146 0
M  V30 42617 H 4165.86 0.230401 1.94138 0
M  V30 42618 H 4164.57 -0.196398 4.0993 0
M  V30 42619 H 4164.1 -1.79523 3.5005 0
M  V30 42620 H 4166.11 -2.96278 3.98037 0
M  V30 42621 N 4165.29 -1.57033 -0.133512 0
M  V30 42622 C 4166.56 -1.75023 -0.873297 0
M  V30 42623 C 4166.94 -0.711905 -1.98734 0
M  V30 42624 O 4166.29 0.266783 -2.26937 0
M  V30 42625 C 4166.5 -3.19542 -1.40335 0
M  V30 42626 C 4167.85 -3.81622 -1.86144 0
M  V30 42627 O 4168.87 -3.23055 -1.50047 0
M  V30 42628 O 4167.73 -4.84536 -2.52758 0
M  V30 42629 H 4164.83 -0.716113 -0.413656 0
M  V30 42630 H 4167.37 -1.69287 -0.118383 0
M  V30 42631 H 4166.14 -3.8662 -0.603382 0
M  V30 42632 H 4165.77 -3.29758 -2.22139 0
M  V30 42633 N 4166.76 0.403271 -1.52353 0
M  V30 42634 C 4168.04 1.16303 -1.57267 0
M  V30 42635 C 4168.42 2.08056 -0.357218 0
M  V30 42636 O 4167.77 2.18896 0.655512 0
M  V30 42637 C 4167.98 1.9352 -2.90432 0
M  V30 42638 C 4169.33 2.49382 -3.43648 0
M  V30 42639 O 4170.35 2.03693 -2.92211 0
M  V30 42640 O 4169.21 3.32802 -4.3348 0
M  V30 42641 H 4166.3 0.53135 -0.633716 0
M  V30 42642 H 4168.85 0.409578 -1.64683 0
M  V30 42643 H 4167.62 1.26339 -3.70343 0
M  V30 42644 H 4167.24 2.75857 -2.86336 0
M  V30 42645 N 4168.24 1.43075 0.66086 0
M  V30 42646 C 4169.66 1.26307 0.975638 0
M  V30 42647 C 4169.86 0.177276 2.00719 0
M  V30 42648 O 4168.91 -0.446852 2.48515 0
M  V30 42649 C 4170.23 2.62478 1.46717 0
M  V30 42650 C 4171.77 2.69947 1.58422 0
M  V30 42651 C 4172.25 4.06517 2.10968 0
M  V30 42652 N 4173.74 4.08543 2.18282 0
M  V30 42653 C 4174.48 5.11042 2.60045 0
M  V30 42654 N 4173.97 6.23919 3.0116 0
M  V30 42655 N 4175.76 4.98397 2.59917 0
M  V30 42656 H 4167.92 2.12389 -0.0218673 0
M  V30 42657 H 4170.18 0.94653 0.0527805 0
M  V30 42658 H 4169.88 3.42858 0.783652 0
M  V30 42659 H 4169.76 2.87352 2.44353 0
M  V30 42660 H 4172.15 1.89904 2.25877 0
M  V30 42661 H 4172.23 2.48846 0.592389 0
M  V30 42662 H 4171.87 4.87024 1.44118 0
M  V30 42663 H 4171.8 4.24978 3.10968 0
M  V30 42664 H 4174.29 3.27062 1.89312 0
M  V30 42665 H 4174.6 6.97968 3.31754 0
M  V30 42666 H 4172.95 6.27403 2.98983 0
M  V30 42667 H 4176.14 4.09283 2.27168 0
M  V30 42668 H 4176.31 5.78408 2.92143 0
M  V30 42669 N 4169.72 -0.898504 1.29478 0
M  V30 42670 C 4170.63 -2.03573 1.16598 0
M  V30 42671 C 4171.65 -1.73772 0.088959 0
M  V30 42672 O 4172.82 -1.99134 0.301263 0
M  V30 42673 C 4169.89 -3.3625 0.844804 0
M  V30 42674 C 4168.95 -3.79561 2.00579 0
M  V30 42675 C 4168.18 -5.05906 1.69984 0
M  V30 42676 O 4168.4 -5.67006 0.621346 0
M  V30 42677 O 4167.34 -5.45299 2.54819 0
M  V30 42678 H 4171.16 -2.17363 2.12102 0
M  V30 42679 H 4168.75 -1.02235 1.08942 0
M  V30 42680 H 4170.63 -4.15872 0.680302 0
M  V30 42681 H 4169.31 -3.236 -0.0804371 0
M  V30 42682 H 4168.21 -3.007 2.22554 0
M  V30 42683 H 4169.55 -3.96796 2.91228 0
M  V30 42684 N 4171.2 -1.11974 -1.10903 0
M  V30 42685 C 4172.45 -0.872051 -1.82761 0
M  V30 42686 C 4172.77 0.602215 -1.84942 0
M  V30 42687 O 4172.03 1.46091 -1.30215 0
M  V30 42688 C 4172.33 -1.38587 -3.29437 0
M  V30 42689 C 4171.99 -2.87433 -3.47409 0
M  V30 42690 C 4170.66 -3.28077 -3.52022 0
M  V30 42691 C 4173.01 -3.83272 -3.53202 0
M  V30 42692 C 4170.34 -4.63275 -3.5999 0
M  V30 42693 C 4172.69 -5.18295 -3.62703 0
M  V30 42694 C 4171.35 -5.58488 -3.65578 0
M  V30 42695 H 4170.62 -0.319106 -0.668769 0
M  V30 42696 H 4173.27 -1.3991 -1.30757 0
M  V30 42697 H 4171.57 -0.779172 -3.83974 0
M  V30 42698 H 4173.27 -1.17049 -3.83537 0
M  V30 42699 H 4169.86 -2.54996 -3.44492 0
M  V30 42700 H 4174.04 -3.52969 -3.48894 0
M  V30 42701 H 4169.3 -4.93815 -3.60495 0
M  V30 42702 H 4173.47 -5.92387 -3.66129 0
M  V30 42703 H 4171.1 -6.63241 -3.71505 0
M  V30 42704 N 4172.68 1.28609 -0.910909 0
M  V30 42705 C 4173.61 2.25629 -0.341606 0
M  V30 42706 C 4174.59 1.52923 0.552568 0
M  V30 42707 O 4175.77 1.81834 0.496862 0
M  V30 42708 C 4172.9 3.34808 0.511971 0
M  V30 42709 C 4171.94 4.25325 -0.316431 0
M  V30 42710 S 4172.78 5.07079 -1.72137 0
M  V30 42711 C 4173.93 6.19753 -0.875017 0
M  V30 42712 H 4174.17 2.73569 -1.16393 0
M  V30 42713 H 4171.7 1.37005 -0.711975 0
M  V30 42714 H 4173.66 3.98168 0.998637 0
M  V30 42715 H 4172.32 2.8554 1.30865 0
M  V30 42716 H 4171.51 5.02878 0.336116 0
M  V30 42717 H 4171.11 3.66674 -0.736647 0
M  V30 42718 H 4173.41 6.77421 -0.103388 0
M  V30 42719 H 4174.35 6.89249 -1.623 0
M  V30 42720 H 4174.76 5.62902 -0.424446 0
M  V30 42721 N 4174.15 0.674583 1.42433 0
M  V30 42722 C 4175.39 0.200637 2.03413 0
M  V30 42723 C 4175.76 -1.17063 1.52185 0
M  V30 42724 O 4176.96 -1.73922 2.0495 0
M  V30 42725 C 4175.23 0.233278 3.56638 0
M  V30 42726 S 4176.79 -0.169698 4.38472 0
M  V30 42727 H 4173.61 0.0825151 0.706196 0
M  V30 42728 H 4176.21 0.887688 1.74185 0
M  V30 42729 H 4174.91 1.23364 3.9142 0
M  V30 42730 H 4174.44 -0.473615 3.90539 0
M  V30 42731 H 4176.46 -1.40311 4.75949 0
M  V30 42732 N 4175.63 -1.51958 0.417898 0
M  V30 42733 C 4176.56 -2.24961 -0.438775 0
M  V30 42734 C 4177.58 -1.28248 -1.00281 0
M  V30 42735 O 4178.77 -1.54135 -0.900261 0
M  V30 42736 C 4175.87 -2.97473 -1.62366 0
M  V30 42737 C 4175.04 -4.21128 -1.18196 0
M  V30 42738 C 4174.1 -4.76388 -2.23475 0
M  V30 42739 O 4173.12 -5.3874 -1.83706 0
M  V30 42740 N 4174.33 -4.58723 -3.55743 0
M  V30 42741 H 4177.09 -2.99117 0.186812 0
M  V30 42742 H 4174.65 -1.60024 0.245739 0
M  V30 42743 H 4176.64 -3.31334 -2.32379 0
M  V30 42744 H 4175.21 -2.26449 -2.15499 0
M  V30 42745 H 4174.43 -3.92982 -0.309626 0
M  V30 42746 H 4175.72 -5.01412 -0.863941 0
M  V30 42747 H 4175.12 -4.09015 -3.90798 0
M  V30 42748 H 4173.68 -4.96998 -4.21706 0
M  V30 42749 N 4177.11 -0.1486 -1.56898 0
M  V30 42750 C 4178.06 0.807558 -2.18131 0
M  V30 42751 C 4179.05 1.25413 -1.13877 0
M  V30 42752 O 4180.26 1.22243 -1.32124 0
M  V30 42753 H 4176.63 0.278632 -0.698476 0
M  V30 42754 H 4178.6 0.26692 -2.97204 0
M  V30 42755 C 4177.35 2.03599 -2.81856 0
M  V30 42756 H 4176.68 1.70135 -3.61793 0
M  V30 42757 H 4178.12 2.68441 -3.28201 0
M  V30 42758 C 4176.58 2.84501 -1.80446 0
M  V30 42759 O 4177.11 3.80898 -1.27591 0
M  V30 42760 N 4175.31 2.49067 -1.49713 0
M  V30 42761 H 4174.86 1.70741 -1.92887 0
M  V30 42762 H 4174.82 3.03489 -0.821094 0
M  V30 42763 N 4178.59 1.57102 0.125182 0
M  V30 42764 C 4180 1.52257 0.478528 0
M  V30 42765 C 4180.2 0.860605 1.82197 0
M  V30 42766 O 4179.26 0.440325 2.48631 0
M  V30 42767 C 4180.57 2.97024 0.468718 0
M  V30 42768 C 4182.12 3.08081 0.552705 0
M  V30 42769 C 4182.6 4.54397 0.573345 0
M  V30 42770 N 4184.09 4.58827 0.634959 0
M  V30 42771 C 4184.82 5.69445 0.672275 0
M  V30 42772 N 4184.32 6.89576 0.66761 0
M  V30 42773 N 4186.11 5.57536 0.714815 0
M  V30 42774 H 4178.26 1.98522 -0.755156 0
M  V30 42775 H 4180.53 0.90636 -0.277876 0
M  V30 42776 H 4180.23 3.48801 -0.450643 0
M  V30 42777 H 4180.11 3.54135 1.29877 0
M  V30 42778 H 4182.49 2.56311 1.46249 0
M  V30 42779 H 4182.57 2.53976 -0.304919 0
M  V30 42780 H 4182.22 5.06811 -0.332366 0
M  V30 42781 H 4182.15 5.06308 1.44777 0
M  V30 42782 H 4184.64 3.72355 0.644978 0
M  V30 42783 H 4184.95 7.69636 0.698536 0
M  V30 42784 H 4183.3 6.92092 0.635134 0
M  V30 42785 H 4186.49 4.62595 0.715779 0
M  V30 42786 H 4186.66 6.43756 0.740429 0
M  V30 42787 N 4180.07 -0.395186 1.52565 0
M  V30 42788 C 4181 -1.50174 1.73149 0
M  V30 42789 C 4182.01 -1.50862 0.611921 0
M  V30 42790 O 4183.2 -1.54876 0.887456 0
M  V30 42791 C 4180.3 -2.89038 1.76948 0
M  V30 42792 C 4179.47 -3.12384 3.06162 0
M  V30 42793 C 4178.53 -4.31197 3.01589 0
M  V30 42794 O 4177.56 -4.27801 3.75467 0
M  V30 42795 N 4178.76 -5.37056 2.20344 0
M  V30 42796 H 4181.53 -1.32906 2.68619 0
M  V30 42797 H 4179.09 -0.584636 1.50976 0
M  V30 42798 H 4181.08 -3.6661 1.71403 0
M  V30 42799 H 4179.65 -2.99695 0.888909 0
M  V30 42800 H 4178.87 -2.22731 3.25245 0
M  V30 42801 H 4180.16 -3.24834 3.91613 0
M  V30 42802 H 4179.55 -5.42667 1.59777 0
M  V30 42803 H 4178.11 -6.13318 2.20644 0
M  V30 42804 N 4181.54 -1.43423 -0.653263 0
M  V30 42805 C 4182.78 -1.46541 -1.42496 0
M  V30 42806 C 4183.15 -0.0871287 -1.91802 0
M  V30 42807 O 4184.35 0.00700192 -2.68799 0
M  V30 42808 C 4182.62 -2.47872 -2.57476 0
M  V30 42809 S 4184.18 -2.69865 -3.46003 0
M  V30 42810 H 4181 -0.518579 -0.486412 0
M  V30 42811 H 4183.6 -1.80189 -0.758433 0
M  V30 42812 H 4182.3 -3.46751 -2.19527 0
M  V30 42813 H 4181.83 -2.15723 -3.28979 0
M  V30 42814 H 4183.85 -1.99788 -4.54202 0
M  V30 42815 N 4183.02 0.891625 -1.29953 0
M  V30 42816 C 4184.27 1.63754 -1.17761 0
M  V30 42817 C 4184.58 1.93753 0.268197 0
M  V30 42818 O 4185.79 2.66637 0.511548 0
M  V30 42819 C 4184.25 2.95104 -2.06013 0
M  V30 42820 C 4183.85 2.72671 -3.55464 0
M  V30 42821 C 4185.6 3.73051 -2.02566 0
M  V30 42822 C 4183.51 3.99797 -4.35794 0
M  V30 42823 H 4182.44 0.614342 -0.43715 0
M  V30 42824 H 4185.09 0.987666 -1.54653 0
M  V30 42825 H 4183.47 3.61348 -1.61998 0
M  V30 42826 H 4184.64 2.14969 -4.07584 0
M  V30 42827 H 4182.96 2.08108 -3.60666 0
M  V30 42828 H 4185.55 4.6732 -2.59838 0
M  V30 42829 H 4185.9 4.03923 -1.00755 0
M  V30 42830 H 4186.43 3.1366 -2.44668 0
M  V30 42831 H 4183.17 3.74087 -5.38274 0
M  V30 42832 H 4182.69 4.57028 -3.8844 0
M  V30 42833 H 4184.37 4.67875 -4.4688 0
M  V30 42834 N 4184.5 1.12561 1.10308 0
M  V30 42835 C 4185.91 0.895919 1.63799 0
M  V30 42836 C 4186.26 -0.569478 1.87754 0
M  V30 42837 O 4185.39 -1.4342 1.62048 0
M  V30 42838 C 4185.98 1.61986 2.97567 0
M  V30 42839 C 4184.54 1.43628 3.4792 0
M  V30 42840 C 4183.69 1.65493 2.22503 0
M  V30 42841 H 4186.64 1.2802 0.937905 0
M  V30 42842 H 4186.66 1.07166 3.65097 0
M  V30 42843 H 4186.17 2.68636 2.80101 0
M  V30 42844 H 4184.27 0.392393 3.70528 0
M  V30 42845 H 4184.39 2.19327 4.25949 0
M  V30 42846 H 4182.75 1.07912 2.3071 0
M  V30 42847 H 4183.53 2.73443 2.07566 0
M  V30 42848 N 4185.98 -1.28124 0.917717 0
M  V30 42849 C 4186.93 -2.27171 0.407668 0
M  V30 42850 C 4187.9 -1.5775 -0.520028 0
M  V30 42851 O 4189.08 -1.85625 -0.441362 0
M  V30 42852 C 4186.22 -3.43395 -0.342588 0
M  V30 42853 C 4185.33 -4.27556 0.618069 0
M  V30 42854 C 4184.47 -5.30985 -0.151031 0
M  V30 42855 C 4183.51 -6.0681 0.802983 0
M  V30 42856 N 4182.65 -7.02068 0.0671485 0
M  V30 42857 H 4187.49 -2.70176 1.25733 0
M  V30 42858 H 4185.02 -1.32865 0.631296 0
M  V30 42859 H 4186.98 -4.09579 -0.793801 0
M  V30 42860 H 4185.61 -3.01369 -1.15656 0
M  V30 42861 H 4184.66 -3.6138 1.18781 0
M  V30 42862 H 4185.97 -4.80252 1.34758 0
M  V30 42863 H 4185.13 -6.03071 -0.662623 0
M  V30 42864 H 4183.87 -4.79067 -0.913573 0
M  V30 42865 H 4182.87 -5.33572 1.32591 0
M  V30 42866 H 4184.1 -6.60818 1.56514 0
M  V30 42867 H 4182.04 -6.52494 -0.67733 0
M  V30 42868 H 4181.96 -7.52405 0.736415 0
M  V30 42869 H 4183.23 -7.78345 -0.424118 0
M  V30 42870 N 4187.46 -0.682127 -1.42073 0
M  V30 42871 C 4188.41 0.0145453 -2.27995 0
M  V30 42872 C 4189.39 0.766278 -1.41481 0
M  V30 42873 O 4190.58 0.643984 -1.64869 0
M  V30 42874 C 4187.71 0.959874 -3.29608 0
M  V30 42875 C 4186.8 0.205098 -4.23604 0
M  V30 42876 N 4187.19 -0.793947 -4.9953 0
M  V30 42877 C 4185.49 0.442504 -4.43799 0
M  V30 42878 C 4186.19 -1.24457 -5.6823 0
M  V30 42879 N 4185.16 -0.573086 -5.40571 0
M  V30 42880 H 4188.97 -0.751641 -2.84126 0
M  V30 42881 H 4186.48 -0.511812 -1.54124 0
M  V30 42882 H 4188.48 1.47401 -3.89972 0
M  V30 42883 H 4187.14 1.72581 -2.75038 0
M  V30 42884 H 4188.15 -1.17374 -5.04424 0
M  V30 42885 H 4184.83 1.18737 -4.0026 0
M  V30 42886 H 4186.22 -2.07284 -6.39127 0
M  V30 42887 N 4188.94 1.51735 -0.425951 0
M  V30 42888 C 4190.18 2.01985 0.144307 0
M  V30 42889 C 4190.51 1.31073 1.43701 0
M  V30 42890 O 4189.77 0.410775 1.9134 0
M  V30 42891 C 4190.06 3.54901 0.421901 0
M  V30 42892 C 4189.73 4.44039 -0.783618 0
M  V30 42893 C 4188.39 4.68122 -1.11425 0
M  V30 42894 C 4190.74 4.96408 -1.58836 0
M  V30 42895 C 4188.07 5.4182 -2.2505 0
M  V30 42896 C 4190.42 5.71351 -2.71552 0
M  V30 42897 C 4189.09 5.93702 -3.05082 0
M  V30 42898 H 4188.36 0.739116 0.0528057 0
M  V30 42899 H 4191.01 1.82795 -0.570816 0
M  V30 42900 H 4189.31 3.72361 1.21879 0
M  V30 42901 H 4191.01 3.91307 0.876366 0
M  V30 42902 H 4187.6 4.25483 -0.515966 0
M  V30 42903 H 4191.78 4.77695 -1.34614 0
M  V30 42904 H 4187.04 5.57342 -2.51356 0
M  V30 42905 H 4191.21 6.10922 -3.34285 0
M  V30 42906 H 4188.84 6.50589 -3.93241 0
M  V30 42907 N 4190.41 0.156919 1.56817 0
M  V30 42908 C 4191.66 -0.492429 1.96731 0
M  V30 42909 C 4191.99 -1.6386 1.04228 0
M  V30 42910 O 4191.27 -1.94307 0.0865811 0
M  V30 42911 C 4191.55 -0.989157 3.46248 0
M  V30 42912 C 4191.4 0.156198 4.49529 0
M  V30 42913 C 4192.72 -1.86766 3.98505 0
M  V30 42914 H 4189.84 -0.177525 0.7153 0
M  V30 42915 H 4192.48 0.240149 1.88476 0
M  V30 42916 H 4190.63 -1.61342 3.53413 0
M  V30 42917 H 4192.31 0.792861 4.54435 0
M  V30 42918 H 4190.55 0.813872 4.26097 0
M  V30 42919 H 4191.22 -0.233244 5.51507 0
M  V30 42920 H 4193.7 -1.34152 3.93881 0
M  V30 42921 H 4192.57 -2.18428 5.03568 0
M  V30 42922 H 4192.83 -2.80822 3.41455 0
M  V30 42923 N 4191.89 -1.57166 -0.116849 0
M  V30 42924 C 4193.13 -1.86784 -0.830121 0
M  V30 42925 C 4193.5 -0.745181 -1.76949 0
M  V30 42926 O 4194.7 -0.923188 -2.52449 0
M  V30 42927 C 4192.97 -3.21631 -1.55846 0
M  V30 42928 S 4194.53 -3.72888 -2.31301 0
M  V30 42929 H 4191.34 -0.654816 -0.277014 0
M  V30 42930 H 4193.95 -1.953 -0.0883566 0
M  V30 42931 H 4192.65 -4.0128 -0.860378 0
M  V30 42932 H 4192.18 -3.16199 -2.34056 0
M  V30 42933 H 4194.2 -3.44561 -3.5706 0
M  V30 42934 N 4193.37 0.38709 -1.52772 0
M  V30 42935 C 4194.65 1.14628 -1.58492 0
M  V30 42936 C 4195.03 2.07665 -0.379265 0
M  V30 42937 O 4194.37 2.19579 0.632259 0
M  V30 42938 C 4194.58 1.90429 -2.92469 0
M  V30 42939 C 4195.93 2.45723 -3.46273 0
M  V30 42940 O 4196.96 2.00583 -2.94355 0
M  V30 42941 O 4195.82 3.28185 -4.36986 0
M  V30 42942 H 4192.91 0.524599 -0.639316 0
M  V30 42943 H 4195.46 0.392088 -1.65108 0
M  V30 42944 H 4194.23 1.22404 -3.71662 0
M  V30 42945 H 4193.85 2.72805 -2.89246 0
M  V30 42946 N 4194.85 1.43768 0.645648 0
M  V30 42947 C 4195.8 1.45955 1.7516 0
M  V30 42948 C 4196.78 0.327064 1.57541 0
M  V30 42949 O 4197.97 0.571376 1.67524 0
M  V30 42950 C 4195.1 1.39262 3.13785 0
M  V30 42951 C 4194.19 2.5757 3.36925 0
M  V30 42952 N 4194.58 3.82887 3.30502 0
M  V30 42953 C 4192.88 2.52455 3.67671 0
M  V30 42954 C 4193.58 4.61635 3.53932 0
M  V30 42955 N 4192.55 3.92483 3.76109 0
M  V30 42956 H 4196.36 2.4071 1.6863 0
M  V30 42957 H 4193.87 1.38526 0.847595 0
M  V30 42958 H 4195.87 1.38912 3.93076 0
M  V30 42959 H 4194.53 0.455342 3.21491 0
M  V30 42960 H 4195.54 4.15066 3.09743 0
M  V30 42961 H 4192.22 1.67452 3.82447 0
M  V30 42962 H 4193.61 5.70659 3.5468 0
M  V30 42963 N 4196.33 -0.884721 1.30424 0
M  V30 42964 C 4197.6 -1.61793 1.0992 0
M  V30 42965 C 4197.98 -2.08155 -0.351411 0
M  V30 42966 O 4197.33 -1.8487 -1.34295 0
M  V30 42967 C 4197.54 -2.78727 2.10029 0
M  V30 42968 C 4198.89 -3.49052 2.4176 0
M  V30 42969 O 4199.91 -2.88916 2.08341 0
M  V30 42970 O 4198.77 -4.57499 2.98926 0
M  V30 42971 H 4195.87 -0.711124 0.422175 0
M  V30 42972 H 4198.41 -0.931475 1.41851 0
M  V30 42973 H 4197.18 -2.41776 3.07669 0
M  V30 42974 H 4196.81 -3.5507 1.78916 0
M  V30 42975 N 4197.8 -1.13144 -1.09709 0
M  V30 42976 C 4199.22 -0.869046 -1.33865 0
M  V30 42977 C 4199.42 0.496935 -1.95276 0
M  V30 42978 O 4198.48 1.24407 -2.19725 0
M  V30 42979 C 4199.79 -1.99137 -2.25311 0
M  V30 42980 C 4201.34 -2.02312 -2.38828 0
M  V30 42981 C 4201.81 -3.13799 -3.33608 0
M  V30 42982 N 4203.3 -3.1329 -3.41179 0
M  V30 42983 C 4204.04 -3.96194 -4.14509 0
M  V30 42984 N 4203.53 -4.89105 -4.9066 0
M  V30 42985 N 4205.33 -3.84304 -4.10204 0
M  V30 42986 H 4197.48 -2.01146 -0.682207 0
M  V30 42987 H 4199.74 -0.875734 -0.363035 0
M  V30 42988 H 4199.45 -2.97608 -1.87409 0
M  V30 42989 H 4199.32 -1.903 -3.25677 0
M  V30 42990 H 4201.71 -1.04456 -2.75994 0
M  V30 42991 H 4201.79 -2.15222 -1.3825 0
M  V30 42992 H 4201.43 -4.11893 -2.97165 0
M  V30 42993 H 4201.36 -2.98127 -4.34083 0
M  V30 42994 H 4203.85 -2.45987 -2.86878 0
M  V30 42995 H 4204.17 -5.48858 -5.44035 0
M  V30 42996 H 4202.51 -4.93114 -4.89759 0
M  V30 42997 H 4205.7 -3.11048 -3.4981 0
M  V30 42998 H 4205.88 -4.49143 -4.67092 0
M  V30 42999 N 4199.28 1.27635 -0.924498 0
M  V30 43000 C 4200.56 1.89574 -0.481775 0
M  V30 43001 C 4200.94 1.83705 1.03998 0
M  V30 43002 O 4200.29 1.28013 1.89275 0
M  V30 43003 C 4200.5 3.33632 -1.02425 0
M  V30 43004 C 4201.85 4.10561 -1.08281 0
M  V30 43005 O 4202.87 3.42635 -0.97365 0
M  V30 43006 O 4201.73 5.32 -1.25051 0
M  V30 43007 H 4198.82 0.812449 -0.154454 0
M  V30 43008 H 4201.37 1.35926 -1.01598 0
M  V30 43009 H 4200.14 3.3218 -2.06814 0
M  V30 43010 H 4199.76 3.94794 -0.471504 0
M  V30 43011 N 4200.76 0.689652 1.41709 0
M  V30 43012 C 4202 0.2222 2.03189 0
M  V30 43013 C 4202.36 -1.15442 1.53418 0
M  V30 43014 O 4203.57 -1.71738 2.06784 0
M  V30 43015 C 4201.84 0.271091 3.5637 0
M  V30 43016 S 4203.4 -0.123183 4.38627 0
M  V30 43017 H 4200.21 0.0900006 0.705281 0
M  V30 43018 H 4202.82 0.906112 1.73234 0
M  V30 43019 H 4201.52 1.27509 3.90089 0
M  V30 43020 H 4201.05 -0.432166 3.91019 0
M  V30 43021 H 4203.07 -1.35256 4.7741 0
M  V30 43022 N 4202.24 -1.51507 0.433991 0
M  V30 43023 C 4203.2 -2.26235 -0.367465 0
M  V30 43024 C 4204.2 -1.29549 -0.95256 0
M  V30 43025 O 4205.39 -1.53289 -0.827536 0
M  V30 43026 C 4202.52 -3.05158 -1.51959 0
M  V30 43027 H 4203.72 -2.9852 0.287402 0
M  V30 43028 H 4201.27 -1.55176 0.187079 0
M  V30 43029 H 4202 -2.37282 -2.2106 0
M  V30 43030 H 4201.79 -3.76171 -1.10626 0
M  V30 43031 H 4203.28 -3.61773 -2.08591 0
M  V30 43032 N 4203.72 -0.165233 -1.56731 0
M  V30 43033 C 4204.99 0.527311 -1.88358 0
M  V30 43034 C 4205.37 1.81728 -1.07415 0
M  V30 43035 O 4204.72 2.27894 -0.166276 0
M  V30 43036 C 4204.93 0.775115 -3.40284 0
M  V30 43037 C 4206.28 1.10782 -4.09893 0
M  V30 43038 O 4207.3 0.86386 -3.45566 0
M  V30 43039 O 4206.16 1.56777 -5.23529 0
M  V30 43040 H 4203.26 0.271083 -0.781309 0
M  V30 43041 H 4205.8 -0.203213 -1.68479 0
M  V30 43042 H 4204.57 -0.137069 -3.9106 0
M  V30 43043 H 4204.2 1.55917 -3.65753 0
M  V30 43044 N 4205.19 1.57226 0.108512 0
M  V30 43045 C 4206.44 1.85034 0.812826 0
M  V30 43046 C 4206.76 0.751976 1.79918 0
M  V30 43047 O 4206.03 -0.223059 1.94626 0
M  V30 43048 H 4204.61 0.682713 0.303169 0
M  V30 43049 H 4207.28 1.94676 0.0933357 0
M  V30 43050 H 4206.37 2.81313 1.35164 0
M  V30 43051 N 4206.67 -0.378982 1.52975 0
M  V30 43052 C 4207.9 -1.14846 1.727 0
M  V30 43053 C 4208.32 -1.82666 0.448846 0
M  V30 43054 O 4207.68 -1.71218 -0.596152 0
M  V30 43055 C 4207.73 -2.16461 2.88404 0
M  V30 43056 O 4206.83 -3.23262 2.56077 0
M  V30 43057 H 4206.17 -0.333868 0.573958 0
M  V30 43058 H 4208.7 -0.440208 1.99808 0
M  V30 43059 H 4208.71 -2.60289 3.14187 0
M  V30 43060 H 4207.39 -1.66487 3.81123 0
M  V30 43061 H 4205.97 -2.84501 2.41068 0
M  V30 43062 N 4208.15 -1.44108 -0.638015 0
M  V30 43063 C 4209.43 -1.37004 -1.39604 0
M  V30 43064 C 4209.81 -0.0253349 -2.11085 0
M  V30 43065 O 4209.16 0.991835 -2.05852 0
M  V30 43066 C 4209.37 -2.56358 -2.36816 0
M  V30 43067 C 4210.71 -3.00118 -3.00357 0
M  V30 43068 O 4211.74 -2.56513 -2.47142 0
M  V30 43069 O 4210.6 -3.75703 -3.96874 0
M  V30 43070 H 4207.69 -0.542197 -0.624461 0
M  V30 43071 H 4210.24 -1.56185 -0.663647 0
M  V30 43072 H 4209.01 -3.45845 -1.83048 0
M  V30 43073 H 4208.63 -2.39355 -3.17482 0
M  V30 43074 N 4209.63 0.877792 -1.30891 0
M  V30 43075 C 4210.54 2.01692 -1.19822 0
M  V30 43076 C 4211.55 1.73609 -0.116593 0
M  V30 43077 O 4212.73 1.9863 -0.332906 0
M  V30 43078 C 4209.8 3.34863 -0.898192 0
M  V30 43079 C 4208.86 3.76322 -2.06592 0
M  V30 43080 C 4208.09 5.03138 -1.78011 0
M  V30 43081 O 4208.31 5.65945 -0.711473 0
M  V30 43082 O 4207.25 5.41176 -2.63462 0
M  V30 43083 H 4211.07 2.13961 -2.15533 0
M  V30 43084 H 4208.66 1.00489 -1.10555 0
M  V30 43085 H 4210.54 4.14737 -0.746378 0
M  V30 43086 H 4209.21 3.23687 0.0289449 0
M  V30 43087 H 4208.12 2.97121 -2.2731 0
M  V30 43088 H 4209.45 3.92113 -2.97504 0
M  V30 43089 N 4211.11 1.13725 1.09108 0
M  V30 43090 C 4212.33 0.924676 1.85646 0
M  V30 43091 C 4212.76 -0.521426 1.80728 0
M  V30 43092 O 4212.11 -1.37028 1.18714 0
M  V30 43093 C 4212.16 1.42121 3.31412 0
M  V30 43094 O 4211.27 0.608592 4.07885 0
M  V30 43095 H 4210.61 0.331146 0.575533 0
M  V30 43096 H 4213.14 1.51272 1.3776 0
M  V30 43097 H 4213.15 1.42625 3.82259 0
M  V30 43098 H 4211.82 2.4741 3.34307 0
M  V30 43099 H 4210.4 0.671689 3.66801 0
M  V30 43100 N 4212.58 -1.27143 0.931254 0
M  V30 43101 C 4214 -1.76188 0.617638 0
M  V30 43102 C 4214.35 -1.75994 -0.867208 0
M  V30 43103 O 4213.47 -1.36569 -1.67862 0
M  V30 43104 C 4214.07 -3.19947 1.11442 0
M  V30 43105 C 4212.63 -3.66644 0.851402 0
M  V30 43106 C 4211.77 -2.46452 1.27109 0
M  V30 43107 H 4214.72 -1.1336 1.11064 0
M  V30 43108 H 4214.74 -3.77664 0.463704 0
M  V30 43109 H 4214.26 -3.20056 2.19513 0
M  V30 43110 H 4212.36 -3.71977 -0.215352 0
M  V30 43111 H 4212.47 -4.55945 1.47144 0
M  V30 43112 H 4210.83 -2.45187 0.689597 0
M  V30 43113 H 4211.62 -2.49268 2.36051 0
M  V30 43114 N 4214.06 -0.697157 -1.41342 0
M  V30 43115 C 4214.97 -0.0333753 -2.34576 0
M  V30 43116 C 4215.99 0.76431 -1.56315 0
M  V30 43117 O 4217.17 0.701507 -1.88788 0
M  V30 43118 C 4214.23 0.890538 -3.35068 0
M  V30 43119 C 4213.29 0.0848801 -4.29216 0
M  V30 43120 C 4212.52 0.964789 -5.24907 0
M  V30 43121 O 4212.75 2.20428 -5.26087 0
M  V30 43122 O 4211.68 0.413619 -6.00477 0
M  V30 43123 H 4215.51 -0.801944 -2.92921 0
M  V30 43124 H 4213.09 -0.457503 -1.42223 0
M  V30 43125 H 4214.97 1.42029 -3.96744 0
M  V30 43126 H 4213.65 1.63857 -2.79164 0
M  V30 43127 H 4212.56 -0.489512 -3.70884 0
M  V30 43128 H 4213.89 -0.624523 -4.88222 0
M  V30 43129 N 4215.54 1.51274 -0.44202 0
M  V30 43130 C 4216.78 2.04036 0.121988 0
M  V30 43131 C 4217.15 1.31866 1.39554 0
M  V30 43132 O 4218.35 1.75025 2.04009 0
M  V30 43133 C 4216.62 3.55865 0.330895 0
M  V30 43134 S 4218.18 4.30337 0.857636 0
M  V30 43135 H 4214.99 0.710381 0.029652 0
M  V30 43136 H 4217.6 1.85984 -0.602499 0
M  V30 43137 H 4216.3 4.05957 -0.602268 0
M  V30 43138 H 4215.83 3.78218 1.08233 0
M  V30 43139 H 4217.85 4.47936 2.13466 0
M  V30 43140 N 4217.02 0.173543 1.56642 0
M  V30 43141 C 4217.93 -0.768324 2.21662 0
M  V30 43142 C 4218.95 -1.25142 1.20894 0
M  V30 43143 O 4220.12 -1.30308 1.53563 0
M  V30 43144 C 4217.19 -1.97948 2.84636 0
M  V30 43145 C 4216.25 -1.54305 4.0061 0
M  V30 43146 C 4215.48 -2.69647 4.60572 0
M  V30 43147 O 4215.7 -3.86573 4.19425 0
M  V30 43148 O 4214.64 -2.43594 5.50405 0
M  V30 43149 H 4218.46 -0.2447 3.02713 0
M  V30 43150 H 4216.05 -0.0547584 1.493 0
M  V30 43151 H 4217.93 -2.68776 3.24557 0
M  V30 43152 H 4216.61 -2.49212 2.0658 0
M  V30 43153 H 4215.51 -0.8042 3.65354 0
M  V30 43154 H 4216.85 -1.0773 4.80266 0
M  V30 43155 N 4218.5 -1.57281 -0.100172 0
M  V30 43156 C 4219.73 -1.89756 -0.817088 0
M  V30 43157 C 4220.14 -0.764899 -1.73049 0
M  V30 43158 O 4219.48 0.272352 -1.8167 0
M  V30 43159 C 4219.54 -3.17435 -1.68747 0
M  V30 43160 C 4219.2 -4.47093 -0.946422 0
M  V30 43161 C 4220.2 -5.19153 -0.278554 0
M  V30 43162 C 4217.89 -4.93765 -0.922008 0
M  V30 43163 C 4219.88 -6.3612 0.403815 0
M  V30 43164 C 4217.57 -6.10645 -0.235851 0
M  V30 43165 C 4218.57 -6.81671 0.425888 0
M  V30 43166 O 4218.25 -7.96324 1.10105 0
M  V30 43167 H 4217.99 -0.632283 -0.239152 0
M  V30 43168 H 4220.54 -2.05231 -0.0833778 0
M  V30 43169 H 4218.77 -2.98092 -2.46329 0
M  V30 43170 H 4220.46 -3.3578 -2.28049 0
M  V30 43171 H 4221.22 -4.84139 -0.288909 0
M  V30 43172 H 4217.1 -4.38374 -1.42652 0
M  V30 43173 H 4220.65 -6.91495 0.920898 0
M  V30 43174 H 4216.54 -6.45114 -0.223325 0
M  V30 43175 H 4217.31 -8.12276 1.00743 0
M  V30 43176 N 4219.98 0.370864 -1.53174 0
M  V30 43177 C 4221.39 0.947932 -1.60845 0
M  V30 43178 C 4221.74 1.90424 -0.472561 0
M  V30 43179 O 4220.86 2.12637 0.401785 0
M  V30 43180 C 4221.46 1.72602 -2.91537 0
M  V30 43181 C 4220.02 2.25251 -3.01561 0
M  V30 43182 C 4219.16 1.06335 -2.56102 0
M  V30 43183 H 4222.11 0.149824 -1.57991 0
M  V30 43184 H 4222.14 2.5868 -2.79043 0
M  V30 43185 H 4221.65 1.02975 -3.74189 0
M  V30 43186 H 4219.75 2.98136 -2.23485 0
M  V30 43187 H 4219.86 2.53495 -4.06543 0
M  V30 43188 H 4218.23 1.42877 -2.10851 0
M  V30 43189 H 4219.01 0.38215 -3.41166 0
M  V30 43190 N 4221.45 1.44444 0.630363 0
M  V30 43191 C 4222.68 1.50751 1.4171 0
M  V30 43192 C 4223.1 0.132626 1.88334 0
M  V30 43193 O 4222.45 -0.861621 1.6088 0
M  V30 43194 C 4222.5 2.47285 2.6369 0
M  V30 43195 O 4222.23 3.79429 2.19009 0
M  V30 43196 C 4223.73 2.63064 3.56808 0
M  V30 43197 H 4220.95 0.511262 0.434571 0
M  V30 43198 H 4223.49 1.89416 0.770844 0
M  V30 43199 H 4221.65 2.11755 3.24405 0
M  V30 43200 H 4222.06 4.31554 2.98096 0
M  V30 43201 H 4223.53 3.34636 4.39002 0
M  V30 43202 H 4224.01 1.6832 4.05666 0
M  V30 43203 H 4224.62 2.99499 3.01961 0
M  V30 43204 N 4222.93 -0.870838 1.31355 0
M  V30 43205 C 4224.17 -1.63782 1.2229 0
M  V30 43206 C 4224.54 -1.90783 -0.215809 0
M  V30 43207 O 4225.74 -2.65339 -0.429942 0
M  V30 43208 C 4224.01 -2.93277 2.04262 0
M  V30 43209 S 4225.57 -3.84162 2.12049 0
M  V30 43210 H 4222.38 -0.561963 0.435567 0
M  V30 43211 H 4224.99 -1.03256 1.66008 0
M  V30 43212 H 4223.69 -2.71362 3.07881 0
M  V30 43213 H 4223.22 -3.58829 1.61261 0
M  V30 43214 H 4225.24 -4.79984 1.25818 0
M  V30 43215 N 4224.41 -1.14302 -1.08503 0
M  V30 43216 C 4225.66 -0.908822 -1.80513 0
M  V30 43217 C 4225.98 0.566164 -1.866 0
M  V30 43218 O 4225.25 1.41154 -1.35839 0
M  V30 43219 H 4223.83 -0.333246 -0.668548 0
M  V30 43220 H 4226.49 -1.4414 -1.31185 0
M  V30 43221 H 4225.59 -1.30791 -2.83373 0
M  V30 43222 N 4225.89 1.26648 -0.937984 0
M  V30 43223 C 4227.3 1.75858 -0.626973 0
M  V30 43224 C 4227.65 1.76452 0.857862 0
M  V30 43225 O 4226.77 1.37458 1.67136 0
M  V30 43226 C 4227.37 3.19352 -1.13137 0
M  V30 43227 C 4225.93 3.66188 -0.870834 0
M  V30 43228 C 4225.08 2.45775 -1.28414 0
M  V30 43229 H 4228.03 1.12769 -1.11664 0
M  V30 43230 H 4228.05 3.77413 -0.483726 0
M  V30 43231 H 4227.56 3.18887 -2.21207 0
M  V30 43232 H 4225.66 3.72086 0.195622 0
M  V30 43233 H 4225.77 4.55158 -1.4956 0
M  V30 43234 H 4224.14 2.44818 -0.70259 0
M  V30 43235 H 4224.92 2.48013 -2.3737 0
M  V30 43236 N 4227.37 0.704643 1.4097 0
M  V30 43237 C 4228.59 0.247316 2.0592 0
M  V30 43238 C 4229.02 -1.09823 1.5271 0
M  V30 43239 O 4228.37 -1.68944 0.65785 0
M  V30 43240 C 4228.42 0.225337 3.59895 0
M  V30 43241 O 4227.53 -0.796948 4.04626 0
M  V30 43242 H 4226.87 0.118569 0.653328 0
M  V30 43243 H 4229.4 0.962052 1.80571 0
M  V30 43244 H 4229.41 0.0592812 4.07957 0
M  V30 43245 H 4228.08 1.20732 3.97991 0
M  V30 43246 H 4226.66 -0.599508 3.68049 0
M  V30 43247 N 4228.84 -1.51038 0.450036 0
M  V30 43248 C 4229.75 -2.31809 -0.360816 0
M  V30 43249 C 4230.77 -1.41269 -1.01583 0
M  V30 43250 O 4231.95 -1.74335 -1.00842 0
M  V30 43251 C 4229.01 -3.15367 -1.44029 0
M  V30 43252 C 4228.07 -4.21703 -0.804082 0
M  V30 43253 C 4227.31 -5.01268 -1.83212 0
M  V30 43254 O 4227.53 -4.81627 -3.056 0
M  V30 43255 O 4226.46 -5.85016 -1.41561 0
M  V30 43256 H 4230.29 -3.02225 0.298923 0
M  V30 43257 H 4227.87 -1.47884 0.212303 0
M  V30 43258 H 4229.76 -3.67277 -2.06605 0
M  V30 43259 H 4228.43 -2.47702 -2.08388 0
M  V30 43260 H 4227.34 -3.73838 -0.139931 0
M  V30 43261 H 4228.67 -4.91778 -0.203779 0
M  V30 43262 N 4230.32 -0.181847 -1.56547 0
M  V30 43263 C 4231.57 0.460387 -1.97197 0
M  V30 43264 C 4231.9 1.62538 -1.06825 0
M  V30 43265 O 4231.15 1.95421 -0.104531 0
M  V30 43266 C 4231.45 0.975176 -3.43839 0
M  V30 43267 C 4231.12 -0.0750393 -4.50838 0
M  V30 43268 C 4229.78 -0.363647 -4.79824 0
M  V30 43269 C 4232.13 -0.787337 -5.15219 0
M  V30 43270 C 4229.46 -1.36976 -5.70486 0
M  V30 43271 C 4231.81 -1.7825 -6.06967 0
M  V30 43272 C 4230.48 -2.07845 -6.34316 0
M  V30 43273 H 4229.75 0.168467 -0.721595 0
M  V30 43274 H 4232.39 -0.276026 -1.895 0
M  V30 43275 H 4230.7 1.78961 -3.4854 0
M  V30 43276 H 4232.39 1.48127 -3.72638 0
M  V30 43277 H 4228.98 0.160075 -4.28301 0
M  V30 43278 H 4233.17 -0.577587 -4.92928 0
M  V30 43279 H 4228.42 -1.60511 -5.89954 0
M  V30 43280 H 4232.6 -2.33975 -6.55918 0
M  V30 43281 H 4230.23 -2.85953 -7.04368 0
M  V30 43282 N 4231.8 1.57332 0.09183 0
M  V30 43283 C 4233.22 1.53238 0.446124 0
M  V30 43284 C 4233.42 0.899058 1.80331 0
M  V30 43285 O 4232.47 0.492965 2.47641 0
M  V30 43286 C 4233.79 2.97952 0.405609 0
M  V30 43287 C 4235.33 3.09184 0.487232 0
M  V30 43288 C 4235.81 4.55511 0.476832 0
M  V30 43289 N 4237.3 4.60071 0.537492 0
M  V30 43290 C 4238.03 5.70743 0.551336 0
M  V30 43291 N 4237.53 6.90837 0.521191 0
M  V30 43292 N 4239.32 5.58927 0.596392 0
M  V30 43293 H 4231.47 1.96876 -0.797095 0
M  V30 43294 H 4233.74 0.900262 -0.297038 0
M  V30 43295 H 4233.44 3.47767 -0.524528 0
M  V30 43296 H 4233.32 3.5681 1.22336 0
M  V30 43297 H 4235.7 2.59356 1.40779 0
M  V30 43298 H 4235.79 2.53272 -0.358722 0
M  V30 43299 H 4235.43 5.05992 -0.439794 0
M  V30 43300 H 4235.36 5.09265 1.34004 0
M  V30 43301 H 4237.85 3.7364 0.565851 0
M  V30 43302 H 4238.16 7.70945 0.535128 0
M  V30 43303 H 4236.51 6.93283 0.488188 0
M  V30 43304 H 4239.7 4.64009 0.617495 0
M  V30 43305 H 4239.87 6.45182 0.603712 0
M  V30 43306 N 4233.28 -0.362736 1.53369 0
M  V30 43307 C 4234.52 -1.11373 1.71392 0
M  V30 43308 C 4234.88 -1.86472 0.457418 0
M  V30 43309 O 4236.08 -2.63832 0.514387 0
M  V30 43310 C 4234.35 -2.04521 2.93097 0
M  V30 43311 S 4235.91 -2.87103 3.31839 0
M  V30 43312 H 4232.73 -0.376615 0.60306 0
M  V30 43313 H 4235.33 -0.394613 1.91476 0
M  V30 43314 H 4234.04 -1.48118 3.82739 0
M  V30 43315 H 4233.57 -2.80901 2.75423 0
M  V30 43316 H 4235.58 -4.06837 2.84075 0
M  V30 43317 N 4234.76 -1.44777 -0.622694 0
M  V30 43318 C 4235.72 -1.51923 -1.71616 0
M  V30 43319 C 4236.72 -0.400331 -1.55737 0
M  V30 43320 O 4237.91 -0.663268 -1.61079 0
M  V30 43321 C 4235.04 -1.40128 -3.10768 0
M  V30 43322 H 4236.23 -2.49334 -1.6665 0
M  V30 43323 H 4233.79 -1.31993 -0.837103 0
M  V30 43324 H 4234.52 -0.438431 -3.21323 0
M  V30 43325 H 4234.31 -2.2127 -3.23701 0
M  V30 43326 H 4235.8 -1.48129 -3.90445 0
M  V30 43327 N 4236.23 0.863859 -1.31815 0
M  V30 43328 C 4237.18 1.99304 -1.1992 0
M  V30 43329 C 4238.18 1.69068 -0.106084 0
M  V30 43330 O 4239.38 1.77988 -0.268392 0
M  V30 43331 H 4235.76 0.653843 -0.371475 0
M  V30 43332 H 4237.73 2.06466 -2.1544 0
M  V30 43333 C 4236.48 3.35041 -0.929652 0
M  V30 43334 H 4235.8 3.58832 -1.76295 0
M  V30 43335 H 4237.24 4.14626 -0.886625 0
M  V30 43336 C 4235.7 3.34888 0.367618 0
M  V30 43337 O 4236.23 3.77162 1.38246 0
M  V30 43338 N 4234.44 2.88021 0.386326 0
M  V30 43339 H 4233.98 2.53814 -0.440039 0
M  V30 43340 H 4233.94 2.88301 1.2542 0
M  V30 43341 N 4237.71 1.14875 1.07895 0
M  V30 43342 C 4238.96 0.918383 1.80028 0
M  V30 43343 C 4239.28 -0.55626 1.86898 0
M  V30 43344 O 4238.55 -1.40432 1.36586 0
M  V30 43345 H 4237.13 0.336787 0.666771 0
M  V30 43346 H 4239.79 1.44834 1.30419 0
M  V30 43347 H 4238.89 1.32292 2.82675 0
M  V30 43348 N 4239.19 -1.26148 0.944687 0
M  V30 43349 C 4240.61 -1.45873 0.647545 0
M  V30 43350 C 4240.81 -1.85022 -0.798063 0
M  V30 43351 O 4239.86 -1.97409 -1.57436 0
M  V30 43352 C 4241.18 -2.53843 1.61197 0
M  V30 43353 C 4242.72 -2.67691 1.62205 0
M  V30 43354 C 4243.2 -3.78835 2.57387 0
M  V30 43355 N 4244.69 -3.86232 2.55693 0
M  V30 43356 C 4245.42 -4.71695 3.26023 0
M  V30 43357 N 4244.92 -5.6152 4.05792 0
M  V30 43358 N 4246.71 -4.65572 3.14958 0
M  V30 43359 H 4238.86 -0.990263 1.87903 0
M  V30 43360 H 4241.13 -0.496331 0.807688 0
M  V30 43361 H 4240.83 -2.31911 2.64406 0
M  V30 43362 H 4240.71 -3.51568 1.36675 0
M  V30 43363 H 4243.09 -2.88994 0.597193 0
M  V30 43364 H 4243.18 -1.70398 1.90783 0
M  V30 43365 H 4242.82 -3.58284 3.59993 0
M  V30 43366 H 4242.75 -4.75592 2.26098 0
M  V30 43367 H 4245.24 -3.22015 1.97774 0
M  V30 43368 H 4245.55 -6.23634 4.564 0
M  V30 43369 H 4243.9 -5.61261 4.09892 0
M  V30 43370 H 4247.09 -3.94402 2.5212 0
M  V30 43371 H 4247.26 -5.31956 3.70037 0
M  V30 43372 N 4240.67 -0.712109 -1.40594 0
M  V30 43373 C 4241.91 -0.254497 -2.02809 0
M  V30 43374 C 4242.27 1.12986 -1.55236 0
M  V30 43375 O 4243.47 1.68427 -2.0949 0
M  V30 43376 C 4241.74 -0.327752 -3.55894 0
M  V30 43377 S 4243.3 0.0533853 -4.38768 0
M  V30 43378 H 4240.12 -0.10121 -0.70376 0
M  V30 43379 H 4242.72 -0.933558 -1.7177 0
M  V30 43380 H 4241.43 -1.33699 -3.88011 0
M  V30 43381 H 4240.96 0.369904 -3.91657 0
M  V30 43382 H 4242.97 1.27643 -4.79501 0
M  V30 43383 N 4242.15 1.50797 -0.45804 0
M  V30 43384 C 4243.08 2.31113 0.333023 0
M  V30 43385 C 4244.06 1.37434 1.00229 0
M  V30 43386 O 4245.24 1.66356 1.00196 0
M  V30 43387 C 4242.37 3.16816 1.42284 0
M  V30 43388 C 4241.33 4.18941 0.875919 0
M  V30 43389 C 4240.65 4.93298 2.06305 0
M  V30 43390 C 4241.95 5.22197 -0.103878 0
M  V30 43391 H 4243.65 2.97494 -0.337275 0
M  V30 43392 H 4241.19 1.43067 -0.163647 0
M  V30 43393 H 4243.15 3.71793 1.98363 0
M  V30 43394 H 4241.87 2.48295 2.12172 0
M  V30 43395 H 4240.53 3.65046 0.337199 0
M  V30 43396 H 4240.18 4.21261 2.7486 0
M  V30 43397 H 4239.88 5.62369 1.70338 0
M  V30 43398 H 4241.4 5.51105 2.62898 0
M  V30 43399 H 4242.81 5.72122 0.367292 0
M  V30 43400 H 4241.21 5.98914 -0.377153 0
M  V30 43401 H 4242.28 4.73747 -1.034 0
M  V30 43402 N 4243.63 0.190147 1.56449 0
M  V30 43403 C 4244.85 -0.458787 2.02262 0
M  V30 43404 C 4245.28 -1.5474 1.06944 0
M  V30 43405 O 4244.63 -1.81225 0.0521029 0
M  V30 43406 C 4244.68 -0.996725 3.46551 0
M  V30 43407 O 4243.79 -2.10987 3.54342 0
M  V30 43408 H 4243.13 -0.107789 0.655193 0
M  V30 43409 H 4245.66 0.299571 2.02395 0
M  V30 43410 H 4245.67 -1.31458 3.86242 0
M  V30 43411 H 4244.34 -0.199779 4.1542 0
M  V30 43412 H 4242.92 -1.80103 3.26523 0
M  V30 43413 N 4245.1 -1.57379 -0.083485 0
M  V30 43414 C 4246.33 -1.9127 -0.801914 0
M  V30 43415 C 4246.75 -0.785499 -1.70914 0
M  V30 43416 O 4246.11 0.262326 -1.79392 0
M  V30 43417 C 4246.16 -3.24072 -1.58145 0
M  V30 43418 O 4245.26 -3.1248 -2.69128 0
M  V30 43419 H 4244.6 -0.626651 -0.219555 0
M  V30 43420 H 4247.13 -2.04525 -0.0552302 0
M  V30 43421 H 4247.14 -3.57662 -1.9632 0
M  V30 43422 H 4245.82 -4.05694 -0.915723 0
M  V30 43423 H 4244.4 -2.90426 -2.33896 0
M  V30 43424 N 4246.58 0.354597 -1.53559 0
M  V30 43425 C 4248 0.696993 -1.43576 0
M  V30 43426 C 4248.2 1.92863 -0.583633 0
M  V30 43427 O 4247.25 2.52402 -0.0703251 0
M  V30 43428 C 4248.57 0.899944 -2.86917 0
M  V30 43429 C 4250.11 0.999262 -2.96621 0
M  V30 43430 C 4250.59 1.23461 -4.41046 0
M  V30 43431 N 4252.08 1.30206 -4.44523 0
M  V30 43432 C 4252.82 1.50146 -5.53393 0
M  V30 43433 N 4252.31 1.67331 -6.72289 0
M  V30 43434 N 4254.1 1.52605 -5.40988 0
M  V30 43435 H 4246.26 -0.455347 -2.07462 0
M  V30 43436 H 4248.52 -0.141722 -0.937347 0
M  V30 43437 H 4248.22 0.0666122 -3.51637 0
M  V30 43438 H 4248.1 1.80489 -3.31215 0
M  V30 43439 H 4250.49 1.82313 -2.32048 0
M  V30 43440 H 4250.57 0.0714643 -2.557 0
M  V30 43441 H 4250.21 0.415714 -5.06196 0
M  V30 43442 H 4250.14 2.1758 -4.79548 0
M  V30 43443 H 4252.63 1.18495 -3.58842 0
M  V30 43444 H 4252.94 1.82151 -7.51027 0
M  V30 43445 H 4251.29 1.64488 -6.75254 0
M  V30 43446 H 4254.48 1.38754 -4.47063 0
M  V30 43447 H 4254.65 1.67804 -6.25896 0
M  V30 43448 N 4248.06 1.45105 0.615008 0
M  V30 43449 C 4248.99 1.49211 1.73979 0
M  V30 43450 C 4250 0.383676 1.58214 0
M  V30 43451 O 4251.19 0.650326 1.66232 0
M  V30 43452 C 4248.29 1.3257 3.11895 0
M  V30 43453 C 4247.47 2.56953 3.53969 0
M  V30 43454 C 4246.53 2.34977 4.70821 0
M  V30 43455 O 4245.55 3.08552 4.78314 0
M  V30 43456 N 4246.75 1.39064 5.63597 0
M  V30 43457 H 4249.52 2.46182 1.70922 0
M  V30 43458 H 4247.08 1.4075 0.800068 0
M  V30 43459 H 4249.07 1.15691 3.87812 0
M  V30 43460 H 4247.64 0.439033 3.09502 0
M  V30 43461 H 4246.86 2.88999 2.68091 0
M  V30 43462 H 4248.15 3.39649 3.78835 0
M  V30 43463 H 4247.55 0.783297 5.60251 0
M  V30 43464 H 4246.1 1.28158 6.39076 0
M  V30 43465 N 4249.54 -0.856857 1.32271 0
M  V30 43466 C 4250.78 -1.6131 1.23898 0
M  V30 43467 C 4251.14 -1.9138 -0.197883 0
M  V30 43468 O 4250.43 -1.54362 -1.13503 0
M  V30 43469 C 4250.63 -2.94172 2.02972 0
M  V30 43470 C 4250.45 -2.77077 3.54201 0
M  V30 43471 C 4249.22 -2.75575 4.23541 0
M  V30 43472 C 4251.42 -2.50993 4.48896 0
M  V30 43473 N 4249.4 -2.49667 5.60838 0
M  V30 43474 C 4250.78 -2.34471 5.73954 0
M  V30 43475 C 4252.83 -2.36443 4.38177 0
M  V30 43476 C 4251.53 -2.04878 6.89505 0
M  V30 43477 C 4253.56 -2.0824 5.53525 0
M  V30 43478 C 4252.92 -1.92517 6.77581 0
M  V30 43479 H 4249.02 -0.594074 0.508528 0
M  V30 43480 H 4251.6 -1.00741 1.66611 0
M  V30 43481 H 4249.78 -3.52723 1.62607 0
M  V30 43482 H 4251.51 -3.5916 1.86511 0
M  V30 43483 H 4248.26 -2.88433 3.75637 0
M  V30 43484 H 4248.69 -2.39648 6.33165 0
M  V30 43485 H 4253.33 -2.4732 3.42918 0
M  V30 43486 H 4251.05 -1.92738 7.84779 0
M  V30 43487 H 4254.63 -1.97764 5.47157 0
M  V30 43488 H 4253.51 -1.71004 7.65328 0
M  V30 43489 N 4251.02 -1.15446 -1.07285 0
M  V30 43490 C 4251.93 -0.865873 -2.18036 0
M  V30 43491 C 4252.94 0.15808 -1.7328 0
M  V30 43492 O 4254.12 -0.0161604 -2.01394 0
M  V30 43493 C 4251.18 -0.360002 -3.44826 0
M  V30 43494 C 4250.24 -1.44794 -4.04145 0
M  V30 43495 C 4249.48 -0.966107 -5.24883 0
M  V30 43496 O 4249.7 0.18806 -5.7009 0
M  V30 43497 O 4248.63 -1.7501 -5.75895 0
M  V30 43498 H 4252.46 -1.79174 -2.45215 0
M  V30 43499 H 4250.04 -0.933625 -1.16635 0
M  V30 43500 H 4251.93 -0.084376 -4.21316 0
M  V30 43501 H 4250.6 0.537993 -3.19198 0
M  V30 43502 H 4249.51 -1.77717 -3.29192 0
M  V30 43503 H 4250.84 -2.32087 -4.34047 0
M  V30 43504 N 4252.49 1.25646 -0.951364 0
M  V30 43505 C 4253.73 1.95023 -0.612006 0
M  V30 43506 C 4254.1 1.72893 0.834995 0
M  V30 43507 O 4255.3 2.36162 1.28379 0
M  V30 43508 C 4253.57 3.44349 -0.957019 0
M  V30 43509 S 4255.13 4.32689 -0.729743 0
M  V30 43510 H 4251.95 0.67444 -0.22506 0
M  V30 43511 H 4254.55 1.52374 -1.22485 0
M  V30 43512 H 4253.25 3.57958 -2.00735 0
M  V30 43513 H 4252.78 3.91977 -0.334303 0
M  V30 43514 H 4254.8 4.94576 0.401085 0
M  V30 43515 N 4253.97 0.719555 1.40215 0
M  V30 43516 C 4255.25 0.187754 1.94697 0
M  V30 43517 C 4255.63 -1.30736 1.65744 0
M  V30 43518 O 4254.98 -2.06547 0.977266 0
M  V30 43519 C 4255.19 0.504751 3.45331 0
M  V30 43520 C 4256.53 0.445589 4.22255 0
M  V30 43521 O 4257.56 0.44104 3.53459 0
M  V30 43522 O 4256.42 0.426583 5.44833 0
M  V30 43523 H 4253.51 0.0290521 0.82649 0
M  V30 43524 H 4256.06 0.797359 1.49801 0
M  V30 43525 H 4254.83 1.53869 3.59778 0
M  V30 43526 H 4254.45 -0.134614 3.97372 0
M  V30 43527 N 4255.45 -1.50552 0.466031 0
M  V30 43528 C 4256.7 -2.01897 -0.0905245 0
M  V30 43529 C 4257.02 -1.35043 -1.40671 0
M  V30 43530 O 4256.29 -0.494129 -1.89566 0
M  V30 43531 H 4254.87 -0.74611 -0.0364443 0
M  V30 43532 H 4257.53 -1.84933 0.615297 0
M  V30 43533 H 4256.63 -3.11131 -0.245702 0
M  V30 43534 N 4256.93 -0.198441 -1.56346 0
M  V30 43535 C 4257.84 0.732962 -2.22856 0
M  V30 43536 C 4258.85 1.23203 -1.2287 0
M  V30 43537 O 4260.03 1.27849 -1.55617 0
M  V30 43538 C 4257.09 1.93394 -2.87749 0
M  V30 43539 C 4256.16 1.47912 -4.03014 0
M  V30 43540 C 4255.39 2.62285 -4.64803 0
M  V30 43541 O 4255.61 3.79851 -4.25522 0
M  V30 43542 O 4254.55 2.34807 -5.54211 0
M  V30 43543 H 4258.37 0.19651 -3.03064 0
M  V30 43544 H 4255.96 0.0309991 -1.49368 0
M  V30 43545 H 4257.84 2.63579 -3.28792 0
M  V30 43546 H 4256.51 2.45894 -2.10518 0
M  V30 43547 H 4255.42 0.745974 -3.66587 0
M  V30 43548 H 4256.75 1.00076 -4.81919 0
M  V30 43549 N 4258.41 1.57421 0.0751377 0
M  V30 43550 C 4259.35 2.04493 1.10839 0
M  V30 43551 C 4260.35 0.949645 1.40279 0
M  V30 43552 O 4261.55 1.13477 1.39725 0
M  V30 43553 H 4257.93 0.651966 0.374759 0
M  V30 43554 H 4259.9 2.90426 0.685206 0
M  V30 43555 C 4258.65 2.50175 2.4147 0
M  V30 43556 H 4257.97 3.34046 2.19666 0
M  V30 43557 H 4259.41 2.86868 3.12222 0
M  V30 43558 C 4257.87 1.38328 3.07192 0
M  V30 43559 O 4258.4 0.723517 3.95131 0
M  V30 43560 N 4256.61 1.12925 2.67762 0
M  V30 43561 H 4256.15 1.66757 1.96341 0
M  V30 43562 H 4256.11 0.382936 3.12059 0
M  V30 43563 N 4259.88 -0.346449 1.53745 0
M  V30 43564 C 4261.16 -1.10386 1.61476 0
M  V30 43565 C 4261.54 -2.06587 0.43419 0
M  V30 43566 O 4260.89 -2.21178 -0.573819 0
M  V30 43567 C 4261.1 -1.82608 2.97415 0
M  V30 43568 C 4262.45 -2.36456 3.52667 0
M  V30 43569 O 4263.47 -1.92708 2.9957 0
M  V30 43570 O 4262.33 -3.16484 4.45533 0
M  V30 43571 H 4259.42 -0.507464 0.653 0
M  V30 43572 H 4261.97 -0.348174 1.6609 0
M  V30 43573 H 4260.74 -1.12507 3.74777 0
M  V30 43574 H 4260.37 -2.6504 2.96377 0
M  V30 43575 N 4261.36 -1.45429 -0.607304 0
M  V30 43576 C 4262.6 -1.51001 -1.37761 0
M  V30 43577 C 4262.97 -0.148105 -1.91428 0
M  V30 43578 O 4264.17 -0.078518 -2.68685 0
M  V30 43579 C 4262.44 -2.55938 -2.4946 0
M  V30 43580 S 4264 -2.80736 -3.37243 0
M  V30 43581 H 4260.82 -0.533792 -0.469667 0
M  V30 43582 H 4263.42 -1.82511 -0.700723 0
M  V30 43583 H 4262.12 -3.53559 -2.08384 0
M  V30 43584 H 4261.65 -2.2608 -3.2195 0
M  V30 43585 H 4263.67 -2.14137 -4.47616 0
M  V30 43586 N 4262.84 0.84983 -1.32724 0
M  V30 43587 C 4263.79 1.947 -1.18642 0
M  V30 43588 C 4264.77 1.60636 -0.0920988 0
M  V30 43589 O 4265.97 1.741 -0.319096 0
M  V30 43590 C 4263.1 3.30838 -0.916586 0
M  V30 43591 C 4262.18 3.71106 -2.05283 0
M  V30 43592 N 4262.57 3.8316 -3.30185 0
M  V30 43593 C 4260.87 4.00767 -1.95708 0
M  V30 43594 C 4261.57 4.17904 -4.04637 0
M  V30 43595 N 4260.55 4.29683 -3.32977 0
M  V30 43596 H 4264.35 2.0216 -2.13328 0
M  V30 43597 H 4261.86 1.04189 -1.24573 0
M  V30 43598 H 4263.86 4.09218 -0.796648 0
M  V30 43599 H 4262.52 3.24693 0.0218487 0
M  V30 43600 H 4263.53 3.67354 -3.65064 0
M  V30 43601 H 4260.21 4.02896 -1.09456 0
M  V30 43602 H 4261.6 4.34659 -5.12368 0
M  V30 43603 N 4264.32 1.16013 1.06671 0
M  V30 43604 C 4265.6 0.849608 1.76185 0
M  V30 43605 C 4265.98 -0.653365 2.00735 0
M  V30 43606 O 4265.32 -1.59995 1.63138 0
M  V30 43607 C 4265.53 1.66807 3.06556 0
M  V30 43608 C 4266.88 1.87864 3.80779 0
M  V30 43609 O 4267.91 1.63641 3.16386 0
M  V30 43610 O 4266.76 2.28479 4.96447 0
M  V30 43611 H 4263.86 0.313136 0.765425 0
M  V30 43612 H 4266.4 1.26629 1.12974 0
M  V30 43613 H 4265.18 2.68816 2.84348 0
M  V30 43614 H 4264.8 1.24818 3.775 0
M  V30 43615 N 4265.8 -1.25139 0.958014 0
M  V30 43616 C 4266.73 -2.24972 0.438228 0
M  V30 43617 C 4267.74 -1.56522 -0.447742 0
M  V30 43618 O 4268.93 -1.76662 -0.255475 0
M  V30 43619 C 4266.03 -3.36676 -0.387585 0
M  V30 43620 C 4265.2 -4.3469 0.486186 0
M  V30 43621 C 4264.26 -5.25444 -0.281994 0
M  V30 43622 O 4263.29 -5.68295 0.320766 0
M  V30 43623 N 4264.49 -5.58748 -1.57419 0
M  V30 43624 H 4267.26 -2.70204 1.29653 0
M  V30 43625 H 4264.82 -1.3908 0.82875 0
M  V30 43626 H 4266.81 -3.94353 -0.909287 0
M  V30 43627 H 4265.38 -2.90806 -1.14676 0
M  V30 43628 H 4264.6 -3.75842 1.18896 0
M  V30 43629 H 4265.89 -4.97152 1.08245 0
M  V30 43630 H 4265.28 -5.25844 -2.08577 0
M  V30 43631 H 4263.84 -6.18995 -2.04178 0
M  V30 43632 N 4267.27 -0.726981 -1.39831 0
M  V30 43633 C 4268.5 -0.280045 -2.05501 0
M  V30 43634 C 4268.92 1.0738 -1.54438 0
M  V30 43635 O 4268.28 1.67876 -0.684645 0
M  V30 43636 C 4268.33 -0.282565 -3.59491 0
M  V30 43637 O 4267.43 0.732474 -4.05843 0
M  V30 43638 H 4266.78 -0.128948 -0.651359 0
M  V30 43639 H 4269.31 -0.990658 -1.79017 0
M  V30 43640 H 4269.32 -0.124176 -4.07811 0
M  V30 43641 H 4267.99 -1.27048 -3.9602 0
M  V30 43642 H 4266.57 0.540878 -3.68957 0
M  V30 43643 N 4268.75 1.50303 -0.474008 0
M  V30 43644 C 4270.03 1.95086 0.141693 0
M  V30 43645 C 4270.41 1.4145 1.56701 0
M  V30 43646 O 4269.76 0.616729 2.2002 0
M  V30 43647 C 4269.97 3.48904 0.0820202 0
M  V30 43648 C 4271.32 4.23744 0.269455 0
M  V30 43649 O 4272.34 3.55847 0.15847 0
M  V30 43650 O 4271.2 5.44263 0.493927 0
M  V30 43651 H 4268.29 0.819641 0.11008 0
M  V30 43652 H 4270.84 1.61059 -0.534619 0
M  V30 43653 H 4269.61 3.805 -0.913003 0
M  V30 43654 H 4269.23 3.89475 0.799663 0
M  V30 43655 N 4270.23 0.20673 1.56238 0
M  V30 43656 C 4271.14 -0.721133 2.23242 0
M  V30 43657 C 4272.16 -1.2255 1.23522 0
M  V30 43658 O 4273.33 -1.27022 1.56293 0
M  V30 43659 C 4270.4 -1.91866 2.88771 0
M  V30 43660 C 4269.46 -1.45772 4.03793 0
M  V30 43661 C 4268.69 -2.59817 4.66188 0
M  V30 43662 O 4268.91 -3.77589 4.27531 0
M  V30 43663 O 4267.85 -2.31865 5.55448 0
M  V30 43664 H 4271.67 -0.180435 3.03164 0
M  V30 43665 H 4269.26 -0.0230774 1.49382 0
M  V30 43666 H 4271.14 -2.61831 3.30185 0
M  V30 43667 H 4269.82 -2.44774 2.1182 0
M  V30 43668 H 4268.72 -0.726522 3.66977 0
M  V30 43669 H 4270.06 -0.975184 4.82443 0
M  V30 43670 N 4271.71 -1.57458 -0.0667882 0
M  V30 43671 C 4272.67 -2.03046 -1.06326 0
M  V30 43672 C 4273.67 -0.928282 -1.313 0
M  V30 43673 O 4274.86 -1.19302 -1.26936 0
M  V30 43674 C 4271.99 -2.41536 -2.40568 0
M  V30 43675 H 4273.19 -2.92315 -0.670239 0
M  V30 43676 H 4270.74 -1.53141 -0.312651 0
M  V30 43677 H 4271.47 -1.55308 -2.84692 0
M  V30 43678 H 4271.26 -3.21969 -2.23782 0
M  V30 43679 H 4272.75 -2.77364 -3.12184 0
M  V30 43680 N 4273.19 0.33829 -1.53926 0
M  V30 43681 C 4274.6 0.913601 -1.6282 0
M  V30 43682 C 4274.95 1.89379 -0.512847 0
M  V30 43683 O 4274.07 2.13442 0.356591 0
M  V30 43684 C 4274.67 1.6638 -2.95133 0
M  V30 43685 C 4273.23 2.18804 -3.06271 0
M  V30 43686 C 4272.38 1.00879 -2.583 0
M  V30 43687 H 4275.33 0.116278 -1.58273 0
M  V30 43688 H 4275.35 2.52703 -2.84467 0
M  V30 43689 H 4274.86 0.950149 -3.76289 0
M  V30 43690 H 4272.96 2.93329 -2.29758 0
M  V30 43691 H 4273.07 2.44815 -4.11828 0
M  V30 43692 H 4271.44 1.38372 -2.13834 0
M  V30 43693 H 4272.22 0.309697 -3.419 0
M  V30 43694 N 4274.67 1.45749 0.599583 0
M  V30 43695 C 4275.61 1.55031 1.70979 0
M  V30 43696 C 4276.58 0.39566 1.61319 0
M  V30 43697 O 4277.77 0.610178 1.8078 0
M  V30 43698 C 4274.91 1.53057 3.09302 0
M  V30 43699 C 4274.02 2.79133 3.2971 0
M  V30 43700 C 4273.16 2.68777 4.58184 0
M  V30 43701 C 4272.19 3.89869 4.71878 0
M  V30 43702 N 4271.33 3.77999 5.9166 0
M  V30 43703 H 4276.17 2.49872 1.62382 0
M  V30 43704 H 4273.71 1.2398 0.791665 0
M  V30 43705 H 4275.67 1.499 3.8934 0
M  V30 43706 H 4274.3 0.617616 3.16836 0
M  V30 43707 H 4273.35 2.92343 2.43392 0
M  V30 43708 H 4274.66 3.68927 3.357 0
M  V30 43709 H 4273.81 2.6363 5.46428 0
M  V30 43710 H 4272.55 1.76595 4.54605 0
M  V30 43711 H 4271.56 3.95366 3.82055 0
M  V30 43712 H 4272.78 4.83126 4.77249 0
M  V30 43713 H 4270.73 2.88592 5.8911 0
M  V30 43714 H 4270.65 4.61434 5.98844 0
M  V30 43715 H 4271.91 3.76799 6.8238 0
M  V30 43716 N 4276.14 -0.84278 1.33173 0
M  V30 43717 C 4277.09 -1.97371 1.23076 0
M  V30 43718 C 4278.09 -1.68877 0.132968 0
M  V30 43719 O 4279.29 -1.77538 0.296674 0
M  V30 43720 H 4275.67 -0.64785 0.38183 0
M  V30 43721 H 4277.64 -2.03012 2.18697 0
M  V30 43722 C 4276.39 -3.3352 0.982836 0
M  V30 43723 H 4275.71 -3.55982 1.81981 0
M  V30 43724 H 4277.15 -4.13163 0.952477 0
M  V30 43725 C 4275.61 -3.35431 -0.314293 0
M  V30 43726 O 4276.14 -3.79313 -1.32228 0
M  V30 43727 N 4274.34 -2.88599 -0.340455 0
M  V30 43728 H 4273.89 -2.53082 0.480363 0
M  V30 43729 H 4273.85 -2.9026 -1.20817 0
M  V30 43730 N 4277.62 -1.16577 -1.06054 0
M  V30 43731 C 4279.03 -0.956095 -1.60361 0
M  V30 43732 C 4279.38 0.499402 -1.89738 0
M  V30 43733 O 4278.51 1.37307 -1.67259 0
M  V30 43734 C 4279.1 -1.72918 -2.9135 0
M  V30 43735 C 4277.66 -1.56442 -3.42349 0
M  V30 43736 C 4276.81 -1.73637 -2.16207 0
M  V30 43737 H 4279.76 -1.31412 -0.889745 0
M  V30 43738 H 4279.78 -1.20642 -3.60868 0
M  V30 43739 H 4279.29 -2.78846 -2.69938 0
M  V30 43740 H 4277.39 -0.529642 -3.68816 0
M  V30 43741 H 4277.51 -2.34985 -4.17515 0
M  V30 43742 H 4275.87 -1.164 -2.26546 0
M  V30 43743 H 4276.65 -2.80959 -1.97274 0
M  V30 43744 N 4279.1 1.2463 -0.964637 0
M  V30 43745 C 4280.05 2.2324 -0.463434 0
M  V30 43746 C 4281.03 1.54395 0.452866 0
M  V30 43747 O 4282.23 1.74702 0.284287 0
M  V30 43748 C 4279.35 3.42403 0.248034 0
M  V30 43749 C 4278.44 4.185 -0.686916 0
M  V30 43750 N 4278.83 4.71811 -1.82286 0
M  V30 43751 C 4277.13 4.43221 -0.497089 0
M  V30 43752 C 4277.83 5.29546 -2.40741 0
M  V30 43753 N 4276.81 5.16568 -1.69288 0
M  V30 43754 H 4280.61 2.62074 -1.33021 0
M  V30 43755 H 4278.12 1.39981 -0.823349 0
M  V30 43756 H 4280.12 4.12199 0.624298 0
M  V30 43757 H 4278.78 3.05091 1.11129 0
M  V30 43758 H 4279.79 4.6864 -2.20447 0
M  V30 43759 H 4276.47 4.16253 0.32246 0
M  V30 43760 H 4277.86 5.81517 -3.36583 0
M  V30 43761 N 4280.58 0.734386 1.39444 0
M  V30 43762 C 4281.82 0.28673 2.02379 0
M  V30 43763 C 4282.18 -1.10502 1.57013 0
M  V30 43764 O 4283.38 -1.65073 2.12143 0
M  V30 43765 C 4281.65 0.38433 3.55328 0
M  V30 43766 S 4283.21 0.0164256 4.38797 0
M  V30 43767 H 4280.03 0.112393 0.70206 0
M  V30 43768 H 4282.63 0.960767 1.70263 0
M  V30 43769 H 4281.34 1.39855 3.85835 0
M  V30 43770 H 4280.87 -0.307548 3.92196 0
M  V30 43771 H 4282.88 -1.19999 4.81471 0
M  V30 43772 N 4282.06 -1.50049 0.481972 0
M  V30 43773 C 4283.28 -2.06793 -0.0666111 0
M  V30 43774 C 4283.7 -1.34459 -1.32537 0
M  V30 43775 O 4283.06 -0.417118 -1.77669 0
M  V30 43776 C 4283.11 -3.59863 -0.34363 0
M  V30 43777 O 4282.83 -4.29471 0.865216 0
M  V30 43778 C 4284.33 -4.33263 -0.937974 0
M  V30 43779 H 4281.55 -0.670894 0.0119429 0
M  V30 43780 H 4284.09 -1.93078 0.673877 0
M  V30 43781 H 4282.25 -3.73344 -1.03407 0
M  V30 43782 H 4282.66 -5.20865 0.616431 0
M  V30 43783 H 4284.14 -5.41302 -1.0815 0
M  V30 43784 H 4284.61 -3.94478 -1.93091 0
M  V30 43785 H 4285.22 -4.2434 -0.285588 0
M  V30 43786 N 4283.53 -0.215012 -1.56126 0
M  V30 43787 C 4284.76 0.426551 -2.02966 0
M  V30 43788 C 4285.18 1.53019 -1.09393 0
M  V30 43789 O 4284.54 1.81119 -0.0809277 0
M  V30 43790 C 4284.59 0.941466 -3.48093 0
M  V30 43791 O 4283.69 2.05323 -3.57654 0
M  V30 43792 H 4283.03 0.0973515 -0.656825 0
M  V30 43793 H 4285.56 -0.331732 -2.01893 0
M  V30 43794 H 4285.57 1.25297 -3.88284 0
M  V30 43795 H 4284.25 0.133664 -4.15685 0
M  V30 43796 H 4282.83 1.74885 -3.29347 0
M  V30 43797 N 4285.01 1.57492 0.0584368 0
M  V30 43798 C 4285.94 2.01352 1.09499 0
M  V30 43799 C 4286.96 0.921532 1.34207 0
M  V30 43800 O 4288.15 1.19926 1.32212 0
M  V30 43801 C 4285.25 2.34874 2.4431 0
M  V30 43802 C 4284.42 3.66087 2.39372 0
M  V30 43803 C 4283.48 3.87129 3.56396 0
M  V30 43804 O 4282.5 4.58555 3.37218 0
M  V30 43805 N 4283.71 3.30505 4.77228 0
M  V30 43806 H 4286.47 2.90889 0.72138 0
M  V30 43807 H 4284.03 1.60007 0.246882 0
M  V30 43808 H 4286.02 2.46112 3.21265 0
M  V30 43809 H 4284.59 1.51158 2.73624 0
M  V30 43810 H 4283.81 3.65479 1.47712 0
M  V30 43811 H 4285.1 4.52219 2.33186 0
M  V30 43812 H 4284.5 2.72555 4.95712 0
M  V30 43813 H 4283.06 3.4717 5.51649 0
M  V30 43814 N 4286.49 -0.330122 1.54104 0
M  V30 43815 C 4287.4 -1.42915 1.86045 0
M  V30 43816 C 4288.42 -1.56922 0.751767 0
M  V30 43817 O 4289.59 -1.72143 1.04541 0
M  V30 43818 C 4286.66 -2.77721 2.07538 0
M  V30 43819 C 4285.72 -2.72945 3.3136 0
M  V30 43820 C 4284.95 -4.01321 3.51819 0
M  V30 43821 O 4285.17 -4.99264 2.75846 0
M  V30 43822 O 4284.11 -4.04978 4.45282 0
M  V30 43823 H 4287.93 -1.18834 2.79485 0
M  V30 43824 H 4285.52 -0.523544 1.39926 0
M  V30 43825 H 4287.4 -3.57533 2.23043 0
M  V30 43826 H 4286.08 -3.01705 1.17286 0
M  V30 43827 H 4284.98 -1.91706 3.21247 0
M  V30 43828 H 4286.32 -2.53915 4.21649 0
M  V30 43829 N 4287.97 -1.46065 -0.591845 0
M  V30 43830 C 4288.92 -1.52355 -1.69623 0
M  V30 43831 C 4289.9 -0.385309 -1.56218 0
M  V30 43832 O 4291.09 -0.633158 -1.65288 0
M  V30 43833 C 4288.22 -1.50812 -3.084 0
M  V30 43834 C 4287.31 -2.69897 -3.27134 0
M  V30 43835 N 4287.7 -3.94889 -3.16063 0
M  V30 43836 C 4286 -2.65927 -3.58048 0
M  V30 43837 C 4286.7 -4.74453 -3.36555 0
M  V30 43838 N 4285.68 -4.06172 -3.61283 0
M  V30 43839 H 4289.48 -2.46802 -1.5958 0
M  V30 43840 H 4286.99 -1.41577 -0.795598 0
M  V30 43841 H 4288.99 -1.53405 -3.8765 0
M  V30 43842 H 4287.65 -0.574348 -3.1958 0
M  V30 43843 H 4288.66 -4.26276 -2.94125 0
M  V30 43844 H 4285.34 -1.81531 -3.75969 0
M  V30 43845 H 4286.73 -5.8343 -3.33256 0
M  V30 43846 N 4289.45 0.835705 -1.33618 0
M  V30 43847 C 4290.39 1.94575 -1.24134 0
M  V30 43848 C 4291.36 1.65671 -0.119286 0
M  V30 43849 O 4292.55 1.88457 -0.298096 0
M  V30 43850 C 4289.69 3.30603 -0.989723 0
M  V30 43851 C 4288.8 3.71883 -2.19834 0
M  V30 43852 C 4287.94 4.96796 -1.88061 0
M  V30 43853 C 4286.98 5.3062 -3.05137 0
M  V30 43854 N 4286.11 6.4671 -2.73331 0
M  V30 43855 H 4290.95 2.02018 -2.19073 0
M  V30 43856 H 4288.49 0.988526 -1.08934 0
M  V30 43857 H 4290.45 4.08977 -0.824259 0
M  V30 43858 H 4289.08 3.22708 -0.0770695 0
M  V30 43859 H 4288.13 2.89006 -2.47345 0
M  V30 43860 H 4289.44 3.92859 -3.07348 0
M  V30 43861 H 4288.6 5.82925 -1.68177 0
M  V30 43862 H 4287.33 4.77796 -0.977883 0
M  V30 43863 H 4286.34 4.42994 -3.25632 0
M  V30 43864 H 4287.56 5.51567 -3.9617 0
M  V30 43865 H 4285.51 6.29191 -1.85621 0
M  V30 43866 H 4285.43 6.67797 -3.54377 0
M  V30 43867 H 4286.7 7.35943 -2.56922 0
M  V30 43868 N 4290.92 1.17138 1.05434 0
M  V30 43869 C 4292.16 0.969047 1.79969 0
M  V30 43870 C 4292.53 -0.493717 1.85544 0
M  V30 43871 O 4293.73 -0.815046 2.56145 0
M  V30 43872 C 4292 1.58966 3.20101 0
M  V30 43873 S 4293.56 1.53318 4.11144 0
M  V30 43874 H 4290.38 0.348293 0.619849 0
M  V30 43875 H 4292.98 1.49039 1.26521 0
M  V30 43876 H 4291.68 2.6468 3.13644 0
M  V30 43877 H 4291.21 1.06802 3.78625 0
M  V30 43878 H 4293.23 0.539462 4.93259 0
M  V30 43879 N 4292.4 -1.24116 0.971232 0
M  V30 43880 C 4293.35 -2.27245 0.496224 0
M  V30 43881 C 4294.34 -1.63531 -0.442055 0
M  V30 43882 O 4295.55 -1.77187 -0.316956 0
M  V30 43883 H 4291.93 -0.738469 0.142015 0
M  V30 43884 H 4293.9 -2.64681 1.37792 0
M  V30 43885 C 4292.65 -3.47155 -0.194644 0
M  V30 43886 H 4291.97 -3.96427 0.518239 0
M  V30 43887 H 4293.41 -4.2115 -0.490779 0
M  V30 43888 C 4291.87 -3.05381 -1.42282 0
M  V30 43889 O 4292.4 -3.12853 -2.51964 0
M  V30 43890 N 4290.6 -2.60392 -1.29014 0
M  V30 43891 H 4290.15 -2.54511 -0.397708 0
M  V30 43892 H 4290.11 -2.32807 -2.11301 0
M  V30 43893 N 4293.88 -0.741771 -1.39052 0
M  V30 43894 C 4294.84 -0.114659 -2.28913 0
M  V30 43895 C 4295.84 0.660012 -1.4663 0
M  V30 43896 O 4297.03 0.488026 -1.67224 0
M  V30 43897 C 4294.17 0.846549 -3.30222 0
M  V30 43898 H 4295.36 -0.906432 -2.85874 0
M  V30 43899 H 4292.91 -0.508026 -1.47813 0
M  V30 43900 H 4293.65 1.66443 -2.78329 0
M  V30 43901 H 4293.43 0.293617 -3.90999 0
M  V30 43902 H 4294.92 1.28169 -3.97445 0
M  V30 43903 N 4295.36 1.49792 -0.489923 0
M  V30 43904 C 4296.58 2.07319 0.0578511 0
M  V30 43905 C 4297.01 1.34921 1.31064 0
M  V30 43906 O 4296.37 0.402546 1.76775 0
M  V30 43907 C 4296.41 3.59301 0.305771 0
M  V30 43908 O 4295.52 3.8853 1.38267 0
M  V30 43909 H 4294.86 0.663658 -0.0213127 0
M  V30 43910 H 4297.39 1.92744 -0.686369 0
M  V30 43911 H 4297.4 4.04402 0.540626 0
M  V30 43912 H 4296.07 4.11408 -0.609597 0
M  V30 43913 H 4294.65 3.5525 1.13365 0
M  V30 43914 N 4296.84 0.223289 1.5601 0
M  V30 43915 C 4298.06 -0.415781 2.0319 0
M  V30 43916 C 4298.49 -1.52437 1.10203 0
M  V30 43917 O 4297.84 -1.81074 0.0905317 0
M  V30 43918 C 4297.89 -0.922992 3.48587 0
M  V30 43919 O 4297 -2.03423 3.58738 0
M  V30 43920 H 4296.34 -0.0938668 0.657332 0
M  V30 43921 H 4298.87 0.342435 2.01714 0
M  V30 43922 H 4298.88 -1.23236 3.88943 0
M  V30 43923 H 4297.55 -0.111617 4.1575 0
M  V30 43924 H 4296.13 -1.73136 3.3027 0
M  V30 43925 N 4298.31 -1.5752 -0.0500839 0
M  V30 43926 C 4299.25 -2.0193 -1.0843 0
M  V30 43927 C 4300.26 -0.928637 -1.33717 0
M  V30 43928 O 4301.45 -1.20625 -1.31574 0
M  V30 43929 C 4298.55 -2.36166 -2.43061 0
M  V30 43930 C 4297.72 -3.67352 -2.37427 0
M  V30 43931 C 4296.78 -3.89013 -3.54338 0
M  V30 43932 O 4295.81 -4.60337 -3.34782 0
M  V30 43933 N 4297.01 -3.33031 -4.75469 0
M  V30 43934 H 4299.77 -2.91267 -0.705943 0
M  V30 43935 H 4297.33 -1.60135 -0.238393 0
M  V30 43936 H 4299.33 -2.47812 -3.19955 0
M  V30 43937 H 4297.9 -1.52607 -2.72818 0
M  V30 43938 H 4297.12 -3.66257 -1.45772 0
M  V30 43939 H 4298.4 -4.53449 -2.30784 0
M  V30 43940 H 4297.8 -2.7518 -4.9426 0
M  V30 43941 H 4296.36 -3.50091 -5.498 0
M  V30 43942 N 4299.79 0.321945 -1.54277 0
M  V30 43943 C 4301.04 1.0597 -1.72559 0
M  V30 43944 C 4301.37 1.87959 -0.50015 0
M  V30 43945 O 4300.62 1.88718 0.518091 0
M  V30 43946 C 4300.92 2.01133 -2.95433 0
M  V30 43947 C 4300.59 1.35285 -4.30126 0
M  V30 43948 C 4299.25 1.17058 -4.66745 0
M  V30 43949 C 4301.6 0.880382 -5.13711 0
M  V30 43950 C 4298.93 0.502351 -5.84545 0
M  V30 43951 C 4301.28 0.225968 -6.32196 0
M  V30 43952 C 4299.95 0.0315601 -6.67493 0
M  V30 43953 H 4299.22 0.387771 -0.631438 0
M  V30 43954 H 4301.86 0.336675 -1.88517 0
M  V30 43955 H 4300.17 2.79891 -2.74168 0
M  V30 43956 H 4301.86 2.58248 -3.06772 0
M  V30 43957 H 4298.45 1.50474 -4.01317 0
M  V30 43958 H 4302.64 1.00898 -4.85935 0
M  V30 43959 H 4297.89 0.340545 -6.10451 0
M  V30 43960 H 4302.07 -0.148126 -6.96242 0
M  V30 43961 H 4299.7 -0.488258 -7.5863 0
M  V30 43962 N 4301.27 1.46377 0.58409 0
M  V30 43963 C 4302.2 1.59696 1.70351 0
M  V30 43964 C 4303.18 0.447353 1.64112 0
M  V30 43965 O 4304.37 0.673426 1.8215 0
M  V30 43966 C 4301.5 1.58563 3.0899 0
M  V30 43967 C 4300.45 2.72479 3.30059 0
M  V30 43968 C 4299.78 2.56407 4.69211 0
M  V30 43969 C 4301.08 4.14313 3.18028 0
M  V30 43970 H 4302.77 2.53402 1.59461 0
M  V30 43971 H 4300.32 1.21953 0.765728 0
M  V30 43972 H 4302.27 1.66475 3.87123 0
M  V30 43973 H 4300.99 0.614005 3.20776 0
M  V30 43974 H 4299.65 2.64034 2.54326 0
M  V30 43975 H 4299.3 1.57331 4.77761 0
M  V30 43976 H 4299 3.32813 4.84261 0
M  V30 43977 H 4300.52 2.66208 5.49514 0
M  V30 43978 H 4301.94 4.23877 3.86007 0
M  V30 43979 H 4300.34 4.91295 3.446 0
M  V30 43980 H 4301.41 4.34566 2.15128 0
M  V30 43981 N 4302.75 -0.828607 1.34059 0
M  V30 43982 C 4303.99 -1.59809 1.27439 0
M  V30 43983 C 4304.35 -1.91373 -0.155004 0
M  V30 43984 O 4305.55 -2.66573 -0.345309 0
M  V30 43985 C 4303.83 -2.8663 2.13489 0
M  V30 43986 S 4305.38 -3.77221 2.24164 0
M  V30 43987 H 4302.2 -0.547821 0.453225 0
M  V30 43988 H 4304.8 -0.979221 1.69208 0
M  V30 43989 H 4303.51 -2.6143 3.16359 0
M  V30 43990 H 4303.04 -3.53517 1.72595 0
M  V30 43991 H 4305.05 -4.75738 1.41024 0
M  V30 43992 N 4304.23 -1.17696 -1.04812 0
M  V30 43993 C 4305.45 -0.99294 -1.82086 0
M  V30 43994 C 4305.88 0.45399 -1.82539 0
M  V30 43995 O 4305.24 1.32527 -1.23718 0
M  V30 43996 C 4305.28 -1.54323 -3.25909 0
M  V30 43997 O 4304.39 -0.759557 -4.05345 0
M  V30 43998 H 4303.73 -0.352278 -0.562846 0
M  V30 43999 H 4306.26 -1.56281 -1.32051 0
M  V30 44000 H 4306.27 -1.56714 -3.76702 0
M  V30 44001 H 4304.94 -2.59647 -3.24894 0
M  V30 44002 H 4303.52 -0.807362 -3.64055 0
M  V30 44003 N 4305.71 1.23599 -0.977801 0
M  V30 44004 C 4306.93 1.96523 -0.662823 0
M  V30 44005 C 4307.36 1.71927 0.763056 0
M  V30 44006 O 4306.71 0.98915 1.51939 0
M  V30 44007 C 4306.76 3.47699 -0.955901 0
M  V30 44008 O 4305.87 4.12374 -0.0465734 0
M  V30 44009 H 4305.21 0.615321 -0.249552 0
M  V30 44010 H 4307.74 1.57105 -1.31069 0
M  V30 44011 H 4307.75 3.9814 -0.891545 0
M  V30 44012 H 4306.42 3.64928 -1.995 0
M  V30 44013 H 4305 3.72534 -0.165116 0
M  V30 44014 N 4307.18 0.749135 1.38657 0
M  V30 44015 C 4308.43 0.302714 1.9982 0
M  V30 44016 C 4308.75 -1.11813 1.59759 0
M  V30 44017 O 4308.02 -1.76385 0.852355 0
M  V30 44018 H 4306.6 0.108933 0.739015 0
M  V30 44019 H 4309.26 0.962239 1.6949 0
M  V30 44020 H 4308.36 0.362309 3.0999 0
M  V30 44021 N 4308.66 -1.4953 0.49786 0
M  V30 44022 C 4310.08 -1.58859 0.153626 0
M  V30 44023 C 4310.28 -1.50341 -1.34163 0
M  V30 44024 O 4309.33 -1.37573 -2.11731 0
M  V30 44025 C 4310.65 -2.91764 0.727634 0
M  V30 44026 C 4312.19 -3.05221 0.693459 0
M  V30 44027 C 4312.67 -4.4074 1.24548 0
M  V30 44028 N 4314.16 -4.47224 1.20604 0
M  V30 44029 C 4314.9 -5.50526 1.60338 0
M  V30 44030 N 4314.39 -6.60949 2.07651 0
M  V30 44031 N 4316.18 -5.41222 1.51774 0
M  V30 44032 H 4308.34 -1.53309 1.47004 0
M  V30 44033 H 4310.6 -0.726043 0.609562 0
M  V30 44034 H 4310.3 -3.03555 1.77616 0
M  V30 44035 H 4310.18 -3.7674 0.186284 0
M  V30 44036 H 4312.57 -2.93062 -0.34622 0
M  V30 44037 H 4312.65 -2.21937 1.27192 0
M  V30 44038 H 4312.29 -4.53651 2.28392 0
M  V30 44039 H 4312.22 -5.2266 0.642982 0
M  V30 44040 H 4314.71 -3.68 0.859342 0
M  V30 44041 H 4315.02 -7.35868 2.36048 0
M  V30 44042 H 4313.37 -6.61998 2.11623 0
M  V30 44043 H 4316.56 -4.53847 1.14633 0
M  V30 44044 H 4316.73 -6.21604 1.83064 0
M  V30 44045 N 4310.14 -0.23156 -1.5589 0
M  V30 44046 C 4311.38 0.399141 -2.00465 0
M  V30 44047 C 4311.74 1.56236 -1.11599 0
M  V30 44048 O 4312.94 2.25975 -1.45564 0
M  V30 44049 C 4311.22 0.813182 -3.48026 0
M  V30 44050 S 4312.77 1.43658 -4.14618 0
M  V30 44051 H 4309.59 0.126267 -0.699698 0
M  V30 44052 H 4312.19 -0.343197 -1.92464 0
M  V30 44053 H 4310.9 -0.0429373 -4.10378 0
M  V30 44054 H 4310.43 1.58808 -3.59921 0
M  V30 44055 H 4312.44 2.72567 -4.14634 0
M  V30 44056 N 4311.62 1.57545 0.0417295 0
M  V30 44057 C 4312.86 1.88967 0.736156 0
M  V30 44058 C 4313.2 0.827728 1.75677 0
M  V30 44059 O 4312.47 -0.1587 1.93851 0
M  V30 44060 C 4312.75 3.31042 1.41714 0
M  V30 44061 C 4312.61 4.47919 0.410909 0
M  V30 44062 C 4313.93 3.71826 2.35444 0
M  V30 44063 H 4311.05 0.687263 0.266154 0
M  V30 44064 H 4313.69 1.9 -0.000985749 0
M  V30 44065 H 4311.84 3.30292 2.04546 0
M  V30 44066 H 4313.51 4.60801 -0.214514 0
M  V30 44067 H 4311.75 4.32953 -0.27103 0
M  V30 44068 H 4312.42 5.44184 0.925622 0
M  V30 44069 H 4314.9 3.73861 1.82666 0
M  V30 44070 H 4313.78 4.72067 2.80079 0
M  V30 44071 H 4314.04 3.03389 3.2157 0
M  V30 44072 N 4313.1 -0.313759 1.54445 0
M  V30 44073 C 4314.06 -1.36955 1.83782 0
M  V30 44074 C 4315.06 -1.44272 0.710079 0
M  V30 44075 O 4316.25 -1.44129 0.978384 0
M  V30 44076 C 4313.38 -2.75583 2.00666 0
M  V30 44077 H 4314.57 -1.12192 2.78124 0
M  V30 44078 H 4312.13 -0.549763 1.46312 0
M  V30 44079 H 4312.86 -3.05587 1.08569 0
M  V30 44080 H 4312.65 -2.71664 2.82739 0
M  V30 44081 H 4314.14 -3.51944 2.24777 0
M  V30 44082 N 4314.57 -1.46684 -0.576319 0
M  V30 44083 C 4315.48 -1.60329 -1.71265 0
M  V30 44084 C 4316.5 -0.486588 -1.67058 0
M  V30 44085 O 4317.68 -0.751572 -1.86851 0
M  V30 44086 C 4314.74 -1.59615 -3.07772 0
M  V30 44087 C 4313.8 -2.82566 -3.23195 0
M  V30 44088 C 4313.03 -2.81877 -4.5319 0
M  V30 44089 O 4313.26 -1.90989 -5.37475 0
M  V30 44090 O 4312.19 -3.73501 -4.71996 0
M  V30 44091 H 4316.02 -2.56442 -1.627 0
M  V30 44092 H 4313.6 -1.2955 -0.744113 0
M  V30 44093 H 4315.48 -1.61936 -3.89043 0
M  V30 44094 H 4314.16 -0.666639 -3.16761 0
M  V30 44095 H 4313.07 -2.85797 -2.41393 0
M  V30 44096 H 4314.4 -3.74748 -3.191 0
M  V30 44097 N 4316.05 0.821486 -1.34497 0
M  V30 44098 C 4317.01 1.91405 -1.26083 0
M  V30 44099 C 4318.01 1.59837 -0.175699 0
M  V30 44100 O 4319.2 1.6885 -0.428419 0
M  V30 44101 C 4316.34 3.27484 -0.946958 0
M  V30 44102 H 4317.53 2.00287 -2.23215 0
M  V30 44103 H 4315.08 1.01563 -1.18805 0
M  V30 44104 H 4315.82 3.24293 0.0211308 0
M  V30 44105 H 4315.6 3.51779 -1.73188 0
M  V30 44106 H 4317.09 4.07491 -0.9133 0
M  V30 44107 N 4317.53 1.1825 1.04186 0
M  V30 44108 C 4318.46 0.93191 2.14097 0
M  V30 44109 C 4319.44 -0.129931 1.69603 0
M  V30 44110 O 4320.63 0.0224111 1.94187 0
M  V30 44111 C 4317.76 0.455524 3.443 0
M  V30 44112 C 4316.71 1.45771 4.02411 0
M  V30 44113 C 4316.04 0.838889 5.28078 0
M  V30 44114 C 4317.34 2.83405 4.38724 0
M  V30 44115 H 4319.03 1.8511 2.35318 0
M  V30 44116 H 4316.58 0.891441 1.1309 0
M  V30 44117 H 4318.53 0.267579 4.2055 0
M  V30 44118 H 4317.25 -0.499234 3.22762 0
M  V30 44119 H 4315.91 1.63257 3.28242 0
M  V30 44120 H 4315.56 -0.123019 5.0285 0
M  V30 44121 H 4315.26 1.508 5.6792 0
M  V30 44122 H 4316.78 0.661447 6.07007 0
M  V30 44123 H 4318.2 2.69577 5.05965 0
M  V30 44124 H 4316.6 3.46987 4.89612 0
M  V30 44125 H 4317.67 3.37048 3.48607 0
M  V30 44126 N 4319.01 -1.23079 0.984342 0
M  V30 44127 C 4319.94 -2.26995 0.547314 0
M  V30 44128 C 4320.92 -1.64795 -0.421499 0
M  V30 44129 O 4322.1 -1.91645 -0.314003 0
M  V30 44130 C 4319.23 -3.46988 -0.147222 0
M  V30 44131 C 4318.19 -4.21567 0.739268 0
M  V30 44132 C 4317.51 -5.34628 -0.0877041 0
M  V30 44133 C 4318.81 -4.81152 2.03199 0
M  V30 44134 H 4320.51 -2.63804 1.41591 0
M  V30 44135 H 4318.05 -1.26811 0.682267 0
M  V30 44136 H 4320.01 -4.18834 -0.464295 0
M  V30 44137 H 4318.73 -3.09251 -1.0503 0
M  V30 44138 H 4317.39 -3.51543 1.03986 0
M  V30 44139 H 4317.04 -4.93132 -0.991434 0
M  V30 44140 H 4316.74 -5.85449 0.502353 0
M  V30 44141 H 4318.26 -6.09295 -0.399067 0
M  V30 44142 H 4319.68 -5.44985 1.77943 0
M  V30 44143 H 4318.07 -5.42276 2.57015 0
M  V30 44144 H 4319.14 -4.01679 2.71629 0
M  V30 44145 N 4320.49 -0.756478 -1.38258 0
M  V30 44146 C 4321.73 -0.318891 -2.01897 0
M  V30 44147 C 4322.09 1.07991 -1.58752 0
M  V30 44148 O 4323.29 1.61677 -2.14742 0
M  V30 44149 C 4321.56 -0.440811 -3.54671 0
M  V30 44150 S 4323.12 -0.0862323 -4.38715 0
M  V30 44151 H 4319.94 -0.123548 -0.700183 0
M  V30 44152 H 4322.54 -0.987732 -1.68713 0
M  V30 44153 H 4321.25 -1.45976 -3.83561 0
M  V30 44154 H 4320.78 0.245114 -3.92636 0
M  V30 44155 H 4322.79 1.12324 -4.8332 0
M  V30 44156 N 4321.96 1.49264 -0.505783 0
M  V30 44157 C 4322.91 2.30863 0.283739 0
M  V30 44158 C 4323.91 1.39688 0.958308 0
M  V30 44159 O 4325.11 1.56716 0.885451 0
M  V30 44160 H 4321.49 0.743858 0.110362 0
M  V30 44161 H 4323.46 2.95367 -0.424401 0
M  V30 44162 C 4322.21 3.21154 1.33249 0
M  V30 44163 H 4321.53 3.91241 0.822825 0
M  V30 44164 H 4322.97 3.81181 1.85681 0
M  V30 44165 C 4321.43 2.41091 2.35323 0
M  V30 44166 O 4321.96 2.11846 3.41298 0
M  V30 44167 N 4320.17 2.03027 2.07914 0
M  V30 44168 H 4319.71 2.27011 1.21754 0
M  V30 44169 H 4319.67 1.49766 2.76437 0
M  V30 44170 N 4323.44 0.239823 1.55765 0
M  V30 44171 C 4324.69 -0.386117 1.98377 0
M  V30 44172 C 4325.01 -1.58982 1.12915 0
M  V30 44173 O 4324.28 -1.94768 0.210308 0
M  V30 44174 H 4322.86 -0.145648 0.732663 0
M  V30 44175 H 4325.52 0.336968 1.91965 0
M  V30 44176 H 4324.62 -0.700069 3.04147 0
M  V30 44177 N 4324.92 -1.57565 -0.0333739 0
M  V30 44178 C 4325.85 -2.03068 -1.06282 0
M  V30 44179 C 4326.87 -0.942767 -1.32724 0
M  V30 44180 O 4328.05 -1.22014 -1.30287 0
M  V30 44181 C 4325.15 -2.38731 -2.40543 0
M  V30 44182 C 4324.33 -3.69849 -2.33517 0
M  V30 44183 C 4323.39 -3.9275 -3.50192 0
M  V30 44184 O 4322.41 -4.63861 -3.29881 0
M  V30 44185 N 4323.61 -3.38055 -4.7191 0
M  V30 44186 H 4326.38 -2.91999 -0.675011 0
M  V30 44187 H 4323.94 -1.60379 -0.221395 0
M  V30 44188 H 4325.93 -2.51192 -3.17309 0
M  V30 44189 H 4324.5 -1.55492 -2.71184 0
M  V30 44190 H 4323.72 -3.67783 -1.41879 0
M  V30 44191 H 4325.01 -4.55871 -2.25962 0
M  V30 44192 H 4324.41 -2.80407 -4.91313 0
M  V30 44193 H 4322.97 -3.55903 -5.46056 0
M  V30 44194 N 4326.4 0.305564 -1.54609 0
M  V30 44195 C 4327.68 1.06066 -1.64346 0
M  V30 44196 C 4328.06 2.05363 -0.48881 0
M  V30 44197 O 4327.4 2.22621 0.514976 0
M  V30 44198 C 4327.61 1.74658 -3.02152 0
M  V30 44199 C 4328.96 2.27022 -3.58812 0
M  V30 44200 O 4329.99 1.84698 -3.04574 0
M  V30 44201 O 4328.84 3.0456 -4.53768 0
M  V30 44202 H 4325.94 0.489973 -0.666225 0
M  V30 44203 H 4328.48 0.304016 -1.66955 0
M  V30 44204 H 4327.26 1.02531 -3.77628 0
M  V30 44205 H 4326.88 2.57089 -3.033 0
M  V30 44206 N 4327.88 1.46988 0.568532 0
M  V30 44207 C 4329.15 1.43509 1.32908 0
M  V30 44208 C 4329.53 0.126017 2.10724 0
M  V30 44209 O 4328.88 -0.892491 2.10349 0
M  V30 44210 C 4329.09 2.67364 2.24315 0
M  V30 44211 C 4330.44 3.14107 2.85695 0
M  V30 44212 O 4331.46 2.68013 2.34622 0
M  V30 44213 O 4330.32 3.94211 3.78497 0
M  V30 44214 H 4327.42 0.571373 0.597881 0
M  V30 44215 H 4329.96 1.59174 0.588373 0
M  V30 44216 H 4328.73 3.54185 1.66339 0
M  V30 44217 H 4328.36 2.5423 3.05701 0
M  V30 44218 N 4329.35 -0.814342 1.3493 0
M  V30 44219 C 4330.59 -1.58448 1.29126 0
M  V30 44220 C 4330.96 -1.91527 -0.134697 0
M  V30 44221 O 4332.16 -2.66924 -0.317016 0
M  V30 44222 C 4330.43 -2.8435 2.16518 0
M  V30 44223 S 4331.99 -3.74823 2.28152 0
M  V30 44224 H 4328.81 -0.542983 0.45901 0
M  V30 44225 H 4331.41 -0.961219 1.70238 0
M  V30 44226 H 4330.11 -2.5806 3.19114 0
M  V30 44227 H 4329.64 -3.51667 1.76335 0
M  V30 44228 H 4331.66 -4.74215 1.46062 0
M  V30 44229 N 4330.83 -1.18801 -1.03557 0
M  V30 44230 C 4332.08 -0.984566 -1.76496 0
M  V30 44231 C 4332.4 0.486511 -1.88833 0
M  V30 44232 O 4331.67 1.35266 -1.41704 0
M  V30 44233 H 4330.25 -0.361302 -0.653812 0
M  V30 44234 H 4332.91 -1.49575 -1.24954 0
M  V30 44235 H 4332.01 -1.42692 -2.77571 0
M  V30 44236 N 4332.31 1.22555 -0.990855 0
M  V30 44237 C 4333.59 1.86754 -0.581587 0
M  V30 44238 C 4333.97 1.88959 0.941145 0
M  V30 44239 O 4333.32 1.37866 1.82223 0
M  V30 44240 C 4333.53 3.27733 -1.19966 0
M  V30 44241 C 4334.87 4.04244 -1.29892 0
M  V30 44242 O 4335.9 3.36992 -1.1539 0
M  V30 44243 O 4334.76 5.24624 -1.53076 0
M  V30 44244 H 4331.85 0.803119 -0.197303 0
M  V30 44245 H 4334.4 1.3035 -1.0866 0
M  V30 44246 H 4333.17 3.20751 -2.24131 0
M  V30 44247 H 4332.79 3.9174 -0.680113 0
M  V30 44248 N 4333.79 0.763799 1.37855 0
M  V30 44249 C 4335.01 0.334431 2.04686 0
M  V30 44250 C 4335.44 -1.03247 1.57231 0
M  V30 44251 O 4334.8 -1.66002 0.728913 0
M  V30 44252 C 4334.85 0.377778 3.58616 0
M  V30 44253 O 4333.95 -0.624615 4.07642 0
M  V30 44254 H 4333.29 0.146172 0.647711 0
M  V30 44255 H 4335.82 1.03777 1.76328 0
M  V30 44256 H 4335.83 0.232256 4.07338 0
M  V30 44257 H 4334.51 1.37503 3.92512 0
M  V30 44258 H 4333.08 -0.442866 3.70261 0
M  V30 44259 N 4335.27 -1.48993 0.513692 0
M  V30 44260 C 4336.49 -2.07385 -0.0248611 0
M  V30 44261 C 4336.92 -1.3699 -1.28901 0
M  V30 44262 O 4336.28 -0.430619 -1.76112 0
M  V30 44263 C 4336.32 -3.59742 -0.248571 0
M  V30 44264 O 4335.43 -3.90681 -1.32069 0
M  V30 44265 H 4334.77 -0.663235 0.0318682 0
M  V30 44266 H 4337.3 -1.91627 0.716946 0
M  V30 44267 H 4337.31 -4.05211 -0.47622 0
M  V30 44268 H 4335.98 -4.10386 0.674971 0
M  V30 44269 H 4334.56 -3.57009 -1.07699 0
M  V30 44270 N 4336.75 -0.248081 -1.55635 0
M  V30 44271 C 4338.02 0.426725 -1.90888 0
M  V30 44272 C 4338.4 1.75779 -1.16897 0
M  V30 44273 O 4337.75 2.26692 -0.286844 0
M  V30 44274 C 4337.96 0.593648 -3.43914 0
M  V30 44275 C 4339.31 0.888986 -4.15189 0
M  V30 44276 O 4340.33 0.679468 -3.49659 0
M  V30 44277 O 4339.19 1.28806 -5.31104 0
M  V30 44278 H 4336.29 0.229286 -0.79458 0
M  V30 44279 H 4338.83 -0.292234 -1.67165 0
M  V30 44280 H 4337.6 -0.344169 -3.89783 0
M  V30 44281 H 4337.23 1.3631 -3.73504 0
M  V30 44282 N 4338.22 1.5758 0.0250174 0
M  V30 44283 C 4339.13 2.10227 1.04124 0
M  V30 44284 C 4340.15 1.0418 1.39365 0
M  V30 44285 O 4341.33 1.35939 1.48602 0
M  V30 44286 C 4338.39 2.57454 2.32203 0
M  V30 44287 C 4337.45 3.78 2.03506 0
M  V30 44288 C 4336.68 4.22965 3.25478 0
M  V30 44289 O 4336.91 3.67428 4.36295 0
M  V30 44290 O 4335.84 5.15363 3.10941 0
M  V30 44291 H 4339.67 2.97224 0.623806 0
M  V30 44292 H 4337.25 1.47423 0.24226 0
M  V30 44293 H 4339.13 2.88142 3.07493 0
M  V30 44294 H 4337.81 1.73566 2.73233 0
M  V30 44295 H 4336.72 3.52324 1.25771 0
M  V30 44296 H 4338.05 4.62884 1.67328 0
M  V30 44297 N 4339.7 -0.29736 1.54769 0
M  V30 44298 C 4341.12 -0.643226 1.46064 0
M  V30 44299 C 4341.32 -1.90564 0.654811 0
M  V30 44300 O 4340.37 -2.51967 0.163954 0
M  V30 44301 C 4341.69 -0.792837 2.9006 0
M  V30 44302 C 4343.23 -0.888485 3.00125 0
M  V30 44303 C 4343.71 -1.07007 4.45324 0
M  V30 44304 N 4345.2 -1.13618 4.49049 0
M  V30 44305 C 4345.94 -1.29504 5.58584 0
M  V30 44306 N 4345.43 -1.42264 6.78036 0
M  V30 44307 N 4347.22 -1.32421 5.46279 0
M  V30 44308 H 4339.38 0.532031 2.05629 0
M  V30 44309 H 4341.64 0.176414 0.931441 0
M  V30 44310 H 4341.34 0.0639414 3.51642 0
M  V30 44311 H 4341.22 -1.68072 3.37686 0
M  V30 44312 H 4343.61 -1.73575 2.38654 0
M  V30 44313 H 4343.69 0.0234864 2.55789 0
M  V30 44314 H 4343.33 -0.227556 5.0739 0
M  V30 44315 H 4343.26 -1.99632 4.87293 0
M  V30 44316 H 4345.75 -1.05095 3.62992 0
M  V30 44317 H 4346.06 -1.54151 7.5727 0
M  V30 44318 H 4344.41 -1.39313 6.80894 0
M  V30 44319 H 4347.6 -1.22066 4.51904 0
M  V30 44320 H 4347.77 -1.44458 6.31693 0
M  V30 44321 N 4341.18 -1.47287 -0.560729 0
M  V30 44322 C 4342.43 -1.53428 -1.31546 0
M  V30 44323 C 4342.75 -0.196682 -1.94006 0
M  V30 44324 O 4342.02 0.779017 -1.79745 0
M  V30 44325 H 4340.6 -0.565149 -0.488483 0
M  V30 44326 H 4343.26 -1.83563 -0.655039 0
M  V30 44327 H 4342.36 -2.29894 -2.11081 0
M  V30 44328 N 4342.66 0.807175 -1.3536 0
M  V30 44329 C 4343.9 1.57761 -1.29965 0
M  V30 44330 C 4344.26 1.91596 0.124538 0
M  V30 44331 O 4345.46 2.67088 0.302856 0
M  V30 44332 C 4343.73 2.83198 -2.18023 0
M  V30 44333 S 4345.29 3.73607 -2.30137 0
M  V30 44334 H 4342.11 0.540541 -0.461883 0
M  V30 44335 H 4344.71 0.952177 -1.70745 0
M  V30 44336 H 4343.42 2.56364 -3.20478 0
M  V30 44337 H 4342.95 3.50727 -1.78197 0
M  V30 44338 H 4344.96 4.73434 -1.48575 0
M  V30 44339 N 4344.14 1.19348 1.02926 0
M  V30 44340 C 4345.09 0.898671 2.09542 0
M  V30 44341 C 4346.07 -0.136365 1.60321 0
M  V30 44342 O 4347.26 0.0692725 1.76864 0
M  V30 44343 C 4344.39 0.438726 3.40485 0
M  V30 44344 C 4343.48 1.50648 3.96442 0
M  V30 44345 N 4343.87 2.72583 4.26066 0
M  V30 44346 C 4342.17 1.36968 4.24448 0
M  V30 44347 C 4342.87 3.41363 4.71005 0
M  V30 44348 N 4341.84 2.68757 4.72515 0
M  V30 44349 H 4345.64 1.82542 2.30338 0
M  V30 44350 H 4343.16 1.08559 1.20784 0
M  V30 44351 H 4345.16 0.208975 4.16376 0
M  V30 44352 H 4343.82 -0.481543 3.21109 0
M  V30 44353 H 4344.83 3.09349 4.1536 0
M  V30 44354 H 4341.5 0.51284 4.14338 0
M  V30 44355 H 4342.89 4.45635 5.02851 0
M  V30 44356 N 4345.61 -1.22028 0.997341 0
M  V30 44357 C 4346.86 -1.90207 0.671128 0
M  V30 44358 C 4347.18 -1.78457 -0.800787 0
M  V30 44359 O 4348.38 -2.41592 -1.23877 0
M  V30 44360 C 4346.84 -3.41036 1.14989 0
M  V30 44361 C 4346.45 -3.61414 2.64734 0
M  V30 44362 C 4348.19 -4.14889 0.898207 0
M  V30 44363 C 4346.1 -5.05966 3.06189 0
M  V30 44364 H 4345.03 -0.712283 0.247325 0
M  V30 44365 H 4347.68 -1.38174 1.20749 0
M  V30 44366 H 4346.06 -3.92279 0.541622 0
M  V30 44367 H 4347.23 -3.20644 3.30944 0
M  V30 44368 H 4345.55 -3.00901 2.87832 0
M  V30 44369 H 4348.15 -5.21436 1.18358 0
M  V30 44370 H 4348.49 -4.1597 -0.16563 0
M  V30 44371 H 4349.02 -3.69687 1.46888 0
M  V30 44372 H 4345.76 -5.10027 4.11768 0
M  V30 44373 H 4345.28 -5.47621 2.44686 0
M  V30 44374 H 4346.96 -5.74422 2.9774 0
M  V30 44375 N 4347.09 -0.771099 -1.37448 0
M  V30 44376 C 4348.04 -0.144722 -2.32149 0
M  V30 44377 C 4349.03 0.685701 -1.54902 0
M  V30 44378 O 4350.24 0.582835 -1.70303 0
M  V30 44379 H 4346.62 -0.0280128 -0.751478 0
M  V30 44380 H 4348.59 -0.959205 -2.82563 0
M  V30 44381 C 4347.34 0.720531 -3.40152 0
M  V30 44382 H 4346.66 0.0909081 -3.99697 0
M  V30 44383 H 4348.1 1.12579 -4.08781 0
M  V30 44384 C 4346.56 1.87085 -2.8018 0
M  V30 44385 O 4347.09 2.96628 -2.70878 0
M  V30 44386 N 4345.29 1.67127 -2.37733 0
M  V30 44387 H 4344.84 0.780286 -2.45498 0
M  V30 44388 H 4344.8 2.4426 -1.97951 0
M  V30 44389 N 4348.57 1.48719 -0.521586 0
M  V30 44390 C 4349.48 2.33266 0.249806 0
M  V30 44391 C 4350.5 1.45955 0.947271 0
M  V30 44392 O 4351.67 1.78948 0.924094 0
M  V30 44393 C 4348.74 3.2188 1.28818 0
M  V30 44394 C 4347.8 4.25059 0.601966 0
M  V30 44395 C 4347.03 5.09438 1.59087 0
M  V30 44396 O 4347.25 4.95659 2.82273 0
M  V30 44397 O 4346.19 5.91104 1.13487 0
M  V30 44398 H 4350.01 3.00455 -0.442778 0
M  V30 44399 H 4347.6 1.46703 -0.282619 0
M  V30 44400 H 4349.48 3.76716 1.88846 0
M  V30 44401 H 4348.16 2.57362 1.96333 0
M  V30 44402 H 4347.06 3.7408 -0.0385913 0
M  V30 44403 H 4348.4 4.9219 -0.031087 0
M  V30 44404 N 4350.05 0.256331 1.55501 0
M  V30 44405 C 4351.29 -0.367199 2.01075 0
M  V30 44406 C 4351.65 -1.54441 1.14071 0
M  V30 44407 O 4352.85 -2.2363 1.49141 0
M  V30 44408 C 4351.12 -0.757711 3.49276 0
M  V30 44409 S 4352.68 -1.37043 4.16851 0
M  V30 44410 H 4349.5 -0.115119 0.701619 0
M  V30 44411 H 4352.1 0.373772 1.91894 0
M  V30 44412 H 4350.81 0.108219 4.10257 0
M  V30 44413 H 4350.34 -1.53062 3.62402 0
M  V30 44414 H 4352.35 -2.65936 4.18918 0
M  V30 44415 N 4351.53 -1.57591 -0.0166602 0
M  V30 44416 C 4352.46 -2.10399 -1.01264 0
M  V30 44417 C 4353.44 -1.0093 -1.3692 0
M  V30 44418 O 4354.62 -1.28523 -1.45587 0
M  V30 44419 C 4351.75 -2.59361 -2.30975 0
M  V30 44420 C 4350.71 -3.73206 -2.09527 0
M  V30 44421 C 4350.03 -4.08419 -3.45105 0
M  V30 44422 C 4351.33 -5.01147 -1.47135 0
M  V30 44423 H 4353.03 -2.93866 -0.573002 0
M  V30 44424 H 4350.57 -1.41366 -0.274179 0
M  V30 44425 H 4352.53 -2.94928 -3.00991 0
M  V30 44426 H 4351.25 -1.72994 -2.77021 0
M  V30 44427 H 4349.91 -3.38007 -1.4194 0
M  V30 44428 H 4349.56 -3.191 -3.88824 0
M  V30 44429 H 4349.26 -4.85109 -3.31576 0
M  V30 44430 H 4350.78 -4.46531 -4.16464 0
M  V30 44431 H 4352.19 -5.34592 -2.07085 0
M  V30 44432 H 4350.59 -5.82531 -1.44144 0
M  V30 44433 H 4351.66 -4.82912 -0.43858 0
M  V30 44434 N 4353 0.289148 -1.54925 0
M  V30 44435 C 4354.23 1.04582 -1.79102 0
M  V30 44436 C 4354.65 1.79739 -0.554582 0
M  V30 44437 O 4354.01 1.74403 0.495313 0
M  V30 44438 C 4354.06 1.99278 -3.00534 0
M  V30 44439 O 4353.16 3.07782 -2.74488 0
M  V30 44440 H 4352.51 0.299837 -0.592447 0
M  V30 44441 H 4355.04 0.322965 -2.02035 0
M  V30 44442 H 4355.05 2.41528 -3.28828 0
M  V30 44443 H 4353.72 1.43984 -3.90181 0
M  V30 44444 H 4352.3 2.69962 -2.57245 0
M  V30 44445 N 4354.48 1.47583 0.55291 0
M  V30 44446 C 4355.9 1.33196 0.879258 0
M  V30 44447 C 4356.1 0.325675 1.98851 0
M  V30 44448 O 4355.15 -0.261279 2.51145 0
M  V30 44449 C 4356.47 2.72638 1.26843 0
M  V30 44450 C 4358.02 2.80955 1.37962 0
M  V30 44451 C 4358.49 4.21047 1.80233 0
M  V30 44452 N 4359.98 4.23609 1.87376 0
M  V30 44453 C 4360.72 5.28924 2.21421 0
M  V30 44454 N 4360.21 6.44539 2.54049 0
M  V30 44455 N 4362.01 5.16304 2.22231 0
M  V30 44456 H 4354.16 2.11641 -0.179352 0
M  V30 44457 H 4356.42 0.947837 -0.0175761 0
M  V30 44458 H 4356.13 3.47727 0.527169 0
M  V30 44459 H 4356 3.04686 2.22365 0
M  V30 44460 H 4358.39 2.06135 2.11169 0
M  V30 44461 H 4358.47 2.52555 0.406169 0
M  V30 44462 H 4358.11 4.96373 1.07594 0
M  V30 44463 H 4358.04 4.46874 2.78588 0
M  V30 44464 H 4360.53 3.40204 1.6453 0
M  V30 44465 H 4360.85 7.20654 2.79066 0
M  V30 44466 H 4359.19 6.47852 2.5162 0
M  V30 44467 H 4362.38 4.25006 1.96183 0
M  V30 44468 H 4362.55 5.98485 2.48434 0
M  V30 44469 N 4355.96 -0.799985 1.35787 0
M  V30 44470 C 4356.91 -1.91215 1.2925 0
M  V30 44471 C 4357.88 -1.65297 0.163169 0
M  V30 44472 O 4359.06 -1.876 0.347957 0
M  V30 44473 C 4356.2 -3.27863 1.07703 0
M  V30 44474 C 4355.32 -3.65924 2.29617 0
M  V30 44475 C 4354.45 -4.91635 2.01167 0
M  V30 44476 C 4353.49 -5.22343 3.19098 0
M  V30 44477 N 4352.63 -6.39236 2.90382 0
M  V30 44478 H 4357.47 -1.96138 2.24352 0
M  V30 44479 H 4355 -0.959296 1.11516 0
M  V30 44480 H 4356.96 -4.06647 0.932402 0
M  V30 44481 H 4355.59 -3.2239 0.162603 0
M  V30 44482 H 4354.64 -2.82347 2.5492 0
M  V30 44483 H 4355.96 -3.84572 3.17656 0
M  V30 44484 H 4355.11 -5.78261 1.83573 0
M  V30 44485 H 4353.85 -4.75035 1.10422 0
M  V30 44486 H 4352.85 -4.34205 3.37263 0
M  V30 44487 H 4354.08 -5.40869 4.10654 0
M  V30 44488 H 4352.02 -6.24048 2.02238 0
M  V30 44489 H 4351.94 -6.58167 3.71958 0
M  V30 44490 H 4353.21 -7.28872 2.76343 0
M  V30 44491 N 4357.44 -1.19892 -1.02292 0
M  V30 44492 C 4358.37 -0.965853 -2.12588 0
M  V30 44493 C 4359.35 0.102932 -1.69788 0
M  V30 44494 O 4360.53 -0.0533017 -1.94127 0
M  V30 44495 C 4357.66 -0.510241 -3.43531 0
M  V30 44496 C 4356.62 -1.52155 -4.00041 0
M  V30 44497 C 4355.94 -0.922795 -5.26677 0
M  V30 44498 C 4357.24 -2.90349 -4.3416 0
M  V30 44499 H 4358.94 -1.8883 -2.32343 0
M  V30 44500 H 4356.48 -0.90932 -1.11657 0
M  V30 44501 H 4358.44 -0.334451 -4.20071 0
M  V30 44502 H 4357.16 0.447822 -3.23515 0
M  V30 44503 H 4355.82 -1.68459 -3.25603 0
M  V30 44504 H 4355.47 0.0430047 -5.02982 0
M  V30 44505 H 4355.17 -1.59816 -5.65449 0
M  V30 44506 H 4356.69 -0.757933 -6.05878 0
M  V30 44507 H 4358.11 -2.77593 -5.01613 0
M  V30 44508 H 4356.5 -3.54733 -4.8403 0
M  V30 44509 H 4357.57 -3.42551 -3.43201 0
M  V30 44510 N 4358.92 1.21498 -1.0038 0
M  V30 44511 C 4360.14 1.95073 -0.70436 0
M  V30 44512 C 4360.57 1.73507 0.726416 0
M  V30 44513 O 4359.92 1.02116 1.49807 0
M  V30 44514 C 4359.97 3.45594 -1.02944 0
M  V30 44515 O 4359.08 4.12182 -0.134034 0
M  V30 44516 H 4358.42 0.609889 -0.262548 0
M  V30 44517 H 4360.95 1.5429 -1.34372 0
M  V30 44518 H 4360.96 3.96159 -0.975796 0
M  V30 44519 H 4359.63 3.60614 -2.07196 0
M  V30 44520 H 4358.21 3.721 -0.244099 0
M  V30 44521 N 4360.39 0.778378 1.37037 0
M  V30 44522 C 4361.64 0.34503 1.99133 0
M  V30 44523 C 4361.96 -1.08399 1.62094 0
M  V30 44524 O 4361.23 -1.74537 0.889577 0
M  V30 44525 H 4359.81 0.124585 0.736538 0
M  V30 44526 H 4362.48 0.997974 1.67411 0
M  V30 44527 H 4361.57 0.427981 3.09152 0
M  V30 44528 N 4361.87 -1.4844 0.529465 0
M  V30 44529 C 4363.11 -2.044 -0.00282229 0
M  V30 44530 C 4363.48 -1.39778 -1.31629 0
M  V30 44531 O 4364.68 -1.86622 -1.93457 0
M  V30 44532 C 4362.95 -3.57189 -0.122853 0
M  V30 44533 S 4364.51 -4.34605 -0.605279 0
M  V30 44534 H 4361.33 -0.710902 0.0118157 0
M  V30 44535 H 4363.93 -1.82155 0.709909 0
M  V30 44536 H 4362.63 -4.01755 0.837928 0
M  V30 44537 H 4362.16 -3.83885 -0.859977 0
M  V30 44538 H 4364.18 -4.5962 -1.86987 0
M  V30 44539 N 4363.35 -0.264574 -1.55363 0
M  V30 44540 C 4364.58 0.361763 -2.04221 0
M  V30 44541 C 4365 1.49462 -1.14205 0
M  V30 44542 O 4364.36 1.8077 -0.138508 0
M  V30 44543 C 4364.41 0.830246 -3.50912 0
M  V30 44544 O 4363.51 1.9384 -3.64005 0
M  V30 44545 H 4362.85 0.0764058 -0.659589 0
M  V30 44546 H 4365.38 -0.395795 -2.00735 0
M  V30 44547 H 4365.39 1.1288 -3.92074 0
M  V30 44548 H 4364.07 0.00134934 -4.159 0
M  V30 44549 H 4362.64 1.64319 -3.34744 0
M  V30 44550 N 4364.83 1.57598 0.00830251 0
M  V30 44551 C 4365.76 2.04733 1.03038 0
M  V30 44552 C 4366.77 0.963763 1.31208 0
M  V30 44553 O 4367.96 1.24071 1.2833 0
M  V30 44554 C 4365.06 2.42528 2.36714 0
M  V30 44555 C 4364.24 3.73517 2.27604 0
M  V30 44556 C 4363.3 3.98271 3.43899 0
M  V30 44557 O 4362.32 4.69051 3.22459 0
M  V30 44558 N 4363.52 3.4552 4.66472 0
M  V30 44559 H 4366.29 2.93036 0.628471 0
M  V30 44560 H 4363.85 1.60711 0.195852 0
M  V30 44561 H 4365.84 2.56208 3.13272 0
M  V30 44562 H 4364.41 1.59787 2.68676 0
M  V30 44563 H 4363.63 3.69993 1.3601 0
M  V30 44564 H 4364.92 4.59408 2.18681 0
M  V30 44565 H 4364.32 2.88187 4.8679 0
M  V30 44566 H 4362.87 3.64545 5.40324 0
M  V30 44567 N 4366.31 -0.280928 1.55076 0
M  V30 44568 C 4367.58 -1.03438 1.66012 0
M  V30 44569 C 4367.96 -2.04559 0.52142 0
M  V30 44570 O 4367.31 -2.23412 -0.479494 0
M  V30 44571 C 4367.52 -1.69829 3.04892 0
M  V30 44572 C 4368.87 -2.21285 3.62378 0
M  V30 44573 O 4369.89 -1.79829 3.07474 0
M  V30 44574 O 4368.75 -2.97303 4.58556 0
M  V30 44575 H 4365.85 -0.479312 0.673936 0
M  V30 44576 H 4368.39 -0.277417 1.67417 0
M  V30 44577 H 4367.17 -0.965103 3.79212 0
M  V30 44578 H 4366.79 -2.52231 3.07352 0
M  V30 44579 N 4367.79 -1.47874 -0.545076 0
M  V30 44580 C 4369.03 -1.56708 -1.31233 0
M  V30 44581 C 4369.39 -0.229163 -1.90628 0
M  V30 44582 O 4370.59 -0.192406 -2.6811 0
M  V30 44583 C 4368.86 -2.66288 -2.38381 0
M  V30 44584 S 4370.42 -2.94787 -3.25032 0
M  V30 44585 H 4367.24 -0.553232 -0.446605 0
M  V30 44586 H 4369.84 -1.85318 -0.622684 0
M  V30 44587 H 4368.54 -3.62079 -1.93201 0
M  V30 44588 H 4368.08 -2.39531 -3.12071 0
M  V30 44589 H 4370.09 -2.32929 -4.38131 0
M  V30 44590 N 4369.26 0.792773 -1.36209 0
M  V30 44591 C 4370.17 1.93664 -1.32406 0
M  V30 44592 C 4371.19 1.72516 -0.226766 0
M  V30 44593 O 4372.37 1.9611 -0.458553 0
M  V30 44594 C 4369.43 3.28473 -1.10933 0
M  V30 44595 C 4368.49 3.62422 -2.30107 0
M  V30 44596 C 4367.72 4.90798 -2.09649 0
M  V30 44597 O 4367.95 5.60275 -1.06995 0
M  V30 44598 O 4366.88 5.23325 -2.97345 0
M  V30 44599 H 4370.71 1.99821 -2.28704 0
M  V30 44600 H 4368.29 0.932545 -1.16722 0
M  V30 44601 H 4370.17 4.09151 -1.00862 0
M  V30 44602 H 4368.85 3.23216 -0.176967 0
M  V30 44603 H 4367.76 2.82064 -2.45746 0
M  V30 44604 H 4369.09 3.72399 -3.21838 0
M  V30 44605 N 4370.74 1.20433 1.01654 0
M  V30 44606 C 4372.02 0.923569 1.72423 0
M  V30 44607 C 4372.4 -0.567639 2.03325 0
M  V30 44608 O 4371.75 -1.52932 1.69777 0
M  V30 44609 C 4371.96 1.79659 2.99205 0
M  V30 44610 C 4373.3 2.03845 3.72468 0
M  V30 44611 O 4374.33 1.76913 3.09161 0
M  V30 44612 O 4373.19 2.49329 4.8631 0
M  V30 44613 H 4370.28 0.345318 0.751455 0
M  V30 44614 H 4372.83 1.31307 1.07502 0
M  V30 44615 H 4371.6 2.80634 2.72691 0
M  V30 44616 H 4371.22 1.40717 3.71866 0
M  V30 44617 N 4372.22 -1.20963 1.01023 0
M  V30 44618 C 4373.15 -2.25783 0.59534 0
M  V30 44619 C 4374.13 -1.65652 -0.386448 0
M  V30 44620 O 4375.32 -1.92268 -0.273281 0
M  V30 44621 C 4372.45 -3.47222 -0.0735879 0
M  V30 44622 C 4371.4 -4.19904 0.828522 0
M  V30 44623 C 4370.73 -5.34694 0.0257182 0
M  V30 44624 C 4372.03 -4.76734 2.13359 0
M  V30 44625 H 4373.72 -2.60741 1.47155 0
M  V30 44626 H 4371.27 -1.25336 0.709012 0
M  V30 44627 H 4373.22 -4.19725 -0.375349 0
M  V30 44628 H 4371.94 -3.11409 -0.984464 0
M  V30 44629 H 4370.6 -3.49258 1.11419 0
M  V30 44630 H 4370.25 -4.95124 -0.88661 0
M  V30 44631 H 4369.95 -5.84251 0.626422 0
M  V30 44632 H 4371.47 -6.10004 -0.269737 0
M  V30 44633 H 4372.89 -5.41088 1.89463 0
M  V30 44634 H 4371.28 -5.36702 2.6846 0
M  V30 44635 H 4372.35 -3.95827 2.80088 0
M  V30 44636 N 4373.7 -0.785634 -1.36622 0
M  V30 44637 C 4374.64 -0.179534 -2.30101 0
M  V30 44638 C 4375.61 0.674459 -1.5179 0
M  V30 44639 O 4376.8 0.623928 -1.8031 0
M  V30 44640 C 4373.94 0.682678 -3.3828 0
M  V30 44641 C 4373.05 -0.189441 -4.31584 0
M  V30 44642 C 4372.19 0.678786 -5.26845 0
M  V30 44643 C 4371.23 -0.19502 -6.11789 0
M  V30 44644 N 4370.36 0.631973 -6.9925 0
M  V30 44645 H 4375.2 -0.982169 -2.81349 0
M  V30 44646 H 4372.74 -0.495917 -1.38489 0
M  V30 44647 H 4374.7 1.19752 -3.99644 0
M  V30 44648 H 4373.33 1.45078 -2.88361 0
M  V30 44649 H 4372.38 -0.822222 -3.71408 0
M  V30 44650 H 4373.69 -0.862882 -4.9128 0
M  V30 44651 H 4372.85 1.25959 -5.93481 0
M  V30 44652 H 4371.59 1.38587 -4.67595 0
M  V30 44653 H 4370.59 -0.788251 -5.4412 0
M  V30 44654 H 4371.82 -0.899642 -6.73115 0
M  V30 44655 H 4369.76 1.32341 -6.42512 0
M  V30 44656 H 4369.68 0.0161317 -7.55998 0
M  V30 44657 H 4370.95 1.19672 -7.70259 0
M  V30 44658 N 4375.18 1.48157 -0.53733 0
M  V30 44659 C 4376.42 2.017 -0.00387768 0
M  V30 44660 C 4376.74 1.41902 1.34622 0
M  V30 44661 O 4377.94 1.86987 1.96846 0
M  V30 44662 C 4376.4 3.59874 0.0434659 0
M  V30 44663 C 4376.01 4.28657 -1.30218 0
M  V30 44664 C 4377.75 4.21237 0.525359 0
M  V30 44665 C 4375.66 5.78784 -1.21503 0
M  V30 44666 H 4374.59 0.753996 0.00232043 0
M  V30 44667 H 4377.24 1.70347 -0.682211 0
M  V30 44668 H 4375.62 3.881 0.787031 0
M  V30 44669 H 4376.8 4.12095 -2.06189 0
M  V30 44670 H 4375.11 3.79198 -1.7204 0
M  V30 44671 H 4377.71 5.31225 0.60865 0
M  V30 44672 H 4378.05 3.87053 1.53284 0
M  V30 44673 H 4378.58 3.97467 -0.162744 0
M  V30 44674 H 4375.32 6.17554 -2.19788 0
M  V30 44675 H 4374.84 5.97739 -0.496799 0
M  V30 44676 H 4376.52 6.40586 -0.908754 0
M  V30 44677 N 4376.65 0.272809 1.55221 0
M  V30 44678 C 4377.9 -0.343951 1.99152 0
M  V30 44679 C 4378.22 -1.56551 1.16261 0
M  V30 44680 O 4377.49 -1.94278 0.251574 0
M  V30 44681 H 4376.07 -0.130074 0.735588 0
M  V30 44682 H 4378.74 0.37761 1.91207 0
M  V30 44683 H 4377.83 -0.635398 3.05564 0
M  V30 44684 N 4378.13 -1.576 5.54043e-05 0
M  V30 44685 C 4379.38 -1.9057 -0.684781 0
M  V30 44686 C 4379.71 -0.873628 -1.73776 0
M  V30 44687 O 4378.96 0.121585 -1.95322 0
M  V30 44688 C 4379.26 -3.30295 -1.36529 0
M  V30 44689 C 4378.93 -4.48694 -0.445504 0
M  V30 44690 C 4377.59 -4.80816 -0.19226 0
M  V30 44691 C 4379.94 -5.20862 0.187775 0
M  V30 44692 C 4377.27 -5.82478 0.702556 0
M  V30 44693 C 4379.62 -6.23477 1.07047 0
M  V30 44694 C 4378.29 -6.54057 1.33289 0
M  V30 44695 H 4377.56 -0.697346 -0.250579 0
M  V30 44696 H 4380.2 -1.91419 0.0555945 0
M  V30 44697 H 4378.51 -3.2557 -2.17971 0
M  V30 44698 H 4380.2 -3.53064 -1.90122 0
M  V30 44699 H 4376.79 -4.23596 -0.653054 0
M  V30 44700 H 4380.98 -4.963 0.00513747 0
M  V30 44701 H 4376.23 -6.04531 0.913877 0
M  V30 44702 H 4380.41 -6.78529 1.56753 0
M  V30 44703 H 4378.04 -7.32652 2.02795 0
M  V30 44704 N 4379.61 0.2727 -1.55223 0
M  V30 44705 C 4380.56 1.3371 -1.88123 0
M  V30 44706 C 4381.53 1.49063 -0.732762 0
M  V30 44707 O 4382.71 1.63465 -0.984059 0
M  V30 44708 C 4379.85 2.6923 -2.15891 0
M  V30 44709 C 4378.97 2.62096 -3.43409 0
M  V30 44710 C 4378.1 3.89798 -3.60875 0
M  V30 44711 C 4377.14 3.77176 -4.82084 0
M  V30 44712 N 4376.28 4.96713 -4.96206 0
M  V30 44713 H 4381.12 1.04952 -2.78907 0
M  V30 44714 H 4378.65 0.507039 -1.38085 0
M  V30 44715 H 4380.61 3.48081 -2.29991 0
M  V30 44716 H 4379.24 2.9619 -1.28342 0
M  V30 44717 H 4378.29 1.74955 -3.3778 0
M  V30 44718 H 4379.61 2.48669 -4.32394 0
M  V30 44719 H 4378.76 4.7709 -3.74793 0
M  V30 44720 H 4377.5 4.06092 -2.70075 0
M  V30 44721 H 4376.5 2.88267 -4.68169 0
M  V30 44722 H 4377.73 3.624 -5.74319 0
M  V30 44723 H 4375.67 5.13417 -4.08337 0
M  V30 44724 H 4375.59 4.85818 -5.79238 0
M  V30 44725 H 4376.86 5.85576 -5.1451 0
M  V30 44726 N 4381.09 1.48161 0.537226 0
M  V30 44727 C 4382.33 1.57401 1.304 0
M  V30 44728 C 4382.69 0.239269 1.90503 0
M  V30 44729 O 4383.89 0.206622 2.68005 0
M  V30 44730 C 4382.16 2.67549 2.36965 0
M  V30 44731 S 4383.72 2.96507 3.23464 0
M  V30 44732 H 4380.54 0.555592 0.443665 0
M  V30 44733 H 4383.14 1.85646 0.612847 0
M  V30 44734 H 4381.85 3.63099 1.91278 0
M  V30 44735 H 4381.38 2.41183 3.10796 0
M  V30 44736 H 4383.39 2.3525 4.36889 0
M  V30 44737 N 4382.57 -0.785538 1.36627 0
M  V30 44738 C 4383.98 -1.08415 1.17126 0
M  V30 44739 C 4384.18 -2.015 -0.00201407 0
M  V30 44740 O 4383.24 -2.43553 -0.666192 0
M  V30 44741 C 4384.55 -1.69489 2.48383 0
M  V30 44742 C 4386.1 -1.81812 2.54781 0
M  V30 44743 C 4386.57 -2.46301 3.86134 0
M  V30 44744 N 4388.07 -2.53766 3.87501 0
M  V30 44745 C 4388.8 -3.04483 4.85878 0
M  V30 44746 N 4388.3 -3.55478 5.94649 0
M  V30 44747 N 4390.09 -3.03231 4.73294 0
M  V30 44748 H 4382.24 -0.167189 2.11741 0
M  V30 44749 H 4384.5 -0.136787 0.93808 0
M  V30 44750 H 4384.21 -1.0856 3.34526 0
M  V30 44751 H 4384.08 -2.68951 2.64471 0
M  V30 44752 H 4386.47 -2.41878 1.69053 0
M  V30 44753 H 4386.55 -0.811447 2.42588 0
M  V30 44754 H 4386.2 -1.86878 4.7227 0
M  V30 44755 H 4386.13 -3.47547 3.95624 0
M  V30 44756 H 4388.62 -2.17661 3.08921 0
M  V30 44757 H 4388.93 -3.92539 6.65682 0
M  V30 44758 H 4387.27 -3.53619 5.98313 0
M  V30 44759 H 4390.47 -2.62683 3.87447 0
M  V30 44760 H 4390.64 -3.42448 5.50121 0
M  V30 44761 N 4384.04 -1.20971 -1.01014 0
M  V30 44762 C 4385.28 -1.03517 -1.76248 0
M  V30 44763 C 4385.65 0.424514 -1.87248 0
M  V30 44764 O 4386.85 0.719417 -2.58994 0
M  V30 44765 C 4385.12 -1.70737 -3.1398 0
M  V30 44766 S 4386.68 -1.68472 -4.0517 0
M  V30 44767 H 4383.5 -0.371059 -0.606495 0
M  V30 44768 H 4386.1 -1.53632 -1.20902 0
M  V30 44769 H 4384.8 -2.76138 -3.03605 0
M  V30 44770 H 4384.33 -1.2078 -3.744 0
M  V30 44771 H 4386.35 -0.72216 -4.90917 0
M  V30 44772 N 4385.52 1.20426 -1.01663 0
M  V30 44773 C 4386.94 1.4185 -0.731492 0
M  V30 44774 C 4387.14 1.8936 0.688832 0
M  V30 44775 O 4386.19 2.06252 1.45659 0
M  V30 44776 C 4387.51 2.44013 -1.75722 0
M  V30 44777 C 4389.06 2.57779 -1.77536 0
M  V30 44778 C 4389.53 3.63184 -2.79036 0
M  V30 44779 N 4391.02 3.70668 -2.77776 0
M  V30 44780 C 4391.76 4.51885 -3.5297 0
M  V30 44781 N 4391.25 5.36906 -4.3784 0
M  V30 44782 N 4393.05 4.46418 -3.41567 0
M  V30 44783 H 4385.2 0.879025 -1.93357 0
M  V30 44784 H 4387.46 0.448396 -0.835251 0
M  V30 44785 H 4387.17 2.16101 -2.77477 0
M  V30 44786 H 4387.04 3.43001 -1.5694 0
M  V30 44787 H 4389.43 2.85021 -0.764669 0
M  V30 44788 H 4389.51 1.58985 -2.00393 0
M  V30 44789 H 4389.15 3.36686 -3.8027 0
M  V30 44790 H 4389.08 4.616 -2.53441 0
M  V30 44791 H 4391.57 3.09937 -2.16212 0
M  V30 44792 H 4391.89 5.95963 -4.91983 0
M  V30 44793 H 4390.23 5.36408 -4.41918 0
M  V30 44794 H 4393.42 3.79032 -2.74686 0
M  V30 44795 H 4393.59 5.09477 -4.00422 0
M  V30 44796 N 4387 0.792868 1.36203 0
M  V30 44797 C 4388.41 0.429577 1.81691 0
M  V30 44798 C 4388.76 -1.04689 1.65936 0
M  V30 44799 O 4387.89 -1.81251 1.18224 0
M  V30 44800 C 4388.48 0.772947 3.29865 0
M  V30 44801 C 4387.04 0.462438 3.73548 0
M  V30 44802 C 4386.19 1.00578 2.58417 0
M  V30 44803 H 4389.14 0.985716 1.24376 0
M  V30 44804 H 4389.16 0.0653265 3.80444 0
M  V30 44805 H 4388.67 1.84759 3.413 0
M  V30 44806 H 4386.77 -0.604029 3.67671 0
M  V30 44807 H 4386.89 0.985464 4.68855 0
M  V30 44808 H 4385.25 0.428822 2.51064 0
M  V30 44809 H 4386.03 2.08626 2.72636 0
M  V30 44810 N 4388.48 -1.4787 0.54518 0
M  V30 44811 C 4389.73 -2.02093 0.0166241 0
M  V30 44812 C 4390.05 -1.4231 -1.33315 0
M  V30 44813 O 4389.32 -0.593919 -1.8668 0
M  V30 44814 H 4387.9 -0.746993 0.00315664 0
M  V30 44815 H 4390.56 -1.81411 0.712461 0
M  V30 44816 H 4389.66 -3.11996 -0.0804325 0
M  V30 44817 N 4389.96 -0.281037 -1.55074 0
M  V30 44818 C 4391.2 0.334045 -1.99726 0
M  V30 44819 C 4391.53 1.55416 -1.16945 0
M  V30 44820 O 4390.79 1.9436 -0.228599 0
M  V30 44821 C 4391.09 0.754533 -3.49344 0
M  V30 44822 C 4390.75 -0.361603 -4.49448 0
M  V30 44823 C 4389.41 -0.668061 -4.7654 0
M  V30 44824 C 4391.77 -1.1134 -5.09169 0
M  V30 44825 C 4389.09 -1.72979 -5.6062 0
M  V30 44826 C 4391.45 -2.1649 -5.94403 0
M  V30 44827 C 4390.11 -2.47764 -6.19814 0
M  V30 44828 H 4389.38 0.122236 -0.730848 0
M  V30 44829 H 4392.03 -0.395983 -1.87361 0
M  V30 44830 H 4390.33 1.56433 -3.59216 0
M  V30 44831 H 4392.03 1.24129 -3.81304 0
M  V30 44832 H 4388.62 -0.112632 -4.28452 0
M  V30 44833 H 4392.8 -0.889901 -4.88257 0
M  V30 44834 H 4388.06 -1.97705 -5.78552 0
M  V30 44835 H 4392.23 -2.75215 -6.39711 0
M  V30 44836 H 4389.86 -3.30169 -6.84757 0
M  V30 44837 N 4391.44 1.57598 -0.00841331 0
M  V30 44838 C 4392.85 1.55765 0.347767 0
M  V30 44839 C 4393.05 1.01192 1.74248 0
M  V30 44840 O 4392.11 0.649457 2.44005 0
M  V30 44841 C 4393.42 2.99928 0.215302 0
M  V30 44842 C 4394.97 3.11657 0.289616 0
M  V30 44843 C 4395.44 4.57621 0.186179 0
M  V30 44844 N 4396.93 4.62558 0.243816 0
M  V30 44845 C 4397.67 5.73094 0.187248 0
M  V30 44846 N 4397.17 6.92753 0.0807896 0
M  V30 44847 N 4398.96 5.61589 0.239728 0
M  V30 44848 H 4391.11 1.91408 -0.920688 0
M  V30 44849 H 4393.37 0.879549 -0.35369 0
M  V30 44850 H 4393.08 3.43727 -0.744633 0
M  V30 44851 H 4392.95 3.63868 0.993969 0
M  V30 44852 H 4395.34 2.67784 1.24 0
M  V30 44853 H 4395.42 2.50478 -0.519068 0
M  V30 44854 H 4395.06 5.02171 -0.760696 0
M  V30 44855 H 4394.99 5.16756 1.01346 0
M  V30 44856 H 4397.49 3.76482 0.327084 0
M  V30 44857 H 4397.8 7.72788 0.0437524 0
M  V30 44858 H 4396.14 6.94985 0.0462976 0
M  V30 44859 H 4399.33 4.66997 0.321152 0
M  V30 44860 H 4399.51 6.47715 0.192179 0
M  V30 44861 N 4392.91 -0.264465 1.55365 0
M  V30 44862 C 4393.84 -1.33114 1.91841 0
M  V30 44863 C 4394.82 -1.51098 0.781245 0
M  V30 44864 O 4396.01 -1.63999 1.04009 0
M  V30 44865 C 4393.14 -2.68914 2.19779 0
M  V30 44866 C 4392.09 -2.6565 3.35581 0
M  V30 44867 C 4391.42 -4.05081 3.49018 0
M  V30 44868 C 4392.72 -2.2417 4.71747 0
M  V30 44869 H 4394.41 -1.02834 2.81186 0
M  V30 44870 H 4391.96 -0.493239 1.35289 0
M  V30 44871 H 4393.91 -3.43655 2.43884 0
M  V30 44872 H 4392.64 -3.00794 1.27242 0
M  V30 44873 H 4391.3 -1.93366 3.11457 0
M  V30 44874 H 4390.94 -4.34198 2.53932 0
M  V30 44875 H 4390.64 -4.03789 4.26882 0
M  V30 44876 H 4392.17 -4.81548 3.75425 0
M  V30 44877 H 4393.58 -2.88637 4.9534 0
M  V30 44878 H 4391.98 -2.34024 5.52587 0
M  V30 44879 H 4393.05 -1.19311 4.69992 0
M  V30 44880 N 4394.39 -1.48444 -0.529361 0
M  V30 44881 C 4395.34 -1.63012 -1.63388 0
M  V30 44882 C 4396.31 -0.472176 -1.59247 0
M  V30 44883 O 4397.49 -0.695735 -1.77663 0
M  V30 44884 C 4394.63 -1.6764 -3.01647 0
M  V30 44885 C 4393.75 -2.94546 -3.16017 0
M  V30 44886 C 4392.88 -2.90331 -4.44838 0
M  V30 44887 C 4391.92 -4.11939 -4.52739 0
M  V30 44888 N 4391.06 -4.05798 -5.72951 0
M  V30 44889 H 4395.9 -2.57335 -1.50276 0
M  V30 44890 H 4393.43 -1.27616 -0.731611 0
M  V30 44891 H 4395.39 -1.68305 -3.81745 0
M  V30 44892 H 4394.02 -0.76808 -3.13529 0
M  V30 44893 H 4393.07 -3.03623 -2.29166 0
M  V30 44894 H 4394.39 -3.84523 -3.17716 0
M  V30 44895 H 4393.54 -2.89401 -5.33228 0
M  V30 44896 H 4392.28 -1.98084 -4.45661 0
M  V30 44897 H 4391.28 -4.13144 -3.62757 0
M  V30 44898 H 4392.51 -5.05346 -4.53654 0
M  V30 44899 H 4390.46 -3.16371 -5.7467 0
M  V30 44900 H 4390.37 -4.8948 -5.76147 0
M  V30 44901 H 4391.64 -4.08927 -6.63626 0
M  V30 44902 N 4395.87 0.778281 -1.37042 0
M  V30 44903 C 4397.15 1.52547 -1.22429 0
M  V30 44904 C 4397.53 2.10289 0.18489 0
M  V30 44905 O 4396.87 1.94957 1.1918 0
M  V30 44906 C 4397.08 2.61156 -2.31514 0
M  V30 44907 C 4398.43 3.28737 -2.68733 0
M  V30 44908 O 4399.46 2.71447 -2.30641 0
M  V30 44909 O 4398.32 4.32298 -3.34336 0
M  V30 44910 H 4395.41 0.675327 -0.47735 0
M  V30 44911 H 4397.96 0.815807 -1.48804 0
M  V30 44912 H 4396.73 2.16562 -3.25909 0
M  V30 44913 H 4396.35 3.3973 -2.06566 0
M  V30 44914 N 4397.35 1.21505 1.00371 0
M  V30 44915 C 4398.62 0.941805 1.71433 0
M  V30 44916 C 4399 -0.546042 2.03916 0
M  V30 44917 O 4398.35 -1.51122 1.71389 0
M  V30 44918 C 4398.56 1.82822 2.97283 0
M  V30 44919 C 4399.91 2.07784 3.70285 0
M  V30 44920 O 4400.93 1.80182 3.07267 0
M  V30 44921 O 4399.79 2.54473 4.83638 0
M  V30 44922 H 4396.89 0.353269 0.74775 0
M  V30 44923 H 4399.43 1.3244 1.06103 0
M  V30 44924 H 4398.21 2.83511 2.69699 0
M  V30 44925 H 4397.83 1.44653 3.70353 0
M  V30 44926 N 4398.83 -1.19885 1.023 0
M  V30 44927 C 4400.07 -1.89044 0.714625 0
M  V30 44928 C 4400.39 -1.79638 -0.758618 0
M  V30 44929 O 4399.66 -1.20297 -1.54614 0
M  V30 44930 H 4398.24 -0.699792 0.261342 0
M  V30 44931 H 4400.91 -1.4557 1.29597 0
M  V30 44932 H 4400 -2.9552 1.00371 0
M  V30 44933 N 4400.3 -0.80008 -1.35781 0
M  V30 44934 C 4401.72 -0.483031 -1.52115 0
M  V30 44935 C 4401.92 0.996887 -1.75113 0
M  V30 44936 O 4400.98 1.7821 -1.78878 0
M  V30 44937 C 4402.29 -1.32274 -2.70045 0
M  V30 44938 C 4403.84 -1.31752 -2.8392 0
M  V30 44939 C 4404.31 -2.1412 -4.04866 0
M  V30 44940 N 4405.8 -2.11622 -4.12032 0
M  V30 44941 C 4406.54 -2.72117 -5.04718 0
M  V30 44942 N 4406.03 -3.41513 -6.02777 0
M  V30 44943 N 4407.83 -2.61793 -4.97414 0
M  V30 44944 H 4399.98 -1.7586 -1.19109 0
M  V30 44945 H 4402.24 -0.748143 -0.582226 0
M  V30 44946 H 4401.95 -2.3727 -2.59607 0
M  V30 44947 H 4401.82 -0.971431 -3.64476 0
M  V30 44948 H 4404.21 -0.275436 -2.93812 0
M  V30 44949 H 4404.29 -1.70866 -1.90364 0
M  V30 44950 H 4403.93 -3.18365 -3.95735 0
M  V30 44951 H 4403.86 -1.7237 -4.9759 0
M  V30 44952 H 4406.35 -1.61124 -3.4183 0
M  V30 44953 H 4406.67 -3.84976 -6.70084 0
M  V30 44954 H 4405.01 -3.45617 -6.02971 0
M  V30 44955 H 4408.2 -2.07171 -4.19759 0
M  V30 44956 H 4408.38 -3.0923 -5.69457 0
M  V30 44957 N 4401.78 1.47579 -0.553014 0
M  V30 44958 C 4403.01 2.06875 -0.0321283 0
M  V30 44959 C 4403.42 1.4063 1.25971 0
M  V30 44960 O 4402.78 0.501411 1.75477 0
M  V30 44961 C 4402.83 3.61093 0.171543 0
M  V30 44962 O 4402.55 4.24854 -1.06914 0
M  V30 44963 C 4404.05 4.37245 0.73019 0
M  V30 44964 H 4401.27 0.66956 -0.0439385 0
M  V30 44965 H 4403.82 1.89643 -0.76523 0
M  V30 44966 H 4401.97 3.77853 0.854761 0
M  V30 44967 H 4402.39 5.17331 -0.86424 0
M  V30 44968 H 4403.86 5.45845 0.822011 0
M  V30 44969 H 4404.34 4.03241 1.7405 0
M  V30 44970 H 4404.94 4.25219 0.0828048 0
M  V30 44971 N 4403.26 0.289257 1.54923 0
M  V30 44972 C 4404.5 -0.324465 2.01808 0
M  V30 44973 C 4404.86 -1.51986 1.17321 0
M  V30 44974 O 4406.06 -2.20417 1.53851 0
M  V30 44975 C 4404.34 -0.683454 3.50804 0
M  V30 44976 S 4405.89 -1.2817 4.19664 0
M  V30 44977 H 4402.71 -0.100211 0.703903 0
M  V30 44978 H 4405.31 0.414392 1.91058 0
M  V30 44979 H 4404.02 0.195217 4.09935 0
M  V30 44980 H 4403.55 -1.45341 3.65568 0
M  V30 44981 H 4405.56 -2.56991 4.24465 0
M  V30 44982 N 4404.74 -1.57591 0.016771 0
M  V30 44983 C 4405.7 -2.08396 -0.954131 0
M  V30 44984 C 4406.7 -0.996576 -1.26194 0
M  V30 44985 O 4407.89 -1.25863 -1.20433 0
M  V30 44986 C 4405.02 -2.53948 -2.27427 0
M  V30 44987 H 4406.22 -2.95456 -0.514347 0
M  V30 44988 H 4403.77 -1.54583 -0.231034 0
M  V30 44989 H 4404.5 -1.70181 -2.7606 0
M  V30 44990 H 4404.29 -3.33378 -2.06401 0
M  V30 44991 H 4405.78 -2.93523 -2.97042 0
M  V30 44992 N 4406.22 0.256222 -1.55503 0
M  V30 44993 C 4407.49 1.00783 -1.67637 0
M  V30 44994 C 4407.87 2.03704 -0.553898 0
M  V30 44995 O 4407.22 2.24147 0.44389 0
M  V30 44996 C 4407.43 1.64957 -3.07555 0
M  V30 44997 C 4408.78 2.15492 -3.65853 0
M  V30 44998 O 4409.8 1.74914 -3.10296 0
M  V30 44999 O 4408.66 2.8997 -4.63227 0
M  V30 45000 H 4405.76 0.468529 -0.681476 0
M  V30 45001 H 4408.3 0.250747 -1.67837 0
M  V30 45002 H 4407.07 0.904652 -3.80699 0
M  V30 45003 H 4406.7 2.4731 -3.11326 0
M  V30 45004 N 4407.69 1.48722 0.521481 0
M  V30 45005 C 4408.94 1.57405 1.27873 0
M  V30 45006 C 4409.27 0.250884 1.92573 0
M  V30 45007 O 4408.55 -0.74387 1.79713 0
M  V30 45008 C 4408.83 2.71851 2.36155 0
M  V30 45009 C 4408.68 4.13899 1.7609 0
M  V30 45010 C 4410 2.8202 3.37865 0
M  V30 45011 H 4407.12 0.572957 0.463561 0
M  V30 45012 H 4409.76 1.80929 0.580056 0
M  V30 45013 H 4407.91 2.51924 2.95747 0
M  V30 45014 H 4409.59 4.45288 1.20483 0
M  V30 45015 H 4407.83 4.20502 1.06586 0
M  V30 45016 H 4408.5 4.89813 2.54533 0
M  V30 45017 H 4410.98 3.00096 2.88238 0
M  V30 45018 H 4409.85 3.6381 4.11015 0
M  V30 45019 H 4410.11 1.90525 3.98939 0
M  V30 45020 N 4409.17 -0.771003 1.37453 0
M  V30 45021 C 4410.45 -1.51895 1.23236 0
M  V30 45022 C 4410.83 -2.10384 -0.173735 0
M  V30 45023 O 4410.18 -1.95587 -1.18144 0
M  V30 45024 C 4410.39 -2.59925 2.32895 0
M  V30 45025 C 4411.74 -3.27307 2.70472 0
M  V30 45026 O 4412.76 -2.7022 2.32077 0
M  V30 45027 O 4411.62 -4.30519 3.36623 0
M  V30 45028 H 4408.71 -0.672786 0.480925 0
M  V30 45029 H 4411.26 -0.807904 1.49235 0
M  V30 45030 H 4410.03 -2.14831 3.27053 0
M  V30 45031 H 4409.65 -3.38629 2.08365 0
M  V30 45032 N 4410.65 -1.22035 -0.997255 0
M  V30 45033 C 4411.56 -1.00278 -2.12088 0
M  V30 45034 C 4412.58 0.0475599 -1.73935 0
M  V30 45035 O 4413.75 -0.144206 -2.00883 0
M  V30 45036 C 4410.82 -0.578569 -3.41838 0
M  V30 45037 C 4409.88 -1.70203 -3.94119 0
M  V30 45038 C 4409.11 -1.29796 -5.17676 0
M  V30 45039 O 4409.33 -0.174876 -5.70132 0
M  V30 45040 O 4408.27 -2.11281 -5.63599 0
M  V30 45041 H 4412.09 -1.94407 -2.33323 0
M  V30 45042 H 4409.68 -1.00591 -1.10462 0
M  V30 45043 H 4411.56 -0.352146 -4.19926 0
M  V30 45044 H 4410.24 0.333906 -3.21973 0
M  V30 45045 H 4409.14 -1.98293 -3.17223 0
M  V30 45046 H 4410.48 -2.59221 -4.18408 0
M  V30 45047 N 4412.13 1.19341 -1.02934 0
M  V30 45048 C 4413.37 1.90736 -0.734794 0
M  V30 45049 C 4413.73 1.77853 0.723351 0
M  V30 45050 O 4414.93 2.43848 1.131 0
M  V30 45051 C 4413.2 3.37565 -1.17407 0
M  V30 45052 S 4414.76 4.27173 -1.00344 0
M  V30 45053 H 4411.58 0.658761 -0.267497 0
M  V30 45054 H 4414.18 1.44276 -1.31927 0
M  V30 45055 H 4412.89 3.44467 -2.23093 0
M  V30 45056 H 4412.42 3.89057 -0.582909 0
M  V30 45057 H 4414.43 4.96126 0.0857408 0
M  V30 45058 N 4413.61 0.80727 1.35355 0
M  V30 45059 C 4414.83 0.399381 2.03518 0
M  V30 45060 C 4415.26 -0.98193 1.60436 0
M  V30 45061 O 4414.61 -1.63599 0.781357 0
M  V30 45062 C 4414.66 0.491678 3.57232 0
M  V30 45063 O 4413.77 -0.49461 4.09423 0
M  V30 45064 H 4413.11 0.166704 0.642733 0
M  V30 45065 H 4415.64 1.09334 1.72937 0
M  V30 45066 H 4415.65 0.36173 4.06393 0
M  V30 45067 H 4414.32 1.49921 3.87939 0
M  V30 45068 H 4412.9 -0.324846 3.71482 0
M  V30 45069 N 4415.08 -1.47283 0.560833 0
M  V30 45070 C 4416.31 -2.06855 0.0430989 0
M  V30 45071 C 4416.73 -1.41296 -1.25224 0
M  V30 45072 O 4416.08 -0.51071 -1.75208 0
M  V30 45073 C 4416.14 -3.61179 -0.152391 0
M  V30 45074 O 4415.86 -4.24281 1.09165 0
M  V30 45075 C 4417.36 -4.37626 -0.706991 0
M  V30 45076 H 4414.58 -0.669317 0.0474887 0
M  V30 45077 H 4417.12 -1.89235 0.775276 0
M  V30 45078 H 4415.28 -3.78301 -0.83471 0
M  V30 45079 H 4415.69 -5.16865 0.891664 0
M  V30 45080 H 4417.16 -5.46273 -0.793052 0
M  V30 45081 H 4417.64 -4.04158 -1.71909 0
M  V30 45082 H 4418.25 -4.25257 -0.0602532 0
M  V30 45083 N 4416.56 -0.297469 -1.54767 0
M  V30 45084 C 4417.79 0.315551 -2.0448 0
M  V30 45085 C 4418.21 1.47788 -1.17491 0
M  V30 45086 O 4417.56 1.81403 -0.199774 0
M  V30 45087 C 4417.61 0.775176 -3.53091 0
M  V30 45088 O 4417.33 -0.340885 -4.36772 0
M  V30 45089 C 4418.84 1.45371 -4.18786 0
M  V30 45090 H 4416.06 0.0690652 -0.667436 0
M  V30 45091 H 4418.6 -0.436073 -1.99797 0
M  V30 45092 H 4416.75 1.47683 -3.58146 0
M  V30 45093 H 4417.17 0.0163191 -5.24497 0
M  V30 45094 H 4418.64 1.72651 -5.24305 0
M  V30 45095 H 4419.12 2.39262 -3.68308 0
M  V30 45096 H 4419.73 0.795328 -4.17797 0
M  V30 45097 N 4418.04 1.5758 -0.0251282 0
M  V30 45098 C 4419.29 1.91635 0.654377 0
M  V30 45099 C 4419.62 0.901163 1.72364 0
M  V30 45100 O 4418.87 -0.090496 1.95491 0
M  V30 45101 C 4419.17 3.32425 1.31257 0
M  V30 45102 C 4418.84 4.49346 0.374065 0
M  V30 45103 C 4417.5 4.81061 0.115742 0
M  V30 45104 C 4419.85 5.20497 -0.270615 0
M  V30 45105 C 4417.18 5.81287 -0.795135 0
M  V30 45106 C 4419.53 6.21695 -1.16952 0
M  V30 45107 C 4418.19 6.51854 -1.43678 0
M  V30 45108 H 4417.46 0.701244 0.239453 0
M  V30 45109 H 4420.11 1.91307 -0.0860406 0
M  V30 45110 H 4418.42 3.28997 2.12764 0
M  V30 45111 H 4420.11 3.56044 1.84481 0
M  V30 45112 H 4416.7 4.24581 0.585581 0
M  V30 45113 H 4420.89 4.96229 -0.0840938 0
M  V30 45114 H 4416.14 6.03001 -1.00994 0
M  V30 45115 H 4420.32 6.75949 -1.67527 0
M  V30 45116 H 4417.94 7.29332 -2.14425 0
M  V30 45117 N 4419.52 -0.247971 1.55637 0
M  V30 45118 C 4420.93 -0.817118 1.67869 0
M  V30 45119 C 4421.28 -1.86067 0.622387 0
M  V30 45120 O 4420.41 -2.15158 -0.231542 0
M  V30 45121 C 4421 -1.48889 3.04331 0
M  V30 45122 C 4419.56 -2.00575 3.18507 0
M  V30 45123 C 4418.71 -0.856481 2.63742 0
M  V30 45124 H 4421.66 -0.0238021 1.58682 0
M  V30 45125 H 4421.68 -2.35688 2.98716 0
M  V30 45126 H 4421.19 -0.729145 3.81189 0
M  V30 45127 H 4419.29 -2.79434 2.46469 0
M  V30 45128 H 4419.4 -2.20387 4.25401 0
M  V30 45129 H 4417.77 -1.2567 2.21538 0
M  V30 45130 H 4418.55 -0.109833 3.43124 0
M  V30 45131 N 4421 -1.48997 -0.513587 0
M  V30 45132 C 4422.24 -1.59456 -1.27879 0
M  V30 45133 C 4422.6 -0.269546 -1.90099 0
M  V30 45134 O 4423.8 -0.249233 -2.67642 0
M  V30 45135 C 4422.07 -2.71285 -2.32679 0
M  V30 45136 S 4423.63 -3.01615 -3.18706 0
M  V30 45137 H 4420.45 -0.56258 -0.434769 0
M  V30 45138 H 4423.05 -1.86597 -0.583235 0
M  V30 45139 H 4421.76 -3.66096 -1.85477 0
M  V30 45140 H 4421.29 -2.46097 -3.0692 0
M  V30 45141 H 4423.3 -2.4217 -4.33091 0
M  V30 45142 N 4422.48 0.763702 -1.3786 0
M  V30 45143 C 4423.7 1.558 -1.36898 0
M  V30 45144 C 4424.13 1.88054 0.0415474 0
M  V30 45145 O 4423.48 1.49829 1.02084 0
M  V30 45146 C 4423.53 2.84005 -2.22202 0
M  V30 45147 O 4422.64 3.78727 -1.63217 0
M  V30 45148 H 4421.98 0.471621 -0.467407 0
M  V30 45149 H 4424.51 0.944593 -1.8149 0
M  V30 45150 H 4424.52 3.33029 -2.35702 0
M  V30 45151 H 4423.19 2.59858 -3.24726 0
M  V30 45152 H 4421.77 3.37396 -1.58803 0
M  V30 45153 N 4423.95 1.22562 0.990769 0
M  V30 45154 C 4424.89 0.955398 2.08338 0
M  V30 45155 C 4425.9 -0.0667836 1.62663 0
M  V30 45156 O 4427.09 0.167484 1.77713 0
M  V30 45157 C 4424.19 0.415684 3.36341 0
M  V30 45158 C 4423.36 1.49559 4.11036 0
M  V30 45159 C 4422.42 0.962581 5.17321 0
M  V30 45160 O 4421.45 1.64926 5.44783 0
M  V30 45161 N 4422.65 -0.21493 5.80102 0
M  V30 45162 H 4425.41 1.89604 2.321 0
M  V30 45163 H 4422.97 1.1328 1.15669 0
M  V30 45164 H 4424.97 0.0443809 4.04676 0
M  V30 45165 H 4423.54 -0.430124 3.09627 0
M  V30 45166 H 4422.76 2.04012 3.37302 0
M  V30 45167 H 4424.04 2.22211 4.57711 0
M  V30 45168 H 4423.44 -0.789583 5.60163 0
M  V30 45169 H 4422 -0.527598 6.49661 0
M  V30 45170 N 4425.43 -1.18793 1.03566 0
M  V30 45171 C 4426.85 -1.40668 0.753966 0
M  V30 45172 C 4427.05 -1.90432 -0.658619 0
M  V30 45173 O 4426.1 -2.08543 -1.42359 0
M  V30 45174 C 4427.42 -2.41186 1.79582 0
M  V30 45175 C 4428.96 -2.54922 1.81615 0
M  V30 45176 C 4429.44 -3.58699 2.84779 0
M  V30 45177 N 4430.93 -3.66202 2.83638 0
M  V30 45178 C 4431.67 -4.46212 3.60114 0
M  V30 45179 N 4431.16 -5.29872 4.46326 0
M  V30 45180 N 4432.95 -4.40927 3.48626 0
M  V30 45181 H 4425.11 -0.848153 1.94731 0
M  V30 45182 H 4427.37 -0.435051 0.842279 0
M  V30 45183 H 4427.07 -2.11659 2.8088 0
M  V30 45184 H 4426.95 -3.40461 1.62377 0
M  V30 45185 H 4429.34 -2.83768 0.809917 0
M  V30 45186 H 4429.42 -1.55777 2.02897 0
M  V30 45187 H 4429.06 -3.30594 3.85578 0
M  V30 45188 H 4428.99 -4.5751 2.60753 0
M  V30 45189 H 4431.48 -3.06458 2.21115 0
M  V30 45190 H 4431.79 -5.88061 5.01402 0
M  V30 45191 H 4430.14 -5.2931 4.50396 0
M  V30 45192 H 4433.33 -3.74614 2.80681 0
M  V30 45193 H 4433.5 -5.03042 4.08476 0
M  V30 45194 N 4426.91 -0.814437 -1.34925 0
M  V30 45195 C 4428.15 -0.404235 -2.00363 0
M  V30 45196 C 4428.51 1.0116 -1.63189 0
M  V30 45197 O 4429.71 1.52423 -2.21406 0
M  V30 45198 C 4427.99 -0.590842 -3.52482 0
M  V30 45199 S 4429.54 -0.272229 -4.37955 0
M  V30 45200 H 4426.36 -0.153134 -0.694313 0
M  V30 45201 H 4428.96 -1.0584 -1.64372 0
M  V30 45202 H 4427.67 -1.62112 -3.77025 0
M  V30 45203 H 4427.2 0.0783631 -3.93322 0
M  V30 45204 H 4429.21 0.917233 -4.87649 0
M  V30 45205 N 4428.39 1.46984 -0.568636 0
M  V30 45206 C 4429.64 2.01646 -0.0466603 0
M  V30 45207 C 4429.95 1.44726 1.31582 0
M  V30 45208 O 4431.16 1.9112 1.92835 0
M  V30 45209 C 4429.61 3.59885 -0.0328785 0
M  V30 45210 C 4429.22 4.25799 -1.39281 0
M  V30 45211 C 4430.96 4.22256 0.43589 0
M  V30 45212 C 4428.87 5.76077 -1.33752 0
M  V30 45213 H 4427.8 0.753876 -0.0136735 0
M  V30 45214 H 4430.45 1.68862 -0.71819 0
M  V30 45215 H 4428.83 3.89682 0.704532 0
M  V30 45216 H 4430.01 4.07629 -2.14884 0
M  V30 45217 H 4428.32 3.75463 -1.80045 0
M  V30 45218 H 4430.92 5.32396 0.495833 0
M  V30 45219 H 4431.26 3.90217 1.45039 0
M  V30 45220 H 4431.8 3.97032 -0.247016 0
M  V30 45221 H 4428.53 6.12753 -2.32838 0
M  V30 45222 H 4428.05 5.96551 -0.623477 0
M  V30 45223 H 4429.73 6.38514 -1.04443 0
M  V30 45224 N 4429.87 0.305673 1.54607 0
M  V30 45225 C 4430.81 -0.58404 2.25148 0
M  V30 45226 C 4431.81 -1.13322 1.25915 0
M  V30 45227 O 4433.01 -1.08332 1.4375 0
M  V30 45228 H 4429.39 -0.206958 0.722961 0
M  V30 45229 H 4431.36 0.0333959 2.98381 0
M  V30 45230 C 4430.11 -1.74214 3.00907 0
M  V30 45231 H 4429.43 -1.32879 3.77072 0
M  V30 45232 H 4430.87 -2.34065 3.53539 0
M  V30 45233 C 4429.33 -2.64907 2.08149 0
M  V30 45234 O 4429.86 -3.66132 1.65259 0
M  V30 45235 N 4428.07 -2.32744 1.74008 0
M  V30 45236 H 4427.61 -1.50472 2.09084 0
M  V30 45237 H 4427.57 -2.9369 1.12221 0
M  V30 45238 N 4431.34 -1.57564 0.0334847 0
M  V30 45239 C 4432.57 -1.96282 -0.654278 0
M  V30 45240 C 4432.99 -0.910196 -1.65411 0
M  V30 45241 O 4432.34 0.107531 -1.82183 0
M  V30 45242 C 4432.39 -3.35071 -1.35681 0
M  V30 45243 O 4432.12 -4.36297 -0.397038 0
M  V30 45244 C 4433.62 -3.88446 -2.13599 0
M  V30 45245 H 4430.84 -0.646376 -0.180109 0
M  V30 45246 H 4433.38 -2.04281 0.0945439 0
M  V30 45247 H 4431.54 -3.28278 -2.057 0
M  V30 45248 H 4431.95 -5.16783 -0.896416 0
M  V30 45249 H 4433.42 -4.87889 -2.58202 0
M  V30 45250 H 4433.9 -3.22925 -2.97685 0
M  V30 45251 H 4434.51 -3.98521 -1.48529 0
M  V30 45252 N 4432.82 0.239714 -1.55766 0
M  V30 45253 C 4433.77 1.29996 -1.8731 0
M  V30 45254 C 4434.76 1.43153 -0.734571 0
M  V30 45255 O 4435.95 1.46274 -0.996641 0
M  V30 45256 C 4433.08 2.65401 -2.17755 0
M  V30 45257 C 4432.16 2.56219 -3.37954 0
M  V30 45258 N 4432.55 2.16673 -4.57041 0
M  V30 45259 C 4430.85 2.87217 -3.41207 0
M  V30 45260 C 4431.55 2.18299 -5.39185 0
M  V30 45261 N 4430.53 2.58082 -4.7843 0
M  V30 45262 H 4434.33 0.984815 -2.76909 0
M  V30 45263 H 4431.84 0.448326 -1.56089 0
M  V30 45264 H 4433.84 3.41926 -2.38521 0
M  V30 45265 H 4432.5 2.97776 -1.29458 0
M  V30 45266 H 4433.51 1.88099 -4.82534 0
M  V30 45267 H 4430.19 3.24084 -2.63203 0
M  V30 45268 H 4431.58 1.90003 -6.44475 0
M  V30 45269 N 4434.3 1.49267 0.505678 0
M  V30 45270 C 4435.55 1.58204 1.25761 0
M  V30 45271 C 4435.87 0.26855 1.93142 0
M  V30 45272 O 4435.14 -0.711769 1.82512 0
M  V30 45273 H 4433.72 0.58289 0.467171 0
M  V30 45274 H 4436.38 1.85867 0.586459 0
M  V30 45275 H 4435.48 2.3757 2.02403 0
M  V30 45276 N 4435.78 -0.756381 1.38263 0
M  V30 45277 C 4437 -1.55072 1.37723 0
M  V30 45278 C 4437.43 -1.88073 -0.0315739 0
M  V30 45279 O 4436.79 -1.50368 -1.01288 0
M  V30 45280 C 4436.83 -2.82822 2.23705 0
M  V30 45281 O 4435.94 -3.77856 1.65223 0
M  V30 45282 H 4435.28 -0.469136 0.469902 0
M  V30 45283 H 4437.81 -0.934955 1.81988 0
M  V30 45284 H 4437.82 -3.31774 2.37465 0
M  V30 45285 H 4436.49 -2.58132 3.26099 0
M  V30 45286 H 4435.07 -3.36549 1.6059 0
M  V30 45287 N 4437.26 -1.23086 -0.984255 0
M  V30 45288 C 4438.49 -1.08563 -1.75778 0
M  V30 45289 C 4438.89 0.366105 -1.85624 0
M  V30 45290 O 4438.24 1.26519 -1.33187 0
M  V30 45291 C 4438.3 -1.6322 -3.20312 0
M  V30 45292 C 4437.96 -3.11933 -3.33986 0
M  V30 45293 C 4438.96 -4.0927 -3.20615 0
M  V30 45294 C 4436.65 -3.51564 -3.58759 0
M  V30 45295 C 4438.64 -5.44222 -3.31816 0
M  V30 45296 C 4436.33 -4.86662 -3.69599 0
M  V30 45297 C 4437.32 -5.828 -3.56137 0
M  V30 45298 O 4437.01 -7.15443 -3.66601 0
M  V30 45299 H 4436.74 -0.380732 -0.558586 0
M  V30 45300 H 4439.3 -1.63326 -1.24555 0
M  V30 45301 H 4437.53 -1.02873 -3.72765 0
M  V30 45302 H 4439.22 -1.4423 -3.79411 0
M  V30 45303 H 4439.98 -3.79995 -3.01378 0
M  V30 45304 H 4435.86 -2.77252 -3.6831 0
M  V30 45305 H 4439.41 -6.19242 -3.21225 0
M  V30 45306 H 4435.3 -5.15615 -3.88345 0
M  V30 45307 H 4436.07 -7.2314 -3.8342 0
M  V30 45308 N 4438.73 1.18243 -1.04194 0
M  V30 45309 C 4439.68 2.21918 -0.634115 0
M  V30 45310 C 4440.65 1.6218 0.358708 0
M  V30 45311 O 4441.84 1.89123 0.2524 0
M  V30 45312 C 4438.98 3.451 -0.00457667 0
M  V30 45313 C 4438.09 4.1917 -1.04502 0
M  V30 45314 C 4437.22 5.29811 -0.383862 0
M  V30 45315 C 4436.26 5.95655 -1.40931 0
M  V30 45316 N 4435.4 6.97831 -0.77303 0
M  V30 45317 H 4440.24 2.56158 -1.52272 0
M  V30 45318 H 4437.78 1.25841 -0.761745 0
M  V30 45319 H 4439.74 4.15486 0.377773 0
M  V30 45320 H 4438.37 3.11475 0.847542 0
M  V30 45321 H 4437.42 3.47598 -1.5453 0
M  V30 45322 H 4438.73 4.6426 -1.82384 0
M  V30 45323 H 4437.88 6.06677 0.0526234 0
M  V30 45324 H 4436.62 4.85827 0.427038 0
M  V30 45325 H 4435.63 5.17528 -1.85592 0
M  V30 45326 H 4436.85 6.41722 -2.22193 0
M  V30 45327 H 4434.8 6.55998 0.0175402 0
M  V30 45328 H 4434.72 7.41181 -1.48954 0
M  V30 45329 H 4435.98 7.78664 -0.360983 0
M  V30 45330 N 4440.21 0.821581 1.34491 0
M  V30 45331 C 4441.45 0.414855 2.00146 0
M  V30 45332 C 4441.82 -1.00293 1.63723 0
M  V30 45333 O 4443.02 -1.51247 2.22211 0
M  V30 45334 C 4441.29 0.609527 3.52164 0
M  V30 45335 S 4442.85 0.295451 4.37804 0
M  V30 45336 H 4439.67 0.156814 0.693491 0
M  V30 45337 H 4442.27 1.0671 1.63808 0
M  V30 45338 H 4440.97 1.64109 3.7616 0
M  V30 45339 H 4440.5 -0.0575031 3.93358 0
M  V30 45340 H 4442.52 -0.891359 4.88128 0
M  V30 45341 N 4441.69 -1.4668 0.576422 0
M  V30 45342 C 4442.62 -2.33028 -0.148315 0
M  V30 45343 C 4443.6 -1.44965 -0.889905 0
M  V30 45344 O 4444.79 -1.73792 -0.866601 0
M  V30 45345 C 4441.92 -3.27121 -1.16658 0
M  V30 45346 C 4440.87 -4.24577 -0.540237 0
M  V30 45347 C 4440.2 -5.08132 -1.66452 0
M  V30 45348 C 4441.5 -5.1972 0.518514 0
M  V30 45349 H 4443.19 -2.93873 0.572612 0
M  V30 45350 H 4440.74 -1.41314 0.276818 0
M  V30 45351 H 4442.69 -3.8638 -1.68191 0
M  V30 45352 H 4441.41 -2.6437 -1.9177 0
M  V30 45353 H 4440.07 -3.66571 -0.046048 0
M  V30 45354 H 4439.72 -4.41771 -2.40516 0
M  V30 45355 H 4439.42 -5.74126 -1.25111 0
M  V30 45356 H 4440.94 -5.70254 -2.18273 0
M  V30 45357 H 4442.36 -5.73232 0.0885074 0
M  V30 45358 H 4440.76 -5.94023 0.851888 0
M  V30 45359 H 4441.83 -4.64032 1.40719 0
M  V30 45360 N 4443.17 -0.313868 -1.54443 0
M  V30 45361 C 4444.41 0.292318 -2.02299 0
M  V30 45362 C 4444.77 1.50101 -1.19724 0
M  V30 45363 O 4445.97 2.17941 -1.57338 0
M  V30 45364 C 4444.24 0.627558 -3.51847 0
M  V30 45365 S 4445.8 1.21478 -4.2165 0
M  V30 45366 H 4442.62 0.0889999 -0.705408 0
M  V30 45367 H 4445.22 -0.444735 -1.90374 0
M  V30 45368 H 4443.93 -0.260409 -4.09573 0
M  V30 45369 H 4443.46 1.39506 -3.67834 0
M  V30 45370 H 4445.47 2.50205 -4.28499 0
M  V30 45371 N 4444.65 1.57544 -0.0418402 0
M  V30 45372 C 4445.89 1.92604 0.634954 0
M  V30 45373 C 4446.23 0.919687 1.71042 0
M  V30 45374 O 4445.5 -0.0557209 1.9442 0
M  V30 45375 C 4445.78 3.38089 1.23967 0
M  V30 45376 C 4445.64 4.49468 0.172899 0
M  V30 45377 C 4446.96 3.83783 2.15403 0
M  V30 45378 H 4444.07 0.700405 0.22935 0
M  V30 45379 H 4446.72 1.89728 -0.101699 0
M  V30 45380 H 4444.87 3.40671 1.8675 0
M  V30 45381 H 4446.54 4.59016 -0.458473 0
M  V30 45382 H 4444.78 4.30907 -0.500148 0
M  V30 45383 H 4445.45 5.48325 0.635861 0
M  V30 45384 H 4447.93 3.83018 1.62592 0
M  V30 45385 H 4446.8 4.86249 2.54662 0
M  V30 45386 H 4447.07 3.20008 3.05036 0
M  V30 45387 N 4446.12 -0.23145 1.55891 0
M  V30 45388 C 4447.03 -1.30794 1.94757 0
M  V30 45389 C 4448.05 -1.51823 0.850042 0
M  V30 45390 O 4449.23 -1.65146 1.15277 0
M  V30 45391 C 4446.29 -2.6396 2.2478 0
M  V30 45392 C 4445.35 -2.51319 3.48048 0
M  V30 45393 C 4444.59 -3.78135 3.7663 0
M  V30 45394 O 4444.81 -4.80711 3.07039 0
M  V30 45395 O 4443.74 -3.7584 4.70136 0
M  V30 45396 H 4447.57 -1.0082 2.86477 0
M  V30 45397 H 4445.15 -0.433496 1.42973 0
M  V30 45398 H 4447.04 -3.42624 2.4533 0
M  V30 45399 H 4445.71 -2.93635 1.36236 0
M  V30 45400 H 4444.62 -1.70888 3.32788 0
M  V30 45401 H 4445.95 -2.26585 4.36944 0
M  V30 45402 N 4447.6 -1.49533 -0.497755 0
M  V30 45403 C 4448.85 -1.58869 -1.2492 0
M  V30 45404 C 4449.17 -0.278789 -1.92997 0
M  V30 45405 O 4448.44 0.70208 -1.82887 0
M  V30 45406 H 4447.02 -0.585359 -0.464073 0
M  V30 45407 H 4449.68 -1.86176 -0.576594 0
M  V30 45408 H 4448.78 -2.3864 -2.0114 0
M  V30 45409 N 4449.08 0.749038 -1.38662 0
M  V30 45410 C 4450.31 1.53606 -1.38162 0
M  V30 45411 C 4450.72 1.89177 0.029293 0
M  V30 45412 O 4450.06 1.5361 1.00746 0
M  V30 45413 C 4450.12 2.8608 -2.17712 0
M  V30 45414 C 4449.79 2.73021 -3.66481 0
M  V30 45415 C 4450.78 2.4251 -4.59875 0
M  V30 45416 C 4448.47 2.90331 -4.09894 0
M  V30 45417 C 4450.46 2.29471 -5.94661 0
M  V30 45418 C 4448.15 2.76911 -5.4476 0
M  V30 45419 C 4449.15 2.46524 -6.36957 0
M  V30 45420 O 4448.84 2.33172 -7.69341 0
M  V30 45421 H 4448.57 0.481757 -0.474222 0
M  V30 45422 H 4451.12 0.9344 -1.82916 0
M  V30 45423 H 4449.35 3.48452 -1.67685 0
M  V30 45424 H 4451.04 3.47618 -2.09563 0
M  V30 45425 H 4451.81 2.28801 -4.27639 0
M  V30 45426 H 4447.69 3.12978 -3.38475 0
M  V30 45427 H 4451.23 2.05675 -6.66591 0
M  V30 45428 H 4447.13 2.90195 -5.76591 0
M  V30 45429 H 4447.9 2.48349 -7.79913 0
M  V30 45430 N 4450.56 1.23606 0.977714 0
M  V30 45431 C 4451.52 1.02076 2.05215 0
M  V30 45432 C 4452.52 -0.018374 1.6079 0
M  V30 45433 O 4453.71 0.22163 1.72784 0
M  V30 45434 C 4450.84 0.545045 3.36515 0
M  V30 45435 H 4452.04 1.97428 2.25748 0
M  V30 45436 H 4449.59 1.05688 1.15151 0
M  V30 45437 H 4450.33 -0.412128 3.21671 0
M  V30 45438 H 4450.11 1.29493 3.701 0
M  V30 45439 H 4451.6 0.415131 4.15531 0
M  V30 45440 N 4452.04 -1.17688 1.0482 0
M  V30 45441 C 4453.45 -1.69499 0.782757 0
M  V30 45442 C 4453.8 -1.83459 -0.695513 0
M  V30 45443 O 4452.92 -1.51947 -1.54081 0
M  V30 45444 C 4453.52 -3.07869 1.4143 0
M  V30 45445 C 4452.08 -3.5686 1.19699 0
M  V30 45446 C 4451.23 -2.33215 1.5002 0
M  V30 45447 H 4454.18 -1.02258 1.21363 0
M  V30 45448 H 4454.2 -3.71525 0.821559 0
M  V30 45449 H 4453.71 -2.97676 2.49019 0
M  V30 45450 H 4451.81 -3.72336 0.140174 0
M  V30 45451 H 4451.92 -4.39844 1.89932 0
M  V30 45452 H 4450.29 -2.37498 0.920155 0
M  V30 45453 H 4451.07 -2.25635 2.58735 0
M  V30 45454 N 4453.52 -0.828702 -1.34053 0
M  V30 45455 C 4454.93 -0.515188 -1.51056 0
M  V30 45456 C 4455.13 0.959518 -1.77188 0
M  V30 45457 O 4454.19 1.74376 -1.82618 0
M  V30 45458 C 4455.5 -1.37972 -2.67178 0
M  V30 45459 C 4457.05 -1.37744 -2.81061 0
M  V30 45460 C 4457.52 -2.2266 -4.00233 0
M  V30 45461 N 4459.01 -2.20314 -4.07451 0
M  V30 45462 C 4459.75 -2.82762 -4.98832 0
M  V30 45463 N 4459.25 -3.54222 -5.95398 0
M  V30 45464 N 4461.04 -2.72285 -4.91749 0
M  V30 45465 H 4453.19 -1.78347 -1.15352 0
M  V30 45466 H 4455.45 -0.760324 -0.566225 0
M  V30 45467 H 4455.16 -2.42723 -2.54516 0
M  V30 45468 H 4455.03 -1.04852 -3.62334 0
M  V30 45469 H 4457.42 -0.337696 -2.93161 0
M  V30 45470 H 4457.5 -1.74865 -1.86697 0
M  V30 45471 H 4457.14 -3.26687 -3.88893 0
M  V30 45472 H 4457.07 -1.82886 -4.93822 0
M  V30 45473 H 4459.57 -1.68339 -3.38335 0
M  V30 45474 H 4459.88 -3.99103 -6.61768 0
M  V30 45475 H 4458.22 -3.58329 -5.95504 0
M  V30 45476 H 4461.41 -2.16028 -4.1527 0
M  V30 45477 H 4461.59 -3.21239 -5.62769 0
M  V30 45478 N 4454.99 1.46373 -0.584193 0
M  V30 45479 C 4456.24 2.01978 -0.0701997 0
M  V30 45480 C 4456.56 1.45795 1.29495 0
M  V30 45481 O 4455.83 0.643205 1.8504 0
M  V30 45482 H 4454.41 0.746647 -0.0229607 0
M  V30 45483 H 4457.07 1.79458 -0.760308 0
M  V30 45484 H 4456.17 3.121 -0.00231612 0
M  V30 45485 N 4456.47 0.322054 1.54274 0
M  V30 45486 C 4457.72 -0.280419 2.00145 0
M  V30 45487 C 4458.04 -1.52773 1.21183 0
M  V30 45488 O 4457.31 -1.93379 0.313255 0
M  V30 45489 H 4455.89 -0.106606 0.739354 0
M  V30 45490 H 4458.55 0.43825 1.89909 0
M  V30 45491 H 4457.65 -0.537863 3.0743 0
M  V30 45492 N 4457.95 -1.5752 0.0501946 0
M  V30 45493 C 4459.23 -1.83998 -0.66362 0
M  V30 45494 C 4459.61 -0.938406 -1.89096 0
M  V30 45495 O 4458.95 0.000797261 -2.285 0
M  V30 45496 C 4459.16 -3.33706 -1.02184 0
M  V30 45497 C 4460.51 -4.00696 -1.40455 0
M  V30 45498 O 4461.54 -3.38325 -1.11421 0
M  V30 45499 O 4460.4 -5.10665 -1.94636 0
M  V30 45500 H 4457.49 -0.759397 -0.327483 0
M  V30 45501 H 4460.04 -1.69514 0.0794834 0
M  V30 45502 H 4458.81 -3.91015 -0.149226 0
M  V30 45503 H 4458.43 -3.53374 -1.82243 0
M  V30 45504 N 4459.43 0.223179 -1.56012 0
M  V30 45505 C 4460.84 0.790308 -1.69148 0
M  V30 45506 C 4461.19 1.85053 -0.65191 0
M  V30 45507 O 4460.31 2.15499 0.197283 0
M  V30 45508 C 4460.91 1.44029 -3.06661 0
M  V30 45509 C 4459.47 1.95483 -3.21657 0
M  V30 45510 C 4458.62 0.814413 -2.65071 0
M  V30 45511 H 4461.57 -0.0014459 -1.587 0
M  V30 45512 H 4461.59 2.30906 -3.02428 0
M  V30 45513 H 4461.1 0.668409 -3.82301 0
M  V30 45514 H 4459.2 2.75478 -2.50884 0
M  V30 45515 H 4459.31 2.13592 -4.28854 0
M  V30 45516 H 4457.68 1.2213 -2.23509 0
M  V30 45517 H 4458.46 0.0552308 -3.43256 0
M  V30 45518 N 4460.91 1.49795 0.489818 0
M  V30 45519 C 4461.86 1.63678 1.58724 0
M  V30 45520 C 4462.84 0.492009 1.53193 0
M  V30 45521 O 4464.03 0.745517 1.60534 0
M  V30 45522 C 4461.16 1.71699 2.97278 0
M  V30 45523 C 4460.25 2.91791 3.07764 0
M  V30 45524 N 4460.64 4.15724 2.88109 0
M  V30 45525 C 4458.94 2.89961 3.38879 0
M  V30 45526 C 4459.64 4.96511 3.03071 0
M  V30 45527 N 4458.61 4.30095 3.32445 0
M  V30 45528 H 4462.41 2.57209 1.42199 0
M  V30 45529 H 4459.93 1.46721 0.696178 0
M  V30 45530 H 4461.93 1.79745 3.76161 0
M  V30 45531 H 4460.59 0.793135 3.14864 0
M  V30 45532 H 4461.6 4.45525 2.64061 0
M  V30 45533 H 4458.27 2.06999 3.62571 0
M  V30 45534 H 4459.66 6.05001 2.92273 0
M  V30 45535 N 4462.38 -0.741673 1.39057 0
M  V30 45536 C 4463.61 -1.53602 1.3936 0
M  V30 45537 C 4464.03 -1.88096 -0.0116244 0
M  V30 45538 O 4463.39 -1.51434 -0.996871 0
M  V30 45539 C 4463.44 -2.80434 2.26692 0
M  V30 45540 O 4462.54 -3.76082 1.69222 0
M  V30 45541 H 4461.88 -0.464126 0.474851 0
M  V30 45542 H 4464.41 -0.9156 1.8297 0
M  V30 45543 H 4464.42 -3.29237 2.40971 0
M  V30 45544 H 4463.1 -2.54659 3.28819 0
M  V30 45545 H 4461.68 -3.34827 1.6415 0
M  V30 45546 N 4463.86 -1.24123 -0.971145 0
M  V30 45547 C 4465.1 -1.09072 -1.72866 0
M  V30 45548 C 4465.47 0.364727 -1.88504 0
M  V30 45549 O 4466.67 0.636656 -2.61152 0
M  V30 45550 C 4464.94 -1.80639 -3.0839 0
M  V30 45551 S 4466.5 -1.81277 -3.99605 0
M  V30 45552 H 4463.31 -0.390166 -0.594383 0
M  V30 45553 H 4465.92 -1.57401 -1.15954 0
M  V30 45554 H 4464.62 -2.85657 -2.94666 0
M  V30 45555 H 4464.15 -1.32631 -3.70368 0
M  V30 45556 H 4466.17 -0.877976 -4.88371 0
M  V30 45557 N 4465.34 1.17131 -1.05443 0
M  V30 45558 C 4466.29 2.21233 -0.657617 0
M  V30 45559 C 4467.26 1.62552 0.341486 0
M  V30 45560 O 4468.44 1.8938 0.232326 0
M  V30 45561 C 4465.58 3.45075 -0.0411789 0
M  V30 45562 C 4464.7 4.18038 -1.08942 0
M  V30 45563 C 4463.83 5.29374 -0.440034 0
M  V30 45564 C 4462.87 5.94127 -1.47241 0
M  V30 45565 N 4462.01 6.96972 -0.847001 0
M  V30 45566 H 4466.85 2.54529 -1.54981 0
M  V30 45567 H 4464.38 1.25026 -0.775049 0
M  V30 45568 H 4466.34 4.15863 0.333684 0
M  V30 45569 H 4464.97 3.12356 0.814458 0
M  V30 45570 H 4464.02 3.4594 -1.58209 0
M  V30 45571 H 4465.34 4.623 -1.87298 0
M  V30 45572 H 4464.49 6.06699 -0.0117258 0
M  V30 45573 H 4463.23 4.86252 0.375485 0
M  V30 45574 H 4462.23 5.15531 -1.91071 0
M  V30 45575 H 4463.46 6.39329 -2.28987 0
M  V30 45576 H 4461.4 6.55979 -0.0520381 0
M  V30 45577 H 4461.32 7.39559 -1.56806 0
M  V30 45578 H 4462.59 7.78237 -0.443551 0
M  V30 45579 N 4466.82 0.835799 1.33612 0
M  V30 45580 C 4467.78 0.27208 2.27579 0
M  V30 45581 C 4468.78 -0.557434 1.50829 0
M  V30 45582 O 4469.97 -0.37167 1.70189 0
M  V30 45583 C 4467.1 -0.617055 3.35269 0
M  V30 45584 H 4468.3 1.10121 2.7895 0
M  V30 45585 H 4465.85 0.608645 1.43962 0
M  V30 45586 H 4466.58 -1.46874 2.89134 0
M  V30 45587 H 4466.37 -0.0235688 3.92093 0
M  V30 45588 H 4467.86 -1.00485 4.0533 0
M  V30 45589 N 4468.3 -1.46061 0.591947 0
M  V30 45590 C 4469.54 -2.02637 0.0811903 0
M  V30 45591 C 4469.88 -1.46134 -1.279 0
M  V30 45592 O 4469.15 -0.629972 -1.84015 0
M  V30 45593 C 4469.43 -3.60091 0.0253702 0
M  V30 45594 C 4469.29 -4.2696 1.41511 0
M  V30 45595 C 4470.61 -4.34962 -0.670532 0
M  V30 45596 H 4467.72 -0.736349 0.0309783 0
M  V30 45597 H 4470.37 -1.74098 0.76092 0
M  V30 45598 H 4468.52 -3.84537 -0.553489 0
M  V30 45599 H 4470.19 -4.13749 2.03985 0
M  V30 45600 H 4468.43 -3.85964 1.98025 0
M  V30 45601 H 4469.1 -5.35776 1.32844 0
M  V30 45602 H 4471.58 -4.15716 -0.178679 0
M  V30 45603 H 4470.45 -5.44689 -0.678646 0
M  V30 45604 H 4470.72 -4.06691 -1.73364 0
M  V30 45605 N 4469.77 -0.330231 -1.54101 0
M  V30 45606 C 4471 0.272107 -2.05103 0
M  V30 45607 C 4471.42 1.45262 -1.206 0
M  V30 45608 O 4470.77 1.80939 -0.238207 0
M  V30 45609 C 4470.83 0.700105 -3.54656 0
M  V30 45610 O 4470.55 -0.433454 -4.3595 0
M  V30 45611 C 4472.05 1.36455 -4.21776 0
M  V30 45612 H 4469.27 0.0548923 -0.668751 0
M  V30 45613 H 4471.81 -0.478355 -1.98827 0
M  V30 45614 H 4469.97 1.40053 -3.61198 0
M  V30 45615 H 4470.38 -0.0949383 -5.24414 0
M  V30 45616 H 4471.85 1.61491 -5.27849 0
M  V30 45617 H 4472.33 2.31396 -3.733 0
M  V30 45618 H 4472.94 0.706528 -4.1939 0
M  V30 45619 N 4471.25 1.57491 -0.0585476 0
M  V30 45620 C 4472.53 1.84348 0.653853 0
M  V30 45621 C 4472.91 0.948421 1.88595 0
M  V30 45622 O 4472.26 0.0113207 2.28497 0
M  V30 45623 C 4472.47 3.34243 1.00413 0
M  V30 45624 C 4473.82 4.01435 1.38328 0
M  V30 45625 O 4474.84 3.38911 1.09626 0
M  V30 45626 O 4473.7 5.1169 1.91925 0
M  V30 45627 H 4470.79 0.761123 0.323451 0
M  V30 45628 H 4473.34 1.69469 -0.0884721 0
M  V30 45629 H 4472.11 3.91089 0.128488 0
M  V30 45630 H 4471.73 3.54336 1.80366 0
M  V30 45631 N 4472.73 -0.214903 1.56128 0
M  V30 45632 C 4473.64 -1.28721 1.96133 0
M  V30 45633 C 4474.66 -1.50913 0.866097 0
M  V30 45634 O 4475.83 -1.63914 1.17022 0
M  V30 45635 C 4472.9 -2.61561 2.27567 0
M  V30 45636 C 4471.96 -2.47613 3.50694 0
M  V30 45637 C 4471.19 -3.74119 3.80619 0
M  V30 45638 O 4471.41 -4.77427 3.12121 0
M  V30 45639 O 4470.35 -3.70832 4.74096 0
M  V30 45640 H 4474.17 -0.977754 2.8753 0
M  V30 45641 H 4471.76 -0.418308 1.43424 0
M  V30 45642 H 4473.64 -3.40003 2.4895 0
M  V30 45643 H 4472.32 -2.92174 1.39342 0
M  V30 45644 H 4471.22 -1.67349 3.34582 0
M  V30 45645 H 4472.56 -2.21938 4.39322 0
M  V30 45646 N 4474.21 -1.50053 -0.481867 0
M  V30 45647 C 4475.12 -1.70896 -1.60722 0
M  V30 45648 C 4476.13 -0.591846 -1.63625 0
M  V30 45649 O 4477.31 -0.868881 -1.81693 0
M  V30 45650 C 4474.38 -1.78865 -2.96999 0
M  V30 45651 C 4473.44 -3.02548 -3.0457 0
M  V30 45652 C 4472.67 -3.10128 -4.34346 0
M  V30 45653 O 4472.89 -2.24783 -5.24241 0
M  V30 45654 O 4471.83 -4.02763 -4.47287 0
M  V30 45655 H 4475.65 -2.6627 -1.46062 0
M  V30 45656 H 4473.24 -1.34021 -0.660217 0
M  V30 45657 H 4475.12 -1.86349 -3.77957 0
M  V30 45658 H 4473.79 -0.866738 -3.1188 0
M  V30 45659 H 4472.7 -3.00571 -2.22729 0
M  V30 45660 H 4474.03 -3.94283 -2.94622 0
M  V30 45661 N 4475.69 0.734288 -1.39449 0
M  V30 45662 C 4477.1 1.31259 -1.3277 0
M  V30 45663 C 4477.45 1.96199 0.00760599 0
M  V30 45664 O 4476.57 1.96349 0.909727 0
M  V30 45665 C 4477.17 2.38674 -2.40459 0
M  V30 45666 C 4475.73 2.92175 -2.37299 0
M  V30 45667 C 4474.87 1.65752 -2.2231 0
M  V30 45668 H 4477.83 0.531746 -1.49526 0
M  V30 45669 H 4477.85 3.1908 -2.07288 0
M  V30 45670 H 4477.36 1.9138 -3.37632 0
M  V30 45671 H 4475.46 3.43747 -1.43766 0
M  V30 45672 H 4475.57 3.45241 -3.32183 0
M  V30 45673 H 4473.94 1.90114 -1.69495 0
M  V30 45674 H 4474.72 1.20509 -3.21454 0
M  V30 45675 N 4477.16 1.24636 0.964549 0
M  V30 45676 C 4478.41 1.08794 1.70792 0
M  V30 45677 C 4478.74 -0.372716 1.90895 0
M  V30 45678 O 4477.99 -1.29162 1.47022 0
M  V30 45679 C 4478.29 1.77641 3.10127 0
M  V30 45680 C 4477.96 3.27568 3.09855 0
M  V30 45681 C 4476.62 3.68471 3.09488 0
M  V30 45682 C 4478.97 4.234 3.03944 0
M  V30 45683 C 4476.3 5.03634 3.00947 0
M  V30 45684 C 4478.65 5.58575 2.96946 0
M  V30 45685 C 4477.32 5.9882 2.94909 0
M  V30 45686 H 4476.59 0.398106 0.624974 0
M  V30 45687 H 4479.23 1.54781 1.12762 0
M  V30 45688 H 4477.54 1.24058 3.71641 0
M  V30 45689 H 4479.24 1.62845 3.66446 0
M  V30 45690 H 4475.83 2.95017 3.10907 0
M  V30 45691 H 4480.01 3.92797 3.03355 0
M  V30 45692 H 4475.27 5.34008 2.97733 0
M  V30 45693 H 4479.44 6.32534 2.91332 0
M  V30 45694 H 4477.07 7.03515 2.88046 0
M  V30 45695 N 4478.64 -1.1657 1.06062 0
M  V30 45696 C 4479.57 -2.23055 0.690566 0
M  V30 45697 C 4480.55 -1.67142 -0.315842 0
M  V30 45698 O 4481.74 -1.93254 -0.191488 0
M  V30 45699 C 4478.87 -3.47222 0.0737471 0
M  V30 45700 C 4477.82 -4.16012 1.00587 0
M  V30 45701 C 4477.15 -5.34104 0.252477 0
M  V30 45702 C 4478.45 -4.67255 2.33387 0
M  V30 45703 H 4480.14 -2.54265 1.58081 0
M  V30 45704 H 4477.69 -1.22216 0.761533 0
M  V30 45705 H 4479.64 -4.20939 -0.196992 0
M  V30 45706 H 4478.37 -3.15305 -0.851499 0
M  V30 45707 H 4477.02 -3.44218 1.26132 0
M  V30 45708 H 4476.67 -4.98439 -0.675813 0
M  V30 45709 H 4476.37 -5.81069 0.873659 0
M  V30 45710 H 4477.9 -6.10599 -0.010771 0
M  V30 45711 H 4479.31 -5.32566 2.12242 0
M  V30 45712 H 4477.71 -5.24833 2.90982 0
M  V30 45713 H 4478.78 -3.83591 2.96624 0
M  V30 45714 N 4480.12 -0.842873 -1.33167 0
M  V30 45715 C 4481.37 -0.436807 -1.96913 0
M  V30 45716 C 4481.68 1.01019 -1.67495 0
M  V30 45717 O 4482.89 1.52112 -2.24887 0
M  V30 45718 C 4481.35 -0.730144 -3.52416 0
M  V30 45719 C 4480.95 -2.19209 -3.90707 0
M  V30 45720 C 4482.7 -0.391225 -4.22693 0
M  V30 45721 C 4480.6 -2.42926 -5.39204 0
M  V30 45722 H 4479.53 -0.159606 -0.736914 0
M  V30 45723 H 4482.19 -1.03201 -1.51729 0
M  V30 45724 H 4480.57 -0.0645147 -3.95947 0
M  V30 45725 H 4481.74 -2.89853 -3.58221 0
M  V30 45726 H 4480.06 -2.49437 -3.33422 0
M  V30 45727 H 4482.65 -0.546004 -5.31905 0
M  V30 45728 H 4483 0.66615 -4.10936 0
M  V30 45729 H 4483.53 -1.01225 -3.84705 0
M  V30 45730 H 4480.27 -3.47244 -5.5597 0
M  V30 45731 H 4479.79 -1.76847 -5.73136 0
M  V30 45732 H 4481.47 -2.26281 -6.0614 0
M  V30 45733 N 4481.6 1.45745 -0.599685 0
M  V30 45734 C 4482.85 2.02292 -0.0917995 0
M  V30 45735 C 4483.17 1.4691 1.27466 0
M  V30 45736 O 4482.43 0.630717 1.85258 0
M  V30 45737 C 4482.73 3.574 0.00590194 0
M  V30 45738 C 4482.39 4.31898 -1.29518 0
M  V30 45739 C 4481.06 4.51969 -1.6516 0
M  V30 45740 C 4483.41 4.74543 -2.15542 0
M  V30 45741 C 4480.74 5.11939 -2.86592 0
M  V30 45742 C 4483.09 5.35856 -3.36215 0
M  V30 45743 C 4481.75 5.54152 -3.72119 0
M  V30 45744 H 4481.02 0.740238 -0.0335918 0
M  V30 45745 H 4483.67 1.74907 -0.779722 0
M  V30 45746 H 4481.97 3.84017 0.777048 0
M  V30 45747 H 4483.67 3.98848 0.414898 0
M  V30 45748 H 4480.26 4.16584 -1.00775 0
M  V30 45749 H 4484.45 4.58777 -1.89306 0
M  V30 45750 H 4479.7 5.24293 -3.14526 0
M  V30 45751 H 4483.88 5.67856 -4.03129 0
M  V30 45752 H 4481.5 6.0039 -4.66301 0
M  V30 45753 N 4483.08 0.338398 1.53924 0
M  V30 45754 C 4484.04 -0.50822 2.23494 0
M  V30 45755 C 4485.04 -1.03171 1.23339 0
M  V30 45756 O 4486.23 -0.921774 1.47814 0
M  V30 45757 C 4483.36 -1.70744 2.95058 0
M  V30 45758 H 4484.56 0.100163 2.99733 0
M  V30 45759 H 4482.11 0.0896747 1.56043 0
M  V30 45760 H 4482.84 -2.35466 2.22994 0
M  V30 45761 H 4482.63 -1.33933 3.68517 0
M  V30 45762 H 4484.12 -2.30806 3.48021 0
M  V30 45763 N 4484.56 -1.57458 0.0668989 0
M  V30 45764 C 4485.5 -2.13642 -0.919776 0
M  V30 45765 C 4486.5 -1.07209 -1.31159 0
M  V30 45766 O 4487.7 -1.25596 -1.28941 0
M  V30 45767 H 4484.08 -0.683059 -0.314538 0
M  V30 45768 H 4486.05 -2.95416 -0.420943 0
M  V30 45769 C 4484.8 -2.70899 -2.17965 0
M  V30 45770 H 4484.12 -3.52467 -1.88699 0
M  V30 45771 H 4485.56 -3.13813 -2.85127 0
M  V30 45772 C 4484.02 -1.65424 -2.9349 0
M  V30 45773 O 4484.55 -1.07633 -3.87012 0
M  V30 45774 N 4482.76 -1.36573 -2.56507 0
M  V30 45775 H 4482.3 -1.83757 -1.8053 0
M  V30 45776 H 4482.26 -0.662338 -3.07344 0
M  V30 45777 N 4486.03 0.20662 -1.5624 0
M  V30 45778 C 4487.45 0.556972 -1.49566 0
M  V30 45779 C 4487.65 1.86422 -0.764801 0
M  V30 45780 O 4486.71 2.50583 -0.310579 0
M  V30 45781 C 4488.02 0.622375 -2.94189 0
M  V30 45782 C 4489.57 0.711992 -3.04794 0
M  V30 45783 C 4490.04 0.808608 -4.50805 0
M  V30 45784 N 4491.53 0.87244 -4.5491 0
M  V30 45785 C 4492.27 0.967166 -5.65184 0
M  V30 45786 N 4491.76 1.02491 -6.85177 0
M  V30 45787 N 4493.56 1.00346 -5.53071 0
M  V30 45788 H 4485.71 -0.651014 -2.02177 0
M  V30 45789 H 4487.97 -0.230419 -0.919571 0
M  V30 45790 H 4487.68 -0.26885 -3.50671 0
M  V30 45791 H 4487.55 1.48098 -3.46911 0
M  V30 45792 H 4489.94 1.59365 -2.48368 0
M  V30 45793 H 4490.02 -0.172579 -2.55217 0
M  V30 45794 H 4489.66 -0.0686539 -5.07854 0
M  V30 45795 H 4489.59 1.70881 -4.98104 0
M  V30 45796 H 4492.08 0.837527 -3.68502 0
M  V30 45797 H 4492.4 1.09738 -7.64969 0
M  V30 45798 H 4490.74 0.993784 -6.87858 0
M  V30 45799 H 4493.93 0.955108 -4.58252 0
M  V30 45800 H 4494.11 1.07383 -6.39041 0
M  V30 45801 N 4487.51 1.50306 0.473902 0
M  V30 45802 C 4488.74 1.64668 1.24772 0
M  V30 45803 C 4489.15 0.328239 1.86331 0
M  V30 45804 O 4488.49 -0.699476 1.69862 0
M  V30 45805 C 4488.55 2.67788 2.39854 0
M  V30 45806 C 4488.22 4.1142 1.98955 0
M  V30 45807 C 4489.22 4.97377 1.51368 0
M  V30 45808 C 4486.9 4.57319 2.07761 0
M  V30 45809 C 4488.89 6.27281 1.13126 0
M  V30 45810 C 4486.58 5.87229 1.69131 0
M  V30 45811 C 4487.58 6.72035 1.21892 0
M  V30 45812 O 4487.27 7.99521 0.837956 0
M  V30 45813 H 4487 0.556616 0.383608 0
M  V30 45814 H 4489.55 1.97262 0.572422 0
M  V30 45815 H 4487.78 2.3043 3.10546 0
M  V30 45816 H 4489.47 2.71399 3.01824 0
M  V30 45817 H 4490.24 4.63133 1.43988 0
M  V30 45818 H 4486.12 3.91457 2.43479 0
M  V30 45819 H 4489.66 6.93428 0.761834 0
M  V30 45820 H 4485.56 6.20995 1.76169 0
M  V30 45821 H 4486.33 8.12767 0.967053 0
M  V30 45822 N 4488.99 -0.726883 1.39836 0
M  V30 45823 C 4490.22 -1.51388 1.40589 0
M  V30 45824 C 4490.63 -1.892 0.000807138 0
M  V30 45825 O 4489.97 -1.55193 -0.982897 0
M  V30 45826 C 4490.03 -2.8258 2.22236 0
M  V30 45827 C 4489.7 -2.67156 3.70779 0
M  V30 45828 C 4490.69 -2.35163 4.63675 0
M  V30 45829 C 4488.38 -2.83773 4.14461 0
M  V30 45830 C 4490.37 -2.19981 5.98237 0
M  V30 45831 C 4488.06 -2.68209 5.49096 0
M  V30 45832 C 4489.06 -2.3636 6.40799 0
M  V30 45833 O 4488.75 -2.20902 7.72954 0
M  V30 45834 H 4488.48 -0.474151 0.481826 0
M  V30 45835 H 4491.03 -0.905182 1.84379 0
M  V30 45836 H 4489.26 -3.4574 1.73207 0
M  V30 45837 H 4490.95 -3.4424 2.15067 0
M  V30 45838 H 4491.72 -2.21969 4.31225 0
M  V30 45839 H 4487.6 -3.07554 3.43412 0
M  V30 45840 H 4491.14 -1.95044 6.69779 0
M  V30 45841 H 4487.04 -2.80985 5.81135 0
M  V30 45842 H 4487.8 -2.3591 7.83766 0
M  V30 45843 N 4490.47 -1.25146 -0.957926 0
M  V30 45844 C 4491.4 -1.07718 -2.07169 0
M  V30 45845 C 4492.38 0.0127864 -1.70095 0
M  V30 45846 O 4493.56 -0.156129 -1.93571 0
M  V30 45847 C 4490.69 -0.691622 -3.40344 0
M  V30 45848 C 4489.65 -1.73146 -3.91413 0
M  V30 45849 C 4488.97 -1.20068 -5.21045 0
M  V30 45850 C 4490.27 -3.12954 -4.18159 0
M  V30 45851 H 4491.97 -2.00881 -2.22007 0
M  V30 45852 H 4489.51 -0.967229 -1.0668 0
M  V30 45853 H 4491.47 -0.556651 -4.17707 0
M  V30 45854 H 4490.19 0.275704 -3.25434 0
M  V30 45855 H 4488.85 -1.85481 -3.16216 0
M  V30 45856 H 4488.5 -0.223675 -5.02502 0
M  V30 45857 H 4488.2 -1.89564 -5.56183 0
M  V30 45858 H 4489.72 -1.07803 -6.01008 0
M  V30 45859 H 4491.14 -3.03792 -4.86193 0
M  V30 45860 H 4489.53 -3.79891 -4.64545 0
M  V30 45861 H 4490.6 -3.60262 -3.24561 0
M  V30 45862 N 4491.95 1.16006 -1.06679 0
M  V30 45863 C 4493.36 1.3862 -0.790997 0
M  V30 45864 C 4493.56 1.92112 0.607898 0
M  V30 45865 O 4492.62 2.12244 1.3678 0
M  V30 45866 C 4493.93 2.3634 -1.85914 0
M  V30 45867 C 4495.48 2.50017 -1.8831 0
M  V30 45868 C 4495.95 3.51023 -2.94189 0
M  V30 45869 N 4497.44 3.58553 -2.93248 0
M  V30 45870 C 4498.18 4.36508 -3.71818 0
M  V30 45871 N 4497.68 5.17853 -4.60218 0
M  V30 45872 N 4499.47 4.31529 -3.60193 0
M  V30 45873 H 4491.62 0.796225 -1.96911 0
M  V30 45874 H 4493.88 0.412567 -0.853518 0
M  V30 45875 H 4493.59 2.04137 -2.86393 0
M  V30 45876 H 4493.46 3.36036 -1.71346 0
M  V30 45877 H 4495.85 2.81521 -0.884868 0
M  V30 45878 H 4495.93 1.50343 -2.06956 0
M  V30 45879 H 4495.57 3.20255 -3.94207 0
M  V30 45880 H 4495.5 4.50436 -2.72791 0
M  V30 45881 H 4498 3.00488 -2.29163 0
M  V30 45882 H 4498.31 5.7456 -5.16817 0
M  V30 45883 H 4496.65 5.17182 -4.64271 0
M  V30 45884 H 4499.84 3.67041 -2.90514 0
M  V30 45885 H 4500.02 4.92035 -4.2167 0
M  V30 45886 N 4493.42 0.849923 1.32718 0
M  V30 45887 C 4494.37 0.289113 2.28982 0
M  V30 45888 C 4495.34 -0.601269 1.54835 0
M  V30 45889 O 4496.53 -0.537189 1.83082 0
M  V30 45890 C 4493.67 -0.520503 3.41152 0
M  V30 45891 C 4492.78 0.39514 4.30189 0
M  V30 45892 C 4491.91 -0.426648 5.29484 0
M  V30 45893 C 4490.95 0.48669 6.10162 0
M  V30 45894 N 4490.09 -0.297632 7.01469 0
M  V30 45895 H 4494.93 1.11529 2.76343 0
M  V30 45896 H 4492.47 0.561427 1.35965 0
M  V30 45897 H 4494.42 -1.00549 4.04902 0
M  V30 45898 H 4493.05 -1.31155 2.94955 0
M  V30 45899 H 4492.11 0.998489 3.67062 0
M  V30 45900 H 4493.42 1.09629 4.86603 0
M  V30 45901 H 4492.57 -0.974994 5.98814 0
M  V30 45902 H 4491.31 -1.16119 4.73675 0
M  V30 45903 H 4490.32 1.04696 5.3974 0
M  V30 45904 H 4491.54 1.21977 6.68056 0
M  V30 45905 H 4489.49 -1.01535 6.48095 0
M  V30 45906 H 4489.4 0.344583 7.55214 0
M  V30 45907 H 4490.67 -0.827858 7.75091 0
M  V30 45908 N 4494.9 -1.45425 0.607406 0
M  V30 45909 C 4495.83 -2.33291 -0.0988532 0
M  V30 45910 C 4496.81 -1.4682 -0.858955 0
M  V30 45911 O 4498 -1.75591 -0.829542 0
M  V30 45912 C 4495.13 -3.29522 -1.09693 0
M  V30 45913 C 4494.08 -4.25627 -0.450056 0
M  V30 45914 C 4493.41 -5.11548 -1.55637 0
M  V30 45915 C 4494.71 -5.18503 0.628637 0
M  V30 45916 H 4496.4 -2.92593 0.634818 0
M  V30 45917 H 4493.95 -1.40695 0.306731 0
M  V30 45918 H 4495.9 -3.89861 -1.59957 0
M  V30 45919 H 4494.63 -2.68379 -1.8612 0
M  V30 45920 H 4493.28 -3.66586 0.0317175 0
M  V30 45921 H 4492.93 -4.46773 -2.31091 0
M  V30 45922 H 4492.63 -5.76651 -1.12905 0
M  V30 45923 H 4494.16 -5.74755 -2.06128 0
M  V30 45924 H 4495.57 -5.72915 0.210078 0
M  V30 45925 H 4493.97 -5.92082 0.977697 0
M  V30 45926 H 4495.04 -4.60943 1.50531 0
M  V30 45927 N 4496.38 -0.346557 -1.53742 0
M  V30 45928 C 4497.33 0.52414 -2.26618 0
M  V30 45929 C 4498.32 1.09943 -1.28875 0
M  V30 45930 O 4499.53 1.04483 -1.46572 0
M  V30 45931 H 4495.9 0.187717 -0.728194 0
M  V30 45932 H 4497.87 -0.112495 -2.98188 0
M  V30 45933 C 4496.62 1.66175 -3.0542 0
M  V30 45934 H 4495.95 1.22835 -3.80462 0
M  V30 45935 H 4497.39 2.24609 -3.5962 0
M  V30 45936 C 4495.85 2.59295 -2.15099 0
M  V30 45937 O 4496.38 3.61621 -1.74908 0
M  V30 45938 N 4494.58 2.28048 -1.80118 0
M  V30 45939 H 4494.13 1.44876 -2.13 0
M  V30 45940 H 4494.09 2.90611 -1.19969 0
M  V30 45941 N 4497.86 1.5742 -0.0752483 0
M  V30 45942 C 4498.79 2.15945 0.888248 0
M  V30 45943 C 4499.77 1.08741 1.30803 0
M  V30 45944 O 4500.95 1.36792 1.37846 0
M  V30 45945 C 4498.08 2.72386 2.1546 0
M  V30 45946 C 4497.04 3.84787 1.87411 0
M  V30 45947 C 4496.36 4.27845 3.20706 0
M  V30 45948 C 4497.66 5.08873 1.17666 0
M  V30 45949 H 4499.36 2.96707 0.400695 0
M  V30 45950 H 4496.9 1.42724 0.191292 0
M  V30 45951 H 4498.86 3.11975 2.83284 0
M  V30 45952 H 4497.58 1.88851 2.66464 0
M  V30 45953 H 4496.24 3.45707 1.21992 0
M  V30 45954 H 4495.89 3.41227 3.69558 0
M  V30 45955 H 4495.59 5.03616 3.02729 0
M  V30 45956 H 4497.11 4.70053 3.89721 0
M  V30 45957 H 4498.53 5.45756 1.75564 0
M  V30 45958 H 4496.92 5.89944 1.09935 0
M  V30 45959 H 4497.99 4.84648 0.156283 0
M  V30 45960 N 4499.34 -0.198331 1.56347 0
M  V30 45961 C 4500.61 -0.944922 1.71262 0
M  V30 45962 C 4500.99 -2.01508 0.629119 0
M  V30 45963 O 4500.34 -2.2564 -0.360393 0
M  V30 45964 C 4500.55 -1.53428 3.13466 0
M  V30 45965 C 4501.9 -2.01765 3.73599 0
M  V30 45966 O 4502.92 -1.63277 3.16574 0
M  V30 45967 O 4501.78 -2.72578 4.7367 0
M  V30 45968 H 4498.88 -0.442914 0.698395 0
M  V30 45969 H 4501.42 -0.188282 1.68652 0
M  V30 45970 H 4500.19 -0.762734 3.83794 0
M  V30 45971 H 4499.82 -2.35585 3.2029 0
M  V30 45972 N 4500.81 -1.50555 -0.465925 0
M  V30 45973 C 4502.06 -1.61483 -1.21522 0
M  V30 45974 C 4502.38 -0.319664 -1.92362 0
M  V30 45975 O 4501.65 0.663129 -1.84335 0
M  V30 45976 H 4500.23 -0.595071 -0.451552 0
M  V30 45977 H 4502.9 -1.87357 -0.536974 0
M  V30 45978 H 4501.99 -2.42853 -1.96033 0
M  V30 45979 N 4502.29 0.719457 -1.4022 0
M  V30 45980 C 4503.52 1.51366 -1.41786 0
M  V30 45981 C 4503.94 1.88091 -0.0183016 0
M  V30 45982 O 4503.3 1.53 0.972653 0
M  V30 45983 C 4503.35 2.76792 -2.31125 0
M  V30 45984 O 4502.45 3.73342 -1.75183 0
M  V30 45985 H 4501.79 0.456512 -0.482175 0
M  V30 45986 H 4504.32 0.886376 -1.84403 0
M  V30 45987 H 4504.33 3.25362 -2.46178 0
M  V30 45988 H 4503.01 2.49395 -3.32828 0
M  V30 45989 H 4501.59 3.32173 -1.69456 0
M  V30 45990 N 4503.77 1.25652 0.951275 0
M  V30 45991 C 4504.72 1.06126 2.06978 0
M  V30 45992 C 4505.71 -0.00883214 1.69398 0
M  V30 45993 O 4506.92 0.147051 1.79398 0
M  V30 45994 H 4503.29 0.326272 0.677533 0
M  V30 45995 H 4505.26 2.0094 2.20603 0
M  V30 45996 C 4504.01 0.700265 3.40575 0
M  V30 45997 H 4503.34 1.5155 3.69963 0
M  V30 45998 H 4504.78 0.603358 4.19685 0
M  V30 45999 C 4503.24 -0.593913 3.31624 0
M  V30 46000 O 4503.77 -1.63509 3.66916 0
M  V30 46001 N 4501.97 -0.58079 2.84737 0
M  V30 46002 H 4501.52 0.266874 2.56214 0
M  V30 46003 H 4501.48 -1.44685 2.7913 0
M  V30 46004 N 4505.25 -1.15438 1.07293 0
M  V30 46005 C 4506.48 -1.89818 0.815642 0
M  V30 46006 C 4506.89 -1.78233 -0.634804 0
M  V30 46007 O 4506.23 -1.13157 -1.44711 0
M  V30 46008 C 4506.29 -3.40813 1.14397 0
M  V30 46009 C 4505.96 -3.76184 2.59489 0
M  V30 46010 C 4506.95 -3.77257 3.57734 0
M  V30 46011 C 4504.64 -4.0651 2.95051 0
M  V30 46012 C 4506.63 -4.08159 4.89576 0
M  V30 46013 C 4504.32 -4.37077 4.27091 0
M  V30 46014 C 4505.32 -4.37883 5.24163 0
M  V30 46015 O 4505 -4.67718 6.53831 0
M  V30 46016 H 4504.74 -0.608454 0.294549 0
M  V30 46017 H 4507.29 -1.47195 1.43258 0
M  V30 46018 H 4505.52 -3.83833 0.47 0
M  V30 46019 H 4507.21 -3.96482 0.869318 0
M  V30 46020 H 4507.98 -3.53928 3.31602 0
M  V30 46021 H 4503.85 -4.05041 2.20142 0
M  V30 46022 H 4507.4 -4.08703 5.65338 0
M  V30 46023 H 4503.3 -4.59873 4.52976 0
M  V30 46024 H 4504.06 -4.85485 6.58974 0
M  V30 46025 N 4506.73 -0.85695 -1.32265 0
M  V30 46026 C 4507.95 -0.47551 -2.01362 0
M  V30 46027 C 4508.37 0.928429 -1.64395 0
M  V30 46028 O 4507.73 1.60621 -0.866443 0
M  V30 46029 C 4507.78 -0.607671 -3.56356 0
M  V30 46030 O 4507.5 -1.95631 -3.91995 0
M  V30 46031 C 4509 -0.225537 -4.42726 0
M  V30 46032 H 4506.22 -0.186659 -0.644515 0
M  V30 46033 H 4508.76 -1.15452 -1.68793 0
M  V30 46034 H 4506.92 0.0236357 -3.87393 0
M  V30 46035 H 4507.33 -1.95472 -4.86714 0
M  V30 46036 H 4508.81 -0.369006 -5.50765 0
M  V30 46037 H 4509.28 0.834217 -4.31205 0
M  V30 46038 H 4509.89 -0.83201 -4.17082 0
M  V30 46039 N 4508.2 1.45101 -0.61511 0
M  V30 46040 C 4509.13 2.3334 0.0864799 0
M  V30 46041 C 4510.12 1.47273 0.851157 0
M  V30 46042 O 4511.3 1.76029 0.820219 0
M  V30 46043 C 4508.43 3.30099 1.07944 0
M  V30 46044 C 4507.38 4.2586 0.427478 0
M  V30 46045 C 4506.71 5.12366 1.52922 0
M  V30 46046 C 4508.01 5.18162 -0.656126 0
M  V30 46047 H 4509.7 2.92252 -0.650326 0
M  V30 46048 H 4507.25 1.40531 -0.314188 0
M  V30 46049 H 4509.2 3.90704 1.57887 0
M  V30 46050 H 4507.93 2.69362 1.84694 0
M  V30 46051 H 4506.59 3.66564 -0.051158 0
M  V30 46052 H 4506.23 4.47992 2.28718 0
M  V30 46053 H 4505.93 5.77242 1.09845 0
M  V30 46054 H 4507.46 5.7584 2.03077 0
M  V30 46055 H 4508.87 5.72796 -0.240458 0
M  V30 46056 H 4507.27 5.91555 -1.00908 0
M  V30 46057 H 4508.34 4.60138 -1.52973 0
M  V30 46058 N 4509.68 0.354705 1.53557 0
M  V30 46059 C 4510.61 -0.489011 2.28322 0
M  V30 46060 C 4511.59 -1.0932 1.3032 0
M  V30 46061 O 4512.78 -1.11249 1.59177 0
M  V30 46062 C 4509.91 -1.63445 3.06436 0
M  V30 46063 C 4508.86 -1.15805 4.12035 0
M  V30 46064 C 4508.19 -2.39288 4.78169 0
M  V30 46065 C 4509.49 -0.250548 5.21699 0
M  V30 46066 H 4511.18 0.134719 2.99097 0
M  V30 46067 H 4508.73 0.0662332 1.43848 0
M  V30 46068 H 4510.68 -2.23123 3.57483 0
M  V30 46069 H 4509.41 -2.28525 2.33333 0
M  V30 46070 H 4508.07 -0.584019 3.61918 0
M  V30 46071 H 4507.71 -3.028 4.01648 0
M  V30 46072 H 4507.41 -2.08089 5.4952 0
M  V30 46073 H 4508.94 -2.99672 5.32005 0
M  V30 46074 H 4510.35 -0.754495 5.68314 0
M  V30 46075 H 4508.75 -0.0299358 6.00093 0
M  V30 46076 H 4509.82 0.710294 4.7967 0
M  V30 46077 N 4511.16 -1.57378 0.0835957 0
M  V30 46078 C 4512.11 -2.13387 -0.879464 0
M  V30 46079 C 4513.08 -1.04941 -1.2875 0
M  V30 46080 O 4514.26 -1.32667 -1.37128 0
M  V30 46081 C 4511.4 -2.70939 -2.13742 0
M  V30 46082 C 4510.52 -3.93581 -1.78096 0
M  V30 46083 C 4509.65 -4.39336 -2.98592 0
M  V30 46084 C 4508.69 -5.54596 -2.59017 0
M  V30 46085 N 4507.83 -5.95256 -3.7231 0
M  V30 46086 H 4512.67 -2.95371 -0.394972 0
M  V30 46087 H 4510.2 -1.45954 -0.183298 0
M  V30 46088 H 4512.16 -3.02421 -2.87398 0
M  V30 46089 H 4510.79 -1.91702 -2.59712 0
M  V30 46090 H 4509.84 -3.68486 -0.94456 0
M  V30 46091 H 4511.16 -4.77263 -1.44989 0
M  V30 46092 H 4510.31 -4.72541 -3.80512 0
M  V30 46093 H 4509.05 -3.54532 -3.34901 0
M  V30 46094 H 4508.05 -5.2103 -1.75521 0
M  V30 46095 H 4509.28 -6.41141 -2.23865 0
M  V30 46096 H 4507.23 -5.13399 -4.0836 0
M  V30 46097 H 4507.14 -6.73706 -3.4301 0
M  V30 46098 H 4508.41 -6.33088 -4.54775 0
M  V30 46099 N 4512.64 0.190037 -1.5645 0
M  V30 46100 C 4513.57 1.25966 -1.91481 0
M  V30 46101 C 4514.58 1.41449 -0.805981 0
M  V30 46102 O 4515.77 1.41785 -1.0844 0
M  V30 46103 C 4512.87 2.6311 -2.13604 0
M  V30 46104 C 4512.05 2.6917 -3.4477 0
M  V30 46105 C 4511.11 3.87544 -3.55944 0
M  V30 46106 O 4510.13 3.74412 -4.28724 0
M  V30 46107 N 4511.33 5.03214 -2.89406 0
M  V30 46108 H 4514.1 0.962294 -2.83831 0
M  V30 46109 H 4511.66 0.379926 -1.57379 0
M  V30 46110 H 4513.65 3.40735 -2.18362 0
M  V30 46111 H 4512.22 2.85314 -1.27729 0
M  V30 46112 H 4511.44 1.77781 -3.51835 0
M  V30 46113 H 4512.73 2.70214 -4.31117 0
M  V30 46114 H 4512.13 5.16783 -2.30112 0
M  V30 46115 H 4510.68 5.78768 -2.99785 0
M  V30 46116 N 4514.12 1.508 0.457934 0
M  V30 46117 C 4515.37 1.62125 1.20664 0
M  V30 46118 C 4515.69 0.329861 1.9219 0
M  V30 46119 O 4514.96 -0.653344 1.84684 0
M  V30 46120 H 4513.54 0.597457 0.44839 0
M  V30 46121 H 4516.2 1.87639 0.52703 0
M  V30 46122 H 4515.29 2.43889 1.94743 0
M  V30 46123 N 4515.6 -0.71201 1.40599 0
M  V30 46124 C 4516.53 -1.83884 1.43906 0
M  V30 46125 C 4517.51 -1.67441 0.299563 0
M  V30 46126 O 4518.69 -1.87419 0.50869 0
M  V30 46127 C 4515.82 -3.21873 1.30442 0
M  V30 46128 C 4514.78 -3.52994 2.42032 0
M  V30 46129 C 4514.1 -4.90164 2.13643 0
M  V30 46130 C 4515.4 -3.5363 3.84374 0
M  V30 46131 H 4517.1 -1.81375 2.38209 0
M  V30 46132 H 4514.64 -0.871197 1.14657 0
M  V30 46133 H 4516.59 -4.00399 1.31371 0
M  V30 46134 H 4515.32 -3.24967 0.326164 0
M  V30 46135 H 4513.98 -2.76809 2.40359 0
M  V30 46136 H 4513.63 -4.89865 1.14199 0
M  V30 46137 H 4513.33 -5.11952 2.88407 0
M  V30 46138 H 4514.85 -5.7102 2.1626 0
M  V30 46139 H 4516.26 -4.2219 3.87852 0
M  V30 46140 H 4514.66 -3.86945 4.58687 0
M  V30 46141 H 4515.73 -2.5294 4.13702 0
M  V30 46142 N 4517.07 -1.26155 -0.944598 0
M  V30 46143 C 4518.02 -1.07222 -2.06413 0
M  V30 46144 C 4519.02 -0.00015156 -1.694 0
M  V30 46145 O 4520.22 -0.156563 -1.79318 0
M  V30 46146 H 4516.6 -0.32986 -0.675793 0
M  V30 46147 H 4518.57 -2.02107 -2.19534 0
M  V30 46148 C 4517.32 -0.718317 -3.40199 0
M  V30 46149 H 4516.64 -1.5351 -3.69154 0
M  V30 46150 H 4518.08 -0.625607 -4.19359 0
M  V30 46151 C 4516.54 0.576318 -3.31934 0
M  V30 46152 O 4517.07 1.61561 -3.67778 0
M  V30 46153 N 4515.27 0.565681 -2.85041 0
M  V30 46154 H 4514.82 -0.280457 -2.56069 0
M  V30 46155 H 4514.78 1.43203 -2.79893 0
M  V30 46156 N 4518.55 1.14868 -1.07903 0
M  V30 46157 C 4519.5 2.21855 -0.698805 0
M  V30 46158 C 4520.49 1.66846 0.293028 0
M  V30 46159 O 4521.7 1.79321 0.156141 0
M  V30 46160 H 4518.07 0.722683 -0.207925 0
M  V30 46161 H 4520.05 2.512 -1.61063 0
M  V30 46162 C 4518.79 3.47497 -0.118702 0
M  V30 46163 H 4518.12 3.90151 -0.873051 0
M  V30 46164 H 4519.56 4.23858 0.10961 0
M  V30 46165 C 4518.02 3.16951 1.14209 0
M  V30 46166 O 4518.55 3.34268 2.22773 0
M  V30 46167 N 4516.75 2.7095 1.05046 0
M  V30 46168 H 4516.3 2.57058 0.166947 0
M  V30 46169 H 4516.26 2.50886 1.89482 0
M  V30 46170 N 4520.03 0.863952 1.31809 0
M  V30 46171 C 4520.99 0.320292 2.26951 0
M  V30 46172 C 4521.99 -0.525315 1.51977 0
M  V30 46173 O 4523.18 -0.335487 1.70939 0
M  V30 46174 C 4520.31 -0.545801 3.36502 0
M  V30 46175 H 4521.51 1.16013 2.76552 0
M  V30 46176 H 4519.06 0.639045 1.42639 0
M  V30 46177 H 4519.8 -1.40708 2.92184 0
M  V30 46178 H 4519.58 0.0596052 3.92055 0
M  V30 46179 H 4521.07 -0.918652 4.0737 0
M  V30 46180 N 4521.51 -1.44772 0.622796 0
M  V30 46181 C 4522.75 -2.0242 0.124154 0
M  V30 46182 C 4523.09 -1.48815 -1.24771 0
M  V30 46183 O 4522.36 -0.668863 -1.82638 0
M  V30 46184 C 4522.64 -3.59956 0.101745 0
M  V30 46185 C 4522.5 -4.23862 1.50536 0
M  V30 46186 C 4523.82 -4.36286 -0.578119 0
M  V30 46187 H 4520.94 -0.735526 0.0465904 0
M  V30 46188 H 4523.58 -1.72444 0.797678 0
M  V30 46189 H 4521.73 -3.85625 -0.471798 0
M  V30 46190 H 4523.4 -4.09329 2.12715 0
M  V30 46191 H 4521.64 -3.81677 2.06167 0
M  V30 46192 H 4522.31 -5.32838 1.44179 0
M  V30 46193 H 4524.79 -4.16002 -0.0904595 0
M  V30 46194 H 4523.67 -5.46006 -0.562957 0
M  V30 46195 H 4523.93 -4.10276 -1.64699 0
M  V30 46196 N 4522.99 -0.362844 -1.53366 0
M  V30 46197 C 4523.95 0.4726 -2.24275 0
M  V30 46198 C 4524.95 1.01196 -1.24964 0
M  V30 46199 O 4526.14 0.898142 -1.49262 0
M  V30 46200 C 4523.27 1.66028 -2.97737 0
M  V30 46201 H 4524.46 -0.147835 -2.99535 0
M  V30 46202 H 4522.02 -0.114488 -1.5588 0
M  V30 46203 H 4522.75 2.31888 -2.26712 0
M  V30 46204 H 4522.54 1.28053 -3.70601 0
M  V30 46205 H 4524.03 2.2524 -3.51649 0
M  V30 46206 N 4524.46 1.57332 -0.0919406 0
M  V30 46207 C 4525.39 2.16875 0.865295 0
M  V30 46208 C 4526.38 1.10123 1.29642 0
M  V30 46209 O 4527.56 1.38247 1.36387 0
M  V30 46210 C 4524.69 2.74656 2.12559 0
M  V30 46211 C 4523.64 3.86753 1.83319 0
M  V30 46212 C 4522.97 4.31223 3.1615 0
M  V30 46213 C 4524.27 5.10093 1.12262 0
M  V30 46214 H 4525.96 2.97115 0.369203 0
M  V30 46215 H 4523.51 1.42919 0.176143 0
M  V30 46216 H 4525.46 3.14962 2.79959 0
M  V30 46217 H 4524.19 1.91666 2.64446 0
M  V30 46218 H 4522.85 3.46982 1.18319 0
M  V30 46219 H 4522.49 3.45128 3.65918 0
M  V30 46220 H 4522.19 5.06799 2.9737 0
M  V30 46221 H 4523.72 4.7416 3.84714 0
M  V30 46222 H 4525.13 5.47588 1.69766 0
M  V30 46223 H 4523.53 5.91077 1.03672 0
M  V30 46224 H 4524.6 4.84787 0.10487 0
M  V30 46225 N 4525.94 -0.181737 1.56549 0
M  V30 46226 C 4527.22 -0.926704 1.72254 0
M  V30 46227 C 4527.6 -2.00829 0.650456 0
M  V30 46228 O 4526.95 -2.2601 -0.336441 0
M  V30 46229 C 4527.16 -1.50095 3.15075 0
M  V30 46230 C 4528.51 -1.97791 3.75718 0
M  V30 46231 O 4529.53 -1.5991 3.18288 0
M  V30 46232 O 4528.39 -2.67539 4.76535 0
M  V30 46233 H 4525.48 -0.435482 0.703054 0
M  V30 46234 H 4528.03 -0.170384 1.68842 0
M  V30 46235 H 4526.8 -0.721985 3.84582 0
M  V30 46236 H 4526.42 -2.32174 3.22771 0
M  V30 46237 N 4527.42 -1.51041 -0.44993 0
M  V30 46238 C 4528.67 -1.63085 -1.2004 0
M  V30 46239 C 4529 -0.341092 -1.91486 0
M  V30 46240 O 4528.25 0.674212 -1.8372 0
M  V30 46241 C 4528.55 -2.77563 -2.25152 0
M  V30 46242 C 4528.22 -4.17295 -1.70808 0
M  V30 46243 C 4526.88 -4.55311 -1.55709 0
M  V30 46244 C 4529.23 -5.04541 -1.30722 0
M  V30 46245 C 4526.56 -5.78291 -0.989795 0
M  V30 46246 C 4528.91 -6.28087 -0.754261 0
M  V30 46247 C 4527.57 -6.64887 -0.590075 0
M  V30 46248 H 4526.84 -0.596771 -0.439256 0
M  V30 46249 H 4529.49 -1.85038 -0.493265 0
M  V30 46250 H 4527.8 -2.49782 -3.01855 0
M  V30 46251 H 4529.49 -2.84083 -2.83016 0
M  V30 46252 H 4526.08 -3.87316 -1.83533 0
M  V30 46253 H 4530.27 -4.75786 -1.41212 0
M  V30 46254 H 4525.52 -6.05459 -0.850238 0
M  V30 46255 H 4529.7 -6.9504 -0.43508 0
M  V30 46256 H 4527.32 -7.60055 -0.148353 0
M  V30 46257 N 4528.9 0.704544 -1.40975 0
M  V30 46258 C 4530.18 1.45843 -1.30343 0
M  V30 46259 C 4530.56 2.10973 0.0731602 0
M  V30 46260 O 4529.9 2.01001 1.08678 0
M  V30 46261 C 4530.11 2.48517 -2.45031 0
M  V30 46262 C 4531.46 3.1403 -2.85781 0
M  V30 46263 O 4532.49 2.58839 -2.44705 0
M  V30 46264 O 4531.34 4.13968 -3.56781 0
M  V30 46265 H 4528.44 0.649074 -0.512476 0
M  V30 46266 H 4530.98 0.735782 -1.52919 0
M  V30 46267 H 4529.76 1.98982 -3.3693 0
M  V30 46268 H 4529.38 3.28302 -2.24284 0
M  V30 46269 N 4530.38 1.26654 0.937895 0
M  V30 46270 C 4531.61 1.15012 1.71627 0
M  V30 46271 C 4532.01 -0.29696 1.86855 0
M  V30 46272 O 4531.36 -1.21489 1.3779 0
M  V30 46273 C 4531.42 1.74995 3.14033 0
M  V30 46274 C 4531.08 3.24114 3.22179 0
M  V30 46275 C 4532.08 4.20887 3.05205 0
M  V30 46276 C 4529.77 3.64637 3.45464 0
M  V30 46277 C 4531.76 5.56162 3.11389 0
M  V30 46278 C 4529.45 5.00044 3.51282 0
M  V30 46279 C 4530.44 5.95616 3.34261 0
M  V30 46280 O 4530.13 7.28557 3.39795 0
M  V30 46281 H 4529.86 0.401202 0.544071 0
M  V30 46282 H 4532.42 1.67836 1.18407 0
M  V30 46283 H 4530.65 1.16637 3.68691 0
M  V30 46284 H 4532.34 1.58212 3.73797 0
M  V30 46285 H 4533.1 3.90919 2.87067 0
M  V30 46286 H 4528.98 2.9073 3.57766 0
M  V30 46287 H 4532.53 6.30737 2.98021 0
M  V30 46288 H 4528.42 5.29672 3.68941 0
M  V30 46289 H 4529.19 7.36872 3.56317 0
M  V30 46290 N 4531.85 -1.14294 1.08511 0
M  V30 46291 C 4533.27 -1.37344 0.81295 0
M  V30 46292 C 4533.47 -1.93054 -0.577257 0
M  V30 46293 O 4532.53 -2.14393 -1.33386 0
M  V30 46294 C 4533.84 -2.33352 1.8965 0
M  V30 46295 C 4535.39 -2.46989 1.92264 0
M  V30 46296 C 4535.86 -3.46298 2.99736 0
M  V30 46297 N 4537.35 -3.53842 2.98915 0
M  V30 46298 C 4538.09 -4.30537 3.78715 0
M  V30 46299 N 4537.58 -5.10465 4.68398 0
M  V30 46300 N 4539.38 -4.25744 3.67013 0
M  V30 46301 H 4531.53 -0.764797 1.98153 0
M  V30 46302 H 4533.79 -0.398936 0.859973 0
M  V30 46303 H 4533.5 -1.99555 2.89604 0
M  V30 46304 H 4533.37 -3.33268 1.76671 0
M  V30 46305 H 4535.76 -2.80078 0.929544 0
M  V30 46306 H 4535.84 -1.47031 2.09321 0
M  V30 46307 H 4535.48 -3.13943 3.99252 0
M  V30 46308 H 4535.41 -4.46039 2.79923 0
M  V30 46309 H 4537.9 -2.96804 2.33914 0
M  V30 46310 H 4538.22 -5.66265 5.25893 0
M  V30 46311 H 4536.56 -5.09731 4.7244 0
M  V30 46312 H 4539.75 -3.62373 2.96317 0
M  V30 46313 H 4539.93 -4.85264 4.29444 0
M  V30 46314 N 4533.33 -0.87093 -1.31349 0
M  V30 46315 C 4534.24 -0.330865 -2.32255 0
M  V30 46316 C 4535.26 0.559709 -1.64752 0
M  V30 46317 O 4536.43 0.456194 -1.96165 0
M  V30 46318 C 4533.5 0.458016 -3.43661 0
M  V30 46319 C 4532.56 -0.460632 -4.26822 0
M  V30 46320 C 4531.79 0.290694 -5.32908 0
M  V30 46321 O 4532.02 1.51866 -5.49812 0
M  V30 46322 O 4530.95 -0.351943 -6.0087 0
M  V30 46323 H 4534.78 -1.16728 -2.80372 0
M  V30 46324 H 4532.36 -0.634333 -1.35265 0
M  V30 46325 H 4534.24 0.905198 -4.11563 0
M  V30 46326 H 4532.92 1.27096 -2.97705 0
M  V30 46327 H 4531.83 -0.956334 -3.6167 0
M  V30 46328 H 4533.16 -1.2392 -4.76345 0
M  V30 46329 N 4534.81 1.4444 -0.630465 0
M  V30 46330 C 4535.74 2.2892 0.113266 0
M  V30 46331 C 4536.76 1.41245 0.80954 0
M  V30 46332 O 4537.94 1.65404 0.671098 0
M  V30 46333 C 4535.04 3.17599 1.18255 0
M  V30 46334 C 4534.22 4.33684 0.568921 0
M  V30 46335 C 4533.28 5.03402 1.53208 0
M  V30 46336 O 4532.3 5.59441 1.04948 0
M  V30 46337 N 4533.5 5.04793 2.86643 0
M  V30 46338 H 4536.27 2.9339 -0.611739 0
M  V30 46339 H 4533.83 1.5488 -0.471578 0
M  V30 46340 H 4535.82 3.61103 1.82719 0
M  V30 46341 H 4534.39 2.54883 1.80979 0
M  V30 46342 H 4533.61 3.93379 -0.254326 0
M  V30 46343 H 4534.9 5.08608 0.139588 0
M  V30 46344 H 4534.3 4.60596 3.28433 0
M  V30 46345 H 4532.86 5.52089 3.46469 0
M  V30 46346 N 4536.29 0.370972 1.53172 0
M  V30 46347 C 4537.22 -0.516649 2.22275 0
M  V30 46348 C 4538.2 -1.07872 1.21665 0
M  V30 46349 O 4539.38 -1.13383 1.50587 0
M  V30 46350 C 4536.51 -1.71336 2.92167 0
M  V30 46351 C 4535.56 -1.27824 4.06895 0
M  V30 46352 S 4536.39 -0.275029 5.34793 0
M  V30 46353 C 4537.55 -1.47794 6.082 0
M  V30 46354 H 4537.78 0.0702099 2.97217 0
M  V30 46355 H 4535.31 0.155092 1.53619 0
M  V30 46356 H 4537.27 -2.39977 3.33049 0
M  V30 46357 H 4535.93 -2.27148 2.16939 0
M  V30 46358 H 4535.12 -2.17125 4.54833 0
M  V30 46359 H 4534.73 -0.670976 3.67932 0
M  V30 46360 H 4537.02 -2.40809 6.33259 0
M  V30 46361 H 4537.96 -1.03984 7.00423 0
M  V30 46362 H 4538.37 -1.68644 5.3872 0
M  V30 46363 N 4537.77 -1.57281 0.100283 0
M  V30 46364 C 4539.02 -1.93715 -0.561916 0
M  V30 46365 C 4539.33 -0.984551 -1.69015 0
M  V30 46366 O 4540.53 -1.24281 -2.41385 0
M  V30 46367 C 4538.99 -3.44214 -1.05094 0
M  V30 46368 C 4538.6 -4.47974 0.0478203 0
M  V30 46369 C 4540.34 -3.89601 -1.68558 0
M  V30 46370 C 4538.25 -5.89633 -0.456848 0
M  V30 46371 H 4537.18 -0.72309 -0.213675 0
M  V30 46372 H 4539.83 -1.82643 0.177121 0
M  V30 46373 H 4538.21 -3.50456 -1.84382 0
M  V30 46374 H 4539.39 -4.53382 0.823492 0
M  V30 46375 H 4537.7 -4.12228 0.587961 0
M  V30 46376 H 4540.3 -4.92839 -2.07397 0
M  V30 46377 H 4540.64 -3.28535 -2.55676 0
M  V30 46378 H 4541.17 -3.86082 -0.958426 0
M  V30 46379 H 4537.91 -6.5441 0.377846 0
M  V30 46380 H 4537.43 -5.87685 -1.19941 0
M  V30 46381 H 4539.11 -6.40366 -0.924145 0
M  V30 46382 N 4539.25 0.173432 -1.56643 0
M  V30 46383 C 4540.48 0.904716 -1.85738 0
M  V30 46384 C 4540.88 1.76429 -0.683342 0
M  V30 46385 O 4540.23 1.80202 0.356801 0
M  V30 46386 C 4540.29 1.83371 -3.09217 0
M  V30 46387 C 4539.95 1.15395 -4.42191 0
M  V30 46388 C 4540.95 0.520427 -5.17289 0
M  V30 46389 C 4538.63 1.15134 -4.88927 0
M  V30 46390 C 4540.63 -0.106636 -6.37311 0
M  V30 46391 C 4538.32 0.520449 -6.0888 0
M  V30 46392 C 4539.31 -0.107436 -6.82915 0
M  V30 46393 O 4539 -0.728384 -8.00593 0
M  V30 46394 H 4538.73 0.268387 -0.620439 0
M  V30 46395 H 4541.29 0.179024 -2.04618 0
M  V30 46396 H 4539.52 2.59966 -2.86277 0
M  V30 46397 H 4541.21 2.43465 -3.24776 0
M  V30 46398 H 4541.97 0.514437 -4.82264 0
M  V30 46399 H 4537.85 1.62946 -4.31242 0
M  V30 46400 H 4541.4 -0.597325 -6.95038 0
M  V30 46401 H 4537.29 0.524016 -6.4337 0
M  V30 46402 H 4538.06 -0.627425 -8.16092 0
M  V30 46403 N 4540.72 1.51278 0.441914 0
M  V30 46404 C 4541.97 1.64925 1.19044 0
M  V30 46405 C 4542.32 0.358797 1.89025 0
M  V30 46406 O 4541.62 -0.645129 1.80412 0
M  V30 46407 C 4541.81 2.78754 2.23677 0
M  V30 46408 C 4541.64 4.18743 1.63965 0
M  V30 46409 C 4540.41 4.84744 1.42657 0
M  V30 46410 C 4542.61 5.01992 1.1184 0
M  V30 46411 N 4540.59 6.08861 0.784945 0
M  V30 46412 C 4541.96 6.17073 0.601772 0
M  V30 46413 C 4544.02 4.87554 1.00972 0
M  V30 46414 C 4542.72 7.19299 -0.0128541 0
M  V30 46415 C 4544.75 5.89984 0.408999 0
M  V30 46416 C 4544.11 7.04333 -0.0971127 0
M  V30 46417 H 4540.21 0.657431 0.423448 0
M  V30 46418 H 4542.79 1.88492 0.487754 0
M  V30 46419 H 4540.96 2.56858 2.91339 0
M  V30 46420 H 4542.69 2.81605 2.90656 0
M  V30 46421 H 4539.45 4.42534 1.68703 0
M  V30 46422 H 4539.87 6.75284 0.481704 0
M  V30 46423 H 4544.51 3.99406 1.38689 0
M  V30 46424 H 4542.23 8.07099 -0.402163 0
M  V30 46425 H 4545.82 5.80881 0.326875 0
M  V30 46426 H 4544.7 7.82236 -0.554648 0
M  V30 46427 N 4542.2 -0.697058 1.41347 0
M  V30 46428 C 4543.43 -1.48588 1.43977 0
M  V30 46429 C 4543.84 -1.88747 0.0446276 0
M  V30 46430 O 4543.2 -1.56685 -0.93573 0
M  V30 46431 C 4543.25 -2.74938 2.34715 0
M  V30 46432 O 4542.97 -2.36471 3.688 0
M  V30 46433 C 4544.47 -3.68691 2.46134 0
M  V30 46434 H 4541.69 -0.457947 0.490434 0
M  V30 46435 H 4544.24 -0.858364 1.85613 0
M  V30 46436 H 4542.39 -3.3393 1.96391 0
M  V30 46437 H 4542.81 -3.17903 4.17179 0
M  V30 46438 H 4544.28 -4.54134 3.13793 0
M  V30 46439 H 4544.76 -4.13076 1.49213 0
M  V30 46440 H 4545.36 -3.15603 2.85087 0
M  V30 46441 N 4543.68 -1.2715 -0.931165 0
M  V30 46442 C 4544.96 -1.04015 -1.65651 0
M  V30 46443 C 4545.34 0.426224 -2.06752 0
M  V30 46444 O 4544.68 1.40873 -1.79909 0
M  V30 46445 C 4544.89 -1.99844 -2.86118 0
M  V30 46446 C 4546.24 -2.29019 -3.57541 0
M  V30 46447 O 4547.27 -1.9779 -2.96239 0
M  V30 46448 O 4546.13 -2.82238 -4.67979 0
M  V30 46449 H 4543.22 -0.396264 -0.725881 0
M  V30 46450 H 4545.77 -1.38401 -0.982008 0
M  V30 46451 H 4544.54 -2.98753 -2.5271 0
M  V30 46452 H 4544.16 -1.65999 -3.61289 0
M  V30 46453 N 4545.16 1.13717 -1.09116 0
M  V30 46454 C 4546.4 1.85195 -0.82648 0
M  V30 46455 C 4546.74 1.83132 0.646254 0
M  V30 46456 O 4546.01 1.26715 1.47559 0
M  V30 46457 C 4546.29 3.33503 -1.35823 0
M  V30 46458 C 4546.15 3.44098 -2.89684 0
M  V30 46459 C 4547.47 4.28834 -0.989407 0
M  V30 46460 H 4544.59 0.672419 -0.301698 0
M  V30 46461 H 4547.23 1.33494 -1.35201 0
M  V30 46462 H 4545.38 3.77663 -0.911214 0
M  V30 46463 H 4547.05 3.08672 -3.42811 0
M  V30 46464 H 4545.29 2.85076 -3.26977 0
M  V30 46465 H 4545.96 4.48376 -3.21967 0
M  V30 46466 H 4548.44 3.92729 -1.37489 0
M  V30 46467 H 4547.32 5.31046 -1.38857 0
M  V30 46468 H 4547.58 4.41981 0.102769 0
M  V30 46469 N 4546.64 0.877884 1.30885 0
M  V30 46470 C 4547.86 0.507485 2.0058 0
M  V30 46471 C 4548.28 -0.902157 1.65851 0
M  V30 46472 O 4547.64 -1.59222 0.891887 0
M  V30 46473 C 4547.69 0.664287 3.55344 0
M  V30 46474 O 4547.41 2.01842 3.88833 0
M  V30 46475 C 4548.91 0.295943 4.42311 0
M  V30 46476 H 4546.13 0.196889 0.641464 0
M  V30 46477 H 4548.67 1.18123 1.66935 0
M  V30 46478 H 4546.83 0.0379981 3.87381 0
M  V30 46479 H 4547.24 2.03191 4.83543 0
M  V30 46480 H 4548.72 0.456582 5.50108 0
M  V30 46481 H 4549.19 -0.76551 4.32477 0
M  V30 46482 H 4549.8 0.898259 4.15706 0
M  V30 46483 N 4548.11 -1.44104 0.638116 0
M  V30 46484 C 4549.34 -2.06336 0.152688 0
M  V30 46485 C 4549.76 -1.47735 -1.17558 0
M  V30 46486 O 4549.11 -0.602866 -1.72255 0
M  V30 46487 C 4549.16 -3.61479 0.0392761 0
M  V30 46488 O 4548.89 -4.17898 1.31502 0
M  V30 46489 C 4550.39 -4.40758 -0.474022 0
M  V30 46490 H 4547.61 -0.665859 0.082901 0
M  V30 46491 H 4550.15 -1.84859 0.874495 0
M  V30 46492 H 4548.31 -3.82193 -0.633008 0
M  V30 46493 H 4548.72 -5.11412 1.16439 0
M  V30 46494 H 4550.19 -5.49709 -0.502369 0
M  V30 46495 H 4550.67 -4.12703 -1.50244 0
M  V30 46496 H 4551.28 -4.24979 0.165251 0
M  V30 46497 N 4549.59 -0.37909 -1.52973 0
M  V30 46498 C 4550.52 0.495884 -2.23771 0
M  V30 46499 C 4551.54 1.03513 -1.25654 0
M  V30 46500 O 4552.73 0.939196 -1.51794 0
M  V30 46501 C 4549.83 1.69884 -2.93245 0
M  V30 46502 C 4549 1.28876 -4.17983 0
M  V30 46503 C 4548.06 2.35527 -4.70546 0
M  V30 46504 O 4547.08 1.97357 -5.3389 0
M  V30 46505 N 4548.29 3.67302 -4.49521 0
M  V30 46506 H 4551.05 -0.110628 -2.99496 0
M  V30 46507 H 4548.61 -0.204934 -1.60598 0
M  V30 46508 H 4550.6 2.40736 -3.25313 0
M  V30 46509 H 4549.17 2.21192 -2.20891 0
M  V30 46510 H 4548.39 0.409538 -3.92067 0
M  V30 46511 H 4549.68 0.991268 -4.9905 0
M  V30 46512 H 4549.08 4.01081 -3.98937 0
M  V30 46513 H 4547.64 4.34218 -4.86105 0
M  V30 46514 N 4551.07 1.57225 -0.108623 0
M  V30 46515 C 4552.32 1.9445 0.550785 0
M  V30 46516 C 4552.64 0.992133 1.67874 0
M  V30 46517 O 4551.91 0.0465688 1.95845 0
M  V30 46518 H 4550.49 0.717904 0.206454 0
M  V30 46519 H 4553.15 1.94112 -0.17513 0
M  V30 46520 H 4552.25 2.97221 0.952154 0
M  V30 46521 N 4552.55 -0.165123 1.56733 0
M  V30 46522 C 4553.77 -0.900187 1.86846 0
M  V30 46523 C 4554.2 -1.74763 0.695658 0
M  V30 46524 O 4553.56 -1.77787 -0.355157 0
M  V30 46525 C 4553.6 -1.74766 3.15419 0
M  V30 46526 O 4552.71 -2.84997 2.98078 0
M  V30 46527 H 4552.05 -0.25181 0.6144 0
M  V30 46528 H 4554.58 -0.161397 2.03962 0
M  V30 46529 H 4554.59 -2.14634 3.46981 0
M  V30 46530 H 4553.26 -1.12522 4.00389 0
M  V30 46531 H 4551.84 -2.48666 2.77884 0
M  V30 46532 N 4554.03 -1.5151 -0.433885 0
M  V30 46533 C 4554.96 -1.67761 -1.54698 0
M  V30 46534 C 4555.94 -0.525181 -1.53885 0
M  V30 46535 O 4557.12 -0.749453 -1.72961 0
M  V30 46536 C 4554.25 -1.69434 -2.93274 0
M  V30 46537 C 4553.29 -2.90684 -3.12098 0
M  V30 46538 S 4554.13 -4.51441 -2.8803 0
M  V30 46539 C 4555.28 -4.55864 -4.28881 0
M  V30 46540 H 4555.52 -2.61909 -1.4068 0
M  V30 46541 H 4553.05 -1.41237 -0.62381 0
M  V30 46542 H 4555.01 -1.71083 -3.7315 0
M  V30 46543 H 4553.67 -0.764571 -3.04652 0
M  V30 46544 H 4552.86 -2.88265 -4.13424 0
M  V30 46545 H 4552.46 -2.86794 -2.40052 0
M  V30 46546 H 4554.76 -4.31717 -5.22137 0
M  V30 46547 H 4555.7 -5.57692 -4.36332 0
M  V30 46548 H 4556.11 -3.85151 -4.12697 0
M  V30 46549 N 4555.5 0.689552 -1.41714 0
M  V30 46550 C 4556.75 1.44529 -1.40692 0
M  V30 46551 C 4557.07 1.95588 -0.021404 0
M  V30 46552 O 4558.27 2.71271 0.111439 0
M  V30 46553 C 4556.73 2.61378 -2.47406 0
M  V30 46554 C 4556.34 2.1708 -3.91893 0
M  V30 46555 C 4558.08 3.38977 -2.55528 0
M  V30 46556 C 4555.99 3.30923 -4.90147 0
M  V30 46557 H 4554.92 0.542907 -0.523229 0
M  V30 46558 H 4557.57 0.747995 -1.67563 0
M  V30 46559 H 4555.95 3.33405 -2.13675 0
M  V30 46560 H 4557.12 1.52303 -4.34903 0
M  V30 46561 H 4555.44 1.52459 -3.87486 0
M  V30 46562 H 4558.04 4.23735 -3.26117 0
M  V30 46563 H 4558.38 3.84572 -1.59405 0
M  V30 46564 H 4558.91 2.74011 -2.8838 0
M  V30 46565 H 4555.65 2.90334 -5.87696 0
M  V30 46566 H 4555.17 3.9453 -4.51781 0
M  V30 46567 H 4556.85 3.96612 -5.11183 0
M  V30 46568 N 4556.98 1.27642 0.924409 0
M  V30 46569 C 4558.4 1.05118 1.20093 0
M  V30 46570 C 4558.6 -0.213192 2.00369 0
M  V30 46571 O 4557.65 -0.917787 2.3523 0
M  V30 46572 C 4558.97 2.29251 1.94588 0
M  V30 46573 C 4560.52 2.34322 2.07514 0
M  V30 46574 C 4560.99 3.58193 2.85415 0
M  V30 46575 N 4562.48 3.5877 2.92981 0
M  V30 46576 C 4563.22 4.5129 3.5373 0
M  V30 46577 N 4562.71 5.54117 4.15844 0
M  V30 46578 N 4564.51 4.38907 3.51166 0
M  V30 46579 H 4556.66 2.08823 0.388191 0
M  V30 46580 H 4558.92 0.918577 0.234353 0
M  V30 46581 H 4558.63 3.21306 1.43023 0
M  V30 46582 H 4558.5 2.34827 2.95189 0
M  V30 46583 H 4560.89 1.42771 2.58264 0
M  V30 46584 H 4560.97 2.32748 1.06123 0
M  V30 46585 H 4560.61 4.50083 2.35347 0
M  V30 46586 H 4560.54 3.5702 3.87098 0
M  V30 46587 H 4563.03 2.84407 2.4884 0
M  V30 46588 H 4563.35 6.20875 4.60146 0
M  V30 46589 H 4561.69 5.57955 4.1438 0
M  V30 46590 H 4564.88 3.57782 3.01844 0
M  V30 46591 H 4565.05 5.112 3.98219 0
M  V30 46592 N 4558.46 -1.13137 1.09717 0
M  V30 46593 C 4559.88 -1.36474 0.827471 0
M  V30 46594 C 4560.08 -1.93656 -0.556749 0
M  V30 46595 O 4559.13 -2.15796 -1.31104 0
M  V30 46596 C 4560.45 -2.31328 1.92114 0
M  V30 46597 C 4561.99 -2.44936 1.94873 0
M  V30 46598 C 4562.47 -3.43099 3.03392 0
M  V30 46599 N 4563.96 -3.50652 3.02651 0
M  V30 46600 C 4564.69 -4.26496 3.83261 0
M  V30 46601 N 4564.19 -5.05469 4.73786 0
M  V30 46602 N 4565.98 -4.21827 3.71508 0
M  V30 46603 H 4558.13 -0.743737 1.98953 0
M  V30 46604 H 4560.4 -0.389792 0.864156 0
M  V30 46605 H 4560.1 -1.96472 2.91704 0
M  V30 46606 H 4559.98 -3.31375 1.80195 0
M  V30 46607 H 4562.36 -2.79076 0.959197 0
M  V30 46608 H 4562.45 -1.44803 2.10869 0
M  V30 46609 H 4562.09 -3.0969 4.0256 0
M  V30 46610 H 4562.02 -4.43045 2.84638 0
M  V30 46611 H 4564.51 -2.94306 2.37049 0
M  V30 46612 H 4564.82 -5.60656 5.31869 0
M  V30 46613 H 4563.17 -5.04691 4.7782 0
M  V30 46614 H 4566.36 -3.59209 3.00144 0
M  V30 46615 H 4566.53 -4.80682 4.34567 0
M  V30 46616 N 4559.94 -0.884812 -1.30418 0
M  V30 46617 C 4560.87 -0.296078 -2.26271 0
M  V30 46618 C 4561.85 0.583266 -1.51779 0
M  V30 46619 O 4563.03 0.533396 -1.80796 0
M  V30 46620 C 4560.16 0.579322 -3.33709 0
M  V30 46621 C 4559.21 -0.230675 -4.25876 0
M  V30 46622 S 4560.04 -1.61885 -5.10444 0
M  V30 46623 C 4561.2 -0.749974 -6.21391 0
M  V30 46624 H 4561.43 -1.10857 -2.75858 0
M  V30 46625 H 4558.96 -0.684227 -1.38411 0
M  V30 46626 H 4560.92 1.07866 -3.96075 0
M  V30 46627 H 4559.58 1.36591 -2.82846 0
M  V30 46628 H 4558.77 0.437365 -5.02099 0
M  V30 46629 H 4558.38 -0.662622 -3.68083 0
M  V30 46630 H 4560.67 0.0331166 -6.77492 0
M  V30 46631 H 4561.61 -1.4838 -6.92379 0
M  V30 46632 H 4562.02 -0.310949 -5.63643 0
M  V30 46633 N 4561.42 1.43763 -0.645749 0
M  V30 46634 C 4562.37 2.27884 0.0725641 0
M  V30 46635 C 4563.35 1.39485 0.802037 0
M  V30 46636 O 4564.54 1.63177 0.685734 0
M  V30 46637 C 4561.67 3.27058 1.04345 0
M  V30 46638 C 4560.76 4.22945 0.312836 0
M  V30 46639 N 4561.15 5.01389 -0.666562 0
M  V30 46640 C 4559.45 4.4253 0.555305 0
M  V30 46641 C 4560.15 5.71213 -1.09955 0
M  V30 46642 N 4559.12 5.41854 -0.435328 0
M  V30 46643 H 4562.93 2.85947 -0.679089 0
M  V30 46644 H 4560.44 1.55377 -0.472423 0
M  V30 46645 H 4562.44 3.86095 1.57278 0
M  V30 46646 H 4561.1 2.70557 1.79524 0
M  V30 46647 H 4562.11 5.07248 -1.04498 0
M  V30 46648 H 4558.78 3.97108 1.28885 0
M  V30 46649 H 4560.17 6.44195 -1.90952 0
M  V30 46650 N 4562.89 0.387197 1.5277 0
M  V30 46651 C 4563.82 -0.440471 2.29308 0
M  V30 46652 C 4564.81 -1.06531 1.32609 0
M  V30 46653 O 4565.99 -1.07848 1.61501 0
M  V30 46654 C 4563.12 -1.56908 3.09834 0
M  V30 46655 C 4562.07 -1.07039 4.14399 0
M  V30 46656 C 4561.4 -2.29092 4.83137 0
M  V30 46657 C 4562.7 -0.139831 5.22113 0
M  V30 46658 H 4564.39 0.198131 2.98744 0
M  V30 46659 H 4561.94 0.0967305 1.43675 0
M  V30 46660 H 4563.89 -2.1549 3.62135 0
M  V30 46661 H 4562.62 -2.23524 2.38127 0
M  V30 46662 H 4561.28 -0.507119 3.63076 0
M  V30 46663 H 4560.92 -2.94212 4.07981 0
M  V30 46664 H 4560.62 -1.96387 5.53811 0
M  V30 46665 H 4562.15 -2.8832 5.38241 0
M  V30 46666 H 4563.56 -0.633777 5.69786 0
M  V30 46667 H 4561.96 0.0973594 6.00021 0
M  V30 46668 H 4563.03 0.811879 4.78055 0
M  V30 46669 N 4564.37 -1.57165 0.116959 0
M  V30 46670 C 4565.32 -2.1646 -0.851342 0
M  V30 46671 C 4566.31 -1.11327 -1.27682 0
M  V30 46672 O 4567.52 -1.29634 -1.2488 0
M  V30 46673 H 4563.9 -0.69272 -0.292648 0
M  V30 46674 H 4565.87 -2.96606 -0.326745 0
M  V30 46675 C 4564.62 -2.77697 -2.09236 0
M  V30 46676 H 4563.94 -3.58292 -1.7739 0
M  V30 46677 H 4565.38 -3.22726 -2.74998 0
M  V30 46678 C 4563.84 -1.74677 -2.88079 0
M  V30 46679 O 4564.37 -1.19891 -3.83392 0
M  V30 46680 N 4562.57 -1.44665 -2.52033 0
M  V30 46681 H 4562.12 -1.89408 -1.74592 0
M  V30 46682 H 4562.08 -0.759782 -3.05081 0
M  V30 46683 N 4565.85 0.156809 -1.56818 0
M  V30 46684 C 4567.1 0.86934 -1.82447 0
M  V30 46685 C 4567.42 1.82145 -0.696294 0
M  V30 46686 O 4566.69 1.93848 0.282802 0
M  V30 46687 H 4565.27 0.324019 -0.673068 0
M  V30 46688 H 4567.93 0.153156 -1.94297 0
M  V30 46689 H 4567.03 1.43751 -2.77024 0
M  V30 46690 N 4567.33 1.51738 0.425844 0
M  V30 46691 C 4568.55 1.69086 1.20102 0
M  V30 46692 C 4568.98 0.392462 1.8396 0
M  V30 46693 O 4568.34 -0.648521 1.69304 0
M  V30 46694 C 4568.38 2.81612 2.25227 0
M  V30 46695 O 4567.49 2.46015 3.30984 0
M  V30 46696 H 4566.83 0.56342 0.35136 0
M  V30 46697 H 4569.36 1.9836 0.501442 0
M  V30 46698 H 4569.37 3.06034 2.69828 0
M  V30 46699 H 4568.04 3.75823 1.78128 0
M  V30 46700 H 4566.62 2.32205 2.91779 0
M  V30 46701 N 4568.81 -0.682027 1.42078 0
M  V30 46702 C 4569.76 -1.81702 1.45214 0
M  V30 46703 C 4570.75 -1.66181 0.32865 0
M  V30 46704 O 4571.96 -1.72878 0.501325 0
M  V30 46705 H 4568.33 -0.598998 0.454649 0
M  V30 46706 H 4570.3 -1.76174 2.40843 0
M  V30 46707 C 4569.05 -3.19812 1.3644 0
M  V30 46708 H 4568.37 -3.32378 2.22183 0
M  V30 46709 H 4569.81 -3.99267 1.42695 0
M  V30 46710 C 4568.27 -3.36809 0.0783094 0
M  V30 46711 O 4568.8 -3.92127 -0.871742 0
M  V30 46712 N 4567.01 -2.906 -0.0021905 0
M  V30 46713 H 4566.56 -2.45769 0.771703 0
M  V30 46714 H 4566.51 -3.0235 -0.862073 0
M  V30 46715 N 4570.29 -1.2813 -0.917626 0
M  V30 46716 C 4571.53 -1.15229 -1.66884 0
M  V30 46717 C 4571.86 0.299226 -1.91881 0
M  V30 46718 O 4571.14 1.218 -1.51641 0
M  V30 46719 C 4571.42 -1.94716 -3.02915 0
M  V30 46720 C 4571.28 -3.47908 -2.85096 0
M  V30 46721 C 4572.59 -1.75954 -4.03396 0
M  V30 46722 H 4569.71 -0.419967 -0.605638 0
M  V30 46723 H 4572.36 -1.57402 -1.06417 0
M  V30 46724 H 4570.51 -1.58877 -3.54528 0
M  V30 46725 H 4572.18 -3.93632 -2.40523 0
M  V30 46726 H 4570.42 -3.73738 -2.20233 0
M  V30 46727 H 4571.09 -3.98778 -3.8168 0
M  V30 46728 H 4573.57 -2.07222 -3.6083 0
M  V30 46729 H 4572.44 -2.33948 -4.96547 0
M  V30 46730 H 4572.7 -0.71003 -4.36361 0
M  V30 46731 N 4571.76 1.12553 -1.10316 0
M  V30 46732 C 4572.7 2.17968 -0.708702 0
M  V30 46733 C 4573.71 1.60807 0.25397 0
M  V30 46734 O 4574.9 1.78458 0.0386264 0
M  V30 46735 C 4572 3.38891 -0.024939 0
M  V30 46736 C 4571.17 4.25544 -1.01147 0
M  V30 46737 C 4570.23 5.24971 -0.359424 0
M  V30 46738 O 4569.26 5.6017 -1.00984 0
M  V30 46739 N 4570.46 5.7375 0.882645 0
M  V30 46740 H 4573.22 2.52421 -1.61566 0
M  V30 46741 H 4570.78 1.27963 -0.991816 0
M  V30 46742 H 4572.78 4.02486 0.42271 0
M  V30 46743 H 4571.35 3.02598 0.784408 0
M  V30 46744 H 4570.57 3.58584 -1.63742 0
M  V30 46745 H 4571.85 4.80288 -1.67931 0
M  V30 46746 H 4571.25 5.47316 1.43046 0
M  V30 46747 H 4569.81 6.39239 1.27346 0
M  V30 46748 N 4573.24 0.891716 1.29947 0
M  V30 46749 C 4574.49 0.51433 1.9617 0
M  V30 46750 C 4574.82 -0.935446 1.70185 0
M  V30 46751 O 4574.1 -1.662 1.01034 0
M  V30 46752 C 4574.38 0.797842 3.5115 0
M  V30 46753 C 4574.23 2.29874 3.86624 0
M  V30 46754 C 4575.55 0.278903 4.39215 0
M  V30 46755 H 4572.67 0.188339 0.712529 0
M  V30 46756 H 4575.31 1.11694 1.53702 0
M  V30 46757 H 4573.46 0.284962 3.87454 0
M  V30 46758 H 4575.13 2.88054 3.60309 0
M  V30 46759 H 4573.38 2.76269 3.34452 0
M  V30 46760 H 4574.05 2.4477 4.94764 0
M  V30 46761 H 4576.52 0.717969 4.09859 0
M  V30 46762 H 4575.4 0.506545 5.46558 0
M  V30 46763 H 4575.66 -0.820113 4.34427 0
M  V30 46764 N 4574.72 -1.43419 0.653364 0
M  V30 46765 C 4575.65 -2.33487 -0.0245835 0
M  V30 46766 C 4576.63 -1.49478 -0.811811 0
M  V30 46767 O 4577.82 -1.78141 -0.773259 0
M  V30 46768 C 4574.95 -3.32845 -0.991543 0
M  V30 46769 C 4573.9 -4.26844 -0.314418 0
M  V30 46770 C 4573.23 -5.1624 -1.39283 0
M  V30 46771 C 4574.53 -5.16241 0.793277 0
M  V30 46772 H 4576.22 -2.90425 0.727583 0
M  V30 46773 H 4573.77 -1.39648 0.351336 0
M  V30 46774 H 4575.72 -3.94753 -1.47473 0
M  V30 46775 H 4574.44 -2.74164 -1.77487 0
M  V30 46776 H 4573.1 -3.663 0.148328 0
M  V30 46777 H 4572.75 -4.53899 -2.1676 0
M  V30 46778 H 4572.45 -5.79951 -0.945019 0
M  V30 46779 H 4573.97 -5.81022 -1.87739 0
M  V30 46780 H 4575.39 -5.71957 0.392241 0
M  V30 46781 H 4573.78 -5.88672 1.16557 0
M  V30 46782 H 4574.85 -4.55921 1.65119 0
M  V30 46783 N 4576.2 -0.395293 -1.52562 0
M  V30 46784 C 4577.15 0.454021 -2.23434 0
M  V30 46785 C 4578.13 1.02477 -1.24045 0
M  V30 46786 O 4579.32 0.949886 -1.49353 0
M  V30 46787 C 4576.45 1.57759 -3.04905 0
M  V30 46788 C 4575.54 1.01828 -4.11694 0
M  V30 46789 N 4575.93 0.184435 -5.05464 0
M  V30 46790 C 4574.23 1.29018 -4.26931 0
M  V30 46791 C 4574.93 -0.125218 -5.81565 0
M  V30 46792 N 4573.9 0.480307 -5.41474 0
M  V30 46793 H 4577.71 -0.189516 -2.93288 0
M  V30 46794 H 4575.22 -0.204933 -1.61102 0
M  V30 46795 H 4577.22 2.1985 -3.5422 0
M  V30 46796 H 4575.88 2.22388 -2.36587 0
M  V30 46797 H 4576.89 -0.178784 -5.17591 0
M  V30 46798 H 4573.57 1.93708 -3.69843 0
M  V30 46799 H 4574.96 -0.801197 -6.67106 0
M  V30 46800 N 4577.68 1.57101 -0.125292 0
M  V30 46801 C 4579.09 1.57916 0.231267 0
M  V30 46802 C 4579.29 1.13839 1.66262 0
M  V30 46803 O 4578.35 0.828665 2.38515 0
M  V30 46804 C 4579.66 3.00699 -0.0077706 0
M  V30 46805 C 4581.21 3.12947 0.0576383 0
M  V30 46806 C 4581.68 4.57742 -0.153787 0
M  V30 46807 N 4583.17 4.63092 -0.0999701 0
M  V30 46808 C 4583.91 5.72904 -0.238375 0
M  V30 46809 N 4583.41 6.91444 -0.4333 0
M  V30 46810 N 4585.2 5.6182 -0.177505 0
M  V30 46811 H 4577.35 1.84051 -1.06013 0
M  V30 46812 H 4579.61 0.85089 -0.417959 0
M  V30 46813 H 4579.32 3.37256 -0.997549 0
M  V30 46814 H 4579.19 3.70239 0.721322 0
M  V30 46815 H 4581.58 2.76244 1.03795 0
M  V30 46816 H 4581.66 2.45938 -0.703436 0
M  V30 46817 H 4581.3 4.95145 -1.1311 0
M  V30 46818 H 4581.23 5.2285 0.62735 0
M  V30 46819 H 4583.73 3.77871 0.0469182 0
M  V30 46820 H 4584.04 7.70983 -0.529603 0
M  V30 46821 H 4582.38 6.93413 -0.469353 0
M  V30 46822 H 4585.57 4.68093 -0.0261394 0
M  V30 46823 H 4585.75 6.47356 -0.28881 0
M  V30 46824 N 4579.15 -0.14849 1.56899 0
M  V30 46825 C 4580.38 -0.876323 1.87425 0
M  V30 46826 C 4580.8 -1.74806 0.713317 0
M  V30 46827 O 4580.15 -1.79726 -0.316962 0
M  V30 46828 C 4580.2 -1.73426 3.17184 0
M  V30 46829 O 4579.93 -0.897658 4.28805 0
M  V30 46830 C 4581.43 -2.56981 3.61214 0
M  V30 46831 H 4578.65 -0.253467 0.621285 0
M  V30 46832 H 4581.19 -0.141726 2.04008 0
M  V30 46833 H 4579.35 -2.42194 3.02359 0
M  V30 46834 H 4579.76 -1.48654 5.02993 0
M  V30 46835 H 4581.23 -3.12757 4.54849 0
M  V30 46836 H 4581.71 -3.32947 2.86431 0
M  V30 46837 H 4582.32 -1.93507 3.78728 0
M  V30 46838 N 4580.63 -1.51961 -0.417791 0
M  V30 46839 C 4581.88 -1.65268 -1.16323 0
M  V30 46840 C 4582.2 -0.380701 -1.91248 0
M  V30 46841 O 4581.47 0.604149 -1.86351 0
M  V30 46842 H 4580.05 -0.609136 -0.432392 0
M  V30 46843 H 4582.71 -1.8897 -0.477096 0
M  V30 46844 H 4581.81 -2.48966 -1.88208 0
M  V30 46845 N 4582.11 0.674483 -1.42438 0
M  V30 46846 C 4583.04 1.80004 -1.4873 0
M  V30 46847 C 4584.02 1.66588 -0.343852 0
M  V30 46848 O 4585.21 1.86005 -0.558202 0
M  V30 46849 C 4582.34 3.18301 -1.3893 0
M  V30 46850 C 4581.29 3.46453 -2.51306 0
M  V30 46851 C 4580.62 4.84327 -2.26564 0
M  V30 46852 C 4581.92 3.43314 -3.93615 0
M  V30 46853 H 4583.61 1.74995 -2.42934 0
M  V30 46854 H 4581.16 0.840491 -1.16926 0
M  V30 46855 H 4583.11 3.96776 -1.41941 0
M  V30 46856 H 4581.83 3.23988 -0.412208 0
M  V30 46857 H 4580.49 2.70339 -2.47613 0
M  V30 46858 H 4580.14 4.86665 -1.27147 0
M  V30 46859 H 4579.84 5.04126 -3.01879 0
M  V30 46860 H 4581.36 5.65086 -2.31324 0
M  V30 46861 H 4582.78 4.11758 -3.98909 0
M  V30 46862 H 4581.17 3.74648 -4.68785 0
M  V30 46863 H 4582.24 2.41882 -4.20263 0
M  V30 46864 N 4583.59 1.28615 0.910818 0
M  V30 46865 C 4584.81 1.18916 1.69923 0
M  V30 46866 C 4585.24 -0.248307 1.86454 0
M  V30 46867 O 4584.6 -1.17957 1.37681 0
M  V30 46868 C 4584.64 1.89588 3.06739 0
M  V30 46869 O 4583.75 1.20535 3.94392 0
M  V30 46870 H 4583.09 0.41265 0.520208 0
M  V30 46871 H 4585.62 1.69989 1.13864 0
M  V30 46872 H 4585.63 1.9761 3.56952 0
M  V30 46873 H 4584.3 2.94147 2.94025 0
M  V30 46874 H 4582.88 1.20697 3.52827 0
M  V30 46875 N 4585.07 -1.11967 1.10911 0
M  V30 46876 C 4586.01 -2.19924 0.757381 0
M  V30 46877 C 4587.01 -1.67565 -0.248688 0
M  V30 46878 O 4588.21 -1.79672 -0.108542 0
M  V30 46879 H 4584.59 -0.716917 0.227012 0
M  V30 46880 H 4586.56 -2.46841 1.67666 0
M  V30 46881 C 4585.31 -3.4706 0.210793 0
M  V30 46882 H 4584.63 -3.87699 0.976186 0
M  V30 46883 H 4586.07 -4.24 0.00280745 0
M  V30 46884 C 4584.53 -3.19868 -1.05766 0
M  V30 46885 O 4585.06 -3.40057 -2.13833 0
M  V30 46886 N 4583.27 -2.7364 -0.978253 0
M  V30 46887 H 4582.81 -2.57411 -0.0987341 0
M  V30 46888 H 4582.77 -2.55822 -1.82764 0
M  V30 46889 N 4586.54 -0.898595 -1.29472 0
M  V30 46890 C 4587.96 -0.572599 -1.77703 0
M  V30 46891 C 4588.31 0.911717 -1.7373 0
M  V30 46892 O 4587.43 1.71284 -1.32253 0
M  V30 46893 C 4588.03 -1.03263 -3.2268 0
M  V30 46894 C 4586.59 -0.757817 -3.68692 0
M  V30 46895 C 4585.73 -1.20795 -2.49607 0
M  V30 46896 H 4588.68 -1.08143 -1.16149 0
M  V30 46897 H 4588.7 -0.36744 -3.78722 0
M  V30 46898 H 4588.22 -2.11296 -3.25539 0
M  V30 46899 H 4586.32 0.309948 -3.71309 0
M  V30 46900 H 4586.43 -1.35492 -4.59542 0
M  V30 46901 H 4584.79 -0.626975 -2.46863 0
M  V30 46902 H 4585.58 -2.29631 -2.55195 0
M  V30 46903 N 4588.02 1.4307 -0.660961 0
M  V30 46904 C 4589.3 1.95307 -0.107086 0
M  V30 46905 C 4589.68 1.60197 1.37478 0
M  V30 46906 O 4589.03 0.891023 2.10412 0
M  V30 46907 C 4589.24 3.47122 -0.361524 0
M  V30 46908 C 4590.59 4.23737 -0.270604 0
M  V30 46909 O 4591.61 3.5498 -0.294507 0
M  V30 46910 O 4590.47 5.46131 -0.200929 0
M  V30 46911 H 4587.56 0.826984 0.00514822 0
M  V30 46912 H 4590.11 1.5297 -0.734734 0
M  V30 46913 H 4588.88 3.65833 -1.38861 0
M  V30 46914 H 4588.5 3.96476 0.298813 0
M  V30 46915 N 4589.5 0.403378 1.5235 0
M  V30 46916 C 4590.75 -0.173932 2.0135 0
M  V30 46917 C 4591.07 -1.46135 1.29111 0
M  V30 46918 O 4590.34 -1.91447 0.41532 0
M  V30 46919 H 4588.92 -0.0672649 0.743965 0
M  V30 46920 H 4591.58 0.538301 1.87319 0
M  V30 46921 H 4590.68 -0.374145 3.09849 0
M  V30 46922 N 4590.98 -1.57033 0.133622 0
M  V30 46923 C 4591.91 -2.19093 -0.80749 0
M  V30 46924 C 4592.89 -1.13521 -1.26677 0
M  V30 46925 O 4594.07 -1.41814 -1.32674 0
M  V30 46926 C 4591.2 -2.80195 -2.05202 0
M  V30 46927 C 4590.16 -3.91478 -1.73001 0
M  V30 46928 C 4589.48 -4.39453 -3.04606 0
M  V30 46929 C 4590.78 -5.1289 -0.986987 0
M  V30 46930 H 4592.48 -2.97989 -0.290298 0
M  V30 46931 H 4590.02 -1.43335 -0.138189 0
M  V30 46932 H 4591.98 -3.22274 -2.7151 0
M  V30 46933 H 4590.7 -1.9861 -2.59271 0
M  V30 46934 H 4589.36 -3.49997 -1.09077 0
M  V30 46935 H 4589.01 -3.54708 -3.56639 0
M  V30 46936 H 4588.71 -5.14505 -2.83829 0
M  V30 46937 H 4590.23 -4.84193 -3.72007 0
M  V30 46938 H 4591.65 -5.51896 -1.55188 0
M  V30 46939 H 4590.04 -5.93618 -0.879642 0
M  V30 46940 H 4591.11 -4.84894 0.0236991 0
M  V30 46941 N 4592.46 0.140167 -1.56975 0
M  V30 46942 C 4593.42 1.15682 -1.97865 0
M  V30 46943 C 4594.42 1.35487 -0.866022 0
M  V30 46944 O 4595.61 1.32363 -1.13251 0
M  V30 46945 C 4592.74 2.51574 -2.30051 0
M  V30 46946 H 4593.93 0.805869 -2.8887 0
M  V30 46947 H 4591.49 0.383748 -1.51516 0
M  V30 46948 H 4592.22 2.91627 -1.41859 0
M  V30 46949 H 4592.01 2.38558 -3.11179 0
M  V30 46950 H 4593.5 3.24783 -2.625 0
M  V30 46951 N 4593.93 1.52181 0.409726 0
M  V30 46952 C 4595.18 1.66457 1.15845 0
M  V30 46953 C 4595.51 0.393039 1.90181 0
M  V30 46954 O 4594.79 -0.608514 1.84736 0
M  V30 46955 C 4595.07 2.8862 2.15339 0
M  V30 46956 C 4594.92 4.25821 1.44903 0
M  V30 46957 C 4596.24 3.06305 3.16015 0
M  V30 46958 H 4593.36 0.605765 0.419784 0
M  V30 46959 H 4596 1.84733 0.444249 0
M  V30 46960 H 4594.15 2.73168 2.76246 0
M  V30 46961 H 4595.83 4.52999 0.871206 0
M  V30 46962 H 4594.07 4.2725 0.751009 0
M  V30 46963 H 4594.74 5.07345 2.17498 0
M  V30 46964 H 4597.22 3.2065 2.65184 0
M  V30 46965 H 4596.09 3.93296 3.82896 0
M  V30 46966 H 4596.35 2.19593 3.83708 0
M  V30 46967 N 4595.41 -0.666919 1.42793 0
M  V30 46968 C 4596.69 -1.42336 1.34164 0
M  V30 46969 C 4597.07 -2.11093 -0.0171987 0
M  V30 46970 O 4596.42 -2.03812 -1.03311 0
M  V30 46971 C 4596.63 -2.41933 2.51534 0
M  V30 46972 C 4597.98 -3.06342 2.94006 0
M  V30 46973 O 4599 -2.5226 2.51482 0
M  V30 46974 O 4597.86 -4.04363 3.67631 0
M  V30 46975 H 4594.95 -0.635258 0.529505 0
M  V30 46976 H 4597.5 -0.69498 1.54816 0
M  V30 46977 H 4596.27 -1.89979 3.42087 0
M  V30 46978 H 4595.89 -3.2224 2.3291 0
M  V30 46979 N 4596.89 -1.29096 -0.903985 0
M  V30 46980 C 4598.14 -1.18002 -1.65672 0
M  V30 46981 C 4598.49 0.266749 -1.90542 0
M  V30 46982 O 4597.78 1.18995 -1.50169 0
M  V30 46983 C 4597.98 -1.92235 -3.01298 0
M  V30 46984 C 4597.81 -3.43982 -2.89666 0
M  V30 46985 C 4596.58 -4.13331 -2.90665 0
M  V30 46986 C 4598.78 -4.39555 -2.67013 0
M  V30 46987 N 4596.76 -5.51473 -2.69724 0
M  V30 46988 C 4598.13 -5.65128 -2.5501 0
M  V30 46989 C 4600.18 -4.29368 -2.52086 0
M  V30 46990 C 4598.89 -6.81671 -2.29602 0
M  V30 46991 C 4600.91 -5.45658 -2.2806 0
M  V30 46992 C 4600.27 -6.70201 -2.16819 0
M  V30 46993 H 4596.37 -0.48678 -0.61202 0
M  V30 46994 H 4598.96 -1.62871 -1.06682 0
M  V30 46995 H 4597.13 -1.49785 -3.58356 0
M  V30 46996 H 4598.86 -1.73442 -3.6565 0
M  V30 46997 H 4595.62 -3.64994 -3.01788 0
M  V30 46998 H 4596.04 -6.24114 -2.62318 0
M  V30 46999 H 4600.68 -3.33779 -2.59522 0
M  V30 47000 H 4598.4 -7.7732 -2.20904 0
M  V30 47001 H 4601.99 -5.39672 -2.17361 0
M  V30 47002 H 4600.87 -7.58666 -1.98484 0
M  V30 47003 N 4598.37 1.11377 -1.11503 0
M  V30 47004 C 4599.62 1.834 -0.865576 0
M  V30 47005 C 4599.95 1.84461 0.607264 0
M  V30 47006 O 4599.22 1.29817 1.44838 0
M  V30 47007 C 4599.51 3.30547 -1.42867 0
M  V30 47008 C 4599.36 3.37876 -2.96918 0
M  V30 47009 C 4600.68 4.26639 -1.08015 0
M  V30 47010 H 4597.8 0.665868 -0.315893 0
M  V30 47011 H 4600.44 1.30596 -1.38002 0
M  V30 47012 H 4598.59 3.75645 -0.991117 0
M  V30 47013 H 4600.26 3.01331 -3.49281 0
M  V30 47014 H 4598.5 2.78076 -3.32951 0
M  V30 47015 H 4599.18 4.41446 -3.31405 0
M  V30 47016 H 4601.65 3.89724 -1.45789 0
M  V30 47017 H 4600.53 5.27981 -1.5009 0
M  V30 47018 H 4600.79 4.42099 0.00899495 0
M  V30 47019 N 4599.85 0.905449 1.28994 0
M  V30 47020 C 4601.1 0.533261 1.94938 0
M  V30 47021 C 4601.42 -0.924558 1.71688 0
M  V30 47022 O 4600.69 -1.65264 1.05189 0
M  V30 47023 H 4599.27 0.19422 0.72131 0
M  V30 47024 H 4601.93 1.153 1.57137 0
M  V30 47025 H 4601.02 0.720697 3.03665 0
M  V30 47026 N 4601.33 -1.42718 0.668539 0
M  V30 47027 C 4602.57 -2.01225 0.187839 0
M  V30 47028 C 4602.89 -1.53097 -1.20774 0
M  V30 47029 O 4602.16 -0.749994 -1.80975 0
M  V30 47030 H 4600.74 -0.744038 0.0664533 0
M  V30 47031 H 4603.41 -1.7472 0.863644 0
M  V30 47032 H 4602.5 -3.11556 0.184275 0
M  V30 47033 N 4602.8 -0.411452 -1.52134 0
M  V30 47034 C 4603.75 0.427552 -2.28637 0
M  V30 47035 C 4604.75 1.04379 -1.33422 0
M  V30 47036 O 4605.95 0.981719 -1.50872 0
M  V30 47037 H 4602.33 0.156663 -0.7355 0
M  V30 47038 H 4604.3 -0.238865 -2.97442 0
M  V30 47039 C 4603.05 1.53071 -3.12193 0
M  V30 47040 H 4602.37 1.06587 -3.8533 0
M  V30 47041 H 4603.81 2.09154 -3.68823 0
M  V30 47042 C 4602.27 2.49938 -2.25903 0
M  V30 47043 O 4602.8 3.53878 -1.90088 0
M  V30 47044 N 4601 2.20204 -1.89628 0
M  V30 47045 H 4600.55 1.35711 -2.18953 0
M  V30 47046 H 4600.51 2.85261 -1.32186 0
M  V30 47047 N 4604.28 1.56959 -0.141948 0
M  V30 47048 C 4605.21 2.19518 0.795859 0
M  V30 47049 C 4606.19 1.14191 1.26073 0
M  V30 47050 O 4607.38 1.42516 1.3192 0
M  V30 47051 C 4604.51 2.81279 2.03714 0
M  V30 47052 C 4603.46 3.9239 1.70922 0
M  V30 47053 C 4602.79 4.41062 3.02271 0
M  V30 47054 C 4604.09 5.13406 0.959774 0
M  V30 47055 H 4605.78 2.98139 0.274491 0
M  V30 47056 H 4603.33 1.43407 0.130586 0
M  V30 47057 H 4605.28 3.23709 2.69797 0
M  V30 47058 H 4604 1.99983 2.58214 0
M  V30 47059 H 4602.66 3.5057 1.0722 0
M  V30 47060 H 4602.31 3.56594 3.54753 0
M  V30 47061 H 4602.01 5.16003 2.81096 0
M  V30 47062 H 4603.54 4.86159 3.69434 0
M  V30 47063 H 4604.95 5.52712 1.52259 0
M  V30 47064 H 4603.35 5.94076 0.848148 0
M  V30 47065 H 4604.42 4.84875 -0.0494139 0
M  V30 47066 N 4605.76 -0.13184 1.57048 0
M  V30 47067 C 4606.99 -0.855153 1.88071 0
M  V30 47068 C 4607.4 -1.74555 0.729879 0
M  V30 47069 O 4606.74 -1.81084 -0.308899 0
M  V30 47070 C 4606.8 -1.75108 3.1397 0
M  V30 47071 C 4606.47 -1.03631 4.45095 0
M  V30 47072 C 4607.46 -0.383094 5.18487 0
M  V30 47073 C 4605.15 -1.0213 4.91808 0
M  V30 47074 C 4607.14 0.275571 6.36804 0
M  V30 47075 C 4604.83 -0.358833 6.10046 0
M  V30 47076 C 4605.83 0.288461 6.82391 0
M  V30 47077 O 4605.52 0.940391 7.98381 0
M  V30 47078 H 4605.25 -0.251842 0.627337 0
M  V30 47079 H 4607.8 -0.12471 2.05021 0
M  V30 47080 H 4606.03 -2.52285 2.93069 0
M  V30 47081 H 4607.72 -2.34768 3.31117 0
M  V30 47082 H 4608.49 -0.386392 4.83458 0
M  V30 47083 H 4604.37 -1.51455 4.35411 0
M  V30 47084 H 4607.91 0.781392 6.9321 0
M  V30 47085 H 4603.81 -0.353254 6.44533 0
M  V30 47086 H 4604.57 0.843576 8.14141 0
M  V30 47087 N 4607.24 -1.52396 -0.40165 0
M  V30 47088 C 4608.48 -1.68023 -1.14629 0
M  V30 47089 C 4608.84 -0.408788 -1.88007 0
M  V30 47090 O 4608.13 0.597069 -1.82059 0
M  V30 47091 C 4608.33 -2.84586 -2.16207 0
M  V30 47092 C 4608.15 -4.22943 -1.52805 0
M  V30 47093 C 4606.92 -4.88356 -1.29755 0
M  V30 47094 C 4609.12 -5.04781 -0.984917 0
M  V30 47095 N 4607.1 -6.10728 -0.62324 0
M  V30 47096 C 4608.48 -6.18451 -0.437954 0
M  V30 47097 C 4610.53 -4.9006 -0.880103 0
M  V30 47098 C 4609.23 -7.19012 0.203559 0
M  V30 47099 C 4611.26 -5.90861 -0.252431 0
M  V30 47100 C 4610.62 -7.03828 0.28382 0
M  V30 47101 H 4606.72 -0.668427 -0.405869 0
M  V30 47102 H 4609.3 -1.89718 -0.437608 0
M  V30 47103 H 4607.48 -2.64493 -2.84426 0
M  V30 47104 H 4609.21 -2.89212 -2.83087 0
M  V30 47105 H 4605.96 -4.46851 -1.56911 0
M  V30 47106 H 4606.39 -6.76324 -0.302495 0
M  V30 47107 H 4611.03 -4.02943 -1.28051 0
M  V30 47108 H 4608.75 -8.05749 0.616009 0
M  V30 47109 H 4612.33 -5.81543 -0.17275 0
M  V30 47110 H 4611.21 -7.80491 0.761849 0
M  V30 47111 N 4608.72 0.659337 -1.43145 0
M  V30 47112 C 4609.96 1.43115 -1.45936 0
M  V30 47113 C 4610.32 1.91837 -0.0789972 0
M  V30 47114 O 4611.52 2.68794 0.0183965 0
M  V30 47115 C 4609.79 2.58525 -2.46778 0
M  V30 47116 S 4611.35 3.47144 -2.68396 0
M  V30 47117 H 4608.17 0.488606 -0.516513 0
M  V30 47118 H 4610.77 0.766065 -1.79866 0
M  V30 47119 H 4609.47 2.20995 -3.45817 0
M  V30 47120 H 4609.01 3.29891 -2.14326 0
M  V30 47121 H 4611.02 4.55044 -1.97861 0
M  V30 47122 N 4610.19 1.29574 0.897126 0
M  V30 47123 C 4611.47 1.08371 1.62835 0
M  V30 47124 C 4611.85 -0.371258 2.0781 0
M  V30 47125 O 4611.2 -1.36053 1.8358 0
M  V30 47126 C 4611.41 2.07359 2.80719 0
M  V30 47127 C 4612.76 2.38418 3.51343 0
M  V30 47128 O 4613.78 2.05574 2.90891 0
M  V30 47129 O 4612.64 2.94546 4.60331 0
M  V30 47130 H 4609.73 0.41537 0.71512 0
M  V30 47131 H 4612.28 1.40955 0.944968 0
M  V30 47132 H 4611.05 3.05348 2.44701 0
M  V30 47133 H 4610.67 1.7552 3.56761 0
M  V30 47134 N 4611.67 -1.10784 1.12092 0
M  V30 47135 C 4612.62 -2.17023 0.785483 0
M  V30 47136 C 4613.59 -1.64266 -0.246133 0
M  V30 47137 O 4614.77 -1.90413 -0.121517 0
M  V30 47138 C 4611.91 -3.44248 0.242298 0
M  V30 47139 C 4611.03 -4.10975 1.33129 0
M  V30 47140 C 4610.16 -5.25908 0.747926 0
M  V30 47141 C 4609.2 -5.84532 1.8163 0
M  V30 47142 N 4608.34 -6.90848 1.25191 0
M  V30 47143 H 4613.18 -2.4506 1.69557 0
M  V30 47144 H 4610.71 -1.20294 0.846625 0
M  V30 47145 H 4612.67 -4.17101 -0.090656 0
M  V30 47146 H 4611.3 -3.16573 -0.63096 0
M  V30 47147 H 4610.35 -3.36127 1.78109 0
M  V30 47148 H 4611.67 -4.50593 2.13933 0
M  V30 47149 H 4610.82 -6.05598 0.365429 0
M  V30 47150 H 4609.56 -4.87614 -0.0913474 0
M  V30 47151 H 4608.56 -5.03514 2.20802 0
M  V30 47152 H 4609.79 -6.24891 2.65872 0
M  V30 47153 H 4607.74 -6.5456 0.434404 0
M  V30 47154 H 4607.65 -7.29159 1.99658 0
M  V30 47155 H 4608.92 -7.74327 0.896531 0
M  V30 47156 N 4613.15 -0.912277 -1.28512 0
M  V30 47157 C 4614.4 -0.543591 -1.94652 0
M  V30 47158 C 4614.72 0.91544 -1.72176 0
M  V30 47159 O 4613.99 1.64704 -1.06064 0
M  V30 47160 H 4612.57 -0.198042 -0.72027 0
M  V30 47161 H 4615.23 -1.16131 -1.56523 0
M  V30 47162 H 4614.33 -0.736791 -3.03278 0
M  V30 47163 N 4614.63 1.42361 -0.676098 0
M  V30 47164 C 4616.04 1.55809 -0.345773 0
M  V30 47165 C 4616.24 1.65548 1.14874 0
M  V30 47166 O 4615.3 1.62313 1.93419 0
M  V30 47167 C 4616.61 2.80742 -1.07723 0
M  V30 47168 C 4618.16 2.94516 -1.05968 0
M  V30 47169 C 4618.64 4.22312 -1.77248 0
M  V30 47170 N 4620.13 4.29227 -1.74123 0
M  V30 47171 C 4620.86 5.26927 -2.26131 0
M  V30 47172 N 4620.36 6.30772 -2.86527 0
M  V30 47173 N 4622.15 5.18734 -2.16499 0
M  V30 47174 H 4614.3 1.34284 -1.64565 0
M  V30 47175 H 4616.57 0.646481 -0.693373 0
M  V30 47176 H 4616.27 2.79688 -2.13231 0
M  V30 47177 H 4616.15 3.71674 -0.64329 0
M  V30 47178 H 4618.53 2.95097 -0.0129292 0
M  V30 47179 H 4618.61 2.04812 -1.53251 0
M  V30 47180 H 4618.26 4.22492 -2.81892 0
M  V30 47181 H 4618.19 5.10953 -1.27414 0
M  V30 47182 H 4620.68 3.5481 -1.30071 0
M  V30 47183 H 4620.99 7.0168 -3.2383 0
M  V30 47184 H 4619.34 6.3133 -2.90598 0
M  V30 47185 H 4622.53 4.36527 -1.69002 0
M  V30 47186 H 4622.7 5.94712 -2.57337 0
M  V30 47187 N 4616.11 0.419515 1.51914 0
M  V30 47188 C 4617.38 -0.211931 1.94448 0
M  V30 47189 C 4617.76 -1.61698 1.35709 0
M  V30 47190 O 4617.11 -2.221 0.537009 0
M  V30 47191 C 4617.32 -0.20775 3.48381 0
M  V30 47192 C 4618.67 -0.422044 4.22497 0
M  V30 47193 O 4619.69 -0.286653 3.55045 0
M  V30 47194 O 4618.55 -0.689818 5.42129 0
M  V30 47195 H 4615.65 -0.139557 0.81514 0
M  V30 47196 H 4618.19 0.476208 1.62881 0
M  V30 47197 H 4616.96 0.775236 3.83544 0
M  V30 47198 H 4616.59 -0.939552 3.86339 0
M  V30 47199 N 4617.58 -1.56882 0.15027 0
M  V30 47200 C 4618.81 -2.00595 -0.506878 0
M  V30 47201 C 4619.23 -1.03039 -1.58204 0
M  V30 47202 O 4618.58 -0.0279037 -1.82479 0
M  V30 47203 C 4618.64 -3.44213 -1.10453 0
M  V30 47204 O 4618.36 -4.3804 -0.0723096 0
M  V30 47205 C 4619.86 -4.0322 -1.84197 0
M  V30 47206 H 4617.08 -0.657955 -0.131667 0
M  V30 47207 H 4619.62 -2.03017 0.245814 0
M  V30 47208 H 4617.78 -3.42632 -1.80783 0
M  V30 47209 H 4618.19 -5.22009 -0.510609 0
M  V30 47210 H 4619.66 -5.05698 -2.213 0
M  V30 47211 H 4620.14 -3.44116 -2.72911 0
M  V30 47212 H 4620.75 -4.08441 -1.18558 0
M  V30 47213 N 4619.06 0.12351 -1.57115 0
M  V30 47214 C 4620.31 0.83064 -1.83802 0
M  V30 47215 C 4620.62 1.81256 -0.735222 0
M  V30 47216 O 4621.83 2.56555 -0.888368 0
M  V30 47217 C 4620.29 1.52791 -3.25857 0
M  V30 47218 C 4619.89 0.5872 -4.44135 0
M  V30 47219 C 4621.64 2.22043 -3.61797 0
M  V30 47220 C 4619.55 1.28743 -5.77217 0
M  V30 47221 H 4618.48 0.313943 -0.685533 0
M  V30 47222 H 4621.13 0.0833715 -1.83311 0
M  V30 47223 H 4619.51 2.32164 -3.20805 0
M  V30 47224 H 4620.68 -0.172991 -4.60475 0
M  V30 47225 H 4619 0.00187253 -4.164 0
M  V30 47226 H 4621.59 2.75115 -4.58493 0
M  V30 47227 H 4621.94 2.99634 -2.89007 0
M  V30 47228 H 4622.47 1.49563 -3.68613 0
M  V30 47229 H 4619.21 0.55291 -6.53164 0
M  V30 47230 H 4618.73 2.01975 -5.64771 0
M  V30 47231 H 4620.41 1.82188 -6.20819 0
M  V30 47232 N 4620.54 1.52607 0.393562 0
M  V30 47233 C 4621.45 1.79976 1.50485 0
M  V30 47234 C 4622.47 0.686237 1.59896 0
M  V30 47235 O 4623.64 0.973336 1.76318 0
M  V30 47236 C 4620.71 1.95877 2.86065 0
M  V30 47237 C 4619.77 3.19791 2.86413 0
M  V30 47238 C 4619 3.34924 4.15526 0
M  V30 47239 O 4619.22 2.54966 5.10244 0
M  V30 47240 O 4618.16 4.28156 4.23044 0
M  V30 47241 H 4621.98 2.74333 1.30289 0
M  V30 47242 H 4619.57 1.37642 0.580956 0
M  V30 47243 H 4621.45 2.08069 3.6645 0
M  V30 47244 H 4620.13 1.0471 3.06296 0
M  V30 47245 H 4619.03 3.13045 2.04826 0
M  V30 47246 H 4620.37 4.10789 2.71133 0
M  V30 47247 N 4622.02 -0.651737 1.43493 0
M  V30 47248 C 4623.26 -1.41371 1.45403 0
M  V30 47249 C 4623.6 -1.94041 0.0785505 0
M  V30 47250 O 4622.87 -1.72382 -0.900817 0
M  V30 47251 C 4623.16 -2.59406 2.49761 0
M  V30 47252 C 4623.01 -2.12218 3.9659 0
M  V30 47253 C 4624.33 -3.61618 2.5084 0
M  V30 47254 H 4621.45 -0.512701 0.52944 0
M  V30 47255 H 4624.09 -0.738735 1.75051 0
M  V30 47256 H 4622.24 -3.16989 2.24611 0
M  V30 47257 H 4623.91 -1.59624 4.32802 0
M  V30 47258 H 4622.15 -1.43577 4.09351 0
M  V30 47259 H 4622.82 -2.97104 4.65224 0
M  V30 47260 H 4625.3 -3.13796 2.73261 0
M  V30 47261 H 4624.18 -4.41754 3.25798 0
M  V30 47262 H 4624.44 -4.14309 1.54274 0
M  V30 47263 N 4623.5 -1.30048 -0.890242 0
M  V30 47264 C 4624.72 -1.21604 -1.6801 0
M  V30 47265 C 4625.15 0.218612 -1.86825 0
M  V30 47266 O 4624.5 1.15751 -1.3954 0
M  V30 47267 C 4624.55 -1.94444 -3.03684 0
M  V30 47268 O 4623.66 -1.26794 -3.92425 0
M  V30 47269 H 4623 -0.420874 -0.513577 0
M  V30 47270 H 4625.53 -1.71779 -1.11145 0
M  V30 47271 H 4625.54 -2.03263 -3.53763 0
M  V30 47272 H 4624.21 -2.98787 -2.89308 0
M  V30 47273 H 4622.79 -1.26294 -3.50862 0
M  V30 47274 N 4624.97 1.10188 -1.12678 0
M  V30 47275 C 4625.92 2.16603 -0.796982 0
M  V30 47276 C 4626.89 1.64394 0.237418 0
M  V30 47277 O 4628.08 1.90474 0.111417 0
M  V30 47278 C 4625.22 3.44115 -0.260551 0
M  V30 47279 C 4624.33 4.10263 -1.35307 0
M  V30 47280 C 4623.46 5.25504 -0.775805 0
M  V30 47281 C 4622.5 5.8356 -1.84727 0
M  V30 47282 N 4621.64 6.90175 -1.28853 0
M  V30 47283 H 4626.48 2.44157 -1.70854 0
M  V30 47284 H 4624.02 1.19843 -0.852992 0
M  V30 47285 H 4625.98 4.17144 0.0685348 0
M  V30 47286 H 4624.61 3.16904 0.614163 0
M  V30 47287 H 4623.66 3.35178 -1.79889 0
M  V30 47288 H 4624.97 4.49452 -2.16319 0
M  V30 47289 H 4624.12 6.05396 -0.39754 0
M  V30 47290 H 4622.86 4.87656 0.0654867 0
M  V30 47291 H 4621.87 5.02336 -2.2347 0
M  V30 47292 H 4623.09 6.23472 -2.69183 0
M  V30 47293 H 4621.04 6.54321 -0.469111 0
M  V30 47294 H 4620.96 7.2809 -2.03522 0
M  V30 47295 H 4622.22 7.73841 -0.937583 0
M  V30 47296 N 4626.45 0.919079 1.28026 0
M  V30 47297 C 4627.38 0.428662 2.29532 0
M  V30 47298 C 4628.36 -0.506533 1.62383 0
M  V30 47299 O 4629.55 -0.413129 1.89755 0
M  V30 47300 C 4626.68 -0.327267 3.45755 0
M  V30 47301 C 4625.63 0.519286 4.24838 0
M  V30 47302 C 4624.96 -0.365299 5.33451 0
M  V30 47303 C 4626.26 1.77931 4.91058 0
M  V30 47304 H 4627.95 1.27696 2.70802 0
M  V30 47305 H 4625.5 0.615473 1.30184 0
M  V30 47306 H 4627.45 -0.681232 4.15857 0
M  V30 47307 H 4626.18 -1.20952 3.03378 0
M  V30 47308 H 4624.83 0.855842 3.5647 0
M  V30 47309 H 4624.48 -1.24625 4.87317 0
M  V30 47310 H 4624.18 0.197562 5.87268 0
M  V30 47311 H 4625.71 -0.715027 6.06399 0
M  V30 47312 H 4627.12 1.49393 5.53493 0
M  V30 47313 H 4625.52 2.285 5.54894 0
M  V30 47314 H 4626.59 2.50397 4.15246 0
M  V30 47315 N 4627.93 -1.42001 0.683638 0
M  V30 47316 C 4628.88 -2.326 -0.000733638 0
M  V30 47317 C 4629.87 -1.5031 -0.781225 0
M  V30 47318 O 4631.08 -1.66325 -0.688192 0
M  V30 47319 H 4627.45 -0.751759 -0.0190352 0
M  V30 47320 H 4629.43 -2.88008 0.780629 0
M  V30 47321 C 4628.17 -3.34981 -0.931832 0
M  V30 47322 H 4627.5 -3.98346 -0.340677 0
M  V30 47323 H 4628.94 -4.00941 -1.37922 0
M  V30 47324 C 4627.4 -2.67932 -2.0424 0
M  V30 47325 O 4627.93 -2.51799 -3.12986 0
M  V30 47326 N 4626.13 -2.26816 -1.81667 0
M  V30 47327 H 4625.68 -2.40138 -0.932279 0
M  V30 47328 H 4625.64 -1.82289 -2.56161 0
M  V30 47329 N 4629.41 -0.427565 -1.51689 0
M  V30 47330 C 4630.66 0.141877 -2.01601 0
M  V30 47331 C 4630.98 1.44062 -1.31419 0
M  V30 47332 O 4630.25 1.90762 -0.445725 0
M  V30 47333 H 4628.83 0.0554206 -0.744941 0
M  V30 47334 H 4631.49 -0.568033 -1.86439 0
M  V30 47335 H 4630.59 0.324803 -3.10405 0
M  V30 47336 N 4630.89 1.568 -0.158588 0
M  V30 47337 C 4631.85 2.1614 0.762629 0
M  V30 47338 C 4632.85 1.10615 1.16709 0
M  V30 47339 O 4634.04 1.36195 1.08613 0
M  V30 47340 C 4631.17 2.73393 2.03639 0
M  V30 47341 H 4632.37 2.98887 0.246249 0
M  V30 47342 H 4629.92 1.56035 0.0909196 0
M  V30 47343 H 4630.65 1.94344 2.59616 0
M  V30 47344 H 4630.44 3.50608 1.75547 0
M  V30 47345 H 4631.93 3.19074 2.69409 0
M  V30 47346 N 4632.37 -0.115176 1.57179 0
M  V30 47347 C 4633.6 -0.835157 1.88967 0
M  V30 47348 C 4634 -1.73771 0.748352 0
M  V30 47349 O 4633.35 -1.81402 -0.289675 0
M  V30 47350 C 4633.41 -1.71768 3.1581 0
M  V30 47351 C 4633.07 -0.989041 4.46169 0
M  V30 47352 C 4634.07 -0.32808 5.18864 0
M  V30 47353 C 4631.75 -0.969083 4.92863 0
M  V30 47354 C 4633.75 0.343097 6.36476 0
M  V30 47355 C 4631.44 -0.294109 6.10392 0
M  V30 47356 C 4632.43 0.360822 6.82046 0
M  V30 47357 O 4632.12 1.02502 7.97338 0
M  V30 47358 H 4631.85 -0.245174 0.629973 0
M  V30 47359 H 4634.41 -0.102958 2.05142 0
M  V30 47360 H 4632.64 -2.49162 2.95728 0
M  V30 47361 H 4634.33 -2.31243 3.33589 0
M  V30 47362 H 4635.09 -0.335093 4.83841 0
M  V30 47363 H 4630.97 -1.46828 4.36992 0
M  V30 47364 H 4634.52 0.854872 6.92342 0
M  V30 47365 H 4630.41 -0.284873 6.44871 0
M  V30 47366 H 4631.18 0.92988 8.13201 0
M  V30 47367 N 4633.84 -1.52813 -0.385464 0
M  V30 47368 C 4635.26 -1.42143 -0.725779 0
M  V30 47369 C 4635.46 -0.544658 -1.93999 0
M  V30 47370 O 4634.52 -0.019458 -2.52493 0
M  V30 47371 C 4635.83 -2.85046 -0.957568 0
M  V30 47372 C 4637.38 -2.94547 -1.05882 0
M  V30 47373 C 4637.85 -4.38469 -1.32322 0
M  V30 47374 N 4639.34 -4.41809 -1.39136 0
M  V30 47375 C 4640.08 -5.50255 -1.61265 0
M  V30 47376 N 4639.57 -6.68781 -1.80842 0
M  V30 47377 N 4641.37 -5.37804 -1.63473 0
M  V30 47378 H 4633.52 -2.08337 0.413456 0
M  V30 47379 H 4635.78 -0.940012 0.122808 0
M  V30 47380 H 4635.49 -3.51431 -0.137445 0
M  V30 47381 H 4635.36 -3.27512 -1.87125 0
M  V30 47382 H 4637.75 -2.28327 -1.86951 0
M  V30 47383 H 4637.83 -2.55504 -0.122967 0
M  V30 47384 H 4637.47 -5.05256 -0.517615 0
M  V30 47385 H 4637.4 -4.75067 -2.27197 0
M  V30 47386 H 4639.89 -3.56382 -1.25701 0
M  V30 47387 H 4640.21 -7.47204 -1.97245 0
M  V30 47388 H 4638.55 -6.71803 -1.7806 0
M  V30 47389 H 4641.74 -4.44176 -1.47733 0
M  V30 47390 H 4641.92 -6.22388 -1.8038 0
M  V30 47391 N 4635.32 0.644118 -1.43836 0
M  V30 47392 C 4636.55 1.43142 -1.49392 0
M  V30 47393 C 4636.96 1.88452 -0.114649 0
M  V30 47394 O 4636.32 1.6005 0.876933 0
M  V30 47395 C 4636.37 2.66037 -2.44758 0
M  V30 47396 O 4636.09 2.2262 -3.77322 0
M  V30 47397 C 4637.59 3.59302 -2.59648 0
M  V30 47398 H 4634.81 0.43943 -0.507092 0
M  V30 47399 H 4637.36 0.788884 -1.88671 0
M  V30 47400 H 4635.51 3.26411 -2.0865 0
M  V30 47401 H 4635.93 3.02201 -4.2869 0
M  V30 47402 H 4637.4 4.42175 -3.30432 0
M  V30 47403 H 4637.88 4.07254 -1.64442 0
M  V30 47404 H 4638.48 3.04805 -2.96604 0
M  V30 47405 N 4636.8 1.30518 0.883332 0
M  V30 47406 C 4638.05 1.19613 1.6377 0
M  V30 47407 C 4638.38 -0.248247 1.92607 0
M  V30 47408 O 4637.65 -1.17737 1.54817 0
M  V30 47409 C 4637.94 2.02679 2.97646 0
M  V30 47410 C 4637.79 3.55345 2.75772 0
M  V30 47411 C 4639.11 1.86587 3.98589 0
M  V30 47412 H 4636.23 0.435877 0.59429 0
M  V30 47413 H 4638.87 1.60168 1.02206 0
M  V30 47414 H 4637.02 1.68221 3.50191 0
M  V30 47415 H 4638.69 3.99871 2.30002 0
M  V30 47416 H 4636.93 3.79445 2.10247 0
M  V30 47417 H 4637.61 4.08758 3.70973 0
M  V30 47418 H 4640.08 2.16716 3.55209 0
M  V30 47419 H 4638.96 2.47031 4.9017 0
M  V30 47420 H 4639.22 0.825474 4.34325 0
M  V30 47421 N 4638.28 -1.09589 1.13261 0
M  V30 47422 C 4639.21 -2.18212 0.831023 0
M  V30 47423 C 4640.19 -1.68812 -0.208907 0
M  V30 47424 O 4641.37 -1.9408 -0.0681983 0
M  V30 47425 C 4638.5 -3.4605 0.294418 0
M  V30 47426 C 4637.46 -4.08773 1.2684 0
M  V30 47427 C 4636.78 -5.31417 0.591636 0
M  V30 47428 C 4638.08 -4.51467 2.62631 0
M  V30 47429 H 4639.78 -2.43697 1.73932 0
M  V30 47430 H 4637.32 -1.17125 0.837716 0
M  V30 47431 H 4639.28 -4.2134 0.0711087 0
M  V30 47432 H 4638 -3.20082 -0.649253 0
M  V30 47433 H 4636.66 -3.355 1.47768 0
M  V30 47434 H 4636.31 -5.01728 -0.357456 0
M  V30 47435 H 4636.01 -5.74336 1.24143 0
M  V30 47436 H 4637.53 -6.09432 0.377569 0
M  V30 47437 H 4638.95 -5.1799 2.45681 0
M  V30 47438 H 4637.34 -5.05265 3.2377 0
M  V30 47439 H 4638.41 -3.6395 3.20419 0
M  V30 47440 N 4639.76 -0.925856 -1.27537 0
M  V30 47441 C 4641 -0.56616 -1.94737 0
M  V30 47442 C 4641.33 0.889996 -1.72606 0
M  V30 47443 O 4640.61 1.63463 -1.05405 0
M  V30 47444 C 4640.89 -0.890663 -3.48911 0
M  V30 47445 C 4640.75 -2.40044 -3.80393 0
M  V30 47446 C 4642.06 -0.395255 -4.38322 0
M  V30 47447 H 4639.18 -0.207165 -0.707285 0
M  V30 47448 H 4641.83 -1.1573 -1.50687 0
M  V30 47449 H 4639.98 -0.387588 -3.86562 0
M  V30 47450 H 4641.65 -2.97506 -3.52545 0
M  V30 47451 H 4639.89 -2.85039 -3.27009 0
M  V30 47452 H 4640.56 -2.57802 -4.88101 0
M  V30 47453 H 4643.04 -0.826384 -4.07811 0
M  V30 47454 H 4641.91 -0.651277 -5.45023 0
M  V30 47455 H 4642.17 0.704645 -4.36448 0
M  V30 47456 N 4641.23 1.41636 -0.691159 0
M  V30 47457 C 4642.46 2.06147 -0.227655 0
M  V30 47458 C 4642.88 1.51655 1.11275 0
M  V30 47459 O 4642.24 0.6417 1.69564 0
M  V30 47460 C 4642.29 3.60094 -0.190985 0
M  V30 47461 O 4641.39 4.03847 0.835522 0
M  V30 47462 H 4640.73 0.65443 -0.112329 0
M  V30 47463 H 4643.26 1.8148 -0.944778 0
M  V30 47464 H 4643.27 4.07995 -0.0203504 0
M  V30 47465 H 4641.95 3.99125 -1.16929 0
M  V30 47466 H 4640.53 3.67461 0.634601 0
M  V30 47467 N 4642.71 0.435603 1.5146 0
M  V30 47468 C 4643.94 -0.132554 2.06976 0
M  V30 47469 C 4644.36 -1.35843 1.30109 0
M  V30 47470 O 4643.72 -1.78111 0.338556 0
M  V30 47471 C 4643.77 -0.435104 3.57965 0
M  V30 47472 O 4642.87 -1.52184 3.83293 0
M  V30 47473 H 4642.21 -0.00262665 0.663995 0
M  V30 47474 H 4644.74 0.616437 1.95093 0
M  V30 47475 H 4644.75 -0.686065 4.0219 0
M  V30 47476 H 4643.43 0.460884 4.13338 0
M  V30 47477 H 4642.01 -1.26098 3.50933 0
M  V30 47478 N 4644.19 -1.56714 0.166901 0
M  V30 47479 C 4645.44 -1.9636 -0.478236 0
M  V30 47480 C 4645.76 -1.05375 -1.64076 0
M  V30 47481 O 4645.03 -0.119223 -1.95537 0
M  V30 47482 H 4643.61 -0.725072 -0.179667 0
M  V30 47483 H 4646.27 -1.93328 0.247052 0
M  V30 47484 H 4645.37 -3.0055 -0.841187 0
M  V30 47485 N 4645.67 0.106839 -1.57237 0
M  V30 47486 C 4646.6 1.13141 -2.04258 0
M  V30 47487 C 4647.58 1.42473 -0.929274 0
M  V30 47488 O 4648.76 1.52705 -1.19978 0
M  V30 47489 C 4645.89 2.45442 -2.45714 0
M  V30 47490 C 4644.85 2.30546 -3.60601 0
M  V30 47491 C 4644.17 3.67918 -3.87996 0
M  V30 47492 C 4645.47 1.7558 -4.91904 0
M  V30 47493 H 4647.17 0.740272 -2.90104 0
M  V30 47494 H 4644.71 0.354647 -1.39565 0
M  V30 47495 H 4646.67 3.17379 -2.77216 0
M  V30 47496 H 4645.39 2.86469 -1.56854 0
M  V30 47497 H 4644.05 1.61055 -3.29328 0
M  V30 47498 H 4643.7 4.06452 -2.96321 0
M  V30 47499 H 4643.4 3.588 -4.65334 0
M  V30 47500 H 4644.92 4.41341 -4.21961 0
M  V30 47501 H 4646.34 2.37346 -5.21862 0
M  V30 47502 H 4644.73 1.77252 -5.73325 0
M  V30 47503 H 4645.8 0.714283 -4.7961 0
M  V30 47504 N 4647.15 1.53016 0.377354 0
M  V30 47505 C 4648.56 1.42526 0.718231 0
M  V30 47506 C 4648.76 0.554938 1.93708 0
M  V30 47507 O 4647.82 0.032848 2.52479 0
M  V30 47508 C 4649.13 2.8555 0.942438 0
M  V30 47509 C 4650.68 2.95104 1.04319 0
M  V30 47510 C 4651.15 4.39164 1.29994 0
M  V30 47511 N 4652.65 4.42541 1.36791 0
M  V30 47512 C 4653.38 5.51103 1.58345 0
M  V30 47513 N 4652.88 6.69731 1.77293 0
M  V30 47514 N 4654.67 5.38663 1.60619 0
M  V30 47515 H 4646.82 2.08115 -0.424499 0
M  V30 47516 H 4649.08 0.939347 -0.127792 0
M  V30 47517 H 4648.79 3.51499 0.118806 0
M  V30 47518 H 4648.66 3.285 1.85386 0
M  V30 47519 H 4651.05 2.29316 1.85737 0
M  V30 47520 H 4651.13 2.55566 0.109415 0
M  V30 47521 H 4650.78 5.05523 0.490813 0
M  V30 47522 H 4650.71 4.76266 2.24675 0
M  V30 47523 H 4653.2 3.57043 1.23809 0
M  V30 47524 H 4653.51 7.4824 1.9328 0
M  V30 47525 H 4651.85 6.72738 1.74495 0
M  V30 47526 H 4655.05 4.44954 1.45375 0
M  V30 47527 H 4655.22 6.23336 1.77076 0
M  V30 47528 N 4648.62 -0.636481 1.44176 0
M  V30 47529 C 4649.53 -1.77749 1.5311 0
M  V30 47530 C 4650.55 -1.68927 0.417093 0
M  V30 47531 O 4651.73 -1.89799 0.673666 0
M  V30 47532 C 4648.79 -3.14109 1.46752 0
M  V30 47533 C 4647.85 -3.34603 2.6896 0
M  V30 47534 C 4647.09 -4.64458 2.62896 0
M  V30 47535 O 4647.31 -5.44913 1.68601 0
M  V30 47536 O 4646.24 -4.87037 3.53665 0
M  V30 47537 H 4650.07 -1.73165 2.49495 0
M  V30 47538 H 4647.65 -0.797045 1.26363 0
M  V30 47539 H 4649.54 -3.95407 1.4571 0
M  V30 47540 H 4648.21 -3.19247 0.535088 0
M  V30 47541 H 4647.12 -2.53004 2.75571 0
M  V30 47542 H 4648.45 -3.34323 3.61232 0
M  V30 47543 N 4650.1 -1.30985 -0.876398 0
M  V30 47544 C 4651.51 -1.18282 -1.44451 0
M  V30 47545 C 4651.86 0.213197 -1.95038 0
M  V30 47546 O 4650.99 1.11051 -1.85733 0
M  V30 47547 C 4651.58 -2.14119 -2.62561 0
M  V30 47548 C 4650.14 -2.05369 -3.15437 0
M  V30 47549 C 4649.29 -2.03713 -1.88139 0
M  V30 47550 H 4652.24 -1.4313 -0.685534 0
M  V30 47551 H 4652.26 -1.72704 -3.39048 0
M  V30 47552 H 4651.77 -3.15714 -2.25713 0
M  V30 47553 H 4649.88 -1.06946 -3.56922 0
M  V30 47554 H 4649.99 -2.94169 -3.78155 0
M  V30 47555 H 4648.35 -1.48636 -2.06832 0
M  V30 47556 H 4649.14 -3.07053 -1.53537 0
M  V30 47557 N 4651.58 1.08987 -1.13841 0
M  V30 47558 C 4653 1.33309 -0.877552 0
M  V30 47559 C 4653.2 1.95589 0.484491 0
M  V30 47560 O 4652.25 2.20513 1.23005 0
M  V30 47561 C 4653.57 2.24038 -2.00568 0
M  V30 47562 C 4655.11 2.37535 -2.03829 0
M  V30 47563 C 4655.59 3.31603 -3.15917 0
M  V30 47564 N 4657.08 3.39178 -3.15457 0
M  V30 47565 C 4657.81 4.11978 -3.98826 0
M  V30 47566 N 4657.31 4.87536 -4.9222 0
M  V30 47567 N 4659.1 4.07748 -3.86908 0
M  V30 47568 H 4651.25 0.669385 -2.01576 0
M  V30 47569 H 4653.52 0.357451 -0.878028 0
M  V30 47570 H 4653.22 1.85511 -2.98795 0
M  V30 47571 H 4653.1 3.24459 -1.9237 0
M  V30 47572 H 4655.48 2.75324 -1.06211 0
M  V30 47573 H 4655.57 1.36877 -2.16098 0
M  V30 47574 H 4655.21 2.94536 -4.13776 0
M  V30 47575 H 4655.14 4.32175 -3.00885 0
M  V30 47576 H 4657.63 2.85306 -2.47809 0
M  V30 47577 H 4657.94 5.4053 -5.52311 0
M  V30 47578 H 4656.29 4.86609 -4.96222 0
M  V30 47579 H 4659.48 3.47822 -3.13269 0
M  V30 47580 H 4659.65 4.64222 -4.52108 0
M  V30 47581 N 4653.06 0.932607 1.27044 0
M  V30 47582 C 4654.02 0.440143 2.24934 0
M  V30 47583 C 4655.02 -0.444017 1.54548 0
M  V30 47584 O 4656.21 -0.244404 1.72477 0
M  V30 47585 C 4653.34 -0.366661 3.38922 0
M  V30 47586 H 4654.54 1.3051 2.70013 0
M  V30 47587 H 4652.09 0.713756 1.39051 0
M  V30 47588 H 4652.82 -1.25022 2.99232 0
M  V30 47589 H 4652.61 0.267341 3.91188 0
M  V30 47590 H 4654.1 -0.701423 4.11667 0
M  V30 47591 N 4654.54 -1.41267 0.698661 0
M  V30 47592 C 4655.47 -2.33447 0.049711 0
M  V30 47593 C 4656.45 -1.51985 -0.763845 0
M  V30 47594 O 4657.63 -1.80511 -0.716194 0
M  V30 47595 C 4654.76 -3.35831 -0.885149 0
M  V30 47596 C 4653.72 -4.27628 -0.178462 0
M  V30 47597 C 4653.04 -5.2041 -1.22789 0
M  V30 47598 C 4654.34 -5.13456 0.957113 0
M  V30 47599 H 4656.04 -2.87963 0.819611 0
M  V30 47600 H 4653.58 -1.3846 0.395587 0
M  V30 47601 H 4655.54 -3.99245 -1.3484 0
M  V30 47602 H 4654.26 -2.79672 -1.68675 0
M  V30 47603 H 4652.92 -3.65642 0.264789 0
M  V30 47604 H 4652.57 -4.60565 -2.0221 0
M  V30 47605 H 4652.27 -5.82664 -0.760034 0
M  V30 47606 H 4653.79 -5.86701 -1.69159 0
M  V30 47607 H 4655.2 -5.70419 0.574006 0
M  V30 47608 H 4653.6 -5.84666 1.35226 0
M  V30 47609 H 4654.67 -4.50437 1.7954 0
M  V30 47610 N 4656.01 -0.44363 -1.51227 0
M  V30 47611 C 4657.26 0.120904 -2.02439 0
M  V30 47612 C 4657.59 1.4181 -1.32679 0
M  V30 47613 O 4656.87 1.89372 -0.443689 0
M  V30 47614 C 4657.15 0.333165 -3.58555 0
M  V30 47615 C 4657 -0.983122 -4.38925 0
M  V30 47616 C 4658.32 1.10013 -4.26128 0
M  V30 47617 H 4655.44 0.0424664 -0.735776 0
M  V30 47618 H 4658.08 -0.583857 -1.80807 0
M  V30 47619 H 4656.23 0.933481 -3.77119 0
M  V30 47620 H 4657.91 -1.6179 -4.31997 0
M  V30 47621 H 4656.15 -1.58626 -4.03758 0
M  V30 47622 H 4656.82 -0.788571 -5.46338 0
M  V30 47623 H 4659.3 0.591566 -4.11873 0
M  V30 47624 H 4658.17 1.21742 -5.35229 0
M  V30 47625 H 4658.43 2.12982 -3.87416 0
M  V30 47626 N 4657.49 1.56623 -0.175209 0
M  V30 47627 C 4658.74 1.97292 0.469436 0
M  V30 47628 C 4659.07 1.06134 1.62632 0
M  V30 47629 O 4658.35 0.109252 1.94193 0
M  V30 47630 C 4658.63 3.47379 0.948681 0
M  V30 47631 C 4658.48 4.49316 -0.208649 0
M  V30 47632 C 4659.8 4.00658 1.82102 0
M  V30 47633 H 4656.92 0.717323 0.169165 0
M  V30 47634 H 4659.56 1.88183 -0.262128 0
M  V30 47635 H 4657.71 3.55272 1.57207 0
M  V30 47636 H 4659.39 4.53479 -0.845842 0
M  V30 47637 H 4657.63 4.25118 -0.863544 0
M  V30 47638 H 4658.3 5.51742 0.168865 0
M  V30 47639 H 4660.78 3.9542 1.29546 0
M  V30 47640 H 4659.65 5.06083 2.12536 0
M  V30 47641 H 4659.91 3.44709 2.76818 0
M  V30 47642 N 4658.97 -0.0984986 1.57292 0
M  V30 47643 C 4660.25 -0.834093 1.76924 0
M  V30 47644 C 4660.63 -1.97099 0.755997 0
M  V30 47645 O 4659.98 -2.27475 -0.216165 0
M  V30 47646 C 4660.19 -1.33183 3.22589 0
M  V30 47647 C 4661.53 -1.77597 3.85674 0
M  V30 47648 O 4662.56 -1.42814 3.26317 0
M  V30 47649 O 4661.42 -2.41902 4.90046 0
M  V30 47650 H 4658.51 -0.397602 0.725149 0
M  V30 47651 H 4661.06 -0.0806448 1.69508 0
M  V30 47652 H 4659.83 -0.517111 3.87868 0
M  V30 47653 H 4659.45 -2.14738 3.34624 0
M  V30 47654 N 4660.45 -1.53214 -0.369234 0
M  V30 47655 C 4661.7 -1.6947 -1.11391 0
M  V30 47656 C 4662.03 -0.443324 -1.89072 0
M  V30 47657 O 4661.3 0.559321 -1.86284 0
M  V30 47658 C 4661.59 -2.94227 -2.07611 0
M  V30 47659 C 4661.44 -4.29513 -1.33562 0
M  V30 47660 C 4662.76 -3.14576 -3.07783 0
M  V30 47661 H 4659.88 -0.616681 -0.403575 0
M  V30 47662 H 4662.52 -1.85846 -0.395114 0
M  V30 47663 H 4660.67 -2.80396 -2.68906 0
M  V30 47664 H 4662.34 -4.55149 -0.750795 0
M  V30 47665 H 4660.58 -4.29091 -0.637467 0
M  V30 47666 H 4661.26 -5.12933 -2.03971 0
M  V30 47667 H 4663.73 -3.27569 -2.56589 0
M  V30 47668 H 4662.61 -4.0331 -3.72334 0
M  V30 47669 H 4662.87 -2.29689 -3.77751 0
M  V30 47670 N 4661.93 0.628826 -1.44511 0
M  V30 47671 C 4662.86 1.75395 -1.47544 0
M  V30 47672 C 4663.87 1.58573 -0.368562 0
M  V30 47673 O 4665.06 1.66845 -0.634434 0
M  V30 47674 C 4662.16 3.13146 -1.29588 0
M  V30 47675 C 4661.33 3.56404 -2.53564 0
M  V30 47676 C 4660.39 4.73041 -2.30474 0
M  V30 47677 O 4659.42 4.81236 -3.03974 0
M  V30 47678 N 4660.62 5.64898 -1.3368 0
M  V30 47679 H 4663.39 1.73264 -2.4454 0
M  V30 47680 H 4660.95 0.813463 -1.3998 0
M  V30 47681 H 4662.94 3.88898 -1.11985 0
M  V30 47682 H 4661.51 3.09906 -0.40948 0
M  V30 47683 H 4660.73 2.70837 -2.86428 0
M  V30 47684 H 4662.02 3.82059 -3.36018 0
M  V30 47685 H 4661.42 5.60973 -0.729801 0
M  V30 47686 H 4659.97 6.4027 -1.22054 0
M  V30 47687 N 4663.41 1.31448 0.869439 0
M  V30 47688 C 4664.35 1.19074 1.9981 0
M  V30 47689 C 4665.35 0.0989164 1.69111 0
M  V30 47690 O 4666.55 0.260844 1.781 0
M  V30 47691 H 4662.93 0.3687 0.655412 0
M  V30 47692 H 4664.9 2.14563 2.07377 0
M  V30 47693 C 4663.65 0.915441 3.35433 0
M  V30 47694 H 4662.97 1.74772 3.59576 0
M  V30 47695 H 4664.41 0.869041 4.14998 0
M  V30 47696 C 4662.87 -0.381811 3.34729 0
M  V30 47697 O 4663.4 -1.39843 3.76572 0
M  V30 47698 N 4661.61 -0.398532 2.87854 0
M  V30 47699 H 4661.15 0.429276 2.53998 0
M  V30 47700 H 4661.11 -1.26641 2.87766 0
M  V30 47701 N 4664.88 -1.08381 1.14417 0
M  V30 47702 C 4666.13 -1.80416 0.910743 0
M  V30 47703 C 4666.45 -1.8666 -0.564178 0
M  V30 47704 O 4665.72 -1.3599 -1.41009 0
M  V30 47705 H 4664.3 -0.668193 0.333958 0
M  V30 47706 H 4666.96 -1.31032 1.4428 0
M  V30 47707 H 4666.06 -2.83233 1.31092 0
M  V30 47708 N 4666.36 -0.939331 -1.26548 0
M  V30 47709 C 4667.59 -0.601732 -1.97643 0
M  V30 47710 C 4668 0.827147 -1.70161 0
M  V30 47711 O 4667.34 1.56288 -0.965393 0
M  V30 47712 C 4667.4 -0.761849 -3.51335 0
M  V30 47713 C 4667.07 -2.16501 -4.02463 0
M  V30 47714 C 4668.07 -3.14031 -4.14344 0
M  V30 47715 C 4665.75 -2.48509 -4.36519 0
M  V30 47716 C 4667.74 -4.4167 -4.59572 0
M  V30 47717 C 4665.43 -3.76381 -4.81436 0
M  V30 47718 C 4666.43 -4.72775 -4.92923 0
M  V30 47719 O 4666.12 -5.98371 -5.3685 0
M  V30 47720 H 4665.85 -0.22578 -0.637181 0
M  V30 47721 H 4668.4 -1.26184 -1.62071 0
M  V30 47722 H 4666.63 -0.0446167 -3.86674 0
M  V30 47723 H 4668.32 -0.427584 -4.03642 0
M  V30 47724 H 4669.09 -2.90626 -3.8828 0
M  V30 47725 H 4664.97 -1.74217 -4.26813 0
M  V30 47726 H 4668.51 -5.16912 -4.68452 0
M  V30 47727 H 4664.41 -3.996 -5.06942 0
M  V30 47728 H 4665.18 -6.01526 -5.55075 0
M  V30 47729 N 4667.84 1.40895 -0.706143 0
M  V30 47730 C 4668.77 2.33417 -0.0620906 0
M  V30 47731 C 4669.75 1.52388 0.755774 0
M  V30 47732 O 4670.94 1.80889 0.706611 0
M  V30 47733 C 4668.07 3.36296 0.867326 0
M  V30 47734 C 4667.02 4.27716 0.155782 0
M  V30 47735 C 4666.35 5.21054 1.20027 0
M  V30 47736 C 4667.65 5.12941 -0.98433 0
M  V30 47737 H 4669.34 2.87524 -0.834871 0
M  V30 47738 H 4666.89 1.38248 -0.402924 0
M  V30 47739 H 4668.84 3.99954 1.32721 0
M  V30 47740 H 4667.56 2.80562 1.67189 0
M  V30 47741 H 4666.22 3.65497 -0.284176 0
M  V30 47742 H 4665.87 4.61631 1.99765 0
M  V30 47743 H 4665.57 5.83059 0.729123 0
M  V30 47744 H 4667.09 5.8759 1.66045 0
M  V30 47745 H 4668.51 5.70107 -0.604248 0
M  V30 47746 H 4666.9 5.8394 -1.38325 0
M  V30 47747 H 4667.97 4.49478 -1.81926 0
M  V30 47748 N 4669.32 0.451643 1.5099 0
M  V30 47749 C 4670.55 -0.108104 2.06317 0
M  V30 47750 C 4670.96 -1.3577 1.31769 0
M  V30 47751 O 4670.3 -1.79837 0.374757 0
M  V30 47752 C 4670.36 -0.481534 3.5626 0
M  V30 47753 C 4670.02 0.663273 4.52161 0
M  V30 47754 C 4671.02 1.53964 4.96579 0
M  V30 47755 C 4668.71 0.848074 4.95089 0
M  V30 47756 C 4670.7 2.58539 5.82612 0
M  V30 47757 C 4668.39 1.89707 5.80908 0
M  V30 47758 C 4669.39 2.7641 6.24569 0
M  V30 47759 O 4669.07 3.79507 7.08682 0
M  V30 47760 H 4668.81 -0.00496807 0.675982 0
M  V30 47761 H 4671.36 0.633727 1.95379 0
M  V30 47762 H 4669.59 -1.27628 3.65032 0
M  V30 47763 H 4671.28 -0.974095 3.94038 0
M  V30 47764 H 4672.04 1.40847 4.64098 0
M  V30 47765 H 4667.92 0.182742 4.60638 0
M  V30 47766 H 4671.47 3.26245 6.16612 0
M  V30 47767 H 4667.36 2.02839 6.12802 0
M  V30 47768 H 4668.13 3.7626 7.26891 0
M  V30 47769 N 4670.8 -1.56528 0.183513 0
M  V30 47770 C 4672.04 -1.98305 -0.452396 0
M  V30 47771 C 4672.4 -1.06804 -1.60033 0
M  V30 47772 O 4671.69 -0.110116 -1.91283 0
M  V30 47773 C 4671.88 -3.43942 -0.971516 0
M  V30 47774 C 4671.71 -4.49527 0.124583 0
M  V30 47775 C 4670.48 -5.01979 0.578344 0
M  V30 47776 C 4672.68 -5.05833 0.929385 0
M  V30 47777 N 4670.66 -5.91214 1.65347 0
M  V30 47778 C 4672.03 -5.91625 1.85417 0
M  V30 47779 C 4674.09 -4.88298 0.9731 0
M  V30 47780 C 4672.79 -6.61758 2.81901 0
M  V30 47781 C 4674.82 -5.59161 1.92594 0
M  V30 47782 C 4674.18 -6.44691 2.83818 0
M  V30 47783 H 4670.28 -0.770556 -0.133297 0
M  V30 47784 H 4672.86 -1.9258 0.286541 0
M  V30 47785 H 4671.03 -3.5019 -1.67993 0
M  V30 47786 H 4672.77 -3.72707 -1.57707 0
M  V30 47787 H 4669.52 -4.73281 0.173806 0
M  V30 47788 H 4669.94 -6.40535 2.19189 0
M  V30 47789 H 4674.59 -4.2186 0.281828 0
M  V30 47790 H 4672.3 -7.27403 3.5201 0
M  V30 47791 H 4675.89 -5.47575 1.96602 0
M  V30 47792 H 4674.77 -6.98561 3.56346 0
M  V30 47793 N 4672.27 0.0901557 -1.57342 0
M  V30 47794 C 4673.5 0.806157 -1.90548 0
M  V30 47795 C 4673.92 1.72038 -0.777704 0
M  V30 47796 O 4673.27 1.80779 0.25004 0
M  V30 47797 C 4673.33 1.61535 -3.23402 0
M  V30 47798 O 4673.05 0.737892 -4.31841 0
M  V30 47799 C 4674.55 2.43397 -3.70503 0
M  V30 47800 H 4671.77 0.230234 -0.630265 0
M  V30 47801 H 4674.31 0.0659125 -2.04394 0
M  V30 47802 H 4672.47 2.30805 -3.11139 0
M  V30 47803 H 4672.88 1.29884 -5.08164 0
M  V30 47804 H 4674.35 2.9566 -4.66143 0
M  V30 47805 H 4674.83 3.22087 -2.98591 0
M  V30 47806 H 4675.44 1.79317 -3.85649 0
M  V30 47807 N 4673.75 1.53407 0.361103 0
M  V30 47808 C 4675.03 1.60415 1.11921 0
M  V30 47809 C 4675.41 0.414458 2.06991 0
M  V30 47810 O 4674.76 -0.594898 2.2062 0
M  V30 47811 C 4674.97 2.95659 1.85437 0
M  V30 47812 C 4676.32 3.50394 2.3981 0
M  V30 47813 O 4677.34 2.97717 1.95558 0
M  V30 47814 O 4676.2 4.42493 3.20721 0
M  V30 47815 H 4673.29 0.648128 0.513672 0
M  V30 47816 H 4675.84 1.6575 0.364007 0
M  V30 47817 H 4674.61 3.73686 1.16078 0
M  V30 47818 H 4674.23 2.93835 2.67856 0
M  V30 47819 N 4675.23 -0.621153 1.44843 0
M  V30 47820 C 4676.48 -1.38067 1.49362 0
M  V30 47821 C 4676.83 -1.91973 0.128183 0
M  V30 47822 O 4676.12 -1.71314 -0.858026 0
M  V30 47823 C 4676.32 -2.55666 2.49739 0
M  V30 47824 C 4676.15 -2.13275 3.95909 0
M  V30 47825 C 4674.92 -2.00084 4.63999 0
M  V30 47826 C 4677.12 -1.71573 4.84837 0
M  V30 47827 N 4675.1 -1.5136 5.94948 0
M  V30 47828 C 4676.47 -1.34167 6.05309 0
M  V30 47829 C 4678.52 -1.59042 4.71816 0
M  V30 47830 C 4677.23 -0.854834 7.14202 0
M  V30 47831 C 4679.25 -1.11763 5.80743 0
M  V30 47832 C 4678.61 -0.753139 7.00362 0
M  V30 47833 H 4674.71 -0.499654 0.601556 0
M  V30 47834 H 4677.3 -0.711545 1.81232 0
M  V30 47835 H 4675.47 -3.20193 2.19843 0
M  V30 47836 H 4677.2 -3.225 2.44491 0
M  V30 47837 H 4673.96 -2.20848 4.18955 0
M  V30 47838 H 4674.38 -1.29269 6.64544 0
M  V30 47839 H 4679.02 -1.85852 3.79762 0
M  V30 47840 H 4676.74 -0.574268 8.06057 0
M  V30 47841 H 4680.33 -1.02513 5.72697 0
M  V30 47842 H 4679.21 -0.392908 7.83215 0
M  V30 47843 N 4676.71 -1.31907 -0.862456 0
M  V30 47844 C 4677.96 -1.21781 -1.61288 0
M  V30 47845 C 4678.28 0.222344 -1.93728 0
M  V30 47846 O 4677.55 1.14505 -1.58951 0
M  V30 47847 H 4676.13 -0.447738 -0.597946 0
M  V30 47848 H 4678.79 -1.6533 -1.03209 0
M  V30 47849 H 4677.89 -1.79489 -2.55323 0
M  V30 47850 N 4678.19 1.07773 -1.1499 0
M  V30 47851 C 4679.46 1.76987 -0.832757 0
M  V30 47852 C 4679.84 2.00102 0.67249 0
M  V30 47853 O 4679.19 1.61603 1.61544 0
M  V30 47854 C 4679.4 3.08134 -1.63874 0
M  V30 47855 C 4680.75 3.82554 -1.84222 0
M  V30 47856 O 4681.77 3.17933 -1.60614 0
M  V30 47857 O 4680.63 4.98605 -2.23731 0
M  V30 47858 H 4677.73 0.768378 -0.305818 0
M  V30 47859 H 4680.27 1.14177 -1.25545 0
M  V30 47860 H 4679.04 2.869 -2.6609 0
M  V30 47861 H 4678.67 3.78674 -1.2121 0
M  V30 47862 N 4679.66 0.946029 1.26048 0
M  V30 47863 C 4680.61 0.430243 2.23904 0
M  V30 47864 C 4681.6 -0.475736 1.53706 0
M  V30 47865 O 4682.79 -0.310191 1.74261 0
M  V30 47866 C 4679.92 -0.298837 3.41997 0
M  V30 47867 C 4679.01 0.624714 4.19474 0
M  V30 47868 N 4679.4 1.75262 4.74465 0
M  V30 47869 C 4677.69 0.431238 4.4391 0
M  V30 47870 C 4678.4 2.32853 5.33061 0
M  V30 47871 N 4677.37 1.61601 5.19024 0
M  V30 47872 H 4681.17 1.29116 2.64019 0
M  V30 47873 H 4678.69 0.802478 1.41188 0
M  V30 47874 H 4680.68 -0.68542 4.11227 0
M  V30 47875 H 4679.34 -1.15646 3.03407 0
M  V30 47876 H 4680.36 2.13466 4.71861 0
M  V30 47877 H 4677.03 -0.384218 4.15728 0
M  V30 47878 H 4678.42 3.27913 5.86449 0
M  V30 47879 N 4681.14 -1.40518 0.713605 0
M  V30 47880 C 4682.37 -2.05759 0.260423 0
M  V30 47881 C 4682.79 -1.53407 -1.08849 0
M  V30 47882 O 4682.15 -0.668594 -1.68522 0
M  V30 47883 C 4682.2 -3.59744 0.248248 0
M  V30 47884 O 4681.3 -4.05126 -0.771168 0
M  V30 47885 H 4680.64 -0.65256 0.122726 0
M  V30 47886 H 4683.17 -1.79954 0.973531 0
M  V30 47887 H 4683.18 -4.07911 0.0852563 0
M  V30 47888 H 4681.86 -3.97214 1.23263 0
M  V30 47889 H 4680.44 -3.68424 -0.57606 0
M  V30 47890 N 4682.62 -0.459644 -1.50748 0
M  V30 47891 C 4683.55 0.330563 -2.31148 0
M  V30 47892 C 4684.53 1.00082 -1.37541 0
M  V30 47893 O 4685.72 1.00019 -1.66462 0
M  V30 47894 C 4682.85 1.41947 -3.16967 0
M  V30 47895 C 4681.8 0.87146 -4.19034 0
M  V30 47896 C 4681.13 2.0578 -4.93517 0
M  V30 47897 C 4682.43 -0.109435 -5.22185 0
M  V30 47898 H 4684.12 -0.34044 -2.97458 0
M  V30 47899 H 4681.67 -0.165169 -1.4305 0
M  V30 47900 H 4683.62 1.97967 -3.72004 0
M  V30 47901 H 4682.34 2.11908 -2.48521 0
M  V30 47902 H 4681 0.333314 -3.65082 0
M  V30 47903 H 4680.65 2.74412 -4.21553 0
M  V30 47904 H 4680.35 1.6974 -5.6255 0
M  V30 47905 H 4681.87 2.62312 -5.51385 0
M  V30 47906 H 4683.29 0.361203 -5.72161 0
M  V30 47907 H 4681.69 -0.383526 -5.98873 0
M  V30 47908 H 4682.76 -1.03904 -4.73637 0
M  V30 47909 N 4684.1 1.56428 -0.191812 0
M  V30 47910 C 4685.35 1.96661 0.448019 0
M  V30 47911 C 4685.66 1.08142 1.62987 0
M  V30 47912 O 4686.87 1.38143 2.33728 0
M  V30 47913 C 4685.32 3.49756 0.848462 0
M  V30 47914 C 4684.93 4.46934 -0.308921 0
M  V30 47915 C 4686.67 3.98765 1.45556 0
M  V30 47916 C 4684.58 5.91293 0.112298 0
M  V30 47917 H 4683.51 0.734318 0.171153 0
M  V30 47918 H 4686.16 1.813 -0.283306 0
M  V30 47919 H 4684.54 3.6061 1.63636 0
M  V30 47920 H 4685.72 4.4781 -1.08643 0
M  V30 47921 H 4684.03 4.08099 -0.827301 0
M  V30 47922 H 4686.63 5.04093 1.7831 0
M  V30 47923 H 4686.97 3.42883 2.36087 0
M  V30 47924 H 4687.51 3.91013 0.731699 0
M  V30 47925 H 4684.25 6.51094 -0.758743 0
M  V30 47926 H 4683.77 5.93679 0.854733 0
M  V30 47927 H 4685.44 6.44665 0.549221 0
M  V30 47928 N 4685.58 -0.0818102 1.57388 0
M  V30 47929 C 4686.82 -0.781302 1.86387 0
M  V30 47930 C 4687.15 -1.78615 0.782405 0
M  V30 47931 O 4686.42 -1.94977 -0.189992 0
M  V30 47932 H 4685 -0.291538 0.687761 0
M  V30 47933 H 4687.66 -0.0602795 1.94807 0
M  V30 47934 H 4686.75 -1.3037 2.83567 0
M  V30 47935 N 4687.06 -1.53597 -0.352963 0
M  V30 47936 C 4688.47 -1.4365 -0.695465 0
M  V30 47937 C 4688.67 -0.585685 -1.928 0
M  V30 47938 O 4687.73 -0.0730111 -2.52394 0
M  V30 47939 C 4689.04 -2.87013 -0.89689 0
M  V30 47940 C 4690.59 -2.96727 -0.996105 0
M  V30 47941 C 4691.06 -4.41177 -1.22991 0
M  V30 47942 N 4692.55 -4.44661 -1.29733 0
M  V30 47943 C 4693.29 -5.53552 -1.49557 0
M  V30 47944 N 4692.79 -6.72466 -1.66616 0
M  V30 47945 N 4694.58 -5.4115 -1.52029 0
M  V30 47946 H 4686.73 -2.07413 0.457554 0
M  V30 47947 H 4688.99 -0.937195 0.14272 0
M  V30 47948 H 4688.7 -3.51644 -0.0628702 0
M  V30 47949 H 4688.57 -3.31407 -1.80136 0
M  V30 47950 H 4690.96 -2.32242 -1.82066 0
M  V30 47951 H 4691.04 -2.55708 -0.0687432 0
M  V30 47952 H 4690.68 -5.0624 -0.410327 0
M  V30 47953 H 4690.61 -4.7978 -2.17069 0
M  V30 47954 H 4693.11 -3.58968 -1.18113 0
M  V30 47955 H 4693.42 -7.5122 -1.81351 0
M  V30 47956 H 4691.76 -6.75429 -1.6377 0
M  V30 47957 H 4694.95 -4.4721 -1.38278 0
M  V30 47958 H 4695.13 -6.26074 -1.67137 0
M  V30 47959 N 4688.53 0.613463 -1.4517 0
M  V30 47960 C 4689.78 1.36869 -1.48155 0
M  V30 47961 C 4690.1 1.952 -0.125051 0
M  V30 47962 O 4691.3 2.71481 -0.032513 0
M  V30 47963 C 4689.76 2.47896 -2.60913 0
M  V30 47964 C 4689.37 1.96002 -4.02849 0
M  V30 47965 C 4691.11 3.24955 -2.73138 0
M  V30 47966 C 4689.02 3.04476 -5.06999 0
M  V30 47967 H 4687.95 0.514408 -0.551271 0
M  V30 47968 H 4690.6 0.658122 -1.71292 0
M  V30 47969 H 4688.98 3.2161 -2.31048 0
M  V30 47970 H 4690.15 1.29036 -4.42365 0
M  V30 47971 H 4688.47 1.31705 -3.95022 0
M  V30 47972 H 4691.07 4.05853 -3.4812 0
M  V30 47973 H 4691.41 3.75582 -1.79566 0
M  V30 47974 H 4691.94 2.58339 -3.02499 0
M  V30 47975 H 4688.68 2.58774 -6.02259 0
M  V30 47976 H 4688.2 3.70027 -4.72059 0
M  V30 47977 H 4689.88 3.68957 -5.31488 0
M  V30 47978 N 4690.01 1.32363 0.855449 0
M  V30 47979 C 4691.26 1.22635 1.6064 0
M  V30 47980 C 4691.58 -0.212067 1.93843 0
M  V30 47981 O 4690.85 -1.1366 1.59556 0
M  V30 47982 H 4689.43 0.450903 0.595563 0
M  V30 47983 H 4692.09 1.65875 1.02331 0
M  V30 47984 H 4691.19 1.80841 2.54368 0
M  V30 47985 N 4691.49 -1.07162 1.1556 0
M  V30 47986 C 4692.42 -2.13805 0.797668 0
M  V30 47987 C 4693.4 -1.61011 -0.226755 0
M  V30 47988 O 4694.58 -1.88162 -0.112866 0
M  V30 47989 C 4691.71 -3.38186 0.18649 0
M  V30 47990 C 4690.76 -4.09762 1.18312 0
M  V30 47991 S 4691.59 -4.60923 2.726 0
M  V30 47992 C 4692.75 -5.88576 2.12907 0
M  V30 47993 H 4692.98 -2.43837 1.70091 0
M  V30 47994 H 4690.51 -1.19464 0.978148 0
M  V30 47995 H 4692.47 -4.10189 -0.159692 0
M  V30 47996 H 4691.13 -3.06329 -0.694382 0
M  V30 47997 H 4690.32 -4.99063 0.703738 0
M  V30 47998 H 4689.93 -3.43731 1.47393 0
M  V30 47999 H 4692.22 -6.6086 1.49231 0
M  V30 48000 H 4693.16 -6.4123 3.00382 0
M  V30 48001 H 4693.57 -5.42189 1.57135 0
M  V30 48002 N 4692.97 -0.9527 -1.25544 0
M  V30 48003 C 4694.24 -0.523884 -1.88454 0
M  V30 48004 C 4694.62 0.998806 -1.85976 0
M  V30 48005 O 4693.97 1.86376 -1.32197 0
M  V30 48006 C 4694.18 -1.09832 -3.31267 0
M  V30 48007 C 4695.53 -1.174 -4.08047 0
M  V30 48008 O 4696.55 -1.04973 -3.40381 0
M  V30 48009 O 4695.41 -1.36871 -5.29083 0
M  V30 48010 H 4692.51 -0.172513 -0.808807 0
M  V30 48011 H 4695.05 -1.04601 -1.33629 0
M  V30 48012 H 4693.83 -2.14162 -3.27491 0
M  V30 48013 H 4693.45 -0.559329 -3.93646 0
M  V30 48014 N 4694.45 1.40138 -0.721047 0
M  V30 48015 C 4695.69 2.00389 -0.262393 0
M  V30 48016 C 4696.01 1.57474 1.15009 0
M  V30 48017 O 4695.28 0.816645 1.78067 0
M  V30 48018 H 4693.86 0.741059 -0.0940221 0
M  V30 48019 H 4696.53 1.71395 -0.927896 0
M  V30 48020 H 4695.62 3.10657 -0.29978 0
M  V30 48021 N 4695.92 0.467632 1.50502 0
M  V30 48022 C 4697.15 -0.0886215 2.07211 0
M  V30 48023 C 4697.57 -1.33053 1.32961 0
M  V30 48024 O 4696.93 -1.77353 0.376259 0
M  V30 48025 C 4696.98 -0.359076 3.58808 0
M  V30 48026 O 4696.08 -1.4402 3.86435 0
M  V30 48027 H 4695.42 0.0114583 0.663901 0
M  V30 48028 H 4697.95 0.657681 1.93741 0
M  V30 48029 H 4697.96 -0.6006 4.03555 0
M  V30 48030 H 4696.64 0.548456 4.12268 0
M  V30 48031 H 4695.22 -1.18626 3.53528 0
M  V30 48032 N 4697.4 -1.56324 0.200105 0
M  V30 48033 C 4698.63 -2.0255 -0.445899 0
M  V30 48034 C 4699.05 -1.07927 -1.54056 0
M  V30 48035 O 4698.41 -0.0636412 -1.81188 0
M  V30 48036 C 4698.46 -3.47179 -0.974639 0
M  V30 48037 O 4697.56 -3.55678 -2.08726 0
M  V30 48038 H 4696.9 -0.655866 -0.103615 0
M  V30 48039 H 4699.43 -2.022 0.312452 0
M  V30 48040 H 4699.44 -3.87071 -1.28996 0
M  V30 48041 H 4698.12 -4.15539 -0.173324 0
M  V30 48042 H 4696.69 -3.27663 -1.7802 0
M  V30 48043 N 4698.88 0.0734624 -1.57429 0
M  V30 48044 C 4700.3 0.42821 -1.53748 0
M  V30 48045 C 4700.5 1.79269 -0.920043 0
M  V30 48046 O 4699.55 2.47049 -0.521832 0
M  V30 48047 C 4700.86 0.370809 -2.98405 0
M  V30 48048 C 4702.41 0.451116 -3.09732 0
M  V30 48049 C 4702.89 0.423639 -4.56037 0
M  V30 48050 N 4704.38 0.483763 -4.60667 0
M  V30 48051 C 4705.11 0.48469 -5.71348 0
M  V30 48052 N 4704.61 0.440532 -6.91398 0
M  V30 48053 N 4706.4 0.531122 -5.59585 0
M  V30 48054 H 4698.55 -0.820017 -1.95932 0
M  V30 48055 H 4700.82 -0.307525 -0.896734 0
M  V30 48056 H 4700.52 -0.565078 -3.47131 0
M  V30 48057 H 4700.4 1.18164 -3.58214 0
M  V30 48058 H 4702.78 1.37743 -2.60981 0
M  V30 48059 H 4702.86 -0.388256 -2.52836 0
M  V30 48060 H 4702.51 -0.498815 -5.05445 0
M  V30 48061 H 4702.44 1.28052 -5.10794 0
M  V30 48062 H 4704.93 0.522207 -3.74275 0
M  V30 48063 H 4705.24 0.445119 -7.71517 0
M  V30 48064 H 4703.59 0.407246 -6.93806 0
M  V30 48065 H 4706.78 0.563301 -4.64698 0
M  V30 48066 H 4706.95 0.528376 -6.45842 0
M  V30 48067 N 4700.36 1.53782 0.344812 0
M  V30 48068 C 4701.58 1.75215 1.10971 0
M  V30 48069 C 4702.01 0.489424 1.81621 0
M  V30 48070 O 4701.37 -0.557865 1.72504 0
M  V30 48071 C 4701.41 2.93154 2.09983 0
M  V30 48072 O 4700.52 2.63214 3.17478 0
M  V30 48073 H 4699.86 0.581253 0.321 0
M  V30 48074 H 4702.39 2.00739 0.395591 0
M  V30 48075 H 4702.4 3.19907 2.53226 0
M  V30 48076 H 4701.07 3.84737 1.57956 0
M  V30 48077 H 4699.65 2.47345 2.7906 0
M  V30 48078 N 4701.84 -0.605756 1.45494 0
M  V30 48079 C 4703.08 -1.36673 1.49827 0
M  V30 48080 C 4703.42 -1.93693 0.140243 0
M  V30 48081 O 4702.69 -1.75161 -0.845519 0
M  V30 48082 C 4702.97 -2.51328 2.57888 0
M  V30 48083 C 4702.83 -1.99493 4.03141 0
M  V30 48084 C 4704.15 -3.53454 2.62218 0
M  V30 48085 H 4701.26 -0.495598 0.545483 0
M  V30 48086 H 4703.91 -0.68267 1.77312 0
M  V30 48087 H 4702.06 -3.09683 2.34582 0
M  V30 48088 H 4703.73 -1.45774 4.37662 0
M  V30 48089 H 4701.97 -1.30481 4.13711 0
M  V30 48090 H 4702.64 -2.82153 4.74441 0
M  V30 48091 H 4705.12 -3.04943 2.83105 0
M  V30 48092 H 4703.99 -4.31166 3.39687 0
M  V30 48093 H 4704.26 -4.09191 1.67377 0
M  V30 48094 N 4703.31 -1.32814 -0.848417 0
M  V30 48095 C 4704.56 -1.23081 -1.59794 0
M  V30 48096 C 4704.88 0.204351 -1.9453 0
M  V30 48097 O 4706.08 0.423607 -2.68175 0
M  V30 48098 C 4704.54 -2.15604 -2.88172 0
M  V30 48099 C 4704.15 -3.64237 -2.60836 0
M  V30 48100 C 4705.89 -2.14722 -3.6619 0
M  V30 48101 C 4703.8 -4.48703 -3.85253 0
M  V30 48102 H 4702.73 -0.457112 -0.599637 0
M  V30 48103 H 4705.38 -1.57816 -0.936286 0
M  V30 48104 H 4703.76 -1.73791 -3.55827 0
M  V30 48105 H 4704.93 -4.14431 -2.01453 0
M  V30 48106 H 4703.25 -3.67313 -1.96138 0
M  V30 48107 H 4705.85 -2.75062 -4.58525 0
M  V30 48108 H 4706.19 -1.1398 -4.00393 0
M  V30 48109 H 4706.72 -2.54848 -3.05446 0
M  V30 48110 H 4703.46 -5.50283 -3.56187 0
M  V30 48111 H 4702.98 -4.03256 -4.4401 0
M  V30 48112 H 4704.66 -4.62022 -4.52929 0
M  V30 48113 N 4704.79 1.06547 -1.16127 0
M  V30 48114 C 4706.04 1.79564 -0.942584 0
M  V30 48115 C 4706.37 1.86871 0.528481 0
M  V30 48116 O 4705.65 1.35843 1.39201 0
M  V30 48117 C 4705.93 3.2419 -1.56758 0
M  V30 48118 C 4705.78 3.24978 -3.10981 0
M  V30 48119 C 4707.1 4.21674 -1.26013 0
M  V30 48120 H 4704.22 0.651871 -0.343851 0
M  V30 48121 H 4706.86 1.24625 -1.43417 0
M  V30 48122 H 4705.01 3.71103 -1.14955 0
M  V30 48123 H 4706.68 2.86246 -3.61747 0
M  V30 48124 H 4704.93 2.63704 -3.44445 0
M  V30 48125 H 4705.6 4.26993 -3.4983 0
M  V30 48126 H 4708.07 3.8319 -1.62187 0
M  V30 48127 H 4706.95 5.2114 -1.72349 0
M  V30 48128 H 4707.21 4.41739 -0.178522 0
M  V30 48129 N 4706.27 0.959345 1.25037 0
M  V30 48130 C 4707.55 0.533871 1.88173 0
M  V30 48131 C 4707.93 -0.988929 1.86503 0
M  V30 48132 O 4707.28 -1.85673 1.33184 0
M  V30 48133 C 4707.49 1.11587 3.3068 0
M  V30 48134 C 4708.83 1.19562 4.07419 0
M  V30 48135 O 4709.86 1.06777 3.39819 0
M  V30 48136 O 4708.72 1.39675 5.2835 0
M  V30 48137 H 4705.81 0.1768 0.80788 0
M  V30 48138 H 4708.36 1.05308 1.33073 0
M  V30 48139 H 4707.13 2.15895 3.26351 0
M  V30 48140 H 4706.75 0.580198 3.93344 0
M  V30 48141 N 4707.75 -1.39754 0.728469 0
M  V30 48142 C 4708.98 -2.04947 0.283601 0
M  V30 48143 C 4709.39 -1.54912 -1.07924 0
M  V30 48144 O 4708.75 -0.711194 -1.68072 0
M  V30 48145 C 4708.8 -3.60497 0.269084 0
M  V30 48146 O 4708.52 -4.08689 1.57813 0
M  V30 48147 C 4710.02 -4.42881 -0.192756 0
M  V30 48148 H 4707.24 -0.659239 0.125079 0
M  V30 48149 H 4709.79 -1.78923 0.990288 0
M  V30 48150 H 4707.94 -3.85445 -0.388666 0
M  V30 48151 H 4708.35 -5.02972 1.48727 0
M  V30 48152 H 4709.83 -5.51791 -0.151758 0
M  V30 48153 H 4710.31 -4.21422 -1.23693 0
M  V30 48154 H 4710.91 -4.23068 0.435187 0
M  V30 48155 N 4709.23 -0.475607 -1.50252 0
M  V30 48156 C 4710.17 0.316213 -2.28624 0
M  V30 48157 C 4711.14 0.98318 -1.33876 0
M  V30 48158 O 4712.33 0.994748 -1.62817 0
M  V30 48159 C 4709.47 1.38964 -3.15885 0
M  V30 48160 C 4708.58 0.736996 -4.25667 0
M  V30 48161 C 4707.72 1.7887 -5.00179 0
M  V30 48162 C 4706.76 1.11655 -6.0183 0
M  V30 48163 N 4705.89 2.1113 -6.69603 0
M  V30 48164 H 4710.73 -0.358401 -2.95837 0
M  V30 48165 H 4708.27 -0.188592 -1.45886 0
M  V30 48166 H 4710.23 2.0237 -3.64832 0
M  V30 48167 H 4708.86 2.03335 -2.50708 0
M  V30 48168 H 4707.91 -0.00974023 -3.80399 0
M  V30 48169 H 4709.22 0.206641 -4.98372 0
M  V30 48170 H 4708.38 2.49845 -5.52867 0
M  V30 48171 H 4707.11 2.35287 -4.2719 0
M  V30 48172 H 4706.12 0.39244 -5.48398 0
M  V30 48173 H 4707.34 0.559213 -6.76794 0
M  V30 48174 H 4705.29 2.66556 -5.99403 0
M  V30 48175 H 4705.21 1.63092 -7.38198 0
M  V30 48176 H 4706.48 2.81472 -7.26907 0
M  V30 48177 N 4710.7 1.56216 -0.208392 0
M  V30 48178 C 4711.95 1.97125 0.427135 0
M  V30 48179 C 4712.27 1.09864 1.61831 0
M  V30 48180 O 4713.47 1.40614 2.3225 0
M  V30 48181 C 4711.93 3.50636 0.811318 0
M  V30 48182 C 4711.54 4.46581 -0.356307 0
M  V30 48183 C 4713.28 4.00287 1.41318 0
M  V30 48184 C 4711.19 5.91379 0.0495773 0
M  V30 48185 H 4710.12 0.736092 0.163355 0
M  V30 48186 H 4712.77 1.80989 -0.30252 0
M  V30 48187 H 4711.15 3.62325 1.59802 0
M  V30 48188 H 4712.32 4.46632 -1.13386 0
M  V30 48189 H 4710.64 4.07198 -0.870539 0
M  V30 48190 H 4713.24 5.05956 1.72954 0
M  V30 48191 H 4713.58 3.45368 2.32437 0
M  V30 48192 H 4714.11 3.91767 0.690186 0
M  V30 48193 H 4710.85 6.50253 -0.827758 0
M  V30 48194 H 4710.37 5.94552 0.791717 0
M  V30 48195 H 4712.05 6.45211 0.480815 0
M  V30 48196 N 4712.18 -0.0651125 1.57465 0
M  V30 48197 C 4713.41 -0.775741 1.91807 0
M  V30 48198 C 4713.83 -1.70779 0.804976 0
M  V30 48199 O 4713.18 -1.81154 -0.221248 0
M  V30 48200 C 4713.23 -1.56369 3.25931 0
M  V30 48201 O 4712.95 -0.669096 4.3296 0
M  V30 48202 C 4714.46 -2.37472 3.74329 0
M  V30 48203 H 4711.68 -0.220177 0.633848 0
M  V30 48204 H 4714.22 -0.0333869 2.04473 0
M  V30 48205 H 4712.37 -2.25826 3.14772 0
M  V30 48206 H 4712.79 -1.21783 5.10166 0
M  V30 48207 H 4714.26 -2.88206 4.70788 0
M  V30 48208 H 4714.74 -3.17296 3.03677 0
M  V30 48209 H 4715.35 -1.73159 3.88453 0
M  V30 48210 N 4713.66 -1.53962 -0.336652 0
M  V30 48211 C 4714.91 -1.72733 -1.074 0
M  V30 48212 C 4715.26 -0.48816 -1.86104 0
M  V30 48213 O 4714.55 0.519314 -1.84428 0
M  V30 48214 C 4714.75 -2.935 -2.03942 0
M  V30 48215 C 4714.58 -4.29043 -1.34729 0
M  V30 48216 C 4713.35 -4.9342 -1.08925 0
M  V30 48217 C 4715.55 -5.08504 -0.769936 0
M  V30 48218 N 4713.53 -6.12822 -0.363649 0
M  V30 48219 C 4714.9 -6.19752 -0.175254 0
M  V30 48220 C 4716.95 -4.93352 -0.67146 0
M  V30 48221 C 4715.66 -7.17502 0.508333 0
M  V30 48222 C 4717.68 -5.914 -0.00159969 0
M  V30 48223 C 4717.04 -7.01991 0.582082 0
M  V30 48224 H 4713.14 -0.68504 -0.377153 0
M  V30 48225 H 4715.73 -1.91404 -0.356748 0
M  V30 48226 H 4713.9 -2.76318 -2.72952 0
M  V30 48227 H 4715.63 -3.00959 -2.70566 0
M  V30 48228 H 4712.39 -4.53104 -1.37817 0
M  V30 48229 H 4712.81 -6.76998 -0.0153712 0
M  V30 48230 H 4717.45 -4.08011 -1.10846 0
M  V30 48231 H 4715.17 -8.02411 0.957201 0
M  V30 48232 H 4718.76 -5.81753 0.0740583 0
M  V30 48233 H 4717.64 -7.76557 1.0922 0
M  V30 48234 N 4715.14 0.598031 -1.45813 0
M  V30 48235 C 4716.55 1.18006 -1.44677 0
M  V30 48236 C 4716.9 1.95378 -0.179433 0
M  V30 48237 O 4716.03 2.04126 0.718437 0
M  V30 48238 C 4716.62 2.14668 -2.62113 0
M  V30 48239 C 4715.18 2.68227 -2.64067 0
M  V30 48240 C 4714.33 1.43808 -2.37096 0
M  V30 48241 H 4717.28 0.386806 -1.53914 0
M  V30 48242 H 4717.3 2.9787 -2.36757 0
M  V30 48243 H 4716.81 1.58328 -3.54336 0
M  V30 48244 H 4714.91 3.28479 -1.75875 0
M  V30 48245 H 4715.02 3.12008 -3.63576 0
M  V30 48246 H 4713.39 1.73094 -1.86844 0
M  V30 48247 H 4714.17 0.893216 -3.31476 0
M  V30 48248 N 4716.62 1.33262 0.841362 0
M  V30 48249 C 4717.57 1.23285 1.9724 0
M  V30 48250 C 4718.56 0.134765 1.68863 0
M  V30 48251 O 4719.77 0.298563 1.77507 0
M  V30 48252 H 4716.14 0.382519 0.647443 0
M  V30 48253 H 4718.11 2.18913 2.0278 0
M  V30 48254 C 4716.86 0.986385 3.33415 0
M  V30 48255 H 4716.18 1.8236 3.55788 0
M  V30 48256 H 4717.62 0.956873 4.13062 0
M  V30 48257 C 4716.08 -0.310724 3.35464 0
M  V30 48258 O 4716.61 -1.31824 3.79454 0
M  V30 48259 N 4714.82 -0.337384 2.88635 0
M  V30 48260 H 4714.37 0.483056 2.5303 0
M  V30 48261 H 4714.32 -1.20508 2.90388 0
M  V30 48262 N 4718.1 -1.0593 1.1669 0
M  V30 48263 C 4719.34 -1.78443 0.948807 0
M  V30 48264 C 4719.66 -1.87815 -0.524457 0
M  V30 48265 O 4718.93 -1.3895 -1.38093 0
M  V30 48266 H 4717.51 -0.660958 0.348056 0
M  V30 48267 H 4720.18 -1.27942 1.47027 0
M  V30 48268 H 4719.27 -2.80389 1.37071 0
M  V30 48269 N 4719.57 -0.965962 -1.24527 0
M  V30 48270 C 4720.5 -0.513556 -2.27782 0
M  V30 48271 C 4721.48 0.445916 -1.64151 0
M  V30 48272 O 4722.67 0.342418 -1.91157 0
M  V30 48273 C 4719.8 0.198717 -3.46731 0
M  V30 48274 C 4718.75 -0.676605 -4.22618 0
M  V30 48275 C 4718.08 0.16706 -5.34439 0
M  V30 48276 C 4719.38 -1.96034 -4.84116 0
M  V30 48277 H 4721.07 -1.37659 -2.65877 0
M  V30 48278 H 4718.62 -0.663366 -1.2781 0
M  V30 48279 H 4720.57 0.52642 -4.18099 0
M  V30 48280 H 4719.3 1.09609 -3.07658 0
M  V30 48281 H 4717.96 -0.987554 -3.53048 0
M  V30 48282 H 4717.6 1.06453 -4.91606 0
M  V30 48283 H 4717.3 -0.415387 -5.8613 0
M  V30 48284 H 4718.83 0.489474 -6.08635 0
M  V30 48285 H 4720.24 -1.69833 -5.47567 0
M  V30 48286 H 4718.64 -2.48937 -5.46032 0
M  V30 48287 H 4719.71 -2.65636 -4.05667 0
M  V30 48288 N 4721.05 1.39365 -0.73587 0
M  V30 48289 C 4722.28 2.04794 -0.294465 0
M  V30 48290 C 4722.69 1.55482 1.07101 0
M  V30 48291 O 4722.05 0.720097 1.67693 0
M  V30 48292 C 4722.1 3.60349 -0.288198 0
M  V30 48293 O 4721.82 4.07846 -1.59978 0
M  V30 48294 C 4723.32 4.42977 0.169266 0
M  V30 48295 H 4720.54 0.658566 -0.128574 0
M  V30 48296 H 4723.09 1.78396 -0.999763 0
M  V30 48297 H 4721.24 3.85646 0.368219 0
M  V30 48298 H 4721.66 5.02176 -1.51392 0
M  V30 48299 H 4723.13 5.51864 0.122493 0
M  V30 48300 H 4723.61 4.22072 1.21457 0
M  V30 48301 H 4724.21 4.22831 -0.457618 0
M  V30 48302 N 4722.53 0.483569 1.49998 0
M  V30 48303 C 4723.46 -0.293748 2.31645 0
M  V30 48304 C 4724.44 -0.978815 1.39116 0
M  V30 48305 O 4725.63 -0.973585 1.68033 0
M  V30 48306 C 4722.76 -1.36886 3.19186 0
M  V30 48307 C 4721.71 -0.804685 4.20367 0
M  V30 48308 C 4721.04 -1.97902 4.96728 0
M  V30 48309 C 4722.34 0.192496 5.21945 0
M  V30 48310 H 4724.03 0.38772 2.96879 0
M  V30 48311 H 4721.58 0.187906 1.42769 0
M  V30 48312 H 4723.53 -1.92024 3.75106 0
M  V30 48313 H 4722.25 -2.07927 2.51861 0
M  V30 48314 H 4720.91 -0.27519 3.65566 0
M  V30 48315 H 4720.56 -2.67671 4.25865 0
M  V30 48316 H 4720.26 -1.60769 5.65179 0
M  V30 48317 H 4721.78 -2.53506 5.55488 0
M  V30 48318 H 4723.2 -0.270132 5.72663 0
M  V30 48319 H 4721.59 0.478753 5.98187 0
M  V30 48320 H 4722.66 1.11426 4.71924 0
M  V30 48321 N 4724.01 -1.56103 0.216674 0
M  V30 48322 C 4725.28 -1.8999 -0.465098 0
M  V30 48323 C 4725.66 -1.13332 -1.78098 0
M  V30 48324 O 4725.01 -0.241112 -2.27224 0
M  V30 48325 C 4725.22 -3.42648 -0.662818 0
M  V30 48326 C 4726.57 -4.13314 -0.972456 0
M  V30 48327 O 4727.59 -3.48219 -0.749778 0
M  V30 48328 O 4726.45 -5.28401 -1.3948 0
M  V30 48329 H 4723.55 -0.789799 -0.245248 0
M  V30 48330 H 4726.09 -1.6772 0.258495 0
M  V30 48331 H 4724.87 -3.90398 0.265567 0
M  V30 48332 H 4724.49 -3.70682 -1.43808 0
M  V30 48333 N 4725.49 0.0567608 -1.57498 0
M  V30 48334 C 4726.72 0.764448 -1.91937 0
M  V30 48335 C 4727.12 1.70874 -0.81233 0
M  V30 48336 O 4726.47 1.82352 0.222149 0
M  V30 48337 C 4726.53 1.59929 -3.21967 0
M  V30 48338 C 4726.19 0.822767 -4.49533 0
M  V30 48339 C 4727.19 0.135281 -5.19724 0
M  V30 48340 C 4724.87 0.785492 -4.9612 0
M  V30 48341 C 4726.87 -0.579084 -6.34764 0
M  V30 48342 C 4724.56 0.0673636 -6.11063 0
M  V30 48343 C 4725.55 -0.61371 -6.80237 0
M  V30 48344 O 4725.24 -1.32024 -7.92985 0
M  V30 48345 H 4724.97 0.221624 -0.638638 0
M  V30 48346 H 4727.53 0.0267496 -2.05383 0
M  V30 48347 H 4725.76 2.38015 -3.04772 0
M  V30 48348 H 4727.45 2.18703 -3.41941 0
M  V30 48349 H 4728.21 0.155288 -4.84751 0
M  V30 48350 H 4724.09 1.30509 -4.42141 0
M  V30 48351 H 4727.64 -1.11124 -6.88692 0
M  V30 48352 H 4723.53 0.0453367 -6.45484 0
M  V30 48353 H 4724.3 -1.23105 -8.09189 0
M  V30 48354 N 4726.96 1.54139 0.328482 0
M  V30 48355 C 4728.21 1.72363 1.06858 0
M  V30 48356 C 4728.54 0.493297 1.8783 0
M  V30 48357 O 4727.82 -0.509734 1.87702 0
M  V30 48358 C 4728.1 2.99628 1.99737 0
M  V30 48359 C 4727.95 4.32903 1.22128 0
M  V30 48360 C 4729.27 3.22625 2.99334 0
M  V30 48361 H 4726.39 0.627165 0.387083 0
M  V30 48362 H 4729.03 1.86829 0.345701 0
M  V30 48363 H 4727.18 2.87427 2.61377 0
M  V30 48364 H 4728.86 4.5698 0.629856 0
M  V30 48365 H 4727.1 4.3063 0.523477 0
M  V30 48366 H 4727.77 5.1816 1.90299 0
M  V30 48367 H 4730.25 3.34256 2.47814 0
M  V30 48368 H 4729.12 4.1304 3.6151 0
M  V30 48369 H 4729.38 2.39623 3.71528 0
M  V30 48370 N 4728.44 -0.59029 1.46128 0
M  V30 48371 C 4729.67 -1.37498 1.54602 0
M  V30 48372 C 4730.08 -1.87896 0.184513 0
M  V30 48373 O 4729.44 -1.63195 -0.816927 0
M  V30 48374 C 4729.49 -2.5677 2.54463 0
M  V30 48375 O 4729.21 -2.08462 3.85325 0
M  V30 48376 C 4730.71 -3.49418 2.72804 0
M  V30 48377 H 4727.93 -0.420306 0.523052 0
M  V30 48378 H 4730.48 -0.718316 1.91469 0
M  V30 48379 H 4728.63 -3.18442 2.2062 0
M  V30 48380 H 4729.05 -2.86082 4.3961 0
M  V30 48381 H 4730.52 -4.29607 3.46615 0
M  V30 48382 H 4731 -4.0087 1.79443 0
M  V30 48383 H 4731.6 -2.93587 3.07712 0
M  V30 48384 N 4729.92 -1.33707 -0.834283 0
M  V30 48385 C 4730.83 -1.26389 -1.97644 0
M  V30 48386 C 4731.85 -0.173609 -1.73132 0
M  V30 48387 O 4733.02 -0.398031 -1.97428 0
M  V30 48388 C 4730.09 -1.0078 -3.31729 0
M  V30 48389 C 4729.15 -2.18853 -3.69326 0
M  V30 48390 C 4728.38 -1.94457 -4.97013 0
M  V30 48391 O 4728.6 -0.897159 -5.633 0
M  V30 48392 O 4727.54 -2.81112 -5.32221 0
M  V30 48393 H 4731.36 -2.22451 -2.06759 0
M  V30 48394 H 4728.95 -1.13799 -0.967997 0
M  V30 48395 H 4730.83 -0.882331 -4.12059 0
M  V30 48396 H 4729.51 -0.0774921 -3.23607 0
M  V30 48397 H 4728.41 -2.36956 -2.89487 0
M  V30 48398 H 4729.75 -3.10234 -3.8212 0
M  V30 48399 N 4731.4 1.0531 -1.1725 0
M  V30 48400 C 4732.81 1.30449 -0.919519 0
M  V30 48401 C 4733.01 1.97031 0.422021 0
M  V30 48402 O 4732.07 2.24315 1.15927 0
M  V30 48403 C 4733.38 2.17544 -2.07594 0
M  V30 48404 C 4734.93 2.3093 -2.11283 0
M  V30 48405 C 4735.41 3.21384 -3.26307 0
M  V30 48406 N 4736.9 3.2897 -3.26088 0
M  V30 48407 C 4737.63 3.99081 -4.11731 0
M  V30 48408 N 4737.13 4.7163 -5.07481 0
M  V30 48409 N 4738.92 3.95233 -3.99684 0
M  V30 48410 H 4731.07 0.604916 -2.03604 0
M  V30 48411 H 4733.34 0.329336 -0.888955 0
M  V30 48412 H 4733.04 1.75911 -3.04546 0
M  V30 48413 H 4732.92 3.18175 -2.02595 0
M  V30 48414 H 4735.3 2.71805 -1.14917 0
M  V30 48415 H 4735.38 1.29933 -2.20343 0
M  V30 48416 H 4735.03 2.81223 -4.22937 0
M  V30 48417 H 4734.96 4.22384 -3.14482 0
M  V30 48418 H 4737.45 2.77277 -2.5676 0
M  V30 48419 H 4737.76 5.22685 -5.69228 0
M  V30 48420 H 4736.11 4.70576 -5.11452 0
M  V30 48421 H 4739.3 3.3768 -3.24176 0
M  V30 48422 H 4739.47 4.49604 -4.66648 0
M  V30 48423 N 4732.88 0.972553 1.24013 0
M  V30 48424 C 4734.13 0.63267 1.91521 0
M  V30 48425 C 4734.44 -0.836579 1.76807 0
M  V30 48426 O 4735.64 -1.28719 2.39047 0
M  V30 48427 C 4734.1 1.08094 3.43284 0
M  V30 48428 C 4733.71 2.57398 3.66674 0
M  V30 48429 C 4735.45 0.814435 4.16614 0
M  V30 48430 C 4733.36 2.95933 5.12033 0
M  V30 48431 H 4732.29 0.232924 0.717121 0
M  V30 48432 H 4734.94 1.17941 1.40578 0
M  V30 48433 H 4733.32 0.462478 3.9329 0
M  V30 48434 H 4734.5 3.24416 3.27247 0
M  V30 48435 H 4732.81 2.81711 3.06639 0
M  V30 48436 H 4735.41 1.07829 5.23715 0
M  V30 48437 H 4735.75 -0.249404 4.15552 0
M  V30 48438 H 4736.28 1.3941 3.72572 0
M  V30 48439 H 4733.02 4.01408 5.1822 0
M  V30 48440 H 4732.54 2.33603 5.5244 0
M  V30 48441 H 4734.22 2.86106 5.80304 0
M  V30 48442 N 4734.35 -1.38973 0.74325 0
M  V30 48443 C 4735.58 -2.04338 0.304879 0
M  V30 48444 C 4735.99 -1.56165 -1.06813 0
M  V30 48445 O 4735.34 -0.725344 -1.68773 0
M  V30 48446 C 4735.4 -3.58715 0.237495 0
M  V30 48447 C 4735.06 -4.299 1.55033 0
M  V30 48448 C 4736.06 -4.55978 2.4976 0
M  V30 48449 C 4733.74 -4.68288 1.81691 0
M  V30 48450 C 4735.74 -5.19465 3.69371 0
M  V30 48451 C 4733.42 -5.31501 3.01579 0
M  V30 48452 C 4734.42 -5.57023 3.95239 0
M  V30 48453 O 4734.11 -6.18923 5.1302 0
M  V30 48454 H 4733.84 -0.663435 0.129733 0
M  V30 48455 H 4736.4 -1.78848 1.01008 0
M  V30 48456 H 4734.63 -3.83135 -0.523868 0
M  V30 48457 H 4736.32 -4.05544 -0.169979 0
M  V30 48458 H 4737.08 -4.26759 2.30438 0
M  V30 48459 H 4732.96 -4.47775 1.0963 0
M  V30 48460 H 4736.5 -5.39302 4.42492 0
M  V30 48461 H 4732.4 -5.60142 3.20798 0
M  V30 48462 H 4733.17 -6.37414 5.13464 0
M  V30 48463 N 4735.83 -0.491517 -1.49739 0
M  V30 48464 C 4737.08 0.0484716 -2.03342 0
M  V30 48465 C 4737.43 1.35561 -1.36532 0
M  V30 48466 O 4736.73 1.8526 -0.488794 0
M  V30 48467 C 4736.92 0.267203 -3.564 0
M  V30 48468 C 4736.75 -1.01719 -4.38045 0
M  V30 48469 C 4735.52 -1.56631 -4.80411 0
M  V30 48470 C 4737.72 -1.91799 -4.77198 0
M  V30 48471 N 4735.7 -2.79759 -5.46451 0
M  V30 48472 C 4737.07 -2.99509 -5.42858 0
M  V30 48473 C 4739.13 -1.92591 -4.59144 0
M  V30 48474 C 4737.83 -4.08025 -5.92375 0
M  V30 48475 C 4739.85 -3.00077 -5.09615 0
M  V30 48476 C 4739.22 -4.06506 -5.75267 0
M  V30 48477 H 4735.32 -0.0228054 -0.781667 0
M  V30 48478 H 4737.9 -0.664269 -1.83018 0
M  V30 48479 H 4736.07 0.948994 -3.76628 0
M  V30 48480 H 4737.8 0.803352 -3.96646 0
M  V30 48481 H 4734.56 -1.11272 -4.60343 0
M  V30 48482 H 4734.98 -3.42344 -5.84063 0
M  V30 48483 H 4739.62 -1.11619 -4.078 0
M  V30 48484 H 4737.34 -4.89802 -6.42744 0
M  V30 48485 H 4740.93 -3.01699 -4.97463 0
M  V30 48486 H 4739.81 -4.88308 -6.13616 0
M  V30 48487 N 4737.31 1.55986 -0.224949 0
M  V30 48488 C 4738.27 2.1918 0.670271 0
M  V30 48489 C 4739.27 1.15465 1.11913 0
M  V30 48490 O 4740.46 1.40679 1.02738 0
M  V30 48491 C 4737.6 2.81784 1.91861 0
M  V30 48492 H 4738.79 2.99663 0.119259 0
M  V30 48493 H 4736.34 1.56281 0.0246578 0
M  V30 48494 H 4737.08 2.05181 2.5114 0
M  V30 48495 H 4736.86 3.57738 1.60519 0
M  V30 48496 H 4738.35 3.30214 2.55634 0
M  V30 48497 N 4738.79 -0.0484076 1.57526 0
M  V30 48498 C 4740.07 -0.777384 1.79488 0
M  V30 48499 C 4740.45 -1.94594 0.81832 0
M  V30 48500 O 4739.79 -2.28048 -0.143686 0
M  V30 48501 C 4740 -1.22852 3.26662 0
M  V30 48502 C 4741.35 -1.65238 3.91129 0
M  V30 48503 O 4742.38 -1.3236 3.30695 0
M  V30 48504 O 4741.23 -2.26189 4.97494 0
M  V30 48505 H 4738.33 -0.374331 0.737432 0
M  V30 48506 H 4740.87 -0.0266762 1.69679 0
M  V30 48507 H 4739.65 -0.393452 3.89317 0
M  V30 48508 H 4739.27 -2.03984 3.41286 0
M  V30 48509 N 4740.27 -1.54311 -0.320303 0
M  V30 48510 C 4741.23 -1.832 -1.37733 0
M  V30 48511 C 4742.23 -0.703957 -1.44572 0
M  V30 48512 O 4743.42 -0.972265 -1.44543 0
M  V30 48513 C 4740.55 -1.99496 -2.76431 0
M  V30 48514 H 4741.74 -2.77646 -1.1337 0
M  V30 48515 H 4739.3 -1.46078 -0.555961 0
M  V30 48516 H 4740.03 -1.07273 -3.06044 0
M  V30 48517 H 4739.82 -2.81584 -2.7286 0
M  V30 48518 H 4741.31 -2.23284 -3.52894 0
M  V30 48519 N 4741.74 0.582532 -1.46439 0
M  V30 48520 C 4743.16 0.905916 -1.31398 0
M  V30 48521 C 4743.36 1.99467 -0.285546 0
M  V30 48522 O 4742.42 2.50567 0.311825 0
M  V30 48523 C 4743.73 1.3231 -2.70027 0
M  V30 48524 C 4745.28 1.43594 -2.78118 0
M  V30 48525 C 4745.75 1.88679 -4.1733 0
M  V30 48526 N 4747.24 1.95872 -4.19748 0
M  V30 48527 C 4747.98 2.32032 -5.24355 0
M  V30 48528 N 4747.47 2.66984 -6.3929 0
M  V30 48529 N 4749.27 2.32588 -5.11722 0
M  V30 48530 H 4741.42 -0.136675 -2.1196 0
M  V30 48531 H 4743.68 0.00152403 -0.947999 0
M  V30 48532 H 4743.39 0.59712 -3.46594 0
M  V30 48533 H 4743.26 2.28459 -3.00144 0
M  V30 48534 H 4745.65 2.15279 -2.01839 0
M  V30 48535 H 4745.73 0.45697 -2.51685 0
M  V30 48536 H 4745.37 1.17573 -4.94104 0
M  V30 48537 H 4745.3 2.87535 -4.4117 0
M  V30 48538 H 4747.79 1.7135 -3.3682 0
M  V30 48539 H 4748.11 2.93529 -7.14885 0
M  V30 48540 H 4746.45 2.64621 -6.42651 0
M  V30 48541 H 4749.64 2.04706 -4.20967 0
M  V30 48542 H 4749.82 2.60441 -5.93359 0
M  V30 48543 N 4743.22 1.34147 0.82718 0
M  V30 48544 C 4744.13 1.27435 1.96971 0
M  V30 48545 C 4745.15 0.182788 1.73037 0
M  V30 48546 O 4746.32 0.408495 1.97214 0
M  V30 48547 C 4743.39 1.02538 3.3119 0
M  V30 48548 C 4742.45 2.20809 3.6816 0
M  V30 48549 C 4741.68 1.9709 4.95975 0
M  V30 48550 O 4741.91 0.927019 5.62817 0
M  V30 48551 O 4740.84 2.83931 5.30723 0
M  V30 48552 H 4744.67 2.23544 2.05576 0
M  V30 48553 H 4742.25 1.14311 0.961948 0
M  V30 48554 H 4744.13 0.904171 4.11586 0
M  V30 48555 H 4742.81 0.0946526 3.23562 0
M  V30 48556 H 4741.72 2.38488 2.88226 0
M  V30 48557 H 4743.05 3.12257 3.80469 0
M  V30 48558 N 4744.7 -1.04686 1.17807 0
M  V30 48559 C 4745.98 -1.74717 0.879389 0
M  V30 48560 C 4746.36 -2.01815 -0.6192 0
M  V30 48561 O 4745.71 -1.6583 -1.57203 0
M  V30 48562 C 4745.92 -3.0368 1.71986 0
M  V30 48563 C 4747.26 -3.77535 1.943 0
M  V30 48564 O 4748.29 -3.13563 1.68987 0
M  V30 48565 O 4747.15 -4.92497 2.36872 0
M  V30 48566 H 4744.24 -0.759999 0.326083 0
M  V30 48567 H 4746.79 -1.10808 1.28528 0
M  V30 48568 H 4745.56 -2.79744 2.73604 0
M  V30 48569 H 4745.18 -3.75327 1.31207 0
M  V30 48570 N 4746.18 -0.979116 -1.23495 0
M  V30 48571 C 4747.41 -0.664306 -1.95629 0
M  V30 48572 C 4747.82 0.772592 -1.72707 0
M  V30 48573 O 4747.16 1.53137 -1.01463 0
M  V30 48574 C 4747.22 -0.873237 -3.48733 0
M  V30 48575 C 4746.89 -2.29196 -3.95371 0
M  V30 48576 C 4747.88 -3.27054 -4.04143 0
M  V30 48577 C 4745.57 -2.62271 -4.28392 0
M  V30 48578 C 4747.56 -4.56068 -4.45287 0
M  V30 48579 C 4745.25 -3.91507 -4.69218 0
M  V30 48580 C 4746.25 -4.88218 -4.77632 0
M  V30 48581 O 4745.94 -6.15147 -5.17541 0
M  V30 48582 H 4745.67 -0.245937 -0.629675 0
M  V30 48583 H 4748.22 -1.31276 -1.57974 0
M  V30 48584 H 4746.45 -0.167612 -3.86337 0
M  V30 48585 H 4748.14 -0.555783 -4.02077 0
M  V30 48586 H 4748.91 -3.02832 -3.78837 0
M  V30 48587 H 4744.79 -1.87707 -4.21055 0
M  V30 48588 H 4748.33 -5.31554 -4.5177 0
M  V30 48589 H 4744.23 -4.15525 -4.93973 0
M  V30 48590 H 4744.99 -6.18881 -5.35657 0
M  V30 48591 N 4747.66 1.38577 -0.75061 0
M  V30 48592 C 4748.91 1.99423 -0.302242 0
M  V30 48593 C 4749.22 1.60257 1.12147 0
M  V30 48594 O 4750.43 2.14052 1.67015 0
M  V30 48595 C 4748.88 3.56557 -0.489433 0
M  V30 48596 C 4748.49 4.04675 -1.92204 0
M  V30 48597 C 4750.23 4.24373 -0.103627 0
M  V30 48598 C 4748.14 5.54439 -2.05794 0
M  V30 48599 H 4747.07 0.746042 -0.109256 0
M  V30 48600 H 4749.72 1.58379 -0.926726 0
M  V30 48601 H 4748.1 3.95473 0.20419 0
M  V30 48602 H 4749.28 3.77055 -2.64888 0
M  V30 48603 H 4747.59 3.49572 -2.26248 0
M  V30 48604 H 4750.19 5.34383 -0.183975 0
M  V30 48605 H 4750.53 4.05471 0.943338 0
M  V30 48606 H 4751.07 3.90685 -0.748991 0
M  V30 48607 H 4747.8 5.78241 -3.08735 0
M  V30 48608 H 4747.32 5.83811 -1.37567 0
M  V30 48609 H 4749 6.20092 -1.84648 0
M  V30 48610 N 4749.14 0.499451 1.49477 0
M  V30 48611 C 4750.05 -0.284407 2.3287 0
M  V30 48612 C 4751.06 -0.968834 1.44532 0
M  V30 48613 O 4752.24 -0.950558 1.77557 0
M  V30 48614 C 4749.3 -1.33582 3.19932 0
M  V30 48615 C 4748.36 -0.665 4.24118 0
M  V30 48616 C 4747.6 -1.66632 5.0702 0
M  V30 48617 O 4747.82 -2.896 4.91414 0
M  V30 48618 O 4746.75 -1.2225 5.89354 0
M  V30 48619 H 4750.58 0.398126 3.01079 0
M  V30 48620 H 4748.16 0.260809 1.47106 0
M  V30 48621 H 4750.05 -1.94418 3.73871 0
M  V30 48622 H 4748.72 -2.00131 2.54419 0
M  V30 48623 H 4747.63 -0.0169454 3.74096 0
M  V30 48624 H 4748.96 -0.0419825 4.92182 0
M  V30 48625 N 4750.61 -1.55865 0.233218 0
M  V30 48626 C 4751.86 -1.98604 -0.395304 0
M  V30 48627 C 4752.19 -1.12111 -1.58938 0
M  V30 48628 O 4751.44 -0.168724 -1.94971 0
M  V30 48629 C 4751.74 -3.46859 -0.861602 0
M  V30 48630 C 4751.41 -4.50347 0.223224 0
M  V30 48631 C 4750.07 -4.78369 0.521206 0
M  V30 48632 C 4752.42 -5.12352 0.956304 0
M  V30 48633 C 4749.75 -5.65674 1.55658 0
M  V30 48634 C 4752.1 -6.00779 1.9811 0
M  V30 48635 C 4750.77 -6.2714 2.28587 0
M  V30 48636 H 4750.04 -0.726744 -0.144652 0
M  V30 48637 H 4752.68 -1.8849 0.338181 0
M  V30 48638 H 4750.99 -3.54235 -1.67405 0
M  V30 48639 H 4752.69 -3.77307 -1.35795 0
M  V30 48640 H 4749.28 -4.28596 -0.0191727 0
M  V30 48641 H 4753.46 -4.90762 0.739339 0
M  V30 48642 H 4748.72 -5.84358 1.7982 0
M  V30 48643 H 4752.89 -6.47871 2.55413 0
M  V30 48644 H 4750.52 -6.94586 3.08956 0
M  V30 48645 N 4752.09 0.0400529 -1.57549 0
M  V30 48646 C 4753.05 1.02864 -2.04821 0
M  V30 48647 C 4754.05 1.29705 -0.950434 0
M  V30 48648 O 4755.24 1.24893 -1.21439 0
M  V30 48649 C 4752.38 2.36434 -2.45584 0
M  V30 48650 H 4753.57 0.620527 -2.9341 0
M  V30 48651 H 4751.12 0.286613 -1.5365 0
M  V30 48652 H 4751.86 2.82015 -1.60118 0
M  V30 48653 H 4751.64 2.18285 -3.25721 0
M  V30 48654 H 4753.13 3.07431 -2.82623 0
M  V30 48655 N 4753.57 1.54478 0.312115 0
M  V30 48656 C 4754.79 1.77529 1.07229 0
M  V30 48657 C 4755.22 0.527838 1.80542 0
M  V30 48658 O 4754.58 -0.521149 1.73648 0
M  V30 48659 C 4754.63 2.97543 2.03717 0
M  V30 48660 O 4753.73 2.69889 3.11823 0
M  V30 48661 H 4753.07 0.587931 0.308599 0
M  V30 48662 H 4755.6 2.01533 0.352922 0
M  V30 48663 H 4755.61 3.25207 2.46383 0
M  V30 48664 H 4754.29 3.88001 1.4976 0
M  V30 48665 H 4752.86 2.53209 2.73751 0
M  V30 48666 N 4755.05 -0.574758 1.46746 0
M  V30 48667 C 4755.98 -1.69331 1.60777 0
M  V30 48668 C 4756.96 -1.63824 0.457794 0
M  V30 48669 O 4758.14 -1.81717 0.685011 0
M  V30 48670 C 4755.27 -3.07974 1.60527 0
M  V30 48671 C 4754.23 -3.28318 2.74575 0
M  V30 48672 C 4753.55 -4.67569 2.5939 0
M  V30 48673 C 4754.85 -3.15383 4.1633 0
M  V30 48674 H 4756.55 -1.57844 2.54412 0
M  V30 48675 H 4754.09 -0.757947 1.22438 0
M  V30 48676 H 4756.05 -3.86055 1.68937 0
M  V30 48677 H 4754.77 -3.20379 0.634418 0
M  V30 48678 H 4753.43 -2.52639 2.65648 0
M  V30 48679 H 4753.08 -4.7675 1.6037 0
M  V30 48680 H 4752.78 -4.82132 3.3589 0
M  V30 48681 H 4754.3 -5.47808 2.69702 0
M  V30 48682 H 4755.72 -3.833 4.26326 0
M  V30 48683 H 4754.11 -3.41464 4.9348 0
M  V30 48684 H 4755.18 -2.12356 4.35927 0
M  V30 48685 N 4756.53 -1.34584 -0.820054 0
M  V30 48686 C 4757.8 -1.1768 -1.56239 0
M  V30 48687 C 4758.18 0.249467 -2.09621 0
M  V30 48688 O 4757.53 1.25119 -1.912 0
M  V30 48689 C 4757.74 -2.23373 -2.68152 0
M  V30 48690 C 4759.09 -2.58497 -3.36845 0
M  V30 48691 O 4760.11 -2.22184 -2.78411 0
M  V30 48692 O 4758.97 -3.20884 -4.42375 0
M  V30 48693 H 4756.07 -0.456357 -0.689686 0
M  V30 48694 H 4758.61 -1.46225 -0.861179 0
M  V30 48695 H 4757.38 -3.19095 -2.26482 0
M  V30 48696 H 4757.01 -1.96022 -3.45921 0
M  V30 48697 N 4758 1.0406 -1.18361 0
M  V30 48698 C 4759.25 1.76911 -0.977075 0
M  V30 48699 C 4759.57 1.88626 0.494511 0
M  V30 48700 O 4758.84 1.41129 1.35865 0
M  V30 48701 H 4757.42 0.655338 -0.358527 0
M  V30 48702 H 4760.08 1.25587 -1.49044 0
M  V30 48703 H 4759.18 2.78173 -1.41514 0
M  V30 48704 N 4759.48 0.985651 1.22974 0
M  V30 48705 C 4760.71 0.675323 1.96097 0
M  V30 48706 C 4761.13 -0.752093 1.7241 0
M  V30 48707 O 4760.49 -1.51306 0.998804 0
M  V30 48708 C 4760.54 0.978022 3.47084 0
M  V30 48709 O 4759.64 0.07283 4.12336 0
M  V30 48710 H 4758.98 0.253465 0.613719 0
M  V30 48711 H 4761.51 1.32067 1.56268 0
M  V30 48712 H 4761.52 0.916879 3.97564 0
M  V30 48713 H 4760.2 2.0182 3.6365 0
M  V30 48714 H 4758.77 0.188834 3.72422 0
M  V30 48715 N 4760.96 -1.38177 0.757949 0
M  V30 48716 C 4761.91 -2.32277 0.122564 0
M  V30 48717 C 4762.9 -1.5424 -0.70045 0
M  V30 48718 O 4764.11 -1.69739 -0.599059 0
M  V30 48719 H 4760.48 -0.751711 0.0208407 0
M  V30 48720 H 4762.45 -2.83465 0.932198 0
M  V30 48721 C 4761.2 -3.39449 -0.752956 0
M  V30 48722 H 4760.53 -3.99592 -0.129044 0
M  V30 48723 H 4761.97 -4.07688 -1.16475 0
M  V30 48724 C 4760.43 -2.78382 -1.8975 0
M  V30 48725 O 4760.96 -2.68035 -2.99199 0
M  V30 48726 N 4759.16 -2.36127 -1.69388 0
M  V30 48727 H 4758.71 -2.44742 -0.803676 0
M  V30 48728 H 4758.67 -1.95611 -2.46138 0
M  V30 48729 N 4762.44 -0.507371 -1.4921 0
M  V30 48730 C 4763.85 -0.163738 -1.58758 0
M  V30 48731 C 4764.05 1.33203 -1.51193 0
M  V30 48732 O 4763.11 2.10851 -1.38918 0
M  V30 48733 C 4764.42 -0.746197 -2.91294 0
M  V30 48734 C 4765.97 -0.71288 -3.04774 0
M  V30 48735 C 4766.45 -1.27351 -4.39938 0
M  V30 48736 N 4767.94 -1.23449 -4.46447 0
M  V30 48737 C 4768.67 -1.63841 -5.49494 0
M  V30 48738 N 4768.17 -2.11855 -6.59613 0
M  V30 48739 N 4769.96 -1.55217 -5.40244 0
M  V30 48740 H 4762.11 -1.47977 -1.5237 0
M  V30 48741 H 4764.38 -0.614173 -0.722147 0
M  V30 48742 H 4764.08 -1.79545 -3.02418 0
M  V30 48743 H 4763.96 -0.210269 -3.76613 0
M  V30 48744 H 4766.34 0.327553 -2.93276 0
M  V30 48745 H 4766.42 -1.28603 -2.21122 0
M  V30 48746 H 4766.07 -2.31276 -4.52188 0
M  V30 48747 H 4766 -0.676249 -5.2224 0
M  V30 48748 H 4768.49 -0.882756 -3.67445 0
M  V30 48749 H 4768.8 -2.40729 -7.3435 0
M  V30 48750 H 4767.15 -2.15834 -6.60637 0
M  V30 48751 H 4770.34 -1.1752 -4.53108 0
M  V30 48752 H 4770.51 -1.87019 -6.20426 0
M  V30 48753 N 4763.92 1.55739 -0.241481 0
M  V30 48754 C 4764.87 2.17805 0.674157 0
M  V30 48755 C 4765.85 1.13229 1.14315 0
M  V30 48756 O 4767.04 1.39156 1.09382 0
M  V30 48757 C 4764.17 2.87689 1.87323 0
M  V30 48758 C 4763.26 3.99514 1.42299 0
M  V30 48759 N 4763.65 5.01118 0.686622 0
M  V30 48760 C 4761.95 4.1197 1.70871 0
M  V30 48761 C 4762.65 5.79924 0.454252 0
M  V30 48762 N 4761.62 5.34004 1.01687 0
M  V30 48763 H 4765.43 2.93718 0.103344 0
M  V30 48764 H 4762.94 1.62342 -0.0435666 0
M  V30 48765 H 4764.94 3.30578 2.54015 0
M  V30 48766 H 4763.6 2.13277 2.44832 0
M  V30 48767 H 4764.61 5.16801 0.337277 0
M  V30 48768 H 4761.28 3.48726 2.29557 0
M  V30 48769 H 4762.67 6.71768 -0.133229 0
M  V30 48770 N 4765.39 -0.0316971 1.57568 0
M  V30 48771 C 4766.64 -0.724109 1.89432 0
M  V30 48772 C 4766.97 -1.75146 0.838897 0
M  V30 48773 O 4766.25 -1.93949 -0.146354 0
M  V30 48774 C 4766.53 -1.39604 3.31938 0
M  V30 48775 C 4766.38 -0.38238 4.48172 0
M  V30 48776 C 4767.7 -2.33071 3.73317 0
M  V30 48777 H 4764.82 -0.261773 0.688944 0
M  V30 48778 H 4767.46 0.0130838 1.89995 0
M  V30 48779 H 4765.61 -2.02439 3.31588 0
M  V30 48780 H 4767.29 0.243851 4.60655 0
M  V30 48781 H 4765.53 0.298592 4.32771 0
M  V30 48782 H 4766.2 -0.890953 5.44762 0
M  V30 48783 H 4768.68 -1.80282 3.75017 0
M  V30 48784 H 4767.55 -2.77067 4.73841 0
M  V30 48785 H 4767.81 -3.19632 3.05431 0
M  V30 48786 N 4766.87 -1.54642 -0.303919 0
M  V30 48787 C 4768.12 -1.74042 -1.04103 0
M  V30 48788 C 4768.45 -0.523117 -1.87022 0
M  V30 48789 O 4767.73 0.479808 -1.88489 0
M  V30 48790 C 4768.01 -3.02768 -1.94945 0
M  V30 48791 C 4767.86 -4.34791 -1.15225 0
M  V30 48792 C 4769.18 -3.27347 -2.94163 0
M  V30 48793 H 4766.3 -0.633244 -0.377056 0
M  V30 48794 H 4768.94 -1.87355 -0.315935 0
M  V30 48795 H 4767.09 -2.91549 -2.56771 0
M  V30 48796 H 4768.76 -4.57924 -0.557075 0
M  V30 48797 H 4767.01 -4.31408 -0.454901 0
M  V30 48798 H 4767.68 -5.21122 -1.82032 0
M  V30 48799 H 4770.15 -3.38157 -2.42465 0
M  V30 48800 H 4769.03 -4.18739 -3.54893 0
M  V30 48801 H 4769.29 -2.45504 -3.67669 0
M  V30 48802 N 4768.35 0.566968 -1.47048 0
M  V30 48803 C 4769.28 1.68476 -1.61673 0
M  V30 48804 C 4770.26 1.63579 -0.466476 0
M  V30 48805 O 4771.45 1.81352 -0.694638 0
M  V30 48806 C 4768.58 3.07119 -1.62158 0
M  V30 48807 C 4767.53 3.26857 -2.76312 0
M  V30 48808 C 4766.86 4.66187 -2.61866 0
M  V30 48809 C 4768.16 3.13171 -4.17997 0
M  V30 48810 H 4769.85 1.56493 -2.55246 0
M  V30 48811 H 4767.4 0.751443 -1.22839 0
M  V30 48812 H 4769.35 3.85154 -1.70981 0
M  V30 48813 H 4768.07 3.20038 -0.651399 0
M  V30 48814 H 4766.73 2.51227 -2.66984 0
M  V30 48815 H 4766.38 4.75893 -1.62896 0
M  V30 48816 H 4766.08 4.80344 -3.38442 0
M  V30 48817 H 4767.6 5.4637 -2.72603 0
M  V30 48818 H 4769.02 3.81033 -4.28353 0
M  V30 48819 H 4767.42 3.38842 -4.95284 0
M  V30 48820 H 4768.49 2.10042 -4.37048 0
M  V30 48821 N 4769.83 1.35017 0.812906 0
M  V30 48822 C 4771.05 1.31193 1.60634 0
M  V30 48823 C 4771.48 -0.109316 1.87782 0
M  V30 48824 O 4770.84 -1.07419 1.46051 0
M  V30 48825 C 4770.88 2.11819 2.9183 0
M  V30 48826 O 4769.99 1.49458 3.84365 0
M  V30 48827 H 4769.33 0.450101 0.488165 0
M  V30 48828 H 4771.86 1.77967 1.00941 0
M  V30 48829 H 4771.87 2.23543 3.4131 0
M  V30 48830 H 4770.54 3.15146 2.71396 0
M  V30 48831 H 4769.12 1.46536 3.42902 0
M  V30 48832 N 4771.31 -1.03431 1.18911 0
M  V30 48833 C 4772.24 -2.11647 0.879669 0
M  V30 48834 C 4773.25 -1.62316 -0.125382 0
M  V30 48835 O 4774.44 -1.78201 0.103308 0
M  V30 48836 C 4771.54 -3.37621 0.29416 0
M  V30 48837 C 4770.71 -4.16161 1.34643 0
M  V30 48838 C 4769.77 -5.20455 0.775457 0
M  V30 48839 O 4768.8 -5.50374 1.45179 0
M  V30 48840 N 4770 -5.7895 -0.423922 0
M  V30 48841 H 4772.77 -2.38784 1.81114 0
M  V30 48842 H 4770.33 -1.19677 1.09037 0
M  V30 48843 H 4772.32 -4.04573 -0.101537 0
M  V30 48844 H 4770.89 -3.07875 -0.541467 0
M  V30 48845 H 4770.11 -3.44438 1.91719 0
M  V30 48846 H 4771.4 -4.65425 2.05566 0
M  V30 48847 H 4770.79 -5.56952 -0.991013 0
M  V30 48848 H 4769.35 -6.47337 -0.761464 0
M  V30 48849 N 4772.78 -0.992159 -1.2245 0
M  V30 48850 C 4774.06 -0.583574 -1.86692 0
M  V30 48851 C 4774.44 0.939133 -1.8906 0
M  V30 48852 O 4773.79 1.82076 -1.3806 0
M  V30 48853 C 4774 -1.20315 -3.27605 0
M  V30 48854 C 4775.35 -1.30322 -4.04106 0
M  V30 48855 O 4776.37 -1.15749 -3.36869 0
M  V30 48856 O 4775.23 -1.53634 -5.24461 0
M  V30 48857 H 4772.32 -0.198158 -0.802909 0
M  V30 48858 H 4774.87 -1.08799 -1.30234 0
M  V30 48859 H 4773.64 -2.24472 -3.20512 0
M  V30 48860 H 4773.27 -0.684282 -3.91667 0
M  V30 48861 N 4774.26 1.37773 -0.765266 0
M  V30 48862 C 4775.51 1.99091 -0.323377 0
M  V30 48863 C 4775.82 1.61438 1.10441 0
M  V30 48864 O 4777.03 2.15811 1.64736 0
M  V30 48865 C 4775.49 3.56017 -0.527223 0
M  V30 48866 C 4775.09 4.02614 -1.96485 0
M  V30 48867 C 4776.84 4.2424 -0.148632 0
M  V30 48868 C 4774.75 5.52225 -2.11663 0
M  V30 48869 H 4773.68 0.744842 -0.117163 0
M  V30 48870 H 4776.33 1.57388 -0.943472 0
M  V30 48871 H 4774.71 3.95668 0.162233 0
M  V30 48872 H 4775.88 3.74225 -2.68873 0
M  V30 48873 H 4774.2 3.47153 -2.29943 0
M  V30 48874 H 4776.79 5.34158 -0.240644 0
M  V30 48875 H 4777.14 4.06449 0.900279 0
M  V30 48876 H 4777.67 3.89869 -0.790387 0
M  V30 48877 H 4774.41 5.74934 -3.1485 0
M  V30 48878 H 4773.93 5.82319 -1.43751 0
M  V30 48879 H 4775.61 6.18099 -1.91214 0
M  V30 48880 N 4775.74 0.515277 1.48938 0
M  V30 48881 C 4777.15 0.0710723 1.86565 0
M  V30 48882 C 4777.5 -1.34728 1.42628 0
M  V30 48883 O 4776.63 -2.00651 0.81045 0
M  V30 48884 C 4777.22 0.122202 3.3858 0
M  V30 48885 C 4775.78 -0.266731 3.75454 0
M  V30 48886 C 4774.93 0.488472 2.72964 0
M  V30 48887 H 4777.88 0.727315 1.41053 0
M  V30 48888 H 4777.9 -0.669686 3.7456 0
M  V30 48889 H 4777.41 1.15461 3.70527 0
M  V30 48890 H 4775.51 -1.30184 3.49117 0
M  V30 48891 H 4775.63 0.0626495 4.79059 0
M  V30 48892 H 4773.99 -0.0634726 2.54621 0
M  V30 48893 H 4774.77 1.52123 3.07755 0
M  V30 48894 N 4777.22 -1.55609 0.249737 0
M  V30 48895 C 4778.17 -2.1816 -0.662596 0
M  V30 48896 C 4779.15 -1.13834 -1.13713 0
M  V30 48897 O 4780.35 -1.39735 -1.08643 0
M  V30 48898 C 4777.47 -2.88678 -1.85795 0
M  V30 48899 C 4776.56 -4.00263 -1.40178 0
M  V30 48900 N 4776.95 -5.01475 -0.660037 0
M  V30 48901 C 4775.25 -4.1287 -1.68684 0
M  V30 48902 C 4775.95 -5.80156 -0.423491 0
M  V30 48903 N 4774.93 -5.34536 -0.988533 0
M  V30 48904 H 4778.73 -2.93769 -0.0877655 0
M  V30 48905 H 4776.24 -1.62316 0.0521753 0
M  V30 48906 H 4778.24 -3.31921 -2.52258 0
M  V30 48907 H 4776.9 -2.14573 -2.43698 0
M  V30 48908 H 4777.91 -5.16972 -0.309865 0
M  V30 48909 H 4774.59 -3.49938 -2.27705 0
M  V30 48910 H 4775.98 -6.71688 0.168852 0
M  V30 48911 N 4778.7 0.0233405 -1.57583 0
M  V30 48912 C 4779.95 0.712067 -1.88713 0
M  V30 48913 C 4780.26 1.76214 -0.849006 0
M  V30 48914 O 4781.47 2.50386 -1.04973 0
M  V30 48915 C 4779.92 1.31758 -3.34915 0
M  V30 48916 C 4779.53 0.303558 -4.4697 0
M  V30 48917 C 4781.27 1.98585 -3.75186 0
M  V30 48918 C 4779.18 0.917739 -5.84236 0
M  V30 48919 H 4778.11 0.269711 -0.704111 0
M  V30 48920 H 4780.76 -0.0333759 -1.8347 0
M  V30 48921 H 4779.14 2.11292 -3.34921 0
M  V30 48922 H 4780.32 -0.465486 -4.58443 0
M  V30 48923 H 4778.63 -0.262946 -4.15569 0
M  V30 48924 H 4781.23 2.45399 -4.75061 0
M  V30 48925 H 4781.57 2.80648 -3.07478 0
M  V30 48926 H 4782.11 1.25818 -3.77379 0
M  V30 48927 H 4778.84 0.136403 -6.55358 0
M  V30 48928 H 4778.36 1.65649 -5.76472 0
M  V30 48929 H 4780.04 1.42337 -6.31149 0
M  V30 48930 N 4780.18 1.54801 0.295713 0
M  V30 48931 C 4781.42 1.74333 1.03026 0
M  V30 48932 C 4781.75 0.53198 1.87083 0
M  V30 48933 O 4781.01 -0.485986 1.8957 0
M  V30 48934 C 4781.3 2.98804 1.96089 0
M  V30 48935 C 4780.97 4.32361 1.27965 0
M  V30 48936 C 4779.63 4.68665 1.09119 0
M  V30 48937 C 4781.98 5.15131 0.793062 0
M  V30 48938 C 4779.31 5.85314 0.403063 0
M  V30 48939 C 4781.66 6.32489 0.118632 0
M  V30 48940 C 4780.33 6.6745 -0.081739 0
M  V30 48941 H 4779.6 0.637929 0.376998 0
M  V30 48942 H 4782.25 1.89062 0.30463 0
M  V30 48943 H 4780.55 2.78879 2.75198 0
M  V30 48944 H 4782.25 3.11111 2.53004 0
M  V30 48945 H 4778.84 4.03813 1.43641 0
M  V30 48946 H 4783.02 4.87578 0.926359 0
M  V30 48947 H 4778.28 6.10941 0.236884 0
M  V30 48948 H 4782.45 6.95891 -0.266279 0
M  V30 48949 H 4780.08 7.57692 -0.616952 0
M  V30 48950 N 4781.65 -0.559161 1.47347 0
M  V30 48951 C 4782.62 -1.64848 1.59241 0
M  V30 48952 C 4783.62 -1.53849 0.467661 0
M  V30 48953 O 4784.81 -1.58043 0.732672 0
M  V30 48954 C 4781.94 -3.04382 1.53506 0
M  V30 48955 H 4783.13 -1.55653 2.56344 0
M  V30 48956 H 4780.68 -0.778925 1.35508 0
M  V30 48957 H 4781.42 -3.19113 0.577716 0
M  V30 48958 H 4781.2 -3.13775 2.35134 0
M  V30 48959 H 4782.69 -3.83636 1.64964 0
M  V30 48960 N 4783.13 -1.35446 -0.805734 0
M  V30 48961 C 4784.06 -1.31102 -1.93221 0
M  V30 48962 C 4785.04 -0.185304 -1.69088 0
M  V30 48963 O 4786.23 -0.380399 -1.90438 0
M  V30 48964 C 4783.36 -1.08311 -3.29979 0
M  V30 48965 C 4782.31 -2.17532 -3.68597 0
M  V30 48966 C 4781.64 -1.79905 -5.03526 0
M  V30 48967 C 4782.94 -3.59504 -3.78886 0
M  V30 48968 H 4784.63 -2.25359 -1.97114 0
M  V30 48969 H 4782.18 -1.08484 -0.946958 0
M  V30 48970 H 4784.13 -1.03911 -4.08388 0
M  V30 48971 H 4782.85 -0.105 -3.26431 0
M  V30 48972 H 4781.51 -2.2103 -2.92474 0
M  V30 48973 H 4781.16 -0.807105 -4.96482 0
M  V30 48974 H 4780.86 -2.53019 -5.30335 0
M  V30 48975 H 4782.39 -1.77032 -5.84373 0
M  V30 48976 H 4783.8 -3.58323 -4.47524 0
M  V30 48977 H 4782.2 -4.31385 -4.17165 0
M  V30 48978 H 4783.27 -3.95594 -2.80417 0
M  V30 48979 N 4784.61 1.02799 -1.19458 0
M  V30 48980 C 4785.84 1.79838 -1.02303 0
M  V30 48981 C 4786.25 1.8388 0.428195 0
M  V30 48982 O 4785.61 1.28349 1.29741 0
M  V30 48983 C 4785.66 3.24847 -1.58609 0
M  V30 48984 O 4785.38 3.21087 -2.98052 0
M  V30 48985 C 4786.88 4.1848 -1.4625 0
M  V30 48986 H 4784.1 0.565923 -0.360516 0
M  V30 48987 H 4786.65 1.29474 -1.58293 0
M  V30 48988 H 4784.8 3.72397 -1.06766 0
M  V30 48989 H 4785.22 4.12021 -3.24559 0
M  V30 48990 H 4786.69 5.18114 -1.90426 0
M  V30 48991 H 4787.17 4.37252 -0.413164 0
M  V30 48992 H 4787.77 3.76804 -1.97228 0
M  V30 48993 N 4786.09 0.998639 1.21922 0
M  V30 48994 C 4787.02 0.573768 2.26341 0
M  V30 48995 C 4788 -0.402238 1.65276 0
M  V30 48996 O 4789.18 -0.291615 1.91998 0
M  V30 48997 C 4786.31 -0.106717 3.47136 0
M  V30 48998 C 4785.27 0.788416 4.20676 0
M  V30 48999 C 4784.59 -0.0253047 5.34694 0
M  V30 49000 C 4785.89 2.08801 4.78748 0
M  V30 49001 H 4787.59 1.4466 2.62133 0
M  V30 49002 H 4785.13 0.69702 1.26006 0
M  V30 49003 H 4787.09 -0.415383 4.19348 0
M  V30 49004 H 4785.81 -1.01414 3.10456 0
M  V30 49005 H 4784.47 1.08081 3.50306 0
M  V30 49006 H 4784.12 -0.933816 4.94256 0
M  V30 49007 H 4783.82 0.570643 5.84823 0
M  V30 49008 H 4785.34 -0.327933 6.09719 0
M  V30 49009 H 4786.76 1.84291 5.42872 0
M  V30 49010 H 4785.15 2.63326 5.39239 0
M  V30 49011 H 4786.22 2.76298 3.98481 0
M  V30 49012 N 4787.57 -1.37365 0.772562 0
M  V30 49013 C 4788.81 -1.99672 0.337252 0
M  V30 49014 C 4789.14 -1.61328 -1.08644 0
M  V30 49015 O 4788.4 -0.851439 -1.76207 0
M  V30 49016 C 4788.69 -3.54816 0.429 0
M  V30 49017 C 4788.36 -4.1293 1.81106 0
M  V30 49018 C 4787.02 -4.28515 2.18925 0
M  V30 49019 C 4789.37 -4.44792 2.71679 0
M  V30 49020 C 4786.7 -4.73265 3.46752 0
M  V30 49021 C 4789.05 -4.90967 3.98916 0
M  V30 49022 C 4787.72 -5.04758 4.36779 0
M  V30 49023 H 4786.99 -0.730651 0.123409 0
M  V30 49024 H 4789.64 -1.64121 0.986744 0
M  V30 49025 H 4787.94 -3.90619 -0.304029 0
M  V30 49026 H 4789.64 -4.00933 0.0734744 0
M  V30 49027 H 4786.23 -4.01227 1.50713 0
M  V30 49028 H 4790.41 -4.32335 2.43721 0
M  V30 49029 H 4785.67 -4.82129 3.75981 0
M  V30 49030 H 4789.84 -5.14587 4.69226 0
M  V30 49031 H 4787.47 -5.39193 5.35887 0
M  V30 49032 N 4789.04 -0.523168 -1.48663 0
M  V30 49033 C 4789.95 0.247324 -2.33293 0
M  V30 49034 C 4790.97 0.945717 -1.46055 0
M  V30 49035 O 4792.15 0.92219 -1.79046 0
M  V30 49036 C 4789.21 1.28476 -3.22017 0
M  V30 49037 C 4788.27 0.597443 -4.25122 0
M  V30 49038 C 4787.5 1.58545 -5.09607 0
M  V30 49039 O 4787.73 2.81746 -4.95959 0
M  V30 49040 O 4786.66 1.12858 -5.91225 0
M  V30 49041 H 4790.49 -0.445975 -3.00408 0
M  V30 49042 H 4788.07 -0.28418 -1.46672 0
M  V30 49043 H 4789.95 1.88445 -3.76917 0
M  V30 49044 H 4788.63 1.96059 -2.57571 0
M  V30 49045 H 4787.54 -0.0425722 -3.74076 0
M  V30 49046 H 4788.87 -0.0363247 -4.92187 0
M  V30 49047 N 4790.52 1.55474 -0.257986 0
M  V30 49048 C 4791.8 1.91156 0.414562 0
M  V30 49049 C 4792.18 1.18014 1.75031 0
M  V30 49050 O 4791.53 0.301272 2.26505 0
M  V30 49051 C 4791.74 3.44285 0.571738 0
M  V30 49052 C 4793.09 4.15747 0.862532 0
M  V30 49053 O 4794.11 3.50085 0.657191 0
M  V30 49054 O 4792.97 5.31913 1.25422 0
M  V30 49055 H 4790.06 0.796024 0.224222 0
M  V30 49056 H 4792.61 1.66975 -0.302872 0
M  V30 49057 H 4791.38 3.89556 -0.368981 0
M  V30 49058 H 4791 3.74364 1.33929 0
M  V30 49059 N 4792 -0.0149831 1.57593 0
M  V30 49060 C 4793.23 -0.71329 1.93896 0
M  V30 49061 C 4793.64 -1.6866 0.857349 0
M  V30 49062 O 4792.98 -1.82877 -0.173724 0
M  V30 49063 C 4793.04 -1.51336 3.26094 0
M  V30 49064 C 4792.71 -0.703292 4.51556 0
M  V30 49065 C 4793.7 0.00256201 5.199 0
M  V30 49066 C 4791.39 -0.653678 4.98028 0
M  V30 49067 C 4793.38 0.747177 6.33006 0
M  V30 49068 C 4791.07 0.0946726 6.11027 0
M  V30 49069 C 4792.07 0.793847 6.78371 0
M  V30 49070 O 4791.76 1.53002 7.89206 0
M  V30 49071 H 4791.49 -0.204614 0.64429 0
M  V30 49072 H 4794.04 0.0277133 2.05381 0
M  V30 49073 H 4792.27 -2.29851 3.10975 0
M  V30 49074 H 4793.96 -2.0956 3.4762 0
M  V30 49075 H 4794.73 -0.0267098 4.84993 0
M  V30 49076 H 4790.61 -1.1874 4.45446 0
M  V30 49077 H 4794.15 1.29345 6.85504 0
M  V30 49078 H 4790.05 0.125818 6.45377 0
M  V30 49079 H 4790.82 1.44516 8.05641 0
M  V30 49080 N 4793.48 -1.54955 -0.2875 0
M  V30 49081 C 4794.72 -1.75136 -1.02251 0
M  V30 49082 C 4795.06 -0.542923 -1.86456 0
M  V30 49083 O 4794.33 0.459789 -1.88987 0
M  V30 49084 C 4794.62 -3.04819 -1.91723 0
M  V30 49085 C 4794.47 -4.35989 -1.10607 0
M  V30 49086 C 4795.79 -3.30448 -2.90675 0
M  V30 49087 H 4792.91 -0.637207 -0.370319 0
M  V30 49088 H 4795.55 -1.87679 -0.296046 0
M  V30 49089 H 4793.7 -2.94256 -2.53665 0
M  V30 49090 H 4795.37 -4.58489 -0.508475 0
M  V30 49091 H 4793.61 -4.31866 -0.409119 0
M  V30 49092 H 4794.28 -5.23024 -1.76494 0
M  V30 49093 H 4796.76 -3.40709 -2.38865 0
M  V30 49094 H 4795.64 -4.22479 -3.50432 0
M  V30 49095 H 4795.9 -2.4939 -3.65044 0
M  V30 49096 N 4794.96 0.551339 -1.47641 0
M  V30 49097 C 4796.19 1.33158 -1.57964 0
M  V30 49098 C 4796.59 1.87784 -0.231006 0
M  V30 49099 O 4795.94 1.65999 0.786766 0
M  V30 49100 C 4796 2.5344 -2.54967 0
M  V30 49101 C 4795.66 2.20057 -4.00529 0
M  V30 49102 C 4796.66 1.77 -4.88843 0
M  V30 49103 C 4794.35 2.31236 -4.45909 0
M  V30 49104 C 4796.34 1.45558 -6.20558 0
M  V30 49105 C 4794.03 1.99406 -5.77651 0
M  V30 49106 C 4795.02 1.56636 -6.64796 0
M  V30 49107 O 4794.71 1.25214 -7.94089 0
M  V30 49108 H 4794.44 0.412003 -0.535938 0
M  V30 49109 H 4797 0.674117 -1.94023 0
M  V30 49110 H 4795.23 3.22097 -2.13987 0
M  V30 49111 H 4796.92 3.15514 -2.55354 0
M  V30 49112 H 4797.68 1.67851 -4.55029 0
M  V30 49113 H 4793.56 2.63485 -3.78281 0
M  V30 49114 H 4797.11 1.12101 -6.88534 0
M  V30 49115 H 4793 2.08189 -6.11005 0
M  V30 49116 H 4793.77 1.38794 -8.06646 0
M  V30 49117 N 4796.43 1.35872 0.79854 0
M  V30 49118 C 4797.68 1.30794 1.55771 0
M  V30 49119 C 4798.04 -0.114491 1.92059 0
M  V30 49120 O 4797.33 -1.06685 1.5915 0
M  V30 49121 C 4797.52 2.1557 2.85069 0
M  V30 49122 C 4797.35 3.65913 2.61415 0
M  V30 49123 C 4796.12 4.35121 2.569 0
M  V30 49124 C 4798.32 4.59383 2.31239 0
M  V30 49125 N 4796.3 5.71163 2.25048 0
M  V30 49126 C 4797.67 5.83605 2.09296 0
M  V30 49127 C 4799.73 4.48042 2.17169 0
M  V30 49128 C 4798.43 6.97761 1.74707 0
M  V30 49129 C 4800.46 5.62055 1.83978 0
M  V30 49130 C 4799.82 6.85311 1.62876 0
M  V30 49131 H 4795.92 0.533875 0.571403 0
M  V30 49132 H 4798.5 1.70834 0.934019 0
M  V30 49133 H 4796.67 1.77788 3.4532 0
M  V30 49134 H 4798.4 2.0195 3.50711 0
M  V30 49135 H 4795.16 3.87822 2.71829 0
M  V30 49136 H 4795.58 6.42985 2.11893 0
M  V30 49137 H 4800.23 3.53346 2.32178 0
M  V30 49138 H 4797.94 7.92416 1.58436 0
M  V30 49139 H 4801.53 5.55238 1.73788 0
M  V30 49140 H 4800.41 7.72039 1.37569 0
M  V30 49141 N 4797.91 -1.02164 1.20001 0
M  V30 49142 C 4799.14 -1.79293 1.03256 0
M  V30 49143 C 4799.56 -1.84105 -0.418437 0
M  V30 49144 O 4798.91 -1.29036 -1.29058 0
M  V30 49145 C 4798.96 -3.24001 1.6033 0
M  V30 49146 O 4798.68 -3.19501 2.99751 0
M  V30 49147 C 4800.19 -4.17699 1.48468 0
M  V30 49148 H 4797.41 -0.564003 0.363512 0
M  V30 49149 H 4799.95 -1.28633 1.58977 0
M  V30 49150 H 4798.1 -3.71826 1.0874 0
M  V30 49151 H 4798.52 -4.10294 3.2674 0
M  V30 49152 H 4799.99 -5.17097 1.93171 0
M  V30 49153 H 4800.47 -4.37027 0.436346 0
M  V30 49154 H 4801.08 -3.75753 1.99224 0
M  V30 49155 N 4799.39 -1.00509 -1.21391 0
M  V30 49156 C 4800.67 -0.603342 -1.86062 0
M  V30 49157 C 4801.05 0.919028 -1.90045 0
M  V30 49158 O 4800.4 1.80602 -1.39983 0
M  V30 49159 C 4800.61 -1.23783 -3.26311 0
M  V30 49160 C 4801.95 -1.34601 -4.02701 0
M  V30 49161 O 4802.98 -1.19315 -3.35622 0
M  V30 49162 O 4801.84 -1.59188 -5.22802 0
M  V30 49163 H 4798.93 -0.206662 -0.800762 0
M  V30 49164 H 4801.48 -1.10174 -1.29073 0
M  V30 49165 H 4800.25 -2.27859 -3.18113 0
M  V30 49166 H 4799.87 -0.725785 -3.9092 0
M  V30 49167 N 4800.87 1.36954 -0.779835 0
M  V30 49168 C 4802.11 2.00235 -0.357394 0
M  V30 49169 C 4802.47 1.60791 1.05661 0
M  V30 49170 O 4801.76 0.847897 1.71818 0
M  V30 49171 C 4801.96 3.54583 -0.447811 0
M  V30 49172 C 4801.79 4.09019 -1.86905 0
M  V30 49173 C 4800.56 4.39603 -2.49154 0
M  V30 49174 C 4802.75 4.29451 -2.82978 0
M  V30 49175 N 4800.74 4.79802 -3.82966 0
M  V30 49176 C 4802.11 4.72349 -4.01605 0
M  V30 49177 C 4804.16 4.11601 -2.8016 0
M  V30 49178 C 4802.86 4.99266 -5.17809 0
M  V30 49179 C 4804.89 4.39659 -3.95543 0
M  V30 49180 C 4804.25 4.82804 -5.12913 0
M  V30 49181 H 4800.35 0.761474 -0.177994 0
M  V30 49182 H 4802.94 1.66126 -1.01539 0
M  V30 49183 H 4801.11 3.87982 0.180048 0
M  V30 49184 H 4802.84 4.047 -0.00253778 0
M  V30 49185 H 4799.59 4.28968 -2.00708 0
M  V30 49186 H 4800.02 5.042 -4.51787 0
M  V30 49187 H 4804.66 3.77408 -1.90585 0
M  V30 49188 H 4802.38 5.32344 -6.07977 0
M  V30 49189 H 4805.96 4.27427 -3.94712 0
M  V30 49190 H 4804.84 5.04097 -6.00713 0
M  V30 49191 N 4802.35 0.531045 1.48384 0
M  V30 49192 C 4803.26 -0.234948 2.33421 0
M  V30 49193 C 4804.27 -0.937958 1.46555 0
M  V30 49194 O 4805.45 -0.912681 1.79533 0
M  V30 49195 C 4802.51 -1.26766 3.22694 0
M  V30 49196 C 4801.57 -0.574889 4.25433 0
M  V30 49197 C 4800.81 -1.5584 5.10441 0
M  V30 49198 O 4801.03 -2.79111 4.97446 0
M  V30 49199 O 4799.96 -1.09721 5.91815 0
M  V30 49200 H 4803.79 0.4619 3.00167 0
M  V30 49201 H 4801.38 0.291954 1.4652 0
M  V30 49202 H 4803.26 -1.86444 3.77911 0
M  V30 49203 H 4801.93 -1.9469 2.58607 0
M  V30 49204 H 4800.84 0.0624097 3.74048 0
M  V30 49205 H 4802.17 0.062426 4.9216 0
M  V30 49206 N 4803.82 -1.55335 0.266227 0
M  V30 49207 C 4805.05 -2.03802 -0.356685 0
M  V30 49208 C 4805.47 -1.1449 -1.50125 0
M  V30 49209 O 4804.82 -0.163185 -1.81769 0
M  V30 49210 C 4804.88 -3.51458 -0.846157 0
M  V30 49211 O 4804.6 -4.3737 0.252817 0
M  V30 49212 C 4806.1 -4.15773 -1.53779 0
M  V30 49213 H 4803.32 -0.665909 -0.0824984 0
M  V30 49214 H 4805.86 -2.00635 0.39573 0
M  V30 49215 H 4804.02 -3.55098 -1.54869 0
M  V30 49216 H 4804.43 -5.24358 -0.121989 0
M  V30 49217 H 4805.9 -5.2072 -1.83179 0
M  V30 49218 H 4806.38 -3.63412 -2.46634 0
M  V30 49219 H 4806.99 -4.1611 -0.879342 0
M  V30 49220 N 4805.3 0.0066254 -1.57599 0
M  V30 49221 C 4806.25 1.00017 -2.08003 0
M  V30 49222 C 4807.22 1.34546 -0.97399 0
M  V30 49223 O 4808.41 1.44497 -1.246 0
M  V30 49224 C 4805.55 2.28901 -2.5826 0
M  V30 49225 C 4804.66 2.00333 -3.82741 0
M  V30 49226 C 4803.79 3.2325 -4.21525 0
M  V30 49227 C 4802.83 2.90338 -5.3886 0
M  V30 49228 N 4801.97 4.05773 -5.72969 0
M  V30 49229 H 4806.81 0.563396 -2.92626 0
M  V30 49230 H 4804.35 0.266541 -1.44665 0
M  V30 49231 H 4806.3 3.04237 -2.85474 0
M  V30 49232 H 4804.93 2.70259 -1.76522 0
M  V30 49233 H 4803.99 1.15393 -3.62476 0
M  V30 49234 H 4805.3 1.7207 -4.68181 0
M  V30 49235 H 4804.45 4.06937 -4.49986 0
M  V30 49236 H 4803.19 3.54645 -3.3478 0
M  V30 49237 H 4802.2 2.05057 -5.10129 0
M  V30 49238 H 4803.42 2.60197 -6.27275 0
M  V30 49239 H 4801.37 4.37077 -4.89183 0
M  V30 49240 H 4801.28 3.81011 -6.52968 0
M  V30 49241 H 4802.55 4.90268 -6.06018 0
M  V30 49242 N 4806.78 1.55106 0.279278 0
M  V30 49243 C 4808.01 1.79764 1.03439 0
M  V30 49244 C 4808.43 0.566015 1.79382 0
M  V30 49245 O 4807.79 -0.484198 1.74715 0
M  V30 49246 C 4807.84 3.01797 1.9736 0
M  V30 49247 O 4806.94 2.76443 3.06028 0
M  V30 49248 H 4806.28 0.594344 0.296059 0
M  V30 49249 H 4808.81 2.02236 0.310094 0
M  V30 49250 H 4808.82 3.3036 2.3943 0
M  V30 49251 H 4807.5 3.9109 1.41496 0
M  V30 49252 H 4806.07 2.58959 2.68319 0
M  V30 49253 N 4808.26 -0.543502 1.47932 0
M  V30 49254 C 4809.51 -1.29644 1.54516 0
M  V30 49255 C 4809.82 -1.94381 0.218041 0
M  V30 49256 O 4811.03 -2.71016 0.162003 0
M  V30 49257 C 4809.48 -2.35165 2.72443 0
M  V30 49258 C 4809.09 -1.76558 4.11742 0
M  V30 49259 C 4810.84 -3.11554 2.88331 0
M  V30 49260 C 4808.74 -2.7994 5.20949 0
M  V30 49261 H 4807.67 -0.487521 0.575187 0
M  V30 49262 H 4810.32 -0.575647 1.74237 0
M  V30 49263 H 4808.71 -3.1022 2.46129 0
M  V30 49264 H 4809.88 -1.07783 4.48017 0
M  V30 49265 H 4808.19 -1.12708 4.00856 0
M  V30 49266 H 4810.79 -3.88781 3.67087 0
M  V30 49267 H 4811.13 -3.66587 1.97281 0
M  V30 49268 H 4811.67 -2.43612 3.1448 0
M  V30 49269 H 4808.41 -2.29744 6.1392 0
M  V30 49270 H 4807.93 -3.47083 4.89176 0
M  V30 49271 H 4809.61 -3.43179 5.48486 0
M  V30 49272 N 4809.74 -1.36293 -0.791323 0
M  V30 49273 C 4810.69 -1.30521 -1.92528 0
M  V30 49274 C 4811.68 -0.197345 -1.68247 0
M  V30 49275 O 4812.89 -0.364238 -1.76276 0
M  V30 49276 H 4809.26 -0.406285 -0.6328 0
M  V30 49277 H 4811.23 -2.26288 -1.94515 0
M  V30 49278 C 4809.98 -1.10945 -3.29525 0
M  V30 49279 H 4809.3 -1.95439 -3.48775 0
M  V30 49280 H 4810.74 -1.10952 -4.09226 0
M  V30 49281 C 4809.2 0.186004 -3.36386 0
M  V30 49282 O 4809.73 1.1765 -3.84085 0
M  V30 49283 N 4807.94 0.230027 -2.89688 0
M  V30 49284 H 4807.49 -0.576634 -2.51063 0
M  V30 49285 H 4807.44 1.09647 -2.9466 0
M  V30 49286 N 4811.22 1.01526 -1.20541 0
M  V30 49287 C 4812.63 1.27458 -0.960555 0
M  V30 49288 C 4812.83 1.98274 0.359123 0
M  V30 49289 O 4811.89 2.27889 1.08732 0
M  V30 49290 C 4813.2 2.10829 -2.1441 0
M  V30 49291 C 4814.75 2.24091 -2.18523 0
M  V30 49292 C 4815.22 3.1084 -3.36366 0
M  V30 49293 N 4816.71 3.18429 -3.36388 0
M  V30 49294 C 4817.45 3.8578 -4.24219 0
M  V30 49295 N 4816.95 4.55246 -5.22229 0
M  V30 49296 N 4818.74 3.82317 -4.12056 0
M  V30 49297 H 4810.89 0.539835 -2.05425 0
M  V30 49298 H 4813.15 0.300888 -0.898983 0
M  V30 49299 H 4812.86 1.66133 -3.09988 0
M  V30 49300 H 4812.73 3.11568 -2.12615 0
M  V30 49301 H 4815.12 2.68012 -1.23506 0
M  V30 49302 H 4815.2 1.22857 -2.24365 0
M  V30 49303 H 4814.84 2.67625 -4.3167 0
M  V30 49304 H 4814.77 4.12165 -3.27761 0
M  V30 49305 H 4817.27 2.68968 -2.65451 0
M  V30 49306 H 4817.58 5.0431 -5.85569 0
M  V30 49307 H 4815.92 4.54066 -5.26164 0
M  V30 49308 H 4819.11 3.27195 -3.34755 0
M  V30 49309 H 4819.29 4.3453 -4.80716 0
M  V30 49310 N 4812.69 1.01151 1.20856 0
M  V30 49311 C 4813.66 0.582302 2.2168 0
M  V30 49312 C 4814.66 -0.344831 1.57059 0
M  V30 49313 O 4815.85 -0.13422 1.73682 0
M  V30 49314 C 4812.98 -0.150377 3.40568 0
M  V30 49315 H 4814.17 1.47417 2.61167 0
M  V30 49316 H 4811.72 0.800743 1.3423 0
M  V30 49317 H 4812.46 -1.05739 3.06577 0
M  V30 49318 H 4812.24 0.515581 3.88695 0
M  V30 49319 H 4813.73 -0.438198 4.15295 0
M  V30 49320 N 4814.17 -1.36538 0.787088 0
M  V30 49321 C 4815.12 -2.27459 0.157037 0
M  V30 49322 C 4816.11 -1.46846 -0.657658 0
M  V30 49323 O 4817.3 -1.69247 -0.518113 0
M  V30 49324 C 4814.43 -3.35896 -0.70916 0
M  V30 49325 C 4813.51 -4.23946 0.114198 0
M  V30 49326 N 4813.9 -4.9214 1.16754 0
M  V30 49327 C 4812.2 -4.45871 -0.10734 0
M  V30 49328 C 4812.9 -5.57255 1.66857 0
M  V30 49329 N 4811.88 -5.34727 0.97818 0
M  V30 49330 H 4815.68 -2.77665 0.963283 0
M  V30 49331 H 4813.19 -1.49836 0.626323 0
M  V30 49332 H 4815.19 -3.99957 -1.17642 0
M  V30 49333 H 4813.85 -2.87243 -1.51398 0
M  V30 49334 H 4814.86 -4.94163 1.54993 0
M  V30 49335 H 4811.54 -4.08059 -0.88285 0
M  V30 49336 H 4812.93 -6.21719 2.54784 0
M  V30 49337 N 4815.65 -0.538906 -1.481 0
M  V30 49338 C 4816.6 0.218961 -2.29759 0
M  V30 49339 C 4817.57 0.925514 -1.37926 0
M  V30 49340 O 4818.75 0.924796 -1.6689 0
M  V30 49341 C 4815.89 1.25441 -3.21494 0
M  V30 49342 C 4815 0.555793 -4.2841 0
M  V30 49343 C 4814.14 1.57494 -5.07315 0
M  V30 49344 C 4813.18 0.860285 -6.06024 0
M  V30 49345 N 4812.32 1.8254 -6.77955 0
M  V30 49346 H 4817.16 -0.483553 -2.94051 0
M  V30 49347 H 4814.69 -0.250298 -1.44955 0
M  V30 49348 H 4816.65 1.86714 -3.73087 0
M  V30 49349 H 4815.28 1.92519 -2.59107 0
M  V30 49350 H 4814.33 -0.171072 -3.80015 0
M  V30 49351 H 4815.64 -0.00492151 -4.988 0
M  V30 49352 H 4814.8 2.26171 -5.62967 0
M  V30 49353 H 4813.54 2.16956 -4.36785 0
M  V30 49354 H 4812.54 0.159493 -5.49569 0
M  V30 49355 H 4813.77 0.271658 -6.78556 0
M  V30 49356 H 4811.71 2.40893 -6.10169 0
M  V30 49357 H 4811.63 1.31636 -7.44452 0
M  V30 49358 H 4812.9 2.50388 -7.38191 0
M  V30 49359 N 4817.13 1.55192 -0.274461 0
M  V30 49360 C 4818.36 2.03989 0.345872 0
M  V30 49361 C 4818.77 1.15284 1.49516 0
M  V30 49362 O 4818.13 0.172822 1.8168 0
M  V30 49363 C 4818.18 3.51901 0.827507 0
M  V30 49364 O 4817.9 4.3723 -0.276008 0
M  V30 49365 C 4819.4 4.16582 1.51572 0
M  V30 49366 H 4816.62 0.666337 0.0789657 0
M  V30 49367 H 4819.16 2.00422 -0.406365 0
M  V30 49368 H 4817.32 3.55914 1.52984 0
M  V30 49369 H 4817.73 5.24415 0.0941794 0
M  V30 49370 H 4819.21 5.21684 1.80415 0
M  V30 49371 H 4819.68 3.64715 2.44703 0
M  V30 49372 H 4820.29 4.16571 0.857262 0
M  V30 49373 N 4818.61 0.00173253 1.576 0
M  V30 49374 C 4819.83 -0.693691 1.94924 0
M  V30 49375 C 4820.25 -1.67211 0.876685 0
M  V30 49376 O 4819.61 -1.81929 -0.144215 0
M  V30 49377 C 4819.66 -1.42405 3.3227 0
M  V30 49378 O 4819.38 -0.484861 4.35409 0
M  V30 49379 C 4820.88 -2.21382 3.84064 0
M  V30 49380 H 4818.1 -0.193096 0.642616 0
M  V30 49381 H 4820.64 0.0533671 2.0443 0
M  V30 49382 H 4818.8 -2.12272 3.24067 0
M  V30 49383 H 4819.21 -1.00035 5.14872 0
M  V30 49384 H 4820.69 -2.67979 4.82588 0
M  V30 49385 H 4821.16 -3.04131 3.16861 0
M  V30 49386 H 4821.77 -1.56528 3.95448 0
M  V30 49387 N 4820.08 -1.55252 -0.271048 0
M  V30 49388 C 4821.33 -1.75602 -1.00041 0
M  V30 49389 C 4821.65 -0.561253 -1.86748 0
M  V30 49390 O 4820.92 0.423779 -1.91261 0
M  V30 49391 H 4819.5 -0.647575 -0.372364 0
M  V30 49392 H 4822.17 -1.92657 -0.294809 0
M  V30 49393 H 4821.26 -2.65772 -1.63621 0
M  V30 49394 N 4821.56 0.535649 -1.48218 0
M  V30 49395 C 4822.79 1.31666 -1.59599 0
M  V30 49396 C 4823.21 1.87082 -0.254122 0
M  V30 49397 O 4822.56 1.66114 0.755795 0
M  V30 49398 C 4822.61 2.47149 -2.63817 0
M  V30 49399 O 4822.33 1.94018 -3.92796 0
M  V30 49400 C 4823.84 3.39052 -2.85585 0
M  V30 49401 H 4821.06 0.400604 -0.538291 0
M  V30 49402 H 4823.6 0.646758 -1.94003 0
M  V30 49403 H 4821.75 3.10035 -2.32287 0
M  V30 49404 H 4822.17 2.69569 -4.49925 0
M  V30 49405 H 4823.64 4.16446 -3.62321 0
M  V30 49406 H 4824.12 3.93934 -1.94198 0
M  V30 49407 H 4824.73 2.81964 -3.18397 0
M  V30 49408 N 4823.04 1.36711 0.784084 0
M  V30 49409 C 4823.99 1.3154 1.91833 0
M  V30 49410 C 4824.98 0.206264 1.6814 0
M  V30 49411 O 4826.19 0.373581 1.76081 0
M  V30 49412 H 4822.56 0.409635 0.630637 0
M  V30 49413 H 4824.53 2.27317 1.93312 0
M  V30 49414 C 4823.28 1.12691 3.28932 0
M  V30 49415 H 4822.61 1.97286 3.47733 0
M  V30 49416 H 4824.05 1.13121 4.08632 0
M  V30 49417 C 4822.51 -0.168162 3.3648 0
M  V30 49418 O 4823.04 -1.15612 3.84704 0
M  V30 49419 N 4821.24 -0.21466 2.89806 0
M  V30 49420 H 4820.79 0.58994 2.50754 0
M  V30 49421 H 4820.75 -1.08083 2.95238 0
M  V30 49422 N 4824.52 -1.00885 1.21078 0
M  V30 49423 C 4825.47 -2.09585 0.966585 0
M  V30 49424 C 4826.44 -1.65761 -0.106031 0
M  V30 49425 O 4827.62 -1.90757 0.0402958 0
M  V30 49426 C 4824.76 -3.40956 0.533178 0
M  V30 49427 C 4823.87 -3.98214 1.67481 0
M  V30 49428 C 4823.01 -5.17677 1.19094 0
M  V30 49429 C 4822.05 -5.67035 2.30516 0
M  V30 49430 N 4821.18 -6.77753 1.83291 0
M  V30 49431 H 4826.02 -2.29808 1.89716 0
M  V30 49432 H 4823.56 -1.12686 0.945528 0
M  V30 49433 H 4825.52 -4.16369 0.263166 0
M  V30 49434 H 4824.15 -3.20782 -0.360393 0
M  V30 49435 H 4823.2 -3.19823 2.05955 0
M  V30 49436 H 4824.51 -4.30841 2.51351 0
M  V30 49437 H 4823.67 -6.00323 0.877362 0
M  V30 49438 H 4822.41 -4.86634 0.322237 0
M  V30 49439 H 4821.41 -4.82989 2.62681 0
M  V30 49440 H 4822.64 -6.0011 3.17876 0
M  V30 49441 H 4820.58 -6.48524 0.987584 0
M  V30 49442 H 4820.5 -7.09614 2.60736 0
M  V30 49443 H 4821.77 -7.63943 1.54955 0
M  V30 49444 N 4826 -1.01791 -1.20318 0
M  V30 49445 C 4827.22 -0.727262 -1.93697 0
M  V30 49446 C 4827.64 0.712244 -1.7485 0
M  V30 49447 O 4827 1.48323 -1.06332 0
M  V30 49448 C 4827.05 -1.0551 -3.4576 0
M  V30 49449 O 4826.77 -2.43806 -3.63992 0
M  V30 49450 C 4828.27 -0.785687 -4.36282 0
M  V30 49451 H 4825.49 -0.26696 -0.615608 0
M  V30 49452 H 4828.03 -1.35944 -1.52773 0
M  V30 49453 H 4826.19 -0.468293 -3.84559 0
M  V30 49454 H 4826.6 -2.55672 -4.57965 0
M  V30 49455 H 4828.08 -1.06514 -5.41626 0
M  V30 49456 H 4828.55 0.280119 -4.38306 0
M  V30 49457 H 4829.16 -1.3547 -4.03147 0
M  V30 49458 N 4827.47 1.36119 -0.794317 0
M  V30 49459 C 4828.4 2.3255 -0.21041 0
M  V30 49460 C 4829.39 1.56886 0.657331 0
M  V30 49461 O 4830.57 1.85016 0.590142 0
M  V30 49462 C 4827.7 3.41131 0.651699 0
M  V30 49463 C 4826.65 4.27841 -0.116545 0
M  V30 49464 C 4825.98 5.27633 0.866474 0
M  V30 49465 C 4827.28 5.05642 -1.30855 0
M  V30 49466 H 4828.97 2.81633 -1.01604 0
M  V30 49467 H 4826.52 1.35406 -0.490029 0
M  V30 49468 H 4828.47 4.07585 1.07016 0
M  V30 49469 H 4827.2 2.90627 1.49008 0
M  V30 49470 H 4825.86 3.6295 -0.516043 0
M  V30 49471 H 4825.5 4.73401 1.70002 0
M  V30 49472 H 4825.2 5.86515 0.356844 0
M  V30 49473 H 4826.73 5.9696 1.2834 0
M  V30 49474 H 4828.14 5.6511 -0.965592 0
M  V30 49475 H 4826.54 5.73961 -1.75181 0
M  V30 49476 H 4827.61 4.36999 -2.10143 0
M  V30 49477 N 4828.95 0.546753 1.47812 0
M  V30 49478 C 4829.88 -0.195235 2.32682 0
M  V30 49479 C 4830.86 -0.918931 1.43142 0
M  V30 49480 O 4832.05 -0.90144 1.72011 0
M  V30 49481 C 4829.18 -1.23225 3.24704 0
M  V30 49482 C 4828.13 -0.625669 4.23402 0
M  V30 49483 C 4827.46 -1.76656 5.04675 0
M  V30 49484 C 4828.76 0.413698 5.20659 0
M  V30 49485 H 4830.45 0.513288 2.94967 0
M  V30 49486 H 4828 0.24829 1.41843 0
M  V30 49487 H 4829.95 -1.75941 3.82913 0
M  V30 49488 H 4828.68 -1.97058 2.60453 0
M  V30 49489 H 4827.33 -0.119894 3.66404 0
M  V30 49490 H 4826.98 -2.49367 4.36835 0
M  V30 49491 H 4826.68 -1.36653 5.71489 0
M  V30 49492 H 4828.21 -2.29718 5.6574 0
M  V30 49493 H 4829.62 -0.0270027 5.73294 0
M  V30 49494 H 4828.02 0.732034 5.95618 0
M  V30 49495 H 4829.09 1.31342 4.66773 0
M  V30 49496 N 4830.43 -1.55044 0.282687 0
M  V30 49497 C 4831.68 -1.98939 -0.332598 0
M  V30 49498 C 4831.99 -1.1746 -1.56405 0
M  V30 49499 O 4833.2 -1.51535 -2.25276 0
M  V30 49500 C 4831.65 -3.54108 -0.643101 0
M  V30 49501 C 4831.26 -4.44372 0.568971 0
M  V30 49502 C 4833.01 -4.06573 -1.22059 0
M  V30 49503 C 4830.91 -5.90942 0.232634 0
M  V30 49504 H 4829.84 -0.743047 -0.128049 0
M  V30 49505 H 4832.49 -1.7934 0.388527 0
M  V30 49506 H 4830.88 -3.69537 -1.42333 0
M  V30 49507 H 4832.05 -4.40714 1.34566 0
M  V30 49508 H 4830.37 -4.02581 1.06383 0
M  V30 49509 H 4832.96 -5.13631 -1.48617 0
M  V30 49510 H 4833.31 -3.56064 -2.15694 0
M  V30 49511 H 4833.84 -3.94614 -0.502483 0
M  V30 49512 H 4830.58 -6.45563 1.13706 0
M  V30 49513 H 4830.1 -5.97652 -0.507147 0
M  V30 49514 H 4831.78 -6.4677 -0.172429 0
M  V30 49515 N 4831.91 -0.0100904 -1.57597 0
M  V30 49516 C 4833.13 0.686953 -1.95693 0
M  V30 49517 C 4833.56 1.65949 -0.885577 0
M  V30 49518 O 4832.92 1.80633 0.155367 0
M  V30 49519 C 4832.96 1.38628 -3.32888 0
M  V30 49520 O 4832.07 2.50103 -3.27906 0
M  V30 49521 H 4831.41 0.181966 -0.63858 0
M  V30 49522 H 4833.94 -0.0662841 -2.04493 0
M  V30 49523 H 4833.95 1.74742 -3.68686 0
M  V30 49524 H 4832.62 0.673267 -4.10414 0
M  V30 49525 H 4831.2 2.16242 -3.03799 0
M  V30 49526 N 4833.39 1.55393 0.262811 0
M  V30 49527 C 4834.61 1.80516 1.01102 0
M  V30 49528 C 4835.03 0.583596 1.79554 0
M  V30 49529 O 4834.39 -0.447523 1.76928 0
M  V30 49530 C 4834.44 3.03655 1.96153 0
M  V30 49531 O 4834.16 4.21094 1.20878 0
M  V30 49532 C 4835.66 3.41458 2.82703 0
M  V30 49533 H 4832.88 0.60109 0.298214 0
M  V30 49534 H 4835.42 2.02426 0.29051 0
M  V30 49535 H 4833.58 2.83841 2.63653 0
M  V30 49536 H 4833.99 4.90778 1.85033 0
M  V30 49537 H 4835.47 4.30764 3.45176 0
M  V30 49538 H 4835.94 2.6132 3.52999 0
M  V30 49539 H 4836.55 3.63566 2.2068 0
M  V30 49540 N 4834.87 -0.527781 1.485 0
M  V30 49541 C 4835.8 -1.6413 1.66083 0
M  V30 49542 C 4836.78 -1.62284 0.509682 0
M  V30 49543 O 4837.96 -1.79446 0.742476 0
M  V30 49544 C 4835.09 -3.02711 1.70244 0
M  V30 49545 C 4834.05 -3.19416 2.84881 0
M  V30 49546 C 4833.37 -4.5908 2.74134 0
M  V30 49547 C 4834.67 -3.01979 4.26153 0
M  V30 49548 H 4836.37 -1.4967 2.59305 0
M  V30 49549 H 4833.91 -0.71861 1.24788 0
M  V30 49550 H 4835.86 -3.80485 1.81133 0
M  V30 49551 H 4834.59 -3.18198 0.736023 0
M  V30 49552 H 4833.25 -2.4406 2.73551 0
M  V30 49553 H 4832.9 -4.71406 1.75456 0
M  V30 49554 H 4832.6 -4.71202 3.51059 0
M  V30 49555 H 4834.12 -5.3895 2.86993 0
M  V30 49556 H 4835.53 -3.69543 4.38305 0
M  V30 49557 H 4833.93 -3.25592 5.04093 0
M  V30 49558 H 4835 -1.9838 4.42463 0
M  V30 49559 N 4836.34 -1.37125 -0.776822 0
M  V30 49560 C 4837.29 -1.28996 -1.88 0
M  V30 49561 C 4838.28 -0.178821 -1.59903 0
M  V30 49562 O 4839.47 -0.412765 -1.7212 0
M  V30 49563 C 4836.6 -1.09413 -3.25398 0
M  V30 49564 C 4835.68 -2.25049 -3.59463 0
M  V30 49565 N 4836.08 -3.50419 -3.64746 0
M  V30 49566 C 4834.37 -2.17091 -3.89599 0
M  V30 49567 C 4835.07 -4.26642 -3.95413 0
M  V30 49568 N 4834.05 -3.55723 -4.1105 0
M  V30 49569 H 4837.85 -2.23946 -1.90329 0
M  V30 49570 H 4835.37 -1.30024 -0.973006 0
M  V30 49571 H 4837.36 -1.01675 -4.04312 0
M  V30 49572 H 4836.02 -0.153746 -3.24336 0
M  V30 49573 H 4837.03 -3.84393 -3.47077 0
M  V30 49574 H 4833.71 -1.31081 -3.96389 0
M  V30 49575 H 4835.1 -5.35121 -4.06319 0
M  V30 49576 N 4837.82 1.00242 -1.21611 0
M  V30 49577 C 4839.24 1.26432 -0.97402 0
M  V30 49578 C 4839.44 1.98644 0.338074 0
M  V30 49579 O 4838.49 2.2903 1.06309 0
M  V30 49580 C 4839.81 2.08543 -2.16634 0
M  V30 49581 C 4841.35 2.21761 -2.20887 0
M  V30 49582 C 4841.83 3.07255 -3.39644 0
M  V30 49583 N 4843.32 3.14843 -3.39747 0
M  V30 49584 C 4844.06 3.81259 -4.28286 0
M  V30 49585 N 4843.55 4.49681 -5.27028 0
M  V30 49586 N 4845.34 3.77925 -4.16088 0
M  V30 49587 H 4837.5 0.518016 -2.05986 0
M  V30 49588 H 4839.76 0.291336 -0.902124 0
M  V30 49589 H 4839.46 1.62836 -3.11733 0
M  V30 49590 H 4839.34 3.09296 -2.15908 0
M  V30 49591 H 4841.73 2.66687 -1.26342 0
M  V30 49592 H 4841.81 1.2047 -2.25656 0
M  V30 49593 H 4841.45 2.63032 -4.34484 0
M  V30 49594 H 4841.38 4.08666 -3.32114 0
M  V30 49595 H 4843.87 2.66138 -2.68289 0
M  V30 49596 H 4844.18 4.98071 -5.90885 0
M  V30 49597 H 4842.53 4.4846 -5.3095 0
M  V30 49598 H 4845.72 3.23626 -3.38206 0
M  V30 49599 H 4845.89 4.29407 -4.85297 0
M  V30 49600 N 4839.3 1.02428 1.19776 0
M  V30 49601 C 4840.71 0.748449 1.71041 0
M  V30 49602 C 4841.06 -0.732334 1.8202 0
M  V30 49603 O 4840.19 -1.57111 1.48812 0
M  V30 49604 C 4840.78 1.35198 3.10656 0
M  V30 49605 C 4839.34 1.12485 3.59199 0
M  V30 49606 C 4838.49 1.45291 2.3619 0
M  V30 49607 H 4841.44 1.19279 1.04682 0
M  V30 49608 H 4841.46 0.746539 3.73105 0
M  V30 49609 H 4840.97 2.42971 3.02633 0
M  V30 49610 H 4839.07 0.0651292 3.72543 0
M  V30 49611 H 4839.19 1.81031 4.43581 0
M  V30 49612 H 4837.55 0.872118 2.39304 0
M  V30 49613 H 4838.33 2.54137 2.30802 0
M  V30 49614 N 4840.78 -1.35696 0.801525 0
M  V30 49615 C 4841.71 -2.2768 0.154002 0
M  V30 49616 C 4842.69 -1.47834 -0.677038 0
M  V30 49617 O 4843.87 -1.77106 -0.645412 0
M  V30 49618 C 4841 -3.29433 -0.786871 0
M  V30 49619 C 4840.05 -4.26485 -0.0360948 0
M  V30 49620 S 4840.88 -5.19569 1.29648 0
M  V30 49621 C 4842.03 -6.24864 0.359925 0
M  V30 49622 H 4842.27 -2.82251 0.933899 0
M  V30 49623 H 4839.8 -1.42419 0.596333 0
M  V30 49624 H 4841.76 -3.88554 -1.32423 0
M  V30 49625 H 4840.42 -2.73751 -1.54011 0
M  V30 49626 H 4839.61 -4.98381 -0.750493 0
M  V30 49627 H 4839.21 -3.71507 0.431147 0
M  V30 49628 H 4841.51 -6.75959 -0.456716 0
M  V30 49629 H 4842.45 -7.00303 1.04793 0
M  V30 49630 H 4842.86 -5.64484 -0.0421289 0
M  V30 49631 N 4842.26 -0.554584 -1.4752 0
M  V30 49632 C 4843.53 0.0360017 -1.95567 0
M  V30 49633 C 4843.91 1.48823 -1.49716 0
M  V30 49634 O 4843.26 2.16363 -0.734793 0
M  V30 49635 C 4843.47 -0.106754 -3.48837 0
M  V30 49636 C 4844.82 0.0399407 -4.24581 0
M  V30 49637 O 4845.84 -0.0341705 -3.56184 0
M  V30 49638 O 4844.7 0.198919 -5.46138 0
M  V30 49639 H 4841.8 0.0656004 -0.824394 0
M  V30 49640 H 4844.34 -0.620922 -1.57932 0
M  V30 49641 H 4843.11 -1.11741 -3.75006 0
M  V30 49642 H 4842.74 0.587902 -3.9323 0
M  V30 49643 N 4843.73 1.54892 -0.290906 0
M  V30 49644 C 4844.66 2.26105 0.583004 0
M  V30 49645 C 4845.64 1.25688 1.14615 0
M  V30 49646 O 4846.83 1.54441 1.17736 0
M  V30 49647 C 4843.96 2.99416 1.75976 0
M  V30 49648 C 4842.91 4.06894 1.32744 0
M  V30 49649 C 4842.24 4.67865 2.58856 0
M  V30 49650 C 4843.54 5.20216 0.466057 0
M  V30 49651 H 4845.23 2.99398 -0.0109267 0
M  V30 49652 H 4842.78 1.43998 -0.0066953 0
M  V30 49653 H 4844.73 3.47951 2.37714 0
M  V30 49654 H 4843.46 2.23683 2.37977 0
M  V30 49655 H 4842.12 3.59194 0.733173 0
M  V30 49656 H 4841.76 3.88784 3.19149 0
M  V30 49657 H 4841.46 5.40446 2.30634 0
M  V30 49658 H 4842.99 5.19158 3.21414 0
M  V30 49659 H 4844.4 5.64708 0.988848 0
M  V30 49660 H 4842.8 5.99455 0.27805 0
M  V30 49661 H 4843.87 4.82196 -0.511342 0
M  V30 49662 N 4845.21 0.018448 1.57589 0
M  V30 49663 C 4846.16 -0.975872 2.0606 0
M  V30 49664 C 4847.15 -1.29201 0.958953 0
M  V30 49665 O 4848.34 -1.2799 1.2226 0
M  V30 49666 C 4845.47 -2.26185 2.58255 0
M  V30 49667 C 4844.55 -1.97454 3.7533 0
M  V30 49668 N 4844.94 -1.38951 4.8634 0
M  V30 49669 C 4843.24 -2.27502 3.83613 0
M  V30 49670 C 4843.94 -1.27111 5.67642 0
M  V30 49671 N 4842.92 -1.76301 5.14217 0
M  V30 49672 H 4846.72 -0.518342 2.89293 0
M  V30 49673 H 4844.23 -0.186823 1.61322 0
M  V30 49674 H 4846.23 -2.98279 2.91265 0
M  V30 49675 H 4844.89 -2.72574 1.76447 0
M  V30 49676 H 4845.9 -1.0659 5.06812 0
M  V30 49677 H 4842.58 -2.76638 3.12694 0
M  V30 49678 H 4843.97 -0.819648 6.66882 0
M  V30 49679 N 4846.69 -1.5553 -0.254567 0
M  V30 49680 C 4847.94 -1.77265 -0.985131 0
M  V30 49681 C 4848.27 -0.582351 -1.85263 0
M  V30 49682 O 4847.54 0.419599 -1.8992 0
M  V30 49683 C 4847.83 -3.08817 -1.85214 0
M  V30 49684 C 4847.68 -4.38237 -1.01334 0
M  V30 49685 C 4849 -3.3654 -2.836 0
M  V30 49686 H 4846.12 -0.644919 -0.356719 0
M  V30 49687 H 4848.76 -1.88265 -0.256169 0
M  V30 49688 H 4846.91 -2.9957 -2.47366 0
M  V30 49689 H 4848.58 -4.59464 -0.411108 0
M  V30 49690 H 4846.82 -4.32637 -0.317422 0
M  V30 49691 H 4847.5 -5.2665 -1.6536 0
M  V30 49692 H 4849.97 -3.45699 -2.31584 0
M  V30 49693 H 4848.85 -4.29817 -3.41392 0
M  V30 49694 H 4849.11 -2.57077 -3.59672 0
M  V30 49695 N 4848.17 0.519898 -1.48778 0
M  V30 49696 C 4849.41 1.27517 -1.57308 0
M  V30 49697 C 4849.74 1.92868 -0.251396 0
M  V30 49698 O 4849 1.80374 0.75918 0
M  V30 49699 C 4849.3 2.37854 -2.66758 0
M  V30 49700 C 4848.96 1.90088 -4.08873 0
M  V30 49701 C 4847.62 1.76779 -4.47552 0
M  V30 49702 C 4849.98 1.54115 -4.97893 0
M  V30 49703 C 4847.3 1.25848 -5.73044 0
M  V30 49704 C 4849.66 1.04643 -6.23885 0
M  V30 49705 C 4848.32 0.899591 -6.6141 0
M  V30 49706 H 4847.59 0.466616 -0.57563 0
M  V30 49707 H 4850.24 0.579045 -1.82536 0
M  V30 49708 H 4848.54 3.13178 -2.35429 0
M  V30 49709 H 4850.24 2.9596 -2.70571 0
M  V30 49710 H 4846.83 2.01401 -3.78333 0
M  V30 49711 H 4851.01 1.63253 -4.68681 0
M  V30 49712 H 4846.27 1.13175 -6.00834 0
M  V30 49713 H 4850.44 0.75883 -6.92253 0
M  V30 49714 H 4848.07 0.502744 -7.58536 0
M  V30 49715 N 4849.65 1.37535 0.769539 0
M  V30 49716 C 4850.6 1.29991 1.87314 0
M  V30 49717 C 4851.58 0.187298 1.59806 0
M  V30 49718 O 4852.77 0.421887 1.71899 0
M  V30 49719 C 4849.9 1.11137 3.24813 0
M  V30 49720 C 4848.99 2.26952 3.58265 0
M  V30 49721 N 4849.38 3.52349 3.62883 0
M  V30 49722 C 4847.68 2.19155 3.88442 0
M  V30 49723 C 4848.38 4.28733 3.93145 0
M  V30 49724 N 4847.35 3.57898 4.09158 0
M  V30 49725 H 4851.16 2.24953 1.89139 0
M  V30 49726 H 4848.67 1.30539 0.966097 0
M  V30 49727 H 4850.67 1.03818 4.03767 0
M  V30 49728 H 4849.33 0.170944 3.2425 0
M  V30 49729 H 4850.34 3.86228 3.45034 0
M  V30 49730 H 4847.01 1.33181 3.95688 0
M  V30 49731 H 4848.4 5.37268 4.03475 0
M  V30 49732 N 4851.12 -0.995956 1.22141 0
M  V30 49733 C 4852.09 -2.06708 0.990182 0
M  V30 49734 C 4853.09 -1.60745 -0.0422413 0
M  V30 49735 O 4854.28 -1.73094 0.195956 0
M  V30 49736 C 4851.41 -3.37287 0.495029 0
M  V30 49737 H 4852.6 -2.28654 1.94055 0
M  V30 49738 H 4850.16 -1.16707 1.03967 0
M  V30 49739 H 4850.89 -3.21023 -0.459835 0
M  V30 49740 H 4850.68 -3.71982 1.23984 0
M  V30 49741 H 4852.17 -4.16102 0.353399 0
M  V30 49742 N 4852.6 -1.03061 -1.19231 0
M  V30 49743 C 4853.53 -0.633576 -2.2474 0
M  V30 49744 C 4854.51 0.358276 -1.66284 0
M  V30 49745 O 4855.7 0.240608 -1.92704 0
M  V30 49746 C 4852.83 0.0146427 -3.47297 0
M  V30 49747 C 4851.78 -0.899674 -4.18437 0
M  V30 49748 C 4851.11 -0.116469 -5.34573 0
M  V30 49749 C 4852.41 -2.2142 -4.73044 0
M  V30 49750 H 4854.1 -1.51559 -2.58206 0
M  V30 49751 H 4851.65 -0.730183 -1.24114 0
M  V30 49752 H 4853.6 0.304055 -4.20302 0
M  V30 49753 H 4852.33 0.931467 -3.13036 0
M  V30 49754 H 4850.98 -1.17331 -3.47317 0
M  V30 49755 H 4850.63 0.802444 -4.96558 0
M  V30 49756 H 4850.33 -0.725498 -5.83104 0
M  V30 49757 H 4851.86 0.166161 -6.10374 0
M  V30 49758 H 4853.27 -1.9862 -5.37795 0
M  V30 49759 H 4851.67 -2.77531 -5.32068 0
M  V30 49760 H 4852.74 -2.86766 -3.91016 0
M  V30 49761 N 4854.08 1.35269 -0.80871 0
M  V30 49762 C 4855.5 1.51804 -0.492707 0
M  V30 49763 C 4855.7 1.75744 0.985716 0
M  V30 49764 O 4854.75 1.80009 1.77068 0
M  V30 49765 C 4856.07 2.69197 -1.33991 0
M  V30 49766 C 4857.61 2.83075 -1.33557 0
M  V30 49767 C 4858.09 4.03495 -2.16694 0
M  V30 49768 N 4859.58 4.10676 -2.14241 0
M  V30 49769 C 4860.31 5.02975 -2.75325 0
M  V30 49770 N 4859.81 6.00591 -3.45344 0
M  V30 49771 N 4861.6 4.95737 -2.64955 0
M  V30 49772 H 4853.75 1.17987 -1.76615 0
M  V30 49773 H 4856.02 0.57745 -0.751835 0
M  V30 49774 H 4855.72 2.58091 -2.38918 0
M  V30 49775 H 4855.6 3.6385 -0.994619 0
M  V30 49776 H 4857.98 2.9363 -0.294139 0
M  V30 49777 H 4858.07 1.89272 -1.72074 0
M  V30 49778 H 4857.71 3.937 -3.20878 0
M  V30 49779 H 4857.64 4.96483 -1.75535 0
M  V30 49780 H 4860.13 3.40797 -1.63297 0
M  V30 49781 H 4860.44 6.6762 -3.89235 0
M  V30 49782 H 4858.79 6.00758 -3.49449 0
M  V30 49783 H 4861.98 4.18431 -2.0984 0
M  V30 49784 H 4862.15 5.67476 -3.12849 0
M  V30 49785 N 4855.56 0.5624 1.47224 0
M  V30 49786 C 4856.49 -0.21993 2.28142 0
M  V30 49787 C 4857.5 -0.874547 1.37315 0
M  V30 49788 O 4858.69 -0.747526 1.62094 0
M  V30 49789 C 4855.79 -1.32942 3.11736 0
M  V30 49790 C 4854.97 -0.770608 4.30558 0
M  V30 49791 C 4854.02 -1.76524 4.95707 0
M  V30 49792 O 4853.05 -1.3093 5.53937 0
M  V30 49793 N 4854.25 -3.09879 4.90872 0
M  V30 49794 H 4857.02 0.474211 2.95925 0
M  V30 49795 H 4854.58 0.398816 1.56911 0
M  V30 49796 H 4856.57 -1.99365 3.52187 0
M  V30 49797 H 4855.14 -1.92672 2.46163 0
M  V30 49798 H 4854.36 0.0705441 3.94137 0
M  V30 49799 H 4855.65 -0.376694 5.07404 0
M  V30 49800 H 4855.05 -3.49561 4.44773 0
M  V30 49801 H 4853.6 -3.71846 5.35326 0
M  V30 49802 N 4857.04 -1.54735 0.299116 0
M  V30 49803 C 4858.45 -1.8569 -0.193906 0
M  V30 49804 C 4858.8 -1.22106 -1.53572 0
M  V30 49805 O 4857.92 -0.518064 -2.10107 0
M  V30 49806 C 4858.52 -3.36897 -0.358615 0
M  V30 49807 C 4857.08 -3.6789 -0.795857 0
M  V30 49808 C 4856.22 -2.77131 0.0969044 0
M  V30 49809 H 4859.18 -1.49932 0.520187 0
M  V30 49810 H 4859.2 -3.61298 -1.19348 0
M  V30 49811 H 4858.71 -3.83146 0.618133 0
M  V30 49812 H 4856.81 -3.27157 -1.78322 0
M  V30 49813 H 4856.92 -4.75116 -0.616551 0
M  V30 49814 H 4855.29 -2.51155 -0.423493 0
M  V30 49815 H 4856.07 -3.262 1.06997 0
M  V30 49816 N 4858.51 -0.0268051 -1.57577 0
M  V30 49817 C 4859.79 0.690862 -1.82993 0
M  V30 49818 C 4860.17 1.90468 -0.910231 0
M  V30 49819 O 4859.52 2.28474 0.0347182 0
M  V30 49820 C 4859.73 1.07127 -3.32152 0
M  V30 49821 C 4861.08 1.46388 -3.98567 0
M  V30 49822 O 4862.1 1.16431 -3.36634 0
M  V30 49823 O 4860.96 2.02196 -5.0772 0
M  V30 49824 H 4858.05 0.338721 -0.754452 0
M  V30 49825 H 4860.6 -0.0543102 -1.69613 0
M  V30 49826 H 4859.37 0.207256 -3.90751 0
M  V30 49827 H 4859 1.87468 -3.5063 0
M  V30 49828 N 4859.99 1.55663 0.246315 0
M  V30 49829 C 4861.24 1.77785 0.975716 0
M  V30 49830 C 4861.57 0.592168 1.84951 0
M  V30 49831 O 4860.85 -0.409521 1.9014 0
M  V30 49832 C 4861.13 3.09795 1.83573 0
M  V30 49833 C 4860.98 4.38768 0.990087 0
M  V30 49834 C 4862.3 3.38039 2.81812 0
M  V30 49835 H 4859.42 0.646801 0.353294 0
M  V30 49836 H 4862.06 1.88398 0.246182 0
M  V30 49837 H 4860.21 3.00878 2.45774 0
M  V30 49838 H 4861.88 4.59676 0.386736 0
M  V30 49839 H 4860.13 4.32799 0.294473 0
M  V30 49840 H 4860.8 5.27519 1.62565 0
M  V30 49841 H 4863.27 3.46923 2.29747 0
M  V30 49842 H 4862.15 4.31622 3.39107 0
M  V30 49843 H 4862.41 2.5898 3.58304 0
M  V30 49844 N 4861.47 -0.512001 1.49051 0
M  V30 49845 C 4862.88 -1.09371 1.51311 0
M  V30 49846 C 4863.23 -1.93999 0.293039 0
M  V30 49847 O 4862.36 -2.07967 -0.598204 0
M  V30 49848 C 4862.95 -1.99021 2.74183 0
M  V30 49849 C 4861.51 -2.52375 2.79256 0
M  V30 49850 C 4860.66 -1.2974 2.45077 0
M  V30 49851 H 4863.61 -0.296412 1.55907 0
M  V30 49852 H 4863.63 -2.8356 2.53721 0
M  V30 49853 H 4863.14 -1.374 3.62964 0
M  V30 49854 H 4861.24 -3.17667 1.94727 0
M  V30 49855 H 4861.36 -2.9028 3.81149 0
M  V30 49856 H 4859.72 -1.61906 1.96618 0
M  V30 49857 H 4860.5 -0.698437 3.3612 0
M  V30 49858 N 4862.95 -1.37941 -0.762235 0
M  V30 49859 C 4863.9 -1.34575 -1.89716 0
M  V30 49860 C 4864.89 -0.232988 -1.6779 0
M  V30 49861 O 4866.1 -0.401547 -1.75464 0
M  V30 49862 H 4862.47 -0.419616 -0.62404 0
M  V30 49863 H 4864.44 -2.30363 -1.89671 0
M  V30 49864 C 4863.19 -1.1791 -3.27097 0
M  V30 49865 H 4862.51 -2.02793 -3.44551 0
M  V30 49866 H 4863.95 -1.19607 -4.0678 0
M  V30 49867 C 4862.41 0.11461 -3.36705 0
M  V30 49868 O 4862.94 1.09477 -3.86494 0
M  V30 49869 N 4861.15 0.168528 -2.90111 0
M  V30 49870 H 4860.7 -0.629758 -2.49784 0
M  V30 49871 H 4860.65 1.03373 -2.9692 0
M  V30 49872 N 4864.43 0.989464 -1.22668 0
M  V30 49873 C 4865.38 2.06474 -0.967078 0
M  V30 49874 C 4866.36 1.60683 0.0835809 0
M  V30 49875 O 4867.55 1.76541 -0.127384 0
M  V30 49876 C 4864.68 3.38859 -0.550433 0
M  V30 49877 C 4863.77 3.91274 -1.63601 0
M  V30 49878 N 4864.16 4.16874 -2.86443 0
M  V30 49879 C 4862.46 4.19715 -1.50849 0
M  V30 49880 C 4863.16 4.59528 -3.56664 0
M  V30 49881 N 4862.13 4.63424 -2.84147 0
M  V30 49882 H 4865.94 2.24212 -1.90016 0
M  V30 49883 H 4863.45 1.17149 -1.12472 0
M  V30 49884 H 4865.45 4.15464 -0.345758 0
M  V30 49885 H 4864.11 3.22519 0.375709 0
M  V30 49886 H 4865.12 4.04965 -3.22837 0
M  V30 49887 H 4861.8 4.12428 -0.648788 0
M  V30 49888 H 4863.19 4.87928 -4.61926 0
M  V30 49889 N 4865.91 1.03692 1.18683 0
M  V30 49890 C 4867.32 0.766548 1.70238 0
M  V30 49891 C 4867.67 -0.712987 1.82787 0
M  V30 49892 O 4866.79 -1.55524 1.5047 0
M  V30 49893 C 4867.39 1.38485 3.09204 0
M  V30 49894 C 4865.95 1.16288 3.57986 0
M  V30 49895 C 4865.09 1.47788 2.34636 0
M  V30 49896 H 4868.04 1.20382 1.03411 0
M  V30 49897 H 4868.07 0.78607 3.72292 0
M  V30 49898 H 4867.58 2.46167 3.00039 0
M  V30 49899 H 4865.68 0.104639 3.72453 0
M  V30 49900 H 4865.79 1.85726 4.41636 0
M  V30 49901 H 4864.16 0.89745 2.38365 0
M  V30 49902 H 4864.94 2.5657 2.28093 0
M  V30 49903 N 4867.38 -1.34838 0.815872 0
M  V30 49904 C 4868.62 -2.0032 0.406367 0
M  V30 49905 C 4868.99 -1.63296 -1.00986 0
M  V30 49906 O 4870.19 -2.21568 -1.52188 0
M  V30 49907 C 4868.46 -3.52419 0.594593 0
M  V30 49908 S 4870.02 -4.37926 0.276889 0
M  V30 49909 H 4866.84 -0.69415 0.153873 0
M  V30 49910 H 4869.44 -1.64259 1.06015 0
M  V30 49911 H 4868.14 -3.76852 1.62513 0
M  V30 49912 H 4867.67 -3.9333 -0.0741774 0
M  V30 49913 H 4869.69 -4.87746 -0.912043 0
M  V30 49914 N 4868.86 -0.570199 -1.46923 0
M  V30 49915 C 4869.81 0.170176 -2.30172 0
M  V30 49916 C 4870.78 0.896049 -1.39858 0
M  V30 49917 O 4871.96 0.889188 -1.68814 0
M  V30 49918 C 4869.1 1.18593 -3.24083 0
M  V30 49919 C 4868.22 0.464796 -4.29492 0
M  V30 49920 C 4867.35 1.46698 -5.10542 0
M  V30 49921 C 4866.39 0.731545 -6.07713 0
M  V30 49922 N 4865.53 1.68118 -6.81675 0
M  V30 49923 H 4870.37 -0.545816 -2.92959 0
M  V30 49924 H 4867.9 -0.280988 -1.44391 0
M  V30 49925 H 4869.86 1.78758 -3.76963 0
M  V30 49926 H 4868.49 1.8698 -2.63132 0
M  V30 49927 H 4867.54 -0.25164 -3.79567 0
M  V30 49928 H 4868.86 -0.110723 -4.98677 0
M  V30 49929 H 4868.01 2.14179 -5.67637 0
M  V30 49930 H 4866.75 2.07643 -4.41289 0
M  V30 49931 H 4865.75 0.0428854 -5.49783 0
M  V30 49932 H 4866.98 0.127665 -6.7898 0
M  V30 49933 H 4864.93 2.27896 -6.15142 0
M  V30 49934 H 4864.84 1.15815 -7.47076 0
M  V30 49935 H 4866.11 2.34673 -7.43336 0
M  V30 49936 N 4870.34 1.54575 -0.307318 0
M  V30 49937 C 4871.59 2.00561 0.300542 0
M  V30 49938 C 4871.92 1.19535 1.53052 0
M  V30 49939 O 4871.19 0.273438 1.92568 0
M  V30 49940 C 4871.48 3.54169 0.650863 0
M  V30 49941 C 4871.33 4.45931 -0.588696 0
M  V30 49942 C 4872.65 4.1465 1.47491 0
M  V30 49943 H 4869.77 0.729079 0.107763 0
M  V30 49944 H 4872.41 1.85285 -0.420671 0
M  V30 49945 H 4870.56 3.67317 1.26531 0
M  V30 49946 H 4872.23 4.44679 -1.22712 0
M  V30 49947 H 4870.47 4.1627 -1.22073 0
M  V30 49948 H 4871.15 5.51188 -0.299347 0
M  V30 49949 H 4873.62 4.04977 0.955678 0
M  V30 49950 H 4872.5 5.22274 1.6888 0
M  V30 49951 H 4872.76 3.66929 2.46607 0
M  V30 49952 N 4871.82 0.0351614 1.57561 0
M  V30 49953 C 4872.77 -0.962633 2.11745 0
M  V30 49954 C 4873.76 -1.33292 1.04544 0
M  V30 49955 O 4874.97 -1.31445 1.22972 0
M  V30 49956 H 4871.34 -0.328236 0.676583 0
M  V30 49957 H 4873.31 -0.480376 2.94508 0
M  V30 49958 C 4872.06 -2.23379 2.66453 0
M  V30 49959 H 4871.38 -1.95762 3.48593 0
M  V30 49960 H 4872.82 -2.91391 3.08005 0
M  V30 49961 C 4871.28 -2.96764 1.59477 0
M  V30 49962 O 4871.81 -3.89102 0.998136 0
M  V30 49963 N 4870.02 -2.59207 1.31378 0
M  V30 49964 H 4869.57 -1.84195 1.80083 0
M  V30 49965 H 4869.52 -3.08616 0.600282 0
M  V30 49966 N 4873.3 -1.55792 -0.238056 0
M  V30 49967 C 4874.24 -1.9189 -1.31457 0
M  V30 49968 C 4875.24 -0.798981 -1.49374 0
M  V30 49969 O 4876.44 -0.983679 -1.50744 0
M  V30 49970 H 4872.82 -0.609566 -0.440378 0
M  V30 49971 H 4874.79 -2.8175 -0.982826 0
M  V30 49972 C 4873.54 -2.23772 -2.66123 0
M  V30 49973 H 4872.86 -3.09453 -2.53138 0
M  V30 49974 H 4874.3 -2.52927 -3.403 0
M  V30 49975 C 4872.76 -1.0571 -3.19886 0
M  V30 49976 O 4873.29 -0.309664 -4.00505 0
M  V30 49977 N 4871.5 -0.845349 -2.78033 0
M  V30 49978 H 4871.04 -1.45487 -2.12582 0
M  V30 49979 H 4871 -0.0571078 -3.14348 0
M  V30 49980 N 4874.77 0.504089 -1.49321 0
M  V30 49981 C 4876.02 1.25592 -1.58338 0
M  V30 49982 C 4876.34 1.93113 -0.270606 0
M  V30 49983 O 4875.61 1.82588 0.709827 0
M  V30 49984 H 4874.19 0.46655 -0.583386 0
M  V30 49985 H 4876.85 0.584481 -1.8593 0
M  V30 49986 H 4875.95 2.0215 -2.37785 0
M  V30 49987 N 4876.25 1.38343 0.754909 0
M  V30 49988 C 4877.5 1.34213 1.511 0
M  V30 49989 C 4877.82 -0.0676949 1.94882 0
M  V30 49990 O 4877.09 -1.01512 1.67548 0
M  V30 49991 H 4875.67 0.493838 0.560476 0
M  V30 49992 H 4878.33 1.73008 0.897446 0
M  V30 49993 H 4877.43 1.99211 2.40253 0
M  V30 49994 N 4877.73 -0.982945 1.23191 0
M  V30 49995 C 4878.97 -1.73899 1.07418 0
M  V30 49996 C 4879.33 -1.88147 -0.382698 0
M  V30 49997 O 4880.53 -2.60532 -0.661547 0
M  V30 49998 C 4878.81 -3.10099 1.77689 0
M  V30 49999 S 4880.36 -4.01317 1.77455 0
M  V30 50000 H 4877.18 -0.598079 0.384477 0
M  V30 50001 H 4879.78 -1.1745 1.56287 0
M  V30 50002 H 4878.49 -2.97378 2.82833 0
M  V30 50003 H 4878.02 -3.71617 1.2909 0
M  V30 50004 H 4880.03 -4.89186 0.831334 0
M  V30 50005 N 4879.21 -1.0432 -1.18132 0
M  V30 50006 C 4880.43 -0.768115 -1.92652 0
M  V30 50007 C 4880.86 0.668978 -1.75802 0
M  V30 50008 O 4880.22 1.46369 -1.06986 0
M  V30 50009 C 4880.26 -1.14251 -3.42022 0
M  V30 50010 O 4879.37 -0.269478 -4.11519 0
M  V30 50011 H 4878.71 -0.282458 -0.600927 0
M  V30 50012 H 4881.24 -1.39372 -1.49789 0
M  V30 50013 H 4881.25 -1.10552 -3.92737 0
M  V30 50014 H 4879.92 -2.1894 -3.53607 0
M  V30 50015 H 4878.5 -0.366306 -3.71096 0
M  V30 50016 N 4880.69 1.34403 -0.823012 0
M  V30 50017 C 4881.63 2.31428 -0.233246 0
M  V30 50018 C 4882.63 1.57407 0.626063 0
M  V30 50019 O 4883.83 1.72404 0.517393 0
M  V30 50020 H 4880.21 0.749861 -0.0566821 0
M  V30 50021 H 4882.18 2.78695 -1.06638 0
M  V30 50022 C 4880.93 3.42655 0.590143 0
M  V30 50023 H 4880.25 3.99752 -0.0617534 0
M  V30 50024 H 4881.69 4.12781 0.968909 0
M  V30 50025 C 4880.15 2.87118 1.76252 0
M  V30 50026 O 4880.68 2.82005 2.8607 0
M  V30 50027 N 4878.89 2.4394 1.57929 0
M  V30 50028 H 4878.43 2.48298 0.685991 0
M  V30 50029 H 4878.39 2.07132 2.36525 0
M  V30 50030 N 4882.16 0.577983 1.46619 0
M  V30 50031 C 4883.09 -0.145835 2.33044 0
M  V30 50032 C 4884.08 -0.888361 1.45059 0
M  V30 50033 O 4885.26 -0.864751 1.73884 0
M  V30 50034 C 4882.39 -1.1631 3.27245 0
M  V30 50035 C 4881.34 -0.535718 4.24634 0
M  V30 50036 C 4880.67 -1.65912 5.08308 0
M  V30 50037 C 4881.97 0.524044 5.19664 0
M  V30 50038 H 4883.66 0.575739 2.93812 0
M  V30 50039 H 4881.21 0.278322 1.41285 0
M  V30 50040 H 4883.16 -1.6778 3.86559 0
M  V30 50041 H 4881.89 -1.91489 2.64574 0
M  V30 50042 H 4880.55 -0.042147 3.66576 0
M  V30 50043 H 4880.19 -2.40045 4.42026 0
M  V30 50044 H 4879.89 -1.245 5.74259 0
M  V30 50045 H 4881.42 -2.17666 5.70486 0
M  V30 50046 H 4882.83 0.0946075 5.73222 0
M  V30 50047 H 4881.23 0.858209 5.93932 0
M  V30 50048 H 4882.3 1.41213 4.63882 0
M  V30 50049 N 4883.64 -1.54409 0.315511 0
M  V30 50050 C 4884.88 -2.0233 -0.290165 0
M  V30 50051 C 4885.25 -1.19884 -1.49973 0
M  V30 50052 O 4886.45 -1.5757 -2.17773 0
M  V30 50053 C 4884.72 -3.51914 -0.623813 0
M  V30 50054 S 4886.28 -4.21779 -1.21029 0
M  V30 50055 H 4883.1 -0.705502 -0.0882491 0
M  V30 50056 H 4885.7 -1.90327 0.446761 0
M  V30 50057 H 4884.4 -4.09545 0.264768 0
M  V30 50058 H 4883.93 -3.67982 -1.39115 0
M  V30 50059 H 4885.95 -4.28765 -2.49749 0
M  V30 50060 N 4885.12 -0.0435168 -1.5754 0
M  V30 50061 C 4886.05 0.931576 -2.14112 0
M  V30 50062 C 4887.03 1.32967 -1.06084 0
M  V30 50063 O 4888.22 1.40574 -1.33987 0
M  V30 50064 C 4885.35 2.20904 -2.6799 0
M  V30 50065 C 4884.3 1.95126 -3.80933 0
M  V30 50066 C 4883.63 3.29261 -4.21297 0
M  V30 50067 C 4884.93 1.27895 -5.06399 0
M  V30 50068 H 4886.62 0.460393 -2.95839 0
M  V30 50069 H 4884.17 0.220008 -1.42309 0
M  V30 50070 H 4886.12 2.89512 -3.06204 0
M  V30 50071 H 4884.84 2.70215 -1.83444 0
M  V30 50072 H 4883.5 1.28932 -3.43179 0
M  V30 50073 H 4883.15 3.76358 -3.33712 0
M  V30 50074 H 4882.85 3.12814 -4.97415 0
M  V30 50075 H 4884.37 3.99113 -4.62105 0
M  V30 50076 H 4885.79 1.86525 -5.42108 0
M  V30 50077 H 4884.19 1.21799 -5.8761 0
M  V30 50078 H 4885.26 0.253895 -4.84235 0
M  V30 50079 N 4886.6 1.55916 0.229791 0
M  V30 50080 C 4887.53 1.94758 1.28808 0
M  V30 50081 C 4888.51 0.814709 1.4932 0
M  V30 50082 O 4889.69 1.07636 1.61642 0
M  V30 50083 C 4886.82 2.25714 2.63951 0
M  V30 50084 C 4885.78 3.41415 2.58108 0
M  V30 50085 C 4885.1 3.57955 3.97206 0
M  V30 50086 C 4886.4 4.76623 2.13606 0
M  V30 50087 H 4888.1 2.83407 0.965448 0
M  V30 50088 H 4885.64 1.36354 0.46298 0
M  V30 50089 H 4887.6 2.51478 3.38137 0
M  V30 50090 H 4886.32 1.3391 2.97885 0
M  V30 50091 H 4884.98 3.15687 1.8638 0
M  V30 50092 H 4884.63 2.63541 4.28433 0
M  V30 50093 H 4884.33 4.3577 3.9418 0
M  V30 50094 H 4885.85 3.86059 4.73066 0
M  V30 50095 H 4887.27 5.01647 2.77531 0
M  V30 50096 H 4885.66 5.57663 2.21657 0
M  V30 50097 H 4886.73 4.72534 1.08812 0
M  V30 50098 N 4888.08 -0.496163 1.49586 0
M  V30 50099 C 4889.3 -1.27859 1.633 0
M  V30 50100 C 4889.73 -1.85591 0.306221 0
M  V30 50101 O 4889.08 -1.66095 -0.726792 0
M  V30 50102 C 4889.13 -2.38119 2.70799 0
M  V30 50103 O 4888.24 -3.421 2.30308 0
M  V30 50104 H 4887.58 -0.37726 0.546416 0
M  V30 50105 H 4890.11 -0.593428 1.95805 0
M  V30 50106 H 4890.12 -2.8381 2.93114 0
M  V30 50107 H 4888.79 -1.95466 3.67105 0
M  V30 50108 H 4887.37 -3.02294 2.18341 0
M  V30 50109 N 4889.55 -1.38742 -0.747561 0
M  V30 50110 C 4890.97 -1.31512 -1.3252 0
M  V30 50111 C 4891.32 0.0263273 -1.96182 0
M  V30 50112 O 4890.44 0.928422 -1.95472 0
M  V30 50113 C 4891.04 -2.3817 -2.40957 0
M  V30 50114 C 4889.6 -2.345 -2.94426 0
M  V30 50115 C 4888.74 -2.20718 -1.67866 0
M  V30 50116 H 4891.69 -1.49012 -0.54599 0
M  V30 50117 H 4891.71 -2.04234 -3.21043 0
M  V30 50118 H 4891.23 -3.3579 -1.94593 0
M  V30 50119 H 4889.33 -1.40479 -3.45103 0
M  V30 50120 H 4889.44 -3.28873 -3.48395 0
M  V30 50121 H 4887.8 -1.67673 -1.91723 0
M  V30 50122 H 4888.59 -3.20289 -1.23571 0
M  V30 50123 N 4891.03 0.976398 -1.2371 0
M  V30 50124 C 4892.28 1.71483 -1.06948 0
M  V30 50125 C 4892.6 1.90982 0.39383 0
M  V30 50126 O 4891.87 1.48133 1.28193 0
M  V30 50127 H 4890.45 0.635411 -0.392761 0
M  V30 50128 H 4893.11 1.1751 -1.55491 0
M  V30 50129 H 4892.21 2.70281 -1.5606 0
M  V30 50130 N 4892.51 1.04945 1.17577 0
M  V30 50131 C 4893.76 0.756557 1.87405 0
M  V30 50132 C 4894.08 -0.718414 1.81284 0
M  V30 50133 O 4893.35 -1.51896 1.23711 0
M  V30 50134 H 4891.93 0.276865 0.693797 0
M  V30 50135 H 4894.59 1.32808 1.42647 0
M  V30 50136 H 4893.69 1.06929 2.93211 0
M  V30 50137 N 4893.99 -1.33965 0.830128 0
M  V30 50138 C 4895.24 -1.97671 0.420803 0
M  V30 50139 C 4895.56 -1.66115 -1.02132 0
M  V30 50140 O 4894.83 -0.955563 -1.71014 0
M  V30 50141 H 4893.41 -0.731244 0.152613 0
M  V30 50142 H 4896.07 -1.63479 1.06116 0
M  V30 50143 H 4895.17 -3.07292 0.545696 0
M  V30 50144 N 4895.47 -0.585751 -1.4631 0
M  V30 50145 C 4896.42 0.166733 -2.2739 0
M  V30 50146 C 4897.4 0.859028 -1.3605 0
M  V30 50147 O 4898.59 0.752621 -1.60202 0
M  V30 50148 C 4895.72 1.17779 -3.22464 0
M  V30 50149 C 4894.81 0.487457 -4.21289 0
M  V30 50150 N 4895.2 -0.458667 -5.03716 0
M  V30 50151 C 4893.5 0.737817 -4.39855 0
M  V30 50152 C 4894.2 -0.862415 -5.75271 0
M  V30 50153 N 4893.17 -0.210898 -5.43191 0
M  V30 50154 H 4896.98 -0.560269 -2.8851 0
M  V30 50155 H 4894.49 -0.40777 -1.57197 0
M  V30 50156 H 4896.49 1.73109 -3.79261 0
M  V30 50157 H 4895.15 1.90558 -2.62902 0
M  V30 50158 H 4896.16 -0.834343 -5.11135 0
M  V30 50159 H 4892.84 1.45195 -3.91439 0
M  V30 50160 H 4894.23 -1.64151 -6.5154 0
M  V30 50161 N 4896.95 1.5424 -0.323695 0
M  V30 50162 C 4897.89 2.24341 0.542198 0
M  V30 50163 C 4898.86 1.23425 1.11155 0
M  V30 50164 O 4900.05 1.52108 1.15186 0
M  V30 50165 C 4897.19 3.00485 1.69715 0
M  V30 50166 C 4896.3 4.16218 1.15701 0
M  V30 50167 C 4895.44 4.79892 2.27766 0
M  V30 50168 C 4894.47 5.87728 1.71002 0
M  V30 50169 N 4893.61 6.45264 2.76729 0
M  V30 50170 H 4898.45 2.97935 -0.0621661 0
M  V30 50171 H 4895.99 1.47039 -0.042451 0
M  V30 50172 H 4897.95 3.42878 2.37678 0
M  V30 50173 H 4896.58 2.29225 2.27279 0
M  V30 50174 H 4895.63 3.78607 0.36893 0
M  V30 50175 H 4896.94 4.9384 0.701658 0
M  V30 50176 H 4896.09 5.25254 3.03633 0
M  V30 50177 H 4894.83 4.0165 2.76638 0
M  V30 50178 H 4893.84 5.41768 0.936327 0
M  V30 50179 H 4895.06 6.67867 1.23007 0
M  V30 50180 H 4893.01 5.69896 3.24892 0
M  V30 50181 H 4892.93 7.183 2.35757 0
M  V30 50182 H 4894.19 6.95282 3.52425 0
M  V30 50183 N 4898.42 0.0518709 1.57515 0
M  V30 50184 C 4899.66 -0.625644 1.94589 0
M  V30 50185 C 4900.03 -1.67967 0.930112 0
M  V30 50186 O 4901.23 -2.41131 1.18783 0
M  V30 50187 C 4899.5 -1.20562 3.36451 0
M  V30 50188 S 4901.06 -1.90104 3.95482 0
M  V30 50189 H 4897.88 -0.20541 0.680682 0
M  V30 50190 H 4900.48 0.120974 1.95125 0
M  V30 50191 H 4899.18 -0.426378 4.08179 0
M  V30 50192 H 4898.71 -1.98904 3.39412 0
M  V30 50193 H 4900.73 -3.18171 3.80765 0
M  V30 50194 N 4899.9 -1.56035 -0.221519 0
M  V30 50195 C 4900.86 -1.91588 -1.25803 0
M  V30 50196 C 4901.86 -0.794474 -1.39803 0
M  V30 50197 O 4903.05 -1.06222 -1.38067 0
M  V30 50198 C 4900.19 -2.16672 -2.63184 0
M  V30 50199 H 4901.38 -2.84294 -0.954835 0
M  V30 50200 H 4898.93 -1.49318 -0.461935 0
M  V30 50201 H 4899.67 -1.26519 -2.98603 0
M  V30 50202 H 4899.45 -2.98367 -2.544 0
M  V30 50203 H 4900.94 -2.45274 -3.3798 0
M  V30 50204 N 4901.38 0.488223 -1.49847 0
M  V30 50205 C 4902.62 1.25154 -1.61604 0
M  V30 50206 C 4902.98 1.89614 -0.301773 0
M  V30 50207 O 4904.18 2.6718 -0.294624 0
M  V30 50208 C 4902.46 2.28041 -2.75195 0
M  V30 50209 S 4904.01 3.13541 -3.06981 0
M  V30 50210 H 4900.83 0.425158 -0.569879 0
M  V30 50211 H 4903.43 0.551479 -1.87561 0
M  V30 50212 H 4902.14 1.79237 -3.69191 0
M  V30 50213 H 4901.67 3.02699 -2.51271 0
M  V30 50214 H 4903.68 4.28918 -2.49486 0
M  V30 50215 N 4902.86 1.39136 0.740193 0
M  V30 50216 C 4904.27 1.32213 1.31821 0
M  V30 50217 C 4904.62 -0.0159229 1.96194 0
M  V30 50218 O 4903.74 -0.918042 1.95962 0
M  V30 50219 C 4904.34 2.39445 2.39691 0
M  V30 50220 C 4902.9 2.36058 2.93178 0
M  V30 50221 C 4902.05 2.21605 1.66693 0
M  V30 50222 H 4905 1.493 0.53808 0
M  V30 50223 H 4905.02 2.05933 3.19956 0
M  V30 50224 H 4904.53 3.36818 1.9281 0
M  V30 50225 H 4902.63 1.42307 3.44354 0
M  V30 50226 H 4902.74 3.30716 3.46646 0
M  V30 50227 H 4901.11 1.68688 1.90831 0
M  V30 50228 H 4901.89 3.2094 1.21871 0
M  V30 50229 N 4904.34 -0.969824 1.24226 0
M  V30 50230 C 4905.56 -1.74752 1.10767 0
M  V30 50231 C 4905.98 -1.85714 -0.339976 0
M  V30 50232 O 4905.34 -1.34393 -1.23469 0
M  V30 50233 C 4905.39 -3.16909 1.73928 0
M  V30 50234 O 4905.11 -3.065 3.13032 0
M  V30 50235 C 4906.61 -4.11026 1.6605 0
M  V30 50236 H 4903.83 -0.548078 0.387107 0
M  V30 50237 H 4906.37 -1.21774 1.6429 0
M  V30 50238 H 4904.53 -3.66879 1.24412 0
M  V30 50239 H 4904.94 -3.96067 3.43848 0
M  V30 50240 H 4906.42 -5.08438 2.14929 0
M  V30 50241 H 4906.89 -4.34783 0.621312 0
M  V30 50242 H 4907.5 -3.66965 2.14982 0
M  V30 50243 N 4905.81 -1.05567 -1.17018 0
M  V30 50244 C 4906.76 -0.653965 -2.23218 0
M  V30 50245 C 4907.76 0.326584 -1.66222 0
M  V30 50246 O 4908.96 0.192238 -1.78971 0
M  V30 50247 H 4905.34 -0.193322 -0.726726 0
M  V30 50248 H 4907.31 -1.55969 -2.54394 0
M  V30 50249 C 4906.06 -0.0486656 -3.47666 0
M  V30 50250 H 4905.38 -0.794268 -3.91831 0
M  V30 50251 H 4906.82 0.194984 -4.23551 0
M  V30 50252 C 4905.28 1.20572 -3.14586 0
M  V30 50253 O 4905.81 2.29463 -3.29711 0
M  V30 50254 N 4904.01 1.10484 -2.68778 0
M  V30 50255 H 4903.56 0.218704 -2.5667 0
M  V30 50256 H 4903.52 1.94499 -2.47018 0
M  V30 50257 N 4907.29 1.33523 -0.837221 0
M  V30 50258 C 4908.54 1.97835 -0.432134 0
M  V30 50259 C 4908.87 1.66328 1.00823 0
M  V30 50260 O 4908.12 0.93454 1.71944 0
M  V30 50261 C 4908.42 3.52365 -0.597799 0
M  V30 50262 C 4908.09 4.03819 -2.00602 0
M  V30 50263 C 4906.75 4.17582 -2.39121 0
M  V30 50264 C 4909.1 4.31323 -2.92592 0
M  V30 50265 C 4906.43 4.56182 -3.68937 0
M  V30 50266 C 4908.78 4.71375 -4.21887 0
M  V30 50267 C 4907.44 4.83343 -4.60364 0
M  V30 50268 H 4906.71 0.723931 -0.158129 0
M  V30 50269 H 4909.36 1.59226 -1.06392 0
M  V30 50270 H 4907.67 3.91624 0.117314 0
M  V30 50271 H 4909.36 4.00126 -0.264681 0
M  V30 50272 H 4905.95 3.9358 -1.69685 0
M  V30 50273 H 4910.14 4.20215 -2.6407 0
M  V30 50274 H 4905.39 4.63641 -3.98556 0
M  V30 50275 H 4909.57 4.91613 -4.93243 0
M  V30 50276 H 4907.19 5.13011 -5.61003 0
M  V30 50277 N 4908.77 0.593501 1.45998 0
M  V30 50278 C 4910 0.0890367 2.06408 0
M  V30 50279 C 4910.41 -1.22592 1.4411 0
M  V30 50280 O 4909.75 -1.75446 0.54446 0
M  V30 50281 C 4909.81 -0.139776 3.59228 0
M  V30 50282 C 4909.48 1.09123 4.43781 0
M  V30 50283 C 4910.47 2.00594 4.79644 0
M  V30 50284 C 4908.16 1.3161 4.84752 0
M  V30 50285 C 4910.15 3.12892 5.55317 0
M  V30 50286 C 4907.84 2.44212 5.60182 0
M  V30 50287 C 4908.84 3.34682 5.9538 0
M  V30 50288 O 4908.53 4.45326 6.69283 0
M  V30 50289 H 4908.26 0.059485 0.673378 0
M  V30 50290 H 4910.81 0.817066 1.88449 0
M  V30 50291 H 4909.04 -0.92254 3.75534 0
M  V30 50292 H 4910.73 -0.594087 4.01529 0
M  V30 50293 H 4911.5 1.84441 4.48561 0
M  V30 50294 H 4907.38 0.620962 4.56799 0
M  V30 50295 H 4910.92 3.83532 5.82709 0
M  V30 50296 H 4906.82 2.60324 5.90679 0
M  V30 50297 H 4907.59 4.43829 6.87719 0
M  V30 50298 N 4910.25 -1.54066 0.33187 0
M  V30 50299 C 4911.18 -2.27571 -0.522852 0
M  V30 50300 C 4912.16 -1.28683 -1.11242 0
M  V30 50301 O 4913.34 -1.57508 -1.136 0
M  V30 50302 C 4910.47 -3.03976 -1.67976 0
M  V30 50303 C 4909.43 -4.10271 -1.21909 0
M  V30 50304 C 4908.75 -4.74564 -2.4636 0
M  V30 50305 C 4910.05 -5.21269 -0.327967 0
M  V30 50306 H 4911.75 -2.99264 0.0903029 0
M  V30 50307 H 4909.29 -1.4393 0.0448716 0
M  V30 50308 H 4911.25 -3.54131 -2.28406 0
M  V30 50309 H 4909.97 -2.29914 -2.31963 0
M  V30 50310 H 4908.63 -3.61011 -0.637682 0
M  V30 50311 H 4908.28 -3.97109 -3.08729 0
M  V30 50312 H 4907.98 -5.46371 -2.16224 0
M  V30 50313 H 4909.5 -5.27497 -3.07537 0
M  V30 50314 H 4910.92 -5.67131 -0.838778 0
M  V30 50315 H 4909.31 -5.99982 -0.119017 0
M  V30 50316 H 4910.38 -4.80671 0.639008 0
M  V30 50317 N 4911.73 -0.0602235 -1.57485 0
M  V30 50318 C 4912.97 0.610319 -1.92664 0
M  V30 50319 C 4913.3 1.70846 -0.940041 0
M  V30 50320 O 4912.57 1.95895 0.0136766 0
M  V30 50321 H 4911.15 0.228432 -0.711216 0
M  V30 50322 H 4913.81 -0.115357 -1.94558 0
M  V30 50323 H 4912.9 1.0431 -2.94153 0
M  V30 50324 N 4913.2 1.56151 0.213241 0
M  V30 50325 C 4914.43 1.83989 0.957218 0
M  V30 50326 C 4914.85 0.641588 1.7682 0
M  V30 50327 O 4914.21 -0.40966 1.76611 0
M  V30 50328 C 4914.26 3.09896 1.84382 0
M  V30 50329 O 4913.36 2.89174 2.94028 0
M  V30 50330 H 4912.71 0.606366 0.270584 0
M  V30 50331 H 4915.24 2.0337 0.22404 0
M  V30 50332 H 4915.25 3.40217 2.25203 0
M  V30 50333 H 4913.92 3.9674 1.24781 0
M  V30 50334 H 4912.5 2.70106 2.57094 0
M  V30 50335 N 4914.68 -0.48027 1.50104 0
M  V30 50336 C 4915.96 -1.24154 1.51146 0
M  V30 50337 C 4916.34 -2.09604 0.250891 0
M  V30 50338 O 4915.69 -2.15277 -0.766042 0
M  V30 50339 C 4915.9 -2.08047 2.80209 0
M  V30 50340 C 4917.25 -2.66545 3.30513 0
M  V30 50341 O 4918.27 -2.18298 2.81468 0
M  V30 50342 O 4917.13 -3.54427 4.15985 0
M  V30 50343 H 4914.22 -0.562907 0.605859 0
M  V30 50344 H 4916.77 -0.492842 1.62386 0
M  V30 50345 H 4915.54 -1.45019 3.63435 0
M  V30 50346 H 4915.16 -2.90069 2.71929 0
M  V30 50347 N 4916.16 -1.39527 -0.732804 0
M  V30 50348 C 4917.41 -1.366 -1.48946 0
M  V30 50349 C 4917.73 0.0366822 -1.94965 0
M  V30 50350 O 4917 0.988332 -1.69141 0
M  V30 50351 H 4915.58 -0.502692 -0.552548 0
M  V30 50352 H 4918.24 -1.74414 -0.869808 0
M  V30 50353 H 4917.34 -2.03008 -2.37053 0
M  V30 50354 N 4917.64 0.963222 -1.24739 0
M  V30 50355 C 4919.05 1.23269 -1.01375 0
M  V30 50356 C 4919.25 1.99619 0.274706 0
M  V30 50357 O 4918.31 2.32296 0.989688 0
M  V30 50358 C 4919.62 2.01546 -2.23159 0
M  V30 50359 C 4921.17 2.14621 -2.2783 0
M  V30 50360 C 4921.65 2.96294 -3.49247 0
M  V30 50361 N 4923.14 3.03875 -3.49591 0
M  V30 50362 C 4923.87 3.6744 -4.40199 0
M  V30 50363 N 4923.37 4.32687 -5.41067 0
M  V30 50364 N 4925.16 3.64496 -4.27901 0
M  V30 50365 H 4917.31 0.452221 -2.0753 0
M  V30 50366 H 4919.58 0.262488 -0.910936 0
M  V30 50367 H 4919.28 1.52836 -3.16756 0
M  V30 50368 H 4919.16 3.0227 -2.25638 0
M  V30 50369 H 4921.54 2.62532 -1.34762 0
M  V30 50370 H 4921.62 1.1323 -2.29374 0
M  V30 50371 H 4921.27 2.49076 -4.42633 0
M  V30 50372 H 4921.2 3.97893 -3.44947 0
M  V30 50373 H 4923.69 2.57468 -2.7662 0
M  V30 50374 H 4924 4.79021 -6.06431 0
M  V30 50375 H 4922.35 4.31341 -5.44949 0
M  V30 50376 H 4925.54 3.12703 -3.48331 0
M  V30 50377 H 4925.71 4.1375 -4.98713 0
M  V30 50378 N 4919.12 1.06186 1.16457 0
M  V30 50379 C 4920.34 0.79865 1.90864 0
M  V30 50380 C 4920.76 -0.646859 1.77373 0
M  V30 50381 O 4920.12 -1.44275 1.11764 0
M  V30 50382 C 4920.17 1.1827 3.41606 0
M  V30 50383 O 4919.89 2.57148 3.54692 0
M  V30 50384 C 4921.39 0.947069 4.33065 0
M  V30 50385 H 4918.61 0.289624 0.605276 0
M  V30 50386 H 4921.15 1.41521 1.47622 0
M  V30 50387 H 4919.31 0.610697 3.82556 0
M  V30 50388 H 4919.72 2.72493 4.4816 0
M  V30 50389 H 4921.2 1.26542 5.373 0
M  V30 50390 H 4921.67 -0.117252 4.39043 0
M  V30 50391 H 4922.28 1.5034 3.97842 0
M  V30 50392 N 4920.59 -1.33077 0.84429 0
M  V30 50393 C 4921.83 -1.99413 0.448767 0
M  V30 50394 C 4922.2 -1.65402 -0.975 0
M  V30 50395 O 4923.4 -2.24746 -1.47453 0
M  V30 50396 C 4921.67 -3.51079 0.669213 0
M  V30 50397 S 4923.23 -4.3724 0.369717 0
M  V30 50398 H 4920.05 -0.69073 0.168562 0
M  V30 50399 H 4922.65 -1.61974 1.09475 0
M  V30 50400 H 4921.35 -3.7332 1.7047 0
M  V30 50401 H 4920.88 -3.93399 0.00927041 0
M  V30 50402 H 4922.9 -4.89571 -0.80838 0
M  V30 50403 N 4922.07 -0.601236 -1.45681 0
M  V30 50404 C 4923.32 -0.0940914 -2.02582 0
M  V30 50405 C 4923.65 1.26967 -1.46946 0
M  V30 50406 O 4922.93 1.8361 -0.641677 0
M  V30 50407 C 4923.21 -0.0482981 -3.60068 0
M  V30 50408 C 4923.06 -1.44227 -4.2605 0
M  V30 50409 C 4924.38 0.642822 -4.3538 0
M  V30 50410 H 4921.5 -0.0356663 -0.736136 0
M  V30 50411 H 4924.14 -0.77199 -1.7361 0
M  V30 50412 H 4922.29 0.528993 -3.84882 0
M  V30 50413 H 4923.96 -2.06615 -4.12441 0
M  V30 50414 H 4922.21 -2.00479 -3.84696 0
M  V30 50415 H 4922.88 -1.36253 -5.3492 0
M  V30 50416 H 4925.35 0.152205 -4.15822 0
M  V30 50417 H 4924.23 0.64395 -5.4511 0
M  V30 50418 H 4924.49 1.70771 -4.07786 0
M  V30 50419 N 4923.55 1.53888 -0.340036 0
M  V30 50420 C 4924.78 2.05742 0.261725 0
M  V30 50421 C 4925.2 1.21359 1.43713 0
M  V30 50422 O 4924.56 0.226513 1.79879 0
M  V30 50423 C 4924.61 3.54544 0.658103 0
M  V30 50424 O 4923.71 3.73026 1.75855 0
M  V30 50425 H 4923.05 0.662531 0.0441439 0
M  V30 50426 H 4925.58 1.98566 -0.493231 0
M  V30 50427 H 4925.59 3.97113 0.936229 0
M  V30 50428 H 4924.27 4.15412 -0.201504 0
M  V30 50429 H 4922.84 3.4236 1.47797 0
M  V30 50430 N 4925.03 0.0685745 1.57451 0
M  V30 50431 C 4925.98 -0.917502 2.1374 0
M  V30 50432 C 4926.97 -1.31045 1.07348 0
M  V30 50433 O 4928.18 -1.28807 1.25733 0
M  V30 50434 H 4924.55 -0.313811 0.683393 0
M  V30 50435 H 4926.52 -0.417799 2.95461 0
M  V30 50436 C 4925.27 -2.17677 2.71131 0
M  V30 50437 H 4924.6 -1.88324 3.52667 0
M  V30 50438 H 4926.04 -2.84792 3.14117 0
M  V30 50439 C 4924.49 -2.93314 1.65736 0
M  V30 50440 O 4925.02 -3.86897 1.08045 0
M  V30 50441 N 4923.23 -2.56362 1.36846 0
M  V30 50442 H 4922.78 -1.80334 1.83949 0
M  V30 50443 H 4922.74 -3.07274 0.665609 0
M  V30 50444 N 4926.51 -1.56262 -0.204957 0
M  V30 50445 C 4927.75 -1.81826 -0.933742 0
M  V30 50446 C 4928.11 -0.644598 -1.80856 0
M  V30 50447 O 4929.31 -0.779909 -2.57237 0
M  V30 50448 C 4927.58 -3.12368 -1.73669 0
M  V30 50449 S 4929.14 -3.59305 -2.51884 0
M  V30 50450 H 4925.96 -0.63822 -0.313363 0
M  V30 50451 H 4928.56 -1.94495 -0.197933 0
M  V30 50452 H 4927.27 -3.95813 -1.08445 0
M  V30 50453 H 4926.8 -3.0255 -2.51449 0
M  V30 50454 H 4928.81 -3.23958 -3.75853 0
M  V30 50455 N 4927.99 0.472303 -1.50356 0
M  V30 50456 C 4929.21 1.24778 -1.65039 0
M  V30 50457 C 4929.63 1.85836 -0.333241 0
M  V30 50458 O 4928.99 1.6917 0.684661 0
M  V30 50459 C 4929.04 2.35737 -2.74063 0
M  V30 50460 O 4928.76 1.77183 -4.00672 0
M  V30 50461 C 4930.26 3.26634 -2.99708 0
M  V30 50462 H 4927.48 0.377413 -0.554798 0
M  V30 50463 H 4930.02 0.563893 -1.96572 0
M  V30 50464 H 4928.18 2.99903 -2.45228 0
M  V30 50465 H 4928.59 2.50244 -4.60954 0
M  V30 50466 H 4930.07 4.00704 -3.79658 0
M  V30 50467 H 4930.54 3.85343 -2.10731 0
M  V30 50468 H 4931.15 2.68206 -3.30069 0
M  V30 50469 N 4929.46 1.39914 0.725394 0
M  V30 50470 C 4930.43 1.39163 1.82116 0
M  V30 50471 C 4931.43 0.287074 1.58217 0
M  V30 50472 O 4932.62 0.545479 1.65439 0
M  V30 50473 C 4929.75 1.17371 3.20058 0
M  V30 50474 H 4930.94 2.36678 1.84183 0
M  V30 50475 H 4928.49 1.25619 0.930035 0
M  V30 50476 H 4929.23 0.205762 3.23647 0
M  V30 50477 H 4929.01 1.9737 3.38803 0
M  V30 50478 H 4930.5 1.1961 4.00104 0
M  V30 50479 N 4930.94 -0.956593 1.25248 0
M  V30 50480 C 4932.17 -1.741 1.12712 0
M  V30 50481 C 4932.59 -1.85438 -0.315363 0
M  V30 50482 O 4931.95 -1.33339 -1.22843 0
M  V30 50483 C 4932 -3.13374 1.78407 0
M  V30 50484 O 4931.1 -3.98481 1.06238 0
M  V30 50485 H 4930.44 -0.534746 0.393628 0
M  V30 50486 H 4932.97 -1.19918 1.65773 0
M  V30 50487 H 4932.98 -3.63844 1.84613 0
M  V30 50488 H 4931.66 -3.04438 2.83356 0
M  V30 50489 H 4930.23 -3.56949 1.07898 0
M  V30 50490 N 4932.42 -1.06802 -1.15892 0
M  V30 50491 C 4933.35 -0.64134 -2.20044 0
M  V30 50492 C 4934.36 0.303299 -1.5995 0
M  V30 50493 O 4935.55 0.0934851 -1.78255 0
M  V30 50494 C 4932.65 0.0792837 -3.38807 0
M  V30 50495 C 4931.83 -0.880137 -4.28453 0
M  V30 50496 C 4930.89 -0.197823 -5.25828 0
M  V30 50497 O 4929.91 -0.837111 -5.63011 0
M  V30 50498 N 4931.11 1.05866 -5.70765 0
M  V30 50499 H 4933.88 -1.53727 -2.5727 0
M  V30 50500 H 4931.44 -0.951997 -1.30953 0
M  V30 50501 H 4933.43 0.546277 -4.00996 0
M  V30 50502 H 4932 0.877088 -3.00043 0
M  V30 50503 H 4931.22 -1.52638 -3.63449 0
M  V30 50504 H 4932.51 -1.53082 -4.85225 0
M  V30 50505 H 4931.91 1.59809 -5.42658 0
M  V30 50506 H 4930.46 1.46943 -6.3502 0
M  V30 50507 N 4933.9 1.32627 -0.851335 0
M  V30 50508 C 4935.14 1.97366 -0.453093 0
M  V30 50509 C 4935.47 1.67388 0.990537 0
M  V30 50510 O 4934.73 0.952725 1.70943 0
M  V30 50511 C 4935.03 3.51711 -0.635138 0
M  V30 50512 C 4934.69 4.01669 -2.04873 0
M  V30 50513 C 4933.35 4.15022 -2.43537 0
M  V30 50514 C 4935.71 4.28195 -2.9715 0
M  V30 50515 C 4933.03 4.52244 -3.73755 0
M  V30 50516 C 4935.39 4.66874 -4.26863 0
M  V30 50517 C 4934.05 4.78433 -4.65465 0
M  V30 50518 H 4933.32 0.722213 -0.165798 0
M  V30 50519 H 4935.97 1.58089 -1.08075 0
M  V30 50520 H 4934.27 3.91727 0.0757704 0
M  V30 50521 H 4935.97 3.99822 -0.307105 0
M  V30 50522 H 4932.56 3.91758 -1.7385 0
M  V30 50523 H 4936.74 4.1739 -2.68513 0
M  V30 50524 H 4932 4.59388 -4.03451 0
M  V30 50525 H 4936.17 4.86354 -4.9843 0
M  V30 50526 H 4933.8 5.07032 -5.66412 0
M  V30 50527 N 4935.38 0.608953 1.4536 0
M  V30 50528 C 4936.62 0.104833 2.02529 0
M  V30 50529 C 4936.95 -1.26186 1.47617 0
M  V30 50530 O 4936.23 -1.83267 0.651405 0
M  V30 50531 C 4936.51 0.0673927 3.60037 0
M  V30 50532 C 4936.37 1.46485 4.25279 0
M  V30 50533 C 4937.68 -0.619724 4.35715 0
M  V30 50534 H 4934.8 0.0395697 0.735937 0
M  V30 50535 H 4937.45 0.781186 1.73198 0
M  V30 50536 H 4935.6 -0.508574 3.85157 0
M  V30 50537 H 4937.27 2.088 4.1134 0
M  V30 50538 H 4935.51 2.02516 3.83627 0
M  V30 50539 H 4936.18 1.39088 5.3419 0
M  V30 50540 H 4938.66 -0.130151 4.15896 0
M  V30 50541 H 4937.53 -0.615032 5.45443 0
M  V30 50542 H 4937.79 -1.68606 4.08686 0
M  V30 50543 N 4936.85 -1.53705 0.348193 0
M  V30 50544 C 4938.09 -2.029 -0.247183 0
M  V30 50545 C 4938.46 -1.23038 -1.47396 0
M  V30 50546 O 4939.66 -1.62153 -2.14382 0
M  V30 50547 C 4937.93 -3.53158 -0.549027 0
M  V30 50548 S 4939.49 -4.24251 -1.12055 0
M  V30 50549 H 4936.31 -0.707215 -0.0732645 0
M  V30 50550 H 4938.91 -1.89336 0.487031 0
M  V30 50551 H 4937.61 -4.08891 0.351579 0
M  V30 50552 H 4937.14 -3.7085 -1.31278 0
M  V30 50553 H 4939.16 -4.33967 -2.40598 0
M  V30 50554 N 4938.33 -0.0769235 -1.57412 0
M  V30 50555 C 4939.28 0.888502 -2.13012 0
M  V30 50556 C 4940.25 1.29194 -1.04394 0
M  V30 50557 O 4941.43 1.37689 -1.32084 0
M  V30 50558 C 4938.57 2.14889 -2.70031 0
M  V30 50559 C 4937.69 1.79763 -3.92822 0
M  V30 50560 C 4936.82 3.00451 -4.38067 0
M  V30 50561 C 4935.86 2.61366 -5.53493 0
M  V30 50562 N 4935 3.7483 -5.93672 0
M  V30 50563 H 4939.84 0.40749 -2.95201 0
M  V30 50564 H 4937.38 0.189483 -1.45875 0
M  V30 50565 H 4939.33 2.88677 -3.012 0
M  V30 50566 H 4937.96 2.60522 -1.906 0
M  V30 50567 H 4937.02 0.960172 -3.68083 0
M  V30 50568 H 4938.33 1.47011 -4.76644 0
M  V30 50569 H 4937.48 3.82512 -4.70924 0
M  V30 50570 H 4936.22 3.36401 -3.53109 0
M  V30 50571 H 4935.23 1.77728 -5.20282 0
M  V30 50572 H 4936.45 2.26581 -6.40186 0
M  V30 50573 H 4934.4 4.10532 -5.11663 0
M  V30 50574 H 4934.31 3.45863 -6.72246 0
M  V30 50575 H 4935.58 4.57455 -6.31154 0
M  V30 50576 N 4939.81 1.56368 0.196667 0
M  V30 50577 C 4940.76 1.95308 1.26323 0
M  V30 50578 C 4941.75 0.838304 1.47203 0
M  V30 50579 O 4942.96 1.0233 1.48083 0
M  V30 50580 H 4939.33 0.621028 0.424062 0
M  V30 50581 H 4941.3 2.84257 0.907779 0
M  V30 50582 C 4940.05 2.30749 2.60096 0
M  V30 50583 H 4939.38 3.16056 2.44844 0
M  V30 50584 H 4940.82 2.6186 3.33474 0
M  V30 50585 C 4939.28 1.14154 3.16971 0
M  V30 50586 O 4939.81 0.415742 3.99543 0
M  V30 50587 N 4938.01 0.918767 2.75694 0
M  V30 50588 H 4937.56 1.51072 2.0865 0
M  V30 50589 H 4937.52 0.140432 3.14086 0
M  V30 50590 N 4941.29 -0.464322 1.50605 0
M  V30 50591 C 4942.57 -1.22544 1.52454 0
M  V30 50592 C 4942.95 -2.09326 0.273109 0
M  V30 50593 O 4942.29 -2.16077 -0.743166 0
M  V30 50594 C 4942.5 -2.05064 2.824 0
M  V30 50595 C 4943.85 -2.63024 3.33322 0
M  V30 50596 O 4944.88 -2.153 2.83768 0
M  V30 50597 O 4943.73 -3.49995 4.19721 0
M  V30 50598 H 4940.83 -0.556449 0.611795 0
M  V30 50599 H 4943.37 -0.475591 1.62899 0
M  V30 50600 H 4942.15 -1.41157 3.64953 0
M  V30 50601 H 4941.77 -2.87169 2.7499 0
M  V30 50602 N 4942.77 -1.40296 -0.717964 0
M  V30 50603 C 4943.71 -1.40373 -1.83205 0
M  V30 50604 C 4944.68 -0.26101 -1.64036 0
M  V30 50605 O 4945.87 -0.458713 -1.85204 0
M  V30 50606 C 4943.01 -1.26977 -3.20891 0
M  V30 50607 C 4942.12 -2.50935 -3.51647 0
M  V30 50608 C 4941.26 -2.29998 -4.78826 0
M  V30 50609 C 4940.3 -3.49545 -5.02479 0
M  V30 50610 N 4939.43 -3.27818 -6.2087 0
M  V30 50611 H 4944.27 -2.356 -1.82474 0
M  V30 50612 H 4941.81 -1.17015 -0.891402 0
M  V30 50613 H 4943.77 -1.17216 -4.00395 0
M  V30 50614 H 4942.4 -0.353704 -3.20856 0
M  V30 50615 H 4941.45 -2.71232 -2.66716 0
M  V30 50616 H 4942.76 -3.39926 -3.65036 0
M  V30 50617 H 4941.92 -2.17578 -5.66343 0
M  V30 50618 H 4940.65 -1.38428 -4.67642 0
M  V30 50619 H 4939.66 -3.62445 -4.13417 0
M  V30 50620 H 4940.88 -4.42039 -5.15537 0
M  V30 50621 H 4938.83 -2.38928 -6.10942 0
M  V30 50622 H 4938.75 -4.10374 -6.34925 0
M  V30 50623 H 4940.02 -3.19126 -7.11181 0
M  V30 50624 N 4944.24 0.949938 -1.25754 0
M  V30 50625 C 4945.48 1.7099 -1.11991 0
M  V30 50626 C 4945.85 1.89096 0.33268 0
M  V30 50627 O 4947.05 2.62195 0.592239 0
M  V30 50628 C 4945.32 3.05279 -1.85848 0
M  V30 50629 S 4946.88 3.96471 -1.88033 0
M  V30 50630 H 4943.7 0.587675 -0.400198 0
M  V30 50631 H 4946.3 1.13265 -1.59346 0
M  V30 50632 H 4945 2.89775 -2.90618 0
M  V30 50633 H 4944.53 3.68064 -1.38898 0
M  V30 50634 H 4946.55 4.8681 -0.960741 0
M  V30 50635 N 4945.72 1.07416 1.15324 0
M  V30 50636 C 4946.97 0.792709 1.8547 0
M  V30 50637 C 4947.28 -0.683724 1.83261 0
M  V30 50638 O 4948.49 -1.07997 2.49096 0
M  V30 50639 C 4946.95 1.36799 3.32888 0
M  V30 50640 C 4946.55 2.87548 3.4354 0
M  V30 50641 C 4948.3 1.16459 4.08213 0
M  V30 50642 C 4946.21 3.38264 4.8511 0
M  V30 50643 H 4945.14 0.292862 0.694801 0
M  V30 50644 H 4947.79 1.2943 1.30077 0
M  V30 50645 H 4946.17 0.794129 3.87956 0
M  V30 50646 H 4947.34 3.50984 2.98575 0
M  V30 50647 H 4945.66 3.06686 2.81661 0
M  V30 50648 H 4948.25 1.51826 5.12692 0
M  V30 50649 H 4948.6 0.103676 4.16171 0
M  V30 50650 H 4949.13 1.70484 3.59416 0
M  V30 50651 H 4945.87 4.43883 4.82336 0
M  V30 50652 H 4945.39 2.79582 5.30654 0
M  V30 50653 H 4947.07 3.34258 5.53968 0
M  V30 50654 N 4947.2 -1.32174 0.858357 0
M  V30 50655 C 4948.61 -1.79379 0.517684 0
M  V30 50656 C 4948.96 -1.70844 -0.964709 0
M  V30 50657 O 4948.09 -1.26924 -1.75269 0
M  V30 50658 C 4948.68 -3.25702 0.932916 0
M  V30 50659 C 4947.24 -3.70848 0.644083 0
M  V30 50660 C 4946.39 -2.53204 1.13063 0
M  V30 50661 H 4949.34 -1.1942 1.04521 0
M  V30 50662 H 4949.36 -3.79672 0.250807 0
M  V30 50663 H 4948.87 -3.31882 2.01186 0
M  V30 50664 H 4946.97 -3.7018 -0.423981 0
M  V30 50665 H 4947.09 -4.63491 1.21297 0
M  V30 50666 H 4945.45 -2.48674 0.550767 0
M  V30 50667 H 4946.23 -2.62136 2.21675 0
M  V30 50668 N 4948.68 -0.616653 -1.45035 0
M  V30 50669 C 4949.93 -0.115402 -2.02171 0
M  V30 50670 C 4950.25 1.25743 -1.48388 0
M  V30 50671 O 4949.51 1.84509 -0.652294 0
M  V30 50672 C 4949.81 -0.0358086 -3.57382 0
M  V30 50673 C 4949.47 -1.3455 -4.30357 0
M  V30 50674 C 4948.14 -1.70423 -4.5001 0
M  V30 50675 C 4950.49 -2.21065 -4.71995 0
M  V30 50676 C 4947.82 -2.92547 -5.0856 0
M  V30 50677 C 4950.17 -3.42446 -5.31896 0
M  V30 50678 C 4948.83 -3.78561 -5.49771 0
M  V30 50679 H 4948.1 -0.0422284 -0.739796 0
M  V30 50680 H 4950.75 -0.800082 -1.73985 0
M  V30 50681 H 4949.05 0.732178 -3.84898 0
M  V30 50682 H 4950.75 0.368323 -3.99305 0
M  V30 50683 H 4947.34 -1.0563 -4.1538 0
M  V30 50684 H 4951.52 -1.94648 -4.56537 0
M  V30 50685 H 4946.78 -3.20623 -5.20587 0
M  V30 50686 H 4950.95 -4.09728 -5.63112 0
M  V30 50687 H 4948.58 -4.73276 -5.94907 0
M  V30 50688 N 4950.16 1.53519 -0.356339 0
M  V30 50689 C 4951.4 2.02105 0.2292 0
M  V30 50690 C 4951.76 1.23929 1.47172 0
M  V30 50691 O 4951.05 0.322023 1.88874 0
M  V30 50692 C 4951.24 3.52609 0.583245 0
M  V30 50693 C 4951.07 4.45358 -0.623409 0
M  V30 50694 C 4949.84 4.92442 -1.13265 0
M  V30 50695 C 4952.04 4.9237 -1.4858 0
M  V30 50696 N 4950.02 5.69174 -2.3003 0
M  V30 50697 C 4951.39 5.67353 -2.50021 0
M  V30 50698 C 4953.45 4.74458 -1.50976 0
M  V30 50699 C 4952.15 6.26329 -3.53702 0
M  V30 50700 C 4954.18 5.34293 -2.53545 0
M  V30 50701 C 4953.54 6.09154 -3.5371 0
M  V30 50702 H 4949.64 0.780596 0.0468328 0
M  V30 50703 H 4952.22 1.88202 -0.498796 0
M  V30 50704 H 4950.39 3.66691 1.28033 0
M  V30 50705 H 4952.13 3.87926 1.15308 0
M  V30 50706 H 4948.88 4.68417 -0.698726 0
M  V30 50707 H 4949.31 6.12206 -2.8902 0
M  V30 50708 H 4953.95 4.16114 -0.748931 0
M  V30 50709 H 4951.67 6.83774 -4.30672 0
M  V30 50710 H 4955.25 5.22333 -2.56241 0
M  V30 50711 H 4954.13 6.54629 -4.31776 0
M  V30 50712 N 4951.63 0.0852704 1.57369 0
M  V30 50713 C 4952.88 -0.575519 1.95088 0
M  V30 50714 C 4953.24 -1.66399 0.965879 0
M  V30 50715 O 4952.53 -1.91598 -0.00971728 0
M  V30 50716 C 4952.72 -1.1847 3.37194 0
M  V30 50717 C 4952.55 -0.15677 4.49427 0
M  V30 50718 C 4951.32 0.263304 5.04614 0
M  V30 50719 C 4953.52 0.611248 5.10655 0
M  V30 50720 N 4951.5 1.28053 6.00396 0
M  V30 50721 C 4952.87 1.48057 6.02062 0
M  V30 50722 C 4954.93 0.665842 4.93428 0
M  V30 50723 C 4953.63 2.39967 6.78092 0
M  V30 50724 C 4955.66 1.5725 5.70111 0
M  V30 50725 C 4955.02 2.42947 6.61178 0
M  V30 50726 H 4951.12 -0.181222 0.760712 0
M  V30 50727 H 4953.7 0.165552 1.93995 0
M  V30 50728 H 4951.87 -1.89563 3.38999 0
M  V30 50729 H 4953.6 -1.80705 3.62116 0
M  V30 50730 H 4950.36 -0.122497 4.73442 0
M  V30 50731 H 4950.78 1.78705 6.52988 0
M  V30 50732 H 4955.43 0.0174701 4.22796 0
M  V30 50733 H 4953.14 3.05834 7.47992 0
M  V30 50734 H 4956.73 1.61975 5.58798 0
M  V30 50735 H 4955.61 3.11965 7.19477 0
M  V30 50736 N 4953.11 -1.5647 -0.188372 0
M  V30 50737 C 4954.06 -1.95078 -1.23342 0
M  V30 50738 C 4955.03 -0.812289 -1.44883 0
M  V30 50739 O 4956.22 -1.07101 -1.57905 0
M  V30 50740 C 4953.36 -2.30133 -2.57163 0
M  V30 50741 C 4952.47 -3.57078 -2.43145 0
M  V30 50742 C 4951.6 -3.81424 -3.69715 0
M  V30 50743 C 4950.64 -5.01773 -3.50558 0
M  V30 50744 N 4949.78 -5.22338 -4.69156 0
M  V30 50745 H 4954.62 -2.84174 -0.897181 0
M  V30 50746 H 4952.16 -1.40625 -0.431634 0
M  V30 50747 H 4954.11 -2.48475 -3.35136 0
M  V30 50748 H 4952.74 -1.44169 -2.88817 0
M  V30 50749 H 4951.8 -3.46745 -1.56435 0
M  V30 50750 H 4953.11 -4.45208 -2.24926 0
M  V30 50751 H 4952.26 -4.00042 -4.56127 0
M  V30 50752 H 4951 -2.91637 -3.90895 0
M  V30 50753 H 4950.01 -4.83071 -2.62532 0
M  V30 50754 H 4951.23 -5.93074 -3.30817 0
M  V30 50755 H 4949.18 -4.355 -4.90587 0
M  V30 50756 H 4949.09 -6.04659 -4.53788 0
M  V30 50757 H 4950.36 -5.4542 -5.569 0
M  V30 50758 N 4954.59 0.456329 -1.50849 0
M  V30 50759 C 4955.83 1.21698 -1.64222 0
M  V30 50760 C 4956.2 1.88931 -0.341925 0
M  V30 50761 O 4957.4 2.66495 -0.351231 0
M  V30 50762 C 4955.67 2.22152 -2.7997 0
M  V30 50763 S 4957.23 3.06959 -3.13563 0
M  V30 50764 H 4954.04 0.412974 -0.578769 0
M  V30 50765 H 4956.65 0.511571 -1.88688 0
M  V30 50766 H 4955.35 1.71366 -3.7291 0
M  V30 50767 H 4954.88 2.97301 -2.57635 0
M  V30 50768 H 4956.9 4.2353 -2.58528 0
M  V30 50769 N 4956.07 1.40675 0.710514 0
M  V30 50770 C 4957.35 1.29724 1.46394 0
M  V30 50771 C 4957.73 -0.0821029 2.1094 0
M  V30 50772 O 4957.07 -1.09529 2.00538 0
M  V30 50773 C 4957.28 2.43976 2.49553 0
M  V30 50774 C 4958.63 2.84447 3.15238 0
M  V30 50775 O 4959.66 2.43606 2.59874 0
M  V30 50776 O 4958.52 3.55023 4.15477 0
M  V30 50777 H 4955.61 0.50972 0.651241 0
M  V30 50778 H 4958.16 1.52606 0.742258 0
M  V30 50779 H 4956.93 3.36083 2.00409 0
M  V30 50780 H 4956.55 2.2289 3.2925 0
M  V30 50781 N 4957.55 -0.943255 1.26256 0
M  V30 50782 C 4958.78 -1.72363 1.14449 0
M  V30 50783 C 4959.19 -1.86393 -0.300506 0
M  V30 50784 O 4958.55 -1.36982 -1.20591 0
M  V30 50785 C 4958.6 -3.13149 1.80611 0
M  V30 50786 O 4958.32 -2.99792 3.19463 0
M  V30 50787 C 4959.82 -4.07411 1.74731 0
M  V30 50788 H 4957.04 -0.539744 0.398645 0
M  V30 50789 H 4959.58 -1.18262 1.66836 0
M  V30 50790 H 4957.74 -3.64158 1.32166 0
M  V30 50791 H 4958.15 -3.88684 3.52172 0
M  V30 50792 H 4959.63 -5.03765 2.25665 0
M  V30 50793 H 4960.1 -4.33367 0.713396 0
M  V30 50794 H 4960.71 -3.62322 2.22717 0
M  V30 50795 N 4959.03 -1.08026 -1.14753 0
M  V30 50796 C 4959.94 -0.71837 -2.23331 0
M  V30 50797 C 4960.95 0.273417 -1.71838 0
M  V30 50798 O 4962.13 0.118335 -2.01052 0
M  V30 50799 C 4959.19 -0.128977 -3.4646 0
M  V30 50800 C 4958.25 -1.17488 -4.12911 0
M  V30 50801 C 4957.49 -0.613516 -5.30162 0
M  V30 50802 O 4957.71 0.568258 -5.67562 0
M  V30 50803 O 4956.64 -1.3617 -5.86294 0
M  V30 50804 H 4960.47 -1.62403 -2.5663 0
M  V30 50805 H 4958.05 -0.853671 -1.22608 0
M  V30 50806 H 4959.94 0.197101 -4.20939 0
M  V30 50807 H 4958.61 0.749903 -3.14894 0
M  V30 50808 H 4957.52 -1.55342 -3.40323 0
M  V30 50809 H 4958.85 -2.0259 -4.48573 0
M  V30 50810 N 4960.5 1.31717 -0.865354 0
M  V30 50811 C 4961.78 1.91573 -0.394857 0
M  V30 50812 C 4962.16 1.78773 1.12265 0
M  V30 50813 O 4961.51 1.19251 1.94914 0
M  V30 50814 C 4961.72 3.37954 -0.871101 0
M  V30 50815 C 4963.07 4.1507 -0.89453 0
M  V30 50816 O 4964.09 3.46717 -0.816447 0
M  V30 50817 O 4962.95 5.37148 -1.0067 0
M  V30 50818 H 4960.04 0.818645 -0.117258 0
M  V30 50819 H 4962.59 1.40416 -0.952962 0
M  V30 50820 H 4961.36 3.41263 -1.91456 0
M  V30 50821 H 4960.98 3.96533 -0.291046 0
M  V30 50822 N 4961.98 0.624336 1.44706 0
M  V30 50823 C 4963.26 0.0573468 1.95516 0
M  V30 50824 C 4963.64 -1.4151 1.56646 0
M  V30 50825 O 4962.99 -2.12611 0.837186 0
M  V30 50826 C 4963.2 0.273067 3.4793 0
M  V30 50827 C 4964.54 0.162678 4.24288 0
M  V30 50828 O 4965.57 0.204071 3.55615 0
M  V30 50829 O 4964.43 0.0618768 5.46465 0
M  V30 50830 H 4961.52 -0.0261928 0.826585 0
M  V30 50831 H 4964.07 0.695567 1.5479 0
M  V30 50832 H 4962.84 1.29505 3.69248 0
M  V30 50833 H 4962.46 -0.399617 3.95587 0
M  V30 50834 N 4963.46 -1.53328 0.364476 0
M  V30 50835 C 4964.7 -2.03151 -0.225649 0
M  V30 50836 C 4965.06 -1.24594 -1.46083 0
M  V30 50837 O 4966.26 -1.64418 -2.1265 0
M  V30 50838 C 4964.54 -3.5372 -0.511539 0
M  V30 50839 S 4966.09 -4.25416 -1.07549 0
M  V30 50840 H 4962.91 -0.707952 -0.0657595 0
M  V30 50841 H 4965.51 -1.88809 0.507086 0
M  V30 50842 H 4964.22 -4.08495 0.394927 0
M  V30 50843 H 4963.75 -3.72221 -1.27337 0
M  V30 50844 H 4965.76 -4.36494 -2.35982 0
M  V30 50845 N 4964.94 -0.0936148 -1.57322 0
M  V30 50846 C 4966.19 0.569314 -1.93916 0
M  V30 50847 C 4966.51 1.68813 -0.976068 0
M  V30 50848 O 4965.78 1.9588 -0.0278788 0
M  V30 50849 H 4964.36 0.213295 -0.715901 0
M  V30 50850 H 4967.02 -0.156599 -1.9427 0
M  V30 50851 H 4966.11 0.980473 -2.96299 0
M  V30 50852 N 4966.42 1.56568 0.180071 0
M  V30 50853 C 4967.69 1.72353 0.92487 0
M  V30 50854 C 4968.07 0.652593 2.0076 0
M  V30 50855 O 4967.42 -0.334036 2.26045 0
M  V30 50856 C 4967.63 3.15235 1.4976 0
M  V30 50857 C 4968.98 3.75928 1.97392 0
M  V30 50858 O 4970 3.18458 1.59572 0
M  V30 50859 O 4968.86 4.76819 2.67031 0
M  V30 50860 H 4965.96 0.703517 0.434733 0
M  V30 50861 H 4968.5 1.68861 0.168587 0
M  V30 50862 H 4967.27 3.84658 0.717892 0
M  V30 50863 H 4966.9 3.23018 2.31831 0
M  V30 50864 N 4967.89 -0.448323 1.51089 0
M  V30 50865 C 4968.84 -1.5415 1.67993 0
M  V30 50866 C 4969.83 -1.51778 0.534068 0
M  V30 50867 O 4971.02 -1.58417 0.789504 0
M  V30 50868 C 4968.15 -2.9243 1.79832 0
M  V30 50869 C 4967.24 -2.996 3.00168 0
M  V30 50870 N 4967.63 -2.76535 4.23511 0
M  V30 50871 C 4965.92 -3.30754 2.99196 0
M  V30 50872 C 4966.63 -2.89263 5.0468 0
M  V30 50873 N 4965.6 -3.20458 4.39099 0
M  V30 50874 H 4969.4 -1.35052 2.61033 0
M  V30 50875 H 4966.92 -0.655452 1.48585 0
M  V30 50876 H 4968.91 -3.71061 1.9005 0
M  V30 50877 H 4967.57 -3.12557 0.879664 0
M  V30 50878 H 4968.59 -2.51675 4.52637 0
M  V30 50879 H 4965.26 -3.56724 2.16919 0
M  V30 50880 H 4966.65 -2.75478 6.12831 0
M  V30 50881 N 4969.37 -1.4105 -0.703043 0
M  V30 50882 C 4970.6 -1.43542 -1.49701 0
M  V30 50883 C 4971.02 -0.0402514 -1.88057 0
M  V30 50884 O 4970.38 0.954731 -1.54125 0
M  V30 50885 C 4970.43 -2.3434 -2.74075 0
M  V30 50886 O 4969.53 -1.79529 -3.71272 0
M  V30 50887 H 4968.87 -0.48747 -0.450854 0
M  V30 50888 H 4971.4 -1.85425 -0.864795 0
M  V30 50889 H 4971.41 -2.49958 -3.22467 0
M  V30 50890 H 4970.09 -3.35716 -2.45494 0
M  V30 50891 H 4968.67 -1.73321 -3.30173 0
M  V30 50892 N 4970.85 0.936546 -1.26754 0
M  V30 50893 C 4972.13 1.6609 -1.03312 0
M  V30 50894 C 4972.51 2.0657 0.434985 0
M  V30 50895 O 4971.86 1.7931 1.41634 0
M  V30 50896 C 4972.07 2.86963 -1.98629 0
M  V30 50897 C 4973.41 3.58508 -2.27501 0
M  V30 50898 O 4974.44 2.97075 -1.96532 0
M  V30 50899 O 4973.3 4.69171 -2.80252 0
M  V30 50900 H 4970.39 0.727555 -0.393184 0
M  V30 50901 H 4972.94 0.987866 -1.37983 0
M  V30 50902 H 4971.71 2.53975 -2.97679 0
M  V30 50903 H 4971.33 3.6199 -1.64466 0
M  V30 50904 N 4972.33 1.08633 1.14178 0
M  V30 50905 C 4973.24 0.730204 2.22947 0
M  V30 50906 C 4974.25 -0.2643 1.71981 0
M  V30 50907 O 4975.43 -0.107671 2.01112 0
M  V30 50908 C 4972.5 0.147349 3.46387 0
M  V30 50909 C 4971.56 1.19676 4.12282 0
M  V30 50910 C 4970.79 0.641623 5.29829 0
M  V30 50911 O 4971.01 -0.538151 5.67856 0
M  V30 50912 O 4969.95 1.39278 5.85564 0
M  V30 50913 H 4973.77 1.63762 2.55765 0
M  V30 50914 H 4971.36 0.860161 1.22154 0
M  V30 50915 H 4973.24 -0.174775 4.21037 0
M  V30 50916 H 4971.91 -0.733193 3.15287 0
M  V30 50917 H 4970.82 1.57145 3.39494 0
M  V30 50918 H 4972.15 2.04966 4.47493 0
M  V30 50919 N 4973.81 -1.31256 0.872327 0
M  V30 50920 C 4975.22 -1.7882 0.53668 0
M  V30 50921 C 4975.57 -1.71858 -0.946534 0
M  V30 50922 O 4974.69 -1.28775 -1.73913 0
M  V30 50923 C 4975.29 -3.24695 0.967409 0
M  V30 50924 C 4973.85 -3.70144 0.683381 0
M  V30 50925 C 4972.99 -2.5199 1.15742 0
M  V30 50926 H 4975.95 -1.18305 1.05781 0
M  V30 50927 H 4975.97 -3.79385 0.291063 0
M  V30 50928 H 4975.48 -3.2973 2.04695 0
M  V30 50929 H 4973.58 -3.70609 -0.384695 0
M  V30 50930 H 4973.69 -4.62178 1.26206 0
M  V30 50931 H 4972.06 -2.48076 0.577111 0
M  V30 50932 H 4972.84 -2.5977 2.24443 0
M  V30 50933 N 4975.28 -0.632002 -1.44373 0
M  V30 50934 C 4976.7 -0.219101 -1.8541 0
M  V30 50935 C 4977.05 1.22968 -1.52883 0
M  V30 50936 O 4976.17 1.93576 -0.967334 0
M  V30 50937 C 4976.77 -0.390868 -3.36538 0
M  V30 50938 C 4975.33 -0.0324674 -3.76386 0
M  V30 50939 C 4974.47 -0.703838 -2.68219 0
M  V30 50940 H 4977.42 -0.837103 -1.34827 0
M  V30 50941 H 4977.44 0.369923 -3.78698 0
M  V30 50942 H 4976.96 -1.4454 -3.6018 0
M  V30 50943 H 4975.06 1.02029 -3.58358 0
M  V30 50944 H 4975.17 -0.443136 -4.77046 0
M  V30 50945 H 4973.53 -0.139063 -2.5432 0
M  V30 50946 H 4974.32 -1.76098 -2.94694 0
M  V30 50947 N 4976.76 1.53132 -0.372602 0
M  V30 50948 C 4978.04 1.93705 0.271625 0
M  V30 50949 C 4978.42 1.30673 1.65795 0
M  V30 50950 O 4977.77 0.468458 2.23646 0
M  V30 50951 C 4977.98 3.47578 0.314781 0
M  V30 50952 C 4979.33 4.21 0.551764 0
M  V30 50953 O 4980.35 3.53995 0.395696 0
M  V30 50954 O 4979.21 5.39751 0.8562 0
M  V30 50955 H 4976.3 0.810463 0.164557 0
M  V30 50956 H 4978.85 1.64269 -0.425896 0
M  V30 50957 H 4977.62 3.85746 -0.656928 0
M  V30 50958 H 4977.24 3.83268 1.05791 0
M  V30 50959 N 4978.24 0.101957 1.5727 0
M  V30 50960 C 4979.48 -0.56342 1.96481 0
M  V30 50961 C 4979.84 -1.64923 0.983079 0
M  V30 50962 O 4981.05 -2.3723 1.26394 0
M  V30 50963 C 4979.32 -1.09797 3.40117 0
M  V30 50964 S 4980.88 -1.77426 4.0133 0
M  V30 50965 H 4977.69 -0.183651 0.686872 0
M  V30 50966 H 4980.3 0.182991 1.94642 0
M  V30 50967 H 4979 -0.296303 4.09329 0
M  V30 50968 H 4978.53 -1.88006 3.45568 0
M  V30 50969 H 4980.55 -3.05896 3.90694 0
M  V30 50970 N 4979.72 -1.56661 -0.171765 0
M  V30 50971 C 4981.13 -1.71655 -0.734269 0
M  V30 50972 C 4981.48 -0.712399 -1.8281 0
M  V30 50973 O 4980.61 0.126325 -2.16031 0
M  V30 50974 C 4981.2 -3.11231 -1.33869 0
M  V30 50975 C 4979.76 -3.2791 -1.84802 0
M  V30 50976 C 4978.91 -2.67605 -0.726823 0
M  V30 50977 H 4981.86 -1.58609 0.0536222 0
M  V30 50978 H 4981.88 -3.09856 -2.20838 0
M  V30 50979 H 4981.39 -3.84292 -0.542355 0
M  V30 50980 H 4979.49 -2.59805 -2.6708 0
M  V30 50981 H 4979.6 -4.35644 -1.99377 0
M  V30 50982 H 4977.97 -2.27404 -1.14715 0
M  V30 50983 H 4978.75 -3.43252 0.0576541 0
M  V30 50984 N 4981.2 0.440304 -1.51324 0
M  V30 50985 C 4982.11 1.55949 -1.75263 0
M  V30 50986 C 4983.12 1.61931 -0.636743 0
M  V30 50987 O 4984.3 1.79228 -0.918656 0
M  V30 50988 C 4981.36 2.91953 -1.86988 0
M  V30 50989 C 4980.42 2.96111 -3.10832 0
M  V30 50990 C 4979.66 4.25629 -3.21988 0
M  V30 50991 O 4979.88 5.17843 -2.39155 0
M  V30 50992 O 4978.81 4.3601 -4.14944 0
M  V30 50993 H 4982.64 1.38664 -2.70196 0
M  V30 50994 H 4980.23 0.623007 -1.3579 0
M  V30 50995 H 4982.11 3.72675 -1.96702 0
M  V30 50996 H 4980.78 3.09372 -0.952416 0
M  V30 50997 H 4979.69 2.14355 -3.06598 0
M  V30 50998 H 4981.02 2.83637 -4.02257 0
M  V30 50999 N 4982.68 1.41421 0.695553 0
M  V30 51000 C 4983.92 1.40779 1.4556 0
M  V30 51001 C 4984.25 0.0169288 1.94493 0
M  V30 51002 O 4983.51 -0.971199 1.69901 0
M  V30 51003 C 4983.8 2.36122 2.68293 0
M  V30 51004 C 4983.47 3.8296 2.38017 0
M  V30 51005 C 4982.13 4.22962 2.29471 0
M  V30 51006 C 4984.48 4.75669 2.13045 0
M  V30 51007 C 4981.81 5.53681 1.94048 0
M  V30 51008 C 4984.16 6.06708 1.7913 0
M  V30 51009 C 4982.83 6.45731 1.69079 0
M  V30 51010 H 4982.1 0.515146 0.53264 0
M  V30 51011 H 4984.75 1.74219 0.794986 0
M  V30 51012 H 4983.05 1.95936 3.39288 0
M  V30 51013 H 4984.75 2.32898 3.26434 0
M  V30 51014 H 4981.34 3.51278 2.45563 0
M  V30 51015 H 4985.52 4.45568 2.18592 0
M  V30 51016 H 4980.78 5.82797 1.84819 0
M  V30 51017 H 4984.95 6.78047 1.58826 0
M  V30 51018 H 4982.58 7.46934 1.41399 0
M  V30 51019 N 4984.15 -0.929811 1.27249 0
M  V30 51020 C 4985.1 -2.03013 1.09792 0
M  V30 51021 C 4986.07 -1.661 -0.000398352 0
M  V30 51022 O 4987.26 -1.90115 0.161529 0
M  V30 51023 C 4984.4 -3.36875 0.748934 0
M  V30 51024 C 4983.51 -3.86757 1.92467 0
M  V30 51025 C 4982.64 -5.09056 1.51776 0
M  V30 51026 C 4981.68 -5.51228 2.6611 0
M  V30 51027 N 4980.82 -6.64724 2.26022 0
M  V30 51028 H 4985.66 -2.17278 2.03947 0
M  V30 51029 H 4983.2 -1.06445 1.01528 0
M  V30 51030 H 4985.15 -4.13853 0.527428 0
M  V30 51031 H 4983.78 -3.22424 -0.155658 0
M  V30 51032 H 4982.84 -3.06078 2.25877 0
M  V30 51033 H 4984.15 -4.13984 2.78242 0
M  V30 51034 H 4983.3 -5.93528 1.25737 0
M  V30 51035 H 4982.04 -4.836 0.631066 0
M  V30 51036 H 4981.05 -4.65306 2.92866 0
M  V30 51037 H 4982.27 -5.78679 3.55397 0
M  V30 51038 H 4980.22 -6.4093 1.39802 0
M  V30 51039 H 4980.13 -6.91596 3.05337 0
M  V30 51040 H 4981.4 -7.52542 2.03225 0
M  V30 51041 N 4985.63 -1.09237 -1.13601 0
M  V30 51042 C 4986.87 -0.836851 -1.86484 0
M  V30 51043 C 4987.24 0.626127 -1.81504 0
M  V30 51044 O 4988.44 0.997492 -2.49607 0
M  V30 51045 C 4986.71 -1.35488 -3.30723 0
M  V30 51046 S 4988.27 -1.23295 -4.21122 0
M  V30 51047 H 4985.08 -0.302725 -0.643334 0
M  V30 51048 H 4987.69 -1.39535 -1.36931 0
M  V30 51049 H 4986.39 -2.41392 -3.319 0
M  V30 51050 H 4985.92 -0.792421 -3.85337 0
M  V30 51051 H 4987.94 -0.182642 -4.95864 0
M  V30 51052 N 4987.11 1.30792 -0.879276 0
M  V30 51053 C 4988.53 1.48979 -0.572482 0
M  V30 51054 C 4988.73 1.80722 0.891172 0
M  V30 51055 O 4987.78 1.89142 1.67277 0
M  V30 51056 C 4989.09 2.61716 -1.48072 0
M  V30 51057 C 4990.64 2.75598 -1.48374 0
M  V30 51058 C 4991.12 3.91441 -2.37777 0
M  V30 51059 N 4992.61 3.98742 -2.35709 0
M  V30 51060 C 4993.34 4.87673 -3.016 0
M  V30 51061 N 4992.84 5.8144 -3.76695 0
M  V30 51062 N 4994.63 4.80995 -2.90861 0
M  V30 51063 H 4986.78 1.08459 -1.82621 0
M  V30 51064 H 4989.05 0.536785 -0.781387 0
M  V30 51065 H 4988.75 2.45064 -2.52263 0
M  V30 51066 H 4988.63 3.58067 -1.18609 0
M  V30 51067 H 4991.01 2.91658 -0.449373 0
M  V30 51068 H 4991.09 1.79885 -1.81865 0
M  V30 51069 H 4990.74 3.76137 -3.41296 0
M  V30 51070 H 4990.67 4.8648 -2.01606 0
M  V30 51071 H 4993.16 3.31661 -1.81133 0
M  V30 51072 H 4993.47 6.46048 -4.24077 0
M  V30 51073 H 4991.82 5.8139 -3.80803 0
M  V30 51074 H 4995.01 4.0672 -2.31725 0
M  V30 51075 H 4995.18 5.50095 -3.4249 0
M  V30 51076 N 4988.59 0.639649 1.44036 0
M  V30 51077 C 4990 0.228931 1.85291 0
M  V30 51078 C 4990.35 -1.22156 1.53533 0
M  V30 51079 O 4989.47 -1.9306 0.977586 0
M  V30 51080 C 4990.07 0.40871 3.36326 0
M  V30 51081 C 4988.63 0.0524276 3.76363 0
M  V30 51082 C 4987.78 0.718053 2.67842 0
M  V30 51083 H 4990.73 0.844241 1.34381 0
M  V30 51084 H 4990.75 -0.349835 3.78888 0
M  V30 51085 H 4990.26 1.46448 3.59409 0
M  V30 51086 H 4988.36 -1.00128 3.58894 0
M  V30 51087 H 4988.47 0.468429 4.76805 0
M  V30 51088 H 4986.84 0.152548 2.54243 0
M  V30 51089 H 4987.62 1.77658 2.93756 0
M  V30 51090 N 4990.07 -1.52932 0.380717 0
M  V30 51091 C 4991.31 -2.0107 -0.203803 0
M  V30 51092 C 4991.63 -1.26927 -1.48035 0
M  V30 51093 O 4990.9 -0.386854 -1.92042 0
M  V30 51094 H 4989.48 -0.742885 -0.0783017 0
M  V30 51095 H 4992.15 -1.88097 0.510434 0
M  V30 51096 H 4991.24 -3.0926 -0.420101 0
M  V30 51097 N 4991.54 -0.110296 -1.57214 0
M  V30 51098 C 4992.48 0.873423 -2.11906 0
M  V30 51099 C 4993.49 1.23585 -1.05975 0
M  V30 51100 O 4994.68 1.18631 -1.33375 0
M  V30 51101 C 4991.78 2.17796 -2.5965 0
M  V30 51102 C 4990.95 1.98856 -3.89583 0
M  V30 51103 C 4990.01 3.12959 -4.23017 0
M  V30 51104 O 4989.04 2.86254 -4.91983 0
M  V30 51105 N 4990.24 4.39153 -3.79637 0
M  V30 51106 H 4993 0.406213 -2.96934 0
M  V30 51107 H 4990.56 0.0743801 -1.61729 0
M  V30 51108 H 4992.56 2.93107 -2.79052 0
M  V30 51109 H 4991.13 2.55892 -1.79549 0
M  V30 51110 H 4990.35 1.07787 -3.79178 0
M  V30 51111 H 4991.63 1.83496 -4.7456 0
M  V30 51112 H 4991.03 4.63727 -3.23996 0
M  V30 51113 H 4989.59 5.11365 -4.04165 0
M  V30 51114 N 4993.02 1.5675 0.163455 0
M  V30 51115 C 4994.27 1.82437 0.878802 0
M  V30 51116 C 4994.6 0.688621 1.81902 0
M  V30 51117 O 4993.85 -0.323576 1.93006 0
M  V30 51118 C 4994.15 3.14348 1.7006 0
M  V30 51119 C 4993.82 4.4165 0.90862 0
M  V30 51120 C 4992.48 4.76226 0.690068 0
M  V30 51121 C 4994.83 5.19999 0.353633 0
M  V30 51122 C 4992.16 5.86624 -0.0944437 0
M  V30 51123 C 4994.51 6.31219 -0.417832 0
M  V30 51124 C 4993.17 6.64356 -0.647112 0
M  V30 51125 H 4992.44 0.667585 0.321577 0
M  V30 51126 H 4995.09 1.90963 0.143303 0
M  V30 51127 H 4993.4 3.01199 2.50572 0
M  V30 51128 H 4995.09 3.31434 2.25727 0
M  V30 51129 H 4991.68 4.14534 1.08901 0
M  V30 51130 H 4995.87 4.93675 0.509801 0
M  V30 51131 H 4991.12 6.1075 -0.281744 0
M  V30 51132 H 4995.3 6.9113 -0.855092 0
M  V30 51133 H 4992.92 7.49738 -1.25688 0
M  V30 51134 N 4994.5 -0.432272 1.51556 0
M  V30 51135 C 4995.43 -1.54351 1.69435 0
M  V30 51136 C 4996.44 -1.52309 0.574951 0
M  V30 51137 O 4997.63 -1.56994 0.849425 0
M  V30 51138 C 4994.73 -2.93267 1.69847 0
M  V30 51139 C 4993.91 -3.19757 2.98453 0
M  V30 51140 C 4992.97 -4.38423 2.90984 0
M  V30 51141 O 4991.99 -4.36829 3.64923 0
M  V30 51142 N 4993.19 -5.42269 2.07182 0
M  V30 51143 H 4995.96 -1.39416 2.65298 0
M  V30 51144 H 4993.52 -0.621279 1.49505 0
M  V30 51145 H 4995.51 -3.70681 1.62412 0
M  V30 51146 H 4994.08 -3.01774 0.815563 0
M  V30 51147 H 4993.3 -2.30596 3.19717 0
M  V30 51148 H 4994.59 -3.34287 3.83575 0
M  V30 51149 H 4993.99 -5.46402 1.46497 0
M  V30 51150 H 4992.54 -6.18516 2.05623 0
M  V30 51151 N 4995.98 -1.41788 -0.688044 0
M  V30 51152 C 4997.22 -1.43023 -1.46027 0
M  V30 51153 C 4997.58 -0.0403307 -1.91958 0
M  V30 51154 O 4998.78 0.0725481 -2.68702 0
M  V30 51155 C 4997.05 -2.4152 -2.63444 0
M  V30 51156 S 4998.61 -2.61347 -3.52481 0
M  V30 51157 H 4995.43 -0.506564 -0.498913 0
M  V30 51158 H 4998.03 -1.78286 -0.802148 0
M  V30 51159 H 4996.74 -3.41294 -2.27917 0
M  V30 51160 H 4996.27 -2.07636 -3.34142 0
M  V30 51161 H 4998.28 -1.88653 -4.58939 0
M  V30 51162 N 4997.46 0.92305 -1.2774 0
M  V30 51163 C 4998.68 1.7105 -1.17289 0
M  V30 51164 C 4999.11 1.86208 0.266087 0
M  V30 51165 O 4998.46 1.36549 1.19265 0
M  V30 51166 C 4998.51 3.08534 -1.86653 0
M  V30 51167 O 4997.62 3.95524 -1.16766 0
M  V30 51168 H 4996.96 0.524122 -0.407667 0
M  V30 51169 H 4999.49 1.15481 -1.68895 0
M  V30 51170 H 4999.5 3.58821 -1.94195 0
M  V30 51171 H 4998.17 2.96818 -2.91328 0
M  V30 51172 H 4996.75 3.53962 -1.17324 0
M  V30 51173 N 4998.93 1.09838 1.1302 0
M  V30 51174 C 5000.16 0.858968 1.88227 0
M  V30 51175 C 5000.58 -0.590101 1.79341 0
M  V30 51176 O 4999.93 -1.40646 1.16297 0
M  V30 51177 C 4999.99 1.29078 3.3767 0
M  V30 51178 O 4999.71 2.68302 3.46332 0
M  V30 51179 C 5001.21 1.08437 4.29833 0
M  V30 51180 H 4998.43 0.308734 0.595755 0
M  V30 51181 H 5000.97 1.46145 1.43045 0
M  V30 51182 H 4999.13 0.732095 3.8042 0
M  V30 51183 H 4999.54 2.86613 4.39264 0
M  V30 51184 H 5001.01 1.43572 5.33002 0
M  V30 51185 H 5001.49 0.0224859 4.39194 0
M  V30 51186 H 5002.1 1.62921 3.92857 0
M  V30 51187 N 5000.41 -1.30324 0.8862 0
M  V30 51188 C 5001.66 -1.95708 0.504263 0
M  V30 51189 C 5001.98 -1.70297 -0.949943 0
M  V30 51190 O 5001.25 -1.02724 -1.66807 0
M  V30 51191 H 4999.83 -0.724113 0.18349 0
M  V30 51192 H 5002.49 -1.58831 1.12954 0
M  V30 51193 H 5001.59 -3.04701 0.675538 0
M  V30 51194 N 5001.89 -0.647279 -1.43694 0
M  V30 51195 C 5003.14 -0.155623 -2.01099 0
M  V30 51196 C 5003.45 1.23564 -1.51629 0
M  V30 51197 O 5004.66 1.82219 -2.01267 0
M  V30 51198 C 5003.11 -0.227422 -3.59181 0
M  V30 51199 C 5002.72 -1.62101 -4.17645 0
M  V30 51200 C 5004.47 0.206936 -4.23995 0
M  V30 51201 C 5002.37 -1.64705 -5.68002 0
M  V30 51202 H 5001.3 -0.0544159 -0.752034 0
M  V30 51203 H 5003.95 -0.808444 -1.64731 0
M  V30 51204 H 5002.34 0.492799 -3.92922 0
M  V30 51205 H 5003.51 -2.3661 -3.95414 0
M  V30 51206 H 5001.83 -2.00083 -3.65179 0
M  V30 51207 H 5004.42 0.207238 -5.34298 0
M  V30 51208 H 5004.77 1.23728 -3.97489 0
M  V30 51209 H 5005.3 -0.461332 -3.95116 0
M  V30 51210 H 5002.04 -2.65629 -5.99267 0
M  V30 51211 H 5001.56 -0.945123 -5.92307 0
M  V30 51212 H 5003.24 -1.38815 -6.31933 0
M  V30 51213 N 5003.37 1.52728 -0.388822 0
M  V30 51214 C 5004.61 2.03484 0.193301 0
M  V30 51215 C 5004.97 1.26903 1.44082 0
M  V30 51216 O 5006.17 1.6778 2.10008 0
M  V30 51217 C 5004.44 3.54489 0.4552 0
M  V30 51218 S 5006 4.27073 1.00768 0
M  V30 51219 H 5002.82 0.708909 0.0544882 0
M  V30 51220 H 5005.42 1.87979 -0.537059 0
M  V30 51221 H 5004.13 4.07815 -0.459865 0
M  V30 51222 H 5003.66 3.742 1.214 0
M  V30 51223 H 5005.67 4.40193 2.29008 0
M  V30 51224 N 5004.85 0.118632 1.57153 0
M  V30 51225 C 5006.07 -0.54719 1.99533 0
M  V30 51226 C 5006.49 -1.60248 0.998303 0
M  V30 51227 O 5005.85 -1.82498 -0.00886691 0
M  V30 51228 C 5005.9 -1.17366 3.41918 0
M  V30 51229 O 5005.62 -0.160549 4.37806 0
M  V30 51230 C 5007.12 -1.92283 3.99427 0
M  V30 51231 H 5004.34 -0.144896 0.655169 0
M  V30 51232 H 5006.88 0.204861 2.03471 0
M  V30 51233 H 5005.04 -1.87649 3.3892 0
M  V30 51234 H 5005.45 -0.615677 5.20874 0
M  V30 51235 H 5006.93 -2.31444 5.01136 0
M  V30 51236 H 5007.4 -2.79789 3.38548 0
M  V30 51237 H 5008.01 -1.26763 4.05969 0
M  V30 51238 N 5006.32 -1.56835 -0.15514 0
M  V30 51239 C 5007.27 -1.98589 -1.21101 0
M  V30 51240 C 5008.27 -0.877038 -1.44929 0
M  V30 51241 O 5009.47 -1.0622 -1.45318 0
M  V30 51242 H 5005.85 -0.632053 -0.407447 0
M  V30 51243 H 5007.82 -2.86564 -0.832095 0
M  V30 51244 C 5006.57 -2.37564 -2.53887 0
M  V30 51245 H 5005.89 -3.22436 -2.36379 0
M  V30 51246 H 5007.33 -2.7061 -3.26414 0
M  V30 51247 C 5005.79 -1.22518 -3.13833 0
M  V30 51248 O 5006.32 -0.521528 -3.983 0
M  V30 51249 N 5004.53 -0.99154 -2.73161 0
M  V30 51250 H 5004.07 -1.56551 -2.04572 0
M  V30 51251 H 5004.03 -0.223657 -3.13603 0
M  V30 51252 N 5007.8 0.424229 -1.51783 0
M  V30 51253 C 5009.21 1.00363 -1.5743 0
M  V30 51254 C 5009.56 1.91961 -0.405647 0
M  V30 51255 O 5008.69 2.11101 0.475935 0
M  V30 51256 C 5009.28 1.82697 -2.8532 0
M  V30 51257 C 5007.84 2.35664 -2.93495 0
M  V30 51258 C 5006.99 1.15231 -2.52224 0
M  V30 51259 H 5009.94 0.205009 -1.5737 0
M  V30 51260 H 5009.96 2.68285 -2.69821 0
M  V30 51261 H 5009.47 1.16004 -3.70357 0
M  V30 51262 H 5007.58 3.05773 -2.12917 0
M  V30 51263 H 5007.69 2.67564 -3.97425 0
M  V30 51264 H 5006.05 1.50167 -2.05723 0
M  V30 51265 H 5006.84 0.501281 -3.3962 0
M  V30 51266 N 5009.28 1.4215 0.680515 0
M  V30 51267 C 5010.24 1.44886 1.77597 0
M  V30 51268 C 5011.24 0.337264 1.57223 0
M  V30 51269 O 5012.43 0.597836 1.6362 0
M  V30 51270 C 5009.57 1.27494 3.16161 0
M  V30 51271 H 5010.76 2.42418 1.7656 0
M  V30 51272 H 5008.31 1.28514 0.8896 0
M  V30 51273 H 5009.05 0.308624 3.22828 0
M  V30 51274 H 5008.83 2.08049 3.32352 0
M  V30 51275 H 5010.32 1.32278 3.96096 0
M  V30 51276 N 5010.76 -0.916262 1.28228 0
M  V30 51277 C 5012.01 -1.66514 1.15235 0
M  V30 51278 C 5012.33 -1.92179 -0.299565 0
M  V30 51279 O 5011.59 -1.51846 -1.23455 0
M  V30 51280 C 5011.89 -3.03119 1.89351 0
M  V30 51281 C 5011.55 -2.97123 3.39159 0
M  V30 51282 C 5010.22 -2.95195 3.80017 0
M  V30 51283 C 5012.57 -2.87558 4.34695 0
M  V30 51284 C 5009.9 -2.815 5.14757 0
M  V30 51285 C 5012.25 -2.75404 5.69505 0
M  V30 51286 C 5010.91 -2.71832 6.09642 0
M  V30 51287 H 5010.18 -0.609319 0.421676 0
M  V30 51288 H 5012.83 -1.06771 1.58973 0
M  V30 51289 H 5011.13 -3.66634 1.38156 0
M  V30 51290 H 5012.83 -3.59961 1.76717 0
M  V30 51291 H 5009.42 -2.99417 3.06671 0
M  V30 51292 H 5013.6 -2.88137 4.04092 0
M  V30 51293 H 5008.86 -2.77129 5.44986 0
M  V30 51294 H 5013.03 -2.66971 6.43195 0
M  V30 51295 H 5010.66 -2.60978 7.13999 0
M  V30 51296 N 5012.24 -1.10435 -1.12436 0
M  V30 51297 C 5013.49 -0.841604 -1.83303 0
M  V30 51298 C 5013.8 0.634896 -1.85009 0
M  V30 51299 O 5015.01 1.01354 -2.51872 0
M  V30 51300 C 5013.46 -1.45577 -3.29144 0
M  V30 51301 C 5013.07 -2.96556 -3.35796 0
M  V30 51302 C 5014.81 -1.27241 -4.04982 0
M  V30 51303 C 5012.72 -3.51007 -4.75971 0
M  V30 51304 H 5011.65 -0.31118 -0.686792 0
M  V30 51305 H 5014.3 -1.32834 -1.266 0
M  V30 51306 H 5012.68 -0.89671 -3.85714 0
M  V30 51307 H 5013.86 -3.58776 -2.89165 0
M  V30 51308 H 5012.17 -3.14046 -2.73431 0
M  V30 51309 H 5014.77 -1.65366 -5.08486 0
M  V30 51310 H 5015.11 -0.21398 -4.1575 0
M  V30 51311 H 5015.65 -1.79954 -3.5477 0
M  V30 51312 H 5012.38 -4.56516 -4.70397 0
M  V30 51313 H 5011.9 -2.93553 -5.23055 0
M  V30 51314 H 5013.58 -3.48828 -5.44911 0
M  V30 51315 N 5013.72 1.29852 -0.893099 0
M  V30 51316 C 5014.96 1.9761 -0.522468 0
M  V30 51317 C 5015.32 1.68906 0.91294 0
M  V30 51318 O 5016.52 2.30064 1.39011 0
M  V30 51319 C 5014.79 3.48353 -0.799052 0
M  V30 51320 S 5016.35 4.35566 -0.531741 0
M  V30 51321 H 5013.17 0.683998 -0.194082 0
M  V30 51322 H 5015.77 1.57799 -1.15411 0
M  V30 51323 H 5014.47 3.66736 -1.84209 0
M  V30 51324 H 5014.01 3.93093 -0.155271 0
M  V30 51325 H 5016.02 4.92234 0.626122 0
M  V30 51326 N 5015.19 0.65489 1.43349 0
M  V30 51327 C 5016.47 0.0988057 1.9535 0
M  V30 51328 C 5016.85 -1.38156 1.59613 0
M  V30 51329 O 5016.2 -2.10787 0.882095 0
M  V30 51330 C 5016.41 0.346806 3.47273 0
M  V30 51331 C 5017.76 0.252639 4.23848 0
M  V30 51332 O 5018.78 0.279457 3.55102 0
M  V30 51333 O 5017.64 0.177776 5.46211 0
M  V30 51334 H 5014.73 -0.00865383 0.826955 0
M  V30 51335 H 5017.28 0.728243 1.5328 0
M  V30 51336 H 5016.05 1.37309 3.66418 0
M  V30 51337 H 5015.67 -0.315618 3.96345 0
M  V30 51338 N 5016.67 -1.5252 0.396917 0
M  V30 51339 C 5017.92 -2.01275 -0.182466 0
M  V30 51340 C 5018.24 -1.2849 -1.46681 0
M  V30 51341 O 5017.51 -0.407201 -1.91621 0
M  V30 51342 H 5016.09 -0.743674 -0.0704181 0
M  V30 51343 H 5018.75 -1.87545 0.530355 0
M  V30 51344 H 5017.85 -3.09688 -0.387277 0
M  V30 51345 N 5018.15 -0.126964 -1.57088 0
M  V30 51346 C 5019.43 0.573087 -1.87016 0
M  V30 51347 C 5019.81 1.84294 -1.02952 0
M  V30 51348 O 5019.15 2.28232 -0.110653 0
M  V30 51349 C 5019.36 0.857865 -3.38292 0
M  V30 51350 C 5020.71 1.20744 -4.0707 0
M  V30 51351 O 5021.74 0.947871 -3.43357 0
M  V30 51352 O 5020.6 1.69497 -5.19551 0
M  V30 51353 H 5017.69 0.290055 -0.774466 0
M  V30 51354 H 5020.24 -0.162068 -1.68924 0
M  V30 51355 H 5019.01 -0.0416662 -3.91278 0
M  V30 51356 H 5018.63 1.6479 -3.61842 0
M  V30 51357 N 5019.63 1.56915 0.14682 0
M  V30 51358 C 5020.58 1.99228 1.20046 0
M  V30 51359 C 5021.57 0.884711 1.44462 0
M  V30 51360 O 5022.78 1.06989 1.44752 0
M  V30 51361 H 5019.15 0.634205 0.404089 0
M  V30 51362 H 5021.12 2.87001 0.816886 0
M  V30 51363 C 5019.87 2.38907 2.52623 0
M  V30 51364 H 5019.19 3.23685 2.34665 0
M  V30 51365 H 5020.63 2.72337 3.24975 0
M  V30 51366 C 5019.09 1.24181 3.13178 0
M  V30 51367 O 5019.62 0.542643 3.98018 0
M  V30 51368 N 5017.83 1.00601 2.72631 0
M  V30 51369 H 5017.38 1.57634 2.03739 0
M  V30 51370 H 5017.33 0.240285 3.1348 0
M  V30 51371 N 5021.11 -0.416173 1.52006 0
M  V30 51372 C 5022.38 -1.17632 1.56276 0
M  V30 51373 C 5022.76 -2.08351 0.339566 0
M  V30 51374 O 5022.11 -2.18332 -0.674047 0
M  V30 51375 C 5022.32 -1.95976 2.88781 0
M  V30 51376 C 5023.67 -2.52287 3.41521 0
M  V30 51377 O 5024.69 -2.06164 2.90474 0
M  V30 51378 O 5023.55 -3.36465 4.30643 0
M  V30 51379 H 5020.65 -0.536704 0.629188 0
M  V30 51380 H 5023.19 -0.423525 1.6433 0
M  V30 51381 H 5021.96 -1.29474 3.69259 0
M  V30 51382 H 5021.59 -2.78275 2.83987 0
M  V30 51383 N 5022.58 -1.42509 -0.672966 0
M  V30 51384 C 5023.82 -1.44564 -1.44501 0
M  V30 51385 C 5024.19 -0.0606881 -1.91904 0
M  V30 51386 O 5025.39 0.0440445 -2.68764 0
M  V30 51387 C 5023.66 -2.443 -2.60868 0
M  V30 51388 S 5025.22 -2.65071 -3.49689 0
M  V30 51389 H 5022.04 -0.511827 -0.493512 0
M  V30 51390 H 5024.64 -1.79127 -0.783193 0
M  V30 51391 H 5023.34 -3.43692 -2.24285 0
M  V30 51392 H 5022.87 -2.11168 -3.31921 0
M  V30 51393 H 5024.89 -1.9351 -4.56912 0
M  V30 51394 N 5024.06 0.909449 -1.28712 0
M  V30 51395 C 5024.99 2.01725 -1.08811 0
M  V30 51396 C 5026.01 1.62754 -0.0385311 0
M  V30 51397 O 5027.2 1.76258 -0.282039 0
M  V30 51398 C 5024.3 3.32949 -0.632287 0
M  V30 51399 C 5023.47 4.00506 -1.75823 0
M  V30 51400 C 5022.53 5.10014 -1.29506 0
M  V30 51401 O 5021.55 5.32979 -1.99806 0
M  V30 51402 N 5022.76 5.80278 -0.160604 0
M  V30 51403 H 5025.52 2.19355 -2.04215 0
M  V30 51404 H 5023.08 1.08102 -1.20522 0
M  V30 51405 H 5025.07 4.03542 -0.305944 0
M  V30 51406 H 5023.64 3.1176 0.229024 0
M  V30 51407 H 5022.86 3.23405 -2.25394 0
M  V30 51408 H 5024.15 4.42386 -2.51341 0
M  V30 51409 H 5023.55 5.64096 0.425739 0
M  V30 51410 H 5022.11 6.51713 0.106434 0
M  V30 51411 N 5025.54 1.1103 1.11848 0
M  V30 51412 C 5026.82 0.76841 1.79874 0
M  V30 51413 C 5027.2 -0.744192 1.97547 0
M  V30 51414 O 5026.54 -1.67265 1.55675 0
M  V30 51415 C 5026.75 1.52659 3.13841 0
M  V30 51416 C 5028.1 1.70311 3.88947 0
M  V30 51417 O 5029.13 1.49048 3.23517 0
M  V30 51418 O 5027.99 2.05611 5.06346 0
M  V30 51419 H 5025.08 0.277918 0.778903 0
M  V30 51420 H 5027.63 1.21348 1.18629 0
M  V30 51421 H 5026.4 2.55574 2.96306 0
M  V30 51422 H 5026.02 1.0748 3.82797 0
M  V30 51423 N 5027.02 -1.29376 0.899973 0
M  V30 51424 C 5027.97 -2.29674 0.367778 0
M  V30 51425 C 5028.96 -1.60789 -0.533225 0
M  V30 51426 O 5030.17 -1.75127 -0.415996 0
M  V30 51427 H 5026.54 -0.74528 0.100305 0
M  V30 51428 H 5028.51 -2.72004 1.22705 0
M  V30 51429 C 5027.26 -3.45513 -0.389361 0
M  V30 51430 H 5026.58 -3.98712 0.294715 0
M  V30 51431 H 5028.02 -4.17728 -0.726598 0
M  V30 51432 C 5026.48 -2.96906 -1.59213 0
M  V30 51433 O 5027.01 -2.98204 -2.69142 0
M  V30 51434 N 5025.22 -2.52733 -1.43438 0
M  V30 51435 H 5024.77 -2.51875 -0.540059 0
M  V30 51436 H 5024.72 -2.20569 -2.24046 0
M  V30 51437 N 5028.5 -0.662483 -1.43 0
M  V30 51438 C 5029.72 -0.186075 -2.06564 0
M  V30 51439 C 5030.15 1.14308 -1.49383 0
M  V30 51440 O 5029.5 1.70822 -0.607406 0
M  V30 51441 C 5029.55 -0.118396 -3.60406 0
M  V30 51442 O 5028.66 0.916718 -4.02082 0
M  V30 51443 H 5028 -0.0991212 -0.65656 0
M  V30 51444 H 5030.53 -0.908023 -1.83347 0
M  V30 51445 H 5030.54 0.0618547 -4.07953 0
M  V30 51446 H 5029.21 -1.08863 -4.014 0
M  V30 51447 H 5027.79 0.708506 -3.66107 0
M  V30 51448 N 5029.97 1.52307 -0.404999 0
M  V30 51449 C 5031.25 1.94237 0.230476 0
M  V30 51450 C 5031.63 1.3416 1.62986 0
M  V30 51451 O 5030.98 0.515791 2.22602 0
M  V30 51452 C 5031.19 3.48167 0.240984 0
M  V30 51453 C 5032.54 4.22075 0.46234 0
M  V30 51454 O 5033.56 3.54755 0.320519 0
M  V30 51455 O 5032.42 5.41446 0.741518 0
M  V30 51456 H 5029.51 0.813771 0.147329 0
M  V30 51457 H 5032.06 1.63328 -0.460644 0
M  V30 51458 H 5030.83 3.84266 -0.738602 0
M  V30 51459 H 5030.46 3.85425 0.976375 0
M  V30 51460 N 5031.45 0.135293 1.57018 0
M  V30 51461 C 5032.36 -0.822149 2.19722 0
M  V30 51462 C 5033.38 -1.28053 1.17807 0
M  V30 51463 O 5034.55 -1.34014 1.5034 0
M  V30 51464 C 5031.62 -2.0483 2.79724 0
M  V30 51465 C 5030.68 -1.64028 3.96728 0
M  V30 51466 C 5029.91 -2.80798 4.53859 0
M  V30 51467 O 5030.14 -3.96686 4.09874 0
M  V30 51468 O 5029.07 -2.56944 5.44301 0
M  V30 51469 H 5032.9 -0.318446 3.02026 0
M  V30 51470 H 5030.48 -0.0911497 1.49122 0
M  V30 51471 H 5032.36 -2.76611 3.17906 0
M  V30 51472 H 5031.04 -2.54175 2.00441 0
M  V30 51473 H 5029.95 -0.893055 3.63284 0
M  V30 51474 H 5031.28 -1.19409 4.77496 0
M  V30 51475 N 5032.93 -1.5699 -0.138497 0
M  V30 51476 C 5033.89 -1.97988 -1.15471 0
M  V30 51477 C 5034.89 -0.867463 -1.35395 0
M  V30 51478 O 5036.08 -1.13391 -1.32242 0
M  V30 51479 C 5033.22 -2.30319 -2.51329 0
M  V30 51480 H 5034.41 -2.88955 -0.802795 0
M  V30 51481 H 5031.96 -1.51557 -0.382135 0
M  V30 51482 H 5032.7 -1.42169 -2.91476 0
M  V30 51483 H 5032.48 -3.11433 -2.38226 0
M  V30 51484 H 5033.97 -2.62845 -3.24503 0
M  V30 51485 N 5034.41 0.408106 -1.52224 0
M  V30 51486 C 5035.36 1.51782 -1.76253 0
M  V30 51487 C 5036.35 1.57262 -0.629693 0
M  V30 51488 O 5037.56 1.60656 -0.81176 0
M  V30 51489 H 5033.93 0.504803 -0.557385 0
M  V30 51490 H 5035.9 1.28701 -2.69219 0
M  V30 51491 C 5034.65 2.89138 -1.93117 0
M  V30 51492 H 5033.97 2.85665 -2.79707 0
M  V30 51493 H 5035.41 3.66074 -2.13929 0
M  V30 51494 C 5033.87 3.29578 -0.698547 0
M  V30 51495 O 5034.4 4.01479 0.133097 0
M  V30 51496 N 5032.61 2.85649 -0.53415 0
M  V30 51497 H 5032.16 2.27306 -1.21202 0
M  V30 51498 H 5032.11 3.13066 0.289277 0
M  V30 51499 N 5035.89 1.42864 0.665399 0
M  V30 51500 C 5037.13 1.45328 1.43733 0
M  V30 51501 C 5037.49 0.0708644 1.91869 0
M  V30 51502 O 5038.69 -0.0297907 2.68783 0
M  V30 51503 C 5036.96 2.4568 2.59569 0
M  V30 51504 S 5038.52 2.66922 3.48279 0
M  V30 51505 H 5035.34 0.514437 0.490791 0
M  V30 51506 H 5037.94 1.79539 0.773682 0
M  V30 51507 H 5036.65 3.44877 2.22459 0
M  V30 51508 H 5036.18 2.12926 3.30796 0
M  V30 51509 H 5038.19 1.9593 4.55879 0
M  V30 51510 N 5037.36 -0.902611 1.29192 0
M  V30 51511 C 5038.64 -1.63293 1.07679 0
M  V30 51512 C 5039.02 -2.0765 -0.380064 0
M  V30 51513 O 5038.37 -1.83002 -1.3683 0
M  V30 51514 C 5038.58 -2.81595 2.06168 0
M  V30 51515 C 5039.93 -3.52351 2.36927 0
M  V30 51516 O 5040.95 -2.9176 2.04339 0
M  V30 51517 O 5039.81 -4.61575 2.92592 0
M  V30 51518 H 5036.9 -0.716874 0.412335 0
M  V30 51519 H 5039.45 -0.950935 1.40554 0
M  V30 51520 H 5038.22 -2.45993 3.04308 0
M  V30 51521 H 5037.85 -3.57502 1.74006 0
M  V30 51522 N 5038.84 -1.11622 -1.11258 0
M  V30 51523 C 5040.09 -0.860998 -1.824 0
M  V30 51524 C 5040.4 0.615237 -1.85672 0
M  V30 51525 O 5041.61 0.986772 -2.52933 0
M  V30 51526 C 5040.07 -1.49059 -3.27581 0
M  V30 51527 C 5039.67 -3.001 -3.32632 0
M  V30 51528 C 5041.42 -1.31529 -4.03609 0
M  V30 51529 C 5039.33 -3.56035 -4.72221 0
M  V30 51530 H 5038.26 -0.318447 -0.683453 0
M  V30 51531 H 5040.91 -1.34169 -1.25184 0
M  V30 51532 H 5039.29 -0.937569 -3.84741 0
M  V30 51533 H 5040.46 -3.61823 -2.85343 0
M  V30 51534 H 5038.78 -3.16928 -2.70084 0
M  V30 51535 H 5041.37 -1.70749 -5.06704 0
M  V30 51536 H 5041.72 -0.258064 -4.15499 0
M  V30 51537 H 5042.25 -1.83706 -3.52841 0
M  V30 51538 H 5038.99 -4.61479 -4.65529 0
M  V30 51539 H 5038.51 -2.99085 -5.19912 0
M  V30 51540 H 5040.19 -3.54587 -5.41181 0
M  V30 51541 N 5040.32 1.28897 -0.906821 0
M  V30 51542 C 5041.27 2.25121 -0.361188 0
M  V30 51543 C 5042.25 1.5217 0.522776 0
M  V30 51544 O 5043.45 1.73225 0.36363 0
M  V30 51545 C 5040.58 3.40916 0.403862 0
M  V30 51546 C 5039.66 4.21196 -0.495428 0
M  V30 51547 N 5040.05 4.7963 -1.60589 0
M  V30 51548 C 5038.35 4.45026 -0.294529 0
M  V30 51549 C 5039.05 5.3997 -2.16351 0
M  V30 51550 N 5038.03 5.23748 -1.45564 0
M  V30 51551 H 5041.83 2.67865 -1.20936 0
M  V30 51552 H 5039.34 1.43589 -0.758682 0
M  V30 51553 H 5041.34 4.08925 0.811551 0
M  V30 51554 H 5040 2.99708 1.24921 0
M  V30 51555 H 5041.01 4.78202 -1.98855 0
M  V30 51556 H 5037.69 4.1435 0.511875 0
M  V30 51557 H 5039.08 5.96255 -3.09725 0
M  V30 51558 N 5041.8 0.670057 1.42646 0
M  V30 51559 C 5043.05 0.190639 2.01902 0
M  V30 51560 C 5043.38 -1.19811 1.52836 0
M  V30 51561 O 5042.65 -1.8034 0.728549 0
M  V30 51562 C 5042.94 0.220036 3.59427 0
M  V30 51563 C 5042.79 1.6439 4.18683 0
M  V30 51564 C 5044.11 -0.434365 4.37951 0
M  V30 51565 H 5041.23 0.0707477 0.733596 0
M  V30 51566 H 5043.87 0.853943 1.69729 0
M  V30 51567 H 5042.02 -0.344758 3.86967 0
M  V30 51568 H 5043.69 2.26058 4.02114 0
M  V30 51569 H 5041.93 2.18605 3.74692 0
M  V30 51570 H 5042.61 1.61619 5.2781 0
M  V30 51571 H 5045.08 0.0463618 4.16074 0
M  V30 51572 H 5043.96 -0.383138 5.47561 0
M  V30 51573 H 5044.22 -1.51121 4.1547 0
M  V30 51574 N 5043.28 -1.5209 0.413071 0
M  V30 51575 C 5044.52 -2.03766 -0.160904 0
M  V30 51576 C 5044.88 -1.29179 -1.42045 0
M  V30 51577 O 5046.08 -1.711 -2.07312 0
M  V30 51578 C 5044.35 -3.55169 -0.398746 0
M  V30 51579 S 5045.91 -4.28622 -0.939604 0
M  V30 51580 H 5042.73 -0.709686 -0.0432032 0
M  V30 51581 H 5045.33 -1.871 0.566897 0
M  V30 51582 H 5044.04 -4.07032 0.524687 0
M  V30 51583 H 5043.57 -3.76084 -1.15431 0
M  V30 51584 H 5045.58 -4.43781 -2.21976 0
M  V30 51585 N 5044.76 -0.143618 -1.56944 0
M  V30 51586 C 5045.69 0.793523 -2.19603 0
M  V30 51587 C 5046.67 1.25951 -1.14325 0
M  V30 51588 O 5047.85 1.31768 -1.42656 0
M  V30 51589 C 5044.98 2.03414 -2.81496 0
M  V30 51590 C 5043.94 1.70505 -3.92571 0
M  V30 51591 C 5043.26 3.01802 -4.41384 0
M  V30 51592 C 5044.56 0.95431 -5.13508 0
M  V30 51593 H 5046.26 0.271318 -2.98168 0
M  V30 51594 H 5043.8 0.12906 -1.4342 0
M  V30 51595 H 5045.75 2.69452 -3.23996 0
M  V30 51596 H 5044.48 2.58001 -2.00257 0
M  V30 51597 H 5043.14 1.06847 -3.50684 0
M  V30 51598 H 5042.79 3.54373 -3.56972 0
M  V30 51599 H 5042.49 2.80547 -5.16301 0
M  V30 51600 H 5044.01 3.68917 -4.86552 0
M  V30 51601 H 5045.42 1.51671 -5.52873 0
M  V30 51602 H 5043.82 0.841826 -5.94166 0
M  V30 51603 H 5044.89 -0.0545738 -4.84869 0
M  V30 51604 N 5046.23 1.57062 0.130169 0
M  V30 51605 C 5047.64 1.73541 0.688499 0
M  V30 51606 C 5048 0.760618 1.80856 0
M  V30 51607 O 5047.12 -0.0690036 2.1629 0
M  V30 51608 C 5047.72 3.14671 1.2557 0
M  V30 51609 C 5046.27 3.32695 1.76043 0
M  V30 51610 C 5045.42 2.69438 0.655617 0
M  V30 51611 H 5048.37 1.58411 -0.0956559 0
M  V30 51612 H 5048.39 3.15603 2.12545 0
M  V30 51613 H 5047.91 3.85595 0.440276 0
M  V30 51614 H 5046.01 2.66795 2.60098 0
M  V30 51615 H 5046.12 4.40777 1.87756 0
M  V30 51616 H 5044.48 2.30365 1.08645 0
M  V30 51617 H 5045.27 3.42978 -0.148641 0
M  V30 51618 N 5047.71 -0.400028 1.52439 0
M  V30 51619 C 5048.94 -1.17215 1.71101 0
M  V30 51620 C 5049.36 -1.83268 0.42363 0
M  V30 51621 O 5048.72 -1.70381 -0.619691 0
M  V30 51622 C 5048.77 -2.20415 2.85394 0
M  V30 51623 O 5047.87 -3.2676 2.51598 0
M  V30 51624 H 5047.21 -0.341746 0.569303 0
M  V30 51625 H 5049.74 -0.467702 1.99183 0
M  V30 51626 H 5049.75 -2.64594 3.1057 0
M  V30 51627 H 5048.43 -1.71724 3.78792 0
M  V30 51628 H 5047 -2.87796 2.37124 0
M  V30 51629 N 5049.19 -1.43215 -0.657814 0
M  V30 51630 C 5050.12 -1.4398 -1.78332 0
M  V30 51631 C 5051.13 -0.336538 -1.59284 0
M  V30 51632 O 5052.32 -0.60069 -1.68089 0
M  V30 51633 C 5049.42 -1.23253 -3.15693 0
M  V30 51634 C 5048.6 -2.46332 -3.61441 0
M  V30 51635 C 5047.66 -2.20896 -4.77589 0
M  V30 51636 O 5046.68 -2.94217 -4.87263 0
M  V30 51637 N 5047.88 -1.22271 -5.67477 0
M  V30 51638 H 5050.65 -2.40999 -1.78155 0
M  V30 51639 H 5048.21 -1.38313 -0.8415 0
M  V30 51640 H 5050.2 -1.04127 -3.91075 0
M  V30 51641 H 5048.77 -0.346958 -3.10669 0
M  V30 51642 H 5047.99 -2.80913 -2.76553 0
M  V30 51643 H 5049.28 -3.28253 -3.88751 0
M  V30 51644 H 5048.68 -0.616631 -5.62329 0
M  V30 51645 H 5047.23 -1.0913 -6.42599 0
M  V30 51646 N 5050.67 0.895746 -1.29669 0
M  V30 51647 C 5051.91 1.6466 -1.1787 0
M  V30 51648 C 5052.24 1.92632 0.268953 0
M  V30 51649 O 5051.5 1.53791 1.21024 0
M  V30 51650 C 5051.8 3.00068 -1.9415 0
M  V30 51651 C 5051.46 2.9169 -3.43843 0
M  V30 51652 C 5050.12 2.89112 -3.84666 0
M  V30 51653 C 5052.48 2.80606 -4.39215 0
M  V30 51654 C 5049.8 2.73275 -5.1917 0
M  V30 51655 C 5052.16 2.66309 -5.73814 0
M  V30 51656 C 5050.82 2.62099 -6.13889 0
M  V30 51657 H 5050.09 0.602534 -0.431317 0
M  V30 51658 H 5052.74 1.04228 -1.60651 0
M  V30 51659 H 5051.04 3.64389 -1.43971 0
M  V30 51660 H 5052.74 3.57105 -1.82421 0
M  V30 51661 H 5049.33 2.945 -3.11396 0
M  V30 51662 H 5053.51 2.81672 -4.08625 0
M  V30 51663 H 5048.77 2.68424 -5.49326 0
M  V30 51664 H 5052.94 2.56704 -6.47361 0
M  V30 51665 H 5050.57 2.49586 -7.18061 0
M  V30 51666 N 5052.15 1.1221 1.10665 0
M  V30 51667 C 5053.09 0.787793 2.16939 0
M  V30 51668 C 5054.06 -0.244385 1.64292 0
M  V30 51669 O 5055.25 -0.119491 1.90425 0
M  V30 51670 C 5052.39 0.245961 3.44222 0
M  V30 51671 C 5051.5 1.33567 4.10833 0
M  V30 51672 C 5050.64 0.753522 5.25828 0
M  V30 51673 C 5049.67 1.82252 5.84338 0
M  V30 51674 N 5048.81 1.25927 6.90715 0
M  V30 51675 H 5053.65 1.69818 2.4488 0
M  V30 51676 H 5051.19 0.847904 1.20204 0
M  V30 51677 H 5053.15 -0.0862173 4.17111 0
M  V30 51678 H 5051.78 -0.627591 3.1664 0
M  V30 51679 H 5050.83 1.78466 3.35937 0
M  V30 51680 H 5052.14 2.14412 4.50365 0
M  V30 51681 H 5051.29 0.371873 6.05559 0
M  V30 51682 H 5050.03 -0.0861583 4.87624 0
M  V30 51683 H 5049.04 2.21338 5.03279 0
M  V30 51684 H 5050.26 2.66537 6.24608 0
M  V30 51685 H 5048.21 0.44137 6.54514 0
M  V30 51686 H 5048.13 2.00434 7.28946 0
M  V30 51687 H 5049.39 0.904771 7.74231 0
M  V30 51688 N 5053.62 -1.28415 0.913644 0
M  V30 51689 C 5054.86 -1.96754 0.55384 0
M  V30 51690 C 5055.23 -1.70338 -0.885953 0
M  V30 51691 O 5056.43 -2.32247 -1.35333 0
M  V30 51692 C 5054.7 -3.47038 0.854371 0
M  V30 51693 S 5056.26 -4.34665 0.600969 0
M  V30 51694 H 5053.08 -0.680824 0.204939 0
M  V30 51695 H 5055.68 -1.55943 1.17907 0
M  V30 51696 H 5054.38 -3.63759 1.9002 0
M  V30 51697 H 5053.91 -3.92797 0.21779 0
M  V30 51698 H 5055.93 -4.93168 -0.547732 0
M  V30 51699 N 5055.1 -0.677613 -1.42289 0
M  V30 51700 C 5056.33 -0.209531 -2.05836 0
M  V30 51701 C 5056.74 1.13439 -1.50921 0
M  V30 51702 O 5056.1 1.70527 -0.65014 0
M  V30 51703 C 5056.15 -0.138946 -3.61233 0
M  V30 51704 O 5055.87 -1.42976 -4.14113 0
M  V30 51705 C 5057.37 0.352293 -4.41898 0
M  V30 51706 H 5054.59 -0.101232 -0.66332 0
M  V30 51707 H 5057.14 -0.925141 -1.82377 0
M  V30 51708 H 5055.29 0.52737 -3.83794 0
M  V30 51709 H 5055.71 -1.30498 -5.08006 0
M  V30 51710 H 5057.18 0.350585 -5.50886 0
M  V30 51711 H 5057.66 1.38806 -4.16689 0
M  V30 51712 H 5058.26 -0.282385 -4.24361 0
M  V30 51713 N 5056.58 1.51869 -0.421131 0
M  V30 51714 C 5057.53 2.28904 0.412986 0
M  V30 51715 C 5058.52 1.34084 1.03527 0
M  V30 51716 O 5059.73 1.51494 0.972093 0
M  V30 51717 H 5056.1 0.736483 0.151977 0
M  V30 51718 H 5058.07 2.97284 -0.2578 0
M  V30 51719 C 5056.82 3.13161 1.5108 0
M  V30 51720 H 5056.15 3.86001 1.04132 0
M  V30 51721 H 5057.59 3.70147 2.06801 0
M  V30 51722 C 5056.05 2.2749 2.48495 0
M  V30 51723 O 5056.58 1.92338 3.5266 0
M  V30 51724 N 5054.78 1.91026 2.18992 0
M  V30 51725 H 5054.33 2.19812 1.34314 0
M  V30 51726 H 5054.29 1.34 2.84414 0
M  V30 51727 N 5058.06 0.151939 1.56866 0
M  V30 51728 C 5059.29 -0.504743 2.00649 0
M  V30 51729 C 5059.7 -1.58094 1.03207 0
M  V30 51730 O 5059.06 -1.82476 0.0298456 0
M  V30 51731 C 5059.11 -1.10087 3.4433 0
M  V30 51732 O 5058.83 -0.0676481 4.38048 0
M  V30 51733 C 5060.33 -1.83767 4.03416 0
M  V30 51734 H 5057.55 -0.130966 0.658095 0
M  V30 51735 H 5060.1 0.247975 2.02991 0
M  V30 51736 H 5058.25 -1.80418 3.42824 0
M  V30 51737 H 5058.66 -0.505054 5.22063 0
M  V30 51738 H 5060.14 -2.20762 5.05933 0
M  V30 51739 H 5060.62 -2.72545 3.44407 0
M  V30 51740 H 5061.22 -1.18123 4.08567 0
M  V30 51741 N 5059.54 -1.57128 -0.121838 0
M  V30 51742 C 5060.48 -2.01113 -1.16861 0
M  V30 51743 C 5061.48 -0.907582 -1.43036 0
M  V30 51744 O 5062.68 -1.09279 -1.43032 0
M  V30 51745 H 5059.06 -0.640553 -0.393949 0
M  V30 51746 H 5061.03 -2.88264 -0.771123 0
M  V30 51747 C 5059.78 -2.42896 -2.48791 0
M  V30 51748 H 5059.1 -3.27378 -2.29486 0
M  V30 51749 H 5060.54 -2.77473 -3.20601 0
M  V30 51750 C 5059 -1.29148 -3.11163 0
M  V30 51751 O 5059.53 -0.605896 -3.97104 0
M  V30 51752 N 5057.74 -1.04926 -2.70996 0
M  V30 51753 H 5057.28 -1.60855 -2.01205 0
M  V30 51754 H 5057.24 -0.290126 -3.13059 0
M  V30 51755 N 5061.01 0.391938 -1.52649 0
M  V30 51756 C 5062.43 0.731798 -1.41834 0
M  V30 51757 C 5062.63 1.94228 -0.536429 0
M  V30 51758 O 5061.69 2.52498 -0.00875448 0
M  V30 51759 C 5063 0.969643 -2.84637 0
M  V30 51760 C 5064.55 1.0713 -2.94096 0
M  V30 51761 C 5065.02 1.34179 -4.37904 0
M  V30 51762 N 5066.51 1.41007 -4.41216 0
M  V30 51763 C 5067.25 1.63596 -5.49567 0
M  V30 51764 N 5066.74 1.83676 -6.68008 0
M  V30 51765 N 5068.54 1.65752 -5.37106 0
M  V30 51766 H 5060.69 -0.404621 -2.0851 0
M  V30 51767 H 5062.95 -0.118823 -0.940524 0
M  V30 51768 H 5062.66 0.152341 -3.5137 0
M  V30 51769 H 5062.53 1.88512 -3.26716 0
M  V30 51770 H 5064.92 1.87917 -2.27533 0
M  V30 51771 H 5065 0.133797 -2.5545 0
M  V30 51772 H 5064.64 0.539029 -5.05032 0
M  V30 51773 H 5064.57 2.29209 -4.741 0
M  V30 51774 H 5067.06 1.2721 -3.55845 0
M  V30 51775 H 5067.38 2.00411 -7.46361 0
M  V30 51776 H 5065.72 1.80906 -6.71042 0
M  V30 51777 H 5068.91 1.49614 -4.43546 0
M  V30 51778 H 5069.09 1.83016 -6.21618 0
M  V30 51779 N 5062.49 1.43562 0.650209 0
M  V30 51780 C 5063.73 1.46844 1.42183 0
M  V30 51781 C 5064.1 0.0912107 1.91783 0
M  V30 51782 O 5065.3 -0.00128095 2.688 0
M  V30 51783 C 5063.57 2.4842 2.56948 0
M  V30 51784 S 5065.13 2.70601 3.45428 0
M  V30 51785 H 5061.95 0.519613 0.485307 0
M  V30 51786 H 5064.55 1.8035 0.754596 0
M  V30 51787 H 5063.25 3.47217 2.18789 0
M  V30 51788 H 5062.78 2.16422 3.28519 0
M  V30 51789 H 5064.8 2.00754 4.53775 0
M  V30 51790 N 5063.97 -0.888857 1.30143 0
M  V30 51791 C 5065.22 -1.63503 1.18109 0
M  V30 51792 C 5065.53 -1.93809 -0.264073 0
M  V30 51793 O 5066.74 -2.66746 -0.505872 0
M  V30 51794 C 5065.19 -2.94665 2.06641 0
M  V30 51795 C 5064.8 -2.71913 3.56044 0
M  V30 51796 C 5066.55 -3.72619 2.0336 0
M  V30 51797 C 5064.45 -3.98868 4.36644 0
M  V30 51798 H 5063.38 -0.61341 0.438456 0
M  V30 51799 H 5066.03 -0.984373 1.54862 0
M  V30 51800 H 5064.42 -3.61003 1.62766 0
M  V30 51801 H 5065.59 -2.14101 4.08041 0
M  V30 51802 H 5063.91 -2.0734 3.61108 0
M  V30 51803 H 5066.5 -4.66766 2.60832 0
M  V30 51804 H 5066.85 -4.03708 1.01614 0
M  V30 51805 H 5067.38 -3.13139 2.45335 0
M  V30 51806 H 5064.12 -3.7294 5.39069 0
M  V30 51807 H 5063.64 -4.562 3.89412 0
M  V30 51808 H 5065.32 -4.66923 4.47875 0
M  V30 51809 N 5065.45 -1.12795 -1.10068 0
M  V30 51810 C 5066.86 -0.899403 -1.63608 0
M  V30 51811 C 5067.21 0.565481 -1.87874 0
M  V30 51812 O 5066.34 1.43075 -1.62353 0
M  V30 51813 C 5066.93 -1.62618 -2.97222 0
M  V30 51814 C 5065.49 -1.44368 -3.47613 0
M  V30 51815 C 5064.64 -1.65966 -2.2215 0
M  V30 51816 H 5067.59 -1.28219 -0.935178 0
M  V30 51817 H 5067.61 -1.07943 -3.64868 0
M  V30 51818 H 5067.12 -2.69231 -2.79528 0
M  V30 51819 H 5065.22 -0.400278 -3.70444 0
M  V30 51820 H 5065.33 -2.20233 -4.25481 0
M  V30 51821 H 5063.7 -1.08403 -2.3048 0
M  V30 51822 H 5064.48 -2.73884 -2.06984 0
M  V30 51823 N 5066.93 1.27928 -0.920441 0
M  V30 51824 C 5068.17 1.94302 -0.555975 0
M  V30 51825 C 5068.5 1.72756 0.904458 0
M  V30 51826 O 5067.77 1.0711 1.64025 0
M  V30 51827 H 5066.35 0.718994 -0.202624 0
M  V30 51828 H 5069.01 1.55781 -1.17126 0
M  V30 51829 H 5068.1 3.02803 -0.756087 0
M  V30 51830 N 5068.4 0.685149 1.41928 0
M  V30 51831 C 5069.65 0.208886 2.00615 0
M  V30 51832 C 5069.97 -1.195 1.54852 0
M  V30 51833 O 5071.17 -1.76819 2.06028 0
M  V30 51834 C 5069.63 0.322572 3.58452 0
M  V30 51835 C 5069.24 1.73117 4.132 0
M  V30 51836 C 5070.98 -0.0944487 4.24395 0
M  V30 51837 C 5068.89 1.79707 5.63435 0
M  V30 51838 H 5067.82 0.0743356 0.750327 0
M  V30 51839 H 5070.47 0.851836 1.6253 0
M  V30 51840 H 5068.85 -0.388449 3.9409 0
M  V30 51841 H 5070.02 2.47011 3.89002 0
M  V30 51842 H 5068.34 2.09695 3.59746 0
M  V30 51843 H 5070.94 -0.0655057 5.3466 0
M  V30 51844 H 5071.28 -1.13146 4.00629 0
M  V30 51845 H 5071.81 0.565928 3.93754 0
M  V30 51846 H 5068.55 2.81425 5.92014 0
M  V30 51847 H 5068.07 1.10183 5.89593 0
M  V30 51848 H 5069.75 1.5552 6.28031 0
M  V30 51849 N 5069.88 -1.51644 0.429179 0
M  V30 51850 C 5071.13 -2.02015 -0.140008 0
M  V30 51851 C 5071.46 -1.31379 -1.43422 0
M  V30 51852 O 5070.71 -0.414846 -1.91252 0
M  V30 51853 C 5071.01 -3.5499 -0.414347 0
M  V30 51854 C 5070.68 -4.43871 0.793067 0
M  V30 51855 C 5069.34 -4.67884 1.12421 0
M  V30 51856 C 5071.69 -4.96068 1.59892 0
M  V30 51857 C 5069.02 -5.4134 2.26203 0
M  V30 51858 C 5071.37 -5.70772 2.72767 0
M  V30 51859 C 5070.04 -5.93051 3.06344 0
M  V30 51860 H 5069.31 -0.739227 -0.0512325 0
M  V30 51861 H 5071.95 -1.82673 0.574705 0
M  V30 51862 H 5070.26 -3.7262 -1.21086 0
M  V30 51863 H 5071.95 -3.91492 -0.868035 0
M  V30 51864 H 5068.54 -4.25372 0.525021 0
M  V30 51865 H 5072.73 -4.77408 1.35631 0
M  V30 51866 H 5067.98 -5.56806 2.52541 0
M  V30 51867 H 5072.16 -6.1021 3.35585 0
M  V30 51868 H 5069.79 -6.4975 3.94625 0
M  V30 51869 N 5071.36 -0.160256 -1.56783 0
M  V30 51870 C 5072.78 0.196033 -1.58392 0
M  V30 51871 C 5072.98 1.63685 -1.17514 0
M  V30 51872 O 5072.03 2.3661 -0.881589 0
M  V30 51873 C 5073.35 -0.0747506 -3.00607 0
M  V30 51874 C 5074.89 -0.0120862 -3.12998 0
M  V30 51875 C 5075.37 -0.255712 -4.57286 0
M  V30 51876 N 5076.86 -0.203101 -4.62755 0
M  V30 51877 C 5077.6 -0.365933 -5.72231 0
M  V30 51878 N 5077.09 -0.587214 -6.90307 0
M  V30 51879 N 5078.88 -0.302609 -5.61285 0
M  V30 51880 H 5071.04 -1.10087 -1.81644 0
M  V30 51881 H 5073.3 -0.436809 -0.841369 0
M  V30 51882 H 5073 -1.07243 -3.34951 0
M  V30 51883 H 5072.88 0.638671 -3.71754 0
M  V30 51884 H 5075.27 0.976156 -2.78487 0
M  V30 51885 H 5075.35 -0.758045 -2.4431 0
M  V30 51886 H 5074.99 -1.24111 -4.92503 0
M  V30 51887 H 5074.92 0.510728 -5.24117 0
M  V30 51888 H 5077.41 -0.0372657 -3.77882 0
M  V30 51889 H 5077.72 -0.701211 -7.69612 0
M  V30 51890 H 5076.07 -0.623697 -6.92196 0
M  V30 51891 H 5079.26 -0.130402 -4.67918 0
M  V30 51892 H 5079.43 -0.432939 -6.46552 0
M  V30 51893 N 5072.84 1.57191 0.113503 0
M  V30 51894 C 5074.08 1.8696 0.826144 0
M  V30 51895 C 5074.44 0.748946 1.7679 0
M  V30 51896 O 5075.64 0.928559 2.52252 0
M  V30 51897 C 5073.92 3.21962 1.55161 0
M  V30 51898 S 5075.47 3.73379 2.30507 0
M  V30 51899 H 5072.29 0.655404 0.27562 0
M  V30 51900 H 5074.89 1.95319 0.0841998 0
M  V30 51901 H 5073.6 4.01462 0.851835 0
M  V30 51902 H 5073.13 3.16696 2.33382 0
M  V30 51903 H 5075.14 3.4532 3.56326 0
M  V30 51904 N 5074.32 -0.383837 1.52854 0
M  V30 51905 C 5075.27 -1.48958 1.78645 0
M  V30 51906 C 5076.26 -1.5624 0.654632 0
M  V30 51907 O 5077.47 -1.59345 0.837216 0
M  V30 51908 H 5073.84 -0.495872 0.565345 0
M  V30 51909 H 5075.81 -1.24401 2.71232 0
M  V30 51910 C 5074.56 -2.86029 1.97693 0
M  V30 51911 H 5073.88 -2.81178 2.84216 0
M  V30 51912 H 5075.32 -3.62624 2.19726 0
M  V30 51913 C 5073.78 -3.28425 0.750891 0
M  V30 51914 O 5074.31 -4.0164 -0.0692079 0
M  V30 51915 N 5072.52 -2.84763 0.579527 0
M  V30 51916 H 5072.07 -2.25349 1.24802 0
M  V30 51917 H 5072.02 -3.13487 -0.239434 0
M  V30 51918 N 5075.8 -1.43905 -0.642587 0
M  V30 51919 C 5077.04 -1.45796 -1.39957 0
M  V30 51920 C 5077.36 -0.0873828 -1.94804 0
M  V30 51921 O 5076.63 0.878764 -1.75084 0
M  V30 51922 H 5075.21 -0.536815 -0.51946 0
M  V30 51923 H 5077.88 -1.79593 -0.757126 0
M  V30 51924 H 5076.97 -2.17673 -2.23663 0
M  V30 51925 N 5077.27 0.881943 -1.30612 0
M  V30 51926 C 5078.21 1.99371 -1.13065 0
M  V30 51927 C 5079.22 1.62636 -0.0730451 0
M  V30 51928 O 5080.41 1.7562 -0.319362 0
M  V30 51929 C 5077.51 3.31533 -0.702768 0
M  V30 51930 C 5076.68 3.96687 -1.84279 0
M  V30 51931 C 5075.74 5.07153 -1.40295 0
M  V30 51932 O 5074.77 5.28621 -2.11066 0
M  V30 51933 N 5075.97 5.79807 -0.283653 0
M  V30 51934 H 5078.73 2.14974 -2.08822 0
M  V30 51935 H 5076.29 1.05521 -1.22788 0
M  V30 51936 H 5078.29 4.02802 -0.391473 0
M  V30 51937 H 5076.86 3.12176 0.162844 0
M  V30 51938 H 5076.08 3.18552 -2.32204 0
M  V30 51939 H 5077.36 4.36955 -2.60668 0
M  V30 51940 H 5076.76 5.64872 0.30599 0
M  V30 51941 H 5075.32 6.51792 -0.0318276 0
M  V30 51942 N 5078.75 1.13378 1.09468 0
M  V30 51943 C 5080.03 0.806391 1.78204 0
M  V30 51944 C 5080.41 -0.702121 1.99082 0
M  V30 51945 O 5079.76 -1.63926 1.59188 0
M  V30 51946 C 5079.97 1.59282 3.10532 0
M  V30 51947 C 5081.31 1.78522 3.85247 0
M  V30 51948 O 5082.34 1.55877 3.20282 0
M  V30 51949 O 5081.2 2.16305 5.01871 0
M  V30 51950 H 5078.29 0.294378 0.772833 0
M  V30 51951 H 5080.84 1.23837 1.16028 0
M  V30 51952 H 5079.61 2.61802 2.90818 0
M  V30 51953 H 5079.23 1.15575 3.80432 0
M  V30 51954 N 5080.23 -1.27438 0.927213 0
M  V30 51955 C 5081.18 -2.28842 0.416413 0
M  V30 51956 C 5082.17 -1.61884 -0.499 0
M  V30 51957 O 5083.38 -1.7597 -0.378756 0
M  V30 51958 H 5079.75 -0.742985 0.116091 0
M  V30 51959 H 5081.72 -2.6934 1.28447 0
M  V30 51960 C 5080.47 -3.46261 -0.315985 0
M  V30 51961 H 5079.8 -3.97997 0.379222 0
M  V30 51962 H 5081.24 -4.19175 -0.637828 0
M  V30 51963 C 5079.69 -3.00216 -1.52879 0
M  V30 51964 O 5080.22 -3.03846 -2.62756 0
M  V30 51965 N 5078.43 -2.55718 -1.38045 0
M  V30 51966 H 5077.98 -2.52964 -0.486511 0
M  V30 51967 H 5077.94 -2.25272 -2.19317 0
M  V30 51968 N 5081.71 -0.692666 -1.41562 0
M  V30 51969 C 5082.95 -0.226524 -2.03141 0
M  V30 51970 C 5083.31 1.15115 -1.53664 0
M  V30 51971 O 5084.51 1.71298 -2.07149 0
M  V30 51972 C 5082.78 -0.278675 -3.56312 0
M  V30 51973 S 5084.34 0.113847 -4.38652 0
M  V30 51974 H 5081.16 -0.0915015 -0.705088 0
M  V30 51975 H 5083.76 -0.909797 -1.7304 0
M  V30 51976 H 5082.47 -1.28339 -3.89817 0
M  V30 51977 H 5082 0.423843 -3.9111 0
M  V30 51978 H 5084.01 1.34239 -4.77697 0
M  V30 51979 N 5083.19 1.51414 -0.437215 0
M  V30 51980 C 5084.43 2.01688 0.129037 0
M  V30 51981 C 5084.75 1.32334 1.43222 0
M  V30 51982 O 5084.02 0.457863 1.90474 0
M  V30 51983 H 5082.6 0.745279 0.0506761 0
M  V30 51984 H 5085.27 1.86073 -0.579893 0
M  V30 51985 H 5084.36 3.10606 0.305032 0
M  V30 51986 N 5084.66 0.168568 1.56696 0
M  V30 51987 C 5085.94 -0.523301 1.8847 0
M  V30 51988 C 5086.32 -1.81499 1.07802 0
M  V30 51989 O 5085.67 -2.27858 0.171126 0
M  V30 51990 C 5085.88 -0.767871 3.40448 0
M  V30 51991 C 5087.23 -1.09909 4.10128 0
M  V30 51992 O 5088.25 -0.856503 3.45749 0
M  V30 51993 O 5087.11 -1.55663 5.23862 0
M  V30 51994 H 5084.2 -0.269419 0.781884 0
M  V30 51995 H 5086.75 0.206798 1.68435 0
M  V30 51996 H 5085.52 0.145392 3.9103 0
M  V30 51997 H 5085.14 -1.55139 3.66084 0
M  V30 51998 N 5086.14 -1.57249 -0.105165 0
M  V30 51999 C 5087.39 -1.85207 -0.808886 0
M  V30 52000 C 5087.71 -0.755803 -1.79757 0
M  V30 52001 O 5086.98 0.218916 -1.94673 0
M  V30 52002 H 5085.56 -0.683357 -0.301715 0
M  V30 52003 H 5088.22 -1.94696 -0.0891921 0
M  V30 52004 H 5087.32 -2.816 -1.34565 0
M  V30 52005 N 5087.62 0.375726 -1.53056 0
M  V30 52006 C 5088.53 1.48375 -1.8172 0
M  V30 52007 C 5089.55 1.59084 -0.704851 0
M  V30 52008 O 5090.72 1.7517 -0.993846 0
M  V30 52009 C 5087.79 2.8376 -1.99202 0
M  V30 52010 C 5086.85 2.82661 -3.23112 0
M  V30 52011 C 5086.08 4.11589 -3.3975 0
M  V30 52012 O 5086.3 5.07233 -2.60903 0
M  V30 52013 O 5085.24 4.18019 -4.33064 0
M  V30 52014 H 5089.06 1.27079 -2.75834 0
M  V30 52015 H 5086.65 0.564853 -1.3831 0
M  V30 52016 H 5088.53 3.63997 -2.12331 0
M  V30 52017 H 5087.21 3.05054 -1.08277 0
M  V30 52018 H 5086.11 2.01159 -3.15414 0
M  V30 52019 H 5087.45 2.6632 -4.13925 0
M  V30 52020 N 5089.1 1.44244 0.634946 0
M  V30 52021 C 5090.38 1.37301 1.39312 0
M  V30 52022 C 5090.76 0.0298274 2.11079 0
M  V30 52023 O 5090.1 -0.987451 2.06062 0
M  V30 52024 C 5090.31 2.56861 2.3627 0
M  V30 52025 C 5091.66 3.00757 2.99717 0
M  V30 52026 O 5092.69 2.57039 2.46596 0
M  V30 52027 O 5091.54 3.76547 3.96074 0
M  V30 52028 H 5088.64 0.543524 0.623306 0
M  V30 52029 H 5091.18 1.56326 0.660321 0
M  V30 52030 H 5089.96 3.46234 1.82312 0
M  V30 52031 H 5089.58 2.4003 3.16972 0
M  V30 52032 N 5090.58 -0.875004 1.31078 0
M  V30 52033 C 5091.49 -2.01437 1.20251 0
M  V30 52034 C 5092.5 -1.73584 0.120288 0
M  V30 52035 O 5093.68 -1.98558 0.337133 0
M  V30 52036 C 5090.74 -3.34671 0.905317 0
M  V30 52037 C 5089.8 -3.75881 2.07393 0
M  V30 52038 C 5089.04 -5.02758 1.79082 0
M  V30 52039 O 5089.26 -5.65793 0.723516 0
M  V30 52040 O 5088.19 -5.40614 2.64613 0
M  V30 52041 H 5092.02 -2.13502 2.15988 0
M  V30 52042 H 5089.61 -1.00253 1.10768 0
M  V30 52043 H 5091.49 -4.14578 0.755203 0
M  V30 52044 H 5090.16 -3.23692 -0.0220557 0
M  V30 52045 H 5089.07 -2.96637 2.27942 0
M  V30 52046 H 5090.4 -3.91479 2.98337 0
M  V30 52047 N 5092.05 -1.13957 -1.08865 0
M  V30 52048 C 5093.47 -0.878971 -1.33215 0
M  V30 52049 C 5093.67 0.48241 -1.9564 0
M  V30 52050 O 5092.73 1.2277 -2.20644 0
M  V30 52051 C 5094.04 -2.00806 -2.23825 0
M  V30 52052 C 5095.59 -2.04082 -2.37318 0
M  V30 52053 C 5096.06 -3.1627 -3.31266 0
M  V30 52054 N 5097.55 -3.15817 -3.38842 0
M  V30 52055 C 5098.29 -3.99264 -4.11553 0
M  V30 52056 N 5097.78 -4.92738 -4.87012 0
M  V30 52057 N 5099.58 -3.87342 -4.07336 0
M  V30 52058 H 5091.73 -2.01647 -0.667239 0
M  V30 52059 H 5093.99 -0.878408 -0.356516 0
M  V30 52060 H 5093.7 -2.98993 -1.85193 0
M  V30 52061 H 5093.57 -1.92715 -3.24254 0
M  V30 52062 H 5095.96 -1.06504 -2.75211 0
M  V30 52063 H 5096.04 -2.16244 -1.36647 0
M  V30 52064 H 5095.68 -4.1409 -2.94096 0
M  V30 52065 H 5095.61 -3.01345 -4.31855 0
M  V30 52066 H 5098.1 -2.48112 -2.85042 0
M  V30 52067 H 5098.42 -5.52886 -5.39941 0
M  V30 52068 H 5096.76 -4.9674 -4.86081 0
M  V30 52069 H 5099.95 -3.13639 -3.47489 0
M  V30 52070 H 5100.13 -4.52602 -4.63741 0
M  V30 52071 N 5093.53 1.26945 -0.933958 0
M  V30 52072 C 5094.81 1.89211 -0.49585 0
M  V30 52073 C 5095.19 1.84473 1.0263 0
M  V30 52074 O 5094.54 1.29416 1.88318 0
M  V30 52075 C 5094.75 3.32861 -1.04902 0
M  V30 52076 C 5096.1 4.09745 -1.11329 0
M  V30 52077 O 5097.12 3.41902 -0.999086 0
M  V30 52078 O 5095.98 5.31056 -1.29001 0
M  V30 52079 H 5093.07 0.811278 -0.160487 0
M  V30 52080 H 5095.62 1.35167 -1.02605 0
M  V30 52081 H 5094.39 3.30634 -2.09276 0
M  V30 52082 H 5094.01 3.94433 -0.500831 0
M  V30 52083 N 5095.01 0.700164 1.41193 0
M  V30 52084 C 5096.25 0.237294 2.03018 0
M  V30 52085 C 5096.61 -1.14298 1.54272 0
M  V30 52086 O 5097.82 -1.70197 2.08054 0
M  V30 52087 C 5096.09 0.297567 3.56159 0
M  V30 52088 S 5097.65 -0.0905825 4.38706 0
M  V30 52089 H 5094.46 0.0952395 0.704592 0
M  V30 52090 H 5097.07 0.918961 1.72555 0
M  V30 52091 H 5095.77 1.30404 3.89131 0
M  V30 52092 H 5095.3 -0.403096 3.91329 0
M  V30 52093 H 5097.32 -1.31704 4.78402 0
M  V30 52094 N 5096.49 -1.5118 0.445239 0
M  V30 52095 C 5097.9 -1.86693 -0.0160343 0
M  V30 52096 C 5098.25 -1.36188 -1.41235 0
M  V30 52097 O 5097.38 -0.715967 -2.04213 0
M  V30 52098 C 5097.97 -3.38781 -0.0358727 0
M  V30 52099 C 5096.53 -3.73801 -0.441583 0
M  V30 52100 C 5095.68 -2.74945 0.360607 0
M  V30 52101 H 5098.63 -1.44292 0.660725 0
M  V30 52102 H 5098.65 -3.71029 -0.843683 0
M  V30 52103 H 5098.16 -3.7551 0.98051 0
M  V30 52104 H 5096.26 -3.42664 -1.46328 0
M  V30 52105 H 5096.37 -4.7883 -0.160892 0
M  V30 52106 H 5094.74 -2.54048 -0.18218 0
M  V30 52107 H 5095.52 -3.14517 1.37601 0
M  V30 52108 N 5097.97 -0.176876 -1.56604 0
M  V30 52109 C 5098.88 0.763604 -2.21825 0
M  V30 52110 C 5099.89 1.24884 -1.21161 0
M  V30 52111 O 5101.07 1.29981 -1.5384 0
M  V30 52112 C 5098.13 1.97342 -2.85057 0
M  V30 52113 C 5097.19 1.53452 -4.00938 0
M  V30 52114 C 5096.43 2.68666 -4.61145 0
M  V30 52115 O 5096.65 3.85679 -4.20247 0
M  V30 52116 O 5095.58 2.42422 -5.50922 0
M  V30 52117 H 5099.41 0.238257 -3.02764 0
M  V30 52118 H 5097 0.0515806 -1.49311 0
M  V30 52119 H 5098.88 2.68085 -3.25129 0
M  V30 52120 H 5097.55 2.48771 -2.0711 0
M  V30 52121 H 5096.46 0.796422 -3.65524 0
M  V30 52122 H 5097.79 1.06707 -4.80494 0
M  V30 52123 N 5099.44 1.57302 0.0968247 0
M  V30 52124 C 5100.69 1.86276 0.80182 0
M  V30 52125 C 5101.02 0.765757 1.78465 0
M  V30 52126 O 5100.3 -0.226427 1.93178 0
M  V30 52127 C 5100.58 3.25881 1.5321 0
M  V30 52128 C 5100.43 4.46207 0.567372 0
M  V30 52129 C 5101.75 3.6336 2.48309 0
M  V30 52130 H 5098.87 0.677531 0.290037 0
M  V30 52131 H 5101.51 1.89887 0.0654909 0
M  V30 52132 H 5099.66 3.22934 2.15977 0
M  V30 52133 H 5101.34 4.61269 -0.0531603 0
M  V30 52134 H 5099.58 4.33636 -0.119385 0
M  V30 52135 H 5100.25 5.40612 1.11545 0
M  V30 52136 H 5102.73 3.67241 1.95635 0
M  V30 52137 H 5101.6 4.61978 2.96424 0
M  V30 52138 H 5101.86 2.91953 3.31988 0
M  V30 52139 N 5100.92 -0.367603 1.53253 0
M  V30 52140 C 5102.15 -1.13112 1.73243 0
M  V30 52141 C 5102.57 -1.83099 0.460468 0
M  V30 52142 O 5101.92 -1.73485 -0.566496 0
M  V30 52143 C 5101.97 -2.16297 2.89651 0
M  V30 52144 O 5101.7 -1.49161 4.11925 0
M  V30 52145 C 5103.2 -3.05212 3.21497 0
M  V30 52146 H 5100.42 -0.338297 0.579479 0
M  V30 52147 H 5102.96 -0.427139 1.99989 0
M  V30 52148 H 5101.12 -2.82298 2.65305 0
M  V30 52149 H 5101.53 -2.17895 4.77098 0
M  V30 52150 H 5103 -3.73599 4.0636 0
M  V30 52151 H 5103.48 -3.69911 2.36776 0
M  V30 52152 H 5104.09 -2.44831 3.47761 0
M  V30 52153 N 5102.4 -1.44578 -0.627288 0
M  V30 52154 C 5103.64 -1.49088 -1.39829 0
M  V30 52155 C 5104.01 -0.12171 -1.91614 0
M  V30 52156 O 5105.21 -0.041483 -2.68768 0
M  V30 52157 C 5103.48 -2.52476 -2.52964 0
M  V30 52158 S 5105.04 -2.76062 -3.41079 0
M  V30 52159 H 5101.85 -0.527269 -0.476979 0
M  V30 52160 H 5104.46 -1.81528 -0.725809 0
M  V30 52161 H 5103.16 -3.50654 -2.13237 0
M  V30 52162 H 5102.69 -2.21621 -3.25035 0
M  V30 52163 H 5104.71 -2.07948 -4.50524 0
M  V30 52164 N 5103.88 0.86804 -1.3154 0
M  V30 52165 C 5104.84 1.95699 -1.19309 0
M  V30 52166 C 5105.84 1.60354 -0.119669 0
M  V30 52167 O 5107.03 1.70245 -0.36908 0
M  V30 52168 C 5104.16 3.30596 -0.8318 0
M  V30 52169 H 5105.36 2.07974 -2.16071 0
M  V30 52170 H 5102.91 1.05657 -1.15179 0
M  V30 52171 H 5103.65 3.24021 0.13458 0
M  V30 52172 H 5103.43 3.57623 -1.60774 0
M  V30 52173 H 5104.92 4.10437 -0.77017 0
M  V30 52174 N 5105.36 1.14532 1.0826 0
M  V30 52175 C 5106.77 0.925318 1.62157 0
M  V30 52176 C 5107.12 -0.53552 1.8875 0
M  V30 52177 O 5106.24 -1.40474 1.64609 0
M  V30 52178 C 5106.84 1.67326 2.94597 0
M  V30 52179 C 5105.4 1.4988 3.45272 0
M  V30 52180 C 5104.55 1.69479 2.19481 0
M  V30 52181 H 5107.5 1.29691 0.914661 0
M  V30 52182 H 5107.52 1.13734 3.63105 0
M  V30 52183 H 5107.03 2.73644 2.7521 0
M  V30 52184 H 5105.13 0.459162 3.6976 0
M  V30 52185 H 5105.24 2.26974 4.21923 0
M  V30 52186 H 5103.61 1.12056 2.28726 0
M  V30 52187 H 5104.39 2.77143 2.026 0
M  V30 52188 N 5106.84 -1.26448 0.940677 0
M  V30 52189 C 5107.78 -2.28388 0.440661 0
M  V30 52190 C 5108.78 -1.62404 -0.481802 0
M  V30 52191 O 5109.98 -1.76362 -0.36007 0
M  V30 52192 H 5106.36 -0.741712 0.123964 0
M  V30 52193 H 5108.33 -2.67962 1.31297 0
M  V30 52194 C 5107.08 -3.46577 -0.279242 0
M  V30 52195 H 5106.4 -3.97573 0.421413 0
M  V30 52196 H 5107.84 -4.19828 -0.593333 0
M  V30 52197 C 5106.3 -3.01821 -1.49686 0
M  V30 52198 O 5106.83 -3.06616 -2.59518 0
M  V30 52199 N 5105.04 -2.57168 -1.35325 0
M  V30 52200 H 5104.58 -2.53466 -0.459654 0
M  V30 52201 H 5104.54 -2.27585 -2.16915 0
M  V30 52202 N 5108.31 -0.707642 -1.4082 0
M  V30 52203 C 5109.25 -0.0106774 -2.29198 0
M  V30 52204 C 5110.26 0.731984 -1.45416 0
M  V30 52205 O 5111.45 0.580682 -1.68791 0
M  V30 52206 C 5108.55 1.0091 -3.23528 0
M  V30 52207 C 5107.72 0.333593 -4.36126 0
M  V30 52208 C 5106.78 1.25765 -5.1095 0
M  V30 52209 O 5105.81 0.745448 -5.64298 0
M  V30 52210 N 5107.01 2.58929 -5.19554 0
M  V30 52211 H 5109.77 -0.769481 -2.89653 0
M  V30 52212 H 5107.33 -0.554632 -1.52103 0
M  V30 52213 H 5109.33 1.62927 -3.70455 0
M  V30 52214 H 5107.9 1.66933 -2.64296 0
M  V30 52215 H 5107.12 -0.466655 -3.91428 0
M  V30 52216 H 5108.4 -0.135623 -5.08619 0
M  V30 52217 H 5107.8 3.03048 -4.7768 0
M  V30 52218 H 5106.36 3.16111 -5.70015 0
M  V30 52219 N 5109.79 1.50942 -0.45325 0
M  V30 52220 C 5111.04 2.02213 0.107851 0
M  V30 52221 C 5111.37 1.33644 1.41314 0
M  V30 52222 O 5110.62 0.445221 1.90568 0
M  V30 52223 C 5110.92 3.55604 0.357819 0
M  V30 52224 C 5110.59 4.42553 -0.863583 0
M  V30 52225 C 5109.25 4.66036 -1.1985 0
M  V30 52226 C 5111.6 4.93462 -1.67764 0
M  V30 52227 C 5108.93 5.37673 -2.34786 0
M  V30 52228 C 5111.28 5.6636 -2.81813 0
M  V30 52229 C 5109.94 5.88102 -3.15741 0
M  V30 52230 H 5109.21 0.739948 0.0394656 0
M  V30 52231 H 5111.86 1.81735 -0.603694 0
M  V30 52232 H 5110.17 3.74499 1.15143 0
M  V30 52233 H 5111.86 3.92824 0.805643 0
M  V30 52234 H 5108.45 4.24483 -0.592627 0
M  V30 52235 H 5112.64 4.75189 -1.43209 0
M  V30 52236 H 5107.89 5.52718 -2.61368 0
M  V30 52237 H 5112.07 6.04793 -3.4525 0
M  V30 52238 H 5109.69 6.4339 -4.04912 0
M  V30 52239 N 5111.27 0.185179 1.56508 0
M  V30 52240 C 5112.2 -0.771325 2.15831 0
M  V30 52241 C 5113.21 -1.18388 1.11751 0
M  V30 52242 O 5114.4 -1.12132 1.38883 0
M  V30 52243 C 5111.5 -2.05159 2.69746 0
M  V30 52244 C 5110.68 -1.80042 3.98627 0
M  V30 52245 C 5109.74 -2.9242 4.37467 0
M  V30 52246 O 5108.76 -2.62455 5.0508 0
M  V30 52247 N 5109.96 -4.2054 4.00158 0
M  V30 52248 H 5112.73 -0.264079 2.98534 0
M  V30 52249 H 5110.29 0.0028676 1.619 0
M  V30 52250 H 5112.28 -2.7946 2.92719 0
M  V30 52251 H 5110.85 -2.47034 1.91554 0
M  V30 52252 H 5110.07 -0.895727 3.83888 0
M  V30 52253 H 5111.36 -1.60645 4.82774 0
M  V30 52254 H 5110.76 -4.47741 3.45752 0
M  V30 52255 H 5109.31 -4.91499 4.28102 0
M  V30 52256 N 5112.75 -1.57351 -0.0884812 0
M  V30 52257 C 5113.99 -1.88251 -0.796296 0
M  V30 52258 C 5114.35 -0.776977 -1.75576 0
M  V30 52259 O 5115.55 -0.968573 -2.50743 0
M  V30 52260 C 5113.82 -3.2439 -1.50019 0
M  V30 52261 S 5115.38 -3.76999 -2.24538 0
M  V30 52262 H 5112.2 -0.659706 -0.265158 0
M  V30 52263 H 5114.8 -1.95428 -0.0531156 0
M  V30 52264 H 5113.51 -4.02767 -0.787858 0
M  V30 52265 H 5113.04 -3.20369 -2.28314 0
M  V30 52266 H 5115.05 -3.50946 -3.50787 0
M  V30 52267 N 5114.23 0.359471 -1.53446 0
M  V30 52268 C 5115.45 1.12637 -1.74148 0
M  V30 52269 C 5115.88 1.8208 -0.472071 0
M  V30 52270 O 5115.23 1.71964 0.5743 0
M  V30 52271 C 5115.28 2.12771 -2.91137 0
M  V30 52272 O 5114.39 3.19975 -2.60173 0
M  V30 52273 H 5113.73 0.326532 -0.578163 0
M  V30 52274 H 5116.26 0.414728 -2.00353 0
M  V30 52275 H 5116.27 2.56267 -3.17476 0
M  V30 52276 H 5114.94 1.6162 -3.83212 0
M  V30 52277 H 5113.52 2.81408 -2.44671 0
M  V30 52278 N 5115.7 1.44909 0.619611 0
M  V30 52279 C 5116.95 1.47573 1.37495 0
M  V30 52280 C 5117.27 0.116775 1.95251 0
M  V30 52281 O 5118.47 0.0210045 2.71492 0
M  V30 52282 C 5116.93 2.5986 2.49 0
M  V30 52283 C 5116.54 4.02015 1.97708 0
M  V30 52284 C 5118.28 2.71758 3.2611 0
M  V30 52285 C 5116.19 5.05704 3.06623 0
M  V30 52286 H 5115.12 0.549086 0.51674 0
M  V30 52287 H 5117.77 1.71012 0.665377 0
M  V30 52288 H 5116.15 2.29683 3.22586 0
M  V30 52289 H 5117.32 4.41814 1.3091 0
M  V30 52290 H 5115.64 3.94461 1.33378 0
M  V30 52291 H 5118.24 3.46396 4.07325 0
M  V30 52292 H 5118.58 1.77972 3.7634 0
M  V30 52293 H 5119.11 3.01401 2.59619 0
M  V30 52294 H 5115.85 6.01157 2.61324 0
M  V30 52295 H 5115.37 4.70486 3.72025 0
M  V30 52296 H 5117.05 5.29919 3.71207 0
M  V30 52297 N 5117.18 -0.861052 1.31999 0
M  V30 52298 C 5118.41 -1.64736 1.25179 0
M  V30 52299 C 5118.83 -1.87927 -0.181359 0
M  V30 52300 O 5118.18 -1.44374 -1.11635 0
M  V30 52301 C 5118.23 -3.01029 2.0016 0
M  V30 52302 O 5117.95 -2.78868 3.37882 0
M  V30 52303 C 5119.46 -3.95474 2.00287 0
M  V30 52304 H 5116.68 -0.513299 0.432164 0
M  V30 52305 H 5119.22 -1.07413 1.74019 0
M  V30 52306 H 5117.37 -3.55015 1.55058 0
M  V30 52307 H 5117.79 -3.65501 3.76178 0
M  V30 52308 H 5119.26 -4.88394 2.57246 0
M  V30 52309 H 5119.74 -4.27953 0.987557 0
M  V30 52310 H 5120.35 -3.47425 2.45308 0
M  V30 52311 N 5118.66 -1.15105 -1.07651 0
M  V30 52312 C 5119.61 -0.845033 -2.14774 0
M  V30 52313 C 5120.58 0.20074 -1.64883 0
M  V30 52314 O 5121.76 0.0689607 -1.90675 0
M  V30 52315 C 5118.9 -0.337139 -3.43449 0
M  V30 52316 C 5118.02 -1.44412 -4.07148 0
M  V30 52317 C 5117.15 -0.892671 -5.23646 0
M  V30 52318 C 5116.19 -1.9768 -5.793 0
M  V30 52319 N 5115.33 -1.44195 -6.87133 0
M  V30 52320 H 5120.17 -1.7625 -2.40291 0
M  V30 52321 H 5117.7 -0.879476 -1.17914 0
M  V30 52322 H 5119.66 -0.0244026 -4.17193 0
M  V30 52323 H 5118.29 0.543419 -3.18193 0
M  V30 52324 H 5117.34 -1.8731 -3.31088 0
M  V30 52325 H 5118.66 -2.26277 -4.44522 0
M  V30 52326 H 5117.81 -0.532296 -6.0436 0
M  V30 52327 H 5116.55 -0.0431569 -4.87681 0
M  V30 52328 H 5115.55 -2.34604 -4.97233 0
M  V30 52329 H 5116.78 -2.83004 -6.17321 0
M  V30 52330 H 5114.72 -0.614747 -6.53113 0
M  V30 52331 H 5114.64 -2.1969 -7.23376 0
M  V30 52332 H 5115.91 -1.10973 -7.7156 0
M  V30 52333 N 5120.14 1.25947 -0.94737 0
M  V30 52334 C 5121.55 1.45735 -0.650648 0
M  V30 52335 C 5121.75 1.85192 0.794123 0
M  V30 52336 O 5120.81 1.97743 1.57015 0
M  V30 52337 C 5122.12 2.53499 -1.61737 0
M  V30 52338 C 5123.67 2.67345 -1.62775 0
M  V30 52339 C 5124.15 3.78287 -2.58192 0
M  V30 52340 N 5125.64 3.85687 -2.56514 0
M  V30 52341 C 5126.37 4.71 -3.27026 0
M  V30 52342 N 5125.87 5.60655 -4.06986 0
M  V30 52343 N 5127.66 4.64901 -3.15948 0
M  V30 52344 H 5119.81 0.986261 -1.88113 0
M  V30 52345 H 5122.08 0.494611 -0.808742 0
M  V30 52346 H 5121.78 2.31347 -2.64899 0
M  V30 52347 H 5121.66 3.51276 -1.37423 0
M  V30 52348 H 5124.04 2.88866 -0.603343 0
M  V30 52349 H 5124.12 1.69992 -1.91145 0
M  V30 52350 H 5123.77 3.57517 -3.60755 0
M  V30 52351 H 5123.7 4.75109 -2.27109 0
M  V30 52352 H 5126.19 3.21594 -1.98459 0
M  V30 52353 H 5126.5 6.22661 -4.57726 0
M  V30 52354 H 5124.85 5.60387 -4.11086 0
M  V30 52355 H 5128.04 3.93865 -2.52959 0
M  V30 52356 H 5128.21 5.31167 -3.71168 0
M  V30 52357 N 5121.62 0.7151 1.40442 0
M  V30 52358 C 5122.86 0.258813 2.02755 0
M  V30 52359 C 5123.22 -1.12656 1.55476 0
M  V30 52360 O 5124.42 -1.6798 2.09848 0
M  V30 52361 C 5122.69 0.335326 3.55823 0
M  V30 52362 S 5124.25 -0.0440467 4.38778 0
M  V30 52363 H 5121.07 0.102707 0.703543 0
M  V30 52364 H 5123.67 0.937211 1.71571 0
M  V30 52365 H 5122.38 1.34524 3.87726 0
M  V30 52366 H 5121.91 -0.361567 3.91735 0
M  V30 52367 H 5123.92 -1.26622 4.79772 0
M  V30 52368 N 5123.09 -1.50699 0.461248 0
M  V30 52369 C 5124.34 -2.01458 -0.0987569 0
M  V30 52370 C 5124.66 -1.34868 -1.41668 0
M  V30 52371 O 5125.86 -1.76729 -2.06105 0
M  V30 52372 C 5124.32 -3.59186 -0.226522 0
M  V30 52373 C 5123.93 -4.34728 1.08238 0
M  V30 52374 C 5125.67 -4.18018 -0.739013 0
M  V30 52375 C 5123.58 -5.84217 0.918953 0
M  V30 52376 H 5122.51 -0.752902 -0.0406825 0
M  V30 52377 H 5125.16 -1.73598 0.59465 0
M  V30 52378 H 5123.54 -3.83593 -0.983486 0
M  V30 52379 H 5124.71 -4.22053 1.84954 0
M  V30 52380 H 5123.03 -3.87461 1.52523 0
M  V30 52381 H 5125.63 -5.27439 -0.878161 0
M  V30 52382 H 5125.97 -3.78752 -1.72779 0
M  V30 52383 H 5126.5 -3.9778 -0.0397071 0
M  V30 52384 H 5123.24 -6.27938 1.88081 0
M  V30 52385 H 5122.76 -5.99493 0.192012 0
M  V30 52386 H 5124.44 -6.4438 0.581631 0
M  V30 52387 N 5124.57 -0.193476 -1.56408 0
M  V30 52388 C 5125.98 0.319406 -1.83948 0
M  V30 52389 C 5126.33 1.61501 -1.11409 0
M  V30 52390 O 5125.46 2.13137 -0.374364 0
M  V30 52391 C 5126.05 0.586293 -3.33689 0
M  V30 52392 C 5124.61 1.04355 -3.61645 0
M  V30 52393 C 5123.76 0.091286 -2.7715 0
M  V30 52394 H 5126.71 -0.417295 -1.53115 0
M  V30 52395 H 5126.73 1.43579 -3.52371 0
M  V30 52396 H 5126.24 -0.356836 -3.86456 0
M  V30 52397 H 5124.35 2.00102 -3.14309 0
M  V30 52398 H 5124.46 0.937384 -4.6984 0
M  V30 52399 H 5122.82 0.592867 -2.47704 0
M  V30 52400 H 5123.61 -0.846259 -3.32706 0
M  V30 52401 N 5126.05 1.57396 0.0801353 0
M  V30 52402 C 5127.47 1.53565 0.434724 0
M  V30 52403 C 5127.67 0.912435 1.79658 0
M  V30 52404 O 5126.72 0.511355 2.47268 0
M  V30 52405 C 5128.04 2.98245 0.383456 0
M  V30 52406 C 5129.58 3.09538 0.464241 0
M  V30 52407 C 5130.06 4.55853 0.442967 0
M  V30 52408 N 5131.55 4.60458 0.503286 0
M  V30 52409 C 5132.28 5.71137 0.508905 0
M  V30 52410 N 5131.78 6.91205 0.469837 0
M  V30 52411 N 5133.57 5.59355 0.554839 0
M  V30 52412 H 5125.72 1.96278 -0.811704 0
M  V30 52413 H 5127.99 0.89803 -0.30372 0
M  V30 52414 H 5127.69 3.47367 -0.550358 0
M  V30 52415 H 5127.57 3.5771 1.19681 0
M  V30 52416 H 5129.95 2.60395 1.38848 0
M  V30 52417 H 5130.04 2.52999 -0.377534 0
M  V30 52418 H 5129.68 5.05652 -0.477385 0
M  V30 52419 H 5129.61 5.10246 1.30216 0
M  V30 52420 H 5132.1 3.7405 0.538068 0
M  V30 52421 H 5132.41 7.71321 0.47782 0
M  V30 52422 H 5130.76 6.93627 0.436653 0
M  V30 52423 H 5133.95 4.64455 0.582995 0
M  V30 52424 H 5134.12 6.45612 0.555749 0
M  V30 52425 N 5127.53 -0.351328 1.53634 0
M  V30 52426 C 5128.77 -1.09405 1.70758 0
M  V30 52427 C 5129.11 -1.88542 0.465359 0
M  V30 52428 O 5128.38 -1.86924 -0.537543 0
M  V30 52429 C 5128.67 -2.04163 2.9663 0
M  V30 52430 C 5128.52 -1.28541 4.31042 0
M  V30 52431 C 5129.84 -3.0409 3.18146 0
M  V30 52432 H 5126.96 -0.396351 0.621349 0
M  V30 52433 H 5129.6 -0.373398 1.86295 0
M  V30 52434 H 5127.75 -2.65615 2.83515 0
M  V30 52435 H 5129.42 -0.697626 4.55994 0
M  V30 52436 H 5127.66 -0.587347 4.29805 0
M  V30 52437 H 5128.33 -1.9797 5.15278 0
M  V30 52438 H 5130.81 -2.52749 3.30541 0
M  V30 52439 H 5129.69 -3.67602 4.07628 0
M  V30 52440 H 5129.95 -3.75044 2.34082 0
M  V30 52441 N 5129.01 -1.45235 -0.611918 0
M  V30 52442 C 5130.25 -1.50238 -1.37114 0
M  V30 52443 C 5130.61 -0.140404 -1.91887 0
M  V30 52444 O 5129.9 0.847101 -1.71857 0
M  V30 52445 C 5130.09 -2.51362 -2.5407 0
M  V30 52446 C 5129.92 -3.97259 -2.1075 0
M  V30 52447 C 5128.69 -4.65263 -1.97125 0
M  V30 52448 C 5130.89 -4.8592 -1.68482 0
M  V30 52449 N 5128.87 -5.959 -1.47569 0
M  V30 52450 C 5130.24 -6.06151 -1.3031 0
M  V30 52451 C 5132.3 -4.72819 -1.56035 0
M  V30 52452 C 5131 -7.14732 -0.80934 0
M  V30 52453 C 5133.03 -5.81443 -1.08063 0
M  V30 52454 C 5132.39 -7.00828 -0.708529 0
M  V30 52455 H 5128.49 -0.604726 -0.495813 0
M  V30 52456 H 5131.07 -1.81682 -0.699991 0
M  V30 52457 H 5129.24 -2.21877 -3.18787 0
M  V30 52458 H 5130.98 -2.4654 -3.20937 0
M  V30 52459 H 5127.73 -4.20352 -2.18176 0
M  V30 52460 H 5128.16 -6.65353 -1.25035 0
M  V30 52461 H 5132.8 -3.80937 -1.8343 0
M  V30 52462 H 5130.52 -8.06406 -0.522932 0
M  V30 52463 H 5134.1 -5.73339 -0.988641 0
M  V30 52464 H 5132.98 -7.83449 -0.343029 0
M  V30 52465 N 5130.49 0.85404 -1.32453 0
M  V30 52466 C 5131.73 1.61065 -1.23231 0
M  V30 52467 C 5132.06 1.93112 0.205281 0
M  V30 52468 O 5131.34 1.57401 1.14259 0
M  V30 52469 C 5131.62 2.93058 -2.09259 0
M  V30 52470 C 5131.48 2.67788 -3.61399 0
M  V30 52471 C 5132.79 3.94334 -1.95419 0
M  V30 52472 H 5129.91 0.584433 -0.449007 0
M  V30 52473 H 5132.56 0.986132 -1.62405 0
M  V30 52474 H 5130.71 3.46357 -1.7598 0
M  V30 52475 H 5132.38 2.21038 -4.04895 0
M  V30 52476 H 5130.62 2.01742 -3.84035 0
M  V30 52477 H 5131.29 3.61776 -4.1692 0
M  V30 52478 H 5133.77 3.50293 -2.24575 0
M  V30 52479 H 5132.64 4.84546 -2.57889 0
M  V30 52480 H 5132.9 4.32379 -0.922017 0
M  V30 52481 N 5131.96 1.15674 1.07039 0
M  V30 52482 C 5133.2 0.944153 1.81287 0
M  V30 52483 C 5133.57 -0.51924 1.84846 0
M  V30 52484 O 5134.77 -0.850268 2.54998 0
M  V30 52485 C 5133.04 1.5454 3.22261 0
M  V30 52486 S 5134.6 1.47638 4.13217 0
M  V30 52487 H 5131.42 0.339718 0.62459 0
M  V30 52488 H 5134.02 1.47281 1.28563 0
M  V30 52489 H 5132.72 2.60332 3.17262 0
M  V30 52490 H 5132.25 1.01574 3.80061 0
M  V30 52491 H 5134.27 0.471434 4.93955 0
M  V30 52492 N 5133.44 -1.25443 0.954036 0
M  V30 52493 C 5134.72 -1.88398 0.525889 0
M  V30 52494 C 5135.1 -1.86082 -0.996826 0
M  V30 52495 O 5134.45 -1.32395 -1.86236 0
M  V30 52496 C 5134.66 -3.3115 1.10184 0
M  V30 52497 C 5136 -4.07922 1.17834 0
M  V30 52498 O 5137.03 -3.40269 1.05335 0
M  V30 52499 O 5135.89 -5.28937 1.37434 0
M  V30 52500 H 5132.98 -0.808623 0.173374 0
M  V30 52501 H 5135.53 -1.33518 1.04743 0
M  V30 52502 H 5134.3 -3.27263 2.1451 0
M  V30 52503 H 5133.92 -3.93586 0.563518 0
M  V30 52504 N 5134.92 -0.722538 -1.40061 0
M  V30 52505 C 5136.34 -0.396813 -1.54588 0
M  V30 52506 C 5136.54 1.09369 -1.69236 0
M  V30 52507 O 5135.59 1.87978 -1.68584 0
M  V30 52508 C 5136.9 -1.16895 -2.77049 0
M  V30 52509 C 5138.45 -1.15594 -2.90873 0
M  V30 52510 C 5138.93 -1.91037 -4.16256 0
M  V30 52511 N 5140.42 -1.88141 -4.2327 0
M  V30 52512 C 5141.15 -2.43333 -5.19208 0
M  V30 52513 N 5140.65 -3.07111 -6.21011 0
M  V30 52514 N 5142.44 -2.33436 -5.11335 0
M  V30 52515 H 5134.59 -1.68891 -1.288 0
M  V30 52516 H 5136.86 -0.714253 -0.623335 0
M  V30 52517 H 5136.56 -2.22311 -2.72527 0
M  V30 52518 H 5136.44 -0.765141 -3.69358 0
M  V30 52519 H 5138.82 -0.109944 -2.94895 0
M  V30 52520 H 5138.9 -1.59902 -1.99662 0
M  V30 52521 H 5138.55 -2.9563 -4.12995 0
M  V30 52522 H 5138.48 -1.44144 -5.06488 0
M  V30 52523 H 5140.97 -1.41666 -3.50341 0
M  V30 52524 H 5141.28 -3.46724 -6.90653 0
M  V30 52525 H 5139.63 -3.11197 -6.21435 0
M  V30 52526 H 5142.82 -1.83263 -4.30735 0
M  V30 52527 H 5142.99 -2.7675 -5.85929 0
M  V30 52528 N 5136.4 1.50453 -0.469234 0
M  V30 52529 C 5137.67 1.9504 0.147886 0
M  V30 52530 C 5138.05 1.40952 1.57149 0
M  V30 52531 O 5137.4 0.609741 2.20214 0
M  V30 52532 C 5137.61 3.48876 0.0930972 0
M  V30 52533 C 5138.96 4.23656 0.282907 0
M  V30 52534 O 5139.98 3.55795 0.169767 0
M  V30 52535 O 5138.84 5.44104 0.511205 0
M  V30 52536 H 5135.94 0.819287 0.112682 0
M  V30 52537 H 5138.48 1.61228 -0.529503 0
M  V30 52538 H 5137.26 3.80788 -0.900918 0
M  V30 52539 H 5136.88 3.8922 0.812024 0
M  V30 52540 N 5137.88 0.201768 1.56303 0
M  V30 52541 C 5138.82 -0.733056 2.20747 0
M  V30 52542 C 5139.82 -1.21476 1.18068 0
M  V30 52543 O 5141.02 -1.17688 1.36197 0
M  V30 52544 H 5137.4 -0.254764 0.70753 0
M  V30 52545 H 5139.37 -0.165891 2.97939 0
M  V30 52546 C 5138.12 -1.93915 2.88604 0
M  V30 52547 H 5137.44 -1.57757 3.67359 0
M  V30 52548 H 5138.88 -2.57146 3.37123 0
M  V30 52549 C 5137.34 -2.78213 1.89998 0
M  V30 52550 O 5137.87 -3.76348 1.40446 0
M  V30 52551 N 5136.08 -2.43842 1.58081 0
M  V30 52552 H 5135.62 -1.64096 1.98571 0
M  V30 52553 H 5135.58 -3.00527 0.92363 0
M  V30 52554 N 5139.35 -1.57436 -0.071787 0
M  V30 52555 C 5140.63 -1.78315 -0.803943 0
M  V30 52556 C 5141.01 -0.789342 -1.95787 0
M  V30 52557 O 5140.36 0.177524 -2.27809 0
M  V30 52558 C 5140.57 -3.24803 -1.27688 0
M  V30 52559 C 5141.92 -3.88633 -1.71026 0
M  V30 52560 O 5142.94 -3.28694 -1.37255 0
M  V30 52561 O 5141.8 -4.94082 -2.3355 0
M  V30 52562 H 5138.89 -0.731793 -0.385237 0
M  V30 52563 H 5141.44 -1.69621 -0.0518623 0
M  V30 52564 H 5140.21 -3.8869 -0.451204 0
M  V30 52565 H 5139.83 -3.38221 -2.09028 0
M  V30 52566 N 5140.83 0.343176 -1.53818 0
M  V30 52567 C 5142.07 1.09182 -1.72797 0
M  V30 52568 C 5142.44 1.85874 -0.481127 0
M  V30 52569 O 5143.64 2.63156 -0.547943 0
M  V30 52570 C 5141.91 2.00772 -2.95678 0
M  V30 52571 S 5143.47 2.82854 -3.35469 0
M  V30 52572 H 5140.28 0.368905 -0.607808 0
M  V30 52573 H 5142.89 0.370197 -1.91963 0
M  V30 52574 H 5141.59 1.43232 -3.84594 0
M  V30 52575 H 5141.12 2.77371 -2.78978 0
M  V30 52576 H 5143.14 4.03186 -2.89232 0
M  V30 52577 N 5142.31 1.45558 0.604207 0
M  V30 52578 C 5143.56 1.49973 1.36514 0
M  V30 52579 C 5143.89 0.142305 1.93678 0
M  V30 52580 O 5143.16 -0.843655 1.7525 0
M  V30 52581 C 5143.45 2.58155 2.51054 0
M  V30 52582 C 5143.3 4.03353 1.99064 0
M  V30 52583 C 5144.62 2.62594 3.53175 0
M  V30 52584 H 5141.74 0.54601 0.495017 0
M  V30 52585 H 5144.38 1.77385 0.680782 0
M  V30 52586 H 5142.53 2.34912 3.09433 0
M  V30 52587 H 5144.2 4.37816 1.45308 0
M  V30 52588 H 5142.44 4.1385 1.30041 0
M  V30 52589 H 5143.12 4.74741 2.81647 0
M  V30 52590 H 5145.59 2.8343 3.04642 0
M  V30 52591 H 5144.47 3.40146 4.30804 0
M  V30 52592 H 5144.73 1.67813 4.09013 0
M  V30 52593 N 5143.79 -0.847003 1.32905 0
M  V30 52594 C 5145.06 -1.58579 1.14508 0
M  V30 52595 C 5145.44 -2.09076 -0.29165 0
M  V30 52596 O 5144.79 -1.88641 -1.28945 0
M  V30 52597 C 5145 -2.72598 2.17925 0
M  V30 52598 C 5146.35 -3.41985 2.51658 0
M  V30 52599 O 5147.37 -2.82831 2.1653 0
M  V30 52600 O 5146.23 -4.4875 3.11906 0
M  V30 52601 H 5143.33 -0.698741 0.442369 0
M  V30 52602 H 5145.87 -0.890465 1.4446 0
M  V30 52603 H 5144.65 -2.32865 3.14467 0
M  V30 52604 H 5144.27 -3.498 1.89012 0
M  V30 52605 N 5145.27 -1.1624 -1.06424 0
M  V30 52606 C 5146.51 -0.941234 -1.78844 0
M  V30 52607 C 5146.84 0.532414 -1.87591 0
M  V30 52608 O 5146.11 1.38681 -1.38363 0
M  V30 52609 H 5144.69 -0.345251 -0.662428 0
M  V30 52610 H 5147.35 -1.46483 -1.28564 0
M  V30 52611 H 5146.44 -1.35881 -2.80968 0
M  V30 52612 N 5146.74 1.24935 -0.960675 0
M  V30 52613 C 5147.97 1.97418 -0.635677 0
M  V30 52614 C 5148.39 1.7086 0.786677 0
M  V30 52615 O 5147.75 0.968117 1.53288 0
M  V30 52616 C 5147.8 3.48984 -0.907894 0
M  V30 52617 O 5146.9 4.12399 0.0102603 0
M  V30 52618 H 5146.25 0.618702 -0.241048 0
M  V30 52619 H 5148.78 1.58897 -1.28891 0
M  V30 52620 H 5148.79 3.99331 -0.836593 0
M  V30 52621 H 5147.46 3.67643 -1.94452 0
M  V30 52622 H 5146.04 3.72726 -0.113762 0
M  V30 52623 N 5148.22 0.729956 1.39676 0
M  V30 52624 C 5149.5 0.202218 1.94552 0
M  V30 52625 C 5149.88 -1.29501 1.66711 0
M  V30 52626 O 5149.23 -2.05815 0.992589 0
M  V30 52627 C 5149.44 0.5304 3.44946 0
M  V30 52628 C 5150.79 0.476957 4.21913 0
M  V30 52629 O 5151.81 0.467296 3.53121 0
M  V30 52630 O 5150.67 0.467061 5.445 0
M  V30 52631 H 5147.76 0.0351934 0.826251 0
M  V30 52632 H 5150.31 0.80847 1.49204 0
M  V30 52633 H 5149.08 1.56538 3.58624 0
M  V30 52634 H 5148.7 -0.10508 3.97461 0
M  V30 52635 N 5149.7 -1.50202 0.477206 0
M  V30 52636 C 5150.61 -2.32422 -0.318946 0
M  V30 52637 C 5151.63 -1.43078 -0.990183 0
M  V30 52638 O 5152.8 -1.76126 -0.976811 0
M  V30 52639 C 5149.87 -3.17914 -1.38317 0
M  V30 52640 C 5148.93 -4.23084 -0.727888 0
M  V30 52641 C 5148.16 -5.04491 -1.74141 0
M  V30 52642 O 5148.38 -4.87061 -2.96863 0
M  V30 52643 O 5147.32 -5.87475 -1.30985 0
M  V30 52644 H 5151.14 -3.01637 0.353387 0
M  V30 52645 H 5148.73 -1.47477 0.238943 0
M  V30 52646 H 5150.61 -3.70944 -1.99947 0
M  V30 52647 H 5149.29 -2.5142 -2.03886 0
M  V30 52648 H 5148.19 -3.7403 -0.0724785 0
M  V30 52649 H 5149.53 -4.92066 -0.115043 0
M  V30 52650 N 5151.18 -0.210054 -1.56194 0
M  V30 52651 C 5152.59 0.299878 -1.84276 0
M  V30 52652 C 5152.94 1.6031 -1.13115 0
M  V30 52653 O 5152.07 2.12728 -0.396949 0
M  V30 52654 C 5152.66 0.550868 -3.34292 0
M  V30 52655 C 5151.22 1.00513 -3.62731 0
M  V30 52656 C 5150.37 0.0618854 -2.77231 0
M  V30 52657 H 5153.32 -0.433512 -1.52664 0
M  V30 52658 H 5153.34 1.39834 -3.53874 0
M  V30 52659 H 5152.85 -0.397805 -3.86056 0
M  V30 52660 H 5150.95 1.96757 -3.16414 0
M  V30 52661 H 5151.06 0.887498 -4.70808 0
M  V30 52662 H 5149.43 0.566561 -2.48319 0
M  V30 52663 H 5150.21 -0.881499 -3.3179 0
M  V30 52664 N 5152.66 1.57472 0.0634368 0
M  V30 52665 C 5153.62 2.03271 1.05893 0
M  V30 52666 C 5154.62 0.931074 1.31102 0
M  V30 52667 O 5155.81 1.19572 1.26682 0
M  V30 52668 C 5152.94 2.42048 2.40054 0
M  V30 52669 H 5154.13 2.92457 0.664016 0
M  V30 52670 H 5151.69 1.53207 0.309391 0
M  V30 52671 H 5152.42 1.55914 2.84361 0
M  V30 52672 H 5152.21 3.22444 2.23096 0
M  V30 52673 H 5153.7 2.78028 3.11593 0
M  V30 52674 N 5154.13 -0.335013 1.53998 0
M  V30 52675 C 5155.08 -1.43199 1.83294 0
M  V30 52676 C 5156.08 -1.54078 0.704007 0
M  V30 52677 O 5157.28 -1.566 0.887487 0
M  V30 52678 H 5153.66 -0.477635 0.580835 0
M  V30 52679 H 5155.63 -1.15709 2.75053 0
M  V30 52680 C 5154.38 -2.79595 2.06693 0
M  V30 52681 H 5153.7 -2.71994 2.93018 0
M  V30 52682 H 5155.14 -3.5545 2.31151 0
M  V30 52683 C 5153.6 -3.2587 0.854997 0
M  V30 52684 O 5154.13 -4.01657 0.058606 0
M  V30 52685 N 5152.34 -2.82775 0.669829 0
M  V30 52686 H 5151.88 -2.21264 1.31909 0
M  V30 52687 H 5151.84 -3.1409 -0.139579 0
M  V30 52688 N 5155.61 -1.45876 -0.596479 0
M  V30 52689 C 5156.85 -1.5202 -1.36635 0
M  V30 52690 C 5157.22 -0.162327 -1.91313 0
M  V30 52691 O 5158.42 -0.0984833 -2.6862 0
M  V30 52692 C 5156.69 -2.57785 -2.47551 0
M  V30 52693 S 5158.25 -2.83235 -3.35147 0
M  V30 52694 H 5155.07 -0.537267 -0.465687 0
M  V30 52695 H 5157.67 -1.83026 -0.687141 0
M  V30 52696 H 5156.37 -3.55098 -2.05751 0
M  V30 52697 H 5155.9 -2.28466 -3.20261 0
M  V30 52698 H 5157.92 -2.17458 -4.46012 0
M  V30 52699 N 5157.09 0.839943 -1.33352 0
M  V30 52700 C 5158.32 1.62723 -1.27784 0
M  V30 52701 C 5158.73 1.88192 0.151439 0
M  V30 52702 O 5158.09 1.46132 1.09324 0
M  V30 52703 C 5158.14 2.97806 -2.04924 0
M  V30 52704 O 5157.86 2.73457 -3.42276 0
M  V30 52705 C 5159.36 3.92238 -2.06554 0
M  V30 52706 H 5156.58 0.506358 -0.440275 0
M  V30 52707 H 5159.13 1.04631 -1.75706 0
M  V30 52708 H 5157.28 3.52503 -1.60686 0
M  V30 52709 H 5157.7 3.5947 -3.81945 0
M  V30 52710 H 5159.17 4.8424 -2.64983 0
M  V30 52711 H 5159.65 4.26328 -1.05552 0
M  V30 52712 H 5160.25 3.43478 -2.50805 0
M  V30 52713 N 5158.57 1.16803 1.05806 0
M  V30 52714 C 5159.5 0.836849 2.13376 0
M  V30 52715 C 5160.51 -0.158059 1.62031 0
M  V30 52716 O 5161.7 0.0673838 1.78373 0
M  V30 52717 C 5158.8 0.226078 3.38145 0
M  V30 52718 C 5157.98 1.26231 4.18789 0
M  V30 52719 C 5157.03 0.67044 5.21911 0
M  V30 52720 O 5156.06 1.34061 5.53187 0
M  V30 52721 N 5157.26 -0.54048 5.77978 0
M  V30 52722 H 5160.03 1.76266 2.42385 0
M  V30 52723 H 5157.59 1.06603 1.2185 0
M  V30 52724 H 5159.58 -0.183028 4.04286 0
M  V30 52725 H 5158.15 -0.603386 3.06721 0
M  V30 52726 H 5157.37 1.84741 3.4823 0
M  V30 52727 H 5158.66 1.96147 4.69472 0
M  V30 52728 H 5158.06 -1.10302 5.54842 0
M  V30 52729 H 5156.61 -0.891731 6.45671 0
M  V30 52730 N 5160.05 -1.24424 0.967287 0
M  V30 52731 C 5160.98 -2.23883 0.441762 0
M  V30 52732 C 5161.96 -1.55232 -0.483908 0
M  V30 52733 O 5163.14 -1.83866 -0.415381 0
M  V30 52734 C 5160.27 -3.36756 -0.36234 0
M  V30 52735 C 5159.32 -4.23493 0.505556 0
M  V30 52736 S 5160.15 -4.98909 1.94551 0
M  V30 52737 C 5161.3 -6.15241 1.15019 0
M  V30 52738 H 5161.54 -2.68113 1.28462 0
M  V30 52739 H 5159.07 -1.33698 0.77229 0
M  V30 52740 H 5161.03 -4.0222 -0.820303 0
M  V30 52741 H 5159.69 -2.91086 -1.18017 0
M  V30 52742 H 5158.88 -5.03876 -0.111802 0
M  V30 52743 H 5158.48 -3.63029 0.899232 0
M  V30 52744 H 5160.78 -6.76288 0.405007 0
M  V30 52745 H 5161.72 -6.81336 1.92838 0
M  V30 52746 H 5162.13 -5.60453 0.67474 0
M  V30 52747 N 5161.53 -0.737353 -1.39287 0
M  V30 52748 C 5162.75 -0.296645 -2.04762 0
M  V30 52749 C 5163.17 1.06936 -1.55596 0
M  V30 52750 O 5162.53 1.67616 -0.721881 0
M  V30 52751 C 5162.58 -0.292032 -3.60318 0
M  V30 52752 O 5162.3 -1.60412 -4.07676 0
M  V30 52753 C 5163.8 0.164552 -4.42994 0
M  V30 52754 H 5161.02 -0.129274 -0.658429 0
M  V30 52755 H 5163.56 -1.00166 -1.78289 0
M  V30 52756 H 5161.72 0.364115 -3.85685 0
M  V30 52757 H 5162.13 -1.51927 -5.02014 0
M  V30 52758 H 5163.61 0.11662 -5.51877 0
M  V30 52759 H 5164.08 1.21007 -4.22201 0
M  V30 52760 H 5164.69 -0.462117 -4.22782 0
M  V30 52761 N 5163 1.49946 -0.485165 0
M  V30 52762 C 5164.24 2.04301 0.063501 0
M  V30 52763 C 5164.61 1.35809 1.3572 0
M  V30 52764 O 5165.81 1.80796 1.98912 0
M  V30 52765 C 5164.08 3.56667 0.228837 0
M  V30 52766 S 5165.64 4.32617 0.734033 0
M  V30 52767 H 5162.46 0.710939 0.00929395 0
M  V30 52768 H 5165.06 1.84182 -0.655519 0
M  V30 52769 H 5163.76 4.04065 -0.71829 0
M  V30 52770 H 5163.29 3.81163 0.973562 0
M  V30 52771 H 5165.31 4.53866 2.0055 0
M  V30 52772 N 5164.48 0.218335 1.5608 0
M  V30 52773 C 5165.73 -0.413419 1.97826 0
M  V30 52774 C 5166.05 -1.60523 1.10713 0
M  V30 52775 O 5165.32 -1.95039 0.183447 0
M  V30 52776 H 5163.9 -0.155731 0.730587 0
M  V30 52777 H 5166.56 0.310481 1.92411 0
M  V30 52778 H 5165.66 -0.741918 3.03153 0
M  V30 52779 N 5165.96 -1.57504 -0.0550848 0
M  V30 52780 C 5167.21 -1.88336 -0.75215 0
M  V30 52781 C 5167.54 -0.812804 -1.76372 0
M  V30 52782 O 5166.81 0.17513 -1.9371 0
M  V30 52783 C 5167.1 -3.29829 -1.44516 0
M  V30 52784 C 5166.95 -4.47555 -0.448869 0
M  V30 52785 C 5168.27 -3.69816 -2.38588 0
M  V30 52786 H 5165.39 -0.684982 -0.271971 0
M  V30 52787 H 5168.03 -1.89994 -0.0151227 0
M  V30 52788 H 5166.18 -3.28546 -2.07339 0
M  V30 52789 H 5167.85 -4.60966 0.175439 0
M  V30 52790 H 5166.09 -4.33167 0.234314 0
M  V30 52791 H 5166.77 -5.4338 -0.971726 0
M  V30 52792 H 5169.24 -3.72299 -1.85829 0
M  V30 52793 H 5168.12 -4.69675 -2.84071 0
M  V30 52794 H 5168.38 -3.00652 -3.24131 0
M  V30 52795 N 5167.44 0.326842 -1.54174 0
M  V30 52796 C 5168.71 1.0832 -1.62868 0
M  V30 52797 C 5169.09 2.06017 -0.460463 0
M  V30 52798 O 5168.44 2.2189 0.545607 0
M  V30 52799 C 5168.65 1.78805 -2.99716 0
M  V30 52800 C 5170 2.31946 -3.55649 0
M  V30 52801 O 5171.02 1.88877 -3.02 0
M  V30 52802 O 5169.88 3.10785 -4.49528 0
M  V30 52803 H 5166.98 0.499108 -0.659409 0
M  V30 52804 H 5169.52 0.326995 -1.6652 0
M  V30 52805 H 5168.3 1.07725 -3.76179 0
M  V30 52806 H 5167.92 2.61244 -2.99728 0
M  V30 52807 N 5168.92 1.46191 0.588735 0
M  V30 52808 C 5169.83 1.58871 1.72619 0
M  V30 52809 C 5170.84 0.472407 1.67464 0
M  V30 52810 O 5172.02 0.735704 1.87482 0
M  V30 52811 C 5169.08 1.57 3.09115 0
M  V30 52812 C 5168.14 2.79816 3.25579 0
M  V30 52813 C 5167.38 2.78025 4.55563 0
M  V30 52814 O 5167.6 1.86425 5.39075 0
M  V30 52815 O 5166.53 3.69486 4.75146 0
M  V30 52816 H 5170.36 2.55053 1.64869 0
M  V30 52817 H 5167.94 1.28915 0.755069 0
M  V30 52818 H 5169.83 1.58631 3.90402 0
M  V30 52819 H 5168.5 0.63976 3.17315 0
M  V30 52820 H 5167.41 2.83741 2.43808 0
M  V30 52821 H 5168.74 3.72029 3.22266 0
M  V30 52822 N 5170.39 -0.832859 1.33795 0
M  V30 52823 C 5171.64 -1.58849 1.25592 0
M  V30 52824 C 5171.97 -1.93695 -0.176739 0
M  V30 52825 O 5171.22 -1.5939 -1.13548 0
M  V30 52826 C 5171.52 -2.90463 2.08245 0
M  V30 52827 C 5171.19 -2.74952 3.57368 0
M  V30 52828 C 5169.85 -2.7043 3.98022 0
M  V30 52829 C 5172.2 -2.59331 4.52103 0
M  V30 52830 C 5169.53 -2.48194 5.31617 0
M  V30 52831 C 5171.88 -2.38628 5.85866 0
M  V30 52832 C 5170.55 -2.32511 6.25695 0
M  V30 52833 H 5169.82 -0.581269 0.459573 0
M  V30 52834 H 5172.46 -0.964443 1.65441 0
M  V30 52835 H 5170.77 -3.57105 1.61192 0
M  V30 52836 H 5172.47 -3.47994 1.99251 0
M  V30 52837 H 5169.06 -2.79308 3.25092 0
M  V30 52838 H 5173.24 -2.61855 4.21599 0
M  V30 52839 H 5168.5 -2.41909 5.61507 0
M  V30 52840 H 5172.67 -2.25525 6.58871 0
M  V30 52841 H 5170.3 -2.15042 7.29151 0
M  V30 52842 N 5171.87 -1.17362 -1.05185 0
M  V30 52843 C 5173.29 -0.920907 -1.30351 0
M  V30 52844 C 5173.49 0.419924 -1.97076 0
M  V30 52845 O 5172.54 1.15688 -2.24438 0
M  V30 52846 C 5173.86 -2.07825 -2.17323 0
M  V30 52847 C 5175.4 -2.11528 -2.30705 0
M  V30 52848 C 5175.88 -3.26649 -3.21037 0
M  V30 52849 N 5177.37 -3.26437 -3.28623 0
M  V30 52850 C 5178.11 -4.12155 -3.98643 0
M  V30 52851 N 5177.6 -5.07983 -4.71089 0
M  V30 52852 N 5179.39 -4.00105 -3.94807 0
M  V30 52853 H 5171.55 -2.03668 -0.602749 0
M  V30 52854 H 5173.81 -0.889305 -0.32839 0
M  V30 52855 H 5173.51 -3.04733 -1.75587 0
M  V30 52856 H 5173.39 -2.02933 -3.17959 0
M  V30 52857 H 5175.78 -1.15206 -2.71683 0
M  V30 52858 H 5175.86 -2.20481 -1.29698 0
M  V30 52859 H 5175.5 -4.23236 -2.80773 0
M  V30 52860 H 5175.43 -3.14932 -4.22049 0
M  V30 52861 H 5177.92 -2.57055 -2.77004 0
M  V30 52862 H 5178.23 -5.69784 -5.22079 0
M  V30 52863 H 5176.58 -5.11952 -4.70032 0
M  V30 52864 H 5179.77 -3.24535 -3.37335 0
M  V30 52865 H 5179.94 -4.67126 -4.49107 0
M  V30 52866 N 5173.35 1.23909 -0.973872 0
M  V30 52867 C 5174.59 1.93887 -0.647083 0
M  V30 52868 C 5174.95 1.74371 0.803674 0
M  V30 52869 O 5176.15 2.38439 1.24098 0
M  V30 52870 C 5174.43 3.42566 -1.01897 0
M  V30 52871 S 5175.98 4.31303 -0.807669 0
M  V30 52872 H 5172.8 0.67027 -0.237189 0
M  V30 52873 H 5175.4 1.5014 -1.25213 0
M  V30 52874 H 5174.11 3.54279 -2.07159 0
M  V30 52875 H 5173.64 3.9131 -0.40495 0
M  V30 52876 H 5175.65 4.95219 0.311812 0
M  V30 52877 N 5174.83 0.744729 1.38894 0
M  V30 52878 C 5175.78 0.111145 2.30532 0
M  V30 52879 C 5176.75 -0.719223 1.49721 0
M  V30 52880 O 5177.93 -0.677181 1.78379 0
M  V30 52881 C 5175.07 -0.782802 3.36104 0
M  V30 52882 C 5174.18 0.0612335 4.31957 0
M  V30 52883 C 5173.32 -0.834891 5.24598 0
M  V30 52884 C 5172.36 0.0133126 6.12099 0
M  V30 52885 N 5171.49 -0.83928 6.97066 0
M  V30 52886 H 5176.33 0.898213 2.84141 0
M  V30 52887 H 5173.87 0.454586 1.399 0
M  V30 52888 H 5175.83 -1.31564 3.95913 0
M  V30 52889 H 5174.46 -1.53575 2.83927 0
M  V30 52890 H 5173.51 0.7116 3.73685 0
M  V30 52891 H 5174.82 0.716656 4.93625 0
M  V30 52892 H 5173.98 -1.43522 5.8948 0
M  V30 52893 H 5172.72 -1.52407 4.63275 0
M  V30 52894 H 5171.72 0.626371 5.4622 0
M  V30 52895 H 5172.95 0.699418 6.75489 0
M  V30 52896 H 5170.89 -1.51357 6.383 0
M  V30 52897 H 5170.81 -0.240557 7.55617 0
M  V30 52898 H 5172.08 -1.42486 7.66367 0
M  V30 52899 N 5176.31 -1.49687 0.49311 0
M  V30 52900 C 5177.58 -1.95251 -0.116838 0
M  V30 52901 C 5177.96 -1.43434 -1.54887 0
M  V30 52902 O 5177.31 -0.644698 -2.19217 0
M  V30 52903 C 5177.52 -3.4898 -0.0375823 0
M  V30 52904 C 5178.87 -4.24053 -0.215472 0
M  V30 52905 O 5179.89 -3.5602 -0.113141 0
M  V30 52906 O 5178.75 -5.44848 -0.424578 0
M  V30 52907 H 5175.85 -0.820976 -0.0996332 0
M  V30 52908 H 5178.39 -1.60365 0.555086 0
M  V30 52909 H 5177.16 -3.79306 0.961384 0
M  V30 52910 H 5176.79 -3.90462 -0.75 0
M  V30 52911 N 5177.78 -0.226609 -1.55962 0
M  V30 52912 C 5179.01 0.411456 -2.03278 0
M  V30 52913 C 5179.43 1.52202 -1.10527 0
M  V30 52914 O 5178.79 1.81054 -0.0943854 0
M  V30 52915 C 5178.84 0.915571 -3.48783 0
M  V30 52916 O 5177.94 2.02659 -3.5917 0
M  V30 52917 H 5177.29 0.0924676 -0.65753 0
M  V30 52918 H 5179.82 -0.346727 -2.01641 0
M  V30 52919 H 5179.83 1.22408 -3.89205 0
M  V30 52920 H 5178.5 0.102769 -4.15773 0
M  V30 52921 H 5177.08 1.72433 -3.30638 0
M  V30 52922 N 5179.26 1.57531 0.0467312 0
M  V30 52923 C 5180.51 1.88081 0.73959 0
M  V30 52924 C 5180.83 0.821998 1.76828 0
M  V30 52925 O 5180.1 -0.146513 1.95351 0
M  V30 52926 H 5178.68 0.694084 0.276145 0
M  V30 52927 H 5181.34 1.94893 0.0168706 0
M  V30 52928 H 5180.44 2.864 1.24021 0
M  V30 52929 N 5180.74 -0.318661 1.54345 0
M  V30 52930 C 5182.16 -0.663294 1.45164 0
M  V30 52931 C 5182.36 -1.91448 0.628487 0
M  V30 52932 O 5181.41 -2.52169 0.129215 0
M  V30 52933 C 5182.73 -0.832735 2.88939 0
M  V30 52934 C 5184.27 -0.929761 2.98872 0
M  V30 52935 C 5184.75 -1.13133 4.43807 0
M  V30 52936 N 5186.24 -1.19796 4.47441 0
M  V30 52937 C 5186.97 -1.3719 5.56746 0
M  V30 52938 N 5186.47 -1.51595 6.76011 0
M  V30 52939 N 5188.26 -1.39937 5.44402 0
M  V30 52940 H 5180.41 0.503643 2.06342 0
M  V30 52941 H 5182.68 0.163561 0.933784 0
M  V30 52942 H 5182.38 0.0154755 3.51697 0
M  V30 52943 H 5182.26 -1.72709 3.35338 0
M  V30 52944 H 5184.64 -1.76847 2.36239 0
M  V30 52945 H 5184.73 -0.0117662 2.55797 0
M  V30 52946 H 5184.37 -0.297458 5.07028 0
M  V30 52947 H 5184.3 -2.06328 4.84496 0
M  V30 52948 H 5186.79 -1.10087 3.6151 0
M  V30 52949 H 5187.1 -1.64573 7.55073 0
M  V30 52950 H 5185.45 -1.48684 6.7891 0
M  V30 52951 H 5188.64 -1.28282 4.50179 0
M  V30 52952 H 5188.81 -1.5315 6.29642 0
M  V30 52953 N 5182.22 -1.46501 -0.580974 0
M  V30 52954 C 5183.46 -1.53461 -1.35015 0
M  V30 52955 C 5183.82 -0.182609 -1.9113 0
M  V30 52956 O 5185.02 -0.126968 -2.685 0
M  V30 52957 C 5183.29 -2.60396 -2.44803 0
M  V30 52958 S 5184.85 -2.86774 -3.32124 0
M  V30 52959 H 5181.67 -0.542176 -0.459963 0
M  V30 52960 H 5184.27 -1.83745 -0.66769 0
M  V30 52961 H 5182.98 -3.5726 -2.01973 0
M  V30 52962 H 5182.51 -2.3185 -3.17819 0
M  V30 52963 H 5184.52 -2.22176 -4.4368 0
M  V30 52964 N 5183.7 0.825752 -1.34235 0
M  V30 52965 C 5184.95 1.57681 -1.25775 0
M  V30 52966 C 5185.26 1.94848 0.171303 0
M  V30 52967 O 5186.46 2.68855 0.378028 0
M  V30 52968 C 5184.92 2.84471 -2.20464 0
M  V30 52969 C 5184.53 2.54616 -3.68612 0
M  V30 52970 C 5186.27 3.62492 -2.20906 0
M  V30 52971 C 5184.18 3.77581 -4.55177 0
M  V30 52972 H 5183.11 0.591792 -0.467223 0
M  V30 52973 H 5185.76 0.909365 -1.59383 0
M  V30 52974 H 5184.14 3.52826 -1.79805 0
M  V30 52975 H 5185.32 1.94389 -4.17791 0
M  V30 52976 H 5183.63 1.89875 -3.70589 0
M  V30 52977 H 5186.23 4.5379 -2.82805 0
M  V30 52978 H 5186.57 3.984 -1.2076 0
M  V30 52979 H 5187.1 3.01077 -2.59995 0
M  V30 52980 H 5183.84 3.46796 -5.56249 0
M  V30 52981 H 5183.36 4.37101 -4.10734 0
M  V30 52982 H 5185.04 4.45022 -4.69643 0
M  V30 52983 N 5185.17 1.17918 1.04561 0
M  V30 52984 C 5186.59 0.976439 1.59131 0
M  V30 52985 C 5186.94 -0.4752 1.90358 0
M  V30 52986 O 5186.06 -1.35166 1.68994 0
M  V30 52987 C 5186.66 1.76614 2.89124 0
M  V30 52988 C 5185.22 1.60788 3.40329 0
M  V30 52989 C 5184.36 1.76376 2.13978 0
M  V30 52990 H 5187.31 1.32535 0.872938 0
M  V30 52991 H 5187.33 1.25228 3.59302 0
M  V30 52992 H 5186.85 2.82261 2.66365 0
M  V30 52993 H 5184.95 0.576566 3.68112 0
M  V30 52994 H 5185.06 2.40283 4.14489 0
M  V30 52995 H 5183.42 1.19276 2.25045 0
M  V30 52996 H 5184.21 2.83448 1.9368 0
M  V30 52997 N 5186.65 -1.23391 0.980429 0
M  V30 52998 C 5187.62 -2.2309 0.525697 0
M  V30 52999 C 5188.62 -1.56131 -0.38469 0
M  V30 53000 O 5189.81 -1.73284 -0.178378 0
M  V30 53001 C 5186.94 -3.40075 -0.237001 0
M  V30 53002 H 5188.13 -2.64834 1.40723 0
M  V30 53003 H 5185.68 -1.36225 0.766322 0
M  V30 53004 H 5186.42 -3.03787 -1.13507 0
M  V30 53005 H 5186.2 -3.89882 0.416493 0
M  V30 53006 H 5187.69 -4.14045 -0.543746 0
M  V30 53007 N 5188.13 -0.752084 -1.38497 0
M  V30 53008 C 5189.55 -0.429514 -1.53712 0
M  V30 53009 C 5189.75 1.05754 -1.71518 0
M  V30 53010 O 5188.8 1.84359 -1.72534 0
M  V30 53011 C 5190.12 -1.22745 -2.74507 0
M  V30 53012 C 5191.66 -1.21737 -2.88356 0
M  V30 53013 C 5192.14 -1.99824 -4.1211 0
M  V30 53014 N 5193.63 -1.97076 -4.19184 0
M  V30 53015 C 5194.36 -2.54292 -5.13929 0
M  V30 53016 N 5193.86 -3.20214 -6.14357 0
M  V30 53017 N 5195.65 -2.4423 -5.06269 0
M  V30 53018 H 5187.8 -1.71585 -1.25189 0
M  V30 53019 H 5190.07 -0.727314 -0.608045 0
M  V30 53020 H 5189.77 -2.28042 -2.6775 0
M  V30 53021 H 5189.65 -0.843315 -3.67652 0
M  V30 53022 H 5192.03 -0.172471 -2.94596 0
M  V30 53023 H 5192.12 -1.64101 -1.96226 0
M  V30 53024 H 5191.76 -3.04324 -4.06632 0
M  V30 53025 H 5191.69 -1.54855 -5.03316 0
M  V30 53026 H 5194.18 -1.49066 -3.47258 0
M  V30 53027 H 5194.49 -3.61296 -6.83143 0
M  V30 53028 H 5192.84 -3.24309 -6.14694 0
M  V30 53029 H 5196.03 -1.92358 -4.2675 0
M  V30 53030 H 5196.2 -2.89116 -5.79927 0
M  V30 53031 N 5189.61 1.49423 -0.501041 0
M  V30 53032 C 5190.86 2.03369 0.035523 0
M  V30 53033 C 5191.21 1.37392 1.34689 0
M  V30 53034 O 5190.5 0.500581 1.84945 0
M  V30 53035 C 5190.7 3.56563 0.244505 0
M  V30 53036 C 5190.53 4.37388 -1.04506 0
M  V30 53037 C 5189.3 4.79404 -1.59686 0
M  V30 53038 C 5191.49 4.75967 -1.94834 0
M  V30 53039 N 5189.48 5.44658 -2.83233 0
M  V30 53040 C 5190.85 5.4094 -3.02959 0
M  V30 53041 C 5192.9 4.57908 -1.95511 0
M  V30 53042 C 5191.61 5.89765 -4.11789 0
M  V30 53043 C 5193.63 5.07694 -3.03316 0
M  V30 53044 C 5192.99 5.72667 -4.1016 0
M  V30 53045 H 5189.09 0.781506 -0.0277821 0
M  V30 53046 H 5191.68 1.82591 -0.675909 0
M  V30 53047 H 5189.85 3.77225 0.924993 0
M  V30 53048 H 5191.58 3.9715 0.77808 0
M  V30 53049 H 5188.33 4.59625 -1.14201 0
M  V30 53050 H 5188.76 5.81872 -3.46056 0
M  V30 53051 H 5193.4 4.07081 -1.14214 0
M  V30 53052 H 5191.12 6.39612 -4.93884 0
M  V30 53053 H 5194.7 4.95532 -3.0486 0
M  V30 53054 H 5193.58 6.10495 -4.92205 0
M  V30 53055 N 5191.09 0.234877 1.5584 0
M  V30 53056 C 5192.03 -0.669723 2.2087 0
M  V30 53057 C 5193 -1.18038 1.1686 0
M  V30 53058 O 5194.19 -1.23704 1.45265 0
M  V30 53059 C 5191.33 -1.86636 2.90277 0
M  V30 53060 C 5190.44 -1.39336 4.08912 0
M  V30 53061 C 5189.58 -2.54862 4.66068 0
M  V30 53062 C 5188.62 -2.04364 5.76977 0
M  V30 53063 N 5187.75 -3.13211 6.28366 0
M  V30 53064 H 5192.59 -0.108475 2.97803 0
M  V30 53065 H 5190.13 -0.0417843 1.47041 0
M  V30 53066 H 5192.09 -2.56914 3.28711 0
M  V30 53067 H 5190.72 -2.40028 2.15839 0
M  V30 53068 H 5189.77 -0.585041 3.75874 0
M  V30 53069 H 5191.08 -0.983185 4.89014 0
M  V30 53070 H 5190.24 -3.33201 5.07013 0
M  V30 53071 H 5188.98 -2.99175 3.85157 0
M  V30 53072 H 5187.98 -1.2449 5.35521 0
M  V30 53073 H 5189.21 -1.61034 6.59731 0
M  V30 53074 H 5187.15 -3.56981 5.50364 0
M  V30 53075 H 5187.07 -2.76486 7.03627 0
M  V30 53076 H 5188.34 -3.91646 6.73969 0
M  V30 53077 N 5192.57 -1.57553 -0.0383763 0
M  V30 53078 C 5193.81 -1.90689 -0.736002 0
M  V30 53079 C 5194.17 -0.832442 -1.73016 0
M  V30 53080 O 5195.37 -1.04785 -2.47535 0
M  V30 53081 C 5193.64 -3.28999 -1.39623 0
M  V30 53082 S 5195.2 -3.83952 -2.1243 0
M  V30 53083 H 5192.02 -0.667808 -0.244036 0
M  V30 53084 H 5194.62 -1.95498 0.00908515 0
M  V30 53085 H 5193.32 -4.05069 -0.659322 0
M  V30 53086 H 5192.86 -3.2747 -2.18006 0
M  V30 53087 H 5194.87 -3.61928 -3.39445 0
M  V30 53088 N 5194.04 0.310471 -1.54512 0
M  V30 53089 C 5195.32 1.06587 -1.64008 0
M  V30 53090 C 5195.7 2.05517 -0.482288 0
M  V30 53091 O 5195.05 2.22457 0.522041 0
M  V30 53092 C 5195.26 1.75616 -3.01596 0
M  V30 53093 C 5196.61 2.28161 -3.58089 0
M  V30 53094 O 5197.63 1.85664 -3.03986 0
M  V30 53095 O 5196.49 3.06 -4.52799 0
M  V30 53096 H 5193.58 0.492086 -0.664666 0
M  V30 53097 H 5196.13 0.309315 -1.66857 0
M  V30 53098 H 5194.9 1.03729 -3.77301 0
M  V30 53099 H 5194.52 2.58051 -3.02482 0
M  V30 53100 N 5195.52 1.46807 0.573196 0
M  V30 53101 C 5196.77 1.52307 1.32842 0
M  V30 53102 C 5197.09 0.180227 1.94165 0
M  V30 53103 O 5196.36 -0.794228 1.79078 0
M  V30 53104 H 5194.94 0.560988 0.493256 0
M  V30 53105 H 5197.6 1.83001 0.670578 0
M  V30 53106 H 5196.7 2.28096 2.13023 0
M  V30 53107 N 5197 -0.818622 1.34671 0
M  V30 53108 C 5197.91 -1.96155 1.28687 0
M  V30 53109 C 5198.93 -1.72917 0.193803 0
M  V30 53110 O 5200.1 -1.9695 0.421045 0
M  V30 53111 C 5197.17 -3.3053 1.04645 0
M  V30 53112 C 5196.23 -3.66747 2.23149 0
M  V30 53113 C 5195.46 -4.9471 2.00244 0
M  V30 53114 O 5195.68 -5.62215 0.962837 0
M  V30 53115 O 5194.62 -5.28904 2.87304 0
M  V30 53116 H 5198.44 -2.04149 2.24849 0
M  V30 53117 H 5196.03 -0.95465 1.14921 0
M  V30 53118 H 5197.91 -4.11002 0.93036 0
M  V30 53119 H 5196.59 -3.23495 0.115253 0
M  V30 53120 H 5195.49 -2.86702 2.40318 0
M  V30 53121 H 5196.83 -3.78473 3.14673 0
M  V30 53122 N 5198.48 -1.18471 -1.03934 0
M  V30 53123 C 5199.75 -0.890497 -1.74154 0
M  V30 53124 C 5200.13 0.606337 -2.02205 0
M  V30 53125 O 5199.48 1.56144 -1.66827 0
M  V30 53126 C 5199.69 -1.73916 -3.02579 0
M  V30 53127 C 5201.04 -1.967 -3.7629 0
M  V30 53128 O 5202.06 -1.7098 -3.12481 0
M  V30 53129 O 5200.92 -2.40004 -4.90979 0
M  V30 53130 H 5198.02 -0.330915 -0.757908 0
M  V30 53131 H 5200.56 -1.29231 -1.09988 0
M  V30 53132 H 5199.34 -2.75379 -2.77996 0
M  V30 53133 H 5198.96 -1.33594 -3.74484 0
M  V30 53134 N 5199.96 1.22869 -0.986959 0
M  V30 53135 C 5201.23 1.86937 -0.575655 0
M  V30 53136 C 5201.61 1.8866 0.947139 0
M  V30 53137 O 5200.96 1.37286 1.8266 0
M  V30 53138 C 5201.17 3.28112 -1.18925 0
M  V30 53139 C 5202.52 4.04654 -1.28608 0
M  V30 53140 O 5203.54 3.37356 -1.1432 0
M  V30 53141 O 5202.4 5.25107 -1.51409 0
M  V30 53142 H 5199.5 0.803742 -0.194752 0
M  V30 53143 H 5202.04 1.30694 -1.08246 0
M  V30 53144 H 5200.81 3.21461 -2.23111 0
M  V30 53145 H 5200.44 3.91954 -0.667673 0
M  V30 53146 N 5201.43 0.759419 1.38096 0
M  V30 53147 C 5202.67 0.323187 2.01829 0
M  V30 53148 C 5203.04 -1.07652 1.58981 0
M  V30 53149 O 5204.24 -1.61219 2.15086 0
M  V30 53150 C 5202.51 0.448358 3.54577 0
M  V30 53151 S 5204.07 0.0955694 4.38696 0
M  V30 53152 H 5200.89 0.125038 0.699919 0
M  V30 53153 H 5203.49 0.991321 1.68502 0
M  V30 53154 H 5202.19 1.46792 3.8325 0
M  V30 53155 H 5201.72 -0.236757 3.92687 0
M  V30 53156 H 5203.74 -1.11295 4.83558 0
M  V30 53157 N 5202.91 -1.49156 0.508959 0
M  V30 53158 C 5204.16 -2.02074 -0.0326624 0
M  V30 53159 C 5204.48 -1.39017 -1.36746 0
M  V30 53160 O 5203.75 -0.548219 -1.88073 0
M  V30 53161 H 5202.33 -0.746848 -0.0150602 0
M  V30 53162 H 5204.99 -1.83095 0.668011 0
M  V30 53163 H 5204.09 -3.11707 -0.156491 0
M  V30 53164 N 5204.39 -0.243138 -1.55713 0
M  V30 53165 C 5205.67 0.432784 -1.90752 0
M  V30 53166 C 5206.05 1.76149 -1.16339 0
M  V30 53167 O 5205.4 2.26782 -0.279645 0
M  V30 53168 C 5205.61 0.604564 -3.43724 0
M  V30 53169 C 5206.95 0.902164 -4.14905 0
M  V30 53170 O 5207.98 0.690566 -3.49442 0
M  V30 53171 O 5206.84 1.30491 -5.30692 0
M  V30 53172 H 5203.93 0.231808 -0.793848 0
M  V30 53173 H 5206.48 -0.286925 -1.67257 0
M  V30 53174 H 5205.25 -0.331792 -3.89891 0
M  V30 53175 H 5204.87 1.37496 -3.73069 0
M  V30 53176 N 5205.87 1.57571 0.0300203 0
M  V30 53177 C 5207.12 1.88855 0.7196 0
M  V30 53178 C 5207.44 0.840707 1.75946 0
M  V30 53179 O 5206.71 -0.125786 1.95496 0
M  V30 53180 H 5205.29 0.696974 0.268768 0
M  V30 53181 H 5207.95 1.949 -0.00380137 0
M  V30 53182 H 5207.05 2.877 1.20977 0
M  V30 53183 N 5207.35 -0.302273 1.54674 0
M  V30 53184 C 5208.57 -1.06096 1.78209 0
M  V30 53185 C 5209 -1.80202 0.539323 0
M  V30 53186 O 5208.35 -1.73977 -0.510081 0
M  V30 53187 C 5208.4 -2.01819 2.98834 0
M  V30 53188 O 5207.51 -3.10098 2.71869 0
M  V30 53189 H 5206.85 -0.304849 0.589884 0
M  V30 53190 H 5209.38 -0.340082 2.01754 0
M  V30 53191 H 5209.39 -2.44308 3.26769 0
M  V30 53192 H 5208.06 -1.47286 3.88947 0
M  V30 53193 H 5206.64 -2.72133 2.54947 0
M  V30 53194 N 5208.82 -1.47109 -0.565403 0
M  V30 53195 C 5210.1 -1.43792 -1.32602 0
M  V30 53196 C 5210.48 -0.130502 -2.10696 0
M  V30 53197 O 5209.83 0.888012 -2.10539 0
M  V30 53198 C 5210.04 -2.67841 -2.23746 0
M  V30 53199 C 5211.39 -3.14714 -2.85026 0
M  V30 53200 O 5212.41 -2.68511 -2.34051 0
M  V30 53201 O 5211.27 -3.95015 -3.77657 0
M  V30 53202 H 5208.36 -0.572644 -0.596664 0
M  V30 53203 H 5210.91 -1.59299 -0.584984 0
M  V30 53204 H 5209.68 -3.54538 -1.65585 0
M  V30 53205 H 5209.31 -2.5488 -3.05159 0
M  V30 53206 N 5210.3 0.811468 -1.35103 0
M  V30 53207 C 5211.21 1.9547 -1.29725 0
M  V30 53208 C 5212.23 1.72812 -0.20297 0
M  V30 53209 O 5213.4 1.96724 -0.431483 0
M  V30 53210 C 5210.47 3.29971 -1.06396 0
M  V30 53211 C 5209.53 3.65558 -2.2509 0
M  V30 53212 C 5208.76 4.93641 -2.02865 0
M  V30 53213 O 5208.99 5.61696 -0.992639 0
M  V30 53214 O 5207.92 5.27373 -2.90105 0
M  V30 53215 H 5211.75 2.02954 -2.25928 0
M  V30 53216 H 5209.33 0.948542 -1.15425 0
M  V30 53217 H 5211.21 4.10502 -0.952143 0
M  V30 53218 H 5209.89 3.23429 -0.132407 0
M  V30 53219 H 5208.8 2.85424 -2.41835 0
M  V30 53220 H 5210.13 3.76799 -3.16676 0
M  V30 53221 N 5211.78 1.19021 1.03304 0
M  V30 53222 C 5213.19 0.993262 1.58086 0
M  V30 53223 C 5213.54 -0.454983 1.90852 0
M  V30 53224 O 5212.67 -1.33366 1.70419 0
M  V30 53225 C 5213.26 1.79671 2.87235 0
M  V30 53226 C 5211.82 1.64389 3.38605 0
M  V30 53227 C 5210.97 1.78636 2.12096 0
M  V30 53228 H 5213.92 1.33453 0.858832 0
M  V30 53229 H 5213.94 1.29032 3.57954 0
M  V30 53230 H 5213.45 2.85071 2.63356 0
M  V30 53231 H 5211.55 0.615577 3.6748 0
M  V30 53232 H 5211.67 2.44665 4.11917 0
M  V30 53233 H 5210.03 1.21656 2.23767 0
M  V30 53234 H 5210.81 2.85486 1.90663 0
M  V30 53235 N 5213.26 -1.22344 0.993461 0
M  V30 53236 C 5214.21 -2.24293 0.544197 0
M  V30 53237 C 5215.18 -1.60604 -0.423754 0
M  V30 53238 O 5216.36 -1.87953 -0.328387 0
M  V30 53239 C 5213.5 -3.44838 -0.134457 0
M  V30 53240 C 5212.61 -4.2304 0.8753 0
M  V30 53241 C 5211.75 -5.30928 0.170106 0
M  V30 53242 C 5210.79 -6.00849 1.1682 0
M  V30 53243 N 5209.92 -7.00379 0.491268 0
M  V30 53244 H 5214.76 -2.62085 1.41829 0
M  V30 53245 H 5212.3 -1.28807 0.71043 0
M  V30 53246 H 5214.26 -4.13627 -0.544853 0
M  V30 53247 H 5212.89 -3.07807 -0.972338 0
M  V30 53248 H 5211.94 -3.53542 1.40401 0
M  V30 53249 H 5213.25 -4.71231 1.63532 0
M  V30 53250 H 5212.41 -6.05973 -0.296992 0
M  V30 53251 H 5211.15 -4.83712 -0.622415 0
M  V30 53252 H 5210.15 -5.24585 1.64592 0
M  V30 53253 H 5211.38 -6.50152 1.9616 0
M  V30 53254 H 5209.32 -6.55394 -0.281807 0
M  V30 53255 H 5209.24 -7.4658 1.18973 0
M  V30 53256 H 5210.51 -7.79486 0.046991 0
M  V30 53257 N 5214.74 -0.766732 -1.37692 0
M  V30 53258 C 5215.65 -0.15024 -2.34118 0
M  V30 53259 C 5216.66 0.685457 -1.5993 0
M  V30 53260 O 5217.84 0.606549 -1.92049 0
M  V30 53261 C 5214.9 0.722443 -3.39089 0
M  V30 53262 C 5213.96 -0.129134 -4.29106 0
M  V30 53263 C 5213.2 0.701992 -5.29063 0
M  V30 53264 O 5213.42 1.93935 -5.36419 0
M  V30 53265 O 5212.35 0.113844 -6.01792 0
M  V30 53266 H 5216.18 -0.94693 -2.8856 0
M  V30 53267 H 5213.77 -0.527814 -1.39766 0
M  V30 53268 H 5215.65 1.2208 -4.03329 0
M  V30 53269 H 5214.32 1.49741 -2.86983 0
M  V30 53270 H 5213.23 -0.673742 -3.67983 0
M  V30 53271 H 5214.56 -0.867063 -4.84503 0
M  V30 53272 N 5216.21 1.48884 -0.516862 0
M  V30 53273 C 5217.12 2.33186 0.257211 0
M  V30 53274 C 5218.14 1.45653 0.9519 0
M  V30 53275 O 5219.32 1.78654 0.929771 0
M  V30 53276 C 5216.38 3.21469 1.2984 0
M  V30 53277 C 5215.44 4.24865 0.615459 0
M  V30 53278 C 5214.68 5.0893 1.60704 0
M  V30 53279 O 5214.9 4.9476 2.83846 0
M  V30 53280 O 5213.83 5.90741 1.15364 0
M  V30 53281 H 5217.66 3.00594 -0.433236 0
M  V30 53282 H 5215.24 1.46792 -0.27796 0
M  V30 53283 H 5217.13 3.76115 1.90041 0
M  V30 53284 H 5215.8 2.56737 1.97149 0
M  V30 53285 H 5214.71 3.7409 -0.0267144 0
M  V30 53286 H 5216.04 4.92198 -0.0154602 0
M  V30 53287 N 5217.69 0.251393 1.55582 0
M  V30 53288 C 5218.93 -0.373581 2.00957 0
M  V30 53289 C 5219.3 -1.54802 1.1358 0
M  V30 53290 O 5220.5 -2.24103 1.4843 0
M  V30 53291 C 5218.77 -0.768797 3.49033 0
M  V30 53292 S 5220.33 -1.38366 4.16414 0
M  V30 53293 H 5217.15 -0.117346 0.701249 0
M  V30 53294 H 5219.75 0.367678 1.92011 0
M  V30 53295 H 5218.45 0.0951934 4.1029 0
M  V30 53296 H 5217.98 -1.54212 3.61915 0
M  V30 53297 H 5220 -2.67265 4.18072 0
M  V30 53298 N 5219.17 -1.57585 -0.0216635 0
M  V30 53299 C 5220.45 -1.80782 -0.746807 0
M  V30 53300 C 5220.83 -0.851231 -1.93177 0
M  V30 53301 O 5220.18 0.104959 -2.28259 0
M  V30 53302 C 5220.39 -3.28701 -1.1729 0
M  V30 53303 C 5221.73 -3.93877 -1.58575 0
M  V30 53304 O 5222.76 -3.32894 -1.26728 0
M  V30 53305 O 5221.62 -5.01262 -2.17713 0
M  V30 53306 H 5218.71 -0.743679 -0.36176 0
M  V30 53307 H 5221.26 -1.697 0.00212751 0
M  V30 53308 H 5220.03 -3.89929 -0.327316 0
M  V30 53309 H 5219.65 -3.44699 -1.98162 0
M  V30 53310 N 5220.65 0.294066 -1.54832 0
M  V30 53311 C 5221.56 1.38534 -1.89329 0
M  V30 53312 C 5222.58 1.55125 -0.788187 0
M  V30 53313 O 5223.75 1.69656 -1.0853 0
M  V30 53314 C 5220.82 2.72801 -2.13963 0
M  V30 53315 C 5219.88 2.65137 -3.37641 0
M  V30 53316 C 5219.11 3.93001 -3.6109 0
M  V30 53317 O 5219.33 4.9269 -2.87424 0
M  V30 53318 O 5218.27 3.94475 -4.54613 0
M  V30 53319 H 5222.09 1.12279 -2.82183 0
M  V30 53320 H 5219.68 0.490744 -1.4111 0
M  V30 53321 H 5221.56 3.5223 -2.31327 0
M  V30 53322 H 5220.24 2.98885 -1.24295 0
M  V30 53323 H 5219.14 1.84156 -3.25634 0
M  V30 53324 H 5220.48 2.44005 -4.27461 0
M  V30 53325 N 5222.13 1.47406 0.557593 0
M  V30 53326 C 5223.54 1.32916 0.883483 0
M  V30 53327 C 5223.74 0.31936 1.98953 0
M  V30 53328 O 5222.8 -0.269251 2.5106 0
M  V30 53329 C 5224.11 2.72234 1.27708 0
M  V30 53330 C 5225.66 2.80515 1.38853 0
M  V30 53331 C 5226.14 4.20472 1.81569 0
M  V30 53332 N 5227.63 4.23012 1.8872 0
M  V30 53333 C 5228.36 5.28218 2.23099 0
M  V30 53334 N 5227.86 6.43729 2.56094 0
M  V30 53335 N 5229.65 5.15596 2.23869 0
M  V30 53336 H 5221.8 2.11697 -0.172631 0
M  V30 53337 H 5224.06 0.947888 -0.0145667 0
M  V30 53338 H 5223.77 3.47558 0.538206 0
M  V30 53339 H 5223.64 3.03978 2.23331 0
M  V30 53340 H 5226.03 2.05464 2.11822 0
M  V30 53341 H 5226.11 2.52425 0.414185 0
M  V30 53342 H 5225.76 4.96029 1.0917 0
M  V30 53343 H 5225.69 4.45987 2.80005 0
M  V30 53344 H 5228.18 3.39679 1.65609 0
M  V30 53345 H 5228.49 7.19764 2.81353 0
M  V30 53346 H 5226.84 6.4705 2.53676 0
M  V30 53347 H 5230.03 4.24381 1.97531 0
M  V30 53348 H 5230.2 5.97694 2.50332 0
M  V30 53349 N 5223.61 -0.804292 1.35532 0
M  V30 53350 C 5224.83 -1.59278 1.32053 0
M  V30 53351 C 5225.25 -1.88527 -0.10149 0
M  V30 53352 O 5224.61 -1.48979 -1.05411 0
M  V30 53353 C 5224.66 -2.92268 2.12748 0
M  V30 53354 O 5224.38 -2.64286 3.49406 0
M  V30 53355 C 5225.88 -3.86624 2.1688 0
M  V30 53356 H 5223.1 -0.494507 0.453546 0
M  V30 53357 H 5225.64 -0.999353 1.78419 0
M  V30 53358 H 5223.8 -3.48119 1.69976 0
M  V30 53359 H 5224.21 -3.49217 3.91341 0
M  V30 53360 H 5225.69 -4.77044 2.77729 0
M  V30 53361 H 5226.16 -4.2338 1.16818 0
M  V30 53362 H 5226.77 -3.36708 2.59823 0
M  V30 53363 N 5225.08 -1.19567 -1.02672 0
M  V30 53364 C 5226.32 -1.01079 -1.77658 0
M  V30 53365 C 5226.69 0.450278 -1.86645 0
M  V30 53366 O 5227.89 0.755041 -2.57978 0
M  V30 53367 C 5226.16 -1.66394 -3.16303 0
M  V30 53368 S 5227.72 -1.62872 -4.07453 0
M  V30 53369 H 5224.54 -0.362665 -0.611551 0
M  V30 53370 H 5227.14 -1.51951 -1.23008 0
M  V30 53371 H 5225.84 -2.71928 -3.07381 0
M  V30 53372 H 5225.37 -1.15609 -3.76029 0
M  V30 53373 H 5227.39 -0.654438 -4.91865 0
M  V30 53374 N 5226.56 1.21816 -0.999936 0
M  V30 53375 C 5227.47 2.27689 -0.565239 0
M  V30 53376 C 5228.49 1.69588 0.389339 0
M  V30 53377 O 5229.66 1.99786 0.254428 0
M  V30 53378 C 5226.73 3.46537 0.106311 0
M  V30 53379 C 5225.79 4.19928 -0.892112 0
M  V30 53380 C 5225.02 5.33102 -0.252515 0
M  V30 53381 O 5225.25 5.62401 0.951905 0
M  V30 53382 O 5224.18 5.9418 -0.960907 0
M  V30 53383 H 5228.01 2.67054 -1.44623 0
M  V30 53384 H 5225.59 1.28116 -0.768544 0
M  V30 53385 H 5227.47 4.18633 0.482154 0
M  V30 53386 H 5226.15 3.09082 0.961757 0
M  V30 53387 H 5225.05 3.50075 -1.31902 0
M  V30 53388 H 5226.39 4.61281 -1.71698 0
M  V30 53389 N 5228.04 0.774023 1.37283 0
M  V30 53390 C 5229.45 0.404497 1.82265 0
M  V30 53391 C 5229.8 -1.06966 1.64477 0
M  V30 53392 O 5228.93 -1.82863 1.15715 0
M  V30 53393 C 5229.52 0.727415 3.30899 0
M  V30 53394 C 5228.08 0.410916 3.7415 0
M  V30 53395 C 5227.23 0.970074 2.59778 0
M  V30 53396 H 5230.18 0.968482 1.25722 0
M  V30 53397 H 5230.2 0.0128912 3.80498 0
M  V30 53398 H 5229.71 1.80038 3.43814 0
M  V30 53399 H 5227.81 -0.654641 3.66804 0
M  V30 53400 H 5227.93 0.920757 4.70169 0
M  V30 53401 H 5226.29 0.394182 2.51631 0
M  V30 53402 H 5227.07 2.04849 2.75485 0
M  V30 53403 N 5229.52 -1.48607 0.52475 0
M  V30 53404 C 5230.75 -2.06599 -0.00734605 0
M  V30 53405 C 5231.16 -1.38235 -1.29181 0
M  V30 53406 O 5230.5 -0.462025 -1.77795 0
M  V30 53407 C 5230.56 -3.58185 -0.307198 0
M  V30 53408 C 5230.22 -4.48388 0.883022 0
M  V30 53409 C 5231.22 -4.88479 1.78001 0
M  V30 53410 C 5228.91 -4.90363 1.08854 0
M  V30 53411 C 5230.9 -5.69308 2.86647 0
M  V30 53412 C 5228.59 -5.70964 2.17814 0
M  V30 53413 C 5229.59 -6.10344 3.06544 0
M  V30 53414 O 5229.27 -6.89328 4.1362 0
M  V30 53415 H 5229.01 -0.67542 0.0280083 0
M  V30 53416 H 5231.56 -1.92056 0.728268 0
M  V30 53417 H 5229.79 -3.70822 -1.09672 0
M  V30 53418 H 5231.48 -3.9832 -0.780746 0
M  V30 53419 H 5232.24 -4.56676 1.63315 0
M  V30 53420 H 5228.12 -4.59198 0.407197 0
M  V30 53421 H 5231.67 -5.99965 3.55932 0
M  V30 53422 H 5227.56 -6.0218 2.32486 0
M  V30 53423 H 5228.33 -7.07674 4.11265 0
M  V30 53424 N 5231 -0.25964 -1.55447 0
M  V30 53425 C 5231.93 0.667471 -2.19266 0
M  V30 53426 C 5232.94 1.12921 -1.17272 0
M  V30 53427 O 5234.13 1.05378 -1.44075 0
M  V30 53428 C 5231.23 1.92056 -2.79227 0
M  V30 53429 C 5230.4 1.60818 -4.06763 0
M  V30 53430 C 5229.46 2.71215 -4.5092 0
M  V30 53431 O 5228.49 2.38058 -5.17027 0
M  V30 53432 N 5229.69 4.00969 -4.19766 0
M  V30 53433 H 5232.45 0.121343 -2.99454 0
M  V30 53434 H 5230.02 -0.0801088 -1.61702 0
M  V30 53435 H 5232.01 2.65175 -3.05719 0
M  V30 53436 H 5230.58 2.37614 -2.03122 0
M  V30 53437 H 5229.8 0.711549 -3.87725 0
M  V30 53438 H 5231.09 1.37428 -4.89889 0
M  V30 53439 H 5230.48 4.30735 -3.66721 0
M  V30 53440 H 5229.04 4.70514 -4.51065 0
M  V30 53441 N 5232.47 1.57594 0.0133061 0
M  V30 53442 C 5233.72 1.89983 0.700913 0
M  V30 53443 C 5234.05 0.858863 1.7451 0
M  V30 53444 O 5233.3 -0.138141 1.95212 0
M  V30 53445 C 5233.6 3.29126 1.39324 0
M  V30 53446 C 5233.27 4.483 0.483529 0
M  V30 53447 C 5231.93 4.80635 0.233017 0
M  V30 53448 C 5234.28 5.21002 -0.143609 0
M  V30 53449 C 5231.61 5.83053 -0.653148 0
M  V30 53450 C 5233.96 6.24362 -1.01757 0
M  V30 53451 C 5232.63 6.55163 -1.27739 0
M  V30 53452 H 5231.9 0.695196 0.256482 0
M  V30 53453 H 5234.54 1.9146 -0.0393638 0
M  V30 53454 H 5232.85 3.23711 2.20723 0
M  V30 53455 H 5234.55 3.5144 1.93109 0
M  V30 53456 H 5231.14 4.23027 0.688943 0
M  V30 53457 H 5235.32 4.96286 0.0369395 0
M  V30 53458 H 5230.58 6.05284 -0.862592 0
M  V30 53459 H 5234.75 6.79834 -1.50994 0
M  V30 53460 H 5232.38 7.34344 -1.96576 0
M  V30 53461 N 5233.95 -0.28585 1.54986 0
M  V30 53462 C 5235.37 -0.632353 1.46538 0
M  V30 53463 C 5235.57 -1.90072 0.668954 0
M  V30 53464 O 5234.62 -2.51838 0.182675 0
M  V30 53465 C 5235.94 -0.771259 2.90641 0
M  V30 53466 C 5237.49 -0.866156 3.00777 0
M  V30 53467 C 5237.96 -1.03694 4.46107 0
M  V30 53468 N 5239.45 -1.10278 4.49881 0
M  V30 53469 C 5240.19 -1.25349 5.59531 0
M  V30 53470 N 5239.68 -1.37222 6.79074 0
M  V30 53471 N 5241.48 -1.28358 5.47248 0
M  V30 53472 H 5233.63 0.547298 2.05228 0
M  V30 53473 H 5235.89 0.183331 0.930104 0
M  V30 53474 H 5235.6 0.0900721 3.51585 0
M  V30 53475 H 5235.47 -1.65557 3.38926 0
M  V30 53476 H 5237.86 -1.71796 2.39938 0
M  V30 53477 H 5237.94 0.0424948 2.55765 0
M  V30 53478 H 5237.58 -0.189843 5.07545 0
M  V30 53479 H 5237.51 -1.96005 4.88763 0
M  V30 53480 H 5240 -1.02395 3.63763 0
M  V30 53481 H 5240.32 -1.48519 7.58394 0
M  V30 53482 H 5238.66 -1.3425 6.81911 0
M  V30 53483 H 5241.85 -1.18704 4.52799 0
M  V30 53484 H 5242.02 -1.3976 6.32749 0
M  V30 53485 N 5235.43 -1.477 -0.549768 0
M  V30 53486 C 5236.67 -1.5629 -1.3173 0
M  V30 53487 C 5237.03 -0.223109 -1.90699 0
M  V30 53488 O 5238.24 -0.183893 -2.6817 0
M  V30 53489 C 5236.51 -2.6553 -2.39225 0
M  V30 53490 S 5238.07 -2.93754 -3.25966 0
M  V30 53491 H 5234.88 -0.551811 -0.448359 0
M  V30 53492 H 5237.49 -1.8512 -0.628564 0
M  V30 53493 H 5236.19 -3.61464 -1.9435 0
M  V30 53494 H 5235.72 -2.38539 -3.1283 0
M  V30 53495 H 5237.74 -2.31537 -4.38868 0
M  V30 53496 N 5236.91 0.797093 -1.35957 0
M  V30 53497 C 5237.86 1.9094 -1.29656 0
M  V30 53498 C 5238.83 1.65262 -0.166686 0
M  V30 53499 O 5240.01 1.87526 -0.351949 0
M  V30 53500 C 5237.15 3.27633 -1.084 0
M  V30 53501 C 5236.26 3.65434 -2.30395 0
M  V30 53502 C 5235.4 4.91206 -2.02213 0
M  V30 53503 C 5234.44 5.21663 -3.20209 0
M  V30 53504 N 5233.57 6.38617 -2.91742 0
M  V30 53505 H 5238.41 1.95661 -2.24769 0
M  V30 53506 H 5235.95 0.956921 -1.1172 0
M  V30 53507 H 5237.91 4.06448 -0.941054 0
M  V30 53508 H 5236.54 3.22355 -0.169464 0
M  V30 53509 H 5235.59 2.81804 -2.55521 0
M  V30 53510 H 5236.9 3.83895 -3.18474 0
M  V30 53511 H 5236.06 5.77869 -1.84803 0
M  V30 53512 H 5234.8 4.74799 -1.11433 0
M  V30 53513 H 5233.8 4.33486 -3.38186 0
M  V30 53514 H 5235.03 5.39994 -4.11805 0
M  V30 53515 H 5232.97 6.23616 -2.03565 0
M  V30 53516 H 5232.89 6.57374 -3.73357 0
M  V30 53517 H 5234.16 7.28282 -2.77894 0
M  V30 53518 N 5238.39 1.2011 1.02036 0
M  V30 53519 C 5239.33 0.943305 2.12614 0
M  V30 53520 C 5240.33 -0.103982 1.69081 0
M  V30 53521 O 5241.53 0.0460364 1.79941 0
M  V30 53522 H 5237.91 0.287694 0.694792 0
M  V30 53523 H 5239.88 1.8823 2.31543 0
M  V30 53524 C 5238.63 0.507831 3.43971 0
M  V30 53525 H 5237.95 1.30527 3.77892 0
M  V30 53526 H 5239.39 0.366635 4.22412 0
M  V30 53527 C 5237.85 -0.779275 3.27764 0
M  V30 53528 O 5238.38 -1.83863 3.57151 0
M  V30 53529 N 5236.59 -0.739832 2.81025 0
M  V30 53530 H 5236.13 0.122516 2.57308 0
M  V30 53531 H 5236.09 -1.60138 2.70561 0
M  V30 53532 N 5239.86 -1.21284 1.00638 0
M  V30 53533 C 5240.81 -2.25731 0.561105 0
M  V30 53534 C 5241.81 -1.6473 -0.395037 0
M  V30 53535 O 5243.01 -1.78023 -0.266078 0
M  V30 53536 H 5239.39 -0.734098 0.163107 0
M  V30 53537 H 5241.36 -2.60626 1.45316 0
M  V30 53538 C 5240.11 -3.4757 -0.0951365 0
M  V30 53539 H 5239.43 -3.9478 0.631566 0
M  V30 53540 H 5240.87 -4.22383 -0.369957 0
M  V30 53541 C 5239.33 -3.09331 -1.33477 0
M  V30 53542 O 5239.86 -3.19941 -2.429 0
M  V30 53543 N 5238.07 -2.6398 -1.21503 0
M  V30 53544 H 5237.61 -2.55546 -0.324651 0
M  V30 53545 H 5237.57 -2.38764 -2.04546 0
M  V30 53546 N 5241.34 -0.781292 -1.36871 0
M  V30 53547 C 5242.76 -0.462022 -1.52766 0
M  V30 53548 C 5242.96 1.02092 -1.73722 0
M  V30 53549 O 5242.01 1.80658 -1.76405 0
M  V30 53550 C 5243.33 -1.2854 -2.71842 0
M  V30 53551 C 5244.88 -1.27827 -2.85709 0
M  V30 53552 C 5245.35 -2.0852 -4.07779 0
M  V30 53553 N 5246.84 -2.05924 -4.14909 0
M  V30 53554 C 5247.58 -2.65136 -5.0842 0
M  V30 53555 N 5247.07 -3.33174 -6.07427 0
M  V30 53556 N 5248.87 -2.54914 -5.00974 0
M  V30 53557 H 5241.02 -1.74202 -1.21521 0
M  V30 53558 H 5243.28 -0.740048 -0.59248 0
M  V30 53559 H 5242.99 -2.3367 -2.62852 0
M  V30 53560 H 5242.86 -0.92111 -3.65781 0
M  V30 53561 H 5245.25 -0.23492 -2.94163 0
M  V30 53562 H 5245.33 -1.68226 -1.92701 0
M  V30 53563 H 5244.97 -3.12881 -4.00085 0
M  V30 53564 H 5244.9 -1.65496 -4.99918 0
M  V30 53565 H 5247.39 -1.56398 -3.44018 0
M  V30 53566 H 5247.71 -3.75705 -6.75326 0
M  V30 53567 H 5246.05 -3.37274 -6.07677 0
M  V30 53568 H 5249.24 -2.01367 -4.22574 0
M  V30 53569 H 5249.41 -3.01352 -5.73664 0
M  V30 53570 N 5242.82 1.48327 -0.532624 0
M  V30 53571 C 5244.06 2.044 -0.00152804 0
M  V30 53572 C 5244.42 1.40058 1.31331 0
M  V30 53573 O 5245.63 1.87033 1.9306 0
M  V30 53574 C 5243.9 3.57214 0.11525 0
M  V30 53575 S 5245.46 4.34733 0.596027 0
M  V30 53576 H 5242.27 0.710875 -0.0133287 0
M  V30 53577 H 5244.88 1.82004 -0.713784 0
M  V30 53578 H 5243.58 4.01576 -0.846476 0
M  V30 53579 H 5243.11 3.84068 0.851805 0
M  V30 53580 H 5245.13 4.60017 1.86009 0
M  V30 53581 N 5244.3 0.26788 1.55307 0
M  V30 53582 C 5245.54 -0.351486 1.99731 0
M  V30 53583 C 5245.88 -1.56045 1.15601 0
M  V30 53584 O 5245.15 -1.93202 0.224342 0
M  V30 53585 C 5245.44 -0.740786 3.52398 0
M  V30 53586 C 5245.29 0.475019 4.47285 0
M  V30 53587 C 5246.61 -1.57996 4.10762 0
M  V30 53588 H 5243.73 -0.126282 0.7261 0
M  V30 53589 H 5246.37 0.373381 1.86295 0
M  V30 53590 H 5244.52 -1.35839 3.63978 0
M  V30 53591 H 5246.19 1.11356 4.47658 0
M  V30 53592 H 5244.43 1.11439 4.19242 0
M  V30 53593 H 5245.1 0.158976 5.51771 0
M  V30 53594 H 5247.58 -1.05843 4.02413 0
M  V30 53595 H 5246.46 -1.82117 5.17807 0
M  V30 53596 H 5246.72 -2.55866 3.60535 0
M  V30 53597 N 5245.78 -1.57599 -0.00494828 0
M  V30 53598 C 5247.19 -1.78464 -0.548417 0
M  V30 53599 C 5247.54 -0.90193 -1.7424 0
M  V30 53600 O 5246.66 -0.10309 -2.16154 0
M  V30 53601 C 5247.26 -3.23654 -1.00167 0
M  V30 53602 C 5245.82 -3.45632 -1.49049 0
M  V30 53603 C 5244.96 -2.73796 -0.439434 0
M  V30 53604 H 5247.92 -1.5715 0.221235 0
M  V30 53605 H 5247.94 -3.31494 -1.86793 0
M  V30 53606 H 5247.45 -3.87874 -0.132471 0
M  V30 53607 H 5245.55 -2.8662 -2.38075 0
M  V30 53608 H 5245.66 -4.54303 -1.52136 0
M  V30 53609 H 5244.03 -2.38271 -0.899959 0
M  V30 53610 H 5244.81 -3.40712 0.420719 0
M  V30 53611 N 5247.25 0.277627 -1.55135 0
M  V30 53612 C 5248.5 1.00785 -1.75177 0
M  V30 53613 C 5248.82 1.86985 -0.553332 0
M  V30 53614 O 5248.09 1.9108 0.431883 0
M  V30 53615 H 5246.67 0.375106 -0.645991 0
M  V30 53616 H 5249.34 0.302973 -1.92531 0
M  V30 53617 H 5248.43 1.64746 -2.65076 0
M  V30 53618 N 5248.73 1.4799 0.541927 0
M  V30 53619 C 5250.15 1.33846 0.869336 0
M  V30 53620 C 5250.35 0.340444 1.98603 0
M  V30 53621 O 5249.41 -0.242608 2.51332 0
M  V30 53622 C 5250.72 2.73573 1.24814 0
M  V30 53623 C 5252.27 2.81972 1.3587 0
M  V30 53624 C 5252.74 4.22374 1.77099 0
M  V30 53625 N 5254.23 4.2499 1.84222 0
M  V30 53626 C 5254.97 5.30555 2.17484 0
M  V30 53627 N 5254.46 6.46409 2.49252 0
M  V30 53628 N 5256.26 5.17941 2.18388 0
M  V30 53629 H 5248.41 2.11502 -0.195075 0
M  V30 53630 H 5250.67 0.94768 -0.0246195 0
M  V30 53631 H 5250.38 3.48109 0.501313 0
M  V30 53632 H 5250.25 3.0633 2.20095 0
M  V30 53633 H 5252.64 2.07699 2.09631 0
M  V30 53634 H 5252.72 2.5285 0.387389 0
M  V30 53635 H 5252.36 4.97159 1.03902 0
M  V30 53636 H 5252.29 4.48932 2.75259 0
M  V30 53637 H 5254.78 3.41417 1.61997 0
M  V30 53638 H 5255.1 7.22708 2.73703 0
M  V30 53639 H 5253.44 6.49704 2.46798 0
M  V30 53640 H 5256.63 4.26452 1.93019 0
M  V30 53641 H 5256.81 6.00315 2.43979 0
M  V30 53642 N 5250.21 -0.789872 1.36377 0
M  V30 53643 C 5251.46 -1.54935 1.31783 0
M  V30 53644 C 5251.81 -1.92128 -0.102259 0
M  V30 53645 O 5251.11 -1.59827 -1.05669 0
M  V30 53646 C 5251.3 -2.83691 2.1738 0
M  V30 53647 C 5251.13 -2.5908 3.6757 0
M  V30 53648 C 5249.9 -2.54124 4.36748 0
M  V30 53649 C 5252.1 -2.28309 4.60846 0
M  V30 53650 N 5250.08 -2.21407 5.72584 0
M  V30 53651 C 5251.45 -2.05575 5.84926 0
M  V30 53652 C 5253.5 -2.14312 4.49416 0
M  V30 53653 C 5252.21 -1.7026 6.98859 0
M  V30 53654 C 5254.23 -1.80395 5.63215 0
M  V30 53655 C 5253.6 -1.58509 6.86334 0
M  V30 53656 H 5249.69 -0.567992 0.537503 0
M  V30 53657 H 5252.28 -0.923123 1.71425 0
M  V30 53658 H 5250.45 -3.44181 1.79984 0
M  V30 53659 H 5252.18 -3.49418 2.04179 0
M  V30 53660 H 5248.94 -2.69354 3.89545 0
M  V30 53661 H 5249.36 -2.07795 6.44322 0
M  V30 53662 H 5254 -2.29923 3.54817 0
M  V30 53663 H 5251.72 -1.53387 7.93409 0
M  V30 53664 H 5255.31 -1.70249 5.56333 0
M  V30 53665 H 5254.19 -1.3265 7.72899 0
M  V30 53666 N 5251.69 -1.20649 -1.01398 0
M  V30 53667 C 5252.62 -0.915466 -2.10123 0
M  V30 53668 C 5253.63 0.0978134 -1.62506 0
M  V30 53669 O 5254.82 -0.133539 -1.78 0
M  V30 53670 C 5251.92 -0.351423 -3.37073 0
M  V30 53671 C 5251.1 -1.41688 -4.13816 0
M  V30 53672 C 5250.16 -0.863683 -5.19064 0
M  V30 53673 O 5249.18 -1.545 -5.47831 0
M  V30 53674 N 5250.38 0.325595 -5.79586 0
M  V30 53675 H 5253.15 -1.85141 -2.35676 0
M  V30 53676 H 5250.71 -1.11052 -1.17809 0
M  V30 53677 H 5252.7 0.0328538 -4.04687 0
M  V30 53678 H 5251.27 0.489133 -3.08749 0
M  V30 53679 H 5250.49 -1.97538 -3.41134 0
M  V30 53680 H 5251.78 -2.13436 -4.61869 0
M  V30 53681 H 5251.18 0.896338 -5.58554 0
M  V30 53682 H 5249.73 0.65148 -6.48536 0
M  V30 53683 N 5253.17 1.20748 -1.0128 0
M  V30 53684 C 5254.41 1.9173 -0.708439 0
M  V30 53685 C 5254.77 1.76839 0.747793 0
M  V30 53686 O 5255.97 2.42266 1.16449 0
M  V30 53687 C 5254.24 3.39151 -1.12744 0
M  V30 53688 S 5255.8 4.28515 -0.944476 0
M  V30 53689 H 5252.62 0.662385 -0.258393 0
M  V30 53690 H 5255.22 1.4608 -1.29926 0
M  V30 53691 H 5253.93 3.47509 -2.18325 0
M  V30 53692 H 5253.46 3.89824 -0.529237 0
M  V30 53693 H 5255.47 4.95961 0.154104 0
M  V30 53694 N 5254.65 0.78854 1.36454 0
M  V30 53695 C 5255.92 0.284552 1.93519 0
M  V30 53696 C 5256.3 -1.22314 1.72054 0
M  V30 53697 O 5255.65 -2.0142 1.07899 0
M  V30 53698 C 5255.86 0.676226 3.42386 0
M  V30 53699 C 5257.21 0.655475 4.1951 0
M  V30 53700 O 5258.23 0.616646 3.50822 0
M  V30 53701 O 5257.09 0.697582 5.4203 0
M  V30 53702 H 5254.19 0.0702059 0.824015 0
M  V30 53703 H 5256.73 0.871025 1.45641 0
M  V30 53704 H 5255.5 1.71608 3.51662 0
M  V30 53705 H 5255.13 0.0635915 3.97549 0
M  V30 53706 N 5256.12 -1.48042 0.540482 0
M  V30 53707 C 5257.35 -2.06595 0.0145669 0
M  V30 53708 C 5257.76 -1.39597 -1.27708 0
M  V30 53709 O 5257.1 -0.480856 -1.77295 0
M  V30 53710 C 5257.17 -3.58491 -0.26919 0
M  V30 53711 C 5256.83 -4.47426 0.930529 0
M  V30 53712 C 5257.83 -4.86563 1.83172 0
M  V30 53713 C 5255.51 -4.89181 1.14049 0
M  V30 53714 C 5257.51 -5.66236 2.92669 0
M  V30 53715 C 5255.19 -5.68622 2.23858 0
M  V30 53716 C 5256.19 -6.07058 3.13 0
M  V30 53717 O 5255.88 -6.84903 4.20908 0
M  V30 53718 H 5255.61 -0.675084 0.0351705 0
M  V30 53719 H 5258.17 -1.91273 0.748597 0
M  V30 53720 H 5256.4 -3.71964 -1.05732 0
M  V30 53721 H 5258.08 -3.99126 -0.738455 0
M  V30 53722 H 5258.85 -4.54918 1.6815 0
M  V30 53723 H 5254.73 -4.5874 0.455878 0
M  V30 53724 H 5258.27 -5.96156 3.62275 0
M  V30 53725 H 5254.17 -5.9968 2.3886 0
M  V30 53726 H 5254.94 -7.03273 4.18748 0
M  V30 53727 N 5257.6 -0.276112 -1.55162 0
M  V30 53728 C 5258.88 0.392225 -1.91627 0
M  V30 53729 C 5259.26 1.73642 -1.20049 0
M  V30 53730 O 5258.61 2.26138 -0.327686 0
M  V30 53731 C 5258.82 0.53152 -3.44929 0
M  V30 53732 C 5260.16 0.813953 -4.16725 0
M  V30 53733 O 5261.19 0.616289 -3.50828 0
M  V30 53734 O 5260.05 1.19205 -5.33341 0
M  V30 53735 H 5257.14 0.214917 -0.798586 0
M  V30 53736 H 5259.69 -0.322338 -1.66611 0
M  V30 53737 H 5258.46 -0.414419 -3.89099 0
M  V30 53738 H 5258.08 1.29551 -3.75902 0
M  V30 53739 N 5259.08 1.576 -0.00340966 0
M  V30 53740 C 5260.03 2.09763 1.0051 0
M  V30 53741 C 5261.02 1.01838 1.35372 0
M  V30 53742 O 5262.23 1.20299 1.33896 0
M  V30 53743 H 5258.6 0.669833 0.341801 0
M  V30 53744 H 5260.57 2.9348 0.539615 0
M  V30 53745 C 5259.32 2.61898 2.28702 0
M  V30 53746 H 5258.65 3.44579 2.02745 0
M  V30 53747 H 5260.09 3.02072 2.97538 0
M  V30 53748 C 5258.54 1.53466 2.99916 0
M  V30 53749 O 5259.07 0.919539 3.91034 0
M  V30 53750 N 5257.28 1.26129 2.61801 0
M  V30 53751 H 5256.83 1.76335 1.87786 0
M  V30 53752 H 5256.79 0.537981 3.09763 0
M  V30 53753 N 5260.56 -0.269396 1.5528 0
M  V30 53754 C 5261.83 -1.02201 1.66776 0
M  V30 53755 C 5262.21 -2.04166 0.536607 0
M  V30 53756 O 5261.56 -2.23763 -0.462877 0
M  V30 53757 C 5261.77 -1.67558 3.06146 0
M  V30 53758 C 5263.12 -2.18586 3.64013 0
M  V30 53759 O 5264.14 -1.77539 3.08802 0
M  V30 53760 O 5263 -2.93887 4.60752 0
M  V30 53761 H 5260.1 -0.47429 0.677479 0
M  V30 53762 H 5262.64 -0.264967 1.67619 0
M  V30 53763 H 5261.42 -0.936895 3.79918 0
M  V30 53764 H 5261.04 -2.4994 3.09218 0
M  V30 53765 N 5262.04 -1.48275 -0.534071 0
M  V30 53766 C 5263.28 -1.57679 -1.30065 0
M  V30 53767 C 5263.64 -0.243323 -1.90452 0
M  V30 53768 O 5264.84 -0.212325 -2.6796 0
M  V30 53769 C 5263.11 -2.68052 -2.36395 0
M  V30 53770 S 5264.67 -2.97195 -3.22832 0
M  V30 53771 H 5261.49 -0.556535 -0.442481 0
M  V30 53772 H 5264.09 -1.85776 -0.608895 0
M  V30 53773 H 5262.79 -3.63505 -1.90505 0
M  V30 53774 H 5262.33 -2.41844 -3.10282 0
M  V30 53775 H 5264.34 -2.36179 -4.36387 0
M  V30 53776 N 5263.51 0.782628 -1.36794 0
M  V30 53777 C 5264.76 1.53774 -1.31141 0
M  V30 53778 C 5265.08 1.94707 0.106945 0
M  V30 53779 O 5264.35 1.65468 1.04867 0
M  V30 53780 H 5262.93 0.570311 -0.482446 0
M  V30 53781 H 5265.6 0.93212 -1.71165 0
M  V30 53782 H 5264.69 2.44218 -1.9433 0
M  V30 53783 N 5264.99 1.21185 1.00757 0
M  V30 53784 C 5266.27 0.936357 1.71732 0
M  V30 53785 C 5266.65 -0.552513 2.03741 0
M  V30 53786 O 5266 -1.51666 1.70909 0
M  V30 53787 C 5266.21 1.81878 2.97862 0
M  V30 53788 C 5267.56 2.06607 3.70943 0
M  V30 53789 O 5268.58 1.79205 3.07838 0
M  V30 53790 O 5267.44 2.52937 4.84443 0
M  V30 53791 H 5264.53 0.350893 0.748868 0
M  V30 53792 H 5267.08 1.32102 1.06523 0
M  V30 53793 H 5265.85 2.82653 2.70597 0
M  V30 53794 H 5265.47 1.43476 3.7081 0
M  V30 53795 N 5266.47 -1.20209 1.01919 0
M  V30 53796 C 5267.42 -2.25123 0.585015 0
M  V30 53797 C 5268.41 -1.65139 -0.377543 0
M  V30 53798 O 5269.62 -1.78295 -0.247182 0
M  V30 53799 H 5265.99 -0.732327 0.170884 0
M  V30 53800 H 5267.96 -2.5907 1.48073 0
M  V30 53801 C 5266.71 -3.47651 -0.0582667 0
M  V30 53802 H 5266.04 -3.94088 0.673402 0
M  V30 53803 H 5267.48 -4.22752 -0.325137 0
M  V30 53804 C 5265.94 -3.10729 -1.30189 0
M  V30 53805 O 5266.47 -3.22499 -2.39493 0
M  V30 53806 N 5264.67 -2.65254 -1.18696 0
M  V30 53807 H 5264.22 -2.55876 -0.297528 0
M  V30 53808 H 5264.18 -2.4092 -2.02003 0
M  V30 53809 N 5267.95 -0.795765 -1.36034 0
M  V30 53810 C 5269.17 -0.382112 -2.0385 0
M  V30 53811 C 5269.6 0.995497 -1.59598 0
M  V30 53812 O 5268.96 1.64255 -0.767458 0
M  V30 53813 C 5269 -0.461374 -3.57636 0
M  V30 53814 O 5268.11 0.529304 -4.08989 0
M  V30 53815 H 5267.45 -0.161249 -0.644123 0
M  V30 53816 H 5269.98 -1.07864 -1.73858 0
M  V30 53817 H 5269.99 -0.327263 -4.06685 0
M  V30 53818 H 5268.66 -1.46627 -3.89196 0
M  V30 53819 H 5267.24 0.356329 -3.71194 0
M  V30 53820 N 5269.43 1.47754 -0.548326 0
M  V30 53821 C 5270.7 1.9555 0.0442916 0
M  V30 53822 C 5271.08 1.49084 1.49456 0
M  V30 53823 O 5270.43 0.725614 2.16673 0
M  V30 53824 C 5270.64 3.48879 -0.0919652 0
M  V30 53825 C 5271.99 4.2456 0.0579387 0
M  V30 53826 O 5273.01 3.56195 -0.0190712 0
M  V30 53827 O 5271.87 5.46049 0.222069 0
M  V30 53828 H 5268.97 0.824109 0.0690945 0
M  V30 53829 H 5271.51 1.58194 -0.614222 0
M  V30 53830 H 5270.28 3.75477 -1.1015 0
M  V30 53831 H 5269.91 3.92977 0.604566 0
M  V30 53832 N 5270.9 0.284337 1.55014 0
M  V30 53833 C 5271.81 -0.60898 2.26558 0
M  V30 53834 C 5272.83 -1.16241 1.29476 0
M  V30 53835 O 5274.01 -1.19075 1.62429 0
M  V30 53836 C 5271.07 -1.77236 2.97974 0
M  V30 53837 C 5270.13 -1.25467 4.10556 0
M  V30 53838 C 5269.37 -2.3626 4.78557 0
M  V30 53839 O 5269.59 -3.55813 4.45818 0
M  V30 53840 O 5268.52 -2.03894 5.66313 0
M  V30 53841 H 5272.35 -0.0291231 3.03686 0
M  V30 53842 H 5269.93 0.051399 1.49312 0
M  V30 53843 H 5271.82 -2.4505 3.42824 0
M  V30 53844 H 5270.49 -2.33913 2.23755 0
M  V30 53845 H 5269.4 -0.542729 3.70142 0
M  V30 53846 H 5270.73 -0.733537 4.86703 0
M  V30 53847 N 5272.38 -1.57596 0.0117675 0
M  V30 53848 C 5273.29 -2.126 -0.99189 0
M  V30 53849 C 5274.31 -1.07404 -1.36895 0
M  V30 53850 O 5275.48 -1.3937 -1.45389 0
M  V30 53851 C 5272.55 -2.62804 -2.26131 0
M  V30 53852 C 5271.61 -3.82647 -1.94628 0
M  V30 53853 C 5270.84 -4.30446 -3.15518 0
M  V30 53854 O 5271.07 -3.7751 -4.276 0
M  V30 53855 O 5270 -5.2248 -2.98828 0
M  V30 53856 H 5273.83 -2.98599 -0.554266 0
M  V30 53857 H 5271.41 -1.47948 -0.207787 0
M  V30 53858 H 5273.29 -2.9524 -3.00684 0
M  V30 53859 H 5271.97 -1.79896 -2.69108 0
M  V30 53860 H 5270.88 -3.55164 -1.17514 0
M  V30 53861 H 5272.21 -4.66664 -1.56479 0
M  V30 53862 N 5273.86 0.261157 -1.55421 0
M  V30 53863 C 5275.09 1.01334 -1.80959 0
M  V30 53864 C 5275.51 1.78709 -0.586911 0
M  V30 53865 O 5274.87 1.75268 0.463775 0
M  V30 53866 C 5274.92 1.93825 -3.04079 0
M  V30 53867 O 5274.02 3.02781 -2.79995 0
M  V30 53868 H 5273.36 0.289102 -0.597759 0
M  V30 53869 H 5275.89 0.286471 -2.02585 0
M  V30 53870 H 5275.9 2.35558 -3.33131 0
M  V30 53871 H 5274.58 1.36922 -3.92715 0
M  V30 53872 H 5273.15 2.65278 -2.62072 0
M  V30 53873 N 5275.34 1.48556 0.526201 0
M  V30 53874 C 5276.58 1.58366 1.29227 0
M  V30 53875 C 5276.94 0.25342 1.9032 0
M  V30 53876 O 5278.14 0.226533 2.67844 0
M  V30 53877 C 5276.41 2.69302 2.3497 0
M  V30 53878 S 5277.97 2.98903 3.21252 0
M  V30 53879 H 5274.79 0.558874 0.439523 0
M  V30 53880 H 5277.39 1.86096 0.599034 0
M  V30 53881 H 5276.1 3.6451 1.88575 0
M  V30 53882 H 5275.63 2.43486 3.08995 0
M  V30 53883 H 5277.64 2.3849 4.35129 0
M  V30 53884 N 5276.82 -0.775363 1.37207 0
M  V30 53885 C 5278.04 -1.56441 1.35402 0
M  V30 53886 C 5278.46 -1.887 -0.0614774 0
M  V30 53887 O 5277.82 -1.51181 -1.02228 0
M  V30 53888 C 5277.87 -2.8769 2.18899 0
M  V30 53889 O 5277.59 -2.56816 3.54933 0
M  V30 53890 C 5279.09 -3.81936 2.25032 0
M  V30 53891 H 5276.31 -0.484776 0.463933 0
M  V30 53892 H 5278.85 -0.961283 1.80498 0
M  V30 53893 H 5277.01 -3.44435 1.77322 0
M  V30 53894 H 5277.42 -3.40837 3.98661 0
M  V30 53895 H 5278.9 -4.71045 2.87785 0
M  V30 53896 H 5279.37 -4.20806 1.25772 0
M  V30 53897 H 5279.98 -3.31121 2.66907 0
M  V30 53898 N 5278.3 -1.21718 -1.00112 0
M  V30 53899 C 5279.71 -1.03483 -1.55397 0
M  V30 53900 C 5280.06 0.404222 -1.91991 0
M  V30 53901 O 5279.18 1.28801 -1.73895 0
M  V30 53902 C 5279.78 -1.87223 -2.8237 0
M  V30 53903 C 5278.34 -1.73309 -3.34127 0
M  V30 53904 C 5277.48 -1.84196 -2.07285 0
M  V30 53905 H 5280.43 -1.35683 -0.823147 0
M  V30 53906 H 5280.46 -1.38477 -3.54407 0
M  V30 53907 H 5279.97 -2.91953 -2.55705 0
M  V30 53908 H 5278.07 -0.712791 -3.65719 0
M  V30 53909 H 5278.18 -2.55501 -4.05285 0
M  V30 53910 H 5276.55 -1.27546 -2.20463 0
M  V30 53911 H 5277.33 -2.90441 -1.83027 0
M  V30 53912 N 5279.77 1.19667 -1.02555 0
M  V30 53913 C 5281.19 1.41302 -0.742013 0
M  V30 53914 C 5281.39 1.89867 0.67474 0
M  V30 53915 O 5280.45 2.07329 1.44122 0
M  V30 53916 C 5281.76 2.427 -1.77531 0
M  V30 53917 C 5283.31 2.56452 -1.79447 0
M  V30 53918 C 5283.78 3.61101 -2.81727 0
M  V30 53919 N 5285.27 3.68593 -2.80523 0
M  V30 53920 C 5286.01 4.49249 -3.56318 0
M  V30 53921 N 5285.5 5.33637 -4.41818 0
M  V30 53922 N 5287.3 4.43867 -3.44875 0
M  V30 53923 H 5279.45 0.864632 -1.94005 0
M  V30 53924 H 5281.71 0.442177 -0.838561 0
M  V30 53925 H 5281.42 2.14033 -2.79075 0
M  V30 53926 H 5281.29 3.41825 -1.59484 0
M  V30 53927 H 5283.68 2.84445 -0.78583 0
M  V30 53928 H 5283.76 1.57492 -2.01569 0
M  V30 53929 H 5283.4 3.33851 -3.82761 0
M  V30 53930 H 5283.33 4.59704 -2.56865 0
M  V30 53931 H 5285.82 3.08322 -2.18509 0
M  V30 53932 H 5286.14 5.92291 -4.96399 0
M  V30 53933 H 5284.48 5.33109 -4.45892 0
M  V30 53934 H 5287.67 3.7698 -2.77495 0
M  V30 53935 H 5287.85 5.06487 -4.04197 0
M  V30 53936 N 5281.25 0.802969 1.3561 0
M  V30 53937 C 5282.66 0.443067 1.81366 0
M  V30 53938 C 5283.01 -1.03453 1.66709 0
M  V30 53939 O 5282.14 -1.80368 1.19568 0
M  V30 53940 C 5282.73 0.797439 3.29282 0
M  V30 53941 C 5281.29 0.490186 3.73195 0
M  V30 53942 C 5280.44 1.02496 2.57662 0
M  V30 53943 H 5283.39 0.994931 1.2364 0
M  V30 53944 H 5283.41 0.0935975 3.80385 0
M  V30 53945 H 5282.92 1.8729 3.39918 0
M  V30 53946 H 5281.02 -0.576689 3.6811 0
M  V30 53947 H 5281.14 1.02028 4.6811 0
M  V30 53948 H 5279.5 0.447468 2.50739 0
M  V30 53949 H 5280.28 2.10646 2.71078 0
M  V30 53950 N 5282.73 -1.47461 0.556154 0
M  V30 53951 C 5283.97 -2.04372 0.0340461 0
M  V30 53952 C 5284.33 -1.42129 -1.29086 0
M  V30 53953 O 5285.53 -1.90081 -1.9006 0
M  V30 53954 C 5283.81 -3.57352 -0.0584059 0
M  V30 53955 S 5285.36 -4.35626 -0.52679 0
M  V30 53956 H 5282.18 -0.710573 0.0246365 0
M  V30 53957 H 5284.78 -1.80845 0.742649 0
M  V30 53958 H 5283.49 -4.00178 0.910256 0
M  V30 53959 H 5283.02 -3.85374 -0.790595 0
M  V30 53960 H 5285.03 -4.62918 -1.78667 0
M  V30 53961 N 5284.21 -0.292554 -1.54861 0
M  V30 53962 C 5285.43 0.324868 -2.0484 0
M  V30 53963 C 5285.86 1.47377 -1.16883 0
M  V30 53964 O 5285.22 1.80491 -0.171092 0
M  V30 53965 C 5285.26 0.766816 -3.52353 0
M  V30 53966 O 5284.37 1.87243 -3.67442 0
M  V30 53967 H 5283.71 0.0644963 -0.66086 0
M  V30 53968 H 5286.24 -0.431938 -1.99989 0
M  V30 53969 H 5286.25 1.0579 -3.94046 0
M  V30 53970 H 5284.92 -0.0736674 -4.15835 0
M  V30 53971 H 5283.5 1.58254 -3.37654 0
M  V30 53972 N 5285.69 1.57587 -0.020125 0
M  V30 53973 C 5286.6 2.13123 0.980601 0
M  V30 53974 C 5287.61 1.08129 1.36324 0
M  V30 53975 O 5288.79 1.40139 1.44648 0
M  V30 53976 C 5285.85 2.63999 2.24734 0
M  V30 53977 C 5284.91 3.83673 1.92596 0
M  V30 53978 C 5284.15 4.32114 3.13231 0
M  V30 53979 O 5284.37 3.79773 4.25592 0
M  V30 53980 O 5283.3 5.24057 2.96053 0
M  V30 53981 H 5287.13 2.98889 0.538423 0
M  V30 53982 H 5284.71 1.48056 0.199938 0
M  V30 53983 H 5286.6 2.96831 2.99114 0
M  V30 53984 H 5285.27 1.8132 2.6815 0
M  V30 53985 H 5284.18 3.55782 1.15628 0
M  V30 53986 H 5285.51 4.67487 1.54002 0
M  V30 53987 N 5287.16 -0.252911 1.55557 0
M  V30 53988 C 5288.39 -1.00373 1.81494 0
M  V30 53989 C 5288.81 -1.78395 0.59638 0
M  V30 53990 O 5288.17 -1.75511 -0.454474 0
M  V30 53991 C 5288.22 -1.92209 3.05103 0
M  V30 53992 O 5287.32 -3.01292 2.81597 0
M  V30 53993 H 5286.66 -0.285928 0.599284 0
M  V30 53994 H 5289.19 -0.275724 2.02734 0
M  V30 53995 H 5289.2 -2.33788 3.34376 0
M  V30 53996 H 5287.88 -1.34838 3.93436 0
M  V30 53997 H 5286.46 -2.63885 2.63476 0
M  V30 53998 N 5288.64 -1.48833 -0.518315 0
M  V30 53999 C 5289.55 -1.66926 -1.64842 0
M  V30 54000 C 5290.57 -0.551769 -1.6502 0
M  V30 54001 O 5291.74 -0.824316 -1.83758 0
M  V30 54002 C 5288.81 -1.7157 -3.01272 0
M  V30 54003 C 5287.87 -2.95031 -3.11858 0
M  V30 54004 C 5287.1 -2.99444 -4.4178 0
M  V30 54005 O 5287.33 -2.11933 -5.29567 0
M  V30 54006 O 5286.26 -3.91735 -4.56976 0
M  V30 54007 H 5290.09 -2.62629 -1.52512 0
M  V30 54008 H 5287.67 -1.32371 -0.692702 0
M  V30 54009 H 5289.55 -1.77077 -3.82389 0
M  V30 54010 H 5288.23 -0.790426 -3.13901 0
M  V30 54011 H 5287.13 -2.9505 -2.29992 0
M  V30 54012 H 5288.47 -3.86981 -3.04149 0
M  V30 54013 N 5290.12 0.768075 -1.37617 0
M  V30 54014 C 5291.37 1.52676 -1.33028 0
M  V30 54015 C 5291.69 1.94318 0.0841235 0
M  V30 54016 O 5290.95 1.64626 1.05814 0
M  V30 54017 C 5291.25 2.80197 -2.21866 0
M  V30 54018 C 5290.91 2.57589 -3.70079 0
M  V30 54019 C 5289.58 2.51132 -4.10471 0
M  V30 54020 C 5291.93 2.37466 -4.63961 0
M  V30 54021 C 5289.26 2.22547 -5.42853 0
M  V30 54022 C 5291.61 2.10404 -5.96584 0
M  V30 54023 C 5290.27 2.02394 -6.36076 0
M  V30 54024 H 5289.54 0.55868 -0.486783 0
M  V30 54025 H 5292.19 0.884411 -1.69854 0
M  V30 54026 H 5290.49 3.49008 -1.78047 0
M  V30 54027 H 5292.19 3.38091 -2.15627 0
M  V30 54028 H 5288.78 2.63479 -3.38048 0
M  V30 54029 H 5292.97 2.41442 -4.33612 0
M  V30 54030 H 5288.22 2.14843 -5.72409 0
M  V30 54031 H 5292.4 1.93833 -6.68881 0
M  V30 54032 H 5290.02 1.80008 -7.3858 0
M  V30 54033 N 5291.6 1.22247 0.994655 0
M  V30 54034 C 5292.82 1.07306 1.77483 0
M  V30 54035 C 5293.25 -0.372237 1.8438 0
M  V30 54036 O 5292.61 -1.26886 1.29498 0
M  V30 54037 C 5292.65 1.68686 3.18712 0
M  V30 54038 O 5291.76 0.939343 4.0156 0
M  V30 54039 H 5291.1 0.376998 0.546597 0
M  V30 54040 H 5293.63 1.62007 1.24959 0
M  V30 54041 H 5293.64 1.73337 3.69348 0
M  V30 54042 H 5292.31 2.7386 3.13007 0
M  V30 54043 H 5290.89 0.96871 3.60098 0
M  V30 54044 N 5293.08 -1.19122 1.03188 0
M  V30 54045 C 5294.32 -1.90579 0.738852 0
M  V30 54046 C 5294.68 -1.78006 -0.719564 0
M  V30 54047 O 5295.88 -2.44088 -1.1258 0
M  V30 54048 C 5294.15 -3.37315 1.18126 0
M  V30 54049 S 5295.71 -4.26958 1.01253 0
M  V30 54050 H 5292.53 -0.658191 0.268898 0
M  V30 54051 H 5295.13 -1.43995 1.32234 0
M  V30 54052 H 5293.84 -3.43991 2.23826 0
M  V30 54053 H 5293.37 -3.88933 0.591188 0
M  V30 54054 H 5295.38 -4.96143 -0.0751814 0
M  V30 54055 N 5294.55 -0.810149 -1.35183 0
M  V30 54056 C 5295.52 -0.2286 -2.28057 0
M  V30 54057 C 5296.52 0.586116 -1.49738 0
M  V30 54058 O 5297.71 0.40408 -1.69449 0
M  V30 54059 C 5294.84 0.680924 -3.3403 0
M  V30 54060 H 5296.03 -1.04778 -2.81001 0
M  V30 54061 H 5293.59 -0.581061 -1.45098 0
M  V30 54062 H 5294.32 1.52365 -2.86278 0
M  V30 54063 H 5294.11 0.0983898 -3.91977 0
M  V30 54064 H 5295.6 1.08202 -4.03339 0
M  V30 54065 N 5296.03 1.47164 -0.563966 0
M  V30 54066 C 5296.98 2.31799 0.192928 0
M  V30 54067 C 5297.97 1.43341 0.902755 0
M  V30 54068 O 5299.18 1.60069 0.823272 0
M  V30 54069 H 5295.56 0.747615 0.0810876 0
M  V30 54070 H 5297.53 2.93474 -0.539979 0
M  V30 54071 C 5296.28 3.26136 1.20544 0
M  V30 54072 H 5295.6 3.94169 0.668664 0
M  V30 54073 H 5297.04 3.88173 1.7058 0
M  V30 54074 C 5295.5 2.5014 2.25681 0
M  V30 54075 O 5296.03 2.25076 3.32722 0
M  V30 54076 N 5294.23 2.11029 1.99787 0
M  V30 54077 H 5293.78 2.31614 1.12752 0
M  V30 54078 H 5293.74 1.60499 2.70347 0
M  V30 54079 N 5297.51 0.300763 1.54704 0
M  V30 54080 C 5298.76 -0.307974 1.9974 0
M  V30 54081 C 5299.08 -1.54429 1.19066 0
M  V30 54082 O 5298.35 -1.93793 0.286575 0
M  V30 54083 H 5296.93 -0.116785 0.737814 0
M  V30 54084 H 5299.59 0.412037 1.90495 0
M  V30 54085 H 5298.69 -0.580179 3.0666 0
M  V30 54086 N 5298.99 -1.57574 0.028482 0
M  V30 54087 C 5300.4 -1.56195 -0.327903 0
M  V30 54088 C 5300.6 -1.03403 -1.72945 0
M  V30 54089 O 5299.66 -0.680477 -2.43158 0
M  V30 54090 C 5300.97 -3.00178 -0.17709 0
M  V30 54091 C 5302.52 -3.12001 -0.249904 0
M  V30 54092 C 5303 -4.57821 -0.127888 0
M  V30 54093 N 5304.49 -4.62831 -0.184891 0
M  V30 54094 C 5305.22 -5.73286 -0.114252 0
M  V30 54095 N 5304.72 -6.928 0.0074358 0
M  V30 54096 N 5306.51 -5.61848 -0.168193 0
M  V30 54097 H 5298.66 -1.9022 0.944988 0
M  V30 54098 H 5300.93 -0.874974 0.364862 0
M  V30 54099 H 5300.63 -3.42751 0.788344 0
M  V30 54100 H 5300.51 -3.65105 -0.947552 0
M  V30 54101 H 5302.89 -2.69341 -1.2058 0
M  V30 54102 H 5302.97 -2.49797 0.550923 0
M  V30 54103 H 5302.62 -5.01162 0.824583 0
M  V30 54104 H 5302.55 -5.18004 -0.947571 0
M  V30 54105 H 5305.04 -3.76868 -0.279115 0
M  V30 54106 H 5305.35 -7.72781 0.054662 0
M  V30 54107 H 5303.7 -6.94987 0.0422092 0
M  V30 54108 H 5306.89 -4.67368 -0.261656 0
M  V30 54109 H 5307.06 -6.47907 -0.10968 0
M  V30 54110 N 5300.47 0.244658 -1.55689 0
M  V30 54111 C 5301.71 0.979713 -1.79391 0
M  V30 54112 C 5302.07 1.82438 -0.598362 0
M  V30 54113 O 5303.27 2.59138 -0.714191 0
M  V30 54114 C 5301.54 1.81562 -3.07847 0
M  V30 54115 S 5303.1 2.60947 -3.52778 0
M  V30 54116 H 5299.92 0.329504 -0.630038 0
M  V30 54117 H 5302.52 0.247367 -1.93929 0
M  V30 54118 H 5301.23 1.18483 -3.92925 0
M  V30 54119 H 5300.76 2.59068 -2.96053 0
M  V30 54120 H 5302.77 3.83976 -3.14288 0
M  V30 54121 N 5301.94 1.49106 0.510415 0
M  V30 54122 C 5303.19 1.57366 1.2617 0
M  V30 54123 C 5303.51 0.261286 1.93847 0
M  V30 54124 O 5304.71 0.222333 2.70588 0
M  V30 54125 C 5303.17 2.77614 2.29038 0
M  V30 54126 C 5302.78 4.15572 1.67342 0
M  V30 54127 C 5304.52 2.95199 3.05054 0
M  V30 54128 C 5302.43 5.27055 2.68266 0
M  V30 54129 H 5301.36 0.585904 0.474587 0
M  V30 54130 H 5304.01 1.75476 0.536692 0
M  V30 54131 H 5302.39 2.52978 3.0466 0
M  V30 54132 H 5303.56 4.50307 0.977765 0
M  V30 54133 H 5301.88 4.03268 1.03751 0
M  V30 54134 H 5304.48 3.75656 3.80508 0
M  V30 54135 H 5304.82 2.05398 3.62101 0
M  V30 54136 H 5305.35 3.19829 2.36547 0
M  V30 54137 H 5302.09 6.18885 2.16012 0
M  V30 54138 H 5301.61 4.96786 3.36101 0
M  V30 54139 H 5303.29 5.55994 3.30876 0
M  V30 54140 N 5303.42 -0.760766 1.38022 0
M  V30 54141 C 5304.39 -1.85599 1.34483 0
M  V30 54142 C 5305.39 -1.58896 0.246716 0
M  V30 54143 O 5306.58 -1.66774 0.503199 0
M  V30 54144 C 5303.71 -3.22941 1.09188 0
M  V30 54145 H 5304.9 -1.90147 2.31914 0
M  V30 54146 H 5302.45 -0.961703 1.23211 0
M  V30 54147 H 5303.19 -3.24065 0.123329 0
M  V30 54148 H 5302.97 -3.43716 1.88684 0
M  V30 54149 H 5304.46 -4.03018 1.09389 0
M  V30 54150 N 5304.9 -1.22773 -0.988158 0
M  V30 54151 C 5306.15 -1.05307 -1.72496 0
M  V30 54152 C 5306.47 0.412036 -1.90597 0
M  V30 54153 O 5305.74 1.29601 -1.46903 0
M  V30 54154 H 5304.32 -0.38668 -0.63913 0
M  V30 54155 H 5306.98 -1.54363 -1.18988 0
M  V30 54156 H 5306.08 -1.53474 -2.71757 0
M  V30 54157 N 5306.38 1.18573 -1.03818 0
M  V30 54158 C 5307.8 1.40507 -0.756958 0
M  V30 54159 C 5307.99 1.90572 0.654564 0
M  V30 54160 O 5307.05 2.08845 1.41915 0
M  V30 54161 C 5308.36 2.40803 -1.80095 0
M  V30 54162 C 5309.91 2.54534 -1.82157 0
M  V30 54163 C 5310.39 3.58092 -2.85541 0
M  V30 54164 N 5311.88 3.65597 -2.84417 0
M  V30 54165 C 5312.61 4.45445 -3.61063 0
M  V30 54166 N 5312.11 5.28921 -4.47453 0
M  V30 54167 N 5313.9 4.40184 -3.49563 0
M  V30 54168 H 5306.05 0.844006 -1.94911 0
M  V30 54169 H 5308.32 0.433258 -0.843203 0
M  V30 54170 H 5308.02 2.11061 -2.8133 0
M  V30 54171 H 5307.9 3.40115 -1.63101 0
M  V30 54172 H 5310.28 2.83595 -0.815954 0
M  V30 54173 H 5310.36 1.55345 -2.03228 0
M  V30 54174 H 5310.01 3.29772 -3.86281 0
M  V30 54175 H 5309.94 4.56954 -2.61726 0
M  V30 54176 H 5312.43 3.05987 -2.21767 0
M  V30 54177 H 5312.74 5.86992 -5.02653 0
M  V30 54178 H 5311.09 5.2835 -4.51521 0
M  V30 54179 H 5314.28 3.74016 -2.81478 0
M  V30 54180 H 5314.45 5.02171 -4.09546 0
M  V30 54181 N 5307.86 0.817307 1.34751 0
M  V30 54182 C 5309.1 0.412477 1.99174 0
M  V30 54183 C 5309.46 -1.01186 1.63643 0
M  V30 54184 O 5308.75 -1.69414 0.894956 0
M  V30 54185 C 5308.95 0.545424 3.53214 0
M  V30 54186 C 5308.77 1.98114 4.03709 0
M  V30 54187 C 5307.54 2.61182 4.32565 0
M  V30 54188 C 5309.74 2.94713 4.21484 0
M  V30 54189 N 5307.72 3.96052 4.69059 0
M  V30 54190 C 5309.1 4.14478 4.61094 0
M  V30 54191 C 5311.15 2.91404 4.03718 0
M  V30 54192 C 5309.85 5.3138 4.84797 0
M  V30 54193 C 5311.88 4.07517 4.28583 0
M  V30 54194 C 5311.24 5.26032 4.68476 0
M  V30 54195 H 5307.34 0.198926 0.756275 0
M  V30 54196 H 5309.92 1.06082 1.63263 0
M  V30 54197 H 5308.1 -0.0729854 3.88331 0
M  V30 54198 H 5309.83 0.114141 4.04539 0
M  V30 54199 H 5306.58 2.12461 4.2327 0
M  V30 54200 H 5307.01 4.6552 4.91549 0
M  V30 54201 H 5311.65 2.00921 3.72009 0
M  V30 54202 H 5309.37 6.22426 5.15375 0
M  V30 54203 H 5312.95 4.06349 4.16379 0
M  V30 54204 H 5311.83 6.14386 4.87339 0
M  V30 54205 N 5309.34 -1.46863 0.571763 0
M  V30 54206 C 5310.28 -2.3019 -0.167727 0
M  V30 54207 C 5311.25 -1.39953 -0.894561 0
M  V30 54208 O 5312.44 -1.68908 -0.887391 0
M  V30 54209 C 5309.58 -3.24209 -1.18248 0
M  V30 54210 C 5308.69 -4.29542 -0.460225 0
M  V30 54211 C 5307.83 -5.10698 -1.46155 0
M  V30 54212 C 5306.86 -6.0779 -0.725077 0
M  V30 54213 N 5306 -6.81853 -1.67393 0
M  V30 54214 H 5310.84 -2.92901 0.548934 0
M  V30 54215 H 5308.38 -1.44361 0.282525 0
M  V30 54216 H 5310.34 -3.77153 -1.78357 0
M  V30 54217 H 5308.97 -2.63331 -1.867 0
M  V30 54218 H 5308.02 -3.7954 0.255679 0
M  V30 54219 H 5309.33 -4.98665 0.11603 0
M  V30 54220 H 5308.48 -5.67865 -2.13575 0
M  V30 54221 H 5307.22 -4.4151 -2.07173 0
M  V30 54222 H 5306.23 -5.49788 -0.0370347 0
M  V30 54223 H 5307.45 -6.78993 -0.120439 0
M  V30 54224 H 5305.4 -6.15384 -2.27242 0
M  V30 54225 H 5305.32 -7.47199 -1.1502 0
M  V30 54226 H 5306.58 -7.43585 -2.33882 0
M  V30 54227 N 5310.81 -0.308963 -1.54542 0
M  V30 54228 C 5312.05 0.29874 -2.02205 0
M  V30 54229 C 5312.42 1.5048 -1.19247 0
M  V30 54230 O 5313.62 2.18439 -1.56645 0
M  V30 54231 C 5311.89 0.638726 -3.51646 0
M  V30 54232 S 5313.45 1.22816 -4.21262 0
M  V30 54233 H 5310.27 0.091239 -0.705122 0
M  V30 54234 H 5312.87 -0.438689 -1.90514 0
M  V30 54235 H 5311.57 -0.247404 -4.09654 0
M  V30 54236 H 5311.1 1.40674 -3.67389 0
M  V30 54237 H 5313.12 2.51564 -4.27703 0
M  V30 54238 N 5312.29 1.57557 -0.0368381 0
M  V30 54239 C 5313.57 1.83429 0.679196 0
M  V30 54240 C 5313.95 0.92234 1.89884 0
M  V30 54241 O 5313.3 -0.0201697 2.28491 0
M  V30 54242 C 5313.51 3.32827 1.0501 0
M  V30 54243 C 5314.85 3.99491 1.43847 0
M  V30 54244 O 5315.88 3.37368 1.14286 0
M  V30 54245 O 5314.74 5.08997 1.98959 0
M  V30 54246 H 5311.83 0.756593 0.33391 0
M  V30 54247 H 5314.38 1.69575 -0.065109 0
M  V30 54248 H 5313.15 3.90875 0.182371 0
M  V30 54249 H 5312.77 3.51817 1.85232 0
M  V30 54250 N 5313.77 -0.236398 1.55817 0
M  V30 54251 C 5315.02 -0.961047 1.77787 0
M  V30 54252 C 5315.34 -1.85452 0.602713 0
M  V30 54253 O 5314.61 -1.92158 -0.38107 0
M  V30 54254 H 5313.19 -0.357847 0.655709 0
M  V30 54255 H 5315.85 -0.25182 1.93266 0
M  V30 54256 H 5314.95 -1.5766 2.6935 0
M  V30 54257 N 5315.25 -1.49374 -0.5025 0
M  V30 54258 C 5316.52 -1.49286 -1.26384 0
M  V30 54259 C 5316.9 -0.219748 -2.09953 0
M  V30 54260 O 5316.25 0.797916 -2.14116 0
M  V30 54261 C 5316.46 -2.7709 -2.12184 0
M  V30 54262 C 5317.81 -3.2652 -2.71422 0
M  V30 54263 O 5318.83 -2.78197 -2.22452 0
M  V30 54264 O 5317.69 -4.10678 -3.60564 0
M  V30 54265 H 5314.79 -0.597435 -0.571839 0
M  V30 54266 H 5317.33 -1.61636 -0.516894 0
M  V30 54267 H 5316.11 -3.61242 -1.50399 0
M  V30 54268 H 5315.73 -2.67593 -2.94074 0
M  V30 54269 N 5316.73 0.753436 -1.38424 0
M  V30 54270 C 5317.68 1.85784 -1.32168 0
M  V30 54271 C 5318.66 1.59577 -0.205936 0
M  V30 54272 O 5319.85 1.71394 -0.44192 0
M  V30 54273 C 5316.98 3.23494 -1.1492 0
M  V30 54274 C 5316.07 3.55592 -2.31118 0
M  V30 54275 N 5316.46 3.58746 -3.5656 0
M  V30 54276 C 5314.76 3.85858 -2.23673 0
M  V30 54277 C 5315.46 3.88115 -4.33292 0
M  V30 54278 N 5314.43 4.04953 -3.62649 0
M  V30 54279 H 5318.23 1.86501 -2.27145 0
M  V30 54280 H 5315.75 0.950796 -1.31657 0
M  V30 54281 H 5317.75 4.02528 -1.08523 0
M  V30 54282 H 5316.41 3.24028 -0.208774 0
M  V30 54283 H 5317.42 3.40503 -3.90228 0
M  V30 54284 H 5314.09 3.94107 -1.3779 0
M  V30 54285 H 5315.48 3.97178 -5.4194 0
M  V30 54286 N 5318.2 1.23295 0.981634 0
M  V30 54287 C 5319.48 0.972573 1.69707 0
M  V30 54288 C 5319.86 -0.509172 2.04867 0
M  V30 54289 O 5319.21 -1.48006 1.74087 0
M  V30 54290 C 5319.42 1.88155 2.93937 0
M  V30 54291 C 5320.77 2.14429 3.66477 0
M  V30 54292 O 5321.79 1.85695 3.03967 0
M  V30 54293 O 5320.65 2.63155 4.78969 0
M  V30 54294 H 5317.74 0.366699 0.741256 0
M  V30 54295 H 5320.29 1.34332 1.03697 0
M  V30 54296 H 5319.06 2.88329 2.64541 0
M  V30 54297 H 5318.68 1.51309 3.67684 0
M  V30 54298 N 5319.68 -1.1802 1.04446 0
M  V30 54299 C 5320.92 -1.89785 0.759024 0
M  V30 54300 C 5321.29 -1.7876 -0.700644 0
M  V30 54301 O 5322.49 -2.45269 -1.09985 0
M  V30 54302 C 5320.76 -3.36043 1.21697 0
M  V30 54303 S 5322.32 -4.2586 1.05776 0
M  V30 54304 H 5319.13 -0.655301 0.275864 0
M  V30 54305 H 5321.74 -1.42584 1.33754 0
M  V30 54306 H 5320.44 -3.41598 2.27462 0
M  V30 54307 H 5319.97 -3.88284 0.632406 0
M  V30 54308 H 5321.99 -4.96195 -0.0225546 0
M  V30 54309 N 5321.16 -0.824441 -1.34316 0
M  V30 54310 C 5322.12 -0.252776 -2.27802 0
M  V30 54311 C 5323.12 0.570201 -1.50351 0
M  V30 54312 O 5324.31 0.386085 -1.69868 0
M  V30 54313 C 5321.45 0.645457 -3.34734 0
M  V30 54314 H 5322.64 -1.07752 -2.79874 0
M  V30 54315 H 5320.19 -0.596418 -1.44473 0
M  V30 54316 H 5320.93 1.4932 -2.87878 0
M  V30 54317 H 5320.71 0.05681 -3.92059 0
M  V30 54318 H 5322.2 1.03918 -4.04464 0
M  V30 54319 N 5322.64 1.46557 -0.579543 0
M  V30 54320 C 5323.92 1.956 0.0028026 0
M  V30 54321 C 5324.3 1.52221 1.4626 0
M  V30 54322 O 5323.64 0.771411 2.15085 0
M  V30 54323 C 5323.85 3.48605 -0.165947 0
M  V30 54324 C 5325.2 4.24588 -0.0321299 0
M  V30 54325 O 5326.23 3.56074 -0.0946212 0
M  V30 54326 O 5325.08 5.46397 0.106194 0
M  V30 54327 H 5322.18 0.825389 0.0515984 0
M  V30 54328 H 5324.72 1.56856 -0.647639 0
M  V30 54329 H 5323.5 3.73056 -1.1809 0
M  V30 54330 H 5323.12 3.94171 0.521074 0
M  V30 54331 N 5324.12 0.317154 1.54376 0
M  V30 54332 C 5325.36 -0.286772 2.00055 0
M  V30 54333 C 5325.69 -1.53157 1.20697 0
M  V30 54334 O 5324.96 -1.93478 0.307113 0
M  V30 54335 H 5323.54 -0.108953 0.739012 0
M  V30 54336 H 5326.2 0.432219 1.90047 0
M  V30 54337 H 5325.29 -0.547621 3.07258 0
M  V30 54338 N 5325.59 -1.57535 0.0451932 0
M  V30 54339 C 5326.82 -1.97175 -0.643191 0
M  V30 54340 C 5327.24 -0.922324 -1.63935 0
M  V30 54341 O 5326.6 0.115091 -1.80934 0
M  V30 54342 C 5326.65 -3.35894 -1.31178 0
M  V30 54343 O 5325.75 -3.33396 -2.42737 0
M  V30 54344 H 5325.1 -0.642475 -0.167697 0
M  V30 54345 H 5327.63 -2.04294 0.111819 0
M  V30 54346 H 5327.64 -3.72487 -1.66486 0
M  V30 54347 H 5326.31 -4.11812 -0.581678 0
M  V30 54348 H 5324.89 -3.0854 -2.09421 0
M  V30 54349 N 5327.07 0.228132 -1.5594 0
M  V30 54350 C 5328.35 0.977433 -1.69427 0
M  V30 54351 C 5328.73 2.02671 -0.59055 0
M  V30 54352 O 5328.08 2.24911 0.403388 0
M  V30 54353 C 5328.29 1.59383 -3.10481 0
M  V30 54354 C 5329.64 2.08858 -3.6968 0
M  V30 54355 O 5330.66 1.69289 -3.134 0
M  V30 54356 O 5329.52 2.81568 -4.68382 0
M  V30 54357 H 5326.61 0.456161 -0.689816 0
M  V30 54358 H 5329.16 0.220433 -1.68262 0
M  V30 54359 H 5327.93 0.835837 -3.82269 0
M  V30 54360 H 5327.55 2.41654 -3.15736 0
M  V30 54361 N 5328.55 1.49639 0.494571 0
M  V30 54362 C 5329.46 1.69527 1.62166 0
M  V30 54363 C 5330.48 0.577952 1.64121 0
M  V30 54364 O 5331.65 0.853446 1.82423 0
M  V30 54365 C 5328.72 1.76341 2.98504 0
M  V30 54366 C 5327.78 2.99955 3.07125 0
M  V30 54367 C 5327.01 3.06434 4.3696 0
M  V30 54368 O 5327.23 2.20331 5.26128 0
M  V30 54369 O 5326.17 3.98956 4.50686 0
M  V30 54370 H 5329.99 2.65022 1.48314 0
M  V30 54371 H 5327.58 1.33456 0.671556 0
M  V30 54372 H 5329.46 1.83138 3.79524 0
M  V30 54373 H 5328.14 0.840265 3.12604 0
M  V30 54374 H 5327.04 2.98671 2.25269 0
M  V30 54375 H 5328.38 3.91771 2.97954 0
M  V30 54376 N 5330.03 -0.746085 1.38821 0
M  V30 54377 C 5330.98 -1.85996 1.36653 0
M  V30 54378 C 5331.95 -1.64529 0.227907 0
M  V30 54379 O 5333.13 -1.8609 0.421306 0
M  V30 54380 C 5330.27 -3.23384 1.20486 0
M  V30 54381 C 5329.38 -3.56632 2.43799 0
M  V30 54382 C 5328.52 -4.83363 2.20304 0
M  V30 54383 C 5327.56 -5.09419 3.3935 0
M  V30 54384 N 5326.69 -6.27349 3.15242 0
M  V30 54385 H 5331.53 -1.87184 2.31876 0
M  V30 54386 H 5329.07 -0.914797 1.15195 0
M  V30 54387 H 5331.03 -4.02675 1.09126 0
M  V30 54388 H 5329.66 -3.21504 0.288987 0
M  V30 54389 H 5328.71 -2.72126 2.65804 0
M  V30 54390 H 5330.02 -3.71811 3.32503 0
M  V30 54391 H 5329.18 -5.70612 2.06123 0
M  V30 54392 H 5327.92 -4.70336 1.28978 0
M  V30 54393 H 5326.92 -4.20636 3.54042 0
M  V30 54394 H 5328.15 -5.24338 4.31562 0
M  V30 54395 H 5326.09 -6.15631 2.2657 0
M  V30 54396 H 5326.01 -6.43064 3.97498 0
M  V30 54397 H 5327.28 -7.17467 3.04732 0
M  V30 54398 N 5331.51 -1.23814 -0.975081 0
M  V30 54399 C 5332.78 -0.98156 -1.69189 0
M  V30 54400 C 5333.16 0.498301 -2.05135 0
M  V30 54401 O 5332.51 1.47081 -1.7487 0
M  V30 54402 C 5332.72 -1.89711 -2.92935 0
M  V30 54403 C 5334.07 -2.16369 -3.65335 0
M  V30 54404 O 5335.09 -1.87304 -3.02978 0
M  V30 54405 O 5333.95 -2.65692 -4.77567 0
M  V30 54406 H 5331.05 -0.370625 -0.739301 0
M  V30 54407 H 5333.59 -1.3488 -1.02983 0
M  V30 54408 H 5332.36 -2.89728 -2.63008 0
M  V30 54409 H 5331.99 -1.53257 -3.66876 0
M  V30 54410 N 5332.98 1.17465 -1.0507 0
M  V30 54411 C 5334.22 1.89379 -0.769078 0
M  V30 54412 C 5334.59 1.79129 0.691154 0
M  V30 54413 O 5335.79 2.45848 1.08683 0
M  V30 54414 C 5334.06 3.35393 -1.23477 0
M  V30 54415 S 5335.62 4.25293 -1.08033 0
M  V30 54416 H 5332.44 0.653829 -0.279335 0
M  V30 54417 H 5335.04 1.41873 -1.34508 0
M  V30 54418 H 5333.74 3.40387 -2.2927 0
M  V30 54419 H 5333.27 3.87943 -0.652989 0
M  V30 54420 H 5335.29 4.962 -0.00376017 0
M  V30 54421 N 5334.46 0.831553 1.33877 0
M  V30 54422 C 5335.69 0.436996 2.02232 0
M  V30 54423 C 5336.11 -0.959632 1.62593 0
M  V30 54424 O 5335.46 -1.62245 0.835633 0
M  V30 54425 C 5335.51 0.539554 3.57451 0
M  V30 54426 O 5335.23 1.88115 3.95657 0
M  V30 54427 C 5336.74 0.141008 4.43076 0
M  V30 54428 H 5333.96 0.174325 0.64796 0
M  V30 54429 H 5336.5 1.1221 1.70965 0
M  V30 54430 H 5334.65 -0.0975598 3.87277 0
M  V30 54431 H 5335.07 1.86148 4.90356 0
M  V30 54432 H 5336.54 0.263833 5.51369 0
M  V30 54433 H 5337.02 -0.916354 4.29534 0
M  V30 54434 H 5337.63 0.752265 4.18594 0
M  V30 54435 N 5335.94 -1.46248 0.587307 0
M  V30 54436 C 5337.35 -1.85996 0.161983 0
M  V30 54437 C 5337.7 -1.4903 -1.27611 0
M  V30 54438 O 5336.83 -0.907351 -1.96459 0
M  V30 54439 C 5337.42 -3.37581 0.287196 0
M  V30 54440 C 5335.98 -3.76308 -0.0832888 0
M  V30 54441 C 5335.13 -2.70256 0.621027 0
M  V30 54442 H 5338.08 -1.37337 0.795247 0
M  V30 54443 H 5338.1 -3.77381 -0.4862 0
M  V30 54444 H 5337.61 -3.64455 1.33396 0
M  V30 54445 H 5335.71 -3.55051 -1.13001 0
M  V30 54446 H 5335.83 -4.78183 0.296232 0
M  V30 54447 H 5334.19 -2.54627 0.0607923 0
M  V30 54448 H 5334.97 -2.99969 1.66953 0
M  V30 54449 N 5337.42 -0.325336 -1.54205 0
M  V30 54450 C 5338.84 0.0272475 -1.59577 0
M  V30 54451 C 5339.04 1.50324 -1.34182 0
M  V30 54452 O 5338.09 2.25947 -1.12713 0
M  V30 54453 C 5339.4 -0.392573 -2.98126 0
M  V30 54454 C 5340.95 -0.343378 -3.11111 0
M  V30 54455 C 5341.43 -0.738388 -4.52009 0
M  V30 54456 N 5342.92 -0.691862 -4.58004 0
M  V30 54457 C 5343.65 -0.969678 -5.65141 0
M  V30 54458 N 5343.15 -1.31472 -6.80211 0
M  V30 54459 N 5344.94 -0.895121 -5.54927 0
M  V30 54460 H 5337.09 -1.28698 -1.68969 0
M  V30 54461 H 5339.36 -0.523427 -0.790397 0
M  V30 54462 H 5339.06 -1.421 -3.21715 0
M  V30 54463 H 5338.94 0.241519 -3.76426 0
M  V30 54464 H 5341.32 0.675845 -2.87257 0
M  V30 54465 H 5341.4 -1.01243 -2.34912 0
M  V30 54466 H 5341.05 -1.75553 -4.76596 0
M  V30 54467 H 5340.98 -0.0470078 -5.26579 0
M  V30 54468 H 5343.47 -0.437107 -3.75364 0
M  V30 54469 H 5343.78 -1.51203 -7.57864 0
M  V30 54470 H 5342.13 -1.353 -6.81703 0
M  V30 54471 H 5345.32 -0.625039 -4.63908 0
M  V30 54472 H 5345.49 -1.11499 -6.38335 0
M  V30 54473 N 5338.9 1.57509 -0.0535471 0
M  V30 54474 C 5340.14 1.94656 0.623573 0
M  V30 54475 C 5340.5 0.931899 1.67868 0
M  V30 54476 O 5341.7 1.19039 2.41004 0
M  V30 54477 C 5339.97 3.36579 1.20204 0
M  V30 54478 S 5341.53 3.95684 1.89683 0
M  V30 54479 H 5338.35 0.6809 0.204686 0
M  V30 54480 H 5340.95 1.95112 -0.123051 0
M  V30 54481 H 5339.66 4.08224 0.422034 0
M  V30 54482 H 5339.19 3.39624 1.98543 0
M  V30 54483 H 5341.2 3.81103 3.17766 0
M  V30 54484 N 5340.38 -0.219858 1.56059 0
M  V30 54485 C 5341.65 -0.968434 1.69943 0
M  V30 54486 C 5342.03 -2.02355 0.60129 0
M  V30 54487 O 5341.38 -2.25122 -0.391455 0
M  V30 54488 C 5341.59 -1.57734 3.11321 0
M  V30 54489 C 5342.94 -2.06895 3.70783 0
M  V30 54490 O 5343.96 -1.67625 3.14294 0
M  V30 54491 O 5342.82 -2.7908 4.69869 0
M  V30 54492 H 5339.92 -0.452497 0.692225 0
M  V30 54493 H 5342.46 -0.211507 1.68377 0
M  V30 54494 H 5341.23 -0.815553 3.82707 0
M  V30 54495 H 5340.86 -2.39976 3.17013 0
M  V30 54496 N 5341.85 -1.49899 -0.486629 0
M  V30 54497 C 5342.79 -1.62246 -1.60473 0
M  V30 54498 C 5343.76 -0.471019 -1.55628 0
M  V30 54499 O 5344.95 -0.68848 -1.75477 0
M  V30 54500 C 5342.08 -1.5907 -2.99023 0
M  V30 54501 C 5341.12 -2.79586 -3.22077 0
M  V30 54502 S 5341.95 -4.41087 -3.03648 0
M  V30 54503 C 5343.11 -4.40579 -4.44568 0
M  V30 54504 H 5343.34 -2.56827 -1.49757 0
M  V30 54505 H 5340.88 -1.38968 -0.672844 0
M  V30 54506 H 5342.83 -1.57923 -3.78907 0
M  V30 54507 H 5341.5 -0.657513 -3.07141 0
M  V30 54508 H 5340.69 -2.73624 -4.23256 0
M  V30 54509 H 5340.29 -2.7822 -2.49939 0
M  V30 54510 H 5342.58 -4.13185 -5.36922 0
M  V30 54511 H 5343.53 -5.42084 -4.55577 0
M  V30 54512 H 5343.93 -3.70476 -4.2592 0
M  V30 54513 N 5343.33 0.738712 -1.39215 0
M  V30 54514 C 5344.61 1.48978 -1.26748 0
M  V30 54515 C 5344.99 2.10732 0.124585 0
M  V30 54516 O 5344.34 1.98291 1.13547 0
M  V30 54517 C 5344.55 2.54418 -2.38898 0
M  V30 54518 C 5345.89 3.20905 -2.78038 0
M  V30 54519 O 5346.92 2.6473 -2.38321 0
M  V30 54520 O 5345.78 4.22546 -3.4658 0
M  V30 54521 H 5342.87 0.661378 -0.496496 0
M  V30 54522 H 5345.42 0.772854 -1.5108 0
M  V30 54523 H 5344.19 2.07139 -3.31977 0
M  V30 54524 H 5343.81 3.33674 -2.16211 0
M  V30 54525 N 5344.81 1.24329 0.968501 0
M  V30 54526 C 5345.74 0.992821 2.06581 0
M  V30 54527 C 5346.75 -0.037433 1.62757 0
M  V30 54528 O 5347.94 0.199511 1.77382 0
M  V30 54529 C 5345.04 0.476283 3.35537 0
M  V30 54530 C 5344.22 1.56948 4.08272 0
M  V30 54531 C 5343.28 1.05573 5.155 0
M  V30 54532 O 5342.3 1.74726 5.41719 0
M  V30 54533 N 5343.5 -0.110261 5.80395 0
M  V30 54534 H 5346.27 1.9376 2.28642 0
M  V30 54535 H 5343.83 1.15348 1.13606 0
M  V30 54536 H 5345.82 0.117366 4.0453 0
M  V30 54537 H 5344.39 -0.374206 3.10352 0
M  V30 54538 H 5343.61 2.10063 3.33568 0
M  V30 54539 H 5344.9 2.30431 4.53629 0
M  V30 54540 H 5344.3 -0.688417 5.61496 0
M  V30 54541 H 5342.85 -0.410332 6.50507 0
M  V30 54542 N 5346.29 -1.16906 1.05692 0
M  V30 54543 C 5347.53 -1.87289 0.769996 0
M  V30 54544 C 5347.86 -1.81342 -0.703231 0
M  V30 54545 O 5347.12 -1.21965 -1.53046 0
M  V30 54546 C 5347.42 -3.36574 1.20219 0
M  V30 54547 C 5347.08 -3.62723 2.67849 0
M  V30 54548 C 5345.74 -3.69569 3.08176 0
M  V30 54549 C 5348.1 -3.7379 3.63223 0
M  V30 54550 C 5345.42 -3.84976 4.4273 0
M  V30 54551 C 5347.78 -3.90718 4.97516 0
M  V30 54552 C 5346.44 -3.95804 5.3749 0
M  V30 54553 H 5345.71 -0.68534 0.281761 0
M  V30 54554 H 5348.36 -1.38269 1.32491 0
M  V30 54555 H 5346.66 -3.87685 0.566358 0
M  V30 54556 H 5348.36 -3.89405 0.95732 0
M  V30 54557 H 5344.95 -3.58023 2.35621 0
M  V30 54558 H 5349.13 -3.67817 3.33203 0
M  V30 54559 H 5344.39 -3.87164 4.73195 0
M  V30 54560 H 5348.56 -3.98223 5.71307 0
M  V30 54561 H 5346.19 -4.07495 6.41757 0
M  V30 54562 N 5347.77 -0.838641 -1.33434 0
M  V30 54563 C 5348.7 -0.229086 -2.28052 0
M  V30 54564 C 5349.71 0.590049 -1.51731 0
M  V30 54565 O 5350.9 0.417157 -1.73557 0
M  V30 54566 C 5348 0.696134 -3.31673 0
M  V30 54567 C 5347.17 -0.0836144 -4.3732 0
M  V30 54568 C 5346.23 0.764914 -5.20611 0
M  V30 54569 O 5345.26 0.2042 -5.68834 0
M  V30 54570 N 5346.46 2.0823 -5.41868 0
M  V30 54571 H 5349.22 -1.04206 -2.81 0
M  V30 54572 H 5346.79 -0.697083 -1.46124 0
M  V30 54573 H 5348.78 1.26876 -3.84298 0
M  V30 54574 H 5347.35 1.40982 -2.79003 0
M  V30 54575 H 5346.57 -0.837616 -3.85198 0
M  V30 54576 H 5347.86 -0.61979 -5.05011 0
M  V30 54577 H 5347.25 2.56139 -5.0439 0
M  V30 54578 H 5345.81 2.60341 -5.9755 0
M  V30 54579 N 5349.24 1.45934 -0.595055 0
M  V30 54580 C 5350.48 2.0421 -0.0882197 0
M  V30 54581 C 5350.85 1.45502 1.25272 0
M  V30 54582 O 5352.05 1.95053 1.84953 0
M  V30 54583 C 5350.32 3.57382 -0.0363602 0
M  V30 54584 S 5351.88 4.3687 0.411106 0
M  V30 54585 H 5348.7 0.70967 -0.0434674 0
M  V30 54586 H 5351.3 1.78813 -0.790336 0
M  V30 54587 H 5350 3.97624 -1.01604 0
M  V30 54588 H 5349.53 3.87335 0.688142 0
M  V30 54589 H 5351.55 4.67492 1.6633 0
M  V30 54590 N 5350.72 0.33351 1.54031 0
M  V30 54591 C 5351.67 -0.527902 2.24682 0
M  V30 54592 C 5352.64 -1.10367 1.24131 0
M  V30 54593 O 5353.82 -1.14216 1.52838 0
M  V30 54594 C 5350.96 -1.67798 3.01559 0
M  V30 54595 C 5350.08 -1.13049 4.16946 0
M  V30 54596 C 5349.21 -2.24705 4.81332 0
M  V30 54597 C 5348.25 -1.67256 5.88805 0
M  V30 54598 N 5347.39 -2.72615 6.47013 0
M  V30 54599 H 5352.23 0.0811355 2.9789 0
M  V30 54600 H 5349.77 0.0518127 1.47009 0
M  V30 54601 H 5351.72 -2.3549 3.44384 0
M  V30 54602 H 5350.35 -2.25815 2.30667 0
M  V30 54603 H 5349.41 -0.344815 3.78834 0
M  V30 54604 H 5350.72 -0.670199 4.94277 0
M  V30 54605 H 5349.87 -3.00282 5.27177 0
M  V30 54606 H 5348.61 -2.74075 4.03404 0
M  V30 54607 H 5347.62 -0.901812 5.42354 0
M  V30 54608 H 5348.84 -1.18752 6.68637 0
M  V30 54609 H 5346.79 -3.21257 5.71953 0
M  V30 54610 H 5346.7 -2.31179 7.19786 0
M  V30 54611 H 5347.97 -3.47991 6.97512 0
M  V30 54612 N 5352.2 -1.57478 0.0618994 0
M  V30 54613 C 5353.43 -1.97846 -0.622242 0
M  V30 54614 C 5353.85 -0.939659 -1.62948 0
M  V30 54615 O 5353.21 0.0958943 -1.81046 0
M  V30 54616 C 5353.26 -3.37266 -1.27608 0
M  V30 54617 O 5352.36 -3.35951 -2.39187 0
M  V30 54618 H 5351.7 -0.644217 -0.160873 0
M  V30 54619 H 5354.23 -2.04164 0.133481 0
M  V30 54620 H 5354.24 -3.74232 -1.62525 0
M  V30 54621 H 5352.92 -4.12406 -0.537967 0
M  V30 54622 H 5351.49 -3.10744 -2.06137 0
M  V30 54623 N 5353.68 0.211579 -1.56173 0
M  V30 54624 C 5354.93 0.932641 -1.79294 0
M  V30 54625 C 5355.25 1.84469 -0.63214 0
M  V30 54626 O 5354.52 1.9274 0.350451 0
M  V30 54627 H 5353.1 0.34737 -0.661319 0
M  V30 54628 H 5355.76 0.221041 -1.93642 0
M  V30 54629 H 5354.86 1.53355 -2.71825 0
M  V30 54630 N 5355.16 1.50155 0.478672 0
M  V30 54631 C 5356.11 1.64854 1.57503 0
M  V30 54632 C 5357.09 0.50338 1.52823 0
M  V30 54633 O 5358.28 0.757427 1.59975 0
M  V30 54634 C 5355.41 1.73904 2.95994 0
M  V30 54635 C 5354.5 2.9407 3.05587 0
M  V30 54636 N 5354.89 4.17854 2.85012 0
M  V30 54637 C 5353.19 2.92471 3.36714 0
M  V30 54638 C 5353.89 4.98749 2.99373 0
M  V30 54639 N 5352.86 4.32553 3.29239 0
M  V30 54640 H 5356.67 2.58259 1.40284 0
M  V30 54641 H 5354.18 1.47235 0.685255 0
M  V30 54642 H 5356.18 1.82536 3.74815 0
M  V30 54643 H 5354.84 0.816512 3.14266 0
M  V30 54644 H 5355.85 4.47475 2.60743 0
M  V30 54645 H 5352.52 2.09688 3.61022 0
M  V30 54646 H 5353.91 6.07156 2.87769 0
M  V30 54647 N 5356.63 -0.731319 1.39605 0
M  V30 54648 C 5357.87 -1.50356 1.38465 0
M  V30 54649 C 5358.24 -1.91991 -0.0187165 0
M  V30 54650 O 5359.44 -2.68352 -0.155141 0
M  V30 54651 C 5357.71 -2.70747 2.33304 0
M  V30 54652 S 5359.27 -3.60351 2.50385 0
M  V30 54653 H 5356.09 -0.514254 0.490982 0
M  V30 54654 H 5358.69 -0.856592 1.75735 0
M  V30 54655 H 5357.39 -2.38305 3.34124 0
M  V30 54656 H 5356.92 -3.40369 1.97263 0
M  V30 54657 H 5358.94 -4.64523 1.74451 0
M  V30 54658 N 5358.11 -1.24841 -0.961894 0
M  V30 54659 C 5359.36 -1.08556 -1.69995 0
M  V30 54660 C 5359.67 0.374577 -1.9198 0
M  V30 54661 O 5360.88 0.657729 -2.63413 0
M  V30 54662 C 5359.34 -1.89435 -3.0601 0
M  V30 54663 C 5358.94 -3.39895 -2.91848 0
M  V30 54664 C 5360.69 -1.81697 -3.83649 0
M  V30 54665 C 5358.6 -4.13097 -4.23208 0
M  V30 54666 H 5357.53 -0.402625 -0.637502 0
M  V30 54667 H 5360.18 -1.48974 -1.0714 0
M  V30 54668 H 5358.56 -1.41836 -3.69728 0
M  V30 54669 H 5359.73 -3.95116 -2.37107 0
M  V30 54670 H 5358.05 -3.48648 -2.2767 0
M  V30 54671 H 5360.64 -2.33687 -4.80931 0
M  V30 54672 H 5360.99 -0.78339 -4.08863 0
M  V30 54673 H 5361.52 -2.27008 -3.26668 0
M  V30 54674 H 5358.26 -5.16838 -4.03185 0
M  V30 54675 H 5357.78 -3.6266 -4.77742 0
M  V30 54676 H 5359.46 -4.20414 -4.91794 0
M  V30 54677 N 5359.59 1.16344 -1.0631 0
M  V30 54678 C 5361 1.68488 -0.804279 0
M  V30 54679 C 5361.35 1.84329 0.672094 0
M  V30 54680 O 5360.48 1.53897 1.52134 0
M  V30 54681 C 5361.07 3.06043 -1.45339 0
M  V30 54682 C 5359.63 3.55307 -1.24234 0
M  V30 54683 C 5358.78 2.31286 -1.52978 0
M  V30 54684 H 5361.73 1.00704 -1.22656 0
M  V30 54685 H 5361.75 3.70448 -0.868804 0
M  V30 54686 H 5361.26 2.94481 -2.5279 0
M  V30 54687 H 5359.36 3.72128 -0.187578 0
M  V30 54688 H 5359.48 4.3739 -1.95517 0
M  V30 54689 H 5357.84 2.36307 -0.950324 0
M  V30 54690 H 5358.62 2.22321 -2.61588 0
M  V30 54691 N 5361.07 0.845705 1.32987 0
M  V30 54692 C 5362 0.299039 2.31577 0
M  V30 54693 C 5362.98 -0.596956 1.59281 0
M  V30 54694 O 5364.16 -0.519077 1.87134 0
M  V30 54695 C 5361.29 -0.520988 3.4337 0
M  V30 54696 C 5360.25 0.279801 4.27084 0
M  V30 54697 C 5359.57 -0.664404 5.30556 0
M  V30 54698 C 5360.87 1.50064 5.00278 0
M  V30 54699 H 5362.57 1.12282 2.77549 0
M  V30 54700 H 5360.11 0.541367 1.33436 0
M  V30 54701 H 5362.07 -0.913776 4.11373 0
M  V30 54702 H 5360.79 -1.37804 2.96104 0
M  V30 54703 H 5359.45 0.654233 3.60715 0
M  V30 54704 H 5359.1 -1.51805 4.79546 0
M  V30 54705 H 5358.8 -0.132665 5.8745 0
M  V30 54706 H 5360.32 -1.05456 6.01424 0
M  V30 54707 H 5361.74 1.18063 5.61012 0
M  V30 54708 H 5360.13 1.96966 5.66855 0
M  V30 54709 H 5361.2 2.26674 4.28657 0
M  V30 54710 N 5362.55 -1.45617 0.602786 0
M  V30 54711 C 5363.96 -1.57367 0.266045 0
M  V30 54712 C 5364.16 -1.59489 -1.23148 0
M  V30 54713 O 5363.22 -1.52261 -2.01427 0
M  V30 54714 C 5364.53 -2.8586 0.932982 0
M  V30 54715 C 5366.08 -2.99527 0.908449 0
M  V30 54716 C 5366.55 -4.30783 1.55531 0
M  V30 54717 N 5368.05 -4.3753 1.52057 0
M  V30 54718 C 5368.78 -5.37751 1.99027 0
M  V30 54719 N 5368.28 -6.44535 2.54061 0
M  V30 54720 N 5370.07 -5.29078 1.89824 0
M  V30 54721 H 5362.22 -1.42483 1.57519 0
M  V30 54722 H 5364.48 -0.680924 0.65958 0
M  V30 54723 H 5364.19 -2.90176 1.98723 0
M  V30 54724 H 5364.06 -3.74466 0.453341 0
M  V30 54725 H 5366.45 -2.94781 -0.13724 0
M  V30 54726 H 5366.53 -2.12344 1.42631 0
M  V30 54727 H 5366.18 -4.36288 2.6003 0
M  V30 54728 H 5366.11 -5.16775 1.01251 0
M  V30 54729 H 5368.6 -3.60968 1.11849 0
M  V30 54730 H 5368.91 -7.17248 2.87707 0
M  V30 54731 H 5367.25 -6.45299 2.58098 0
M  V30 54732 H 5370.45 -4.44561 1.46572 0
M  V30 54733 H 5370.62 -6.07035 2.26743 0
M  V30 54734 N 5364.02 -0.341674 -1.53852 0
M  V30 54735 C 5365.27 0.248475 -2.01877 0
M  V30 54736 C 5365.63 1.48347 -1.22519 0
M  V30 54737 O 5364.92 1.89173 -0.303986 0
M  V30 54738 C 5365.11 0.616865 -3.52036 0
M  V30 54739 C 5364.94 -0.580884 -4.45933 0
M  V30 54740 C 5363.71 -1.08561 -4.935 0
M  V30 54741 C 5365.91 -1.43875 -4.93766 0
M  V30 54742 N 5363.89 -2.24588 -5.71344 0
M  V30 54743 C 5365.26 -2.44595 -5.69713 0
M  V30 54744 C 5367.32 -1.46442 -4.75877 0
M  V30 54745 C 5366.02 -3.47709 -6.29675 0
M  V30 54746 C 5368.05 -2.48435 -5.36688 0
M  V30 54747 C 5367.41 -3.47881 -6.12502 0
M  V30 54748 H 5363.51 0.0542793 -0.780114 0
M  V30 54749 H 5366.09 -0.480815 -1.8867 0
M  V30 54750 H 5364.26 1.31526 -3.65452 0
M  V30 54751 H 5365.99 1.19004 -3.86808 0
M  V30 54752 H 5362.75 -0.653997 -4.69063 0
M  V30 54753 H 5363.17 -2.83165 -6.14936 0
M  V30 54754 H 5367.82 -0.70919 -4.1681 0
M  V30 54755 H 5365.53 -4.24127 -6.87853 0
M  V30 54756 H 5369.12 -2.51245 -5.24754 0
M  V30 54757 H 5368 -4.2551 -6.58719 0
M  V30 54758 N 5365.5 1.57443 -0.07025 0
M  V30 54759 C 5366.92 1.5701 0.286376 0
M  V30 54760 C 5367.12 1.07952 1.70143 0
M  V30 54761 O 5366.18 0.744707 2.41268 0
M  V30 54762 C 5367.49 3.00542 0.0974409 0
M  V30 54763 C 5369.04 3.12554 0.167095 0
M  V30 54764 C 5369.51 4.58 0.00645946 0
M  V30 54765 N 5371 4.63158 0.0621149 0
M  V30 54766 C 5371.74 5.73388 -0.0377847 0
M  V30 54767 N 5371.23 6.92536 -0.191117 0
M  V30 54768 N 5373.03 5.62097 0.0191696 0
M  V30 54769 H 5365.18 1.87648 -0.995089 0
M  V30 54770 H 5367.44 0.864993 -0.387932 0
M  V30 54771 H 5367.15 3.4054 -0.878941 0
M  V30 54772 H 5367.02 3.67488 0.850417 0
M  V30 54773 H 5369.41 2.72443 1.13396 0
M  V30 54774 H 5369.49 2.48248 -0.616958 0
M  V30 54775 H 5369.13 4.98799 -0.957168 0
M  V30 54776 H 5369.06 5.20335 0.809898 0
M  V30 54777 H 5371.55 3.77475 0.179097 0
M  V30 54778 H 5371.87 7.72364 -0.259532 0
M  V30 54779 H 5370.21 6.94631 -0.226458 0
M  V30 54780 H 5373.4 4.67898 0.13765 0
M  V30 54781 H 5373.58 6.4797 -0.0621399 0
M  V30 54782 N 5366.98 -0.203294 1.56283 0
M  V30 54783 C 5368.22 -0.931807 1.81925 0
M  V30 54784 C 5368.59 -1.80787 0.646522 0
M  V30 54785 O 5369.79 -2.57154 0.782646 0
M  V30 54786 C 5368.06 -1.73336 3.12553 0
M  V30 54787 S 5369.62 -2.51502 3.59573 0
M  V30 54788 H 5366.43 -0.312684 0.638553 0
M  V30 54789 H 5369.04 -0.195863 1.94516 0
M  V30 54790 H 5367.74 -1.08024 3.95928 0
M  V30 54791 H 5367.27 -2.51127 3.02818 0
M  V30 54792 H 5369.29 -3.75508 3.24358 0
M  V30 54793 N 5368.46 -1.50407 -0.470702 0
M  V30 54794 C 5369.74 -1.51933 -1.23189 0
M  V30 54795 C 5370.12 -0.264233 -2.0944 0
M  V30 54796 O 5369.46 0.752319 -2.1576 0
M  V30 54797 C 5369.67 -2.81528 -2.06259 0
M  V30 54798 C 5371.02 -3.32204 -2.64435 0
M  V30 54799 O 5372.05 -2.82853 -2.16501 0
M  V30 54800 O 5370.91 -4.18233 -3.51771 0
M  V30 54801 H 5368 -0.609431 -0.559038 0
M  V30 54802 H 5370.55 -1.62696 -0.482492 0
M  V30 54803 H 5369.32 -3.64351 -1.42702 0
M  V30 54804 H 5368.94 -2.73771 -2.88332 0
M  V30 54805 N 5369.94 0.723905 -1.39991 0
M  V30 54806 C 5370.9 1.81968 -1.39356 0
M  V30 54807 C 5371.9 1.58186 -0.288757 0
M  V30 54808 O 5373.09 1.65381 -0.547239 0
M  V30 54809 C 5370.22 3.19932 -1.17712 0
M  V30 54810 H 5371.42 1.83931 -2.36874 0
M  V30 54811 H 5368.97 0.928698 -1.25718 0
M  V30 54812 H 5369.7 3.23625 -0.209206 0
M  V30 54813 H 5369.49 3.38593 -1.97731 0
M  V30 54814 H 5370.98 3.99976 -1.20036 0
M  V30 54815 N 5371.42 1.2535 0.95526 0
M  V30 54816 C 5372.69 1.00835 1.67606 0
M  V30 54817 C 5373.07 -0.465602 2.05901 0
M  V30 54818 O 5372.42 -1.4428 1.77187 0
M  V30 54819 C 5372.63 1.94347 2.8988 0
M  V30 54820 C 5373.98 2.22154 3.61846 0
M  V30 54821 O 5375 1.921 2.9996 0
M  V30 54822 O 5373.86 2.73256 4.73279 0
M  V30 54823 H 5370.96 0.38234 0.733311 0
M  V30 54824 H 5373.5 1.36501 1.00824 0
M  V30 54825 H 5372.27 2.93876 2.58366 0
M  V30 54826 H 5371.9 1.59074 3.64391 0
M  V30 54827 N 5372.89 -1.15778 1.06926 0
M  V30 54828 C 5373.86 -2.18576 0.689731 0
M  V30 54829 C 5374.86 -1.58554 -0.267817 0
M  V30 54830 O 5376.05 -1.7413 -0.0493484 0
M  V30 54831 C 5373.18 -3.40896 0.0159118 0
M  V30 54832 H 5374.37 -2.53666 1.5998 0
M  V30 54833 H 5371.92 -1.30165 0.865259 0
M  V30 54834 H 5372.66 -3.1137 -0.906602 0
M  V30 54835 H 5372.44 -3.85718 0.70455 0
M  V30 54836 H 5373.93 -4.16938 -0.23512 0
M  V30 54837 N 5374.37 -0.852746 -1.32537 0
M  V30 54838 C 5375.65 -0.376558 -1.91941 0
M  V30 54839 C 5376.03 1.13965 -1.77694 0
M  V30 54840 O 5375.38 1.96043 -1.17386 0
M  V30 54841 C 5375.59 -0.838813 -3.3877 0
M  V30 54842 C 5376.93 -0.854882 -4.15905 0
M  V30 54843 O 5377.96 -0.783325 -3.4748 0
M  V30 54844 O 5376.82 -0.955397 -5.38084 0
M  V30 54845 H 5373.91 -0.109441 -0.819727 0
M  V30 54846 H 5376.46 -0.93952 -1.41319 0
M  V30 54847 H 5375.23 -1.88191 -3.43074 0
M  V30 54848 H 5374.85 -0.253195 -3.96793 0
M  V30 54849 N 5375.85 1.45295 -0.6105 0
M  V30 54850 C 5377.09 2.04104 -0.109874 0
M  V30 54851 C 5377.45 1.46823 1.23722 0
M  V30 54852 O 5378.65 1.97004 1.82874 0
M  V30 54853 C 5376.93 3.57323 -0.0742633 0
M  V30 54854 S 5378.48 4.37281 0.364747 0
M  V30 54855 H 5375.3 0.709169 -0.0509919 0
M  V30 54856 H 5377.9 1.77964 -0.809257 0
M  V30 54857 H 5376.61 3.96524 -1.05815 0
M  V30 54858 H 5376.14 3.88043 0.647021 0
M  V30 54859 H 5378.15 4.6923 1.61363 0
M  V30 54860 N 5377.33 0.349828 1.53668 0
M  V30 54861 C 5378.26 -0.547232 2.21541 0
M  V30 54862 C 5379.24 -1.09539 1.20167 0
M  V30 54863 O 5380.42 -1.15448 1.4901 0
M  V30 54864 C 5377.55 -1.75346 2.89778 0
M  V30 54865 C 5376.6 -1.33419 4.05095 0
M  V30 54866 S 5377.43 -0.348703 5.34363 0
M  V30 54867 C 5378.58 -1.56162 6.06106 0
M  V30 54868 H 5378.82 0.0292437 2.97286 0
M  V30 54869 H 5376.35 0.133907 1.53818 0
M  V30 54870 H 5378.31 -2.44544 3.2971 0
M  V30 54871 H 5376.97 -2.30116 2.13788 0
M  V30 54872 H 5376.16 -2.23372 4.51797 0
M  V30 54873 H 5375.76 -0.721617 3.66972 0
M  V30 54874 H 5378.06 -2.49513 6.29881 0
M  V30 54875 H 5379 -1.13626 6.98924 0
M  V30 54876 H 5379.41 -1.76052 5.36345 0
M  V30 54877 N 5378.81 -1.57404 0.0785986 0
M  V30 54878 C 5380.08 -1.85166 -0.630324 0
M  V30 54879 C 5380.46 -0.972361 -1.87372 0
M  V30 54880 O 5379.81 -0.0404178 -2.28464 0
M  V30 54881 C 5380.02 -3.35494 -0.961486 0
M  V30 54882 C 5381.37 -4.03164 -1.33205 0
M  V30 54883 O 5382.39 -3.4028 -1.05301 0
M  V30 54884 O 5381.25 -5.14093 -1.85394 0
M  V30 54885 H 5378.35 -0.76518 -0.313733 0
M  V30 54886 H 5380.89 -1.69343 0.110046 0
M  V30 54887 H 5379.66 -3.91221 -0.0786738 0
M  V30 54888 H 5379.29 -3.56604 -1.75839 0
M  V30 54889 N 5380.28 0.195003 -1.56389 0
M  V30 54890 C 5381.53 0.913572 -1.80273 0
M  V30 54891 C 5381.85 1.83789 -0.65167 0
M  V30 54892 O 5381.12 1.93101 0.329989 0
M  V30 54893 H 5379.7 0.340336 -0.664966 0
M  V30 54894 H 5382.37 0.200491 -1.93866 0
M  V30 54895 H 5381.46 1.50464 -2.73436 0
M  V30 54896 N 5381.76 1.50654 0.462719 0
M  V30 54897 C 5382.99 1.66107 1.2419 0
M  V30 54898 C 5383.41 0.347486 1.84863 0
M  V30 54899 O 5382.77 -0.689614 1.67672 0
M  V30 54900 C 5382.82 2.76036 2.32027 0
M  V30 54901 O 5381.92 2.37871 3.36885 0
M  V30 54902 H 5381.26 0.554684 0.364995 0
M  V30 54903 H 5383.79 1.97078 0.549664 0
M  V30 54904 H 5383.8 2.99364 2.7721 0
M  V30 54905 H 5382.48 3.71368 1.8724 0
M  V30 54906 H 5381.06 2.25021 2.97355 0
M  V30 54907 N 5383.24 -0.716471 1.40373 0
M  V30 54908 C 5384.52 -1.46942 1.29102 0
M  V30 54909 C 5384.9 -2.10904 -0.0910441 0
M  V30 54910 O 5384.25 -2.00072 -1.10378 0
M  V30 54911 C 5384.46 -2.50585 2.42916 0
M  V30 54912 C 5385.8 -3.16441 2.83108 0
M  V30 54913 O 5386.83 -2.60905 2.42502 0
M  V30 54914 O 5385.69 -4.16978 3.53258 0
M  V30 54915 H 5382.78 -0.653395 0.506955 0
M  V30 54916 H 5385.33 -0.748721 1.5229 0
M  V30 54917 H 5384.1 -2.01832 3.35231 0
M  V30 54918 H 5383.72 -3.30192 2.21493 0
M  V30 54919 N 5384.72 -1.25855 -0.948599 0
M  V30 54920 C 5385.63 -1.08524 -2.0799 0
M  V30 54921 C 5386.64 -0.0207308 -1.73988 0
M  V30 54922 O 5387.82 -0.222924 -2.00162 0
M  V30 54923 C 5384.89 -0.712265 -3.39305 0
M  V30 54924 C 5383.95 -1.85537 -3.87136 0
M  V30 54925 C 5383.18 -1.5001 -5.12184 0
M  V30 54926 O 5383.4 -0.398468 -5.69006 0
M  V30 54927 O 5382.34 -2.33234 -5.54874 0
M  V30 54928 H 5386.16 -2.03413 -2.25515 0
M  V30 54929 H 5383.75 -1.04848 -1.06429 0
M  V30 54930 H 5385.63 -0.516659 -4.18221 0
M  V30 54931 H 5384.3 0.207303 -3.23036 0
M  V30 54932 H 5383.21 -2.10588 -3.09198 0
M  V30 54933 H 5384.54 -2.7544 -4.07914 0
M  V30 54934 N 5386.2 1.1521 -1.07538 0
M  V30 54935 C 5387.11 2.23633 -0.708897 0
M  V30 54936 C 5388.12 1.71721 0.280699 0
M  V30 54937 O 5389.3 2.01 0.126857 0
M  V30 54938 C 5386.36 3.46512 -0.114289 0
M  V30 54939 C 5385.42 4.13405 -1.15736 0
M  V30 54940 C 5384.66 5.30417 -0.591037 0
M  V30 54941 O 5384.88 5.67316 0.592312 0
M  V30 54942 O 5383.81 5.86866 -1.33684 0
M  V30 54943 H 5387.64 2.57316 -1.61314 0
M  V30 54944 H 5385.23 1.22969 -0.848465 0
M  V30 54945 H 5387.11 4.20851 0.214943 0
M  V30 54946 H 5385.78 3.14573 0.763245 0
M  V30 54947 H 5384.69 3.40978 -1.53898 0
M  V30 54948 H 5386.02 4.49428 -2.00687 0
M  V30 54949 N 5387.67 0.859763 1.32083 0
M  V30 54950 C 5388.64 0.313084 2.27052 0
M  V30 54951 C 5389.64 -0.530138 1.5181 0
M  V30 54952 O 5390.83 -0.340912 1.70832 0
M  V30 54953 C 5387.96 -0.556482 3.36327 0
M  V30 54954 H 5389.15 1.15135 2.76919 0
M  V30 54955 H 5386.71 0.634513 1.42841 0
M  V30 54956 H 5387.44 -1.41635 2.91736 0
M  V30 54957 H 5387.23 0.0471575 3.92072 0
M  V30 54958 H 5388.72 -0.931581 4.07077 0
M  V30 54959 N 5389.15 -1.44969 0.618196 0
M  V30 54960 C 5390.39 -2.04043 0.120696 0
M  V30 54961 C 5390.76 -1.47477 -1.22942 0
M  V30 54962 O 5391.96 -1.97971 -1.81827 0
M  V30 54963 C 5390.23 -3.57278 0.0932119 0
M  V30 54964 S 5391.79 -4.37469 -0.341552 0
M  V30 54965 H 5388.61 -0.708889 0.0547521 0
M  V30 54966 H 5391.21 -1.77533 0.818683 0
M  V30 54967 H 5389.91 -3.95957 1.07917 0
M  V30 54968 H 5389.44 -3.8838 -0.626433 0
M  V30 54969 H 5391.46 -4.70079 -1.58872 0
M  V30 54970 N 5390.63 -0.357973 -1.53481 0
M  V30 54971 C 5391.88 0.23363 -2.00745 0
M  V30 54972 C 5392.2 1.49903 -1.24716 0
M  V30 54973 O 5391.47 1.92595 -0.358303 0
M  V30 54974 H 5390.05 0.0893213 -0.741641 0
M  V30 54975 H 5392.71 -0.482454 -1.88834 0
M  V30 54976 H 5391.81 0.465965 -3.08602 0
M  V30 54977 N 5392.11 1.5736 -0.086945 0
M  V30 54978 C 5393.34 1.9839 0.58728 0
M  V30 54979 C 5393.75 0.965814 1.62227 0
M  V30 54980 O 5393.11 -0.0456339 1.82443 0
M  V30 54981 C 5393.16 3.39483 1.2423 0
M  V30 54982 O 5392.88 4.37393 0.248724 0
M  V30 54983 C 5394.38 3.95472 2.00292 0
M  V30 54984 H 5391.6 0.652116 0.158067 0
M  V30 54985 H 5394.15 2.03843 -0.163825 0
M  V30 54986 H 5392.3 3.3507 1.94439 0
M  V30 54987 H 5392.71 5.19528 0.720496 0
M  V30 54988 H 5394.19 4.96372 2.41494 0
M  V30 54989 H 5394.67 3.32842 2.86553 0
M  V30 54990 H 5395.27 4.03333 1.34917 0
M  V30 54991 N 5393.59 -0.186707 1.5649 0
M  V30 54992 C 5394.83 -0.903999 1.80755 0
M  V30 54993 C 5395.16 -1.8344 0.661408 0
M  V30 54994 O 5394.43 -1.93273 -0.319743 0
M  V30 54995 H 5393.01 -0.336805 0.666762 0
M  V30 54996 H 5395.67 -0.190207 1.9397 0
M  V30 54997 H 5394.76 -1.49011 2.7423 0
M  V30 54998 N 5395.07 -1.50897 -0.454723 0
M  V30 54999 C 5396.31 -1.62944 -1.20735 0
M  V30 55000 C 5396.64 -0.336407 -1.91264 0
M  V30 55001 O 5395.92 0.663088 -1.82848 0
M  V30 55002 C 5396.2 -2.821 -2.23812 0
M  V30 55003 C 5396.06 -4.21331 -1.57481 0
M  V30 55004 C 5397.37 -2.96788 -3.24969 0
M  V30 55005 H 5394.49 -0.593036 -0.437582 0
M  V30 55006 H 5397.14 -1.83333 -0.498895 0
M  V30 55007 H 5395.29 -2.64847 -2.84233 0
M  V30 55008 H 5396.96 -4.50213 -1.0053 0
M  V30 55009 H 5395.2 -4.24832 -0.877515 0
M  V30 55010 H 5395.87 -5.00664 -2.32464 0
M  V30 55011 H 5398.35 -3.12637 -2.74586 0
M  V30 55012 H 5397.22 -3.81756 -3.94403 0
M  V30 55013 H 5397.48 -2.08105 -3.90057 0
M  V30 55014 N 5396.54 0.709016 -1.40751 0
M  V30 55015 C 5397.96 1.01792 -1.22925 0
M  V30 55016 C 5398.16 2.01205 -0.109082 0
M  V30 55017 O 5397.22 2.46856 0.530901 0
M  V30 55018 C 5398.53 1.55537 -2.57349 0
M  V30 55019 C 5400.08 1.67489 -2.64417 0
M  V30 55020 C 5400.55 2.24638 -3.99126 0
M  V30 55021 N 5402.04 2.32015 -4.00903 0
M  V30 55022 C 5402.78 2.77232 -5.01926 0
M  V30 55023 N 5402.27 3.22152 -6.13343 0
M  V30 55024 N 5404.07 2.76675 -4.89293 0
M  V30 55025 H 5396.22 0.0501957 -2.12341 0
M  V30 55026 H 5398.48 0.0848601 -0.944194 0
M  V30 55027 H 5398.19 0.899512 -3.40002 0
M  V30 55028 H 5398.06 2.53961 -2.78897 0
M  V30 55029 H 5400.45 2.3219 -1.82132 0
M  V30 55030 H 5400.53 0.676466 -2.46693 0
M  V30 55031 H 5400.17 1.60556 -4.81855 0
M  V30 55032 H 5400.1 3.25206 -4.14184 0
M  V30 55033 H 5402.59 2.00298 -3.20451 0
M  V30 55034 H 5402.91 3.55241 -6.86312 0
M  V30 55035 H 5401.25 3.20095 -6.16899 0
M  V30 55036 H 5404.44 2.40922 -4.01341 0
M  V30 55037 H 5404.62 3.11597 -5.68165 0
M  V30 55038 N 5398.02 1.26356 0.941911 0
M  V30 55039 C 5399.25 1.14632 1.72241 0
M  V30 55040 C 5399.66 -0.298523 1.86425 0
M  V30 55041 O 5399.02 -1.20445 1.3711 0
M  V30 55042 C 5399.07 1.80944 3.12956 0
M  V30 55043 O 5398.79 3.19782 2.99451 0
M  V30 55044 C 5400.29 1.75165 4.07225 0
M  V30 55045 H 5397.51 0.399219 0.539319 0
M  V30 55046 H 5400.06 1.66962 1.18085 0
M  V30 55047 H 5398.21 1.32554 3.64017 0
M  V30 55048 H 5398.63 3.52585 3.88309 0
M  V30 55049 H 5400.1 2.26201 5.03525 0
M  V30 55050 H 5400.58 0.718007 4.33291 0
M  V30 55051 H 5401.18 2.23102 3.62085 0
M  V30 55052 N 5399.5 -1.14638 1.08148 0
M  V30 55053 C 5400.74 -1.87274 0.819018 0
M  V30 55054 C 5401.1 -1.80898 -0.643418 0
M  V30 55055 O 5402.3 -2.48644 -1.02126 0
M  V30 55056 C 5400.58 -3.32001 1.32326 0
M  V30 55057 S 5402.13 -4.22279 1.19271 0
M  V30 55058 H 5398.95 -0.646193 0.296572 0
M  V30 55059 H 5401.55 -1.38257 1.38222 0
M  V30 55060 H 5400.26 -3.34189 2.38214 0
M  V30 55061 H 5399.79 -3.86075 0.755616 0
M  V30 55062 H 5401.8 -4.96015 0.135317 0
M  V30 55063 N 5400.98 -0.866756 -1.31625 0
M  V30 55064 C 5402.39 -0.529095 -1.79046 0
M  V30 55065 C 5402.74 0.953811 -1.71455 0
M  V30 55066 O 5401.86 1.74458 -1.28037 0
M  V30 55067 C 5402.46 -0.953636 -3.25102 0
M  V30 55068 C 5401.02 -0.667684 -3.70431 0
M  V30 55069 C 5400.17 -1.14673 -2.52479 0
M  V30 55070 H 5403.12 -1.05279 -1.18752 0
M  V30 55071 H 5403.14 -0.274977 -3.79505 0
M  V30 55072 H 5402.65 -2.03295 -3.30595 0
M  V30 55073 H 5400.75 0.400402 -3.70442 0
M  V30 55074 H 5400.86 -1.24246 -4.62709 0
M  V30 55075 H 5399.23 -0.566589 -2.48318 0
M  V30 55076 H 5400.01 -2.2334 -2.60719 0
M  V30 55077 N 5402.46 1.44639 -0.625876 0
M  V30 55078 C 5403.39 2.33398 0.0691367 0
M  V30 55079 C 5404.37 1.47901 0.840189 0
M  V30 55080 O 5405.55 1.76633 0.807114 0
M  V30 55081 C 5402.68 3.30892 1.05488 0
M  V30 55082 C 5401.64 4.26166 0.395818 0
M  V30 55083 C 5400.96 5.13488 1.4911 0
M  V30 55084 C 5402.26 5.1766 -0.694615 0
M  V30 55085 H 5403.96 2.9176 -0.672027 0
M  V30 55086 H 5401.5 1.40293 -0.324623 0
M  V30 55087 H 5403.45 3.91866 1.5498 0
M  V30 55088 H 5402.18 2.70727 1.82687 0
M  V30 55089 H 5400.84 3.66516 -0.078398 0
M  V30 55090 H 5400.49 4.49679 2.25383 0
M  V30 55091 H 5400.19 5.78042 1.05552 0
M  V30 55092 H 5401.71 5.77334 1.98792 0
M  V30 55093 H 5403.12 5.72601 -0.283019 0
M  V30 55094 H 5401.52 5.90789 -1.05302 0
M  V30 55095 H 5402.59 4.58989 -1.56388 0
M  V30 55096 N 5403.93 0.366107 1.53289 0
M  V30 55097 C 5405.21 -0.279834 1.93588 0
M  V30 55098 C 5405.59 -1.66347 1.29969 0
M  V30 55099 O 5404.94 -2.23843 0.458973 0
M  V30 55100 C 5405.15 -0.329512 3.47441 0
M  V30 55101 C 5406.5 -0.569606 4.20762 0
M  V30 55102 O 5407.52 -0.410698 3.53824 0
M  V30 55103 O 5406.38 -0.879073 5.39384 0
M  V30 55104 H 5403.47 -0.167991 0.809758 0
M  V30 55105 H 5406.02 0.418929 1.64448 0
M  V30 55106 H 5404.79 0.64057 3.86021 0
M  V30 55107 H 5404.41 -1.07415 3.82816 0
M  V30 55108 N 5405.41 -1.57312 0.095289 0
M  V30 55109 C 5406.32 -2.17559 -0.877801 0
M  V30 55110 C 5407.34 -1.1451 -1.3101 0
M  V30 55111 O 5408.51 -1.46881 -1.37797 0
M  V30 55112 C 5405.58 -2.74421 -2.11882 0
M  V30 55113 C 5404.64 -3.92425 -1.74071 0
M  V30 55114 C 5403.87 -4.46566 -2.92257 0
M  V30 55115 O 5404.1 -3.99646 -4.06988 0
M  V30 55116 O 5403.03 -5.37586 -2.70713 0
M  V30 55117 H 5406.86 -3.01118 -0.395206 0
M  V30 55118 H 5404.44 -1.48841 -0.129071 0
M  V30 55119 H 5406.32 -3.10764 -2.84612 0
M  V30 55120 H 5405 -1.93908 -2.59194 0
M  V30 55121 H 5403.9 -3.60894 -0.985219 0
M  V30 55122 H 5405.24 -4.74302 -1.31523 0
M  V30 55123 N 5406.89 0.178405 -1.56587 0
M  V30 55124 C 5408.14 0.896171 -1.8159 0
M  V30 55125 C 5408.46 1.82551 -0.671232 0
M  V30 55126 O 5407.72 1.92689 0.341978 0
M  V30 55127 C 5408.02 1.73052 -3.12711 0
M  V30 55128 C 5407.68 0.950722 -4.40763 0
M  V30 55129 C 5406.35 0.73548 -4.75546 0
M  V30 55130 C 5408.7 0.403236 -5.19638 0
M  V30 55131 C 5406.03 -0.0384624 -5.86687 0
M  V30 55132 C 5408.38 -0.357581 -6.31589 0
M  V30 55133 C 5407.04 -0.583688 -6.64943 0
M  V30 55134 H 5406.31 0.327932 -0.664486 0
M  V30 55135 H 5408.96 0.161519 -1.90818 0
M  V30 55136 H 5407.26 2.53435 -2.98794 0
M  V30 55137 H 5408.96 2.28879 -3.29265 0
M  V30 55138 H 5405.55 1.12852 -4.13476 0
M  V30 55139 H 5409.74 0.556885 -4.93166 0
M  V30 55140 H 5404.99 -0.223452 -6.10992 0
M  V30 55141 H 5409.17 -0.789104 -6.91915 0
M  V30 55142 H 5406.79 -1.18528 -7.50903 0
M  V30 55143 N 5408.37 1.51136 0.446714 0
M  V30 55144 C 5409.3 1.67955 1.55961 0
M  V30 55145 C 5410.31 0.560391 1.52851 0
M  V30 55146 O 5411.5 0.834405 1.57797 0
M  V30 55147 C 5408.6 1.67041 2.94874 0
M  V30 55148 C 5407.77 2.95388 3.2259 0
M  V30 55149 C 5406.83 2.86788 4.4118 0
M  V30 55150 O 5405.86 3.60738 4.40292 0
M  V30 55151 N 5407.06 2.01998 5.44221 0
M  V30 55152 H 5409.83 2.63956 1.41942 0
M  V30 55153 H 5407.39 1.48905 0.635517 0
M  V30 55154 H 5409.38 1.58867 3.72214 0
M  V30 55155 H 5407.95 0.78673 3.02538 0
M  V30 55156 H 5407.17 3.17502 2.33636 0
M  V30 55157 H 5408.46 3.80368 3.37932 0
M  V30 55158 H 5407.86 1.41276 5.47775 0
M  V30 55159 H 5406.41 1.99711 6.2045 0
M  V30 55160 N 5409.85 -0.701542 1.41125 0
M  V30 55161 C 5411.09 -1.47385 1.41623 0
M  V30 55162 C 5411.45 -1.91987 0.0220118 0
M  V30 55163 O 5412.65 -2.68621 -0.0981849 0
M  V30 55164 C 5410.92 -2.65737 2.38995 0
M  V30 55165 S 5412.48 -3.54959 2.57972 0
M  V30 55166 H 5409.3 -0.503724 0.50178 0
M  V30 55167 H 5411.9 -0.819123 1.77512 0
M  V30 55168 H 5410.61 -2.31164 3.39104 0
M  V30 55169 H 5410.14 -3.36108 2.04438 0
M  V30 55170 H 5412.15 -4.60718 1.84265 0
M  V30 55171 N 5411.32 -1.26854 -0.935197 0
M  V30 55172 C 5412.27 -1.08753 -2.0561 0
M  V30 55173 C 5413.27 -0.0127406 -1.69395 0
M  V30 55174 O 5414.47 -0.169885 -1.79197 0
M  V30 55175 H 5410.85 -0.334874 -0.673323 0
M  V30 55176 H 5412.82 -2.03733 -2.18026 0
M  V30 55177 C 5411.57 -0.743579 -3.39656 0
M  V30 55178 H 5410.89 -1.56249 -3.68003 0
M  V30 55179 H 5412.33 -0.656754 -4.18883 0
M  V30 55180 C 5410.79 0.551634 -3.32353 0
M  V30 55181 O 5411.32 1.58823 -3.68969 0
M  V30 55182 N 5409.53 0.544483 -2.85454 0
M  V30 55183 H 5409.07 -0.29948 -2.55853 0
M  V30 55184 H 5409.03 1.41119 -2.8095 0
M  V30 55185 N 5412.8 1.14063 -1.08754 0
M  V30 55186 C 5413.75 2.21329 -0.715273 0
M  V30 55187 C 5414.74 1.6706 0.28062 0
M  V30 55188 O 5415.95 1.79433 0.14281 0
M  V30 55189 H 5412.33 0.721118 -0.21329 0
M  V30 55190 H 5414.3 2.49996 -1.62925 0
M  V30 55191 C 5413.05 3.474 -0.144523 0
M  V30 55192 H 5412.37 3.89491 -0.902021 0
M  V30 55193 H 5413.81 4.23928 0.0781074 0
M  V30 55194 C 5412.27 3.17791 1.11851 0
M  V30 55195 O 5412.8 3.35914 2.20283 0
M  V30 55196 N 5411 2.71723 1.03029 0
M  V30 55197 H 5410.55 2.57175 0.147839 0
M  V30 55198 H 5410.51 2.52287 1.87613 0
M  V30 55199 N 5414.28 0.873724 1.31163 0
M  V30 55200 C 5415.51 0.501114 2.0074 0
M  V30 55201 C 5415.92 -0.907418 1.65564 0
M  V30 55202 O 5415.28 -1.59504 0.886827 0
M  V30 55203 C 5415.33 0.653002 3.55553 0
M  V30 55204 O 5415.05 2.00607 3.89472 0
M  V30 55205 C 5416.55 0.281898 4.42403 0
M  V30 55206 H 5413.77 0.194851 0.642086 0
M  V30 55207 H 5416.32 1.17592 1.67309 0
M  V30 55208 H 5414.47 0.0256989 3.87391 0
M  V30 55209 H 5414.89 2.01655 4.84186 0
M  V30 55210 H 5416.36 0.439114 5.50251 0
M  V30 55211 H 5416.84 -0.779237 4.32232 0
M  V30 55212 H 5417.44 0.885056 4.15989 0
M  V30 55213 N 5415.76 -1.44305 0.633538 0
M  V30 55214 C 5416.69 -2.33431 -0.0567581 0
M  V30 55215 C 5417.67 -1.48345 -0.832333 0
M  V30 55216 O 5418.85 -1.77059 -0.797736 0
M  V30 55217 C 5415.98 -3.31447 -1.03732 0
M  V30 55218 C 5414.94 -4.2637 -0.373212 0
M  V30 55219 C 5414.26 -5.14272 -1.46384 0
M  V30 55220 C 5415.56 -5.17285 0.722058 0
M  V30 55221 H 5417.26 -2.914 0.687491 0
M  V30 55222 H 5414.8 -1.40119 0.332058 0
M  V30 55223 H 5416.76 -3.92683 -1.52899 0
M  V30 55224 H 5415.48 -2.71692 -1.81249 0
M  V30 55225 H 5414.14 -3.66469 0.0978341 0
M  V30 55226 H 5413.79 -4.50868 -2.22995 0
M  V30 55227 H 5413.49 -5.78594 -1.02485 0
M  V30 55228 H 5415.01 -5.7838 -1.95728 0
M  V30 55229 H 5416.43 -5.72443 0.313382 0
M  V30 55230 H 5414.82 -5.90222 1.08433 0
M  V30 55231 H 5415.89 -4.58153 1.5882 0
M  V30 55232 N 5417.24 -0.374231 -1.53092 0
M  V30 55233 C 5418.48 0.212709 -2.0329 0
M  V30 55234 C 5418.84 1.45287 -1.25522 0
M  V30 55235 O 5420.04 2.11599 -1.65769 0
M  V30 55236 C 5418.31 0.489006 -3.54039 0
M  V30 55237 S 5419.87 1.04838 -4.26092 0
M  V30 55238 H 5416.69 0.0612503 -0.708357 0
M  V30 55239 H 5419.29 -0.519098 -1.88482 0
M  V30 55240 H 5418 -0.42093 -4.08236 0
M  V30 55241 H 5417.53 1.24965 -3.73025 0
M  V30 55242 H 5419.54 2.33198 -4.37988 0
M  V30 55243 N 5418.71 1.57259 -0.10363 0
M  V30 55244 C 5419.66 2.1449 0.852219 0
M  V30 55245 C 5420.63 1.06572 1.27403 0
M  V30 55246 O 5421.82 1.34402 1.35428 0
M  V30 55247 C 5418.96 2.73639 2.10275 0
M  V30 55248 C 5418.07 3.95817 1.73069 0
M  V30 55249 C 5417.2 4.43103 2.92973 0
M  V30 55250 C 5416.24 5.57849 2.51934 0
M  V30 55251 N 5415.38 5.99949 3.647 0
M  V30 55252 H 5420.22 2.9585 0.357326 0
M  V30 55253 H 5417.76 1.46175 0.164696 0
M  V30 55254 H 5419.72 3.06056 2.83523 0
M  V30 55255 H 5418.35 1.94994 2.57249 0
M  V30 55256 H 5417.4 3.69659 0.897558 0
M  V30 55257 H 5418.71 4.7907 1.38899 0
M  V30 55258 H 5417.86 4.77349 3.74464 0
M  V30 55259 H 5416.6 3.58768 3.30359 0
M  V30 55260 H 5415.61 5.23223 1.68871 0
M  V30 55261 H 5416.83 6.43939 2.15682 0
M  V30 55262 H 5414.78 5.18558 4.01789 0
M  V30 55263 H 5414.7 6.7802 3.34403 0
M  V30 55264 H 5415.96 6.38828 4.46676 0
M  V30 55265 N 5420.19 -0.170098 1.56679 0
M  V30 55266 C 5421.6 -0.732442 1.71733 0
M  V30 55267 C 5421.95 -1.82734 0.714344 0
M  V30 55268 O 5421.08 -2.16044 -0.124026 0
M  V30 55269 C 5421.67 -1.33537 3.11373 0
M  V30 55270 C 5420.23 -1.84453 3.28107 0
M  V30 55271 C 5419.38 -0.723975 2.67682 0
M  V30 55272 H 5422.33 0.0553101 1.58604 0
M  V30 55273 H 5422.35 -2.20508 3.10091 0
M  V30 55274 H 5421.86 -0.538265 3.84349 0
M  V30 55275 H 5419.97 -2.66804 2.60089 0
M  V30 55276 H 5420.08 -1.98913 4.35856 0
M  V30 55277 H 5418.44 -1.14473 2.27526 0
M  V30 55278 H 5419.23 0.0613068 3.43245 0
M  V30 55279 N 5421.67 -1.51371 -0.438693 0
M  V30 55280 C 5422.6 -1.75534 -1.53981 0
M  V30 55281 C 5423.58 -0.605123 -1.58973 0
M  V30 55282 O 5424.77 -0.847695 -1.74722 0
M  V30 55283 C 5421.9 -1.87914 -2.92071 0
M  V30 55284 C 5420.85 -3.03341 -3.01941 0
M  V30 55285 C 5420.18 -3.00904 -4.41997 0
M  V30 55286 C 5421.48 -4.43328 -2.76147 0
M  V30 55287 H 5423.17 -2.67733 -1.34013 0
M  V30 55288 H 5420.72 -1.28834 -0.643262 0
M  V30 55289 H 5422.67 -2.03401 -3.69061 0
M  V30 55290 H 5421.39 -0.923624 -3.13268 0
M  V30 55291 H 5420.05 -2.87557 -2.2739 0
M  V30 55292 H 5419.7 -2.03132 -4.60159 0
M  V30 55293 H 5419.4 -3.78413 -4.4953 0
M  V30 55294 H 5420.92 -3.18482 -5.20962 0
M  V30 55295 H 5422.34 -4.5947 -3.42871 0
M  V30 55296 H 5420.74 -5.22533 -2.95092 0
M  V30 55297 H 5421.81 -4.53459 -1.71763 0
M  V30 55298 N 5423.15 0.694048 -1.41495 0
M  V30 55299 C 5424.11 1.78971 -1.43185 0
M  V30 55300 C 5425.11 1.57538 -0.322246 0
M  V30 55301 O 5426.3 1.64183 -0.582196 0
M  V30 55302 C 5423.43 3.17364 -1.24471 0
M  V30 55303 H 5424.63 1.78865 -2.40722 0
M  V30 55304 H 5422.18 0.901822 -1.27659 0
M  V30 55305 H 5422.91 3.23108 -0.277805 0
M  V30 55306 H 5422.7 3.34322 -2.04868 0
M  V30 55307 H 5424.19 3.9734 -1.28493 0
M  V30 55308 N 5424.63 1.27348 0.928456 0
M  V30 55309 C 5425.87 1.14819 1.67893 0
M  V30 55310 C 5426.23 -0.303063 1.89998 0
M  V30 55311 O 5425.52 -1.21839 1.47871 0
M  V30 55312 C 5425.72 1.8645 3.04912 0
M  V30 55313 C 5425.54 3.38392 2.96178 0
M  V30 55314 C 5424.31 4.07708 2.98499 0
M  V30 55315 C 5426.51 4.3438 2.75352 0
M  V30 55316 N 5424.49 5.46225 2.80199 0
M  V30 55317 C 5425.87 5.60159 2.65748 0
M  V30 55318 C 5427.92 4.24479 2.60234 0
M  V30 55319 C 5426.62 6.77165 2.42569 0
M  V30 55320 C 5428.65 5.41206 2.38431 0
M  V30 55321 C 5428.01 6.65941 2.2957 0
M  V30 55322 H 5424.11 0.475012 0.621198 0
M  V30 55323 H 5426.69 1.60806 1.09771 0
M  V30 55324 H 5424.87 1.42919 3.61149 0
M  V30 55325 H 5426.6 1.66433 3.68893 0
M  V30 55326 H 5423.35 3.59169 3.08698 0
M  V30 55327 H 5423.78 6.18994 2.74181 0
M  V30 55328 H 5428.42 3.28765 2.65844 0
M  V30 55329 H 5426.14 7.72963 2.35698 0
M  V30 55330 H 5429.72 5.35425 2.2762 0
M  V30 55331 H 5428.6 7.5474 2.12926 0
M  V30 55332 N 5426.11 -1.13484 1.09357 0
M  V30 55333 C 5427.05 -2.18873 0.732328 0
M  V30 55334 C 5428.02 -1.63617 -0.286117 0
M  V30 55335 O 5429.21 -1.9006 -0.167914 0
M  V30 55336 C 5426.35 -3.44737 0.158279 0
M  V30 55337 C 5425.46 -4.14099 1.23068 0
M  V30 55338 C 5424.6 -5.27576 0.619457 0
M  V30 55339 C 5423.63 -5.88787 1.67321 0
M  V30 55340 N 5422.77 -6.93696 1.08307 0
M  V30 55341 H 5427.61 -2.49122 1.63531 0
M  V30 55342 H 5425.15 -1.22323 0.817038 0
M  V30 55343 H 5427.11 -4.16756 -0.192342 0
M  V30 55344 H 5425.74 -3.14941 -0.707971 0
M  V30 55345 H 5424.79 -3.4037 1.69859 0
M  V30 55346 H 5426.1 -4.55676 2.02881 0
M  V30 55347 H 5425.25 -6.0631 0.217641 0
M  V30 55348 H 5423.99 -4.87247 -0.210228 0
M  V30 55349 H 5423 -5.08749 2.08458 0
M  V30 55350 H 5424.22 -6.31189 2.50555 0
M  V30 55351 H 5422.17 -6.55425 0.274657 0
M  V30 55352 H 5422.09 -7.33811 1.81818 0
M  V30 55353 H 5423.35 -7.76283 0.70744 0
M  V30 55354 N 5427.58 -0.880667 -1.30698 0
M  V30 55355 C 5428.82 -0.503588 -1.98099 0
M  V30 55356 C 5429.19 0.929016 -1.68028 0
M  V30 55357 O 5430.39 1.412 -2.28727 0
M  V30 55358 C 5428.66 -0.765775 -3.491 0
M  V30 55359 S 5430.22 -0.490154 -4.36054 0
M  V30 55360 H 5427.04 -0.187546 -0.685819 0
M  V30 55361 H 5429.64 -1.139 -1.58893 0
M  V30 55362 H 5428.34 -1.80701 -3.68477 0
M  V30 55363 H 5427.87 -0.117755 -3.93224 0
M  V30 55364 H 5429.89 0.673063 -4.91614 0
M  V30 55365 N 5429.06 1.43967 -0.641182 0
M  V30 55366 C 5430.34 1.95436 -0.0801605 0
M  V30 55367 C 5430.72 1.58287 1.39673 0
M  V30 55368 O 5430.07 0.861941 2.1162 0
M  V30 55369 C 5430.28 3.47588 -0.313653 0
M  V30 55370 C 5431.62 4.2407 -0.212183 0
M  V30 55371 O 5432.65 3.55353 -0.245559 0
M  V30 55372 O 5431.51 5.46356 -0.125647 0
M  V30 55373 H 5428.6 0.826834 0.0165444 0
M  V30 55374 H 5431.15 1.53968 -0.713584 0
M  V30 55375 H 5429.92 3.67711 -1.33806 0
M  V30 55376 H 5429.54 3.96026 0.353423 0
M  V30 55377 N 5430.54 0.382345 1.52892 0
M  V30 55378 C 5431.79 -0.201663 2.01091 0
M  V30 55379 C 5432.11 -1.479 1.27085 0
M  V30 55380 O 5431.38 -1.92001 0.388897 0
M  V30 55381 H 5429.96 -0.0775111 0.742968 0
M  V30 55382 H 5432.62 0.512435 1.88043 0
M  V30 55383 H 5431.72 -0.41681 3.09304 0
M  V30 55384 N 5432.02 -1.57202 0.111969 0
M  V30 55385 C 5432.93 -2.18478 -0.854676 0
M  V30 55386 C 5433.94 -1.15893 -1.29788 0
M  V30 55387 O 5435.12 -1.48334 -1.36231 0
M  V30 55388 C 5432.18 -2.76653 -2.0896 0
M  V30 55389 C 5431.25 -3.9425 -1.69899 0
M  V30 55390 C 5430.48 -4.49641 -2.87505 0
M  V30 55391 O 5430.7 -4.0394 -4.02727 0
M  V30 55392 O 5429.64 -5.40427 -2.64996 0
M  V30 55393 H 5433.46 -3.0152 -0.363246 0
M  V30 55394 H 5431.05 -1.4897 -0.113277 0
M  V30 55395 H 5432.93 -3.13765 -2.81299 0
M  V30 55396 H 5431.6 -1.96646 -2.57123 0
M  V30 55397 H 5430.51 -3.61918 -0.946886 0
M  V30 55398 H 5431.84 -4.75671 -1.26485 0
M  V30 55399 N 5433.5 0.161787 -1.56767 0
M  V30 55400 C 5434.77 0.904693 -1.7342 0
M  V30 55401 C 5435.15 1.99984 -0.675978 0
M  V30 55402 O 5434.5 2.2642 0.307633 0
M  V30 55403 C 5434.71 1.46071 -3.16961 0
M  V30 55404 C 5436.06 1.92991 -3.78206 0
M  V30 55405 O 5437.08 1.55844 -3.20298 0
M  V30 55406 O 5435.94 2.61448 -4.79903 0
M  V30 55407 H 5433.04 0.426493 -0.708543 0
M  V30 55408 H 5435.58 0.148869 -1.69046 0
M  V30 55409 H 5434.35 0.672952 -3.8547 0
M  V30 55410 H 5433.98 2.28045 -3.25701 0
M  V30 55411 N 5434.97 1.51602 0.430659 0
M  V30 55412 C 5436.25 1.55146 1.19118 0
M  V30 55413 C 5436.63 0.319669 2.08666 0
M  V30 55414 O 5435.98 -0.69485 2.17679 0
M  V30 55415 C 5436.19 2.86898 1.98722 0
M  V30 55416 C 5437.54 3.39098 2.55534 0
M  V30 55417 O 5438.56 2.88493 2.08926 0
M  V30 55418 O 5437.42 4.27413 3.40559 0
M  V30 55419 H 5434.51 0.624038 0.542683 0
M  V30 55420 H 5437.06 1.63918 0.439186 0
M  V30 55421 H 5435.83 3.68007 1.32992 0
M  V30 55422 H 5435.45 2.81319 2.80972 0
M  V30 55423 N 5436.45 -0.686534 1.41861 0
M  V30 55424 C 5437.69 -1.45874 1.43178 0
M  V30 55425 C 5438.06 -1.91953 0.0423734 0
M  V30 55426 O 5439.26 -2.6871 -0.0696886 0
M  V30 55427 C 5437.53 -2.63187 2.418 0
M  V30 55428 S 5439.09 -3.52203 2.61722 0
M  V30 55429 H 5435.9 -0.498374 0.507094 0
M  V30 55430 H 5438.51 -0.80025 1.78371 0
M  V30 55431 H 5437.21 -2.27554 3.41537 0
M  V30 55432 H 5436.74 -3.33921 2.07992 0
M  V30 55433 H 5438.76 -4.58738 1.89141 0
M  V30 55434 N 5437.93 -1.27838 -0.92169 0
M  V30 55435 C 5439.18 -1.14302 -1.66672 0
M  V30 55436 C 5439.5 0.310425 -1.92513 0
M  V30 55437 O 5438.77 1.21632 -1.53566 0
M  V30 55438 H 5437.35 -0.420015 -0.617735 0
M  V30 55439 H 5440.01 -1.60453 -1.10638 0
M  V30 55440 H 5439.11 -1.67664 -2.6324 0
M  V30 55441 N 5439.41 1.12903 -1.09958 0
M  V30 55442 C 5440.69 1.80599 -0.751211 0
M  V30 55443 C 5441.07 1.96828 0.763008 0
M  V30 55444 O 5440.41 1.54071 1.68743 0
M  V30 55445 C 5440.62 3.15283 -1.49657 0
M  V30 55446 C 5441.97 3.90554 -1.66591 0
M  V30 55447 O 5443 3.24924 -1.45954 0
M  V30 55448 O 5441.85 5.08285 -2.0077 0
M  V30 55449 H 5438.95 0.78152 -0.270473 0
M  V30 55450 H 5441.49 1.19782 -1.2021 0
M  V30 55451 H 5440.27 2.98732 -2.52735 0
M  V30 55452 H 5439.89 3.83806 -1.03822 0
M  V30 55453 N 5440.89 0.887586 1.30229 0
M  V30 55454 C 5441.83 0.345846 2.30014 0
M  V30 55455 C 5442.83 -0.548544 1.60273 0
M  V30 55456 O 5444.03 -0.432688 1.74722 0
M  V30 55457 H 5440.41 0.0931885 0.746204 0
M  V30 55458 H 5442.38 1.20104 2.73162 0
M  V30 55459 C 5441.13 -0.422313 3.45126 0
M  V30 55460 H 5440.45 0.256656 3.98975 0
M  V30 55461 H 5441.89 -0.766425 4.17016 0
M  V30 55462 C 5440.35 -1.62038 2.95373 0
M  V30 55463 O 5440.88 -2.71975 2.95622 0
M  V30 55464 N 5439.09 -1.45844 2.51352 0
M  V30 55465 H 5438.63 -0.564069 2.51348 0
M  V30 55466 H 5438.59 -2.2614 2.18421 0
M  V30 55467 N 5442.36 -1.43625 0.648807 0
M  V30 55468 C 5443.59 -2.06732 0.166356 0
M  V30 55469 C 5444.01 -1.48285 -1.15729 0
M  V30 55470 O 5443.37 -0.591078 -1.71394 0
M  V30 55471 C 5443.42 -3.60502 0.0839999 0
M  V30 55472 O 5442.52 -4.01189 -0.955043 0
M  V30 55473 H 5441.87 -0.657476 0.0928516 0
M  V30 55474 H 5444.4 -1.84205 0.890486 0
M  V30 55475 H 5444.41 -4.07876 -0.10078 0
M  V30 55476 H 5443.08 -4.0242 1.05028 0
M  V30 55477 H 5441.66 -3.65415 -0.743408 0
M  V30 55478 N 5443.84 -0.390448 -1.52687 0
M  V30 55479 C 5445.12 0.249 -1.94009 0
M  V30 55480 C 5445.5 1.64258 -1.32599 0
M  V30 55481 O 5444.85 2.23084 -0.494527 0
M  V30 55482 C 5445.06 0.274195 -3.47921 0
M  V30 55483 C 5446.41 0.502594 -4.21615 0
M  V30 55484 O 5447.43 0.354356 -3.54433 0
M  V30 55485 O 5446.29 0.79315 -5.40714 0
M  V30 55486 H 5443.38 0.155087 -0.812328 0
M  V30 55487 H 5445.93 -0.445038 -1.63761 0
M  V30 55488 H 5444.7 -0.701901 -3.84953 0
M  V30 55489 H 5444.32 1.01311 -3.84476 0
M  V30 55490 N 5445.32 1.5714 -0.120304 0
M  V30 55491 C 5446.23 2.18928 0.843078 0
M  V30 55492 C 5447.25 1.1658 1.29171 0
M  V30 55493 O 5448.42 1.49054 1.35443 0
M  V30 55494 C 5445.49 2.77757 2.0749 0
M  V30 55495 C 5444.55 3.95145 1.67806 0
M  V30 55496 C 5443.78 4.51159 2.85116 0
M  V30 55497 O 5444 4.0607 4.00579 0
M  V30 55498 O 5442.94 5.41824 2.62126 0
M  V30 55499 H 5446.76 3.01708 0.347251 0
M  V30 55500 H 5444.35 1.49028 0.105375 0
M  V30 55501 H 5446.23 3.15253 2.79632 0
M  V30 55502 H 5444.91 1.98007 2.56076 0
M  V30 55503 H 5443.81 3.62415 0.927679 0
M  V30 55504 H 5445.15 4.76335 1.2396 0
M  V30 55505 N 5446.8 -0.153471 1.56851 0
M  V30 55506 C 5447.75 -1.20889 1.98717 0
M  V30 55507 C 5448.74 -1.44836 0.87858 0
M  V30 55508 O 5449.95 -1.45205 1.06375 0
M  V30 55509 H 5446.32 -0.406774 0.632486 0
M  V30 55510 H 5448.29 -0.829045 2.86652 0
M  V30 55511 C 5447.04 -2.53634 2.37834 0
M  V30 55512 H 5446.36 -2.36035 3.22688 0
M  V30 55513 H 5447.8 -3.26126 2.70957 0
M  V30 55514 C 5446.26 -3.13702 1.22852 0
M  V30 55515 O 5446.79 -3.98244 0.525766 0
M  V30 55516 N 5445 -2.73055 0.994446 0
M  V30 55517 H 5444.55 -2.04405 1.56769 0
M  V30 55518 H 5444.5 -3.13579 0.226994 0
M  V30 55519 N 5448.28 -1.51828 -0.422613 0
M  V30 55520 C 5449.69 -1.57537 -1.00195 0
M  V30 55521 C 5450.04 -0.40769 -1.91918 0
M  V30 55522 O 5449.16 0.473689 -2.11152 0
M  V30 55523 C 5449.76 -2.85514 -1.82393 0
M  V30 55524 C 5448.32 -2.93746 -2.35352 0
M  V30 55525 C 5447.46 -2.52347 -1.14962 0
M  V30 55526 H 5450.42 -1.57392 -0.203334 0
M  V30 55527 H 5450.44 -2.70107 -2.67997 0
M  V30 55528 H 5449.95 -3.70481 -1.1561 0
M  V30 55529 H 5448.05 -2.13242 -3.05546 0
M  V30 55530 H 5448.16 -3.97709 -2.67141 0
M  V30 55531 H 5446.53 -2.05883 -1.49948 0
M  V30 55532 H 5447.31 -3.39674 -0.497667 0
M  V30 55533 N 5449.75 0.679002 -1.42223 0
M  V30 55534 C 5450.66 1.82216 -1.47765 0
M  V30 55535 C 5451.68 1.70091 -0.36676 0
M  V30 55536 O 5452.86 1.91715 -0.617024 0
M  V30 55537 C 5449.92 3.18328 -1.37363 0
M  V30 55538 C 5448.98 3.4244 -2.58908 0
M  V30 55539 C 5448.22 4.72058 -2.48992 0
M  V30 55540 O 5448.44 5.49678 -1.5235 0
M  V30 55541 O 5447.37 4.97321 -3.3905 0
M  V30 55542 H 5451.2 1.80495 -2.44244 0
M  V30 55543 H 5448.78 0.834207 -1.23941 0
M  V30 55544 H 5450.67 3.99558 -1.33907 0
M  V30 55545 H 5449.34 3.20695 -0.440077 0
M  V30 55546 H 5448.25 2.61074 -2.67939 0
M  V30 55547 H 5449.58 3.449 -3.51148 0
M  V30 55548 N 5451.23 1.28325 0.914897 0
M  V30 55549 C 5452.14 1.14 2.05039 0
M  V30 55550 C 5453.16 0.0668533 1.73872 0
M  V30 55551 O 5454.33 0.275915 1.99501 0
M  V30 55552 C 5451.4 0.801975 3.37297 0
M  V30 55553 C 5450.46 1.95736 3.82081 0
M  V30 55554 C 5449.69 1.63537 5.08027 0
M  V30 55555 O 5449.92 0.54919 5.6775 0
M  V30 55556 O 5448.85 2.47864 5.48495 0
M  V30 55557 H 5452.68 2.0932 2.20043 0
M  V30 55558 H 5450.26 1.07633 1.03612 0
M  V30 55559 H 5452.14 0.627361 4.16704 0
M  V30 55560 H 5450.82 -0.121583 3.23472 0
M  V30 55561 H 5449.73 2.18712 3.03506 0
M  V30 55562 H 5451.06 2.86158 4.00468 0
M  V30 55563 N 5452.71 -1.12318 1.10555 0
M  V30 55564 C 5453.95 -1.85494 0.858558 0
M  V30 55565 C 5454.31 -1.82222 -0.604902 0
M  V30 55566 O 5455.52 -2.50754 -0.968294 0
M  V30 55567 C 5453.79 -3.29119 1.39338 0
M  V30 55568 S 5455.35 -4.19655 1.28201 0
M  V30 55569 H 5452.16 -0.639757 0.310212 0
M  V30 55570 H 5454.77 -1.35294 1.41124 0
M  V30 55571 H 5453.47 -3.29061 2.45249 0
M  V30 55572 H 5453 -3.84386 0.837338 0
M  V30 55573 H 5455.02 -4.95617 0.240499 0
M  V30 55574 N 5454.19 -0.89448 -1.29757 0
M  V30 55575 C 5455.15 -0.373173 -2.26142 0
M  V30 55576 C 5456.15 0.489702 -1.53162 0
M  V30 55577 O 5457.34 0.295499 -1.71675 0
M  V30 55578 C 5454.47 0.467115 -3.37685 0
M  V30 55579 H 5455.67 -1.22436 -2.73769 0
M  V30 55580 H 5453.22 -0.672162 -1.41109 0
M  V30 55581 H 5453.96 1.3385 -2.95389 0
M  V30 55582 H 5453.74 -0.151092 -3.91809 0
M  V30 55583 H 5455.23 0.823325 -4.09403 0
M  V30 55584 N 5455.67 1.43279 -0.656415 0
M  V30 55585 C 5457.08 1.56271 -0.324268 0
M  V30 55586 C 5457.28 1.6395 1.17144 0
M  V30 55587 O 5456.34 1.59632 1.95637 0
M  V30 55588 C 5457.65 2.822 -1.03843 0
M  V30 55589 C 5459.2 2.95949 -1.01899 0
M  V30 55590 C 5459.68 4.24714 -1.71412 0
M  V30 55591 N 5461.17 4.31585 -1.68191 0
M  V30 55592 C 5461.9 5.29993 -2.18848 0
M  V30 55593 N 5461.4 6.34661 -2.77808 0
M  V30 55594 N 5463.19 5.21668 -2.09329 0
M  V30 55595 H 5455.34 1.36539 -1.62699 0
M  V30 55596 H 5457.6 0.655975 -0.684398 0
M  V30 55597 H 5457.31 2.826 -2.09356 0
M  V30 55598 H 5457.18 3.72525 -0.592009 0
M  V30 55599 H 5459.57 2.95087 0.0277394 0
M  V30 55600 H 5459.65 2.06904 -1.50414 0
M  V30 55601 H 5459.3 4.26336 -2.76043 0
M  V30 55602 H 5459.23 5.12661 -1.20361 0
M  V30 55603 H 5461.72 3.56568 -1.25169 0
M  V30 55604 H 5462.03 7.06076 -3.14129 0
M  V30 55605 H 5460.38 6.35275 -2.8187 0
M  V30 55606 H 5463.57 4.38815 -1.6297 0
M  V30 55607 H 5463.74 5.98202 -2.49116 0
M  V30 55608 N 5457.15 0.398539 1.52478 0
M  V30 55609 C 5458.39 -0.180681 2.01692 0
M  V30 55610 C 5458.72 -1.4604 1.28463 0
M  V30 55611 O 5457.98 -1.92049 0.37623 0
M  V30 55612 C 5458.27 -0.485784 3.54083 0
M  V30 55613 C 5457.94 0.703477 4.45379 0
M  V30 55614 C 5456.6 1.02971 4.70054 0
M  V30 55615 C 5458.95 1.49865 4.99189 0
M  V30 55616 C 5456.28 2.1525 5.45788 0
M  V30 55617 C 5458.63 2.61212 5.76152 0
M  V30 55618 C 5457.3 2.94334 5.99103 0
M  V30 55619 H 5456.57 -0.0661157 0.738045 0
M  V30 55620 H 5459.22 0.537785 1.83794 0
M  V30 55621 H 5457.52 -1.28569 3.70104 0
M  V30 55622 H 5459.22 -0.946735 3.89664 0
M  V30 55623 H 5455.81 0.439212 4.26344 0
M  V30 55624 H 5459.99 1.25985 4.80043 0
M  V30 55625 H 5455.25 2.41272 5.61781 0
M  V30 55626 H 5459.42 3.23223 6.16847 0
M  V30 55627 H 5457.05 3.81454 6.57569 0
M  V30 55628 N 5458.62 -1.57074 0.128636 0
M  V30 55629 C 5459.87 -1.95811 -0.527799 0
M  V30 55630 C 5460.2 -1.01259 -1.65711 0
M  V30 55631 O 5459.48 -0.0515537 -1.94432 0
M  V30 55632 C 5459.76 -3.44409 -1.05139 0
M  V30 55633 C 5459.61 -4.49737 0.0751694 0
M  V30 55634 C 5460.93 -3.95075 -1.93916 0
M  V30 55635 H 5458.05 -0.711985 -0.190385 0
M  V30 55636 H 5460.69 -1.88878 0.206147 0
M  V30 55637 H 5458.84 -3.50449 -1.67684 0
M  V30 55638 H 5460.52 -4.5579 0.710845 0
M  V30 55639 H 5458.76 -4.27494 0.736959 0
M  V30 55640 H 5459.43 -5.50997 -0.332585 0
M  V30 55641 H 5461.91 -3.914 -1.41228 0
M  V30 55642 H 5460.78 -4.9955 -2.27466 0
M  V30 55643 H 5461.04 -3.36339 -2.86929 0
M  V30 55644 N 5460.1 0.14515 -1.5693 0
M  V30 55645 C 5461.34 0.863644 -1.85258 0
M  V30 55646 C 5461.71 1.78263 -0.713175 0
M  V30 55647 O 5462.91 2.54072 -0.877548 0
M  V30 55648 C 5461.18 1.61617 -3.18771 0
M  V30 55649 S 5462.74 2.37983 -3.68659 0
M  V30 55650 H 5459.55 0.288769 -0.649718 0
M  V30 55651 H 5462.16 0.123535 -1.95109 0
M  V30 55652 H 5460.86 0.932547 -3.99665 0
M  V30 55653 H 5460.39 2.39715 -3.1193 0
M  V30 55654 H 5462.41 3.63211 -3.38071 0
M  V30 55655 N 5461.58 1.5205 0.414556 0
M  V30 55656 C 5462.99 1.58066 0.993582 0
M  V30 55657 C 5463.34 0.417862 1.91699 0
M  V30 55658 O 5462.47 -0.462484 2.114 0
M  V30 55659 C 5463.06 2.86477 1.80876 0
M  V30 55660 C 5461.62 2.9499 2.33791 0
M  V30 55661 C 5460.77 2.52953 1.13622 0
M  V30 55662 H 5463.72 1.57498 0.194985 0
M  V30 55663 H 5463.74 2.71524 2.66561 0
M  V30 55664 H 5463.25 3.71089 1.13643 0
M  V30 55665 H 5461.35 2.1486 3.04411 0
M  V30 55666 H 5461.47 3.9912 2.65028 0
M  V30 55667 H 5459.83 2.06675 1.48854 0
M  V30 55668 H 5460.61 3.39933 0.479646 0
M  V30 55669 N 5463.06 -0.67145 1.42581 0
M  V30 55670 C 5464.47 -1.25215 1.38485 0
M  V30 55671 C 5464.82 -1.96038 0.0797879 0
M  V30 55672 O 5463.94 -2.00206 -0.821371 0
M  V30 55673 C 5464.54 -2.27727 2.5085 0
M  V30 55674 C 5463.1 -2.81316 2.50077 0
M  V30 55675 C 5462.25 -1.55686 2.29472 0
M  V30 55676 H 5465.2 -0.46462 1.51746 0
M  V30 55677 H 5465.22 -3.09531 2.21294 0
M  V30 55678 H 5464.73 -1.76152 3.45821 0
M  V30 55679 H 5462.83 -3.37003 1.58934 0
M  V30 55680 H 5462.94 -3.30103 3.4723 0
M  V30 55681 H 5461.31 -1.82376 1.77795 0
M  V30 55682 H 5462.09 -1.06072 3.26502 0
M  V30 55683 N 5464.54 -1.28809 -0.908079 0
M  V30 55684 C 5465.48 -1.1309 -2.03257 0
M  V30 55685 C 5466.48 -0.0486689 -1.6933 0
M  V30 55686 O 5467.68 -0.207857 -1.78796 0
M  V30 55687 H 5464.06 -0.34908 -0.666068 0
M  V30 55688 H 5466.03 -2.08312 -2.13656 0
M  V30 55689 C 5464.78 -0.815458 -3.38002 0
M  V30 55690 H 5464.1 -1.6402 -3.64606 0
M  V30 55691 H 5465.54 -0.745458 -4.17395 0
M  V30 55692 C 5464 0.481013 -3.33448 0
M  V30 55693 O 5464.53 1.50961 -3.72255 0
M  V30 55694 N 5462.74 0.483811 -2.86544 0
M  V30 55695 H 5462.28 -0.353682 -2.5516 0
M  V30 55696 H 5462.24 1.35128 -2.8388 0
M  V30 55697 N 5466.01 1.1173 -1.11149 0
M  V30 55698 C 5467.43 1.35409 -0.844783 0
M  V30 55699 C 5467.63 1.94349 0.532043 0
M  V30 55700 O 5466.69 2.17448 1.28346 0
M  V30 55701 C 5468 2.28862 -1.95045 0
M  V30 55702 C 5469.55 2.42435 -1.97976 0
M  V30 55703 C 5470.02 3.39208 -3.07737 0
M  V30 55704 N 5471.51 3.46769 -3.07092 0
M  V30 55705 C 5472.25 4.21581 -3.88661 0
M  V30 55706 N 5471.74 4.99394 -4.80185 0
M  V30 55707 N 5473.54 4.17062 -3.7685 0
M  V30 55708 H 5465.69 0.718341 -1.99884 0
M  V30 55709 H 5467.95 0.378756 -0.86905 0
M  V30 55710 H 5467.66 1.92742 -2.94183 0
M  V30 55711 H 5467.53 3.29054 -1.84401 0
M  V30 55712 H 5469.92 2.77832 -0.994659 0
M  V30 55713 H 5470 1.42106 -2.12696 0
M  V30 55714 H 5469.64 3.04539 -4.06471 0
M  V30 55715 H 5469.57 4.39384 -2.90257 0
M  V30 55716 H 5472.06 2.91264 -2.40778 0
M  V30 55717 H 5472.38 5.53837 -5.38966 0
M  V30 55718 H 5470.72 4.98565 -4.84208 0
M  V30 55719 H 5473.91 3.55358 -3.04694 0
M  V30 55720 H 5474.09 4.75109 -4.40653 0
M  V30 55721 N 5467.49 0.901349 1.29281 0
M  V30 55722 C 5468.9 0.57638 1.7758 0
M  V30 55723 C 5469.25 -0.908017 1.73924 0
M  V30 55724 O 5468.38 -1.71002 1.32617 0
M  V30 55725 C 5468.97 1.0395 3.22459 0
M  V30 55726 C 5467.53 0.765662 3.6853 0
M  V30 55727 C 5466.68 1.21326 2.4935 0
M  V30 55728 H 5469.63 1.0839 1.15919 0
M  V30 55729 H 5469.65 0.3755 3.78643 0
M  V30 55730 H 5469.16 2.11989 3.25088 0
M  V30 55731 H 5467.26 -0.302045 3.71374 0
M  V30 55732 H 5467.38 1.3647 4.59252 0
M  V30 55733 H 5465.74 0.632227 2.46729 0
M  V30 55734 H 5466.52 2.30174 2.54706 0
M  V30 55735 N 5468.97 -1.42929 0.664004 0
M  V30 55736 C 5470.22 -2.01682 0.181809 0
M  V30 55737 C 5470.55 -1.52442 -1.20797 0
M  V30 55738 O 5469.8 -0.712604 -1.82265 0
M  V30 55739 C 5470.1 -3.57071 0.153289 0
M  V30 55740 C 5469.77 -4.25701 1.48627 0
M  V30 55741 C 5468.43 -4.44164 1.85127 0
M  V30 55742 C 5470.78 -4.64472 2.36464 0
M  V30 55743 C 5468.11 -4.98667 3.09109 0
M  V30 55744 C 5470.46 -5.2035 3.59748 0
M  V30 55745 C 5469.12 -5.37028 3.96431 0
M  V30 55746 H 5468.39 -0.738007 0.0665285 0
M  V30 55747 H 5471.04 -1.71261 0.856852 0
M  V30 55748 H 5469.35 -3.87097 -0.605236 0
M  V30 55749 H 5471.04 -4.003 -0.236841 0
M  V30 55750 H 5467.63 -4.11682 1.1923 0
M  V30 55751 H 5471.82 -4.49891 2.09552 0
M  V30 55752 H 5467.07 -5.09764 3.37565 0
M  V30 55753 H 5471.25 -5.49337 4.28021 0
M  V30 55754 H 5468.87 -5.79025 4.92579 0
M  V30 55755 N 5470.45 -0.40662 -1.52264 0
M  V30 55756 C 5471.86 -0.0573789 -1.59497 0
M  V30 55757 C 5472.06 1.43 -1.41962 0
M  V30 55758 O 5471.12 2.19655 -1.24531 0
M  V30 55759 C 5472.43 -0.550051 -2.95626 0
M  V30 55760 C 5473.98 -0.507809 -3.08853 0
M  V30 55761 C 5474.46 -0.97695 -4.47459 0
M  V30 55762 N 5475.95 -0.933667 -4.53693 0
M  V30 55763 C 5476.68 -1.26788 -5.59207 0
M  V30 55764 N 5476.18 -1.67344 -6.72286 0
M  V30 55765 N 5477.97 -1.18802 -5.49402 0
M  V30 55766 H 5470.12 -1.37474 -1.61909 0
M  V30 55767 H 5472.39 -0.564588 -0.76154 0
M  V30 55768 H 5472.09 -1.58954 -3.1373 0
M  V30 55769 H 5471.97 0.0416441 -3.77177 0
M  V30 55770 H 5474.35 0.522626 -2.90435 0
M  V30 55771 H 5474.43 -1.13553 -2.29215 0
M  V30 55772 H 5474.08 -2.0057 -4.6662 0
M  V30 55773 H 5474.01 -0.32607 -5.2559 0
M  V30 55774 H 5476.5 -0.635464 -3.72519 0
M  V30 55775 H 5476.81 -1.91163 -7.48783 0
M  V30 55776 H 5475.16 -1.71245 -6.73573 0
M  V30 55777 H 5478.35 -0.870068 -4.59943 0
M  V30 55778 H 5478.52 -1.45179 -6.31528 0
M  V30 55779 N 5471.93 1.57004 -0.136964 0
M  V30 55780 C 5473.17 1.97688 0.519513 0
M  V30 55781 C 5473.53 1.01957 1.62692 0
M  V30 55782 O 5474.73 1.31647 2.34356 0
M  V30 55783 C 5473 3.42478 1.02194 0
M  V30 55784 S 5474.56 4.05182 1.68442 0
M  V30 55785 H 5471.38 0.690793 0.168305 0
M  V30 55786 H 5473.98 1.94186 -0.226302 0
M  V30 55787 H 5472.69 4.09887 0.20505 0
M  V30 55788 H 5472.22 3.49671 1.80261 0
M  V30 55789 H 5474.23 3.97411 2.97118 0
M  V30 55790 N 5473.4 -0.136826 1.57005 0
M  V30 55791 C 5474.35 -1.16862 1.99028 0
M  V30 55792 C 5475.32 -1.42134 0.859485 0
M  V30 55793 O 5476.51 -1.54299 1.12234 0
M  V30 55794 C 5473.65 -2.49458 2.38463 0
M  V30 55795 C 5472.76 -2.31273 3.64879 0
M  V30 55796 C 5471.89 -3.56975 3.93373 0
M  V30 55797 C 5470.93 -3.33871 5.13027 0
M  V30 55798 N 5470.07 -4.51729 5.3748 0
M  V30 55799 H 5474.91 -0.803265 2.8697 0
M  V30 55800 H 5472.45 -0.385166 1.41968 0
M  V30 55801 H 5474.41 -3.26785 2.59359 0
M  V30 55802 H 5473.04 -2.83921 1.53587 0
M  V30 55803 H 5472.09 -1.4495 3.51701 0
M  V30 55804 H 5473.4 -2.10167 4.52362 0
M  V30 55805 H 5472.55 -4.42728 4.14822 0
M  V30 55806 H 5471.29 -3.81095 3.04331 0
M  V30 55807 H 5470.3 -2.46507 4.91441 0
M  V30 55808 H 5471.52 -3.11139 6.0363 0
M  V30 55809 H 5469.47 -4.76004 4.51394 0
M  V30 55810 H 5469.39 -4.33663 6.19252 0
M  V30 55811 H 5470.65 -5.38666 5.63435 0
M  V30 55812 N 5474.88 -1.52268 -0.406486 0
M  V30 55813 C 5475.83 -1.76414 -1.51594 0
M  V30 55814 C 5476.82 -0.631366 -1.57195 0
M  V30 55815 O 5478.03 -0.813469 -1.6057 0
M  V30 55816 H 5474.41 -0.557921 -0.50421 0
M  V30 55817 H 5476.38 -2.69356 -1.28414 0
M  V30 55818 C 5475.13 -1.93425 -2.88933 0
M  V30 55819 H 5474.45 -2.80011 -2.85367 0
M  V30 55820 H 5475.89 -2.14319 -3.65846 0
M  V30 55821 C 5474.35 -0.702053 -3.29504 0
M  V30 55822 O 5474.88 0.128824 -4.01493 0
M  V30 55823 N 5473.08 -0.53719 -2.85592 0
M  V30 55824 H 5472.63 -1.21443 -2.27177 0
M  V30 55825 H 5472.59 0.285945 -3.13097 0
M  V30 55826 N 5476.36 0.663879 -1.42935 0
M  V30 55827 C 5477.64 1.4205 -1.34467 0
M  V30 55828 C 5478.02 2.11096 0.0127058 0
M  V30 55829 O 5477.37 2.04031 1.02877 0
M  V30 55830 C 5477.58 2.41397 -2.52049 0
M  V30 55831 C 5478.92 3.05716 -2.94657 0
M  V30 55832 O 5479.95 2.51725 -2.52018 0
M  V30 55833 O 5478.81 4.0358 -3.68491 0
M  V30 55834 H 5475.9 0.63413 -0.530856 0
M  V30 55835 H 5478.45 0.691683 -1.54964 0
M  V30 55836 H 5477.22 1.89251 -3.42491 0
M  V30 55837 H 5476.84 3.21744 -2.33595 0
M  V30 55838 N 5477.84 1.29288 0.901235 0
M  V30 55839 C 5479.25 1.07267 1.18178 0
M  V30 55840 C 5479.45 -0.177016 2.00721 0
M  V30 55841 O 5478.51 -0.875209 2.36847 0
M  V30 55842 C 5479.82 2.32723 1.90421 0
M  V30 55843 C 5481.37 2.38027 2.03254 0
M  V30 55844 C 5481.85 3.63283 2.78907 0
M  V30 55845 N 5483.34 3.63997 2.86462 0
M  V30 55846 C 5484.07 4.57597 3.45533 0
M  V30 55847 N 5483.57 5.61527 4.05782 0
M  V30 55848 N 5485.36 4.45169 3.43192 0
M  V30 55849 H 5477.51 2.09489 0.350462 0
M  V30 55850 H 5479.78 0.922654 0.217746 0
M  V30 55851 H 5479.48 3.23833 1.37204 0
M  V30 55852 H 5479.36 2.40113 2.90905 0
M  V30 55853 H 5481.74 1.47407 2.55647 0
M  V30 55854 H 5481.82 2.34624 1.01908 0
M  V30 55855 H 5481.47 4.54254 2.2719 0
M  V30 55856 H 5481.4 3.63944 3.80595 0
M  V30 55857 H 5483.89 2.88849 2.43669 0
M  V30 55858 H 5484.2 6.29074 4.48872 0
M  V30 55859 H 5482.55 5.65339 4.04249 0
M  V30 55860 H 5485.74 3.63168 2.95341 0
M  V30 55861 H 5485.91 5.183 3.88934 0
M  V30 55862 N 5479.32 -1.11139 1.1174 0
M  V30 55863 C 5480.56 -1.83216 0.869478 0
M  V30 55864 C 5480.9 -1.8459 -0.603337 0
M  V30 55865 O 5480.17 -1.30124 -1.44561 0
M  V30 55866 C 5480.45 -3.30242 1.4357 0
M  V30 55867 C 5480.31 -3.37243 2.97636 0
M  V30 55868 C 5481.63 -4.26408 1.08922 0
M  V30 55869 H 5478.74 -0.665194 0.31731 0
M  V30 55870 H 5481.39 -1.30302 1.3828 0
M  V30 55871 H 5479.54 -3.75433 0.99911 0
M  V30 55872 H 5481.21 -3.00587 3.49922 0
M  V30 55873 H 5479.45 -2.77367 3.33542 0
M  V30 55874 H 5480.12 -4.4074 3.32344 0
M  V30 55875 H 5482.6 -3.89413 1.46618 0
M  V30 55876 H 5481.47 -5.27661 1.51213 0
M  V30 55877 H 5481.74 -4.421 0.000414429 0
M  V30 55878 N 5480.79 -0.908192 -1.28801 0
M  V30 55879 C 5482.03 -0.545495 -1.96987 0
M  V30 55880 C 5482.4 0.893166 -1.6996 0
M  V30 55881 O 5483.6 1.36316 -2.31671 0
M  V30 55882 C 5481.87 -0.839652 -3.47397 0
M  V30 55883 S 5483.43 -0.582538 -4.34916 0
M  V30 55884 H 5480.25 -0.202051 -0.681686 0
M  V30 55885 H 5482.85 -1.17245 -1.56441 0
M  V30 55886 H 5481.55 -1.88476 -3.64561 0
M  V30 55887 H 5481.08 -0.201137 -3.92885 0
M  V30 55888 H 5483.1 0.568633 -4.92931 0
M  V30 55889 N 5482.27 1.42575 -0.671575 0
M  V30 55890 C 5483.2 2.33499 -0.00515193 0
M  V30 55891 C 5484.18 1.505 0.79271 0
M  V30 55892 O 5485.37 1.79112 0.750511 0
M  V30 55893 C 5482.5 3.34081 0.949076 0
M  V30 55894 C 5481.45 4.27209 0.260036 0
M  V30 55895 C 5480.78 5.17972 1.32698 0
M  V30 55896 C 5482.08 5.15189 -0.858953 0
M  V30 55897 H 5483.77 2.89475 -0.764508 0
M  V30 55898 H 5481.32 1.39189 -0.369091 0
M  V30 55899 H 5483.27 3.96599 1.42434 0
M  V30 55900 H 5482 2.76402 1.73981 0
M  V30 55901 H 5480.65 3.66081 -0.194963 0
M  V30 55902 H 5480.3 4.56622 2.10962 0
M  V30 55903 H 5480 5.81107 0.871089 0
M  V30 55904 H 5481.53 5.83366 1.80324 0
M  V30 55905 H 5482.94 5.71411 -0.465045 0
M  V30 55906 H 5481.34 5.8714 -1.24044 0
M  V30 55907 H 5482.41 4.53781 -1.70911 0
M  V30 55908 N 5483.75 0.414689 1.52046 0
M  V30 55909 C 5485 -0.151874 2.02832 0
M  V30 55910 C 5485.35 -1.42333 1.29457 0
M  V30 55911 O 5484.65 -1.87507 0.393896 0
M  V30 55912 C 5484.84 -0.448202 3.54578 0
M  V30 55913 C 5484.67 0.792982 4.42653 0
M  V30 55914 C 5483.44 1.31983 4.87759 0
M  V30 55915 C 5485.64 1.6727 4.86339 0
M  V30 55916 N 5483.62 2.51592 5.59977 0
M  V30 55917 C 5484.99 2.71499 5.57394 0
M  V30 55918 C 5487.04 1.6898 4.68348 0
M  V30 55919 C 5485.75 3.77356 6.12369 0
M  V30 55920 C 5487.77 2.73758 5.24224 0
M  V30 55921 C 5487.14 3.76708 5.95206 0
M  V30 55922 H 5483.23 -0.0169972 0.781815 0
M  V30 55923 H 5485.82 0.570284 1.86161 0
M  V30 55924 H 5483.99 -1.1394 3.71311 0
M  V30 55925 H 5485.72 -1.00413 3.92045 0
M  V30 55926 H 5482.48 0.877048 4.65408 0
M  V30 55927 H 5482.9 3.12182 6.00726 0
M  V30 55928 H 5487.54 0.907248 4.12951 0
M  V30 55929 H 5485.26 4.56463 6.66834 0
M  V30 55930 H 5488.85 2.75996 5.12169 0
M  V30 55931 H 5487.73 4.56453 6.37668 0
M  V30 55932 N 5485.23 -1.56929 0.145288 0
M  V30 55933 C 5486.48 -1.95245 -0.506204 0
M  V30 55934 C 5486.79 -1.03255 -1.66125 0
M  V30 55935 O 5488 -1.31143 -2.37726 0
M  V30 55936 C 5486.45 -3.47083 -0.95192 0
M  V30 55937 C 5486.06 -4.47654 0.176104 0
M  V30 55938 C 5487.81 -3.94268 -1.5733 0
M  V30 55939 C 5485.71 -5.90699 -0.287785 0
M  V30 55940 H 5484.64 -0.728913 -0.192877 0
M  V30 55941 H 5487.29 -1.82061 0.229359 0
M  V30 55942 H 5485.68 -3.55593 -1.74269 0
M  V30 55943 H 5486.85 -4.50837 0.953006 0
M  V30 55944 H 5485.16 -4.10375 0.705785 0
M  V30 55945 H 5487.76 -4.98577 -1.93197 0
M  V30 55946 H 5488.1 -3.35723 -2.46162 0
M  V30 55947 H 5488.64 -3.88668 -0.847456 0
M  V30 55948 H 5485.38 -6.53059 0.565119 0
M  V30 55949 H 5484.9 -5.9088 -1.0306 0
M  V30 55950 H 5486.58 -6.4275 -0.74036 0
M  V30 55951 N 5486.71 0.128498 -1.57075 0
M  V30 55952 C 5487.96 0.83629 -1.83985 0
M  V30 55953 C 5488.28 1.80859 -0.729035 0
M  V30 55954 O 5487.55 1.94327 0.247791 0
M  V30 55955 H 5486.13 0.311827 -0.678803 0
M  V30 55956 H 5488.79 0.118085 -1.94542 0
M  V30 55957 H 5487.88 1.38731 -2.79571 0
M  V30 55958 N 5488.19 1.52481 0.398405 0
M  V30 55959 C 5489.6 1.41522 0.737804 0
M  V30 55960 C 5489.8 0.528191 1.94454 0
M  V30 55961 O 5488.86 -0.00194923 2.525 0
M  V30 55962 C 5490.17 2.84224 0.9817 0
M  V30 55963 C 5491.72 2.93639 1.08375 0
M  V30 55964 C 5492.19 4.37331 1.36034 0
M  V30 55965 N 5493.68 4.40614 1.42876 0
M  V30 55966 C 5494.42 5.48868 1.65925 0
M  V30 55967 N 5493.92 6.67224 1.86506 0
M  V30 55968 N 5495.71 5.36398 1.68027 0
M  V30 55969 H 5487.86 2.0868 -0.395778 0
M  V30 55970 H 5490.12 0.941019 -0.114835 0
M  V30 55971 H 5489.83 3.51302 0.167235 0
M  V30 55972 H 5489.7 3.25914 1.89895 0
M  V30 55973 H 5492.09 2.26734 1.8888 0
M  V30 55974 H 5492.17 2.55391 0.144625 0
M  V30 55975 H 5491.81 5.04799 0.560433 0
M  V30 55976 H 5491.74 4.73124 2.31217 0
M  V30 55977 H 5494.24 3.55303 1.28717 0
M  V30 55978 H 5494.55 7.45505 2.03573 0
M  V30 55979 H 5492.89 6.7027 1.83749 0
M  V30 55980 H 5496.08 4.42908 1.51493 0
M  V30 55981 H 5496.26 6.20837 1.8565 0
M  V30 55982 N 5489.66 -0.656289 1.43285 0
M  V30 55983 C 5490.6 -1.78179 1.4417 0
M  V30 55984 C 5491.61 -1.59248 0.338233 0
M  V30 55985 O 5492.8 -1.68025 0.602479 0
M  V30 55986 C 5489.9 -3.15562 1.23589 0
M  V30 55987 C 5489.07 -3.61178 2.46716 0
M  V30 55988 C 5488.13 -4.77354 2.21405 0
M  V30 55989 O 5487.16 -4.8695 2.94735 0
M  V30 55990 N 5488.36 -5.67346 1.22875 0
M  V30 55991 H 5491.12 -1.77899 2.41189 0
M  V30 55992 H 5488.68 -0.840028 1.38402 0
M  V30 55993 H 5490.68 -3.90964 1.04543 0
M  V30 55994 H 5489.25 -3.10631 0.350264 0
M  V30 55995 H 5488.47 -2.76254 2.81207 0
M  V30 55996 H 5489.75 -3.88402 3.28666 0
M  V30 55997 H 5489.15 -5.62263 0.622615 0
M  V30 55998 H 5487.71 -6.42483 1.09813 0
M  V30 55999 N 5491.14 -1.29765 -0.894366 0
M  V30 56000 C 5492.38 -1.19319 -1.65959 0
M  V30 56001 C 5492.75 0.250153 -1.90363 0
M  V30 56002 O 5493.95 0.477686 -2.64521 0
M  V30 56003 C 5492.22 -1.98945 -2.9691 0
M  V30 56004 S 5493.78 -2.05092 -3.87921 0
M  V30 56005 H 5490.59 -0.42537 -0.56972 0
M  V30 56006 H 5493.2 -1.6412 -1.0623 0
M  V30 56007 H 5491.9 -3.02941 -2.76866 0
M  V30 56008 H 5491.43 -1.54769 -3.61677 0
M  V30 56009 H 5493.45 -1.17148 -4.82173 0
M  V30 56010 N 5492.62 1.10545 -1.12328 0
M  V30 56011 C 5493.9 1.78965 -0.78935 0
M  V30 56012 C 5494.28 1.98403 0.721086 0
M  V30 56013 O 5493.62 1.57616 1.65437 0
M  V30 56014 C 5493.83 3.12038 -1.56311 0
M  V30 56015 C 5495.18 3.86933 -1.74838 0
M  V30 56016 O 5496.21 3.21755 -1.52814 0
M  V30 56017 O 5495.07 5.03912 -2.11506 0
M  V30 56018 H 5492.16 0.775607 -0.28699 0
M  V30 56019 H 5494.71 1.17205 -1.22724 0
M  V30 56020 H 5493.48 2.93303 -2.59015 0
M  V30 56021 H 5493.1 3.81517 -1.1194 0
M  V30 56022 N 5494.1 0.91501 1.28317 0
M  V30 56023 C 5495.35 0.547733 1.94536 0
M  V30 56024 C 5495.67 -0.911773 1.72371 0
M  V30 56025 O 5494.94 -1.64478 1.06414 0
M  V30 56026 H 5493.52 0.199575 0.719846 0
M  V30 56027 H 5496.18 1.16464 1.56276 0
M  V30 56028 H 5495.27 0.743244 3.03121 0
M  V30 56029 N 5495.58 -1.42217 0.679127 0
M  V30 56030 C 5496.8 -2.05814 0.211721 0
M  V30 56031 C 5497.22 -1.51041 -1.13278 0
M  V30 56032 O 5496.58 -0.651954 -1.70458 0
M  V30 56033 C 5496.63 -3.61218 0.14279 0
M  V30 56034 O 5496.35 -4.1396 1.43417 0
M  V30 56035 C 5497.85 -4.41935 -0.347591 0
M  V30 56036 H 5495.07 -0.663212 0.101938 0
M  V30 56037 H 5497.61 -1.82278 0.927082 0
M  V30 56038 H 5495.77 -3.8385 -0.523285 0
M  V30 56039 H 5496.18 -5.07867 1.31038 0
M  V30 56040 H 5497.66 -5.50923 -0.344722 0
M  V30 56041 H 5498.13 -4.16836 -1.38362 0
M  V30 56042 H 5498.74 -4.24331 0.286901 0
M  V30 56043 N 5497.05 -0.422747 -1.51824 0
M  V30 56044 C 5498.33 0.207792 -1.94493 0
M  V30 56045 C 5498.71 1.61409 -1.36053 0
M  V30 56046 O 5498.06 2.21985 -0.541735 0
M  V30 56047 C 5498.27 0.200335 -3.48425 0
M  V30 56048 C 5499.62 0.413051 -4.22586 0
M  V30 56049 O 5500.64 0.279096 -3.55105 0
M  V30 56050 O 5499.5 0.678278 -5.42275 0
M  V30 56051 H 5496.59 0.137822 -0.815435 0
M  V30 56052 H 5499.14 -0.479674 -1.6278 0
M  V30 56053 H 5497.91 -0.783398 -3.83378 0
M  V30 56054 H 5497.53 0.931328 -3.86539 0
M  V30 56055 N 5498.53 1.5685 -0.153609 0
M  V30 56056 C 5499.48 2.18388 0.80059 0
M  V30 56057 C 5500.47 1.14277 1.25049 0
M  V30 56058 O 5501.68 1.32514 1.2182 0
M  V30 56059 H 5498.06 0.699362 0.276401 0
M  V30 56060 H 5500.03 2.97287 0.257431 0
M  V30 56061 C 5498.78 2.82504 2.02698 0
M  V30 56062 H 5498.1 3.62334 1.68979 0
M  V30 56063 H 5499.54 3.29056 2.67391 0
M  V30 56064 C 5498 1.81353 2.83924 0
M  V30 56065 O 5498.53 1.28806 3.80489 0
M  V30 56066 N 5496.73 1.50508 2.48588 0
M  V30 56067 H 5496.28 1.93431 1.70124 0
M  V30 56068 H 5496.24 0.830779 3.03225 0
M  V30 56069 N 5500.01 -0.120166 1.57141 0
M  V30 56070 C 5501.25 -0.834062 1.86609 0
M  V30 56071 C 5501.61 -1.77106 0.741445 0
M  V30 56072 O 5502.82 -2.52644 0.917857 0
M  V30 56073 C 5501.09 -1.56525 3.21302 0
M  V30 56074 S 5502.65 -2.32088 3.72399 0
M  V30 56075 H 5499.46 -0.278396 0.65423 0
M  V30 56076 H 5502.07 -0.0924787 1.95281 0
M  V30 56077 H 5500.77 -0.868846 4.01098 0
M  V30 56078 H 5500.3 -2.34722 3.15704 0
M  V30 56079 H 5502.32 -3.57787 3.43807 0
M  V30 56080 N 5501.49 -1.5269 -0.390313 0
M  V30 56081 C 5502.74 -1.67339 -1.13323 0
M  V30 56082 C 5503.06 -0.415135 -1.9053 0
M  V30 56083 O 5502.33 0.570438 -1.87411 0
M  V30 56084 H 5500.91 -0.616836 -0.421335 0
M  V30 56085 H 5503.57 -1.898 -0.442933 0
M  V30 56086 H 5502.67 -2.5232 -1.83687 0
M  V30 56087 N 5502.97 0.648681 -1.43631 0
M  V30 56088 C 5504.24 1.40616 -1.35966 0
M  V30 56089 C 5504.62 2.11098 -0.00968444 0
M  V30 56090 O 5503.97 2.05111 1.00707 0
M  V30 56091 C 5504.18 2.3871 -2.54595 0
M  V30 56092 C 5505.53 3.02573 -2.97883 0
M  V30 56093 O 5506.55 2.49037 -2.54674 0
M  V30 56094 O 5505.41 3.99649 -3.7275 0
M  V30 56095 H 5502.51 0.628464 -0.537552 0
M  V30 56096 H 5505.05 0.675208 -1.55689 0
M  V30 56097 H 5503.82 1.85607 -3.44479 0
M  V30 56098 H 5503.45 3.19248 -2.36994 0
M  V30 56099 N 5504.44 1.30237 0.887472 0
M  V30 56100 C 5505.69 1.18681 1.63582 0
M  V30 56101 C 5506.01 -0.259274 1.93269 0
M  V30 56102 O 5505.28 -1.17517 1.56737 0
M  V30 56103 H 5503.86 0.436246 0.606382 0
M  V30 56104 H 5506.53 1.6333 1.06345 0
M  V30 56105 H 5505.62 1.74584 2.58702 0
M  V30 56106 N 5505.92 -1.09948 1.12913 0
M  V30 56107 C 5507.15 -1.85786 0.910549 0
M  V30 56108 C 5507.57 -1.809 -0.54042 0
M  V30 56109 O 5506.92 -1.20131 -1.37385 0
M  V30 56110 C 5506.97 -3.33982 1.3834 0
M  V30 56111 O 5506.69 -3.38801 2.77751 0
M  V30 56112 C 5508.2 -4.26679 1.20249 0
M  V30 56113 H 5505.42 -0.587015 0.325046 0
M  V30 56114 H 5507.96 -1.3896 1.50035 0
M  V30 56115 H 5506.11 -3.78256 0.836725 0
M  V30 56116 H 5506.53 -4.31193 2.98618 0
M  V30 56117 H 5508 -5.2884 1.58216 0
M  V30 56118 H 5508.48 -4.38965 0.143594 0
M  V30 56119 H 5509.09 -3.88215 1.73692 0
M  V30 56120 N 5507.4 -0.921802 -1.2783 0
M  V30 56121 C 5508.68 -0.477773 -1.89675 0
M  V30 56122 C 5509.06 1.04386 -1.83485 0
M  V30 56123 O 5508.41 1.89545 -1.27613 0
M  V30 56124 C 5508.62 -1.01721 -3.33847 0
M  V30 56125 C 5509.96 -1.07414 -4.10789 0
M  V30 56126 O 5510.99 -0.966416 -3.42839 0
M  V30 56127 O 5509.85 -1.23928 -5.32263 0
M  V30 56128 H 5506.94 -0.152739 -0.812773 0
M  V30 56129 H 5509.49 -1.01311 -1.3614 0
M  V30 56130 H 5508.26 -2.06112 -3.32616 0
M  V30 56131 H 5507.88 -0.46317 -3.94893 0
M  V30 56132 N 5508.88 1.41855 -0.686659 0
M  V30 56133 C 5509.79 2.34595 -0.015983 0
M  V30 56134 C 5510.8 1.55744 0.775878 0
M  V30 56135 O 5511.98 1.88263 0.715484 0
M  V30 56136 C 5509.05 3.34398 0.915355 0
M  V30 56137 C 5508.11 4.29141 0.1167 0
M  V30 56138 C 5507.34 5.24177 1.00368 0
M  V30 56139 O 5507.56 5.24439 2.24322 0
M  V30 56140 O 5506.5 6.00154 0.458126 0
M  V30 56141 H 5510.32 2.93507 -0.780205 0
M  V30 56142 H 5507.91 1.42558 -0.446946 0
M  V30 56143 H 5509.79 3.9568 1.44967 0
M  V30 56144 H 5508.46 2.77942 1.65922 0
M  V30 56145 H 5507.37 3.71236 -0.462002 0
M  V30 56146 H 5508.7 4.88671 -0.588309 0
M  V30 56147 N 5510.36 0.430792 1.51598 0
M  V30 56148 C 5511.27 -0.390266 2.31331 0
M  V30 56149 C 5512.28 -1.03371 1.39966 0
M  V30 56150 O 5513.46 -1.03051 1.73039 0
M  V30 56151 C 5510.52 -1.48028 3.1351 0
M  V30 56152 C 5509.58 -0.857644 4.20646 0
M  V30 56153 C 5508.82 -1.89572 4.98897 0
M  V30 56154 O 5509.04 -3.117 4.77702 0
M  V30 56155 O 5507.97 -1.48989 5.83169 0
M  V30 56156 H 5511.8 0.260465 3.02581 0
M  V30 56157 H 5509.39 0.19348 1.48142 0
M  V30 56158 H 5511.27 -2.11259 3.6462 0
M  V30 56159 H 5509.94 -2.11521 2.45032 0
M  V30 56160 H 5508.85 -0.187461 3.7363 0
M  V30 56161 H 5510.18 -0.266301 4.91479 0
M  V30 56162 N 5511.83 -1.56766 0.161924 0
M  V30 56163 C 5513.11 -1.88246 -0.531286 0
M  V30 56164 C 5513.49 -1.07032 -1.81955 0
M  V30 56165 O 5512.84 -0.161465 -2.27929 0
M  V30 56166 C 5513.05 -3.40119 -0.782296 0
M  V30 56167 C 5514.4 -4.09659 -1.11647 0
M  V30 56168 O 5515.42 -3.45383 -0.871152 0
M  V30 56169 O 5514.28 -5.23197 -1.57882 0
M  V30 56170 H 5511.37 -0.780735 -0.272731 0
M  V30 56171 H 5513.92 -1.68521 0.199656 0
M  V30 56172 H 5512.69 -3.91088 0.128815 0
M  V30 56173 H 5512.32 -3.65423 -1.56689 0
M  V30 56174 N 5513.31 0.11183 -1.57203 0
M  V30 56175 C 5514.55 0.824154 -1.87048 0
M  V30 56176 C 5514.92 1.7671 -0.750827 0
M  V30 56177 O 5516.12 2.52153 -0.931243 0
M  V30 56178 C 5514.39 1.54819 -3.22127 0
M  V30 56179 S 5515.95 2.3011 -3.73624 0
M  V30 56180 H 5512.77 0.274922 -0.655697 0
M  V30 56181 H 5515.37 0.0821212 -1.95327 0
M  V30 56182 H 5514.07 0.847563 -4.01553 0
M  V30 56183 H 5513.6 2.33045 -3.16944 0
M  V30 56184 H 5515.62 3.55958 -3.45699 0
M  V30 56185 N 5514.79 1.52895 0.38221 0
M  V30 56186 C 5515.7 1.81089 1.49144 0
M  V30 56187 C 5516.72 0.698101 1.59382 0
M  V30 56188 O 5517.89 0.986412 1.7559 0
M  V30 56189 C 5514.96 1.97997 2.84601 0
M  V30 56190 C 5514.02 3.2191 2.84029 0
M  V30 56191 C 5513.25 3.38002 4.13026 0
M  V30 56192 O 5513.48 2.58751 5.08335 0
M  V30 56193 O 5512.41 4.31288 4.19851 0
M  V30 56194 H 5516.24 2.75293 1.28247 0
M  V30 56195 H 5513.82 1.3807 0.570711 0
M  V30 56196 H 5515.7 2.10786 3.64893 0
M  V30 56197 H 5514.38 1.06983 3.0551 0
M  V30 56198 H 5513.28 3.14559 2.02494 0
M  V30 56199 H 5514.62 4.12793 2.68073 0
M  V30 56200 N 5516.27 -0.641055 1.43973 0
M  V30 56201 C 5517.68 -1.22249 1.4111 0
M  V30 56202 C 5518.03 -1.95824 0.121352 0
M  V30 56203 O 5517.16 -2.01903 -0.778719 0
M  V30 56204 C 5517.75 -2.22355 2.55624 0
M  V30 56205 C 5516.31 -2.75948 2.55987 0
M  V30 56206 C 5515.46 -1.50783 2.32722 0
M  V30 56207 H 5518.41 -0.432328 1.52698 0
M  V30 56208 H 5518.43 -3.04767 2.2781 0
M  V30 56209 H 5517.94 -1.68777 3.49479 0
M  V30 56210 H 5516.04 -3.33556 1.66046 0
M  V30 56211 H 5516.16 -3.22664 3.54154 0
M  V30 56212 H 5514.52 -1.78564 1.81623 0
M  V30 56213 H 5515.3 -0.991228 3.28679 0
M  V30 56214 N 5517.75 -1.30706 -0.880552 0
M  V30 56215 C 5519.16 -1.17823 -1.44826 0
M  V30 56216 C 5519.51 0.219388 -1.9497 0
M  V30 56217 O 5518.63 1.1164 -1.85379 0
M  V30 56218 C 5519.23 -2.13285 -2.6324 0
M  V30 56219 C 5517.79 -2.04367 -3.16087 0
M  V30 56220 C 5516.94 -2.03115 -1.88785 0
M  V30 56221 H 5519.89 -1.42911 -0.690075 0
M  V30 56222 H 5519.91 -1.71626 -3.39595 0
M  V30 56223 H 5519.42 -3.14996 -2.26714 0
M  V30 56224 H 5517.52 -1.05813 -3.5726 0
M  V30 56225 H 5517.63 -2.92967 -3.79087 0
M  V30 56226 H 5516 -1.47979 -2.07303 0
M  V30 56227 H 5516.78 -3.06564 -1.54511 0
M  V30 56228 N 5519.23 1.09347 -1.13494 0
M  V30 56229 C 5520.45 1.85301 -0.920389 0
M  V30 56230 C 5520.87 1.81184 0.530819 0
M  V30 56231 O 5520.23 1.20858 1.36746 0
M  V30 56232 C 5520.28 3.33244 -1.4011 0
M  V30 56233 O 5520 3.37323 -2.79543 0
M  V30 56234 C 5521.5 4.26035 -1.2251 0
M  V30 56235 H 5518.72 0.585283 -0.328154 0
M  V30 56236 H 5521.26 1.38162 -1.50769 0
M  V30 56237 H 5519.42 3.77807 -0.856773 0
M  V30 56238 H 5519.83 4.29604 -3.009 0
M  V30 56239 H 5521.31 5.27993 -1.61018 0
M  V30 56240 H 5521.78 4.38883 -0.166871 0
M  V30 56241 H 5522.39 3.87289 -1.75749 0
M  V30 56242 N 5520.7 0.928568 1.2734 0
M  V30 56243 C 5521.67 0.432999 2.25073 0
M  V30 56244 C 5522.67 -0.448922 1.54406 0
M  V30 56245 O 5523.86 -0.249879 1.72399 0
M  V30 56246 C 5520.99 -0.37742 3.38804 0
M  V30 56247 H 5522.18 1.29652 2.70426 0
M  V30 56248 H 5519.73 0.709338 1.39277 0
M  V30 56249 H 5520.47 -1.25972 2.98834 0
M  V30 56250 H 5520.25 0.25492 3.9127 0
M  V30 56251 H 5521.74 -0.714489 4.11442 0
M  V30 56252 N 5522.18 -1.41489 0.694172 0
M  V30 56253 C 5523.13 -2.27999 0.00482493 0
M  V30 56254 C 5524.12 -1.42127 -0.754231 0
M  V30 56255 O 5525.31 -1.6541 -0.629954 0
M  V30 56256 C 5522.44 -3.30411 -0.931837 0
M  V30 56257 C 5521.52 -4.23763 -0.169102 0
M  V30 56258 N 5521.91 -4.98837 0.836357 0
M  V30 56259 C 5520.21 -4.44159 -0.404784 0
M  V30 56260 C 5520.91 -5.67152 1.2928 0
M  V30 56261 N 5519.89 -5.40064 0.61899 0
M  V30 56262 H 5523.69 -2.83477 0.775752 0
M  V30 56263 H 5521.2 -1.53684 0.524888 0
M  V30 56264 H 5523.2 -3.91211 -1.44083 0
M  V30 56265 H 5521.86 -2.76495 -1.70238 0
M  V30 56266 H 5522.87 -5.03409 1.21655 0
M  V30 56267 H 5519.55 -4.01254 -1.15332 0
M  V30 56268 H 5520.94 -6.37343 2.12706 0
M  V30 56269 N 5523.66 -0.438826 -1.51367 0
M  V30 56270 C 5524.89 0.125774 -2.06517 0
M  V30 56271 C 5525.3 1.36332 -1.3061 0
M  V30 56272 O 5524.66 1.7879 -0.366092 0
M  V30 56273 C 5524.71 0.446493 -3.58732 0
M  V30 56274 O 5524.43 -0.741933 -4.31772 0
M  V30 56275 C 5525.93 1.0616 -4.30401 0
M  V30 56276 H 5523.15 0.00726509 -0.670961 0
M  V30 56277 H 5525.7 -0.618336 -1.94928 0
M  V30 56278 H 5523.85 1.14051 -3.70231 0
M  V30 56279 H 5524.27 -0.46709 -5.22416 0
M  V30 56280 H 5525.74 1.236 -5.37984 0
M  V30 56281 H 5526.22 2.04303 -3.88789 0
M  V30 56282 H 5526.82 0.406931 -4.23349 0
M  V30 56283 N 5525.14 1.56678 -0.170236 0
M  V30 56284 C 5526.37 2.01224 0.481292 0
M  V30 56285 C 5526.78 1.05045 1.56879 0
M  V30 56286 O 5526.14 0.0511393 1.82428 0
M  V30 56287 C 5526.19 3.45591 1.06061 0
M  V30 56288 O 5525.91 4.38097 0.0165214 0
M  V30 56289 C 5527.41 4.05533 1.79047 0
M  V30 56290 H 5524.63 0.659578 0.123277 0
M  V30 56291 H 5527.17 2.02688 -0.271648 0
M  V30 56292 H 5525.33 3.44906 1.76405 0
M  V30 56293 H 5525.74 5.22617 0.444092 0
M  V30 56294 H 5527.22 5.08475 2.14843 0
M  V30 56295 H 5527.69 3.47564 2.68507 0
M  V30 56296 H 5528.3 4.09918 1.13347 0
M  V30 56297 N 5526.62 -0.103492 1.5726 0
M  V30 56298 C 5527.57 -1.13232 1.97895 0
M  V30 56299 C 5528.55 -1.36231 0.856152 0
M  V30 56300 O 5529.74 -1.37063 1.11994 0
M  V30 56301 C 5526.87 -2.45481 2.39987 0
M  V30 56302 C 5525.96 -2.25892 3.58934 0
M  V30 56303 N 5526.35 -1.7615 4.74136 0
M  V30 56304 C 5524.65 -2.5649 3.64868 0
M  V30 56305 C 5525.35 -1.70634 5.56111 0
M  V30 56306 N 5524.32 -2.15544 4.99041 0
M  V30 56307 H 5528.12 -0.740538 2.84417 0
M  V30 56308 H 5525.64 -0.311035 1.59394 0
M  V30 56309 H 5527.64 -3.19913 2.67323 0
M  V30 56310 H 5526.3 -2.85404 1.54837 0
M  V30 56311 H 5527.31 -1.4547 4.9705 0
M  V30 56312 H 5523.98 -2.99995 2.90361 0
M  V30 56313 H 5525.37 -1.33298 6.58545 0
M  V30 56314 N 5528.09 -1.53096 -0.374097 0
M  V30 56315 C 5529.33 -1.70562 -1.12641 0
M  V30 56316 C 5529.7 -0.443581 -1.86806 0
M  V30 56317 O 5530.9 -0.494812 -2.64206 0
M  V30 56318 C 5529.17 -2.91572 -2.06689 0
M  V30 56319 S 5530.73 -3.29702 -2.89555 0
M  V30 56320 H 5527.55 -0.600252 -0.381076 0
M  V30 56321 H 5530.15 -1.91178 -0.408798 0
M  V30 56322 H 5528.85 -3.81631 -1.50951 0
M  V30 56323 H 5528.38 -2.73333 -2.82936 0
M  V30 56324 H 5530.4 -2.8105 -4.08932 0
M  V30 56325 N 5529.57 0.633411 -1.44311 0
M  V30 56326 C 5530.52 1.74548 -1.51002 0
M  V30 56327 C 5531.49 1.62198 -0.35793 0
M  V30 56328 O 5532.67 1.82154 -0.567851 0
M  V30 56329 C 5529.81 3.12787 -1.45802 0
M  V30 56330 C 5528.93 3.3613 -2.71368 0
M  V30 56331 C 5528.06 4.64328 -2.58018 0
M  V30 56332 C 5527.1 4.80842 -3.78758 0
M  V30 56333 N 5526.24 6.00314 -3.64098 0
M  V30 56334 H 5531.08 1.68166 -2.46017 0
M  V30 56335 H 5528.62 0.820364 -1.221 0
M  V30 56336 H 5530.57 3.9273 -1.40779 0
M  V30 56337 H 5529.2 3.18191 -0.543557 0
M  V30 56338 H 5528.26 2.50143 -2.86588 0
M  V30 56339 H 5529.57 3.44213 -3.60997 0
M  V30 56340 H 5528.72 5.52428 -2.50815 0
M  V30 56341 H 5527.46 4.58599 -1.65945 0
M  V30 56342 H 5526.47 3.91172 -3.86348 0
M  V30 56343 H 5527.69 4.88386 -4.71864 0
M  V30 56344 H 5525.64 5.9568 -2.74775 0
M  V30 56345 H 5525.55 6.09443 -4.47342 0
M  V30 56346 H 5526.82 6.90982 -3.60782 0
M  V30 56347 N 5531.05 1.31171 0.873608 0
M  V30 56348 C 5532.33 1.1129 1.60854 0
M  V30 56349 C 5532.71 -0.333714 2.08446 0
M  V30 56350 O 5532.06 -1.3272 1.86004 0
M  V30 56351 C 5532.27 2.12389 2.76933 0
M  V30 56352 C 5533.61 2.44717 3.46986 0
M  V30 56353 O 5534.64 2.10788 2.87136 0
M  V30 56354 O 5533.5 3.02802 4.54943 0
M  V30 56355 H 5530.59 0.428202 0.707511 0
M  V30 56356 H 5533.14 1.42637 0.91939 0
M  V30 56357 H 5531.91 3.09712 2.39153 0
M  V30 56358 H 5531.53 1.81926 3.53537 0
M  V30 56359 N 5532.53 -1.08744 1.14072 0
M  V30 56360 C 5533.48 -2.1557 0.8245 0
M  V30 56361 C 5534.45 -1.64683 -0.216464 0
M  V30 56362 O 5535.63 -1.90601 -0.0871523 0
M  V30 56363 C 5532.77 -3.43755 0.304351 0
M  V30 56364 C 5531.88 -4.08507 1.40521 0
M  V30 56365 C 5531.02 -5.24474 0.842663 0
M  V30 56366 C 5530.06 -5.8116 1.92143 0
M  V30 56367 N 5529.19 -6.88478 1.37632 0
M  V30 56368 H 5534.03 -2.41962 1.7395 0
M  V30 56369 H 5531.57 -1.18747 0.868184 0
M  V30 56370 H 5533.53 -4.17197 -0.0154079 0
M  V30 56371 H 5532.16 -3.1766 -0.573757 0
M  V30 56372 H 5531.21 -3.3286 1.84142 0
M  V30 56373 H 5532.52 -4.46661 2.22025 0
M  V30 56374 H 5531.68 -6.04841 0.474602 0
M  V30 56375 H 5530.42 -4.877 -0.00338067 0
M  V30 56376 H 5529.42 -4.99449 2.29848 0
M  V30 56377 H 5530.65 -6.19994 2.771 0
M  V30 56378 H 5528.59 -6.5367 0.552398 0
M  V30 56379 H 5528.51 -7.25439 2.12778 0
M  V30 56380 H 5529.78 -7.72584 1.03605 0
M  V30 56381 N 5534.01 -0.935308 -1.26845 0
M  V30 56382 C 5534.95 -0.438975 -2.26587 0
M  V30 56383 C 5535.92 0.498212 -1.58452 0
M  V30 56384 O 5537.11 0.415706 -1.86216 0
M  V30 56385 C 5534.25 0.295172 -3.43835 0
M  V30 56386 C 5533.36 -0.677007 -4.26662 0
M  V30 56387 C 5532.5 0.0777482 -5.31143 0
M  V30 56388 C 5531.54 -0.886638 -6.05644 0
M  V30 56389 N 5530.67 -0.164018 -7.01908 0
M  V30 56390 H 5535.51 -1.29449 -2.68416 0
M  V30 56391 H 5533.05 -0.64957 -1.31981 0
M  V30 56392 H 5535.01 0.73721 -4.10635 0
M  V30 56393 H 5533.64 1.11487 -3.02937 0
M  V30 56394 H 5532.69 -1.23756 -3.59706 0
M  V30 56395 H 5534 -1.41372 -4.78346 0
M  V30 56396 H 5533.16 0.579345 -6.03928 0
M  V30 56397 H 5531.89 0.847381 -4.80282 0
M  V30 56398 H 5530.9 -1.39941 -5.31692 0
M  V30 56399 H 5532.12 -1.65618 -6.58595 0
M  V30 56400 H 5530.07 0.587231 -6.53366 0
M  V30 56401 H 5529.99 -0.840166 -7.51317 0
M  V30 56402 H 5531.26 0.316677 -7.78856 0
M  V30 56403 N 5535.48 1.41118 -0.701666 0
M  V30 56404 C 5536.39 2.34564 -0.040864 0
M  V30 56405 C 5537.41 1.56558 0.759315 0
M  V30 56406 O 5538.59 1.89011 0.695476 0
M  V30 56407 C 5535.65 3.3535 0.879836 0
M  V30 56408 C 5534.71 4.29241 0.071177 0
M  V30 56409 C 5533.95 5.25212 0.948027 0
M  V30 56410 O 5534.17 5.26788 2.18747 0
M  V30 56411 O 5533.1 6.00606 0.394446 0
M  V30 56412 H 5536.93 2.92663 -0.811291 0
M  V30 56413 H 5534.51 1.42076 -0.462041 0
M  V30 56414 H 5536.4 3.97195 1.40762 0
M  V30 56415 H 5535.07 2.79686 1.62965 0
M  V30 56416 H 5533.98 3.70725 -0.50135 0
M  V30 56417 H 5535.31 4.8802 -0.640106 0
M  V30 56418 N 5536.96 0.446847 1.51133 0
M  V30 56419 C 5538.21 -0.116422 2.02165 0
M  V30 56420 C 5538.54 -1.41879 1.33044 0
M  V30 56421 O 5537.79 -1.90755 0.437138 0
M  V30 56422 C 5538.09 -0.37289 3.55449 0
M  V30 56423 C 5537.76 0.844815 4.42915 0
M  V30 56424 C 5536.42 1.17874 4.6654 0
M  V30 56425 C 5538.77 1.65671 4.94169 0
M  V30 56426 C 5536.1 2.32505 5.38663 0
M  V30 56427 C 5538.45 2.7941 5.6755 0
M  V30 56428 C 5537.12 3.13245 5.89435 0
M  V30 56429 H 5536.39 -0.0426019 0.739774 0
M  V30 56430 H 5539.03 0.595985 1.8199 0
M  V30 56431 H 5537.34 -1.16729 3.74007 0
M  V30 56432 H 5539.03 -0.822287 3.92479 0
M  V30 56433 H 5535.62 0.574628 4.2473 0
M  V30 56434 H 5539.81 1.41193 4.75792 0
M  V30 56435 H 5535.06 2.59022 5.53821 0
M  V30 56436 H 5539.24 3.42684 6.06252 0
M  V30 56437 H 5536.87 4.02181 6.45101 0
M  V30 56438 N 5538.44 -1.56585 0.178542 0
M  V30 56439 C 5539.37 -2.21316 -0.744408 0
M  V30 56440 C 5540.35 -1.17103 -1.23373 0
M  V30 56441 O 5541.54 -1.45556 -1.28558 0
M  V30 56442 C 5538.67 -2.85957 -1.97093 0
M  V30 56443 C 5537.62 -3.96272 -1.61718 0
M  V30 56444 C 5536.95 -4.47997 -2.91895 0
M  V30 56445 C 5538.25 -5.15506 -0.839687 0
M  V30 56446 H 5539.94 -2.98699 -0.204833 0
M  V30 56447 H 5537.49 -1.43672 -0.0970801 0
M  V30 56448 H 5539.44 -3.29918 -2.62168 0
M  V30 56449 H 5538.16 -2.05955 -2.53476 0
M  V30 56450 H 5536.82 -3.52977 -0.990084 0
M  V30 56451 H 5536.47 -3.64777 -3.46333 0
M  V30 56452 H 5536.17 -5.22423 -2.68977 0
M  V30 56453 H 5537.69 -4.94649 -3.57987 0
M  V30 56454 H 5539.11 -5.56115 -1.39318 0
M  V30 56455 H 5537.51 -5.95894 -0.709264 0
M  V30 56456 H 5538.58 -4.84627 0.162567 0
M  V30 56457 N 5539.92 0.0951507 -1.57313 0
M  V30 56458 C 5541.16 0.804269 -1.87912 0
M  V30 56459 C 5541.52 1.75904 -0.769527 0
M  V30 56460 O 5542.72 2.51151 -0.957935 0
M  V30 56461 C 5540.99 1.51393 -3.23751 0
M  V30 56462 S 5542.55 2.26134 -3.76044 0
M  V30 56463 H 5539.37 0.267952 -0.658576 0
M  V30 56464 H 5541.97 0.0613995 -1.95404 0
M  V30 56465 H 5540.68 0.804925 -4.02429 0
M  V30 56466 H 5540.21 2.2967 -3.19398 0
M  V30 56467 H 5542.22 3.52272 -3.49455 0
M  V30 56468 N 5541.4 1.53292 0.365972 0
M  V30 56469 C 5542.81 1.43056 0.707619 0
M  V30 56470 C 5543.01 0.569318 1.9329 0
M  V30 56471 O 5542.07 0.0516102 2.52447 0
M  V30 56472 C 5543.38 2.86242 0.921191 0
M  V30 56473 C 5544.93 2.95872 1.02123 0
M  V30 56474 C 5545.4 4.40118 1.26727 0
M  V30 56475 N 5546.9 4.43545 1.33498 0
M  V30 56476 C 5547.63 5.52264 1.54245 0
M  V30 56477 N 5547.13 6.7103 1.72311 0
M  V30 56478 N 5548.92 5.39842 1.56611 0
M  V30 56479 H 5541.07 2.07794 -0.439953 0
M  V30 56480 H 5543.33 0.938372 -0.134769 0
M  V30 56481 H 5543.04 3.51578 0.0926806 0
M  V30 56482 H 5542.91 3.29868 1.82939 0
M  V30 56483 H 5545.3 2.3069 1.84028 0
M  V30 56484 H 5545.38 2.5564 0.0904198 0
M  V30 56485 H 5545.03 5.05874 0.453232 0
M  V30 56486 H 5544.96 4.77922 2.21129 0
M  V30 56487 H 5547.45 3.57953 1.21152 0
M  V30 56488 H 5547.76 7.49655 1.87714 0
M  V30 56489 H 5546.1 6.74016 1.6949 0
M  V30 56490 H 5549.3 4.46022 1.42065 0
M  V30 56491 H 5549.47 6.24635 1.72439 0
M  V30 56492 N 5542.88 -0.625749 1.44645 0
M  V30 56493 C 5543.82 -1.75864 1.52233 0
M  V30 56494 C 5544.82 -1.64764 0.393608 0
M  V30 56495 O 5546.02 -1.70777 0.568778 0
M  V30 56496 H 5542.4 -0.580696 0.477804 0
M  V30 56497 H 5544.37 -1.66588 2.4757 0
M  V30 56498 C 5543.12 -3.14211 1.48884 0
M  V30 56499 H 5542.44 -3.23403 2.35054 0
M  V30 56500 H 5543.88 -3.9336 1.58253 0
M  V30 56501 C 5542.34 -3.36242 0.210417 0
M  V30 56502 O 5542.87 -3.95246 -0.717196 0
M  V30 56503 N 5541.08 -2.90385 0.111846 0
M  V30 56504 H 5540.62 -2.42552 0.867551 0
M  V30 56505 H 5540.58 -3.055 -0.742763 0
M  V30 56506 N 5544.35 -1.31632 -0.86664 0
M  V30 56507 C 5545.29 -1.15384 -1.98038 0
M  V30 56508 C 5546.3 -0.0920204 -1.6254 0
M  V30 56509 O 5547.49 -0.339836 -1.75235 0
M  V30 56510 C 5544.59 -0.741412 -3.30691 0
M  V30 56511 C 5543.76 -1.88895 -3.94509 0
M  V30 56512 C 5542.82 -1.46204 -5.05481 0
M  V30 56513 O 5541.85 -2.17221 -5.26121 0
M  V30 56514 N 5543.05 -0.3513 -5.79436 0
M  V30 56515 H 5545.81 -2.11316 -2.12522 0
M  V30 56516 H 5543.37 -1.24011 -1.04081 0
M  V30 56517 H 5545.37 -0.438455 -4.02318 0
M  V30 56518 H 5543.94 0.1264 -3.12344 0
M  V30 56519 H 5543.16 -2.35905 -3.1582 0
M  V30 56520 H 5544.44 -2.6575 -4.33883 0
M  V30 56521 H 5543.84 0.240046 -5.6519 0
M  V30 56522 H 5542.4 -0.107892 -6.51711 0
M  V30 56523 N 5545.83 1.08138 -1.14647 0
M  V30 56524 C 5547.25 1.32653 -0.887435 0
M  V30 56525 C 5547.45 1.95943 0.469943 0
M  V30 56526 O 5546.5 2.21421 1.21363 0
M  V30 56527 C 5547.82 2.22541 -2.02227 0
M  V30 56528 C 5549.36 2.36013 -2.05589 0
M  V30 56529 C 5549.84 3.29246 -3.18373 0
M  V30 56530 N 5551.33 3.36824 -3.17968 0
M  V30 56531 C 5552.07 4.09002 -4.01876 0
M  V30 56532 N 5551.56 4.83865 -4.95829 0
M  V30 56533 N 5553.35 4.04862 -3.89927 0
M  V30 56534 H 5545.51 0.654386 -2.02068 0
M  V30 56535 H 5547.77 0.350916 -0.88066 0
M  V30 56536 H 5547.47 1.83285 -3.00166 0
M  V30 56537 H 5547.35 3.2302 -1.94776 0
M  V30 56538 H 5549.74 2.74527 -1.08255 0
M  V30 56539 H 5549.82 1.35267 -2.17109 0
M  V30 56540 H 5549.46 2.91453 -4.15954 0
M  V30 56541 H 5549.39 4.29927 -3.04089 0
M  V30 56542 H 5551.88 2.83456 -2.49922 0
M  V30 56543 H 5552.19 5.3641 -5.56313 0
M  V30 56544 H 5550.54 4.82908 -4.99825 0
M  V30 56545 H 5553.73 3.45485 -3.15845 0
M  V30 56546 H 5553.9 4.6085 -4.55545 0
M  V30 56547 N 5547.31 0.942022 1.26348 0
M  V30 56548 C 5548.55 0.59753 1.95471 0
M  V30 56549 C 5548.91 -0.84779 1.72269 0
M  V30 56550 O 5550.11 -1.30126 2.35204 0
M  V30 56551 C 5548.39 0.931463 3.45049 0
M  V30 56552 S 5549.94 0.697643 4.33219 0
M  V30 56553 H 5546.76 0.220054 0.67609 0
M  V30 56554 H 5549.36 1.21352 1.53278 0
M  V30 56555 H 5548.07 1.98075 3.59436 0
M  V30 56556 H 5547.6 0.305233 3.92214 0
M  V30 56557 H 5549.61 -0.437741 4.94265 0
M  V30 56558 N 5548.79 -1.40744 0.70914 0
M  V30 56559 C 5549.72 -2.33404 0.0670584 0
M  V30 56560 C 5550.7 -1.52548 -0.752529 0
M  V30 56561 O 5551.88 -1.81038 -0.702759 0
M  V30 56562 C 5549.01 -3.36479 -0.860167 0
M  V30 56563 C 5547.97 -4.27749 -0.146678 0
M  V30 56564 C 5547.29 -5.21308 -1.18918 0
M  V30 56565 C 5548.59 -5.1273 0.995244 0
M  V30 56566 H 5550.29 -2.87346 0.840989 0
M  V30 56567 H 5547.83 -1.38162 0.405865 0
M  V30 56568 H 5549.79 -4.00236 -1.31869 0
M  V30 56569 H 5548.51 -2.80918 -1.66592 0
M  V30 56570 H 5547.17 -3.65436 0.291954 0
M  V30 56571 H 5546.82 -4.62055 -1.98782 0
M  V30 56572 H 5546.52 -5.83213 -0.716712 0
M  V30 56573 H 5548.04 -5.87942 -1.64794 0
M  V30 56574 H 5549.46 -5.69977 0.616381 0
M  V30 56575 H 5547.85 -5.83645 1.39567 0
M  V30 56576 H 5548.92 -4.4909 1.82883 0
M  V30 56577 N 5550.27 -0.454856 -1.50893 0
M  V30 56578 C 5551.49 0.106186 -2.07128 0
M  V30 56579 C 5551.92 1.34175 -1.31828 0
M  V30 56580 O 5551.27 1.77665 -0.36121 0
M  V30 56581 C 5551.32 0.389483 -3.5849 0
M  V30 56582 O 5550.43 1.47291 -3.852 0
M  V30 56583 H 5549.77 -0.00582922 -0.663974 0
M  V30 56584 H 5552.3 -0.641231 -1.94292 0
M  V30 56585 H 5552.31 0.634792 -4.03032 0
M  V30 56586 H 5550.98 -0.513484 -4.12718 0
M  V30 56587 H 5549.56 1.21619 -3.5251 0
M  V30 56588 N 5551.74 1.56489 -0.186844 0
M  V30 56589 C 5552.97 2.02165 0.463055 0
M  V30 56590 C 5553.39 1.06617 1.54966 0
M  V30 56591 O 5552.75 0.0482776 1.81236 0
M  V30 56592 C 5552.8 3.4634 1.00404 0
M  V30 56593 O 5551.9 3.53896 2.11734 0
M  V30 56594 H 5551.24 0.654964 0.109171 0
M  V30 56595 H 5553.77 2.02458 -0.295298 0
M  V30 56596 H 5553.78 3.85964 1.32273 0
M  V30 56597 H 5552.46 4.15377 0.208547 0
M  V30 56598 H 5551.04 3.26142 1.80792 0
M  V30 56599 N 5553.22 -0.0868067 1.57361 0
M  V30 56600 C 5554.45 -0.80595 1.911 0
M  V30 56601 C 5554.87 -1.71079 0.78189 0
M  V30 56602 O 5554.23 -1.79336 -0.266112 0
M  V30 56603 C 5554.28 -1.58829 3.23737 0
M  V30 56604 O 5553.38 -2.69787 3.11911 0
M  V30 56605 H 5552.72 -0.220877 0.626186 0
M  V30 56606 H 5555.25 -0.0595471 2.04513 0
M  V30 56607 H 5555.26 -1.97075 3.57247 0
M  V30 56608 H 5553.94 -0.924284 4.05499 0
M  V30 56609 H 5552.51 -2.34508 2.89931 0
M  V30 56610 N 5554.7 -1.53484 -0.357838 0
M  V30 56611 C 5555.63 -1.83449 -1.4446 0
M  V30 56612 C 5556.61 -0.68854 -1.55541 0
M  V30 56613 O 5557.8 -0.93912 -1.69983 0
M  V30 56614 C 5554.93 -2.03132 -2.81699 0
M  V30 56615 C 5553.88 -3.1892 -2.85437 0
M  V30 56616 C 5553.21 -3.2391 -4.25425 0
M  V30 56617 C 5554.51 -4.57343 -2.52259 0
M  V30 56618 H 5556.2 -2.7446 -1.19632 0
M  V30 56619 H 5553.75 -1.32062 -0.574066 0
M  V30 56620 H 5555.7 -2.22678 -3.5776 0
M  V30 56621 H 5554.42 -1.08838 -3.07932 0
M  V30 56622 H 5553.08 -2.99206 -2.11828 0
M  V30 56623 H 5552.73 -2.27239 -4.48745 0
M  V30 56624 H 5552.43 -4.01709 -4.2884 0
M  V30 56625 H 5553.95 -3.45649 -5.03348 0
M  V30 56626 H 5555.37 -4.76999 -3.18033 0
M  V30 56627 H 5553.76 -5.37441 -2.66979 0
M  V30 56628 H 5554.83 -4.61927 -1.47485 0
M  V30 56629 N 5556.18 0.618069 -1.44975 0
M  V30 56630 C 5557.59 0.937688 -1.29149 0
M  V30 56631 C 5557.79 2.00104 -0.23682 0
M  V30 56632 O 5556.85 2.49732 0.372835 0
M  V30 56633 C 5558.16 1.38856 -2.6672 0
M  V30 56634 C 5559.71 1.50334 -2.74534 0
M  V30 56635 C 5560.19 1.988 -4.12605 0
M  V30 56636 N 5561.68 2.0605 -4.14847 0
M  V30 56637 C 5562.41 2.4475 -5.18541 0
M  V30 56638 N 5561.91 2.82494 -6.32589 0
M  V30 56639 N 5563.7 2.44998 -5.05898 0
M  V30 56640 H 5555.85 -0.0849466 -2.1223 0
M  V30 56641 H 5558.11 0.0246411 -0.94768 0
M  V30 56642 H 5557.82 0.681462 -3.45035 0
M  V30 56643 H 5557.69 2.3571 -2.94484 0
M  V30 56644 H 5560.08 2.20137 -1.96529 0
M  V30 56645 H 5560.16 0.518209 -2.50496 0
M  V30 56646 H 5559.81 1.29587 -4.9109 0
M  V30 56647 H 5559.74 2.98207 -4.34027 0
M  V30 56648 H 5562.23 1.79513 -3.32541 0
M  V30 56649 H 5562.54 3.10875 -7.07514 0
M  V30 56650 H 5560.89 2.80214 -6.36007 0
M  V30 56651 H 5564.08 2.1491 -4.1585 0
M  V30 56652 H 5564.25 2.74833 -5.86831 0
M  V30 56653 N 5557.66 1.3209 0.859647 0
M  V30 56654 C 5558.9 1.23677 1.62737 0
M  V30 56655 C 5559.26 -0.199593 1.9096 0
M  V30 56656 O 5560.46 -0.407384 2.65695 0
M  V30 56657 C 5558.73 2.06747 2.91531 0
M  V30 56658 S 5560.29 2.15305 3.82347 0
M  V30 56659 H 5557.11 0.440326 0.558242 0
M  V30 56660 H 5559.71 1.66879 1.01842 0
M  V30 56661 H 5558.42 3.10175 2.68737 0
M  V30 56662 H 5557.95 1.64303 3.57446 0
M  V30 56663 H 5559.96 1.29891 4.78897 0
M  V30 56664 N 5559.13 -1.07528 1.15219 0
M  V30 56665 C 5560.08 -2.16782 0.843098 0
M  V30 56666 C 5561.08 -1.68411 -0.182742 0
M  V30 56667 O 5562.28 -1.7996 -0.0379532 0
M  V30 56668 H 5558.66 -0.707456 0.25497 0
M  V30 56669 H 5560.63 -2.40072 1.77224 0
M  V30 56670 C 5559.38 -3.45966 0.346821 0
M  V30 56671 H 5558.7 -3.8357 1.12757 0
M  V30 56672 H 5560.14 -4.23662 0.169188 0
M  V30 56673 C 5558.6 -3.23772 -0.931323 0
M  V30 56674 O 5559.13 -3.48186 -2.00324 0
M  V30 56675 N 5557.34 -2.77268 -0.87012 0
M  V30 56676 H 5556.88 -2.576 0.00235279 0
M  V30 56677 H 5556.84 -2.62796 -1.72584 0
M  V30 56678 N 5560.61 -0.948709 -1.25846 0
M  V30 56679 C 5561.55 -0.408477 -2.24514 0
M  V30 56680 C 5562.52 0.506899 -1.54497 0
M  V30 56681 O 5563.71 0.44263 -1.83229 0
M  V30 56682 C 5560.83 0.412292 -3.36181 0
M  V30 56683 C 5559.88 -0.442632 -4.24197 0
M  V30 56684 S 5560.71 -1.87123 -5.01742 0
M  V30 56685 C 5561.87 -1.05873 -6.16881 0
M  V30 56686 H 5562.1 -1.24468 -2.69991 0
M  V30 56687 H 5559.64 -0.752357 -1.34829 0
M  V30 56688 H 5561.59 0.879923 -4.00958 0
M  V30 56689 H 5560.25 1.22325 -2.89302 0
M  V30 56690 H 5559.45 0.18659 -5.03654 0
M  V30 56691 H 5559.05 -0.845241 -3.64324 0
M  V30 56692 H 5561.34 -0.304567 -6.76815 0
M  V30 56693 H 5562.28 -1.82702 -6.84124 0
M  V30 56694 H 5562.69 -0.591466 -5.61393 0
M  V30 56695 N 5562.09 1.40366 -0.716594 0
M  V30 56696 C 5563.34 2.00868 -0.256536 0
M  V30 56697 C 5563.67 1.5682 1.15056 0
M  V30 56698 O 5562.92 0.77976 1.79494 0
M  V30 56699 C 5563.22 3.56256 -0.285708 0
M  V30 56700 C 5562.89 4.19891 -1.64324 0
M  V30 56701 C 5561.55 4.36987 -2.01484 0
M  V30 56702 C 5563.9 4.55376 -2.5354 0
M  V30 56703 C 5561.23 4.86851 -3.27404 0
M  V30 56704 C 5563.58 5.06639 -3.78813 0
M  V30 56705 C 5562.24 5.21944 -4.16089 0
M  V30 56706 H 5561.51 0.73503 -0.0938733 0
M  V30 56707 H 5564.16 1.67963 -0.919824 0
M  V30 56708 H 5562.47 3.89077 0.461151 0
M  V30 56709 H 5564.16 4.00903 0.0881086 0
M  V30 56710 H 5560.75 4.06973 -1.34427 0
M  V30 56711 H 5564.94 4.41803 -2.26105 0
M  V30 56712 H 5560.19 4.96885 -3.56252 0
M  V30 56713 H 5564.37 5.33073 -4.48114 0
M  V30 56714 H 5561.99 5.60344 -5.1373 0
M  V30 56715 N 5563.57 0.462852 1.5065 0
M  V30 56716 C 5564.85 -0.156153 1.94976 0
M  V30 56717 C 5565.23 -1.57745 1.40284 0
M  V30 56718 O 5564.57 -2.20471 0.6004 0
M  V30 56719 C 5564.78 -0.107885 3.48833 0
M  V30 56720 C 5566.13 -0.300864 4.23533 0
M  V30 56721 O 5567.16 -0.184848 3.5572 0
M  V30 56722 O 5566.01 -0.534265 5.43882 0
M  V30 56723 H 5563.11 -0.116154 0.818802 0
M  V30 56724 H 5565.65 0.522663 1.61451 0
M  V30 56725 H 5564.43 0.884768 3.81166 0
M  V30 56726 H 5564.05 -0.828516 3.88872 0
M  V30 56727 N 5565.05 -1.56387 0.19514 0
M  V30 56728 C 5566.32 -1.89331 -0.491237 0
M  V30 56729 C 5566.7 -1.10867 -1.79643 0
M  V30 56730 O 5566.05 -0.209776 -2.27535 0
M  V30 56731 C 5566.26 -3.41702 -0.709976 0
M  V30 56732 C 5567.61 -4.11935 -1.02932 0
M  V30 56733 O 5568.63 -3.47153 -0.797695 0
M  V30 56734 O 5567.49 -5.26429 -1.46749 0
M  V30 56735 H 5564.59 -0.786344 -0.256109 0
M  V30 56736 H 5567.13 -1.6806 0.235357 0
M  V30 56737 H 5565.9 -3.90727 0.211741 0
M  V30 56738 H 5565.53 -3.68665 -1.48903 0
M  V30 56739 N 5566.52 0.0784603 -1.57405 0
M  V30 56740 C 5567.76 0.784293 -1.88754 0
M  V30 56741 C 5568.13 1.75078 -0.788141 0
M  V30 56742 O 5569.33 2.50121 -0.984519 0
M  V30 56743 C 5567.6 1.47951 -3.25339 0
M  V30 56744 S 5569.16 2.22133 -3.78421 0
M  V30 56745 H 5565.98 0.260952 -0.661381 0
M  V30 56746 H 5568.58 0.0406709 -1.95458 0
M  V30 56747 H 5567.28 0.762197 -4.0326 0
M  V30 56748 H 5566.81 2.2627 -3.21816 0
M  V30 56749 H 5568.83 3.48545 -3.53172 0
M  V30 56750 N 5568 1.53671 0.349693 0
M  V30 56751 C 5569.25 1.70285 1.08847 0
M  V30 56752 C 5569.57 0.465504 1.89362 0
M  V30 56753 O 5568.84 -0.520549 1.88857 0
M  V30 56754 H 5567.42 0.62779 0.404832 0
M  V30 56755 H 5570.08 1.90908 0.392455 0
M  V30 56756 H 5569.18 2.57102 1.76932 0
M  V30 56757 N 5569.48 -0.610372 1.453 0
M  V30 56758 C 5570.76 -1.36961 1.39646 0
M  V30 56759 C 5571.14 -2.10998 0.0656499 0
M  V30 56760 O 5570.49 -2.07709 -0.952334 0
M  V30 56761 C 5570.7 -2.31876 2.60834 0
M  V30 56762 C 5572.04 -2.94569 3.05801 0
M  V30 56763 O 5573.07 -2.42198 2.61187 0
M  V30 56764 O 5571.93 -3.89626 3.83215 0
M  V30 56765 H 5569.02 -0.613991 0.554026 0
M  V30 56766 H 5571.57 -0.633693 1.57424 0
M  V30 56767 H 5570.34 -1.76409 3.49279 0
M  V30 56768 H 5569.96 -3.12853 2.45375 0
M  V30 56769 N 5570.96 -1.32544 -0.85263 0
M  V30 56770 C 5572.21 -1.22976 -1.60378 0
M  V30 56771 C 5572.53 0.207941 -1.93888 0
M  V30 56772 O 5571.8 1.1332 -1.59798 0
M  V30 56773 H 5570.38 -0.45217 -0.594602 0
M  V30 56774 H 5573.04 -1.66092 -1.01977 0
M  V30 56775 H 5572.14 -1.81382 -2.53982 0
M  V30 56776 N 5572.44 1.06915 -1.15788 0
M  V30 56777 C 5573.66 1.83846 -0.959967 0
M  V30 56778 C 5574.09 1.81691 0.48681 0
M  V30 56779 O 5573.45 1.2131 1.34735 0
M  V30 56780 C 5573.49 3.28637 -1.48425 0
M  V30 56781 O 5572.6 4.06648 -0.686392 0
M  V30 56782 H 5571.94 0.569103 -0.342079 0
M  V30 56783 H 5574.47 1.34845 -1.53876 0
M  V30 56784 H 5574.48 3.79465 -1.49901 0
M  V30 56785 H 5573.15 3.2952 -2.5375 0
M  V30 56786 H 5571.73 3.65451 -0.74163 0
M  V30 56787 N 5573.92 0.95537 1.25341 0
M  V30 56788 C 5575.19 0.527894 1.88342 0
M  V30 56789 C 5575.57 -0.994845 1.86188 0
M  V30 56790 O 5574.92 -1.86095 1.32593 0
M  V30 56791 C 5575.13 1.10536 3.31033 0
M  V30 56792 C 5576.48 1.18268 4.07796 0
M  V30 56793 O 5577.5 1.05697 3.40157 0
M  V30 56794 O 5576.36 1.37996 5.2879 0
M  V30 56795 H 5573.46 0.174234 0.808438 0
M  V30 56796 H 5576 1.04885 1.33406 0
M  V30 56797 H 5574.77 2.14858 3.27035 0
M  V30 56798 H 5574.4 0.567706 3.93526 0
M  V30 56799 N 5575.39 -1.39984 0.724028 0
M  V30 56800 C 5576.3 -2.3447 0.078176 0
M  V30 56801 C 5577.32 -1.57746 -0.734312 0
M  V30 56802 O 5578.5 -1.90093 -0.665318 0
M  V30 56803 C 5575.56 -3.36708 -0.826374 0
M  V30 56804 C 5574.62 -4.293 -0.00287944 0
M  V30 56805 C 5573.85 -5.26654 -0.86435 0
M  V30 56806 O 5574.08 -5.30202 -2.10339 0
M  V30 56807 O 5573.01 -6.01158 -0.298845 0
M  V30 56808 H 5576.84 -2.91335 0.857749 0
M  V30 56809 H 5574.42 -1.41323 0.484586 0
M  V30 56810 H 5576.3 -3.99384 -1.34425 0
M  V30 56811 H 5574.98 -2.82243 -1.58495 0
M  V30 56812 H 5573.89 -3.69881 0.560266 0
M  V30 56813 H 5575.22 -4.8694 0.717665 0
M  V30 56814 N 5576.87 -0.470835 -1.50402 0
M  V30 56815 C 5577.78 0.328795 -2.32285 0
M  V30 56816 C 5578.8 0.996239 -1.42657 0
M  V30 56817 O 5579.97 0.984269 -1.7571 0
M  V30 56818 C 5577.04 1.39664 -3.17325 0
M  V30 56819 C 5576.1 0.745816 -4.22772 0
M  V30 56820 C 5575.33 1.76278 -5.03748 0
M  V30 56821 O 5575.56 2.98925 -4.85798 0
M  V30 56822 O 5574.49 1.33475 -5.86914 0
M  V30 56823 H 5578.32 -0.340597 -3.01784 0
M  V30 56824 H 5575.9 -0.232689 -1.47577 0
M  V30 56825 H 5577.78 2.01517 -3.70093 0
M  V30 56826 H 5576.46 2.0495 -2.50554 0
M  V30 56827 H 5575.36 0.0883333 -3.73996 0
M  V30 56828 H 5576.7 0.135901 -4.92012 0
M  V30 56829 N 5578.35 1.56282 -0.203431 0
M  V30 56830 C 5579.63 1.89589 0.481189 0
M  V30 56831 C 5580.01 1.11818 1.79053 0
M  V30 56832 O 5579.35 0.221839 2.27421 0
M  V30 56833 C 5579.56 3.42074 0.691844 0
M  V30 56834 C 5580.91 4.12475 1.00746 0
M  V30 56835 O 5581.94 3.47571 0.779274 0
M  V30 56836 O 5580.8 5.27199 1.43955 0
M  V30 56837 H 5577.89 0.787691 0.251935 0
M  V30 56838 H 5580.44 1.67933 -0.244266 0
M  V30 56839 H 5579.21 3.90609 -0.232459 0
M  V30 56840 H 5578.83 3.69449 1.46945 0
M  V30 56841 N 5579.83 -0.0701116 1.57444 0
M  V30 56842 C 5581.07 -0.774272 1.89168 0
M  V30 56843 C 5581.43 -1.74658 0.797414 0
M  V30 56844 O 5582.63 -2.49596 0.99777 0
M  V30 56845 C 5580.9 -1.46223 3.26119 0
M  V30 56846 S 5582.46 -2.20123 3.79594 0
M  V30 56847 H 5579.28 -0.257441 0.662756 0
M  V30 56848 H 5581.88 -0.0303047 1.95477 0
M  V30 56849 H 5580.59 -0.7408 4.03659 0
M  V30 56850 H 5580.12 -2.2456 3.23012 0
M  V30 56851 H 5582.13 -3.46668 3.55016 0
M  V30 56852 N 5581.31 -1.53855 -0.341539 0
M  V30 56853 C 5582.53 -1.75451 -1.10597 0
M  V30 56854 C 5582.96 -0.493288 -1.81517 0
M  V30 56855 O 5582.31 0.554192 -1.72622 0
M  V30 56856 C 5582.36 -2.93601 -2.09358 0
M  V30 56857 O 5581.47 -2.63889 -3.16917 0
M  V30 56858 H 5580.81 -0.581935 -0.319763 0
M  V30 56859 H 5583.34 -2.00823 -0.391317 0
M  V30 56860 H 5583.35 -3.20445 -2.52545 0
M  V30 56861 H 5582.02 -3.85072 -1.57137 0
M  V30 56862 H 5580.6 -2.47939 -2.78533 0
M  V30 56863 N 5582.78 0.602658 -1.45622 0
M  V30 56864 C 5584.03 1.35764 -1.49168 0
M  V30 56865 C 5584.35 1.95102 -0.139554 0
M  V30 56866 O 5585.55 2.71449 -0.0526873 0
M  V30 56867 C 5584.01 2.4595 -2.62748 0
M  V30 56868 C 5583.62 1.93002 -4.04295 0
M  V30 56869 C 5585.36 3.22917 -2.75545 0
M  V30 56870 C 5583.27 3.007 -5.09248 0
M  V30 56871 H 5582.2 0.510297 -0.555079 0
M  V30 56872 H 5584.85 0.645374 -1.71777 0
M  V30 56873 H 5583.23 3.19884 -2.33432 0
M  V30 56874 H 5584.4 1.25745 -4.43311 0
M  V30 56875 H 5582.72 1.28766 -3.9599 0
M  V30 56876 H 5585.32 4.03255 -3.51126 0
M  V30 56877 H 5585.66 3.74237 -1.82352 0
M  V30 56878 H 5586.19 2.56084 -3.04411 0
M  V30 56879 H 5582.93 2.54291 -6.04166 0
M  V30 56880 H 5582.45 3.66509 -4.74796 0
M  V30 56881 H 5584.13 3.64997 -5.34215 0
M  V30 56882 N 5584.26 1.32995 0.845589 0
M  V30 56883 C 5585.54 1.14677 1.58457 0
M  V30 56884 C 5585.92 -0.289425 2.09107 0
M  V30 56885 O 5585.27 -1.28745 1.88778 0
M  V30 56886 C 5585.48 2.18215 2.72366 0
M  V30 56887 C 5586.82 2.52022 3.41717 0
M  V30 56888 O 5587.85 2.16831 2.826 0
M  V30 56889 O 5586.71 3.12383 4.48418 0
M  V30 56890 H 5583.8 0.443113 0.698269 0
M  V30 56891 H 5586.35 1.44555 0.888928 0
M  V30 56892 H 5585.12 3.14715 2.3253 0
M  V30 56893 H 5584.74 1.89384 3.49599 0
M  V30 56894 N 5585.74 -1.063 1.16353 0
M  V30 56895 C 5587.15 -1.60563 0.952708 0
M  V30 56896 C 5587.5 -1.89632 -0.503406 0
M  V30 56897 O 5586.63 -1.66969 -1.3766 0
M  V30 56898 C 5587.22 -2.91714 1.72303 0
M  V30 56899 C 5585.78 -3.42679 1.55719 0
M  V30 56900 C 5584.93 -2.16573 1.7318 0
M  V30 56901 H 5587.88 -0.892517 1.31224 0
M  V30 56902 H 5587.9 -3.61122 1.1988 0
M  V30 56903 H 5587.41 -2.70526 2.78276 0
M  V30 56904 H 5585.51 -3.68927 0.521856 0
M  V30 56905 H 5585.63 -4.1801 2.34103 0
M  V30 56906 H 5583.99 -2.26791 1.15922 0
M  V30 56907 H 5584.77 -1.97867 2.80542 0
M  V30 56908 N 5587.22 -0.962004 -1.24833 0
M  V30 56909 C 5588.17 -0.486939 -2.25605 0
M  V30 56910 C 5589.14 0.464489 -1.59473 0
M  V30 56911 O 5590.32 0.376113 -1.87056 0
M  V30 56912 C 5587.46 0.222173 -3.44384 0
M  V30 56913 C 5586.57 -0.767356 -4.2513 0
M  V30 56914 C 5585.71 -0.0349326 -5.31189 0
M  V30 56915 C 5584.75 -1.0149 -6.03627 0
M  V30 56916 N 5583.88 -0.312866 -7.01403 0
M  V30 56917 H 5588.72 -1.35113 -2.6561 0
M  V30 56918 H 5586.26 -0.677419 -1.30574 0
M  V30 56919 H 5588.22 0.649942 -4.12106 0
M  V30 56920 H 5586.85 1.05036 -3.05233 0
M  V30 56921 H 5585.9 -1.31358 -3.57 0
M  V30 56922 H 5587.21 -1.51487 -4.7524 0
M  V30 56923 H 5586.37 0.451112 -6.05021 0
M  V30 56924 H 5585.11 0.745316 -4.81971 0
M  V30 56925 H 5584.11 -1.51188 -5.28604 0
M  V30 56926 H 5585.34 -1.7955 -6.54934 0
M  V30 56927 H 5583.28 0.44851 -6.54465 0
M  V30 56928 H 5583.2 -0.999343 -7.49366 0
M  V30 56929 H 5584.47 0.151399 -7.79353 0
M  V30 56930 N 5588.7 1.39598 -0.731441 0
M  V30 56931 C 5589.63 2.33267 -0.104182 0
M  V30 56932 C 5590.61 1.53726 0.728164 0
M  V30 56933 O 5591.79 1.82134 0.673869 0
M  V30 56934 C 5588.92 3.37805 0.806527 0
M  V30 56935 C 5587.88 4.27928 0.0786083 0
M  V30 56936 C 5587.2 5.23134 1.1061 0
M  V30 56937 C 5588.5 5.11082 -1.07669 0
M  V30 56938 H 5590.2 2.85972 -0.886597 0
M  V30 56939 H 5587.74 1.37499 -0.427794 0
M  V30 56940 H 5589.7 4.02283 1.25485 0
M  V30 56941 H 5588.42 2.83532 1.62102 0
M  V30 56942 H 5587.08 3.64925 -0.350055 0
M  V30 56943 H 5586.73 4.65159 1.91406 0
M  V30 56944 H 5586.43 5.84279 0.623837 0
M  V30 56945 H 5587.95 5.90489 1.55419 0
M  V30 56946 H 5589.36 5.68924 -0.706981 0
M  V30 56947 H 5587.76 5.8135 -1.48835 0
M  V30 56948 H 5588.83 4.46124 -1.90004 0
M  V30 56949 N 5590.17 0.478804 1.50151 0
M  V30 56950 C 5591.4 -0.0709758 2.06778 0
M  V30 56951 C 5591.82 -1.32821 1.34179 0
M  V30 56952 O 5591.17 -1.77757 0.413367 0
M  V30 56953 C 5591.23 -0.351225 3.5979 0
M  V30 56954 O 5590.95 0.856149 4.29653 0
M  V30 56955 C 5592.45 -0.947117 4.33064 0
M  V30 56956 H 5589.67 0.0105268 0.670917 0
M  V30 56957 H 5592.21 0.6698 1.9322 0
M  V30 56958 H 5590.37 -1.04194 3.73125 0
M  V30 56959 H 5590.78 0.605435 5.20994 0
M  V30 56960 H 5592.25 -1.09293 5.41072 0
M  V30 56961 H 5592.73 -1.93923 3.94069 0
M  V30 56962 H 5593.34 -0.294544 4.24279 0
M  V30 56963 N 5591.65 -1.56171 0.211716 0
M  V30 56964 C 5592.88 -2.02876 -0.430834 0
M  V30 56965 C 5593.3 -1.09069 -1.5325 0
M  V30 56966 O 5592.66 -0.0771045 -1.81136 0
M  V30 56967 C 5592.71 -3.47894 -0.948811 0
M  V30 56968 O 5591.81 -3.5722 -2.06077 0
M  V30 56969 H 5591.15 -0.656618 -0.0987376 0
M  V30 56970 H 5593.68 -2.01962 0.32747 0
M  V30 56971 H 5593.69 -3.88019 -1.26116 0
M  V30 56972 H 5592.37 -4.15656 -0.142438 0
M  V30 56973 H 5590.95 -3.28977 -1.7558 0
M  V30 56974 N 5593.13 0.061761 -1.57479 0
M  V30 56975 C 5594.37 0.764229 -1.89576 0
M  V30 56976 C 5594.73 1.74232 -0.806666 0
M  V30 56977 O 5595.94 2.49063 -1.01099 0
M  V30 56978 C 5594.21 1.44492 -3.2689 0
M  V30 56979 S 5595.77 2.18107 -3.80756 0
M  V30 56980 H 5592.58 0.253923 -0.664112 0
M  V30 56981 H 5595.19 0.0199377 -1.9549 0
M  V30 56982 H 5593.89 0.719383 -4.04046 0
M  V30 56983 H 5593.42 2.22844 -3.24198 0
M  V30 56984 H 5595.44 3.4478 -3.56849 0
M  V30 56985 N 5594.61 1.54034 0.333374 0
M  V30 56986 C 5595.57 1.82026 1.39281 0
M  V30 56987 C 5596.57 0.691674 1.45164 0
M  V30 56988 O 5597.76 0.959976 1.45362 0
M  V30 56989 C 5594.89 1.97145 2.78112 0
M  V30 56990 H 5596.09 2.76675 1.1572 0
M  V30 56991 H 5593.64 1.45601 0.568325 0
M  V30 56992 H 5594.37 1.04674 3.06943 0
M  V30 56993 H 5594.16 2.79261 2.75238 0
M  V30 56994 H 5595.65 2.20284 3.54774 0
M  V30 56995 N 5596.09 -0.594927 1.4594 0
M  V30 56996 C 5597.31 -1.37989 1.54165 0
M  V30 56997 C 5597.73 -1.87954 0.178546 0
M  V30 56998 O 5597.09 -1.62935 -0.822104 0
M  V30 56999 C 5597.14 -2.57577 2.53646 0
M  V30 57000 O 5596.86 -2.09685 3.84661 0
M  V30 57001 C 5598.36 -3.50282 2.71693 0
M  V30 57002 H 5595.58 -0.421965 0.521715 0
M  V30 57003 H 5598.12 -0.724391 1.9124 0
M  V30 57004 H 5596.28 -3.19141 2.19608 0
M  V30 57005 H 5596.69 -2.87476 4.387 0
M  V30 57006 H 5598.17 -4.30705 3.45249 0
M  V30 57007 H 5598.64 -4.01438 1.7817 0
M  V30 57008 H 5599.25 -2.94562 3.06779 0
M  V30 57009 N 5597.56 -1.33441 -0.838524 0
M  V30 57010 C 5598.51 -1.23705 -1.96977 0
M  V30 57011 C 5599.51 -0.138359 -1.68834 0
M  V30 57012 O 5600.71 -0.30234 -1.77443 0
M  V30 57013 H 5597.09 -0.383896 -0.646628 0
M  V30 57014 H 5599.06 -2.19344 -2.02313 0
M  V30 57015 C 5597.81 -0.993479 -3.33205 0
M  V30 57016 H 5597.13 -1.83116 -3.55399 0
M  V30 57017 H 5598.57 -0.965662 -4.12857 0
M  V30 57018 C 5597.03 0.303583 -3.35529 0
M  V30 57019 O 5597.56 1.31016 -3.79734 0
M  V30 57020 N 5595.77 0.33124 -2.88706 0
M  V30 57021 H 5595.31 -0.48844 -2.52927 0
M  V30 57022 H 5595.27 1.1989 -2.90644 0
M  V30 57023 N 5599.04 1.05681 -1.16915 0
M  V30 57024 C 5600.01 2.11478 -0.883721 0
M  V30 57025 C 5601.01 1.60321 0.123977 0
M  V30 57026 O 5602.2 1.73867 -0.107627 0
M  V30 57027 C 5599.33 3.39369 -0.322768 0
M  V30 57028 H 5600.52 2.38232 -1.82169 0
M  V30 57029 H 5598.07 1.21846 -0.978938 0
M  V30 57030 H 5598.81 3.18268 0.622583 0
M  V30 57031 H 5598.59 3.77808 -1.04896 0
M  V30 57032 H 5600.08 4.17361 -0.141219 0
M  V30 57033 N 5600.52 0.96861 1.24321 0
M  V30 57034 C 5601.75 0.648235 1.97009 0
M  V30 57035 C 5602.17 -0.775782 1.71357 0
M  V30 57036 O 5601.53 -1.52668 0.977858 0
M  V30 57037 C 5601.58 0.930097 3.48399 0
M  V30 57038 O 5600.68 0.0159989 4.12397 0
M  V30 57039 H 5600.02 0.244983 0.617154 0
M  V30 57040 H 5602.55 1.29901 1.58073 0
M  V30 57041 H 5602.56 0.862003 3.9879 0
M  V30 57042 H 5601.24 1.96789 3.66397 0
M  V30 57043 H 5599.81 0.137492 3.72646 0
M  V30 57044 N 5602 -1.39208 0.738834 0
M  V30 57045 C 5603.25 -1.99672 0.285324 0
M  V30 57046 C 5603.56 -1.59301 -1.13501 0
M  V30 57047 O 5604.77 -2.12628 -1.68824 0
M  V30 57048 C 5603.22 -3.56959 0.459186 0
M  V30 57049 C 5602.83 -4.0629 1.88766 0
M  V30 57050 C 5604.58 -4.24446 0.0676446 0
M  V30 57051 C 5602.48 -5.56164 2.01087 0
M  V30 57052 H 5601.41 -0.746942 0.102927 0
M  V30 57053 H 5604.06 -1.59159 0.913265 0
M  V30 57054 H 5602.45 -3.95286 -0.237711 0
M  V30 57055 H 5603.62 -3.79288 2.61682 0
M  V30 57056 H 5601.93 -3.51478 2.23276 0
M  V30 57057 H 5604.53 -5.3452 0.138663 0
M  V30 57058 H 5604.87 -4.04657 -0.97768 0
M  V30 57059 H 5605.41 -3.91306 0.715842 0
M  V30 57060 H 5602.15 -5.80838 3.03821 0
M  V30 57061 H 5601.67 -5.84956 1.32612 0
M  V30 57062 H 5603.35 -6.21635 1.79384 0
M  V30 57063 N 5603.48 -0.48676 -1.49895 0
M  V30 57064 C 5604.72 0.0613269 -2.04308 0
M  V30 57065 C 5605.08 1.35576 -1.35953 0
M  V30 57066 O 5606.28 1.9872 -1.81008 0
M  V30 57067 C 5604.55 0.225041 -3.56691 0
M  V30 57068 S 5606.11 0.729429 -4.32695 0
M  V30 57069 H 5602.93 0.00853739 -0.710949 0
M  V30 57070 H 5605.53 -0.657479 -1.84113 0
M  V30 57071 H 5604.24 -0.722589 -4.03989 0
M  V30 57072 H 5603.77 0.969505 -3.81267 0
M  V30 57073 H 5605.78 2.00066 -4.54079 0
M  V30 57074 N 5604.96 1.56057 -0.219996 0
M  V30 57075 C 5606.2 1.9787 0.411313 0
M  V30 57076 C 5606.52 1.10884 1.60405 0
M  V30 57077 O 5605.79 0.185522 1.9502 0
M  V30 57078 H 5604.37 0.730752 0.154953 0
M  V30 57079 H 5607.04 1.92378 -0.312528 0
M  V30 57080 H 5606.13 3.03232 0.738691 0
M  V30 57081 N 5606.43 -0.0534086 1.57509 0
M  V30 57082 C 5607.71 -0.783078 1.79241 0
M  V30 57083 C 5608.09 -1.94853 0.812137 0
M  V30 57084 O 5607.44 -2.28001 -0.150926 0
M  V30 57085 C 5607.65 -1.23889 3.26271 0
M  V30 57086 C 5609 -1.66479 3.90602 0
M  V30 57087 O 5610.02 -1.33409 3.30273 0
M  V30 57088 O 5608.88 -2.27768 4.96774 0
M  V30 57089 H 5605.97 -0.37667 0.73624 0
M  V30 57090 H 5608.52 -0.0320633 1.6967 0
M  V30 57091 H 5607.29 -0.405811 3.8919 0
M  V30 57092 H 5606.91 -2.05066 3.40637 0
M  V30 57093 N 5607.91 -1.54208 -0.325201 0
M  V30 57094 C 5608.82 -1.865 -1.4232 0
M  V30 57095 C 5609.84 -0.756773 -1.56681 0
M  V30 57096 O 5611.01 -1.0509 -1.71808 0
M  V30 57097 C 5608.08 -2.08424 -2.77057 0
M  V30 57098 C 5607.14 -3.3223 -2.71885 0
M  V30 57099 C 5606.37 -3.53099 -4.00196 0
M  V30 57100 O 5606.6 -2.77439 -4.98381 0
M  V30 57101 O 5605.53 -4.46573 -4.03554 0
M  V30 57102 H 5609.36 -2.79863 -1.17941 0
M  V30 57103 H 5606.94 -1.40093 -0.519074 0
M  V30 57104 H 5608.82 -2.24184 -3.56819 0
M  V30 57105 H 5607.5 -1.18248 -3.01329 0
M  V30 57106 H 5606.4 -3.21857 -1.9068 0
M  V30 57107 H 5607.74 -4.22458 -2.52567 0
M  V30 57108 N 5609.39 0.587179 -1.46253 0
M  V30 57109 C 5610.35 1.67857 -1.56066 0
M  V30 57110 C 5611.35 1.54714 -0.438216 0
M  V30 57111 O 5612.54 1.59412 -0.702379 0
M  V30 57112 C 5609.67 3.07256 -1.4767 0
M  V30 57113 H 5610.87 1.60516 -2.53327 0
M  V30 57114 H 5608.42 0.804643 -1.33997 0
M  V30 57115 H 5609.16 3.20157 -0.516713 0
M  V30 57116 H 5608.94 3.18205 -2.29103 0
M  V30 57117 H 5610.43 3.86714 -1.57613 0
M  V30 57118 N 5610.87 1.33884 0.831435 0
M  V30 57119 C 5612.28 1.1338 1.12326 0
M  V30 57120 C 5612.48 -0.0703694 2.01377 0
M  V30 57121 O 5611.54 -0.748431 2.41153 0
M  V30 57122 C 5612.85 2.4249 1.77818 0
M  V30 57123 C 5614.4 2.48467 1.90351 0
M  V30 57124 C 5614.88 3.77557 2.59258 0
M  V30 57125 N 5616.37 3.7867 2.66765 0
M  V30 57126 C 5617.1 4.75269 3.20791 0
M  V30 57127 N 5616.6 5.82248 3.75446 0
M  V30 57128 N 5618.39 4.62735 3.19112 0
M  V30 57129 H 5610.54 2.11052 0.238924 0
M  V30 57130 H 5612.8 0.932899 0.168532 0
M  V30 57131 H 5612.51 3.30651 1.19846 0
M  V30 57132 H 5612.38 2.55195 2.77768 0
M  V30 57133 H 5614.77 1.60751 2.47474 0
M  V30 57134 H 5614.85 2.39696 0.893275 0
M  V30 57135 H 5614.5 4.65659 2.02792 0
M  V30 57136 H 5614.43 3.83607 3.60768 0
M  V30 57137 H 5616.92 3.01359 2.28015 0
M  V30 57138 H 5617.23 6.51983 4.14895 0
M  V30 57139 H 5615.58 5.85972 3.73713 0
M  V30 57140 H 5618.77 3.78313 2.75675 0
M  V30 57141 H 5618.94 5.38188 3.60913 0
M  V30 57142 N 5612.35 -1.0506 1.17474 0
M  V30 57143 C 5613.59 -1.79659 0.974787 0
M  V30 57144 C 5613.95 -1.857 -0.487791 0
M  V30 57145 O 5615.15 -2.56404 -0.806864 0
M  V30 57146 C 5613.42 -3.19592 1.59987 0
M  V30 57147 S 5614.98 -4.10652 1.5463 0
M  V30 57148 H 5611.8 -0.618734 0.350271 0
M  V30 57149 H 5614.4 -1.26045 1.49442 0
M  V30 57150 H 5613.1 -3.12798 2.6568 0
M  V30 57151 H 5612.64 -3.78282 1.0801 0
M  V30 57152 H 5614.65 -4.93084 0.555206 0
M  V30 57153 N 5613.82 -0.97519 -1.23806 0
M  V30 57154 C 5615.07 -0.642141 -1.92365 0
M  V30 57155 C 5615.4 0.821578 -1.75965 0
M  V30 57156 O 5614.68 1.59201 -1.11738 0
M  V30 57157 C 5614.96 -1.02689 -3.45148 0
M  V30 57158 C 5614.81 -2.54786 -3.70681 0
M  V30 57159 C 5616.13 -0.566953 -4.36433 0
M  V30 57160 H 5613.25 -0.23476 -0.698611 0
M  V30 57161 H 5615.89 -1.21554 -1.4603 0
M  V30 57162 H 5614.04 -0.538981 -3.84743 0
M  V30 57163 H 5615.72 -3.11111 -3.40599 0
M  V30 57164 H 5613.96 -2.97652 -3.15572 0
M  V30 57165 H 5614.63 -2.76757 -4.77608 0
M  V30 57166 H 5617.11 -0.985777 -4.04254 0
M  V30 57167 H 5615.98 -0.864649 -5.42047 0
M  V30 57168 H 5616.24 0.532835 -4.38877 0
M  V30 57169 N 5615.3 1.38815 -0.746207 0
M  V30 57170 C 5616.72 1.53893 -0.422994 0
M  V30 57171 C 5616.92 1.71068 1.0648 0
M  V30 57172 O 5615.97 1.7175 1.85089 0
M  V30 57173 C 5617.29 2.75025 -1.2158 0
M  V30 57174 C 5618.83 2.88869 -1.20514 0
M  V30 57175 C 5619.31 4.12953 -1.98075 0
M  V30 57176 N 5620.8 4.20016 -1.95298 0
M  V30 57177 C 5621.54 5.15003 -2.52111 0
M  V30 57178 N 5621.03 6.15709 -3.17607 0
M  V30 57179 N 5622.82 5.073 -2.42082 0
M  V30 57180 H 5614.98 1.25915 -1.71053 0
M  V30 57181 H 5617.24 0.611122 -0.72473 0
M  V30 57182 H 5616.94 2.68714 -2.26904 0
M  V30 57183 H 5616.82 3.68006 -0.827723 0
M  V30 57184 H 5619.21 2.94666 -0.159981 0
M  V30 57185 H 5619.29 1.9692 -1.63268 0
M  V30 57186 H 5618.93 4.07918 -3.02598 0
M  V30 57187 H 5618.86 5.03968 -1.5272 0
M  V30 57188 H 5621.35 3.47886 -1.47592 0
M  V30 57189 H 5621.66 6.84669 -3.58397 0
M  V30 57190 H 5620.01 6.16063 -3.217 0
M  V30 57191 H 5623.2 4.27562 -1.90547 0
M  V30 57192 H 5623.37 5.81148 -2.86655 0
M  V30 57193 N 5616.78 0.494703 1.49634 0
M  V30 57194 C 5618.01 -0.0490402 2.06842 0
M  V30 57195 C 5618.42 -1.3139 1.3558 0
M  V30 57196 O 5617.78 -1.77309 0.432197 0
M  V30 57197 C 5617.83 -0.313045 3.60142 0
M  V30 57198 O 5617.55 0.901671 4.28721 0
M  V30 57199 C 5619.05 -0.901131 4.34044 0
M  V30 57200 H 5616.27 0.0176422 0.670768 0
M  V30 57201 H 5618.82 0.690256 1.92499 0
M  V30 57202 H 5616.97 -1.00231 3.74209 0
M  V30 57203 H 5617.39 0.66066 5.20323 0
M  V30 57204 H 5618.86 -1.03548 5.42201 0
M  V30 57205 H 5619.34 -1.89733 3.96104 0
M  V30 57206 H 5619.94 -0.249527 4.24567 0
M  V30 57207 N 5618.26 -1.55938 0.228269 0
M  V30 57208 C 5619.17 -2.24215 -0.69026 0
M  V30 57209 C 5620.18 -1.25201 -1.20833 0
M  V30 57210 O 5621.36 -1.58031 -1.24853 0
M  V30 57211 C 5618.43 -2.91391 -1.87863 0
M  V30 57212 C 5617.49 -4.05766 -1.40187 0
M  V30 57213 C 5616.72 -4.69728 -2.53359 0
M  V30 57214 O 5616.94 -4.327 -3.71654 0
M  V30 57215 O 5615.88 -5.58594 -2.24178 0
M  V30 57216 H 5619.7 -3.03384 -0.138586 0
M  V30 57217 H 5617.29 -1.494 -0.00246252 0
M  V30 57218 H 5619.17 -3.33767 -2.5725 0
M  V30 57219 H 5617.84 -2.15177 -2.41828 0
M  V30 57220 H 5616.75 -3.67945 -0.675815 0
M  V30 57221 H 5618.08 -4.83742 -0.908521 0
M  V30 57222 N 5619.74 0.0450548 -1.57536 0
M  V30 57223 C 5620.68 1.05059 -2.05502 0
M  V30 57224 C 5621.65 1.36881 -0.940891 0
M  V30 57225 O 5622.84 1.47493 -1.21039 0
M  V30 57226 C 5619.98 2.3513 -2.52602 0
M  V30 57227 C 5619.09 2.09606 -3.77742 0
M  V30 57228 C 5618.23 3.33433 -4.13517 0
M  V30 57229 C 5617.27 3.03392 -5.3162 0
M  V30 57230 N 5616.4 4.19624 -5.62903 0
M  V30 57231 H 5621.24 0.634587 -2.91165 0
M  V30 57232 H 5618.78 0.30174 -1.43972 0
M  V30 57233 H 5620.74 3.11108 -2.77971 0
M  V30 57234 H 5619.37 2.74483 -1.69879 0
M  V30 57235 H 5618.42 1.24198 -3.59554 0
M  V30 57236 H 5619.73 1.83435 -4.63846 0
M  V30 57237 H 5618.89 4.17789 -4.39929 0
M  V30 57238 H 5617.62 3.62704 -3.26033 0
M  V30 57239 H 5616.63 2.17436 -5.04977 0
M  V30 57240 H 5617.85 2.75416 -6.20744 0
M  V30 57241 H 5615.8 4.48876 -4.78379 0
M  V30 57242 H 5615.72 3.96821 -6.43482 0
M  V30 57243 H 5616.99 5.049 -5.93882 0
M  V30 57244 N 5621.21 1.54379 0.317018 0
M  V30 57245 C 5622.18 1.83493 1.37343 0
M  V30 57246 C 5623.18 0.707032 1.44422 0
M  V30 57247 O 5624.37 0.975339 1.44336 0
M  V30 57248 C 5621.5 2.00084 2.76006 0
M  V30 57249 H 5622.69 2.77886 1.12779 0
M  V30 57250 H 5620.25 1.46196 0.55285 0
M  V30 57251 H 5620.98 1.07924 3.05815 0
M  V30 57252 H 5620.77 2.82165 2.7226 0
M  V30 57253 H 5622.26 2.24034 3.52418 0
M  V30 57254 N 5622.69 -0.579414 1.46562 0
M  V30 57255 C 5623.66 -1.67027 1.56954 0
M  V30 57256 C 5624.66 -1.54479 0.446415 0
M  V30 57257 O 5625.85 -1.59038 0.710823 0
M  V30 57258 C 5622.98 -3.06469 1.49297 0
M  V30 57259 H 5624.17 -1.5917 2.54175 0
M  V30 57260 H 5621.72 -0.797526 1.34422 0
M  V30 57261 H 5622.46 -3.19879 0.533684 0
M  V30 57262 H 5622.24 -3.16985 2.30787 0
M  V30 57263 H 5623.73 -3.85873 1.59661 0
M  V30 57264 N 5624.17 -1.34323 -0.824323 0
M  V30 57265 C 5625.4 -1.29486 -1.60987 0
M  V30 57266 C 5625.81 0.133515 -1.88728 0
M  V30 57267 O 5625.15 1.09059 -1.47823 0
M  V30 57268 C 5625.21 -2.01614 -2.97644 0
M  V30 57269 C 5624.88 -3.50877 -2.92805 0
M  V30 57270 C 5625.87 -4.4581 -2.67488 0
M  V30 57271 C 5623.56 -3.93269 -3.12481 0
M  V30 57272 C 5625.55 -5.8111 -2.61897 0
M  V30 57273 C 5623.24 -5.2867 -3.06515 0
M  V30 57274 C 5624.24 -6.22402 -2.81256 0
M  V30 57275 O 5623.93 -7.55321 -2.7522 0
M  V30 57276 H 5623.66 -0.446949 -0.507161 0
M  V30 57277 H 5626.21 -1.77488 -1.0338 0
M  V30 57278 H 5624.44 -1.48225 -3.57164 0
M  V30 57279 H 5626.13 -1.90086 -3.58639 0
M  V30 57280 H 5626.9 -4.14379 -2.52023 0
M  V30 57281 H 5622.78 -3.20711 -3.31158 0
M  V30 57282 H 5626.32 -6.54242 -2.42102 0
M  V30 57283 H 5622.22 -5.5972 -3.21533 0
M  V30 57284 H 5622.99 -7.6504 -2.90957 0
M  V30 57285 N 5625.65 1.04435 -1.1803 0
M  V30 57286 C 5626.89 1.79139 -0.984301 0
M  V30 57287 C 5627.25 1.85956 0.477936 0
M  V30 57288 O 5628.45 2.56829 0.793255 0
M  V30 57289 C 5626.72 3.18739 -1.6168 0
M  V30 57290 S 5628.28 4.09826 -1.56805 0
M  V30 57291 H 5625.1 0.616868 -0.353547 0
M  V30 57292 H 5627.7 1.2525 -1.50109 0
M  V30 57293 H 5626.41 3.11384 -2.67335 0
M  V30 57294 H 5625.94 3.77704 -1.10014 0
M  V30 57295 H 5627.95 4.92783 -0.581348 0
M  V30 57296 N 5627.13 0.981742 1.23287 0
M  V30 57297 C 5628.09 0.528071 2.23034 0
M  V30 57298 C 5629.09 -0.383029 1.56171 0
M  V30 57299 O 5630.28 -0.176534 1.73303 0
M  V30 57300 C 5627.41 -0.233381 3.401 0
M  V30 57301 H 5628.6 1.41005 2.64684 0
M  V30 57302 H 5626.16 0.767772 1.36143 0
M  V30 57303 H 5626.89 -1.13184 3.03908 0
M  V30 57304 H 5626.68 0.420642 3.89837 0
M  V30 57305 H 5628.17 -0.53934 4.14103 0
M  V30 57306 N 5628.6 -1.38417 0.753558 0
M  V30 57307 C 5629.84 -2.01964 0.314629 0
M  V30 57308 C 5630.21 -1.58523 -1.08325 0
M  V30 57309 O 5631.41 -2.144 -1.6213 0
M  V30 57310 C 5629.68 -3.54763 0.433324 0
M  V30 57311 S 5631.24 -4.38732 0.0769718 0
M  V30 57312 H 5628.06 -0.700443 0.12207 0
M  V30 57313 H 5630.66 -1.68921 0.984169 0
M  V30 57314 H 5629.36 -3.83869 1.45166 0
M  V30 57315 H 5628.89 -3.92583 -0.253401 0
M  V30 57316 H 5630.91 -4.83081 -1.13344 0
M  V30 57317 N 5630.08 -0.502631 -1.4937 0
M  V30 57318 C 5631.5 -0.158697 -1.58809 0
M  V30 57319 C 5631.7 1.33682 -1.50769 0
M  V30 57320 O 5630.75 2.1129 -1.38248 0
M  V30 57321 C 5632.07 -0.736945 -2.9153 0
M  V30 57322 C 5633.62 -0.7032 -3.04999 0
M  V30 57323 C 5634.09 -1.25954 -4.4034 0
M  V30 57324 N 5635.58 -1.22031 -4.46836 0
M  V30 57325 C 5636.32 -1.62095 -5.50012 0
M  V30 57326 N 5635.81 -2.0976 -6.60282 0
M  V30 57327 N 5637.61 -1.53501 -5.40734 0
M  V30 57328 H 5629.76 -1.47493 -1.52839 0
M  V30 57329 H 5632.02 -0.611877 -0.724093 0
M  V30 57330 H 5631.73 -1.78584 -3.02986 0
M  V30 57331 H 5631.6 -0.198311 -3.76678 0
M  V30 57332 H 5633.99 0.336862 -2.93171 0
M  V30 57333 H 5634.07 -1.279 -2.21529 0
M  V30 57334 H 5633.71 -2.29839 -4.5292 0
M  V30 57335 H 5633.64 -0.659665 -5.22452 0
M  V30 57336 H 5636.13 -0.871086 -3.67723 0
M  V30 57337 H 5636.45 -2.38396 -7.3511 0
M  V30 57338 H 5634.79 -2.13735 -6.61319 0
M  V30 57339 H 5637.98 -1.16081 -4.53478 0
M  V30 57340 H 5638.15 -1.85048 -6.21016 0
M  V30 57341 N 5631.56 1.55815 -0.236535 0
M  V30 57342 C 5632.79 2.03536 0.398504 0
M  V30 57343 C 5633.21 1.11494 1.51495 0
M  V30 57344 O 5632.57 0.105912 1.8099 0
M  V30 57345 C 5632.62 3.49359 0.893344 0
M  V30 57346 O 5631.72 3.60453 2.00368 0
M  V30 57347 H 5631.06 0.658105 0.0882789 0
M  V30 57348 H 5633.59 2.01416 -0.359559 0
M  V30 57349 H 5633.6 3.89976 1.19927 0
M  V30 57350 H 5632.28 4.1583 0.0762926 0
M  V30 57351 H 5630.85 3.31729 1.70324 0
M  V30 57352 N 5633.04 -0.0366996 1.57557 0
M  V30 57353 C 5634.29 -0.727599 1.88548 0
M  V30 57354 C 5634.61 -1.76301 0.833241 0
M  V30 57355 O 5633.88 -1.95441 -0.134072 0
M  V30 57356 H 5632.46 -0.27172 0.695828 0
M  V30 57357 H 5635.12 -0.00446063 1.94899 0
M  V30 57358 H 5634.22 -1.22195 2.87184 0
M  V30 57359 N 5634.52 -1.54545 -0.308827 0
M  V30 57360 C 5635.76 -1.73453 -1.045 0
M  V30 57361 C 5636.09 -0.5161 -1.87528 0
M  V30 57362 O 5635.35 0.50204 -1.89151 0
M  V30 57363 C 5635.65 -2.97131 -1.98615 0
M  V30 57364 C 5635.31 -4.3126 -1.31626 0
M  V30 57365 C 5633.97 -4.67723 -1.13088 0
M  V30 57366 C 5636.33 -5.1444 -0.836707 0
M  V30 57367 C 5633.65 -5.84951 -0.452672 0
M  V30 57368 C 5636.01 -6.32365 -0.172251 0
M  V30 57369 C 5634.67 -6.67495 0.025149 0
M  V30 57370 H 5633.94 -0.63471 -0.382393 0
M  V30 57371 H 5636.59 -1.88796 -0.320647 0
M  V30 57372 H 5634.89 -2.76536 -2.77552 0
M  V30 57373 H 5636.59 -3.08955 -2.55632 0
M  V30 57374 H 5633.18 -4.02581 -1.4706 0
M  V30 57375 H 5637.36 -4.86775 -0.967663 0
M  V30 57376 H 5632.62 -6.10718 -0.288671 0
M  V30 57377 H 5636.79 -6.96091 0.207271 0
M  V30 57378 H 5634.42 -7.58188 0.552692 0
M  V30 57379 N 5636 0.571634 -1.46868 0
M  V30 57380 C 5636.95 1.67504 -1.54682 0
M  V30 57381 C 5637.93 1.55672 -0.406829 0
M  V30 57382 O 5639.12 1.64399 -0.655905 0
M  V30 57383 C 5636.25 3.0629 -1.55053 0
M  V30 57384 C 5635.34 3.23378 -2.74385 0
M  V30 57385 N 5635.73 3.10584 -3.99213 0
M  V30 57386 C 5634.03 3.54345 -2.70843 0
M  V30 57387 C 5634.73 3.29976 -4.79052 0
M  V30 57388 N 5633.7 3.55644 -4.11118 0
M  V30 57389 H 5637.5 1.56159 -2.48981 0
M  V30 57390 H 5635.02 0.775986 -1.42661 0
M  V30 57391 H 5637.02 3.85496 -1.5874 0
M  V30 57392 H 5635.68 3.18757 -0.61839 0
M  V30 57393 H 5636.69 2.88215 -4.30293 0
M  V30 57394 H 5633.36 3.73428 -1.86701 0
M  V30 57395 H 5634.75 3.25174 -5.87973 0
M  V30 57396 N 5637.47 1.34758 0.817188 0
M  V30 57397 C 5638.7 1.30527 1.60531 0
M  V30 57398 C 5639.12 -0.119475 1.88422 0
M  V30 57399 O 5638.47 -1.06828 1.47966 0
M  V30 57400 C 5638.52 2.09949 2.94285 0
M  V30 57401 O 5638.25 3.46868 2.67609 0
M  V30 57402 C 5639.75 2.13181 3.88675 0
M  V30 57403 H 5636.97 0.448806 0.498813 0
M  V30 57404 H 5639.51 1.77457 1.01633 0
M  V30 57405 H 5637.67 1.66646 3.49725 0
M  V30 57406 H 5638.08 3.87991 3.52935 0
M  V30 57407 H 5639.55 2.73164 4.79672 0
M  V30 57408 H 5640.03 1.12773 4.24475 0
M  V30 57409 H 5640.64 2.56598 3.39172 0
M  V30 57410 N 5638.95 -1.03808 1.18582 0
M  V30 57411 C 5640.2 -1.77315 0.984236 0
M  V30 57412 C 5640.53 -1.88053 -0.484723 0
M  V30 57413 O 5639.81 -1.39055 -1.35993 0
M  V30 57414 C 5640.09 -3.20443 1.64282 0
M  V30 57415 C 5639.94 -3.17632 3.18481 0
M  V30 57416 C 5641.26 -4.18618 1.3582 0
M  V30 57417 H 5638.38 -0.643668 0.358971 0
M  V30 57418 H 5641.02 -1.21244 1.46287 0
M  V30 57419 H 5639.17 -3.68319 1.23585 0
M  V30 57420 H 5640.84 -2.77725 3.6833 0
M  V30 57421 H 5639.09 -2.55593 3.50506 0
M  V30 57422 H 5639.76 -4.18712 3.597 0
M  V30 57423 H 5642.23 -3.793 1.71086 0
M  V30 57424 H 5641.11 -5.16976 1.84465 0
M  V30 57425 H 5641.37 -4.41202 0.281573 0
M  V30 57426 N 5640.43 -0.988266 -1.22764 0
M  V30 57427 C 5641.84 -0.697342 -1.73188 0
M  V30 57428 C 5642.19 0.786048 -1.79766 0
M  V30 57429 O 5641.32 1.6146 -1.44082 0
M  V30 57430 C 5641.91 -1.25916 -3.14532 0
M  V30 57431 C 5640.47 -1.01772 -3.6238 0
M  V30 57432 C 5639.62 -1.38215 -2.40399 0
M  V30 57433 H 5642.57 -1.16118 -1.08177 0
M  V30 57434 H 5642.59 -0.635447 -3.75156 0
M  V30 57435 H 5642.1 -2.3388 -3.09713 0
M  V30 57436 H 5640.2 0.045496 -3.72572 0
M  V30 57437 H 5640.32 -1.67783 -4.4876 0
M  V30 57438 H 5638.68 -0.800692 -2.41787 0
M  V30 57439 H 5639.46 -2.47173 -2.38245 0
M  V30 57440 N 5641.91 1.38015 -0.760888 0
M  V30 57441 C 5643.16 1.99556 -0.319679 0
M  V30 57442 C 5643.48 1.60703 1.10452 0
M  V30 57443 O 5642.75 0.86731 1.75655 0
M  V30 57444 H 5641.33 0.738062 -0.115208 0
M  V30 57445 H 5643.99 1.68667 -0.976604 0
M  V30 57446 H 5643.08 3.09671 -0.388632 0
M  V30 57447 N 5643.39 0.510546 1.49101 0
M  V30 57448 C 5644.32 -0.299617 2.27233 0
M  V30 57449 C 5645.33 -0.922055 1.34171 0
M  V30 57450 O 5646.52 -0.80378 1.59379 0
M  V30 57451 C 5643.62 -1.43767 3.06894 0
M  V30 57452 C 5642.79 -0.920777 4.27598 0
M  V30 57453 C 5641.85 -1.93759 4.89228 0
M  V30 57454 O 5640.88 -1.50231 5.49017 0
M  V30 57455 N 5642.08 -3.26863 4.7973 0
M  V30 57456 H 5644.84 0.370385 2.97402 0
M  V30 57457 H 5642.41 0.343672 1.5821 0
M  V30 57458 H 5644.4 -2.11565 3.44996 0
M  V30 57459 H 5642.97 -2.01167 2.39271 0
M  V30 57460 H 5642.19 -0.0673973 3.94142 0
M  V30 57461 H 5643.48 -0.55399 5.05775 0
M  V30 57462 H 5642.87 -3.64909 4.32271 0
M  V30 57463 H 5641.43 -3.90348 5.21988 0
M  V30 57464 N 5644.86 -1.55687 0.244795 0
M  V30 57465 C 5646.27 -1.84898 -0.258755 0
M  V30 57466 C 5646.63 -1.16658 -1.57751 0
M  V30 57467 O 5645.75 -0.444236 -2.11791 0
M  V30 57468 C 5646.35 -3.35436 -0.476267 0
M  V30 57469 C 5644.9 -3.6488 -0.924085 0
M  V30 57470 C 5644.05 -2.773 -0.000115735 0
M  V30 57471 H 5647 -1.51661 0.467411 0
M  V30 57472 H 5647.02 -3.56901 -1.31916 0
M  V30 57473 H 5646.54 -3.85074 0.483702 0
M  V30 57474 H 5644.64 -3.20718 -1.8966 0
M  V30 57475 H 5644.75 -4.72668 -0.782404 0
M  V30 57476 H 5643.11 -2.49519 -0.511106 0
M  V30 57477 H 5643.9 -3.29744 0.955188 0
M  V30 57478 N 5646.34 0.0283435 -1.57575 0
M  V30 57479 C 5647.59 0.71759 -1.88931 0
M  V30 57480 C 5647.91 1.75857 -0.842579 0
M  V30 57481 O 5647.18 1.95509 0.123705 0
M  V30 57482 H 5645.76 0.268026 -0.69726 0
M  V30 57483 H 5648.42 -0.00587543 -1.94899 0
M  V30 57484 H 5647.52 1.2067 -2.87828 0
M  V30 57485 N 5647.82 1.54706 0.300627 0
M  V30 57486 C 5649.06 1.75742 1.04375 0
M  V30 57487 C 5649.42 0.532203 1.84477 0
M  V30 57488 O 5650.63 0.620305 2.61545 0
M  V30 57489 C 5648.9 3.01102 1.92542 0
M  V30 57490 S 5650.46 3.43141 2.73495 0
M  V30 57491 H 5647.27 0.61775 0.352003 0
M  V30 57492 H 5649.88 1.92911 0.317119 0
M  V30 57493 H 5648.58 3.88398 1.32571 0
M  V30 57494 H 5648.11 2.86521 2.69572 0
M  V30 57495 H 5650.13 3.00241 3.95057 0
M  V30 57496 N 5649.3 -0.563837 1.47169 0
M  V30 57497 C 5650.23 -1.68649 1.5521 0
M  V30 57498 C 5651.24 -1.56774 0.438824 0
M  V30 57499 O 5652.43 -1.63853 0.708117 0
M  V30 57500 C 5649.53 -3.07063 1.43407 0
M  V30 57501 C 5648.71 -3.44757 2.69186 0
M  V30 57502 C 5647.76 -4.62307 2.51314 0
M  V30 57503 O 5646.79 -4.6722 3.25107 0
M  V30 57504 N 5647.99 -5.58384 1.58707 0
M  V30 57505 H 5650.76 -1.622 2.52014 0
M  V30 57506 H 5648.32 -0.750309 1.43464 0
M  V30 57507 H 5650.31 -3.83524 1.29195 0
M  V30 57508 H 5648.88 -3.07775 0.547105 0
M  V30 57509 H 5648.1 -2.57811 2.98207 0
M  V30 57510 H 5649.39 -3.66714 3.52702 0
M  V30 57511 H 5648.79 -5.57166 0.978933 0
M  V30 57512 H 5647.34 -6.34199 1.50451 0
M  V30 57513 N 5650.78 -1.3519 -0.81003 0
M  V30 57514 C 5652.05 -1.18838 -1.55361 0
M  V30 57515 C 5652.43 0.233882 -2.098 0
M  V30 57516 O 5651.78 1.23694 -1.92125 0
M  V30 57517 C 5651.99 -2.2536 -2.66484 0
M  V30 57518 C 5653.34 -2.60993 -3.34915 0
M  V30 57519 O 5654.36 -2.24247 -2.76752 0
M  V30 57520 O 5653.22 -3.24163 -4.39978 0
M  V30 57521 H 5650.32 -0.46147 -0.686276 0
M  V30 57522 H 5652.86 -1.46861 -0.850289 0
M  V30 57523 H 5651.63 -3.20769 -2.24104 0
M  V30 57524 H 5651.26 -1.98587 -3.44455 0
M  V30 57525 N 5652.25 1.03178 -1.19131 0
M  V30 57526 C 5653.5 1.7593 -0.986477 0
M  V30 57527 C 5653.82 1.89521 0.483853 0
M  V30 57528 O 5655.02 2.59216 0.807429 0
M  V30 57529 C 5653.48 3.16352 -1.71608 0
M  V30 57530 C 5653.09 3.10825 -3.22633 0
M  V30 57531 C 5654.83 3.9342 -1.59439 0
M  V30 57532 C 5652.74 4.4616 -3.88195 0
M  V30 57533 H 5651.67 0.659503 -0.365474 0
M  V30 57534 H 5654.32 1.15492 -1.42597 0
M  V30 57535 H 5652.7 3.7724 -1.2044 0
M  V30 57536 H 5653.87 2.59335 -3.80896 0
M  V30 57537 H 5652.19 2.47254 -3.35044 0
M  V30 57538 H 5654.79 4.93519 -2.05775 0
M  V30 57539 H 5655.13 4.12676 -0.548071 0
M  V30 57540 H 5655.66 3.39127 -2.07937 0
M  V30 57541 H 5652.4 4.32108 -4.92912 0
M  V30 57542 H 5651.92 4.97718 -3.34719 0
M  V30 57543 H 5653.6 5.15052 -3.91574 0
M  V30 57544 N 5653.73 0.994763 1.22238 0
M  V30 57545 C 5654.68 0.53954 2.26256 0
M  V30 57546 C 5655.67 -0.410738 1.64345 0
M  V30 57547 O 5656.88 -0.283054 1.77761 0
M  V30 57548 H 5653.26 0.156094 0.735621 0
M  V30 57549 H 5655.23 1.42823 2.62 0
M  V30 57550 C 5653.98 -0.128298 3.47463 0
M  V30 57551 H 5653.3 0.593866 3.95365 0
M  V30 57552 H 5654.74 -0.410245 4.22011 0
M  V30 57553 C 5653.2 -1.36423 3.08043 0
M  V30 57554 O 5653.73 -2.45942 3.17609 0
M  V30 57555 N 5651.93 -1.24017 2.62808 0
M  V30 57556 H 5651.48 -0.349021 2.55225 0
M  V30 57557 H 5651.44 -2.06815 2.36801 0
M  V30 57558 N 5655.21 -1.3761 0.768196 0
M  V30 57559 C 5656.12 -2.34102 0.152731 0
M  V30 57560 C 5657.14 -1.60002 -0.683755 0
M  V30 57561 O 5658.31 -1.92114 -0.604504 0
M  V30 57562 C 5655.38 -3.39166 -0.718834 0
M  V30 57563 C 5654.44 -4.29092 0.133701 0
M  V30 57564 C 5653.67 -5.29138 -0.696361 0
M  V30 57565 O 5653.89 -5.36625 -1.93364 0
M  V30 57566 O 5652.83 -6.01804 -0.10744 0
M  V30 57567 H 5656.65 -2.88459 0.950001 0
M  V30 57568 H 5654.24 -1.3971 0.529301 0
M  V30 57569 H 5656.12 -4.03459 -1.21651 0
M  V30 57570 H 5654.8 -2.87143 -1.49435 0
M  V30 57571 H 5653.7 -3.67911 0.677657 0
M  V30 57572 H 5655.04 -4.8441 0.872218 0
M  V30 57573 N 5656.69 -0.518446 -1.48828 0
M  V30 57574 C 5657.93 0.0179763 -2.04392 0
M  V30 57575 C 5658.29 1.32661 -1.38798 0
M  V30 57576 O 5659.49 1.94836 -1.85182 0
M  V30 57577 C 5657.76 0.149331 -3.57088 0
M  V30 57578 S 5659.32 0.637484 -4.34145 0
M  V30 57579 H 5656.14 -0.00654481 -0.71097 0
M  V30 57580 H 5658.74 -0.696384 -1.82677 0
M  V30 57581 H 5657.45 -0.808119 -4.02365 0
M  V30 57582 H 5656.98 0.888415 -3.83237 0
M  V30 57583 H 5658.99 1.9039 -4.58221 0
M  V30 57584 N 5658.17 1.55555 -0.253048 0
M  V30 57585 C 5659.1 2.24616 0.637968 0
M  V30 57586 C 5660.08 1.22856 1.17646 0
M  V30 57587 O 5661.26 1.51524 1.21467 0
M  V30 57588 C 5658.39 2.95035 1.83225 0
M  V30 57589 C 5657.35 4.03536 1.42627 0
M  V30 57590 C 5656.67 4.61414 2.70188 0
M  V30 57591 C 5657.97 5.18925 0.592776 0
M  V30 57592 H 5659.67 2.99336 0.0620865 0
M  V30 57593 H 5657.21 1.43972 0.0284215 0
M  V30 57594 H 5659.17 3.42051 2.46129 0
M  V30 57595 H 5657.89 2.17814 2.43361 0
M  V30 57596 H 5656.55 3.57299 0.820547 0
M  V30 57597 H 5656.2 3.80885 3.28535 0
M  V30 57598 H 5655.9 5.34661 2.43745 0
M  V30 57599 H 5657.42 5.11166 3.33979 0
M  V30 57600 H 5658.83 5.62128 1.12626 0
M  V30 57601 H 5657.23 5.98599 0.424148 0
M  V30 57602 H 5658.3 4.833 -0.393604 0
M  V30 57603 N 5659.64 -0.0199865 1.57587 0
M  V30 57604 C 5661.06 -0.375779 1.55113 0
M  V30 57605 C 5661.26 -1.76043 0.980359 0
M  V30 57606 O 5660.32 -2.45135 0.605383 0
M  V30 57607 C 5661.63 -0.269313 2.99492 0
M  V30 57608 C 5663.18 -0.345728 3.11085 0
M  V30 57609 C 5663.65 -0.26861 4.57212 0
M  V30 57610 N 5665.14 -0.327127 4.62043 0
M  V30 57611 C 5665.88 -0.290487 5.72664 0
M  V30 57612 N 5665.37 -0.205608 6.92495 0
M  V30 57613 N 5667.17 -0.340885 5.61065 0
M  V30 57614 H 5659.32 0.886047 1.93036 0
M  V30 57615 H 5661.58 0.337784 0.88578 0
M  V30 57616 H 5661.29 0.682574 3.45013 0
M  V30 57617 H 5661.16 -1.05938 3.62018 0
M  V30 57618 H 5663.55 -1.28805 2.65506 0
M  V30 57619 H 5663.63 0.473848 2.51373 0
M  V30 57620 H 5663.27 0.670083 5.0346 0
M  V30 57621 H 5663.2 -1.10641 5.14846 0
M  V30 57622 H 5665.69 -0.394872 3.75831 0
M  V30 57623 H 5666.01 -0.182998 7.72583 0
M  V30 57624 H 5664.35 -0.171523 6.94788 0
M  V30 57625 H 5667.54 -0.405251 4.66342 0
M  V30 57626 H 5667.72 -0.308863 6.47263 0
M  V30 57627 N 5661.12 -1.54863 -0.292418 0
M  V30 57628 C 5662.37 -1.74552 -1.02654 0
M  V30 57629 C 5662.7 -0.535961 -1.8697 0
M  V30 57630 O 5661.95 0.48195 -1.89673 0
M  V30 57631 C 5662.25 -2.99221 -1.95453 0
M  V30 57632 C 5661.92 -4.32632 -1.27045 0
M  V30 57633 C 5660.58 -4.68896 -1.08121 0
M  V30 57634 C 5662.93 -5.15299 -0.782097 0
M  V30 57635 C 5660.26 -5.85398 -0.390605 0
M  V30 57636 C 5662.61 -6.32513 -0.10517 0
M  V30 57637 C 5661.28 -6.67431 0.0959444 0
M  V30 57638 H 5660.55 -0.63873 -0.375639 0
M  V30 57639 H 5663.19 -1.89126 -0.300605 0
M  V30 57640 H 5661.5 -2.79464 -2.74603 0
M  V30 57641 H 5663.2 -3.11649 -2.52341 0
M  V30 57642 H 5659.79 -4.04118 -1.42781 0
M  V30 57643 H 5663.97 -4.87774 -0.915979 0
M  V30 57644 H 5659.23 -6.1099 -0.22388 0
M  V30 57645 H 5663.4 -6.95832 0.281089 0
M  V30 57646 H 5661.03 -7.57559 0.633077 0
M  V30 57647 N 5662.6 0.556024 -1.47466 0
M  V30 57648 C 5663.85 1.31055 -1.53847 0
M  V30 57649 C 5664.17 1.93942 -0.202875 0
M  V30 57650 O 5663.44 1.79992 0.773275 0
M  V30 57651 H 5662.02 0.486676 -0.566706 0
M  V30 57652 H 5664.68 0.649175 -1.83771 0
M  V30 57653 H 5663.78 2.10346 -2.30567 0
M  V30 57654 N 5664.08 1.35617 0.802849 0
M  V30 57655 C 5665.31 1.32223 1.59138 0
M  V30 57656 C 5665.72 -0.0994833 1.88538 0
M  V30 57657 O 5665.08 -1.05253 1.49091 0
M  V30 57658 C 5665.13 2.13059 2.92042 0
M  V30 57659 O 5664.85 3.49687 2.63914 0
M  V30 57660 C 5666.35 2.17292 3.86393 0
M  V30 57661 H 5663.57 0.454072 0.494024 0
M  V30 57662 H 5666.12 1.78525 0.997453 0
M  V30 57663 H 5664.27 1.70346 3.47938 0
M  V30 57664 H 5664.69 3.91713 3.488 0
M  V30 57665 H 5666.16 2.78236 4.76748 0
M  V30 57666 H 5666.64 1.17268 4.23255 0
M  V30 57667 H 5667.24 2.60181 3.36431 0
M  V30 57668 N 5665.56 -1.02544 1.19676 0
M  V30 57669 C 5666.8 -1.77551 1.01268 0
M  V30 57670 C 5667.16 -1.86693 -0.448292 0
M  V30 57671 O 5668.36 -2.58058 -0.752295 0
M  V30 57672 C 5666.63 -3.16126 1.6673 0
M  V30 57673 S 5668.19 -4.0728 1.63306 0
M  V30 57674 H 5665.01 -0.611165 0.363316 0
M  V30 57675 H 5667.61 -1.22846 1.52082 0
M  V30 57676 H 5666.32 -3.07092 2.72255 0
M  V30 57677 H 5665.85 -3.75906 1.16009 0
M  V30 57678 H 5667.86 -4.91795 0.659672 0
M  V30 57679 N 5667.04 -1.00123 -1.21709 0
M  V30 57680 C 5668.26 -0.700241 -1.95221 0
M  V30 57681 C 5668.69 0.730077 -1.73354 0
M  V30 57682 O 5668.04 1.50022 -1.01799 0
M  V30 57683 C 5668.09 -1.02214 -3.4581 0
M  V30 57684 O 5667.2 -0.125333 -4.1221 0
M  V30 57685 H 5666.54 -0.26126 -0.610442 0
M  V30 57686 H 5669.07 -1.34046 -1.54573 0
M  V30 57687 H 5669.08 -0.967432 -3.96364 0
M  V30 57688 H 5667.75 -2.06434 -3.61051 0
M  V30 57689 H 5666.33 -0.236245 -3.72151 0
M  V30 57690 N 5668.51 1.37201 -0.775483 0
M  V30 57691 C 5669.45 2.28873 -0.122454 0
M  V30 57692 C 5670.46 1.48813 0.660187 0
M  V30 57693 O 5671.65 1.71422 0.497664 0
M  V30 57694 C 5668.75 3.28065 0.850097 0
M  V30 57695 C 5667.92 4.37234 0.120479 0
M  V30 57696 C 5666.98 5.16476 1.00694 0
M  V30 57697 O 5666.01 5.67262 0.469329 0
M  V30 57698 N 5667.21 5.31564 2.3328 0
M  V30 57699 H 5669.97 2.85556 -0.909842 0
M  V30 57700 H 5667.53 1.49217 -0.628159 0
M  V30 57701 H 5669.53 3.77961 1.44664 0
M  V30 57702 H 5668.1 2.72123 1.53843 0
M  V30 57703 H 5667.32 3.88686 -0.657016 0
M  V30 57704 H 5668.6 5.07352 -0.383536 0
M  V30 57705 H 5668 4.91893 2.79389 0
M  V30 57706 H 5666.56 5.84755 2.87932 0
M  V30 57707 N 5669.99 0.526331 1.48551 0
M  V30 57708 C 5670.92 -0.227282 2.32391 0
M  V30 57709 C 5671.9 -0.93857 1.41862 0
M  V30 57710 O 5673.09 -0.925059 1.70752 0
M  V30 57711 C 5670.22 -1.27688 3.22975 0
M  V30 57712 C 5669.17 -0.683959 4.225 0
M  V30 57713 C 5668.5 -1.83594 5.02192 0
M  V30 57714 C 5669.8 0.341906 5.2118 0
M  V30 57715 H 5671.49 0.47259 2.95647 0
M  V30 57716 H 5669.04 0.228719 1.42172 0
M  V30 57717 H 5670.99 -1.81202 3.80452 0
M  V30 57718 H 5669.71 -2.00629 2.57713 0
M  V30 57719 H 5668.37 -0.170377 3.66204 0
M  V30 57720 H 5668.02 -2.55364 4.33357 0
M  V30 57721 H 5667.72 -1.44516 5.69552 0
M  V30 57722 H 5669.25 -2.37493 5.62521 0
M  V30 57723 H 5670.66 -0.106006 5.73202 0
M  V30 57724 H 5669.06 0.649882 5.96571 0
M  V30 57725 H 5670.13 1.24897 4.68539 0
M  V30 57726 N 5671.47 -1.55419 0.261294 0
M  V30 57727 C 5672.71 -2.01191 -0.360777 0
M  V30 57728 C 5673.07 -1.14563 -1.54076 0
M  V30 57729 O 5674.27 -1.49854 -2.23153 0
M  V30 57730 C 5672.55 -3.49516 -0.746557 0
M  V30 57731 S 5674.1 -4.17286 -1.35712 0
M  V30 57732 H 5670.92 -0.701982 -0.112879 0
M  V30 57733 H 5673.52 -1.91773 0.379897 0
M  V30 57734 H 5672.23 -4.10221 0.121316 0
M  V30 57735 H 5671.76 -3.62889 -1.51905 0
M  V30 57736 H 5673.77 -4.19765 -2.64598 0
M  V30 57737 N 5672.95 0.011629 -1.57596 0
M  V30 57738 C 5673.9 1.02507 -2.08794 0
M  V30 57739 C 5674.89 1.36337 -1.00541 0
M  V30 57740 O 5676.1 1.35038 -1.19016 0
M  V30 57741 H 5672.47 0.348177 -0.666541 0
M  V30 57742 H 5674.44 0.567595 -2.92952 0
M  V30 57743 C 5673.19 2.31191 -2.59704 0
M  V30 57744 H 5672.51 2.06024 -3.42628 0
M  V30 57745 H 5673.95 3.00407 -2.99219 0
M  V30 57746 C 5672.41 3.01367 -1.50597 0
M  V30 57747 O 5672.94 3.91893 -0.882184 0
M  V30 57748 N 5671.15 2.62993 -1.23625 0
M  V30 57749 H 5670.7 1.8946 -1.74535 0
M  V30 57750 H 5670.65 3.10262 -0.508398 0
M  V30 57751 N 5674.43 1.55016 0.284201 0
M  V30 57752 C 5675.37 1.87903 1.37096 0
M  V30 57753 C 5676.37 0.754284 1.5168 0
M  V30 57754 O 5677.57 0.938494 1.53598 0
M  V30 57755 H 5673.95 0.596224 0.45828 0
M  V30 57756 H 5675.92 2.78708 1.06604 0
M  V30 57757 C 5674.67 2.15773 2.72648 0
M  V30 57758 H 5673.99 3.01802 2.62213 0
M  V30 57759 H 5675.43 2.42713 3.47659 0
M  V30 57760 C 5673.89 0.961674 3.22883 0
M  V30 57761 O 5674.42 0.190631 4.01247 0
M  V30 57762 N 5672.63 0.762437 2.8042 0
M  V30 57763 H 5672.17 1.39112 2.16808 0
M  V30 57764 H 5672.13 -0.0362376 3.14379 0
M  V30 57765 N 5675.9 -0.548196 1.47758 0
M  V30 57766 C 5677.13 -1.33014 1.58477 0
M  V30 57767 C 5677.55 -1.87291 0.238252 0
M  V30 57768 O 5676.9 -1.65468 -0.769852 0
M  V30 57769 C 5676.96 -2.49377 2.61713 0
M  V30 57770 O 5676.68 -1.97341 3.91137 0
M  V30 57771 C 5678.18 -3.41461 2.827 0
M  V30 57772 H 5675.4 -0.405153 0.534875 0
M  V30 57773 H 5677.94 -0.663183 1.93448 0
M  V30 57774 H 5676.1 -3.11993 2.2965 0
M  V30 57775 H 5676.51 -2.73374 4.47624 0
M  V30 57776 H 5677.98 -4.19503 3.58777 0
M  V30 57777 H 5678.46 -3.95566 1.90851 0
M  V30 57778 H 5679.07 -2.84653 3.15995 0
M  V30 57779 N 5677.38 -1.36041 -0.795646 0
M  V30 57780 C 5678.33 -1.29859 -1.90801 0
M  V30 57781 C 5679.3 -0.168445 -1.65244 0
M  V30 57782 O 5680.48 -0.353945 -1.87488 0
M  V30 57783 C 5677.62 -1.08749 -3.27517 0
M  V30 57784 C 5676.74 -2.30784 -3.65189 0
M  V30 57785 C 5675.87 -2.02735 -4.90991 0
M  V30 57786 C 5674.91 -3.20764 -5.21322 0
M  V30 57787 N 5674.05 -2.92421 -6.38306 0
M  V30 57788 H 5678.89 -2.24977 -1.95421 0
M  V30 57789 H 5676.43 -1.11822 -0.955731 0
M  V30 57790 H 5678.38 -0.945379 -4.06348 0
M  V30 57791 H 5677.01 -0.172894 -3.22337 0
M  V30 57792 H 5676.07 -2.5582 -2.81532 0
M  V30 57793 H 5677.38 -3.18882 -3.83556 0
M  V30 57794 H 5676.53 -1.85418 -5.77672 0
M  V30 57795 H 5675.27 -1.11938 -4.7468 0
M  V30 57796 H 5674.28 -3.38647 -4.33126 0
M  V30 57797 H 5675.5 -4.12379 -5.39556 0
M  V30 57798 H 5673.45 -2.04229 -6.23399 0
M  V30 57799 H 5673.36 -3.74057 -6.56976 0
M  V30 57800 H 5674.63 -2.78669 -7.27986 0
M  V30 57801 N 5678.86 1.01908 -1.20218 0
M  V30 57802 C 5680.11 1.7512 -1.00883 0
M  V30 57803 C 5680.43 1.89487 0.460408 0
M  V30 57804 O 5679.7 1.43557 1.33297 0
M  V30 57805 H 5678.28 0.648764 -0.370289 0
M  V30 57806 H 5680.94 1.22878 -1.51285 0
M  V30 57807 H 5680.04 2.75575 -1.46508 0
M  V30 57808 N 5680.34 1.00767 1.21176 0
M  V30 57809 C 5681.59 0.690526 1.89937 0
M  V30 57810 C 5681.91 -0.781401 1.78659 0
M  V30 57811 O 5681.18 -1.56131 1.18321 0
M  V30 57812 H 5679.76 0.252421 0.703059 0
M  V30 57813 H 5682.42 1.27736 1.47206 0
M  V30 57814 H 5681.52 0.966044 2.96773 0
M  V30 57815 N 5681.82 -1.36787 0.782749 0
M  V30 57816 C 5682.77 -2.27507 0.149814 0
M  V30 57817 C 5683.75 -1.46636 -0.662317 0
M  V30 57818 O 5684.94 -1.69082 -0.523484 0
M  V30 57819 C 5682.07 -3.35669 -0.719821 0
M  V30 57820 C 5681.16 -4.2398 0.100737 0
M  V30 57821 N 5681.55 -4.92509 1.15191 0
M  V30 57822 C 5679.85 -4.45834 -0.121496 0
M  V30 57823 C 5680.55 -5.57782 1.65087 0
M  V30 57824 N 5679.52 -5.35035 0.961198 0
M  V30 57825 H 5683.33 -2.7797 0.954463 0
M  V30 57826 H 5680.84 -1.50035 0.621562 0
M  V30 57827 H 5682.84 -3.99582 -1.18912 0
M  V30 57828 H 5681.5 -2.86761 -1.52309 0
M  V30 57829 H 5682.51 -4.94653 1.53424 0
M  V30 57830 H 5679.18 -4.07776 -0.895801 0
M  V30 57831 H 5680.57 -6.22525 2.52809 0
M  V30 57832 N 5683.29 -0.534202 -1.4827 0
M  V30 57833 C 5684.22 0.214955 -2.32508 0
M  V30 57834 C 5685.21 0.931033 -1.42358 0
M  V30 57835 O 5686.39 0.915991 -1.7124 0
M  V30 57836 C 5683.52 1.25974 -3.23648 0
M  V30 57837 C 5682.47 0.661543 -4.22856 0
M  V30 57838 C 5681.8 1.80928 -5.03159 0
M  V30 57839 C 5683.1 -0.369541 -5.20991 0
M  V30 57840 H 5684.79 -0.488262 -2.95392 0
M  V30 57841 H 5682.34 -0.236256 -1.42049 0
M  V30 57842 H 5684.29 1.79181 -3.81408 0
M  V30 57843 H 5683.02 1.99259 -2.58773 0
M  V30 57844 H 5681.68 0.150953 -3.66289 0
M  V30 57845 H 5681.32 2.53062 -4.34705 0
M  V30 57846 H 5681.02 1.41493 -5.7031 0
M  V30 57847 H 5682.55 2.34506 -5.63772 0
M  V30 57848 H 5683.96 0.0756061 -5.7325 0
M  V30 57849 H 5682.36 -0.681511 -5.96218 0
M  V30 57850 H 5683.43 -1.2738 -4.6787 0
M  V30 57851 N 5684.77 1.55278 -0.269533 0
M  V30 57852 C 5686.01 2.01379 0.350103 0
M  V30 57853 C 5686.38 1.15379 1.53466 0
M  V30 57854 O 5687.58 1.51035 2.22355 0
M  V30 57855 C 5685.85 3.49907 0.728011 0
M  V30 57856 S 5687.41 4.18 1.33497 0
M  V30 57857 H 5684.23 0.702571 0.109154 0
M  V30 57858 H 5686.83 1.91569 -0.390062 0
M  V30 57859 H 5685.53 4.10151 -0.14307 0
M  V30 57860 H 5685.06 3.6369 1.49978 0
M  V30 57861 H 5687.08 4.21162 2.62368 0
M  V30 57862 N 5686.25 -0.00327115 1.576 0
M  V30 57863 C 5687.48 -0.703519 1.95103 0
M  V30 57864 C 5687.9 -1.66694 0.871476 0
M  V30 57865 O 5687.26 -1.80495 -0.170675 0
M  V30 57866 C 5687.31 -1.41445 3.31701 0
M  V30 57867 O 5686.41 -2.52874 3.25774 0
M  V30 57868 H 5685.75 -0.187374 0.637014 0
M  V30 57869 H 5688.28 0.0489446 2.04541 0
M  V30 57870 H 5688.29 -1.77861 3.67191 0
M  V30 57871 H 5686.97 -0.708038 4.09829 0
M  V30 57872 H 5685.54 -2.1881 3.01955 0
M  V30 57873 N 5687.73 -1.55165 -0.275976 0
M  V30 57874 C 5688.97 -1.7738 -1.01566 0
M  V30 57875 C 5689.33 -0.561484 -1.83607 0
M  V30 57876 O 5690.53 -0.661836 -2.60525 0
M  V30 57877 C 5688.8 -3.04127 -1.87728 0
M  V30 57878 S 5690.36 -3.47449 -2.68001 0
M  V30 57879 H 5687.18 -0.623272 -0.342131 0
M  V30 57880 H 5689.78 -1.93391 -0.286388 0
M  V30 57881 H 5688.49 -3.90458 -1.26376 0
M  V30 57882 H 5688.02 -2.90774 -2.6498 0
M  V30 57883 H 5690.03 -3.06488 -3.9023 0
M  V30 57884 N 5689.21 0.540352 -1.48047 0
M  V30 57885 C 5690.17 1.62807 -1.61327 0
M  V30 57886 C 5691.17 1.53241 -0.487215 0
M  V30 57887 O 5692.36 1.57097 -0.752739 0
M  V30 57888 C 5689.49 3.02403 -1.5737 0
M  V30 57889 H 5690.68 1.52375 -2.58305 0
M  V30 57890 H 5688.24 0.761606 -1.36489 0
M  V30 57891 H 5688.97 3.18351 -0.618307 0
M  V30 57892 H 5688.76 3.10755 -2.3911 0
M  V30 57893 H 5690.25 3.81504 -1.69836 0
M  V30 57894 N 5690.69 1.36461 0.78842 0
M  V30 57895 C 5692.1 1.16896 1.08662 0
M  V30 57896 C 5692.3 -0.00626724 2.01499 0
M  V30 57897 O 5691.36 -0.671332 2.43412 0
M  V30 57898 C 5692.67 2.48024 1.70013 0
M  V30 57899 C 5694.22 2.54397 1.82349 0
M  V30 57900 C 5694.69 3.85614 2.47115 0
M  V30 57901 N 5696.18 3.86965 2.54583 0
M  V30 57902 C 5696.92 4.85234 3.05508 0
M  V30 57903 N 5696.42 5.93897 3.56732 0
M  V30 57904 N 5698.21 4.72653 3.04229 0
M  V30 57905 H 5690.36 2.11705 0.171658 0
M  V30 57906 H 5692.62 0.937789 0.138767 0
M  V30 57907 H 5692.33 3.34296 1.09266 0
M  V30 57908 H 5692.2 2.63903 2.69509 0
M  V30 57909 H 5694.59 1.68542 2.42234 0
M  V30 57910 H 5694.67 2.42417 0.816566 0
M  V30 57911 H 5694.31 4.71874 1.87875 0
M  V30 57912 H 5694.24 3.9489 3.48381 0
M  V30 57913 H 5696.74 3.08461 2.18312 0
M  V30 57914 H 5697.05 6.64852 3.93943 0
M  V30 57915 H 5695.39 5.97565 3.54881 0
M  V30 57916 H 5698.58 3.86892 2.635 0
M  V30 57917 H 5698.76 5.49397 3.43608 0
M  V30 57918 N 5692.16 -1.01269 1.20757 0
M  V30 57919 C 5693.11 -2.12009 0.956824 0
M  V30 57920 C 5694.11 -1.69143 -0.0932143 0
M  V30 57921 O 5695.31 -1.79908 0.0574931 0
M  V30 57922 H 5691.69 -0.692946 0.292112 0
M  V30 57923 H 5693.66 -2.3034 1.897 0
M  V30 57924 C 5692.41 -3.43641 0.529722 0
M  V30 57925 H 5691.73 -3.77054 1.32931 0
M  V30 57926 H 5693.17 -4.2217 0.393524 0
M  V30 57927 C 5691.63 -3.28253 -0.758389 0
M  V30 57928 O 5692.16 -3.58315 -1.81586 0
M  V30 57929 N 5690.36 -2.8149 -0.721923 0
M  V30 57930 H 5689.91 -2.57225 0.138898 0
M  V30 57931 H 5689.87 -2.71575 -1.58411 0
M  V30 57932 N 5693.64 -1.01408 -1.2064 0
M  V30 57933 C 5694.89 -0.701976 -1.89944 0
M  V30 57934 C 5695.22 0.76815 -1.78689 0
M  V30 57935 O 5694.47 1.57343 -1.16368 0
M  V30 57936 C 5694.77 -1.08007 -3.40689 0
M  V30 57937 C 5694.44 -2.54598 -3.72143 0
M  V30 57938 C 5693.1 -2.94652 -3.80438 0
M  V30 57939 C 5695.45 -3.49511 -3.86641 0
M  V30 57940 C 5692.78 -4.28564 -4.00687 0
M  V30 57941 C 5695.13 -4.83107 -4.08399 0
M  V30 57942 C 5693.79 -5.22872 -4.14923 0
M  V30 57943 H 5693.06 -0.256871 -0.695053 0
M  V30 57944 H 5695.71 -1.2742 -1.42956 0
M  V30 57945 H 5694.02 -0.426226 -3.89475 0
M  V30 57946 H 5695.71 -0.816314 -3.92603 0
M  V30 57947 H 5692.3 -2.22561 -3.66285 0
M  V30 57948 H 5696.49 -3.19726 -3.7959 0
M  V30 57949 H 5691.74 -4.5893 -4.03972 0
M  V30 57950 H 5695.92 -5.56579 -4.1856 0
M  V30 57951 H 5693.54 -6.26649 -4.30366 0
M  V30 57952 N 5695.12 1.3637 -0.789992 0
M  V30 57953 C 5696.05 2.27802 -0.134694 0
M  V30 57954 C 5697.03 1.47255 0.689548 0
M  V30 57955 O 5698.21 1.76553 0.660404 0
M  V30 57956 C 5695.34 3.28754 0.814772 0
M  V30 57957 C 5694.39 4.26439 0.0722513 0
M  V30 57958 S 5695.22 5.20649 -1.25239 0
M  V30 57959 C 5696.38 6.25147 -0.306935 0
M  V30 57960 H 5696.61 2.83033 -0.909936 0
M  V30 57961 H 5694.14 1.4292 -0.584237 0
M  V30 57962 H 5696.1 3.87418 1.35712 0
M  V30 57963 H 5694.76 2.72435 1.56327 0
M  V30 57964 H 5693.95 4.97727 0.792719 0
M  V30 57965 H 5693.56 3.71859 -0.399635 0
M  V30 57966 H 5695.85 6.75547 0.514008 0
M  V30 57967 H 5696.79 7.01166 -0.988516 0
M  V30 57968 H 5697.2 5.64428 0.0899849 0
M  V30 57969 N 5696.6 0.542057 1.47985 0
M  V30 57970 C 5697.54 -0.21407 2.29805 0
M  V30 57971 C 5698.51 -0.922576 1.38122 0
M  V30 57972 O 5699.7 -0.921242 1.67086 0
M  V30 57973 C 5696.84 -1.24756 3.21761 0
M  V30 57974 C 5695.95 -0.546674 4.28527 0
M  V30 57975 C 5695.09 -1.56414 5.07649 0
M  V30 57976 C 5694.13 -0.847385 6.06206 0
M  V30 57977 N 5693.26 -1.81097 6.78342 0
M  V30 57978 H 5698.1 0.48981 2.93947 0
M  V30 57979 H 5695.64 0.253382 1.44901 0
M  V30 57980 H 5697.6 -1.85919 3.73483 0
M  V30 57981 H 5696.23 -1.91967 2.59516 0
M  V30 57982 H 5695.28 0.179159 3.79978 0
M  V30 57983 H 5696.59 0.0155376 4.98798 0
M  V30 57984 H 5695.75 -2.24973 5.63447 0
M  V30 57985 H 5694.49 -2.16026 4.37246 0
M  V30 57986 H 5693.49 -0.147796 5.49601 0
M  V30 57987 H 5694.72 -0.257215 6.78613 0
M  V30 57988 H 5692.66 -2.39594 6.10681 0
M  V30 57989 H 5692.58 -1.30051 7.4473 0
M  V30 57990 H 5693.85 -2.48816 7.38722 0
M  V30 57991 N 5698.08 -1.55133 0.277764 0
M  V30 57992 C 5699.3 -2.04062 -0.341529 0
M  V30 57993 C 5699.72 -1.15602 -1.4927 0
M  V30 57994 O 5699.08 -0.176689 -1.81643 0
M  V30 57995 C 5699.13 -3.52077 -0.820015 0
M  V30 57996 O 5698.85 -4.3717 0.285314 0
M  V30 57997 C 5700.35 -4.16904 -1.50685 0
M  V30 57998 H 5697.57 -0.666504 -0.0775474 0
M  V30 57999 H 5700.11 -2.00335 0.41063 0
M  V30 58000 H 5698.27 -3.56239 -1.52226 0
M  V30 58001 H 5698.68 -5.24434 -0.0830179 0
M  V30 58002 H 5700.16 -5.22067 -1.79304 0
M  V30 58003 H 5700.63 -3.65235 -2.43926 0
M  V30 58004 H 5701.24 -4.16752 -0.848394 0
M  V30 58005 N 5699.55 -0.00508679 -1.57599 0
M  V30 58006 C 5700.5 0.993307 -2.05225 0
M  V30 58007 C 5701.49 1.30009 -0.947965 0
M  V30 58008 O 5702.68 1.29022 -1.2117 0
M  V30 58009 C 5699.81 2.28366 -2.56328 0
M  V30 58010 C 5698.89 2.00629 -3.73643 0
M  V30 58011 N 5699.29 1.4307 -4.85144 0
M  V30 58012 C 5697.58 2.30746 -3.8167 0
M  V30 58013 C 5698.28 1.31919 -5.66544 0
M  V30 58014 N 5697.26 1.80654 -5.12704 0
M  V30 58015 H 5701.06 0.54285 -2.88843 0
M  V30 58016 H 5698.58 0.200493 -1.61158 0
M  V30 58017 H 5700.57 3.00737 -2.88726 0
M  V30 58018 H 5699.23 2.7406 -1.7413 0
M  V30 58019 H 5700.24 1.10883 -5.05891 0
M  V30 58020 H 5696.92 2.7928 -3.10337 0
M  V30 58021 H 5698.31 0.876157 -6.66163 0
M  V30 58022 N 5701.03 1.55309 0.267743 0
M  V30 58023 C 5701.98 1.89347 1.35095 0
M  V30 58024 C 5702.97 0.77033 1.50872 0
M  V30 58025 O 5704.18 0.954732 1.52594 0
M  V30 58026 H 5700.55 0.601051 0.451931 0
M  V30 58027 H 5702.53 2.79823 1.03642 0
M  V30 58028 C 5701.27 2.18653 2.70344 0
M  V30 58029 H 5700.6 3.04566 2.58997 0
M  V30 58030 H 5702.04 2.46387 3.45065 0
M  V30 58031 C 5700.5 0.995866 3.21845 0
M  V30 58032 O 5701.03 0.233177 4.01023 0
M  V30 58033 N 5699.23 0.792136 2.79595 0
M  V30 58034 H 5698.78 1.41404 2.1532 0
M  V30 58035 H 5698.74 -0.00289149 3.144 0
M  V30 58036 N 5702.51 -0.532493 1.48332 0
M  V30 58037 C 5703.74 -1.31326 1.59879 0
M  V30 58038 C 5704.15 -1.87027 0.258103 0
M  V30 58039 O 5703.51 -1.66275 -0.752258 0
M  V30 58040 C 5703.56 -2.46587 2.64343 0
M  V30 58041 O 5703.28 -1.93181 3.93208 0
M  V30 58042 C 5704.78 -3.38444 2.86305 0
M  V30 58043 H 5702 -0.399457 0.539143 0
M  V30 58044 H 5704.55 -0.642628 1.94141 0
M  V30 58045 H 5702.7 -3.09539 2.32947 0
M  V30 58046 H 5703.12 -2.68611 4.50498 0
M  V30 58047 H 5704.59 -4.15674 3.63206 0
M  V30 58048 H 5705.07 -3.9352 1.95036 0
M  V30 58049 H 5705.67 -2.81286 3.18996 0
M  V30 58050 N 5703.99 -1.36878 -0.781172 0
M  V30 58051 C 5705.23 -1.32954 -1.5525 0
M  V30 58052 C 5705.59 0.0879187 -1.91799 0
M  V30 58053 O 5706.79 0.251784 -2.67618 0
M  V30 58054 C 5705.06 -2.23392 -2.78982 0
M  V30 58055 S 5706.62 -2.37231 -3.69143 0
M  V30 58056 H 5703.44 -0.472124 -0.53162 0
M  V30 58057 H 5706.04 -1.72533 -0.919389 0
M  V30 58058 H 5704.75 -3.25316 -2.50195 0
M  V30 58059 H 5704.28 -1.84864 -3.47259 0
M  V30 58060 H 5706.29 -1.57591 -4.7051 0
M  V30 58061 N 5705.47 1.00628 -1.21292 0
M  V30 58062 C 5706.41 2.09379 -0.971044 0
M  V30 58063 C 5707.38 1.65783 0.102503 0
M  V30 58064 O 5708.57 1.90748 -0.0443557 0
M  V30 58065 C 5705.71 3.40842 -0.540434 0
M  V30 58066 C 5704.82 3.97856 -1.68328 0
M  V30 58067 C 5703.96 5.17423 -1.20196 0
M  V30 58068 C 5703 5.66543 -2.31722 0
M  V30 58069 N 5702.13 6.77361 -1.84733 0
M  V30 58070 H 5706.97 2.29404 -1.90205 0
M  V30 58071 H 5704.51 1.12485 -0.947925 0
M  V30 58072 H 5706.47 4.16312 -0.272027 0
M  V30 58073 H 5705.1 3.20858 0.353564 0
M  V30 58074 H 5704.15 3.19384 -2.06635 0
M  V30 58075 H 5705.46 4.30305 -2.52267 0
M  V30 58076 H 5704.62 6.00135 -0.890137 0
M  V30 58077 H 5703.35 4.86565 -0.332593 0
M  V30 58078 H 5702.36 4.82429 -2.63708 0
M  V30 58079 H 5703.58 5.99432 -3.19152 0
M  V30 58080 H 5701.53 6.48312 -1.00138 0
M  V30 58081 H 5701.45 7.09058 -2.62246 0
M  V30 58082 H 5702.72 7.63612 -1.56581 0
M  V30 58083 N 5706.94 1.02047 1.20101 0
M  V30 58084 C 5707.91 0.59876 2.21241 0
M  V30 58085 C 5708.91 -0.33315 1.57311 0
M  V30 58086 O 5710.1 -0.121309 1.73777 0
M  V30 58087 C 5707.23 -0.125063 3.40671 0
M  V30 58088 H 5708.42 1.49354 2.60064 0
M  V30 58089 H 5705.98 0.810696 1.33632 0
M  V30 58090 H 5706.71 -1.03458 3.07355 0
M  V30 58091 H 5706.5 0.544452 3.88302 0
M  V30 58092 H 5707.99 -0.407323 4.15609 0
M  V30 58093 N 5708.42 -1.3595 0.797213 0
M  V30 58094 C 5709.33 -2.33726 0.202353 0
M  V30 58095 C 5710.35 -1.61417 -0.649662 0
M  V30 58096 O 5711.52 -1.93353 -0.563618 0
M  V30 58097 C 5708.59 -3.40615 -0.64673 0
M  V30 58098 C 5707.65 -4.28712 0.224687 0
M  V30 58099 C 5706.88 -5.30496 -0.583967 0
M  V30 58100 O 5707.11 -5.40606 -1.81938 0
M  V30 58101 O 5706.04 -6.01897 0.0202355 0
M  V30 58102 H 5709.87 -2.86379 1.01097 0
M  V30 58103 H 5707.45 -1.38555 0.558816 0
M  V30 58104 H 5709.33 -4.05948 -1.13066 0
M  V30 58105 H 5708.01 -2.90248 -1.43311 0
M  V30 58106 H 5706.92 -3.66391 0.755544 0
M  V30 58107 H 5708.25 -4.82451 0.974772 0
M  V30 58108 N 5709.9 -0.549898 -1.47695 0
M  V30 58109 C 5711.15 -0.0230758 -2.02087 0
M  V30 58110 C 5711.47 1.3286 -1.42735 0
M  V30 58111 O 5710.74 1.86489 -0.599875 0
M  V30 58112 H 5709.32 -0.0055414 -0.746979 0
M  V30 58113 H 5711.98 -0.718249 -1.81183 0
M  V30 58114 H 5711.08 0.0704716 -3.1202 0
M  V30 58115 N 5711.38 1.54983 -0.285987 0
M  V30 58116 C 5712.6 2.047 0.333549 0
M  V30 58117 C 5713.03 1.16257 1.47871 0
M  V30 58118 O 5712.39 0.163439 1.80562 0
M  V30 58119 C 5712.43 3.52024 0.781746 0
M  V30 58120 O 5711.54 3.66645 1.88799 0
M  V30 58121 H 5710.88 0.660581 0.0672971 0
M  V30 58122 H 5713.41 2.0017 -0.423456 0
M  V30 58123 H 5713.42 3.93594 1.07459 0
M  V30 58124 H 5712.09 4.15862 -0.0560392 0
M  V30 58125 H 5710.67 3.3698 1.59684 0
M  V30 58126 N 5712.86 0.0134446 1.57594 0
M  V30 58127 C 5713.77 -0.989627 2.12705 0
M  V30 58128 C 5714.78 -1.36781 1.0755 0
M  V30 58129 O 5715.96 -1.45241 1.39524 0
M  V30 58130 C 5713.02 -2.25851 2.63044 0
M  V30 58131 C 5712.08 -1.94221 3.82853 0
M  V30 58132 C 5711.32 -3.1506 4.30782 0
M  V30 58133 O 5711.54 -4.27198 3.77965 0
M  V30 58134 O 5710.47 -2.98272 5.22798 0
M  V30 58135 H 5714.3 -0.551089 2.98658 0
M  V30 58136 H 5711.89 -0.206212 1.4797 0
M  V30 58137 H 5713.77 -3.0037 2.9556 0
M  V30 58138 H 5712.44 -2.68917 1.80182 0
M  V30 58139 H 5711.35 -1.17136 3.55289 0
M  V30 58140 H 5712.68 -1.55983 4.6683 0
M  V30 58141 N 5714.33 -1.55449 -0.259503 0
M  V30 58142 C 5715.56 -1.80469 -1.00571 0
M  V30 58143 C 5715.97 -0.585064 -1.79927 0
M  V30 58144 O 5715.32 0.455578 -1.77961 0
M  V30 58145 C 5715.38 -2.98641 -2.00135 0
M  V30 58146 C 5715.04 -4.35159 -1.39591 0
M  V30 58147 C 5716.04 -5.13634 -0.804742 0
M  V30 58148 C 5713.72 -4.81838 -1.41906 0
M  V30 58149 C 5715.72 -6.3693 -0.244783 0
M  V30 58150 C 5713.4 -6.05086 -0.855245 0
M  V30 58151 C 5714.4 -6.8247 -0.269119 0
M  V30 58152 O 5714.09 -8.03391 0.286026 0
M  V30 58153 H 5713.82 -0.604704 -0.302174 0
M  V30 58154 H 5716.38 -2.03321 -0.291528 0
M  V30 58155 H 5714.61 -2.71513 -2.7535 0
M  V30 58156 H 5716.3 -3.10864 -2.60995 0
M  V30 58157 H 5717.06 -4.78696 -0.779457 0
M  V30 58158 H 5712.94 -4.21606 -1.86466 0
M  V30 58159 H 5716.48 -6.97274 0.213343 0
M  V30 58160 H 5712.38 -6.39503 -0.877816 0
M  V30 58161 H 5713.15 -8.18309 0.176678 0
M  V30 58162 N 5715.81 0.524619 -1.48612 0
M  V30 58163 C 5716.74 1.64475 -1.59627 0
M  V30 58164 C 5717.76 1.55556 -0.480236 0
M  V30 58165 O 5718.95 1.61918 -0.751311 0
M  V30 58166 C 5716.05 3.03153 -1.51498 0
M  V30 58167 C 5715.22 3.37499 -2.78232 0
M  V30 58168 C 5714.28 4.55481 -2.63483 0
M  V30 58169 O 5713.3 4.58436 -3.3738 0
M  V30 58170 N 5714.51 5.53979 -1.73456 0
M  V30 58171 H 5717.27 1.55461 -2.56226 0
M  V30 58172 H 5714.83 0.712008 -1.45403 0
M  V30 58173 H 5716.82 3.79964 -1.39318 0
M  V30 58174 H 5715.39 3.06216 -0.628514 0
M  V30 58175 H 5714.61 2.49814 -3.04937 0
M  V30 58176 H 5715.9 3.57234 -3.623 0
M  V30 58177 H 5715.3 5.54374 -1.12631 0
M  V30 58178 H 5713.86 6.29987 -1.67212 0
M  V30 58179 N 5717.29 1.3729 0.773902 0
M  V30 58180 C 5718.54 1.32575 1.53465 0
M  V30 58181 C 5718.87 -0.0902778 1.9399 0
M  V30 58182 O 5718.14 -1.04713 1.63907 0
M  V30 58183 C 5718.43 2.26287 2.80118 0
M  V30 58184 C 5718.28 3.76659 2.45861 0
M  V30 58185 C 5719.6 2.18485 3.82037 0
M  V30 58186 H 5716.72 0.48291 0.556747 0
M  V30 58187 H 5719.36 1.67973 0.88798 0
M  V30 58188 H 5717.51 1.96231 3.35299 0
M  V30 58189 H 5719.18 4.17303 1.96611 0
M  V30 58190 H 5717.43 3.95334 1.78588 0
M  V30 58191 H 5718.1 4.37662 3.36387 0
M  V30 58192 H 5720.57 2.44974 3.36344 0
M  V30 58193 H 5719.45 2.86199 4.68382 0
M  V30 58194 H 5719.71 1.17707 4.26142 0
M  V30 58195 N 5718.77 -0.999829 1.21824 0
M  V30 58196 C 5719.7 -2.10704 1.00628 0
M  V30 58197 C 5720.68 -1.69954 -0.0704819 0
M  V30 58198 O 5721.86 -1.9399 0.0903724 0
M  V30 58199 C 5718.99 -3.42494 0.575766 0
M  V30 58200 C 5717.95 -3.97062 1.59768 0
M  V30 58201 C 5717.27 -5.24818 1.02323 0
M  V30 58202 C 5718.57 -4.28535 2.98589 0
M  V30 58203 H 5720.27 -2.28694 1.93234 0
M  V30 58204 H 5717.81 -1.099 0.930482 0
M  V30 58205 H 5719.77 -4.19355 0.414629 0
M  V30 58206 H 5718.49 -3.24312 -0.385945 0
M  V30 58207 H 5717.15 -3.22326 1.74647 0
M  V30 58208 H 5716.8 -5.02972 0.0530784 0
M  V30 58209 H 5716.5 -5.62293 1.70587 0
M  V30 58210 H 5718.02 -6.04319 0.873525 0
M  V30 58211 H 5719.44 -4.96219 2.87123 0
M  V30 58212 H 5717.83 -4.77165 3.63914 0
M  V30 58213 H 5718.9 -3.36595 3.49044 0
M  V30 58214 N 5720.25 -1.02682 -1.19558 0
M  V30 58215 C 5721.48 -0.740561 -1.92871 0
M  V30 58216 C 5721.89 0.704225 -1.75606 0
M  V30 58217 O 5721.23 1.49038 -1.07394 0
M  V30 58218 C 5721.29 -1.00941 -3.45038 0
M  V30 58219 C 5720.95 -2.44534 -3.86073 0
M  V30 58220 C 5721.95 -3.42661 -3.90998 0
M  V30 58221 C 5719.64 -2.78879 -4.1777 0
M  V30 58222 C 5721.63 -4.7319 -4.27048 0
M  V30 58223 C 5719.32 -4.09618 -4.53493 0
M  V30 58224 C 5720.32 -5.06585 -4.58106 0
M  V30 58225 O 5720 -6.34982 -4.93004 0
M  V30 58226 H 5719.74 -0.270457 -0.619539 0
M  V30 58227 H 5722.29 -1.37374 -1.52701 0
M  V30 58228 H 5720.52 -0.319085 -3.85381 0
M  V30 58229 H 5722.21 -0.713135 -3.99586 0
M  V30 58230 H 5722.97 -3.17465 -3.66662 0
M  V30 58231 H 5718.85 -2.04085 -4.13365 0
M  V30 58232 H 5722.4 -5.48872 -4.30563 0
M  V30 58233 H 5718.29 -4.34589 -4.77286 0
M  V30 58234 H 5719.06 -6.39424 -5.10959 0
M  V30 58235 N 5721.73 1.35525 -0.804411 0
M  V30 58236 C 5722.97 1.98083 -0.380265 0
M  V30 58237 C 5723.29 1.64535 1.05772 0
M  V30 58238 O 5724.49 2.20441 1.58487 0
M  V30 58239 C 5722.95 3.54361 -0.628973 0
M  V30 58240 C 5722.56 3.96821 -2.07935 0
M  V30 58241 C 5724.3 4.2364 -0.270076 0
M  V30 58242 C 5722.21 5.45936 -2.27393 0
M  V30 58243 H 5721.14 0.74118 -0.138448 0
M  V30 58244 H 5723.79 1.54621 -0.988162 0
M  V30 58245 H 5722.17 3.9597 0.0488445 0
M  V30 58246 H 5723.35 3.66371 -2.7948 0
M  V30 58247 H 5721.66 3.40425 -2.39791 0
M  V30 58248 H 5724.26 5.3325 -0.393532 0
M  V30 58249 H 5724.6 4.08861 0.7835 0
M  V30 58250 H 5725.13 3.87445 -0.901724 0
M  V30 58251 H 5721.87 5.65681 -3.31188 0
M  V30 58252 H 5721.39 5.77963 -1.6037 0
M  V30 58253 H 5723.07 6.12369 -2.08839 0
M  V30 58254 N 5723.2 0.557723 1.47402 0
M  V30 58255 C 5724.17 -0.179231 2.28498 0
M  V30 58256 C 5725.17 -0.842233 1.36978 0
M  V30 58257 O 5726.36 -0.698016 1.59604 0
M  V30 58258 C 5723.49 -1.26218 3.16673 0
M  V30 58259 H 5724.68 0.533137 2.95123 0
M  V30 58260 H 5722.23 0.314688 1.53099 0
M  V30 58261 H 5722.97 -2.00693 2.54741 0
M  V30 58262 H 5722.75 -0.791577 3.84027 0
M  V30 58263 H 5724.24 -1.77978 3.77775 0
M  V30 58264 N 5724.68 -1.5483 0.294202 0
M  V30 58265 C 5725.96 -1.92072 -0.369835 0
M  V30 58266 C 5726.34 -1.22067 -1.72229 0
M  V30 58267 O 5725.69 -0.354055 -2.2574 0
M  V30 58268 C 5725.9 -3.45526 -0.491229 0
M  V30 58269 C 5727.24 -4.17647 -0.765264 0
M  V30 58270 O 5728.27 -3.51523 -0.575304 0
M  V30 58271 O 5727.13 -5.34696 -1.12973 0
M  V30 58272 H 5724.22 -0.80104 -0.205582 0
M  V30 58273 H 5726.77 -1.66223 0.341761 0
M  V30 58274 H 5725.54 -3.88589 0.4598 0
M  V30 58275 H 5725.16 -3.77388 -1.25155 0
M  V30 58276 N 5726.16 -0.021802 -1.57585 0
M  V30 58277 C 5727.44 0.696668 -1.82773 0
M  V30 58278 C 5727.82 1.90756 -0.904179 0
M  V30 58279 O 5727.16 2.28461 0.0419719 0
M  V30 58280 C 5727.37 1.08181 -3.3181 0
M  V30 58281 C 5728.72 1.47653 -3.981 0
M  V30 58282 O 5729.75 1.175 -3.36262 0
M  V30 58283 O 5728.61 2.03807 -5.07075 0
M  V30 58284 H 5725.7 0.341114 -0.753372 0
M  V30 58285 H 5728.25 -0.0489249 -1.69629 0
M  V30 58286 H 5727.02 0.219661 -3.90683 0
M  V30 58287 H 5726.64 1.88581 -3.50033 0
M  V30 58288 N 5727.64 1.55584 0.251256 0
M  V30 58289 C 5728.59 1.90769 1.33079 0
M  V30 58290 C 5729.58 0.786288 1.50046 0
M  V30 58291 O 5730.79 0.970863 1.51573 0
M  V30 58292 H 5727.16 0.605811 0.44553 0
M  V30 58293 H 5729.13 2.80907 1.00668 0
M  V30 58294 C 5727.88 2.21508 2.6801 0
M  V30 58295 H 5727.2 3.07296 2.55753 0
M  V30 58296 H 5728.64 2.50033 3.42432 0
M  V30 58297 C 5727.1 1.02995 3.20771 0
M  V30 58298 O 5727.63 0.275698 4.00753 0
M  V30 58299 N 5725.84 0.821747 2.78739 0
M  V30 58300 H 5725.39 1.43679 2.13808 0
M  V30 58301 H 5725.34 0.030455 3.14385 0
M  V30 58302 N 5729.12 -0.516731 1.48888 0
M  V30 58303 C 5730.03 -1.64664 1.67101 0
M  V30 58304 C 5731.04 -1.64961 0.553524 0
M  V30 58305 O 5732.22 -1.8367 0.826271 0
M  V30 58306 C 5729.28 -3.01089 1.7189 0
M  V30 58307 C 5728.34 -3.11544 2.95363 0
M  V30 58308 C 5727.58 -4.41461 2.99914 0
M  V30 58309 O 5727.8 -5.29341 2.12496 0
M  V30 58310 O 5726.73 -4.56559 3.92222 0
M  V30 58311 H 5730.56 -1.52232 2.62791 0
M  V30 58312 H 5728.14 -0.691293 1.32444 0
M  V30 58313 H 5730.03 -3.82201 1.77484 0
M  V30 58314 H 5728.7 -3.13817 0.793766 0
M  V30 58315 H 5727.61 -2.29678 2.95294 0
M  V30 58316 H 5728.94 -3.03737 3.87304 0
M  V30 58317 N 5730.59 -1.37698 -0.766611 0
M  V30 58318 C 5731.84 -1.32512 -1.52064 0
M  V30 58319 C 5732.16 0.086428 -1.95409 0
M  V30 58320 O 5733.36 0.260782 -2.70245 0
M  V30 58321 C 5731.82 -2.32624 -2.74617 0
M  V30 58322 C 5731.43 -3.79333 -2.3835 0
M  V30 58323 C 5733.17 -2.36457 -3.52545 0
M  V30 58324 C 5731.08 -4.71163 -3.57435 0
M  V30 58325 H 5730.01 -0.492511 -0.57092 0
M  V30 58326 H 5732.66 -1.63185 -0.839211 0
M  V30 58327 H 5731.04 -1.94975 -3.44675 0
M  V30 58328 H 5732.21 -4.25847 -1.76042 0
M  V30 58329 H 5730.53 -3.78494 -1.73584 0
M  V30 58330 H 5733.13 -3.02267 -4.41065 0
M  V30 58331 H 5733.47 -1.37967 -3.92773 0
M  V30 58332 H 5734 -2.72839 -2.89488 0
M  V30 58333 H 5730.74 -5.708 -3.22284 0
M  V30 58334 H 5730.26 -4.2935 -4.1883 0
M  V30 58335 H 5731.94 -4.88547 -4.24183 0
M  V30 58336 N 5732.07 0.993354 -1.22353 0
M  V30 58337 C 5733.49 1.25705 -0.983389 0
M  V30 58338 C 5733.69 1.98889 0.323302 0
M  V30 58339 O 5732.74 2.29814 1.04604 0
M  V30 58340 C 5734.06 2.06928 -2.18178 0
M  V30 58341 C 5735.6 2.20113 -2.22529 0
M  V30 58342 C 5736.08 3.04723 -3.41918 0
M  V30 58343 N 5737.57 3.1231 -3.42077 0
M  V30 58344 C 5738.31 3.78066 -4.31108 0
M  V30 58345 N 5737.8 4.45752 -5.30355 0
M  V30 58346 N 5739.59 3.74822 -4.18885 0
M  V30 58347 H 5731.75 0.502694 -2.06366 0
M  V30 58348 H 5734.01 0.284624 -0.904264 0
M  V30 58349 H 5733.71 1.60514 -3.12934 0
M  V30 58350 H 5733.59 3.07683 -2.182 0
M  V30 58351 H 5735.98 2.6574 -1.2832 0
M  V30 58352 H 5736.06 1.1879 -2.26545 0
M  V30 58353 H 5735.7 2.59796 -4.36427 0
M  V30 58354 H 5735.63 4.06186 -3.35142 0
M  V30 58355 H 5738.12 2.64137 -2.7026 0
M  V30 58356 H 5738.43 4.93666 -5.9457 0
M  V30 58357 H 5736.78 4.44502 -5.34269 0
M  V30 58358 H 5739.97 3.21104 -3.40602 0
M  V30 58359 H 5740.14 4.25789 -4.88475 0
M  V30 58360 N 5733.55 1.03315 1.19012 0
M  V30 58361 C 5734.77 0.751754 1.93296 0
M  V30 58362 C 5735.2 -0.683859 1.75228 0
M  V30 58363 O 5734.56 -1.4727 1.05741 0
M  V30 58364 C 5734.61 1.11347 3.42979 0
M  V30 58365 O 5733.71 0.234579 4.11732 0
M  V30 58366 H 5733.05 0.277353 0.603301 0
M  V30 58367 H 5735.58 1.38097 1.50965 0
M  V30 58368 H 5735.59 1.07218 3.9366 0
M  V30 58369 H 5734.27 2.15934 3.55451 0
M  V30 58370 H 5732.84 0.334831 3.71394 0
M  V30 58371 N 5735.03 -1.35096 0.811587 0
M  V30 58372 C 5735.96 -2.32263 0.240007 0
M  V30 58373 C 5736.94 -1.5771 -0.637299 0
M  V30 58374 O 5738.12 -1.85753 -0.566533 0
M  V30 58375 C 5735.25 -3.41933 -0.608205 0
M  V30 58376 C 5734.21 -4.27658 0.17102 0
M  V30 58377 C 5733.53 -5.28693 -0.799212 0
M  V30 58378 C 5734.83 -5.03935 1.37283 0
M  V30 58379 H 5736.53 -2.80316 1.05182 0
M  V30 58380 H 5734.07 -1.34771 0.507232 0
M  V30 58381 H 5736.03 -4.08915 -1.01817 0
M  V30 58382 H 5734.75 -2.92501 -1.45295 0
M  V30 58383 H 5733.41 -3.62263 0.562221 0
M  V30 58384 H 5733.06 -4.75527 -1.6396 0
M  V30 58385 H 5732.76 -5.86922 -0.282125 0
M  V30 58386 H 5734.28 -5.98546 -1.20728 0
M  V30 58387 H 5735.7 -5.63834 1.03748 0
M  V30 58388 H 5734.09 -5.71684 1.82476 0
M  V30 58389 H 5735.16 -4.34287 2.15691 0
M  V30 58390 N 5736.51 -0.565532 -1.47104 0
M  V30 58391 C 5737.75 -0.0445966 -2.02451 0
M  V30 58392 C 5738.08 1.30858 -1.43897 0
M  V30 58393 O 5737.34 1.86678 -0.58734 0
M  V30 58394 C 5737.64 0.089252 -3.57289 0
M  V30 58395 C 5737.3 -1.19411 -4.34801 0
M  V30 58396 C 5735.96 -1.54574 -4.55697 0
M  V30 58397 C 5738.32 -2.04416 -4.79441 0
M  V30 58398 C 5735.64 -2.74575 -5.18484 0
M  V30 58399 C 5738 -3.23627 -5.43552 0
M  V30 58400 C 5736.66 -3.59094 -5.62679 0
M  V30 58401 H 5735.93 -0.0163191 -0.74082 0
M  V30 58402 H 5738.58 -0.738719 -1.76678 0
M  V30 58403 H 5736.88 0.866396 -3.82101 0
M  V30 58404 H 5738.58 0.507803 -3.97772 0
M  V30 58405 H 5735.17 -0.910323 -4.18821 0
M  V30 58406 H 5739.35 -1.78555 -4.63068 0
M  V30 58407 H 5734.61 -3.02213 -5.31486 0
M  V30 58408 H 5738.78 -3.89776 -5.77103 0
M  V30 58409 H 5736.41 -4.52172 -6.11101 0
M  V30 58410 N 5737.98 1.54671 -0.302409 0
M  V30 58411 C 5739.4 1.85731 0.189953 0
M  V30 58412 C 5739.75 1.22433 1.53312 0
M  V30 58413 O 5738.87 0.522535 2.09997 0
M  V30 58414 C 5739.47 3.36972 0.351444 0
M  V30 58415 C 5738.03 3.68059 0.788025 0
M  V30 58416 C 5737.17 2.77109 -0.102802 0
M  V30 58417 H 5740.12 1.49821 -0.523377 0
M  V30 58418 H 5740.14 3.61551 1.18579 0
M  V30 58419 H 5739.66 3.83013 -0.626286 0
M  V30 58420 H 5737.76 3.27536 1.77626 0
M  V30 58421 H 5737.87 4.75246 0.606437 0
M  V30 58422 H 5736.23 2.51244 0.418147 0
M  V30 58423 H 5737.02 3.25972 -1.07691 0
M  V30 58424 N 5739.46 0.0301588 1.57571 0
M  V30 58425 C 5740.71 -0.646975 1.91464 0
M  V30 58426 C 5741.03 -1.72608 0.907266 0
M  V30 58427 O 5740.3 -1.95833 -0.0510579 0
M  V30 58428 H 5738.88 -0.241963 0.706727 0
M  V30 58429 H 5741.54 0.0782069 1.94743 0
M  V30 58430 H 5740.64 -1.09905 2.92109 0
M  V30 58431 N 5740.94 -1.55715 -0.243001 0
M  V30 58432 C 5741.89 -1.87036 -1.30391 0
M  V30 58433 C 5742.87 -0.731547 -1.43308 0
M  V30 58434 O 5744.07 -0.993551 -1.46484 0
M  V30 58435 C 5741.2 -2.17194 -2.6586 0
M  V30 58436 C 5740.28 -3.37412 -2.56932 0
M  V30 58437 N 5740.67 -4.56583 -2.17637 0
M  V30 58438 C 5738.97 -3.406 -2.87937 0
M  V30 58439 C 5739.67 -5.38723 -2.19436 0
M  V30 58440 N 5738.65 -4.77884 -2.59091 0
M  V30 58441 H 5742.45 -2.76701 -0.990658 0
M  V30 58442 H 5739.96 -1.55994 -0.45162 0
M  V30 58443 H 5741.96 -2.37799 -3.42429 0
M  V30 58444 H 5740.62 -1.2883 -2.98049 0
M  V30 58445 H 5741.63 -4.82136 -1.89117 0
M  V30 58446 H 5738.31 -2.62518 -3.24639 0
M  V30 58447 H 5739.7 -6.44073 -1.91363 0
M  V30 58448 N 5742.42 0.508828 -1.4916 0
M  V30 58449 C 5743.83 1.09048 -1.51543 0
M  V30 58450 C 5744.18 1.93936 -0.297167 0
M  V30 58451 O 5743.31 2.08094 0.593776 0
M  V30 58452 C 5743.9 1.98437 -2.74606 0
M  V30 58453 C 5742.46 2.5178 -2.79792 0
M  V30 58454 C 5741.61 1.29218 -2.45353 0
M  V30 58455 H 5744.56 0.293093 -1.5597 0
M  V30 58456 H 5744.58 2.83019 -2.54324 0
M  V30 58457 H 5744.09 1.36627 -3.63256 0
M  V30 58458 H 5742.19 3.17251 -1.95403 0
M  V30 58459 H 5742.3 2.89468 -3.81766 0
M  V30 58460 H 5740.67 1.61487 -1.96962 0
M  V30 58461 H 5741.45 0.691281 -3.36268 0
M  V30 58462 N 5743.9 1.38103 0.759297 0
M  V30 58463 C 5744.85 1.31379 1.86342 0
M  V30 58464 C 5745.83 0.199169 1.59663 0
M  V30 58465 O 5747.02 0.434651 1.7158 0
M  V30 58466 C 5744.15 1.13548 3.23978 0
M  V30 58467 C 5743.24 2.29608 3.56568 0
M  V30 58468 N 5743.63 3.55036 3.60254 0
M  V30 58469 C 5741.93 2.22035 3.86803 0
M  V30 58470 C 5742.63 4.31642 3.89948 0
M  V30 58471 N 5741.6 3.60929 4.06487 0
M  V30 58472 H 5745.41 2.26352 1.87462 0
M  V30 58473 H 5742.92 1.31253 0.956369 0
M  V30 58474 H 5744.92 1.06815 4.02984 0
M  V30 58475 H 5743.58 0.195036 3.24114 0
M  V30 58476 H 5744.59 3.88781 3.42154 0
M  V30 58477 H 5741.26 1.36118 3.94687 0
M  V30 58478 H 5742.65 5.40252 3.99471 0
M  V30 58479 N 5745.37 -0.986851 1.22878 0
M  V30 58480 C 5746.6 -1.76796 1.08433 0
M  V30 58481 C 5747.02 -1.84613 -0.36049 0
M  V30 58482 O 5746.38 -1.30303 -1.26058 0
M  V30 58483 C 5746.43 -3.17632 1.70712 0
M  V30 58484 O 5745.53 -4.00953 0.964893 0
M  V30 58485 H 5744.88 -0.544186 0.380471 0
M  V30 58486 H 5747.41 -1.23925 1.628 0
M  V30 58487 H 5747.42 -3.68237 1.75685 0
M  V30 58488 H 5746.09 -3.11257 2.75848 0
M  V30 58489 H 5744.67 -3.59474 0.991619 0
M  V30 58490 N 5746.85 -1.03945 -1.18462 0
M  V30 58491 C 5747.82 -0.633882 -2.2026 0
M  V30 58492 C 5748.82 0.308081 -1.57821 0
M  V30 58493 O 5750.01 0.0936476 -1.73948 0
M  V30 58494 C 5747.14 0.0708495 -3.40826 0
M  V30 58495 H 5748.33 -1.53473 -2.57655 0
M  V30 58496 H 5745.88 -0.831853 -1.32325 0
M  V30 58497 H 5746.62 0.985551 -3.08962 0
M  V30 58498 H 5746.4 -0.606159 -3.87386 0
M  V30 58499 H 5747.89 0.341152 -4.16204 0
M  V30 58500 N 5748.33 1.34664 -0.81874 0
M  V30 58501 C 5749.56 2.02346 -0.417073 0
M  V30 58502 C 5749.97 1.61817 0.980407 0
M  V30 58503 O 5749.31 0.81729 1.64518 0
M  V30 58504 C 5749.37 3.5686 -0.434904 0
M  V30 58505 C 5749.04 4.20698 -1.78499 0
M  V30 58506 C 5750.03 4.41514 -2.7452 0
M  V30 58507 C 5747.72 4.57558 -2.07233 0
M  V30 58508 C 5749.71 4.9831 -3.97449 0
M  V30 58509 C 5747.4 5.14066 -3.30423 0
M  V30 58510 C 5748.4 5.34385 -4.25349 0
M  V30 58511 O 5748.09 5.89697 -5.46363 0
M  V30 58512 H 5747.82 0.655273 -0.166113 0
M  V30 58513 H 5750.37 1.73007 -1.10714 0
M  V30 58514 H 5748.6 3.85441 0.311837 0
M  V30 58515 H 5750.29 4.05864 -0.0538685 0
M  V30 58516 H 5751.06 4.13405 -2.53616 0
M  V30 58517 H 5746.94 4.41049 -1.34151 0
M  V30 58518 H 5750.48 5.14086 -4.71552 0
M  V30 58519 H 5746.38 5.41603 -3.51193 0
M  V30 58520 H 5747.15 6.08136 -5.47825 0
M  V30 58521 N 5749.81 0.573325 1.46802 0
M  V30 58522 C 5750.72 -0.167998 2.33998 0
M  V30 58523 C 5751.74 -0.895599 1.49181 0
M  V30 58524 O 5752.91 -0.860887 1.82073 0
M  V30 58525 C 5749.98 -1.17472 3.26192 0
M  V30 58526 C 5749.04 -0.452806 4.26905 0
M  V30 58527 C 5748.27 -1.41157 5.14695 0
M  V30 58528 O 5748.49 -2.6475 5.05236 0
M  V30 58529 O 5747.43 -0.927263 5.94715 0
M  V30 58530 H 5751.25 0.547681 2.98721 0
M  V30 58531 H 5748.84 0.333799 1.45623 0
M  V30 58532 H 5750.72 -1.75544 3.83096 0
M  V30 58533 H 5749.4 -1.87203 2.64077 0
M  V30 58534 H 5748.3 0.169514 3.73716 0
M  V30 58535 H 5749.64 0.203359 4.9178 0
M  V30 58536 N 5751.29 -1.54509 0.310607 0
M  V30 58537 C 5752.22 -2.21342 -0.59502 0
M  V30 58538 C 5753.23 -1.20921 -1.09004 0
M  V30 58539 O 5754.42 -1.47462 -1.00585 0
M  V30 58540 C 5751.52 -2.85391 -1.82772 0
M  V30 58541 C 5750.69 -4.11831 -1.47357 0
M  V30 58542 C 5749.75 -4.59593 -2.56243 0
M  V30 58543 O 5748.78 -5.24574 -2.20931 0
M  V30 58544 N 5749.98 -4.32723 -3.86952 0
M  V30 58545 H 5752.75 -2.99691 -0.0228237 0
M  V30 58546 H 5750.31 -1.61351 0.13323 0
M  V30 58547 H 5752.3 -3.14272 -2.54981 0
M  V30 58548 H 5750.87 -2.10824 -2.30807 0
M  V30 58549 H 5750.09 -3.89855 -0.583689 0
M  V30 58550 H 5751.38 -4.94142 -1.21247 0
M  V30 58551 H 5750.78 -3.80684 -4.18445 0
M  V30 58552 H 5749.33 -4.66291 -4.5543 0
M  V30 58553 N 5752.77 -0.0385148 -1.57553 0
M  V30 58554 C 5753.73 0.925284 -2.09693 0
M  V30 58555 C 5754.73 1.24807 -1.01389 0
M  V30 58556 O 5755.92 1.18685 -1.27513 0
M  V30 58557 C 5753.05 2.23901 -2.57062 0
M  V30 58558 H 5754.24 0.473529 -2.96138 0
M  V30 58559 H 5751.8 0.209682 -1.54887 0
M  V30 58560 H 5752.53 2.73685 -1.73974 0
M  V30 58561 H 5752.32 2.01781 -3.36195 0
M  V30 58562 H 5753.81 2.92964 -2.97593 0
M  V30 58563 N 5754.24 1.55842 0.23474 0
M  V30 58564 C 5755.49 1.78241 0.961053 0
M  V30 58565 C 5755.82 0.604984 1.84852 0
M  V30 58566 O 5755.07 -0.411222 1.91331 0
M  V30 58567 C 5755.37 3.06269 1.84213 0
M  V30 58568 C 5755.04 4.37049 1.109 0
M  V30 58569 C 5753.7 4.72586 0.90644 0
M  V30 58570 C 5756.05 5.17846 0.590308 0
M  V30 58571 C 5753.38 5.86445 0.173069 0
M  V30 58572 C 5755.73 6.32467 -0.129655 0
M  V30 58573 C 5754.4 6.66615 -0.343591 0
M  V30 58574 H 5753.67 0.652232 0.351674 0
M  V30 58575 H 5756.31 1.90111 0.230205 0
M  V30 58576 H 5754.62 2.89463 2.64042 0
M  V30 58577 H 5756.32 3.208 2.40601 0
M  V30 58578 H 5752.91 4.09139 1.27684 0
M  V30 58579 H 5757.09 4.90838 0.734314 0
M  V30 58580 H 5752.35 6.114 -0.00303903 0
M  V30 58581 H 5756.52 6.9431 -0.539149 0
M  V30 58582 H 5754.15 7.54688 -0.913804 0
M  V30 58583 N 5755.72 -0.50091 1.49428 0
M  V30 58584 C 5756.65 -1.61915 1.62223 0
M  V30 58585 C 5757.67 -1.54772 0.504923 0
M  V30 58586 O 5758.86 -1.60703 0.776976 0
M  V30 58587 C 5755.96 -3.00704 1.56301 0
M  V30 58588 C 5755.13 -3.3303 2.83566 0
M  V30 58589 C 5754.19 -4.51232 2.70696 0
M  V30 58590 O 5753.21 -4.5301 3.44631 0
M  V30 58591 N 5754.42 -5.5115 1.82248 0
M  V30 58592 H 5757.18 -1.51365 2.58667 0
M  V30 58593 H 5754.74 -0.688785 1.46517 0
M  V30 58594 H 5756.73 -3.77699 1.45345 0
M  V30 58595 H 5755.3 -3.05178 0.67715 0
M  V30 58596 H 5754.52 -2.44931 3.08873 0
M  V30 58597 H 5755.81 -3.51424 3.67938 0
M  V30 58598 H 5755.21 -5.52512 1.21436 0
M  V30 58599 H 5753.77 -6.27247 1.77214 0
M  V30 58600 N 5757.2 -1.38504 -0.751963 0
M  V30 58601 C 5758.45 -1.34534 -1.50814 0
M  V30 58602 C 5758.77 0.063547 -1.94896 0
M  V30 58603 O 5758.04 1.01155 -1.67763 0
M  V30 58604 H 5756.62 -0.49503 -0.559423 0
M  V30 58605 H 5759.28 -1.73199 -0.893761 0
M  V30 58606 H 5758.38 -1.99722 -2.39828 0
M  V30 58607 N 5758.68 0.980321 -1.234 0
M  V30 58608 C 5759.95 1.69603 -0.974379 0
M  V30 58609 C 5760.33 2.04921 0.506992 0
M  V30 58610 O 5759.68 1.74245 1.47821 0
M  V30 58611 C 5759.89 2.93736 -1.88467 0
M  V30 58612 C 5761.24 3.66249 -2.14819 0
M  V30 58613 O 5762.26 3.03769 -1.86018 0
M  V30 58614 O 5761.12 4.78689 -2.63665 0
M  V30 58615 H 5758.22 0.740866 -0.367488 0
M  V30 58616 H 5760.76 1.03554 -1.34442 0
M  V30 58617 H 5759.54 2.64234 -2.88611 0
M  V30 58618 H 5759.16 3.67522 -1.51701 0
M  V30 58619 N 5760.16 1.04571 1.17909 0
M  V30 58620 C 5761.07 0.651754 2.25365 0
M  V30 58621 C 5762.08 -0.32431 1.70951 0
M  V30 58622 O 5763.26 -0.177969 2.00612 0
M  V30 58623 C 5760.32 0.0260671 3.4669 0
M  V30 58624 C 5759.38 1.05178 4.16216 0
M  V30 58625 C 5758.62 0.455857 5.3175 0
M  V30 58626 O 5758.84 -0.736499 5.65625 0
M  V30 58627 O 5757.77 1.18705 5.90079 0
M  V30 58628 H 5761.6 1.54713 2.61338 0
M  V30 58629 H 5759.18 0.816896 1.25089 0
M  V30 58630 H 5761.07 -0.321978 4.20168 0
M  V30 58631 H 5759.74 -0.843055 3.12529 0
M  V30 58632 H 5758.65 1.45171 3.44784 0
M  V30 58633 H 5759.98 1.89184 4.5439 0
M  V30 58634 N 5761.63 -1.34228 0.82587 0
M  V30 58635 C 5762.86 -2.02948 0.427426 0
M  V30 58636 C 5763.28 -1.61776 -0.959699 0
M  V30 58637 O 5762.64 -0.803856 -1.62505 0
M  V30 58638 C 5762.69 -3.5652 0.540924 0
M  V30 58639 O 5761.79 -4.10067 -0.438069 0
M  V30 58640 H 5761.13 -0.640371 0.175557 0
M  V30 58641 H 5763.66 -1.71412 1.1171 0
M  V30 58642 H 5763.67 -4.05855 0.417773 0
M  V30 58643 H 5762.35 -3.85833 1.5526 0
M  V30 58644 H 5760.93 -3.71895 -0.273556 0
M  V30 58645 N 5763.11 -0.581102 -1.46496 0
M  V30 58646 C 5764.36 -0.0661646 -2.02692 0
M  V30 58647 C 5764.69 1.2898 -1.45182 0
M  V30 58648 O 5763.97 1.84477 -0.616312 0
M  V30 58649 C 5764.25 0.00132751 -3.601 0
M  V30 58650 C 5764.1 -1.38342 -4.27997 0
M  V30 58651 C 5765.42 0.702761 -4.34453 0
M  V30 58652 H 5762.54 -0.0255182 -0.736558 0
M  V30 58653 H 5765.18 -0.747992 -1.74657 0
M  V30 58654 H 5763.33 0.581983 -3.84116 0
M  V30 58655 H 5765 -2.00912 -4.15249 0
M  V30 58656 H 5763.25 -1.95158 -3.87422 0
M  V30 58657 H 5763.92 -1.28868 -5.36747 0
M  V30 58658 H 5766.39 0.209495 -4.15572 0
M  V30 58659 H 5765.27 0.71901 -5.4417 0
M  V30 58660 H 5765.53 1.76375 -4.05394 0
M  V30 58661 N 5764.59 1.54342 -0.318797 0
M  V30 58662 C 5766.01 1.59564 0.0340119 0
M  V30 58663 C 5766.21 1.33544 1.50892 0
M  V30 58664 O 5765.26 1.11754 2.26423 0
M  V30 58665 C 5766.58 2.9829 -0.379932 0
M  V30 58666 C 5768.12 3.11254 -0.330187 0
M  V30 58667 C 5768.6 4.52318 -0.71922 0
M  V30 58668 N 5770.09 4.58293 -0.672441 0
M  V30 58669 C 5770.82 5.65547 -0.945712 0
M  V30 58670 N 5770.32 6.80762 -1.28587 0
M  V30 58671 N 5772.11 5.55301 -0.871589 0
M  V30 58672 H 5764.26 1.69513 -1.27981 0
M  V30 58673 H 5766.53 0.792609 -0.520072 0
M  V30 58674 H 5766.23 3.22314 -1.40735 0
M  V30 58675 H 5766.11 3.7632 0.257474 0
M  V30 58676 H 5768.49 2.86968 0.688016 0
M  V30 58677 H 5768.58 2.35339 -1.00246 0
M  V30 58678 H 5768.22 4.77336 -1.73532 0
M  V30 58679 H 5768.15 5.26594 -0.0246852 0
M  V30 58680 H 5770.64 3.75545 -0.421191 0
M  V30 58681 H 5770.95 7.58498 -1.47989 0
M  V30 58682 H 5769.3 6.8227 -1.32409 0
M  V30 58683 H 5772.49 4.64169 -0.605368 0
M  V30 58684 H 5772.66 6.38802 -1.08792 0
M  V30 58685 N 5766.07 0.0468696 1.5753 0
M  V30 58686 C 5767.32 -0.627308 1.91697 0
M  V30 58687 C 5767.63 -1.72257 0.926649 0
M  V30 58688 O 5768.84 -2.45462 1.16021 0
M  V30 58689 C 5767.29 -1.1671 3.40451 0
M  V30 58690 C 5766.9 -0.104177 4.47879 0
M  V30 58691 C 5768.64 -1.81677 3.83658 0
M  V30 58692 C 5766.55 -0.656611 5.87744 0
M  V30 58693 H 5765.48 -0.238082 0.715425 0
M  V30 58694 H 5768.13 0.11506 1.83139 0
M  V30 58695 H 5766.51 -1.96165 3.43999 0
M  V30 58696 H 5767.69 0.669213 4.55915 0
M  V30 58697 H 5766 0.447778 4.13985 0
M  V30 58698 H 5768.6 -2.23997 4.8552 0
M  V30 58699 H 5768.94 -2.66674 3.19672 0
M  V30 58700 H 5769.48 -1.08885 3.82608 0
M  V30 58701 H 5766.22 0.155627 6.55315 0
M  V30 58702 H 5765.74 -1.39809 5.83278 0
M  V30 58703 H 5767.41 -1.14085 6.36862 0
M  V30 58704 N 5767.55 -1.55964 -0.226472 0
M  V30 58705 C 5768.82 -1.69531 -0.975629 0
M  V30 58706 C 5769.2 -0.592706 -2.02608 0
M  V30 58707 O 5768.55 0.400994 -2.24954 0
M  V30 58708 C 5768.76 -3.1065 -1.59052 0
M  V30 58709 C 5770.11 -3.69902 -2.08465 0
M  V30 58710 O 5771.13 -3.1358 -1.68955 0
M  V30 58711 O 5769.99 -4.68682 -2.81069 0
M  V30 58712 H 5767.09 -0.690301 -0.455427 0
M  V30 58713 H 5769.63 -1.68286 -0.218642 0
M  V30 58714 H 5768.4 -3.82358 -0.831769 0
M  V30 58715 H 5768.03 -3.15993 -2.41318 0
M  V30 58716 N 5769.02 0.492978 -1.49691 0
M  V30 58717 C 5769.99 1.57592 -1.66425 0
M  V30 58718 C 5770.99 1.51614 -0.535721 0
M  V30 58719 O 5772.18 1.54623 -0.802337 0
M  V30 58720 C 5769.31 2.97243 -1.66911 0
M  V30 58721 H 5770.5 1.44081 -2.63022 0
M  V30 58722 H 5768.06 0.717798 -1.38843 0
M  V30 58723 H 5768.79 3.16223 -0.719275 0
M  V30 58724 H 5768.58 3.02991 -2.48876 0
M  V30 58725 H 5770.07 3.75908 -1.81887 0
M  V30 58726 N 5770.5 1.38901 0.744607 0
M  V30 58727 C 5771.44 1.31235 1.86689 0
M  V30 58728 C 5772.41 0.187724 1.61513 0
M  V30 58729 O 5773.6 0.366562 1.84902 0
M  V30 58730 C 5770.72 1.03552 3.22482 0
M  V30 58731 C 5769.77 2.18074 3.66532 0
M  V30 58732 S 5770.6 3.80285 3.7702 0
M  V30 58733 C 5771.76 3.54808 5.15618 0
M  V30 58734 H 5771.99 2.26218 1.92906 0
M  V30 58735 H 5769.53 1.24842 0.9085 0
M  V30 58736 H 5771.48 0.882645 4.00899 0
M  V30 58737 H 5770.14 0.102722 3.13932 0
M  V30 58738 H 5769.34 1.94273 4.65053 0
M  V30 58739 H 5768.94 2.29515 2.95294 0
M  V30 58740 H 5771.23 3.11478 6.01654 0
M  V30 58741 H 5772.17 4.52755 5.44444 0
M  V30 58742 H 5772.58 2.8912 4.8484 0
M  V30 58743 N 5771.98 -0.973763 1.23918 0
M  V30 58744 C 5773.26 -1.69084 0.98336 0
M  V30 58745 C 5773.64 -2.05187 -0.496117 0
M  V30 58746 O 5772.99 -1.75026 -1.46895 0
M  V30 58747 C 5773.2 -2.92733 1.90023 0
M  V30 58748 C 5774.54 -3.65104 2.16758 0
M  V30 58749 O 5775.57 -3.02779 1.87626 0
M  V30 58750 O 5774.43 -4.77284 2.662 0
M  V30 58751 H 5771.52 -0.738906 0.371411 0
M  V30 58752 H 5774.07 -1.02839 1.34989 0
M  V30 58753 H 5772.84 -2.627 2.90008 0
M  V30 58754 H 5772.46 -3.66713 1.53647 0
M  V30 58755 N 5773.46 -1.05195 -1.17353 0
M  V30 58756 C 5774.7 -0.763179 -1.87892 0
M  V30 58757 C 5775.04 0.708008 -1.80834 0
M  V30 58758 O 5774.31 1.51772 -1.21636 0
M  V30 58759 C 5774.6 -1.24432 -3.37918 0
M  V30 58760 C 5774.45 -2.77844 -3.53727 0
M  V30 58761 C 5775.77 -0.843361 -4.31944 0
M  V30 58762 H 5772.89 -0.278714 -0.682267 0
M  V30 58763 H 5775.53 -1.30595 -1.38004 0
M  V30 58764 H 5773.68 -0.782572 -3.80537 0
M  V30 58765 H 5775.35 -3.32142 -3.20124 0
M  V30 58766 H 5773.59 -3.17118 -2.96004 0
M  V30 58767 H 5774.26 -3.06571 -4.59041 0
M  V30 58768 H 5776.74 -1.24087 -3.97167 0
M  V30 58769 H 5775.62 -1.20762 -5.35451 0
M  V30 58770 H 5775.88 0.252646 -4.41378 0
M  V30 58771 N 5774.94 1.33788 -0.832977 0
M  V30 58772 C 5775.89 2.26794 -0.234149 0
M  V30 58773 C 5776.87 1.48993 0.607437 0
M  V30 58774 O 5778.06 1.70908 0.46037 0
M  V30 58775 C 5775.19 3.38109 0.594744 0
M  V30 58776 C 5774.28 4.23314 -0.258025 0
M  V30 58777 N 5774.67 4.87894 -1.3339 0
M  V30 58778 C 5772.97 4.45978 -0.0440565 0
M  V30 58779 C 5773.67 5.51271 -1.85675 0
M  V30 58780 N 5772.64 5.31098 -1.15911 0
M  V30 58781 H 5776.45 2.74236 -1.05697 0
M  V30 58782 H 5773.96 1.47624 -0.676819 0
M  V30 58783 H 5775.96 4.0372 1.04 0
M  V30 58784 H 5774.62 2.92217 1.41561 0
M  V30 58785 H 5775.63 4.88618 -1.71677 0
M  V30 58786 H 5772.3 4.1082 0.743841 0
M  V30 58787 H 5773.69 6.12713 -2.75739 0
M  V30 58788 N 5776.41 0.588863 1.46185 0
M  V30 58789 C 5777.66 0.076913 2.02654 0
M  V30 58790 C 5777.99 -1.28208 1.45864 0
M  V30 58791 O 5777.27 -1.84148 0.626087 0
M  V30 58792 C 5777.55 0.0177695 3.60096 0
M  V30 58793 C 5777.4 1.4061 4.27257 0
M  V30 58794 C 5778.72 -0.679711 4.34819 0
M  V30 58795 H 5775.84 0.029424 0.736412 0
M  V30 58796 H 5778.48 0.757244 1.74258 0
M  V30 58797 H 5776.63 -0.561604 3.84419 0
M  V30 58798 H 5778.31 2.03111 4.14178 0
M  V30 58799 H 5776.55 1.9721 3.86382 0
M  V30 58800 H 5777.22 1.31713 5.36056 0
M  V30 58801 H 5779.7 -0.187454 4.15678 0
M  V30 58802 H 5778.57 -0.690141 5.44544 0
M  V30 58803 H 5778.83 -1.74222 4.06324 0
M  V30 58804 N 5777.89 -1.54171 0.326977 0
M  V30 58805 C 5778.84 -2.24456 -0.537422 0
M  V30 58806 C 5779.81 -1.23662 -1.10892 0
M  V30 58807 O 5780.99 -1.52352 -1.14862 0
M  V30 58808 C 5778.13 -3.00845 -1.69075 0
M  V30 58809 C 5777.25 -4.16463 -1.14815 0
M  V30 58810 C 5776.38 -4.80376 -2.26744 0
M  V30 58811 C 5775.42 -5.88091 -1.69751 0
M  V30 58812 N 5774.56 -6.45851 -2.75355 0
M  V30 58813 H 5779.4 -2.97921 0.068507 0
M  V30 58814 H 5776.94 -1.47029 0.0455804 0
M  V30 58815 H 5778.89 -3.43383 -2.36947 0
M  V30 58816 H 5777.52 -2.29708 -2.26791 0
M  V30 58817 H 5776.58 -3.78684 -0.360871 0
M  V30 58818 H 5777.89 -4.93988 -0.691146 0
M  V30 58819 H 5777.04 -5.25899 -3.02514 0
M  V30 58820 H 5775.78 -4.02238 -2.75782 0
M  V30 58821 H 5774.79 -5.41966 -0.924794 0
M  V30 58822 H 5776.01 -6.68127 -1.21585 0
M  V30 58823 H 5773.96 -5.70586 -3.23679 0
M  V30 58824 H 5773.87 -7.188 -2.34228 0
M  V30 58825 H 5775.14 -6.9603 -3.50945 0
M  V30 58826 N 5779.37 -0.0552232 -1.57503 0
M  V30 58827 C 5780.33 0.902991 -2.10663 0
M  V30 58828 C 5781.33 1.23725 -1.02707 0
M  V30 58829 O 5782.52 1.17326 -1.28764 0
M  V30 58830 C 5779.66 2.21162 -2.59423 0
M  V30 58831 H 5780.85 0.442093 -2.96624 0
M  V30 58832 H 5778.4 0.193242 -1.55101 0
M  V30 58833 H 5779.14 2.71824 -1.76867 0
M  V30 58834 H 5778.92 1.98204 -3.38316 0
M  V30 58835 H 5780.41 2.89791 -3.00684 0
M  V30 58836 N 5780.85 1.56082 0.218198 0
M  V30 58837 C 5782.1 1.78897 0.940233 0
M  V30 58838 C 5782.42 0.624315 1.84736 0
M  V30 58839 O 5781.69 -0.358618 1.9259 0
M  V30 58840 H 5780.27 0.659841 0.35017 0
M  V30 58841 H 5782.93 1.93547 0.229248 0
M  V30 58842 H 5782.03 2.71172 1.54506 0
M  V30 58843 N 5782.33 -0.485033 1.49951 0
M  V30 58844 C 5783.74 -0.817602 1.37067 0
M  V30 58845 C 5783.94 -1.97159 0.416018 0
M  V30 58846 O 5783 -2.52075 -0.146478 0
M  V30 58847 C 5784.31 -1.14278 2.78138 0
M  V30 58848 C 5785.86 -1.25006 2.86954 0
M  V30 58849 C 5786.34 -1.60844 4.28828 0
M  V30 58850 N 5787.83 -1.67863 4.31713 0
M  V30 58851 C 5788.56 -1.9707 5.38471 0
M  V30 58852 N 5788.06 -2.24392 6.55454 0
M  V30 58853 N 5789.85 -1.98455 5.25901 0
M  V30 58854 H 5782 0.27568 2.10603 0
M  V30 58855 H 5784.26 0.0607819 0.946049 0
M  V30 58856 H 5783.97 -0.368047 3.49769 0
M  V30 58857 H 5783.84 -2.08239 3.1451 0
M  V30 58858 H 5786.23 -2.01549 2.15551 0
M  V30 58859 H 5786.31 -0.290574 2.54144 0
M  V30 58860 H 5785.96 -0.848463 5.00763 0
M  V30 58861 H 5785.89 -2.57919 4.59113 0
M  V30 58862 H 5788.38 -1.48844 3.47353 0
M  V30 58863 H 5788.69 -2.45912 7.3263 0
M  V30 58864 H 5787.04 -2.21814 6.58653 0
M  V30 58865 H 5790.23 -1.76597 4.3351 0
M  V30 58866 H 5790.4 -2.20882 6.09192 0
M  V30 58867 N 5783.81 -1.39293 -0.73723 0
M  V30 58868 C 5785.05 -1.36598 -1.49896 0
M  V30 58869 C 5785.38 0.038813 -1.94161 0
M  V30 58870 O 5784.66 1.00331 -1.66625 0
M  V30 58871 C 5784.94 -2.33635 -2.7402 0
M  V30 58872 C 5784.8 -3.83046 -2.35788 0
M  V30 58873 C 5786.11 -2.28537 -3.7611 0
M  V30 58874 H 5783.23 -0.497501 -0.543748 0
M  V30 58875 H 5785.88 -1.70268 -0.843133 0
M  V30 58876 H 5784.03 -2.05052 -3.29979 0
M  V30 58877 H 5785.7 -4.22369 -1.85478 0
M  V30 58878 H 5783.94 -3.9993 -1.68044 0
M  V30 58879 H 5784.61 -4.46426 -3.24665 0
M  V30 58880 H 5787.09 -2.53805 -3.2973 0
M  V30 58881 H 5785.96 -2.98517 -4.60629 0
M  V30 58882 H 5786.22 -1.28964 -4.22872 0
M  V30 58883 N 5785.28 0.967178 -1.24432 0
M  V30 58884 C 5786.51 1.74263 -1.10978 0
M  V30 58885 C 5786.92 1.86112 0.340457 0
M  V30 58886 O 5786.26 1.3492 1.24669 0
M  V30 58887 C 5786.33 3.18029 -1.67624 0
M  V30 58888 C 5785.99 3.2965 -3.16512 0
M  V30 58889 C 5786.99 3.14937 -4.13655 0
M  V30 58890 C 5784.67 3.53874 -3.56481 0
M  V30 58891 C 5786.67 3.24275 -5.48748 0
M  V30 58892 C 5784.35 3.62849 -4.91715 0
M  V30 58893 C 5785.35 3.48061 -5.87658 0
M  V30 58894 O 5785.04 3.56694 -7.20434 0
M  V30 58895 H 5784.77 0.55328 -0.388404 0
M  V30 58896 H 5787.33 1.22289 -1.65029 0
M  V30 58897 H 5785.56 3.7131 -1.08007 0
M  V30 58898 H 5787.24 3.77385 -1.49451 0
M  V30 58899 H 5788.01 2.96106 -3.84117 0
M  V30 58900 H 5783.89 3.64449 -2.82308 0
M  V30 58901 H 5787.43 3.1265 -6.23615 0
M  V30 58902 H 5783.33 3.81193 -5.20924 0
M  V30 58903 H 5784.1 3.73405 -7.28362 0
M  V30 58904 N 5786.76 1.05816 1.16794 0
M  V30 58905 C 5788.01 0.782935 1.87728 0
M  V30 58906 C 5788.36 -0.682949 1.79871 0
M  V30 58907 O 5787.66 -1.49353 1.20018 0
M  V30 58908 C 5787.85 1.20577 3.36446 0
M  V30 58909 C 5787.68 2.71122 3.5878 0
M  V30 58910 C 5786.45 3.3852 3.75143 0
M  V30 58911 C 5788.65 3.69339 3.57901 0
M  V30 58912 N 5786.63 4.77864 3.85381 0
M  V30 58913 C 5788 4.94444 3.74065 0
M  V30 58914 C 5790.05 3.62719 3.41086 0
M  V30 58915 C 5788.76 6.1372 3.75154 0
M  V30 58916 C 5790.78 4.81441 3.43466 0
M  V30 58917 C 5790.15 6.05372 3.60144 0
M  V30 58918 H 5786.24 0.338822 0.704786 0
M  V30 58919 H 5788.83 1.35135 1.40166 0
M  V30 58920 H 5787 0.665238 3.82661 0
M  V30 58921 H 5788.73 0.87972 3.95023 0
M  V30 58922 H 5785.49 2.8892 3.75263 0
M  V30 58923 H 5785.91 5.50338 3.94281 0
M  V30 58924 H 5790.55 2.67862 3.27123 0
M  V30 58925 H 5788.27 7.08914 3.879 0
M  V30 58926 H 5791.86 4.77978 3.31705 0
M  V30 58927 H 5790.74 6.957 3.61898 0
M  V30 58928 N 5788.24 -1.33344 0.84006 0
M  V30 58929 C 5789.47 -2.0195 0.449864 0
M  V30 58930 C 5789.88 -1.63201 -0.949259 0
M  V30 58931 O 5789.24 -0.845947 -1.6171 0
M  V30 58932 C 5789.29 -3.571 0.562304 0
M  V30 58933 O 5789.01 -3.94451 1.9063 0
M  V30 58934 C 5790.51 -4.42977 0.169218 0
M  V30 58935 H 5787.73 -0.646837 0.178447 0
M  V30 58936 H 5790.28 -1.70247 1.13296 0
M  V30 58937 H 5788.43 -3.87331 -0.0728983 0
M  V30 58938 H 5788.85 -4.89161 1.89267 0
M  V30 58939 H 5790.32 -5.5119 0.298936 0
M  V30 58940 H 5790.8 -4.30109 -0.888986 0
M  V30 58941 H 5791.4 -4.18107 0.778903 0
M  V30 58942 N 5789.72 -0.596607 -1.45871 0
M  V30 58943 C 5790.67 0.141246 -2.32171 0
M  V30 58944 C 5791.66 0.870601 -1.45317 0
M  V30 58945 O 5792.87 0.787412 -1.61864 0
M  V30 58946 H 5789.24 0.0644141 -0.749236 0
M  V30 58947 H 5791.21 -0.605218 -2.92198 0
M  V30 58948 C 5789.96 1.13249 -3.2874 0
M  V30 58949 H 5789.28 0.580696 -3.9556 0
M  V30 58950 H 5790.72 1.61891 -3.91877 0
M  V30 58951 C 5789.18 2.20053 -2.55105 0
M  V30 58952 O 5789.71 3.27626 -2.32431 0
M  V30 58953 N 5787.92 1.95037 -2.15427 0
M  V30 58954 H 5787.47 1.07564 -2.34068 0
M  V30 58955 H 5787.42 2.66705 -1.66481 0
M  V30 58956 N 5791.2 1.53995 -0.335149 0
M  V30 58957 C 5792.44 2.01769 0.257031 0
M  V30 58958 C 5792.8 1.21889 1.48865 0
M  V30 58959 O 5792.09 0.295964 1.893 0
M  V30 58960 C 5792.28 3.51772 0.631783 0
M  V30 58961 C 5792.11 4.46175 -0.561975 0
M  V30 58962 C 5790.88 4.93956 -1.06468 0
M  V30 58963 C 5793.08 4.94371 -1.41781 0
M  V30 58964 N 5791.06 5.7229 -2.22164 0
M  V30 58965 C 5792.43 5.70745 -2.42178 0
M  V30 58966 C 5794.49 4.76494 -1.44423 0
M  V30 58967 C 5793.19 6.31144 -3.45036 0
M  V30 58968 C 5795.22 5.37736 -2.46158 0
M  V30 58969 C 5794.58 6.13971 -3.45282 0
M  V30 58970 H 5790.68 0.779877 0.0575858 0
M  V30 58971 H 5793.26 1.88872 -0.472813 0
M  V30 58972 H 5791.43 3.64892 1.33074 0
M  V30 58973 H 5793.17 3.863 1.20643 0
M  V30 58974 H 5789.92 4.69336 -0.634107 0
M  V30 58975 H 5790.34 6.16131 -2.80555 0
M  V30 58976 H 5794.99 4.17107 -0.691515 0
M  V30 58977 H 5792.7 6.89645 -4.21208 0
M  V30 58978 H 5796.29 5.25815 -2.49019 0
M  V30 58979 H 5795.17 6.60517 -4.22713 0
M  V30 58980 N 5792.67 0.0635752 1.57472 0
M  V30 58981 C 5793.62 -0.916454 2.0877 0
M  V30 58982 C 5794.61 -1.26401 0.995564 0
M  V30 58983 O 5795.8 -1.24436 1.25875 0
M  V30 58984 C 5792.93 -2.18695 2.64627 0
M  V30 58985 C 5792.01 -1.86623 3.80831 0
M  V30 58986 N 5792.41 -1.24965 4.9012 0
M  V30 58987 C 5790.7 -2.16422 3.89971 0
M  V30 58988 C 5791.4 -1.10801 5.7105 0
M  V30 58989 N 5790.38 -1.61501 5.19055 0
M  V30 58990 H 5794.18 -0.435274 2.90659 0
M  V30 58991 H 5791.7 -0.140543 1.61791 0
M  V30 58992 H 5793.69 -2.89814 2.99689 0
M  V30 58993 H 5792.35 -2.67408 1.84182 0
M  V30 58994 H 5793.36 -0.920312 5.09657 0
M  V30 58995 H 5790.04 -2.67569 3.20489 0
M  V30 58996 H 5791.43 -0.628311 6.68956 0
M  V30 58997 N 5794.15 -1.56196 -0.209917 0
M  V30 58998 C 5795.38 -1.83844 -0.949163 0
M  V30 58999 C 5795.8 -0.644203 -1.7747 0
M  V30 59000 O 5795.15 0.387214 -1.78345 0
M  V30 59001 C 5795.2 -3.10137 -1.85734 0
M  V30 59002 O 5794.92 -4.24954 -1.06516 0
M  V30 59003 C 5796.43 -3.50857 -2.70951 0
M  V30 59004 H 5793.65 -0.610865 -0.277641 0
M  V30 59005 H 5796.19 -2.03295 -0.221637 0
M  V30 59006 H 5794.34 -2.92626 -2.53867 0
M  V30 59007 H 5794.76 -4.96775 -1.68269 0
M  V30 59008 H 5796.23 -4.42231 -3.30357 0
M  V30 59009 H 5796.71 -2.73151 -3.43926 0
M  V30 59010 H 5797.32 -3.70847 -2.08213 0
M  V30 59011 N 5795.63 0.477074 -1.50206 0
M  V30 59012 C 5796.88 1.22716 -1.60578 0
M  V30 59013 C 5797.2 1.92594 -0.305394 0
M  V30 59014 O 5796.47 1.83838 0.676777 0
M  V30 59015 H 5795.05 0.455952 -0.591707 0
M  V30 59016 H 5797.71 0.55085 -1.86954 0
M  V30 59017 H 5796.81 1.97828 -2.41392 0
M  V30 59018 N 5797.11 1.39683 0.729833 0
M  V30 59019 C 5798.34 1.40472 1.51905 0
M  V30 59020 C 5798.75 0.000596315 1.888 0
M  V30 59021 O 5798.11 -0.972018 1.54461 0
M  V30 59022 C 5798.16 2.28239 2.80337 0
M  V30 59023 O 5797.88 3.63185 2.45007 0
M  V30 59024 C 5799.38 2.37468 3.74331 0
M  V30 59025 H 5796.6 0.47962 0.46926 0
M  V30 59026 H 5799.15 1.83561 0.901419 0
M  V30 59027 H 5797.3 1.8855 3.38419 0
M  V30 59028 H 5797.71 4.09651 3.27546 0
M  V30 59029 H 5799.19 3.03117 4.61329 0
M  V30 59030 H 5799.67 1.39539 4.16444 0
M  V30 59031 H 5800.27 2.77649 3.22166 0
M  V30 59032 N 5798.59 -0.960565 1.24944 0
M  V30 59033 C 5799.84 -1.6988 1.08737 0
M  V30 59034 C 5800.15 -1.9202 -0.372534 0
M  V30 59035 O 5801.35 -2.63482 -0.654926 0
M  V30 59036 C 5799.81 -3.05809 1.89761 0
M  V30 59037 C 5799.42 -2.91486 3.40206 0
M  V30 59038 C 5801.16 -3.83455 1.82105 0
M  V30 59039 C 5799.07 -4.22768 4.13547 0
M  V30 59040 H 5798 -0.637073 0.403304 0
M  V30 59041 H 5800.65 -1.06982 1.49088 0
M  V30 59042 H 5799.03 -3.69577 1.42229 0
M  V30 59043 H 5800.21 -2.36686 3.95369 0
M  V30 59044 H 5798.52 -2.27299 3.4889 0
M  V30 59045 H 5801.12 -4.80682 2.34198 0
M  V30 59046 H 5801.46 -4.08779 0.787741 0
M  V30 59047 H 5801.99 -3.26427 2.27356 0
M  V30 59048 H 5798.73 -4.02635 5.17267 0
M  V30 59049 H 5798.25 -4.77356 3.63168 0
M  V30 59050 H 5799.93 -4.91346 4.20937 0
M  V30 59051 N 5800.06 -1.06434 -1.16231 0
M  V30 59052 C 5801.29 -0.802739 -1.91235 0
M  V30 59053 C 5801.71 0.637159 -1.7698 0
M  V30 59054 O 5801.07 1.44415 -1.09608 0
M  V30 59055 C 5801.12 -1.20401 -3.39906 0
M  V30 59056 O 5800.22 -0.34366 -4.10966 0
M  V30 59057 H 5799.57 -0.293251 -0.595735 0
M  V30 59058 H 5802.1 -1.42051 -1.4725 0
M  V30 59059 H 5802.11 -1.17618 -3.90679 0
M  V30 59060 H 5800.78 -2.25283 -3.49601 0
M  V30 59061 H 5799.36 -0.433182 -3.70375 0
M  V30 59062 N 5801.54 1.32897 -0.84712 0
M  V30 59063 C 5802.77 2.01416 -0.4599 0
M  V30 59064 C 5803.18 1.6386 0.945863 0
M  V30 59065 O 5802.52 0.852003 1.62747 0
M  V30 59066 C 5802.59 3.55857 -0.510501 0
M  V30 59067 C 5802.25 4.16817 -1.87383 0
M  V30 59068 C 5803.25 4.35592 -2.83823 0
M  V30 59069 C 5800.93 4.5306 -2.16892 0
M  V30 59070 C 5802.93 4.89768 -4.07929 0
M  V30 59071 C 5800.61 5.06941 -3.41253 0
M  V30 59072 C 5801.61 5.25243 -4.36588 0
M  V30 59073 O 5801.3 5.77976 -5.58748 0
M  V30 59074 H 5801.03 0.651602 -0.179975 0
M  V30 59075 H 5803.58 1.7062 -1.14359 0
M  V30 59076 H 5801.81 3.86015 0.230009 0
M  V30 59077 H 5803.5 4.05659 -0.139946 0
M  V30 59078 H 5804.27 4.07933 -2.62328 0
M  V30 59079 H 5800.15 4.38105 -1.43476 0
M  V30 59080 H 5803.69 5.03968 -4.82351 0
M  V30 59081 H 5799.59 5.34032 -3.62602 0
M  V30 59082 H 5800.36 5.96379 -5.60602 0
M  V30 59083 N 5803.02 0.604335 1.45553 0
M  V30 59084 C 5804.44 0.26772 1.57339 0
M  V30 59085 C 5804.64 -1.22979 1.5962 0
M  V30 59086 O 5803.69 -2.01265 1.52475 0
M  V30 59087 C 5805.01 0.936023 2.85761 0
M  V30 59088 C 5806.55 0.911636 2.9943 0
M  V30 59089 C 5807.03 1.55989 4.30618 0
M  V30 59090 N 5808.52 1.52523 4.37368 0
M  V30 59091 C 5809.25 1.99599 5.37539 0
M  V30 59092 N 5808.75 2.54747 6.44264 0
M  V30 59093 N 5810.54 1.90387 5.28876 0
M  V30 59094 H 5802.69 1.57671 1.42315 0
M  V30 59095 H 5804.96 0.660304 0.680222 0
M  V30 59096 H 5804.66 1.99032 2.89964 0
M  V30 59097 H 5804.54 0.457325 3.74417 0
M  V30 59098 H 5806.92 -0.134103 2.94795 0
M  V30 59099 H 5807.01 1.42857 2.12192 0
M  V30 59100 H 5806.65 2.60494 4.36011 0
M  V30 59101 H 5806.58 1.018 5.16666 0
M  V30 59102 H 5809.07 1.12233 3.60849 0
M  V30 59103 H 5809.38 2.8847 7.16941 0
M  V30 59104 H 5807.73 2.58784 6.45024 0
M  V30 59105 H 5810.92 1.47045 4.44405 0
M  V30 59106 H 5811.09 2.27389 6.06794 0
M  V30 59107 N 5804.5 -1.53815 0.343311 0
M  V30 59108 C 5805.72 -2.05797 -0.257346 0
M  V30 59109 C 5806.15 -1.21665 -1.43455 0
M  V30 59110 O 5805.51 -0.230341 -1.79831 0
M  V30 59111 C 5805.55 -3.54683 -0.650556 0
M  V30 59112 O 5804.66 -3.734 -1.75061 0
M  V30 59113 H 5804 -0.662623 -0.0427337 0
M  V30 59114 H 5806.53 -1.9846 0.497456 0
M  V30 59115 H 5806.54 -3.97311 -0.927775 0
M  V30 59116 H 5805.21 -4.15368 0.210345 0
M  V30 59117 H 5803.79 -3.42674 -1.47068 0
M  V30 59118 N 5805.98 -0.0719254 -1.57436 0
M  V30 59119 C 5806.91 0.892804 -2.15757 0
M  V30 59120 C 5807.89 1.31032 -1.08465 0
M  V30 59121 O 5809.07 1.38134 -1.36501 0
M  V30 59122 C 5806.2 2.16035 -2.71931 0
M  V30 59123 C 5805.16 1.88223 -3.84391 0
M  V30 59124 C 5804.48 3.21609 -4.27167 0
M  V30 59125 C 5805.78 1.1874 -5.08624 0
M  V30 59126 H 5807.48 0.406957 -2.96621 0
M  V30 59127 H 5805.02 0.194304 -1.42683 0
M  V30 59128 H 5806.98 2.83941 -3.11376 0
M  V30 59129 H 5805.7 2.66862 -1.88288 0
M  V30 59130 H 5804.36 1.22722 -3.45449 0
M  V30 59131 H 5804.01 3.70277 -3.40446 0
M  V30 59132 H 5803.71 3.03791 -5.02976 0
M  V30 59133 H 5805.23 3.90713 -4.69229 0
M  V30 59134 H 5806.64 1.76716 -5.45385 0
M  V30 59135 H 5805.04 1.1118 -5.89711 0
M  V30 59136 H 5806.11 0.166512 -4.84614 0
M  V30 59137 N 5807.45 1.56305 0.201631 0
M  V30 59138 C 5808.87 1.70222 0.766893 0
M  V30 59139 C 5809.22 0.677383 1.84136 0
M  V30 59140 O 5808.34 -0.167528 2.15751 0
M  V30 59141 C 5808.94 3.08619 1.39784 0
M  V30 59142 C 5807.5 3.24324 1.91026 0
M  V30 59143 C 5806.64 2.66169 0.77776 0
M  V30 59144 H 5809.59 1.58683 -0.0233441 0
M  V30 59145 H 5809.61 3.05586 2.26711 0
M  V30 59146 H 5809.13 3.83187 0.615593 0
M  V30 59147 H 5807.23 2.54661 2.7199 0
M  V30 59148 H 5807.34 4.3176 2.07654 0
M  V30 59149 H 5805.7 2.25173 1.19034 0
M  V30 59150 H 5806.49 3.43299 0.00786111 0
M  V30 59151 N 5808.93 -0.469102 1.50457 0
M  V30 59152 C 5810.34 -1.04992 1.54381 0
M  V30 59153 C 5810.7 -1.9308 0.348481 0
M  V30 59154 O 5809.82 -2.09595 -0.538395 0
M  V30 59155 C 5810.42 -1.91086 2.7977 0
M  V30 59156 C 5808.97 -2.44273 2.86369 0
M  V30 59157 C 5808.12 -1.22668 2.48692 0
M  V30 59158 H 5811.07 -0.251637 1.56692 0
M  V30 59159 H 5811.09 -2.76177 2.61738 0
M  V30 59160 H 5810.61 -1.26948 3.6675 0
M  V30 59161 H 5808.71 -3.11959 2.03746 0
M  V30 59162 H 5808.82 -2.79244 3.89306 0
M  V30 59163 H 5807.18 -1.56208 2.01175 0
M  V30 59164 H 5807.97 -0.601883 3.37983 0
M  V30 59165 N 5810.41 -1.40068 -0.722415 0
M  V30 59166 C 5811.37 -1.3955 -1.8182 0
M  V30 59167 C 5812.37 -0.290441 -1.58155 0
M  V30 59168 O 5813.56 -0.548999 -1.65323 0
M  V30 59169 C 5810.7 -1.18052 -3.19807 0
M  V30 59170 H 5811.89 -2.3707 -1.83679 0
M  V30 59171 H 5809.44 -1.25816 -0.927359 0
M  V30 59172 H 5810.18 -0.21265 -3.23602 0
M  V30 59173 H 5809.96 -1.98091 -3.38382 0
M  V30 59174 H 5811.45 -1.20461 -3.99849 0
M  V30 59175 N 5811.89 0.953925 -1.25451 0
M  V30 59176 C 5812.85 2.03228 -1.05977 0
M  V30 59177 C 5813.85 1.60795 -0.012342 0
M  V30 59178 O 5815.04 1.7233 -0.254593 0
M  V30 59179 C 5812.17 3.35412 -0.609223 0
M  V30 59180 H 5813.37 2.21936 -2.01704 0
M  V30 59181 H 5810.92 1.13111 -1.07868 0
M  V30 59182 H 5811.66 3.22399 0.35061 0
M  V30 59183 H 5811.44 3.67559 -1.36538 0
M  V30 59184 H 5812.93 4.14663 -0.494426 0
M  V30 59185 N 5813.37 1.07049 1.15665 0
M  V30 59186 C 5814.78 0.814991 1.67973 0
M  V30 59187 C 5815.13 -0.660343 1.84754 0
M  V30 59188 O 5814.25 -1.51151 1.54863 0
M  V30 59189 C 5814.85 1.47284 3.05111 0
M  V30 59190 C 5813.41 1.26493 3.54509 0
M  V30 59191 C 5812.56 1.54447 2.30307 0
M  V30 59192 H 5815.51 1.23294 0.999208 0
M  V30 59193 H 5815.53 0.892374 3.69888 0
M  V30 59194 H 5815.04 2.54659 2.92865 0
M  V30 59195 H 5813.14 0.211269 3.72001 0
M  V30 59196 H 5813.25 1.98298 4.36136 0
M  V30 59197 H 5811.62 0.965351 2.35697 0
M  V30 59198 H 5812.4 2.62998 2.20651 0
M  V30 59199 N 5814.85 -1.32446 0.854156 0
M  V30 59200 C 5816.26 -1.79543 0.511986 0
M  V30 59201 C 5816.61 -1.70537 -0.970128 0
M  V30 59202 O 5815.73 -1.26366 -1.75671 0
M  V30 59203 C 5816.33 -3.25997 0.92257 0
M  V30 59204 C 5814.89 -3.71051 0.632306 0
M  V30 59205 C 5814.03 -2.53561 1.12258 0
M  V30 59206 H 5816.98 -1.19751 1.04141 0
M  V30 59207 H 5817.01 -3.7975 0.238752 0
M  V30 59208 H 5816.52 -3.32519 2.00131 0
M  V30 59209 H 5814.62 -3.70043 -0.435732 0
M  V30 59210 H 5814.73 -4.63874 1.19825 0
M  V30 59211 H 5813.1 -2.48847 0.542869 0
M  V30 59212 H 5813.88 -2.62838 2.20842 0
M  V30 59213 N 5816.32 -0.612045 -1.4523 0
M  V30 59214 C 5817.55 -0.115482 -2.06577 0
M  V30 59215 C 5817.97 1.20201 -1.45593 0
M  V30 59216 O 5817.32 1.73313 -0.571729 0
M  V30 59217 C 5817.37 0.0258672 -3.61491 0
M  V30 59218 O 5817.1 -1.2395 -4.202 0
M  V30 59219 C 5818.6 0.553367 -4.39833 0
M  V30 59220 H 5815.82 -0.0708891 -0.667245 0
M  V30 59221 H 5818.36 -0.841043 -1.86405 0
M  V30 59222 H 5816.52 0.701775 -3.80991 0
M  V30 59223 H 5816.93 -1.07205 -5.13427 0
M  V30 59224 H 5818.4 0.601343 -5.48715 0
M  V30 59225 H 5818.88 1.57656 -4.09928 0
M  V30 59226 H 5819.49 -0.0886449 -4.25208 0
M  V30 59227 N 5817.8 1.53631 -0.351463 0
M  V30 59228 C 5819.03 2.05459 0.24378 0
M  V30 59229 C 5819.44 1.22593 1.43584 0
M  V30 59230 O 5818.8 0.263152 1.80593 0
M  V30 59231 C 5818.85 3.55588 0.651101 0
M  V30 59232 O 5818.57 4.35311 -0.493568 0
M  V30 59233 C 5820.07 4.23618 1.30623 0
M  V30 59234 H 5817.29 0.669445 0.0456593 0
M  V30 59235 H 5819.84 1.98148 -0.505744 0
M  V30 59236 H 5817.99 3.63096 1.35056 0
M  V30 59237 H 5818.41 5.24233 -0.167291 0
M  V30 59238 H 5819.88 5.30027 1.54192 0
M  V30 59239 H 5820.36 3.76457 2.26222 0
M  V30 59240 H 5820.96 4.20325 0.64859 0
M  V30 59241 N 5819.28 0.0802736 1.57395 0
M  V30 59242 C 5820.5 -0.59911 1.98558 0
M  V30 59243 C 5820.93 -1.6184 0.958612 0
M  V30 59244 O 5820.29 -1.81146 -0.0747589 0
M  V30 59245 C 5820.34 -1.23663 3.38732 0
M  V30 59246 O 5819.44 -2.3525 3.3872 0
M  V30 59247 H 5818.78 -0.153344 0.646051 0
M  V30 59248 H 5821.31 0.157299 2.03994 0
M  V30 59249 H 5821.32 -1.58147 3.76103 0
M  V30 59250 H 5820 -0.489801 4.13006 0
M  V30 59251 H 5818.57 -2.02496 3.13129 0
M  V30 59252 N 5820.76 -1.5641 -0.193339 0
M  V30 59253 C 5821.71 -1.95576 -1.25907 0
M  V30 59254 C 5822.7 -0.841435 -1.47025 0
M  V30 59255 O 5823.91 -1.02645 -1.47865 0
M  V30 59256 H 5820.28 -0.621929 -0.422739 0
M  V30 59257 H 5822.25 -2.84449 -0.901727 0
M  V30 59258 C 5821 -2.31303 -2.59604 0
M  V30 59259 H 5820.32 -3.16576 -2.44171 0
M  V30 59260 H 5821.76 -2.6257 -3.32916 0
M  V30 59261 C 5820.22 -1.14829 -3.16727 0
M  V30 59262 O 5820.75 -0.424245 -3.99453 0
M  V30 59263 N 5818.96 -0.924633 -2.75498 0
M  V30 59264 H 5818.51 -1.51516 -2.08328 0
M  V30 59265 H 5818.46 -0.147116 -3.14056 0
M  V30 59266 N 5822.24 0.461116 -1.50703 0
M  V30 59267 C 5823.65 0.795693 -1.38351 0
M  V30 59268 C 5823.85 1.96472 -0.447332 0
M  V30 59269 O 5822.91 2.52276 0.106357 0
M  V30 59270 C 5824.22 1.09839 -2.79921 0
M  V30 59271 C 5825.77 1.20425 -2.88906 0
M  V30 59272 C 5826.24 1.54002 -4.31332 0
M  V30 59273 N 5827.73 1.60974 -4.34329 0
M  V30 59274 C 5828.47 1.88478 -5.41538 0
M  V30 59275 N 5827.97 2.13936 -6.58941 0
M  V30 59276 N 5829.76 1.90063 -5.28992 0
M  V30 59277 H 5821.91 -0.30915 -2.10138 0
M  V30 59278 H 5824.17 -0.075825 -0.944963 0
M  V30 59279 H 5823.88 0.312356 -3.5031 0
M  V30 59280 H 5823.75 2.03209 -3.17783 0
M  V30 59281 H 5826.14 1.98094 -2.1873 0
M  V30 59282 H 5826.22 0.250105 -2.54574 0
M  V30 59283 H 5825.86 0.768689 -5.02049 0
M  V30 59284 H 5825.79 2.50583 -4.63159 0
M  V30 59285 H 5828.29 1.43299 -3.49677 0
M  V30 59286 H 5828.6 2.34226 -7.3645 0
M  V30 59287 H 5826.94 2.11308 -6.62098 0
M  V30 59288 H 5830.13 1.69678 -4.36265 0
M  V30 59289 H 5830.31 2.11163 -6.12629 0
M  V30 59290 N 5823.71 1.40449 0.714977 0
M  V30 59291 C 5824.66 1.37241 1.82068 0
M  V30 59292 C 5825.65 0.249864 1.58948 0
M  V30 59293 O 5826.84 0.489017 1.70111 0
M  V30 59294 C 5823.97 1.23798 3.20202 0
M  V30 59295 C 5823.06 2.40836 3.49083 0
M  V30 59296 N 5823.45 3.66317 3.48777 0
M  V30 59297 C 5821.74 2.34229 3.79543 0
M  V30 59298 C 5822.45 4.4383 3.76019 0
M  V30 59299 N 5821.42 3.73678 3.94798 0
M  V30 59300 H 5825.22 2.32201 1.80166 0
M  V30 59301 H 5822.74 1.34229 0.914128 0
M  V30 59302 H 5824.73 1.19582 3.99382 0
M  V30 59303 H 5823.39 0.298052 3.23329 0
M  V30 59304 H 5824.41 3.9947 3.29612 0
M  V30 59305 H 5821.08 1.48606 3.90157 0
M  V30 59306 H 5822.47 5.52687 3.82082 0
M  V30 59307 N 5825.19 -0.947259 1.25955 0
M  V30 59308 C 5826.61 -1.21968 1.02937 0
M  V30 59309 C 5826.81 -1.99952 -0.249263 0
M  V30 59310 O 5825.86 -2.33537 -0.960025 0
M  V30 59311 C 5827.18 -1.98688 2.25707 0
M  V30 59312 C 5828.73 -2.11703 2.30545 0
M  V30 59313 C 5829.2 -2.91823 3.52992 0
M  V30 59314 N 5830.69 -2.99399 3.53433 0
M  V30 59315 C 5831.43 -3.61805 4.44843 0
M  V30 59316 N 5830.92 -4.25761 5.46534 0
M  V30 59317 N 5832.72 -3.59018 4.32508 0
M  V30 59318 H 5824.87 -0.425757 2.08089 0
M  V30 59319 H 5827.13 -0.250867 0.914204 0
M  V30 59320 H 5826.84 -1.4879 3.18676 0
M  V30 59321 H 5826.71 -2.99372 2.29469 0
M  V30 59322 H 5829.1 -2.60795 1.38094 0
M  V30 59323 H 5829.18 -1.103 2.30798 0
M  V30 59324 H 5828.82 -2.43419 4.45769 0
M  V30 59325 H 5828.75 -3.93468 3.49986 0
M  V30 59326 H 5831.24 -2.53924 2.79877 0
M  V30 59327 H 5831.56 -4.71259 6.12482 0
M  V30 59328 H 5829.9 -4.24367 5.50398 0
M  V30 59329 H 5833.09 -3.08242 3.52285 0
M  V30 59330 H 5833.26 -4.07366 5.03941 0
M  V30 59331 N 5826.67 -1.07661 -1.15095 0
M  V30 59332 C 5828.09 -0.802745 -1.37943 0
M  V30 59333 C 5828.29 0.591555 -1.92621 0
M  V30 59334 O 5827.34 1.34972 -2.13398 0
M  V30 59335 C 5828.66 -1.87915 -2.34752 0
M  V30 59336 C 5830.2 -1.90427 -2.48408 0
M  V30 59337 C 5830.68 -2.9716 -3.48511 0
M  V30 59338 N 5832.17 -2.96283 -3.56049 0
M  V30 59339 C 5832.9 -3.75513 -4.33333 0
M  V30 59340 N 5832.4 -4.64601 -5.13924 0
M  V30 59341 N 5834.19 -3.63847 -4.28453 0
M  V30 59342 H 5826.34 -1.97581 -0.779467 0
M  V30 59343 H 5828.61 -0.856992 -0.405301 0
M  V30 59344 H 5828.31 -2.88117 -2.01697 0
M  V30 59345 H 5828.19 -1.74195 -3.34568 0
M  V30 59346 H 5830.57 -0.908753 -2.80759 0
M  V30 59347 H 5830.66 -2.08226 -1.48579 0
M  V30 59348 H 5830.3 -3.96914 -3.16894 0
M  V30 59349 H 5830.23 -2.76608 -4.48102 0
M  V30 59350 H 5832.72 -2.31707 -2.9853 0
M  V30 59351 H 5833.03 -5.2168 -5.70149 0
M  V30 59352 H 5831.38 -4.68648 -5.13219 0
M  V30 59353 H 5834.57 -2.93622 -3.64559 0
M  V30 59354 H 5834.74 -4.25835 -4.88435 0
M  V30 59355 N 5828.15 1.31991 -0.861168 0
M  V30 59356 C 5829.08 2.27631 -0.267761 0
M  V30 59357 C 5830.09 1.52711 0.564211 0
M  V30 59358 O 5831.28 1.7424 0.387639 0
M  V30 59359 C 5828.38 3.32807 0.639739 0
M  V30 59360 C 5827.56 4.37115 -0.157829 0
M  V30 59361 C 5826.61 5.21834 0.67644 0
M  V30 59362 O 5825.64 5.69098 0.107622 0
M  V30 59363 N 5826.84 5.45324 1.99002 0
M  V30 59364 H 5829.61 2.79191 -1.0896 0
M  V30 59365 H 5827.17 1.4492 -0.721784 0
M  V30 59366 H 5829.16 3.86396 1.20335 0
M  V30 59367 H 5827.73 2.81356 1.36226 0
M  V30 59368 H 5826.95 3.83721 -0.902876 0
M  V30 59369 H 5828.24 5.03886 -0.705417 0
M  V30 59370 H 5827.64 5.08665 2.47541 0
M  V30 59371 H 5826.19 6.01883 2.50161 0
M  V30 59372 N 5829.63 0.619739 1.44903 0
M  V30 59373 C 5830.88 0.117218 2.01359 0
M  V30 59374 C 5831.19 -1.26435 1.49243 0
M  V30 59375 O 5832.39 -1.86027 1.97753 0
M  V30 59376 C 5830.85 0.158836 3.59549 0
M  V30 59377 C 5830.46 1.54101 4.20662 0
M  V30 59378 C 5832.2 -0.287812 4.23523 0
M  V30 59379 C 5830.11 1.53836 5.71042 0
M  V30 59380 H 5829.04 0.0400545 0.752935 0
M  V30 59381 H 5831.69 0.77686 1.66244 0
M  V30 59382 H 5830.07 -0.567692 3.9191 0
M  V30 59383 H 5831.25 2.29021 3.99857 0
M  V30 59384 H 5829.56 1.93078 3.68931 0
M  V30 59385 H 5832.16 -0.309164 5.33805 0
M  V30 59386 H 5832.5 -1.31291 3.95055 0
M  V30 59387 H 5833.03 0.385846 3.95924 0
M  V30 59388 H 5829.77 2.54145 6.04227 0
M  V30 59389 H 5829.29 0.831917 5.94003 0
M  V30 59390 H 5830.97 1.2673 6.34467 0
M  V30 59391 N 5831.1 -1.53442 0.359606 0
M  V30 59392 C 5832.38 -1.93468 -0.288038 0
M  V30 59393 C 5832.76 -1.29262 -1.66897 0
M  V30 59394 O 5832.11 -0.44948 -2.24036 0
M  V30 59395 C 5832.32 -3.47298 -0.344237 0
M  V30 59396 C 5833.67 -4.20517 -0.587437 0
M  V30 59397 O 5834.69 -3.53647 -0.425693 0
M  V30 59398 O 5833.55 -5.39006 -0.90193 0
M  V30 59399 H 5830.64 -0.809039 -0.171422 0
M  V30 59400 H 5833.19 -1.64624 0.411954 0
M  V30 59401 H 5831.96 -3.86289 0.6242 0
M  V30 59402 H 5831.59 -3.82357 -1.09037 0
M  V30 59403 N 5832.58 -0.0886195 -1.57351 0
M  V30 59404 C 5834 0.268032 -1.57333 0
M  V30 59405 C 5834.2 1.68872 -1.0993 0
M  V30 59406 O 5833.25 2.40383 -0.772814 0
M  V30 59407 C 5834.57 0.0623597 -3.00635 0
M  V30 59408 C 5836.12 0.130607 -3.12727 0
M  V30 59409 C 5836.59 -0.0469915 -4.57976 0
M  V30 59410 N 5838.08 0.00805809 -4.63199 0
M  V30 59411 C 5838.82 -0.104699 -5.73304 0
M  V30 59412 N 5838.31 -0.271926 -6.92266 0
M  V30 59413 N 5840.11 -0.0464309 -5.62081 0
M  V30 59414 H 5832.26 -1.01692 -1.86474 0
M  V30 59415 H 5834.52 -0.398001 -0.860406 0
M  V30 59416 H 5834.23 -0.918624 -3.39491 0
M  V30 59417 H 5834.1 0.807472 -3.68456 0
M  V30 59418 H 5836.49 1.10209 -2.73748 0
M  V30 59419 H 5836.57 -0.645888 -2.47511 0
M  V30 59420 H 5836.21 -1.01531 -4.97648 0
M  V30 59421 H 5836.14 0.749117 -5.21244 0
M  V30 59422 H 5838.63 0.135031 -3.77659 0
M  V30 59423 H 5838.95 -0.349653 -7.72009 0
M  V30 59424 H 5837.29 -0.307509 -6.94319 0
M  V30 59425 H 5840.48 0.083035 -4.68026 0
M  V30 59426 H 5840.65 -0.137757 -6.47854 0
M  V30 59427 N 5834.06 1.5651 0.185041 0
M  V30 59428 C 5835.31 1.80851 0.902075 0
M  V30 59429 C 5835.63 0.66336 1.8337 0
M  V30 59430 O 5834.9 -0.317686 1.93307 0
M  V30 59431 H 5833.48 0.66712 0.336095 0
M  V30 59432 H 5836.14 1.9399 0.188142 0
M  V30 59433 H 5835.24 2.74388 1.48719 0
M  V30 59434 N 5835.54 -0.453117 1.50946 0
M  V30 59435 C 5836.78 -1.20562 1.63073 0
M  V30 59436 C 5837.12 -1.91228 0.338442 0
M  V30 59437 O 5836.39 -1.82918 -0.661142 0
M  V30 59438 C 5836.68 -2.23512 2.82338 0
M  V30 59439 C 5836.53 -1.57032 4.21498 0
M  V30 59440 C 5837.85 -3.24653 2.97134 0
M  V30 59441 H 5834.97 -0.43695 0.593501 0
M  V30 59442 H 5837.61 -0.496944 1.83386 0
M  V30 59443 H 5835.76 -2.83951 2.65149 0
M  V30 59444 H 5837.43 -1.00051 4.50319 0
M  V30 59445 H 5835.67 -0.872993 4.24925 0
M  V30 59446 H 5836.34 -2.31931 5.00911 0
M  V30 59447 H 5838.82 -2.74253 3.12929 0
M  V30 59448 H 5837.7 -3.93996 3.82175 0
M  V30 59449 H 5837.96 -3.89836 2.0852 0
M  V30 59450 N 5837.02 -1.40826 -0.707518 0
M  V30 59451 C 5838.24 -1.42871 -1.49651 0
M  V30 59452 C 5838.66 -0.0306327 -1.88775 0
M  V30 59453 O 5838.02 0.947321 -1.55987 0
M  V30 59454 C 5838.07 -2.32671 -2.76671 0
M  V30 59455 O 5837.79 -3.67036 -2.39198 0
M  V30 59456 C 5839.29 -2.43393 -3.70506 0
M  V30 59457 H 5836.51 -0.487025 -0.461571 0
M  V30 59458 H 5839.05 -1.84972 -0.872102 0
M  V30 59459 H 5837.21 -1.9391 -3.35377 0
M  V30 59460 H 5837.62 -4.1481 -3.20987 0
M  V30 59461 H 5839.1 -3.10417 -4.56448 0
M  V30 59462 H 5839.57 -1.46147 -4.14171 0
M  V30 59463 H 5840.18 -2.82739 -3.17708 0
M  V30 59464 N 5838.5 0.940566 -1.26456 0
M  V30 59465 C 5839.45 2.0252 -1.04736 0
M  V30 59466 C 5840.43 1.60887 0.0204627 0
M  V30 59467 O 5841.62 1.75905 -0.196563 0
M  V30 59468 C 5838.75 3.36438 -0.682981 0
M  V30 59469 C 5837.84 3.84553 -1.78829 0
M  V30 59470 N 5838.23 4.05312 -3.02581 0
M  V30 59471 C 5836.53 4.13472 -1.67203 0
M  V30 59472 C 5837.23 4.45178 -3.74422 0
M  V30 59473 N 5836.2 4.51916 -3.02113 0
M  V30 59474 H 5840 2.16583 -1.98668 0
M  V30 59475 H 5837.52 1.12645 -1.16982 0
M  V30 59476 H 5839.52 4.13787 -0.508524 0
M  V30 59477 H 5838.18 3.23745 0.248859 0
M  V30 59478 H 5839.19 3.91984 -3.3848 0
M  V30 59479 H 5835.86 4.09565 -0.81013 0
M  V30 59480 H 5837.25 4.69426 -4.80717 0
M  V30 59481 N 5839.97 1.0827 1.14523 0
M  V30 59482 C 5840.9 0.733046 2.21695 0
M  V30 59483 C 5841.88 -0.283858 1.67715 0
M  V30 59484 O 5843.07 -0.154539 1.93584 0
M  V30 59485 C 5840.2 0.140057 3.47017 0
M  V30 59486 C 5839.15 1.08515 4.14015 0
M  V30 59487 C 5838.48 0.354451 5.33524 0
M  V30 59488 C 5839.78 2.4227 4.62712 0
M  V30 59489 H 5841.47 1.62909 2.51199 0
M  V30 59490 H 5839.02 0.784739 1.20739 0
M  V30 59491 H 5840.97 -0.116552 4.21239 0
M  V30 59492 H 5839.7 -0.791117 3.16874 0
M  V30 59493 H 5838.36 1.32684 3.41746 0
M  V30 59494 H 5838 -0.580482 4.99639 0
M  V30 59495 H 5837.7 0.984491 5.79294 0
M  V30 59496 H 5839.23 0.105862 6.10508 0
M  V30 59497 H 5840.64 2.22376 5.28415 0
M  V30 59498 H 5839.04 3.00954 5.19179 0
M  V30 59499 H 5840.11 3.03897 3.77855 0
M  V30 59500 N 5841.45 -1.31533 0.868156 0
M  V30 59501 C 5842.4 -2.30503 0.311662 0
M  V30 59502 C 5843.39 -1.59441 -0.572276 0
M  V30 59503 O 5844.6 -1.74061 -0.458578 0
M  V30 59504 H 5840.97 -0.747505 0.0821008 0
M  V30 59505 H 5842.95 -2.74915 1.16036 0
M  V30 59506 C 5841.69 -3.44461 -0.473501 0
M  V30 59507 H 5841.02 -3.99312 0.197399 0
M  V30 59508 H 5842.46 -4.15832 -0.828247 0
M  V30 59509 C 5840.92 -2.92935 -1.66405 0
M  V30 59510 O 5841.45 -2.91552 -2.76333 0
M  V30 59511 N 5839.65 -2.4916 -1.49559 0
M  V30 59512 H 5839.2 -2.50483 -0.60132 0
M  V30 59513 H 5839.16 -2.1504 -2.29358 0
M  V30 59514 N 5842.93 -0.627415 -1.44573 0
M  V30 59515 C 5844.18 -0.127895 -2.01294 0
M  V30 59516 C 5844.49 1.25642 -1.49912 0
M  V30 59517 O 5845.7 1.84975 -1.98737 0
M  V30 59518 C 5844.15 -0.177901 -3.5946 0
M  V30 59519 C 5843.76 -1.5633 -4.19839 0
M  V30 59520 C 5845.51 0.265348 -4.2367 0
M  V30 59521 C 5843.41 -1.56862 -5.70218 0
M  V30 59522 H 5842.34 -0.0440469 -0.752712 0
M  V30 59523 H 5844.99 -0.785666 -1.6583 0
M  V30 59524 H 5843.38 0.546901 -3.92205 0
M  V30 59525 H 5844.55 -2.31139 -3.98637 0
M  V30 59526 H 5842.86 -1.95031 -3.67902 0
M  V30 59527 H 5845.46 0.28085 -5.33962 0
M  V30 59528 H 5845.8 1.29194 -3.95746 0
M  V30 59529 H 5846.34 -0.406837 -3.95714 0
M  V30 59530 H 5843.08 -2.57346 -6.02871 0
M  V30 59531 H 5842.6 -0.863407 -5.93553 0
M  V30 59532 H 5844.28 -1.30093 -6.33786 0
M  V30 59533 N 5844.41 1.5325 -0.367738 0
M  V30 59534 C 5845.63 2.06181 0.224573 0
M  V30 59535 C 5846.06 1.23932 1.41501 0
M  V30 59536 O 5845.42 0.258921 1.79442 0
M  V30 59537 C 5845.46 3.55673 0.594046 0
M  V30 59538 O 5844.57 3.76138 1.69099 0
M  V30 59539 H 5843.91 0.663219 0.0321865 0
M  V30 59540 H 5846.44 1.97644 -0.528966 0
M  V30 59541 H 5846.45 3.98737 0.864448 0
M  V30 59542 H 5845.12 4.14981 -0.2764 0
M  V30 59543 H 5843.7 3.4497 1.41597 0
M  V30 59544 N 5845.89 0.096963 1.57301 0
M  V30 59545 C 5847.13 -0.565186 1.94036 0
M  V30 59546 C 5847.45 -1.68605 0.979659 0
M  V30 59547 O 5846.72 -1.95874 0.0320477 0
M  V30 59548 H 5845.3 -0.211771 0.716353 0
M  V30 59549 H 5847.97 0.160734 1.94236 0
M  V30 59550 H 5847.06 -0.974164 2.96507 0
M  V30 59551 N 5847.36 -1.56606 -0.176738 0
M  V30 59552 C 5848.29 -1.99018 -1.22123 0
M  V30 59553 C 5849.27 -0.864921 -1.46469 0
M  V30 59554 O 5850.46 -1.13061 -1.57895 0
M  V30 59555 C 5847.59 -2.34543 -2.56138 0
M  V30 59556 C 5846.54 -3.49979 -2.46372 0
M  V30 59557 C 5845.87 -3.7123 -3.84827 0
M  V30 59558 C 5847.17 -4.83599 -1.97306 0
M  V30 59559 H 5848.86 -2.8652 -0.868699 0
M  V30 59560 H 5846.41 -1.37847 -0.416433 0
M  V30 59561 H 5848.36 -2.6281 -3.29407 0
M  V30 59562 H 5847.09 -1.43944 -2.93168 0
M  V30 59563 H 5845.75 -3.21831 -1.75558 0
M  V30 59564 H 5845.39 -2.77931 -4.19242 0
M  V30 59565 H 5845.09 -4.48898 -3.79162 0
M  V30 59566 H 5846.62 -4.01893 -4.5969 0
M  V30 59567 H 5848.03 -5.10777 -2.60345 0
M  V30 59568 H 5846.43 -5.64865 -2.02602 0
M  V30 59569 H 5847.5 -4.75955 -0.927107 0
M  V30 59570 N 5848.84 0.445106 -1.51184 0
M  V30 59571 C 5849.79 1.53969 -1.71936 0
M  V30 59572 C 5850.76 1.56342 -0.56092 0
M  V30 59573 O 5851.94 1.73473 -0.794475 0
M  V30 59574 C 5849.08 2.91749 -1.84327 0
M  V30 59575 C 5848.2 2.98965 -3.11839 0
M  V30 59576 C 5847.33 4.2782 -3.1487 0
M  V30 59577 C 5846.37 4.28875 -4.3673 0
M  V30 59578 N 5845.51 5.49241 -4.37354 0
M  V30 59579 H 5850.35 1.35577 -2.65373 0
M  V30 59580 H 5847.88 0.658741 -1.31526 0
M  V30 59581 H 5849.84 3.71684 -1.89492 0
M  V30 59582 H 5848.47 3.08717 -0.943055 0
M  V30 59583 H 5847.52 2.11742 -3.16021 0
M  V30 59584 H 5848.84 2.95605 -4.0177 0
M  V30 59585 H 5847.99 5.16122 -3.18909 0
M  V30 59586 H 5846.73 4.33826 -2.22815 0
M  V30 59587 H 5845.73 3.38966 -4.32876 0
M  V30 59588 H 5846.96 4.24539 -5.30041 0
M  V30 59589 H 5844.91 5.55983 -3.48165 0
M  V30 59590 H 5844.82 5.4773 -5.21084 0
M  V30 59591 H 5846.09 6.39597 -4.45574 0
M  V30 59592 N 5850.32 1.41199 0.70004 0
M  V30 59593 C 5851.25 1.37108 1.82419 0
M  V30 59594 C 5852.23 0.239013 1.60834 0
M  V30 59595 O 5853.41 0.425201 1.83642 0
M  V30 59596 C 5850.54 1.13759 3.19024 0
M  V30 59597 C 5849.59 2.29625 3.59409 0
M  V30 59598 S 5850.42 3.92087 3.6473 0
M  V30 59599 C 5851.58 3.71032 5.04069 0
M  V30 59600 H 5851.81 2.3224 1.85612 0
M  V30 59601 H 5849.34 1.2767 0.868323 0
M  V30 59602 H 5851.3 1.00974 3.97888 0
M  V30 59603 H 5849.96 0.202545 3.13446 0
M  V30 59604 H 5849.15 2.0897 4.58637 0
M  V30 59605 H 5848.76 2.38794 2.87843 0
M  V30 59606 H 5851.05 3.30462 5.9144 0
M  V30 59607 H 5851.99 4.69846 5.29764 0
M  V30 59608 H 5852.4 3.04398 4.75397 0
M  V30 59609 N 5851.8 -0.933846 1.26953 0
M  V30 59610 C 5853.21 -1.49574 1.11734 0
M  V30 59611 C 5853.56 -1.93896 -0.29982 0
M  V30 59612 O 5852.68 -1.80604 -1.1921 0
M  V30 59613 C 5853.28 -2.71834 2.02217 0
M  V30 59614 C 5851.84 -3.24268 1.91122 0
M  V30 59615 C 5850.99 -1.97022 1.95135 0
M  V30 59616 H 5853.94 -0.748579 1.39936 0
M  V30 59617 H 5853.96 -3.46401 1.57437 0
M  V30 59618 H 5853.47 -2.39545 3.05352 0
M  V30 59619 H 5851.57 -3.61329 0.909494 0
M  V30 59620 H 5851.68 -3.90877 2.77041 0
M  V30 59621 H 5850.05 -2.13244 1.3928 0
M  V30 59622 H 5850.83 -1.67055 2.99913 0
M  V30 59623 N 5853.28 -1.08875 -1.13947 0
M  V30 59624 C 5854.69 -0.81733 -1.37083 0
M  V30 59625 C 5854.89 0.571091 -1.93238 0
M  V30 59626 O 5853.95 1.32701 -2.14818 0
M  V30 59627 C 5855.26 -1.90394 -2.32746 0
M  V30 59628 C 5856.81 -1.93051 -2.46374 0
M  V30 59629 C 5857.28 -3.0084 -3.45339 0
M  V30 59630 N 5858.78 -3.00043 -3.52886 0
M  V30 59631 C 5859.51 -3.80088 -4.29326 0
M  V30 59632 N 5859.01 -4.70026 -5.08967 0
M  V30 59633 N 5860.8 -3.6837 -4.2457 0
M  V30 59634 H 5852.95 -1.98396 -0.758467 0
M  V30 59635 H 5855.21 -0.861243 -0.396188 0
M  V30 59636 H 5854.92 -2.9024 -1.9863 0
M  V30 59637 H 5854.79 -1.77734 -3.32702 0
M  V30 59638 H 5857.18 -0.93848 -2.79779 0
M  V30 59639 H 5857.26 -2.0979 -1.46362 0
M  V30 59640 H 5856.91 -4.00253 -3.12666 0
M  V30 59641 H 5856.84 -2.81346 -4.45143 0
M  V30 59642 H 5859.33 -2.34861 -2.96056 0
M  V30 59643 H 5859.64 -5.27698 -5.64584 0
M  V30 59644 H 5857.98 -4.74065 -5.0822 0
M  V30 59645 H 5861.18 -2.97472 -3.61425 0
M  V30 59646 H 5861.35 -4.30992 -4.83891 0
M  V30 59647 N 5854.75 1.3107 -0.875119 0
M  V30 59648 C 5856 1.96128 -0.487653 0
M  V30 59649 C 5856.32 1.69486 0.964347 0
M  V30 59650 O 5855.59 1.01306 1.67672 0
M  V30 59651 H 5854.17 0.725643 -0.177345 0
M  V30 59652 H 5856.84 1.59783 -1.11604 0
M  V30 59653 H 5855.93 3.05263 -0.649681 0
M  V30 59654 N 5856.23 0.635073 1.44238 0
M  V30 59655 C 5857.48 0.138568 2.01223 0
M  V30 59656 C 5857.79 -1.24845 1.50576 0
M  V30 59657 O 5859 -1.83919 1.99715 0
M  V30 59658 C 5857.46 0.196962 3.59361 0
M  V30 59659 C 5857.06 1.58554 4.19004 0
M  V30 59660 C 5858.81 -0.242876 4.23805 0
M  V30 59661 C 5856.72 1.59884 5.69378 0
M  V30 59662 H 5855.65 0.0480381 0.752468 0
M  V30 59663 H 5858.3 0.794449 1.65411 0
M  V30 59664 H 5856.68 -0.526093 3.9249 0
M  V30 59665 H 5857.85 2.3325 3.97406 0
M  V30 59666 H 5856.17 1.9698 3.66862 0
M  V30 59667 H 5858.76 -0.252529 5.34103 0
M  V30 59668 H 5859.11 -1.27093 3.96425 0
M  V30 59669 H 5859.64 0.427817 3.95493 0
M  V30 59670 H 5856.38 2.60539 6.01498 0
M  V30 59671 H 5855.9 0.894872 5.93087 0
M  V30 59672 H 5857.58 1.33452 6.33087 0
M  V30 59673 N 5857.71 -1.53052 0.37586 0
M  V30 59674 C 5858.67 -2.24668 -0.453529 0
M  V30 59675 C 5859.67 -1.2582 -1.0013 0
M  V30 59676 O 5860.86 -1.50019 -0.885428 0
M  V30 59677 C 5858 -2.99137 -1.63493 0
M  V30 59678 H 5859.19 -2.99399 0.173277 0
M  V30 59679 H 5856.74 -1.55777 0.127727 0
M  V30 59680 H 5857.48 -2.28674 -2.29954 0
M  V30 59681 H 5857.26 -3.71675 -1.249 0
M  V30 59682 H 5858.75 -3.5355 -2.22244 0
M  V30 59683 N 5859.19 -0.105304 -1.57248 0
M  V30 59684 C 5860.44 0.555729 -1.93893 0
M  V30 59685 C 5860.75 1.68699 -0.989942 0
M  V30 59686 O 5861.96 2.40987 -1.25051 0
M  V30 59687 C 5860.41 1.03994 -3.44548 0
M  V30 59688 C 5860.02 -0.0621216 -4.47957 0
M  V30 59689 C 5861.76 1.67313 -3.90137 0
M  V30 59690 C 5859.67 0.438022 -5.89776 0
M  V30 59691 H 5858.6 0.211365 -0.723768 0
M  V30 59692 H 5861.25 -0.182951 -1.82586 0
M  V30 59693 H 5859.63 1.83262 -3.51043 0
M  V30 59694 H 5860.81 -0.837962 -4.53117 0
M  V30 59695 H 5859.12 -0.601118 -4.12038 0
M  V30 59696 H 5861.72 2.05823 -4.93499 0
M  V30 59697 H 5862.06 2.54626 -3.2935 0
M  V30 59698 H 5862.6 0.946095 -3.86386 0
M  V30 59699 H 5859.34 -0.398736 -6.54286 0
M  V30 59700 H 5858.86 1.18064 -5.88065 0
M  V30 59701 H 5860.53 0.903697 -6.40658 0
M  V30 59702 N 5860.67 1.56697 0.168431 0
M  V30 59703 C 5861.94 1.73035 0.912036 0
M  V30 59704 C 5862.32 0.667495 2.00269 0
M  V30 59705 O 5861.67 -0.317228 2.26287 0
M  V30 59706 C 5861.88 3.16339 1.47413 0
M  V30 59707 C 5863.23 3.77384 1.94592 0
M  V30 59708 O 5864.25 3.19635 1.57201 0
M  V30 59709 O 5863.11 4.7879 2.6348 0
M  V30 59710 H 5860.21 0.706728 0.429493 0
M  V30 59711 H 5862.75 1.68981 0.156034 0
M  V30 59712 H 5861.52 3.85181 0.689286 0
M  V30 59713 H 5861.15 3.24732 2.29424 0
M  V30 59714 N 5862.14 -0.437082 1.51418 0
M  V30 59715 C 5863.39 -1.18517 1.65304 0
M  V30 59716 C 5863.75 -1.88909 0.36483 0
M  V30 59717 O 5863.04 -1.80617 -0.639366 0
M  V30 59718 C 5863.23 -2.22786 2.79466 0
M  V30 59719 C 5863.06 -1.62627 4.19264 0
M  V30 59720 C 5861.83 -1.41109 4.85197 0
M  V30 59721 C 5864.03 -1.10237 5.02347 0
M  V30 59722 N 5862.01 -0.765503 6.09109 0
M  V30 59723 C 5863.38 -0.582068 6.17262 0
M  V30 59724 C 5865.44 -0.994154 4.87874 0
M  V30 59725 C 5864.14 0.0358176 7.19291 0
M  V30 59726 C 5866.17 -0.390161 5.90112 0
M  V30 59727 C 5865.53 0.119598 7.04298 0
M  V30 59728 H 5861.63 -0.421347 0.65878 0
M  V30 59729 H 5864.21 -0.481734 1.88646 0
M  V30 59730 H 5862.38 -2.90517 2.57787 0
M  V30 59731 H 5864.11 -2.89755 2.82531 0
M  V30 59732 H 5860.87 -1.67289 4.4307 0
M  V30 59733 H 5861.29 -0.460144 6.75434 0
M  V30 59734 H 5865.94 -1.37413 3.99847 0
M  V30 59735 H 5863.65 0.427927 8.06966 0
M  V30 59736 H 5867.24 -0.308329 5.80982 0
M  V30 59737 H 5866.12 0.579618 7.82055 0
M  V30 59738 N 5863.62 -1.41568 -0.692542 0
M  V30 59739 C 5864.87 -1.41297 -1.45475 0
M  V30 59740 C 5865.2 -0.0229776 -1.94186 0
M  V30 59741 O 5864.48 0.94979 -1.69733 0
M  V30 59742 C 5864.76 -2.42234 -2.66448 0
M  V30 59743 C 5864.61 -3.90353 -2.23483 0
M  V30 59744 C 5865.93 -2.40387 -3.68649 0
M  V30 59745 H 5863.05 -0.514548 -0.527645 0
M  V30 59746 H 5865.69 -1.72864 -0.788537 0
M  V30 59747 H 5863.84 -2.15446 -3.23288 0
M  V30 59748 H 5865.51 -4.28056 -1.71947 0
M  V30 59749 H 5863.76 -4.05073 -1.55235 0
M  V30 59750 H 5864.43 -4.56529 -3.10298 0
M  V30 59751 H 5866.9 -2.64167 -3.21489 0
M  V30 59752 H 5865.78 -3.1302 -4.50899 0
M  V30 59753 H 5866.04 -1.42352 -4.18555 0
M  V30 59754 N 5865.1 0.927101 -1.27446 0
M  V30 59755 C 5866.06 2.00934 -1.10264 0
M  V30 59756 C 5867.06 1.60733 -0.0464463 0
M  V30 59757 O 5868.25 1.71751 -0.29109 0
M  V30 59758 C 5865.39 3.34044 -0.680232 0
M  V30 59759 H 5866.58 2.17608 -2.06366 0
M  V30 59760 H 5864.13 1.10798 -1.10243 0
M  V30 59761 H 5864.87 3.2307 0.282145 0
M  V30 59762 H 5864.65 3.6458 -1.44304 0
M  V30 59763 H 5866.14 4.13521 -0.582271 0
M  V30 59764 N 5866.58 1.09478 1.13368 0
M  V30 59765 C 5867.83 0.829515 1.84292 0
M  V30 59766 C 5868.15 -0.646723 1.83963 0
M  V30 59767 O 5867.42 -1.46924 1.29577 0
M  V30 59768 H 5866 0.303877 0.682398 0
M  V30 59769 H 5868.66 1.38303 1.37325 0
M  V30 59770 H 5867.76 1.18352 2.88789 0
M  V30 59771 N 5868.06 -1.30604 0.882058 0
M  V30 59772 C 5869.01 -2.30159 0.336092 0
M  V30 59773 C 5870 -1.60039 -0.555333 0
M  V30 59774 O 5871.21 -1.74537 -0.440091 0
M  V30 59775 H 5867.58 -0.746592 0.0900244 0
M  V30 59776 H 5869.55 -2.73669 1.18945 0
M  V30 59777 C 5868.3 -3.44944 -0.43694 0
M  V30 59778 H 5867.62 -3.99081 0.239741 0
M  V30 59779 H 5869.06 -4.16687 -0.784096 0
M  V30 59780 C 5867.52 -2.94683 -1.63289 0
M  V30 59781 O 5868.05 -2.94467 -2.73226 0
M  V30 59782 N 5866.26 -2.50732 -1.46908 0
M  V30 59783 H 5865.81 -2.51107 -0.574719 0
M  V30 59784 H 5865.76 -2.17461 -2.27064 0
M  V30 59785 N 5869.54 -0.642713 -1.43899 0
M  V30 59786 C 5870.78 -0.152074 -2.02229 0
M  V30 59787 C 5871.11 1.22706 -1.50522 0
M  V30 59788 O 5870.39 1.81697 -0.694001 0
M  V30 59789 C 5870.67 -0.151404 -3.59782 0
M  V30 59790 C 5870.53 -1.5637 -4.21744 0
M  V30 59791 C 5871.84 0.517862 -4.37043 0
M  V30 59792 H 5868.96 -0.0567352 -0.734813 0
M  V30 59793 H 5871.61 -0.821397 -1.71327 0
M  V30 59794 H 5869.76 0.418543 -3.86239 0
M  V30 59795 H 5871.43 -2.18343 -4.06354 0
M  V30 59796 H 5869.67 -2.11414 -3.78796 0
M  V30 59797 H 5870.34 -1.51518 -5.30798 0
M  V30 59798 H 5872.82 0.0330484 -4.16087 0
M  V30 59799 H 5871.69 0.487562 -5.4673 0
M  V30 59800 H 5871.95 1.59022 -4.1251 0
M  V30 59801 N 5871.01 1.52851 -0.383971 0
M  V30 59802 C 5872.24 2.05631 0.199854 0
M  V30 59803 C 5872.65 1.25594 1.41502 0
M  V30 59804 O 5871.99 0.294318 1.81327 0
M  V30 59805 C 5872.06 3.53763 0.639671 0
M  V30 59806 C 5871.72 4.54666 -0.461303 0
M  V30 59807 C 5872.72 5.02942 -1.31703 0
M  V30 59808 C 5870.4 4.98374 -0.626808 0
M  V30 59809 C 5872.4 5.93545 -2.32343 0
M  V30 59810 C 5870.08 5.88778 -1.63655 0
M  V30 59811 C 5871.08 6.36256 -2.48329 0
M  V30 59812 O 5870.77 7.24876 -3.47578 0
M  V30 59813 H 5870.5 0.67509 0.0350593 0
M  V30 59814 H 5873.06 1.98007 -0.546112 0
M  V30 59815 H 5871.29 3.58987 1.43753 0
M  V30 59816 H 5872.97 3.89311 1.14856 0
M  V30 59817 H 5873.74 4.69909 -1.20044 0
M  V30 59818 H 5869.62 4.60994 0.0225252 0
M  V30 59819 H 5873.16 6.30525 -2.98469 0
M  V30 59820 H 5869.06 6.21226 -1.75354 0
M  V30 59821 H 5869.83 7.42922 -3.43524 0
M  V30 59822 N 5872.49 0.113641 1.5719 0
M  V30 59823 C 5873.74 -0.540238 1.96094 0
M  V30 59824 C 5874.09 -1.64629 0.995735 0
M  V30 59825 O 5873.39 -1.91584 0.0248431 0
M  V30 59826 C 5873.58 -1.12368 3.39276 0
M  V30 59827 C 5873.41 -0.0756803 4.49636 0
M  V30 59828 C 5872.18 0.354279 5.04056 0
M  V30 59829 C 5874.38 0.703256 5.09469 0
M  V30 59830 N 5872.36 1.38861 5.97989 0
M  V30 59831 C 5873.73 1.58893 5.99294 0
M  V30 59832 C 5875.78 0.754735 4.92146 0
M  V30 59833 C 5874.49 2.52159 6.73653 0
M  V30 59834 C 5876.51 1.67508 5.67182 0
M  V30 59835 C 5875.88 2.54834 6.56688 0
M  V30 59836 H 5871.97 -0.167472 0.763857 0
M  V30 59837 H 5874.56 0.200516 1.93665 0
M  V30 59838 H 5872.73 -1.83418 3.42363 0
M  V30 59839 H 5874.46 -1.74144 3.65316 0
M  V30 59840 H 5871.22 -0.0370818 4.73585 0
M  V30 59841 H 5871.64 1.90454 6.49659 0
M  V30 59842 H 5876.28 0.0937277 4.22696 0
M  V30 59843 H 5874 3.19275 7.42354 0
M  V30 59844 H 5877.59 1.72028 5.55786 0
M  V30 59845 H 5876.47 3.24892 7.13733 0
M  V30 59846 N 5873.97 -1.56785 -0.160118 0
M  V30 59847 C 5875.2 -1.8677 -0.890194 0
M  V30 59848 C 5875.61 -0.700338 -1.7533 0
M  V30 59849 O 5874.97 0.330278 -1.79487 0
M  V30 59850 C 5875.02 -3.15889 -1.75773 0
M  V30 59851 O 5874.74 -4.28128 -0.929425 0
M  V30 59852 C 5876.24 -3.59299 -2.59652 0
M  V30 59853 H 5873.46 -0.619389 -0.258066 0
M  V30 59854 H 5876.01 -2.03898 -0.156848 0
M  V30 59855 H 5874.16 -3.00555 -2.44429 0
M  V30 59856 H 5874.58 -5.01877 -1.52379 0
M  V30 59857 H 5876.05 -4.52517 -3.1612 0
M  V30 59858 H 5876.53 -2.83955 -3.35062 0
M  V30 59859 H 5877.13 -3.77283 -1.96309 0
M  V30 59860 N 5875.45 0.429046 -1.51647 0
M  V30 59861 C 5876.72 1.18952 -1.55273 0
M  V30 59862 C 5877.1 2.08631 -0.321889 0
M  V30 59863 O 5876.45 2.17753 0.692533 0
M  V30 59864 C 5876.66 1.98417 -2.87109 0
M  V30 59865 C 5878.01 2.55173 -3.3937 0
M  V30 59866 O 5879.03 2.08619 -2.88716 0
M  V30 59867 O 5877.89 3.40104 -4.27775 0
M  V30 59868 H 5874.99 0.542019 -0.624615 0
M  V30 59869 H 5877.53 0.437442 -1.63965 0
M  V30 59870 H 5876.31 1.326 -3.68148 0
M  V30 59871 H 5875.93 2.80673 -2.81618 0
M  V30 59872 N 5876.93 1.41934 0.685024 0
M  V30 59873 C 5878.15 1.45437 1.47861 0
M  V30 59874 C 5878.58 0.0641963 1.8799 0
M  V30 59875 O 5877.93 -0.935026 1.55329 0
M  V30 59876 C 5877.98 2.37811 2.71069 0
M  V30 59877 O 5877.09 1.84242 3.68956 0
M  V30 59878 H 5876.43 0.493171 0.44461 0
M  V30 59879 H 5878.96 1.86511 0.841111 0
M  V30 59880 H 5878.97 2.54045 3.19257 0
M  V30 59881 H 5877.64 3.38815 2.41199 0
M  V30 59882 H 5876.22 1.77512 3.27939 0
M  V30 59883 N 5878.4 -0.920329 1.27936 0
M  V30 59884 C 5879.65 -1.6655 1.1448 0
M  V30 59885 C 5879.97 -1.92546 -0.308376 0
M  V30 59886 O 5879.24 -1.53696 -1.21468 0
M  V30 59887 H 5877.82 -0.617287 0.420672 0
M  V30 59888 H 5880.48 -1.10467 1.60571 0
M  V30 59889 H 5879.58 -2.63061 1.67944 0
M  V30 59890 N 5879.88 -1.10078 -1.12786 0
M  V30 59891 C 5881.3 -0.831824 -1.36209 0
M  V30 59892 C 5881.5 0.550564 -1.93833 0
M  V30 59893 O 5880.55 1.30415 -2.16213 0
M  V30 59894 C 5881.87 -1.92852 -2.30713 0
M  V30 59895 C 5883.41 -1.95653 -2.44313 0
M  V30 59896 C 5883.89 -3.04486 -3.42129 0
M  V30 59897 N 5885.38 -3.03769 -3.49684 0
M  V30 59898 C 5886.12 -3.8462 -4.2527 0
M  V30 59899 N 5885.61 -4.75397 -5.03954 0
M  V30 59900 N 5887.4 -3.72853 -4.20639 0
M  V30 59901 H 5879.56 -1.99189 -0.737382 0
M  V30 59902 H 5881.82 -0.865396 -0.387031 0
M  V30 59903 H 5881.52 -2.9233 -1.9554 0
M  V30 59904 H 5881.4 -1.81252 -3.30798 0
M  V30 59905 H 5883.79 -0.968102 -2.78768 0
M  V30 59906 H 5883.87 -2.1133 -1.44129 0
M  V30 59907 H 5883.51 -4.03546 -3.08404 0
M  V30 59908 H 5883.44 -2.86051 -4.42134 0
M  V30 59909 H 5885.93 -2.37987 -2.93548 0
M  V30 59910 H 5886.24 -5.33656 -5.58955 0
M  V30 59911 H 5884.59 -4.79429 -5.03163 0
M  V30 59912 H 5887.78 -3.01289 -3.58249 0
M  V30 59913 H 5887.95 -4.361 -4.79292 0
M  V30 59914 N 5881.36 1.30135 -0.888972 0
M  V30 59915 C 5882.64 1.9083 -0.429347 0
M  V30 59916 C 5883.02 1.80769 1.09022 0
M  V30 59917 O 5882.36 1.22748 1.92731 0
M  V30 59918 C 5882.57 3.36328 -0.931917 0
M  V30 59919 C 5883.92 4.13389 -0.969251 0
M  V30 59920 O 5884.95 3.45188 -0.878852 0
M  V30 59921 O 5883.81 5.35245 -1.10342 0
M  V30 59922 H 5880.9 0.816397 -0.132005 0
M  V30 59923 H 5883.45 1.38675 -0.978134 0
M  V30 59924 H 5882.22 3.37754 -1.9758 0
M  V30 59925 H 5881.84 3.95944 -0.362522 0
M  V30 59926 N 5882.84 0.650335 1.43556 0
M  V30 59927 C 5884.08 0.162796 2.02146 0
M  V30 59928 C 5884.42 -1.21906 1.51171 0
M  V30 59929 O 5883.69 -1.81327 0.703627 0
M  V30 59930 C 5883.98 0.170482 3.59696 0
M  V30 59931 C 5883.83 1.58605 4.20909 0
M  V30 59932 C 5885.15 -0.494678 4.37311 0
M  V30 59933 H 5882.27 0.0606313 0.734502 0
M  V30 59934 H 5884.91 0.830471 1.70889 0
M  V30 59935 H 5883.06 -0.398054 3.86455 0
M  V30 59936 H 5884.73 2.20495 4.05191 0
M  V30 59937 H 5882.97 2.1342 3.77669 0
M  V30 59938 H 5883.64 1.5433 5.29987 0
M  V30 59939 H 5886.12 -0.0109819 4.16099 0
M  V30 59940 H 5885 -0.458561 5.46981 0
M  V30 59941 H 5885.26 -1.56832 4.13348 0
M  V30 59942 N 5884.32 -1.52645 0.392072 0
M  V30 59943 C 5885.57 -2.00798 -0.190489 0
M  V30 59944 C 5885.88 -1.2827 -1.47669 0
M  V30 59945 O 5887.08 -1.6715 -2.13947 0
M  V30 59946 C 5885.54 -3.5778 -0.390022 0
M  V30 59947 C 5885.15 -4.3921 0.883087 0
M  V30 59948 C 5886.89 -4.14214 -0.928799 0
M  V30 59949 C 5884.8 -5.87799 0.651681 0
M  V30 59950 H 5883.73 -0.750264 -0.0749615 0
M  V30 59951 H 5886.38 -1.76128 0.514897 0
M  V30 59952 H 5884.76 -3.78711 -1.15733 0
M  V30 59953 H 5885.94 -4.30045 1.65522 0
M  V30 59954 H 5884.25 -3.94011 1.34702 0
M  V30 59955 H 5886.85 -5.22888 -1.11768 0
M  V30 59956 H 5887.19 -3.70482 -1.89865 0
M  V30 59957 H 5887.72 -3.97186 -0.220995 0
M  V30 59958 H 5884.46 -6.35859 1.59261 0
M  V30 59959 H 5883.98 -5.99745 -0.0814678 0
M  V30 59960 H 5885.66 -6.46362 0.287284 0
M  V30 59961 N 5885.79 -0.121976 -1.57127 0
M  V30 59962 C 5886.7 0.840748 -2.19017 0
M  V30 59963 C 5887.72 1.29047 -1.16717 0
M  V30 59964 O 5888.9 1.35284 -1.49198 0
M  V30 59965 C 5885.96 2.07194 -2.77978 0
M  V30 59966 C 5885.02 1.67385 -3.95323 0
M  V30 59967 C 5884.26 2.84636 -4.51462 0
M  V30 59968 O 5884.48 4.00146 -4.06496 0
M  V30 59969 O 5883.41 2.61549 -5.42103 0
M  V30 59970 H 5887.24 0.34404 -3.01745 0
M  V30 59971 H 5884.82 0.103789 -1.49039 0
M  V30 59972 H 5886.71 2.79296 -3.1555 0
M  V30 59973 H 5885.38 2.55865 -1.98279 0
M  V30 59974 H 5884.29 0.923822 -3.62514 0
M  V30 59975 H 5885.62 1.23453 -4.76466 0
M  V30 59976 N 5887.27 1.56867 0.151801 0
M  V30 59977 C 5888.52 1.83356 0.866502 0
M  V30 59978 C 5888.85 0.702848 1.81035 0
M  V30 59979 O 5888.13 -0.293876 1.92267 0
M  V30 59980 C 5888.41 3.20322 1.64518 0
M  V30 59981 C 5888.26 4.43949 0.723141 0
M  V30 59982 C 5889.58 3.5445 2.6087 0
M  V30 59983 H 5886.7 0.666968 0.313564 0
M  V30 59984 H 5889.34 1.89542 0.131887 0
M  V30 59985 H 5887.49 3.1518 2.27143 0
M  V30 59986 H 5889.16 4.61173 0.108258 0
M  V30 59987 H 5887.41 4.33788 0.0324057 0
M  V30 59988 H 5888.08 5.36379 1.30391 0
M  V30 59989 H 5890.55 3.60172 2.08364 0
M  V30 59990 H 5889.43 4.51325 3.12406 0
M  V30 59991 H 5889.69 2.80158 3.41999 0
M  V30 59992 N 5888.75 -0.420997 1.51873 0
M  V30 59993 C 5889.71 -1.49472 1.73755 0
M  V30 59994 C 5890.71 -1.48885 0.607448 0
M  V30 59995 O 5891.9 -1.50619 0.875196 0
M  V30 59996 C 5889.04 -2.88941 1.80903 0
M  V30 59997 H 5890.23 -1.31367 2.69597 0
M  V30 59998 H 5887.78 -0.650736 1.4211 0
M  V30 59999 H 5888.52 -3.12431 0.86933 0
M  V30 60000 H 5888.3 -2.90771 2.63048 0
M  V30 60001 H 5889.79 -3.66802 1.99615 0
M  V30 60002 N 5890.23 -1.42295 -0.677488 0
M  V30 60003 C 5891.16 -1.41509 -1.80299 0
M  V30 60004 C 5892.17 -0.314555 -1.59732 0
M  V30 60005 O 5893.36 -0.577469 -1.68901 0
M  V30 60006 C 5890.46 -1.1889 -3.17361 0
M  V30 60007 C 5889.64 -2.41327 -3.64801 0
M  V30 60008 C 5888.69 -2.14294 -4.80588 0
M  V30 60009 O 5887.72 -2.87474 -4.91271 0
M  V30 60010 N 5888.92 -1.14439 -5.69108 0
M  V30 60011 H 5891.69 -2.38521 -1.8146 0
M  V30 60012 H 5889.25 -1.3714 -0.860481 0
M  V30 60013 H 5891.24 -0.987273 -3.92473 0
M  V30 60014 H 5889.81 -0.304112 -3.11117 0
M  V30 60015 H 5889.03 -2.77075 -2.80398 0
M  V30 60016 H 5890.32 -3.22864 -3.93238 0
M  V30 60017 H 5889.72 -0.539078 -5.63126 0
M  V30 60018 H 5888.27 -1.00263 -6.44042 0
M  V30 60019 N 5891.71 0.913531 -1.28423 0
M  V30 60020 C 5892.64 2.01724 -1.0669 0
M  V30 60021 C 5893.62 1.62591 0.0170807 0
M  V30 60022 O 5894.8 1.88045 -0.130893 0
M  V30 60023 C 5891.93 3.32952 -0.621346 0
M  V30 60024 C 5890.97 3.91068 -1.702 0
M  V30 60025 S 5891.81 4.21891 -3.29801 0
M  V30 60026 C 5892.96 5.5618 -2.8708 0
M  V30 60027 H 5893.2 2.19848 -2.00135 0
M  V30 60028 H 5890.73 1.05842 -1.12413 0
M  V30 60029 H 5892.69 4.0882 -0.370975 0
M  V30 60030 H 5891.35 3.12728 0.293271 0
M  V30 60031 H 5890.54 4.85808 -1.34187 0
M  V30 60032 H 5890.14 3.21837 -1.90518 0
M  V30 60033 H 5892.44 6.36077 -2.33264 0
M  V30 60034 H 5893.38 5.97105 -3.80619 0
M  V30 60035 H 5893.79 5.17378 -2.25789 0
M  V30 60036 N 5893.18 1.10674 1.122 0
M  V30 60037 C 5894.13 0.757821 2.18004 0
M  V30 60038 C 5895.1 -0.267003 1.6394 0
M  V30 60039 O 5896.29 -0.145722 1.90243 0
M  V30 60040 C 5893.43 0.1985 3.44529 0
M  V30 60041 C 5892.54 1.27892 4.12635 0
M  V30 60042 C 5891.67 0.680986 5.26817 0
M  V30 60043 C 5890.71 1.74181 5.86794 0
M  V30 60044 N 5889.85 1.16396 6.92385 0
M  V30 60045 H 5894.69 1.66427 2.47197 0
M  V30 60046 H 5892.23 0.831258 1.21361 0
M  V30 60047 H 5894.19 -0.143691 4.16952 0
M  V30 60048 H 5892.82 -0.671168 3.15745 0
M  V30 60049 H 5891.87 1.7382 3.38365 0
M  V30 60050 H 5893.18 2.08185 4.53277 0
M  V30 60051 H 5892.33 0.288385 6.06014 0
M  V30 60052 H 5891.07 -0.15335 4.87459 0
M  V30 60053 H 5890.08 2.14381 5.06281 0
M  V30 60054 H 5891.3 2.57904 6.28222 0
M  V30 60055 H 5889.25 0.351129 6.5506 0
M  V30 60056 H 5889.17 1.90369 7.31639 0
M  V30 60057 H 5890.43 0.797988 7.75405 0
M  V30 60058 N 5894.66 -1.29661 0.89586 0
M  V30 60059 C 5895.91 -1.95328 0.518794 0
M  V30 60060 C 5896.23 -1.70998 -0.937262 0
M  V30 60061 O 5895.5 -1.0396 -1.66039 0
M  V30 60062 H 5894.08 -0.72273 0.188867 0
M  V30 60063 H 5896.74 -1.57987 1.14131 0
M  V30 60064 H 5895.84 -3.04191 0.698164 0
M  V30 60065 N 5896.14 -0.657939 -1.43209 0
M  V30 60066 C 5897.05 0.0312853 -2.34579 0
M  V30 60067 C 5898.07 0.807099 -1.54149 0
M  V30 60068 O 5899.24 0.753269 -1.86783 0
M  V30 60069 C 5896.31 0.982542 -3.32486 0
M  V30 60070 C 5895.37 0.203137 -4.28819 0
M  V30 60071 C 5894.6 1.10908 -5.22049 0
M  V30 60072 O 5894.82 2.34843 -5.19813 0
M  V30 60073 O 5893.76 0.57895 -5.99109 0
M  V30 60074 H 5897.58 -0.720912 -2.9502 0
M  V30 60075 H 5895.17 -0.418133 -1.43429 0
M  V30 60076 H 5897.05 1.52909 -3.92679 0
M  V30 60077 H 5895.73 1.71488 -2.74542 0
M  V30 60078 H 5894.63 -0.387113 -3.72092 0
M  V30 60079 H 5895.97 -0.489735 -4.89758 0
M  V30 60080 N 5897.62 1.52435 -0.400162 0
M  V30 60081 C 5898.57 2.28313 0.444492 0
M  V30 60082 C 5899.56 1.32645 1.05365 0
M  V30 60083 O 5900.77 1.5014 0.992878 0
M  V30 60084 H 5897.14 0.734319 0.162112 0
M  V30 60085 H 5899.11 2.97611 -0.216806 0
M  V30 60086 C 5897.86 3.1105 1.55382 0
M  V30 60087 H 5897.19 3.84529 1.09441 0
M  V30 60088 H 5898.63 3.67262 2.11883 0
M  V30 60089 C 5897.08 2.24044 2.51606 0
M  V30 60090 O 5897.61 1.87459 3.55277 0
M  V30 60091 N 5895.82 1.8799 2.21603 0
M  V30 60092 H 5895.37 2.1794 1.37331 0
M  V30 60093 H 5895.33 1.30068 2.86234 0
M  V30 60094 N 5899.1 0.130307 1.5706 0
M  V30 60095 C 5900.51 -0.226224 1.57989 0
M  V30 60096 C 5900.71 -1.65898 1.14369 0
M  V30 60097 O 5899.77 -2.38249 0.836275 0
M  V30 60098 C 5901.08 0.0173704 3.00695 0
M  V30 60099 C 5902.63 -0.0476471 3.12964 0
M  V30 60100 C 5903.11 0.168399 4.5769 0
M  V30 60101 N 5904.6 0.114754 4.63058 0
M  V30 60102 C 5905.33 0.256664 5.72825 0
M  V30 60103 N 5904.83 0.455372 6.91302 0
M  V30 60104 N 5906.62 0.19544 5.6176 0
M  V30 60105 H 5898.77 1.066 1.83712 0
M  V30 60106 H 5901.03 0.420673 0.849552 0
M  V30 60107 H 5900.74 1.00831 3.36936 0
M  V30 60108 H 5900.61 -0.709499 3.70467 0
M  V30 60109 H 5903 -1.02912 2.76574 0
M  V30 60110 H 5903.08 0.711284 2.45712 0
M  V30 60111 H 5902.73 1.1469 4.94781 0
M  V30 60112 H 5902.66 -0.610655 5.23047 0
M  V30 60113 H 5905.15 -0.0348544 3.77884 0
M  V30 60114 H 5905.46 0.554214 7.7081 0
M  V30 60115 H 5903.81 0.491487 6.9326 0
M  V30 60116 H 5907 0.0410831 4.68082 0
M  V30 60117 H 5907.17 0.309475 6.47261 0
M  V30 60118 N 5900.58 -1.56946 -0.14348 0
M  V30 60119 C 5901.52 -1.9853 -1.17704 0
M  V30 60120 C 5902.49 -0.853452 -1.42497 0
M  V30 60121 O 5903.68 -1.11579 -1.54773 0
M  V30 60122 C 5900.82 -2.37404 -2.50467 0
M  V30 60123 C 5899.93 -3.63895 -2.32818 0
M  V30 60124 C 5899.07 -3.91856 -3.58639 0
M  V30 60125 C 5898.1 -5.11607 -3.36043 0
M  V30 60126 N 5897.24 -5.35561 -4.54004 0
M  V30 60127 H 5902.08 -2.86627 -0.815423 0
M  V30 60128 H 5899.62 -1.41803 -0.391181 0
M  V30 60129 H 5901.58 -2.57972 -3.27882 0
M  V30 60130 H 5900.21 -1.52382 -2.84569 0
M  V30 60131 H 5899.26 -3.51083 -1.4644 0
M  V30 60132 H 5900.57 -4.51467 -2.12083 0
M  V30 60133 H 5899.72 -4.12941 -4.44482 0
M  V30 60134 H 5898.46 -3.02713 -3.82382 0
M  V30 60135 H 5897.47 -4.90391 -2.48588 0
M  V30 60136 H 5898.69 -6.02306 -3.13695 0
M  V30 60137 H 5896.64 -4.49372 -4.77913 0
M  V30 60138 H 5896.56 -6.17408 -4.36284 0
M  V30 60139 H 5897.82 -5.61146 -5.4105 0
M  V30 60140 N 5902.05 0.412937 -1.52094 0
M  V30 60141 C 5903.28 1.18206 -1.69809 0
M  V30 60142 C 5903.7 1.84385 -0.405909 0
M  V30 60143 O 5903.05 1.71727 0.617749 0
M  V30 60144 C 5903.1 2.24801 -2.83102 0
M  V30 60145 O 5902.83 1.61324 -4.07316 0
M  V30 60146 C 5904.33 3.14622 -3.12295 0
M  V30 60147 H 5901.55 0.355351 -0.569181 0
M  V30 60148 H 5904.09 0.486322 -1.98633 0
M  V30 60149 H 5902.25 2.90049 -2.56808 0
M  V30 60150 H 5902.66 2.31962 -4.70419 0
M  V30 60151 H 5904.13 3.85498 -3.95089 0
M  V30 60152 H 5904.61 3.76777 -2.2569 0
M  V30 60153 H 5905.22 2.55047 -3.4034 0
M  V30 60154 N 5903.53 1.42652 0.669932 0
M  V30 60155 C 5904.46 1.49304 1.79529 0
M  V30 60156 C 5905.44 0.349168 1.66478 0
M  V30 60157 O 5906.63 0.564137 1.85826 0
M  V30 60158 C 5903.76 1.39946 3.17856 0
M  V30 60159 C 5902.71 2.5241 3.45649 0
M  V30 60160 C 5902.04 2.28109 4.83602 0
M  V30 60161 C 5903.34 3.94709 3.42056 0
M  V30 60162 H 5905.03 2.43492 1.74219 0
M  V30 60163 H 5902.58 1.17194 0.836754 0
M  V30 60164 H 5904.53 1.43207 3.9632 0
M  V30 60165 H 5903.25 0.42255 3.23855 0
M  V30 60166 H 5901.91 2.48475 2.69547 0
M  V30 60167 H 5901.56 1.287 4.86256 0
M  V30 60168 H 5901.26 3.03487 5.03159 0
M  V30 60169 H 5902.79 2.33126 5.64344 0
M  V30 60170 H 5904.2 4.00221 4.10482 0
M  V30 60171 H 5902.6 4.69978 3.73149 0
M  V30 60172 H 5903.67 4.21033 2.40539 0
M  V30 60173 N 5905.01 -0.906708 1.28905 0
M  V30 60174 C 5906.26 -1.65115 1.15844 0
M  V30 60175 C 5906.57 -1.93427 -0.290757 0
M  V30 60176 O 5907.78 -2.66023 -0.542584 0
M  V30 60177 C 5906.23 -2.97485 2.0256 0
M  V30 60178 C 5905.84 -2.76794 3.52263 0
M  V30 60179 C 5907.59 -3.75386 1.98205 0
M  V30 60180 C 5905.49 -4.04848 4.31106 0
M  V30 60181 H 5904.42 -0.619394 0.429961 0
M  V30 60182 H 5907.07 -1.00562 1.53491 0
M  V30 60183 H 5905.46 -3.63212 1.57776 0
M  V30 60184 H 5906.63 -2.19704 4.05051 0
M  V30 60185 H 5904.94 -2.12297 3.58216 0
M  V30 60186 H 5907.54 -4.70316 2.54375 0
M  V30 60187 H 5907.88 -4.0507 0.960409 0
M  V30 60188 H 5908.42 -3.1649 2.40996 0
M  V30 60189 H 5905.16 -3.80334 5.33879 0
M  V30 60190 H 5904.68 -4.61523 3.83088 0
M  V30 60191 H 5906.36 -4.7305 4.41398 0
M  V30 60192 N 5906.49 -1.11268 -1.11612 0
M  V30 60193 C 5907.71 -0.883126 -1.87658 0
M  V30 60194 C 5908.14 0.561523 -1.79523 0
M  V30 60195 O 5907.5 1.39636 -1.15635 0
M  V30 60196 C 5907.54 -1.34709 -3.34493 0
M  V30 60197 O 5906.65 -0.517655 -4.09138 0
M  V30 60198 H 5905.99 -0.318254 -0.582761 0
M  V30 60199 H 5908.52 -1.48169 -1.41093 0
M  V30 60200 H 5908.53 -1.34082 -3.85339 0
M  V30 60201 H 5907.2 -2.39908 -3.39731 0
M  V30 60202 H 5905.78 -0.589881 -3.68205 0
M  V30 60203 N 5907.97 1.29185 -0.902724 0
M  V30 60204 C 5909.21 1.9505 -0.529145 0
M  V30 60205 C 5909.53 1.71493 0.92818 0
M  V30 60206 O 5908.8 1.0484 1.65486 0
M  V30 60207 H 5907.38 0.721718 -0.192697 0
M  V30 60208 H 5910.05 1.5738 -1.14968 0
M  V30 60209 H 5909.14 3.03816 -0.714286 0
M  V30 60210 N 5909.44 0.665525 1.42858 0
M  V30 60211 C 5910.38 -0.0685243 2.28097 0
M  V30 60212 C 5911.35 -0.817831 1.40536 0
M  V30 60213 O 5912.54 -0.81487 1.69977 0
M  V30 60214 C 5909.67 -1.10404 3.20201 0
M  V30 60215 C 5908.71 -0.451383 4.24105 0
M  V30 60216 S 5909.54 0.78418 5.29727 0
M  V30 60217 C 5910.7 -0.250498 6.25399 0
M  V30 60218 H 5910.93 0.654503 2.90006 0
M  V30 60219 H 5908.47 0.45476 1.47551 0
M  V30 60220 H 5910.42 -1.69644 3.73806 0
M  V30 60221 H 5909.09 -1.79946 2.57446 0
M  V30 60222 H 5908.28 -1.23242 4.887 0
M  V30 60223 H 5907.88 0.0671941 3.7394 0
M  V30 60224 H 5910.17 -1.11303 6.68295 0
M  V30 60225 H 5911.12 0.360743 7.0718 0
M  V30 60226 H 5911.52 -0.59182 5.61389 0
M  V30 60227 N 5910.92 -1.52221 0.40824 0
M  V30 60228 C 5912.17 -2.00989 -0.169181 0
M  V30 60229 C 5912.48 -1.29829 -1.463 0
M  V30 60230 O 5913.69 -1.69409 -2.12162 0
M  V30 60231 C 5912.15 -3.58174 -0.352053 0
M  V30 60232 C 5911.75 -4.38249 0.929622 0
M  V30 60233 C 5913.5 -4.15176 -0.884814 0
M  V30 60234 C 5911.4 -5.87074 0.713988 0
M  V30 60235 H 5910.33 -0.751017 -0.0669997 0
M  V30 60236 H 5912.99 -1.75572 0.533549 0
M  V30 60237 H 5911.37 -3.79917 -1.11709 0
M  V30 60238 H 5912.54 -4.28266 1.70074 0
M  V30 60239 H 5910.86 -3.9256 1.38873 0
M  V30 60240 H 5913.45 -5.24044 -1.06216 0
M  V30 60241 H 5913.8 -3.72475 -1.85925 0
M  V30 60242 H 5914.33 -3.97398 -0.178856 0
M  V30 60243 H 5911.07 -6.34134 1.65996 0
M  V30 60244 H 5910.59 -5.99797 -0.0178523 0
M  V30 60245 H 5912.27 -6.46021 0.355823 0
M  V30 60246 N 5912.4 -0.138635 -1.56989 0
M  V30 60247 C 5913.68 0.559173 -1.87437 0
M  V30 60248 C 5914.06 1.83523 -1.04319 0
M  V30 60249 O 5913.41 2.28143 -0.127611 0
M  V30 60250 C 5913.62 0.832701 -3.3892 0
M  V30 60251 C 5914.96 1.17716 -4.07956 0
M  V30 60252 O 5915.99 0.922329 -3.44052 0
M  V30 60253 O 5914.85 1.65632 -5.20796 0
M  V30 60254 H 5911.94 0.284291 -0.7766 0
M  V30 60255 H 5914.49 -0.174617 -1.68799 0
M  V30 60256 H 5913.26 -0.070743 -3.91236 0
M  V30 60257 H 5912.88 1.62097 -3.63057 0
M  V30 60258 N 5913.88 1.57019 0.135155 0
M  V30 60259 C 5914.79 2.02431 1.18571 0
M  V30 60260 C 5915.8 0.941789 1.46309 0
M  V30 60261 O 5916.98 1.25214 1.57745 0
M  V30 60262 C 5914.05 2.40585 2.49639 0
M  V30 60263 C 5913.11 3.62843 2.29442 0
M  V30 60264 C 5912.34 3.99168 3.5426 0
M  V30 60265 O 5912.56 3.36017 4.60922 0
M  V30 60266 O 5911.5 4.92357 3.4622 0
M  V30 60267 H 5915.32 2.92134 0.830134 0
M  V30 60268 H 5912.91 1.45368 0.344763 0
M  V30 60269 H 5914.79 2.65933 3.26891 0
M  V30 60270 H 5913.46 1.54033 2.84702 0
M  V30 60271 H 5912.37 3.42666 1.50102 0
M  V30 60272 H 5913.7 4.5005 1.99289 0
M  V30 60273 N 5915.36 -0.404866 1.52311 0
M  V30 60274 C 5916.77 -0.983498 1.58695 0
M  V30 60275 C 5917.12 -1.91429 0.43006 0
M  V30 60276 O 5916.24 -2.1169 -0.449014 0
M  V30 60277 C 5916.84 -1.79049 2.87623 0
M  V30 60278 C 5915.4 -2.31908 2.96472 0
M  V30 60279 C 5914.54 -1.12009 2.53671 0
M  V30 60280 H 5917.5 -0.184952 1.57619 0
M  V30 60281 H 5917.52 -2.64827 2.73216 0
M  V30 60282 H 5917.03 -1.11278 3.71805 0
M  V30 60283 H 5915.13 -3.03037 2.16793 0
M  V30 60284 H 5915.24 -2.62481 4.008 0
M  V30 60285 H 5913.61 -1.47535 2.07619 0
M  V30 60286 H 5914.39 -0.457991 3.40231 0
M  V30 60287 N 5916.83 -1.43006 -0.662357 0
M  V30 60288 C 5917.78 -1.43904 -1.76849 0
M  V30 60289 C 5918.77 -0.308684 -1.57911 0
M  V30 60290 O 5919.96 -0.551816 -1.68178 0
M  V30 60291 C 5917.09 -1.35596 -3.15386 0
M  V30 60292 C 5916.18 -2.53626 -3.39904 0
M  V30 60293 N 5916.57 -3.7901 -3.34941 0
M  V30 60294 C 5914.86 -2.48154 -3.70588 0
M  V30 60295 C 5915.57 -4.5748 -3.59287 0
M  V30 60296 N 5914.54 -3.88073 -3.80657 0
M  V30 60297 H 5918.34 -2.38728 -1.71424 0
M  V30 60298 H 5915.86 -1.37529 -0.86368 0
M  V30 60299 H 5917.85 -1.34322 -3.94668 0
M  V30 60300 H 5916.51 -0.417848 -3.22 0
M  V30 60301 H 5917.53 -4.11428 -3.14559 0
M  V30 60302 H 5914.2 -1.62984 -3.84373 0
M  V30 60303 H 5915.59 -5.66487 -3.61306 0
M  V30 60304 N 5918.31 0.899859 -1.29384 0
M  V30 60305 C 5919.28 1.9855 -1.14501 0
M  V30 60306 C 5920.28 1.60598 -0.0805296 0
M  V30 60307 O 5921.47 1.71095 -0.327455 0
M  V30 60308 C 5918.6 3.32526 -0.750935 0
M  V30 60309 H 5919.79 2.13182 -2.10935 0
M  V30 60310 H 5917.34 1.08434 -1.12568 0
M  V30 60311 H 5918.08 3.23596 0.213554 0
M  V30 60312 H 5917.86 3.61437 -1.52005 0
M  V30 60313 H 5919.35 4.12193 -0.669854 0
M  V30 60314 N 5919.79 1.11858 1.1102 0
M  V30 60315 C 5921.04 0.864878 1.82216 0
M  V30 60316 C 5921.35 -0.611284 1.85803 0
M  V30 60317 O 5922.56 -0.981386 2.53142 0
M  V30 60318 C 5921.01 1.49756 3.27263 0
M  V30 60319 C 5920.62 3.00808 3.31992 0
M  V30 60320 C 5922.37 1.32388 4.03328 0
M  V30 60321 C 5920.27 3.57039 4.71462 0
M  V30 60322 H 5919.2 0.319901 0.682773 0
M  V30 60323 H 5921.85 1.34435 1.24898 0
M  V30 60324 H 5920.24 0.945756 3.84541 0
M  V30 60325 H 5921.41 3.6243 2.84572 0
M  V30 60326 H 5919.73 3.17502 2.69409 0
M  V30 60327 H 5922.32 1.71827 5.06339 0
M  V30 60328 H 5922.67 0.266906 4.15443 0
M  V30 60329 H 5923.2 1.84457 3.52449 0
M  V30 60330 H 5919.94 4.62469 4.64546 0
M  V30 60331 H 5919.46 3.0019 5.19274 0
M  V30 60332 H 5921.14 3.55739 5.40425 0
M  V30 60333 N 5921.27 -1.28704 0.909562 0
M  V30 60334 C 5922.51 -1.95441 0.54135 0
M  V30 60335 C 5922.85 -1.7146 -0.911874 0
M  V30 60336 O 5922.12 -1.03317 -1.6479 0
M  V30 60337 C 5922.41 -3.50016 0.84622 0
M  V30 60338 C 5922.26 -3.83415 2.35187 0
M  V30 60339 C 5923.58 -4.38789 0.339482 0
M  V30 60340 H 5920.7 -0.709862 0.198153 0
M  V30 60341 H 5923.34 -1.52147 1.13804 0
M  V30 60342 H 5921.49 -3.87023 0.338398 0
M  V30 60343 H 5923.16 -3.563 2.92999 0
M  V30 60344 H 5921.4 -3.30608 2.80857 0
M  V30 60345 H 5922.07 -4.9134 2.51574 0
M  V30 60346 H 5924.55 -4.08829 0.774456 0
M  V30 60347 H 5923.43 -5.45807 0.581914 0
M  V30 60348 H 5923.69 -4.35517 -0.760091 0
M  V30 60349 N 5922.75 -0.673092 -1.42503 0
M  V30 60350 C 5923.99 -0.194935 -2.01861 0
M  V30 60351 C 5924.33 1.19486 -1.53091 0
M  V30 60352 O 5923.6 1.80184 -0.732385 0
M  V30 60353 C 5923.88 -0.227685 -3.59379 0
M  V30 60354 C 5923.74 -1.65281 -4.18333 0
M  V30 60355 C 5925.06 0.425043 -4.38043 0
M  V30 60356 H 5922.17 -0.0723089 -0.733444 0
M  V30 60357 H 5924.82 -0.857553 -1.69547 0
M  V30 60358 H 5922.97 0.336522 -3.8704 0
M  V30 60359 H 5924.64 -2.26913 -4.01632 0
M  V30 60360 H 5922.88 -2.19402 -3.74226 0
M  V30 60361 H 5923.55 -1.62742 -5.27465 0
M  V30 60362 H 5926.03 -0.0552172 -4.16063 0
M  V30 60363 H 5924.9 0.371483 -5.47642 0
M  V30 60364 H 5925.17 1.50236 -4.1579 0
M  V30 60365 N 5924.22 1.52002 -0.416307 0
M  V30 60366 C 5925.5 1.94403 0.216035 0
M  V30 60367 C 5925.88 1.35367 1.61984 0
M  V30 60368 O 5925.23 0.53232 2.22213 0
M  V30 60369 C 5925.44 3.48336 0.215103 0
M  V30 60370 C 5926.79 4.22407 0.430961 0
M  V30 60371 O 5927.81 3.54983 0.294146 0
M  V30 60372 O 5926.67 5.41982 0.70126 0
M  V30 60373 H 5923.76 0.814843 0.141277 0
M  V30 60374 H 5926.31 1.62982 -0.472769 0
M  V30 60375 H 5925.08 3.83706 -0.767139 0
M  V30 60376 H 5924.71 3.8614 0.947705 0
M  V30 60377 N 5925.7 0.146958 1.56913 0
M  V30 60378 C 5927.11 -0.373874 1.82918 0
M  V30 60379 C 5927.46 -1.64737 1.06565 0
M  V30 60380 O 5926.59 -2.14155 0.310925 0
M  V30 60381 C 5927.18 -0.685097 3.31801 0
M  V30 60382 C 5925.74 -1.15045 3.58387 0
M  V30 60383 C 5924.89 -0.173523 2.76757 0
M  V30 60384 H 5927.84 0.371656 1.54287 0
M  V30 60385 H 5927.86 -1.53977 3.47953 0
M  V30 60386 H 5927.37 0.241952 3.87345 0
M  V30 60387 H 5925.48 -2.09344 3.0823 0
M  V30 60388 H 5925.59 -1.07645 4.6685 0
M  V30 60389 H 5923.95 -0.666141 2.45835 0
M  V30 60390 H 5924.74 0.747116 3.35072 0
M  V30 60391 N 5927.18 -1.57089 -0.126826 0
M  V30 60392 C 5928.11 -2.02803 -1.1573 0
M  V30 60393 C 5929.09 -0.911081 -1.43643 0
M  V30 60394 O 5930.28 -1.18027 -1.54218 0
M  V30 60395 C 5927.41 -2.42573 -2.48547 0
M  V30 60396 C 5926.36 -3.5764 -2.35113 0
M  V30 60397 C 5925.69 -3.83286 -3.72822 0
M  V30 60398 C 5926.99 -4.89631 -1.81821 0
M  V30 60399 H 5928.68 -2.89139 -0.777105 0
M  V30 60400 H 5926.23 -1.39102 -0.372367 0
M  V30 60401 H 5928.18 -2.73157 -3.20879 0
M  V30 60402 H 5926.9 -1.53198 -2.88441 0
M  V30 60403 H 5925.56 -3.27253 -1.6523 0
M  V30 60404 H 5925.21 -2.91128 -4.10187 0
M  V30 60405 H 5924.91 -4.60734 -3.64689 0
M  V30 60406 H 5926.44 -4.16314 -4.46671 0
M  V30 60407 H 5927.85 -5.18801 -2.43963 0
M  V30 60408 H 5926.25 -5.71025 -1.84528 0
M  V30 60409 H 5927.32 -4.78663 -0.775217 0
M  V30 60410 N 5928.66 0.396782 -1.52523 0
M  V30 60411 C 5930.08 0.736297 -1.41601 0
M  V30 60412 C 5930.28 1.94398 -0.53026 0
M  V30 60413 O 5929.33 2.525 -0.000737799 0
M  V30 60414 C 5930.64 0.978675 -2.84328 0
M  V30 60415 C 5932.19 1.08063 -2.93754 0
M  V30 60416 C 5932.67 1.35569 -4.37476 0
M  V30 60417 N 5934.16 1.42407 -4.40766 0
M  V30 60418 C 5934.89 1.6534 -5.49045 0
M  V30 60419 N 5934.39 1.85796 -6.67422 0
M  V30 60420 N 5936.18 1.67456 -5.36577 0
M  V30 60421 H 5928.33 -0.397999 -2.08638 0
M  V30 60422 H 5930.6 -0.115836 -0.940896 0
M  V30 60423 H 5930.3 0.163496 -3.5132 0
M  V30 60424 H 5930.18 1.89548 -3.26115 0
M  V30 60425 H 5932.56 1.88638 -2.26935 0
M  V30 60426 H 5932.64 0.141907 -2.55406 0
M  V30 60427 H 5932.29 0.555061 -5.04858 0
M  V30 60428 H 5932.22 2.30713 -4.7337 0
M  V30 60429 H 5934.71 1.28339 -3.5544 0
M  V30 60430 H 5935.02 2.02779 -7.45721 0
M  V30 60431 H 5933.37 1.83036 -6.70465 0
M  V30 60432 H 5936.56 1.51022 -4.43069 0
M  V30 60433 H 5936.73 1.84989 -6.21034 0
M  V30 60434 N 5930.14 1.43355 0.654764 0
M  V30 60435 C 5931.39 1.44604 1.41188 0
M  V30 60436 C 5931.71 0.070864 1.94871 0
M  V30 60437 O 5930.98 -0.893576 1.74333 0
M  V30 60438 H 5929.56 0.532391 0.523993 0
M  V30 60439 H 5932.22 1.78945 0.772325 0
M  V30 60440 H 5931.31 2.15769 2.255 0
M  V30 60441 N 5931.62 -0.892985 1.2986 0
M  V30 60442 C 5932.84 -1.67739 1.21125 0
M  V30 60443 C 5933.26 -1.87429 -0.227132 0
M  V30 60444 O 5932.62 -1.41609 -1.15123 0
M  V30 60445 C 5932.67 -3.0582 1.9276 0
M  V30 60446 O 5932.39 -2.87025 3.30981 0
M  V30 60447 C 5933.89 -4.00241 1.90584 0
M  V30 60448 H 5931.11 -0.523685 0.419518 0
M  V30 60449 H 5933.65 -1.11624 1.71348 0
M  V30 60450 H 5931.81 -3.58691 1.46355 0
M  V30 60451 H 5932.22 -3.74565 3.67153 0
M  V30 60452 H 5933.7 -4.94522 2.4526 0
M  V30 60453 H 5934.17 -4.30234 0.882905 0
M  V30 60454 H 5934.78 -3.53303 2.36763 0
M  V30 60455 N 5933.09 -1.12445 -1.10425 0
M  V30 60456 C 5934.03 -0.736143 -2.16 0
M  V30 60457 C 5935 0.272749 -1.60296 0
M  V30 60458 O 5936.19 0.166678 -1.87762 0
M  V30 60459 C 5933.32 -0.0896136 -3.38581 0
M  V30 60460 C 5932.36 -1.06535 -4.1298 0
M  V30 60461 S 5933.19 -2.59295 -4.68536 0
M  V30 60462 C 5934.35 -1.95973 -5.94429 0
M  V30 60463 H 5934.58 -1.63042 -2.48605 0
M  V30 60464 H 5932.12 -0.943553 -1.22215 0
M  V30 60465 H 5934.07 0.277036 -4.09564 0
M  V30 60466 H 5932.74 0.781778 -3.04215 0
M  V30 60467 H 5931.93 -0.560602 -5.00872 0
M  V30 60468 H 5931.53 -1.37494 -3.47809 0
M  V30 60469 H 5933.82 -1.30254 -6.64861 0
M  V30 60470 H 5934.77 -2.81905 -6.49565 0
M  V30 60471 H 5935.17 -1.41552 -5.46464 0
M  V30 60472 N 5934.57 1.2822 -0.916375 0
M  V30 60473 C 5935.8 1.98695 -0.56602 0
M  V30 60474 C 5936.21 1.68643 0.857675 0
M  V30 60475 O 5935.55 0.937074 1.58002 0
M  V30 60476 C 5935.61 3.52651 -0.698416 0
M  V30 60477 C 5935.28 4.06299 -2.09214 0
M  V30 60478 C 5936.28 4.19935 -3.06514 0
M  V30 60479 C 5933.96 4.40926 -2.40603 0
M  V30 60480 C 5935.95 4.67456 -4.33317 0
M  V30 60481 C 5933.64 4.8814 -3.67645 0
M  V30 60482 C 5934.64 5.01362 -4.63816 0
M  V30 60483 O 5934.33 5.47545 -5.886 0
M  V30 60484 H 5934.06 0.641146 -0.214262 0
M  V30 60485 H 5936.61 1.64318 -1.23243 0
M  V30 60486 H 5934.84 3.86692 0.0250676 0
M  V30 60487 H 5936.53 4.04347 -0.35478 0
M  V30 60488 H 5937.3 3.93454 -2.83582 0
M  V30 60489 H 5933.18 4.29883 -1.66497 0
M  V30 60490 H 5936.72 4.77691 -5.08387 0
M  V30 60491 H 5932.62 5.14061 -3.904 0
M  V30 60492 H 5933.39 5.65824 -5.91426 0
M  V30 60493 N 5936.05 0.68064 1.42144 0
M  V30 60494 C 5937.3 0.214338 2.02268 0
M  V30 60495 C 5937.65 -1.16809 1.52884 0
M  V30 60496 O 5936.94 -1.77404 0.723778 0
M  V30 60497 C 5937.14 0.19495 3.56868 0
M  V30 60498 C 5936.97 1.57396 4.21256 0
M  V30 60499 C 5935.74 2.17316 4.56182 0
M  V30 60500 C 5937.93 2.51776 4.48457 0
M  V30 60501 N 5935.92 3.47937 5.0578 0
M  V30 60502 C 5937.29 3.67058 4.99668 0
M  V30 60503 C 5939.34 2.50232 4.30452 0
M  V30 60504 C 5938.05 4.81057 5.34768 0
M  V30 60505 C 5940.07 3.63332 4.6663 0
M  V30 60506 C 5939.43 4.77343 5.17999 0
M  V30 60507 H 5935.53 0.123486 0.772189 0
M  V30 60508 H 5938.12 0.894891 1.72916 0
M  V30 60509 H 5936.29 -0.455036 3.85725 0
M  V30 60510 H 5938.02 -0.284779 4.03697 0
M  V30 60511 H 5934.77 1.69747 4.42134 0
M  V30 60512 H 5935.2 4.14852 5.35002 0
M  V30 60513 H 5939.84 1.63311 3.89986 0
M  V30 60514 H 5937.56 5.6865 5.74163 0
M  V30 60515 H 5941.14 3.63372 4.5437 0
M  V30 60516 H 5940.02 5.6341 5.45471 0
M  V30 60517 N 5937.53 -1.51779 0.424362 0
M  V30 60518 C 5938.75 -2.06872 -0.147895 0
M  V30 60519 C 5939.18 -1.29098 -1.36804 0
M  V30 60520 O 5938.54 -0.325341 -1.78357 0
M  V30 60521 C 5938.58 -3.57633 -0.461631 0
M  V30 60522 O 5937.69 -3.82154 -1.55022 0
M  V30 60523 H 5937.03 -0.663957 -0.00754941 0
M  V30 60524 H 5939.56 -1.95544 0.601956 0
M  V30 60525 H 5939.57 -4.01671 -0.715864 0
M  V30 60526 H 5938.24 -4.13669 0.430227 0
M  V30 60527 H 5936.82 -3.49988 -1.28696 0
M  V30 60528 N 5939.01 -0.155278 -1.56833 0
M  V30 60529 C 5940.28 0.539261 -1.8802 0
M  V30 60530 C 5940.66 1.82407 -1.06259 0
M  V30 60531 O 5940.01 2.27995 -0.151801 0
M  V30 60532 C 5940.22 0.796707 -3.39785 0
M  V30 60533 C 5941.57 1.13382 -4.09182 0
M  V30 60534 O 5942.59 0.885785 -3.45011 0
M  V30 60535 O 5941.45 1.60099 -5.22523 0
M  V30 60536 H 5938.55 0.276038 -0.779572 0
M  V30 60537 H 5941.09 -0.192511 -1.68605 0
M  V30 60538 H 5939.86 -0.112235 -3.91139 0
M  V30 60539 H 5939.49 1.58237 -3.64756 0
M  V30 60540 N 5940.48 1.57154 0.118493 0
M  V30 60541 C 5941.73 1.86031 0.822428 0
M  V30 60542 C 5942.08 0.743103 1.7747 0
M  V30 60543 O 5941.38 -0.256851 1.89871 0
M  V30 60544 C 5941.57 3.19089 1.60987 0
M  V30 60545 C 5941.4 4.43647 0.735347 0
M  V30 60546 C 5940.17 5.03793 0.389992 0
M  V30 60547 C 5942.37 5.14273 0.0527518 0
M  V30 60548 N 5940.35 6.119 -0.495142 0
M  V30 60549 C 5941.72 6.16133 -0.691365 0
M  V30 60550 C 5943.78 4.97894 -0.0236144 0
M  V30 60551 C 5942.48 7.03386 -1.50468 0
M  V30 60552 C 5944.51 5.85635 -0.823752 0
M  V30 60553 C 5943.87 6.86998 -1.55606 0
M  V30 60554 H 5939.97 0.73097 0.277861 0
M  V30 60555 H 5942.55 1.94509 0.0861406 0
M  V30 60556 H 5940.72 3.11706 2.31719 0
M  V30 60557 H 5942.45 3.35773 2.25918 0
M  V30 60558 H 5939.21 4.67903 0.732348 0
M  V30 60559 H 5939.63 6.70588 -0.929573 0
M  V30 60560 H 5944.27 4.19488 0.528204 0
M  V30 60561 H 5941.99 7.812 -2.06765 0
M  V30 60562 H 5945.58 5.75026 -0.885206 0
M  V30 60563 H 5944.46 7.53715 -2.16524 0
M  V30 60564 N 5941.96 -0.388688 1.52732 0
M  V30 60565 C 5943.21 -1.13145 1.67459 0
M  V30 60566 C 5943.53 -1.90486 0.417162 0
M  V30 60567 O 5942.8 -1.87471 -0.568443 0
M  V30 60568 H 5941.38 -0.420678 0.617284 0
M  V30 60569 H 5944.04 -0.440913 1.89847 0
M  V30 60570 H 5943.14 -1.83418 2.52516 0
M  V30 60571 N 5943.44 -1.437 -0.647152 0
M  V30 60572 C 5944.39 -1.49605 -1.78104 0
M  V30 60573 C 5945.38 -0.369105 -1.6533 0
M  V30 60574 O 5946.59 -0.543363 -1.71603 0
M  V30 60575 H 5942.96 -0.469131 -0.587725 0
M  V30 60576 H 5944.93 -2.4507 -1.70245 0
M  V30 60577 C 5943.68 -1.44203 -3.16387 0
M  V30 60578 H 5943.01 -2.30228 -3.26857 0
M  V30 60579 H 5944.45 -1.52396 -3.95666 0
M  V30 60580 C 5942.91 -0.160478 -3.36518 0
M  V30 60581 O 5943.44 0.775791 -3.94137 0
M  V30 60582 N 5941.64 -0.0687257 -2.90519 0
M  V30 60583 H 5941.19 -0.831448 -2.43813 0
M  V30 60584 H 5941.15 0.788033 -3.04364 0
M  V30 60585 N 5944.92 0.886085 -1.30331 0
M  V30 60586 C 5945.87 1.97896 -1.13231 0
M  V30 60587 C 5946.85 1.60829 -0.0477933 0
M  V30 60588 O 5948.04 1.74913 -0.270993 0
M  V30 60589 C 5945.17 3.33238 -0.825061 0
M  V30 60590 C 5944.26 3.76622 -1.94978 0
M  V30 60591 N 5944.65 3.92114 -3.195 0
M  V30 60592 C 5942.95 4.06009 -1.84589 0
M  V30 60593 C 5943.65 4.28897 -3.92966 0
M  V30 60594 N 5942.63 4.38696 -3.21009 0
M  V30 60595 H 5946.43 2.07962 -2.07675 0
M  V30 60596 H 5943.94 1.07582 -1.21654 0
M  V30 60597 H 5945.94 4.11258 -0.683568 0
M  V30 60598 H 5944.6 3.24509 0.111324 0
M  V30 60599 H 5945.61 3.77275 -3.54801 0
M  V30 60600 H 5942.29 4.0576 -0.983112 0
M  V30 60601 H 5943.68 4.48614 -5.00195 0
M  V30 60602 N 5946.4 1.13029 1.09828 0
M  V30 60603 C 5947.81 0.902884 1.63416 0
M  V30 60604 C 5948.16 -0.561481 1.87994 0
M  V30 60605 O 5947.28 -1.42729 1.62657 0
M  V30 60606 C 5947.88 1.63251 2.96875 0
M  V30 60607 C 5946.44 1.45107 3.47305 0
M  V30 60608 C 5945.58 1.66438 2.21796 0
M  V30 60609 H 5948.54 1.28418 0.932447 0
M  V30 60610 H 5948.56 1.08719 3.64637 0
M  V30 60611 H 5948.07 2.69826 2.78955 0
M  V30 60612 H 5946.17 0.408162 3.70358 0
M  V30 60613 H 5946.28 2.21138 4.25011 0
M  V30 60614 H 5944.65 1.08893 2.30248 0
M  V30 60615 H 5945.43 2.74324 2.064 0
M  V30 60616 N 5947.87 -1.27732 0.923162 0
M  V30 60617 C 5948.82 -2.26996 0.417334 0
M  V30 60618 C 5949.79 -1.57969 -0.513309 0
M  V30 60619 O 5950.98 -1.85811 -0.433456 0
M  V30 60620 C 5948.12 -3.43538 -0.327968 0
M  V30 60621 C 5947.23 -4.27289 0.636263 0
M  V30 60622 C 5946.36 -5.31045 -0.128428 0
M  V30 60623 C 5945.4 -6.06463 0.828805 0
M  V30 60624 N 5944.54 -7.02033 0.0970326 0
M  V30 60625 H 5949.38 -2.69639 1.26882 0
M  V30 60626 H 5946.92 -1.32595 0.636946 0
M  V30 60627 H 5948.88 -4.09913 -0.77636 0
M  V30 60628 H 5947.51 -3.01859 -1.14372 0
M  V30 60629 H 5946.56 -3.60871 1.20318 0
M  V30 60630 H 5947.87 -4.79674 1.36801 0
M  V30 60631 H 5947.02 -6.03347 -0.636946 0
M  V30 60632 H 5945.76 -4.79451 -0.893172 0
M  V30 60633 H 5944.77 -5.33003 1.34861 0
M  V30 60634 H 5945.99 -6.60145 1.59326 0
M  V30 60635 H 5943.94 -6.52776 -0.64955 0
M  V30 60636 H 5943.86 -7.52084 0.768436 0
M  V30 60637 H 5945.12 -7.78519 -0.390983 0
M  V30 60638 N 5949.35 -0.688168 -1.41782 0
M  V30 60639 C 5950.6 -0.213155 -2.00571 0
M  V30 60640 C 5950.91 1.19171 -1.55106 0
M  V30 60641 O 5952.12 1.7638 -2.06404 0
M  V30 60642 C 5950.58 -0.330201 -3.58382 0
M  V30 60643 C 5950.18 -1.73996 -4.12831 0
M  V30 60644 C 5951.93 0.0854159 -4.24414 0
M  V30 60645 C 5949.84 -1.80906 -5.63052 0
M  V30 60646 H 5948.77 -0.0759324 -0.750167 0
M  V30 60647 H 5951.42 -0.855293 -1.62348 0
M  V30 60648 H 5949.8 0.380061 -3.94172 0
M  V30 60649 H 5950.97 -2.47838 -3.88475 0
M  V30 60650 H 5949.29 -2.1046 -3.59299 0
M  V30 60651 H 5951.88 0.0541262 -5.34673 0
M  V30 60652 H 5952.23 1.12293 -4.00869 0
M  V30 60653 H 5952.76 -0.574307 -3.93633 0
M  V30 60654 H 5949.5 -2.82684 -5.91414 0
M  V30 60655 H 5949.02 -1.11438 -5.89357 0
M  V30 60656 H 5950.7 -1.56857 -6.27698 0
M  V30 60657 N 5950.83 1.51552 -0.432405 0
M  V30 60658 C 5951.74 2.31373 0.387804 0
M  V30 60659 C 5952.76 1.40076 1.03222 0
M  V30 60660 O 5953.93 1.73148 1.02867 0
M  V30 60661 C 5951 3.13668 1.47694 0
M  V30 60662 C 5950.06 4.20737 0.853168 0
M  V30 60663 C 5949.29 4.99099 1.89041 0
M  V30 60664 O 5949.51 4.78033 3.11192 0
M  V30 60665 O 5948.45 5.83327 1.48368 0
M  V30 60666 H 5952.27 3.02553 -0.263684 0
M  V30 60667 H 5949.86 1.48121 -0.195056 0
M  V30 60668 H 5951.74 3.64845 2.10871 0
M  V30 60669 H 5950.42 2.45257 2.1126 0
M  V30 60670 H 5949.32 3.7365 0.183484 0
M  V30 60671 H 5950.66 4.91507 0.261071 0
M  V30 60672 N 5952.31 0.163593 1.56749 0
M  V30 60673 C 5953.54 -0.489817 2.01018 0
M  V30 60674 C 5953.95 -1.57323 1.04379 0
M  V30 60675 O 5953.31 -1.82448 0.0434055 0
M  V30 60676 C 5953.36 -1.07525 3.45139 0
M  V30 60677 O 5953.08 -0.0350925 4.38086 0
M  V30 60678 C 5954.58 -1.80764 4.0477 0
M  V30 60679 H 5951.8 -0.126072 0.65905 0
M  V30 60680 H 5954.35 0.263053 2.02801 0
M  V30 60681 H 5952.5 -1.77865 3.44155 0
M  V30 60682 H 5952.91 -0.466243 5.22424 0
M  V30 60683 H 5954.39 -2.16996 5.0756 0
M  V30 60684 H 5954.87 -2.69978 3.46423 0
M  V30 60685 H 5955.47 -1.15084 4.09434 0
M  V30 60686 N 5953.79 -1.57215 -0.110157 0
M  V30 60687 C 5954.75 -2.00038 -1.11881 0
M  V30 60688 C 5955.75 -0.891744 -1.33808 0
M  V30 60689 O 5956.94 -1.15758 -1.30176 0
M  V30 60690 C 5954.07 -2.34814 -2.47134 0
M  V30 60691 H 5955.26 -2.90356 -0.750545 0
M  V30 60692 H 5952.82 -1.52221 -0.354737 0
M  V30 60693 H 5953.55 -1.47403 -2.88865 0
M  V30 60694 H 5953.34 -3.15679 -2.3257 0
M  V30 60695 H 5954.83 -2.68655 -3.19709 0
M  V30 60696 N 5955.26 0.380583 -1.52936 0
M  V30 60697 C 5956.23 1.44813 -1.77657 0
M  V30 60698 C 5957.23 1.47222 -0.646708 0
M  V30 60699 O 5958.42 1.48245 -0.914822 0
M  V30 60700 C 5955.55 2.84043 -1.885 0
M  V30 60701 H 5956.74 1.24173 -2.72985 0
M  V30 60702 H 5954.3 0.61283 -1.43785 0
M  V30 60703 H 5955.03 3.10016 -0.95186 0
M  V30 60704 H 5954.82 2.83695 -2.70665 0
M  V30 60705 H 5956.31 3.6138 -2.0927 0
M  V30 60706 N 5956.74 1.44041 0.639523 0
M  V30 60707 C 5957.68 1.44721 1.7644 0
M  V30 60708 C 5958.65 0.307013 1.59675 0
M  V30 60709 O 5959.84 0.502707 1.81673 0
M  V30 60710 C 5956.97 1.27188 3.13912 0
M  V30 60711 C 5956.01 2.44662 3.49346 0
M  V30 60712 S 5956.84 4.07203 3.47772 0
M  V30 60713 C 5958 3.92078 4.87879 0
M  V30 60714 H 5958.23 2.39904 1.75595 0
M  V30 60715 H 5955.77 1.31238 0.813392 0
M  V30 60716 H 5957.72 1.17759 3.93247 0
M  V30 60717 H 5956.39 0.335306 3.12305 0
M  V30 60718 H 5955.58 2.28234 4.49361 0
M  V30 60719 H 5955.18 2.50787 2.77456 0
M  V30 60720 H 5957.47 3.55249 5.76892 0
M  V30 60721 H 5958.42 4.91893 5.0936 0
M  V30 60722 H 5958.82 3.24288 4.62058 0
M  V30 60723 N 5958.22 -0.879161 1.308 0
M  V30 60724 C 5959.5 -1.61324 1.10607 0
M  V30 60725 C 5959.88 -2.08302 -0.342548 0
M  V30 60726 O 5959.23 -1.8544 -1.33507 0
M  V30 60727 C 5959.44 -2.77831 2.11213 0
M  V30 60728 C 5960.78 -3.4802 2.43243 0
M  V30 60729 O 5961.81 -2.88027 2.09569 0
M  V30 60730 O 5960.67 -4.56223 3.0087 0
M  V30 60731 H 5957.76 -0.70932 0.425199 0
M  V30 60732 H 5960.31 -0.925428 1.42246 0
M  V30 60733 H 5959.08 -2.40464 3.08695 0
M  V30 60734 H 5958.7 -3.54305 1.80426 0
M  V30 60735 N 5959.7 -1.1361 -1.09227 0
M  V30 60736 C 5960.95 -0.897342 -1.81086 0
M  V30 60737 C 5961.27 0.578001 -1.86237 0
M  V30 60738 O 5960.54 1.42014 -1.3494 0
M  V30 60739 H 5959.12 -0.328995 -0.67065 0
M  V30 60740 H 5961.78 -1.43304 -1.32098 0
M  V30 60741 H 5960.88 -1.28989 -2.84198 0
M  V30 60742 N 5961.18 1.27241 -0.929923 0
M  V30 60743 C 5962.41 1.98371 -0.587915 0
M  V30 60744 C 5962.82 1.69352 0.834579 0
M  V30 60745 O 5962.18 0.955336 1.55498 0
M  V30 60746 C 5962.23 3.52378 -0.806967 0
M  V30 60747 O 5961.95 3.80382 -2.1735 0
M  V30 60748 C 5963.45 4.40759 -0.473973 0
M  V30 60749 H 5960.67 0.633007 -0.222583 0
M  V30 60750 H 5963.21 1.62038 -1.24755 0
M  V30 60751 H 5961.37 3.86913 -0.194099 0
M  V30 60752 H 5961.78 4.74961 -2.22515 0
M  V30 60753 H 5963.26 5.47821 -0.677929 0
M  V30 60754 H 5963.73 4.35211 0.590581 0
M  V30 60755 H 5964.34 4.11748 -1.06508 0
M  V30 60756 N 5962.66 0.695678 1.41415 0
M  V30 60757 C 5963.59 0.0447834 2.33457 0
M  V30 60758 C 5964.57 -0.767051 1.51823 0
M  V30 60759 O 5965.75 -0.720002 1.8036 0
M  V30 60760 C 5962.88 -0.892235 3.35643 0
M  V30 60761 C 5961.84 -0.187488 4.27589 0
M  V30 60762 C 5961.16 -1.23887 5.2015 0
M  V30 60763 C 5962.46 0.946273 5.13656 0
M  V30 60764 H 5964.16 0.813531 2.88135 0
M  V30 60765 H 5961.7 0.392663 1.38543 0
M  V30 60766 H 5963.65 -1.35682 3.98959 0
M  V30 60767 H 5962.38 -1.69265 2.79315 0
M  V30 60768 H 5961.04 0.25707 3.65698 0
M  V30 60769 H 5960.69 -2.03182 4.60137 0
M  V30 60770 H 5960.39 -0.772331 5.82502 0
M  V30 60771 H 5961.91 -1.70397 5.86342 0
M  V30 60772 H 5963.32 0.561964 5.70539 0
M  V30 60773 H 5961.72 1.33992 5.8495 0
M  V30 60774 H 5962.79 1.78589 4.50815 0
M  V30 60775 N 5964.13 -1.51321 0.440437 0
M  V30 60776 C 5965.55 -1.59329 0.0928932 0
M  V30 60777 C 5965.75 -1.45112 -1.39802 0
M  V30 60778 O 5964.81 -1.29393 -2.16826 0
M  V30 60779 C 5966.12 -2.94328 0.615767 0
M  V30 60780 C 5967.67 -3.07645 0.576481 0
M  V30 60781 C 5968.14 -4.45172 1.07638 0
M  V30 60782 N 5969.63 -4.515 1.0345 0
M  V30 60783 C 5970.37 -5.56244 1.39213 0
M  V30 60784 N 5969.86 -6.68391 1.82277 0
M  V30 60785 N 5971.66 -5.46619 1.3101 0
M  V30 60786 H 5963.81 -1.58807 1.41046 0
M  V30 60787 H 5966.07 -0.748775 0.581412 0
M  V30 60788 H 5965.78 -3.10112 1.65903 0
M  V30 60789 H 5965.65 -3.77176 0.0423839 0
M  V30 60790 H 5968.04 -2.91527 -0.457801 0
M  V30 60791 H 5968.12 -2.26629 1.1863 0
M  V30 60792 H 5967.76 -4.62036 2.10914 0
M  V30 60793 H 5967.69 -5.24733 0.443066 0
M  V30 60794 H 5970.18 -3.71011 0.718287 0
M  V30 60795 H 5970.5 -7.44339 2.07795 0
M  V30 60796 H 5968.84 -6.69591 1.86207 0
M  V30 60797 H 5972.03 -4.57891 0.972306 0
M  V30 60798 H 5972.21 -6.28137 1.5921 0
M  V30 60799 N 5965.61 -0.171903 -1.5666 0
M  V30 60800 C 5966.52 0.770643 -2.21581 0
M  V30 60801 C 5967.54 1.25268 -1.20763 0
M  V30 60802 O 5968.71 1.30469 -1.53427 0
M  V30 60803 C 5965.78 1.98246 -2.84429 0
M  V30 60804 C 5964.84 1.54724 -4.00449 0
M  V30 60805 C 5964.07 2.70129 -4.60289 0
M  V30 60806 O 5964.3 3.87011 -4.19021 0
M  V30 60807 O 5963.23 2.4417 -5.5015 0
M  V30 60808 H 5967.06 0.247868 -3.02687 0
M  V30 60809 H 5964.64 0.0563209 -1.49294 0
M  V30 60810 H 5966.52 2.69116 -3.24276 0
M  V30 60811 H 5965.2 2.49428 -2.06319 0
M  V30 60812 H 5964.1 0.808023 -3.65269 0
M  V30 60813 H 5965.44 1.08232 -4.80153 0
M  V30 60814 N 5967.09 1.57271 0.101818 0
M  V30 60815 C 5968.32 1.89946 0.820262 0
M  V30 60816 C 5968.73 0.764928 1.7261 0
M  V30 60817 O 5968.09 -0.263436 1.80589 0
M  V30 60818 C 5968.14 3.22195 1.63928 0
M  V30 60819 O 5967.86 4.31282 0.769888 0
M  V30 60820 C 5969.36 3.68688 2.46138 0
M  V30 60821 H 5966.58 0.62854 0.2349 0
M  V30 60822 H 5969.13 2.04339 0.0810643 0
M  V30 60823 H 5967.28 3.0942 2.33106 0
M  V30 60824 H 5967.7 5.07187 1.33648 0
M  V30 60825 H 5969.17 4.63938 2.99108 0
M  V30 60826 H 5969.65 2.96194 3.24292 0
M  V30 60827 H 5970.25 3.84309 1.82171 0
M  V30 60828 N 5968.57 -0.372467 1.53135 0
M  V30 60829 C 5969.5 -1.46204 1.82062 0
M  V30 60830 C 5970.48 -1.56191 0.673667 0
M  V30 60831 O 5971.66 -1.70871 0.922857 0
M  V30 60832 C 5968.79 -2.83625 2.00435 0
M  V30 60833 C 5967.75 -2.88467 3.16182 0
M  V30 60834 C 5967.07 -4.28496 3.19836 0
M  V30 60835 C 5968.37 -2.56612 4.54915 0
M  V30 60836 H 5970.07 -1.22246 2.73306 0
M  V30 60837 H 5967.61 -0.586642 1.31509 0
M  V30 60838 H 5969.57 -3.59869 2.19254 0
M  V30 60839 H 5968.29 -3.08956 1.05895 0
M  V30 60840 H 5966.95 -2.14673 2.97172 0
M  V30 60841 H 5966.6 -4.50892 2.22946 0
M  V30 60842 H 5966.3 -4.32653 3.97599 0
M  V30 60843 H 5967.82 -5.06623 3.4083 0
M  V30 60844 H 5969.24 -3.2257 4.73942 0
M  V30 60845 H 5967.63 -2.72095 5.34869 0
M  V30 60846 H 5968.7 -1.51886 4.60498 0
M  V30 60847 N 5970.05 -1.44378 -0.631875 0
M  V30 60848 C 5971.29 -1.4734 -1.39351 0
M  V30 60849 C 5971.62 -0.105318 -1.93914 0
M  V30 60850 O 5970.9 0.876945 -1.73609 0
M  V30 60851 C 5971.18 -2.53317 -2.55935 0
M  V30 60852 C 5971.04 -3.9948 -2.06725 0
M  V30 60853 C 5972.35 -2.55806 -3.58122 0
M  V30 60854 H 5969.47 -0.536464 -0.505346 0
M  V30 60855 H 5972.12 -1.76053 -0.71451 0
M  V30 60856 H 5970.27 -2.28964 -3.1386 0
M  V30 60857 H 5971.94 -4.34964 -1.53637 0
M  V30 60858 H 5970.18 -4.11293 -1.37915 0
M  V30 60859 H 5970.85 -4.69279 -2.90656 0
M  V30 60860 H 5973.33 -2.77565 -3.09995 0
M  V30 60861 H 5972.2 -3.31863 -4.37217 0
M  V30 60862 H 5972.46 -1.59977 -4.12141 0
M  V30 60863 N 5971.52 0.872212 -1.31264 0
M  V30 60864 C 5972.46 1.98526 -1.14544 0
M  V30 60865 C 5973.47 1.62577 -0.0851294 0
M  V30 60866 O 5974.66 1.75378 -0.332405 0
M  V30 60867 C 5971.76 3.31002 -0.727387 0
M  V30 60868 C 5970.93 3.95306 -1.87221 0
M  V30 60869 C 5969.99 5.06096 -1.4406 0
M  V30 60870 O 5969.02 5.27037 -2.14989 0
M  V30 60871 N 5970.22 5.7958 -0.326734 0
M  V30 60872 H 5972.98 2.13416 -2.10413 0
M  V30 60873 H 5970.54 1.04606 -1.23569 0
M  V30 60874 H 5972.54 4.025 -0.421396 0
M  V30 60875 H 5971.11 3.12288 0.13964 0
M  V30 60876 H 5970.33 3.16817 -2.34565 0
M  V30 60877 H 5971.61 4.35006 -2.63908 0
M  V30 60878 H 5971.01 5.65084 0.264003 0
M  V30 60879 H 5969.57 6.51751 -0.0802649 0
M  V30 60880 N 5973 1.14188 1.08623 0
M  V30 60881 C 5974.28 0.819612 1.776 0
M  V30 60882 C 5974.66 -0.687307 1.99598 0
M  V30 60883 O 5974.01 -1.62738 1.60401 0
M  V30 60884 C 5974.22 1.61585 3.0934 0
M  V30 60885 C 5975.57 1.8138 3.83909 0
M  V30 60886 O 5976.59 1.58253 3.19115 0
M  V30 60887 O 5975.45 2.20029 5.0025 0
M  V30 60888 H 5972.54 0.300113 0.770624 0
M  V30 60889 H 5975.09 1.24695 1.15105 0
M  V30 60890 H 5973.86 2.63956 2.88865 0
M  V30 60891 H 5973.48 1.18399 3.79562 0
M  V30 60892 N 5974.48 -1.26746 0.936658 0
M  V30 60893 C 5975.43 -2.28526 0.433408 0
M  V30 60894 C 5976.42 -1.6225 -0.486955 0
M  V30 60895 O 5977.63 -1.76247 -0.365668 0
M  V30 60896 H 5974 -0.742102 0.121609 0
M  V30 60897 H 5975.97 -2.68378 1.30446 0
M  V30 60898 C 5974.72 -3.46486 -0.290244 0
M  V30 60899 H 5974.05 -3.97705 0.408789 0
M  V30 60900 H 5975.49 -4.19638 -0.606659 0
M  V30 60901 C 5973.95 -3.01344 -1.50644 0
M  V30 60902 O 5974.48 -3.0579 -2.6049 0
M  V30 60903 N 5972.68 -2.56737 -1.36141 0
M  V30 60904 H 5972.23 -2.53319 -0.467699 0
M  V30 60905 H 5972.19 -2.26896 -2.17637 0
M  V30 60906 N 5975.96 -0.703167 -1.41044 0
M  V30 60907 C 5977.21 -0.234417 -2.00333 0
M  V30 60908 C 5977.52 1.17519 -1.56361 0
M  V30 60909 O 5978.73 1.74181 -2.08263 0
M  V30 60910 C 5977.18 -0.368193 -3.58012 0
M  V30 60911 C 5976.79 -1.78365 -4.10962 0
M  V30 60912 C 5978.53 0.0403964 -4.24481 0
M  V30 60913 C 5976.44 -1.86867 -5.61101 0
M  V30 60914 H 5975.37 -0.0838846 -0.749319 0
M  V30 60915 H 5978.02 -0.872464 -1.61432 0
M  V30 60916 H 5976.4 0.338232 -3.94553 0
M  V30 60917 H 5977.58 -2.51945 -3.85824 0
M  V30 60918 H 5975.89 -2.14259 -3.57046 0
M  V30 60919 H 5978.49 -0.002586 -5.347 0
M  V30 60920 H 5978.83 1.08035 -4.02038 0
M  V30 60921 H 5979.37 -0.616025 -3.93001 0
M  V30 60922 H 5976.11 -2.88941 -5.88382 0
M  V30 60923 H 5975.63 -1.17682 -5.88142 0
M  V30 60924 H 5977.3 -1.63506 -6.25999 0
M  V30 60925 N 5977.44 1.51085 -0.448455 0
M  V30 60926 C 5978.37 2.258 0.393322 0
M  V30 60927 C 5979.38 1.30244 0.976747 0
M  V30 60928 O 5980.57 1.55919 0.868996 0
M  V30 60929 C 5977.67 3.00687 1.56335 0
M  V30 60930 C 5976.84 4.23425 1.0968 0
M  V30 60931 C 5975.9 4.80797 2.13823 0
M  V30 60932 O 5974.93 5.42335 1.72804 0
M  V30 60933 N 5976.13 4.65804 3.4642 0
M  V30 60934 H 5978.9 2.9868 -0.247091 0
M  V30 60935 H 5976.46 1.59496 -0.277958 0
M  V30 60936 H 5978.45 3.35953 2.2565 0
M  V30 60937 H 5977.02 2.30748 2.10889 0
M  V30 60938 H 5976.24 3.93527 0.230318 0
M  V30 60939 H 5977.53 5.03052 0.762656 0
M  V30 60940 H 5976.92 4.16812 3.82471 0
M  V30 60941 H 5975.48 5.05401 4.11598 0
M  V30 60942 N 5978.91 0.180209 1.56566 0
M  V30 60943 C 5980.16 -0.456581 1.98209 0
M  V30 60944 C 5980.52 -1.60258 1.06466 0
M  V30 60945 O 5979.81 -1.91306 0.106078 0
M  V30 60946 C 5980 -0.978774 3.43736 0
M  V30 60947 C 5979.83 0.115094 4.49553 0
M  V30 60948 C 5978.6 0.567748 5.021 0
M  V30 60949 C 5980.8 0.918706 5.06028 0
M  V30 60950 N 5978.78 1.64099 5.91561 0
M  V30 60951 C 5980.15 1.84168 5.92015 0
M  V30 60952 C 5982.21 0.962792 4.88503 0
M  V30 60953 C 5980.91 2.80504 6.62352 0
M  V30 60954 C 5982.94 1.91413 5.59567 0
M  V30 60955 C 5982.3 2.82457 6.45289 0
M  V30 60956 H 5978.4 -0.134923 0.770273 0
M  V30 60957 H 5980.98 0.282476 1.9264 0
M  V30 60958 H 5979.15 -1.68732 3.49834 0
M  V30 60959 H 5980.88 -1.58493 3.72373 0
M  V30 60960 H 5977.64 0.163815 4.73317 0
M  V30 60961 H 5978.06 2.17837 6.40996 0
M  V30 60962 H 5982.71 0.272923 4.21918 0
M  V30 60963 H 5980.42 3.50474 7.28144 0
M  V30 60964 H 5984.01 1.95446 5.47989 0
M  V30 60965 H 5982.89 3.54871 6.99311 0
M  V30 60966 N 5980.39 -1.57323 -0.0934766 0
M  V30 60967 C 5981.8 -1.75101 -0.647809 0
M  V30 60968 C 5982.15 -0.802621 -1.79032 0
M  V30 60969 O 5981.28 0.0185043 -2.16392 0
M  V30 60970 C 5981.87 -3.17516 -1.18192 0
M  V30 60971 C 5980.43 -3.36713 -1.6823 0
M  V30 60972 C 5979.58 -2.70895 -0.592554 0
M  V30 60973 H 5982.53 -1.58145 0.132602 0
M  V30 60974 H 5982.55 -3.20477 -2.05121 0
M  V30 60975 H 5982.06 -3.86517 -0.350161 0
M  V30 60976 H 5980.17 -2.72793 -2.53801 0
M  V30 60977 H 5980.28 -4.45039 -1.77418 0
M  V30 60978 H 5978.64 -2.32838 -1.03239 0
M  V30 60979 H 5979.43 -3.42538 0.228649 0
M  V30 60980 N 5981.87 0.364341 -1.53331 0
M  V30 60981 C 5983.1 1.12743 -1.73483 0
M  V30 60982 C 5983.51 1.83 -0.464364 0
M  V30 60983 O 5982.87 1.73605 0.562802 0
M  V30 60984 C 5982.92 2.15681 -2.90111 0
M  V30 60985 O 5982.64 1.48284 -4.12242 0
M  V30 60986 C 5984.14 3.04527 -3.22146 0
M  V30 60987 H 5981.36 0.337063 -0.580198 0
M  V30 60988 H 5983.91 0.422882 -2.0008 0
M  V30 60989 H 5982.06 2.81732 -2.65905 0
M  V30 60990 H 5982.48 2.16879 -4.7756 0
M  V30 60991 H 5983.95 3.72733 -4.07154 0
M  V30 60992 H 5984.43 3.69406 -2.37563 0
M  V30 60993 H 5985.03 2.4409 -3.48281 0
M  V30 60994 N 5983.35 1.44711 0.624209 0
M  V30 60995 C 5984.6 1.47566 1.38089 0
M  V30 60996 C 5984.92 0.112183 1.94677 0
M  V30 60997 O 5984.19 -0.856396 1.76189 0
M  V30 60998 H 5982.77 0.543386 0.512582 0
M  V30 60999 H 5985.43 1.80542 0.734195 0
M  V30 61000 H 5984.53 2.20503 2.20873 0
M  V30 61001 N 5984.83 -0.865239 1.31725 0
M  V30 61002 C 5985.76 -1.98867 1.22369 0
M  V30 61003 C 5986.74 -1.69745 0.109839 0
M  V30 61004 O 5987.92 -1.91943 0.295235 0
M  V30 61005 C 5985.05 -3.34474 0.935118 0
M  V30 61006 C 5984.01 -3.77916 2.00906 0
M  V30 61007 C 5983.33 -5.11036 1.57309 0
M  V30 61008 C 5984.63 -3.94516 3.42278 0
M  V30 61009 H 5986.33 -2.06952 2.16359 0
M  V30 61010 H 5983.87 -0.994318 1.0416 0
M  V30 61011 H 5985.83 -4.12609 0.856256 0
M  V30 61012 H 5984.55 -3.26575 -0.0404388 0
M  V30 61013 H 5983.21 -3.02025 2.07789 0
M  V30 61014 H 5982.86 -4.99584 0.585259 0
M  V30 61015 H 5982.56 -5.41074 2.29157 0
M  V30 61016 H 5984.08 -5.91676 1.50839 0
M  V30 61017 H 5985.49 -4.63033 3.38043 0
M  V30 61018 H 5983.89 -4.35958 4.12384 0
M  V30 61019 H 5984.96 -2.97752 3.82717 0
M  V30 61020 N 5986.31 -1.14762 -1.08016 0
M  V30 61021 C 5987.27 -0.840934 -2.13216 0
M  V30 61022 C 5988.27 0.156253 -1.60039 0
M  V30 61023 O 5989.46 -0.0725755 -1.74049 0
M  V30 61024 C 5986.59 -0.254328 -3.3995 0
M  V30 61025 H 5987.78 -1.77332 -2.41854 0
M  V30 61026 H 5985.34 -0.95419 -1.23794 0
M  V30 61027 H 5986.07 0.68658 -3.16949 0
M  V30 61028 H 5985.86 -0.972632 -3.79845 0
M  V30 61029 H 5987.35 -0.0571019 -4.17561 0
M  V30 61030 N 5987.78 1.26247 -0.943366 0
M  V30 61031 C 5989.03 1.93937 -0.592978 0
M  V30 61032 C 5989.36 1.73817 0.866094 0
M  V30 61033 O 5988.64 1.0765 1.61993 0
M  V30 61034 C 5988.92 3.47649 -0.938723 0
M  V30 61035 C 5988.77 3.77045 -2.4527 0
M  V30 61036 C 5990.09 4.37734 -0.4557 0
M  V30 61037 H 5987.21 0.704359 -0.216904 0
M  V30 61038 H 5989.85 1.49076 -1.17798 0
M  V30 61039 H 5988 3.8599 -0.440891 0
M  V30 61040 H 5989.68 3.48406 -3.02342 0
M  V30 61041 H 5987.92 3.23045 -2.89524 0
M  V30 61042 H 5988.59 4.84497 -2.64512 0
M  V30 61043 H 5991.07 4.06632 -0.882577 0
M  V30 61044 H 5989.94 5.44072 -0.726421 0
M  V30 61045 H 5990.2 4.37379 0.644354 0
M  V30 61046 N 5989.26 0.710637 1.40669 0
M  V30 61047 C 5990.54 0.175387 1.94812 0
M  V30 61048 C 5990.92 -1.31786 1.64911 0
M  V30 61049 O 5990.27 -2.07164 0.964131 0
M  V30 61050 C 5990.48 0.482813 3.45644 0
M  V30 61051 C 5991.82 0.418767 4.2253 0
M  V30 61052 O 5992.85 0.418587 3.53732 0
M  V30 61053 O 5991.71 0.391979 5.45092 0
M  V30 61054 H 5988.8 0.0238035 0.826657 0
M  V30 61055 H 5991.35 0.787831 1.50304 0
M  V30 61056 H 5990.12 1.51581 3.60748 0
M  V30 61057 H 5989.74 -0.159844 3.97279 0
M  V30 61058 N 5990.74 -1.50845 0.456461 0
M  V30 61059 C 5991.97 -2.0635 -0.101517 0
M  V30 61060 C 5992.38 -1.32202 -1.35348 0
M  V30 61061 O 5991.72 -0.380496 -1.79716 0
M  V30 61062 C 5991.78 -3.56412 -0.470158 0
M  V30 61063 C 5991.45 -4.51947 0.677705 0
M  V30 61064 C 5992.44 -4.96085 1.55549 0
M  V30 61065 C 5990.13 -4.94816 0.863875 0
M  V30 61066 C 5992.12 -5.81784 2.60397 0
M  V30 61067 C 5989.81 -5.803 1.9156 0
M  V30 61068 C 5990.81 -6.23683 2.78403 0
M  V30 61069 O 5990.5 -7.07467 3.81767 0
M  V30 61070 H 5990.23 -0.675994 -0.00280997 0
M  V30 61071 H 5992.78 -1.95176 0.639962 0
M  V30 61072 H 5991.01 -3.65437 -1.26462 0
M  V30 61073 H 5992.7 -3.94347 -0.96151 0
M  V30 61074 H 5993.47 -4.63646 1.42328 0
M  V30 61075 H 5989.35 -4.60577 0.197447 0
M  V30 61076 H 5992.89 -6.15567 3.28212 0
M  V30 61077 H 5988.79 -6.12152 2.04794 0
M  V30 61078 H 5989.55 -7.25686 3.78578 0
M  V30 61079 N 5992.22 -0.188509 -1.56469 0
M  V30 61080 C 5993.17 0.747656 -2.15393 0
M  V30 61081 C 5994.15 1.1809 -1.09286 0
M  V30 61082 O 5995.34 1.1404 -1.35366 0
M  V30 61083 C 5992.47 1.96975 -2.81169 0
M  V30 61084 C 5991.56 1.5577 -3.94457 0
M  V30 61085 N 5991.95 0.856225 -4.985 0
M  V30 61086 C 5990.25 1.84748 -4.05936 0
M  V30 61087 C 5990.95 0.650723 -5.78049 0
M  V30 61088 N 5989.92 1.19744 -5.30248 0
M  V30 61089 H 5993.73 0.202925 -2.93199 0
M  V30 61090 H 5991.24 0.011531 -1.62396 0
M  V30 61091 H 5993.24 2.65083 -3.21771 0
M  V30 61092 H 5991.9 2.51927 -2.04849 0
M  V30 61093 H 5992.91 0.512402 -5.15359 0
M  V30 61094 H 5989.59 2.41255 -3.40738 0
M  V30 61095 H 5990.98 0.0947377 -6.71833 0
M  V30 61096 N 5993.7 1.5737 0.0851321 0
M  V30 61097 C 5994.64 2.03785 1.12135 0
M  V30 61098 C 5995.64 0.940718 1.40879 0
M  V30 61099 O 5996.84 1.12587 1.40443 0
M  V30 61100 H 5993.22 0.649573 0.378891 0
M  V30 61101 H 5995.19 2.89985 0.703634 0
M  V30 61102 C 5993.94 2.48637 2.43054 0
M  V30 61103 H 5993.26 3.32645 2.21783 0
M  V30 61104 H 5994.7 2.8488 3.14038 0
M  V30 61105 C 5993.16 1.36375 3.08064 0
M  V30 61106 O 5993.69 0.698412 3.95582 0
M  V30 61107 N 5991.9 1.11222 2.68473 0
M  V30 61108 H 5991.44 1.65507 1.97396 0
M  V30 61109 H 5991.4 0.363113 3.12296 0
M  V30 61110 N 5995.17 -0.356204 1.53522 0
M  V30 61111 C 5996.08 -1.46049 1.83595 0
M  V30 61112 C 5997.1 -1.58174 0.725052 0
M  V30 61113 O 5998.28 -1.73891 1.01607 0
M  V30 61114 C 5995.34 -2.812 2.02799 0
M  V30 61115 C 5994.4 -2.78524 3.26685 0
M  V30 61116 C 5993.63 -4.07229 3.44964 0
M  V30 61117 O 5993.86 -5.0387 2.67341 0
M  V30 61118 O 5992.79 -4.1247 4.38352 0
M  V30 61119 H 5996.62 -1.23556 2.7743 0
M  V30 61120 H 5994.2 -0.547194 1.39019 0
M  V30 61121 H 5996.08 -3.61263 2.16949 0
M  V30 61122 H 5994.76 -3.0365 1.12153 0
M  V30 61123 H 5993.67 -1.97126 3.1795 0
M  V30 61124 H 5995 -2.61028 4.17283 0
M  V30 61125 N 5996.65 -1.4504 -0.616526 0
M  V30 61126 C 5998.07 -1.29249 -0.936313 0
M  V30 61127 C 5998.27 -0.238949 -2.00078 0
M  V30 61128 O 5997.32 0.370177 -2.49772 0
M  V30 61129 C 5998.64 -2.66868 -1.38572 0
M  V30 61130 C 6000.18 -2.74694 -1.50041 0
M  V30 61131 C 6000.66 -4.12816 -1.98361 0
M  V30 61132 N 6002.15 -4.15066 -2.05608 0
M  V30 61133 C 6002.89 -5.18801 -2.44198 0
M  V30 61134 N 6002.38 -6.3289 -2.8182 0
M  V30 61135 N 6004.17 -5.06158 -2.44459 0
M  V30 61136 H 5996.33 -2.12221 0.0872051 0
M  V30 61137 H 5998.59 -0.947705 -0.0236326 0
M  V30 61138 H 5998.29 -3.45107 -0.67779 0
M  V30 61139 H 5998.17 -2.94734 -2.35396 0
M  V30 61140 H 6000.56 -1.96764 -2.19928 0
M  V30 61141 H 6000.64 -2.50551 -0.515543 0
M  V30 61142 H 6000.28 -4.91228 -1.29064 0
M  V30 61143 H 6000.21 -4.34345 -2.97745 0
M  V30 61144 H 6002.7 -3.32732 -1.79159 0
M  V30 61145 H 6003.01 -7.07845 -3.10122 0
M  V30 61146 H 6001.36 -6.36305 -2.79537 0
M  V30 61147 H 6004.55 -4.16078 -2.14468 0
M  V30 61148 H 6004.72 -5.87123 -2.74208 0
M  V30 61149 N 5998.13 0.858241 -1.32182 0
M  V30 61150 C 5999.06 1.98215 -1.23422 0
M  V30 61151 C 6000.04 1.69684 -0.118839 0
M  V30 61152 O 6001.23 1.91783 -0.30541 0
M  V30 61153 C 5998.36 3.33973 -0.952843 0
M  V30 61154 C 5997.31 3.76846 -2.02907 0
M  V30 61155 C 5996.64 5.10195 -1.60016 0
M  V30 61156 C 5997.94 3.92695 -3.44366 0
M  V30 61157 H 5999.63 2.05801 -2.17454 0
M  V30 61158 H 5997.18 0.98878 -1.04686 0
M  V30 61159 H 5999.13 4.12149 -0.878125 0
M  V30 61160 H 5997.85 3.26592 0.0231192 0
M  V30 61161 H 5996.51 3.00919 -2.09388 0
M  V30 61162 H 5996.16 4.99266 -0.611745 0
M  V30 61163 H 5995.86 5.39851 -2.32023 0
M  V30 61164 H 5997.38 5.90867 -1.53974 0
M  V30 61165 H 5998.8 4.61234 -3.40494 0
M  V30 61166 H 5997.19 4.33765 -4.14691 0
M  V30 61167 H 5998.26 2.95718 -3.8429 0
M  V30 61168 N 5999.61 1.15334 1.07405 0
M  V30 61169 C 6000.84 0.950328 1.83446 0
M  V30 61170 C 6001.25 -0.504697 1.82344 0
M  V30 61171 O 6000.59 -1.36179 1.23292 0
M  V30 61172 C 6000.65 1.38663 3.31682 0
M  V30 61173 C 6000.31 2.85927 3.56504 0
M  V30 61174 C 6001.31 3.83993 3.50493 0
M  V30 61175 C 5999 3.23582 3.84188 0
M  V30 61176 C 6000.99 5.1772 3.71813 0
M  V30 61177 C 5998.68 4.57481 4.05159 0
M  V30 61178 C 5999.68 5.54359 3.98967 0
M  V30 61179 O 5999.36 6.8584 4.19378 0
M  V30 61180 H 5999.1 0.337636 0.585643 0
M  V30 61181 H 6001.65 1.53494 1.36487 0
M  V30 61182 H 5999.88 0.745416 3.79448 0
M  V30 61183 H 6001.57 1.15281 3.89185 0
M  V30 61184 H 6002.33 3.56248 3.29108 0
M  V30 61185 H 5998.21 2.48762 3.88122 0
M  V30 61186 H 6001.76 5.93324 3.66895 0
M  V30 61187 H 5997.65 4.84942 4.2603 0
M  V30 61188 H 5998.42 6.9225 4.36729 0
M  V30 61189 N 6001.09 -1.25745 0.950048 0
M  V30 61190 C 6002.33 -1.93949 0.612802 0
M  V30 61191 C 6002.69 -1.73081 -0.840278 0
M  V30 61192 O 6001.98 -1.06253 -1.59439 0
M  V30 61193 C 6002.17 -3.4584 0.901642 0
M  V30 61194 C 6002 -3.8148 2.38125 0
M  V30 61195 C 6000.77 -4.03775 3.03799 0
M  V30 61196 C 6002.97 -3.89343 3.36031 0
M  V30 61197 N 6000.95 -4.2637 4.4168 0
M  V30 61198 C 6002.32 -4.16574 4.59202 0
M  V30 61199 C 6004.38 -3.72006 3.30932 0
M  V30 61200 C 6003.08 -4.28271 5.77907 0
M  V30 61201 C 6005.11 -3.84939 4.48972 0
M  V30 61202 C 6004.47 -4.12578 5.70928 0
M  V30 61203 H 6000.57 -0.732137 0.274771 0
M  V30 61204 H 6003.15 -1.51634 1.22128 0
M  V30 61205 H 6001.32 -3.87062 0.322133 0
M  V30 61206 H 6003.06 -4.01283 0.524765 0
M  V30 61207 H 5999.81 -3.99481 2.54386 0
M  V30 61208 H 6000.24 -4.41683 5.13074 0
M  V30 61209 H 6004.88 -3.49658 2.37695 0
M  V30 61210 H 6002.6 -4.49436 6.7159 0
M  V30 61211 H 6006.18 -3.72917 4.46569 0
M  V30 61212 H 6005.06 -4.22362 6.60742 0
M  V30 61213 N 6002.56 -0.718087 -1.4029 0
M  V30 61214 C 6003.53 -0.0758288 -2.29075 0
M  V30 61215 C 6004.53 0.684779 -1.4549 0
M  V30 61216 O 6005.72 0.51631 -1.66373 0
M  V30 61217 C 6002.85 0.902418 -3.28739 0
M  V30 61218 H 6004.04 -0.85783 -2.8737 0
M  V30 61219 H 6001.6 -0.482891 -1.48653 0
M  V30 61220 H 6002.33 1.71138 -2.75467 0
M  V30 61221 H 6002.12 0.359871 -3.90445 0
M  V30 61222 H 6003.61 1.3489 -3.95215 0
M  V30 61223 N 6004.04 1.50601 -0.464455 0
M  V30 61224 C 6005.32 1.94992 0.154078 0
M  V30 61225 C 6005.7 1.40452 1.57596 0
M  V30 61226 O 6005.05 0.602746 2.20407 0
M  V30 61227 C 6005.26 3.48844 0.104173 0
M  V30 61228 C 6006.61 4.23565 0.296357 0
M  V30 61229 O 6007.63 3.5574 0.181062 0
M  V30 61230 O 6006.49 5.43939 0.528477 0
M  V30 61231 H 6003.58 0.818926 0.115282 0
M  V30 61232 H 6006.13 1.61395 -0.524381 0
M  V30 61233 H 6004.9 3.81072 -0.888824 0
M  V30 61234 H 6004.52 3.8896 0.824378 0
M  V30 61235 N 6005.52 0.196805 1.56366 0
M  V30 61236 C 6006.48 -0.709657 2.17937 0
M  V30 61237 C 6007.48 -1.13975 1.1343 0
M  V30 61238 O 6008.67 -1.05257 1.38805 0
M  V30 61239 C 6005.81 -1.96907 2.78281 0
M  V30 61240 H 6007 -0.173237 2.99399 0
M  V30 61241 H 6004.55 -0.0528149 1.56211 0
M  V30 61242 H 6005.29 -2.54797 2.00622 0
M  V30 61243 H 6005.07 -1.66939 3.54787 0
M  V30 61244 H 6006.56 -2.61543 3.25554 0
M  V30 61245 N 6007 -1.57413 -0.0767852 0
M  V30 61246 C 6007.95 -2.03344 -1.09178 0
M  V30 61247 C 6008.92 -0.913122 -1.38749 0
M  V30 61248 O 6010.1 -1.18043 -1.49901 0
M  V30 61249 C 6007.24 -2.47813 -2.40172 0
M  V30 61250 C 6006.35 -3.73442 -2.17174 0
M  V30 61251 C 6005.49 -4.06715 -3.41697 0
M  V30 61252 C 6004.53 -5.25399 -3.14041 0
M  V30 61253 N 6003.66 -5.54334 -4.3088 0
M  V30 61254 H 6008.5 -2.89827 -0.693121 0
M  V30 61255 H 6006.04 -1.43335 -0.330685 0
M  V30 61256 H 6008 -2.71646 -3.16645 0
M  V30 61257 H 6006.63 -1.64314 -2.7785 0
M  V30 61258 H 6005.68 -3.56979 -1.31417 0
M  V30 61259 H 6006.99 -4.60056 -1.92744 0
M  V30 61260 H 6006.15 -4.31422 -4.26568 0
M  V30 61261 H 6004.89 -3.18659 -3.69199 0
M  V30 61262 H 6003.89 -5.00494 -2.27566 0
M  V30 61263 H 6005.12 -6.15069 -2.87867 0
M  V30 61264 H 6003.06 -4.69238 -4.58423 0
M  V30 61265 H 6002.98 -6.35357 -4.09705 0
M  V30 61266 H 6004.25 -5.83589 -5.16763 0
M  V30 61267 N 6008.48 0.348057 -1.53709 0
M  V30 61268 C 6009.41 1.43289 -1.84365 0
M  V30 61269 C 6010.39 1.551 -0.69843 0
M  V30 61270 O 6011.57 1.69381 -0.949924 0
M  V30 61271 C 6008.7 2.804 -2.04922 0
M  V30 61272 C 6007.66 2.834 -3.20731 0
M  V30 61273 C 6006.98 4.23354 -3.26612 0
M  V30 61274 C 6008.28 2.49342 -4.5894 0
M  V30 61275 H 6009.98 1.17882 -2.75216 0
M  V30 61276 H 6007.52 0.565645 -1.32425 0
M  V30 61277 H 6009.48 3.56335 -2.24952 0
M  V30 61278 H 6008.2 3.07232 -1.10797 0
M  V30 61279 H 6006.86 2.09918 -3.00549 0
M  V30 61280 H 6006.51 4.47289 -2.30091 0
M  V30 61281 H 6006.21 4.26273 -4.04432 0
M  V30 61282 H 6007.73 5.01137 -3.48847 0
M  V30 61283 H 6009.14 3.14989 -4.79014 0
M  V30 61284 H 6007.54 2.63551 -5.3913 0
M  V30 61285 H 6008.61 1.44541 -4.62856 0
M  V30 61286 N 6009.95 1.45365 0.608825 0
M  V30 61287 C 6011.18 1.5307 1.39943 0
M  V30 61288 C 6011.6 0.163756 1.87386 0
M  V30 61289 O 6010.96 -0.851376 1.60067 0
M  V30 61290 C 6011.01 2.51845 2.58082 0
M  V30 61291 O 6010.11 2.0354 3.58671 0
M  V30 61292 H 6009.46 0.516046 0.417843 0
M  V30 61293 H 6011.99 1.90708 0.741063 0
M  V30 61294 H 6012 2.70611 3.05342 0
M  V30 61295 H 6010.67 3.51124 2.229 0
M  V30 61296 H 6009.25 1.94646 3.18068 0
M  V30 61297 N 6011.43 -0.851219 1.32635 0
M  V30 61298 C 6012.68 -1.60802 1.23574 0
M  V30 61299 C 6013.01 -1.93155 -0.201171 0
M  V30 61300 O 6012.29 -1.57644 -1.13924 0
M  V30 61301 C 6012.57 -2.92611 2.09882 0
M  V30 61302 C 6012.42 -2.67018 3.61969 0
M  V30 61303 C 6013.74 -3.93917 1.96258 0
M  V30 61304 H 6010.86 -0.583476 0.450249 0
M  V30 61305 H 6013.5 -0.982673 1.62615 0
M  V30 61306 H 6011.65 -3.45982 1.76716 0
M  V30 61307 H 6013.32 -2.20175 4.05365 0
M  V30 61308 H 6011.57 -2.00924 3.84463 0
M  V30 61309 H 6012.24 -3.60888 4.17689 0
M  V30 61310 H 6014.71 -3.49815 2.2532 0
M  V30 61311 H 6013.59 -4.83996 2.58919 0
M  V30 61312 H 6013.85 -4.32181 0.931217 0
M  V30 61313 N 6012.91 -1.15902 -1.06792 0
M  V30 61314 C 6014.16 -0.931911 -1.78881 0
M  V30 61315 C 6014.47 0.541904 -1.87944 0
M  V30 61316 O 6015.68 0.886758 -2.5661 0
M  V30 61317 C 6014.13 -1.61799 -3.21479 0
M  V30 61318 C 6013.74 -3.12922 -3.20599 0
M  V30 61319 C 6015.49 -1.47266 -3.98137 0
M  V30 61320 C 6013.39 -3.74291 -4.57886 0
M  V30 61321 H 6012.32 -0.345021 -0.67043 0
M  V30 61322 H 6014.97 -1.38978 -1.19822 0
M  V30 61323 H 6013.36 -1.08782 -3.80766 0
M  V30 61324 H 6014.53 -3.72742 -2.70925 0
M  V30 61325 H 6012.85 -3.27282 -2.5744 0
M  V30 61326 H 6015.44 -1.90502 -4.99613 0
M  V30 61327 H 6015.79 -0.420911 -4.14167 0
M  V30 61328 H 6016.32 -1.97411 -3.45361 0
M  V30 61329 H 6013.06 -4.79392 -4.47061 0
M  V30 61330 H 6012.58 -3.19256 -5.07775 0
M  V30 61331 H 6014.26 -3.75551 -5.2685 0
M  V30 61332 N 6014.39 1.2524 -0.956703 0
M  V30 61333 C 6015.64 1.9263 -0.611396 0
M  V30 61334 C 6015.96 1.75275 0.854609 0
M  V30 61335 O 6015.23 1.11764 1.6089 0
M  V30 61336 H 6013.81 0.712896 -0.223134 0
M  V30 61337 H 6016.47 1.52362 -1.21539 0
M  V30 61338 H 6015.57 3.00513 -0.842502 0
M  V30 61339 N 6015.87 0.725517 1.39907 0
M  V30 61340 C 6017.09 0.277894 2.0553 0
M  V30 61341 C 6017.52 -1.07541 1.54326 0
M  V30 61342 O 6016.88 -1.67947 0.682887 0
M  V30 61343 C 6016.92 0.278802 3.59521 0
M  V30 61344 O 6016.03 -0.736722 4.05766 0
M  V30 61345 H 6015.37 0.128266 0.651494 0
M  V30 61346 H 6017.9 0.988784 1.79121 0
M  V30 61347 H 6017.91 0.119908 4.07824 0
M  V30 61348 H 6016.58 1.26634 3.96152 0
M  V30 61349 H 6015.16 -0.54474 3.689 0
M  V30 61350 N 6017.35 -1.50352 0.472435 0
M  V30 61351 C 6018.59 -2.01526 -0.0837827 0
M  V30 61352 C 6018.91 -1.35918 -1.40662 0
M  V30 61353 O 6020.11 -1.78255 -2.04786 0
M  V30 61354 C 6018.57 -3.59345 -0.199822 0
M  V30 61355 C 6018.18 -4.33912 1.11466 0
M  V30 61356 C 6019.92 -4.18555 -0.707928 0
M  V30 61357 C 6017.83 -5.83518 0.962344 0
M  V30 61358 H 6016.76 -0.753183 -0.0350862 0
M  V30 61359 H 6019.41 -1.73151 0.607535 0
M  V30 61360 H 6017.79 -3.84313 -0.954952 0
M  V30 61361 H 6018.97 -4.20667 1.88085 0
M  V30 61362 H 6017.28 -3.86316 1.55398 0
M  V30 61363 H 6019.88 -5.28078 -0.83894 0
M  V30 61364 H 6020.22 -3.80025 -1.6996 0
M  V30 61365 H 6020.75 -3.97799 -0.0101448 0
M  V30 61366 H 6017.49 -6.26523 1.92742 0
M  V30 61367 H 6017.01 -5.99333 0.236558 0
M  V30 61368 H 6018.69 -6.4393 0.629503 0
M  V30 61369 N 6018.82 -0.205094 -1.5626 0
M  V30 61370 C 6020.24 0.150588 -1.58888 0
M  V30 61371 C 6020.44 1.60252 -1.22154 0
M  V30 61372 O 6019.5 2.33988 -0.948994 0
M  V30 61373 C 6020.81 -0.160816 -3.0027 0
M  V30 61374 C 6022.36 -0.101726 -3.12835 0
M  V30 61375 C 6022.83 -0.386577 -4.56366 0
M  V30 61376 N 6024.32 -0.335554 -4.61983 0
M  V30 61377 C 6025.06 -0.529674 -5.70948 0
M  V30 61378 N 6024.55 -0.784683 -6.88342 0
M  V30 61379 N 6026.35 -0.463241 -5.60188 0
M  V30 61380 H 6018.5 -1.15244 -1.78417 0
M  V30 61381 H 6020.76 -0.460727 -0.828513 0
M  V30 61382 H 6020.47 -1.16792 -3.31742 0
M  V30 61383 H 6020.34 0.531936 -3.7343 0
M  V30 61384 H 6022.73 0.895994 -2.81169 0
M  V30 61385 H 6022.81 -0.827707 -2.42039 0
M  V30 61386 H 6022.45 -1.38166 -4.88746 0
M  V30 61387 H 6022.38 0.360407 -5.25365 0
M  V30 61388 H 6024.87 -0.145479 -3.7762 0
M  V30 61389 H 6025.19 -0.921346 -7.67288 0
M  V30 61390 H 6023.53 -0.821691 -6.90126 0
M  V30 61391 H 6026.72 -0.264364 -4.67353 0
M  V30 61392 H 6026.9 -0.617939 -6.45047 0
M  V30 61393 N 6020.3 1.57451 0.0684361 0
M  V30 61394 C 6021.23 2.06958 1.08123 0
M  V30 61395 C 6022.21 0.963766 1.40163 0
M  V30 61396 O 6023.4 1.23669 1.49732 0
M  V30 61397 C 6020.53 2.51631 2.39373 0
M  V30 61398 C 6019.48 3.66119 2.21677 0
M  V30 61399 C 6018.81 3.96859 3.5834 0
M  V30 61400 C 6020.11 4.96042 1.63523 0
M  V30 61401 H 6021.8 2.91824 0.669257 0
M  V30 61402 H 6019.35 1.40388 0.320484 0
M  V30 61403 H 6021.3 2.84878 3.1052 0
M  V30 61404 H 6020.02 1.63798 2.82556 0
M  V30 61405 H 6018.68 3.3316 1.52971 0
M  V30 61406 H 6018.33 3.06151 3.991 0
M  V30 61407 H 6018.03 4.73952 3.47338 0
M  V30 61408 H 6019.56 4.32605 4.30912 0
M  V30 61409 H 6020.97 5.27499 2.2454 0
M  V30 61410 H 6019.37 5.7748 1.63208 0
M  V30 61411 H 6020.44 4.81211 0.59703 0
M  V30 61412 N 6021.78 -0.339901 1.53891 0
M  V30 61413 C 6022.73 -1.43781 1.82838 0
M  V30 61414 C 6023.72 -1.54301 0.699112 0
M  V30 61415 O 6024.93 -1.56881 0.88251 0
M  V30 61416 H 6021.3 -0.479477 0.579315 0
M  V30 61417 H 6023.27 -1.16582 2.74684 0
M  V30 61418 C 6022.02 -2.8025 2.05804 0
M  V30 61419 H 6021.35 -2.72923 2.92153 0
M  V30 61420 H 6022.79 -3.56183 2.30022 0
M  V30 61421 C 6021.24 -3.2614 0.844647 0
M  V30 61422 O 6021.77 -4.01674 0.0458534 0
M  V30 61423 N 6019.98 -2.82986 0.660848 0
M  V30 61424 H 6019.53 -2.21682 1.31205 0
M  V30 61425 H 6019.49 -3.14044 -0.149551 0
M  V30 61426 N 6023.26 -1.45686 -0.601108 0
M  V30 61427 C 6024.51 -1.49744 -1.35724 0
M  V30 61428 C 6024.83 -0.14314 -1.94474 0
M  V30 61429 O 6024.1 0.828258 -1.77529 0
M  V30 61430 H 6022.68 -0.551472 -0.503872 0
M  V30 61431 H 6025.34 -1.81688 -0.705379 0
M  V30 61432 H 6024.43 -2.23989 -2.17337 0
M  V30 61433 N 6024.74 0.844173 -1.33084 0
M  V30 61434 C 6025.96 1.63128 -1.27267 0
M  V30 61435 C 6026.38 1.88143 0.157413 0
M  V30 61436 O 6025.74 1.45784 1.09788 0
M  V30 61437 C 6025.79 2.98455 -2.03977 0
M  V30 61438 O 6025.51 2.74543 -3.41406 0
M  V30 61439 C 6027.01 3.92892 -2.05307 0
M  V30 61440 H 6024.23 0.507754 -0.438665 0
M  V30 61441 H 6026.77 1.05188 -1.75373 0
M  V30 61442 H 6024.93 3.53012 -1.59566 0
M  V30 61443 H 6025.34 3.60681 -3.80802 0
M  V30 61444 H 6026.82 4.85078 -2.63444 0
M  V30 61445 H 6027.29 4.26661 -1.04198 0
M  V30 61446 H 6027.9 3.44273 -2.49713 0
M  V30 61447 N 6026.21 1.16466 1.06176 0
M  V30 61448 C 6027.49 0.8571 1.75821 0
M  V30 61449 C 6027.87 -0.644815 2.01011 0
M  V30 61450 O 6027.22 -1.59299 1.63817 0
M  V30 61451 C 6027.43 1.6811 3.05843 0
M  V30 61452 C 6028.78 1.89483 3.79976 0
M  V30 61453 O 6029.8 1.64986 3.15687 0
M  V30 61454 O 6028.66 2.3059 4.9547 0
M  V30 61455 H 6025.75 0.316391 0.764085 0
M  V30 61456 H 6028.3 1.27109 1.12434 0
M  V30 61457 H 6027.07 2.70024 2.83201 0
M  V30 61458 H 6026.69 1.26424 3.76965 0
M  V30 61459 N 6027.69 -1.2473 0.963332 0
M  V30 61460 C 6029.1 -1.74558 0.662307 0
M  V30 61461 C 6029.45 -1.78146 -0.822106 0
M  V30 61462 O 6028.58 -1.408 -1.6433 0
M  V30 61463 C 6029.17 -3.17005 1.19554 0
M  V30 61464 C 6027.73 -3.64357 0.944499 0
M  V30 61465 C 6026.88 -2.43135 1.33344 0
M  V30 61466 H 6029.83 -1.10494 1.13915 0
M  V30 61467 H 6029.85 -3.76361 0.559733 0
M  V30 61468 H 6029.36 -3.14362 2.27592 0
M  V30 61469 H 6027.46 -3.72405 -0.120551 0
M  V30 61470 H 6027.58 -4.5205 1.58707 0
M  V30 61471 H 6025.94 -2.43351 0.751815 0
M  V30 61472 H 6026.72 -2.43176 2.42323 0
M  V30 61473 N 6029.17 -0.732927 -1.3952 0
M  V30 61474 C 6030.42 -0.276857 -1.99791 0
M  V30 61475 C 6030.73 1.14176 -1.58818 0
M  V30 61476 O 6031.94 1.69724 -2.1191 0
M  V30 61477 C 6030.39 -0.44405 -3.5715 0
M  V30 61478 C 6030 -1.87042 -4.07086 0
M  V30 61479 C 6031.75 -0.0496514 -4.24471 0
M  V30 61480 C 6029.65 -1.98727 -5.57011 0
M  V30 61481 H 6028.58 -0.0997599 -0.747371 0
M  V30 61482 H 6031.23 -0.90651 -1.59545 0
M  V30 61483 H 6029.62 0.254466 -3.95182 0
M  V30 61484 H 6030.79 -2.60072 -3.80394 0
M  V30 61485 H 6029.1 -2.21784 -3.52421 0
M  V30 61486 H 6031.7 -0.116003 -5.34574 0
M  V30 61487 H 6032.04 0.994825 -4.04239 0
M  V30 61488 H 6032.58 -0.699248 -3.91606 0
M  V30 61489 H 6029.32 -3.01356 -5.82121 0
M  V30 61490 H 6028.84 -1.30131 -5.85513 0
M  V30 61491 H 6030.52 -1.76747 -6.2239 0
M  V30 61492 N 6030.65 1.501 -0.480402 0
M  V30 61493 C 6031.89 2.02674 0.071466 0
M  V30 61494 C 6032.23 1.361 1.3853 0
M  V30 61495 O 6031.5 0.489769 1.88233 0
M  V30 61496 C 6031.79 3.59262 0.245567 0
M  V30 61497 C 6031.64 4.36395 -1.08994 0
M  V30 61498 C 6032.96 4.28686 0.995816 0
M  V30 61499 H 6030.08 0.736593 0.0244985 0
M  V30 61500 H 6032.72 1.79328 -0.627806 0
M  V30 61501 H 6030.87 3.79284 0.841174 0
M  V30 61502 H 6032.54 4.2792 -1.72284 0
M  V30 61503 H 6030.78 3.99767 -1.68431 0
M  V30 61504 H 6031.45 5.44251 -0.92166 0
M  V30 61505 H 6033.93 4.13194 0.49088 0
M  V30 61506 H 6032.81 5.38041 1.08644 0
M  V30 61507 H 6033.07 3.92498 2.03465 0
M  V30 61508 N 6032.13 0.213378 1.56149 0
M  V30 61509 C 6033.09 -0.686502 2.18677 0
M  V30 61510 C 6034.09 -1.12766 1.14632 0
M  V30 61511 O 6035.28 -1.03778 1.39913 0
M  V30 61512 C 6032.41 -1.93944 2.80354 0
M  V30 61513 H 6033.6 -0.141472 2.99566 0
M  V30 61514 H 6031.16 -0.0362437 1.56258 0
M  V30 61515 H 6031.89 -2.52654 2.03313 0
M  V30 61516 H 6031.68 -1.63167 3.56538 0
M  V30 61517 H 6033.17 -2.58075 3.28309 0
M  V30 61518 N 6033.6 -1.57485 -0.0600851 0
M  V30 61519 C 6034.57 -2.03496 -1.0546 0
M  V30 61520 C 6035.57 -0.933862 -1.30903 0
M  V30 61521 O 6036.76 -1.19841 -1.26427 0
M  V30 61522 C 6033.89 -2.42558 -2.39538 0
M  V30 61523 H 6035.08 -2.92597 -0.65779 0
M  V30 61524 H 6032.64 -1.53273 -0.306129 0
M  V30 61525 H 6033.37 -1.56519 -2.84029 0
M  V30 61526 H 6033.16 -3.22919 -2.2241 0
M  V30 61527 H 6034.65 -2.78691 -3.11 0
M  V30 61528 N 6035.08 0.331735 -1.54069 0
M  V30 61529 C 6036.36 1.08837 -1.62524 0
M  V30 61530 C 6036.74 2.06162 -0.45392 0
M  V30 61531 O 6036.09 2.21716 0.552649 0
M  V30 61532 C 6036.3 1.79756 -2.99147 0
M  V30 61533 C 6037.65 2.33074 -3.54911 0
M  V30 61534 O 6038.67 1.89835 -3.01398 0
M  V30 61535 O 6037.53 3.12211 -4.48539 0
M  V30 61536 H 6034.62 0.501199 -0.657821 0
M  V30 61537 H 6037.17 0.332281 -1.66415 0
M  V30 61538 H 6035.94 1.08919 -3.75835 0
M  V30 61539 H 6035.56 2.62195 -2.98898 0
M  V30 61540 N 6036.56 1.46003 0.593373 0
M  V30 61541 C 6037.79 1.54546 1.38312 0
M  V30 61542 C 6038.21 0.183621 1.87202 0
M  V30 61543 O 6037.57 -0.83435 1.60961 0
M  V30 61544 C 6037.62 2.54568 2.55396 0
M  V30 61545 O 6036.72 2.07333 3.56492 0
M  V30 61546 H 6036.06 0.520449 0.412346 0
M  V30 61547 H 6038.59 1.91483 0.720795 0
M  V30 61548 H 6038.6 2.73834 3.02455 0
M  V30 61549 H 6037.28 3.53469 2.19163 0
M  V30 61550 H 6035.85 1.98008 3.15986 0
M  V30 61551 N 6038.04 -0.837103 1.3353 0
M  V30 61552 C 6038.99 -1.94704 1.23931 0
M  V30 61553 C 6039.96 -1.65684 0.117552 0
M  V30 61554 O 6041.14 -1.88488 0.296124 0
M  V30 61555 C 6038.28 -3.30707 0.986262 0
M  V30 61556 C 6037.39 -3.72113 2.19445 0
M  V30 61557 C 6036.53 -4.96993 1.87541 0
M  V30 61558 C 6035.57 -5.30939 3.04582 0
M  V30 61559 N 6034.7 -6.46996 2.72654 0
M  V30 61560 H 6039.54 -2.02247 2.18861 0
M  V30 61561 H 6037.08 -0.989665 1.0883 0
M  V30 61562 H 6039.04 -4.09063 0.819978 0
M  V30 61563 H 6037.67 -3.22716 0.073692 0
M  V30 61564 H 6036.72 -2.89265 2.47042 0
M  V30 61565 H 6038.03 -3.93181 3.06937 0
M  V30 61566 H 6037.19 -5.83101 1.67566 0
M  V30 61567 H 6035.93 -4.77898 0.972882 0
M  V30 61568 H 6034.93 -4.43335 3.25168 0
M  V30 61569 H 6036.16 -5.51981 3.95592 0
M  V30 61570 H 6034.1 -6.29385 1.84962 0
M  V30 61571 H 6034.02 -6.68168 3.53678 0
M  V30 61572 H 6035.29 -7.36211 2.56151 0
M  V30 61573 N 6039.52 -1.17028 -1.05557 0
M  V30 61574 C 6040.93 -0.916764 -1.30643 0
M  V30 61575 C 6041.13 0.426179 -1.96942 0
M  V30 61576 O 6040.19 1.164 -2.2407 0
M  V30 61577 C 6041.5 -2.07134 -2.17982 0
M  V30 61578 C 6043.05 -2.10795 -2.31375 0
M  V30 61579 C 6043.52 -3.25628 -3.22072 0
M  V30 61580 N 6045.02 -3.25392 -3.29657 0
M  V30 61581 C 6045.75 -4.10887 -3.99949 0
M  V30 61582 N 6045.25 -5.06485 -4.727 0
M  V30 61583 N 6047.04 -3.98849 -3.96075 0
M  V30 61584 H 6039.19 -2.03476 -0.609212 0
M  V30 61585 H 6041.45 -0.888258 -0.331212 0
M  V30 61586 H 6041.16 -3.04174 -1.76553 0
M  V30 61587 H 6041.03 -2.01923 -3.18602 0
M  V30 61588 H 6043.42 -1.14343 -2.72047 0
M  V30 61589 H 6043.5 -2.20069 -1.30397 0
M  V30 61590 H 6043.15 -4.22343 -2.82115 0
M  V30 61591 H 6043.08 -3.1359 -4.23047 0
M  V30 61592 H 6045.57 -2.56174 -2.77819 0
M  V30 61593 H 6045.88 -5.68124 -5.23885 0
M  V30 61594 H 6044.22 -5.10458 -4.71655 0
M  V30 61595 H 6047.42 -3.23462 -3.38363 0
M  V30 61596 H 6047.59 -4.65698 -4.50588 0
M  V30 61597 N 6040.99 1.24218 -0.969933 0
M  V30 61598 C 6042.24 1.91971 -0.631793 0
M  V30 61599 C 6042.56 1.76172 0.83597 0
M  V30 61600 O 6041.83 1.13464 1.59696 0
M  V30 61601 H 6040.41 0.710489 -0.230683 0
M  V30 61602 H 6043.08 1.51064 -1.23148 0
M  V30 61603 H 6042.17 2.99603 -0.874328 0
M  V30 61604 N 6042.47 0.740315 1.3913 0
M  V30 61605 C 6043.4 0.119033 2.33196 0
M  V30 61606 C 6044.38 -0.718361 1.54187 0
M  V30 61607 O 6045.57 -0.662258 1.82559 0
M  V30 61608 C 6042.7 -0.785001 3.38312 0
M  V30 61609 C 6041.65 -0.0513589 4.27969 0
M  V30 61610 C 6040.98 -1.07276 5.23828 0
M  V30 61611 C 6042.28 1.10921 5.10386 0
M  V30 61612 H 6043.97 0.904788 2.85401 0
M  V30 61613 H 6041.52 0.436541 1.37224 0
M  V30 61614 H 6043.47 -1.22921 4.03074 0
M  V30 61615 H 6042.2 -1.60293 2.84559 0
M  V30 61616 H 6040.85 0.373284 3.64695 0
M  V30 61617 H 6040.5 -1.8844 4.66368 0
M  V30 61618 H 6040.2 -0.586621 5.84664 0
M  V30 61619 H 6041.73 -1.51656 5.91467 0
M  V30 61620 H 6043.14 0.743192 5.68462 0
M  V30 61621 H 6041.54 1.52534 5.80391 0
M  V30 61622 H 6042.61 1.92841 4.44905 0
M  V30 61623 N 6043.95 -1.49843 0.488355 0
M  V30 61624 C 6045.18 -2.07313 -0.0600208 0
M  V30 61625 C 6045.6 -1.34784 -1.31205 0
M  V30 61626 O 6044.96 -0.400696 -1.76817 0
M  V30 61627 C 6045.01 -3.59269 -0.309532 0
M  V30 61628 O 6044.11 -3.88385 -1.38674 0
M  V30 61629 H 6043.45 -0.66368 0.0206181 0
M  V30 61630 H 6045.98 -1.92815 0.684352 0
M  V30 61631 H 6045.99 -4.04346 -0.544858 0
M  V30 61632 H 6044.67 -4.11472 0.605291 0
M  V30 61633 H 6043.24 -3.55132 -1.13736 0
M  V30 61634 N 6045.43 -0.221656 -1.56033 0
M  V30 61635 C 6046.38 0.7018 -2.1693 0
M  V30 61636 C 6047.36 1.15746 -1.11766 0
M  V30 61637 O 6048.56 1.11143 -1.37754 0
M  V30 61638 C 6045.68 1.90967 -2.85283 0
M  V30 61639 C 6044.77 1.47368 -3.97672 0
M  V30 61640 N 6045.16 0.750293 -5.00204 0
M  V30 61641 C 6043.46 1.76096 -4.09764 0
M  V30 61642 C 6044.16 0.527964 -5.79299 0
M  V30 61643 N 6043.14 1.08469 -5.32668 0
M  V30 61644 H 6046.94 0.140687 -2.93563 0
M  V30 61645 H 6044.45 -0.0229181 -1.62384 0
M  V30 61646 H 6046.45 2.58198 -3.27321 0
M  V30 61647 H 6045.11 2.47525 -2.10147 0
M  V30 61648 H 6046.12 0.402971 -5.1633 0
M  V30 61649 H 6042.8 2.33973 -3.45778 0
M  V30 61650 H 6044.19 -0.0477894 -6.71883 0
M  V30 61651 N 6046.91 1.57515 0.0517324 0
M  V30 61652 C 6048.32 1.76757 0.601156 0
M  V30 61653 C 6048.67 0.849806 1.76841 0
M  V30 61654 O 6047.79 0.0388748 2.16365 0
M  V30 61655 C 6048.39 3.20538 1.09732 0
M  V30 61656 C 6046.95 3.41055 1.59244 0
M  V30 61657 C 6046.1 2.72371 0.520522 0
M  V30 61658 H 6049.05 1.57738 -0.174485 0
M  V30 61659 H 6049.07 3.25803 1.96552 0
M  V30 61660 H 6048.58 3.8731 0.24756 0
M  V30 61661 H 6046.68 2.79426 2.46479 0
M  V30 61662 H 6046.79 4.49587 1.65556 0
M  V30 61663 H 6045.16 2.35494 0.970297 0
M  V30 61664 H 6045.94 3.41811 -0.319386 0
M  V30 61665 N 6048.39 -0.32356 1.54243 0
M  V30 61666 C 6049.63 -1.0615 1.72448 0
M  V30 61667 C 6049.96 -1.88012 0.498182 0
M  V30 61668 O 6049.22 -1.88663 -0.520066 0
M  V30 61669 C 6049.51 -2.01442 2.95222 0
M  V30 61670 C 6049.18 -1.35735 4.29985 0
M  V30 61671 C 6047.84 -1.17546 4.66622 0
M  V30 61672 C 6050.19 -0.885758 5.13618 0
M  V30 61673 C 6047.52 -0.508469 5.84493 0
M  V30 61674 C 6049.87 -0.232584 6.32172 0
M  V30 61675 C 6048.54 -0.038546 6.67489 0
M  V30 61676 H 6047.81 -0.388432 0.631032 0
M  V30 61677 H 6050.46 -0.338648 1.88482 0
M  V30 61678 H 6048.76 -2.80178 2.73875 0
M  V30 61679 H 6050.46 -2.58569 3.06501 0
M  V30 61680 H 6047.05 -1.50894 4.01159 0
M  V30 61681 H 6051.23 -1.01407 4.8583 0
M  V30 61682 H 6046.49 -0.346934 6.10415 0
M  V30 61683 H 6050.66 0.140839 6.96258 0
M  V30 61684 H 6048.29 0.480318 7.58681 0
M  V30 61685 N 6049.86 -1.46316 -0.585622 0
M  V30 61686 C 6051.09 -1.55278 -1.37491 0
M  V30 61687 C 6051.51 -0.193546 -1.87102 0
M  V30 61688 O 6050.87 0.825803 -1.61401 0
M  V30 61689 C 6050.92 -2.55919 -2.54043 0
M  V30 61690 O 6050.02 -2.09221 -3.55388 0
M  V30 61691 H 6049.36 -0.522628 -0.40958 0
M  V30 61692 H 6051.89 -1.91862 -0.71063 0
M  V30 61693 H 6051.9 -2.75434 -3.00998 0
M  V30 61694 H 6050.58 -3.54626 -2.17286 0
M  V30 61695 H 6049.16 -1.99681 -3.14932 0
M  V30 61696 N 6051.34 0.83001 -1.33972 0
M  V30 61697 C 6052.59 1.5808 -1.25274 0
M  V30 61698 C 6052.9 1.94793 0.177489 0
M  V30 61699 O 6054.11 2.68734 0.386562 0
M  V30 61700 C 6052.57 2.85169 -2.1956 0
M  V30 61701 C 6052.17 2.55785 -3.67801 0
M  V30 61702 C 6053.92 3.63192 -2.19754 0
M  V30 61703 C 6051.82 3.79025 -4.53976 0
M  V30 61704 H 6050.75 0.593273 -0.465342 0
M  V30 61705 H 6053.41 0.914421 -1.59093 0
M  V30 61706 H 6051.79 3.53395 -1.78684 0
M  V30 61707 H 6052.96 1.95715 -4.17172 0
M  V30 61708 H 6051.28 1.91051 -3.69984 0
M  V30 61709 H 6053.87 4.54686 -2.81363 0
M  V30 61710 H 6054.22 3.98782 -1.19494 0
M  V30 61711 H 6054.75 3.01901 -2.59038 0
M  V30 61712 H 6051.49 3.4856 -5.55145 0
M  V30 61713 H 6051.01 4.38403 -4.09344 0
M  V30 61714 H 6052.69 4.46511 -4.68227 0
M  V30 61715 N 6052.82 1.17586 1.04935 0
M  V30 61716 C 6054.1 0.8757 1.74902 0
M  V30 61717 C 6054.48 -0.623459 2.01683 0
M  V30 61718 O 6053.82 -1.57553 1.65498 0
M  V30 61719 C 6054.03 1.71345 3.04043 0
M  V30 61720 C 6055.38 1.93502 3.77944 0
M  V30 61721 O 6056.41 1.68325 3.13919 0
M  V30 61722 O 6055.27 2.35832 4.92996 0
M  V30 61723 H 6052.36 0.324478 0.760686 0
M  V30 61724 H 6054.91 1.28294 1.1108 0
M  V30 61725 H 6053.68 2.73012 2.80321 0
M  V30 61726 H 6053.3 1.30415 3.75603 0
M  V30 61727 N 6054.3 -1.23702 0.976507 0
M  V30 61728 C 6055.54 -1.92297 0.644188 0
M  V30 61729 C 6055.88 -1.76052 -0.819705 0
M  V30 61730 O 6055.15 -1.11907 -1.59082 0
M  V30 61731 C 6055.43 -3.45038 1.03057 0
M  V30 61732 C 6055.29 -3.70409 2.5518 0
M  V30 61733 C 6056.61 -4.36372 0.571597 0
M  V30 61734 H 6053.73 -0.69836 0.235503 0
M  V30 61735 H 6056.37 -1.459 1.21709 0
M  V30 61736 H 6054.52 -3.84686 0.543075 0
M  V30 61737 H 6056.19 -3.40267 3.11474 0
M  V30 61738 H 6054.43 -3.15255 2.97987 0
M  V30 61739 H 6055.1 -4.77313 2.77265 0
M  V30 61740 H 6057.58 -4.04149 0.990079 0
M  V30 61741 H 6056.46 -5.41955 0.870417 0
M  V30 61742 H 6056.72 -4.38934 -0.528164 0
M  V30 61743 N 6055.78 -0.747683 -1.38735 0
M  V30 61744 C 6057.02 -0.301217 -2.00247 0
M  V30 61745 C 6057.35 1.11534 -1.59344 0
M  V30 61746 O 6056.61 1.77713 -0.819549 0
M  V30 61747 C 6056.9 -0.364994 -3.55531 0
M  V30 61748 C 6056.57 -1.73636 -4.16127 0
M  V30 61749 C 6055.23 -2.11168 -4.3239 0
M  V30 61750 C 6057.58 -2.6362 -4.49615 0
M  V30 61751 C 6054.91 -3.38168 -4.79437 0
M  V30 61752 C 6057.26 -3.90005 -4.98075 0
M  V30 61753 C 6055.93 -4.27613 -5.12546 0
M  V30 61754 H 6055.2 -0.110223 -0.732756 0
M  V30 61755 H 6057.85 -0.95701 -1.65872 0
M  V30 61756 H 6056.15 0.374368 -3.90007 0
M  V30 61757 H 6057.85 -0.00121601 -4.01 0
M  V30 61758 H 6054.44 -1.43459 -4.03878 0
M  V30 61759 H 6058.62 -2.35891 -4.36657 0
M  V30 61760 H 6053.88 -3.67232 -4.88826 0
M  V30 61761 H 6058.05 -4.59877 -5.22959 0
M  V30 61762 H 6055.68 -5.26084 -5.48762 0
M  V30 61763 N 6057.25 1.49582 -0.496295 0
M  V30 61764 C 6058.16 2.32809 0.289322 0
M  V30 61765 C 6059.18 1.44328 0.971882 0
M  V30 61766 O 6060.36 1.77356 0.954303 0
M  V30 61767 C 6057.42 3.1965 1.34257 0
M  V30 61768 C 6056.48 4.23977 0.673951 0
M  V30 61769 C 6055.71 5.06667 1.67702 0
M  V30 61770 O 6055.94 4.90802 2.90637 0
M  V30 61771 O 6054.87 5.89095 1.23494 0
M  V30 61772 H 6058.7 3.01162 -0.39177 0
M  V30 61773 H 6056.28 1.47161 -0.257704 0
M  V30 61774 H 6058.16 3.7346 1.95207 0
M  V30 61775 H 6056.84 2.53996 2.00668 0
M  V30 61776 H 6055.75 3.74092 0.0248417 0
M  V30 61777 H 6057.08 4.92172 0.0523712 0
M  V30 61778 N 6058.73 0.229928 1.55914 0
M  V30 61779 C 6060.01 -0.44894 1.90378 0
M  V30 61780 C 6060.39 -1.77129 1.14841 0
M  V30 61781 O 6059.74 -2.27011 0.260408 0
M  V30 61782 C 6059.95 -0.633684 3.43199 0
M  V30 61783 C 6061.29 -0.937308 4.14125 0
M  V30 61784 O 6062.32 -0.720168 3.48844 0
M  V30 61785 O 6061.18 -1.34986 5.29567 0
M  V30 61786 H 6058.27 -0.23853 0.791854 0
M  V30 61787 H 6060.82 0.272735 1.67494 0
M  V30 61788 H 6059.59 0.298724 3.90158 0
M  V30 61789 H 6059.21 -1.40654 3.7189 0
M  V30 61790 N 6060.21 -1.5754 -0.0433783 0
M  V30 61791 C 6061.44 -1.92579 -0.748114 0
M  V30 61792 C 6061.85 -0.826817 -1.70177 0
M  V30 61793 O 6061.19 0.206649 -1.82534 0
M  V30 61794 C 6061.25 -3.23314 -1.57188 0
M  V30 61795 C 6060.92 -4.50215 -0.784546 0
M  V30 61796 C 6061.91 -5.1982 -0.0911222 0
M  V30 61797 C 6059.6 -4.9677 -0.743315 0
M  V30 61798 C 6061.59 -6.34249 0.632991 0
M  V30 61799 C 6059.28 -6.11098 -0.0154472 0
M  V30 61800 C 6060.28 -6.79691 0.671479 0
M  V30 61801 O 6059.97 -7.91835 1.38756 0
M  V30 61802 H 6059.7 -0.640498 -0.216191 0
M  V30 61803 H 6062.25 -2.05398 -0.00930002 0
M  V30 61804 H 6060.48 -3.06783 -2.35417 0
M  V30 61805 H 6062.17 -3.43787 -2.1579 0
M  V30 61806 H 6062.94 -4.84866 -0.114099 0
M  V30 61807 H 6058.82 -4.43234 -1.26748 0
M  V30 61808 H 6062.36 -6.87723 1.16971 0
M  V30 61809 H 6058.26 -6.45499 0.0095032 0
M  V30 61810 H 6059.03 -8.08114 1.29975 0
M  V30 61811 N 6061.69 0.315375 -1.54412 0
M  V30 61812 C 6062.94 1.04991 -1.7222 0
M  V30 61813 C 6063.25 1.88908 -0.507243 0
M  V30 61814 O 6064.46 2.65517 -0.566831 0
M  V30 61815 C 6062.91 1.91622 -3.04645 0
M  V30 61816 C 6062.52 1.12777 -4.33573 0
M  V30 61817 C 6064.26 2.64762 -3.31815 0
M  V30 61818 C 6062.17 1.98602 -5.57056 0
M  V30 61819 H 6061.1 0.395694 -0.641828 0
M  V30 61820 H 6063.75 0.307685 -1.80902 0
M  V30 61821 H 6062.13 2.69776 -2.89891 0
M  V30 61822 H 6063.31 0.393373 -4.59118 0
M  V30 61823 H 6061.62 0.51283 -4.1323 0
M  V30 61824 H 6064.22 3.29298 -4.21268 0
M  V30 61825 H 6064.56 3.32834 -2.50054 0
M  V30 61826 H 6065.1 1.93666 -3.47474 0
M  V30 61827 H 6061.84 1.35024 -6.41443 0
M  V30 61828 H 6061.36 2.69753 -5.35718 0
M  V30 61829 H 6063.03 2.56993 -5.93771 0
M  V30 61830 N 6063.17 1.46624 0.577854 0
M  V30 61831 C 6064.4 1.55539 1.35983 0
M  V30 61832 C 6064.8 0.197131 1.8817 0
M  V30 61833 O 6064.15 -0.816551 1.64554 0
M  V30 61834 C 6064.21 2.50359 2.57993 0
M  V30 61835 C 6063.87 3.96499 2.27239 0
M  V30 61836 C 6064.87 4.85574 1.8578 0
M  V30 61837 C 6062.56 4.4167 2.39234 0
M  V30 61838 C 6064.55 6.17834 1.56716 0
M  V30 61839 C 6062.24 5.73964 2.09783 0
M  V30 61840 C 6063.23 6.61866 1.6859 0
M  V30 61841 O 6062.92 7.91703 1.39503 0
M  V30 61842 H 6062.65 0.528427 0.421594 0
M  V30 61843 H 6065.21 1.92776 0.70897 0
M  V30 61844 H 6063.44 2.08148 3.259 0
M  V30 61845 H 6065.13 2.49627 3.20064 0
M  V30 61846 H 6065.89 4.5193 1.76023 0
M  V30 61847 H 6061.77 3.73472 2.70259 0
M  V30 61848 H 6065.32 6.86402 1.2449 0
M  V30 61849 H 6061.21 6.07155 2.19165 0
M  V30 61850 H 6061.98 8.04014 1.53307 0
M  V30 61851 N 6064.64 -0.822893 1.34411 0
M  V30 61852 C 6065.89 -1.57599 1.26518 0
M  V30 61853 C 6066.21 -1.94303 -0.1647 0
M  V30 61854 O 6065.48 -1.62282 -1.09733 0
M  V30 61855 H 6064.06 -0.584382 0.465302 0
M  V30 61856 H 6066.73 -0.982523 1.68323 0
M  V30 61857 H 6065.82 -2.49879 1.86994 0
M  V30 61858 N 6066.12 -1.18141 -1.0431 0
M  V30 61859 C 6067.37 -0.97671 -1.77731 0
M  V30 61860 C 6067.7 0.49269 -1.87846 0
M  V30 61861 O 6066.98 1.36581 -1.38477 0
M  V30 61862 C 6067.26 -1.62922 -3.21136 0
M  V30 61863 C 6067.11 -3.17132 -3.18979 0
M  V30 61864 C 6068.43 -1.34044 -4.1919 0
M  V30 61865 H 6065.55 -0.35624 -0.645184 0
M  V30 61866 H 6068.19 -1.45772 -1.21863 0
M  V30 61867 H 6066.34 -1.22022 -3.6884 0
M  V30 61868 H 6068.01 -3.67149 -2.79284 0
M  V30 61869 H 6066.26 -3.4942 -2.57077 0
M  V30 61870 H 6066.93 -3.57922 -4.20233 0
M  V30 61871 H 6069.4 -1.69477 -3.80022 0
M  V30 61872 H 6068.28 -1.82271 -5.17753 0
M  V30 61873 H 6068.54 -0.262867 -4.41318 0
M  V30 61874 N 6067.6 1.23182 -0.983053 0
M  V30 61875 C 6068.83 1.95699 -0.671522 0
M  V30 61876 C 6069.24 1.7274 0.762 0
M  V30 61877 O 6068.6 1.02043 1.51306 0
M  V30 61878 C 6068.65 3.48638 -0.955696 0
M  V30 61879 O 6068.37 3.70821 -2.33288 0
M  V30 61880 C 6069.87 4.38352 -0.660488 0
M  V30 61881 H 6067.09 0.622997 -0.24923 0
M  V30 61882 H 6069.64 1.56601 -1.31516 0
M  V30 61883 H 6067.79 3.85742 -0.358028 0
M  V30 61884 H 6068.21 4.65096 -2.42459 0
M  V30 61885 H 6069.68 5.44453 -0.909668 0
M  V30 61886 H 6070.16 4.37324 0.405461 0
M  V30 61887 H 6070.76 4.0686 -1.23876 0
M  V30 61888 N 6069.08 0.75503 1.38337 0
M  V30 61889 C 6070.31 0.322228 2.04072 0
M  V30 61890 C 6070.72 -1.05482 1.57067 0
M  V30 61891 O 6070.06 -1.68151 0.739656 0
M  V30 61892 C 6070.12 0.267962 3.585 0
M  V30 61893 C 6069.79 1.5868 4.28567 0
M  V30 61894 C 6070.78 2.53625 4.5384 0
M  V30 61895 C 6068.47 1.85663 4.66727 0
M  V30 61896 C 6070.46 3.73771 5.16308 0
M  V30 61897 C 6068.15 3.06083 5.2892 0
M  V30 61898 C 6069.15 3.99957 5.53645 0
M  V30 61899 O 6068.83 5.18259 6.14542 0
M  V30 61900 H 6068.57 0.135365 0.662308 0
M  V30 61901 H 6071.12 1.02523 1.77983 0
M  V30 61902 H 6069.35 -0.491299 3.83566 0
M  V30 61903 H 6071.04 -0.135519 4.05674 0
M  V30 61904 H 6071.81 2.34055 4.24786 0
M  V30 61905 H 6067.68 1.13431 4.46827 0
M  V30 61906 H 6071.23 4.47058 5.35523 0
M  V30 61907 H 6067.13 3.25545 5.57396 0
M  V30 61908 H 6067.89 5.1886 6.33029 0
M  V30 61909 N 6070.56 -1.49316 0.50422 0
M  V30 61910 C 6071.81 -2.01658 -0.0410172 0
M  V30 61911 C 6072.12 -1.38871 -1.37747 0
M  V30 61912 O 6073.32 -1.82559 -2.00959 0
M  V30 61913 C 6071.78 -3.59688 -0.123555 0
M  V30 61914 C 6071.39 -4.3145 1.20645 0
M  V30 61915 C 6073.13 -4.19963 -0.618986 0
M  V30 61916 C 6071.04 -5.81345 1.0859 0
M  V30 61917 H 6069.97 -0.753758 -0.0191022 0
M  V30 61918 H 6072.62 -1.71823 0.644126 0
M  V30 61919 H 6071 -3.86252 -0.873219 0
M  V30 61920 H 6072.18 -4.16583 1.96966 0
M  V30 61921 H 6070.49 -3.82933 1.63558 0
M  V30 61922 H 6073.09 -5.29738 -0.726738 0
M  V30 61923 H 6073.43 -3.83545 -1.61861 0
M  V30 61924 H 6073.96 -3.97731 0.0742365 0
M  V30 61925 H 6070.7 -6.22293 2.05989 0
M  V30 61926 H 6070.22 -5.98697 0.363633 0
M  V30 61927 H 6071.9 -6.4245 0.765948 0
M  V30 61928 N 6072.03 -0.238193 -1.5579 0
M  V30 61929 C 6072.98 0.681335 -2.22397 0
M  V30 61930 C 6073.98 1.18687 -1.20871 0
M  V30 61931 O 6075.18 1.14477 -1.38907 0
M  V30 61932 H 6071.56 0.238182 -0.713284 0
M  V30 61933 H 6073.53 0.0963093 -2.98245 0
M  V30 61934 C 6072.28 1.87127 -2.93051 0
M  V30 61935 H 6071.6 1.4914 -3.70941 0
M  V30 61936 H 6073.04 2.49208 -3.43033 0
M  V30 61937 C 6071.5 2.73702 -1.9644 0
M  V30 61938 O 6072.03 3.72968 -1.49191 0
M  V30 61939 N 6070.24 2.40086 -1.63729 0
M  V30 61940 H 6069.78 1.59416 -2.02347 0
M  V30 61941 H 6069.74 2.98289 -0.993519 0
M  V30 61942 N 6073.51 1.57561 0.0350229 0
M  V30 61943 C 6074.46 2.0725 1.05595 0
M  V30 61944 C 6075.45 0.985062 1.37815 0
M  V30 61945 O 6076.66 1.16998 1.3679 0
M  V30 61946 H 6073.04 0.661299 0.358034 0
M  V30 61947 H 6075.01 2.92077 0.611021 0
M  V30 61948 C 6073.76 2.56243 2.35021 0
M  V30 61949 H 6073.08 3.39532 2.11088 0
M  V30 61950 H 6074.52 2.94726 3.04815 0
M  V30 61951 C 6072.98 1.46106 3.0357 0
M  V30 61952 O 6073.51 0.82391 3.9316 0
M  V30 61953 N 6071.71 1.19707 2.64799 0
M  V30 61954 H 6071.26 1.71703 1.9203 0
M  V30 61955 H 6071.22 0.462284 3.10983 0
M  V30 61956 N 6074.99 -0.307182 1.54577 0
M  V30 61957 C 6076.41 -0.652488 1.45653 0
M  V30 61958 C 6076.61 -1.90976 0.642697 0
M  V30 61959 O 6075.66 -2.52066 0.147951 0
M  V30 61960 C 6076.98 -0.811239 2.8955 0
M  V30 61961 C 6078.52 -0.907524 2.99555 0
M  V30 61962 C 6079 -1.09832 4.44636 0
M  V30 61963 N 6080.49 -1.16467 4.48319 0
M  V30 61964 C 6081.23 -1.33048 5.57751 0
M  V30 61965 N 6080.72 -1.46567 6.77119 0
M  V30 61966 N 6082.51 -1.35887 5.45427 0
M  V30 61967 H 6074.67 0.518963 2.05962 0
M  V30 61968 H 6076.93 0.170496 0.932542 0
M  V30 61969 H 6076.63 0.0416115 3.51675 0
M  V30 61970 H 6076.51 -1.70212 3.36612 0
M  V30 61971 H 6078.9 -1.75087 2.37547 0
M  V30 61972 H 6078.98 0.00724378 2.55799 0
M  V30 61973 H 6078.62 -0.25977 5.07235 0
M  V30 61974 H 6078.55 -2.02722 4.86016 0
M  V30 61975 H 6081.04 -1.07398 3.62318 0
M  V30 61976 H 6081.35 -1.58957 7.56275 0
M  V30 61977 H 6079.7 -1.43634 6.79996 0
M  V30 61978 H 6082.89 -1.24933 4.5112 0
M  V30 61979 H 6083.06 -1.48466 6.30763 0
M  V30 61980 N 6076.47 -1.46928 -0.57007 0
M  V30 61981 C 6077.72 -1.53118 -1.32976 0
M  V30 61982 C 6078.05 -0.187469 -1.93293 0
M  V30 61983 O 6077.32 0.802523 -1.77172 0
M  V30 61984 C 6077.61 -2.63944 -2.4496 0
M  V30 61985 C 6077.46 -4.07889 -1.89596 0
M  V30 61986 C 6078.78 -2.70765 -3.4695 0
M  V30 61987 H 6075.9 -0.557415 -0.482138 0
M  V30 61988 H 6078.54 -1.78925 -0.639196 0
M  V30 61989 H 6076.69 -2.4207 -3.03866 0
M  V30 61990 H 6078.36 -4.41089 -1.3505 0
M  V30 61991 H 6076.6 -4.16772 -1.20347 0
M  V30 61992 H 6077.28 -4.81185 -2.70491 0
M  V30 61993 H 6079.75 -2.90463 -2.97944 0
M  V30 61994 H 6078.63 -3.50108 -4.22748 0
M  V30 61995 H 6078.89 -1.77313 -4.04985 0
M  V30 61996 N 6077.95 0.815754 -1.34845 0
M  V30 61997 C 6079.19 1.57237 -1.27604 0
M  V30 61998 C 6079.52 1.93905 0.152059 0
M  V30 61999 O 6078.78 1.60823 1.11509 0
M  V30 62000 C 6079.08 2.87788 -2.11927 0
M  V30 62001 C 6078.74 2.70379 -3.60841 0
M  V30 62002 C 6077.4 2.65339 -4.01433 0
M  V30 62003 C 6079.76 2.53553 -4.55368 0
M  V30 62004 C 6077.08 2.41404 -5.34735 0
M  V30 62005 C 6079.44 2.31148 -5.88858 0
M  V30 62006 C 6078.1 2.24524 -6.28606 0
M  V30 62007 H 6077.37 0.575369 -0.466938 0
M  V30 62008 H 6080.02 0.943297 -1.66656 0
M  V30 62009 H 6078.32 3.55024 -1.65727 0
M  V30 62010 H 6080.02 3.45429 -2.03666 0
M  V30 62011 H 6076.61 2.75145 -3.28623 0
M  V30 62012 H 6080.79 2.56465 -4.24899 0
M  V30 62013 H 6076.05 2.34739 -5.64542 0
M  V30 62014 H 6080.22 2.17117 -6.6169 0
M  V30 62015 H 6077.85 2.05739 -7.3183 0
M  V30 62016 N 6079.43 1.18692 1.03682 0
M  V30 62017 C 6080.37 0.917444 2.11782 0
M  V30 62018 C 6081.34 -0.14466 1.65469 0
M  V30 62019 O 6082.53 -0.00420308 1.908 0
M  V30 62020 C 6079.67 0.453516 3.42107 0
M  V30 62021 C 6078.78 1.58148 4.02011 0
M  V30 62022 C 6077.92 1.06989 5.20314 0
M  V30 62023 C 6076.95 2.17229 5.72257 0
M  V30 62024 N 6076.09 1.67435 6.81843 0
M  V30 62025 H 6080.93 1.84305 2.3417 0
M  V30 62026 H 6078.47 0.918991 1.14861 0
M  V30 62027 H 6080.43 0.16599 4.1687 0
M  V30 62028 H 6079.06 -0.435106 3.19854 0
M  V30 62029 H 6078.11 1.9844 3.24539 0
M  V30 62030 H 6079.42 2.41235 4.36586 0
M  V30 62031 H 6078.57 0.737118 6.02206 0
M  V30 62032 H 6077.31 0.208658 4.87253 0
M  V30 62033 H 6076.32 2.51345 4.88984 0
M  V30 62034 H 6077.54 3.03794 6.0736 0
M  V30 62035 H 6075.49 0.836069 6.5065 0
M  V30 62036 H 6075.41 2.44116 7.15502 0
M  V30 62037 H 6076.67 1.37097 7.67349 0
M  V30 62038 N 6080.9 -1.22659 0.989572 0
M  V30 62039 C 6082.15 -1.90629 0.659037 0
M  V30 62040 C 6082.47 -1.77945 -0.812103 0
M  V30 62041 O 6083.67 -2.40801 -1.25408 0
M  V30 62042 C 6082.13 -3.41759 1.12821 0
M  V30 62043 C 6081.74 -3.63088 2.62434 0
M  V30 62044 C 6083.48 -4.15451 0.871844 0
M  V30 62045 C 6081.39 -5.079 3.0297 0
M  V30 62046 H 6080.32 -0.713839 0.242797 0
M  V30 62047 H 6082.97 -1.38937 1.19869 0
M  V30 62048 H 6081.35 -3.92615 0.516702 0
M  V30 62049 H 6082.52 -3.22739 3.28901 0
M  V30 62050 H 6080.84 -3.02723 2.85916 0
M  V30 62051 H 6083.44 -5.22177 1.15045 0
M  V30 62052 H 6083.78 -4.15857 -0.19204 0
M  V30 62053 H 6084.31 -3.70613 1.44538 0
M  V30 62054 H 6081.05 -5.12631 4.08521 0
M  V30 62055 H 6080.57 -5.49164 2.41204 0
M  V30 62056 H 6082.25 -5.76301 2.94086 0
M  V30 62057 N 6082.38 -0.762356 -1.37934 0
M  V30 62058 C 6083.33 -0.116024 -2.27705 0
M  V30 62059 C 6084.32 0.684012 -1.45637 0
M  V30 62060 O 6085.51 0.548527 -1.68286 0
M  V30 62061 C 6082.64 0.769572 -3.34563 0
M  V30 62062 C 6081.72 -0.0377859 -4.24083 0
M  V30 62063 N 6082.11 -1.07867 -4.94164 0
M  V30 62064 C 6080.41 0.187667 -4.45605 0
M  V30 62065 C 6081.11 -1.56788 -5.60172 0
M  V30 62066 N 6080.09 -0.881666 -5.36402 0
M  V30 62067 H 6083.89 -0.913093 -2.79356 0
M  V30 62068 H 6081.4 -0.599221 -1.50941 0
M  V30 62069 H 6083.4 1.2483 -3.97773 0
M  V30 62070 H 6082.06 1.56549 -2.84469 0
M  V30 62071 H 6083.07 -1.46064 -4.96876 0
M  V30 62072 H 6079.75 0.956237 -4.06402 0
M  V30 62073 H 6081.14 -2.43539 -6.26209 0
M  V30 62074 N 6083.86 1.49047 -0.512132 0
M  V30 62075 C 6084.81 2.29327 0.260327 0
M  V30 62076 C 6085.78 1.36235 0.950217 0
M  V30 62077 O 6086.96 1.65196 0.954719 0
M  V30 62078 C 6084.1 3.19182 1.31214 0
M  V30 62079 C 6083.21 4.27339 0.6329 0
M  V30 62080 C 6082.35 5.04395 1.66611 0
M  V30 62081 C 6081.39 6.04376 0.969348 0
M  V30 62082 N 6080.53 6.74556 1.94727 0
M  V30 62083 H 6085.37 2.94874 -0.430487 0
M  V30 62084 H 6082.9 1.45382 -0.224137 0
M  V30 62085 H 6084.86 3.69662 1.93407 0
M  V30 62086 H 6083.49 2.55595 1.97157 0
M  V30 62087 H 6082.54 3.80262 -0.102567 0
M  V30 62088 H 6083.85 4.98728 0.084961 0
M  V30 62089 H 6083.01 5.588 2.36279 0
M  V30 62090 H 6081.75 4.32805 2.24792 0
M  V30 62091 H 6080.75 5.49192 0.258497 0
M  V30 62092 H 6081.98 6.77957 0.393887 0
M  V30 62093 H 6079.92 6.05729 2.51849 0
M  V30 62094 H 6079.84 7.41959 1.45029 0
M  V30 62095 H 6081.11 7.33559 2.63649 0
M  V30 62096 N 6085.34 0.246452 1.55661 0
M  V30 62097 C 6086.58 -0.378417 1.98933 0
M  V30 62098 C 6086.91 -1.5798 1.13457 0
M  V30 62099 O 6086.17 -1.94821 0.185282 0
M  V30 62100 C 6086.47 -0.832103 3.47578 0
M  V30 62101 C 6086.13 0.261476 4.50141 0
M  V30 62102 C 6084.79 0.561828 4.77909 0
M  V30 62103 C 6087.15 0.999797 5.11521 0
M  V30 62104 C 6084.47 1.60458 5.64332 0
M  V30 62105 C 6086.83 2.03207 5.99074 0
M  V30 62106 C 6085.49 2.33907 6.25175 0
M  V30 62107 H 6084.76 -0.138473 0.727947 0
M  V30 62108 H 6087.41 0.354182 1.88196 0
M  V30 62109 H 6085.71 -1.6439 3.55645 0
M  V30 62110 H 6087.41 -1.32585 3.78447 0
M  V30 62111 H 6084 0.0172401 4.28597 0
M  V30 62112 H 6088.18 0.781005 4.90116 0
M  V30 62113 H 6083.44 1.84778 5.8281 0
M  V30 62114 H 6087.61 2.60908 6.45678 0
M  V30 62115 H 6085.24 3.14846 6.91936 0
M  V30 62116 N 6086.82 -1.57577 -0.0266666 0
M  V30 62117 C 6088.06 -1.89008 -0.715579 0
M  V30 62118 C 6088.38 -0.84445 -1.75767 0
M  V30 62119 O 6087.65 0.121624 -1.95522 0
M  V30 62120 H 6086.23 -0.697545 -0.267284 0
M  V30 62121 H 6088.9 -1.94898 0.00794948 0
M  V30 62122 H 6087.99 -2.87956 -1.20364 0
M  V30 62123 N 6088.29 0.29898 -1.54738 0
M  V30 62124 C 6089.24 1.37049 -1.82213 0
M  V30 62125 C 6090.23 1.45852 -0.679408 0
M  V30 62126 O 6091.42 1.49971 -0.940097 0
M  V30 62127 C 6088.55 2.73517 -2.07468 0
M  V30 62128 C 6087.63 2.68929 -3.2793 0
M  V30 62129 N 6088.03 2.33956 -4.4844 0
M  V30 62130 C 6086.32 3.00029 -3.29998 0
M  V30 62131 C 6087.02 2.38715 -5.30462 0
M  V30 62132 N 6086 2.76151 -4.68233 0
M  V30 62133 H 6089.8 1.08977 -2.72949 0
M  V30 62134 H 6087.32 0.507564 -1.54265 0
M  V30 62135 H 6089.31 3.50779 -2.25299 0
M  V30 62136 H 6087.97 3.02499 -1.18001 0
M  V30 62137 H 6088.98 2.06376 -4.75005 0
M  V30 62138 H 6085.66 3.33892 -2.50644 0
M  V30 62139 H 6087.05 2.14458 -6.36755 0
M  V30 62140 N 6089.77 1.47229 0.56227 0
M  V30 62141 C 6091 1.57445 1.35003 0
M  V30 62142 C 6091.42 0.223288 1.8677 0
M  V30 62143 O 6090.78 -0.800021 1.62694 0
M  V30 62144 C 6090.83 2.59928 2.49939 0
M  V30 62145 O 6089.93 2.14848 3.52014 0
M  V30 62146 H 6089.27 0.529078 0.401214 0
M  V30 62147 H 6091.8 1.92969 0.680016 0
M  V30 62148 H 6091.81 2.80188 2.96578 0
M  V30 62149 H 6090.49 3.58038 2.11616 0
M  V30 62150 H 6089.07 2.04666 3.11715 0
M  V30 62151 N 6091.25 -0.808591 1.35276 0
M  V30 62152 C 6092.66 -1.38244 1.25481 0
M  V30 62153 C 6093.01 -1.95871 -0.113646 0
M  V30 62154 O 6092.14 -1.91145 -1.01453 0
M  V30 62155 C 6092.73 -2.51322 2.27206 0
M  V30 62156 C 6091.29 -3.04575 2.21159 0
M  V30 62157 C 6090.44 -1.77526 2.13025 0
M  V30 62158 H 6093.39 -0.611792 1.46434 0
M  V30 62159 H 6093.41 -3.29818 1.89737 0
M  V30 62160 H 6092.92 -2.0935 3.26794 0
M  V30 62161 H 6091.02 -3.51016 1.24975 0
M  V30 62162 H 6091.14 -3.62692 3.13036 0
M  V30 62163 H 6089.5 -1.98998 1.58971 0
M  V30 62164 H 6090.28 -1.37709 3.1447 0
M  V30 62165 N 6092.73 -1.1924 -1.03051 0
M  V30 62166 C 6093.66 -0.952335 -2.13197 0
M  V30 62167 C 6094.64 0.113711 -1.69719 0
M  V30 62168 O 6095.82 -0.0409739 -1.94157 0
M  V30 62169 C 6092.95 -0.488417 -3.43848 0
M  V30 62170 C 6091.91 -1.49611 -4.00999 0
M  V30 62171 C 6091.23 -0.889334 -5.27252 0
M  V30 62172 C 6092.53 -2.87586 -4.35995 0
M  V30 62173 H 6094.23 -1.87351 -2.33538 0
M  V30 62174 H 6091.77 -0.902211 -1.12233 0
M  V30 62175 H 6093.73 -0.307771 -4.20275 0
M  V30 62176 H 6092.45 0.468356 -3.23224 0
M  V30 62177 H 6091.11 -1.66388 -3.26666 0
M  V30 62178 H 6090.76 0.0749422 -5.02944 0
M  V30 62179 H 6090.46 -1.56222 -5.66453 0
M  V30 62180 H 6091.98 -0.719446 -6.06347 0
M  V30 62181 H 6093.4 -2.74402 -5.03365 0
M  V30 62182 H 6091.79 -3.51652 -4.86272 0
M  V30 62183 H 6092.86 -3.40365 -3.45369 0
M  V30 62184 N 6094.21 1.22132 -0.996063 0
M  V30 62185 C 6095.45 1.91248 -0.674699 0
M  V30 62186 C 6095.79 1.77334 0.791593 0
M  V30 62187 O 6095.06 1.14424 1.57281 0
M  V30 62188 C 6095.34 3.43355 -1.08533 0
M  V30 62189 C 6095.2 3.66303 -2.61041 0
M  V30 62190 C 6096.52 4.35408 -0.640948 0
M  V30 62191 H 6093.63 0.694525 -0.246584 0
M  V30 62192 H 6096.28 1.43945 -1.24015 0
M  V30 62193 H 6094.43 3.83773 -0.604206 0
M  V30 62194 H 6096.1 3.35269 -3.16847 0
M  V30 62195 H 6094.34 3.10475 -3.02965 0
M  V30 62196 H 6095.01 4.72842 -2.84824 0
M  V30 62197 H 6097.49 4.02523 -1.05425 0
M  V30 62198 H 6096.36 5.40501 -0.956527 0
M  V30 62199 H 6096.63 4.39718 0.458266 0
M  V30 62200 N 6095.68 0.76966 1.37528 0
M  V30 62201 C 6096.63 0.142293 2.32164 0
M  V30 62202 C 6097.63 -0.687321 1.5483 0
M  V30 62203 O 6098.83 -0.584617 1.70242 0
M  V30 62204 H 6095.21 0.0272263 0.751507 0
M  V30 62205 H 6097.18 0.956247 2.82663 0
M  V30 62206 C 6095.93 -0.724091 3.40077 0
M  V30 62207 H 6095.25 -0.0950913 3.99687 0
M  V30 62208 H 6096.69 -1.13007 4.08663 0
M  V30 62209 C 6095.15 -1.87378 2.79984 0
M  V30 62210 O 6095.68 -2.96911 2.70567 0
M  V30 62211 N 6093.89 -1.67376 2.37558 0
M  V30 62212 H 6093.43 -0.782855 2.45416 0
M  V30 62213 H 6093.39 -2.44467 1.97695 0
M  V30 62214 N 6097.16 -1.48773 0.520029 0
M  V30 62215 C 6098.09 -2.32293 -0.237132 0
M  V30 62216 C 6099.07 -1.41463 -0.944575 0
M  V30 62217 O 6100.26 -1.70358 -0.932289 0
M  V30 62218 C 6097.39 -3.22431 -1.29056 0
M  V30 62219 C 6096.34 -4.22206 -0.701863 0
M  V30 62220 C 6095.67 -5.0141 -1.85722 0
M  V30 62221 C 6096.97 -5.2132 0.31981 0
M  V30 62222 H 6098.66 -2.95844 0.460053 0
M  V30 62223 H 6096.21 -1.42268 0.222691 0
M  V30 62224 H 6098.16 -3.79681 -1.82813 0
M  V30 62225 H 6096.89 -2.5686 -2.01719 0
M  V30 62226 H 6095.54 -3.66128 -0.185899 0
M  V30 62227 H 6095.19 -4.32271 -2.57199 0
M  V30 62228 H 6094.89 -5.68934 -1.46929 0
M  V30 62229 H 6096.42 -5.61509 -2.39875 0
M  V30 62230 H 6097.83 -5.73152 -0.130303 0
M  V30 62231 H 6096.23 -5.96841 0.624587 0
M  V30 62232 H 6097.3 -4.69064 1.22909 0
M  V30 62233 N 6098.64 -0.254703 -1.55528 0
M  V30 62234 C 6099.87 0.371785 -2.03532 0
M  V30 62235 C 6100.28 1.5097 -1.13374 0
M  V30 62236 O 6099.64 1.81885 -0.149704 0
M  V30 62237 C 6099.69 0.872191 -3.50821 0
M  V30 62238 O 6099.41 -0.220384 -4.37545 0
M  V30 62239 C 6100.91 1.56858 -4.14621 0
M  V30 62240 H 6098.13 0.0874331 -0.665279 0
M  V30 62241 H 6100.68 -0.380845 -2.00922 0
M  V30 62242 H 6098.83 1.57497 -3.5394 0
M  V30 62243 H 6099.25 0.160861 -5.24253 0
M  V30 62244 H 6100.72 1.87035 -5.19348 0
M  V30 62245 H 6101.2 2.49321 -3.61574 0
M  V30 62246 H 6101.8 0.910168 -4.15447 0
M  V30 62247 N 6100.12 1.57589 0.0183095 0
M  V30 62248 C 6101.37 1.89384 0.705545 0
M  V30 62249 C 6101.69 0.853759 1.75317 0
M  V30 62250 O 6100.96 -0.111254 1.95584 0
M  V30 62251 H 6099.54 0.698952 0.263581 0
M  V30 62252 H 6102.2 1.94891 -0.0182853 0
M  V30 62253 H 6101.3 2.88591 1.18835 0
M  V30 62254 N 6101.6 -0.29077 1.54894 0
M  V30 62255 C 6102.84 -1.02266 1.74316 0
M  V30 62256 C 6103.17 -1.87447 0.537459 0
M  V30 62257 O 6102.44 -1.90707 -0.448068 0
M  V30 62258 H 6101.02 -0.38057 0.642788 0
M  V30 62259 H 6103.68 -0.319285 1.92267 0
M  V30 62260 H 6102.77 -1.66988 2.63669 0
M  V30 62261 N 6103.07 -1.47525 -0.554454 0
M  V30 62262 C 6104 -1.63098 -1.67096 0
M  V30 62263 C 6104.99 -0.480356 -1.63177 0
M  V30 62264 O 6106.17 -0.71002 -1.80755 0
M  V30 62265 C 6103.3 -1.64762 -3.0573 0
M  V30 62266 C 6102.25 -2.79079 -3.24498 0
M  V30 62267 C 6101.58 -2.65817 -4.63946 0
M  V30 62268 C 6102.88 -4.20642 -3.09609 0
M  V30 62269 H 6104.57 -2.56566 -1.54319 0
M  V30 62270 H 6102.12 -1.23473 -0.74098 0
M  V30 62271 H 6104.07 -1.74247 -3.83687 0
M  V30 62272 H 6102.8 -0.678565 -3.19473 0
M  V30 62273 H 6101.46 -2.69109 -2.4895 0
M  V30 62274 H 6101.1 -1.66933 -4.74492 0
M  V30 62275 H 6100.8 -3.42511 -4.77452 0
M  V30 62276 H 6102.33 -2.77235 -5.44034 0
M  V30 62277 H 6103.74 -4.31575 -3.77381 0
M  V30 62278 H 6102.14 -4.98144 -3.34622 0
M  V30 62279 H 6103.21 -4.38816 -2.06321 0
M  V30 62280 N 6104.55 0.801406 -1.35703 0
M  V30 62281 C 6105.78 1.59514 -1.32552 0
M  V30 62282 C 6106.2 1.87868 0.0933583 0
M  V30 62283 O 6105.56 1.46958 1.06174 0
M  V30 62284 C 6105.61 2.9002 -2.14291 0
M  V30 62285 O 6104.71 3.83081 -1.52718 0
M  V30 62286 H 6104.05 0.484324 -0.454232 0
M  V30 62287 H 6106.58 0.994252 -1.78818 0
M  V30 62288 H 6106.59 3.39398 -2.26435 0
M  V30 62289 H 6105.27 2.68708 -3.17441 0
M  V30 62290 H 6103.85 3.41645 -1.49444 0
M  V30 62291 N 6106.03 1.19785 1.02417 0
M  V30 62292 C 6106.98 0.907582 2.09158 0
M  V30 62293 C 6107.97 -0.129539 1.60378 0
M  V30 62294 O 6109.16 0.0768004 1.76833 0
M  V30 62295 C 6106.29 0.453215 3.40295 0
M  V30 62296 C 6105.37 1.52334 3.95797 0
M  V30 62297 N 6105.76 2.74394 4.24902 0
M  V30 62298 C 6104.06 1.38773 4.23861 0
M  V30 62299 C 6104.76 3.43365 4.69548 0
M  V30 62300 N 6103.74 2.70766 4.71367 0
M  V30 62301 H 6107.54 1.8352 2.29559 0
M  V30 62302 H 6105.05 1.09072 1.2032 0
M  V30 62303 H 6107.05 0.226697 4.16283 0
M  V30 62304 H 6105.71 -0.46787 3.21311 0
M  V30 62305 H 6106.72 3.11114 4.14039 0
M  V30 62306 H 6103.4 0.530472 4.14116 0
M  V30 62307 H 6104.79 4.47771 5.0095 0
M  V30 62308 N 6107.51 -1.21603 1.00253 0
M  V30 62309 C 6108.47 -2.22105 0.565851 0
M  V30 62310 C 6109.47 -1.56799 -0.356466 0
M  V30 62311 O 6110.66 -1.73578 -0.147093 0
M  V30 62312 C 6107.79 -3.40447 -0.175622 0
M  V30 62313 H 6108.99 -2.62253 1.45477 0
M  V30 62314 H 6106.54 -1.3482 0.790769 0
M  V30 62315 H 6107.28 -3.05785 -1.08009 0
M  V30 62316 H 6107.06 -3.89067 0.486749 0
M  V30 62317 H 6108.55 -4.14958 -0.468976 0
M  V30 62318 N 6108.99 -0.776943 -1.37118 0
M  V30 62319 C 6110.21 -0.353983 -2.04357 0
M  V30 62320 C 6110.64 1.0174 -1.58211 0
M  V30 62321 O 6110 1.65297 -0.744749 0
M  V30 62322 C 6110.04 -0.412044 -3.58238 0
M  V30 62323 O 6109.15 0.585617 -4.08221 0
M  V30 62324 H 6108.49 -0.152357 -0.646284 0
M  V30 62325 H 6111.02 -1.05458 -1.75327 0
M  V30 62326 H 6111.03 -0.271186 -4.07098 0
M  V30 62327 H 6109.7 -1.41249 -3.9118 0
M  V30 62328 H 6108.28 0.40745 -3.70667 0
M  V30 62329 N 6110.47 1.48495 -0.527912 0
M  V30 62330 C 6111.74 1.9547 0.0712362 0
M  V30 62331 C 6112.12 1.4701 1.51497 0
M  V30 62332 O 6111.47 0.695686 2.17652 0
M  V30 62333 C 6111.68 3.48972 -0.0438774 0
M  V30 62334 C 6113.03 4.2444 0.116442 0
M  V30 62335 O 6114.05 3.56187 0.0300179 0
M  V30 62336 O 6112.91 5.45691 0.297299 0
M  V30 62337 H 6110.01 0.823078 0.080445 0
M  V30 62338 H 6112.55 1.59026 -0.592362 0
M  V30 62339 H 6111.32 3.76959 -1.04965 0
M  V30 62340 H 6110.95 3.92106 0.658665 0
M  V30 62341 N 6111.94 0.262948 1.55391 0
M  V30 62342 C 6113.19 -0.357825 1.99618 0
M  V30 62343 C 6113.52 -1.56411 1.15105 0
M  V30 62344 O 6112.8 -1.93272 0.218207 0
M  V30 62345 C 6113.08 -0.751971 3.52161 0
M  V30 62346 C 6112.93 0.460815 4.47433 0
M  V30 62347 C 6114.25 -1.59299 4.10258 0
M  V30 62348 H 6111.37 -0.128587 0.725696 0
M  V30 62349 H 6114.01 0.367465 1.86413 0
M  V30 62350 H 6112.16 -1.36993 3.63545 0
M  V30 62351 H 6113.84 1.09934 4.48009 0
M  V30 62352 H 6112.08 1.10108 4.19594 0
M  V30 62353 H 6112.75 0.141456 5.51819 0
M  V30 62354 H 6115.23 -1.0712 4.02075 0
M  V30 62355 H 6114.1 -1.8376 5.17227 0
M  V30 62356 H 6114.36 -2.57009 3.5972 0
M  V30 62357 N 6113.42 -1.57597 -0.00995191 0
M  V30 62358 C 6114.67 -1.90413 -0.697901 0
M  V30 62359 C 6115 -0.862985 -1.73972 0
M  V30 62360 O 6114.28 0.119578 -1.94132 0
M  V30 62361 C 6114.56 -3.33833 -1.3501 0
M  V30 62362 C 6114.41 -4.48657 -0.320502 0
M  V30 62363 C 6115.73 -3.76498 -2.27898 0
M  V30 62364 H 6112.85 -0.692491 -0.252241 0
M  V30 62365 H 6115.49 -1.89959 0.0392993 0
M  V30 62366 H 6113.64 -3.3435 -1.97844 0
M  V30 62367 H 6115.31 -4.60275 0.307391 0
M  V30 62368 H 6113.56 -4.32318 0.35828 0
M  V30 62369 H 6114.23 -5.4594 -0.815699 0
M  V30 62370 H 6116.7 -3.77469 -1.7509 0
M  V30 62371 H 6115.58 -4.77619 -2.70503 0
M  V30 62372 H 6115.84 -3.09812 -3.15387 0
M  V30 62373 N 6114.9 0.282551 -1.55046 0
M  V30 62374 C 6115.83 1.35341 -1.90277 0
M  V30 62375 C 6116.81 1.51998 -0.763585 0
M  V30 62376 O 6118 1.652 -1.02091 0
M  V30 62377 C 6115.13 2.71457 -2.1663 0
M  V30 62378 C 6114.08 2.69542 -3.32462 0
M  V30 62379 C 6113.41 4.0912 -3.44274 0
M  V30 62380 C 6114.71 2.29652 -4.69102 0
M  V30 62381 H 6116.4 1.06103 -2.79969 0
M  V30 62382 H 6113.95 0.50897 -1.34705 0
M  V30 62383 H 6115.9 3.46473 -2.39863 0
M  V30 62384 H 6114.62 3.02257 -1.23728 0
M  V30 62385 H 6113.28 1.96982 -3.09182 0
M  V30 62386 H 6112.93 4.37127 -2.48855 0
M  V30 62387 H 6112.63 4.08736 -4.22148 0
M  V30 62388 H 6114.15 4.8589 -3.69788 0
M  V30 62389 H 6115.57 2.94389 -4.91943 0
M  V30 62390 H 6113.96 2.40448 -5.49823 0
M  V30 62391 H 6115.03 1.24779 -4.6857 0
M  V30 62392 N 6116.38 1.47817 0.546623 0
M  V30 62393 C 6117.61 1.58388 1.32653 0
M  V30 62394 C 6118.02 0.237 1.8771 0
M  V30 62395 O 6117.36 -0.781463 1.66249 0
M  V30 62396 C 6117.42 2.55775 2.52625 0
M  V30 62397 C 6117.08 4.0123 2.18777 0
M  V30 62398 C 6118.08 4.89405 1.75438 0
M  V30 62399 C 6115.77 4.46645 2.29811 0
M  V30 62400 C 6117.76 6.21019 1.43576 0
M  V30 62401 C 6115.45 5.78284 1.97561 0
M  V30 62402 C 6116.45 6.65293 1.54513 0
M  V30 62403 O 6116.13 7.94484 1.22678 0
M  V30 62404 H 6115.87 0.53725 0.41029 0
M  V30 62405 H 6118.42 1.94237 0.66792 0
M  V30 62406 H 6116.65 2.15014 3.21412 0
M  V30 62407 H 6118.34 2.5636 3.14697 0
M  V30 62408 H 6119.1 4.55562 1.66397 0
M  V30 62409 H 6114.98 3.7912 2.62276 0
M  V30 62410 H 6118.53 6.88888 1.09902 0
M  V30 62411 H 6114.42 6.11667 2.06237 0
M  V30 62412 H 6115.19 8.07085 1.36218 0
M  V30 62413 N 6117.86 -0.794198 1.36126 0
M  V30 62414 C 6118.81 -1.89625 1.26595 0
M  V30 62415 C 6119.79 -1.60118 0.158471 0
M  V30 62416 O 6120.98 -1.72631 0.390844 0
M  V30 62417 C 6118.11 -3.26763 1.05266 0
M  V30 62418 C 6117.2 -3.62296 2.20459 0
M  V30 62419 N 6117.59 -3.69173 3.45753 0
M  V30 62420 C 6115.89 -3.92328 2.12119 0
M  V30 62421 C 6116.59 -4.00807 4.21579 0
M  V30 62422 N 6115.56 -4.1554 3.50467 0
M  V30 62423 H 6119.36 -1.93162 2.21508 0
M  V30 62424 H 6116.88 -0.989462 1.28777 0
M  V30 62425 H 6118.88 -4.05572 0.965251 0
M  V30 62426 H 6117.54 -3.24505 0.112488 0
M  V30 62427 H 6118.55 -3.51938 3.79948 0
M  V30 62428 H 6115.22 -3.98024 1.2603 0
M  V30 62429 H 6116.61 -4.13091 5.29911 0
M  V30 62430 N 6119.33 -1.20327 -1.0178 0
M  V30 62431 C 6120.27 -0.90879 -2.10413 0
M  V30 62432 C 6121.28 0.102972 -1.62474 0
M  V30 62433 O 6122.47 -0.127887 -1.78041 0
M  V30 62434 C 6119.57 -0.340719 -3.37183 0
M  V30 62435 C 6118.74 -1.40373 -4.14263 0
M  V30 62436 C 6117.8 -0.847198 -5.19335 0
M  V30 62437 O 6116.83 -1.5276 -5.48318 0
M  V30 62438 N 6118.03 0.343995 -5.7948 0
M  V30 62439 H 6120.79 -1.84391 -2.36262 0
M  V30 62440 H 6118.35 -1.10678 -1.18161 0
M  V30 62441 H 6120.35 0.0457021 -4.04674 0
M  V30 62442 H 6118.92 0.498933 -3.08593 0
M  V30 62443 H 6118.14 -1.96454 -3.41759 0
M  V30 62444 H 6119.42 -2.11968 -4.62544 0
M  V30 62445 H 6118.82 0.914067 -5.58266 0
M  V30 62446 H 6117.38 0.672068 -6.48326 0
M  V30 62447 N 6120.81 1.21069 -1.00896 0
M  V30 62448 C 6121.76 2.21424 -0.543652 0
M  V30 62449 C 6122.75 1.55928 0.396883 0
M  V30 62450 O 6123.94 1.75614 0.22109 0
M  V30 62451 C 6121.07 3.43075 0.124374 0
M  V30 62452 C 6120.15 4.1575 -0.837416 0
M  V30 62453 N 6120.54 4.64929 -1.99185 0
M  V30 62454 C 6118.84 4.4114 -0.656629 0
M  V30 62455 C 6119.54 5.20518 -2.59684 0
M  V30 62456 N 6118.52 5.10126 -1.8781 0
M  V30 62457 H 6122.32 2.57105 -1.42387 0
M  V30 62458 H 6119.84 1.3692 -0.873302 0
M  V30 62459 H 6121.83 4.14183 0.475218 0
M  V30 62460 H 6120.49 3.089 1.00053 0
M  V30 62461 H 6121.5 4.60384 -2.37207 0
M  V30 62462 H 6118.18 4.17145 0.172115 0
M  V30 62463 H 6119.57 5.68998 -3.57338 0
M  V30 62464 N 6122.29 0.784204 1.36704 0
M  V30 62465 C 6123.24 0.177125 2.30119 0
M  V30 62466 C 6124.21 -0.676047 1.5172 0
M  V30 62467 O 6125.39 -0.625815 1.80245 0
M  V30 62468 C 6122.53 -0.686218 3.38209 0
M  V30 62469 C 6121.65 0.184924 4.31604 0
M  V30 62470 C 6120.78 -0.684299 5.26774 0
M  V30 62471 C 6119.82 0.188617 6.11809 0
M  V30 62472 N 6118.96 -0.639291 6.99183 0
M  V30 62473 H 6123.8 0.979224 2.81452 0
M  V30 62474 H 6121.33 0.494468 1.3854 0
M  V30 62475 H 6123.29 -1.20171 3.99518 0
M  V30 62476 H 6121.92 -1.4538 2.88209 0
M  V30 62477 H 6120.97 0.818335 3.71494 0
M  V30 62478 H 6122.29 0.85774 4.9137 0
M  V30 62479 H 6121.44 -1.2658 5.93349 0
M  V30 62480 H 6120.18 -1.39076 4.6745 0
M  V30 62481 H 6119.18 0.782555 5.44202 0
M  V30 62482 H 6120.41 0.892597 6.73208 0
M  V30 62483 H 6118.35 -1.33014 6.42373 0
M  V30 62484 H 6118.27 -0.0240439 7.55996 0
M  V30 62485 H 6119.54 -1.20478 7.70133 0
M  V30 62486 N 6123.77 -1.48213 0.535779 0
M  V30 62487 C 6124.7 -2.27709 -0.261005 0
M  V30 62488 C 6125.71 -1.35717 -0.899149 0
M  V30 62489 O 6126.9 -1.6072 -0.776613 0
M  V30 62490 C 6124 -3.0929 -1.38538 0
M  V30 62491 C 6123.18 -4.291 -0.848067 0
M  V30 62492 C 6122.23 -4.92446 -1.85428 0
M  V30 62493 O 6121.26 -5.51487 -1.40891 0
M  V30 62494 N 6122.46 -4.85209 -3.18674 0
M  V30 62495 H 6125.23 -2.96731 0.42081 0
M  V30 62496 H 6122.79 -1.57604 0.370476 0
M  V30 62497 H 6124.78 -3.48537 -2.05679 0
M  V30 62498 H 6123.35 -2.42651 -1.97077 0
M  V30 62499 H 6122.57 -3.942 -0.000489164 0
M  V30 62500 H 6123.86 -5.06642 -0.468065 0
M  V30 62501 H 6123.26 -4.38402 -3.57519 0
M  V30 62502 H 6121.81 -5.28538 -3.81432 0
M  V30 62503 N 6125.25 -0.271185 -1.55249 0
M  V30 62504 C 6126.66 0.227335 -1.85311 0
M  V30 62505 C 6127.01 1.55748 -1.19319 0
M  V30 62506 O 6126.13 2.11007 -0.48012 0
M  V30 62507 C 6126.73 0.419264 -3.36196 0
M  V30 62508 C 6125.29 0.86202 -3.66396 0
M  V30 62509 C 6124.43 -0.0469508 -2.7726 0
M  V30 62510 H 6127.39 -0.493085 -1.50845 0
M  V30 62511 H 6127.41 1.25839 -3.59089 0
M  V30 62512 H 6126.92 -0.548991 -3.84197 0
M  V30 62513 H 6125.02 1.84189 -3.23891 0
M  V30 62514 H 6125.13 0.702064 -4.73928 0
M  V30 62515 H 6123.5 0.468681 -2.50351 0
M  V30 62516 H 6124.28 -1.01102 -3.28075 0
M  V30 62517 N 6126.72 1.576 0.00159402 0
M  V30 62518 C 6127.63 2.11751 1.00988 0
M  V30 62519 C 6128.65 1.0624 1.37801 0
M  V30 62520 O 6129.83 1.38132 1.46566 0
M  V30 62521 C 6126.89 2.60877 2.28351 0
M  V30 62522 C 6125.95 3.80983 1.97865 0
M  V30 62523 C 6125.19 4.27756 3.19156 0
M  V30 62524 O 6125.41 3.73872 4.30786 0
M  V30 62525 O 6124.34 5.19928 3.03247 0
M  V30 62526 H 6128.17 2.98119 0.579562 0
M  V30 62527 H 6125.75 1.47767 0.220323 0
M  V30 62528 H 6127.64 2.92681 3.03177 0
M  V30 62529 H 6126.31 1.77608 2.70624 0
M  V30 62530 H 6125.22 3.54155 1.2052 0
M  V30 62531 H 6126.55 4.6532 1.6043 0
M  V30 62532 N 6128.2 -0.274325 1.55194 0
M  V30 62533 C 6129.45 -1.00759 1.75998 0
M  V30 62534 C 6129.78 -1.85988 0.558745 0
M  V30 62535 O 6129.06 -1.89371 -0.443717 0
M  V30 62536 C 6129.34 -1.89126 3.06437 0
M  V30 62537 C 6129.19 -1.06899 4.36913 0
M  V30 62538 C 6130.51 -2.87857 3.32906 0
M  V30 62539 H 6127.63 -0.364892 0.64033 0
M  V30 62540 H 6130.27 -0.28009 1.87924 0
M  V30 62541 H 6128.42 -2.51156 2.964 0
M  V30 62542 H 6130.09 -0.469505 4.58905 0
M  V30 62543 H 6128.34 -0.372414 4.32198 0
M  V30 62544 H 6129.01 -1.72044 5.24504 0
M  V30 62545 H 6131.48 -2.35962 3.42726 0
M  V30 62546 H 6130.36 -3.4683 4.25441 0
M  V30 62547 H 6130.62 -3.62912 2.52482 0
M  V30 62548 N 6129.68 -1.48105 -0.538776 0
M  V30 62549 C 6130.91 -1.5932 -1.32002 0
M  V30 62550 C 6131.32 -0.250173 -1.87135 0
M  V30 62551 O 6130.68 0.7593 -1.65954 0
M  V30 62552 C 6130.73 -2.63295 -2.47705 0
M  V30 62553 O 6130.45 -3.92386 -1.94846 0
M  V30 62554 C 6131.95 -2.84868 -3.39654 0
M  V30 62555 H 6129.17 -0.537444 -0.401739 0
M  V30 62556 H 6131.72 -1.93866 -0.650852 0
M  V30 62557 H 6129.87 -2.31632 -3.10524 0
M  V30 62558 H 6130.29 -4.49355 -2.70518 0
M  V30 62559 H 6131.76 -3.61441 -4.1721 0
M  V30 62560 H 6132.24 -1.93366 -3.94343 0
M  V30 62561 H 6132.84 -3.17801 -2.82635 0
M  V30 62562 N 6131.16 0.786968 -1.36545 0
M  V30 62563 C 6132.11 1.9211 -1.31135 0
M  V30 62564 C 6133.1 1.68183 -0.202715 0
M  V30 62565 O 6134.31 1.76159 -0.369864 0
M  V30 62566 H 6130.68 0.6315 -0.408303 0
M  V30 62567 H 6132.65 1.93792 -2.26908 0
M  V30 62568 C 6131.4 3.29169 -1.11996 0
M  V30 62569 H 6130.72 3.48149 -1.96551 0
M  V30 62570 H 6132.16 4.08869 -1.12258 0
M  V30 62571 C 6130.62 3.36444 0.175264 0
M  V30 62572 O 6131.15 3.84459 1.16424 0
M  V30 62573 N 6129.36 2.8976 0.220777 0
M  V30 62574 H 6128.91 2.50878 -0.584646 0
M  V30 62575 H 6128.86 2.95009 1.08706 0
M  V30 62576 N 6132.64 1.20865 1.01141 0
M  V30 62577 C 6134.05 1.02161 1.56269 0
M  V30 62578 C 6134.4 -0.420485 1.91641 0
M  V30 62579 O 6133.52 -1.3027 1.72796 0
M  V30 62580 C 6134.12 1.84822 2.83947 0
M  V30 62581 C 6132.68 1.7047 3.35585 0
M  V30 62582 C 6131.82 1.82432 2.08839 0
M  V30 62583 H 6134.78 1.34981 0.834621 0
M  V30 62584 H 6134.8 1.35467 3.55568 0
M  V30 62585 H 6134.31 2.89774 2.58171 0
M  V30 62586 H 6132.41 0.681759 3.6631 0
M  V30 62587 H 6132.52 2.52055 4.07437 0
M  V30 62588 H 6130.89 1.25672 2.21537 0
M  V30 62589 H 6131.67 2.88879 1.85483 0
M  V30 62590 N 6134.12 -1.20532 1.01537 0
M  V30 62591 C 6135.36 -1.91579 0.712518 0
M  V30 62592 C 6135.72 -1.76998 -0.744027 0
M  V30 62593 O 6136.92 -2.42514 -1.15934 0
M  V30 62594 C 6135.19 -3.3891 1.13466 0
M  V30 62595 S 6136.75 -4.28313 0.953594 0
M  V30 62596 H 6133.57 -0.661834 0.259802 0
M  V30 62597 H 6136.17 -1.45803 1.30237 0
M  V30 62598 H 6134.87 -3.47043 2.19064 0
M  V30 62599 H 6134.41 -3.8971 0.537533 0
M  V30 62600 H 6136.42 -4.95992 -0.143548 0
M  V30 62601 N 6135.59 -0.791442 -1.36286 0
M  V30 62602 C 6136.87 -0.28867 -1.93458 0
M  V30 62603 C 6137.25 1.21947 -1.72314 0
M  V30 62604 O 6136.6 2.0119 -1.08327 0
M  V30 62605 C 6136.81 -0.683512 -3.42241 0
M  V30 62606 C 6138.16 -0.664402 -4.1937 0
M  V30 62607 O 6139.18 -0.624111 -3.5069 0
M  V30 62608 O 6138.04 -0.709116 -5.4188 0
M  V30 62609 H 6135.13 -0.0719595 -0.823863 0
M  V30 62610 H 6137.68 -0.874123 -1.45455 0
M  V30 62611 H 6136.45 -1.72356 -3.51296 0
M  V30 62612 H 6136.07 -0.0720525 -3.97535 0
M  V30 62613 N 6137.07 1.47927 -0.543632 0
M  V30 62614 C 6138.49 1.58311 -0.202431 0
M  V30 62615 C 6138.69 1.54398 1.29474 0
M  V30 62616 O 6137.74 1.44022 2.07398 0
M  V30 62617 C 6139.06 2.89387 -0.81706 0
M  V30 62618 C 6140.6 3.02943 -0.787042 0
M  V30 62619 C 6141.08 4.36699 -1.38049 0
M  V30 62620 N 6142.57 4.43301 -1.34307 0
M  V30 62621 C 6143.31 5.45332 -1.77201 0
M  V30 62622 N 6142.8 6.54247 -2.27889 0
M  V30 62623 N 6144.59 5.36296 -1.68355 0
M  V30 62624 H 6136.75 1.48713 -1.51651 0
M  V30 62625 H 6139.01 0.706944 -0.631612 0
M  V30 62626 H 6138.71 2.97946 -1.86872 0
M  V30 62627 H 6138.59 3.75988 -0.302112 0
M  V30 62628 H 6140.98 2.93988 0.255886 0
M  V30 62629 H 6141.06 2.17918 -1.3396 0
M  V30 62630 H 6140.7 4.46409 -2.42242 0
M  V30 62631 H 6140.63 5.20434 -0.803491 0
M  V30 62632 H 6143.12 3.65181 -0.972162 0
M  V30 62633 H 6143.43 7.28256 -2.58578 0
M  V30 62634 H 6141.78 6.55173 -2.31891 0
M  V30 62635 H 6144.97 4.50105 -1.28543 0
M  V30 62636 H 6145.14 6.15677 -2.02103 0
M  V30 62637 N 6138.55 0.279414 1.55103 0
M  V30 62638 C 6139.5 -0.606189 2.22697 0
M  V30 62639 C 6140.47 -1.14642 1.20193 0
M  V30 62640 O 6141.65 -1.19493 1.48748 0
M  V30 62641 C 6138.79 -1.78246 2.95504 0
M  V30 62642 C 6137.9 -1.27568 4.12735 0
M  V30 62643 C 6137.04 -2.41408 4.73176 0
M  V30 62644 C 6136.08 -1.87755 5.82593 0
M  V30 62645 N 6135.22 -2.95085 6.37079 0
M  V30 62646 H 6140.06 -0.023138 2.97991 0
M  V30 62647 H 6137.59 0.000346427 1.471 0
M  V30 62648 H 6139.55 -2.47395 3.35934 0
M  V30 62649 H 6138.18 -2.33747 2.22625 0
M  V30 62650 H 6137.23 -0.477148 3.77396 0
M  V30 62651 H 6138.54 -0.842724 4.9163 0
M  V30 62652 H 6137.7 -3.18543 5.16348 0
M  V30 62653 H 6136.44 -2.88021 3.93567 0
M  V30 62654 H 6135.44 -1.09101 5.38866 0
M  V30 62655 H 6136.67 -1.42073 6.64072 0
M  V30 62656 H 6134.61 -3.41072 5.60363 0
M  V30 62657 H 6134.53 -2.56221 7.11257 0
M  V30 62658 H 6135.8 -3.72182 6.84909 0
M  V30 62659 N 6140.03 -1.57599 0.00676391 0
M  V30 62660 C 6140.97 -2.08845 -0.982459 0
M  V30 62661 C 6141.94 -0.985386 -1.33714 0
M  V30 62662 O 6143.13 -1.25823 -1.43433 0
M  V30 62663 C 6140.27 -2.60196 -2.26698 0
M  V30 62664 C 6139.38 -3.84429 -1.97074 0
M  V30 62665 C 6138.52 -4.24256 -3.19657 0
M  V30 62666 C 6137.56 -5.41307 -2.8575 0
M  V30 62667 N 6136.69 -5.76395 -4.0089 0
M  V30 62668 H 6141.53 -2.93094 -0.538515 0
M  V30 62669 H 6139.07 -1.44886 -0.254242 0
M  V30 62670 H 6141.03 -2.88049 -3.01801 0
M  V30 62671 H 6139.66 -1.78812 -2.68749 0
M  V30 62672 H 6138.71 -3.63443 -1.1231 0
M  V30 62673 H 6140.02 -4.69626 -1.68086 0
M  V30 62674 H 6139.18 -4.53427 -4.03099 0
M  V30 62675 H 6137.92 -3.37781 -3.51788 0
M  V30 62676 H 6136.92 -5.11853 -2.00716 0
M  V30 62677 H 6138.15 -6.29463 -2.54859 0
M  V30 62678 H 6136.09 -4.92878 -4.32905 0
M  V30 62679 H 6136.01 -6.56181 -3.7545 0
M  V30 62680 H 6137.28 -6.10161 -4.85102 0
M  V30 62681 N 6141.51 0.266091 -1.55337 0
M  V30 62682 C 6142.75 1.00434 -1.78023 0
M  V30 62683 C 6143.11 1.83245 -0.573164 0
M  V30 62684 O 6144.31 2.60098 -0.678411 0
M  V30 62685 C 6142.58 1.85787 -3.05316 0
M  V30 62686 S 6144.14 2.65783 -3.49148 0
M  V30 62687 H 6140.96 0.338155 -0.625437 0
M  V30 62688 H 6143.56 0.274069 -1.93569 0
M  V30 62689 H 6142.26 1.23887 -3.91255 0
M  V30 62690 H 6141.8 2.63123 -2.92455 0
M  V30 62691 H 6143.81 3.88271 -3.08967 0
M  V30 62692 N 6142.98 1.48388 0.530914 0
M  V30 62693 C 6143.89 1.65522 1.66251 0
M  V30 62694 C 6144.91 0.537758 1.65482 0
M  V30 62695 O 6146.09 0.808707 1.8445 0
M  V30 62696 C 6143.15 1.69009 3.02716 0
M  V30 62697 C 6142.21 2.92376 3.14348 0
M  V30 62698 C 6141.44 2.95687 4.44302 0
M  V30 62699 O 6141.67 2.07435 5.31344 0
M  V30 62700 O 6140.6 3.87847 4.60281 0
M  V30 62701 H 6144.43 2.61326 1.54733 0
M  V30 62702 H 6142.01 1.31779 0.7039 0
M  V30 62703 H 6143.89 1.73829 3.83877 0
M  V30 62704 H 6142.57 0.763785 3.1456 0
M  V30 62705 H 6141.48 2.93089 2.32485 0
M  V30 62706 H 6142.81 3.84388 3.07419 0
M  V30 62707 N 6144.46 -0.779715 1.36961 0
M  V30 62708 C 6145.71 -1.53951 1.32931 0
M  V30 62709 C 6146.06 -1.92199 -0.0879786 0
M  V30 62710 O 6145.36 -1.60607 -1.04479 0
M  V30 62711 C 6145.55 -2.82068 2.19483 0
M  V30 62712 C 6145.38 -2.56341 3.69485 0
M  V30 62713 C 6144.15 -2.50871 4.38625 0
M  V30 62714 C 6146.35 -2.24878 4.6253 0
M  V30 62715 N 6144.33 -2.17145 5.74214 0
M  V30 62716 C 6145.7 -2.01223 5.86438 0
M  V30 62717 C 6147.75 -2.10966 4.50996 0
M  V30 62718 C 6146.46 -1.65062 7.00105 0
M  V30 62719 C 6148.48 -1.76205 5.6454 0
M  V30 62720 C 6147.85 -1.53404 6.87493 0
M  V30 62721 H 6143.94 -0.563982 0.541709 0
M  V30 62722 H 6146.53 -0.910358 1.72106 0
M  V30 62723 H 6144.7 -3.42834 1.82536 0
M  V30 62724 H 6146.43 -3.47891 2.0677 0
M  V30 62725 H 6143.19 -2.66452 3.91536 0
M  V30 62726 H 6143.61 -2.03001 6.45848 0
M  V30 62727 H 6148.25 -2.2728 3.56516 0
M  V30 62728 H 6145.97 -1.47487 7.94527 0
M  V30 62729 H 6149.56 -1.6611 5.57583 0
M  V30 62730 H 6148.44 -1.26903 7.73864 0
M  V30 62731 N 6145.94 -1.21399 -1.00498 0
M  V30 62732 C 6146.87 -0.997343 -2.11129 0
M  V30 62733 C 6147.85 0.0776858 -1.69923 0
M  V30 62734 O 6149.04 -0.0821482 -1.94026 0
M  V30 62735 C 6146.17 -0.561243 -3.42735 0
M  V30 62736 C 6145.12 -1.58083 -3.97736 0
M  V30 62737 C 6144.45 -1.00097 -5.25247 0
M  V30 62738 C 6145.75 -2.96769 -4.29797 0
M  V30 62739 H 6147.44 -1.92263 -2.29511 0
M  V30 62740 H 6144.99 -0.925815 -1.10294 0
M  V30 62741 H 6146.94 -0.396848 -4.19527 0
M  V30 62742 H 6145.66 0.39969 -3.24145 0
M  V30 62743 H 6144.32 -1.73279 -3.23063 0
M  V30 62744 H 6143.97 -0.0317565 -5.0299 0
M  V30 62745 H 6143.67 -1.68202 -5.63011 0
M  V30 62746 H 6145.19 -0.847899 -6.04684 0
M  V30 62747 H 6146.61 -2.85017 -4.97431 0
M  V30 62748 H 6145 -3.61888 -4.78704 0
M  V30 62749 H 6146.07 -3.47614 -3.38072 0
M  V30 62750 N 6147.42 1.19992 -1.02175 0
M  V30 62751 C 6148.66 1.91198 -0.722668 0
M  V30 62752 C 6149.02 1.7739 0.73463 0
M  V30 62753 O 6150.22 2.43125 1.14646 0
M  V30 62754 C 6148.49 3.38304 -1.15262 0
M  V30 62755 S 6150.05 4.27801 -0.976295 0
M  V30 62756 H 6146.87 0.660447 -0.263308 0
M  V30 62757 H 6149.47 1.45111 -1.31008 0
M  V30 62758 H 6148.18 3.45877 -2.20901 0
M  V30 62759 H 6147.71 3.8942 -0.558193 0
M  V30 62760 H 6149.72 4.96061 0.117242 0
M  V30 62761 N 6148.9 0.798659 1.35865 0
M  V30 62762 C 6149.83 0.217833 2.32482 0
M  V30 62763 C 6150.81 -0.652319 1.57095 0
M  V30 62764 O 6151.99 -0.584232 1.85204 0
M  V30 62765 C 6149.12 -0.640805 3.41337 0
M  V30 62766 C 6148.08 0.130204 4.27802 0
M  V30 62767 C 6147.4 -0.849625 5.27907 0
M  V30 62768 C 6148.7 1.32468 5.05222 0
M  V30 62769 H 6150.4 1.02502 2.81307 0
M  V30 62770 H 6147.94 0.494349 1.35249 0
M  V30 62771 H 6149.9 -1.05715 4.07924 0
M  V30 62772 H 6148.62 -1.4808 2.91101 0
M  V30 62773 H 6147.28 0.527627 3.62783 0
M  V30 62774 H 6146.93 -1.6849 4.73941 0
M  V30 62775 H 6146.63 -0.338117 5.86626 0
M  V30 62776 H 6148.15 -1.26434 5.97367 0
M  V30 62777 H 6149.56 0.983628 5.64799 0
M  V30 62778 H 6147.96 1.77013 5.73399 0
M  V30 62779 H 6149.03 2.11537 4.36326 0
M  V30 62780 N 6150.37 -1.47637 0.551469 0
M  V30 62781 C 6151.3 -2.32744 -0.187805 0
M  V30 62782 C 6152.29 -1.43435 -0.914356 0
M  V30 62783 O 6153.47 -1.72298 -0.895944 0
M  V30 62784 C 6150.6 -3.25096 -1.22188 0
M  V30 62785 C 6149.55 -4.236 -0.612149 0
M  V30 62786 C 6148.88 -5.05236 -1.75044 0
M  V30 62787 C 6150.18 -5.20524 0.430317 0
M  V30 62788 H 6151.87 -2.94802 0.522702 0
M  V30 62789 H 6149.42 -1.41763 0.252818 0
M  V30 62790 H 6151.37 -3.83473 -1.74718 0
M  V30 62791 H 6150.1 -2.61081 -1.96225 0
M  V30 62792 H 6148.76 -3.6644 -0.108196 0
M  V30 62793 H 6148.4 -4.37629 -2.47972 0
M  V30 62794 H 6148.1 -5.71922 -1.34828 0
M  V30 62795 H 6149.63 -5.66471 -2.27911 0
M  V30 62796 H 6151.04 -5.73299 -0.00870014 0
M  V30 62797 H 6149.44 -5.95382 0.751046 0
M  V30 62798 H 6150.51 -4.66352 1.32831 0
M  V30 62799 N 6151.85 -0.287636 -1.54953 0
M  V30 62800 C 6153.08 0.33137 -2.04736 0
M  V30 62801 C 6153.5 1.47748 -1.16414 0
M  V30 62802 O 6152.86 1.80544 -0.16536 0
M  V30 62803 C 6152.91 0.777999 -3.52107 0
M  V30 62804 O 6152.01 1.88409 -3.66846 0
M  V30 62805 H 6151.35 0.0665941 -0.660652 0
M  V30 62806 H 6153.88 -0.425586 -2.00125 0
M  V30 62807 H 6153.89 1.07041 -3.93708 0
M  V30 62808 H 6152.57 -0.0604646 -4.15856 0
M  V30 62809 H 6151.15 1.59326 -3.37149 0
M  V30 62810 N 6153.33 1.57593 -0.0151216 0
M  V30 62811 C 6154.74 1.79148 0.525646 0
M  V30 62812 C 6155.09 0.924046 1.73078 0
M  V30 62813 O 6154.22 0.130608 2.16006 0
M  V30 62814 C 6154.81 3.24903 0.960378 0
M  V30 62815 C 6153.37 3.47502 1.44635 0
M  V30 62816 C 6152.52 2.74333 0.404532 0
M  V30 62817 H 6155.47 1.56856 -0.24123 0
M  V30 62818 H 6155.49 3.33846 1.82557 0
M  V30 62819 H 6155 3.88011 0.0830661 0
M  V30 62820 H 6153.1 2.89629 2.34406 0
M  V30 62821 H 6153.22 4.56204 1.46338 0
M  V30 62822 H 6151.58 2.39397 0.869543 0
M  V30 62823 H 6152.36 3.40149 -0.464073 0
M  V30 62824 N 6154.81 -0.257849 1.55476 0
M  V30 62825 C 6156.03 -1.00949 1.81174 0
M  V30 62826 C 6156.46 -1.78584 0.590714 0
M  V30 62827 O 6155.82 -1.75366 -0.460044 0
M  V30 62828 C 6155.86 -1.93177 3.04491 0
M  V30 62829 O 6154.97 -3.02184 2.80639 0
M  V30 62830 H 6154.31 -0.287829 0.598373 0
M  V30 62831 H 6156.84 -0.282159 2.02645 0
M  V30 62832 H 6156.85 -2.34848 3.33632 0
M  V30 62833 H 6155.52 -1.36086 3.93006 0
M  V30 62834 H 6154.1 -2.6472 2.62636 0
M  V30 62835 N 6156.29 -1.48668 -0.523038 0
M  V30 62836 C 6157.53 -1.56728 -1.27596 0
M  V30 62837 C 6157.86 -0.246026 -1.93442 0
M  V30 62838 O 6157.13 0.732989 -1.8167 0
M  V30 62839 H 6155.71 -0.577406 -0.473932 0
M  V30 62840 H 6158.37 -1.85171 -0.608078 0
M  V30 62841 H 6157.46 -2.35195 -2.05158 0
M  V30 62842 N 6157.76 0.772441 -1.37372 0
M  V30 62843 C 6159.18 1.34868 -1.29103 0
M  V30 62844 C 6159.53 1.96103 0.0616743 0
M  V30 62845 O 6158.65 1.93767 0.963494 0
M  V30 62846 C 6159.25 2.4521 -2.33789 0
M  V30 62847 C 6157.81 2.98604 -2.29156 0
M  V30 62848 C 6156.95 1.71816 -2.17657 0
M  V30 62849 H 6159.9 0.572753 -1.48004 0
M  V30 62850 H 6159.92 3.24672 -1.98415 0
M  V30 62851 H 6159.44 2.00612 -3.32229 0
M  V30 62852 H 6157.54 3.47579 -1.34238 0
M  V30 62853 H 6157.65 3.54265 -3.22542 0
M  V30 62854 H 6156.01 1.94713 -1.64191 0
M  V30 62855 H 6156.8 1.29323 -3.1801 0
M  V30 62856 N 6159.24 1.21931 0.998532 0
M  V30 62857 C 6160.49 1.042 1.73983 0
M  V30 62858 C 6160.82 -0.422633 1.89545 0
M  V30 62859 O 6160.1 -1.31348 1.43451 0
M  V30 62860 C 6160.38 1.74728 3.14868 0
M  V30 62861 C 6160.23 3.28752 3.06989 0
M  V30 62862 C 6161.55 1.4951 4.13926 0
M  V30 62863 H 6158.67 0.37994 0.631518 0
M  V30 62864 H 6161.31 1.50194 1.16369 0
M  V30 62865 H 6159.46 1.35628 3.64057 0
M  V30 62866 H 6161.13 3.77261 2.65465 0
M  V30 62867 H 6159.38 3.5872 2.43931 0
M  V30 62868 H 6160.05 3.73272 4.06659 0
M  V30 62869 H 6162.52 1.83464 3.7347 0
M  V30 62870 H 6161.4 2.01362 5.10632 0
M  V30 62871 H 6161.66 0.426478 4.40038 0
M  V30 62872 N 6160.72 -1.19449 1.02809 0
M  V30 62873 C 6161.96 -1.90813 0.732798 0
M  V30 62874 C 6162.32 -1.77777 -0.725212 0
M  V30 62875 O 6163.53 -2.4373 -1.13355 0
M  V30 62876 C 6161.8 -3.37688 1.17054 0
M  V30 62877 S 6163.36 -4.27277 0.998968 0
M  V30 62878 H 6160.17 -0.659041 0.266807 0
M  V30 62879 H 6162.78 -1.44414 1.31776 0
M  V30 62880 H 6161.48 -3.447 2.22733 0
M  V30 62881 H 6161.01 -3.89118 0.578837 0
M  V30 62882 H 6163.03 -4.96117 -0.0909332 0
M  V30 62883 N 6162.2 -0.805853 -1.35439 0
M  V30 62884 C 6163.43 -0.398324 -2.0303 0
M  V30 62885 C 6163.84 0.990486 -1.60732 0
M  V30 62886 O 6163.2 1.6381 -0.804519 0
M  V30 62887 C 6163.25 -0.471242 -3.58415 0
M  V30 62888 O 6162.97 -1.8053 -3.99175 0
M  V30 62889 C 6164.47 -0.0564278 -4.43264 0
M  V30 62890 H 6161.69 -0.161928 -0.651168 0
M  V30 62891 H 6164.24 -1.08927 -1.73076 0
M  V30 62892 H 6162.39 0.171448 -3.8702 0
M  V30 62893 H 6162.8 -1.76757 -4.93819 0
M  V30 62894 H 6164.28 -0.158564 -5.51772 0
M  V30 62895 H 6164.76 0.998158 -4.27707 0
M  V30 62896 H 6165.36 -0.672245 -4.19954 0
M  V30 62897 N 6163.68 1.47342 -0.559291 0
M  V30 62898 C 6164.92 2.04364 -0.0383957 0
M  V30 62899 C 6165.28 1.42404 1.28783 0
M  V30 62900 O 6166.48 1.90485 1.89655 0
M  V30 62901 C 6164.75 3.57364 0.0508001 0
M  V30 62902 S 6166.31 4.35738 0.517517 0
M  V30 62903 H 6163.13 0.710519 -0.0261487 0
M  V30 62904 H 6165.73 1.80687 -0.746496 0
M  V30 62905 H 6164.44 3.99983 -0.918772 0
M  V30 62906 H 6163.97 3.85541 0.782391 0
M  V30 62907 H 6165.98 4.63297 1.77681 0
M  V30 62908 N 6165.16 0.295849 1.54798 0
M  V30 62909 C 6166.57 -0.197825 1.85649 0
M  V30 62910 C 6166.92 -1.5383 1.21782 0
M  V30 62911 O 6166.04 -2.10216 0.513628 0
M  V30 62912 C 6166.64 -0.365725 3.3682 0
M  V30 62913 C 6165.2 -0.803621 3.67721 0
M  V30 62914 C 6164.34 0.0910546 2.7715 0
M  V30 62915 H 6167.29 0.517021 1.50042 0
M  V30 62916 H 6167.32 -1.20111 3.61045 0
M  V30 62917 H 6166.83 0.610044 3.83275 0
M  V30 62918 H 6164.93 -1.79012 3.2678 0
M  V30 62919 H 6165.04 -0.626578 4.74985 0
M  V30 62920 H 6163.41 -0.428794 2.51065 0
M  V30 62921 H 6164.19 1.06308 3.26425 0
M  V30 62922 N 6166.63 -1.57583 0.023479 0
M  V30 62923 C 6167.58 -2.11026 -0.978305 0
M  V30 62924 C 6168.58 -1.03553 -1.34064 0
M  V30 62925 O 6169.78 -1.21995 -1.32353 0
M  V30 62926 H 6166.16 -0.674131 -0.333243 0
M  V30 62927 H 6168.13 -2.94144 -0.502198 0
M  V30 62928 C 6166.88 -2.64789 -2.25348 0
M  V30 62929 H 6166.2 -3.47132 -1.98341 0
M  V30 62930 H 6167.64 -3.05836 -2.93667 0
M  V30 62931 C 6166.1 -1.57273 -2.97938 0
M  V30 62932 O 6166.63 -0.969261 -3.89831 0
M  V30 62933 N 6164.83 -1.29452 -2.60174 0
M  V30 62934 H 6164.38 -1.78712 -1.85525 0
M  V30 62935 H 6164.34 -0.577384 -3.09053 0
M  V30 62936 N 6168.11 0.2496 -1.55611 0
M  V30 62937 C 6169.36 0.976086 -1.76966 0
M  V30 62938 C 6169.68 1.85956 -0.586968 0
M  V30 62939 O 6168.95 1.91828 0.397348 0
M  V30 62940 H 6167.53 0.363393 -0.652652 0
M  V30 62941 H 6170.19 0.268197 -1.93046 0
M  V30 62942 H 6169.29 1.59938 -2.68004 0
M  V30 62943 N 6169.59 1.48943 0.515146 0
M  V30 62944 C 6170.54 1.64567 1.61822 0
M  V30 62945 C 6171.51 0.487379 1.58789 0
M  V30 62946 O 6172.69 0.712688 1.7699 0
M  V30 62947 C 6169.83 1.70516 3.0003 0
M  V30 62948 C 6168.94 2.97554 3.13186 0
M  V30 62949 C 6168.08 2.9457 4.42043 0
M  V30 62950 C 6167.12 4.16248 4.48781 0
M  V30 62951 N 6166.26 4.11256 5.69045 0
M  V30 62952 H 6171.1 2.5876 1.47809 0
M  V30 62953 H 6168.63 1.2831 0.719378 0
M  V30 62954 H 6170.59 1.71947 3.80118 0
M  V30 62955 H 6169.22 0.798017 3.1278 0
M  V30 62956 H 6168.27 3.058 2.26253 0
M  V30 62957 H 6169.58 3.87543 3.14025 0
M  V30 62958 H 6168.74 2.94485 5.30437 0
M  V30 62959 H 6167.48 2.02335 4.43747 0
M  V30 62960 H 6166.48 4.16593 3.5879 0
M  V30 62961 H 6167.71 5.0966 4.48803 0
M  V30 62962 H 6165.65 3.2185 5.71619 0
M  V30 62963 H 6165.57 4.94966 5.71441 0
M  V30 62964 H 6166.84 4.15253 6.59686 0
M  V30 62965 N 6171.07 -0.765145 1.3778 0
M  V30 62966 C 6172.48 -1.06662 1.18724 0
M  V30 62967 C 6172.68 -2.01481 0.0279344 0
M  V30 62968 O 6171.74 -2.44516 -0.62992 0
M  V30 62969 C 6173.05 -1.65779 2.50874 0
M  V30 62970 C 6174.6 -1.78005 2.57455 0
M  V30 62971 C 6175.08 -2.40535 3.89753 0
M  V30 62972 N 6176.57 -2.47978 3.9123 0
M  V30 62973 C 6177.3 -2.97228 4.9035 0
M  V30 62974 N 6176.8 -3.466 5.99867 0
M  V30 62975 N 6178.59 -2.96163 4.77749 0
M  V30 62976 H 6170.74 -0.1357 2.11966 0
M  V30 62977 H 6173 -0.12283 0.940009 0
M  V30 62978 H 6172.71 -1.03576 3.36103 0
M  V30 62979 H 6172.58 -2.64991 2.6844 0
M  V30 62980 H 6174.97 -2.39339 1.7263 0
M  V30 62981 H 6175.05 -0.775302 2.43768 0
M  V30 62982 H 6174.7 -1.79838 4.74995 0
M  V30 62983 H 6174.63 -3.41629 4.00746 0
M  V30 62984 H 6177.12 -2.13045 3.12122 0
M  V30 62985 H 6177.43 -3.82602 6.71443 0
M  V30 62986 H 6175.78 -3.44688 6.03503 0
M  V30 62987 H 6178.97 -2.56895 3.91309 0
M  V30 62988 H 6179.14 -3.34234 5.5515 0
M  V30 62989 N 6172.55 -1.22459 -0.992051 0
M  V30 62990 C 6173.48 -1.01968 -2.10059 0
M  V30 62991 C 6174.46 0.0596588 -1.69995 0
M  V30 62992 O 6175.64 -0.102723 -1.93928 0
M  V30 62993 C 6172.77 -0.597563 -3.42121 0
M  V30 62994 C 6171.73 -1.62293 -3.96037 0
M  V30 62995 C 6171.05 -1.05662 -5.24156 0
M  V30 62996 C 6172.35 -3.01311 -4.26625 0
M  V30 62997 H 6174.05 -1.94686 -2.27459 0
M  V30 62998 H 6171.59 -0.937461 -1.09305 0
M  V30 62999 H 6173.54 -0.441322 -4.19083 0
M  V30 63000 H 6172.27 0.365287 -3.24551 0
M  V30 63001 H 6170.93 -1.76696 -3.21207 0
M  V30 63002 H 6170.58 -0.0851035 -5.02928 0
M  V30 63003 H 6170.28 -1.74164 -5.61196 0
M  V30 63004 H 6171.8 -0.911986 -6.03751 0
M  V30 63005 H 6173.21 -2.90277 -4.9438 0
M  V30 63006 H 6171.61 -3.66945 -4.74839 0
M  V30 63007 H 6172.68 -3.5118 -3.34366 0
M  V30 63008 N 6174.02 1.18902 -1.03441 0
M  V30 63009 C 6175.3 1.84534 -0.648568 0
M  V30 63010 C 6175.68 1.92231 0.872377 0
M  V30 63011 O 6175.03 1.44348 1.77132 0
M  V30 63012 C 6175.24 3.23193 -1.31709 0
M  V30 63013 C 6176.59 3.99296 -1.44388 0
M  V30 63014 O 6177.61 3.32611 -1.2747 0
M  V30 63015 O 6176.47 5.18761 -1.71898 0
M  V30 63016 H 6173.56 0.79548 -0.226142 0
M  V30 63017 H 6176.11 1.26346 -1.13291 0
M  V30 63018 H 6174.88 3.12458 -2.35554 0
M  V30 63019 H 6174.5 3.89032 -0.820966 0
M  V30 63020 N 6175.5 0.813024 1.3501 0
M  V30 63021 C 6176.45 0.216082 2.31594 0
M  V30 63022 C 6177.44 -0.637716 1.56938 0
M  V30 63023 O 6178.65 -0.53016 1.72015 0
M  V30 63024 H 6175.02 0.0511211 0.75026 0
M  V30 63025 H 6177 1.04569 2.79478 0
M  V30 63026 C 6175.74 -0.615531 3.42208 0
M  V30 63027 H 6175.07 0.0321142 3.99787 0
M  V30 63028 H 6176.51 -0.999486 4.12051 0
M  V30 63029 C 6174.97 -1.78376 2.85803 0
M  V30 63030 O 6175.5 -2.88153 2.79876 0
M  V30 63031 N 6173.7 -1.59734 2.42762 0
M  V30 63032 H 6173.25 -0.704381 2.47783 0
M  V30 63033 H 6173.21 -2.38054 2.05372 0
M  V30 63034 N 6176.98 -1.47043 0.567097 0
M  V30 63035 C 6178.23 -2.02046 0.0466587 0
M  V30 63036 C 6178.55 -1.44276 -1.31185 0
M  V30 63037 O 6177.82 -0.621599 -1.85777 0
M  V30 63038 H 6176.4 -0.746864 0.0142586 0
M  V30 63039 H 6179.06 -1.80332 0.739345 0
M  V30 63040 H 6178.16 -3.12081 -0.0340526 0
M  V30 63041 N 6178.46 -0.304054 -1.54639 0
M  V30 63042 C 6179.69 0.306844 -2.04612 0
M  V30 63043 C 6180.1 1.47286 -1.18119 0
M  V30 63044 O 6179.46 1.81317 -0.207494 0
M  V30 63045 C 6179.51 0.760139 -3.53418 0
M  V30 63046 O 6179.23 -0.359474 -4.36623 0
M  V30 63047 C 6180.73 1.43587 -4.19401 0
M  V30 63048 H 6177.95 0.0662235 -0.667724 0
M  V30 63049 H 6180.5 -0.444574 -1.99609 0
M  V30 63050 H 6178.65 1.46157 -3.58771 0
M  V30 63051 H 6179.06 -0.00600714 -5.245 0
M  V30 63052 H 6180.54 1.70417 -5.25035 0
M  V30 63053 H 6181.02 2.37692 -3.69323 0
M  V30 63054 H 6181.62 0.777536 -4.18132 0
M  V30 63055 N 6179.94 1.57568 -0.0318356 0
M  V30 63056 C 6181.18 1.93778 0.650339 0
M  V30 63057 C 6181.54 0.908676 1.69136 0
M  V30 63058 O 6182.74 1.15707 2.42622 0
M  V30 63059 C 6181.01 3.34891 1.24831 0
M  V30 63060 S 6182.57 3.93032 1.95118 0
M  V30 63061 H 6179.39 0.678015 0.21405 0
M  V30 63062 H 6181.99 1.95263 -0.0961504 0
M  V30 63063 H 6180.7 4.07604 0.478251 0
M  V30 63064 H 6180.23 3.36855 2.03205 0
M  V30 63065 H 6182.24 3.76688 3.22988 0
M  V30 63066 N 6181.41 -0.241344 1.55741 0
M  V30 63067 C 6182.66 -0.970035 1.78096 0
M  V30 63068 C 6182.99 -1.84761 0.59807 0
M  V30 63069 O 6182.27 -1.9027 -0.403449 0
M  V30 63070 C 6182.55 -1.82584 3.10379 0
M  V30 63071 C 6182.4 -0.976074 4.39082 0
M  V30 63072 C 6183.72 -2.80731 3.38937 0
M  V30 63073 H 6180.84 -0.351228 0.647926 0
M  V30 63074 H 6183.48 -0.240166 1.88476 0
M  V30 63075 H 6181.63 -2.44812 3.01661 0
M  V30 63076 H 6183.31 -0.372058 4.59797 0
M  V30 63077 H 6181.55 -0.280655 4.32891 0
M  V30 63078 H 6182.22 -1.6088 5.28036 0
M  V30 63079 H 6184.7 -2.28639 3.47654 0
M  V30 63080 H 6183.57 -3.37728 4.32702 0
M  V30 63081 H 6183.83 -3.57475 2.60123 0
M  V30 63082 N 6182.89 -1.49214 -0.50724 0
M  V30 63083 C 6184.3 -1.51659 -1.08887 0
M  V30 63084 C 6184.65 -0.299231 -1.93905 0
M  V30 63085 O 6183.78 0.591562 -2.08157 0
M  V30 63086 C 6184.37 -2.74817 -1.98145 0
M  V30 63087 C 6182.93 -2.8006 -2.51482 0
M  V30 63088 C 6182.08 -2.4549 -1.28957 0
M  V30 63089 H 6185.03 -1.56001 -0.291433 0
M  V30 63090 H 6185.05 -2.54625 -2.82748 0
M  V30 63091 H 6184.56 -3.63401 -1.3624 0
M  V30 63092 H 6182.67 -1.9574 -3.17043 0
M  V30 63093 H 6182.78 -3.82074 -2.89061 0
M  V30 63094 H 6181.14 -1.97134 -1.61277 0
M  V30 63095 H 6181.93 -3.36341 -0.687703 0
M  V30 63096 N 6184.37 0.757827 -1.38184 0
M  V30 63097 C 6185.62 1.51908 -1.34357 0
M  V30 63098 C 6185.95 1.94082 0.0676321 0
M  V30 63099 O 6185.22 1.65117 1.02793 0
M  V30 63100 C 6185.51 2.77458 -2.29541 0
M  V30 63101 C 6185.36 2.41449 -3.79503 0
M  V30 63102 C 6186.68 3.79462 -2.22928 0
M  V30 63103 H 6183.8 0.551073 -0.489374 0
M  V30 63104 H 6186.44 0.868317 -1.68998 0
M  V30 63105 H 6184.59 3.32987 -2.00131 0
M  V30 63106 H 6186.26 1.91728 -4.19569 0
M  V30 63107 H 6184.51 1.73962 -3.97391 0
M  V30 63108 H 6185.18 3.31257 -4.41558 0
M  V30 63109 H 6187.65 3.33462 -2.48882 0
M  V30 63110 H 6186.53 4.6501 -2.91646 0
M  V30 63111 H 6186.79 4.2474 -1.22673 0
M  V30 63112 N 6185.85 1.22983 0.985543 0
M  V30 63113 C 6187.26 1.05453 1.54067 0
M  V30 63114 C 6187.61 -0.37974 1.9249 0
M  V30 63115 O 6186.74 -1.26576 1.75521 0
M  V30 63116 C 6187.33 1.90804 2.79963 0
M  V30 63117 C 6185.89 1.7755 3.31893 0
M  V30 63118 C 6185.04 1.86821 2.04923 0
M  V30 63119 H 6187.99 1.36721 0.805802 0
M  V30 63120 H 6188.01 1.42979 3.52615 0
M  V30 63121 H 6187.52 2.95185 2.51967 0
M  V30 63122 H 6185.62 0.759306 3.64781 0
M  V30 63123 H 6185.73 2.60641 4.01999 0
M  V30 63124 H 6184.1 1.30343 2.18821 0
M  V30 63125 H 6184.88 2.92748 1.79314 0
M  V30 63126 N 6187.33 -1.18352 1.04071 0
M  V30 63127 C 6188.55 -1.92814 0.764047 0
M  V30 63128 C 6188.98 -1.7566 -0.672687 0
M  V30 63129 O 6188.33 -1.06677 -1.46594 0
M  V30 63130 C 6188.38 -3.42263 1.13528 0
M  V30 63131 O 6187.49 -4.11575 0.260791 0
M  V30 63132 H 6186.83 -0.601522 0.281188 0
M  V30 63133 H 6189.36 -1.50082 1.39056 0
M  V30 63134 H 6189.37 -3.92969 1.09723 0
M  V30 63135 H 6188.04 -3.54068 2.18193 0
M  V30 63136 H 6186.62 -3.71173 0.358472 0
M  V30 63137 N 6188.8 -0.820173 -1.34577 0
M  V30 63138 C 6190.22 -0.466128 -1.80788 0
M  V30 63139 C 6190.57 1.01321 -1.68013 0
M  V30 63140 O 6189.69 1.78831 -1.21855 0
M  V30 63141 C 6190.29 -0.839307 -3.28239 0
M  V30 63142 C 6188.85 -0.537671 -3.7254 0
M  V30 63143 C 6187.99 -1.05769 -2.56336 0
M  V30 63144 H 6190.94 -1.0106 -1.22363 0
M  V30 63145 H 6190.96 -0.14203 -3.80235 0
M  V30 63146 H 6190.48 -1.91604 -3.37505 0
M  V30 63147 H 6188.58 0.529765 -3.68815 0
M  V30 63148 H 6188.69 -1.07981 -4.66773 0
M  V30 63149 H 6187.05 -0.479363 -2.50148 0
M  V30 63150 H 6187.84 -2.14081 -2.68373 0
M  V30 63151 N 6190.28 1.46741 -0.574887 0
M  V30 63152 C 6191.51 2.06804 -0.0628719 0
M  V30 63153 C 6191.93 1.42486 1.23867 0
M  V30 63154 O 6191.28 0.527436 1.74712 0
M  V30 63155 C 6191.33 3.61308 0.117856 0
M  V30 63156 O 6191.05 4.23218 -1.13216 0
M  V30 63157 C 6192.56 4.38282 0.665123 0
M  V30 63158 H 6189.78 0.668833 -0.0538851 0
M  V30 63159 H 6192.32 1.88485 -0.793331 0
M  V30 63160 H 6190.47 3.79081 0.798507 0
M  V30 63161 H 6190.89 5.15989 -0.941034 0
M  V30 63162 H 6192.36 5.47007 0.740793 0
M  V30 63163 H 6192.84 4.05783 1.68038 0
M  V30 63164 H 6193.45 4.25295 0.0195967 0
M  V30 63165 N 6191.76 0.312251 1.54476 0
M  V30 63166 C 6193.17 -0.178123 1.85848 0
M  V30 63167 C 6193.52 -1.5253 1.23407 0
M  V30 63168 O 6192.65 -2.0966 0.535896 0
M  V30 63169 C 6193.24 -0.32998 3.37189 0
M  V30 63170 C 6191.8 -0.764574 3.68553 0
M  V30 63171 C 6190.95 0.120445 2.77038 0
M  V30 63172 H 6193.9 0.532906 1.49485 0
M  V30 63173 H 6193.92 -1.16275 3.62299 0
M  V30 63174 H 6193.43 0.650662 3.82607 0
M  V30 63175 H 6191.53 -1.75536 3.2866 0
M  V30 63176 H 6191.65 -0.576164 4.75623 0
M  V30 63177 H 6190.01 -0.402141 2.51505 0
M  V30 63178 H 6190.79 1.09765 3.25279 0
M  V30 63179 N 6193.24 -1.57549 0.0401914 0
M  V30 63180 C 6194.65 -1.79961 -0.497079 0
M  V30 63181 C 6195 -0.951464 -1.71586 0
M  V30 63182 O 6194.13 -0.164956 -2.1577 0
M  V30 63183 C 6194.72 -3.2639 -0.908567 0
M  V30 63184 C 6193.28 -3.49759 -1.39088 0
M  V30 63185 C 6192.43 -2.74942 -0.360837 0
M  V30 63186 H 6195.38 -1.56452 0.266154 0
M  V30 63187 H 6195.4 -3.36708 -1.77222 0
M  V30 63188 H 6194.91 -3.88094 -0.0213264 0
M  V30 63189 H 6193.01 -2.93321 -2.29768 0
M  V30 63190 H 6193.13 -4.58474 -1.39062 0
M  V30 63191 H 6191.49 -2.4075 -0.831347 0
M  V30 63192 H 6192.27 -3.39368 0.518129 0
M  V30 63193 N 6194.72 0.233081 -1.55867 0
M  V30 63194 C 6196.13 0.801033 -1.68643 0
M  V30 63195 C 6196.48 1.85463 -0.640147 0
M  V30 63196 O 6195.6 2.15369 0.210963 0
M  V30 63197 C 6196.2 1.45973 -3.0574 0
M  V30 63198 C 6194.76 1.97521 -3.20409 0
M  V30 63199 C 6193.91 0.831228 -2.64548 0
M  V30 63200 H 6196.86 0.00863129 -1.58698 0
M  V30 63201 H 6196.88 2.32821 -3.00956 0
M  V30 63202 H 6196.39 0.692671 -3.81869 0
M  V30 63203 H 6194.49 2.77065 -2.4913 0
M  V30 63204 H 6194.6 2.16311 -4.27489 0
M  V30 63205 H 6192.97 1.23546 -2.22729 0
M  V30 63206 H 6193.75 0.0770258 -3.43214 0
M  V30 63207 N 6196.2 1.49481 0.49932 0
M  V30 63208 C 6197.47 1.49555 1.26066 0
M  V30 63209 C 6197.85 0.224216 2.09906 0
M  V30 63210 O 6197.2 -0.793357 2.14285 0
M  V30 63211 C 6197.41 2.77541 2.11594 0
M  V30 63212 C 6198.76 3.27097 2.70726 0
M  V30 63213 O 6199.78 2.7867 2.2186 0
M  V30 63214 O 6198.64 4.11444 3.59689 0
M  V30 63215 H 6195.74 0.598651 0.570566 0
M  V30 63216 H 6198.28 1.61746 0.513452 0
M  V30 63217 H 6197.05 3.61561 1.4963 0
M  V30 63218 H 6196.68 2.68218 2.93504 0
M  V30 63219 N 6197.67 -0.750488 1.38584 0
M  V30 63220 C 6198.64 -1.84594 1.35859 0
M  V30 63221 C 6199.64 -1.58708 0.258517 0
M  V30 63222 O 6200.83 -1.66395 0.515579 0
M  V30 63223 C 6197.96 -3.22121 1.11585 0
M  V30 63224 H 6199.15 -1.88418 2.33321 0
M  V30 63225 H 6196.7 -0.95252 1.23922 0
M  V30 63226 H 6197.44 -3.23965 0.147409 0
M  V30 63227 H 6197.22 -3.42304 1.91233 0
M  V30 63228 H 6198.71 -4.02194 1.12381 0
M  V30 63229 N 6199.15 -1.23504 -0.979007 0
M  V30 63230 C 6200.56 -1.06269 -1.53505 0
M  V30 63231 C 6200.91 0.369527 -1.92689 0
M  V30 63232 O 6200.04 1.25643 -1.76189 0
M  V30 63233 C 6200.63 -1.92286 -2.78947 0
M  V30 63234 C 6199.19 -1.79307 -3.30947 0
M  V30 63235 C 6198.34 -1.87905 -2.03929 0
M  V30 63236 H 6201.29 -1.37146 -0.79854 0
M  V30 63237 H 6201.31 -1.44847 -3.51852 0
M  V30 63238 H 6200.82 -2.96518 -2.50398 0
M  V30 63239 H 6198.92 -0.77864 -3.64373 0
M  V30 63240 H 6199.04 -2.62769 -4.00611 0
M  V30 63241 H 6197.4 -1.31502 -2.18127 0
M  V30 63242 H 6198.18 -2.93695 -1.77759 0
M  V30 63243 N 6200.63 1.17798 -1.04697 0
M  V30 63244 C 6202.05 1.39941 -0.767379 0
M  V30 63245 C 6202.25 1.91053 0.640384 0
M  V30 63246 O 6201.3 2.09894 1.40359 0
M  V30 63247 C 6202.61 2.39458 -1.8188 0
M  V30 63248 C 6204.16 2.53174 -1.84044 0
M  V30 63249 C 6204.64 3.5596 -2.88195 0
M  V30 63250 N 6206.13 3.63473 -2.87126 0
M  V30 63251 C 6206.86 4.42749 -3.64363 0
M  V30 63252 N 6206.36 5.25581 -4.51371 0
M  V30 63253 N 6208.15 4.37574 -3.52825 0
M  V30 63254 H 6200.3 0.829498 -1.95533 0
M  V30 63255 H 6202.57 0.426979 -0.8464 0
M  V30 63256 H 6202.27 2.08964 -2.8289 0
M  V30 63257 H 6202.15 3.38893 -1.65624 0
M  V30 63258 H 6204.53 2.82981 -0.837007 0
M  V30 63259 H 6204.61 1.5383 -2.04377 0
M  V30 63260 H 6204.26 3.26893 -3.88721 0
M  V30 63261 H 6204.19 4.54996 -2.65115 0
M  V30 63262 H 6206.68 3.0433 -2.24035 0
M  V30 63263 H 6206.99 5.83241 -5.07001 0
M  V30 63264 H 6205.34 5.2498 -4.55435 0
M  V30 63265 H 6208.53 3.71914 -2.84249 0
M  V30 63266 H 6208.7 4.99114 -4.13267 0
M  V30 63267 N 6202.11 0.827298 1.3414 0
M  V30 63268 C 6203.52 0.475709 1.80538 0
M  V30 63269 C 6203.87 -1.00429 1.68548 0
M  V30 63270 O 6202.99 -1.78182 1.22802 0
M  V30 63271 C 6203.59 0.856703 3.2779 0
M  V30 63272 C 6202.15 0.55742 3.7225 0
M  V30 63273 C 6201.3 1.07127 2.55772 0
M  V30 63274 H 6204.25 1.01707 1.21825 0
M  V30 63275 H 6204.27 0.162193 3.80154 0
M  V30 63276 H 6203.78 1.93391 3.36484 0
M  V30 63277 H 6201.88 -0.510198 3.6909 0
M  V30 63278 H 6201.99 1.10455 4.66194 0
M  V30 63279 H 6200.36 0.492622 2.49891 0
M  V30 63280 H 6201.14 2.15501 2.67234 0
M  V30 63281 N 6203.59 -1.46434 0.582661 0
M  V30 63282 C 6204.83 -2.01985 0.0680858 0
M  V30 63283 C 6205.15 -1.45659 -1.29647 0
M  V30 63284 O 6204.42 -0.641268 -1.85107 0
M  V30 63285 H 6203 -0.746671 0.0221793 0
M  V30 63286 H 6205.67 -1.79538 0.75843 0
M  V30 63287 H 6204.76 -3.121 -0.00095029 0
M  V30 63288 N 6205.06 -0.320439 -1.54308 0
M  V30 63289 C 6206.29 0.285125 -2.04926 0
M  V30 63290 C 6206.71 1.46025 -1.19675 0
M  V30 63291 O 6206.06 1.81086 -0.226713 0
M  V30 63292 C 6206.11 0.722611 -3.54204 0
M  V30 63293 O 6205.84 -0.405763 -4.36217 0
M  V30 63294 C 6207.34 1.39131 -4.20901 0
M  V30 63295 H 6204.56 0.0591377 -0.668389 0
M  V30 63296 H 6207.1 -0.46572 -1.99126 0
M  V30 63297 H 6205.26 1.42344 -3.60301 0
M  V30 63298 H 6205.67 -0.061637 -5.24464 0
M  V30 63299 H 6207.14 1.64839 -5.26813 0
M  V30 63300 H 6207.62 2.33761 -3.71823 0
M  V30 63301 H 6208.23 0.733144 -4.18933 0
M  V30 63302 N 6206.54 1.57525 -0.048546 0
M  V30 63303 C 6207.78 1.94457 0.62975 0
M  V30 63304 C 6208.15 0.926564 1.68163 0
M  V30 63305 O 6209.35 1.18273 2.41381 0
M  V30 63306 C 6207.62 3.36196 1.21272 0
M  V30 63307 S 6209.18 3.9508 1.90939 0
M  V30 63308 H 6205.99 0.680247 0.206847 0
M  V30 63309 H 6208.6 1.9515 -0.116855 0
M  V30 63310 H 6207.3 4.08088 0.434993 0
M  V30 63311 H 6206.83 3.38992 1.9962 0
M  V30 63312 H 6208.85 3.80092 3.18974 0
M  V30 63313 N 6208.02 -0.224812 1.55988 0
M  V30 63314 C 6208.97 -1.29822 1.93 0
M  V30 63315 C 6209.96 -1.4869 0.811643 0
M  V30 63316 O 6211.17 -1.49903 0.99645 0
M  V30 63317 H 6207.54 -0.435183 0.613286 0
M  V30 63318 H 6209.51 -0.958854 2.82575 0
M  V30 63319 C 6208.26 -2.64212 2.26025 0
M  V30 63320 H 6207.59 -2.505 3.11592 0
M  V30 63321 H 6209.03 -3.38139 2.55809 0
M  V30 63322 C 6207.49 -3.18976 1.08424 0
M  V30 63323 O 6208.02 -4.00227 0.343679 0
M  V30 63324 N 6206.22 -2.77305 0.868939 0
M  V30 63325 H 6205.77 -2.11339 1.47288 0
M  V30 63326 H 6205.73 -3.14288 0.0838117 0
M  V30 63327 N 6209.5 -1.49744 -0.491385 0
M  V30 63328 C 6210.43 -1.70039 -1.60028 0
M  V30 63329 C 6211.41 -0.549132 -1.60992 0
M  V30 63330 O 6212.59 -0.786045 -1.77581 0
M  V30 63331 C 6209.72 -1.77581 -2.98467 0
M  V30 63332 C 6208.68 -2.92591 -3.12369 0
M  V30 63333 C 6208 -2.85255 -4.52254 0
M  V30 63334 C 6209.3 -4.33395 -2.91489 0
M  V30 63335 H 6211 -2.6288 -1.43298 0
M  V30 63336 H 6208.54 -1.26504 -0.687944 0
M  V30 63337 H 6210.5 -1.90364 -3.75951 0
M  V30 63338 H 6209.22 -0.813454 -3.16308 0
M  V30 63339 H 6207.88 -2.79425 -2.37312 0
M  V30 63340 H 6207.53 -1.86908 -4.66984 0
M  V30 63341 H 6207.23 -3.62453 -4.62495 0
M  V30 63342 H 6208.75 -3.0006 -5.31786 0
M  V30 63343 H 6210.17 -4.47192 -3.58736 0
M  V30 63344 H 6208.56 -5.11889 -3.13193 0
M  V30 63345 H 6209.63 -4.47172 -1.87524 0
M  V30 63346 N 6210.98 0.743128 -1.3898 0
M  V30 63347 C 6211.91 1.86704 -1.32944 0
M  V30 63348 C 6212.92 1.61026 -0.239701 0
M  V30 63349 O 6214.11 1.71411 -0.498051 0
M  V30 63350 C 6211.21 3.22562 -1.03957 0
M  V30 63351 C 6210.38 3.75662 -2.24047 0
M  V30 63352 C 6209.44 4.90061 -1.91642 0
M  V30 63353 O 6208.47 5.04147 -2.64244 0
M  V30 63354 N 6209.67 5.73827 -0.877666 0
M  V30 63355 H 6212.44 1.92389 -2.29797 0
M  V30 63356 H 6210 0.923518 -1.32977 0
M  V30 63357 H 6211.99 3.96651 -0.803116 0
M  V30 63358 H 6210.56 3.12197 -0.15865 0
M  V30 63359 H 6209.78 2.93018 -2.63694 0
M  V30 63360 H 6211.07 4.07871 -3.04169 0
M  V30 63361 H 6210.46 5.65027 -0.275802 0
M  V30 63362 H 6209.02 6.48018 -0.701108 0
M  V30 63363 N 6212.45 1.24021 0.972444 0
M  V30 63364 C 6213.69 1.08891 1.7298 0
M  V30 63365 C 6214.06 -0.3667 1.88466 0
M  V30 63366 O 6215.26 -0.639389 2.61085 0
M  V30 63367 C 6213.53 1.80317 3.08578 0
M  V30 63368 S 6215.09 1.80858 3.99795 0
M  V30 63369 H 6211.91 0.389544 0.594791 0
M  V30 63370 H 6214.51 1.57279 1.16118 0
M  V30 63371 H 6213.21 2.85349 2.94965 0
M  V30 63372 H 6212.74 1.32243 3.70507 0
M  V30 63373 H 6214.76 0.872864 4.88462 0
M  V30 63374 N 6213.93 -1.17241 1.0532 0
M  V30 63375 C 6215.18 -1.87533 0.764046 0
M  V30 63376 C 6215.51 -1.81118 -0.708985 0
M  V30 63377 O 6214.76 -1.21478 -1.53432 0
M  V30 63378 C 6215.06 -3.36954 1.1915 0
M  V30 63379 C 6214.73 -3.63571 2.66696 0
M  V30 63380 C 6213.39 -3.70545 3.07001 0
M  V30 63381 C 6215.74 -3.74941 3.62034 0
M  V30 63382 C 6213.07 -3.8638 4.41506 0
M  V30 63383 C 6215.42 -3.92295 4.96273 0
M  V30 63384 C 6214.09 -3.97508 5.36231 0
M  V30 63385 H 6213.36 -0.686232 0.279584 0
M  V30 63386 H 6216 -1.38689 1.32051 0
M  V30 63387 H 6214.31 -3.87863 0.554047 0
M  V30 63388 H 6216 -3.89707 0.944952 0
M  V30 63389 H 6212.59 -3.58769 2.34484 0
M  V30 63390 H 6216.78 -3.68873 3.32033 0
M  V30 63391 H 6212.03 -3.88665 4.71964 0
M  V30 63392 H 6216.21 -4.00035 5.7004 0
M  V30 63393 H 6213.84 -4.09531 6.4046 0
M  V30 63394 N 6215.41 -0.8344 -1.33699 0
M  V30 63395 C 6216.36 -0.252899 -2.31221 0
M  V30 63396 C 6217.35 0.612667 -1.57933 0
M  V30 63397 O 6218.56 0.502727 -1.72837 0
M  V30 63398 H 6214.93 -0.0630506 -0.749352 0
M  V30 63399 H 6216.9 -1.09002 -2.77779 0
M  V30 63400 C 6215.65 0.561011 -3.43144 0
M  V30 63401 H 6214.98 -0.0957128 -3.99685 0
M  V30 63402 H 6216.42 0.933805 -4.13589 0
M  V30 63403 C 6214.88 1.73807 -2.88605 0
M  V30 63404 O 6215.41 2.83664 -2.84425 0
M  V30 63405 N 6213.61 1.55851 -2.45273 0
M  V30 63406 H 6213.16 0.664872 -2.48872 0
M  V30 63407 H 6213.12 2.34756 -2.09134 0
M  V30 63408 N 6216.89 1.46123 -0.590418 0
M  V30 63409 C 6218.14 2.01946 -0.0787966 0
M  V30 63410 C 6218.46 1.46345 1.28873 0
M  V30 63411 O 6217.73 0.651075 1.84764 0
M  V30 63412 H 6216.31 0.746543 -0.0261388 0
M  V30 63413 H 6218.97 1.79133 -0.76794 0
M  V30 63414 H 6218.07 3.12096 -0.0156011 0
M  V30 63415 N 6218.37 0.328618 1.54136 0
M  V30 63416 C 6219.61 -0.271897 2.00263 0
M  V30 63417 C 6219.94 -1.52256 1.21832 0
M  V30 63418 O 6219.21 -1.93244 0.321483 0
M  V30 63419 H 6217.79 -0.103458 0.739801 0
M  V30 63420 H 6220.45 0.44633 1.89721 0
M  V30 63421 H 6219.54 -0.524772 3.07657 0
M  V30 63422 N 6219.84 -1.57497 0.0568993 0
M  V30 63423 C 6221.07 -1.97647 -0.62852 0
M  V30 63424 C 6221.49 -0.934481 -1.63245 0
M  V30 63425 O 6220.85 0.101642 -1.81015 0
M  V30 63426 C 6220.9 -3.36859 -1.28678 0
M  V30 63427 O 6220 -3.3519 -2.40252 0
M  V30 63428 H 6219.35 -0.643703 -0.162917 0
M  V30 63429 H 6221.88 -2.04205 0.126998 0
M  V30 63430 H 6221.89 -3.73714 -1.63713 0
M  V30 63431 H 6220.56 -4.12233 -0.551058 0
M  V30 63432 H 6219.14 -3.10088 -2.07123 0
M  V30 63433 N 6221.32 0.216536 -1.56105 0
M  V30 63434 C 6222.56 0.947197 -1.81129 0
M  V30 63435 C 6222.93 1.81329 -0.631172 0
M  V30 63436 O 6224.13 2.57808 -0.760816 0
M  V30 63437 C 6222.4 1.7598 -3.11072 0
M  V30 63438 S 6223.96 2.54541 -3.57427 0
M  V30 63439 H 6220.78 0.318086 -0.635879 0
M  V30 63440 H 6223.38 0.212347 -1.94343 0
M  V30 63441 H 6222.08 1.11377 -3.94998 0
M  V30 63442 H 6221.61 2.53686 -3.00678 0
M  V30 63443 H 6223.63 3.78245 -3.21163 0
M  V30 63444 N 6222.8 1.50002 0.483437 0
M  V30 63445 C 6224.05 1.60373 1.2364 0
M  V30 63446 C 6224.38 0.298387 1.92198 0
M  V30 63447 O 6223.63 -0.714937 1.82173 0
M  V30 63448 C 6223.93 2.72483 2.31274 0
M  V30 63449 C 6223.6 4.1339 1.80054 0
M  V30 63450 C 6222.26 4.51732 1.65805 0
M  V30 63451 C 6224.61 5.01506 1.41919 0
M  V30 63452 C 6221.94 5.75944 1.11827 0
M  V30 63453 C 6224.29 6.26253 0.893873 0
M  V30 63454 C 6222.95 6.63409 0.737918 0
M  V30 63455 H 6222.22 0.586846 0.45243 0
M  V30 63456 H 6224.87 1.83895 0.534328 0
M  V30 63457 H 6223.18 2.43001 3.0734 0
M  V30 63458 H 6224.87 2.77713 2.89269 0
M  V30 63459 H 6221.46 3.83135 1.92108 0
M  V30 63460 H 6225.65 4.72526 1.51767 0
M  V30 63461 H 6220.9 6.03417 0.984789 0
M  V30 63462 H 6225.08 6.93899 0.589673 0
M  V30 63463 H 6222.7 7.59537 0.317488 0
M  V30 63464 N 6224.28 -0.735747 1.39372 0
M  V30 63465 C 6225.21 -1.86298 1.40767 0
M  V30 63466 C 6226.19 -1.67925 0.271129 0
M  V30 63467 O 6227.38 -1.88255 0.476839 0
M  V30 63468 C 6224.51 -3.24038 1.24966 0
M  V30 63469 C 6223.46 -3.57047 2.36012 0
M  V30 63470 C 6222.79 -4.93716 2.05301 0
M  V30 63471 C 6224.09 -3.60096 3.78323 0
M  V30 63472 H 6225.78 -1.85388 2.351 0
M  V30 63473 H 6223.33 -0.890512 1.13163 0
M  V30 63474 H 6225.28 -4.02569 1.24563 0
M  V30 63475 H 6224 -3.25474 0.271017 0
M  V30 63476 H 6222.66 -2.80845 2.35631 0
M  V30 63477 H 6222.31 -4.91731 1.05877 0
M  V30 63478 H 6222.01 -5.16769 2.79685 0
M  V30 63479 H 6223.53 -5.74605 2.06547 0
M  V30 63480 H 6224.95 -4.28705 3.80637 0
M  V30 63481 H 6223.34 -3.94667 4.5206 0
M  V30 63482 H 6224.41 -2.59918 4.09354 0
M  V30 63483 N 6225.76 -1.24535 -0.965853 0
M  V30 63484 C 6226.71 -1.03707 -2.08201 0
M  V30 63485 C 6227.7 0.0285712 -1.69376 0
M  V30 63486 O 6228.91 -0.126136 -1.79558 0
M  V30 63487 H 6225.28 -0.318355 -0.681289 0
M  V30 63488 H 6227.25 -1.98356 -2.2293 0
M  V30 63489 C 6226 -0.660531 -3.41368 0
M  V30 63490 H 6225.32 -1.47229 -3.71704 0
M  V30 63491 H 6226.76 -0.554412 -4.2036 0
M  V30 63492 C 6225.22 0.632517 -3.30909 0
M  V30 63493 O 6225.75 1.67773 -3.64986 0
M  V30 63494 N 6223.96 0.61393 -2.84041 0
M  V30 63495 H 6223.51 -0.236999 -2.56507 0
M  V30 63496 H 6223.46 1.47928 -2.77425 0
M  V30 63497 N 6227.24 1.16681 -1.0594 0
M  V30 63498 C 6228.2 2.19153 -0.671175 0
M  V30 63499 C 6229.2 1.58321 0.281249 0
M  V30 63500 O 6230.39 1.74082 0.0641096 0
M  V30 63501 C 6227.52 3.40898 0.0129903 0
M  V30 63502 H 6228.71 2.55013 -1.57824 0
M  V30 63503 H 6226.27 1.30894 -0.854193 0
M  V30 63504 H 6227 3.1059 0.932968 0
M  V30 63505 H 6226.79 3.86302 -0.671823 0
M  V30 63506 H 6228.28 4.16723 0.27046 0
M  V30 63507 N 6228.71 0.841479 1.33255 0
M  V30 63508 C 6230.13 0.529605 1.50557 0
M  V30 63509 C 6230.33 -0.942536 1.78097 0
M  V30 63510 O 6229.39 -1.72622 1.84277 0
M  V30 63511 C 6230.7 1.4052 2.65847 0
M  V30 63512 C 6232.25 1.40425 2.79732 0
M  V30 63513 C 6232.72 2.26476 3.98086 0
M  V30 63514 N 6234.21 2.24199 4.05326 0
M  V30 63515 C 6234.95 2.87517 4.96106 0
M  V30 63516 N 6234.44 3.59898 5.91984 0
M  V30 63517 N 6236.24 2.76974 4.89123 0
M  V30 63518 H 6228.39 1.79442 1.13642 0
M  V30 63519 H 6230.65 0.765702 0.558931 0
M  V30 63520 H 6230.36 2.45145 2.52184 0
M  V30 63521 H 6230.23 1.08311 3.61315 0
M  V30 63522 H 6232.62 0.365707 2.92825 0
M  V30 63523 H 6232.7 1.76642 1.85017 0
M  V30 63524 H 6232.34 3.3039 3.85752 0
M  V30 63525 H 6232.27 1.87598 4.92051 0
M  V30 63526 H 6234.76 1.71565 3.3671 0
M  V30 63527 H 6235.08 4.05411 6.57922 0
M  V30 63528 H 6233.42 3.64005 5.92052 0
M  V30 63529 H 6236.61 2.19988 4.13186 0
M  V30 63530 H 6236.79 3.26604 5.59673 0
M  V30 63531 N 6230.19 -1.45807 0.598159 0
M  V30 63532 C 6231.61 -1.57451 0.261048 0
M  V30 63533 C 6231.81 -1.59097 -1.23654 0
M  V30 63534 O 6230.86 -1.51621 -2.01909 0
M  V30 63535 C 6232.18 -2.86155 0.923901 0
M  V30 63536 C 6233.72 -2.99814 0.898935 0
M  V30 63537 C 6234.2 -4.31275 1.54162 0
M  V30 63538 N 6235.69 -4.38011 1.50667 0
M  V30 63539 C 6236.43 -5.3838 1.97319 0
M  V30 63540 N 6235.92 -6.45338 2.52013 0
M  V30 63541 N 6237.71 -5.29678 1.88143 0
M  V30 63542 H 6229.87 -1.42982 1.57066 0
M  V30 63543 H 6232.13 -0.683015 0.657415 0
M  V30 63544 H 6231.83 -2.90805 1.97801 0
M  V30 63545 H 6231.71 -3.74608 0.441449 0
M  V30 63546 H 6234.1 -2.94736 -0.146598 0
M  V30 63547 H 6234.18 -2.12796 1.41956 0
M  V30 63548 H 6233.82 -4.37111 2.58643 0
M  V30 63549 H 6233.75 -5.17093 0.996093 0
M  V30 63550 H 6236.24 -3.61322 1.10703 0
M  V30 63551 H 6236.55 -7.18158 2.85428 0
M  V30 63552 H 6234.9 -6.46115 2.56047 0
M  V30 63553 H 6238.09 -4.45024 1.4516 0
M  V30 63554 H 6238.26 -6.07752 2.24814 0
M  V30 63555 N 6231.67 -0.336787 -1.53959 0
M  V30 63556 C 6232.6 0.557366 -2.2232 0
M  V30 63557 C 6233.61 1.06936 -1.22754 0
M  V30 63558 O 6234.8 0.980672 -1.49148 0
M  V30 63559 C 6231.9 1.77901 -2.88452 0
M  V30 63560 C 6231.08 1.40346 -4.14273 0
M  V30 63561 C 6230.14 2.48405 -4.63876 0
M  V30 63562 O 6229.16 2.11995 -5.28249 0
M  V30 63563 N 6230.36 3.79551 -4.39228 0
M  V30 63564 H 6233.13 -0.0280467 -2.99687 0
M  V30 63565 H 6230.69 -0.160597 -1.61102 0
M  V30 63566 H 6232.68 2.4961 -3.18555 0
M  V30 63567 H 6231.25 2.27196 -2.14711 0
M  V30 63568 H 6230.47 0.517434 -3.90789 0
M  V30 63569 H 6231.76 1.12843 -4.96129 0
M  V30 63570 H 6231.16 4.11923 -3.87732 0
M  V30 63571 H 6229.71 4.4745 -4.73953 0
M  V30 63572 N 6233.15 1.57465 -0.0652509 0
M  V30 63573 C 6234.56 1.80729 0.468386 0
M  V30 63574 C 6234.91 0.978641 1.7005 0
M  V30 63575 O 6234.03 0.199262 2.15481 0
M  V30 63576 C 6234.63 3.27794 0.856526 0
M  V30 63577 C 6233.19 3.51928 1.33506 0
M  V30 63578 C 6232.34 2.75482 0.31705 0
M  V30 63579 H 6235.29 1.56009 -0.29101 0
M  V30 63580 H 6235.31 3.39485 1.71843 0
M  V30 63581 H 6234.82 3.88079 -0.0404187 0
M  V30 63582 H 6232.92 2.9694 2.25073 0
M  V30 63583 H 6233.03 4.60629 1.3175 0
M  V30 63584 H 6231.4 2.42042 0.792941 0
M  V30 63585 H 6232.18 3.385 -0.572054 0
M  V30 63586 N 6234.63 -0.208255 1.56218 0
M  V30 63587 C 6235.57 -1.25813 1.93493 0
M  V30 63588 C 6236.54 -1.45904 0.793799 0
M  V30 63589 O 6237.73 -1.59255 1.05084 0
M  V30 63590 C 6234.87 -2.60069 2.26844 0
M  V30 63591 C 6233.98 -2.47666 3.53957 0
M  V30 63592 C 6233.12 -3.74536 3.76691 0
M  V30 63593 C 6232.15 -3.5691 4.97274 0
M  V30 63594 N 6231.29 -4.75761 5.16329 0
M  V30 63595 H 6236.13 -0.933246 2.8301 0
M  V30 63596 H 6233.67 -0.449482 1.40065 0
M  V30 63597 H 6235.63 -3.38269 2.44193 0
M  V30 63598 H 6234.26 -2.90627 1.40485 0
M  V30 63599 H 6233.31 -1.60832 3.44728 0
M  V30 63600 H 6234.62 -2.30569 4.42311 0
M  V30 63601 H 6233.77 -4.61177 3.94209 0
M  V30 63602 H 6232.51 -3.94572 2.86643 0
M  V30 63603 H 6231.52 -2.68654 4.79693 0
M  V30 63604 H 6232.74 -3.38332 5.88819 0
M  V30 63605 H 6230.69 -4.96086 4.29226 0
M  V30 63606 H 6230.61 -4.61441 5.98839 0
M  V30 63607 H 6231.87 -5.63791 5.38294 0
M  V30 63608 N 6236.1 -1.50256 -0.475475 0
M  V30 63609 C 6237.34 -1.62661 -1.23777 0
M  V30 63610 C 6237.71 -0.317871 -1.8935 0
M  V30 63611 O 6238.91 -0.317312 -2.66921 0
M  V30 63612 C 6237.18 -2.77122 -2.25694 0
M  V30 63613 S 6238.74 -3.09634 -3.10921 0
M  V30 63614 H 6235.56 -0.57347 -0.420301 0
M  V30 63615 H 6238.16 -1.88022 -0.535525 0
M  V30 63616 H 6236.86 -3.70701 -1.76094 0
M  V30 63617 H 6236.39 -2.53833 -3.00553 0
M  V30 63618 H 6238.41 -2.53121 -4.26783 0
M  V30 63619 N 6237.58 0.728346 -1.3976 0
M  V30 63620 C 6239 1.03477 -1.2151 0
M  V30 63621 C 6239.2 2.01336 -0.0813436 0
M  V30 63622 O 6238.25 2.46101 0.564869 0
M  V30 63623 C 6239.57 1.59069 -2.55181 0
M  V30 63624 C 6241.12 1.71117 -2.62084 0
M  V30 63625 C 6241.59 2.30117 -3.95993 0
M  V30 63626 N 6243.08 2.37518 -3.97667 0
M  V30 63627 C 6243.82 2.84123 -4.98058 0
M  V30 63628 N 6243.31 3.30574 -6.08845 0
M  V30 63629 N 6245.11 2.83392 -4.85433 0
M  V30 63630 H 6237.26 0.0794537 -2.12251 0
M  V30 63631 H 6239.52 0.097864 -0.942935 0
M  V30 63632 H 6239.23 0.946282 -3.38731 0
M  V30 63633 H 6239.1 2.5778 -2.75371 0
M  V30 63634 H 6241.49 2.34678 -1.78915 0
M  V30 63635 H 6241.57 0.710399 -2.45738 0
M  V30 63636 H 6241.21 1.67182 -4.79596 0
M  V30 63637 H 6241.14 3.30883 -4.09663 0
M  V30 63638 H 6243.63 2.04695 -3.17661 0
M  V30 63639 H 6243.95 3.64665 -6.81351 0
M  V30 63640 H 6242.29 3.28566 -6.12429 0
M  V30 63641 H 6245.48 2.4643 -3.97982 0
M  V30 63642 H 6245.65 3.19397 -5.63817 0
M  V30 63643 N 6239.06 1.25046 0.959235 0
M  V30 63644 C 6240.3 1.1072 1.71815 0
M  V30 63645 C 6240.66 -0.34669 1.88844 0
M  V30 63646 O 6241.87 -0.611662 2.61748 0
M  V30 63647 C 6240.14 1.83579 3.06649 0
M  V30 63648 S 6241.7 1.85089 3.97854 0
M  V30 63649 H 6238.51 0.39583 0.590626 0
M  V30 63650 H 6241.12 1.58502 1.14444 0
M  V30 63651 H 6239.82 2.88461 2.91922 0
M  V30 63652 H 6239.35 1.36165 3.69083 0
M  V30 63653 H 6241.37 0.924623 4.87509 0
M  V30 63654 N 6240.54 -1.16117 1.06558 0
M  V30 63655 C 6241.47 -2.20179 0.636694 0
M  V30 63656 C 6242.48 -1.59885 -0.306675 0
M  V30 63657 O 6243.67 -1.78235 -0.0972474 0
M  V30 63658 C 6240.77 -3.3879 -0.086435 0
M  V30 63659 C 6239.95 -4.28638 0.871092 0
M  V30 63660 C 6239 -5.25869 0.186723 0
M  V30 63661 O 6238.03 -5.63186 0.825226 0
M  V30 63662 N 6239.23 -5.7054 -1.0707 0
M  V30 63663 H 6242 -2.57594 1.53184 0
M  V30 63664 H 6239.56 -1.31153 0.949231 0
M  V30 63665 H 6241.55 -4.0088 -0.55474 0
M  V30 63666 H 6240.12 -2.99857 -0.883419 0
M  V30 63667 H 6239.34 -3.6377 1.51871 0
M  V30 63668 H 6240.63 -4.85547 1.52057 0
M  V30 63669 H 6240.03 -5.42319 -1.60954 0
M  V30 63670 H 6238.58 -6.34709 -1.48283 0
M  V30 63671 N 6242.02 -0.848534 -1.32807 0
M  V30 63672 C 6243.43 -0.50437 -1.79758 0
M  V30 63673 C 6243.78 0.977348 -1.70124 0
M  V30 63674 O 6242.9 1.76206 -1.25621 0
M  V30 63675 C 6243.5 -0.908743 -3.26385 0
M  V30 63676 C 6242.06 -0.616571 -3.71316 0
M  V30 63677 C 6241.2 -1.11182 -2.54035 0
M  V30 63678 H 6244.16 -1.03632 -1.20192 0
M  V30 63679 H 6244.18 -0.222652 -3.79848 0
M  V30 63680 H 6243.69 -1.9872 -3.33365 0
M  V30 63681 H 6241.79 0.451415 -3.69855 0
M  V30 63682 H 6241.9 -1.17858 -4.64377 0
M  V30 63683 H 6240.27 -0.532315 -2.49075 0
M  V30 63684 H 6241.05 -2.19725 -2.63772 0
M  V30 63685 N 6243.49 1.45488 -0.605884 0
M  V30 63686 C 6244.91 1.5731 -0.269394 0
M  V30 63687 C 6245.11 1.59751 1.22809 0
M  V30 63688 O 6244.17 1.52689 2.01103 0
M  V30 63689 C 6245.48 2.85661 -0.939064 0
M  V30 63690 C 6247.03 2.99333 -0.914822 0
M  V30 63691 C 6247.5 4.30451 -1.56447 0
M  V30 63692 N 6248.99 4.37206 -1.52988 0
M  V30 63693 C 6249.73 5.37326 -2.00171 0
M  V30 63694 N 6249.22 6.43992 -2.55432 0
M  V30 63695 N 6251.02 5.28673 -1.90949 0
M  V30 63696 H 6243.17 1.42147 -1.57822 0
M  V30 63697 H 6245.43 0.679519 -0.661028 0
M  V30 63698 H 6245.14 2.89752 -1.9934 0
M  V30 63699 H 6245.01 3.74369 -0.46131 0
M  V30 63700 H 6247.4 2.94809 0.130966 0
M  V30 63701 H 6247.48 2.1204 -1.43083 0
M  V30 63702 H 6247.12 4.35733 -2.60958 0
M  V30 63703 H 6247.05 5.16558 -1.0235 0
M  V30 63704 H 6249.54 3.60729 -1.12617 0
M  V30 63705 H 6249.86 7.16634 -2.89233 0
M  V30 63706 H 6248.2 6.44748 -2.5947 0
M  V30 63707 H 6251.39 4.44248 -1.47518 0
M  V30 63708 H 6251.57 6.06551 -2.28034 0
M  V30 63709 N 6244.97 0.344947 1.53779 0
M  V30 63710 C 6246.2 -0.252121 2.05056 0
M  V30 63711 C 6246.61 -1.44652 1.21952 0
M  V30 63712 O 6245.95 -1.82017 0.248076 0
M  V30 63713 C 6246.02 -0.729495 3.52021 0
M  V30 63714 C 6245.68 0.345444 4.55693 0
M  V30 63715 C 6246.68 1.1886 5.06131 0
M  V30 63716 C 6244.36 0.499772 4.99808 0
M  V30 63717 C 6246.36 2.17162 5.99266 0
M  V30 63718 C 6244.04 1.48618 5.92753 0
M  V30 63719 C 6245.04 2.32056 6.4237 0
M  V30 63720 O 6244.73 3.29018 7.33487 0
M  V30 63721 H 6244.46 -0.0522286 0.673979 0
M  V30 63722 H 6247.01 0.495543 1.99333 0
M  V30 63723 H 6245.24 -1.52843 3.55213 0
M  V30 63724 H 6246.93 -1.24727 3.86262 0
M  V30 63725 H 6247.7 1.08047 4.72812 0
M  V30 63726 H 6243.58 -0.139838 4.60788 0
M  V30 63727 H 6247.12 2.82326 6.37917 0
M  V30 63728 H 6243.02 1.59488 6.25487 0
M  V30 63729 H 6243.79 3.24506 7.51424 0
M  V30 63730 N 6246.45 -1.57428 0.0736007 0
M  V30 63731 C 6247.68 -1.97885 -0.604078 0
M  V30 63732 C 6248.09 -0.952026 -1.6304 0
M  V30 63733 O 6247.45 0.0611 -1.82398 0
M  V30 63734 C 6247.5 -3.38418 -1.27104 0
M  V30 63735 O 6247.22 -4.37167 -0.285797 0
M  V30 63736 C 6248.72 -3.9376 -2.03637 0
M  V30 63737 H 6245.94 -0.650753 -0.16359 0
M  V30 63738 H 6248.49 -2.03974 0.146538 0
M  V30 63739 H 6246.64 -3.3341 -1.97273 0
M  V30 63740 H 6247.06 -5.18898 -0.764516 0
M  V30 63741 H 6248.53 -4.94306 -2.45693 0
M  V30 63742 H 6249.01 -3.30401 -2.89365 0
M  V30 63743 H 6249.61 -4.02175 -1.38331 0
M  V30 63744 N 6247.93 0.199967 -1.56326 0
M  V30 63745 C 6249.18 0.919291 -1.79982 0
M  V30 63746 C 6249.5 1.83995 -0.645832 0
M  V30 63747 O 6248.77 1.92995 0.336118 0
M  V30 63748 H 6247.35 0.342446 -0.663882 0
M  V30 63749 H 6250.01 0.206645 -1.93801 0
M  V30 63750 H 6249.11 1.51331 -2.72957 0
M  V30 63751 N 6249.41 1.50506 0.4675 0
M  V30 63752 C 6250.68 1.52195 1.22866 0
M  V30 63753 C 6251.06 0.26869 2.09383 0
M  V30 63754 O 6250.41 -0.747726 2.1592 0
M  V30 63755 C 6250.62 2.81967 2.05659 0
M  V30 63756 C 6251.97 3.32766 2.63727 0
M  V30 63757 O 6252.99 2.83313 2.15899 0
M  V30 63758 O 6251.85 4.18981 3.5088 0
M  V30 63759 H 6248.95 0.610619 0.55774 0
M  V30 63760 H 6251.49 1.62799 0.479028 0
M  V30 63761 H 6250.26 3.64654 1.41927 0
M  V30 63762 H 6249.89 2.74384 2.87749 0
M  V30 63763 N 6250.88 -0.720924 1.40144 0
M  V30 63764 C 6251.83 -1.83501 1.39986 0
M  V30 63765 C 6252.8 -1.64091 0.257547 0
M  V30 63766 O 6253.99 -1.853 0.454803 0
M  V30 63767 C 6251.13 -3.21158 1.26299 0
M  V30 63768 C 6250.24 -3.52176 2.50192 0
M  V30 63769 C 6249.37 -4.7931 2.28987 0
M  V30 63770 C 6248.41 -5.03216 3.48483 0
M  V30 63771 N 6247.55 -6.21561 3.26507 0
M  V30 63772 H 6252.39 -1.82971 2.35214 0
M  V30 63773 H 6249.93 -0.89387 1.16826 0
M  V30 63774 H 6251.89 -4.00642 1.16371 0
M  V30 63775 H 6250.52 -3.2093 0.34693 0
M  V30 63776 H 6249.57 -2.67288 2.70669 0
M  V30 63777 H 6250.88 -3.65753 3.39155 0
M  V30 63778 H 6250.03 -5.66801 2.16382 0
M  V30 63779 H 6248.77 -4.67933 1.3744 0
M  V30 63780 H 6247.78 -4.14182 3.61571 0
M  V30 63781 H 6249 -5.16469 4.4095 0
M  V30 63782 H 6246.95 -6.11445 2.37638 0
M  V30 63783 H 6246.87 -6.3579 4.09033 0
M  V30 63784 H 6248.13 -7.11853 3.17624 0
M  V30 63785 N 6252.36 -1.25553 -0.95259 0
M  V30 63786 C 6253.6 -1.11629 -1.71226 0
M  V30 63787 C 6253.97 0.33667 -1.89025 0
M  V30 63788 O 6255.17 0.597772 -2.62069 0
M  V30 63789 C 6253.44 -1.85203 -3.05671 0
M  V30 63790 S 6255 -1.87196 -3.96867 0
M  V30 63791 H 6251.82 -0.398957 -0.588519 0
M  V30 63792 H 6254.42 -1.59107 -1.13601 0
M  V30 63793 H 6253.12 -2.90005 -2.90388 0
M  V30 63794 H 6252.65 -1.38121 -3.68356 0
M  V30 63795 H 6254.67 -0.950464 -4.87012 0
M  V30 63796 N 6253.84 1.15551 -1.07172 0
M  V30 63797 C 6254.75 2.23857 -0.701793 0
M  V30 63798 C 6255.77 1.71631 0.286149 0
M  V30 63799 O 6256.94 2.00959 0.133238 0
M  V30 63800 C 6254.01 3.46546 -0.103287 0
M  V30 63801 C 6253.07 4.1377 -1.14423 0
M  V30 63802 C 6252.3 5.30602 -0.574193 0
M  V30 63803 O 6252.53 5.67125 0.610321 0
M  V30 63804 O 6251.46 5.87288 -1.3182 0
M  V30 63805 H 6255.29 2.57827 -1.60496 0
M  V30 63806 H 6252.87 1.23238 -0.844557 0
M  V30 63807 H 6254.75 4.20781 0.228304 0
M  V30 63808 H 6253.43 3.14329 0.773229 0
M  V30 63809 H 6252.33 3.41465 -1.52815 0
M  V30 63810 H 6253.67 4.50063 -1.99259 0
M  V30 63811 N 6255.32 0.855565 1.32355 0
M  V30 63812 C 6256.25 0.31624 2.31349 0
M  V30 63813 C 6257.23 -0.585103 1.5972 0
M  V30 63814 O 6258.42 -0.505155 1.87515 0
M  V30 63815 C 6255.55 -0.495456 3.43748 0
M  V30 63816 C 6254.5 0.311532 4.26865 0
M  V30 63817 C 6253.83 -0.624957 5.31035 0
M  V30 63818 C 6255.13 1.53777 4.99149 0
M  V30 63819 H 6256.82 1.14341 2.76706 0
M  V30 63820 H 6254.37 0.551268 1.3303 0
M  V30 63821 H 6256.32 -0.88318 4.12041 0
M  V30 63822 H 6255.04 -1.356 2.9712 0
M  V30 63823 H 6253.7 0.681021 3.60219 0
M  V30 63824 H 6253.35 -1.48237 4.80661 0
M  V30 63825 H 6253.05 -0.0890047 5.87533 0
M  V30 63826 H 6254.57 -1.00984 6.02192 0
M  V30 63827 H 6255.99 1.22229 5.60119 0
M  V30 63828 H 6254.38 2.01173 5.65375 0
M  V30 63829 H 6255.45 2.29853 4.26961 0
M  V30 63830 N 6256.8 -1.45165 0.613591 0
M  V30 63831 C 6258.07 -1.95553 0.0428498 0
M  V30 63832 C 6258.45 -1.55593 -1.42668 0
M  V30 63833 O 6257.8 -0.8214 -2.13226 0
M  V30 63834 C 6258.01 -3.48123 0.247264 0
M  V30 63835 C 6259.36 -4.24397 0.131217 0
M  V30 63836 O 6260.38 -3.55756 0.177701 0
M  V30 63837 O 6259.24 -5.46496 0.0213604 0
M  V30 63838 H 6256.34 -0.826368 -0.0323204 0
M  V30 63839 H 6258.88 -1.55301 0.684071 0
M  V30 63840 H 6257.66 -3.70198 1.26764 0
M  V30 63841 H 6257.28 -3.9528 -0.428935 0
M  V30 63842 N 6258.28 -0.353098 -1.53594 0
M  V30 63843 C 6259.21 0.533754 -2.22898 0
M  V30 63844 C 6260.22 1.05628 -1.23881 0
M  V30 63845 O 6261.41 0.964798 -1.5018 0
M  V30 63846 C 6258.51 1.74832 -2.90322 0
M  V30 63847 C 6257.68 1.35944 -4.15738 0
M  V30 63848 C 6256.74 2.43471 -4.66485 0
M  V30 63849 O 6255.77 2.06381 -5.30467 0
M  V30 63850 N 6256.97 3.74871 -4.43229 0
M  V30 63851 H 6259.73 -0.0598309 -2.9964 0
M  V30 63852 H 6257.3 -0.177675 -1.60922 0
M  V30 63853 H 6259.29 2.46217 -3.21184 0
M  V30 63854 H 6257.86 2.24905 -2.17109 0
M  V30 63855 H 6257.08 0.475956 -3.91316 0
M  V30 63856 H 6258.37 1.07574 -4.97298 0
M  V30 63857 H 6257.76 4.07788 -3.92079 0
M  V30 63858 H 6256.32 4.42398 -4.78673 0
M  V30 63859 N 6259.75 1.57387 -0.0819485 0
M  V30 63860 C 6260.99 1.95749 0.588361 0
M  V30 63861 C 6261.36 0.962026 1.6616 0
M  V30 63862 O 6262.56 1.23367 2.38818 0
M  V30 63863 C 6260.83 3.38693 1.14114 0
M  V30 63864 S 6262.39 3.99041 1.82515 0
M  V30 63865 H 6259.21 0.684481 0.192371 0
M  V30 63866 H 6261.81 1.94859 -0.158223 0
M  V30 63867 H 6260.51 4.08919 0.348333 0
M  V30 63868 H 6260.04 3.4315 1.92385 0
M  V30 63869 H 6262.06 3.86772 3.1084 0
M  V30 63870 N 6261.23 -0.191674 1.5643 0
M  V30 63871 C 6262.48 -0.908313 1.81992 0
M  V30 63872 C 6262.83 -1.80744 0.659507 0
M  V30 63873 O 6262.13 -1.88466 -0.345143 0
M  V30 63874 C 6262.32 -1.75697 3.11232 0
M  V30 63875 C 6262.15 -0.941501 4.39734 0
M  V30 63876 C 6260.92 -0.624579 5.01425 0
M  V30 63877 C 6263.12 -0.292594 5.13467 0
M  V30 63878 N 6261.1 0.209162 6.13544 0
M  V30 63879 C 6262.47 0.403196 6.18688 0
M  V30 63880 C 6264.52 -0.208671 4.97463 0
M  V30 63881 C 6263.23 1.17492 7.09639 0
M  V30 63882 C 6265.25 0.549666 5.8884 0
M  V30 63883 C 6264.62 1.23389 6.93509 0
M  V30 63884 H 6260.71 -0.311657 0.717213 0
M  V30 63885 H 6263.3 -0.176782 1.93896 0
M  V30 63886 H 6261.47 -2.46008 3.00558 0
M  V30 63887 H 6263.2 -2.41335 3.24868 0
M  V30 63888 H 6259.96 -0.949819 4.63978 0
M  V30 63889 H 6260.38 0.615743 6.74194 0
M  V30 63890 H 6265.02 -0.723313 4.16567 0
M  V30 63891 H 6262.74 1.70098 7.89995 0
M  V30 63892 H 6266.33 0.616003 5.7853 0
M  V30 63893 H 6265.21 1.81129 7.62995 0
M  V30 63894 N 6262.71 -1.50752 -0.459512 0
M  V30 63895 C 6263.62 -1.73266 -1.58165 0
M  V30 63896 C 6264.64 -0.616099 -1.62727 0
M  V30 63897 O 6265.81 -0.89579 -1.80382 0
M  V30 63898 C 6262.88 -1.8326 -2.94307 0
M  V30 63899 C 6261.94 -3.07041 -3.0004 0
M  V30 63900 C 6261.17 -3.16549 -4.29689 0
M  V30 63901 O 6261.39 -2.3255 -5.20842 0
M  V30 63902 O 6260.33 -4.09366 -4.41252 0
M  V30 63903 H 6264.15 -2.68411 -1.42089 0
M  V30 63904 H 6261.74 -1.34987 -0.640225 0
M  V30 63905 H 6263.62 -1.91946 -3.75146 0
M  V30 63906 H 6262.3 -0.912996 -3.10558 0
M  V30 63907 H 6261.2 -3.03848 -2.18237 0
M  V30 63908 H 6262.54 -3.98618 -2.88729 0
M  V30 63909 N 6264.19 0.713481 -1.40525 0
M  V30 63910 C 6265.14 1.81922 -1.37435 0
M  V30 63911 C 6266.12 1.58921 -0.251555 0
M  V30 63912 O 6267.31 1.70058 -0.490827 0
M  V30 63913 C 6264.44 3.2007 -1.24138 0
M  V30 63914 C 6263.53 3.48826 -2.41207 0
M  V30 63915 N 6263.92 3.48387 -3.66688 0
M  V30 63916 C 6262.22 3.79294 -2.34632 0
M  V30 63917 C 6262.92 3.75546 -4.4423 0
M  V30 63918 N 6261.89 3.944 -3.74098 0
M  V30 63919 H 6265.7 1.79919 -2.32393 0
M  V30 63920 H 6263.21 0.912699 -1.34326 0
M  V30 63921 H 6265.21 3.99254 -1.20007 0
M  V30 63922 H 6263.87 3.23297 -0.301492 0
M  V30 63923 H 6264.88 3.29187 -3.9982 0
M  V30 63924 H 6261.56 3.89999 -1.49021 0
M  V30 63925 H 6262.95 3.81493 -5.53094 0
M  V30 63926 N 6265.67 1.26056 0.945918 0
M  V30 63927 C 6266.91 1.12536 1.70631 0
M  V30 63928 C 6267.27 -0.326641 1.89201 0
M  V30 63929 O 6268.47 -0.583865 2.62382 0
M  V30 63930 C 6266.74 1.86821 3.04684 0
M  V30 63931 S 6268.3 1.89298 3.95868 0
M  V30 63932 H 6265.12 0.402073 0.586395 0
M  V30 63933 H 6267.72 1.59707 1.12756 0
M  V30 63934 H 6266.42 2.91541 2.88846 0
M  V30 63935 H 6265.96 1.40072 3.67619 0
M  V30 63936 H 6267.97 0.976278 4.86501 0
M  V30 63937 N 6267.14 -1.14981 1.07783 0
M  V30 63938 C 6268.56 -1.37857 0.804212 0
M  V30 63939 C 6268.76 -1.92684 -0.589504 0
M  V30 63940 O 6267.82 -2.13542 -1.34745 0
M  V30 63941 C 6269.13 -2.34552 1.88165 0
M  V30 63942 C 6270.68 -2.48205 1.90691 0
M  V30 63943 C 6271.15 -3.48194 2.97531 0
M  V30 63944 N 6272.64 -3.55733 2.96662 0
M  V30 63945 C 6273.38 -4.32933 3.75974 0
M  V30 63946 N 6272.87 -5.13429 4.65147 0
M  V30 63947 N 6274.67 -4.28066 3.64302 0
M  V30 63948 H 6266.82 -0.777364 1.97663 0
M  V30 63949 H 6269.08 -0.404388 0.857423 0
M  V30 63950 H 6268.79 -2.0139 2.88331 0
M  V30 63951 H 6268.66 -3.34383 1.74551 0
M  V30 63952 H 6271.05 -2.80662 0.911741 0
M  V30 63953 H 6271.13 -1.48357 2.08384 0
M  V30 63954 H 6270.77 -3.16471 3.97251 0
M  V30 63955 H 6270.7 -4.47807 2.77085 0
M  V30 63956 H 6273.19 -2.98283 2.32025 0
M  V30 63957 H 6273.51 -5.69593 5.22287 0
M  V30 63958 H 6271.85 -5.1272 4.69194 0
M  V30 63959 H 6275.04 -3.64247 2.9401 0
M  V30 63960 H 6275.22 -4.87981 4.26354 0
M  V30 63961 N 6268.62 -0.862572 -1.31899 0
M  V30 63962 C 6269.57 -0.301888 -2.30633 0
M  V30 63963 C 6270.56 0.57903 -1.59197 0
M  V30 63964 O 6271.77 0.465953 -1.73865 0
M  V30 63965 H 6268.15 -0.0789313 -0.747846 0
M  V30 63966 H 6270.12 -1.1487 -2.75404 0
M  V30 63967 C 6268.87 0.488099 -3.44257 0
M  V30 63968 H 6268.19 -0.18047 -3.99392 0
M  V30 63969 H 6269.63 0.845867 -4.15477 0
M  V30 63970 C 6268.09 1.67646 -2.92227 0
M  V30 63971 O 6268.62 2.77567 -2.90378 0
M  V30 63972 N 6266.82 1.50614 -2.48523 0
M  V30 63973 H 6266.37 0.611933 -2.50226 0
M  V30 63974 H 6266.33 2.30267 -2.14066 0
M  V30 63975 N 6270.1 1.44837 -0.62128 0
M  V30 63976 C 6271.35 2.01734 -0.121615 0
M  V30 63977 C 6271.67 1.49045 1.2574 0
M  V30 63978 O 6270.94 0.69012 1.83342 0
M  V30 63979 H 6269.52 0.74582 -0.0419681 0
M  V30 63980 H 6272.18 1.77464 -0.805764 0
M  V30 63981 H 6271.28 3.11993 -0.0817978 0
M  V30 63982 N 6271.58 0.361238 1.53404 0
M  V30 63983 C 6272.83 -0.229357 2.00794 0
M  V30 63984 C 6273.15 -1.49637 1.25035 0
M  V30 63985 O 6272.42 -1.92519 0.362401 0
M  V30 63986 H 6271 -0.0877426 0.741829 0
M  V30 63987 H 6273.66 0.486472 1.88731 0
M  V30 63988 H 6272.76 -0.459396 3.087 0
M  V30 63989 N 6273.06 -1.57341 0.090294 0
M  V30 63990 C 6274.28 -1.98515 -0.583056 0
M  V30 63991 C 6274.7 -0.969265 -1.62021 0
M  V30 63992 O 6274.06 0.0417508 -1.82452 0
M  V30 63993 C 6274.11 -3.39747 -1.23508 0
M  V30 63994 O 6273.83 -4.37445 -0.239414 0
M  V30 63995 C 6275.33 -3.95897 -1.99449 0
M  V30 63996 H 6272.55 -0.652451 -0.156678 0
M  V30 63997 H 6275.09 -2.03807 0.168164 0
M  V30 63998 H 6273.25 -3.35483 -1.93726 0
M  V30 63999 H 6273.66 -5.1968 -0.709437 0
M  V30 64000 H 6275.14 -4.96885 -2.40437 0
M  V30 64001 H 6275.61 -3.33451 -2.85844 0
M  V30 64002 H 6276.22 -4.03619 -1.34058 0
M  V30 64003 N 6274.53 0.183375 -1.5653 0
M  V30 64004 C 6275.77 0.908564 -1.83097 0
M  V30 64005 C 6276.14 1.79949 -0.669492 0
M  V30 64006 O 6277.34 2.56136 -0.81533 0
M  V30 64007 C 6275.61 1.69342 -3.14735 0
M  V30 64008 S 6277.17 2.46902 -3.62746 0
M  V30 64009 H 6273.99 0.304527 -0.642483 0
M  V30 64010 H 6276.59 0.171076 -1.9475 0
M  V30 64011 H 6275.29 1.02973 -3.97272 0
M  V30 64012 H 6274.82 2.47251 -3.05991 0
M  V30 64013 H 6276.84 3.71347 -3.29114 0
M  V30 64014 N 6276.01 1.50994 0.451511 0
M  V30 64015 C 6276.98 1.70708 1.52943 0
M  V30 64016 C 6277.98 0.577328 1.50079 0
M  V30 64017 O 6279.17 0.844672 1.52351 0
M  V30 64018 C 6276.3 1.75045 2.92527 0
M  V30 64019 H 6277.49 2.66896 1.36772 0
M  V30 64020 H 6275.04 1.4077 0.679236 0
M  V30 64021 H 6275.78 0.806206 3.14119 0
M  V30 64022 H 6275.56 2.57137 2.96012 0
M  V30 64023 H 6277.05 1.92184 3.70749 0
M  V30 64024 N 6277.49 -0.706019 1.40901 0
M  V30 64025 C 6278.45 -1.80179 1.41662 0
M  V30 64026 C 6279.45 -1.57806 0.308878 0
M  V30 64027 O 6280.64 -1.64671 0.568255 0
M  V30 64028 C 6277.78 -3.18408 1.21776 0
M  V30 64029 H 6278.97 -1.809 2.39197 0
M  V30 64030 H 6276.52 -0.912613 1.2689 0
M  V30 64031 H 6277.26 -3.23332 0.250401 0
M  V30 64032 H 6277.04 -3.36047 2.02026 0
M  V30 64033 H 6278.53 -3.98415 1.2512 0
M  V30 64034 N 6278.97 -1.26556 -0.93922 0
M  V30 64035 C 6280.19 -1.15104 -1.72528 0
M  V30 64036 C 6280.62 0.289746 -1.85855 0
M  V30 64037 O 6279.98 1.20992 -1.35021 0
M  V30 64038 C 6280.02 -1.82714 -3.10883 0
M  V30 64039 O 6279.13 -1.11726 -3.96977 0
M  V30 64040 H 6278.47 -0.400969 -0.529264 0
M  V30 64041 H 6281 -1.67412 -1.17619 0
M  V30 64042 H 6281.01 -1.89616 -3.61261 0
M  V30 64043 H 6279.68 -2.8753 -3.00499 0
M  V30 64044 H 6278.26 -1.12814 -3.55426 0
M  V30 64045 N 6280.45 1.14407 -1.08391 0
M  V30 64046 C 6281.86 1.6701 -0.834538 0
M  V30 64047 C 6282.21 1.85512 0.638737 0
M  V30 64048 O 6281.33 1.56616 1.49333 0
M  V30 64049 C 6281.93 3.03371 -1.50835 0
M  V30 64050 C 6280.49 3.53008 -1.30622 0
M  V30 64051 C 6279.63 2.28489 -1.57125 0
M  V30 64052 H 6282.59 0.984751 -1.24452 0
M  V30 64053 H 6282.61 3.68821 -0.935481 0
M  V30 64054 H 6282.12 2.89873 -2.5806 0
M  V30 64055 H 6280.22 3.71729 -0.254669 0
M  V30 64056 H 6280.33 4.33792 -2.03375 0
M  V30 64057 H 6278.7 2.34554 -0.992793 0
M  V30 64058 H 6279.48 2.17567 -2.65555 0
M  V30 64059 N 6281.93 0.869555 1.3144 0
M  V30 64060 C 6283.15 0.493919 2.01433 0
M  V30 64061 C 6283.58 -0.905991 1.64844 0
M  V30 64062 O 6282.93 -1.59774 0.85685 0
M  V30 64063 C 6282.98 0.657848 3.54549 0
M  V30 64064 O 6282.09 -0.303011 4.11285 0
M  V30 64065 H 6281.43 0.196516 0.634253 0
M  V30 64066 H 6283.96 1.17286 1.67646 0
M  V30 64067 H 6283.97 0.550983 4.04263 0
M  V30 64068 H 6282.64 1.67861 3.8052 0
M  V30 64069 H 6281.22 -0.151137 3.72594 0
M  V30 64070 N 6283.4 -1.44506 0.628953 0
M  V30 64071 C 6284.65 -2.01666 0.132311 0
M  V30 64072 C 6284.97 -1.4971 -1.24948 0
M  V30 64073 O 6284.24 -0.699834 -1.82973 0
M  V30 64074 H 6282.82 -0.745587 0.0459228 0
M  V30 64075 H 6285.48 -1.77034 0.815164 0
M  V30 64076 H 6284.58 -3.11945 0.0983424 0
M  V30 64077 N 6284.88 -0.369369 -1.5321 0
M  V30 64078 C 6285.81 0.518975 -2.2222 0
M  V30 64079 C 6286.79 1.08 -1.21552 0
M  V30 64080 O 6287.98 1.13541 -1.50468 0
M  V30 64081 C 6285.1 1.71641 -2.91988 0
M  V30 64082 C 6284.15 1.28249 -4.06761 0
M  V30 64083 S 6284.98 0.280626 -5.34764 0
M  V30 64084 C 6286.14 1.48431 -6.08045 0
M  V30 64085 H 6286.37 -0.0670992 -2.97224 0
M  V30 64086 H 6283.9 -0.153484 -1.53635 0
M  V30 64087 H 6285.86 2.40325 -3.32797 0
M  V30 64088 H 6284.52 2.27375 -2.16701 0
M  V30 64089 H 6283.72 2.176 -4.54605 0
M  V30 64090 H 6283.32 0.674826 -3.67862 0
M  V30 64091 H 6285.61 2.41471 -6.33007 0
M  V30 64092 H 6286.55 1.04717 -7.00314 0
M  V30 64093 H 6286.96 1.69208 -5.38543 0
M  V30 64094 N 6286.36 1.57291 -0.0986369 0
M  V30 64095 C 6287.77 1.81682 0.429945 0
M  V30 64096 C 6288.12 1.01449 1.67936 0
M  V30 64097 O 6287.25 0.244924 2.15009 0
M  V30 64098 C 6287.84 3.29537 0.786803 0
M  V30 64099 C 6286.4 3.5468 1.26011 0
M  V30 64100 C 6285.55 2.76092 0.258545 0
M  V30 64101 H 6288.5 1.55357 -0.324036 0
M  V30 64102 H 6288.52 3.43054 1.64603 0
M  V30 64103 H 6288.03 3.87906 -0.122727 0
M  V30 64104 H 6286.13 3.01647 2.18723 0
M  V30 64105 H 6286.25 4.63319 1.2195 0
M  V30 64106 H 6284.61 2.4367 0.741421 0
M  V30 64107 H 6285.39 3.37211 -0.643726 0
M  V30 64108 N 6287.84 -0.175072 1.56625 0
M  V30 64109 C 6289.07 -0.907976 1.85912 0
M  V30 64110 C 6289.48 -1.75991 0.683576 0
M  V30 64111 O 6288.84 -1.79163 -0.34739 0
M  V30 64112 C 6288.89 -1.78779 3.14198 0
M  V30 64113 O 6288.61 -0.970235 4.27221 0
M  V30 64114 C 6290.11 -2.63068 3.56805 0
M  V30 64115 H 6287.33 -0.263965 0.616898 0
M  V30 64116 H 6289.87 -0.176297 2.03739 0
M  V30 64117 H 6288.03 -2.47286 2.98209 0
M  V30 64118 H 6288.44 -1.57161 5.004 0
M  V30 64119 H 6289.92 -3.20424 4.4948 0
M  V30 64120 H 6290.39 -3.37756 2.80744 0
M  V30 64121 H 6291 -1.999 3.75393 0
M  V30 64122 N 6289.32 -1.51231 -0.443497 0
M  V30 64123 C 6290.56 -1.6525 -1.20299 0
M  V30 64124 C 6290.92 -0.357964 -1.88634 0
M  V30 64125 O 6292.12 -0.373859 -2.66187 0
M  V30 64126 C 6290.39 -2.81847 -2.19765 0
M  V30 64127 S 6291.95 -3.1616 -3.04284 0
M  V30 64128 H 6288.77 -0.582256 -0.408042 0
M  V30 64129 H 6291.37 -1.89116 -0.495522 0
M  V30 64130 H 6290.07 -3.74353 -1.68191 0
M  V30 64131 H 6289.61 -2.60151 -2.95101 0
M  V30 64132 H 6291.62 -2.62117 -4.21318 0
M  V30 64133 N 6290.79 0.698537 -1.41274 0
M  V30 64134 C 6292.21 1.00876 -1.23678 0
M  V30 64135 C 6292.41 2.01118 -0.124032 0
M  V30 64136 O 6291.47 2.47243 0.512541 0
M  V30 64137 C 6292.78 1.5362 -2.58498 0
M  V30 64138 C 6294.33 1.65519 -2.65655 0
M  V30 64139 C 6294.8 2.21665 -4.00785 0
M  V30 64140 N 6296.29 2.2903 -4.02616 0
M  V30 64141 C 6297.03 2.73494 -5.03973 0
M  V30 64142 N 6296.52 3.17585 -6.1572 0
M  V30 64143 N 6298.32 2.73031 -4.91335 0
M  V30 64144 H 6290.47 0.0344142 -2.12372 0
M  V30 64145 H 6292.73 0.0778409 -0.944799 0
M  V30 64146 H 6292.44 0.874219 -3.40662 0
M  V30 64147 H 6292.31 2.51881 -2.80777 0
M  V30 64148 H 6294.7 2.3083 -1.83852 0
M  V30 64149 H 6294.78 0.658114 -2.47189 0
M  V30 64150 H 6294.42 1.56971 -4.83035 0
M  V30 64151 H 6294.35 3.22119 -4.16589 0
M  V30 64152 H 6296.84 1.97911 -3.21931 0
M  V30 64153 H 6297.16 3.50131 -6.88933 0
M  V30 64154 H 6295.5 3.15501 -6.19261 0
M  V30 64155 H 6298.69 2.37933 -4.0312 0
M  V30 64156 H 6298.87 3.07366 -5.70465 0
M  V30 64157 N 6292.27 1.27052 0.932495 0
M  V30 64158 C 6293.51 1.14339 1.69428 0
M  V30 64159 C 6293.88 -0.306555 1.89537 0
M  V30 64160 O 6295.08 -0.556003 2.62987 0
M  V30 64161 C 6293.35 1.90043 3.02686 0
M  V30 64162 S 6294.91 1.93486 3.93838 0
M  V30 64163 H 6291.72 0.408269 0.582097 0
M  V30 64164 H 6294.33 1.60894 1.11056 0
M  V30 64165 H 6293.03 2.94589 2.85737 0
M  V30 64166 H 6292.56 1.43963 3.66112 0
M  V30 64167 H 6294.58 1.02782 4.85438 0
M  V30 64168 N 6293.75 -1.13831 1.08997 0
M  V30 64169 C 6295.16 -1.66565 0.843384 0
M  V30 64170 C 6295.51 -1.85848 -0.62889 0
M  V30 64171 O 6294.64 -1.57406 -1.485 0
M  V30 64172 C 6295.23 -3.02567 1.52442 0
M  V30 64173 C 6293.79 -3.52311 1.32492 0
M  V30 64174 C 6292.94 -2.27652 1.58334 0
M  V30 64175 H 6295.89 -0.978137 1.24973 0
M  V30 64176 H 6295.91 -3.6832 0.955028 0
M  V30 64177 H 6295.42 -2.88501 2.59594 0
M  V30 64178 H 6293.52 -3.71588 0.274379 0
M  V30 64179 H 6293.64 -4.32707 2.05673 0
M  V30 64180 H 6292 -2.34024 1.00522 0
M  V30 64181 H 6292.78 -2.16156 2.66705 0
M  V30 64182 N 6295.23 -0.876513 -1.30977 0
M  V30 64183 C 6296.46 -0.505385 -2.00633 0
M  V30 64184 C 6296.87 0.903893 -1.65757 0
M  V30 64185 O 6296.23 1.59315 -0.89022 0
M  V30 64186 C 6296.28 -0.660567 -3.55414 0
M  V30 64187 O 6296 -2.01435 -3.89044 0
M  V30 64188 C 6297.5 -0.291313 -4.42342 0
M  V30 64189 H 6294.72 -0.196217 -0.641669 0
M  V30 64190 H 6297.26 -1.17948 -1.67058 0
M  V30 64191 H 6295.42 -0.0339438 -3.87385 0
M  V30 64192 H 6295.83 -2.02685 -4.83755 0
M  V30 64193 H 6297.31 -0.450824 -5.50156 0
M  V30 64194 H 6297.78 0.770036 -4.32397 0
M  V30 64195 H 6298.39 -0.893908 -4.158 0
M  V30 64196 N 6296.71 1.4417 -0.636607 0
M  V30 64197 C 6297.95 2.01593 -0.143004 0
M  V30 64198 C 6298.28 1.5037 1.24152 0
M  V30 64199 O 6297.55 0.709527 1.82599 0
M  V30 64200 H 6296.13 0.745333 -0.0498762 0
M  V30 64201 H 6298.79 1.76599 -0.824542 0
M  V30 64202 H 6297.88 3.11888 -0.114884 0
M  V30 64203 N 6298.18 0.377489 1.53012 0
M  V30 64204 C 6299.43 -0.208459 2.01424 0
M  V30 64205 C 6299.76 -1.47796 1.26438 0
M  V30 64206 O 6299.01 -1.9255 0.349727 0
M  V30 64207 C 6299.31 -0.534535 3.5338 0
M  V30 64208 C 6298.98 0.642033 4.46306 0
M  V30 64209 C 6297.64 0.964836 4.71428 0
M  V30 64210 C 6299.99 1.42972 5.01207 0
M  V30 64211 C 6297.32 2.07708 5.48702 0
M  V30 64212 C 6299.67 2.53247 5.79697 0
M  V30 64213 C 6298.34 2.8605 6.03102 0
M  V30 64214 H 6297.61 -0.0762805 0.737063 0
M  V30 64215 H 6300.25 0.512405 1.84517 0
M  V30 64216 H 6298.56 -1.33657 3.68297 0
M  V30 64217 H 6300.26 -1.00035 3.88322 0
M  V30 64218 H 6296.85 0.380416 4.26908 0
M  V30 64219 H 6301.03 1.19357 4.81734 0
M  V30 64220 H 6296.29 2.33507 5.65053 0
M  V30 64221 H 6300.46 3.14691 6.21243 0
M  V30 64222 H 6298.09 3.72355 6.62763 0
M  V30 64223 N 6299.66 -1.57237 0.106977 0
M  V30 64224 C 6300.89 -1.99122 -0.561968 0
M  V30 64225 C 6301.31 -0.986395 -1.60984 0
M  V30 64226 O 6300.66 0.022397 -1.82486 0
M  V30 64227 C 6300.71 -3.41038 -1.19897 0
M  V30 64228 O 6300.43 -4.37675 -0.193004 0
M  V30 64229 C 6301.94 -3.97991 -1.95239 0
M  V30 64230 H 6299.16 -0.654077 -0.149749 0
M  V30 64231 H 6301.7 -2.03618 0.189771 0
M  V30 64232 H 6299.85 -3.37519 -1.90157 0
M  V30 64233 H 6300.27 -5.20403 -0.654278 0
M  V30 64234 H 6301.74 -4.99407 -2.35153 0
M  V30 64235 H 6302.22 -3.36464 -2.82291 0
M  V30 64236 H 6302.83 -4.05019 -1.29769 0
M  V30 64237 N 6301.14 0.166763 -1.56715 0
M  V30 64238 C 6302.39 0.880908 -1.81891 0
M  V30 64239 C 6302.71 1.82583 -0.684715 0
M  V30 64240 O 6301.98 1.93665 0.295105 0
M  V30 64241 H 6300.56 0.328287 -0.670997 0
M  V30 64242 H 6303.22 0.16549 -1.94196 0
M  V30 64243 H 6302.32 1.45507 -2.76105 0
M  V30 64244 N 6302.62 1.51464 0.43547 0
M  V30 64245 C 6304.03 1.56682 1.01527 0
M  V30 64246 C 6304.38 0.391404 1.92256 0
M  V30 64247 O 6303.51 -0.491573 2.10743 0
M  V30 64248 C 6304.1 2.83957 1.84807 0
M  V30 64249 C 6302.66 2.9174 2.37834 0
M  V30 64250 C 6301.81 2.51363 1.17098 0
M  V30 64251 H 6304.76 1.57214 0.216671 0
M  V30 64252 H 6304.78 2.67825 2.70278 0
M  V30 64253 H 6304.29 3.69487 1.18747 0
M  V30 64254 H 6302.39 2.10644 3.07343 0
M  V30 64255 H 6302.5 3.9543 2.70503 0
M  V30 64256 H 6300.87 2.04604 1.51688 0
M  V30 64257 H 6301.65 3.39239 0.526447 0
M  V30 64258 N 6304.1 -0.691035 1.41642 0
M  V30 64259 C 6305.04 -1.8049 1.43847 0
M  V30 64260 C 6306.01 -1.63508 0.292295 0
M  V30 64261 O 6307.2 -1.84294 0.494005 0
M  V30 64262 C 6304.34 -3.18407 1.33083 0
M  V30 64263 C 6303.45 -3.4679 2.57606 0
M  V30 64264 C 6302.59 -4.74345 2.39102 0
M  V30 64265 C 6301.63 -4.9571 3.59079 0
M  V30 64266 N 6300.76 -6.14495 3.39618 0
M  V30 64267 H 6305.6 -1.7794 2.39042 0
M  V30 64268 H 6303.14 -0.868889 1.18696 0
M  V30 64269 H 6305.1 -3.98083 1.24843 0
M  V30 64270 H 6303.73 -3.20122 0.414926 0
M  V30 64271 H 6302.78 -2.61486 2.76277 0
M  V30 64272 H 6304.09 -3.58477 3.46837 0
M  V30 64273 H 6303.25 -5.62084 2.28356 0
M  V30 64274 H 6301.98 -4.64913 1.47335 0
M  V30 64275 H 6300.99 -4.06419 3.70275 0
M  V30 64276 H 6302.21 -5.06999 4.51806 0
M  V30 64277 H 6300.16 -6.06266 2.50554 0
M  V30 64278 H 6300.08 -6.2697 4.22427 0
M  V30 64279 H 6301.35 -7.04956 3.32652 0
M  V30 64280 N 6305.57 -1.27545 -0.925744 0
M  V30 64281 C 6306.81 -1.15236 -1.68819 0
M  V30 64282 C 6307.18 0.2965 -1.89697 0
M  V30 64283 O 6308.38 0.542049 -2.63278 0
M  V30 64284 C 6306.65 -1.91645 -3.01674 0
M  V30 64285 S 6308.21 -1.95572 -3.92807 0
M  V30 64286 H 6305.03 -0.411351 -0.579924 0
M  V30 64287 H 6307.63 -1.61481 -1.10201 0
M  V30 64288 H 6306.33 -2.961 -2.84171 0
M  V30 64289 H 6305.86 -1.45903 -3.65344 0
M  V30 64290 H 6307.88 -1.05355 -4.84886 0
M  V30 64291 N 6307.05 1.13251 -1.09599 0
M  V30 64292 C 6308.28 1.88408 -0.854993 0
M  V30 64293 C 6308.7 1.79216 0.593886 0
M  V30 64294 O 6308.05 1.16 1.40891 0
M  V30 64295 C 6308.1 3.37942 -1.28365 0
M  V30 64296 O 6307.82 3.46897 -2.6757 0
M  V30 64297 C 6309.33 4.30061 -1.07529 0
M  V30 64298 H 6306.55 0.596405 -0.307476 0
M  V30 64299 H 6309.09 1.43353 -1.45843 0
M  V30 64300 H 6307.24 3.80573 -0.724064 0
M  V30 64301 H 6307.66 4.39868 -2.85685 0
M  V30 64302 H 6309.13 5.33304 -1.42447 0
M  V30 64303 H 6309.61 4.39198 -0.0132155 0
M  V30 64304 H 6310.22 3.932 -1.62091 0
M  V30 64305 N 6308.53 0.883447 1.3051 0
M  V30 64306 C 6309.46 0.306358 2.27143 0
M  V30 64307 C 6310.48 -0.53821 1.53646 0
M  V30 64308 O 6311.66 -0.358009 1.74873 0
M  V30 64309 C 6308.76 -0.583159 3.33845 0
M  V30 64310 C 6307.94 0.231999 4.36784 0
M  V30 64311 C 6307 -0.587771 5.22907 0
M  V30 64312 O 6306.02 -0.0110121 5.69199 0
M  V30 64313 N 6307.22 -1.89718 5.48623 0
M  V30 64314 H 6309.99 1.13683 2.77302 0
M  V30 64315 H 6307.55 0.746278 1.43674 0
M  V30 64316 H 6309.54 -1.13759 3.88383 0
M  V30 64317 H 6308.11 -1.31431 2.83628 0
M  V30 64318 H 6307.33 0.967875 3.82133 0
M  V30 64319 H 6308.62 0.790841 5.02616 0
M  V30 64320 H 6308.02 -2.38871 5.12793 0
M  V30 64321 H 6306.58 -2.39909 6.06042 0
M  V30 64322 N 6310.01 -1.43831 0.644244 0
M  V30 64323 C 6310.94 -2.29018 -0.0913769 0
M  V30 64324 C 6311.95 -1.42013 -0.796 0
M  V30 64325 O 6313.14 -1.66038 -0.655255 0
M  V30 64326 C 6310.24 -3.18715 -1.15214 0
M  V30 64327 C 6309.42 -4.34208 -0.527435 0
M  V30 64328 C 6308.47 -5.04844 -1.48389 0
M  V30 64329 O 6307.5 -5.60419 -0.995946 0
M  V30 64330 N 6308.7 -5.0751 -2.81804 0
M  V30 64331 H 6311.47 -2.92792 0.639758 0
M  V30 64332 H 6309.03 -1.54422 0.486363 0
M  V30 64333 H 6311.02 -3.62834 -1.79259 0
M  V30 64334 H 6309.59 -2.56601 -1.78534 0
M  V30 64335 H 6308.81 -3.93118 0.29192 0
M  V30 64336 H 6310.1 -5.08719 -0.0909601 0
M  V30 64337 H 6309.5 -4.63714 -3.24015 0
M  V30 64338 H 6308.05 -5.55376 -3.41175 0
M  V30 64339 N 6311.49 -0.385598 -1.5281 0
M  V30 64340 C 6312.73 0.198067 -2.0183 0
M  V30 64341 C 6313.07 1.4677 -1.2717 0
M  V30 64342 O 6312.34 1.90927 -0.371101 0
M  V30 64343 C 6312.62 0.469747 -3.57023 0
M  V30 64344 C 6312.48 -0.814911 -4.42356 0
M  V30 64345 C 6313.8 1.26194 -4.2162 0
M  V30 64346 H 6310.92 0.0705128 -0.733619 0
M  V30 64347 H 6313.56 -0.514436 -1.82903 0
M  V30 64348 H 6311.71 1.07671 -3.73282 0
M  V30 64349 H 6313.38 -1.45187 -4.37856 0
M  V30 64350 H 6311.62 -1.43103 -4.09517 0
M  V30 64351 H 6312.29 -0.579513 -5.4895 0
M  V30 64352 H 6314.77 0.748307 -4.09316 0
M  V30 64353 H 6313.65 1.42078 -5.30193 0
M  V30 64354 H 6313.91 2.27611 -3.79006 0
M  V30 64355 N 6312.97 1.57178 -0.115314 0
M  V30 64356 C 6314.21 1.96953 0.546707 0
M  V30 64357 C 6314.57 0.997054 1.64082 0
M  V30 64358 O 6315.77 1.28405 2.36148 0
M  V30 64359 C 6314.04 3.41037 1.06904 0
M  V30 64360 S 6315.6 4.02822 1.7401 0
M  V30 64361 H 6312.42 0.688408 0.177809 0
M  V30 64362 H 6315.02 1.94479 -0.19952 0
M  V30 64363 H 6313.72 4.09566 0.261517 0
M  V30 64364 H 6313.26 3.47153 1.85063 0
M  V30 64365 H 6315.27 3.93279 3.02566 0
M  V30 64366 N 6314.44 -0.15845 1.56801 0
M  V30 64367 C 6315.41 -1.17979 1.96503 0
M  V30 64368 C 6316.41 -1.36487 0.850175 0
M  V30 64369 O 6317.6 -1.33674 1.11701 0
M  V30 64370 C 6314.73 -2.54237 2.27104 0
M  V30 64371 H 6315.92 -0.839476 2.87911 0
M  V30 64372 H 6313.47 -0.401378 1.51058 0
M  V30 64373 H 6314.21 -2.93261 1.38451 0
M  V30 64374 H 6313.99 -2.42168 3.08378 0
M  V30 64375 H 6315.48 -3.27819 2.58697 0
M  V30 64376 N 6315.92 -1.51693 -0.427432 0
M  V30 64377 C 6317.17 -1.64526 -1.1737 0
M  V30 64378 C 6317.49 -0.368549 -1.91486 0
M  V30 64379 O 6316.76 0.615969 -1.85964 0
M  V30 64380 H 6315.34 -0.606378 -0.436251 0
M  V30 64381 H 6318 -1.88664 -0.489086 0
M  V30 64382 H 6317.1 -2.47766 -1.89785 0
M  V30 64383 N 6317.4 0.683514 -1.42007 0
M  V30 64384 C 6318.63 1.46991 -1.4518 0
M  V30 64385 C 6319.04 1.89108 -0.0590201 0
M  V30 64386 O 6318.38 1.58144 0.934682 0
M  V30 64387 C 6318.44 2.75608 -2.30825 0
M  V30 64388 C 6318.11 2.55621 -3.78823 0
M  V30 64389 C 6319.1 2.20786 -4.70691 0
M  V30 64390 C 6316.79 2.70887 -4.22996 0
M  V30 64391 C 6318.78 2.01471 -6.04722 0
M  V30 64392 C 6316.47 2.51188 -5.57089 0
M  V30 64393 C 6317.47 2.16532 -6.47768 0
M  V30 64394 O 6317.16 1.97016 -7.79384 0
M  V30 64395 H 6316.89 0.459102 -0.496187 0
M  V30 64396 H 6319.44 0.848023 -1.87077 0
M  V30 64397 H 6317.67 3.40247 -1.83763 0
M  V30 64398 H 6319.36 3.37459 -2.25557 0
M  V30 64399 H 6320.13 2.08596 -4.3785 0
M  V30 64400 H 6316.01 2.96842 -3.52712 0
M  V30 64401 H 6319.55 1.74344 -6.75463 0
M  V30 64402 H 6315.45 2.62972 -5.89505 0
M  V30 64403 H 6316.21 2.11683 -7.90653 0
M  V30 64404 N 6318.88 1.28034 0.918967 0
M  V30 64405 C 6320.12 1.1613 1.68206 0
M  V30 64406 C 6320.48 -0.286435 1.89851 0
M  V30 64407 O 6321.68 -0.528079 2.63562 0
M  V30 64408 C 6319.95 1.93242 3.00653 0
M  V30 64409 S 6321.51 1.97652 3.91764 0
M  V30 64410 H 6318.33 0.41442 0.577734 0
M  V30 64411 H 6320.93 1.62063 1.09343 0
M  V30 64412 H 6319.64 2.97603 2.82597 0
M  V30 64413 H 6319.17 1.47838 3.64565 0
M  V30 64414 H 6321.18 1.07925 4.84321 0
M  V30 64415 N 6320.36 -1.12669 1.10198 0
M  V30 64416 C 6321.32 -2.16511 0.75205 0
M  V30 64417 C 6322.32 -1.59256 -0.222296 0
M  V30 64418 O 6323.51 -1.742 0.000543984 0
M  V30 64419 C 6320.64 -3.40711 0.113541 0
M  V30 64420 H 6321.83 -2.4898 1.6718 0
M  V30 64421 H 6319.39 -1.27634 0.902185 0
M  V30 64422 H 6320.12 -3.13839 -0.817052 0
M  V30 64423 H 6319.91 -3.83542 0.814734 0
M  V30 64424 H 6321.4 -4.1744 -0.115609 0
M  V30 64425 N 6321.83 -0.890356 -1.3004 0
M  V30 64426 C 6322.78 -0.35074 -2.2994 0
M  V30 64427 C 6323.78 0.545131 -1.60389 0
M  V30 64428 O 6324.98 0.428969 -1.74814 0
M  V30 64429 H 6321.36 -0.0947765 -0.746004 0
M  V30 64430 H 6323.33 -1.20685 -2.72906 0
M  V30 64431 C 6322.08 0.414967 -3.45215 0
M  V30 64432 H 6321.4 -0.265147 -3.9892 0
M  V30 64433 H 6322.84 0.757548 -4.17178 0
M  V30 64434 C 6321.3 1.61409 -2.95717 0
M  V30 64435 O 6321.83 2.71345 -2.96201 0
M  V30 64436 N 6320.03 1.45308 -2.51662 0
M  V30 64437 H 6319.58 0.558718 -2.51468 0
M  V30 64438 H 6319.54 2.25675 -2.18902 0
M  V30 64439 N 6323.31 1.43487 -0.651863 0
M  V30 64440 C 6324.26 2.32541 0.0525052 0
M  V30 64441 C 6325.25 1.48534 0.814487 0
M  V30 64442 O 6326.46 1.64752 0.725042 0
M  V30 64443 H 6322.83 0.751149 0.035763 0
M  V30 64444 H 6324.81 2.89674 -0.716331 0
M  V30 64445 C 6323.55 3.32824 1.00616 0
M  V30 64446 H 6322.88 3.97489 0.429256 0
M  V30 64447 H 6324.32 3.97772 1.46812 0
M  V30 64448 C 6322.78 2.6332 2.10153 0
M  V30 64449 O 6323.31 2.4477 3.18513 0
M  V30 64450 N 6321.51 2.22716 1.8667 0
M  V30 64451 H 6321.06 2.38004 0.985497 0
M  V30 64452 H 6321.02 1.76542 2.60154 0
M  V30 64453 N 6324.79 0.393696 1.52603 0
M  V30 64454 C 6326.01 -0.189545 2.06532 0
M  V30 64455 C 6326.44 -1.39377 1.26316 0
M  V30 64456 O 6325.8 -1.78976 0.289341 0
M  V30 64457 C 6325.85 -0.533592 3.5663 0
M  V30 64458 O 6324.95 -1.6269 3.78953 0
M  V30 64459 H 6324.29 -0.020925 0.66367 0
M  V30 64460 H 6326.82 0.562437 1.96718 0
M  V30 64461 H 6326.83 -0.796646 4.00147 0
M  V30 64462 H 6325.51 0.346795 4.14452 0
M  V30 64463 H 6324.08 -1.35722 3.47324 0
M  V30 64464 N 6326.27 -1.57114 0.123648 0
M  V30 64465 C 6327.5 -1.99707 -0.540817 0
M  V30 64466 C 6327.91 -1.00341 -1.59928 0
M  V30 64467 O 6327.27 0.00304061 -1.825 0
M  V30 64468 C 6327.32 -3.4229 -1.16273 0
M  V30 64469 O 6327.04 -4.37855 -0.146571 0
M  V30 64470 C 6328.54 -4.00039 -1.91007 0
M  V30 64471 H 6325.76 -0.655628 -0.142804 0
M  V30 64472 H 6328.31 -2.03405 0.211356 0
M  V30 64473 H 6326.46 -3.39517 -1.86566 0
M  V30 64474 H 6326.87 -5.21068 -0.599045 0
M  V30 64475 H 6328.35 -5.01873 -2.29843 0
M  V30 64476 H 6328.83 -3.3944 -2.78707 0
M  V30 64477 H 6329.43 -4.06372 -1.25466 0
M  V30 64478 N 6327.75 0.150132 -1.56883 0
M  V30 64479 C 6328.99 0.869522 -1.84983 0
M  V30 64480 C 6329.35 1.78489 -0.707512 0
M  V30 64481 O 6330.55 2.54349 -0.869477 0
M  V30 64482 C 6328.82 1.62628 -3.18256 0
M  V30 64483 S 6330.38 2.39152 -3.67902 0
M  V30 64484 H 6327.2 0.29083 -0.648798 0
M  V30 64485 H 6329.8 0.129729 -1.95069 0
M  V30 64486 H 6328.51 0.945232 -3.99366 0
M  V30 64487 H 6328.04 2.40705 -3.11167 0
M  V30 64488 H 6330.05 3.64283 -3.36916 0
M  V30 64489 N 6329.22 1.51918 0.419381 0
M  V30 64490 C 6330.45 1.69306 1.18924 0
M  V30 64491 C 6330.87 0.398089 1.84555 0
M  V30 64492 O 6330.22 -0.625023 1.71463 0
M  V30 64493 C 6330.28 2.82147 2.25999 0
M  V30 64494 O 6330 4.06628 1.63049 0
M  V30 64495 C 6331.5 3.10958 3.15943 0
M  V30 64496 H 6328.72 0.567669 0.357761 0
M  V30 64497 H 6331.26 1.98425 0.494738 0
M  V30 64498 H 6329.42 2.55576 2.91135 0
M  V30 64499 H 6329.83 4.69431 2.33954 0
M  V30 64500 H 6331.3 3.93452 3.87169 0
M  V30 64501 H 6331.78 2.24091 3.7773 0
M  V30 64502 H 6332.39 3.39255 2.56488 0
M  V30 64503 N 6330.7 -0.675973 1.42367 0
M  V30 64504 C 6331.95 -1.43816 1.42985 0
M  V30 64505 C 6332.28 -1.94146 0.0456384 0
M  V30 64506 O 6331.56 -1.7083 -0.929916 0
M  V30 64507 C 6331.84 -2.63603 2.45327 0
M  V30 64508 C 6331.69 -2.18912 3.92935 0
M  V30 64509 C 6333.01 -3.65819 2.44673 0
M  V30 64510 H 6330.13 -0.521604 0.520671 0
M  V30 64511 H 6332.77 -0.768309 1.73773 0
M  V30 64512 H 6330.92 -3.20752 2.19204 0
M  V30 64513 H 6332.59 -1.66939 4.30034 0
M  V30 64514 H 6330.84 -1.50497 4.06857 0
M  V30 64515 H 6331.51 -3.04949 4.6012 0
M  V30 64516 H 6333.98 -3.18384 2.67901 0
M  V30 64517 H 6332.86 -4.47215 3.18261 0
M  V30 64518 H 6333.12 -4.16865 1.47227 0
M  V30 64519 N 6332.18 -1.2852 -0.912164 0
M  V30 64520 C 6333.13 -1.12444 -2.03615 0
M  V30 64521 C 6334.12 -0.0432926 -1.69345 0
M  V30 64522 O 6335.33 -0.202179 -1.78861 0
M  V30 64523 H 6331.7 -0.346964 -0.667173 0
M  V30 64524 H 6333.67 -2.07632 -2.14316 0
M  V30 64525 C 6332.42 -0.804722 -3.3826 0
M  V30 64526 H 6331.75 -1.62862 -3.65125 0
M  V30 64527 H 6333.19 -0.732202 -4.1763 0
M  V30 64528 C 6331.65 0.491598 -3.33294 0
M  V30 64529 O 6332.18 1.52142 -3.71774 0
M  V30 64530 N 6330.38 0.492906 -2.86389 0
M  V30 64531 H 6329.93 -0.345579 -2.55271 0
M  V30 64532 H 6329.89 1.36028 -2.8345 0
M  V30 64533 N 6333.66 1.12083 -1.10794 0
M  V30 64534 C 6334.59 2.17664 -0.717974 0
M  V30 64535 C 6335.6 1.60913 0.247123 0
M  V30 64536 O 6336.79 1.78473 0.0310297 0
M  V30 64537 C 6333.89 3.38877 -0.0393642 0
M  V30 64538 C 6333.07 4.2511 -1.02958 0
M  V30 64539 C 6332.12 5.24813 -0.381767 0
M  V30 64540 O 6331.15 5.59735 -1.03368 0
M  V30 64541 N 6332.35 5.74121 0.858214 0
M  V30 64542 H 6335.12 2.51731 -1.62639 0
M  V30 64543 H 6332.68 1.2754 -0.997254 0
M  V30 64544 H 6334.67 4.02663 0.405574 0
M  V30 64545 H 6333.24 3.0293 0.77152 0
M  V30 64546 H 6332.46 3.57883 -1.65267 0
M  V30 64547 H 6333.75 4.79569 -1.69973 0
M  V30 64548 H 6333.15 5.47919 1.40715 0
M  V30 64549 H 6331.7 6.39775 1.24624 0
M  V30 64550 N 6335.14 0.89724 1.29566 0
M  V30 64551 C 6336.38 0.520872 1.95272 0
M  V30 64552 C 6336.71 -0.935441 1.71098 0
M  V30 64553 O 6335.98 -1.65929 1.04137 0
M  V30 64554 H 6334.56 0.189636 0.722528 0
M  V30 64555 H 6337.22 1.143 1.57866 0
M  V30 64556 H 6336.31 0.7014 3.04116 0
M  V30 64557 N 6336.61 -1.43139 0.659463 0
M  V30 64558 C 6337.56 -2.32565 -0.0401722 0
M  V30 64559 C 6338.56 -1.48964 -0.806599 0
M  V30 64560 O 6339.76 -1.65134 -0.716294 0
M  V30 64561 H 6336.14 -0.751328 -0.0317789 0
M  V30 64562 H 6338.11 -2.8929 0.731683 0
M  V30 64563 C 6336.86 -3.33353 -0.988496 0
M  V30 64564 H 6336.18 -3.97711 -0.40817 0
M  V30 64565 H 6337.62 -3.98545 -1.447 0
M  V30 64566 C 6336.08 -2.64431 -2.08754 0
M  V30 64567 O 6336.61 -2.46455 -3.17211 0
M  V30 64568 N 6334.82 -2.23703 -1.85486 0
M  V30 64569 H 6334.36 -2.38523 -0.972862 0
M  V30 64570 H 6334.32 -1.77919 -2.59215 0
M  V30 64571 N 6338.09 -0.401784 -1.52392 0
M  V30 64572 C 6339.02 0.462571 -2.24484 0
M  V30 64573 C 6340.04 1.01634 -1.27179 0
M  V30 64574 O 6341.23 0.916531 -1.53173 0
M  V30 64575 C 6338.33 1.65507 -2.95737 0
M  V30 64576 C 6337.5 1.22649 -4.19852 0
M  V30 64577 C 6336.56 2.28507 -4.73995 0
M  V30 64578 O 6335.58 1.894 -5.36765 0
M  V30 64579 N 6336.79 3.6058 -4.54931 0
M  V30 64580 H 6339.55 -0.155129 -2.99298 0
M  V30 64581 H 6337.11 -0.228781 -1.60275 0
M  V30 64582 H 6339.1 2.35874 -3.28855 0
M  V30 64583 H 6337.67 2.17884 -2.24154 0
M  V30 64584 H 6336.89 0.351221 -3.92632 0
M  V30 64585 H 6338.18 0.916986 -5.00469 0
M  V30 64586 H 6337.58 3.95108 -4.04854 0
M  V30 64587 H 6336.14 4.26945 -4.92505 0
M  V30 64588 N 6339.57 1.57046 -0.131978 0
M  V30 64589 C 6340.98 1.82553 0.391311 0
M  V30 64590 C 6341.33 1.04988 1.65746 0
M  V30 64591 O 6340.46 0.290475 2.14442 0
M  V30 64592 C 6341.05 3.31132 0.716727 0
M  V30 64593 C 6339.61 3.57273 1.1846 0
M  V30 64594 C 6338.76 2.76578 0.199924 0
M  V30 64595 H 6341.71 1.54634 -0.356917 0
M  V30 64596 H 6341.73 3.46468 1.5729 0
M  V30 64597 H 6341.24 3.87558 -0.20498 0
M  V30 64598 H 6339.34 3.06218 2.12276 0
M  V30 64599 H 6339.46 4.65802 1.12095 0
M  V30 64600 H 6337.82 2.45188 0.689569 0
M  V30 64601 H 6338.6 3.35769 -0.715108 0
M  V30 64602 N 6341.05 -0.14181 1.56961 0
M  V30 64603 C 6341.98 -1.20015 1.95266 0
M  V30 64604 C 6342.99 -1.38902 0.849121 0
M  V30 64605 O 6344.18 -1.38381 1.12751 0
M  V30 64606 C 6341.28 -2.56413 2.21598 0
M  V30 64607 C 6340.46 -2.58435 3.52889 0
M  V30 64608 C 6339.52 -3.76409 3.67699 0
M  V30 64609 O 6338.54 -3.61044 4.40041 0
M  V30 64610 N 6339.74 -4.94071 3.04752 0
M  V30 64611 H 6342.51 -0.874509 2.86657 0
M  V30 64612 H 6340.07 -0.331323 1.58474 0
M  V30 64613 H 6342.06 -3.33855 2.28742 0
M  V30 64614 H 6340.63 -2.81249 1.36447 0
M  V30 64615 H 6339.85 -1.66871 3.57138 0
M  V30 64616 H 6341.14 -2.56821 4.39227 0
M  V30 64617 H 6340.54 -5.09458 2.45904 0
M  V30 64618 H 6339.09 -5.6927 3.1745 0
M  V30 64619 N 6342.53 -1.52138 -0.411319 0
M  V30 64620 C 6343.77 -1.67764 -1.16767 0
M  V30 64621 C 6344.13 -0.397895 -1.87832 0
M  V30 64622 O 6345.33 -0.430237 -2.65335 0
M  V30 64623 C 6343.6 -2.86446 -2.13738 0
M  V30 64624 S 6345.16 -3.22543 -2.97509 0
M  V30 64625 H 6341.98 -0.59078 -0.3956 0
M  V30 64626 H 6344.58 -1.90124 -0.455296 0
M  V30 64627 H 6343.29 -3.77836 -1.60213 0
M  V30 64628 H 6342.82 -2.66352 -2.89517 0
M  V30 64629 H 6344.83 -2.70995 -4.15664 0
M  V30 64630 N 6344.01 0.668413 -1.42723 0
M  V30 64631 C 6345.42 0.9823 -1.2579 0
M  V30 64632 C 6345.62 2.0081 -0.166664 0
M  V30 64633 O 6344.68 2.48275 0.459982 0
M  V30 64634 C 6345.99 1.48103 -2.61698 0
M  V30 64635 C 6347.54 1.59847 -2.69106 0
M  V30 64636 C 6348.01 2.13114 -4.05397 0
M  V30 64637 N 6349.5 2.20438 -4.07383 0
M  V30 64638 C 6350.24 2.62743 -5.09661 0
M  V30 64639 N 6349.74 3.04453 -6.22318 0
M  V30 64640 N 6351.53 2.62548 -4.97016 0
M  V30 64641 H 6343.68 -0.0106408 -2.12397 0
M  V30 64642 H 6345.94 0.0577828 -0.946237 0
M  V30 64643 H 6345.65 0.801763 -3.42439 0
M  V30 64644 H 6345.52 2.45869 -2.86057 0
M  V30 64645 H 6347.91 2.26878 -1.88707 0
M  V30 64646 H 6347.99 0.605534 -2.4853 0
M  V30 64647 H 6347.63 1.4669 -4.86256 0
M  V30 64648 H 6347.56 3.1321 -4.23328 0
M  V30 64649 H 6350.06 1.91038 -3.26057 0
M  V30 64650 H 6350.37 3.35438 -6.96205 0
M  V30 64651 H 6348.71 3.02295 -6.25814 0
M  V30 64652 H 6351.9 2.29328 -4.08076 0
M  V30 64653 H 6352.08 2.95197 -5.76856 0
M  V30 64654 N 6345.48 1.29002 0.905335 0
M  V30 64655 C 6346.72 1.17907 1.66965 0
M  V30 64656 C 6347.09 -0.266283 1.90145 0
M  V30 64657 O 6348.29 -0.500095 2.64107 0
M  V30 64658 C 6346.56 1.9642 2.98586 0
M  V30 64659 S 6348.12 2.01796 3.89646 0
M  V30 64660 H 6344.94 0.420525 0.573306 0
M  V30 64661 H 6347.54 1.63213 1.07618 0
M  V30 64662 H 6346.24 3.00583 2.79424 0
M  V30 64663 H 6345.77 1.51697 3.62976 0
M  V30 64664 H 6347.79 1.13056 4.83149 0
M  V30 64665 N 6346.96 -1.11493 1.11387 0
M  V30 64666 C 6347.89 -2.19589 0.793904 0
M  V30 64667 C 6348.87 -1.68434 -0.2375 0
M  V30 64668 O 6350.06 -1.93937 -0.101096 0
M  V30 64669 C 6347.19 -3.46499 0.235701 0
M  V30 64670 C 6346.14 -4.10865 1.19891 0
M  V30 64671 C 6345.47 -5.32344 0.501446 0
M  V30 64672 C 6346.77 -4.55855 2.54938 0
M  V30 64673 H 6348.46 -2.46611 1.69774 0
M  V30 64674 H 6346.01 -1.18529 0.817736 0
M  V30 64675 H 6347.96 -4.214 -0.000342129 0
M  V30 64676 H 6346.68 -3.18935 -0.703432 0
M  V30 64677 H 6345.34 -3.37957 1.42058 0
M  V30 64678 H 6344.99 -5.0105 -0.442476 0
M  V30 64679 H 6344.69 -5.76359 1.14387 0
M  V30 64680 H 6346.22 -6.09984 0.274182 0
M  V30 64681 H 6347.63 -5.22081 2.36863 0
M  V30 64682 H 6346.03 -5.10682 3.15157 0
M  V30 64683 H 6347.1 -3.69331 3.14202 0
M  V30 64684 N 6348.44 -0.904098 -1.29088 0
M  V30 64685 C 6349.85 -0.580158 -1.77457 0
M  V30 64686 C 6350.2 0.904313 -1.74117 0
M  V30 64687 O 6349.33 1.70719 -1.32981 0
M  V30 64688 C 6349.92 -1.04636 -3.22237 0
M  V30 64689 C 6348.48 -0.773504 -3.68366 0
M  V30 64690 C 6347.63 -1.21857 -2.49091 0
M  V30 64691 H 6350.58 -1.08637 -1.15688 0
M  V30 64692 H 6350.6 -0.383558 -3.78562 0
M  V30 64693 H 6350.11 -2.1268 -3.24636 0
M  V30 64694 H 6348.21 0.29414 -3.71437 0
M  V30 64695 H 6348.33 -1.37447 -4.58961 0
M  V30 64696 H 6346.69 -0.637477 -2.46593 0
M  V30 64697 H 6347.47 -2.30715 -2.54215 0
M  V30 64698 N 6349.92 1.42788 -0.667045 0
M  V30 64699 C 6351.17 2.01245 -0.185733 0
M  V30 64700 C 6351.49 1.5297 1.20935 0
M  V30 64701 O 6350.76 0.7481 1.81053 0
M  V30 64702 H 6349.34 0.744107 -0.0656746 0
M  V30 64703 H 6352 1.74811 -0.861815 0
M  V30 64704 H 6351.09 3.11575 -0.181015 0
M  V30 64705 N 6351.4 0.40986 1.52177 0
M  V30 64706 C 6352.64 -0.165687 2.01821 0
M  V30 64707 C 6352.97 -1.45081 1.29544 0
M  V30 64708 O 6352.23 -1.91765 0.390491 0
M  V30 64709 C 6352.52 -0.459457 3.54434 0
M  V30 64710 C 6352.19 0.736556 4.44843 0
M  V30 64711 C 6350.85 1.06462 4.69275 0
M  V30 64712 C 6353.2 1.53571 4.98062 0
M  V30 64713 C 6350.53 2.193 5.44173 0
M  V30 64714 C 6352.88 2.65487 5.74195 0
M  V30 64715 C 6351.55 2.98778 5.96899 0
M  V30 64716 H 6350.82 -0.0606291 0.738515 0
M  V30 64717 H 6353.47 0.551428 1.83389 0
M  V30 64718 H 6351.77 -1.25815 3.7105 0
M  V30 64719 H 6353.47 -0.917751 3.90357 0
M  V30 64720 H 6350.06 0.470884 4.26005 0
M  V30 64721 H 6354.24 1.29549 4.79094 0
M  V30 64722 H 6349.5 2.4544 5.59972 0
M  V30 64723 H 6353.67 3.27798 6.14428 0
M  V30 64724 H 6351.3 3.8633 6.54716 0
M  V30 64725 N 6352.87 -1.56974 0.140305 0
M  V30 64726 C 6353.8 -2.19435 -0.798156 0
M  V30 64727 C 6354.78 -1.14059 -1.26192 0
M  V30 64728 O 6355.97 -1.42377 -1.32069 0
M  V30 64729 C 6353.1 -2.81066 -2.04008 0
M  V30 64730 C 6352.05 -3.9221 -1.71333 0
M  V30 64731 C 6351.38 -4.40746 -3.02733 0
M  V30 64732 C 6352.68 -5.13305 -0.965146 0
M  V30 64733 H 6354.37 -2.9811 -0.277611 0
M  V30 64734 H 6351.92 -1.43393 -0.132087 0
M  V30 64735 H 6353.87 -3.23427 -2.70135 0
M  V30 64736 H 6352.6 -1.99712 -2.58423 0
M  V30 64737 H 6351.26 -3.50458 -1.07587 0
M  V30 64738 H 6350.9 -3.56223 -3.55126 0
M  V30 64739 H 6350.6 -5.15708 -2.81636 0
M  V30 64740 H 6352.13 -4.85772 -3.69943 0
M  V30 64741 H 6353.54 -5.52552 -1.52838 0
M  V30 64742 H 6351.94 -5.93987 -0.854365 0
M  V30 64743 H 6353.01 -4.8488 0.0443392 0
M  V30 64744 N 6354.35 0.133484 -1.57034 0
M  V30 64745 C 6355.6 0.842128 -1.83719 0
M  V30 64746 C 6355.92 1.8109 -0.723289 0
M  V30 64747 O 6355.19 1.94247 0.25396 0
M  V30 64748 H 6353.77 0.31398 -0.677809 0
M  V30 64749 H 6356.43 0.124261 -1.94503 0
M  V30 64750 H 6355.53 1.39618 -2.7913 0
M  V30 64751 N 6355.83 1.52354 0.403245 0
M  V30 64752 C 6357.11 1.5727 1.163 0
M  V30 64753 C 6357.49 0.357254 2.08055 0
M  V30 64754 O 6356.84 -0.655474 2.18897 0
M  V30 64755 C 6357.05 2.90436 1.93515 0
M  V30 64756 C 6358.39 3.43652 2.49376 0
M  V30 64757 O 6359.42 2.92215 2.03688 0
M  V30 64758 O 6358.28 4.33486 3.32794 0
M  V30 64759 H 6355.37 0.633725 0.531339 0
M  V30 64760 H 6357.92 1.64684 0.409549 0
M  V30 64761 H 6356.69 3.70345 1.26333 0
M  V30 64762 H 6356.31 2.86341 2.75852 0
M  V30 64763 N 6357.31 -0.660835 1.43076 0
M  V30 64764 C 6358.72 -0.975615 1.26309 0
M  V30 64765 C 6358.92 -2.00718 0.177311 0
M  V30 64766 O 6357.98 -2.48515 -0.446808 0
M  V30 64767 C 6359.29 -1.46713 2.6248 0
M  V30 64768 C 6360.84 -1.58417 2.6995 0
M  V30 64769 C 6361.32 -2.10961 4.06521 0
M  V30 64770 N 6362.81 -2.18275 4.08547 0
M  V30 64771 C 6363.54 -2.60036 5.11047 0
M  V30 64772 N 6363.04 -3.01149 6.23924 0
M  V30 64773 N 6364.83 -2.59908 4.98401 0
M  V30 64774 H 6356.98 0.0219046 2.12389 0
M  V30 64775 H 6359.25 -0.0527639 0.94653 0
M  V30 64776 H 6358.95 -0.783592 3.4286 0
M  V30 64777 H 6358.83 -2.44348 2.87356 0
M  V30 64778 H 6361.21 -2.25874 1.89908 0
M  V30 64779 H 6361.29 -0.592345 2.48847 0
M  V30 64780 H 6360.94 -1.44109 4.87027 0
M  V30 64781 H 6360.87 -3.10961 4.24983 0
M  V30 64782 H 6363.36 -1.89306 3.27065 0
M  V30 64783 H 6363.67 -3.31742 6.97974 0
M  V30 64784 H 6362.02 -2.98972 6.27408 0
M  V30 64785 H 6365.21 -2.27161 4.09287 0
M  V30 64786 H 6365.38 -2.92133 5.78414 0
M  V30 64787 N 6358.79 -1.2948 -0.898481 0
M  V30 64788 C 6360.03 -1.18791 -1.66337 0
M  V30 64789 C 6360.39 0.256195 -1.90283 0
M  V30 64790 O 6361.59 0.486081 -2.64368 0
M  V30 64791 C 6359.86 -1.98001 -2.97541 0
M  V30 64792 S 6361.42 -2.0386 -3.8857 0
M  V30 64793 H 6358.24 -0.423559 -0.571068 0
M  V30 64794 H 6360.84 -1.63782 -1.06751 0
M  V30 64795 H 6359.55 -3.02061 -2.77826 0
M  V30 64796 H 6359.08 -1.53619 -3.62167 0
M  V30 64797 H 6361.09 -1.15617 -4.82542 0
M  V30 64798 N 6360.26 1.10901 -1.11976 0
M  V30 64799 C 6361.2 2.16891 -0.74102 0
M  V30 64800 C 6362.21 1.61167 0.230042 0
M  V30 64801 O 6363.4 1.78496 0.0120985 0
M  V30 64802 C 6360.5 3.38816 -0.0753044 0
M  V30 64803 C 6359.67 4.23994 -1.07461 0
M  V30 64804 C 6358.73 5.24379 -0.437409 0
M  V30 64805 O 6357.76 5.58608 -1.09299 0
M  V30 64806 N 6358.96 5.74999 0.797273 0
M  V30 64807 H 6361.72 2.49992 -1.653 0
M  V30 64808 H 6359.28 1.26475 -1.01073 0
M  V30 64809 H 6361.28 4.0307 0.362843 0
M  V30 64810 H 6359.85 3.03731 0.739347 0
M  V30 64811 H 6359.07 3.5611 -1.69054 0
M  V30 64812 H 6360.35 4.77739 -1.7505 0
M  V30 64813 H 6359.75 5.49381 1.34896 0
M  V30 64814 H 6358.31 6.41061 1.17831 0
M  V30 64815 N 6361.74 0.910931 1.28607 0
M  V30 64816 C 6362.97 0.557592 1.98933 0
M  V30 64817 C 6363.38 -0.864816 1.68278 0
M  V30 64818 O 6362.72 -1.58398 0.930368 0
M  V30 64819 C 6362.79 0.68346 3.52943 0
M  V30 64820 C 6362.45 2.0749 4.07182 0
M  V30 64821 C 6363.45 3.04731 4.21231 0
M  V30 64822 C 6361.13 2.38731 4.41942 0
M  V30 64823 C 6363.13 4.31332 4.69288 0
M  V30 64824 C 6360.81 3.65572 4.89694 0
M  V30 64825 C 6361.81 4.61687 5.03323 0
M  V30 64826 O 6361.5 5.86273 5.50035 0
M  V30 64827 H 6361.23 0.211542 0.642048 0
M  V30 64828 H 6363.78 1.22545 1.64839 0
M  V30 64829 H 6362.01 -0.0414596 3.86678 0
M  V30 64830 H 6363.7 0.337636 4.04493 0
M  V30 64831 H 6364.47 2.81912 3.94653 0
M  V30 64832 H 6360.35 1.64674 4.30585 0
M  V30 64833 H 6363.89 5.06357 4.79842 0
M  V30 64834 H 6359.79 3.88217 5.15711 0
M  V30 64835 H 6360.56 5.89022 5.68326 0
M  V30 64836 N 6363.22 -1.42432 0.674608 0
M  V30 64837 C 6364.64 -1.55846 0.344142 0
M  V30 64838 C 6364.84 -1.65428 -1.15047 0
M  V30 64839 O 6363.89 -1.6211 -1.93589 0
M  V30 64840 C 6365.21 -2.80855 1.07429 0
M  V30 64841 C 6366.75 -2.94627 1.0566 0
M  V30 64842 C 6367.23 -4.22497 1.76806 0
M  V30 64843 N 6368.72 -4.29409 1.73673 0
M  V30 64844 C 6369.45 -5.27164 2.2558 0
M  V30 64845 N 6368.95 -6.31072 2.85867 0
M  V30 64846 N 6370.74 -5.1896 2.15955 0
M  V30 64847 H 6362.89 -1.34456 1.64425 0
M  V30 64848 H 6365.16 -0.647207 0.692696 0
M  V30 64849 H 6364.86 -2.79911 2.12938 0
M  V30 64850 H 6364.74 -3.71741 0.6394 0
M  V30 64851 H 6367.12 -2.95098 0.00984078 0
M  V30 64852 H 6367.21 -2.04972 1.53036 0
M  V30 64853 H 6366.85 -4.22786 2.8145 0
M  V30 64854 H 6366.78 -5.11086 1.26879 0
M  V30 64855 H 6369.27 -3.54946 1.297 0
M  V30 64856 H 6369.58 -7.02018 3.23095 0
M  V30 64857 H 6367.93 -6.31634 2.89937 0
M  V30 64858 H 6371.12 -4.36704 1.68545 0
M  V30 64859 H 6371.29 -5.94981 2.56714 0
M  V30 64860 N 6364.7 -0.417924 -1.51958 0
M  V30 64861 C 6365.63 0.438735 -2.24962 0
M  V30 64862 C 6366.64 1.00279 -1.2825 0
M  V30 64863 O 6367.83 0.900234 -1.54136 0
M  V30 64864 C 6364.93 1.62361 -2.97476 0
M  V30 64865 C 6364.11 1.18189 -4.2113 0
M  V30 64866 C 6363.16 2.23467 -4.76392 0
M  V30 64867 O 6362.19 1.83696 -5.38743 0
M  V30 64868 N 6363.39 3.55735 -4.5873 0
M  V30 64869 H 6366.16 -0.186865 -2.99117 0
M  V30 64870 H 6363.72 -0.245767 -1.60024 0
M  V30 64871 H 6365.71 2.32373 -3.31338 0
M  V30 64872 H 6364.28 2.15495 -2.26453 0
M  V30 64873 H 6363.5 0.309557 -3.92983 0
M  V30 64874 H 6364.79 0.863853 -5.01413 0
M  V30 64875 H 6364.19 3.90791 -4.09022 0
M  V30 64876 H 6362.74 4.21697 -4.97005 0
M  V30 64877 N 6366.18 1.56898 -0.148628 0
M  V30 64878 C 6367.42 1.98068 0.504808 0
M  V30 64879 C 6367.78 1.03163 1.6193 0
M  V30 64880 O 6368.98 1.33385 2.33371 0
M  V30 64881 C 6367.25 3.43228 0.99646 0
M  V30 64882 S 6368.81 4.06423 1.65427 0
M  V30 64883 H 6365.63 0.692024 0.163167 0
M  V30 64884 H 6368.23 1.94012 -0.240727 0
M  V30 64885 H 6366.94 4.10028 0.174583 0
M  V30 64886 H 6366.47 3.51 1.77658 0
M  V30 64887 H 6368.48 3.99608 2.94156 0
M  V30 64888 N 6367.65 -0.125154 1.57102 0
M  V30 64889 C 6368.88 -0.852311 1.89078 0
M  V30 64890 C 6369.3 -1.72935 0.739939 0
M  V30 64891 O 6368.66 -1.78634 -0.309765 0
M  V30 64892 C 6368.71 -1.66676 3.19768 0
M  V30 64893 O 6367.81 -2.77313 3.0524 0
M  V30 64894 H 6367.16 -0.236081 0.620614 0
M  V30 64895 H 6369.69 -0.109401 2.04307 0
M  V30 64896 H 6369.7 -2.05728 3.52335 0
M  V30 64897 H 6368.37 -1.02289 4.03125 0
M  V30 64898 H 6366.95 -2.41509 2.84127 0
M  V30 64899 N 6369.13 -1.52566 -0.395159 0
M  V30 64900 C 6370.38 -1.66978 -1.13854 0
M  V30 64901 C 6370.7 -0.409083 -1.90661 0
M  V30 64902 O 6369.97 0.576385 -1.87229 0
M  V30 64903 H 6368.55 -0.615495 -0.423291 0
M  V30 64904 H 6371.21 -1.89659 -0.448957 0
M  V30 64905 H 6370.31 -2.51736 -1.84487 0
M  V30 64906 N 6370.61 0.653238 -1.43424 0
M  V30 64907 C 6371.84 1.43878 -1.48265 0
M  V30 64908 C 6372.25 1.8894 -0.0991194 0
M  V30 64909 O 6371.59 1.60091 0.900927 0
M  V30 64910 C 6371.65 2.7065 -2.36619 0
M  V30 64911 C 6371.32 2.47528 -3.8416 0
M  V30 64912 C 6372.32 2.10752 -4.75268 0
M  V30 64913 C 6370 2.61853 -4.28647 0
M  V30 64914 C 6371.99 1.88598 -6.08859 0
M  V30 64915 C 6369.68 2.39315 -5.62292 0
M  V30 64916 C 6370.68 2.02743 -6.52215 0
M  V30 64917 O 6370.37 1.80439 -7.83388 0
M  V30 64918 H 6370.1 0.448474 -0.505814 0
M  V30 64919 H 6372.65 0.808151 -1.88833 0
M  V30 64920 H 6370.88 3.36273 -1.90938 0
M  V30 64921 H 6372.57 3.32599 -2.32664 0
M  V30 64922 H 6373.34 1.99261 -4.42176 0
M  V30 64923 H 6369.22 2.89294 -3.58929 0
M  V30 64924 H 6372.76 1.59977 -6.79009 0
M  V30 64925 H 6368.66 2.50408 -5.9495 0
M  V30 64926 H 6369.43 1.94865 -7.94965 0
M  V30 64927 N 6372.09 1.29955 0.891602 0
M  V30 64928 C 6373.33 1.19672 1.65705 0
M  V30 64929 C 6373.69 -0.246101 1.90416 0
M  V30 64930 O 6374.89 -0.472055 2.64623 0
M  V30 64931 C 6373.17 1.99576 2.96486 0
M  V30 64932 S 6374.72 2.05918 3.87483 0
M  V30 64933 H 6371.54 0.426582 0.568814 0
M  V30 64934 H 6374.14 1.64346 1.05881 0
M  V30 64935 H 6372.85 3.0353 2.7622 0
M  V30 64936 H 6372.38 1.55538 3.61347 0
M  V30 64937 H 6374.39 1.18174 4.81923 0
M  V30 64938 N 6373.57 -1.10306 1.12563 0
M  V30 64939 C 6374.48 -2.20254 0.807799 0
M  V30 64940 C 6375.49 -1.72801 -0.203936 0
M  V30 64941 O 6376.67 -2.01366 -0.0372058 0
M  V30 64942 C 6373.73 -3.45659 0.268511 0
M  V30 64943 C 6372.8 -4.0784 1.34035 0
M  V30 64944 C 6372.03 -5.27258 0.826697 0
M  V30 64945 O 6372.25 -5.69391 -0.339043 0
M  V30 64946 O 6371.19 -5.8033 1.5969 0
M  V30 64947 H 6375.01 -2.49876 1.72614 0
M  V30 64948 H 6372.6 -1.19068 0.902394 0
M  V30 64949 H 6374.48 -4.21391 -0.027284 0
M  V30 64950 H 6373.15 -3.1766 -0.622378 0
M  V30 64951 H 6372.06 -3.33785 1.68933 0
M  V30 64952 H 6373.39 -4.40044 2.20505 0
M  V30 64953 N 6375.05 -0.917739 -1.28122 0
M  V30 64954 C 6375.99 -0.399435 -2.29145 0
M  V30 64955 C 6376.99 0.510988 -1.61509 0
M  V30 64956 O 6378.19 0.391791 -1.75684 0
M  V30 64957 H 6374.57 -0.110579 -0.743825 0
M  V30 64958 H 6376.54 -1.26447 -2.70284 0
M  V30 64959 C 6375.29 0.341648 -3.46017 0
M  V30 64960 H 6374.61 -0.349704 -3.98268 0
M  V30 64961 H 6376.05 0.668888 -4.18691 0
M  V30 64962 C 6374.51 1.55101 -2.99074 0
M  V30 64963 O 6375.04 2.65001 -3.0189 0
M  V30 64964 N 6373.25 1.39937 -2.54688 0
M  V30 64965 H 6372.79 0.505253 -2.52596 0
M  V30 64966 H 6372.75 2.20981 -2.2364 0
M  V30 64967 N 6376.52 1.42072 -0.682152 0
M  V30 64968 C 6377.77 2.01434 -0.207477 0
M  V30 64969 C 6378.1 1.53968 1.18845 0
M  V30 64970 O 6377.35 0.735757 1.81343 0
M  V30 64971 C 6377.65 3.56847 -0.198748 0
M  V30 64972 C 6377.32 4.23773 -1.54036 0
M  V30 64973 C 6375.98 4.4177 -1.90768 0
M  V30 64974 C 6378.33 4.61423 -2.4236 0
M  V30 64975 C 6375.66 4.9469 -3.15435 0
M  V30 64976 C 6378.01 5.15726 -3.66346 0
M  V30 64977 C 6376.68 5.31936 -4.03238 0
M  V30 64978 H 6375.95 0.7371 -0.0759213 0
M  V30 64979 H 6378.59 1.70156 -0.878591 0
M  V30 64980 H 6376.9 3.87836 0.555892 0
M  V30 64981 H 6378.6 4.00569 0.185845 0
M  V30 64982 H 6375.19 4.1013 -1.24463 0
M  V30 64983 H 6379.37 4.47186 -2.15265 0
M  V30 64984 H 6374.63 5.05424 -3.4403 0
M  V30 64985 H 6378.8 5.43842 -4.34982 0
M  V30 64986 H 6376.43 5.72705 -4.99913 0
M  V30 64987 N 6378 0.425977 1.51734 0
M  V30 64988 C 6379.25 -0.143987 2.01586 0
M  V30 64989 C 6379.57 -1.442 1.31269 0
M  V30 64990 O 6378.84 -1.90808 0.443729 0
M  V30 64991 H 6377.42 -0.0562002 0.744883 0
M  V30 64992 H 6380.08 0.566082 1.86498 0
M  V30 64993 H 6379.18 -0.328052 3.10371 0
M  V30 64994 N 6379.48 -1.56817 0.156946 0
M  V30 64995 C 6380.71 -2.00809 -0.498334 0
M  V30 64996 C 6381.12 -1.03711 -1.57764 0
M  V30 64997 O 6380.48 -0.035671 -1.82465 0
M  V30 64998 C 6380.53 -3.4468 -1.08987 0
M  V30 64999 O 6380.25 -4.38067 -0.053663 0
M  V30 65000 C 6381.75 -4.04001 -1.82479 0
M  V30 65001 H 6378.97 -0.65851 -0.128865 0
M  V30 65002 H 6381.52 -2.02911 0.254454 0
M  V30 65003 H 6379.67 -3.43398 -1.79322 0
M  V30 65004 H 6380.09 -5.22221 -0.488384 0
M  V30 65005 H 6381.56 -5.06635 -2.19146 0
M  V30 65006 H 6382.04 -3.45275 -2.71444 0
M  V30 65007 H 6382.64 -4.08942 -1.16818 0
M  V30 65008 N 6380.96 0.116821 -1.57166 0
M  V30 65009 C 6382.2 0.830089 -1.86786 0
M  V30 65010 C 6382.56 1.76948 -0.745213 0
M  V30 65011 O 6383.76 2.52448 -0.923233 0
M  V30 65012 C 6382.03 1.55841 -3.21634 0
M  V30 65013 S 6383.59 2.31295 -3.72892 0
M  V30 65014 H 6380.41 0.277003 -0.654821 0
M  V30 65015 H 6383.01 0.0883223 -1.953 0
M  V30 65016 H 6381.72 0.860307 -4.01282 0
M  V30 65017 H 6381.25 2.3405 -3.16203 0
M  V30 65018 H 6383.26 3.57054 -3.44568 0
M  V30 65019 N 6382.44 1.52773 0.387063 0
M  V30 65020 C 6383.37 1.73945 1.4925 0
M  V30 65021 C 6384.38 0.61994 1.50534 0
M  V30 65022 O 6385.57 0.895684 1.54401 0
M  V30 65023 C 6382.67 1.78483 2.88092 0
M  V30 65024 C 6381.84 3.07819 3.10751 0
M  V30 65025 C 6380.9 3.03879 4.29586 0
M  V30 65026 O 6379.93 3.77738 4.25797 0
M  V30 65027 N 6381.13 2.23199 5.35876 0
M  V30 65028 H 6383.89 2.69322 1.31474 0
M  V30 65029 H 6381.46 1.51284 0.576595 0
M  V30 65030 H 6383.45 1.73351 3.65693 0
M  V30 65031 H 6382.02 0.904843 2.99218 0
M  V30 65032 H 6381.24 3.26426 2.20997 0
M  V30 65033 H 6382.53 3.93336 3.22745 0
M  V30 65034 H 6381.92 1.62663 5.41809 0
M  V30 65035 H 6380.48 2.23905 6.12136 0
M  V30 65036 N 6383.91 -0.645623 1.43769 0
M  V30 65037 C 6384.85 -1.77052 1.43972 0
M  V30 65038 C 6385.82 -1.59804 0.300241 0
M  V30 65039 O 6387.01 -1.81885 0.495001 0
M  V30 65040 C 6384.14 -3.14449 1.25856 0
M  V30 65041 C 6383.18 -3.5038 2.43179 0
M  V30 65042 S 6384.01 -3.49496 4.05725 0
M  V30 65043 C 6385.17 -4.89537 3.90006 0
M  V30 65044 H 6385.4 -1.7661 2.39157 0
M  V30 65045 H 6382.94 -0.818948 1.30892 0
M  V30 65046 H 6384.89 -3.93742 1.16091 0
M  V30 65047 H 6383.56 -3.12444 0.322064 0
M  V30 65048 H 6382.75 -4.50324 2.26328 0
M  V30 65049 H 6382.35 -2.78517 2.49609 0
M  V30 65050 H 6384.64 -5.78393 3.528 0
M  V30 65051 H 6385.59 -5.1144 4.89729 0
M  V30 65052 H 6385.99 -4.63429 3.22326 0
M  V30 65053 N 6385.39 -1.30426 -0.884698 0
M  V30 65054 C 6386.36 -1.16811 -1.972 0
M  V30 65055 C 6387.36 -0.0992667 -1.60493 0
M  V30 65056 O 6388.55 -0.3474 -1.70701 0
M  V30 65057 C 6385.68 -0.789691 -3.31627 0
M  V30 65058 H 6386.87 -2.13409 -2.10705 0
M  V30 65059 H 6384.42 -1.13826 -1.07113 0
M  V30 65060 H 6385.16 0.175774 -3.23823 0
M  V30 65061 H 6384.94 -1.56213 -3.59639 0
M  V30 65062 H 6386.43 -0.717913 -4.11383 0
M  V30 65063 N 6386.87 1.09707 -1.13146 0
M  V30 65064 C 6387.83 2.14441 -0.80919 0
M  V30 65065 C 6388.83 1.59789 0.179994 0
M  V30 65066 O 6390.02 1.74137 -0.0467298 0
M  V30 65067 C 6387.16 3.4029 -0.203834 0
M  V30 65068 H 6388.35 2.4446 -1.73722 0
M  V30 65069 H 6385.9 1.25197 -0.935707 0
M  V30 65070 H 6386.64 3.15895 0.733556 0
M  V30 65071 H 6386.42 3.81247 -0.916137 0
M  V30 65072 H 6387.91 4.176 0.0048917 0
M  V30 65073 N 6388.35 0.924521 1.27634 0
M  V30 65074 C 6389.63 0.481809 1.89573 0
M  V30 65075 C 6390.01 -1.03995 1.83707 0
M  V30 65076 O 6389.35 -1.89273 1.28016 0
M  V30 65077 C 6389.56 1.02431 3.3363 0
M  V30 65078 C 6390.91 1.08288 4.10559 0
M  V30 65079 O 6391.94 0.97371 3.42633 0
M  V30 65080 O 6390.79 1.25061 5.31998 0
M  V30 65081 H 6387.89 0.154468 0.812446 0
M  V30 65082 H 6390.43 1.016 1.35924 0
M  V30 65083 H 6389.21 2.06819 3.32177 0
M  V30 65084 H 6388.83 0.471574 3.94794 0
M  V30 65085 N 6389.83 -1.41708 0.689677 0
M  V30 65086 C 6391.07 -2.00924 0.217726 0
M  V30 65087 C 6391.4 -1.54875 -1.18486 0
M  V30 65088 O 6390.67 -0.776809 -1.7984 0
M  V30 65089 H 6389.25 -0.742968 0.0775044 0
M  V30 65090 H 6391.91 -1.73417 0.889517 0
M  V30 65091 H 6391 -3.11247 0.23056 0
M  V30 65092 N 6391.3 -0.434018 -1.51506 0
M  V30 65093 C 6392.53 0.13472 -2.06962 0
M  V30 65094 C 6392.95 1.35979 -1.29967 0
M  V30 65095 O 6392.31 1.78146 -0.336691 0
M  V30 65096 C 6392.36 0.43885 -3.5792 0
M  V30 65097 O 6391.46 1.52585 -3.83134 0
M  V30 65098 H 6390.81 0.00332158 -0.663992 0
M  V30 65099 H 6393.34 -0.614395 -1.95157 0
M  V30 65100 H 6393.35 0.690274 -4.02118 0
M  V30 65101 H 6392.02 -0.456558 -4.13386 0
M  V30 65102 H 6390.6 1.26465 -3.508 0
M  V30 65103 N 6392.78 1.56731 -0.165261 0
M  V30 65104 C 6394.2 1.58453 0.190975 0
M  V30 65105 C 6394.4 1.18036 1.63309 0
M  V30 65106 O 6393.45 0.889139 2.36327 0
M  V30 65107 C 6394.77 3.00582 -0.0843471 0
M  V30 65108 C 6396.32 3.12992 -0.0220786 0
M  V30 65109 C 6396.79 4.57202 -0.27031 0
M  V30 65110 N 6398.28 4.62687 -0.217873 0
M  V30 65111 C 6399.02 5.72111 -0.384199 0
M  V30 65112 N 6398.51 6.90116 -0.60925 0
M  V30 65113 N 6400.31 5.61185 -0.320526 0
M  V30 65114 H 6392.46 1.81292 -1.10666 0
M  V30 65115 H 6394.72 0.83997 -0.439493 0
M  V30 65116 H 6394.43 3.34607 -1.08311 0
M  V30 65117 H 6394.3 3.71956 0.6268 0
M  V30 65118 H 6396.69 2.78798 0.96726 0
M  V30 65119 H 6396.77 2.44067 -0.765841 0
M  V30 65120 H 6396.41 4.92104 -1.25683 0
M  V30 65121 H 6396.34 5.24278 0.493993 0
M  V30 65122 H 6398.83 3.77868 -0.0493294 0
M  V30 65123 H 6399.15 7.69384 -0.725778 0
M  V30 65124 H 6397.49 6.91993 -0.645792 0
M  V30 65125 H 6400.68 4.67874 -0.14534 0
M  V30 65126 H 6400.85 6.46411 -0.453578 0
M  V30 65127 N 6394.26 -0.108484 1.57226 0
M  V30 65128 C 6395.19 -1.15846 1.97768 0
M  V30 65129 C 6396.21 -1.3707 0.878393 0
M  V30 65130 O 6397.39 -1.35958 1.15661 0
M  V30 65131 C 6394.49 -2.51655 2.26987 0
M  V30 65132 C 6393.67 -2.50891 3.58291 0
M  V30 65133 C 6392.73 -3.68525 3.75601 0
M  V30 65134 O 6391.75 -3.51628 4.476 0
M  V30 65135 N 6392.95 -4.87496 3.15163 0
M  V30 65136 H 6395.72 -0.813508 2.88448 0
M  V30 65137 H 6393.28 -0.297634 1.59141 0
M  V30 65138 H 6395.27 -3.28928 2.35772 0
M  V30 65139 H 6393.84 -2.78292 1.42382 0
M  V30 65140 H 6393.06 -1.59258 3.60597 0
M  V30 65141 H 6394.35 -2.47447 4.44576 0
M  V30 65142 H 6393.75 -5.04128 2.56655 0
M  V30 65143 H 6392.31 -5.62408 3.29454 0
M  V30 65144 N 6395.74 -1.52976 -0.378955 0
M  V30 65145 C 6396.98 -1.70204 -1.13182 0
M  V30 65146 C 6397.34 -0.437647 -1.86946 0
M  V30 65147 O 6398.54 -0.486422 -2.64362 0
M  V30 65148 C 6396.81 -2.90915 -2.07614 0
M  V30 65149 S 6398.37 -3.28781 -2.906 0
M  V30 65150 H 6395.19 -0.599039 -0.38298 0
M  V30 65151 H 6397.79 -1.91047 -0.414866 0
M  V30 65152 H 6396.5 -3.81149 -1.52162 0
M  V30 65153 H 6396.03 -2.72434 -2.83802 0
M  V30 65154 H 6398.04 -2.79751 -4.09822 0
M  V30 65155 N 6397.22 0.637989 -1.44109 0
M  V30 65156 C 6398.63 0.955397 -1.27845 0
M  V30 65157 C 6398.83 2.00411 -0.209221 0
M  V30 65158 O 6397.89 2.49195 0.407215 0
M  V30 65159 C 6399.2 1.42518 -2.64781 0
M  V30 65160 C 6400.75 1.54103 -2.72436 0
M  V30 65161 C 6401.22 2.04467 -4.09826 0
M  V30 65162 N 6402.72 2.11747 -4.11968 0
M  V30 65163 C 6403.45 2.51873 -5.15119 0
M  V30 65164 N 6402.95 2.91185 -6.28636 0
M  V30 65165 N 6404.74 2.51946 -5.02473 0
M  V30 65166 H 6396.89 -0.0556911 -2.12327 0
M  V30 65167 H 6399.15 0.0376987 -0.94725 0
M  V30 65168 H 6398.86 0.728946 -3.44063 0
M  V30 65169 H 6398.73 2.39746 -2.91207 0
M  V30 65170 H 6401.12 2.22824 -1.93477 0
M  V30 65171 H 6401.2 0.552681 -2.49758 0
M  V30 65172 H 6400.85 1.36343 -4.89258 0
M  V30 65173 H 6400.78 3.04161 -4.29877 0
M  V30 65174 H 6403.27 1.84079 -3.30036 0
M  V30 65175 H 6403.58 3.20595 -7.03163 0
M  V30 65176 H 6401.92 2.88952 -6.32085 0
M  V30 65177 H 6405.12 2.20621 -4.12849 0
M  V30 65178 H 6405.29 2.82894 -5.82988 0
M  V30 65179 N 6398.69 1.30893 0.877769 0
M  V30 65180 C 6399.93 1.21422 1.64426 0
M  V30 65181 C 6400.3 -0.225891 1.90667 0
M  V30 65182 O 6401.5 -0.443961 2.65108 0
M  V30 65183 C 6399.77 2.02709 2.94353 0
M  V30 65184 S 6401.33 2.10016 3.85278 0
M  V30 65185 H 6398.15 0.432591 0.564257 0
M  V30 65186 H 6400.75 1.65459 1.04132 0
M  V30 65187 H 6399.45 3.06443 2.72986 0
M  V30 65188 H 6398.98 1.59362 3.59677 0
M  V30 65189 H 6401 1.23279 4.80642 0
M  V30 65190 N 6400.17 -1.09106 1.13726 0
M  V30 65191 C 6401.4 -1.85105 0.92433 0
M  V30 65192 C 6401.82 -1.81297 -0.526961 0
M  V30 65193 O 6401.17 -1.21149 -1.36489 0
M  V30 65194 C 6401.22 -3.32945 1.40819 0
M  V30 65195 O 6400.95 -3.36728 2.80261 0
M  V30 65196 C 6402.45 -4.25774 1.23416 0
M  V30 65197 H 6399.67 -0.584583 0.329399 0
M  V30 65198 H 6402.21 -1.37841 1.51063 0
M  V30 65199 H 6400.37 -3.77624 0.864812 0
M  V30 65200 H 6400.78 -4.28962 3.01814 0
M  V30 65201 H 6402.25 -5.2765 1.62142 0
M  V30 65202 H 6402.73 -4.38846 0.176212 0
M  V30 65203 H 6403.34 -3.86914 1.76573 0
M  V30 65204 N 6401.65 -0.931276 -1.27142 0
M  V30 65205 C 6402.61 -0.437789 -2.2498 0
M  V30 65206 C 6403.61 0.445634 -1.54502 0
M  V30 65207 O 6404.8 0.246209 -1.72451 0
M  V30 65208 C 6401.94 0.370208 -3.38884 0
M  V30 65209 H 6403.13 -1.30227 -2.7015 0
M  V30 65210 H 6400.68 -0.7123 -1.39126 0
M  V30 65211 H 6401.42 1.25335 -2.99101 0
M  V30 65212 H 6401.2 -0.263247 -3.91215 0
M  V30 65213 H 6402.69 0.705731 -4.11593 0
M  V30 65214 N 6403.13 1.4134 -0.697182 0
M  V30 65215 C 6404.36 2.0523 -0.237569 0
M  V30 65216 C 6404.77 1.52571 1.11887 0
M  V30 65217 O 6404.11 0.669493 1.71066 0
M  V30 65218 C 6404.17 3.59301 -0.119492 0
M  V30 65219 C 6403.84 4.34762 -1.40823 0
M  V30 65220 C 6404.83 4.63939 -2.34642 0
M  V30 65221 C 6402.52 4.74005 -1.66205 0
M  V30 65222 C 6404.51 5.31322 -3.52102 0
M  V30 65223 C 6402.2 5.41124 -2.8395 0
M  V30 65224 C 6403.2 5.6971 -3.76722 0
M  V30 65225 O 6402.89 6.35447 -4.92405 0
M  V30 65226 H 6402.62 0.667339 -0.107862 0
M  V30 65227 H 6405.17 1.82071 -0.950761 0
M  V30 65228 H 6403.4 3.81207 0.649484 0
M  V30 65229 H 6405.09 4.04766 0.30315 0
M  V30 65230 H 6405.86 4.34101 -2.1629 0
M  V30 65231 H 6401.74 4.51135 -0.948573 0
M  V30 65232 H 6405.28 5.53551 -4.24531 0
M  V30 65233 H 6401.18 5.70381 -3.02218 0
M  V30 65234 H 6401.94 6.53943 -4.92241 0
M  V30 65235 N 6404.61 0.442047 1.51274 0
M  V30 65236 C 6405.85 -0.12284 2.02127 0
M  V30 65237 C 6406.18 -1.42301 1.32593 0
M  V30 65238 O 6405.44 -1.90893 0.43108 0
M  V30 65239 C 6405.74 -0.384173 3.55329 0
M  V30 65240 C 6405.4 0.830748 4.43181 0
M  V30 65241 C 6404.06 1.16392 4.66912 0
M  V30 65242 C 6406.42 1.64101 4.94692 0
M  V30 65243 C 6403.74 2.30794 5.39399 0
M  V30 65244 C 6406.1 2.77607 5.68434 0
M  V30 65245 C 6404.76 3.11372 5.90427 0
M  V30 65246 H 6404.03 -0.0449504 0.739635 0
M  V30 65247 H 6406.68 0.590204 1.82178 0
M  V30 65248 H 6404.98 -1.17916 3.73635 0
M  V30 65249 H 6406.68 -0.834744 3.92216 0
M  V30 65250 H 6403.27 0.56114 4.24911 0
M  V30 65251 H 6407.45 1.39682 4.76238 0
M  V30 65252 H 6402.71 2.57263 5.5464 0
M  V30 65253 H 6406.88 3.40757 6.07337 0
M  V30 65254 H 6404.51 4.0013 6.46374 0
M  V30 65255 N 6406.09 -1.56641 0.17357 0
M  V30 65256 C 6407 -2.21663 -0.768285 0
M  V30 65257 C 6408.01 -1.20897 -1.2514 0
M  V30 65258 O 6409.19 -1.53566 -1.30306 0
M  V30 65259 C 6406.25 -2.84639 -1.97943 0
M  V30 65260 C 6405.31 -4.00613 -1.54298 0
M  V30 65261 C 6404.55 -4.60576 -2.69639 0
M  V30 65262 O 6404.77 -4.19432 -3.86565 0
M  V30 65263 O 6403.7 -5.50409 -2.43585 0
M  V30 65264 H 6407.53 -3.02713 -0.244647 0
M  V30 65265 H 6405.11 -1.493 -0.0547321 0
M  V30 65266 H 6407 -3.24562 -2.6877 0
M  V30 65267 H 6405.67 -2.06584 -2.49208 0
M  V30 65268 H 6404.58 -3.65355 -0.804136 0
M  V30 65269 H 6405.91 -4.80268 -1.07721 0
M  V30 65270 N 6407.56 0.100145 -1.57281 0
M  V30 65271 C 6408.81 0.802969 -1.85464 0
M  V30 65272 C 6409.13 1.79515 -0.761538 0
M  V30 65273 O 6408.4 1.94742 0.2127 0
M  V30 65274 H 6406.98 0.299532 -0.684317 0
M  V30 65275 H 6409.64 0.082976 -1.94723 0
M  V30 65276 H 6408.74 1.33666 -2.82028 0
M  V30 65277 N 6409.04 1.53175 0.370837 0
M  V30 65278 C 6410.27 1.73308 1.13925 0
M  V30 65279 C 6410.69 0.458559 1.82425 0
M  V30 65280 O 6410.05 -0.587033 1.71533 0
M  V30 65281 C 6410.1 2.89552 2.14923 0
M  V30 65282 O 6409.2 2.57793 3.21895 0
M  V30 65283 H 6408.54 0.575726 0.33081 0
M  V30 65284 H 6411.07 2.0004 0.42957 0
M  V30 65285 H 6411.08 3.15568 2.58614 0
M  V30 65286 H 6409.76 3.82003 1.64457 0
M  V30 65287 H 6408.33 2.42578 2.83214 0
M  V30 65288 N 6410.52 -0.630338 1.44445 0
M  V30 65289 C 6411.94 -0.948604 1.2835 0
M  V30 65290 C 6412.14 -2.00297 0.219846 0
M  V30 65291 O 6411.19 -2.49407 -0.393994 0
M  V30 65292 C 6412.5 -1.41112 2.65533 0
M  V30 65293 C 6414.05 -1.52656 2.73249 0
M  V30 65294 C 6414.53 -2.02291 4.10904 0
M  V30 65295 N 6416.02 -2.0956 4.13085 0
M  V30 65296 C 6416.75 -2.49138 5.16448 0
M  V30 65297 N 6416.25 -2.87847 6.30172 0
M  V30 65298 N 6418.04 -2.49278 5.03802 0
M  V30 65299 H 6410.19 0.0669505 2.12294 0
M  V30 65300 H 6412.46 -0.0326747 0.947437 0
M  V30 65301 H 6412.16 -0.71069 3.44445 0
M  V30 65302 H 6412.04 -2.38198 2.92475 0
M  V30 65303 H 6414.42 -2.21795 1.94656 0
M  V30 65304 H 6414.5 -0.539428 2.50048 0
M  V30 65305 H 6414.15 -1.33746 4.89974 0
M  V30 65306 H 6414.08 -3.01876 4.31484 0
M  V30 65307 H 6416.57 -1.82326 3.31007 0
M  V30 65308 H 6416.88 -3.16862 7.04853 0
M  V30 65309 H 6415.23 -2.85596 6.33609 0
M  V30 65310 H 6418.42 -2.18428 4.14013 0
M  V30 65311 H 6418.59 -2.79798 5.8448 0
M  V30 65312 N 6412 -1.31357 -0.870815 0
M  V30 65313 C 6413.24 -1.22293 -1.6378 0
M  V30 65314 C 6413.6 0.215776 -1.90784 0
M  V30 65315 O 6414.8 0.429896 -2.6534 0
M  V30 65316 C 6413.07 -2.04268 -2.93274 0
M  V30 65317 S 6414.63 -2.12056 -3.84158 0
M  V30 65318 H 6411.45 -0.435577 -0.561955 0
M  V30 65319 H 6414.05 -1.66009 -1.03253 0
M  V30 65320 H 6412.76 -3.07886 -2.71357 0
M  V30 65321 H 6412.29 -1.61267 -3.58827 0
M  V30 65322 H 6414.3 -1.25826 -4.79981 0
M  V30 65323 N 6413.48 1.08501 -1.14303 0
M  V30 65324 C 6414.39 2.18941 -0.842737 0
M  V30 65325 C 6415.4 1.73103 0.176419 0
M  V30 65326 O 6416.58 2.01399 0.0051656 0
M  V30 65327 C 6413.64 3.45188 -0.323469 0
M  V30 65328 C 6412.7 4.05656 -1.40506 0
M  V30 65329 C 6411.94 5.25876 -0.910474 0
M  V30 65330 O 6412.16 5.69859 0.248415 0
M  V30 65331 O 6411.09 5.77716 -1.68902 0
M  V30 65332 H 6414.92 2.47098 -1.76568 0
M  V30 65333 H 6412.5 1.17617 -0.921222 0
M  V30 65334 H 6414.39 4.21381 -0.0397591 0
M  V30 65335 H 6413.06 3.1861 0.571762 0
M  V30 65336 H 6411.97 3.31055 -1.74222 0
M  V30 65337 H 6413.3 4.3648 -2.27478 0
M  V30 65338 N 6414.95 0.938006 1.26646 0
M  V30 65339 C 6416.2 0.584751 1.94187 0
M  V30 65340 C 6416.53 -0.873455 1.73449 0
M  V30 65341 O 6415.81 -1.62448 1.06963 0
M  V30 65342 C 6416.09 0.923977 3.48044 0
M  V30 65343 C 6415.94 2.43669 3.78081 0
M  V30 65344 C 6417.26 0.43714 4.37924 0
M  V30 65345 H 6414.38 0.213917 0.705272 0
M  V30 65346 H 6417.02 1.17165 1.49574 0
M  V30 65347 H 6415.17 0.424525 3.86174 0
M  V30 65348 H 6416.85 3.00863 3.49685 0
M  V30 65349 H 6415.09 2.88152 3.2427 0
M  V30 65350 H 6415.76 2.62456 4.85614 0
M  V30 65351 H 6418.24 0.865332 4.07003 0
M  V30 65352 H 6417.11 0.703351 5.44375 0
M  V30 65353 H 6417.37 -0.662889 4.37102 0
M  V30 65354 N 6416.43 -1.40969 0.704668 0
M  V30 65355 C 6417.38 -2.32575 0.033837 0
M  V30 65356 C 6418.37 -1.51455 -0.758799 0
M  V30 65357 O 6419.58 -1.67329 -0.663396 0
M  V30 65358 H 6415.96 -0.751959 -0.00785991 0
M  V30 65359 H 6417.93 -2.86816 0.823348 0
M  V30 65360 C 6416.68 -3.36329 -0.881942 0
M  V30 65361 H 6416 -3.98808 -0.281435 0
M  V30 65362 H 6417.44 -4.02946 -1.31947 0
M  V30 65363 C 6415.9 -2.70938 -2.00235 0
M  V30 65364 O 6416.43 -2.56423 -3.09209 0
M  V30 65365 N 6414.63 -2.29491 -1.78276 0
M  V30 65366 H 6414.18 -2.41497 -0.896485 0
M  V30 65367 H 6414.14 -1.86076 -2.53423 0
M  V30 65368 N 6417.91 -0.450063 -1.51037 0
M  V30 65369 C 6418.86 0.354932 -2.28055 0
M  V30 65370 C 6419.83 1.00574 -1.3219 0
M  V30 65371 O 6421.01 1.02221 -1.61107 0
M  V30 65372 C 6418.15 1.443 -3.13483 0
M  V30 65373 C 6417.27 0.809064 -4.24356 0
M  V30 65374 C 6416.4 1.87325 -4.97074 0
M  V30 65375 C 6415.44 1.21843 -5.99851 0
M  V30 65376 N 6414.58 2.22453 -6.65927 0
M  V30 65377 H 6419.42 -0.308188 -2.96402 0
M  V30 65378 H 6416.95 -0.163829 -1.46185 0
M  V30 65379 H 6418.91 2.08527 -3.61348 0
M  V30 65380 H 6417.54 2.07557 -2.47224 0
M  V30 65381 H 6416.59 0.05476 -3.80361 0
M  V30 65382 H 6417.91 0.291113 -4.9795 0
M  V30 65383 H 6417.06 2.59183 -5.48552 0
M  V30 65384 H 6415.8 2.42496 -4.23139 0
M  V30 65385 H 6414.8 0.485368 -5.47653 0
M  V30 65386 H 6416.03 0.673886 -6.75748 0
M  V30 65387 H 6413.97 2.76681 -5.94797 0
M  V30 65388 H 6413.89 1.75585 -7.35327 0
M  V30 65389 H 6415.16 2.93756 -7.2203 0
M  V30 65390 N 6419.39 1.56547 -0.181875 0
M  V30 65391 C 6420.63 1.99095 0.462681 0
M  V30 65392 C 6420.99 1.06575 1.59705 0
M  V30 65393 O 6422.19 1.38305 2.30489 0
M  V30 65394 C 6420.46 3.45264 0.923432 0
M  V30 65395 S 6422.02 4.0984 1.56769 0
M  V30 65396 H 6418.84 0.69533 0.148451 0
M  V30 65397 H 6421.44 1.93458 -0.281826 0
M  V30 65398 H 6420.15 4.10307 0.0875708 0
M  V30 65399 H 6419.68 3.5469 1.70172 0
M  V30 65400 H 6421.69 4.05758 2.85613 0
M  V30 65401 N 6420.87 -0.0918024 1.57332 0
M  V30 65402 C 6422.09 -0.812013 1.90843 0
M  V30 65403 C 6422.52 -1.71327 0.776455 0
M  V30 65404 O 6421.87 -1.79251 -0.271804 0
M  V30 65405 C 6421.92 -1.59856 3.23231 0
M  V30 65406 O 6421.03 -2.70776 3.11053 0
M  V30 65407 H 6420.37 -0.222864 0.625482 0
M  V30 65408 H 6422.9 -0.06604 2.04493 0
M  V30 65409 H 6422.91 -1.98208 3.5662 0
M  V30 65410 H 6421.58 -0.937153 4.05204 0
M  V30 65411 H 6420.16 -2.35428 2.89185 0
M  V30 65412 N 6422.34 -1.53369 -0.362709 0
M  V30 65413 C 6423.76 -1.43206 -0.704573 0
M  V30 65414 C 6423.96 -0.573431 -1.93168 0
M  V30 65415 O 6423.02 -0.056983 -2.52436 0
M  V30 65416 C 6424.33 -2.86438 -0.915097 0
M  V30 65417 C 6425.88 -2.96088 -1.01493 0
M  V30 65418 C 6426.35 -4.40387 -1.2579 0
M  V30 65419 N 6427.84 -4.43828 -1.32554 0
M  V30 65420 C 6428.58 -5.52592 -1.53069 0
M  V30 65421 N 6428.07 -6.71395 -1.70882 0
M  V30 65422 N 6429.87 -5.40174 -1.55462 0
M  V30 65423 H 6422.02 -2.07699 0.444375 0
M  V30 65424 H 6424.28 -0.938083 0.136766 0
M  V30 65425 H 6423.99 -3.51597 -0.0851976 0
M  V30 65426 H 6423.86 -3.30257 -1.82237 0
M  V30 65427 H 6426.25 -2.31081 -1.83537 0
M  V30 65428 H 6426.33 -2.55659 -0.0849787 0
M  V30 65429 H 6425.97 -5.05969 -0.442464 0
M  V30 65430 H 6425.9 -4.78392 -2.20111 0
M  V30 65431 H 6428.39 -3.5821 -1.2039 0
M  V30 65432 H 6428.71 -7.50053 -1.86118 0
M  V30 65433 H 6427.05 -6.74376 -1.68055 0
M  V30 65434 H 6430.24 -4.46323 -1.41115 0
M  V30 65435 H 6430.42 -6.25 -1.71109 0
M  V30 65436 N 6423.82 0.622669 -1.44778 0
M  V30 65437 C 6425.06 1.39352 -1.49533 0
M  V30 65438 C 6425.43 1.91574 -0.127827 0
M  V30 65439 O 6426.63 2.68753 -0.0500632 0
M  V30 65440 C 6424.9 2.52156 -2.53282 0
M  V30 65441 S 6426.46 3.40196 -2.7715 0
M  V30 65442 H 6423.28 0.475293 -0.528789 0
M  V30 65443 H 6425.88 0.72001 -1.81758 0
M  V30 65444 H 6424.58 2.12116 -3.51333 0
M  V30 65445 H 6424.11 3.24325 -2.22658 0
M  V30 65446 H 6426.13 4.49858 -2.09385 0
M  V30 65447 N 6425.3 1.31817 0.863836 0
M  V30 65448 C 6426.23 1.22581 1.98736 0
M  V30 65449 C 6427.21 0.111645 1.69733 0
M  V30 65450 O 6428.4 0.297277 1.91911 0
M  V30 65451 C 6425.53 0.938677 3.34374 0
M  V30 65452 C 6424.48 2.01308 3.77702 0
M  V30 65453 C 6423.81 1.57852 5.10869 0
M  V30 65454 C 6425.11 3.42698 3.94152 0
M  V30 65455 H 6426.8 2.16579 2.06721 0
M  V30 65456 H 6424.35 1.04266 0.993209 0
M  V30 65457 H 6426.3 0.860646 4.12518 0
M  V30 65458 H 6425.02 -0.0369635 3.26579 0
M  V30 65459 H 6423.68 2.08111 3.01804 0
M  V30 65460 H 6423.33 0.590576 4.99521 0
M  V30 65461 H 6423.03 2.29732 5.4083 0
M  V30 65462 H 6424.55 1.51468 5.91515 0
M  V30 65463 H 6425.97 3.38535 4.62673 0
M  V30 65464 H 6424.37 4.12848 4.35519 0
M  V30 65465 H 6425.44 3.83033 2.97344 0
M  V30 65466 N 6426.78 -1.07893 1.14877 0
M  V30 65467 C 6427.69 -2.18491 0.854336 0
M  V30 65468 C 6428.7 -1.73194 -0.167237 0
M  V30 65469 O 6429.88 -2.01399 0.00551517 0
M  V30 65470 C 6426.95 -3.45011 0.34177 0
M  V30 65471 C 6426.01 -4.04905 1.42655 0
M  V30 65472 C 6425.24 -5.25386 0.93835 0
M  V30 65473 O 6425.46 -5.69983 -0.218191 0
M  V30 65474 O 6424.4 -5.76812 1.71964 0
M  V30 65475 H 6428.22 -2.46158 1.77876 0
M  V30 65476 H 6425.81 -1.17127 0.927447 0
M  V30 65477 H 6427.69 -4.21354 0.0621054 0
M  V30 65478 H 6426.36 -3.18909 -0.554857 0
M  V30 65479 H 6425.27 -3.30127 1.75975 0
M  V30 65480 H 6426.6 -4.35267 2.29789 0
M  V30 65481 N 6428.26 -0.944709 -1.26147 0
M  V30 65482 C 6429.5 -0.592987 -1.93205 0
M  V30 65483 C 6429.83 0.871295 -1.74452 0
M  V30 65484 O 6429.1 1.61949 -1.10224 0
M  V30 65485 H 6427.68 -0.216321 -0.714992 0
M  V30 65486 H 6430.34 -1.2008 -1.53515 0
M  V30 65487 H 6429.43 -0.813788 -3.01304 0
M  V30 65488 N 6429.74 1.40593 -0.712134 0
M  V30 65489 C 6430.7 2.29105 -0.0661175 0
M  V30 65490 C 6431.7 1.45199 0.690941 0
M  V30 65491 O 6432.89 1.66152 0.523358 0
M  V30 65492 C 6430.02 3.28353 0.916346 0
M  V30 65493 H 6431.21 2.87731 -0.84564 0
M  V30 65494 H 6428.77 1.48857 -0.476585 0
M  V30 65495 H 6429.5 2.74739 1.72305 0
M  V30 65496 H 6429.29 3.90289 0.376419 0
M  V30 65497 H 6430.78 3.94639 1.36564 0
M  V30 65498 N 6431.21 0.458066 1.50796 0
M  V30 65499 C 6432.45 -0.100305 2.04154 0
M  V30 65500 C 6432.82 -1.38145 1.33341 0
M  V30 65501 O 6434.02 -2.02138 1.77183 0
M  V30 65502 C 6432.29 -0.29307 3.56196 0
M  V30 65503 S 6433.85 -0.811869 4.31224 0
M  V30 65504 H 6430.67 -0.0221033 0.710656 0
M  V30 65505 H 6433.27 0.622224 1.85334 0
M  V30 65506 H 6431.97 0.645362 4.05294 0
M  V30 65507 H 6431.5 -1.04209 3.79347 0
M  V30 65508 H 6433.52 -2.08695 4.50178 0
M  V30 65509 N 6432.69 -1.56448 0.190174 0
M  V30 65510 C 6433.94 -1.97732 -0.450554 0
M  V30 65511 C 6434.27 -1.07684 -1.6161 0
M  V30 65512 O 6433.55 -0.127811 -1.9408 0
M  V30 65513 C 6433.83 -3.4827 -0.915429 0
M  V30 65514 C 6433.68 -4.49096 0.251593 0
M  V30 65515 C 6435 -4.02381 -1.78264 0
M  V30 65516 H 6432.12 -0.718907 -0.162299 0
M  V30 65517 H 6434.76 -1.87924 0.280106 0
M  V30 65518 H 6432.91 -3.56759 -1.53803 0
M  V30 65519 H 6434.58 -4.5265 0.889155 0
M  V30 65520 H 6432.83 -4.24273 0.904145 0
M  V30 65521 H 6433.5 -5.51878 -0.116112 0
M  V30 65522 H 6435.97 -3.9664 -1.2576 0
M  V30 65523 H 6434.85 -5.08091 -2.07688 0
M  V30 65524 H 6435.11 -3.4734 -2.7351 0
M  V30 65525 N 6434.17 0.0834573 -1.57379 0
M  V30 65526 C 6435.42 0.785966 -1.8695 0
M  V30 65527 C 6435.75 1.77808 -0.780891 0
M  V30 65528 O 6435.02 1.93363 0.210007 0
M  V30 65529 C 6435.31 1.50436 -3.27171 0
M  V30 65530 C 6435.16 0.529444 -4.46673 0
M  V30 65531 C 6436.48 2.45213 -3.65457 0
M  V30 65532 H 6433.6 0.28427 -0.67997 0
M  V30 65533 H 6436.24 0.0493563 -1.89936 0
M  V30 65534 H 6434.39 2.13226 -3.24757 0
M  V30 65535 H 6436.06 -0.0923463 -4.61208 0
M  V30 65536 H 6434.3 -0.156221 -4.33519 0
M  V30 65537 H 6434.98 1.06948 -5.4154 0
M  V30 65538 H 6437.45 1.92508 -3.6889 0
M  V30 65539 H 6436.33 2.92488 -4.6448 0
M  V30 65540 H 6436.59 3.29496 -2.94763 0
M  V30 65541 N 6435.65 1.5356 0.35457 0
M  V30 65542 C 6436.6 1.81458 1.45519 0
M  V30 65543 C 6437.59 0.684356 1.54961 0
M  V30 65544 O 6438.8 0.8675 1.57716 0
M  V30 65545 H 6435.17 0.574714 0.484983 0
M  V30 65546 H 6437.14 2.73559 1.19198 0
M  V30 65547 C 6435.89 2.0312 2.82201 0
M  V30 65548 H 6435.21 2.89535 2.75698 0
M  V30 65549 H 6436.65 2.26612 3.58361 0
M  V30 65550 C 6435.11 0.813487 3.26931 0
M  V30 65551 O 6435.64 0.00752266 4.01699 0
M  V30 65552 N 6433.85 0.633814 2.83604 0
M  V30 65553 H 6433.4 1.29084 2.22924 0
M  V30 65554 H 6433.35 -0.179511 3.13887 0
M  V30 65555 N 6437.13 -0.614982 1.45106 0
M  V30 65556 C 6438.07 -1.72611 1.53212 0
M  V30 65557 C 6439.04 -1.61729 0.378556 0
M  V30 65558 O 6440.23 -1.81416 0.591001 0
M  V30 65559 C 6437.37 -3.10905 1.49774 0
M  V30 65560 C 6436.48 -3.32647 2.75626 0
M  V30 65561 C 6435.62 -4.61004 2.6391 0
M  V30 65562 C 6434.65 -4.7598 3.8485 0
M  V30 65563 N 6433.79 -5.95629 3.71713 0
M  V30 65564 H 6438.63 -1.65019 2.48138 0
M  V30 65565 H 6436.17 -0.804749 1.23135 0
M  V30 65566 H 6438.13 -3.90906 1.45769 0
M  V30 65567 H 6436.76 -3.17473 0.584033 0
M  V30 65568 H 6435.81 -2.46474 2.8975 0
M  V30 65569 H 6437.12 -3.39588 3.65351 0
M  V30 65570 H 6436.27 -5.49189 2.57829 0
M  V30 65571 H 6435.01 -4.56449 1.71772 0
M  V30 65572 H 6434.02 -3.8622 3.91298 0
M  V30 65573 H 6435.24 -4.82337 4.78045 0
M  V30 65574 H 6433.19 -5.92133 2.82338 0
M  V30 65575 H 6433.11 -6.03697 4.55067 0
M  V30 65576 H 6434.37 -6.86332 3.69552 0
M  V30 65577 N 6438.6 -1.32273 -0.856834 0
M  V30 65578 C 6439.54 -1.16853 -1.97175 0
M  V30 65579 C 6440.55 -0.104097 -1.62467 0
M  V30 65580 O 6441.74 -0.35285 -1.74978 0
M  V30 65581 C 6438.84 -0.765966 -3.30131 0
M  V30 65582 C 6438.01 -1.91822 -3.93094 0
M  V30 65583 C 6437.07 -1.49956 -5.0438 0
M  V30 65584 O 6436.1 -2.21125 -5.24493 0
M  V30 65585 N 6437.3 -0.394351 -5.79159 0
M  V30 65586 H 6440.06 -2.1289 -2.10946 0
M  V30 65587 H 6437.62 -1.24781 -1.03157 0
M  V30 65588 H 6439.62 -0.468341 -4.01981 0
M  V30 65589 H 6438.19 0.103185 -3.1243 0
M  V30 65590 H 6437.41 -2.38246 -3.14058 0
M  V30 65591 H 6438.69 -2.68967 -4.31896 0
M  V30 65592 H 6438.09 0.198037 -5.65353 0
M  V30 65593 H 6436.65 -0.156322 -6.51613 0
M  V30 65594 N 6440.08 1.07283 -1.15448 0
M  V30 65595 C 6441.31 1.8415 -0.954126 0
M  V30 65596 C 6441.73 1.81536 0.492576 0
M  V30 65597 O 6441.09 1.20882 1.3512 0
M  V30 65598 C 6441.14 3.29107 -1.47381 0
M  V30 65599 O 6440.24 4.06864 -0.673478 0
M  V30 65600 H 6439.58 0.570186 -0.34027 0
M  V30 65601 H 6442.11 1.35333 -1.53447 0
M  V30 65602 H 6442.12 3.79939 -1.48695 0
M  V30 65603 H 6440.8 3.30324 -2.52703 0
M  V30 65604 H 6439.37 3.65684 -0.730023 0
M  V30 65605 N 6441.56 0.951386 1.25644 0
M  V30 65606 C 6442.81 0.603225 1.92888 0
M  V30 65607 C 6443.13 -0.862031 1.74911 0
M  V30 65608 O 6442.4 -1.61362 1.11081 0
M  V30 65609 H 6440.98 0.22011 0.713835 0
M  V30 65610 H 6443.64 1.20892 1.52876 0
M  V30 65611 H 6442.74 0.829755 3.00868 0
M  V30 65612 N 6443.04 -1.40213 0.71958 0
M  V30 65613 C 6444.31 -1.94696 0.187788 0
M  V30 65614 C 6444.69 -1.65747 -1.30733 0
M  V30 65615 O 6444.04 -0.977303 -2.06546 0
M  V30 65616 C 6444.25 -3.4533 0.504812 0
M  V30 65617 C 6445.6 -4.22255 0.445663 0
M  V30 65618 O 6446.62 -3.53458 0.441103 0
M  V30 65619 O 6445.48 -5.44832 0.426679 0
M  V30 65620 H 6442.58 -0.826489 0.0290667 0
M  V30 65621 H 6445.12 -1.49799 0.797386 0
M  V30 65622 H 6443.9 -3.59775 1.53875 0
M  V30 65623 H 6443.52 -3.97372 -0.134545 0
M  V30 65624 N 6444.52 -0.466057 -1.50551 0
M  V30 65625 C 6445.76 0.0908024 -2.02597 0
M  V30 65626 C 6446.1 1.39822 -1.34772 0
M  V30 65627 O 6445.37 1.88691 -0.471785 0
M  V30 65628 C 6445.65 0.279837 -3.59011 0
M  V30 65629 C 6445.51 -1.04825 -4.37415 0
M  V30 65630 C 6446.83 1.03668 -4.27716 0
M  V30 65631 H 6443.94 0.0315261 -0.736325 0
M  V30 65632 H 6446.59 -0.610666 -1.79919 0
M  V30 65633 H 6444.74 0.877328 -3.78464 0
M  V30 65634 H 6446.41 -1.68193 -4.29545 0
M  V30 65635 H 6444.65 -1.64609 -4.01356 0
M  V30 65636 H 6445.32 -0.869684 -5.45106 0
M  V30 65637 H 6447.8 0.530285 -4.12707 0
M  V30 65638 H 6446.67 1.13774 -5.36979 0
M  V30 65639 H 6446.94 2.07201 -3.90538 0
M  V30 65640 N 6445.99 1.56345 -0.198468 0
M  V30 65641 C 6447.22 2.0206 0.444918 0
M  V30 65642 C 6447.64 1.07857 1.54959 0
M  V30 65643 O 6446.99 0.0840358 1.82306 0
M  V30 65644 C 6447.05 3.47448 0.998098 0
M  V30 65645 O 6446.77 4.38055 -0.0625016 0
M  V30 65646 C 6448.27 4.08697 1.71703 0
M  V30 65647 H 6445.49 0.661695 0.11136 0
M  V30 65648 H 6448.03 2.02165 -0.308163 0
M  V30 65649 H 6446.19 3.48032 1.70155 0
M  V30 65650 H 6446.6 5.23333 0.349755 0
M  V30 65651 H 6448.07 5.12267 2.05636 0
M  V30 65652 H 6448.55 3.5235 2.62194 0
M  V30 65653 H 6449.16 4.11895 1.05935 0
M  V30 65654 N 6447.47 -0.07511 1.57421 0
M  V30 65655 C 6448.71 -0.780274 1.88921 0
M  V30 65656 C 6449.08 -1.7491 0.791865 0
M  V30 65657 O 6450.28 -2.49911 0.98984 0
M  V30 65658 C 6448.55 -1.47258 3.25653 0
M  V30 65659 S 6450.11 -2.21327 3.78893 0
M  V30 65660 H 6446.93 -0.259544 0.661935 0
M  V30 65661 H 6449.53 -0.0365108 1.95466 0
M  V30 65662 H 6448.23 -0.753612 4.03421 0
M  V30 65663 H 6447.76 -2.25584 3.22297 0
M  V30 65664 H 6449.78 -3.47793 3.53913 0
M  V30 65665 N 6448.95 -1.53746 -0.346422 0
M  V30 65666 C 6449.9 -1.82227 -1.44554 0
M  V30 65667 C 6450.89 -0.692565 -1.54596 0
M  V30 65668 O 6452.1 -0.875852 -1.57254 0
M  V30 65669 H 6448.47 -0.577278 -0.481928 0
M  V30 65670 H 6450.44 -2.74187 -1.17745 0
M  V30 65671 C 6449.19 -2.04614 -2.8112 0
M  V30 65672 H 6448.52 -2.90993 -2.74159 0
M  V30 65673 H 6449.96 -2.2851 -3.57154 0
M  V30 65674 C 6448.42 -0.830814 -3.26495 0
M  V30 65675 O 6448.95 -0.0288256 -4.0169 0
M  V30 65676 N 6447.15 -0.648846 -2.83264 0
M  V30 65677 H 6446.7 -1.30264 -2.22236 0
M  V30 65678 H 6446.66 0.162862 -3.13978 0
M  V30 65679 N 6450.43 0.607278 -1.4543 0
M  V30 65680 C 6451.67 1.37759 -1.51003 0
M  V30 65681 C 6452.03 1.91428 -0.148139 0
M  V30 65682 O 6453.23 2.68685 -0.0785652 0
M  V30 65683 C 6451.5 2.49456 -2.55943 0
M  V30 65684 S 6453.06 3.37238 -2.80742 0
M  V30 65685 H 6449.88 0.469658 -0.5338 0
M  V30 65686 H 6452.48 0.700691 -1.82512 0
M  V30 65687 H 6451.19 2.08378 -3.53563 0
M  V30 65688 H 6450.72 3.21946 -2.26085 0
M  V30 65689 H 6452.73 4.47612 -2.14145 0
M  V30 65690 N 6451.91 1.32725 0.849807 0
M  V30 65691 C 6453.13 1.26574 1.63666 0
M  V30 65692 C 6453.55 -0.165387 1.88074 0
M  V30 65693 O 6452.91 -1.10405 1.45317 0
M  V30 65694 C 6452.96 2.0271 2.99317 0
M  V30 65695 O 6452.68 3.40239 2.75988 0
M  V30 65696 C 6454.18 2.0364 3.93758 0
M  V30 65697 H 6451.4 0.436509 0.509609 0
M  V30 65698 H 6453.94 1.74926 1.0593 0
M  V30 65699 H 6452.1 1.58068 3.53685 0
M  V30 65700 H 6452.51 3.79269 3.62292 0
M  V30 65701 H 6453.99 2.61386 4.86191 0
M  V30 65702 H 6454.46 1.02388 4.27099 0
M  V30 65703 H 6455.07 2.48251 3.45328 0
M  V30 65704 N 6453.38 -1.06669 1.16015 0
M  V30 65705 C 6454.66 -1.76183 0.849639 0
M  V30 65706 C 6455.04 -2.00736 -0.65333 0
M  V30 65707 O 6454.39 -1.6314 -1.59992 0
M  V30 65708 C 6454.6 -3.06553 1.66812 0
M  V30 65709 C 6455.95 -3.80775 1.8787 0
M  V30 65710 O 6456.97 -3.16383 1.63646 0
M  V30 65711 O 6455.83 -4.96443 2.28488 0
M  V30 65712 H 6452.92 -0.765419 0.313149 0
M  V30 65713 H 6455.47 -1.12972 1.26631 0
M  V30 65714 H 6454.24 -2.84343 2.68821 0
M  V30 65715 H 6453.87 -3.77498 1.24824 0
M  V30 65716 N 6454.86 -0.958036 -1.25138 0
M  V30 65717 C 6456.11 -0.613446 -1.92565 0
M  V30 65718 C 6456.43 0.852743 -1.75366 0
M  V30 65719 O 6455.7 1.60771 -1.11935 0
M  V30 65720 H 6454.28 -0.223892 -0.712658 0
M  V30 65721 H 6456.94 -1.21701 -1.52233 0
M  V30 65722 H 6456.04 -0.845699 -3.00424 0
M  V30 65723 N 6456.34 1.3983 -0.727006 0
M  V30 65724 C 6457.76 1.54461 -0.401746 0
M  V30 65725 C 6457.96 1.69584 1.08828 0
M  V30 65726 O 6457.01 1.69183 1.87439 0
M  V30 65727 C 6458.33 2.76674 -1.17778 0
M  V30 65728 C 6459.87 2.90502 -1.16522 0
M  V30 65729 C 6460.35 4.15644 -1.92365 0
M  V30 65730 N 6461.84 4.22667 -1.89491 0
M  V30 65731 C 6462.57 5.18428 -2.4499 0
M  V30 65732 N 6462.07 6.20027 -3.09092 0
M  V30 65733 N 6463.86 5.10588 -2.35068 0
M  V30 65734 H 6456.01 1.28261 -1.69302 0
M  V30 65735 H 6458.28 0.621052 -0.716239 0
M  V30 65736 H 6457.98 2.71816 -2.2318 0
M  V30 65737 H 6457.86 3.69112 -0.776929 0
M  V30 65738 H 6460.24 2.94859 -0.119358 0
M  V30 65739 H 6460.33 1.99151 -1.60538 0
M  V30 65740 H 6459.97 4.12049 -2.96947 0
M  V30 65741 H 6459.9 5.06025 -1.4576 0
M  V30 65742 H 6462.39 3.49887 -1.42784 0
M  V30 65743 H 6462.7 6.89543 -3.48927 0
M  V30 65744 H 6461.05 6.20438 -3.1318 0
M  V30 65745 H 6464.24 4.30147 -1.84637 0
M  V30 65746 H 6464.41 5.85043 -2.78619 0
M  V30 65747 N 6457.82 0.474035 1.50302 0
M  V30 65748 C 6459.06 -0.0800569 2.02642 0
M  V30 65749 C 6459.4 -1.39106 1.35511 0
M  V30 65750 O 6458.67 -1.88439 0.481785 0
M  V30 65751 C 6458.96 -0.260794 3.59154 0
M  V30 65752 C 6458.81 1.07143 4.36853 0
M  V30 65753 C 6460.13 -1.01398 4.2826 0
M  V30 65754 H 6457.25 -0.0276208 0.736482 0
M  V30 65755 H 6459.89 0.620199 1.79593 0
M  V30 65756 H 6458.04 -0.857245 3.78924 0
M  V30 65757 H 6459.71 1.70469 4.28647 0
M  V30 65758 H 6457.95 1.66735 4.00477 0
M  V30 65759 H 6458.62 0.89858 5.44637 0
M  V30 65760 H 6461.1 -0.508391 4.12983 0
M  V30 65761 H 6459.98 -1.10924 5.37575 0
M  V30 65762 H 6460.24 -2.05127 3.91632 0
M  V30 65763 N 6459.3 -1.56238 0.206757 0
M  V30 65764 C 6460.26 -2.18384 -0.695766 0
M  V30 65765 C 6461.26 -1.14153 -1.13251 0
M  V30 65766 O 6462.45 -1.39472 -1.04371 0
M  V30 65767 C 6459.58 -2.79529 -1.95131 0
M  V30 65768 H 6460.78 -2.99503 -0.15417 0
M  V30 65769 H 6458.33 -1.56241 -0.0428673 0
M  V30 65770 H 6459.06 -2.0224 -2.53514 0
M  V30 65771 H 6458.85 -3.55843 -1.64676 0
M  V30 65772 H 6460.34 -3.27212 -2.59464 0
M  V30 65773 N 6460.78 0.0667605 -1.57459 0
M  V30 65774 C 6462.19 0.617995 -1.76175 0
M  V30 65775 C 6462.54 1.77644 -0.832893 0
M  V30 65776 O 6461.66 2.16392 -0.018227 0
M  V30 65777 C 6462.26 1.12785 -3.19476 0
M  V30 65778 C 6460.82 1.62491 -3.3952 0
M  V30 65779 C 6459.96 0.546489 -2.71862 0
M  V30 65780 H 6462.91 -0.159425 -1.57897 0
M  V30 65781 H 6462.94 1.99652 -3.23913 0
M  V30 65782 H 6462.45 0.284507 -3.87056 0
M  V30 65783 H 6460.55 2.49134 -2.77061 0
M  V30 65784 H 6460.66 1.69838 -4.47986 0
M  V30 65785 H 6459.03 0.992724 -2.34557 0
M  V30 65786 H 6459.81 -0.286756 -3.421 0
M  V30 65787 N 6462.25 1.53927 0.338263 0
M  V30 65788 C 6463.48 1.75686 1.10224 0
M  V30 65789 C 6463.9 0.49715 1.81411 0
M  V30 65790 O 6463.26 -0.550517 1.7274 0
M  V30 65791 C 6463.31 2.94046 2.08733 0
M  V30 65792 O 6462.41 2.64563 3.16354 0
M  V30 65793 H 6461.75 0.582614 0.318523 0
M  V30 65794 H 6464.28 2.00906 0.387042 0
M  V30 65795 H 6464.29 3.20982 2.51862 0
M  V30 65796 H 6462.97 3.85406 1.56317 0
M  V30 65797 H 6461.55 2.48531 2.78005 0
M  V30 65798 N 6463.73 -0.599557 1.4575 0
M  V30 65799 C 6464.97 -1.36956 1.51731 0
M  V30 65800 C 6465.34 -1.91346 0.158288 0
M  V30 65801 O 6466.54 -2.6864 0.0928132 0
M  V30 65802 C 6464.81 -2.48095 2.57262 0
M  V30 65803 S 6466.37 -3.35744 2.82527 0
M  V30 65804 H 6463.18 -0.46682 0.536283 0
M  V30 65805 H 6465.79 -0.691002 1.82881 0
M  V30 65806 H 6464.49 -2.065 3.54663 0
M  V30 65807 H 6464.02 -3.20742 2.27789 0
M  V30 65808 H 6466.04 -4.4647 2.16516 0
M  V30 65809 N 6465.21 -1.33174 -0.842756 0
M  V30 65810 C 6466.14 -1.25727 -1.96761 0
M  V30 65811 C 6467.12 -0.138634 -1.69534 0
M  V30 65812 O 6468.31 -0.327771 -1.91414 0
M  V30 65813 C 6465.44 -0.991754 -3.32839 0
M  V30 65814 C 6464.39 -2.07291 -3.74452 0
M  V30 65815 C 6463.72 -1.6596 -5.08293 0
M  V30 65816 C 6465.02 -3.48925 -3.8865 0
M  V30 65817 H 6466.71 -2.19841 -2.0325 0
M  V30 65818 H 6464.26 -1.05833 -0.976496 0
M  V30 65819 H 6466.21 -0.926165 -4.11096 0
M  V30 65820 H 6464.93 -0.0149971 -3.26597 0
M  V30 65821 H 6463.59 -2.12886 -2.98455 0
M  V30 65822 H 6463.24 -0.66997 -4.98518 0
M  V30 65823 H 6462.94 -2.38307 -5.37106 0
M  V30 65824 H 6464.46 -1.6086 -5.8903 0
M  V30 65825 H 6465.88 -3.45853 -4.57229 0
M  V30 65826 H 6464.27 -4.19725 -4.28895 0
M  V30 65827 H 6465.34 -3.87715 -2.91213 0
M  V30 65828 N 6466.69 1.06052 -1.16579 0
M  V30 65829 C 6467.92 1.82589 -0.973083 0
M  V30 65830 C 6468.33 1.8263 0.478709 0
M  V30 65831 O 6467.69 1.24725 1.33229 0
M  V30 65832 C 6467.74 3.29094 -1.49597 0
M  V30 65833 O 6467.46 3.29179 -2.8909 0
M  V30 65834 C 6468.96 4.22352 -1.34662 0
M  V30 65835 H 6466.18 0.575644 -0.344783 0
M  V30 65836 H 6468.72 1.33788 -1.54665 0
M  V30 65837 H 6466.88 3.75198 -0.964628 0
M  V30 65838 H 6467.29 4.20809 -3.13081 0
M  V30 65839 H 6468.77 5.23165 -1.76074 0
M  V30 65840 H 6469.24 4.38225 -0.292502 0
M  V30 65841 H 6469.85 3.82096 -1.86769 0
M  V30 65842 N 6468.17 0.964658 1.24628 0
M  V30 65843 C 6469.41 0.632691 1.94361 0
M  V30 65844 C 6469.77 -0.81658 1.7377 0
M  V30 65845 O 6470.97 -1.25862 2.37512 0
M  V30 65846 C 6469.24 0.993548 3.43312 0
M  V30 65847 S 6470.8 0.77567 4.3189 0
M  V30 65848 H 6467.62 0.232213 0.672011 0
M  V30 65849 H 6470.22 1.24097 1.51064 0
M  V30 65850 H 6468.92 2.04526 3.55805 0
M  V30 65851 H 6468.46 0.375927 3.916 0
M  V30 65852 H 6470.47 -0.348519 4.94975 0
M  V30 65853 N 6469.64 -1.39442 0.734411 0
M  V30 65854 C 6470.89 -2.00823 0.282513 0
M  V30 65855 C 6471.22 -1.58141 -1.12717 0
M  V30 65856 O 6470.5 -0.810031 -1.7683 0
M  V30 65857 C 6470.78 -3.5805 0.383716 0
M  V30 65858 C 6470.63 -4.10751 1.83312 0
M  V30 65859 C 6471.95 -4.39476 -0.234195 0
M  V30 65860 H 6469.07 -0.729607 0.104128 0
M  V30 65861 H 6471.71 -1.65658 0.930455 0
M  V30 65862 H 6469.86 -3.88137 -0.167932 0
M  V30 65863 H 6471.54 -3.91386 2.4416 0
M  V30 65864 H 6469.78 -3.64334 2.35464 0
M  V30 65865 H 6470.45 -5.1989 1.85521 0
M  V30 65866 H 6472.93 -4.1543 0.236055 0
M  V30 65867 H 6471.8 -5.48739 -0.133036 0
M  V30 65868 H 6472.06 -4.21929 -1.32017 0
M  V30 65869 N 6471.12 -0.481999 -1.50048 0
M  V30 65870 C 6472.37 0.06907 -2.01982 0
M  V30 65871 C 6472.69 1.39228 -1.3653 0
M  V30 65872 O 6471.96 1.8903 -0.51424 0
M  V30 65873 H 6470.54 0.0285156 -0.746456 0
M  V30 65874 H 6473.2 -0.634909 -1.84269 0
M  V30 65875 H 6472.3 0.212634 -3.11375 0
M  V30 65876 N 6472.6 1.56126 -0.21504 0
M  V30 65877 C 6473.55 2.16631 0.71099 0
M  V30 65878 C 6474.53 1.11275 1.16219 0
M  V30 65879 O 6475.73 1.37282 1.11726 0
M  V30 65880 C 6472.85 2.84471 1.92174 0
M  V30 65881 C 6471.94 3.97044 1.49053 0
M  V30 65882 N 6472.33 4.99882 0.77149 0
M  V30 65883 C 6470.63 4.09013 1.77831 0
M  V30 65884 C 6471.33 5.7907 0.552517 0
M  V30 65885 N 6470.31 5.32204 1.10726 0
M  V30 65886 H 6474.11 2.93501 0.15313 0
M  V30 65887 H 6471.62 1.62392 -0.0160344 0
M  V30 65888 H 6473.62 3.26224 2.59583 0
M  V30 65889 H 6472.28 2.09095 2.48413 0
M  V30 65890 H 6473.29 5.16154 0.424855 0
M  V30 65891 H 6469.97 3.44783 2.35437 0
M  V30 65892 H 6471.36 6.71897 -0.0193072 0
M  V30 65893 N 6474.08 -0.0584092 1.57492 0
M  V30 65894 C 6475.32 -0.760192 1.89738 0
M  V30 65895 C 6475.68 -1.7406 0.810372 0
M  V30 65896 O 6476.88 -2.48847 1.01629 0
M  V30 65897 C 6475.15 -1.43796 3.27196 0
M  V30 65898 S 6476.71 -2.17296 3.81219 0
M  V30 65899 H 6473.53 -0.252509 0.664651 0
M  V30 65900 H 6476.13 -0.015777 1.95494 0
M  V30 65901 H 6474.84 -0.710782 4.04198 0
M  V30 65902 H 6474.37 -2.22153 3.24671 0
M  V30 65903 H 6476.38 -3.4402 3.57582 0
M  V30 65904 N 6475.56 -1.54104 -0.330095 0
M  V30 65905 C 6476.78 -1.76268 -1.0929 0
M  V30 65906 C 6477.21 -0.506764 -1.81145 0
M  V30 65907 O 6476.56 0.541348 -1.73029 0
M  V30 65908 C 6476.61 -2.95148 -2.07171 0
M  V30 65909 O 6475.72 -2.66237 -3.14947 0
M  V30 65910 H 6475.06 -0.584295 -0.315429 0
M  V30 65911 H 6477.59 -2.01108 -0.376382 0
M  V30 65912 H 6477.6 -3.22313 -2.50156 0
M  V30 65913 H 6476.27 -3.86229 -1.54271 0
M  V30 65914 H 6474.85 -2.50002 -2.76683 0
M  V30 65915 N 6477.03 0.591819 -1.46066 0
M  V30 65916 C 6477.98 1.72263 -1.56296 0
M  V30 65917 C 6478.98 1.638 -0.431955 0
M  V30 65918 O 6480.18 1.69403 -0.608481 0
M  V30 65919 H 6476.56 0.569386 -0.491227 0
M  V30 65920 H 6478.53 1.60764 -2.51391 0
M  V30 65921 C 6477.28 3.10651 -1.56177 0
M  V30 65922 H 6476.6 3.17829 -2.42538 0
M  V30 65923 H 6478.04 3.89559 -1.67391 0
M  V30 65924 C 6476.5 3.3566 -0.288836 0
M  V30 65925 O 6477.03 3.96812 0.624753 0
M  V30 65926 N 6475.24 2.90045 -0.179589 0
M  V30 65927 H 6474.78 2.40461 -0.923925 0
M  V30 65928 H 6474.74 3.07151 0.671259 0
M  V30 65929 N 6478.51 1.33619 0.835682 0
M  V30 65930 C 6479.76 1.25009 1.58799 0
M  V30 65931 C 6480.08 -0.183234 1.94137 0
M  V30 65932 O 6479.35 -1.11276 1.61228 0
M  V30 65933 H 6477.93 0.459705 0.588796 0
M  V30 65934 H 6480.59 1.67377 0.99854 0
M  V30 65935 H 6479.69 1.84601 2.51652 0
M  V30 65936 N 6479.99 -1.05432 1.1714 0
M  V30 65937 C 6481.24 -1.78038 0.956394 0
M  V30 65938 C 6481.56 -1.88036 -0.516458 0
M  V30 65939 O 6480.83 -1.39537 -1.375 0
M  V30 65940 H 6479.41 -0.659471 0.350866 0
M  V30 65941 H 6482.07 -1.27315 1.4757 0
M  V30 65942 H 6481.17 -2.79803 1.38263 0
M  V30 65943 N 6481.47 -0.971254 -1.24115 0
M  V30 65944 C 6482.69 -0.652426 -1.96871 0
M  V30 65945 C 6483.12 0.772133 -1.71522 0
M  V30 65946 O 6482.48 1.5246 -0.981105 0
M  V30 65947 C 6482.52 -0.93751 -3.482 0
M  V30 65948 O 6481.63 -0.0247761 -4.12393 0
M  V30 65949 H 6480.97 -0.246296 -0.616631 0
M  V30 65950 H 6483.5 -1.30237 -1.57796 0
M  V30 65951 H 6483.51 -0.870489 -3.98606 0
M  V30 65952 H 6482.18 -1.97569 -3.65977 0
M  V30 65953 H 6480.76 -0.145423 -3.72616 0
M  V30 65954 N 6482.95 1.39051 -0.741796 0
M  V30 65955 C 6484.19 2.02223 -0.297495 0
M  V30 65956 C 6484.55 1.57599 1.09665 0
M  V30 65957 O 6485.75 2.13018 1.63941 0
M  V30 65958 C 6484.02 3.55118 -0.403231 0
M  V30 65959 S 6485.58 4.38782 -0.0397729 0
M  V30 65960 H 6482.4 0.701452 -0.116127 0
M  V30 65961 H 6485 1.69749 -0.969812 0
M  V30 65962 H 6483.71 3.85086 -1.41906 0
M  V30 65963 H 6483.24 3.92354 0.286675 0
M  V30 65964 H 6485.25 4.82103 1.17435 0
M  V30 65965 N 6484.42 0.489949 1.49791 0
M  V30 65966 C 6485.65 -0.055607 2.06825 0
M  V30 65967 C 6486.07 -1.3182 1.35163 0
M  V30 65968 O 6485.42 -1.77445 0.426565 0
M  V30 65969 C 6485.48 -0.324477 3.60041 0
M  V30 65970 O 6485.2 0.888055 4.29005 0
M  V30 65971 C 6486.7 -0.914907 4.33756 0
M  V30 65972 H 6483.92 0.0155125 0.670821 0
M  V30 65973 H 6486.46 0.684141 1.92717 0
M  V30 65974 H 6484.62 -1.01419 3.73889 0
M  V30 65975 H 6485.03 0.644137 5.2053 0
M  V30 65976 H 6486.5 -1.05269 5.41869 0
M  V30 65977 H 6486.98 -1.90989 3.95499 0
M  V30 65978 H 6487.59 -0.263006 4.24486 0
M  V30 65979 N 6485.9 -1.5601 0.223316 0
M  V30 65980 C 6486.84 -2.16339 -0.726117 0
M  V30 65981 C 6487.81 -1.10831 -1.18976 0
M  V30 65982 O 6489 -1.39097 -1.27218 0
M  V30 65983 C 6486.12 -2.7451 -1.98398 0
M  V30 65984 C 6485.17 -3.92862 -1.66017 0
M  V30 65985 S 6486 -5.29738 -0.783416 0
M  V30 65986 C 6487.16 -5.91348 -2.05081 0
M  V30 65987 H 6487.39 -2.96534 -0.213347 0
M  V30 65988 H 6484.93 -1.54398 0.00799294 0
M  V30 65989 H 6486.88 -3.08664 -2.70623 0
M  V30 65990 H 6485.54 -1.94306 -2.46788 0
M  V30 65991 H 6484.74 -4.32072 -2.5948 0
M  V30 65992 H 6484.34 -3.59863 -1.01855 0
M  V30 65993 H 6486.63 -6.07429 -3.0006 0
M  V30 65994 H 6487.57 -6.87326 -1.70258 0
M  V30 65995 H 6487.98 -5.20197 -2.19215 0
M  V30 65996 N 6487.38 0.0500562 -1.5752 0
M  V30 65997 C 6488.33 1.07568 -2.06233 0
M  V30 65998 C 6489.32 1.38748 -0.971866 0
M  V30 65999 O 6490.53 1.379 -1.15688 0
M  V30 66000 H 6486.9 0.364328 -0.657852 0
M  V30 66001 H 6488.87 0.638864 -2.91481 0
M  V30 66002 C 6487.62 2.37455 -2.53989 0
M  V30 66003 H 6486.95 2.14318 -3.37502 0
M  V30 66004 H 6488.39 3.07614 -2.91804 0
M  V30 66005 C 6486.85 3.0495 -1.43203 0
M  V30 66006 O 6487.38 3.93928 -0.786356 0
M  V30 66007 N 6485.58 2.65929 -1.17175 0
M  V30 66008 H 6485.13 1.9366 -1.69863 0
M  V30 66009 H 6485.09 3.1141 -0.432588 0
M  V30 66010 N 6488.86 1.54277 0.321918 0
M  V30 66011 C 6490.08 1.76845 1.08354 0
M  V30 66012 C 6490.51 0.516364 1.80874 0
M  V30 66013 O 6489.87 -0.532164 1.73314 0
M  V30 66014 C 6489.92 2.96243 2.05603 0
M  V30 66015 O 6489.02 2.67904 3.1353 0
M  V30 66016 H 6488.36 0.585959 0.312326 0
M  V30 66017 H 6490.89 2.01305 0.365712 0
M  V30 66018 H 6490.9 3.23635 2.48443 0
M  V30 66019 H 6489.58 3.87042 1.52221 0
M  V30 66020 H 6488.15 2.51466 2.75353 0
M  V30 66021 N 6490.34 -0.584065 1.46378 0
M  V30 66022 C 6491.28 -1.69323 1.56839 0
M  V30 66023 C 6492.25 -1.60889 0.412776 0
M  V30 66024 O 6493.44 -1.80122 0.629349 0
M  V30 66025 C 6490.58 -3.07658 1.56335 0
M  V30 66026 C 6489.69 -3.26726 2.8262 0
M  V30 66027 C 6488.83 -4.55303 2.73629 0
M  V30 66028 C 6487.87 -4.67709 3.9486 0
M  V30 66029 N 6487 -5.8761 3.84264 0
M  V30 66030 H 6491.84 -1.59719 2.51583 0
M  V30 66031 H 6489.38 -0.778449 1.24814 0
M  V30 66032 H 6491.34 -3.87726 1.54028 0
M  V30 66033 H 6489.97 -3.16162 0.651242 0
M  V30 66034 H 6489.02 -2.40272 2.94913 0
M  V30 66035 H 6490.33 -3.31762 3.72472 0
M  V30 66036 H 6489.49 -5.43597 2.69421 0
M  V30 66037 H 6488.23 -4.52703 1.81415 0
M  V30 66038 H 6487.23 -3.77833 3.99402 0
M  V30 66039 H 6488.46 -4.72089 4.88169 0
M  V30 66040 H 6486.4 -5.86011 2.94835 0
M  V30 66041 H 6486.32 -5.93908 4.6777 0
M  V30 66042 H 6487.59 -6.78339 3.84027 0
M  V30 66043 N 6491.82 -1.34061 -0.828584 0
M  V30 66044 C 6492.75 -1.1951 -1.94403 0
M  V30 66045 C 6493.73 -0.0880835 -1.62361 0
M  V30 66046 O 6494.91 -0.252205 -1.86805 0
M  V30 66047 C 6492.04 -0.835326 -3.28238 0
M  V30 66048 C 6491.08 -1.9513 -3.79245 0
M  V30 66049 S 6491.92 -3.56389 -3.99684 0
M  V30 66050 C 6493.07 -3.22441 -5.36454 0
M  V30 66051 H 6493.31 -2.13931 -2.06448 0
M  V30 66052 H 6490.84 -1.19022 -0.983525 0
M  V30 66053 H 6492.8 -0.634535 -4.05566 0
M  V30 66054 H 6491.46 0.0904532 -3.1397 0
M  V30 66055 H 6490.65 -1.65318 -4.76115 0
M  V30 66056 H 6490.25 -2.10929 -3.08845 0
M  V30 66057 H 6492.54 -2.73904 -6.19663 0
M  V30 66058 H 6493.49 -4.1843 -5.71246 0
M  V30 66059 H 6493.9 -2.58769 -5.01696 0
M  V30 66060 N 6493.29 1.0481 -1.17698 0
M  V30 66061 C 6494.23 2.12153 -0.84062 0
M  V30 66062 C 6495.2 1.61436 0.194241 0
M  V30 66063 O 6496.39 1.88351 0.0749001 0
M  V30 66064 C 6493.52 3.37741 -0.254647 0
M  V30 66065 C 6492.56 4.07293 -1.26551 0
M  V30 66066 S 6493.39 4.55332 -2.81839 0
M  V30 66067 C 6494.55 5.84163 -2.24732 0
M  V30 66068 H 6494.78 2.40357 -1.74974 0
M  V30 66069 H 6492.32 1.17467 -1.00204 0
M  V30 66070 H 6494.27 4.10428 0.0769447 0
M  V30 66071 H 6492.94 3.07666 0.632469 0
M  V30 66072 H 6492.13 4.97542 -0.804231 0
M  V30 66073 H 6491.73 3.40689 -1.54295 0
M  V30 66074 H 6494.02 6.57717 -1.62527 0
M  V30 66075 H 6494.97 6.35042 -3.13252 0
M  V30 66076 H 6495.37 5.3891 -1.68037 0
M  V30 66077 N 6494.77 0.977823 1.23598 0
M  V30 66078 C 6496.18 0.682634 1.73773 0
M  V30 66079 C 6496.53 -0.80126 1.79093 0
M  V30 66080 O 6495.66 -1.62675 1.42708 0
M  V30 66081 C 6496.25 1.23245 3.15589 0
M  V30 66082 C 6494.81 0.986956 3.6323 0
M  V30 66083 C 6493.96 1.36172 2.41562 0
M  V30 66084 H 6496.91 1.15197 1.09157 0
M  V30 66085 H 6496.93 0.603618 3.75682 0
M  V30 66086 H 6496.44 2.31245 3.11684 0
M  V30 66087 H 6494.54 -0.0770814 3.7252 0
M  V30 66088 H 6494.66 1.63972 4.50167 0
M  V30 66089 H 6493.02 0.780164 2.42457 0
M  V30 66090 H 6493.8 2.45144 2.40332 0
M  V30 66091 N 6496.25 -1.38656 0.749159 0
M  V30 66092 C 6497.16 -2.34291 0.120455 0
M  V30 66093 C 6498.18 -1.59045 -0.70574 0
M  V30 66094 O 6499.35 -1.91262 -0.630922 0
M  V30 66095 C 6496.42 -3.38143 -0.765507 0
M  V30 66096 C 6495.48 -4.29235 0.0745546 0
M  V30 66097 C 6494.71 -5.28128 -0.769216 0
M  V30 66098 O 6494.93 -5.33909 -2.00741 0
M  V30 66099 O 6493.87 -6.01599 -0.190365 0
M  V30 66100 H 6497.69 -2.89741 0.910158 0
M  V30 66101 H 6495.28 -1.40426 0.509997 0
M  V30 66102 H 6497.16 -4.01744 -1.272 0
M  V30 66103 H 6495.84 -2.85056 -1.53378 0
M  V30 66104 H 6494.74 -3.6881 0.626891 0
M  V30 66105 H 6496.08 -4.85566 0.805379 0
M  V30 66106 N 6497.73 -0.497886 -1.49529 0
M  V30 66107 C 6498.97 0.046142 -2.04348 0
M  V30 66108 C 6499.33 1.34562 -1.36957 0
M  V30 66109 O 6500.53 1.97369 -1.8248 0
M  V30 66110 C 6498.8 0.198527 -3.56848 0
M  V30 66111 S 6500.36 0.697253 -4.33225 0
M  V30 66112 H 6497.18 0.00325371 -0.710993 0
M  V30 66113 H 6499.78 -0.671143 -1.83619 0
M  V30 66114 H 6498.49 -0.752592 -4.0344 0
M  V30 66115 H 6498.02 0.941144 -3.81976 0
M  V30 66116 H 6500.03 1.96686 -4.55553 0
M  V30 66117 N 6499.21 1.55889 -0.231587 0
M  V30 66118 C 6500.14 2.18027 0.706873 0
M  V30 66119 C 6501.15 1.15218 1.15016 0
M  V30 66120 O 6502.34 1.42153 1.07958 0
M  V30 66121 C 6499.44 2.75721 1.97056 0
M  V30 66122 C 6498.61 4.03799 1.68121 0
M  V30 66123 C 6497.67 4.4596 2.79296 0
M  V30 66124 O 6496.7 5.12653 2.47336 0
M  V30 66125 N 6497.9 4.12473 4.08468 0
M  V30 66126 H 6500.66 2.99187 0.175284 0
M  V30 66127 H 6498.23 1.6182 -0.0509578 0
M  V30 66128 H 6500.22 3.00891 2.70641 0
M  V30 66129 H 6498.79 1.98807 2.41235 0
M  V30 66130 H 6498.01 3.8638 0.7813 0
M  V30 66131 H 6499.3 4.87333 1.46233 0
M  V30 66132 H 6498.69 3.58899 4.37273 0
M  V30 66133 H 6497.25 4.42513 4.78566 0
M  V30 66134 N 6500.68 -0.0417018 1.57545 0
M  V30 66135 C 6501.92 -0.740025 1.90533 0
M  V30 66136 C 6502.29 -1.73191 0.828788 0
M  V30 66137 O 6503.49 -2.47755 1.04263 0
M  V30 66138 C 6501.76 -1.40317 3.28703 0
M  V30 66139 S 6503.32 -2.1324 3.83502 0
M  V30 66140 H 6500.14 -0.245445 0.667291 0
M  V30 66141 H 6502.74 0.00495864 1.95499 0
M  V30 66142 H 6501.44 -0.667871 4.04929 0
M  V30 66143 H 6500.97 -2.18697 3.27009 0
M  V30 66144 H 6502.99 -3.40208 3.61211 0
M  V30 66145 N 6502.16 -1.54446 -0.313732 0
M  V30 66146 C 6503.57 -1.64254 -0.887553 0
M  V30 66147 C 6503.92 -0.542943 -1.88538 0
M  V30 66148 O 6503.05 0.322552 -2.13983 0
M  V30 66149 C 6503.64 -2.97745 -1.61658 0
M  V30 66150 C 6502.2 -3.09717 -2.13899 0
M  V30 66151 C 6501.35 -2.59873 -0.967526 0
M  V30 66152 H 6504.3 -1.58439 -0.0910553 0
M  V30 66153 H 6504.32 -2.88456 -2.4814 0
M  V30 66154 H 6503.83 -3.77755 -0.890098 0
M  V30 66155 H 6501.93 -2.34401 -2.89632 0
M  V30 66156 H 6502.05 -4.15675 -2.38225 0
M  V30 66157 H 6500.41 -2.16011 -1.34949 0
M  V30 66158 H 6501.19 -3.4235 -0.255205 0
M  V30 66159 N 6503.64 0.576294 -1.46685 0
M  V30 66160 C 6505.05 1.15843 -1.46415 0
M  V30 66161 C 6505.4 1.9509 -0.208452 0
M  V30 66162 O 6504.53 2.05171 0.688019 0
M  V30 66163 C 6505.12 2.10749 -2.65274 0
M  V30 66164 C 6503.68 2.64273 -2.68024 0
M  V30 66165 C 6502.83 1.40268 -2.39207 0
M  V30 66166 H 6505.78 0.363888 -1.54472 0
M  V30 66167 H 6505.8 2.94318 -2.41158 0
M  V30 66168 H 6505.31 1.53044 -3.5665 0
M  V30 66169 H 6503.41 3.25829 -1.80738 0
M  V30 66170 H 6503.53 3.0657 -3.68174 0
M  V30 66171 H 6501.89 1.70297 -1.89396 0
M  V30 66172 H 6502.67 0.843851 -3.32767 0
M  V30 66173 N 6505.12 1.34498 0.821463 0
M  V30 66174 C 6506.07 1.22748 1.92138 0
M  V30 66175 C 6507.05 0.12618 1.60404 0
M  V30 66176 O 6508.24 0.355983 1.73383 0
M  V30 66177 C 6505.37 0.986613 3.28817 0
M  V30 66178 C 6504.46 2.13115 3.66664 0
M  V30 66179 N 6504.85 3.38245 3.76064 0
M  V30 66180 C 6503.15 2.04172 3.96522 0
M  V30 66181 C 6503.85 4.13418 4.09219 0
M  V30 66182 N 6502.83 3.42024 4.22517 0
M  V30 66183 H 6506.63 2.17571 1.97585 0
M  V30 66184 H 6504.14 1.26757 1.01521 0
M  V30 66185 H 6506.14 0.883342 4.07434 0
M  V30 66186 H 6504.8 0.0470854 3.24666 0
M  V30 66187 H 6505.81 3.7278 3.59521 0
M  V30 66188 H 6502.49 1.17985 4.00482 0
M  V30 66189 H 6503.88 5.2148 4.23684 0
M  V30 66190 N 6506.6 -1.04184 1.18252 0
M  V30 66191 C 6507.53 -2.11704 0.851859 0
M  V30 66192 C 6508.51 -1.61536 -0.185677 0
M  V30 66193 O 6509.69 -1.88388 -0.0649103 0
M  V30 66194 C 6506.82 -3.37602 0.272555 0
M  V30 66195 C 6505.86 -4.06616 1.28709 0
M  V30 66196 S 6506.7 -4.53831 2.8425 0
M  V30 66197 C 6507.85 -5.82963 2.27827 0
M  V30 66198 H 6508.09 -2.39426 1.76246 0
M  V30 66199 H 6505.62 -1.16934 1.00825 0
M  V30 66200 H 6507.58 -4.10463 -0.0551776 0
M  V30 66201 H 6506.24 -3.07998 -0.616144 0
M  V30 66202 H 6505.43 -4.97109 0.830606 0
M  V30 66203 H 6505.03 -3.39866 1.56099 0
M  V30 66204 H 6507.33 -6.56846 1.66013 0
M  V30 66205 H 6508.27 -6.33372 3.16615 0
M  V30 66206 H 6508.68 -5.38011 1.70892 0
M  V30 66207 N 6508.07 -0.984364 -1.23077 0
M  V30 66208 C 6509.3 -0.673604 -1.95628 0
M  V30 66209 C 6509.72 0.760161 -1.72821 0
M  V30 66210 O 6509.07 1.51197 -1.02204 0
M  V30 66211 C 6509.13 -0.959406 -3.48536 0
M  V30 66212 O 6508.85 -2.33682 -3.70573 0
M  V30 66213 C 6510.35 -0.665152 -4.38281 0
M  V30 66214 H 6507.57 -0.249893 -0.622731 0
M  V30 66215 H 6510.11 -1.31682 -1.56461 0
M  V30 66216 H 6508.27 -0.362133 -3.85704 0
M  V30 66217 H 6508.68 -2.42954 -4.64837 0
M  V30 66218 H 6510.15 -0.915462 -5.44356 0
M  V30 66219 H 6510.63 0.400807 -4.37367 0
M  V30 66220 H 6511.24 -1.24308 -4.06728 0
M  V30 66221 N 6509.55 1.38256 -0.756502 0
M  V30 66222 C 6510.8 1.99656 -0.313341 0
M  V30 66223 C 6511.12 1.60351 1.10961 0
M  V30 66224 O 6510.39 0.861728 1.75929 0
M  V30 66225 H 6508.97 0.738424 -0.112864 0
M  V30 66226 H 6511.63 1.68976 -0.971244 0
M  V30 66227 H 6510.73 3.09793 -0.378798 0
M  V30 66228 N 6511.03 0.505809 1.49263 0
M  V30 66229 C 6512.44 0.0592244 1.86606 0
M  V30 66230 C 6512.79 -1.35631 1.4177 0
M  V30 66231 O 6511.92 -2.01161 0.797692 0
M  V30 66232 C 6512.51 0.1007 3.3865 0
M  V30 66233 C 6511.07 -0.290566 3.75277 0
M  V30 66234 C 6510.22 0.471129 2.73268 0
M  V30 66235 H 6513.17 0.718344 1.41512 0
M  V30 66236 H 6513.19 -0.693456 3.74128 0
M  V30 66237 H 6512.7 1.13106 3.71253 0
M  V30 66238 H 6510.8 -1.32398 3.48284 0
M  V30 66239 H 6510.92 0.0322288 4.79089 0
M  V30 66240 H 6509.28 -0.0796393 2.54575 0
M  V30 66241 H 6510.06 1.50166 3.08715 0
M  V30 66242 N 6512.51 -1.55764 0.239851 0
M  V30 66243 C 6513.92 -1.59184 -0.115158 0
M  V30 66244 C 6514.12 -1.25693 -1.57491 0
M  V30 66245 O 6513.18 -1.00088 -2.31816 0
M  V30 66246 C 6514.49 -2.99837 0.227662 0
M  V30 66247 C 6516.04 -3.1253 0.171386 0
M  V30 66248 C 6516.52 -4.55391 0.488139 0
M  V30 66249 N 6518.01 -4.61121 0.438379 0
M  V30 66250 C 6518.74 -5.69627 0.656723 0
M  V30 66251 N 6518.24 -6.86423 0.937819 0
M  V30 66252 N 6520.03 -5.59017 0.58791 0
M  V30 66253 H 6512.18 -1.75805 1.1919 0
M  V30 66254 H 6514.45 -0.818045 0.479068 0
M  V30 66255 H 6514.15 -3.29058 1.24153 0
M  V30 66256 H 6514.03 -3.74523 -0.448621 0
M  V30 66257 H 6516.41 -2.83095 -0.833141 0
M  V30 66258 H 6516.49 -2.40135 0.881416 0
M  V30 66259 H 6516.14 -4.85547 1.49019 0
M  V30 66260 H 6516.07 -5.26038 -0.24329 0
M  V30 66261 H 6518.56 -3.77202 0.229559 0
M  V30 66262 H 6518.87 -7.65045 1.09203 0
M  V30 66263 H 6517.22 -6.88124 0.975215 0
M  V30 66264 H 6520.41 -4.66648 0.368403 0
M  V30 66265 H 6520.58 -6.4351 0.761473 0
M  V30 66266 N 6513.99 0.0333462 -1.57565 0
M  V30 66267 C 6515.23 0.72991 -1.90923 0
M  V30 66268 C 6515.59 1.72749 -0.837961 0
M  V30 66269 O 6516.79 2.47199 -1.05575 0
M  V30 66270 C 6515.06 1.38572 -3.29443 0
M  V30 66271 S 6516.62 2.11203 -3.84628 0
M  V30 66272 H 6513.44 0.241903 -0.668584 0
M  V30 66273 H 6516.04 -0.0153264 -1.95494 0
M  V30 66274 H 6514.75 0.646387 -4.05278 0
M  V30 66275 H 6514.28 2.1696 -3.28165 0
M  V30 66276 H 6516.29 3.38287 -3.6301 0
M  V30 66277 N 6515.46 1.5461 0.305537 0
M  V30 66278 C 6516.37 1.88297 1.39933 0
M  V30 66279 C 6517.39 0.776665 1.55705 0
M  V30 66280 O 6518.57 1.0727 1.70456 0
M  V30 66281 C 6515.63 2.11935 2.7438 0
M  V30 66282 C 6514.69 3.35666 2.67632 0
M  V30 66283 C 6513.93 3.58166 3.95667 0
M  V30 66284 O 6514.15 2.83763 4.94808 0
M  V30 66285 O 6513.08 4.51676 3.97835 0
M  V30 66286 H 6516.91 2.81343 1.14368 0
M  V30 66287 H 6514.49 1.40742 0.501192 0
M  V30 66288 H 6516.38 2.28709 3.53935 0
M  V30 66289 H 6515.05 1.22076 2.99798 0
M  V30 66290 H 6513.96 3.24259 1.86566 0
M  V30 66291 H 6515.29 4.2564 2.47167 0
M  V30 66292 N 6516.94 -0.568506 1.46989 0
M  V30 66293 C 6517.85 -1.7041 1.61238 0
M  V30 66294 C 6518.87 -1.66797 0.49547 0
M  V30 66295 O 6520.04 -1.86449 0.761504 0
M  V30 66296 C 6517.11 -3.06919 1.6125 0
M  V30 66297 C 6516.17 -3.21687 2.84282 0
M  V30 66298 C 6515.4 -4.51684 2.84284 0
M  V30 66299 O 6515.63 -5.36451 1.93846 0
M  V30 66300 O 6514.56 -4.70002 3.76008 0
M  V30 66301 H 6518.39 -1.61334 2.57304 0
M  V30 66302 H 6515.97 -0.737209 1.29945 0
M  V30 66303 H 6517.85 -3.88176 1.64003 0
M  V30 66304 H 6516.53 -3.16402 0.683484 0
M  V30 66305 H 6515.44 -2.39869 2.87078 0
M  V30 66306 H 6516.77 -3.17102 3.7644 0
M  V30 66307 N 6518.42 -1.34932 -0.814318 0
M  V30 66308 C 6519.37 -1.23766 -1.91484 0
M  V30 66309 C 6520.36 -0.134684 -1.60335 0
M  V30 66310 O 6521.55 -0.365173 -1.73192 0
M  V30 66311 C 6518.68 -1.00404 -3.28289 0
M  V30 66312 C 6517.76 -2.15057 -3.65529 0
M  V30 66313 N 6518.15 -3.40234 -3.74265 0
M  V30 66314 C 6516.45 -2.06272 -3.95434 0
M  V30 66315 C 6517.15 -4.15582 -4.07021 0
M  V30 66316 N 6516.13 -3.4426 -4.20697 0
M  V30 66317 H 6519.93 -2.18616 -1.96429 0
M  V30 66318 H 6517.44 -1.27294 -1.00847 0
M  V30 66319 H 6519.44 -0.904937 -4.0696 0
M  V30 66320 H 6518.1 -0.0643025 -3.24636 0
M  V30 66321 H 6519.11 -3.74681 -3.57539 0
M  V30 66322 H 6515.79 -1.20107 -3.99851 0
M  V30 66323 H 6517.18 -5.2372 -4.20912 0
M  V30 66324 N 6519.9 1.03555 -1.18803 0
M  V30 66325 C 6521.15 1.77105 -0.988007 0
M  V30 66326 C 6521.48 1.88156 0.480719 0
M  V30 66327 O 6520.75 1.39344 1.35697 0
M  V30 66328 C 6521.04 3.20092 -1.64963 0
M  V30 66329 C 6520.89 3.16953 -3.19156 0
M  V30 66330 C 6522.21 4.18328 -1.36711 0
M  V30 66331 H 6519.33 0.642903 -0.36034 0
M  V30 66332 H 6521.97 1.20933 -1.46545 0
M  V30 66333 H 6520.12 3.68055 -1.24369 0
M  V30 66334 H 6521.79 2.7694 -3.6892 0
M  V30 66335 H 6520.03 2.54847 -3.51049 0
M  V30 66336 H 6520.71 4.17945 -3.60591 0
M  V30 66337 H 6523.18 3.78935 -1.71893 0
M  V30 66338 H 6522.06 5.16582 -1.85565 0
M  V30 66339 H 6522.32 4.41141 -0.290962 0
M  V30 66340 N 6521.38 0.990877 1.22554 0
M  V30 66341 C 6522.62 0.6656 1.91249 0
M  V30 66342 C 6522.95 -0.80211 1.7719 0
M  V30 66343 O 6522.21 -1.59536 1.13344 0
M  V30 66344 C 6522.51 1.01486 3.42688 0
M  V30 66345 C 6522.17 2.4745 3.76934 0
M  V30 66346 C 6520.83 2.87339 3.85992 0
M  V30 66347 C 6523.19 3.42069 3.93241 0
M  V30 66348 C 6520.51 4.20839 4.08792 0
M  V30 66349 C 6522.87 4.75226 4.17544 0
M  V30 66350 C 6521.53 5.14858 4.24826 0
M  V30 66351 H 6520.8 0.24356 0.699828 0
M  V30 66352 H 6523.45 1.24669 1.45361 0
M  V30 66353 H 6521.75 0.351823 3.90217 0
M  V30 66354 H 6523.45 0.741242 3.9409 0
M  V30 66355 H 6520.04 2.15531 3.70465 0
M  V30 66356 H 6524.22 3.12424 3.85623 0
M  V30 66357 H 6519.48 4.51137 4.12656 0
M  V30 66358 H 6523.65 5.4849 4.29105 0
M  V30 66359 H 6521.28 6.18322 4.42246 0
M  V30 66360 N 6522.86 -1.37853 0.763824 0
M  V30 66361 C 6524.08 -2.04685 0.334467 0
M  V30 66362 C 6524.51 -1.57233 -1.03245 0
M  V30 66363 O 6523.86 -0.728943 -1.66 0
M  V30 66364 C 6523.91 -3.58615 0.377841 0
M  V30 66365 O 6523.02 -4.07643 -0.624543 0
M  V30 66366 H 6522.36 -0.647709 0.146183 0
M  V30 66367 H 6524.89 -1.76326 1.0378 0
M  V30 66368 H 6524.9 -4.07338 0.232328 0
M  V30 66369 H 6523.57 -3.9251 1.3751 0
M  V30 66370 H 6522.15 -3.70262 -0.442801 0
M  V30 66371 N 6524.33 -0.513718 -1.48992 0
M  V30 66372 C 6525.27 0.29478 -2.27296 0
M  V30 66373 C 6526.28 0.919197 -1.34367 0
M  V30 66374 O 6527.47 0.800386 -1.5955 0
M  V30 66375 C 6524.57 1.43114 -3.072 0
M  V30 66376 C 6523.74 0.911674 -4.27793 0
M  V30 66377 C 6522.8 1.92718 -4.89639 0
M  V30 66378 O 6521.83 1.49062 -5.49335 0
M  V30 66379 N 6523.03 3.25841 -4.80424 0
M  V30 66380 H 6525.79 -0.376714 -2.97323 0
M  V30 66381 H 6523.35 -0.347039 -1.58137 0
M  V30 66382 H 6525.35 2.10831 -3.45445 0
M  V30 66383 H 6523.92 2.00657 -2.39699 0
M  V30 66384 H 6523.14 0.0590085 -3.94156 0
M  V30 66385 H 6524.42 0.543225 -5.05892 0
M  V30 66386 H 6523.82 3.63988 -4.33046 0
M  V30 66387 H 6522.38 3.89236 -5.22818 0
M  V30 66388 N 6525.81 1.55635 -0.248108 0
M  V30 66389 C 6526.74 2.18765 0.683709 0
M  V30 66390 C 6527.76 1.16431 1.13787 0
M  V30 66391 O 6528.95 1.4329 1.06444 0
M  V30 66392 C 6526.05 2.77796 1.94121 0
M  V30 66393 C 6525.22 4.0556 1.63829 0
M  V30 66394 C 6524.28 4.48897 2.7455 0
M  V30 66395 O 6523.3 5.15248 2.41885 0
M  V30 66396 N 6524.51 4.16782 4.0407 0
M  V30 66397 H 6527.27 2.99356 0.143542 0
M  V30 66398 H 6524.83 1.61757 -0.0681181 0
M  V30 66399 H 6526.82 3.03745 2.67435 0
M  V30 66400 H 6525.39 2.01354 2.39113 0
M  V30 66401 H 6524.61 3.87187 0.740275 0
M  V30 66402 H 6525.9 4.88856 1.41056 0
M  V30 66403 H 6525.3 3.63517 4.33442 0
M  V30 66404 H 6523.86 4.47564 4.73846 0
M  V30 66405 N 6527.29 -0.0249897 1.5758 0
M  V30 66406 C 6528.22 -1.052 2.03631 0
M  V30 66407 C 6529.23 -1.32221 0.949816 0
M  V30 66408 O 6530.42 -1.29636 1.22706 0
M  V30 66409 C 6527.52 -2.39269 2.40008 0
M  V30 66410 C 6526.7 -2.31546 3.71086 0
M  V30 66411 C 6525.76 -3.48097 3.94607 0
M  V30 66412 O 6524.78 -3.27408 4.6561 0
M  V30 66413 N 6525.98 -4.70105 3.40561 0
M  V30 66414 H 6528.75 -0.659465 2.92355 0
M  V30 66415 H 6526.31 -0.212859 1.60495 0
M  V30 66416 H 6528.3 -3.15967 2.52877 0
M  V30 66417 H 6526.87 -2.70353 1.56933 0
M  V30 66418 H 6526.09 -1.3992 3.68532 0
M  V30 66419 H 6527.38 -2.23533 4.57067 0
M  V30 66420 H 6526.78 -4.89814 2.83017 0
M  V30 66421 H 6525.33 -5.44154 3.58803 0
M  V30 66422 N 6528.77 -1.5477 -0.297333 0
M  V30 66423 C 6530.18 -1.65186 -0.870082 0
M  V30 66424 C 6530.53 -0.56291 -1.87951 0
M  V30 66425 O 6529.65 0.299838 -2.14313 0
M  V30 66426 C 6530.25 -2.99443 -1.58491 0
M  V30 66427 C 6528.81 -3.11968 -2.10602 0
M  V30 66428 C 6527.96 -2.60885 -0.939909 0
M  V30 66429 H 6530.91 -1.58526 -0.0742457 0
M  V30 66430 H 6530.93 -2.91071 -2.45067 0
M  V30 66431 H 6530.44 -3.78678 -0.849982 0
M  V30 66432 H 6528.54 -2.3746 -2.8713 0
M  V30 66433 H 6528.65 -4.18178 -2.33802 0
M  V30 66434 H 6527.02 -2.1743 -1.32651 0
M  V30 66435 H 6527.8 -3.42602 -0.218879 0
M  V30 66436 N 6530.25 0.560703 -1.47288 0
M  V30 66437 C 6531.49 1.31543 -1.5343 0
M  V30 66438 C 6531.81 1.94005 -0.196716 0
M  V30 66439 O 6531.08 1.79746 0.778985 0
M  V30 66440 H 6529.66 0.488473 -0.565158 0
M  V30 66441 H 6532.33 0.655007 -1.83564 0
M  V30 66442 H 6531.42 2.11077 -2.29898 0
M  V30 66443 N 6531.72 1.35362 0.807151 0
M  V30 66444 C 6532.67 1.24779 1.90825 0
M  V30 66445 C 6533.66 0.143185 1.60262 0
M  V30 66446 O 6534.85 0.374353 1.72996 0
M  V30 66447 C 6531.98 1.02143 3.27752 0
M  V30 66448 C 6531.06 2.16992 3.64383 0
M  V30 66449 N 6531.46 3.42214 3.72456 0
M  V30 66450 C 6529.75 2.08366 3.94334 0
M  V30 66451 C 6530.45 4.17735 4.04812 0
M  V30 66452 N 6529.43 3.46486 4.18866 0
M  V30 66453 H 6533.23 2.19655 1.95267 0
M  V30 66454 H 6530.75 1.27827 1.00171 0
M  V30 66455 H 6532.74 0.926506 4.06474 0
M  V30 66456 H 6531.4 0.0815179 3.24598 0
M  V30 66457 H 6532.41 3.76572 3.55547 0
M  V30 66458 H 6529.09 1.22226 3.99208 0
M  V30 66459 H 6530.48 5.25945 4.18129 0
M  V30 66460 N 6533.2 -1.02924 1.1935 0
M  V30 66461 C 6534.45 -1.7572 0.990219 0
M  V30 66462 C 6534.76 -1.89624 -0.479819 0
M  V30 66463 O 6535.97 -2.59387 -0.801911 0
M  V30 66464 C 6534.43 -3.15986 1.72281 0
M  V30 66465 C 6534.03 -3.10138 3.23294 0
M  V30 66466 C 6535.78 -3.9308 1.60276 0
M  V30 66467 C 6533.69 -4.45333 3.89143 0
M  V30 66468 H 6532.62 -0.658724 0.366877 0
M  V30 66469 H 6535.27 -1.15188 1.42842 0
M  V30 66470 H 6533.65 -3.76983 1.21242 0
M  V30 66471 H 6534.82 -2.58523 3.81448 0
M  V30 66472 H 6533.14 -2.4654 3.35569 0
M  V30 66473 H 6535.73 -4.9308 2.06825 0
M  V30 66474 H 6536.08 -4.12559 0.556853 0
M  V30 66475 H 6536.61 -3.38683 2.08659 0
M  V30 66476 H 6533.35 -4.31058 4.93831 0
M  V30 66477 H 6532.87 -4.97004 3.35778 0
M  V30 66478 H 6534.55 -5.14217 3.9267 0
M  V30 66479 N 6534.68 -0.997362 -1.22026 0
M  V30 66480 C 6535.64 -0.55643 -2.22343 0
M  V30 66481 C 6536.64 0.36311 -1.56647 0
M  V30 66482 O 6537.83 0.15445 -1.73514 0
M  V30 66483 C 6534.97 0.190052 -3.4037 0
M  V30 66484 H 6536.16 -1.44364 -2.62867 0
M  V30 66485 H 6533.71 -0.785047 -1.35154 0
M  V30 66486 H 6534.45 1.09304 -3.05324 0
M  V30 66487 H 6534.23 -0.470251 -3.8927 0
M  V30 66488 H 6535.72 0.486562 -4.14756 0
M  V30 66489 N 6536.16 1.37446 -0.771123 0
M  V30 66490 C 6537.38 2.04505 -0.345317 0
M  V30 66491 C 6537.81 1.57778 1.02409 0
M  V30 66492 O 6537.17 0.737736 1.65611 0
M  V30 66493 C 6537.21 3.5841 -0.396854 0
M  V30 66494 O 6536.32 4.07969 0.602916 0
M  V30 66495 H 6535.66 0.646924 -0.149616 0
M  V30 66496 H 6538.19 1.75773 -1.04714 0
M  V30 66497 H 6538.2 4.07209 -0.253927 0
M  V30 66498 H 6536.87 3.91775 -1.3959 0
M  V30 66499 H 6535.45 3.70491 0.423159 0
M  V30 66500 N 6537.64 0.521612 1.48718 0
M  V30 66501 C 6538.89 -0.01748 2.01692 0
M  V30 66502 C 6539.2 -1.36117 1.40469 0
M  V30 66503 O 6540.4 -1.98814 1.84892 0
M  V30 66504 C 6538.86 -0.0815696 3.59808 0
M  V30 66505 C 6538.47 1.25672 4.30012 0
M  V30 66506 C 6540.21 -0.569933 4.20657 0
M  V30 66507 C 6538.12 1.15367 5.80038 0
M  V30 66508 H 6537.05 -0.0103042 0.75393 0
M  V30 66509 H 6539.7 0.664135 1.7106 0
M  V30 66510 H 6538.08 -0.828082 3.87245 0
M  V30 66511 H 6539.26 2.01814 4.14256 0
M  V30 66512 H 6537.57 1.68015 3.80998 0
M  V30 66513 H 6540.17 -0.664866 5.3055 0
M  V30 66514 H 6540.51 -1.57374 3.85408 0
M  V30 66515 H 6541.04 0.120648 3.97617 0
M  V30 66516 H 6537.78 2.13237 6.19847 0
M  V30 66517 H 6537.3 0.433478 5.98232 0
M  V30 66518 H 6538.98 0.840873 6.41513 0
M  V30 66519 N 6539.11 -1.55501 0.256358 0
M  V30 66520 C 6540.04 -2.24751 -0.633186 0
M  V30 66521 C 6541.03 -1.23106 -1.17384 0
M  V30 66522 O 6542.21 -1.51782 -1.21144 0
M  V30 66523 C 6539.34 -2.95424 -1.82597 0
M  V30 66524 C 6538.29 -4.03839 -1.41768 0
M  V30 66525 C 6537.62 -4.61988 -2.69205 0
M  V30 66526 C 6538.92 -5.1905 -0.58173 0
M  V30 66527 H 6540.61 -2.99348 -0.0557155 0
M  V30 66528 H 6538.16 -1.43978 -0.0253573 0
M  V30 66529 H 6540.11 -3.42574 -2.454 0
M  V30 66530 H 6538.84 -2.18331 -2.42897 0
M  V30 66531 H 6537.5 -3.57473 -0.81294 0
M  V30 66532 H 6537.14 -3.81584 -3.27724 0
M  V30 66533 H 6536.84 -5.35178 -2.42606 0
M  V30 66534 H 6538.37 -5.11875 -3.3289 0
M  V30 66535 H 6539.78 -5.62367 -1.11429 0
M  V30 66536 H 6538.18 -5.98688 -0.411406 0
M  V30 66537 H 6539.25 -4.83215 0.403889 0
M  V30 66538 N 6540.59 0.0166325 -1.57591 0
M  V30 66539 C 6541.84 0.704028 -1.89014 0
M  V30 66540 C 6542.15 1.75851 -0.856499 0
M  V30 66541 O 6543.36 2.49936 -1.06038 0
M  V30 66542 C 6541.82 1.30331 -3.35472 0
M  V30 66543 C 6541.42 0.284529 -4.47096 0
M  V30 66544 C 6543.17 1.96986 -3.76028 0
M  V30 66545 C 6541.08 0.892862 -5.84621 0
M  V30 66546 H 6540.01 0.266711 -0.705253 0
M  V30 66547 H 6542.66 -0.0411853 -1.83454 0
M  V30 66548 H 6541.04 2.09864 -3.35817 0
M  V30 66549 H 6542.21 -0.484996 -4.58241 0
M  V30 66550 H 6540.53 -0.280633 -4.15453 0
M  V30 66551 H 6543.12 2.43375 -4.76102 0
M  V30 66552 H 6543.47 2.79336 -3.08669 0
M  V30 66553 H 6544 1.24211 -3.77911 0
M  V30 66554 H 6540.74 0.108505 -6.5541 0
M  V30 66555 H 6540.26 1.63194 -5.77172 0
M  V30 66556 H 6541.94 1.3965 -6.31749 0
M  V30 66557 N 6542.07 1.54925 0.289121 0
M  V30 66558 C 6543.48 1.65645 0.861309 0
M  V30 66559 C 6543.83 0.572869 1.8765 0
M  V30 66560 O 6542.96 -0.288468 2.14469 0
M  V30 66561 C 6543.55 3.00279 1.56901 0
M  V30 66562 C 6542.11 3.1308 2.08944 0
M  V30 66563 C 6541.26 2.6138 0.92606 0
M  V30 66564 H 6544.21 1.58563 0.0658376 0
M  V30 66565 H 6544.23 2.92367 2.4352 0
M  V30 66566 H 6543.74 3.79123 0.829888 0
M  V30 66567 H 6541.84 2.38979 2.85867 0
M  V30 66568 H 6541.96 4.19413 2.31581 0
M  V30 66569 H 6540.32 2.18131 1.31496 0
M  V30 66570 H 6541.1 3.42713 0.200707 0
M  V30 66571 N 6543.55 -0.552884 1.47584 0
M  V30 66572 C 6544.48 -1.66923 1.63276 0
M  V30 66573 C 6545.46 -1.63125 0.482092 0
M  V30 66574 O 6546.64 -1.80679 0.711943 0
M  V30 66575 C 6543.77 -3.05555 1.65087 0
M  V30 66576 C 6542.73 -3.24201 2.79424 0
M  V30 66577 C 6542.05 -4.63662 2.6631 0
M  V30 66578 C 6543.35 -3.09161 4.20971 0
M  V30 66579 H 6545.05 -1.54046 2.5673 0
M  V30 66580 H 6542.59 -0.739665 1.23551 0
M  V30 66581 H 6544.55 -3.83501 1.74656 0
M  V30 66582 H 6543.27 -3.19401 0.681965 0
M  V30 66583 H 6541.93 -2.48663 2.69374 0
M  V30 66584 H 6541.58 -4.74314 1.67438 0
M  V30 66585 H 6541.28 -4.77087 3.43019 0
M  V30 66586 H 6542.8 -5.43739 2.77814 0
M  V30 66587 H 6544.22 -3.76921 4.31976 0
M  V30 66588 H 6542.61 -3.34092 4.985 0
M  V30 66589 H 6543.68 -2.05854 4.39036 0
M  V30 66590 N 6545.03 -1.35788 -0.799961 0
M  V30 66591 C 6545.96 -1.31923 -1.92662 0
M  V30 66592 C 6546.94 -0.1925 -1.69007 0
M  V30 66593 O 6548.12 -0.388502 -1.90274 0
M  V30 66594 C 6545.25 -1.09714 -3.29515 0
M  V30 66595 C 6544.21 -2.19099 -3.67668 0
M  V30 66596 C 6543.53 -1.82047 -5.02756 0
M  V30 66597 C 6544.83 -3.61113 -3.77352 0
M  V30 66598 H 6546.53 -2.26196 -1.96153 0
M  V30 66599 H 6544.07 -1.08886 -0.942332 0
M  V30 66600 H 6546.03 -1.05648 -4.07942 0
M  V30 66601 H 6544.75 -0.118894 -3.26384 0
M  V30 66602 H 6543.41 -2.22273 -2.91531 0
M  V30 66603 H 6543.06 -0.828231 -4.96134 0
M  V30 66604 H 6542.76 -2.55274 -5.29253 0
M  V30 66605 H 6544.28 -1.79518 -5.83614 0
M  V30 66606 H 6545.69 -3.60225 -4.45995 0
M  V30 66607 H 6544.09 -4.33157 -4.15325 0
M  V30 66608 H 6545.16 -3.96784 -2.7873 0
M  V30 66609 N 6546.5 1.0229 -1.19894 0
M  V30 66610 C 6547.43 2.12586 -0.96589 0
M  V30 66611 C 6548.42 1.69788 0.102902 0
M  V30 66612 O 6549.6 1.94127 -0.0533358 0
M  V30 66613 C 6546.73 3.43531 -0.510302 0
M  V30 66614 C 6545.68 4.00039 -1.52162 0
M  V30 66615 C 6545.01 5.26675 -0.922888 0
M  V30 66616 C 6546.31 4.34155 -2.90356 0
M  V30 66617 H 6548 2.3234 -1.88835 0
M  V30 66618 H 6545.55 1.11656 -0.909339 0
M  V30 66619 H 6547.5 4.2007 -0.334525 0
M  V30 66620 H 6546.23 3.23516 0.447765 0
M  V30 66621 H 6544.89 3.256 -1.68464 0
M  V30 66622 H 6544.53 5.02982 0.0429163 0
M  V30 66623 H 6544.23 5.65446 -1.59826 0
M  V30 66624 H 6545.76 6.05876 -0.75804 0
M  V30 66625 H 6547.17 5.01608 -2.77602 0
M  V30 66626 H 6545.57 4.84023 -3.54741 0
M  V30 66627 H 6546.64 3.43195 -3.42557 0
M  V30 66628 N 6547.98 1.00382 1.21496 0
M  V30 66629 C 6548.91 0.583397 2.26095 0
M  V30 66630 C 6549.89 -0.395199 1.65445 0
M  V30 66631 O 6551.08 -0.28344 1.9212 0
M  V30 66632 C 6548.21 -0.0919399 3.47178 0
M  V30 66633 C 6547.16 0.806316 4.20336 0
M  V30 66634 C 6546.49 -0.00254433 5.347 0
M  V30 66635 C 6547.79 2.10837 4.77855 0
M  V30 66636 H 6549.48 1.45774 2.61515 0
M  V30 66637 H 6547.03 0.702377 1.25709 0
M  V30 66638 H 6548.98 -0.397529 4.19521 0
M  V30 66639 H 6547.71 -1.00091 3.10885 0
M  V30 66640 H 6546.37 1.09571 3.49842 0
M  V30 66641 H 6546.01 -0.912768 4.94649 0
M  V30 66642 H 6545.71 0.595532 5.84574 0
M  V30 66643 H 6547.24 -0.301976 6.09853 0
M  V30 66644 H 6548.65 1.866 5.42082 0
M  V30 66645 H 6547.05 2.65619 5.38114 0
M  V30 66646 H 6548.12 2.77992 3.97302 0
M  V30 66647 N 6549.46 -1.37035 0.778402 0
M  V30 66648 C 6550.39 -2.32779 0.183297 0
M  V30 66649 C 6551.37 -1.56109 -0.675568 0
M  V30 66650 O 6552.56 -1.84316 -0.611662 0
M  V30 66651 C 6549.69 -3.40348 -0.691406 0
M  V30 66652 C 6548.64 -4.27948 0.0666818 0
M  V30 66653 C 6547.97 -5.26587 -0.9279 0
M  V30 66654 C 6549.27 -5.07133 1.24954 0
M  V30 66655 H 6550.96 -2.82798 0.983149 0
M  V30 66656 H 6548.51 -1.35968 0.474217 0
M  V30 66657 H 6550.46 -4.0631 -1.11759 0
M  V30 66658 H 6549.18 -2.88871 -1.52385 0
M  V30 66659 H 6547.84 -3.63526 0.473714 0
M  V30 66660 H 6547.49 -4.71388 -1.75507 0
M  V30 66661 H 6547.19 -5.8606 -0.425165 0
M  V30 66662 H 6548.72 -5.95424 -1.35288 0
M  V30 66663 H 6550.13 -5.66197 0.899675 0
M  V30 66664 H 6548.53 -5.75964 1.68481 0
M  V30 66665 H 6549.6 -4.39418 2.05037 0
M  V30 66666 N 6550.94 -0.529492 -1.48439 0
M  V30 66667 C 6551.87 0.222336 -2.32439 0
M  V30 66668 C 6552.85 0.935549 -1.42062 0
M  V30 66669 O 6554.04 0.921423 -1.70949 0
M  V30 66670 C 6551.17 1.27001 -3.23246 0
M  V30 66671 C 6550.12 0.674965 -4.22644 0
M  V30 66672 C 6549.45 1.82525 -5.02582 0
M  V30 66673 C 6550.75 -0.352998 -5.21106 0
M  V30 66674 H 6552.44 -0.478881 -2.95545 0
M  V30 66675 H 6549.99 -0.231745 -1.42123 0
M  V30 66676 H 6551.94 1.80391 -3.80837 0
M  V30 66677 H 6550.66 2.0008 -2.58139 0
M  V30 66678 H 6549.32 0.162582 -3.66239 0
M  V30 66679 H 6548.97 2.54441 -4.339 0
M  V30 66680 H 6548.67 1.43303 -5.69858 0
M  V30 66681 H 6550.19 2.36295 -5.63025 0
M  V30 66682 H 6551.61 0.093806 -5.73223 0
M  V30 66683 H 6550 -0.662578 -5.96431 0
M  V30 66684 H 6551.07 -1.25894 -4.68272 0
M  V30 66685 N 6552.42 1.55363 -0.264601 0
M  V30 66686 C 6553.35 2.25084 0.621258 0
M  V30 66687 C 6554.33 1.23727 1.16729 0
M  V30 66688 O 6555.51 1.52422 1.20338 0
M  V30 66689 C 6552.64 2.96389 1.81028 0
M  V30 66690 C 6551.6 4.04585 1.39624 0
M  V30 66691 C 6550.92 4.63409 2.66752 0
M  V30 66692 C 6552.22 5.19351 0.554196 0
M  V30 66693 H 6553.92 2.99373 0.0398396 0
M  V30 66694 H 6551.46 1.43989 0.0177214 0
M  V30 66695 H 6553.42 3.4387 2.4358 0
M  V30 66696 H 6552.14 2.19616 2.41736 0
M  V30 66697 H 6550.8 3.57899 0.793971 0
M  V30 66698 H 6550.45 3.83316 3.25695 0
M  V30 66699 H 6550.15 5.36458 2.39765 0
M  V30 66700 H 6551.67 5.13634 3.30171 0
M  V30 66701 H 6553.09 5.6295 1.08446 0
M  V30 66702 H 6551.48 5.98898 0.379651 0
M  V30 66703 H 6552.55 4.82994 -0.429509 0
M  V30 66704 N 6553.9 -0.00827481 1.57598 0
M  V30 66705 C 6555.14 -0.695874 1.90487 0
M  V30 66706 C 6555.47 -1.7388 0.864836 0
M  V30 66707 O 6554.75 -1.94145 -0.117512 0
M  V30 66708 C 6555.03 -1.34655 3.33976 0
M  V30 66709 C 6554.89 -0.315727 4.48691 0
M  V30 66710 C 6556.2 -2.27497 3.7674 0
M  V30 66711 H 6553.32 -0.251504 0.692759 0
M  V30 66712 H 6555.97 0.0413207 1.89955 0
M  V30 66713 H 6554.12 -1.97488 3.3456 0
M  V30 66714 H 6555.79 0.312289 4.60242 0
M  V30 66715 H 6554.03 0.362881 4.3228 0
M  V30 66716 H 6554.7 -0.809889 5.46026 0
M  V30 66717 H 6557.18 -1.74688 3.77655 0
M  V30 66718 H 6556.05 -2.69994 4.77906 0
M  V30 66719 H 6556.31 -3.15057 3.10148 0
M  V30 66720 N 6555.37 -1.55076 -0.280901 0
M  V30 66721 C 6556.3 -1.90421 -1.35138 0
M  V30 66722 C 6557.28 -0.765202 -1.51917 0
M  V30 66723 O 6558.47 -1.02267 -1.65091 0
M  V30 66724 C 6555.6 -2.16919 -2.71226 0
M  V30 66725 C 6554.55 -3.32749 -2.69188 0
M  V30 66726 C 6553.88 -3.44709 -4.08754 0
M  V30 66727 C 6555.18 -4.69347 -2.29153 0
M  V30 66728 H 6556.87 -2.80081 -1.05805 0
M  V30 66729 H 6554.42 -1.34759 -0.507537 0
M  V30 66730 H 6556.37 -2.40231 -3.46218 0
M  V30 66731 H 6555.1 -1.24049 -3.02125 0
M  V30 66732 H 6553.76 -3.09392 -1.96653 0
M  V30 66733 H 6553.4 -2.4932 -4.36862 0
M  V30 66734 H 6553.1 -4.22582 -4.08287 0
M  V30 66735 H 6554.63 -3.70305 -4.85496 0
M  V30 66736 H 6556.04 -4.92256 -2.93866 0
M  V30 66737 H 6554.44 -5.50078 -2.39863 0
M  V30 66738 H 6555.51 -4.68703 -1.24281 0
M  V30 66739 N 6556.85 0.54505 -1.47875 0
M  V30 66740 C 6558.1 1.30358 -1.55353 0
M  V30 66741 C 6558.43 1.92947 -0.22025 0
M  V30 66742 O 6557.71 1.78508 0.772336 0
M  V30 66743 C 6557.99 2.40445 -2.68064 0
M  V30 66744 C 6557.84 1.82646 -4.11048 0
M  V30 66745 C 6559.16 3.42304 -2.76615 0
M  V30 66746 H 6556.28 0.472608 -0.565518 0
M  V30 66747 H 6558.92 0.608735 -1.79984 0
M  V30 66748 H 6557.07 2.99714 -2.47192 0
M  V30 66749 H 6558.74 1.27544 -4.43317 0
M  V30 66750 H 6556.99 1.13255 -4.18755 0
M  V30 66751 H 6557.66 2.62284 -4.85707 0
M  V30 66752 H 6560.13 2.92971 -2.95478 0
M  V30 66753 H 6559.01 4.16744 -3.57233 0
M  V30 66754 H 6559.27 4.01917 -1.84161 0
M  V30 66755 N 6558.33 1.3621 0.792749 0
M  V30 66756 C 6559.29 1.30118 1.88685 0
M  V30 66757 C 6560.29 0.209591 1.59428 0
M  V30 66758 O 6561.48 0.464167 1.67902 0
M  V30 66759 C 6558.61 1.01627 3.254 0
M  V30 66760 H 6559.81 2.27417 1.95503 0
M  V30 66761 H 6557.36 1.20935 0.990176 0
M  V30 66762 H 6558.1 0.0477183 3.24265 0
M  V30 66763 H 6557.88 1.80616 3.48023 0
M  V30 66764 H 6559.37 0.9996 4.0546 0
M  V30 66765 N 6559.81 -1.01652 1.20435 0
M  V30 66766 C 6561.06 -1.74905 1.01255 0
M  V30 66767 C 6561.38 -1.89584 -0.456374 0
M  V30 66768 O 6560.65 -1.4384 -1.32992 0
M  V30 66769 H 6559.23 -0.647975 0.371669 0
M  V30 66770 H 6561.89 -1.22556 1.51546 0
M  V30 66771 H 6560.98 -2.75263 1.47095 0
M  V30 66772 N 6561.29 -1.01025 -1.20962 0
M  V30 66773 C 6562.53 -0.696973 -1.90447 0
M  V30 66774 C 6562.86 0.770843 -1.78246 0
M  V30 66775 O 6562.14 1.55935 -1.16252 0
M  V30 66776 C 6562.42 -1.12533 -3.42065 0
M  V30 66777 C 6562.28 -2.65298 -3.63231 0
M  V30 66778 C 6563.59 -0.691718 -4.3463 0
M  V30 66779 H 6560.71 -0.254672 -0.6916 0
M  V30 66780 H 6563.36 -1.25686 -1.42488 0
M  V30 66781 H 6561.51 -0.648953 -3.83042 0
M  V30 66782 H 6563.18 -3.20739 -3.31549 0
M  V30 66783 H 6561.42 -3.06568 -3.06918 0
M  V30 66784 H 6562.09 -2.90322 -4.69486 0
M  V30 66785 H 6564.57 -1.10115 -4.01265 0
M  V30 66786 H 6563.44 -1.01954 -5.39348 0
M  V30 66787 H 6563.7 0.406918 -4.40223 0
M  V30 66788 N 6562.76 1.36621 -0.785658 0
M  V30 66789 C 6564.01 1.99636 -0.356853 0
M  V30 66790 C 6564.34 1.62215 1.0677 0
M  V30 66791 O 6563.62 0.875102 1.73702 0
M  V30 66792 C 6563.9 3.56379 -0.516339 0
M  V30 66793 C 6563.75 4.03665 -1.98431 0
M  V30 66794 C 6565.07 4.40043 0.0709245 0
M  V30 66795 H 6562.19 0.72524 -0.131135 0
M  V30 66796 H 6564.83 1.6209 -0.991297 0
M  V30 66797 H 6562.98 3.88493 0.0237615 0
M  V30 66798 H 6564.66 3.82055 -2.58518 0
M  V30 66799 H 6562.9 3.55344 -2.48824 0
M  V30 66800 H 6563.57 5.12647 -2.04689 0
M  V30 66801 H 6566.05 4.14268 -0.390077 0
M  V30 66802 H 6564.92 5.48854 -0.070717 0
M  V30 66803 H 6565.18 4.26538 1.16266 0
M  V30 66804 N 6564.24 0.537356 1.48156 0
M  V30 66805 C 6565.49 0.00595365 2.02499 0
M  V30 66806 C 6565.82 -1.3358 1.41374 0
M  V30 66807 O 6565.07 -1.87765 0.551608 0
M  V30 66808 C 6565.37 -0.157419 3.57053 0
M  V30 66809 C 6565.04 1.11091 4.37001 0
M  V30 66810 C 6563.7 1.4585 4.58564 0
M  V30 66811 C 6566.05 1.95229 4.83255 0
M  V30 66812 C 6563.38 2.6463 5.23629 0
M  V30 66813 C 6565.73 3.13195 5.49629 0
M  V30 66814 C 6564.4 3.4829 5.6943 0
M  V30 66815 H 6563.67 0.0021786 0.740997 0
M  V30 66816 H 6566.31 0.704868 1.78056 0
M  V30 66817 H 6564.62 -0.939156 3.80378 0
M  V30 66818 H 6566.31 -0.58362 3.9673 0
M  V30 66819 H 6562.9 0.830231 4.20482 0
M  V30 66820 H 6567.09 1.69686 4.66391 0
M  V30 66821 H 6562.34 2.92015 5.37157 0
M  V30 66822 H 6566.52 3.78692 5.84436 0
M  V30 66823 H 6564.15 4.40427 6.19619 0
M  V30 66824 N 6565.72 -1.5522 0.272837 0
M  V30 66825 C 6566.97 -2.0057 -0.338109 0
M  V30 66826 C 6567.32 -1.15792 -1.53655 0
M  V30 66827 O 6566.61 -0.21946 -1.90339 0
M  V30 66828 C 6566.81 -3.48941 -0.772988 0
M  V30 66829 C 6566.64 -4.48077 0.381769 0
M  V30 66830 C 6565.41 -4.97844 0.864819 0
M  V30 66831 C 6567.61 -4.99682 1.21749 0
M  V30 66832 N 6565.59 -5.80776 1.98928 0
M  V30 66833 C 6566.96 -5.80038 2.18988 0
M  V30 66834 C 6569.01 -4.81925 1.25109 0
M  V30 66835 C 6567.72 -6.44532 3.1933 0
M  V30 66836 C 6569.74 -5.47217 2.24294 0
M  V30 66837 C 6569.1 -6.27383 3.20266 0
M  V30 66838 H 6565.2 -0.776924 -0.0889578 0
M  V30 66839 H 6567.79 -1.90623 0.396338 0
M  V30 66840 H 6565.96 -3.59234 -1.47666 0
M  V30 66841 H 6567.69 -3.81126 -1.36108 0
M  V30 66842 H 6564.45 -4.71509 0.444512 0
M  V30 66843 H 6564.87 -6.26934 2.55506 0
M  V30 66844 H 6569.51 -4.19554 0.522914 0
M  V30 66845 H 6567.23 -7.06054 3.93082 0
M  V30 66846 H 6570.82 -5.3542 2.27633 0
M  V30 66847 H 6569.7 -6.77011 3.9576 0
M  V30 66848 N 6567.2 -8.31064e-05 -1.576 0
M  V30 66849 C 6568.43 0.694722 -1.94569 0
M  V30 66850 C 6568.84 1.67833 -0.873433 0
M  V30 66851 O 6568.18 1.83034 0.156233 0
M  V30 66852 C 6568.24 1.48212 -3.27526 0
M  V30 66853 C 6567.91 0.660092 -4.52208 0
M  V30 66854 C 6568.9 -0.0522633 -5.19874 0
M  V30 66855 C 6566.59 0.606038 -4.98631 0
M  V30 66856 C 6568.58 -0.807657 -6.32262 0
M  V30 66857 C 6566.27 -0.153081 -6.10908 0
M  V30 66858 C 6567.27 -0.858662 -6.77581 0
M  V30 66859 O 6566.95 -1.6054 -7.87707 0
M  V30 66860 H 6566.69 0.198446 -0.646216 0
M  V30 66861 H 6569.24 -0.0473461 -2.05345 0
M  V30 66862 H 6567.47 2.26867 -3.13158 0
M  V30 66863 H 6569.16 2.06227 -3.49607 0
M  V30 66864 H 6569.93 -0.0196557 -4.84996 0
M  V30 66865 H 6565.8 1.14476 -4.4656 0
M  V30 66866 H 6569.35 -1.35892 -6.84236 0
M  V30 66867 H 6565.25 -0.187509 -6.45228 0
M  V30 66868 H 6566.01 -1.52211 -8.04223 0
M  V30 66869 N 6568.68 1.55223 0.272673 0
M  V30 66870 C 6569.62 1.88126 1.33706 0
M  V30 66871 C 6570.59 0.732788 1.49062 0
M  V30 66872 O 6571.78 0.984088 1.63464 0
M  V30 66873 C 6568.92 2.15896 2.69227 0
M  V30 66874 C 6568.03 3.43413 2.6209 0
M  V30 66875 C 6567.17 3.60882 3.89792 0
M  V30 66876 C 6566.21 4.8209 3.77167 0
M  V30 66877 N 6565.34 4.96215 4.96704 0
M  V30 66878 H 6570.18 2.78909 1.04947 0
M  V30 66879 H 6567.72 1.38086 0.507015 0
M  V30 66880 H 6569.68 2.29997 3.48077 0
M  V30 66881 H 6568.31 1.28347 2.96187 0
M  V30 66882 H 6567.36 3.37783 1.74949 0
M  V30 66883 H 6568.67 4.32399 2.48662 0
M  V30 66884 H 6567.83 3.74802 4.77083 0
M  V30 66885 H 6566.56 2.70082 4.06088 0
M  V30 66886 H 6565.57 4.68174 2.88259 0
M  V30 66887 H 6566.79 5.74326 3.6239 0
M  V30 66888 H 6564.74 4.08346 5.1341 0
M  V30 66889 H 6564.66 5.79247 4.85808 0
M  V30 66890 H 6565.93 5.14521 5.85567 0
M  V30 66891 N 6570.15 -0.5372 1.48162 0
M  V30 66892 C 6571.57 -0.865058 1.34123 0
M  V30 66893 C 6571.77 -1.98493 0.346783 0
M  V30 66894 O 6570.83 -2.51408 -0.234583 0
M  V30 66895 C 6572.14 -1.2394 2.7397 0
M  V30 66896 C 6573.69 -1.34969 2.82405 0
M  V30 66897 C 6574.16 -1.75749 4.22938 0
M  V30 66898 N 6575.65 -1.82865 4.25576 0
M  V30 66899 C 6576.39 -2.15789 5.31246 0
M  V30 66900 N 6575.88 -2.47187 6.47202 0
M  V30 66901 N 6577.68 -2.16734 5.18636 0
M  V30 66902 H 6569.83 0.201826 2.11439 0
M  V30 66903 H 6572.09 0.0276449 0.947597 0
M  V30 66904 H 6571.8 -0.490197 3.48267 0
M  V30 66905 H 6571.67 -2.19116 3.07031 0
M  V30 66906 H 6574.06 -2.08967 2.08367 0
M  V30 66907 H 6574.14 -0.379315 2.52972 0
M  V30 66908 H 6573.78 -1.02315 4.97488 0
M  V30 66909 H 6573.71 -2.73825 4.49808 0
M  V30 66910 H 6576.2 -1.60906 3.41932 0
M  V30 66911 H 6576.52 -2.71394 7.23578 0
M  V30 66912 H 6574.86 -2.44723 6.50489 0
M  V30 66913 H 6578.05 -1.91656 4.27066 0
M  V30 66914 H 6578.23 -2.42061 6.01091 0
M  V30 66915 N 6571.63 -1.36629 -0.785514 0
M  V30 66916 C 6573.05 -1.17127 -1.08413 0
M  V30 66917 C 6573.25 0.00197865 -2.015 0
M  V30 66918 O 6572.3 0.666149 -2.43554 0
M  V30 66919 C 6573.62 -2.48386 -1.69485 0
M  V30 66920 C 6575.17 -2.54784 -1.81808 0
M  V30 66921 C 6575.64 -3.86139 -2.46294 0
M  V30 66922 N 6577.13 -3.87506 -2.53759 0
M  V30 66923 C 6577.87 -4.85884 -3.04474 0
M  V30 66924 N 6577.36 -5.94655 -3.55467 0
M  V30 66925 N 6579.16 -4.733 -3.03222 0
M  V30 66926 H 6571.31 -2.11741 -0.167152 0
M  V30 66927 H 6573.57 -0.938082 -0.136771 0
M  V30 66928 H 6573.28 -3.34528 -1.08554 0
M  V30 66929 H 6573.15 -2.64476 -2.68946 0
M  V30 66930 H 6575.54 -1.69058 -2.41875 0
M  V30 66931 H 6575.62 -2.4259 -0.811404 0
M  V30 66932 H 6575.26 -4.72273 -1.8687 0
M  V30 66933 H 6575.19 -3.95631 -3.4754 0
M  V30 66934 H 6577.68 -3.08925 -2.17655 0
M  V30 66935 H 6578 -6.65689 -3.92527 0
M  V30 66936 H 6576.34 -5.98319 -3.53609 0
M  V30 66937 H 6579.53 -3.87452 -2.62676 0
M  V30 66938 H 6579.7 -5.50127 -3.42438 0
M  V30 66939 N 6573.11 1.01012 -1.20972 0
M  V30 66940 C 6574.36 1.7497 -1.02535 0
M  V30 66941 C 6574.69 1.89133 0.440701 0
M  V30 66942 O 6573.96 1.42191 1.3271 0
M  V30 66943 C 6574.25 3.16521 -1.71716 0
M  V30 66944 C 6574.1 3.10112 -3.25807 0
M  V30 66945 C 6575.42 4.15334 -1.45553 0
M  V30 66946 H 6572.54 0.635115 -0.373896 0
M  V30 66947 H 6575.18 1.17797 -1.49077 0
M  V30 66948 H 6573.33 3.65334 -1.32148 0
M  V30 66949 H 6575 2.69052 -3.74711 0
M  V30 66950 H 6573.25 2.47343 -3.56376 0
M  V30 66951 H 6573.92 4.10203 -3.69375 0
M  V30 66952 H 6576.39 3.75204 -1.79892 0
M  V30 66953 H 6575.27 5.1253 -1.9648 0
M  V30 66954 H 6575.53 4.40425 -0.38447 0
M  V30 66955 N 6574.59 1.01665 1.20424 0
M  V30 66956 C 6575.52 0.545105 2.22624 0
M  V30 66957 C 6576.53 -0.372525 1.58481 0
M  V30 66958 O 6577.72 -0.170865 1.7768 0
M  V30 66959 C 6574.82 -0.226451 3.38143 0
M  V30 66960 C 6574 0.693104 4.31874 0
M  V30 66961 C 6573.05 -0.0308841 5.26191 0
M  V30 66962 O 6572.08 0.591641 5.66117 0
M  V30 66963 N 6573.28 -1.30571 5.65625 0
M  V30 66964 H 6576.05 1.42401 2.63708 0
M  V30 66965 H 6573.61 0.894187 1.34966 0
M  V30 66966 H 6575.6 -0.72003 3.98243 0
M  V30 66967 H 6574.17 -1.00666 2.95948 0
M  V30 66968 H 6573.39 1.36699 3.69739 0
M  V30 66969 H 6574.68 1.3185 4.91419 0
M  V30 66970 H 6574.08 -1.83241 5.352 0
M  V30 66971 H 6572.63 -1.74402 6.28034 0
M  V30 66972 N 6576.07 -1.36202 0.792892 0
M  V30 66973 C 6577.31 -1.98755 0.366166 0
M  V30 66974 C 6577.64 -1.63237 -1.06671 0
M  V30 66975 O 6576.91 -0.90807 -1.73583 0
M  V30 66976 H 6575.49 -0.735172 0.132402 0
M  V30 66977 H 6578.15 -1.66341 1.0157 0
M  V30 66978 H 6577.24 -3.0868 0.460801 0
M  V30 66979 N 6577.55 -0.545206 -1.47869 0
M  V30 66980 C 6578.51 0.198597 -2.28338 0
M  V30 66981 C 6579.51 0.853816 -1.36259 0
M  V30 66982 O 6580.7 0.711522 -1.59006 0
M  V30 66983 C 6577.83 1.28899 -3.15591 0
M  V30 66984 H 6579.02 -0.508097 -2.95565 0
M  V30 66985 H 6576.58 -0.301697 -1.53361 0
M  V30 66986 H 6577.31 2.02846 -2.5303 0
M  V30 66987 H 6577.1 0.824107 -3.83342 0
M  V30 66988 H 6578.59 1.81174 -3.76252 0
M  V30 66989 N 6579.02 1.55073 -0.281065 0
M  V30 66990 C 6579.97 2.22761 0.603819 0
M  V30 66991 C 6580.94 1.20315 1.14514 0
M  V30 66992 O 6582.13 1.48875 1.19335 0
M  V30 66993 C 6579.27 2.95693 1.77931 0
M  V30 66994 C 6578.38 4.12871 1.27128 0
M  V30 66995 C 6577.51 4.73432 2.40905 0
M  V30 66996 C 6576.55 5.82792 1.87135 0
M  V30 66997 N 6575.69 6.37392 2.94407 0
M  V30 66998 H 6580.53 2.97993 0.0199668 0
M  V30 66999 H 6578.07 1.471 -0.00191182 0
M  V30 67000 H 6580.02 3.36197 2.47037 0
M  V30 67001 H 6578.65 2.22874 2.3351 0
M  V30 67002 H 6577.71 3.77446 0.473132 0
M  V30 67003 H 6579.02 4.91719 0.837492 0
M  V30 67004 H 6578.17 5.16687 3.17993 0
M  V30 67005 H 6576.91 3.93874 2.87602 0
M  V30 67006 H 6575.92 5.38982 1.08528 0
M  V30 67007 H 6577.14 6.64223 1.41366 0
M  V30 67008 H 6575.09 5.60725 3.40475 0
M  V30 67009 H 6575 7.1153 2.55463 0
M  V30 67010 H 6576.27 6.85305 3.71453 0
M  V30 67011 N 6580.5 0.00844102 1.57598 0
M  V30 67012 C 6581.75 -0.673299 1.90555 0
M  V30 67013 C 6582.07 -1.73842 0.883393 0
M  V30 67014 O 6581.34 -1.95744 -0.0780409 0
M  V30 67015 H 6579.92 -0.251679 0.703325 0
M  V30 67016 H 6582.58 0.0513619 1.94832 0
M  V30 67017 H 6581.68 -1.1392 2.90566 0
M  V30 67018 N 6581.98 -1.55366 -0.264437 0
M  V30 67019 C 6583.23 -1.76375 -0.994893 0
M  V30 67020 C 6583.55 -0.569598 -1.85973 0
M  V30 67021 O 6582.81 0.44766 -1.90511 0
M  V30 67022 C 6583.11 -3.02697 -1.90024 0
M  V30 67023 C 6582.77 -4.34853 -1.19221 0
M  V30 67024 C 6581.44 -4.7077 -0.996461 0
M  V30 67025 C 6583.79 -5.16625 -0.689024 0
M  V30 67026 C 6581.12 -5.86008 -0.284952 0
M  V30 67027 C 6583.47 -6.32599 0.00893438 0
M  V30 67028 C 6582.13 -6.67149 0.216314 0
M  V30 67029 H 6581.4 -0.645402 -0.364057 0
M  V30 67030 H 6584.05 -1.89637 -0.266443 0
M  V30 67031 H 6582.35 -2.84372 -2.69518 0
M  V30 67032 H 6584.05 -3.1615 -2.46679 0
M  V30 67033 H 6580.64 -4.06628 -1.35469 0
M  V30 67034 H 6584.83 -4.89347 -0.82785 0
M  V30 67035 H 6580.08 -6.11294 -0.113638 0
M  V30 67036 H 6584.26 -6.95212 0.406552 0
M  V30 67037 H 6581.88 -7.56294 0.769616 0
M  V30 67038 N 6583.46 0.529335 -1.48445 0
M  V30 67039 C 6584.39 1.64981 -1.59104 0
M  V30 67040 C 6585.4 1.55707 -0.475295 0
M  V30 67041 O 6586.59 1.62156 -0.746166 0
M  V30 67042 C 6583.69 3.03632 -1.50534 0
M  V30 67043 C 6582.86 3.38381 -2.77159 0
M  V30 67044 C 6581.92 4.56315 -2.62036 0
M  V30 67045 O 6580.95 4.59505 -3.35923 0
M  V30 67046 N 6582.15 5.54527 -1.71696 0
M  V30 67047 H 6584.92 1.56274 -2.55731 0
M  V30 67048 H 6582.48 0.716621 -1.45176 0
M  V30 67049 H 6584.47 3.80404 -1.38111 0
M  V30 67050 H 6583.04 3.06414 -0.618788 0
M  V30 67051 H 6582.26 2.5078 -3.04143 0
M  V30 67052 H 6583.55 3.58382 -3.61164 0
M  V30 67053 H 6582.95 5.54729 -1.1087 0
M  V30 67054 H 6581.5 6.30514 -1.65211 0
M  V30 67055 N 6584.94 1.37043 0.778257 0
M  V30 67056 C 6585.89 1.28799 1.88135 0
M  V30 67057 C 6586.87 0.177147 1.59922 0
M  V30 67058 O 6588.06 0.410964 1.72163 0
M  V30 67059 C 6585.19 1.09072 3.25512 0
M  V30 67060 C 6584.28 2.24673 3.59699 0
M  V30 67061 N 6584.67 3.50037 3.65113 0
M  V30 67062 C 6582.97 2.16684 3.89826 0
M  V30 67063 C 6583.67 4.26228 3.9586 0
M  V30 67064 N 6582.64 3.55293 4.11422 0
M  V30 67065 H 6586.44 2.23747 1.90563 0
M  V30 67066 H 6583.96 1.29923 0.974366 0
M  V30 67067 H 6585.96 1.01252 4.04418 0
M  V30 67068 H 6584.62 0.150352 3.24352 0
M  V30 67069 H 6585.63 3.84029 3.4748 0
M  V30 67070 H 6582.3 1.30666 3.96526 0
M  V30 67071 H 6583.69 5.34695 4.06879 0
M  V30 67072 N 6586.41 -1.00369 1.21506 0
M  V30 67073 C 6587.35 -2.09338 0.933284 0
M  V30 67074 C 6588.36 -1.62583 -0.0840039 0
M  V30 67075 O 6589.55 -1.7788 0.148657 0
M  V30 67076 C 6586.65 -3.36762 0.380047 0
M  V30 67077 C 6585.82 -4.12597 1.45198 0
M  V30 67078 C 6584.88 -5.18311 0.907749 0
M  V30 67079 O 6583.91 -5.46498 1.59148 0
M  V30 67080 N 6585.11 -5.79842 -0.276343 0
M  V30 67081 H 6587.87 -2.34094 1.87136 0
M  V30 67082 H 6585.43 -1.16862 1.12049 0
M  V30 67083 H 6587.43 -4.047 0.00152829 0
M  V30 67084 H 6586 -3.09154 -0.462885 0
M  V30 67085 H 6585.22 -3.39444 2.00429 0
M  V30 67086 H 6586.5 -4.60039 2.17352 0
M  V30 67087 H 6585.9 -5.59295 -0.848853 0
M  V30 67088 H 6584.46 -6.49066 -0.596359 0
M  V30 67089 N 6587.89 -1.02302 -1.19883 0
M  V30 67090 C 6589.31 -0.739029 -1.41459 0
M  V30 67091 C 6589.51 0.678746 -1.89724 0
M  V30 67092 O 6588.56 1.44559 -2.07024 0
M  V30 67093 C 6589.88 -1.77018 -2.43074 0
M  V30 67094 C 6591.42 -1.78906 -2.5683 0
M  V30 67095 C 6591.9 -2.80965 -3.61695 0
M  V30 67096 N 6593.39 -2.79745 -3.69185 0
M  V30 67097 C 6594.13 -3.55369 -4.5 0
M  V30 67098 N 6593.62 -4.4069 -5.34569 0
M  V30 67099 N 6595.41 -3.43937 -4.44594 0
M  V30 67100 H 6587.57 -1.93822 -0.868725 0
M  V30 67101 H 6589.83 -0.837625 -0.443946 0
M  V30 67102 H 6589.53 -2.78623 -2.14621 0
M  V30 67103 H 6589.41 -1.58762 -3.42161 0
M  V30 67104 H 6591.8 -0.779824 -2.8461 0
M  V30 67105 H 6591.88 -2.01236 -1.57917 0
M  V30 67106 H 6591.52 -3.82056 -3.34658 0
M  V30 67107 H 6591.45 -2.55894 -4.60245 0
M  V30 67108 H 6593.94 -2.17858 -3.08782 0
M  V30 67109 H 6594.25 -4.95147 -5.93337 0
M  V30 67110 H 6592.6 -4.44766 -5.34049 0
M  V30 67111 H 6595.79 -2.76698 -3.77565 0
M  V30 67112 H 6595.96 -4.03127 -5.07339 0
M  V30 67113 N 6589.37 1.3578 -0.800104 0
M  V30 67114 C 6590.3 2.27696 -0.151619 0
M  V30 67115 C 6591.28 1.47763 0.678585 0
M  V30 67116 O 6592.46 1.77039 0.647265 0
M  V30 67117 C 6589.59 3.2935 0.790318 0
M  V30 67118 C 6588.64 4.26481 0.0405583 0
M  V30 67119 S 6589.47 5.19704 -1.29104 0
M  V30 67120 C 6590.63 6.24902 -0.353385 0
M  V30 67121 H 6590.86 2.82349 -0.930945 0
M  V30 67122 H 6588.39 1.42482 -0.594842 0
M  V30 67123 H 6590.35 3.88416 1.32829 0
M  V30 67124 H 6589.01 2.73589 1.54298 0
M  V30 67125 H 6588.2 4.98302 0.755708 0
M  V30 67126 H 6587.81 3.71551 -0.427259 0
M  V30 67127 H 6590.1 6.75911 0.46379 0
M  V30 67128 H 6591.04 7.00412 -1.0406 0
M  V30 67129 H 6591.45 5.6448 0.0480367 0
M  V30 67130 N 6590.85 0.55304 1.47578 0
M  V30 67131 C 6592.08 0.0321647 2.06875 0
M  V30 67132 C 6592.49 -1.25969 1.40632 0
M  V30 67133 O 6591.85 -1.75476 0.501442 0
M  V30 67134 C 6591.9 -0.17148 3.61093 0
M  V30 67135 O 6591.62 1.06921 4.24852 0
M  V30 67136 C 6593.12 -0.730113 4.37246 0
M  V30 67137 H 6590.34 0.0439503 0.669559 0
M  V30 67138 H 6592.88 0.765263 1.89642 0
M  V30 67139 H 6591.04 -0.854694 3.77854 0
M  V30 67140 H 6591.45 0.864331 5.17329 0
M  V30 67141 H 6592.93 -0.821915 5.45847 0
M  V30 67142 H 6593.4 -1.74043 4.03244 0
M  V30 67143 H 6594.01 -0.08273 4.2522 0
M  V30 67144 N 6592.33 -1.54922 0.289285 0
M  V30 67145 C 6593.27 -2.24517 -0.607847 0
M  V30 67146 C 6594.27 -1.24708 -1.14649 0
M  V30 67147 O 6595.47 -1.42595 -1.09848 0
M  V30 67148 H 6591.85 -0.720729 -0.214602 0
M  V30 67149 H 6593.82 -2.984 0.00179918 0
M  V30 67150 C 6592.57 -2.99045 -1.7739 0
M  V30 67151 H 6591.89 -3.75644 -1.36864 0
M  V30 67152 H 6593.33 -3.51041 -2.37795 0
M  V30 67153 C 6591.79 -2.05332 -2.67096 0
M  V30 67154 O 6592.32 -1.61373 -3.67861 0
M  V30 67155 N 6590.53 -1.71534 -2.34573 0
M  V30 67156 H 6590.07 -2.07479 -1.52677 0
M  V30 67157 H 6590.03 -1.09105 -2.94862 0
M  V30 67158 N 6593.8 -0.0167987 -1.57591 0
M  V30 67159 C 6595.05 0.663184 -1.90909 0
M  V30 67160 C 6595.37 1.73371 -0.8926 0
M  V30 67161 O 6594.64 1.95783 0.067659 0
M  V30 67162 H 6593.22 0.247946 -0.70465 0
M  V30 67163 H 6595.89 -0.0616936 -1.94802 0
M  V30 67164 H 6594.98 1.12377 -2.91166 0
M  V30 67165 N 6595.28 1.55504 0.256194 0
M  V30 67166 C 6596.25 1.88741 1.30037 0
M  V30 67167 C 6597.25 0.76316 1.41536 0
M  V30 67168 O 6598.44 1.03123 1.40397 0
M  V30 67169 C 6595.57 2.10761 2.67942 0
M  V30 67170 H 6596.76 2.82098 1.01788 0
M  V30 67171 H 6594.31 1.48253 0.495056 0
M  V30 67172 H 6595.05 1.19841 3.01345 0
M  V30 67173 H 6594.83 2.92631 2.60978 0
M  V30 67174 H 6596.32 2.37691 3.43355 0
M  V30 67175 N 6596.76 -0.521455 1.48723 0
M  V30 67176 C 6597.69 -1.64213 1.58459 0
M  V30 67177 C 6598.67 -1.56684 0.434596 0
M  V30 67178 O 6599.86 -1.77035 0.647368 0
M  V30 67179 C 6596.98 -3.02651 1.52053 0
M  V30 67180 C 6596.03 -3.2851 2.71999 0
M  V30 67181 S 6596.86 -3.13853 4.33886 0
M  V30 67182 C 6598.02 -4.54722 4.30091 0
M  V30 67183 H 6598.25 -1.55706 2.53265 0
M  V30 67184 H 6595.78 -0.70507 1.37361 0
M  V30 67185 H 6597.74 -3.82487 1.49043 0
M  V30 67186 H 6596.4 -3.08591 0.585703 0
M  V30 67187 H 6595.6 -4.29523 2.63678 0
M  V30 67188 H 6595.2 -2.5636 2.72315 0
M  V30 67189 H 6597.49 -5.46412 4.0055 0
M  V30 67190 H 6598.43 -4.68095 5.31312 0
M  V30 67191 H 6598.84 -4.34444 3.60442 0
M  V30 67192 N 6598.24 -1.37454 -0.770978 0
M  V30 67193 C 6599.19 -1.33368 -1.90567 0
M  V30 67194 C 6600.18 -0.222329 -1.67935 0
M  V30 67195 O 6601.39 -0.390397 -1.75715 0
M  V30 67196 H 6597.76 -0.415645 -0.626692 0
M  V30 67197 H 6599.73 -2.29154 -1.9113 0
M  V30 67198 C 6598.48 -1.1583 -3.27839 0
M  V30 67199 H 6597.8 -2.00601 -3.45831 0
M  V30 67200 H 6599.24 -1.17022 -4.07531 0
M  V30 67201 C 6597.7 0.135988 -3.36625 0
M  V30 67202 O 6598.23 1.11929 -3.85791 0
M  V30 67203 N 6596.44 0.186946 -2.89998 0
M  V30 67204 H 6595.99 -0.613885 -2.50178 0
M  V30 67205 H 6595.94 1.05256 -2.96258 0
M  V30 67206 N 6599.72 0.997234 -1.22037 0
M  V30 67207 C 6600.96 1.73872 -1.04385 0
M  V30 67208 C 6601.3 1.8959 0.420616 0
M  V30 67209 O 6600.57 1.4359 1.31195 0
M  V30 67210 C 6600.85 3.14682 -1.75063 0
M  V30 67211 C 6600.71 3.06639 -3.29078 0
M  V30 67212 C 6602.03 4.13767 -1.4995 0
M  V30 67213 H 6599.14 0.631113 -0.380612 0
M  V30 67214 H 6601.79 1.16209 -1.50318 0
M  V30 67215 H 6599.94 3.63912 -1.36015 0
M  V30 67216 H 6601.61 2.65063 -3.77544 0
M  V30 67217 H 6599.85 2.43549 -3.58979 0
M  V30 67218 H 6600.52 4.06262 -3.73705 0
M  V30 67219 H 6603 3.73275 -1.83862 0
M  V30 67220 H 6601.87 5.10417 -2.01905 0
M  V30 67221 H 6602.14 4.39993 -0.431161 0
M  V30 67222 N 6601.19 1.02936 1.19339 0
M  V30 67223 C 6602.1 0.620634 2.26242 0
M  V30 67224 C 6603.12 -0.347838 1.70488 0
M  V30 67225 O 6604.3 -0.205598 2.00348 0
M  V30 67226 C 6601.36 -0.0217129 3.46693 0
M  V30 67227 C 6600.42 0.994322 4.17626 0
M  V30 67228 C 6599.66 0.382533 5.32327 0
M  V30 67229 O 6599.88 -0.814378 5.64556 0
M  V30 67230 O 6598.81 1.10562 5.91658 0
M  V30 67231 H 6602.64 1.51097 2.63445 0
M  V30 67232 H 6600.22 0.79958 1.26203 0
M  V30 67233 H 6602.11 -0.379851 4.19685 0
M  V30 67234 H 6600.78 -0.886045 3.11337 0
M  V30 67235 H 6599.69 1.40406 3.46752 0
M  V30 67236 H 6601.02 1.82904 4.56954 0
M  V30 67237 N 6602.67 -1.35353 0.807294 0
M  V30 67238 C 6603.92 -1.98002 0.38448 0
M  V30 67239 C 6604.23 -1.6476 -1.05421 0
M  V30 67240 O 6605.44 -2.20778 -1.58018 0
M  V30 67241 C 6603.9 -3.54227 0.636513 0
M  V30 67242 C 6603.5 -3.96377 2.0878 0
M  V30 67243 C 6605.25 -4.23582 0.279092 0
M  V30 67244 C 6603.16 -5.45451 2.28554 0
M  V30 67245 H 6602.09 -0.740884 0.140025 0
M  V30 67246 H 6604.74 -1.5441 0.99145 0
M  V30 67247 H 6603.12 -3.95979 -0.0404168 0
M  V30 67248 H 6604.29 -3.65775 2.80259 0
M  V30 67249 H 6602.61 -3.39914 2.40515 0
M  V30 67250 H 6605.2 -5.33165 0.40488 0
M  V30 67251 H 6605.55 -4.09026 -0.774796 0
M  V30 67252 H 6606.08 -3.87252 0.909968 0
M  V30 67253 H 6602.82 -5.64975 3.32391 0
M  V30 67254 H 6602.34 -5.77621 1.616 0
M  V30 67255 H 6604.02 -6.11923 2.10142 0
M  V30 67256 N 6604.15 -0.560859 -1.47283 0
M  V30 67257 C 6605.4 -0.0380934 -2.02064 0
M  V30 67258 C 6605.72 1.31795 -1.43718 0
M  V30 67259 O 6604.99 1.86038 -0.613718 0
M  V30 67260 H 6603.57 -0.0110925 -0.746918 0
M  V30 67261 H 6606.23 -0.731694 -1.80644 0
M  V30 67262 H 6605.33 0.0472817 -3.12064 0
M  V30 67263 N 6605.63 1.54767 -0.297496 0
M  V30 67264 C 6606.58 2.24836 0.595932 0
M  V30 67265 C 6607.57 1.25314 1.13986 0
M  V30 67266 O 6608.78 1.43176 1.0909 0
M  V30 67267 H 6605.15 0.721857 0.210776 0
M  V30 67268 H 6607.12 2.98395 -0.017624 0
M  V30 67269 C 6605.87 2.99982 1.75802 0
M  V30 67270 H 6605.19 3.76364 1.3487 0
M  V30 67271 H 6606.63 3.52297 2.3593 0
M  V30 67272 C 6605.09 2.06746 2.66003 0
M  V30 67273 O 6605.62 1.63321 3.67 0
M  V30 67274 N 6603.83 1.72775 2.3366 0
M  V30 67275 H 6603.38 2.08285 1.51575 0
M  V30 67276 H 6603.33 1.10667 2.94279 0
M  V30 67277 N 6607.11 0.0251559 1.5758 0
M  V30 67278 C 6608.52 -0.514229 1.79479 0
M  V30 67279 C 6608.87 -1.72486 0.935047 0
M  V30 67280 O 6607.99 -2.15918 0.144359 0
M  V30 67281 C 6608.59 -0.93967 3.25508 0
M  V30 67282 C 6607.15 -1.42419 3.48416 0
M  V30 67283 C 6606.3 -0.387056 2.74585 0
M  V30 67284 H 6609.25 0.251212 1.56699 0
M  V30 67285 H 6609.27 -1.80427 3.35002 0
M  V30 67286 H 6608.78 -0.0583582 3.88056 0
M  V30 67287 H 6606.88 -2.32557 2.91115 0
M  V30 67288 H 6606.99 -1.43431 4.57126 0
M  V30 67289 H 6605.36 -0.854282 2.39946 0
M  V30 67290 H 6606.14 0.485722 3.39846 0
M  V30 67291 N 6608.59 -1.55637 -0.247944 0
M  V30 67292 C 6609.81 -1.81474 -0.993712 0
M  V30 67293 C 6610.23 -0.600735 -1.78988 0
M  V30 67294 O 6609.59 0.430589 -1.77348 0
M  V30 67295 C 6609.64 -3.05516 -1.93242 0
M  V30 67296 O 6609.36 -4.2223 -1.16847 0
M  V30 67297 C 6610.86 -3.44145 -2.79426 0
M  V30 67298 H 6608.08 -0.603913 -0.292455 0
M  V30 67299 H 6610.62 -2.02694 -0.271146 0
M  V30 67300 H 6608.78 -2.86349 -2.60928 0
M  V30 67301 H 6609.19 -4.92524 -1.80333 0
M  V30 67302 H 6610.67 -4.34044 -3.41043 0
M  V30 67303 H 6611.14 -2.64683 -3.50485 0
M  V30 67304 H 6611.75 -3.65659 -2.17194 0
M  V30 67305 N 6610.06 0.513561 -1.48998 0
M  V30 67306 C 6611.29 1.29092 -1.61304 0
M  V30 67307 C 6611.7 1.87135 -0.278754 0
M  V30 67308 O 6611.04 1.67949 0.744236 0
M  V30 67309 C 6611.11 2.46865 -2.61339 0
M  V30 67310 C 6610.77 2.09786 -4.06004 0
M  V30 67311 C 6611.77 1.64493 -4.93192 0
M  V30 67312 C 6609.45 2.19805 -4.51654 0
M  V30 67313 C 6611.45 1.29707 -6.24063 0
M  V30 67314 C 6609.13 1.84631 -5.82542 0
M  V30 67315 C 6610.13 1.39655 -6.6857 0
M  V30 67316 O 6609.82 1.0495 -7.9702 0
M  V30 67317 H 6609.55 0.398221 -0.546257 0
M  V30 67318 H 6612.11 0.624487 -1.95677 0
M  V30 67319 H 6610.34 3.16543 -2.22121 0
M  V30 67320 H 6612.02 3.08909 -2.63306 0
M  V30 67321 H 6612.79 1.56208 -4.59156 0
M  V30 67322 H 6608.67 2.53766 -3.84869 0
M  V30 67323 H 6612.21 0.945294 -6.91166 0
M  V30 67324 H 6608.11 1.92561 -6.16109 0
M  V30 67325 H 6608.88 1.18206 -8.09919 0
M  V30 67326 N 6611.54 1.37861 0.763678 0
M  V30 67327 C 6612.49 1.34277 1.87719 0
M  V30 67328 C 6613.46 0.206966 1.64806 0
M  V30 67329 O 6614.64 0.397607 1.86611 0
M  V30 67330 C 6611.78 1.16363 3.2489 0
M  V30 67331 C 6610.9 2.39244 3.59703 0
M  V30 67332 C 6610.03 2.14139 4.86125 0
M  V30 67333 C 6609.07 3.32844 5.13694 0
M  V30 67334 N 6608.21 3.07239 6.31307 0
M  V30 67335 H 6613.05 2.29476 1.90117 0
M  V30 67336 H 6610.58 1.14022 0.929372 0
M  V30 67337 H 6612.54 1.03996 4.04031 0
M  V30 67338 H 6611.17 0.248078 3.21845 0
M  V30 67339 H 6610.22 2.62321 2.75484 0
M  V30 67340 H 6611.54 3.27747 3.76009 0
M  V30 67341 H 6610.69 1.9885 5.73187 0
M  V30 67342 H 6609.43 1.22986 4.71938 0
M  V30 67343 H 6608.43 3.48664 4.25104 0
M  V30 67344 H 6609.66 4.2486 5.29784 0
M  V30 67345 H 6607.61 2.18723 6.18463 0
M  V30 67346 H 6607.52 3.89288 6.48067 0
M  V30 67347 H 6608.79 2.95584 7.21284 0
M  V30 67348 N 6613.02 -0.990748 1.22564 0
M  V30 67349 C 6613.95 -2.07901 0.940883 0
M  V30 67350 C 6614.93 -1.62179 -0.116997 0
M  V30 67351 O 6616.11 -1.88494 0.01505 0
M  V30 67352 C 6613.24 -3.36142 0.415498 0
M  V30 67353 C 6612.29 -4.00791 1.45839 0
M  V30 67354 S 6613.12 -4.41366 3.03242 0
M  V30 67355 C 6614.28 -5.72775 2.52348 0
M  V30 67356 H 6614.51 -2.31735 1.86242 0
M  V30 67357 H 6612.04 -1.12553 1.05694 0
M  V30 67358 H 6614 -4.10328 0.118963 0
M  V30 67359 H 6612.66 -3.10334 -0.484957 0
M  V30 67360 H 6611.85 -4.93138 1.0407 0
M  V30 67361 H 6611.46 -3.3294 1.70374 0
M  V30 67362 H 6613.75 -6.49213 1.93722 0
M  V30 67363 H 6614.69 -6.19374 3.43194 0
M  V30 67364 H 6615.1 -5.30279 1.93557 0
M  V30 67365 N 6614.5 -1.03568 -1.18792 0
M  V30 67366 C 6615.73 -0.754874 -1.92315 0
M  V30 67367 C 6616.14 0.691155 -1.76124 0
M  V30 67368 O 6615.48 1.48236 -1.08498 0
M  V30 67369 C 6615.54 -1.03503 -3.44278 0
M  V30 67370 C 6615.2 -2.47396 -3.84245 0
M  V30 67371 C 6616.2 -3.45557 -3.88441 0
M  V30 67372 C 6613.89 -2.81976 -4.15686 0
M  V30 67373 C 6615.88 -4.76351 -4.2352 0
M  V30 67374 C 6613.57 -4.12977 -4.50436 0
M  V30 67375 C 6614.57 -5.09975 -4.54329 0
M  V30 67376 O 6614.25 -6.38629 -4.88271 0
M  V30 67377 H 6613.99 -0.275054 -0.617512 0
M  V30 67378 H 6616.54 -1.38505 -1.51676 0
M  V30 67379 H 6614.77 -0.347716 -3.85134 0
M  V30 67380 H 6616.46 -0.74281 -3.99045 0
M  V30 67381 H 6617.22 -3.20181 -3.64293 0
M  V30 67382 H 6613.1 -2.07152 -4.11836 0
M  V30 67383 H 6616.65 -5.52057 -4.26472 0
M  V30 67384 H 6612.54 -4.38124 -4.74044 0
M  V30 67385 H 6613.31 -6.43204 -5.06193 0
M  V30 67386 N 6615.98 1.34923 -0.814461 0
M  V30 67387 C 6616.89 2.33449 -0.232101 0
M  V30 67388 C 6617.9 1.62231 0.629054 0
M  V30 67389 O 6619.08 1.94055 0.53895 0
M  V30 67390 C 6616.14 3.41411 0.603302 0
M  V30 67391 C 6615.2 4.28391 -0.279263 0
M  V30 67392 C 6614.44 5.31196 0.516363 0
M  V30 67393 O 6614.66 5.42879 1.75039 0
M  V30 67394 O 6613.59 6.01822 -0.0968826 0
M  V30 67395 H 6617.42 2.85069 -1.04736 0
M  V30 67396 H 6615 1.37833 -0.576416 0
M  V30 67397 H 6616.89 4.07355 1.07887 0
M  V30 67398 H 6615.56 2.92049 1.39603 0
M  V30 67399 H 6614.47 3.65399 -0.802141 0
M  V30 67400 H 6615.8 4.81171 -1.03613 0
M  V30 67401 N 6617.45 0.568661 1.46983 0
M  V30 67402 C 6618.7 0.0488088 2.02041 0
M  V30 67403 C 6619.02 -1.31031 1.44415 0
M  V30 67404 O 6618.29 -1.8571 0.623575 0
M  V30 67405 H 6616.87 0.0150534 0.746848 0
M  V30 67406 H 6619.53 0.741263 1.80253 0
M  V30 67407 H 6618.63 -0.0307315 3.12085 0
M  V30 67408 N 6618.93 -1.54607 0.3057 0
M  V30 67409 C 6620.18 -1.99837 -0.301596 0
M  V30 67410 C 6620.5 -1.19559 -1.54048 0
M  V30 67411 O 6619.77 -0.292761 -1.937 0
M  V30 67412 H 6618.35 -0.738184 -0.114429 0
M  V30 67413 H 6621.01 -1.90362 0.418117 0
M  V30 67414 H 6620.11 -3.06844 -0.570386 0
M  V30 67415 N 6620.41 -0.0335124 -1.57564 0
M  V30 67416 C 6621.32 0.962459 -2.13948 0
M  V30 67417 C 6622.34 1.354 -1.09283 0
M  V30 67418 O 6623.51 1.43452 -1.41363 0
M  V30 67419 C 6620.58 2.22483 -2.65899 0
M  V30 67420 C 6619.64 1.8933 -3.85296 0
M  V30 67421 C 6618.87 3.09548 -4.34759 0
M  V30 67422 O 6619.09 4.22351 -3.83375 0
M  V30 67423 O 6618.03 2.9159 -5.26554 0
M  V30 67424 H 6621.85 0.513011 -2.99336 0
M  V30 67425 H 6619.44 0.187352 -1.48221 0
M  V30 67426 H 6621.32 2.96582 -2.99361 0
M  V30 67427 H 6620 2.666 -1.83592 0
M  V30 67428 H 6618.9 1.12602 -3.56752 0
M  V30 67429 H 6620.24 1.50025 -4.68778 0
M  V30 67430 N 6621.89 1.55767 0.239687 0
M  V30 67431 C 6623.3 1.68302 0.808175 0
M  V30 67432 C 6623.65 0.632279 1.85733 0
M  V30 67433 O 6622.78 -0.22009 2.15278 0
M  V30 67434 C 6623.37 3.05119 1.47268 0
M  V30 67435 C 6621.93 3.19569 1.98878 0
M  V30 67436 C 6621.08 2.64194 0.842435 0
M  V30 67437 H 6624.03 1.58693 0.0153585 0
M  V30 67438 H 6624.05 2.99966 2.34095 0
M  V30 67439 H 6623.56 3.81572 0.708852 0
M  V30 67440 H 6621.66 2.47953 2.78119 0
M  V30 67441 H 6621.77 4.26568 2.18121 0
M  V30 67442 H 6620.14 2.22204 1.24489 0
M  V30 67443 H 6620.92 3.43178 0.0915743 0
M  V30 67444 N 6623.37 -0.505652 1.49268 0
M  V30 67445 C 6624.64 -1.26699 1.49019 0
M  V30 67446 C 6625.02 -2.09999 0.215316 0
M  V30 67447 O 6624.37 -2.13947 -0.802434 0
M  V30 67448 C 6624.58 -2.12769 2.76642 0
M  V30 67449 C 6625.93 -2.7211 3.25947 0
M  V30 67450 O 6626.95 -2.23039 2.77727 0
M  V30 67451 O 6625.81 -3.6143 4.09916 0
M  V30 67452 H 6622.91 -0.573099 0.596227 0
M  V30 67453 H 6625.45 -0.520304 1.61527 0
M  V30 67454 H 6624.22 -1.51161 3.60924 0
M  V30 67455 H 6623.85 -2.94638 2.66972 0
M  V30 67456 N 6624.84 -1.38264 -0.756356 0
M  V30 67457 C 6626.12 -1.24843 -1.50578 0
M  V30 67458 C 6626.5 0.151374 -2.10557 0
M  V30 67459 O 6625.85 1.1606 -1.96831 0
M  V30 67460 C 6626.06 -2.35644 -2.57436 0
M  V30 67461 C 6627.41 -2.73934 -3.24415 0
M  V30 67462 O 6628.43 -2.34935 -2.67739 0
M  V30 67463 O 6627.29 -3.41178 -4.26919 0
M  V30 67464 H 6624.38 -0.488045 -0.667638 0
M  V30 67465 H 6626.93 -1.50085 -0.792004 0
M  V30 67466 H 6625.7 -3.29316 -2.11344 0
M  V30 67467 H 6625.33 -2.11951 -3.36397 0
M  V30 67468 N 6626.32 0.984234 -1.23088 0
M  V30 67469 C 6627.57 1.72755 -1.06223 0
M  V30 67470 C 6627.9 1.90026 0.400483 0
M  V30 67471 O 6627.18 1.44974 1.29664 0
M  V30 67472 C 6627.46 3.12808 -1.78391 0
M  V30 67473 C 6627.31 3.03132 -3.32312 0
M  V30 67474 C 6628.63 4.12153 -1.5433 0
M  V30 67475 H 6625.75 0.627041 -0.387284 0
M  V30 67476 H 6628.39 1.14608 -1.51542 0
M  V30 67477 H 6626.54 3.62449 -1.39867 0
M  V30 67478 H 6628.21 2.61044 -3.80334 0
M  V30 67479 H 6626.46 2.39728 -3.61542 0
M  V30 67480 H 6627.13 4.02275 -3.77993 0
M  V30 67481 H 6629.6 3.71304 -1.8781 0
M  V30 67482 H 6628.48 5.08247 -2.07308 0
M  V30 67483 H 6628.74 4.3951 -0.477804 0
M  V30 67484 N 6627.8 1.04196 1.18241 0
M  V30 67485 C 6629.05 0.744642 1.87882 0
M  V30 67486 C 6629.37 -0.729911 1.80824 0
M  V30 67487 O 6628.64 -1.52678 1.22744 0
M  V30 67488 H 6627.22 0.272454 0.695541 0
M  V30 67489 H 6629.88 1.31899 1.43487 0
M  V30 67490 H 6628.98 1.05065 2.93884 0
M  V30 67491 N 6629.28 -1.34489 0.821604 0
M  V30 67492 C 6630.53 -1.97934 0.408243 0
M  V30 67493 C 6630.85 -1.65463 -1.03184 0
M  V30 67494 O 6630.12 -0.944685 -1.71617 0
M  V30 67495 H 6628.7 -0.732199 0.147967 0
M  V30 67496 H 6631.36 -1.6415 1.05076 0
M  V30 67497 H 6630.46 -3.07633 0.526173 0
M  V30 67498 N 6630.76 -0.576448 -1.46679 0
M  V30 67499 C 6631.69 0.148274 -2.33029 0
M  V30 67500 C 6632.67 0.889879 -1.44966 0
M  V30 67501 O 6633.85 0.866571 -1.73794 0
M  V30 67502 C 6630.98 1.16653 -3.27123 0
M  V30 67503 C 6629.94 0.540162 -4.24578 0
M  V30 67504 C 6629.26 1.66443 -5.08135 0
M  V30 67505 C 6630.56 -0.518605 -5.19719 0
M  V30 67506 H 6632.26 -0.572664 -2.93872 0
M  V30 67507 H 6629.8 -0.276843 -1.41314 0
M  V30 67508 H 6631.76 1.68184 -3.86383 0
M  V30 67509 H 6630.48 1.91766 -2.64374 0
M  V30 67510 H 6629.14 0.0459836 -3.66571 0
M  V30 67511 H 6628.79 2.40508 -4.41775 0
M  V30 67512 H 6628.49 1.25101 -5.74128 0
M  V30 67513 H 6630.01 2.18263 -5.70257 0
M  V30 67514 H 6631.42 -0.0886081 -5.73232 0
M  V30 67515 H 6629.82 -0.851992 -5.94021 0
M  V30 67516 H 6630.89 -1.40728 -4.6403 0
M  V30 67517 N 6632.23 1.54442 -0.313895 0
M  V30 67518 C 6633.16 2.26946 0.549335 0
M  V30 67519 C 6634.15 1.27378 1.12734 0
M  V30 67520 O 6635.33 1.56173 1.15427 0
M  V30 67521 C 6632.46 3.01998 1.71507 0
M  V30 67522 C 6631.41 4.08822 1.26682 0
M  V30 67523 C 6630.74 4.71661 2.51874 0
M  V30 67524 C 6632.04 5.20852 0.388687 0
M  V30 67525 H 6633.73 2.99349 -0.055424 0
M  V30 67526 H 6631.28 1.43973 -0.0280966 0
M  V30 67527 H 6633.23 3.51446 2.32517 0
M  V30 67528 H 6631.96 2.27196 2.34627 0
M  V30 67529 H 6630.62 3.60244 0.679706 0
M  V30 67530 H 6630.26 3.93484 3.13336 0
M  V30 67531 H 6629.96 5.43814 2.22576 0
M  V30 67532 H 6631.49 5.23878 3.13663 0
M  V30 67533 H 6632.9 5.66115 0.904808 0
M  V30 67534 H 6631.3 5.99803 0.188924 0
M  V30 67535 H 6632.37 4.81383 -0.582953 0
M  V30 67536 N 6633.71 0.0418679 1.57544 0
M  V30 67537 C 6634.99 -0.673337 1.83645 0
M  V30 67538 C 6635.37 -1.89589 0.928398 0
M  V30 67539 O 6634.72 -2.28496 -0.012875 0
M  V30 67540 C 6634.93 -1.03947 3.33161 0
M  V30 67541 C 6636.28 -1.42571 3.99948 0
M  V30 67542 O 6637.3 -1.13208 3.37731 0
M  V30 67543 O 6636.16 -1.97333 5.09629 0
M  V30 67544 H 6633.25 -0.331493 0.757655 0
M  V30 67545 H 6635.8 0.0705224 1.69553 0
M  V30 67546 H 6634.57 -0.169892 3.90931 0
M  V30 67547 H 6634.19 -1.84108 3.52406 0
M  V30 67548 N 6635.19 -1.55892 -0.231423 0
M  V30 67549 C 6636.15 -1.90786 -1.27017 0
M  V30 67550 C 6637.15 -0.785581 -1.40304 0
M  V30 67551 O 6638.34 -1.05343 -1.38739 0
M  V30 67552 C 6635.48 -2.14997 -2.64555 0
M  V30 67553 H 6636.67 -2.83682 -0.972868 0
M  V30 67554 H 6634.22 -1.49022 -0.471407 0
M  V30 67555 H 6634.96 -1.2462 -2.994 0
M  V30 67556 H 6634.74 -2.96746 -2.56289 0
M  V30 67557 H 6636.23 -2.43123 -3.3953 0
M  V30 67558 N 6636.67 0.497729 -1.49534 0
M  V30 67559 C 6637.95 1.25907 -1.49689 0
M  V30 67560 C 6638.33 2.09882 -0.22645 0
M  V30 67561 O 6637.67 2.14369 0.791076 0
M  V30 67562 C 6637.88 2.11298 -2.77766 0
M  V30 67563 C 6639.23 2.70378 -3.27385 0
M  V30 67564 O 6640.26 2.21563 -2.78905 0
M  V30 67565 O 6639.12 3.59251 -4.11827 0
M  V30 67566 H 6636.21 0.569929 -0.599258 0
M  V30 67567 H 6638.76 0.511731 -1.61801 0
M  V30 67568 H 6637.53 1.49245 -3.6172 0
M  V30 67569 H 6637.15 2.93219 -2.68531 0
M  V30 67570 N 6638.15 1.38663 0.749013 0
M  V30 67571 C 6639.39 1.35122 1.50826 0
M  V30 67572 C 6639.72 -0.0573023 1.94416 0
M  V30 67573 O 6638.98 -1.03533 1.66071 0
M  V30 67574 C 6639.28 2.25711 2.77108 0
M  V30 67575 C 6638.94 3.73599 2.52458 0
M  V30 67576 C 6637.6 4.13897 2.45444 0
M  V30 67577 C 6639.96 4.67193 2.31041 0
M  V30 67578 C 6637.28 5.45873 2.15035 0
M  V30 67579 C 6639.64 5.99431 2.02152 0
M  V30 67580 C 6638.3 6.38808 1.93597 0
M  V30 67581 H 6637.57 0.494445 0.55191 0
M  V30 67582 H 6640.22 1.71058 0.860889 0
M  V30 67583 H 6638.52 1.82846 3.46518 0
M  V30 67584 H 6640.22 2.20272 3.35084 0
M  V30 67585 H 6636.81 3.41652 2.58789 0
M  V30 67586 H 6640.99 4.36902 2.35436 0
M  V30 67587 H 6636.25 5.75319 2.06924 0
M  V30 67588 H 6640.42 6.71492 1.84585 0
M  V30 67589 H 6638.05 7.40994 1.698 0
M  V30 67590 N 6639.63 -0.977692 1.23608 0
M  V30 67591 C 6640.59 -2.05213 1.02079 0
M  V30 67592 C 6641.59 -1.6079 -0.0183457 0
M  V30 67593 O 6642.78 -1.72784 0.22166 0
M  V30 67594 C 6639.91 -3.36514 0.545104 0
M  V30 67595 H 6641.1 -2.25745 1.97432 0
M  V30 67596 H 6638.66 -1.15149 1.0569 0
M  V30 67597 H 6639.39 -3.21671 -0.412071 0
M  V30 67598 H 6639.18 -3.70098 1.29499 0
M  V30 67599 H 6640.67 -4.15531 0.415204 0
M  V30 67600 N 6641.1 -1.04822 -1.17686 0
M  V30 67601 C 6642.03 -0.666909 -2.23773 0
M  V30 67602 C 6643.01 0.333523 -1.66798 0
M  V30 67603 O 6644.2 0.21194 -1.9304 0
M  V30 67604 C 6641.33 -0.0369764 -3.4728 0
M  V30 67605 C 6640.28 -0.961766 -4.17054 0
M  V30 67606 C 6639.61 -0.195908 -5.34341 0
M  V30 67607 C 6640.91 -2.28427 -4.69701 0
M  V30 67608 H 6642.6 -1.5538 -2.55925 0
M  V30 67609 H 6640.15 -0.748549 -1.23015 0
M  V30 67610 H 6642.1 0.241553 -4.20707 0
M  V30 67611 H 6640.83 0.884838 -3.14385 0
M  V30 67612 H 6639.49 -1.2248 -3.45535 0
M  V30 67613 H 6639.13 0.728554 -4.97696 0
M  V30 67614 H 6638.83 -0.812082 -5.81961 0
M  V30 67615 H 6640.36 0.0754253 -6.10553 0
M  V30 67616 H 6641.77 -2.06591 -5.34783 0
M  V30 67617 H 6640.17 -2.85408 -5.27885 0
M  V30 67618 H 6641.24 -2.92546 -3.8671 0
M  V30 67619 N 6642.58 1.34052 -0.828725 0
M  V30 67620 C 6643.86 1.92589 -0.34191 0
M  V30 67621 C 6644.24 1.75611 1.17149 0
M  V30 67622 O 6643.59 1.13834 1.98126 0
M  V30 67623 C 6643.8 3.40226 -0.777632 0
M  V30 67624 C 6645.14 4.17378 -0.779799 0
M  V30 67625 O 6646.17 3.48835 -0.720584 0
M  V30 67626 O 6645.03 5.39718 -0.858281 0
M  V30 67627 H 6642.12 0.821566 -0.0946518 0
M  V30 67628 H 6644.67 1.42989 -0.913902 0
M  V30 67629 H 6643.44 3.4641 -1.81978 0
M  V30 67630 H 6643.06 3.97185 -0.181653 0
M  V30 67631 N 6644.06 0.584219 1.46372 0
M  V30 67632 C 6645.47 0.158057 1.8603 0
M  V30 67633 C 6645.82 -1.27926 1.4876 0
M  V30 67634 O 6644.95 -1.9665 0.903202 0
M  V30 67635 C 6645.54 0.28007 3.3764 0
M  V30 67636 C 6644.1 -0.0912316 3.76289 0
M  V30 67637 C 6643.25 0.615321 2.70387 0
M  V30 67638 H 6646.2 0.792346 1.37505 0
M  V30 67639 H 6646.22 -0.494165 3.77277 0
M  V30 67640 H 6645.73 1.32626 3.64735 0
M  V30 67641 H 6643.83 -1.1375 3.54812 0
M  V30 67642 H 6643.95 0.286138 4.78245 0
M  V30 67643 H 6642.31 0.0554175 2.5464 0
M  V30 67644 H 6643.09 1.66319 3.00321 0
M  V30 67645 N 6645.54 -1.54274 0.322081 0
M  V30 67646 C 6646.81 -1.92708 -0.33513 0
M  V30 67647 C 6647.19 -1.25154 -1.69999 0
M  V30 67648 O 6646.54 -0.394714 -2.25065 0
M  V30 67649 C 6646.75 -3.46355 -0.428826 0
M  V30 67650 C 6648.1 -4.18959 -0.689808 0
M  V30 67651 O 6649.12 -3.52504 -0.511806 0
M  V30 67652 O 6647.98 -5.36646 -1.0331 0
M  V30 67653 H 6645.08 -0.804618 -0.1911 0
M  V30 67654 H 6647.62 -1.6558 0.371687 0
M  V30 67655 H 6646.4 -3.87697 0.529816 0
M  V30 67656 H 6646.02 -3.79584 -1.18328 0
M  V30 67657 N 6647.02 -0.0502223 -1.5752 0
M  V30 67658 C 6647.96 0.924492 -2.11475 0
M  V30 67659 C 6648.93 1.30945 -1.02189 0
M  V30 67660 O 6650.12 1.39909 -1.29731 0
M  V30 67661 C 6647.26 2.19437 -2.66349 0
M  V30 67662 C 6646.37 1.86397 -3.89718 0
M  V30 67663 C 6645.51 3.07836 -4.32909 0
M  V30 67664 C 6644.54 2.70713 -5.48982 0
M  V30 67665 N 6643.68 3.84843 -5.87231 0
M  V30 67666 H 6648.52 0.457484 -2.94467 0
M  V30 67667 H 6646.06 0.21419 -1.45532 0
M  V30 67668 H 6648.02 2.93742 -2.96262 0
M  V30 67669 H 6646.65 2.63716 -1.86155 0
M  V30 67670 H 6645.7 1.02244 -3.66402 0
M  V30 67671 H 6647.01 1.55071 -4.74083 0
M  V30 67672 H 6646.16 3.90442 -4.64371 0
M  V30 67673 H 6644.9 3.4234 -3.47354 0
M  V30 67674 H 6643.91 1.86524 -5.17193 0
M  V30 67675 H 6645.13 2.37403 -6.36252 0
M  V30 67676 H 6643.08 4.19149 -5.04629 0
M  V30 67677 H 6643 3.57212 -6.66285 0
M  V30 67678 H 6644.26 4.68091 -6.23307 0
M  V30 67679 N 6648.49 1.56012 0.223152 0
M  V30 67680 C 6649.9 1.69149 0.790279 0
M  V30 67681 C 6650.26 0.651943 1.85052 0
M  V30 67682 O 6649.38 -0.197245 2.15499 0
M  V30 67683 C 6649.98 3.06664 1.44024 0
M  V30 67684 C 6648.53 3.21661 1.95477 0
M  V30 67685 C 6647.68 2.65072 0.814367 0
M  V30 67686 H 6650.63 1.587 -0.00147379 0
M  V30 67687 H 6650.65 3.02432 2.309 0
M  V30 67688 H 6650.17 3.82302 0.668342 0
M  V30 67689 H 6648.27 2.50889 2.75473 0
M  V30 67690 H 6648.38 4.28857 2.13584 0
M  V30 67691 H 6646.74 2.23512 1.22126 0
M  V30 67692 H 6647.53 3.43256 0.0551705 0
M  V30 67693 N 6649.97 -0.489791 1.49796 0
M  V30 67694 C 6651.2 -1.26693 1.63574 0
M  V30 67695 C 6651.61 -1.86211 0.311563 0
M  V30 67696 O 6650.97 -1.68361 -0.704327 0
M  V30 67697 C 6651.02 -2.38915 2.71297 0
M  V30 67698 O 6650.74 -1.8184 3.9858 0
M  V30 67699 C 6652.24 -3.30105 2.95881 0
M  V30 67700 H 6649.46 -0.383852 0.550362 0
M  V30 67701 H 6652.01 -0.586761 1.95901 0
M  V30 67702 H 6650.16 -3.02741 2.41716 0
M  V30 67703 H 6650.58 -2.55598 4.58006 0
M  V30 67704 H 6652.05 -4.05101 3.74963 0
M  V30 67705 H 6652.53 -3.87772 2.06226 0
M  V30 67706 H 6653.13 -2.72034 3.26921 0
M  V30 67707 N 6651.45 -1.39059 -0.741649 0
M  V30 67708 C 6652.4 -1.3738 -1.87695 0
M  V30 67709 C 6653.39 -0.2579 -1.67425 0
M  V30 67710 O 6654.6 -0.427581 -1.74848 0
M  V30 67711 H 6650.97 -0.428845 -0.617735 0
M  V30 67712 H 6652.94 -2.33157 -1.86227 0
M  V30 67713 C 6651.69 -1.22758 -3.25309 0
M  V30 67714 H 6651.02 -2.07891 -3.41498 0
M  V30 67715 H 6652.46 -1.2564 -4.04958 0
M  V30 67716 C 6650.92 0.064554 -3.36838 0
M  V30 67717 O 6651.45 1.0372 -3.88079 0
M  V30 67718 N 6649.65 0.125391 -2.90329 0
M  V30 67719 H 6649.2 -0.666813 -2.4882 0
M  V30 67720 H 6649.16 0.989482 -2.98424 0
M  V30 67721 N 6652.93 0.971123 -1.24125 0
M  V30 67722 C 6654.18 1.71365 -1.0789 0
M  V30 67723 C 6654.5 1.90696 0.382801 0
M  V30 67724 O 6653.76 1.46338 1.29938 0
M  V30 67725 C 6654.06 3.11061 -1.75999 0
M  V30 67726 C 6653.72 3.11582 -3.25926 0
M  V30 67727 C 6652.39 3.11431 -3.6683 0
M  V30 67728 C 6654.74 3.06178 -4.21787 0
M  V30 67729 C 6652.07 3.03605 -5.02037 0
M  V30 67730 C 6654.42 2.99894 -5.56998 0
M  V30 67731 C 6653.08 2.9807 -5.97252 0
M  V30 67732 H 6652.35 0.627069 -0.394797 0
M  V30 67733 H 6655 1.13578 -1.54182 0
M  V30 67734 H 6653.3 3.72291 -1.22091 0
M  V30 67735 H 6655 3.67301 -1.60906 0
M  V30 67736 H 6651.59 3.12462 -2.93369 0
M  V30 67737 H 6655.77 3.05427 -3.91188 0
M  V30 67738 H 6651.03 3.00552 -5.32427 0
M  V30 67739 H 6655.2 2.94671 -6.30985 0
M  V30 67740 H 6652.83 2.91761 -7.01983 0
M  V30 67741 N 6654.41 1.05445 1.17129 0
M  V30 67742 C 6655.63 0.786515 1.91368 0
M  V30 67743 C 6656.05 -0.658109 1.76959 0
M  V30 67744 O 6655.41 -1.44981 1.10845 0
M  V30 67745 C 6655.46 1.16098 3.4235 0
M  V30 67746 O 6655.18 2.5489 3.56318 0
M  V30 67747 C 6656.68 0.919551 4.33658 0
M  V30 67748 H 6653.9 0.285775 0.607103 0
M  V30 67749 H 6656.44 1.4058 1.48517 0
M  V30 67750 H 6654.6 0.586393 3.82936 0
M  V30 67751 H 6655.01 2.69642 4.49882 0
M  V30 67752 H 6656.49 1.23128 5.38092 0
M  V30 67753 H 6656.96 -0.145128 4.3896 0
M  V30 67754 H 6657.57 1.4781 3.98788 0
M  V30 67755 N 6655.88 -1.3361 0.835823 0
M  V30 67756 C 6656.83 -2.31194 0.25536 0
M  V30 67757 C 6657.83 -1.57998 -0.610986 0
M  V30 67758 O 6659.03 -1.7289 -0.500888 0
M  V30 67759 H 6655.41 -0.749285 0.063848 0
M  V30 67760 H 6657.38 -2.77663 1.09298 0
M  V30 67761 C 6656.13 -3.43204 -0.557359 0
M  V30 67762 H 6655.45 -3.99675 0.0999661 0
M  V30 67763 H 6656.89 -4.13688 -0.929404 0
M  V30 67764 C 6655.35 -2.8879 -1.73499 0
M  V30 67765 O 6655.88 -2.84727 -2.83361 0
M  V30 67766 N 6654.09 -2.45438 -1.5559 0
M  V30 67767 H 6653.63 -2.48942 -0.662223 0
M  V30 67768 H 6653.59 -2.09383 -2.34534 0
M  V30 67769 N 6657.36 -0.591973 -1.4606 0
M  V30 67770 C 6658.77 -0.16792 -1.85943 0
M  V30 67771 C 6659.12 1.27135 -1.49436 0
M  V30 67772 O 6658.25 1.96168 -0.913618 0
M  V30 67773 C 6658.84 -0.297972 -3.37487 0
M  V30 67774 C 6657.4 0.0712748 -3.76333 0
M  V30 67775 C 6656.55 -0.629651 -2.70057 0
M  V30 67776 H 6659.5 -0.799628 -1.37083 0
M  V30 67777 H 6659.52 0.47415 -3.77534 0
M  V30 67778 H 6659.03 -1.34559 -3.64027 0
M  V30 67779 H 6657.14 1.11867 -3.5541 0
M  V30 67780 H 6657.25 -0.311497 -4.78086 0
M  V30 67781 H 6655.61 -0.0689209 -2.54607 0
M  V30 67782 H 6656.4 -1.6791 -2.99435 0
M  V30 67783 N 6658.84 1.54101 -0.330258 0
M  V30 67784 C 6660.09 2.00985 0.2707 0
M  V30 67785 C 6660.42 1.21797 1.51259 0
M  V30 67786 O 6659.69 0.302029 1.92141 0
M  V30 67787 C 6659.98 3.55097 0.598152 0
M  V30 67788 C 6659.83 4.45007 -0.654908 0
M  V30 67789 C 6661.15 4.16796 1.41312 0
M  V30 67790 H 6658.27 0.7306 0.0969146 0
M  V30 67791 H 6660.91 1.84639 -0.448163 0
M  V30 67792 H 6659.06 3.69157 1.21058 0
M  V30 67793 H 6660.73 4.42806 -1.29308 0
M  V30 67794 H 6658.98 4.1441 -1.28246 0
M  V30 67795 H 6659.65 5.50682 -0.381235 0
M  V30 67796 H 6662.12 4.06352 0.895383 0
M  V30 67797 H 6661 5.24727 1.61099 0
M  V30 67798 H 6661.26 3.70554 2.41127 0
M  V30 67799 N 6660.32 0.0585753 1.57491 0
M  V30 67800 C 6661.55 -0.62203 1.97014 0
M  V30 67801 C 6661.96 -1.64475 0.935121 0
M  V30 67802 O 6661.3 -1.83488 -0.0881936 0
M  V30 67803 C 6661.36 -1.35954 3.32801 0
M  V30 67804 C 6661.03 -0.491803 4.54346 0
M  V30 67805 C 6662.02 0.245175 5.19322 0
M  V30 67806 C 6659.71 -0.420557 5.00536 0
M  V30 67807 C 6661.7 1.04176 6.28829 0
M  V30 67808 C 6659.39 0.37971 6.09919 0
M  V30 67809 C 6660.39 1.10955 6.73927 0
M  V30 67810 O 6660.07 1.89664 7.81206 0
M  V30 67811 H 6659.81 -0.174325 0.653136 0
M  V30 67812 H 6662.36 0.123526 2.05028 0
M  V30 67813 H 6660.59 -2.15088 3.21363 0
M  V30 67814 H 6662.28 -1.9311 3.5702 0
M  V30 67815 H 6663.05 0.199645 4.84589 0
M  V30 67816 H 6658.92 -0.978236 4.50501 0
M  V30 67817 H 6662.47 1.61193 6.78721 0
M  V30 67818 H 6658.37 0.426852 6.44087 0
M  V30 67819 H 6659.13 1.81955 7.98019 0
M  V30 67820 N 6661.8 -1.56128 -0.214875 0
M  V30 67821 C 6662.76 -1.92122 -1.24987 0
M  V30 67822 C 6663.76 -0.800418 -1.39463 0
M  V30 67823 O 6664.95 -1.06809 -1.37614 0
M  V30 67824 C 6662.08 -2.17791 -2.62259 0
M  V30 67825 H 6663.27 -2.84698 -0.942725 0
M  V30 67826 H 6660.83 -1.49513 -0.455575 0
M  V30 67827 H 6661.56 -1.27789 -2.98061 0
M  V30 67828 H 6661.35 -2.99448 -2.53128 0
M  V30 67829 H 6662.84 -2.46711 -3.36933 0
M  V30 67830 N 6663.27 0.481841 -1.50054 0
M  V30 67831 C 6664.5 1.25824 -1.64244 0
M  V30 67832 C 6664.92 1.86044 -0.321434 0
M  V30 67833 O 6664.27 1.68732 0.695389 0
M  V30 67834 C 6664.33 2.37473 -2.7256 0
M  V30 67835 O 6664.05 1.79724 -3.99538 0
M  V30 67836 C 6665.55 3.28531 -2.97628 0
M  V30 67837 H 6662.77 0.380928 -0.55239 0
M  V30 67838 H 6665.31 0.576364 -1.9621 0
M  V30 67839 H 6663.47 3.01455 -2.43319 0
M  V30 67840 H 6663.88 2.53165 -4.59356 0
M  V30 67841 H 6665.35 4.03107 -3.77106 0
M  V30 67842 H 6665.83 3.86673 -2.0828 0
M  V30 67843 H 6666.44 2.70296 -3.28359 0
M  V30 67844 N 6664.75 1.3945 0.734264 0
M  V30 67845 C 6665.68 1.40965 1.86148 0
M  V30 67846 C 6666.66 0.272916 1.67896 0
M  V30 67847 O 6667.85 0.478842 1.88204 0
M  V30 67848 C 6664.98 1.25311 3.23905 0
M  V30 67849 C 6663.93 2.36392 3.56795 0
M  V30 67850 C 6663.26 2.05826 4.93497 0
M  V30 67851 C 6664.56 3.78706 3.59693 0
M  V30 67852 H 6666.25 2.35297 1.85137 0
M  V30 67853 H 6663.8 1.13258 0.889308 0
M  V30 67854 H 6665.75 1.24991 4.02436 0
M  V30 67855 H 6664.48 0.27448 3.25445 0
M  V30 67856 H 6663.13 2.35929 2.80594 0
M  V30 67857 H 6662.78 1.064 4.91618 0
M  V30 67858 H 6662.48 2.80235 5.16471 0
M  V30 67859 H 6664.01 2.07158 5.74385 0
M  V30 67860 H 6665.42 3.81093 4.283 0
M  V30 67861 H 6663.82 4.5248 3.94186 0
M  V30 67862 H 6664.89 4.0963 2.59482 0
M  V30 67863 N 6666.23 -0.964527 1.24638 0
M  V30 67864 C 6667.46 -1.74026 1.11348 0
M  V30 67865 C 6667.87 -1.86184 -0.336495 0
M  V30 67866 O 6667.21 -1.35185 -1.24382 0
M  V30 67867 C 6667.27 -3.17672 1.683 0
M  V30 67868 C 6666.94 -3.28976 3.17213 0
M  V30 67869 C 6667.94 -3.14056 4.14324 0
M  V30 67870 C 6665.62 -3.53114 3.57233 0
M  V30 67871 C 6667.61 -3.23106 5.49437 0
M  V30 67872 C 6665.3 -3.61801 4.92487 0
M  V30 67873 C 6666.3 -3.4681 5.88398 0
M  V30 67874 O 6665.99 -3.55159 7.21191 0
M  V30 67875 H 6665.72 -0.552452 0.389581 0
M  V30 67876 H 6668.27 -1.21938 1.65289 0
M  V30 67877 H 6666.5 -3.7108 1.08797 0
M  V30 67878 H 6668.19 -3.77066 1.50254 0
M  V30 67879 H 6668.96 -2.95288 3.84747 0
M  V30 67880 H 6664.84 -3.63848 2.83083 0
M  V30 67881 H 6668.38 -3.11322 6.24279 0
M  V30 67882 H 6664.28 -3.80084 5.21734 0
M  V30 67883 H 6665.05 -3.71854 7.29155 0
M  V30 67884 N 6667.71 -1.06064 -1.16568 0
M  V30 67885 C 6668.64 -0.613636 -2.19795 0
M  V30 67886 C 6669.62 0.362369 -1.58511 0
M  V30 67887 O 6670.8 0.271895 -1.86529 0
M  V30 67888 C 6667.93 0.100736 -3.3855 0
M  V30 67889 C 6666.98 -0.831659 -4.18313 0
M  V30 67890 S 6667.81 -2.32564 -4.82363 0
M  V30 67891 C 6668.97 -1.62269 -6.04499 0
M  V30 67892 H 6669.2 -1.48819 -2.57372 0
M  V30 67893 H 6666.73 -0.873405 -1.27322 0
M  V30 67894 H 6668.69 0.506684 -4.07361 0
M  V30 67895 H 6667.35 0.951446 -2.99343 0
M  V30 67896 H 6666.54 -0.278336 -5.03231 0
M  V30 67897 H 6666.15 -1.17738 -3.54984 0
M  V30 67898 H 6668.44 -0.926976 -6.71128 0
M  V30 67899 H 6669.38 -2.44969 -6.64376 0
M  V30 67900 H 6669.79 -1.10629 -5.53554 0
M  V30 67901 N 6669.19 1.33165 -0.842897 0
M  V30 67902 C 6670.44 1.97259 -0.439681 0
M  V30 67903 C 6670.76 1.67084 1.00539 0
M  V30 67904 O 6670.03 0.971868 1.70093 0
M  V30 67905 H 6668.61 0.729752 -0.159597 0
M  V30 67906 H 6671.27 1.62457 -1.07674 0
M  V30 67907 H 6670.36 3.06757 -0.575048 0
M  V30 67908 N 6670.67 0.599711 1.45744 0
M  V30 67909 C 6671.91 0.0916537 2.01892 0
M  V30 67910 C 6672.23 -1.27939 1.47162 0
M  V30 67911 O 6671.5 -1.84346 0.662827 0
M  V30 67912 H 6670.08 0.0308918 0.746361 0
M  V30 67913 H 6672.75 0.779331 1.78641 0
M  V30 67914 H 6671.84 0.0354732 3.1208 0
M  V30 67915 N 6672.14 -1.53923 0.338426 0
M  V30 67916 C 6673.09 -2.21596 -0.536595 0
M  V30 67917 C 6674.08 -1.20158 -1.07009 0
M  V30 67918 O 6675.27 -1.45726 -1.00464 0
M  V30 67919 C 6672.4 -2.98843 -1.68961 0
M  V30 67920 C 6671.48 -4.07633 -1.1703 0
M  V30 67921 N 6671.88 -5.04432 -0.371819 0
M  V30 67922 C 6670.17 -4.21851 -1.44767 0
M  V30 67923 C 6670.87 -5.81629 -0.0906104 0
M  V30 67924 N 6669.85 -5.39319 -0.680846 0
M  V30 67925 H 6673.65 -2.9379 0.0805848 0
M  V30 67926 H 6671.17 -1.61751 0.145029 0
M  V30 67927 H 6673.16 -3.4582 -2.32839 0
M  V30 67928 H 6671.82 -2.28174 -2.31012 0
M  V30 67929 H 6672.83 -5.17898 -0.0133486 0
M  V30 67930 H 6669.51 -3.62402 -2.07294 0
M  V30 67931 H 6670.9 -6.69619 0.55317 0
M  V30 67932 N 6673.62 -0.0669266 -1.57458 0
M  V30 67933 C 6674.87 0.602112 -1.92922 0
M  V30 67934 C 6675.19 1.70444 -0.947305 0
M  V30 67935 O 6674.46 1.95899 0.00533787 0
M  V30 67936 H 6673.04 0.225403 -0.712182 0
M  V30 67937 H 6675.7 -0.123637 -1.94507 0
M  V30 67938 H 6674.8 1.03057 -2.94594 0
M  V30 67939 N 6675.1 1.5624 0.206592 0
M  V30 67940 C 6676.32 1.84395 0.949377 0
M  V30 67941 C 6676.75 0.649109 1.76545 0
M  V30 67942 O 6676.11 -0.402138 1.76784 0
M  V30 67943 C 6676.16 3.10678 1.83062 0
M  V30 67944 O 6675.26 2.90423 2.92794 0
M  V30 67945 H 6674.6 0.607513 0.268001 0
M  V30 67946 H 6677.13 2.03463 0.215381 0
M  V30 67947 H 6677.14 3.41173 2.23752 0
M  V30 67948 H 6675.82 3.97267 1.23092 0
M  V30 67949 H 6674.39 2.71198 2.55942 0
M  V30 67950 N 6676.58 -0.473876 1.50307 0
M  V30 67951 C 6677.99 -0.807394 1.37671 0
M  V30 67952 C 6678.19 -1.96844 0.430659 0
M  V30 67953 O 6677.25 -2.52177 -0.127741 0
M  V30 67954 C 6678.56 -1.12208 2.7898 0
M  V30 67955 C 6680.11 -1.2287 2.87875 0
M  V30 67956 C 6680.59 -1.57653 4.30011 0
M  V30 67957 N 6682.08 -1.6465 4.32949 0
M  V30 67958 C 6682.81 -1.93063 5.39921 0
M  V30 67959 N 6682.31 -2.19515 6.57104 0
M  V30 67960 N 6684.1 -1.94541 5.27361 0
M  V30 67961 H 6676.25 0.291323 2.10393 0
M  V30 67962 H 6678.51 0.0678108 0.945572 0
M  V30 67963 H 6678.22 -0.342044 3.50033 0
M  V30 67964 H 6678.09 -2.05896 3.16048 0
M  V30 67965 H 6680.48 -1.99941 2.17043 0
M  V30 67966 H 6680.56 -0.271679 2.54353 0
M  V30 67967 H 6680.21 -0.811225 5.0138 0
M  V30 67968 H 6680.14 -2.545 4.61018 0
M  V30 67969 H 6682.63 -1.46259 3.48449 0
M  V30 67970 H 6682.94 -2.40461 7.34437 0
M  V30 67971 H 6681.29 -2.16913 6.60283 0
M  V30 67972 H 6684.48 -1.73371 4.34811 0
M  V30 67973 H 6684.65 -2.16349 6.10817 0
M  V30 67974 N 6678.06 -1.39838 -0.726858 0
M  V30 67975 C 6679.01 -1.35693 -1.83225 0
M  V30 67976 C 6679.99 -0.236379 -1.59154 0
M  V30 67977 O 6681.18 -0.474578 -1.70519 0
M  V30 67978 C 6678.31 -1.21078 -3.2124 0
M  V30 67979 C 6677.4 -2.37868 -3.51112 0
M  V30 67980 N 6677.79 -3.63347 -3.5187 0
M  V30 67981 C 6676.09 -2.31002 -3.81515 0
M  V30 67982 C 6676.79 -4.40626 -3.79768 0
M  V30 67983 N 6675.76 -3.70318 -3.97952 0
M  V30 67984 H 6679.56 -2.30666 -1.82128 0
M  V30 67985 H 6677.08 -1.33449 -0.925475 0
M  V30 67986 H 6679.08 -1.16192 -4.00381 0
M  V30 67987 H 6677.74 -0.270629 -3.2357 0
M  V30 67988 H 6678.75 -3.96661 -3.32987 0
M  V30 67989 H 6675.42 -1.45293 -3.91403 0
M  V30 67990 H 6676.81 -5.49428 -3.86754 0
M  V30 67991 N 6679.53 0.957904 -1.25148 0
M  V30 67992 C 6680.76 1.74217 -1.1253 0
M  V30 67993 C 6681.18 1.85404 0.317304 0
M  V30 67994 O 6680.54 1.3321 1.22983 0
M  V30 67995 C 6680.59 3.13561 -1.78079 0
M  V30 67996 O 6679.69 3.98592 -1.05821 0
M  V30 67997 H 6679.03 0.535158 -0.393068 0
M  V30 67998 H 6681.56 1.20092 -1.65648 0
M  V30 67999 H 6681.57 3.64037 -1.84232 0
M  V30 68000 H 6680.25 3.04734 -2.83037 0
M  V30 68001 H 6678.83 3.57061 -1.07525 0
M  V30 68002 N 6681.01 1.06681 1.16004 0
M  V30 68003 C 6681.94 0.702425 2.22684 0
M  V30 68004 C 6682.92 -0.306944 1.67308 0
M  V30 68005 O 6684.11 -0.181203 1.93353 0
M  V30 68006 C 6681.24 0.0922211 3.47178 0
M  V30 68007 C 6680.19 1.02799 4.15471 0
M  V30 68008 C 6679.52 0.280892 5.33962 0
M  V30 68009 C 6680.82 2.3587 4.66007 0
M  V30 68010 H 6682.51 1.59432 2.5342 0
M  V30 68011 H 6680.06 0.768025 1.21809 0
M  V30 68012 H 6682.01 -0.174592 4.21038 0
M  V30 68013 H 6680.74 -0.83471 3.15753 0
M  V30 68014 H 6679.39 1.27962 3.43542 0
M  V30 68015 H 6679.04 -0.649282 4.98792 0
M  V30 68016 H 6678.74 0.904565 5.80596 0
M  V30 68017 H 6680.27 0.021718 6.10596 0
M  V30 68018 H 6681.68 2.15073 5.31429 0
M  V30 68019 H 6680.08 2.9377 5.23277 0
M  V30 68020 H 6681.15 2.98661 3.82007 0
M  V30 68021 N 6682.49 -1.32716 0.849947 0
M  V30 68022 C 6683.45 -2.27277 0.296242 0
M  V30 68023 C 6684.45 -1.51412 -0.541378 0
M  V30 68024 O 6685.64 -1.70574 -0.353568 0
M  V30 68025 C 6682.78 -3.35906 -0.581402 0
M  V30 68026 H 6683.97 -2.77765 1.13078 0
M  V30 68027 H 6681.52 -1.43308 0.623905 0
M  V30 68028 H 6682.26 -2.90678 -1.43794 0
M  V30 68029 H 6682.04 -3.92096 0.0180882 0
M  V30 68030 H 6683.53 -4.06375 -0.961736 0
M  V30 68031 N 6683.97 -0.607431 -1.45424 0
M  V30 68032 C 6685.19 -0.107115 -2.07123 0
M  V30 68033 C 6685.62 1.19926 -1.44912 0
M  V30 68034 O 6684.98 1.73016 -0.541778 0
M  V30 68035 C 6685.02 0.0192217 -3.60595 0
M  V30 68036 O 6684.13 1.06949 -3.98291 0
M  V30 68037 H 6683.47 -0.0739945 -0.659864 0
M  V30 68038 H 6686 -0.837396 -1.86678 0
M  V30 68039 H 6686.01 0.217485 -4.0742 0
M  V30 68040 H 6684.68 -0.934666 -4.05261 0
M  V30 68041 H 6683.26 0.847697 -3.63137 0
M  V30 68042 N 6685.45 1.53742 -0.346584 0
M  V30 68043 C 6686.67 2.0538 0.250302 0
M  V30 68044 C 6687.09 1.22136 1.43973 0
M  V30 68045 O 6686.45 0.257417 1.80675 0
M  V30 68046 C 6686.5 3.5538 0.662387 0
M  V30 68047 O 6686.22 4.35465 -0.479745 0
M  V30 68048 C 6687.72 4.23202 1.31967 0
M  V30 68049 H 6684.94 0.669296 0.0477845 0
M  V30 68050 H 6687.48 1.98307 -0.499451 0
M  V30 68051 H 6685.64 3.62665 1.36208 0
M  V30 68052 H 6686.05 5.24284 -0.150646 0
M  V30 68053 H 6687.53 5.29535 1.55874 0
M  V30 68054 H 6688 3.75737 2.27417 0
M  V30 68055 H 6688.61 4.20117 0.661932 0
M  V30 68056 N 6686.92 0.075276 1.5742 0
M  V30 68057 C 6688.2 -0.634231 1.85032 0
M  V30 68058 C 6688.58 -1.87577 0.968404 0
M  V30 68059 O 6687.93 -2.28472 0.0355954 0
M  V30 68060 C 6688.14 -0.968565 3.35291 0
M  V30 68061 C 6689.49 -1.34056 4.02882 0
M  V30 68062 O 6690.51 -1.06019 3.40057 0
M  V30 68063 O 6689.37 -1.86478 5.137 0
M  V30 68064 H 6686.46 -0.315347 0.764516 0
M  V30 68065 H 6689.01 0.106471 1.69366 0
M  V30 68066 H 6687.78 -0.0869313 3.91203 0
M  V30 68067 H 6687.41 -1.76591 3.56232 0
M  V30 68068 N 6688.4 -1.56347 -0.198304 0
M  V30 68069 C 6689.31 -1.9749 -1.2663 0
M  V30 68070 C 6690.33 -0.882081 -1.49984 0
M  V30 68071 O 6691.5 -1.18757 -1.62661 0
M  V30 68072 C 6688.57 -2.30333 -2.59129 0
M  V30 68073 C 6687.63 -3.53305 -2.43873 0
M  V30 68074 C 6686.86 -3.84572 -3.70054 0
M  V30 68075 O 6687.09 -3.17175 -4.74084 0
M  V30 68076 O 6686.02 -4.78009 -3.65775 0
M  V30 68077 H 6689.85 -2.88553 -0.947152 0
M  V30 68078 H 6687.43 -1.43861 -0.403047 0
M  V30 68079 H 6689.31 -2.52548 -3.37339 0
M  V30 68080 H 6687.99 -1.42439 -2.90677 0
M  V30 68081 H 6686.9 -3.36341 -1.63785 0
M  V30 68082 H 6688.23 -4.41655 -2.17259 0
M  V30 68083 N 6689.88 0.465898 -1.50556 0
M  V30 68084 C 6690.83 1.56324 -1.69798 0
M  V30 68085 C 6691.8 1.571 -0.539321 0
M  V30 68086 O 6692.98 1.74551 -0.770493 0
M  V30 68087 C 6690.12 2.94262 -1.80288 0
M  V30 68088 C 6689.24 3.03234 -3.0769 0
M  V30 68089 C 6688.37 4.32119 -3.08945 0
M  V30 68090 C 6687.41 4.34853 -4.30778 0
M  V30 68091 N 6686.55 5.55217 -4.29743 0
M  V30 68092 H 6691.39 1.39221 -2.63479 0
M  V30 68093 H 6688.92 0.676804 -1.30605 0
M  V30 68094 H 6690.88 3.7426 -1.84352 0
M  V30 68095 H 6689.51 3.09988 -0.900421 0
M  V30 68096 H 6688.56 2.16077 -3.13073 0
M  V30 68097 H 6689.88 3.01114 -3.97658 0
M  V30 68098 H 6689.03 5.20468 -3.11766 0
M  V30 68099 H 6687.77 4.36855 -2.16815 0
M  V30 68100 H 6686.77 3.449 -4.28164 0
M  V30 68101 H 6688 4.31804 -5.2414 0
M  V30 68102 H 6685.94 5.60728 -3.4047 0
M  V30 68103 H 6685.86 5.54859 -5.13486 0
M  V30 68104 H 6687.13 6.45677 -4.36717 0
M  V30 68105 N 6691.36 1.40221 0.719432 0
M  V30 68106 C 6692.77 1.22167 1.02701 0
M  V30 68107 C 6692.97 0.0941618 2.0128 0
M  V30 68108 O 6692.03 -0.549188 2.46455 0
M  V30 68109 C 6693.34 2.56189 1.57441 0
M  V30 68110 C 6694.89 2.63168 1.69444 0
M  V30 68111 C 6695.37 3.9745 2.27591 0
M  V30 68112 N 6696.86 3.99172 2.34981 0
M  V30 68113 C 6697.59 4.99857 2.80946 0
M  V30 68114 N 6697.09 6.10938 3.26691 0
M  V30 68115 N 6698.88 4.87228 2.80295 0
M  V30 68116 H 6691.03 2.12298 0.0659372 0
M  V30 68117 H 6693.3 0.943539 0.091858 0
M  V30 68118 H 6693 3.39326 0.924695 0
M  V30 68119 H 6692.88 2.77007 2.56022 0
M  V30 68120 H 6695.26 1.80405 2.33534 0
M  V30 68121 H 6695.34 2.46185 0.694737 0
M  V30 68122 H 6694.99 4.80651 1.64124 0
M  V30 68123 H 6694.92 4.11762 3.28268 0
M  V30 68124 H 6697.41 3.18958 2.02668 0
M  V30 68125 H 6697.72 6.83659 3.60319 0
M  V30 68126 H 6696.07 6.14509 3.2466 0
M  V30 68127 H 6699.26 3.99543 2.43891 0
M  V30 68128 H 6699.43 5.65839 3.15801 0
M  V30 68129 N 6692.84 -0.951253 1.25654 0
M  V30 68130 C 6693.75 -2.08218 1.08084 0
M  V30 68131 C 6694.76 -1.73992 0.0170583 0
M  V30 68132 O 6695.94 -2.00209 0.218699 0
M  V30 68133 C 6693 -3.39454 0.705101 0
M  V30 68134 C 6692.06 -3.87527 1.8472 0
M  V30 68135 C 6691.3 -5.125 1.48929 0
M  V30 68136 O 6691.52 -5.69089 0.386456 0
M  V30 68137 O 6690.45 -5.55365 2.32063 0
M  V30 68138 H 6694.28 -2.25944 2.02936 0
M  V30 68139 H 6691.87 -1.0665 1.04623 0
M  V30 68140 H 6693.75 -4.18329 0.50783 0
M  V30 68141 H 6692.42 -3.22991 -0.214121 0
M  V30 68142 H 6691.33 -3.09642 2.09935 0
M  V30 68143 H 6692.66 -4.08494 2.74578 0
M  V30 68144 N 6694.31 -1.07295 -1.15437 0
M  V30 68145 C 6695.24 -0.714224 -2.22309 0
M  V30 68146 C 6696.23 0.298067 -1.67468 0
M  V30 68147 O 6697.41 0.170946 -1.93446 0
M  V30 68148 C 6694.54 -0.110631 -3.47124 0
M  V30 68149 C 6693.49 -1.05001 -4.1492 0
M  V30 68150 C 6692.82 -0.309205 -5.33805 0
M  V30 68151 C 6694.12 -2.38338 -4.6475 0
M  V30 68152 H 6695.81 -1.60774 -2.52571 0
M  V30 68153 H 6693.36 -0.774474 -1.214 0
M  V30 68154 H 6695.31 0.15226 -4.21125 0
M  V30 68155 H 6694.04 0.817953 -3.16192 0
M  V30 68156 H 6692.7 -1.29782 -3.42859 0
M  V30 68157 H 6692.34 0.622821 -4.99129 0
M  V30 68158 H 6692.04 -0.935342 -5.80108 0
M  V30 68159 H 6693.57 -0.0540991 -6.10576 0
M  V30 68160 H 6694.98 -2.17888 -5.30281 0
M  V30 68161 H 6693.38 -2.96541 -5.21712 0
M  V30 68162 H 6694.45 -3.00683 -3.80418 0
M  V30 68163 N 6695.79 1.32264 -0.856973 0
M  V30 68164 C 6696.72 2.31315 -0.318702 0
M  V30 68165 C 6697.7 1.59782 0.583403 0
M  V30 68166 O 6698.89 1.87569 0.50316 0
M  V30 68167 C 6696.02 3.438 0.491798 0
M  V30 68168 C 6694.97 4.26831 -0.316074 0
M  V30 68169 C 6694.3 5.31101 0.619306 0
M  V30 68170 C 6695.6 4.98985 -1.54309 0
M  V30 68171 H 6697.29 2.76585 -1.14636 0
M  V30 68172 H 6694.84 1.32971 -0.552683 0
M  V30 68173 H 6696.79 4.12135 0.878794 0
M  V30 68174 H 6695.52 2.97264 1.35284 0
M  V30 68175 H 6694.18 3.60146 -0.684854 0
M  V30 68176 H 6693.82 4.80818 1.47725 0
M  V30 68177 H 6693.52 5.87542 0.0827523 0
M  V30 68178 H 6695.05 6.02299 1.00343 0
M  V30 68179 H 6696.46 5.59988 -1.22825 0
M  V30 68180 H 6694.86 5.65161 -2.01775 0
M  V30 68181 H 6695.93 4.26716 -2.30307 0
M  V30 68182 N 6697.27 0.615135 1.45099 0
M  V30 68183 C 6698.52 0.113062 2.01783 0
M  V30 68184 C 6698.84 -1.26371 1.48511 0
M  V30 68185 O 6698.11 -1.83633 0.682342 0
M  V30 68186 H 6696.69 0.0388062 0.745991 0
M  V30 68187 H 6699.35 0.798234 1.77804 0
M  V30 68188 H 6698.45 0.0685715 3.12025 0
M  V30 68189 N 6698.75 -1.53556 0.354732 0
M  V30 68190 C 6700.17 -1.596 0.00323842 0
M  V30 68191 C 6700.37 -1.37029 -1.47734 0
M  V30 68192 O 6699.42 -1.17008 -2.23753 0
M  V30 68193 C 6700.73 -2.97322 0.449447 0
M  V30 68194 C 6702.28 -3.10398 0.402741 0
M  V30 68195 C 6702.76 -4.50516 0.824592 0
M  V30 68196 N 6704.25 -4.56599 0.77922 0
M  V30 68197 C 6704.98 -5.63186 1.07745 0
M  V30 68198 N 6704.48 -6.77576 1.44441 0
M  V30 68199 N 6706.27 -5.53116 1.00096 0
M  V30 68200 H 6698.42 -1.6648 1.31902 0
M  V30 68201 H 6700.69 -0.780255 0.538429 0
M  V30 68202 H 6700.39 -3.18942 1.48219 0
M  V30 68203 H 6700.27 -3.76819 -0.169573 0
M  V30 68204 H 6702.65 -2.88495 -0.620852 0
M  V30 68205 H 6702.73 -2.32935 1.05711 0
M  V30 68206 H 6702.38 -4.73155 1.84625 0
M  V30 68207 H 6702.31 -5.26393 0.147582 0
M  V30 68208 H 6704.8 -3.7446 0.508726 0
M  V30 68209 H 6705.11 -7.54837 1.65652 0
M  V30 68210 H 6703.46 -6.78994 1.48296 0
M  V30 68211 H 6706.65 -4.6263 0.713537 0
M  V30 68212 H 6706.82 -6.36089 1.23671 0
M  V30 68213 N 6700.23 -0.0836233 -1.57378 0
M  V30 68214 C 6701.48 0.581616 -1.9355 0
M  V30 68215 C 6701.8 1.6943 -0.965329 0
M  V30 68216 O 6701.07 1.95894 -0.0154402 0
M  V30 68217 H 6699.65 0.217836 -0.714532 0
M  V30 68218 H 6702.31 -0.14426 -1.94365 0
M  V30 68219 H 6701.4 0.999267 -2.95671 0
M  V30 68220 N 6701.71 1.5645 0.190009 0
M  V30 68221 C 6703.12 1.70788 0.754222 0
M  V30 68222 C 6703.47 0.691048 1.83627 0
M  V30 68223 O 6702.59 -0.15149 2.15869 0
M  V30 68224 C 6703.19 3.0965 1.37486 0
M  V30 68225 C 6701.75 3.25735 1.8861 0
M  V30 68226 C 6700.89 2.6674 0.757958 0
M  V30 68227 H 6703.84 1.58661 -0.0351361 0
M  V30 68228 H 6703.87 3.07262 2.24433 0
M  V30 68229 H 6703.38 3.83634 0.587099 0
M  V30 68230 H 6701.48 2.56675 2.7009 0
M  V30 68231 H 6701.59 4.33291 2.0444 0
M  V30 68232 H 6699.96 2.26052 1.17357 0
M  V30 68233 H 6700.74 3.43295 -0.0176515 0
M  V30 68234 N 6703.18 -0.457907 1.50801 0
M  V30 68235 C 6704.09 -1.5798 1.73434 0
M  V30 68236 C 6705.11 -1.62662 0.617831 0
M  V30 68237 O 6706.29 -1.80286 0.897709 0
M  V30 68238 C 6703.35 -2.94112 1.83573 0
M  V30 68239 C 6702.41 -2.99713 3.0736 0
M  V30 68240 C 6701.64 -4.29352 3.17006 0
M  V30 68241 O 6701.87 -5.20594 2.33104 0
M  V30 68242 O 6700.8 -4.40816 4.09835 0
M  V30 68243 H 6704.63 -1.41803 2.68562 0
M  V30 68244 H 6702.21 -0.638788 1.35055 0
M  V30 68245 H 6704.09 -3.74942 1.92345 0
M  V30 68246 H 6702.77 -3.1046 0.9163 0
M  V30 68247 H 6701.68 -2.17914 3.0408 0
M  V30 68248 H 6703.01 -2.88305 3.98925 0
M  V30 68249 N 6704.66 -1.40601 -0.711986 0
M  V30 68250 C 6705.94 -1.2957 -1.4653 0
M  V30 68251 C 6706.32 0.0843105 -2.10932 0
M  V30 68252 O 6705.67 1.09739 -2.00424 0
M  V30 68253 C 6705.88 -2.43714 -2.49808 0
M  V30 68254 C 6707.22 -2.84117 -3.15536 0
M  V30 68255 O 6708.25 -2.43334 -2.60129 0
M  V30 68256 O 6707.11 -3.54588 -4.15848 0
M  V30 68257 H 6704.2 -0.509038 -0.651774 0
M  V30 68258 H 6706.75 -1.52528 -0.743855 0
M  V30 68259 H 6705.52 -3.35874 -2.0076 0
M  V30 68260 H 6705.14 -2.22546 -3.29483 0
M  V30 68261 N 6706.14 0.944576 -1.26157 0
M  V30 68262 C 6707.05 2.07642 -1.09187 0
M  V30 68263 C 6708.07 1.7398 -0.0262853 0
M  V30 68264 O 6709.24 2.0009 -0.229313 0
M  V30 68265 C 6706.31 3.39076 -0.723093 0
M  V30 68266 C 6705.37 3.86542 -1.86772 0
M  V30 68267 C 6704.6 5.11703 -1.51644 0
M  V30 68268 O 6704.82 5.68876 -0.416631 0
M  V30 68269 O 6703.76 5.54127 -2.35004 0
M  V30 68270 H 6707.58 2.24864 -2.04132 0
M  V30 68271 H 6705.17 1.06094 -1.05187 0
M  V30 68272 H 6707.05 4.18054 -0.530008 0
M  V30 68273 H 6705.73 3.231 0.196989 0
M  V30 68274 H 6704.63 3.08524 -2.11574 0
M  V30 68275 H 6705.97 4.07032 -2.76741 0
M  V30 68276 N 6707.62 1.07905 1.14866 0
M  V30 68277 C 6708.87 0.800596 1.85131 0
M  V30 68278 C 6709.18 -0.675917 1.8355 0
M  V30 68279 O 6710.39 -1.06935 2.49554 0
M  V30 68280 C 6708.84 1.38215 3.32302 0
M  V30 68281 C 6708.45 2.89008 3.42313 0
M  V30 68282 C 6710.19 1.18195 4.07713 0
M  V30 68283 C 6708.1 3.40326 4.83666 0
M  V30 68284 H 6707.03 0.295817 0.693548 0
M  V30 68285 H 6709.68 1.29983 1.29525 0
M  V30 68286 H 6708.06 0.810636 3.87614 0
M  V30 68287 H 6709.24 3.52251 2.97079 0
M  V30 68288 H 6707.55 3.07882 2.80353 0
M  V30 68289 H 6710.15 1.54007 5.12041 0
M  V30 68290 H 6710.49 0.12139 4.16123 0
M  V30 68291 H 6711.03 1.72013 3.58687 0
M  V30 68292 H 6707.76 4.45933 4.80442 0
M  V30 68293 H 6707.28 2.81839 5.29459 0
M  V30 68294 H 6708.96 3.36613 5.5254 0
M  V30 68295 N 6709.1 -1.31808 0.863975 0
M  V30 68296 C 6710.34 -1.96535 0.471007 0
M  V30 68297 C 6710.66 -1.68662 -0.978682 0
M  V30 68298 O 6709.93 -0.998806 -1.68525 0
M  V30 68299 H 6708.51 -0.727121 0.171186 0
M  V30 68300 H 6711.18 -1.60724 1.10245 0
M  V30 68301 H 6710.27 -3.05803 0.623777 0
M  V30 68302 N 6710.57 -0.622821 -1.44771 0
M  V30 68303 C 6711.85 -0.0553005 -1.95522 0
M  V30 68304 C 6712.23 1.41674 -1.56498 0
M  V30 68305 O 6711.58 2.12699 -0.83496 0
M  V30 68306 C 6711.79 -0.269425 -3.47958 0
M  V30 68307 C 6713.14 -0.158237 -4.24305 0
M  V30 68308 O 6714.16 -0.200349 -3.55636 0
M  V30 68309 O 6713.02 -0.0561575 -5.46471 0
M  V30 68310 H 6710.11 0.0270579 -0.826557 0
M  V30 68311 H 6712.66 -0.693946 -1.54863 0
M  V30 68312 H 6711.43 -1.29119 -3.69383 0
M  V30 68313 H 6711.06 0.403757 -3.95545 0
M  V30 68314 N 6712.05 1.53366 -0.362871 0
M  V30 68315 C 6713.46 1.86334 0.116924 0
M  V30 68316 C 6713.81 1.28355 1.4839 0
M  V30 68317 O 6712.94 0.604537 2.07784 0
M  V30 68318 C 6713.53 3.38092 0.218941 0
M  V30 68319 C 6712.09 3.70867 0.642988 0
M  V30 68320 C 6711.24 2.76493 -0.211464 0
M  V30 68321 H 6714.19 1.47652 -0.581765 0
M  V30 68322 H 6714.21 3.65926 1.043 0
M  V30 68323 H 6713.72 3.80261 -0.776103 0
M  V30 68324 H 6711.83 3.34254 1.64636 0
M  V30 68325 H 6711.94 4.7726 0.419478 0
M  V30 68326 H 6710.3 2.52691 0.319234 0
M  V30 68327 H 6711.09 3.21495 -1.204 0
M  V30 68328 N 6713.53 0.0919683 1.57331 0
M  V30 68329 C 6714.46 -0.865256 2.16877 0
M  V30 68330 C 6715.44 -1.2964 1.10125 0
M  V30 68331 O 6716.63 -1.36385 1.38249 0
M  V30 68332 C 6713.76 -2.12554 2.7466 0
M  V30 68333 C 6712.71 -1.83313 3.86756 0
M  V30 68334 C 6712.04 -3.16143 4.31228 0
M  V30 68335 C 6713.34 -1.12253 5.10095 0
M  V30 68336 H 6715.03 -0.369151 2.97116 0
M  V30 68337 H 6712.58 -0.176118 1.42919 0
M  V30 68338 H 6714.53 -2.79953 3.14967 0
M  V30 68339 H 6713.25 -2.64442 1.91671 0
M  V30 68340 H 6711.91 -1.18312 3.46984 0
M  V30 68341 H 6711.56 -3.65912 3.45134 0
M  V30 68342 H 6711.26 -2.97361 5.06804 0
M  V30 68343 H 6712.78 -3.84706 4.74167 0
M  V30 68344 H 6714.2 -1.69757 5.47591 0
M  V30 68345 H 6712.6 -1.03662 5.91079 0
M  V30 68346 H 6713.67 -0.104785 4.84787 0
M  V30 68347 N 6715.01 -1.56549 -0.18171 0
M  V30 68348 C 6715.97 -1.9473 -1.20883 0
M  V30 68349 C 6716.97 -0.82982 -1.37734 0
M  V30 68350 O 6718.16 -1.09704 -1.35317 0
M  V30 68351 C 6715.29 -2.23305 -2.57581 0
M  V30 68352 H 6716.49 -2.86633 -0.882124 0
M  V30 68353 H 6714.04 -1.50446 -0.423758 0
M  V30 68354 H 6714.77 -1.34082 -2.95284 0
M  V30 68355 H 6714.56 -3.04749 -2.46719 0
M  V30 68356 H 6716.05 -2.53802 -3.31624 0
M  V30 68357 O 6716.53 0.326798 -1.58159 0
M  V30 68358 H 6717.22 0.97547 -1.67345 0
M  V30 END ATOM
M  V30 BEGIN BOND
M  V30 END BOND
M  V30 END CTAB
M  END
$$$$
