drugbank_target|P07360 Complement component C8 gamma chain (DB01593; DB03017; DB04272; DB14487)
 OpenBabel12092120293D

  0  0  0     0  0            999 V3000
M  V30 BEGIN CTAB
M  V30 COUNTS 3143 3178 0 0 0
M  V30 BEGIN ATOM
M  V30 1 H -0.908 1.98254 -0.117106 0
M  V30 2 N 0 1.576 0 0
M  V30 3 C 0.933 2.03868 1.02534 0
M  V30 4 C 1.911 0.928543 1.3348 0
M  V30 5 O 3.095 1.19667 1.45644 0
M  V30 6 C 0.222 2.43627 2.35294 0
M  V30 7 C -0.732 3.65373 2.2001 0
M  V30 8 S 0.101 5.13292 1.52614 0
M  V30 9 C 1.257 5.56322 2.86805 0
M  V30 10 H 1.49 2.90518 0.631377 0
M  V30 11 H -0.977 1.52953 0.210867 0
M  V30 12 H 0.981 2.67203 3.11629 0
M  V30 13 H -0.358 1.57376 2.7183 0
M  V30 14 H -1.165 3.90944 3.18086 0
M  V30 15 H -1.563 3.418 1.51819 0
M  V30 16 H 0.729 5.58782 3.83104 0
M  V30 17 H 1.672 6.56266 2.65933 0
M  V30 18 H 2.08 4.83886 2.90714 0
M  V30 19 N 1.4781 -0.272755 1.55222 0
M  V30 20 C 2.4081 -1.34136 1.91127 0
M  V30 21 C 3.3891 -1.51513 0.773168 0
M  V30 22 O 4.5741 -1.64552 1.03132 0
M  V30 23 C 1.7041 -2.70083 2.1834 0
M  V30 24 C 0.6581 -2.67437 3.34158 0
M  V30 25 C -0.0159 -4.06938 3.46851 0
M  V30 26 C 1.2841 -2.26686 4.70543 0
M  V30 27 H 2.9781 -1.04333 2.80633 0
M  V30 28 H 0.5241 -0.500454 1.35024 0
M  V30 29 H 2.4771 -3.44952 2.42046 0
M  V30 30 H 1.2011 -3.01469 1.25634 0
M  V30 31 H -0.1399 -1.95026 3.1042 0
M  V30 32 H -0.4919 -4.35547 2.51611 0
M  V30 33 H -0.7919 -4.06062 4.2472 0
M  V30 34 H 0.7321 -4.83545 3.72849 0
M  V30 35 H 2.1461 -2.91277 4.93792 0
M  V30 36 H 0.5431 -2.36971 5.5133 0
M  V30 37 H 1.6131 -1.21818 4.69349 0
M  V30 38 N 2.9562 -1.48159 -0.537278 0
M  V30 39 C 4.3672 -1.49429 -1.11928 0
M  V30 40 C 4.7182 -0.26 -1.9447 0
M  V30 41 O 3.8432 0.633489 -2.0692 0
M  V30 42 C 4.4382 -2.70758 -2.03656 0
M  V30 43 C 2.9972 -2.74923 -2.57088 0
M  V30 44 C 2.1442 -2.42835 -1.3389 0
M  V30 45 H 5.0952 -1.55381 -0.322886 0
M  V30 46 H 5.1162 -2.48861 -2.87834 0
M  V30 47 H 4.6282 -3.60575 -1.43553 0
M  V30 48 H 2.7292 -1.89296 -3.20933 0
M  V30 49 H 2.8422 -3.76157 -2.9672 0
M  V30 50 H 1.2062 -1.93836 -1.65226 0
M  V30 51 H 1.9892 -3.34884 -0.755504 0
M  V30 52 N 4.4343 0.785586 -1.36625 0
M  V30 53 C 5.8453 1.36101 -1.27803 0
M  V30 54 C 6.1963 1.96035 0.0804875 0
M  V30 55 O 5.3213 1.92834 0.982042 0
M  V30 56 C 5.9163 2.47442 -2.31426 0
M  V30 57 C 4.4753 3.00789 -2.26281 0
M  V30 58 C 3.6223 1.73896 -2.15999 0
M  V30 59 H 6.5733 0.586928 -1.47448 0
M  V30 60 H 6.5943 3.2656 -1.95291 0
M  V30 61 H 6.1063 2.03791 -3.30289 0
M  V30 62 H 4.2073 3.48851 -1.30896 0
M  V30 63 H 4.3203 3.57343 -3.19128 0
M  V30 64 H 2.6843 1.9628 -1.62316 0
M  V30 65 H 3.4673 1.32368 -3.16755 0
M  V30 66 N 5.9124 1.20967 1.01018 0
M  V30 67 C 7.1604 1.02172 1.74371 0
M  V30 68 C 7.4814 -0.446414 1.89821 0
M  V30 69 O 6.7514 -1.32234 1.44537 0
M  V30 70 H 5.3314 0.375066 0.646014 0
M  V30 71 H 7.9934 1.52187 1.21758 0
M  V30 72 H 7.0894 1.48538 2.74487 0
M  V30 73 N 7.3905 -1.2043 1.01659 0
M  V30 74 C 8.6185 -1.93777 0.725132 0
M  V30 75 C 9.0335 -1.74772 -0.714166 0
M  V30 76 O 8.3905 -1.06169 -1.4844 0
M  V30 77 C 8.4415 -3.45876 1.05129 0
M  V30 78 O 8.1625 -3.6426 2.43406 0
M  V30 79 C 9.6635 -4.36368 0.780891 0
M  V30 80 H 6.8835 -0.615901 0.266284 0
M  V30 81 H 9.4275 -1.52922 1.35776 0
M  V30 82 H 7.5825 -3.8461 0.464065 0
M  V30 83 H 7.9965 -4.58246 2.55169 0
M  V30 84 H 9.4705 -5.41743 1.05918 0
M  V30 85 H 9.9475 -4.38275 -0.284937 0
M  V30 86 H 10.5535 -4.03296 1.35027 0
M  V30 87 N 8.8686 -0.792821 -1.36206 0
M  V30 88 C 9.8316 -0.199459 -2.2833 0
M  V30 89 C 10.8316 0.605189 -1.48977 0
M  V30 90 O 12.0216 0.425685 -1.68919 0
M  V30 91 C 9.1536 0.723523 -3.33134 0
M  V30 92 H 10.3466 -1.01181 -2.82316 0
M  V30 93 H 7.8996 -0.562485 -1.45828 0
M  V30 94 H 8.6346 1.56008 -2.84309 0
M  V30 95 H 8.4196 0.148436 -3.91819 0
M  V30 96 H 9.9096 1.13344 -4.01924 0
M  V30 97 N 10.3467 1.47872 -0.545128 0
M  V30 98 C 11.5747 2.06889 -0.021084 0
M  V30 99 C 11.9897 1.39955 1.2672 0
M  V30 100 O 11.3467 0.492036 1.75742 0
M  V30 101 C 11.3977 3.60996 0.190817 0
M  V30 102 O 11.1187 4.25419 -1.04644 0
M  V30 103 C 12.6197 4.36849 0.753521 0
M  V30 104 H 9.8397 0.669785 -0.0403635 0
M  V30 105 H 12.3837 1.90049 -0.755095 0
M  V30 106 H 10.5387 3.77391 0.87492 0
M  V30 107 H 10.9527 5.17785 -0.836611 0
M  V30 108 H 12.4267 5.45399 0.851139 0
M  V30 109 H 12.9037 4.02306 1.762 0
M  V30 110 H 13.5097 4.25169 0.105503 0
M  V30 111 N 11.8248 0.280983 1.55075 0
M  V30 112 C 12.7548 -0.597469 2.25727 0
M  V30 113 C 13.7358 -1.15417 1.24952 0
M  V30 114 O 14.9208 -1.18722 1.53684 0
M  V30 115 C 12.0508 -1.7789 2.98283 0
M  V30 116 C 11.0048 -1.35347 4.06036 0
M  V30 117 C 10.3308 -2.61846 4.66198 0
M  V30 118 C 11.6308 -0.499354 5.19907 0
M  V30 119 H 13.3248 -0.00824265 2.99399 0
M  V30 120 H 10.8708 -0.0025244 1.44 0
M  V30 121 H 12.8238 -2.39937 3.46422 0
M  V30 122 H 11.5478 -2.39405 2.22155 0
M  V30 123 H 10.2068 -0.756156 3.58717 0
M  V30 124 H 9.8548 -3.21632 3.86732 0
M  V30 125 H 9.5548 -2.3409 5.38958 0
M  V30 126 H 11.0788 -3.24732 5.1709 0
M  V30 127 H 12.4928 -1.02498 5.64063 0
M  V30 128 H 10.8898 -0.316424 5.99265 0
M  V30 129 H 11.9598 0.480459 4.82514 0
M  V30 130 N 13.3029 -1.57598 0.00835791 0
M  V30 131 C 14.2329 -2.1198 -0.979113 0
M  V30 132 C 15.2139 -1.03091 -1.35301 0
M  V30 133 O 16.3989 -1.30818 -1.43528 0
M  V30 134 C 13.5289 -2.62995 -2.26828 0
M  V30 135 C 12.4829 -3.76485 -2.03576 0
M  V30 136 C 11.8089 -4.13846 -3.38579 0
M  V30 137 C 13.1089 -5.0342 -1.39161 0
M  V30 138 H 14.8029 -2.94738 -0.526281 0
M  V30 139 H 12.3489 -1.41783 -0.251704 0
M  V30 140 H 14.3019 -2.99669 -2.96271 0
M  V30 141 H 13.0259 -1.7737 -2.7424 0
M  V30 142 H 11.6849 -3.40217 -1.36557 0
M  V30 143 H 11.3329 -3.25232 -3.83709 0
M  V30 144 H 11.0329 -4.90312 -3.23834 0
M  V30 145 H 12.5569 -4.53086 -4.09323 0
M  V30 146 H 13.9709 -5.37812 -1.98573 0
M  V30 147 H 12.3679 -5.84746 -1.34878 0
M  V30 148 H 13.4379 -4.83548 -0.361868 0
M  V30 149 N 14.781 0.264519 -1.55364 0
M  V30 150 C 16.009 1.013 -1.80405 0
M  V30 151 C 16.424 1.79618 -0.581622 0
M  V30 152 O 15.781 1.76879 0.449468 0
M  V30 153 C 15.832 1.96487 -3.03439 0
M  V30 154 O 15.553 1.21341 -4.20961 0
M  V30 155 C 17.054 2.83079 -3.41147 0
M  V30 156 H 14.274 0.298875 -0.600762 0
M  V30 157 H 16.818 0.292736 -2.02394 0
M  V30 158 H 14.973 2.63965 -2.83551 0
M  V30 159 H 15.387 1.85573 -4.90574 0
M  V30 160 H 16.861 3.4565 -4.30384 0
M  V30 161 H 17.338 3.53286 -2.60932 0
M  V30 162 H 17.944 2.2108 -3.63323 0
M  V30 163 N 16.2591 1.48442 0.529413 0
M  V30 164 C 17.1891 1.65902 1.64313 0
M  V30 165 C 18.1701 0.507897 1.6234 0
M  V30 166 O 19.3551 0.740503 1.79528 0
M  V30 167 C 16.4851 1.69911 3.02898 0
M  V30 168 C 15.4391 2.8453 3.19729 0
M  V30 169 C 14.7651 2.73629 4.59381 0
M  V30 170 C 16.0651 4.25821 3.02447 0
M  V30 171 H 17.7591 2.5914 1.49955 0
M  V30 172 H 15.3051 1.24709 0.719982 0
M  V30 173 H 17.2581 1.80715 3.80684 0
M  V30 174 H 15.9821 0.732524 3.18279 0
M  V30 175 H 14.6411 2.73283 2.44361 0
M  V30 176 H 14.2891 1.74938 4.71599 0
M  V30 177 H 13.9891 3.50541 4.71588 0
M  V30 178 H 15.5131 2.86401 5.39265 0
M  V30 179 H 16.9271 4.37898 3.70024 0
M  V30 180 H 15.3241 5.03735 3.26146 0
M  V30 181 H 16.3941 4.42244 1.98867 0
M  V30 182 N 17.7372 -0.778329 1.37039 0
M  V30 183 C 18.6672 -1.90546 1.34962 0
M  V30 184 C 19.6482 -1.68681 0.219274 0
M  V30 185 O 20.8332 -1.89634 0.418624 0
M  V30 186 C 17.9632 -3.27734 1.14925 0
M  V30 187 C 16.9172 -3.64147 2.24902 0
M  V30 188 C 16.2432 -4.99806 1.89996 0
M  V30 189 C 17.5432 -3.71579 3.67051 0
M  V30 190 H 19.2372 -1.92541 2.29277 0
M  V30 191 H 16.7832 -0.924948 1.10366 0
M  V30 192 H 18.7362 -4.06215 1.12104 0
M  V30 193 H 17.4602 -3.26154 0.170631 0
M  V30 194 H 16.1192 -2.8797 2.26868 0
M  V30 195 H 15.7672 -4.94759 0.906796 0
M  V30 196 H 15.4672 -5.25139 2.63634 0
M  V30 197 H 16.9912 -5.80694 1.88749 0
M  V30 198 H 18.4052 -4.40227 3.67251 0
M  V30 199 H 16.8022 -4.08405 4.39688 0
M  V30 200 H 17.8722 -2.72404 4.01154 0
M  V30 201 N 19.2153 -1.21501 -1.00376 0
M  V30 202 C 20.1453 -0.999478 -2.11028 0
M  V30 203 C 21.1263 0.0759671 -1.6993 0
M  V30 204 O 22.3113 -0.0841106 -1.94018 0
M  V30 205 C 19.4413 -0.564709 -3.42678 0
M  V30 206 C 18.3953 -1.58486 -3.97576 0
M  V30 207 C 17.7213 -1.00628 -5.25146 0
M  V30 208 C 19.0213 -2.97204 -4.29496 0
M  V30 209 H 20.7153 -1.92495 -2.29317 0
M  V30 210 H 18.2613 -0.92693 -1.102 0
M  V30 211 H 20.2143 -0.401091 -4.19487 0
M  V30 212 H 18.9383 0.396411 -3.24185 0
M  V30 213 H 17.5973 -1.73606 -3.22888 0
M  V30 214 H 17.2453 -0.0368439 -5.02987 0
M  V30 215 H 16.9453 -1.68771 -5.62841 0
M  V30 216 H 18.4693 -0.854015 -6.04598 0
M  V30 217 H 19.8833 -2.8552 -4.97143 0
M  V30 218 H 18.2803 -3.62372 -4.78338 0
M  V30 219 H 19.3503 -3.47956 -3.3772 0
M  V30 220 N 20.6934 1.19889 -1.02296 0
M  V30 221 C 21.6564 2.21116 -0.603351 0
M  V30 222 C 22.6564 1.5738 0.329884 0
M  V30 223 O 23.8464 1.73802 0.117702 0
M  V30 224 C 20.9784 3.40696 0.117992 0
M  V30 225 H 22.1714 2.59754 -1.49893 0
M  V30 226 H 19.7244 1.33463 -0.813468 0
M  V30 227 H 20.4594 3.07569 1.0282 0
M  V30 228 H 20.2444 3.88188 -0.552511 0
M  V30 229 H 21.7344 4.15692 0.398696 0
M  V30 230 N 22.1715 0.800033 1.35784 0
M  V30 231 C 23.1345 0.211565 2.28221 0
M  V30 232 C 24.1345 -0.59728 1.49296 0
M  V30 233 O 25.3245 -0.416721 1.69142 0
M  V30 234 C 22.4565 -0.705846 3.33513 0
M  V30 235 H 23.6495 1.02677 2.81776 0
M  V30 236 H 21.2025 0.570211 1.45528 0
M  V30 237 H 21.9375 -1.54498 2.85133 0
M  V30 238 H 21.7225 -0.127655 3.91892 0
M  V30 239 H 23.2125 -1.11211 4.02519 0
M  V30 240 N 23.6496 -1.47581 0.552962 0
M  V30 241 C 24.8976 -2.02082 0.0272703 0
M  V30 242 C 25.2186 -1.4301 -1.32563 0
M  V30 243 O 24.4886 -0.603745 -1.86365 0
M  V30 244 H 23.0686 -0.746966 0.00709182 0
M  V30 245 H 25.7306 -1.81033 0.722008 0
M  V30 246 H 24.8266 -3.12034 -0.0639951 0
M  V30 247 N 25.1277 -0.289203 -1.54924 0
M  V30 248 C 26.3527 0.329299 -2.04769 0
M  V30 249 C 26.7777 1.4763 -1.16564 0
M  V30 250 O 26.1357 1.80527 -0.167186 0
M  V30 251 C 26.1837 0.774438 -3.52186 0
M  V30 252 O 25.2877 1.88038 -3.67036 0
M  V30 253 H 24.6287 0.0659259 -0.660719 0
M  V30 254 H 27.1587 -0.42761 -2.00082 0
M  V30 255 H 27.1687 1.06642 -3.93816 0
M  V30 256 H 25.8437 -0.0646707 -4.1585 0
M  V30 257 H 24.4207 1.58985 -3.3731 0
M  V30 258 N 26.6058 1.57591 -0.0167156 0
M  V30 259 C 27.5358 2.12496 0.967858 0
M  V30 260 C 28.5168 1.03807 1.34752 0
M  V30 261 O 29.7018 1.31577 1.42833 0
M  V30 262 C 26.8318 2.64194 2.25431 0
M  V30 263 C 25.7858 3.77559 2.01576 0
M  V30 264 C 25.1118 4.15636 3.36379 0
M  V30 265 C 26.4118 5.04151 1.36489 0
M  V30 266 H 28.1058 2.95013 0.510643 0
M  V30 267 H 25.6518 1.41915 0.244181 0
M  V30 268 H 27.6048 3.01236 2.94678 0
M  V30 269 H 26.3288 1.78821 2.73296 0
M  V30 270 H 24.9878 3.40937 1.34751 0
M  V30 271 H 24.6358 3.27263 3.81979 0
M  V30 272 H 24.3358 4.92022 3.21229 0
M  V30 273 H 25.8598 4.5525 4.06915 0
M  V30 274 H 27.2738 5.38857 1.95718 0
M  V30 275 H 25.6708 5.85453 1.31776 0
M  V30 276 H 26.7408 4.83733 0.336219 0
M  V30 277 N 28.0839 -0.256276 1.55502 0
M  V30 278 C 29.3319 -0.983672 1.76545 0
M  V30 279 C 29.6529 -1.86206 0.578982 0
M  V30 280 O 28.9229 -1.91656 -0.405577 0
M  V30 281 H 27.5029 -0.366191 0.651086 0
M  V30 282 H 30.1649 -0.276479 1.92929 0
M  V30 283 H 29.2609 -1.61087 2.67315 0
M  V30 284 N 29.562 -1.4872 -0.521534 0
M  V30 285 C 30.494 -1.59968 -1.64143 0
M  V30 286 C 31.507 -0.483463 -1.55456 0
M  V30 287 O 32.696 -0.75467 -1.61762 0
M  V30 288 C 29.796 -1.52127 -3.02838 0
M  V30 289 C 28.969 -2.78932 -3.36921 0
M  V30 290 C 28.028 -2.64428 -4.54933 0
M  V30 291 O 27.054 -3.38331 -4.57735 0
M  V30 292 N 28.256 -1.74606 -5.53618 0
M  V30 293 H 31.021 -2.56548 -1.54929 0
M  V30 294 H 28.582 -1.45551 -0.708988 0
M  V30 295 H 30.574 -1.40106 -3.79674 0
M  V30 296 H 29.144 -0.634868 -3.06085 0
M  V30 297 H 28.364 -3.05455 -2.4918 0
M  V30 298 H 29.652 -3.63041 -3.56481 0
M  V30 299 H 29.05 -1.13782 -5.54139 0
M  V30 300 H 27.607 -1.6852 -6.29638 0
M  V30 301 N 31.0401 0.771051 -1.3745 0
M  V30 302 C 31.9871 1.88435 -1.3327 0
M  V30 303 C 32.9571 1.64914 -0.198136 0
M  V30 304 O 34.1421 1.86821 -0.387606 0
M  V30 305 C 31.2821 3.25509 -1.14622 0
M  V30 306 C 30.3951 3.60979 -2.37314 0
M  V30 307 C 29.5301 4.87265 -2.11533 0
M  V30 308 C 28.5691 5.15469 -3.30088 0
M  V30 309 N 27.7061 6.32944 -3.03853 0
M  V30 310 H 32.5461 1.91344 -2.28455 0
M  V30 311 H 30.0831 0.935466 -1.13523 0
M  V30 312 H 32.0411 4.04582 -1.01831 0
M  V30 313 H 30.6711 3.21974 -0.230837 0
M  V30 314 H 29.7231 2.76885 -2.60842 0
M  V30 315 H 31.0351 3.77759 -3.25729 0
M  V30 316 H 30.1891 5.74244 -1.95777 0
M  V30 317 H 28.9281 4.7259 -1.20457 0
M  V30 318 H 27.9331 4.26966 -3.46382 0
M  V30 319 H 29.1581 5.32052 -4.22016 0
M  V30 320 H 27.1041 6.19625 -2.15407 0
M  V30 321 H 27.0211 6.50143 -3.85812 0
M  V30 322 H 28.2891 7.22857 -2.91716 0
M  V30 323 N 32.5182 1.22032 0.997298 0
M  V30 324 C 33.9292 1.0397 1.55071 0
M  V30 325 C 34.2802 -0.398192 1.92117 0
M  V30 326 O 33.4052 -1.28254 1.74298 0
M  V30 327 C 34.0002 1.88109 2.81781 0
M  V30 328 C 32.5592 1.74357 3.33581 0
M  V30 329 C 31.7062 1.84846 2.06706 0
M  V30 330 H 34.6572 1.35941 0.818883 0
M  V30 331 H 34.6782 1.39589 3.53971 0
M  V30 332 H 34.1902 2.92754 2.54787 0
M  V30 333 H 32.2912 0.72427 3.65493 0
M  V30 334 H 32.4042 2.56772 4.04481 0
M  V30 335 H 30.7682 1.28238 2.20062 0
M  V30 336 H 31.5512 2.91014 1.82114 0
M  V30 337 N 33.9963 -1.19345 1.0293 0
M  V30 338 C 34.9283 -2.22036 0.56857 0
M  V30 339 C 35.9413 -1.58865 -0.355779 0
M  V30 340 O 37.1303 -1.77851 -0.152103 0
M  V30 341 C 34.2303 -3.38363 -0.190752 0
M  V30 342 C 33.4033 -4.31118 0.738643 0
M  V30 343 C 32.4623 -5.26194 0.0246497 0
M  V30 344 O 31.4883 -5.65461 0.651354 0
M  V30 345 N 32.6903 -5.66971 -1.24594 0
M  V30 346 H 35.4553 -2.6219 1.45177 0
M  V30 347 H 33.0163 -1.34015 0.908381 0
M  V30 348 H 35.0083 -3.98981 -0.677961 0
M  V30 349 H 33.5783 -2.96994 -0.975366 0
M  V30 350 H 32.7983 -3.68276 1.40593 0
M  V30 351 H 34.0863 -4.90001 1.37029 0
M  V30 352 H 33.4843 -5.37104 -1.77583 0
M  V30 353 H 32.0413 -6.2984 -1.67764 0
M  V30 354 N 35.4744 -0.807222 -1.35358 0
M  V30 355 C 36.8904 -0.491038 -1.51858 0
M  V30 356 C 37.0904 0.987648 -1.75635 0
M  V30 357 O 36.1464 1.77265 -1.79815 0
M  V30 358 C 37.4594 -1.33695 -2.69344 0
M  V30 359 C 39.0074 -1.33246 -2.83222 0
M  V30 360 C 39.4824 -2.1625 -4.03733 0
M  V30 361 N 40.9734 -2.1379 -4.10911 0
M  V30 362 C 41.7084 -2.74772 -5.03277 0
M  V30 363 N 41.2044 -3.44684 -6.0097 0
M  V30 364 N 42.9974 -2.6441 -4.96028 0
M  V30 365 H 35.1484 -1.76485 -1.18181 0
M  V30 366 H 37.4114 -0.751199 -0.578276 0
M  V30 367 H 37.1174 -2.38634 -2.58354 0
M  V30 368 H 36.9914 -0.990618 -3.6396 0
M  V30 369 H 39.3784 -0.290911 -2.93663 0
M  V30 370 H 39.4594 -1.71866 -1.89461 0
M  V30 371 H 39.1034 -3.20445 -3.94052 0
M  V30 372 H 39.0334 -1.74989 -4.96675 0
M  V30 373 H 41.5244 -1.62923 -3.40976 0
M  V30 374 H 41.8374 -3.88501 -6.68047 0
M  V30 375 H 40.1824 -3.48788 -6.01142 0
M  V30 376 H 43.3734 -2.0938 -4.18662 0
M  V30 377 H 43.5464 -3.12225 -5.6782 0
M  V30 378 N 36.9525 1.47285 -0.560781 0
M  V30 379 C 38.3635 1.86258 -0.128343 0
M  V30 380 C 38.7145 1.46699 1.30284 0
M  V30 381 O 37.8395 0.871698 1.98067 0
M  V30 382 C 38.4345 3.38044 -0.22614 0
M  V30 383 C 36.9935 3.76096 0.151283 0
M  V30 384 C 36.1405 2.71335 -0.572084 0
M  V30 385 H 39.0915 1.38752 -0.770297 0
M  V30 386 H 39.1125 3.76441 0.554322 0
M  V30 387 H 38.6245 3.66806 -1.26788 0
M  V30 388 H 36.7255 3.52951 1.19399 0
M  V30 389 H 36.8385 4.78641 -0.209765 0
M  V30 390 H 35.2025 2.54696 -0.0147653 0
M  V30 391 H 35.9855 3.02938 -1.61504 0
M  V30 392 N 38.4306 0.297415 1.54768 0
M  V30 393 C 39.8466 -0.0560823 1.59501 0
M  V30 394 C 40.0466 -1.52725 1.31444 0
M  V30 395 O 39.1026 -2.27947 1.08611 0
M  V30 396 C 40.4156 0.338631 2.98787 0
M  V30 397 C 41.9636 0.287097 3.11681 0
M  V30 398 C 42.4386 0.656579 4.53269 0
M  V30 399 N 43.9296 0.608977 4.59179 0
M  V30 400 C 44.6646 0.867385 5.66802 0
M  V30 401 N 44.1606 1.19157 6.82476 0
M  V30 402 N 45.9536 0.794687 5.56454 0
M  V30 403 H 38.1046 1.25624 1.71267 0
M  V30 404 H 40.3676 0.509057 0.799728 0
M  V30 405 H 40.0736 1.36263 3.2423 0
M  V30 406 H 39.9476 -0.309508 3.75928 0
M  V30 407 H 42.3346 -0.727649 2.85988 0
M  V30 408 H 42.4156 0.969809 2.36703 0
M  V30 409 H 42.0596 1.66912 4.7969 0
M  V30 410 H 41.9896 -0.0481649 5.26578 0
M  V30 411 H 44.4806 0.369198 3.76092 0
M  V30 412 H 44.7936 1.37482 7.60473 0
M  V30 413 H 43.1386 1.22958 6.84037 0
M  V30 414 H 46.3296 0.541098 4.64962 0
M  V30 415 H 46.5026 0.999445 6.40246 0
M  V30 416 N 39.9087 -1.5758 0.0250728 0
M  V30 417 C 41.3247 -1.56124 -0.331282 0
M  V30 418 C 41.5247 -1.03029 -1.73169 0
M  V30 419 O 40.5807 -0.675215 -2.43305 0
M  V30 420 C 41.8937 -3.00139 -0.183584 0
M  V30 421 C 43.4417 -3.11946 -0.256654 0
M  V30 422 C 43.9167 -4.57793 -0.137792 0
M  V30 423 N 45.4077 -4.6279 -0.194904 0
M  V30 424 C 46.1427 -5.7326 -0.126655 0
M  V30 425 N 45.6387 -6.928 -0.00755288 0
M  V30 426 N 47.4317 -5.61811 -0.180348 0
M  V30 427 H 39.5827 -1.90424 0.94087 0
M  V30 428 H 41.8457 -0.875761 0.362968 0
M  V30 429 H 41.5517 -3.4292 0.780927 0
M  V30 430 H 41.4257 -3.64899 -0.955448 0
M  V30 431 H 43.8127 -2.69079 -1.21162 0
M  V30 432 H 43.8937 -2.49915 0.545517 0
M  V30 433 H 43.5377 -5.01339 0.813739 0
M  V30 434 H 43.4677 -5.17798 -0.958775 0
M  V30 435 H 45.9587 -3.76807 -0.287267 0
M  V30 436 H 46.2717 -7.72791 0.0379428 0
M  V30 437 H 44.6167 -6.94995 0.0271731 0
M  V30 438 H 47.8077 -4.6731 -0.271767 0
M  V30 439 H 47.9807 -6.47882 -0.123697 0
M  V30 440 N 41.3868 0.248026 -1.55636 0
M  V30 441 C 42.7978 0.817177 -1.67866 0
M  V30 442 C 43.1488 1.86069 -0.622322 0
M  V30 443 O 42.2738 2.15157 0.231618 0
M  V30 444 C 42.8688 1.489 -3.04326 0
M  V30 445 C 41.4278 2.00587 -3.185 0
M  V30 446 C 40.5748 0.856573 -2.63739 0
M  V30 447 H 43.5258 0.0238579 -1.58682 0
M  V30 448 H 43.5468 2.35698 -2.98708 0
M  V30 449 H 43.0588 0.729279 -3.81186 0
M  V30 450 H 41.1598 2.79443 -2.4646 0
M  V30 451 H 41.2728 2.20402 -4.25393 0
M  V30 452 H 39.6368 1.25678 -2.21534 0
M  V30 453 H 40.4198 0.109953 -3.43124 0
M  V30 454 N 42.8649 1.48995 0.513639 0
M  V30 455 C 43.8279 1.64229 1.59879 0
M  V30 456 C 44.8279 0.514696 1.5234 0
M  V30 457 O 46.0179 0.78087 1.55718 0
M  V30 458 C 43.1499 1.62783 2.99524 0
M  V30 459 H 44.3429 2.61004 1.47705 0
M  V30 460 H 41.8959 1.37837 0.736936 0
M  V30 461 H 42.6309 0.675461 3.17188 0
M  V30 462 H 42.4159 2.4466 3.06404 0
M  V30 463 H 43.9059 1.76669 3.78388 0
M  V30 464 N 44.343 -0.763751 1.37857 0
M  V30 465 C 45.568 -1.55805 1.36893 0
M  V30 466 C 45.993 -1.88054 -0.0416135 0
M  V30 467 O 45.351 -1.49825 -1.02089 0
M  V30 468 C 45.399 -2.84012 2.22192 0
M  V30 469 O 44.503 -3.78732 1.63204 0
M  V30 470 H 43.844 -0.471638 0.46739 0
M  V30 471 H 46.374 -0.944657 1.81487 0
M  V30 472 H 46.384 -3.33037 2.35691 0
M  V30 473 H 45.059 -2.59869 3.24716 0
M  V30 474 H 43.636 -3.37402 1.58791 0
M  V30 475 N 45.8211 -1.22559 -0.990812 0
M  V30 476 C 47.2321 -1.04791 -1.54518 0
M  V30 477 C 47.5831 0.387998 -1.92325 0
M  V30 478 O 46.7081 1.27328 -1.74976 0
M  V30 479 C 47.3031 -1.896 -2.80779 0
M  V30 480 C 45.8621 -1.76124 -3.32652 0
M  V30 481 C 45.0091 -1.8594 -2.05722 0
M  V30 482 H 47.9601 -1.36374 -0.811662 0
M  V30 483 H 47.9811 -1.41464 -3.53225 0
M  V30 484 H 47.4931 -2.94101 -2.53231 0
M  V30 485 H 45.5941 -0.743643 -3.65104 0
M  V30 486 H 45.7071 -2.58913 -4.03114 0
M  V30 487 H 44.0711 -1.29403 -2.19379 0
M  V30 488 H 44.8541 -2.91976 -1.80568 0
M  V30 489 N 47.2992 1.18797 -1.03562 0
M  V30 490 C 48.5482 1.87978 -0.731235 0
M  V30 491 C 48.8612 1.80911 0.743671 0
M  V30 492 O 50.0672 2.45407 1.16137 0
M  V30 493 C 48.5232 3.3721 -1.25768 0
M  V30 494 C 48.1312 3.52818 -2.76085 0
M  V30 495 C 49.8752 4.11825 -1.0296 0
M  V30 496 C 47.7822 4.9598 -3.22114 0
M  V30 497 H 46.7122 0.704063 -0.269835 0
M  V30 498 H 49.3632 1.34266 -1.25079 0
M  V30 499 H 47.7452 3.90359 -0.666011 0
M  V30 500 H 48.9192 3.09965 -3.40966 0
M  V30 501 H 47.2342 2.91602 -2.97249 0
M  V30 502 H 49.8312 5.17411 -1.34869 0
M  V30 503 H 50.1742 4.16287 0.0333546 0
M  V30 504 H 50.7072 3.64833 -1.58562 0
M  V30 505 H 47.4462 4.96684 -4.27768 0
M  V30 506 H 46.9662 5.39569 -2.61965 0
M  V30 507 H 48.6452 5.6467 -3.15844 0
M  V30 508 N 48.7773 0.814389 1.34928 0
M  V30 509 C 50.0023 0.410097 2.03305 0
M  V30 510 C 50.4273 -0.973464 1.60951 0
M  V30 511 O 49.7853 -1.63185 0.789964 0
M  V30 512 C 49.8333 0.51049 3.56968 0
M  V30 513 O 48.9373 -0.473035 4.09678 0
M  V30 514 H 48.2783 0.170088 0.641846 0
M  V30 515 H 50.8083 1.10244 1.72358 0
M  V30 516 H 50.8183 0.383135 4.06197 0
M  V30 517 H 49.4933 1.51963 3.87144 0
M  V30 518 H 48.0703 -0.305272 3.71648 0
M  V30 519 N 50.2554 -1.46986 0.568584 0
M  V30 520 C 51.4834 -2.0683 0.0539956 0
M  V30 521 C 51.8984 -1.41953 -1.24478 0
M  V30 522 O 51.2554 -0.519933 -1.74937 0
M  V30 523 C 51.3064 -3.61254 -0.133362 0
M  V30 524 O 51.0274 -4.237 1.11399 0
M  V30 525 C 52.5284 -4.37992 -0.683927 0
M  V30 526 H 49.7484 -0.669058 0.0510141 0
M  V30 527 H 52.2924 -1.88824 0.785234 0
M  V30 528 H 50.4474 -3.78735 -0.81477 0
M  V30 529 H 50.8614 -5.16388 0.91888 0
M  V30 530 H 52.3354 -5.46684 -0.764263 0
M  V30 531 H 52.8124 -4.05058 -1.69778 0
M  V30 532 H 53.4184 -4.25283 -0.0378494 0
M  V30 533 N 51.7335 -0.305618 -1.54608 0
M  V30 534 C 52.9825 0.303098 -1.9941 0
M  V30 535 C 53.2955 1.54648 -1.19764 0
M  V30 536 O 54.5015 2.23007 -1.54855 0
M  V30 537 C 52.9575 0.590588 -3.55021 0
M  V30 538 C 52.5655 -0.634719 -4.43481 0
M  V30 539 C 54.3095 1.16025 -4.08336 0
M  V30 540 C 52.2165 -0.320126 -5.90533 0
M  V30 541 H 51.1465 0.117031 -0.744862 0
M  V30 542 H 53.7975 -0.415045 -1.78745 0
M  V30 543 H 52.1795 1.36845 -3.71604 0
M  V30 544 H 53.3535 -1.41079 -4.38672 0
M  V30 545 H 51.6685 -1.12333 -4.00962 0
M  V30 546 H 54.2655 1.40994 -5.15776 0
M  V30 547 H 54.6085 2.10397 -3.5922 0
M  V30 548 H 55.1415 0.443985 -3.95315 0
M  V30 549 H 51.8805 -1.23254 -6.43808 0
M  V30 550 H 51.4005 0.418579 -5.98338 0
M  V30 551 H 53.0795 0.0766241 -6.46955 0
M  V30 552 N 53.2116 1.57565 -0.0334293 0
M  V30 553 C 54.1436 2.0739 0.975811 0
M  V30 554 C 55.1566 0.998166 1.2861 0
M  V30 555 O 56.3456 1.27426 1.25 0
M  V30 556 C 53.4456 2.4871 2.30209 0
M  V30 557 C 52.6186 3.79413 2.17634 0
M  V30 558 C 51.6776 4.07237 3.33233 0
M  V30 559 O 50.7036 4.77425 3.09927 0
M  V30 560 N 51.9056 3.5775 4.5716 0
M  V30 561 H 54.6706 2.94598 0.55066 0
M  V30 562 H 52.2316 1.61173 0.15323 0
M  V30 563 H 54.2236 2.64413 3.06378 0
M  V30 564 H 52.7936 1.66845 2.64351 0
M  V30 565 H 52.0136 3.73465 1.26165 0
M  V30 566 H 53.3016 4.65038 2.0644 0
M  V30 567 H 52.6996 3.00976 4.78989 0
M  V30 568 H 51.2566 3.78724 5.30482 0
M  V30 569 N 54.6897 -0.239769 1.55765 0
M  V30 570 C 56.1007 -0.808263 1.68297 0
M  V30 571 C 56.4517 -1.85736 0.632181 0
M  V30 572 O 55.5767 -2.15277 -0.220204 0
M  V30 573 C 56.1717 -1.47284 3.05111 0
M  V30 574 C 54.7307 -1.98895 3.19559 0
M  V30 575 C 53.8777 -0.842575 2.64189 0
M  V30 576 H 56.8287 -0.0154422 1.58692 0
M  V30 577 H 56.8497 -2.34111 2.99954 0
M  V30 578 H 56.3617 -0.709053 3.81568 0
M  V30 579 H 54.4627 -2.78132 2.47938 0
M  V30 580 H 54.5757 -2.18143 4.26556 0
M  V30 581 H 52.9397 -1.24501 2.22197 0
M  V30 582 H 53.7227 -0.0917552 3.43177 0
M  V30 583 N 56.1678 -1.49265 -0.50573 0
M  V30 584 C 57.1148 -1.65585 -1.6078 0
M  V30 585 C 58.0848 -0.497396 -1.58478 0
M  V30 586 O 59.2698 -0.72385 -1.76536 0
M  V30 587 C 56.4098 -1.72408 -2.98948 0
M  V30 588 C 55.5228 -2.99525 -3.11301 0
M  V30 589 C 54.6578 -2.97356 -4.40174 0
M  V30 590 C 53.6968 -4.19074 -4.46143 0
M  V30 591 N 52.8338 -4.14841 -5.66437 0
M  V30 592 H 57.6738 -2.59688 -1.46172 0
M  V30 593 H 55.2108 -1.28761 -0.711261 0
M  V30 594 H 57.1688 -1.74344 -3.79025 0
M  V30 595 H 55.7988 -0.817753 -3.1227 0
M  V30 596 H 54.8508 -3.07222 -2.24318 0
M  V30 597 H 56.1628 -3.89518 -3.11572 0
M  V30 598 H 55.3168 -2.97829 -5.28567 0
M  V30 599 H 54.0558 -2.05133 -4.42461 0
M  V30 600 H 53.0608 -4.1885 -3.56153 0
M  V30 601 H 54.2858 -5.12483 -4.45575 0
M  V30 602 H 52.2318 -3.25453 -5.69575 0
M  V30 603 H 52.1488 -4.98564 -5.68304 0
M  V30 604 H 53.4168 -4.1941 -6.57051 0
M  V30 605 N 57.6459 0.756429 -1.3826 0
M  V30 606 C 58.6089 1.85176 -1.35065 0
M  V30 607 C 59.6089 1.58818 -0.251703 0
M  V30 608 O 60.7989 1.66615 -0.508433 0
M  V30 609 C 57.9309 3.22596 -1.10201 0
M  V30 610 H 59.1239 1.89417 -2.3251 0
M  V30 611 H 56.6769 0.95783 -1.23512 0
M  V30 612 H 57.4119 3.24025 -0.133504 0
M  V30 613 H 57.1969 3.43122 -1.89762 0
M  V30 614 H 58.6869 4.02673 -1.10654 0
M  V30 615 N 59.124 1.23083 0.984299 0
M  V30 616 C 60.072 1.00593 2.09723 0
M  V30 617 C 61.066 -0.0538014 1.69315 0
M  V30 618 O 62.272 0.0993719 1.79725 0
M  V30 619 H 58.647 0.30817 0.685956 0
M  V30 620 H 60.618 1.95012 2.2586 0
M  V30 621 C 59.367 0.609601 3.42314 0
M  V30 622 H 58.69 1.41675 3.73856 0
M  V30 623 H 60.13 0.491726 4.21139 0
M  V30 624 C 58.589 -0.681745 3.2993 0
M  V30 625 O 59.119 -1.73192 3.62446 0
M  V30 626 N 57.325 -0.656178 2.83095 0
M  V30 627 H 56.872 0.198759 2.56832 0
M  V30 628 H 56.83 -1.52044 2.75191 0
M  V30 629 N 60.6021 -1.18246 1.0419 0
M  V30 630 C 61.8491 -1.88257 0.746017 0
M  V30 631 C 62.1771 -1.80429 -0.726331 0
M  V30 632 O 61.4321 -1.2 -1.54591 0
M  V30 633 C 61.7311 -3.38082 1.15911 0
M  V30 634 C 61.3971 -3.66114 2.63195 0
M  V30 635 C 60.0591 -3.73474 3.03432 0
M  V30 636 C 62.4111 -3.78398 3.5842 0
M  V30 637 C 59.7391 -3.90599 4.37778 0
M  V30 638 C 62.0911 -3.97039 4.92487 0
M  V30 639 C 60.7551 -4.02635 5.32392 0
M  V30 640 H 60.0251 -0.688883 0.272987 0
M  V30 641 H 62.6721 -1.3995 1.30715 0
M  V30 642 H 60.9771 -3.88377 0.516806 0
M  V30 643 H 62.6741 -3.90596 0.907516 0
M  V30 644 H 59.2641 -3.61003 2.3103 0
M  V30 645 H 63.4481 -3.72042 3.28479 0
M  V30 646 H 58.7041 -3.93175 4.68213 0
M  V30 647 H 62.8781 -4.05486 5.66175 0
M  V30 648 H 60.5051 -4.15657 6.36501 0
M  V30 649 N 62.0802 -0.821533 -1.34494 0
M  V30 650 C 63.3572 -0.33159 -1.92769 0
M  V30 651 C 63.7372 1.18088 -1.74981 0
M  V30 652 O 63.0852 1.98733 -1.12772 0
M  V30 653 C 63.2952 -0.759398 -3.40638 0
M  V30 654 C 64.6432 -0.757433 -4.1779 0
M  V30 655 O 65.6672 -0.70189 -3.49216 0
M  V30 656 O 64.5262 -0.829361 -5.4017 0
M  V30 657 H 61.6202 -0.0902502 -0.822061 0
M  V30 658 H 64.1662 -0.906231 -1.43477 0
M  V30 659 H 62.9382 -1.8012 -3.47379 0
M  V30 660 H 62.5612 -0.160378 -3.97276 0
M  V30 661 N 63.5583 1.46682 -0.576371 0
M  V30 662 C 64.5213 2.28707 0.150239 0
M  V30 663 C 65.5213 1.38035 0.824794 0
M  V30 664 O 66.7113 1.60476 0.677719 0
M  V30 665 C 63.8433 3.18248 1.22192 0
M  V30 666 H 65.0363 2.94423 -0.570521 0
M  V30 667 H 62.5893 1.52688 -0.334078 0
M  V30 668 H 63.3243 2.57265 1.97447 0
M  V30 669 H 63.1093 3.85 0.742812 0
M  V30 670 H 64.5993 3.80001 1.73172 0
M  V30 671 N 65.0364 0.313813 1.54444 0
M  V30 672 C 65.9684 -0.590425 2.21465 0
M  V30 673 C 66.9814 -1.08753 1.21147 0
M  V30 674 O 68.1704 -1.00278 1.4767 0
M  V30 675 C 65.2704 -1.82179 2.85769 0
M  V30 676 C 64.4434 -1.46502 4.12136 0
M  V30 677 C 63.5024 -2.55288 4.60124 0
M  V30 678 O 62.5284 -2.19842 5.25032 0
M  V30 679 N 63.7304 -3.86053 4.33525 0
M  V30 680 H 66.4954 -0.0166033 2.99695 0
M  V30 681 H 64.0564 0.136578 1.61323 0
M  V30 682 H 66.0484 -2.54328 3.14801 0
M  V30 683 H 64.6184 -2.30369 2.11303 0
M  V30 684 H 63.8384 -0.575595 3.89975 0
M  V30 685 H 65.1264 -1.20221 4.94393 0
M  V30 686 H 64.5244 -4.17654 3.81552 0
M  V30 687 H 63.0814 -4.54461 4.67235 0
M  V30 688 N 66.5145 -1.57545 0.0417849 0
M  V30 689 C 67.4465 -2.07904 -0.964799 0
M  V30 690 C 68.4595 -1.00497 -1.28079 0
M  V30 691 O 69.6485 -1.28087 -1.24322 0
M  V30 692 C 66.7485 -2.49928 -2.28887 0
M  V30 693 C 65.9215 -3.80562 -2.15619 0
M  V30 694 C 64.9805 -4.08999 -3.31069 0
M  V30 695 O 64.0065 -4.79061 -3.0739 0
M  V30 696 N 65.2085 -3.6017 -4.55256 0
M  V30 697 H 67.9735 -2.94886 -0.535029 0
M  V30 698 H 65.5345 -1.61252 -0.144681 0
M  V30 699 H 67.5265 -2.66034 -3.04972 0
M  V30 700 H 66.0965 -1.68245 -2.63463 0
M  V30 701 H 65.3165 -3.74129 -1.24183 0
M  V30 702 H 66.6045 -4.66126 -2.03971 0
M  V30 703 H 66.0025 -3.03512 -4.77386 0
M  V30 704 H 64.5595 -3.81532 -5.28466 0
M  V30 705 N 67.9926 0.231505 -1.5589 0
M  V30 706 C 69.2396 0.957352 -1.78441 0
M  V30 707 C 69.5676 1.84726 -0.60882 0
M  V30 708 O 68.8226 1.91416 0.40725 0
M  V30 709 C 69.1216 1.83577 -3.0665 0
M  V30 710 C 68.7876 1.09993 -4.37278 0
M  V30 711 C 67.4496 0.896629 -4.72773 0
M  V30 712 C 69.8016 0.579558 -5.17968 0
M  V30 713 C 67.1296 0.160896 -5.86479 0
M  V30 714 C 69.4816 -0.142783 -6.32439 0
M  V30 715 C 68.1456 -0.357427 -6.66542 0
M  V30 716 H 67.4156 0.35032 -0.65296 0
M  V30 717 H 70.0626 0.226259 -1.90159 0
M  V30 718 H 68.3676 2.63441 -2.90011 0
M  V30 719 H 70.0646 2.39934 -3.21298 0
M  V30 720 H 66.6546 1.26835 -4.09403 0
M  V30 721 H 70.8386 0.724125 -4.90989 0
M  V30 722 H 66.0946 -0.0157293 -6.11398 0
M  V30 723 H 70.2686 -0.553559 -6.94196 0
M  V30 724 H 67.8956 -0.929466 -7.54497 0
M  V30 725 N 69.4707 1.49531 0.497807 0
M  V30 726 C 70.4337 1.65916 1.58128 0
M  V30 727 C 71.4337 0.530825 1.51786 0
M  V30 728 O 72.6237 0.797342 1.54881 0
M  V30 729 C 69.7557 1.65951 2.9778 0
M  V30 730 H 70.9487 2.62556 1.44929 0
M  V30 731 H 68.5017 1.38611 0.722275 0
M  V30 732 H 69.2367 0.709065 3.16453 0
M  V30 733 H 69.0217 2.47897 3.03792 0
M  V30 734 H 70.5117 1.80673 3.76493 0
M  V30 735 N 70.9488 -0.749086 1.3866 0
M  V30 736 C 72.1968 -1.50535 1.34847 0
M  V30 737 C 72.5178 -1.94909 -0.0595016 0
M  V30 738 O 71.7878 -1.67973 -1.00806 0
M  V30 739 H 70.3678 -0.558395 0.49619 0
M  V30 740 H 73.0298 -0.890165 1.73384 0
M  V30 741 H 72.1258 -2.39413 2.00219 0
M  V30 742 N 72.4269 -1.23603 -0.977757 0
M  V30 743 C 73.6549 -1.09646 -1.75458 0
M  V30 744 C 74.0699 0.351859 -1.85492 0
M  V30 745 O 73.4269 1.24327 -1.336 0
M  V30 746 C 73.4779 -1.71895 -3.18016 0
M  V30 747 O 73.1989 -3.11063 -3.08498 0
M  V30 748 C 74.6999 -1.63415 -4.12081 0
M  V30 749 H 71.9199 -0.38359 -0.550545 0
M  V30 750 H 74.4639 -1.63507 -1.22824 0
M  V30 751 H 72.6189 -1.22061 -3.67668 0
M  V30 752 H 73.0329 -3.41305 -3.9826 0
M  V30 753 H 74.5069 -2.11669 -5.09804 0
M  V30 754 H 74.9839 -0.593462 -4.35172 0
M  V30 755 H 75.5899 -2.12628 -3.68334 0
M  V30 756 N 73.905 1.17692 -1.04816 0
M  V30 757 C 75.151 1.88389 -0.766892 0
M  V30 758 C 75.506 1.79282 0.698269 0
M  V30 759 O 74.799 1.18739 1.50372 0
M  V30 760 C 74.993 3.37462 -1.17703 0
M  V30 761 C 74.822 3.6108 -2.68051 0
M  V30 762 C 73.592 3.78018 -3.35307 0
M  V30 763 C 75.79 3.61039 -3.66273 0
M  V30 764 N 73.772 3.89444 -4.74559 0
M  V30 765 C 75.143 3.78269 -4.91235 0
M  V30 766 C 77.198 3.44168 -3.59796 0
M  V30 767 C 75.901 3.80376 -6.10497 0
M  V30 768 C 77.927 3.4756 -4.78493 0
M  V30 769 C 77.289 3.65295 -6.02278 0
M  V30 770 H 73.388 0.707651 -0.332798 0
M  V30 771 H 75.972 1.41314 -1.33934 0
M  V30 772 H 74.143 3.83214 -0.63257 0
M  V30 773 H 75.875 3.95759 -0.845989 0
M  V30 774 H 72.63 3.77714 -2.85708 0
M  V30 775 H 73.054 3.98962 -5.46954 0
M  V30 776 H 77.696 3.29396 -2.65062 0
M  V30 777 H 75.414 3.93933 -7.05579 0
M  V30 778 H 79 3.3577 -4.75131 0
M  V30 779 H 77.88 3.6782 -6.92588 0
M  V30 780 N 75.3831 0.828654 1.34056 0
M  V30 781 C 76.3131 0.269443 2.3194 0
M  V30 782 C 77.2941 -0.617247 1.58506 0
M  V30 783 O 78.4791 -0.542931 1.86456 0
M  V30 784 C 75.6091 -0.564793 3.42677 0
M  V30 785 C 74.5631 0.225241 4.27407 0
M  V30 786 C 73.8891 -0.7321 5.29664 0
M  V30 787 C 75.1891 1.43663 5.02154 0
M  V30 788 H 76.8831 1.08728 2.7896 0
M  V30 789 H 74.4291 0.524283 1.34117 0
M  V30 790 H 76.3821 -0.966233 4.10173 0
M  V30 791 H 75.1061 -1.41574 2.9432 0
M  V30 792 H 73.7651 0.608117 3.61521 0
M  V30 793 H 73.4131 -1.57916 4.77568 0
M  V30 794 H 73.1131 -0.20767 5.87233 0
M  V30 795 H 74.6371 -1.13128 6.00029 0
M  V30 796 H 76.0511 1.1089 5.62473 0
M  V30 797 H 74.4481 1.89711 5.69324 0
M  V30 798 H 75.5181 2.21181 4.31517 0
M  V30 799 N 76.8612 -1.46375 0.584142 0
M  V30 800 C 77.7912 -2.33103 -0.136037 0
M  V30 801 C 78.7722 -1.45431 -0.882255 0
M  V30 802 O 79.9572 -1.74246 -0.857434 0
M  V30 803 C 77.0872 -3.27731 -1.14933 0
M  V30 804 C 76.0412 -4.24855 -0.517862 0
M  V30 805 C 75.3672 -5.09001 -1.63773 0
M  V30 806 C 76.6672 -5.19439 0.545886 0
M  V30 807 H 78.3612 -2.93568 0.588086 0
M  V30 808 H 75.9072 -1.41166 0.284259 0
M  V30 809 H 77.8602 -3.87261 -1.66153 0
M  V30 810 H 76.5842 -2.65377 -1.90375 0
M  V30 811 H 75.2432 -3.6659 -0.0267361 0
M  V30 812 H 74.8912 -4.43031 -2.38185 0
M  V30 813 H 74.5912 -5.74777 -1.22085 0
M  V30 814 H 76.1152 -5.71396 -2.15266 0
M  V30 815 H 77.5292 -5.73177 0.118704 0
M  V30 816 H 75.9262 -5.93566 0.88317 0
M  V30 817 H 76.9962 -4.63285 1.43162 0
M  V30 818 N 78.3393 -0.321999 -1.54275 0
M  V30 819 C 79.5853 0.281461 -2.00837 0
M  V30 820 C 79.9183 1.51909 -1.20985 0
M  V30 821 O 79.1933 1.923 -0.291733 0
M  V30 822 C 79.4763 0.617162 -3.54772 0
M  V30 823 C 79.3293 -0.631064 -4.45351 0
M  V30 824 C 80.6483 1.43542 -4.16033 0
M  V30 825 H 77.7673 0.100826 -0.730071 0
M  V30 826 H 80.4093 -0.438268 -1.84876 0
M  V30 827 H 78.5593 1.23034 -3.68504 0
M  V30 828 H 80.2313 -1.26934 -4.43492 0
M  V30 829 H 78.4743 -1.26025 -4.15091 0
M  V30 830 H 79.1453 -0.351735 -5.50878 0
M  V30 831 H 81.6213 0.917134 -4.05867 0
M  V30 832 H 80.4973 1.63907 -5.23856 0
M  V30 833 H 80.7583 2.43108 -3.69257 0
M  V30 834 N 79.8174 1.5752 -0.0501392 0
M  V30 835 C 80.7804 2.1037 0.909786 0
M  V30 836 C 81.7804 1.02308 1.24056 0
M  V30 837 O 82.9704 1.28385 1.17741 0
M  V30 838 C 80.1024 2.58708 2.21998 0
M  V30 839 H 81.2954 2.96479 0.451665 0
M  V30 840 H 78.8484 1.55038 0.198248 0
M  V30 841 H 79.5834 1.75989 2.72394 0
M  V30 842 H 79.3684 3.37675 1.99295 0
M  V30 843 H 80.8584 2.99747 2.9076 0
M  V30 844 N 81.2955 -0.223234 1.56011 0
M  V30 845 C 82.5415 -0.949279 1.79211 0
M  V30 846 C 82.8745 -1.84054 0.619494 0
M  V30 847 O 82.1495 -1.90726 -0.381317 0
M  V30 848 C 82.4325 -1.78965 3.12479 0
M  V30 849 C 82.2855 -0.924997 4.40186 0
M  V30 850 C 83.6045 -2.76774 3.42175 0
M  V30 851 H 80.7235 -0.343676 0.651963 0
M  V30 852 H 83.3655 -0.218253 1.88742 0
M  V30 853 H 81.5155 -2.41291 3.04485 0
M  V30 854 H 83.1875 -0.318615 4.60198 0
M  V30 855 H 81.4305 -0.230344 4.33188 0
M  V30 856 H 82.1015 -1.54735 5.29869 0
M  V30 857 H 84.5775 -2.24584 3.50287 0
M  V30 858 H 83.4535 -3.32678 4.36597 0
M  V30 859 H 83.7145 -3.54429 2.64258 0
M  V30 860 N 82.7736 -1.49793 -0.48987 0
M  V30 861 C 84.0216 -1.59525 -1.24081 0
M  V30 862 C 84.3426 -0.288953 -1.92847 0
M  V30 863 O 83.6126 0.692436 -1.83254 0
M  V30 864 H 82.1926 -0.587796 -0.460983 0
M  V30 865 H 84.8546 -1.86477 -0.566778 0
M  V30 866 H 83.9506 -2.39696 -1.99881 0
M  V30 867 N 84.2517 0.741722 -1.39055 0
M  V30 868 C 85.4767 1.53607 -1.39354 0
M  V30 869 C 85.9017 1.88096 0.0116905 0
M  V30 870 O 85.2597 1.5143 0.996924 0
M  V30 871 C 85.3077 2.80441 -2.26682 0
M  V30 872 O 84.4117 3.76088 -1.69208 0
M  V30 873 H 83.7527 0.464142 -0.474835 0
M  V30 874 H 86.2827 0.915665 -1.82967 0
M  V30 875 H 86.2927 3.29246 -2.40959 0
M  V30 876 H 84.9677 2.5467 -3.2881 0
M  V30 877 H 83.5447 3.34833 -1.64138 0
M  V30 878 N 85.7298 1.2412 0.971189 0
M  V30 879 C 86.6928 1.03156 2.04674 0
M  V30 880 C 87.6928 -0.00990322 1.60797 0
M  V30 881 O 88.8828 0.230729 1.72665 0
M  V30 882 C 86.0148 0.562765 3.36223 0
M  V30 883 H 87.2078 1.98614 2.24705 0
M  V30 884 H 84.7608 1.06293 1.14593 0
M  V30 885 H 85.4958 -0.395176 3.21883 0
M  V30 886 H 85.2808 1.31441 3.69413 0
M  V30 887 H 86.7708 0.437015 4.15307 0
M  V30 888 N 87.2079 -1.17134 1.05439 0
M  V30 889 C 88.4479 -1.89137 0.77502 0
M  V30 890 C 88.8119 -1.79345 -0.685526 0
M  V30 891 O 90.0129 -2.46188 -1.0791 0
M  V30 892 C 88.2839 -3.35003 1.2453 0
M  V30 893 S 89.8429 -4.24952 1.09367 0
M  V30 894 H 86.6609 -0.652949 0.281387 0
M  V30 895 H 89.2629 -1.4145 1.34953 0
M  V30 896 H 87.9669 -3.39666 2.30338 0
M  V30 897 H 87.4979 -3.87736 0.665166 0
M  V30 898 H 89.5129 -4.96196 0.0193397 0
M  V30 899 N 88.686 -0.835752 -1.33615 0
M  V30 900 C 90.102 -0.523139 -1.50783 0
M  V30 901 C 90.302 0.950171 -1.77691 0
M  V30 902 O 89.358 1.73411 -1.83534 0
M  V30 903 C 90.671 -1.39378 -2.66448 0
M  V30 904 C 92.219 -1.39223 -2.80332 0
M  V30 905 C 92.694 -2.24765 -3.99055 0
M  V30 906 N 94.185 -2.22458 -4.06284 0
M  V30 907 C 94.92 -2.85386 -4.97336 0
M  V30 908 N 94.416 -3.57354 -5.93523 0
M  V30 909 N 96.209 -2.74872 -4.90308 0
M  V30 910 H 88.36 -1.78952 -1.14411 0
M  V30 911 H 90.623 -0.763297 -0.562212 0
M  V30 912 H 90.329 -2.44061 -2.53234 0
M  V30 913 H 90.203 -1.0676 -3.61776 0
M  V30 914 H 92.59 -0.353136 -2.92979 0
M  V30 915 H 92.671 -1.75846 -1.85773 0
M  V30 916 H 92.315 -3.28732 -3.87167 0
M  V30 917 H 92.245 -1.85485 -4.92852 0
M  V30 918 H 94.736 -1.70119 -3.37443 0
M  V30 919 H 95.049 -4.02584 -6.59656 0
M  V30 920 H 93.394 -3.61461 -5.93608 0
M  V30 921 H 96.585 -2.18213 -4.14126 0
M  V30 922 H 96.758 -3.24199 -5.61069 0
M  V30 923 N 90.1641 1.46063 -0.591896 0
M  V30 924 C 91.4111 2.02338 -0.0809991 0
M  V30 925 C 91.7391 1.46228 1.28249 0
M  V30 926 O 90.9941 0.620818 1.85592 0
M  V30 927 C 91.2931 3.57391 0.0249813 0
M  V30 928 C 90.9591 4.32583 -1.27211 0
M  V30 929 C 89.6211 4.52844 -1.62745 0
M  V30 930 C 91.9731 4.75687 -2.13005 0
M  V30 931 C 89.3011 5.13462 -2.83855 0
M  V30 932 C 91.6531 5.37644 -3.3335 0
M  V30 933 C 90.3171 5.5613 -3.69155 0
M  V30 934 H 89.5871 0.740407 -0.0296397 0
M  V30 935 H 92.2341 1.75321 -0.770374 0
M  V30 936 H 90.5391 3.83597 0.797537 0
M  V30 937 H 92.2361 3.98621 0.436184 0
M  V30 938 H 88.8261 4.17116 -0.985499 0
M  V30 939 H 93.0101 4.59782 -1.86855 0
M  V30 940 H 88.2661 5.25965 -3.11722 0
M  V30 941 H 92.4401 5.7 -4.00092 0
M  V30 942 H 90.0671 6.0287 -4.63089 0
M  V30 943 N 91.6422 0.330177 1.54103 0
M  V30 944 C 92.5722 -0.525353 2.27513 0
M  V30 945 C 93.5532 -1.11383 1.2856 0
M  V30 946 O 94.7382 -1.13773 1.57383 0
M  V30 947 C 91.8682 -1.6831 3.03791 0
M  V30 948 C 90.8222 -1.2236 4.10137 0
M  V30 949 C 90.1482 -2.46882 4.74293 0
M  V30 950 C 91.4482 -0.333697 5.21233 0
M  V30 951 H 93.1422 0.087013 2.99274 0
M  V30 952 H 90.6882 0.0432893 1.43935 0
M  V30 953 H 92.6412 -2.28795 3.5388 0
M  V30 954 H 91.3652 -2.32216 2.29659 0
M  V30 955 H 90.0242 -0.64165 3.60941 0
M  V30 956 H 89.6722 -3.09165 3.96769 0
M  V30 957 H 89.3722 -2.16825 5.46133 0
M  V30 958 H 90.8962 -3.08117 5.27159 0
M  V30 959 H 92.3102 -0.845013 5.67038 0
M  V30 960 H 90.7072 -0.125612 5.99969 0
M  V30 961 H 91.7772 0.633724 4.80741 0
M  V30 962 N 93.1203 -1.57491 0.0584922 0
M  V30 963 C 94.0523 -2.08916 -0.942694 0
M  V30 964 C 95.0653 -1.0185 -1.27006 0
M  V30 965 O 96.2543 -1.29398 -1.22957 0
M  V30 966 C 93.3543 -2.52341 -2.26224 0
M  V30 967 C 92.5273 -3.82827 -2.1157 0
M  V30 968 C 91.5863 -4.12487 -3.26712 0
M  V30 969 O 90.6123 -4.82295 -3.02292 0
M  V30 970 N 91.8143 -3.64978 -4.5141 0
M  V30 971 H 94.5793 -2.95437 -0.503722 0
M  V30 972 H 92.1403 -1.61397 -0.12757 0
M  V30 973 H 94.1323 -2.69254 -3.02133 0
M  V30 974 H 92.7023 -1.7103 -2.61663 0
M  V30 975 H 91.9223 -3.75425 -1.20208 0
M  V30 976 H 93.2103 -4.68263 -1.99015 0
M  V30 977 H 92.6083 -3.08558 -4.7414 0
M  V30 978 H 91.1653 -3.87115 -5.2439 0
M  V30 979 N 94.5984 0.214957 -1.56127 0
M  V30 980 C 95.5084 1.28727 -1.96129 0
M  V30 981 C 96.5244 1.50916 -0.866044 0
M  V30 982 O 97.7004 1.63918 -1.17016 0
M  V30 983 C 94.7654 2.61569 -2.27558 0
M  V30 984 C 93.8264 2.47625 -3.50685 0
M  V30 985 C 93.0594 3.74132 -3.80606 0
M  V30 986 O 93.2824 4.77438 -3.12104 0
M  V30 987 O 92.2164 3.70849 -4.74083 0
M  V30 988 H 96.0424 0.977855 -2.87527 0
M  V30 989 H 93.6274 0.418358 -1.43423 0
M  V30 990 H 95.5094 3.40012 -2.48938 0
M  V30 991 H 94.1844 2.92178 -1.39332 0
M  V30 992 H 93.0914 1.67361 -3.34576 0
M  V30 993 H 94.4244 2.21954 -4.39315 0
M  V30 994 N 96.0765 1.50051 0.48192 0
M  V30 995 C 97.0085 1.64263 1.59844 0
M  V30 996 C 98.0215 0.52451 1.54119 0
M  V30 997 O 99.2105 0.797293 1.59704 0
M  V30 998 C 96.3105 1.60102 2.98698 0
M  V30 999 C 95.4835 2.87767 3.29407 0
M  V30 1000 C 94.5425 2.76397 4.47762 0
M  V30 1001 O 93.5685 3.50348 4.48603 0
M  V30 1002 N 94.7705 1.89222 5.48794 0
M  V30 1003 H 97.5355 2.60566 1.48073 0
M  V30 1004 H 95.0965 1.47379 0.670149 0
M  V30 1005 H 97.0885 1.50123 3.75826 0
M  V30 1006 H 95.6585 0.715798 3.04294 0
M  V30 1007 H 94.8785 3.11954 2.40994 0
M  V30 1008 H 96.1665 3.72365 3.4673 0
M  V30 1009 H 95.5645 1.28434 5.50928 0
M  V30 1010 H 94.1215 1.85154 6.24949 0
M  V30 1011 N 97.5546 -0.734337 1.39446 0
M  V30 1012 C 98.8026 -1.49096 1.36436 0
M  V30 1013 C 99.1236 -1.94961 -0.0388255 0
M  V30 1014 O 98.3936 -1.69033 -0.990191 0
M  V30 1015 H 96.9736 -0.5531 0.502085 0
M  V30 1016 H 99.6356 -0.871725 1.74319 0
M  V30 1017 H 98.7316 -2.37276 2.02747 0
M  V30 1018 N 99.0327 -1.24633 -0.964593 0
M  V30 1019 C 99.9827 -1.00841 -2.04487 0
M  V30 1020 C 100.967 0.0512468 -1.60818 0
M  V30 1021 O 102.159 -0.162865 -1.76249 0
M  V30 1022 C 99.2877 -0.618474 -3.37683 0
M  V30 1023 C 98.3737 -1.71437 -3.87905 0
M  V30 1024 N 98.7647 -2.9477 -4.11029 0
M  V30 1025 C 97.0627 -1.5926 -4.16596 0
M  V30 1026 C 97.7637 -3.65834 -4.52261 0
M  V30 1027 N 96.7397 -2.9341 -4.57615 0
M  V30 1028 H 100.542 -1.94487 -2.20345 0
M  V30 1029 H 98.0557 -1.14805 -1.14863 0
M  V30 1030 H 100.053 -0.429247 -4.14684 0
M  V30 1031 H 98.7127 0.310766 -3.23209 0
M  V30 1032 H 99.7237 -3.30917 -3.9839 0
M  V30 1033 H 96.4007 -0.731606 -4.1104 0
M  V30 1034 H 97.7907 -4.71646 -4.78539 0
M  V30 1035 N 100.511 1.16574 -1.06058 0
M  V30 1036 C 101.927 1.3904 -0.783585 0
M  V30 1037 C 102.127 1.91784 0.618145 0
M  V30 1038 O 101.183 2.11511 1.37911 0
M  V30 1039 C 102.496 2.37329 -1.84649 0
M  V30 1040 C 104.044 2.51018 -1.86973 0
M  V30 1041 C 104.519 3.52588 -2.92311 0
M  V30 1042 N 106.01 3.60113 -2.91329 0
M  V30 1043 C 106.745 4.38486 -3.69482 0
M  V30 1044 N 106.241 5.20302 -4.57447 0
M  V30 1045 N 108.034 4.33446 -3.57885 0
M  V30 1046 H 100.185 0.806725 -1.96483 0
M  V30 1047 H 102.448 0.417117 -0.851303 0
M  V30 1048 H 102.154 2.05663 -2.85299 0
M  V30 1049 H 102.028 3.36946 -1.6955 0
M  V30 1050 H 104.415 2.81989 -0.869827 0
M  V30 1051 H 104.496 1.51445 -2.0615 0
M  V30 1052 H 104.14 3.22354 -3.92492 0
M  V30 1053 H 104.07 4.51886 -2.70383 0
M  V30 1054 H 106.561 3.01707 -2.27555 0
M  V30 1055 H 106.874 5.77311 -5.13743 0
M  V30 1056 H 105.219 5.19653 -4.61503 0
M  V30 1057 H 108.41 3.68586 -2.88551 0
M  V30 1058 H 108.583 4.94279 -4.19037 0
M  V30 1059 N 101.989 0.842826 1.3317 0
M  V30 1060 C 102.952 0.284065 2.27433 0
M  V30 1061 C 103.952 -0.54948 1.5112 0
M  V30 1062 O 105.142 -0.362699 1.70382 0
M  V30 1063 C 102.274 -0.599384 3.35589 0
M  V30 1064 H 103.467 1.11589 2.78366 0
M  V30 1065 H 101.02 0.616221 1.4364 0
M  V30 1066 H 101.755 -1.45349 2.89904 0
M  V30 1067 H 101.54 -0.00291266 3.921 0
M  V30 1068 H 103.03 -0.983488 4.05854 0
M  V30 1069 N 103.467 -1.45747 0.599634 0
M  V30 1070 C 104.377 -2.34262 -0.125888 0
M  V30 1071 C 105.393 -1.50768 -0.868625 0
M  V30 1072 O 106.569 -1.83592 -0.828003 0
M  V30 1073 C 103.634 -3.28252 -1.11587 0
M  V30 1074 C 102.695 -4.27651 -0.375956 0
M  V30 1075 C 101.928 -5.1715 -1.31877 0
M  V30 1076 O 102.151 -5.09916 -2.55621 0
M  V30 1077 O 101.085 -5.96286 -0.820157 0
M  V30 1078 H 104.911 -2.97688 0.601315 0
M  V30 1079 H 102.496 -1.44999 0.359934 0
M  V30 1080 H 104.378 -3.86191 -1.68626 0
M  V30 1081 H 103.053 -2.67401 -1.82424 0
M  V30 1082 H 101.96 -3.7335 0.236698 0
M  V30 1083 H 103.293 -4.91334 0.29177 0
M  V30 1084 N 104.945 -0.338344 -1.53925 0
M  V30 1085 C 105.908 0.508299 -2.23493 0
M  V30 1086 C 106.908 1.03175 -1.23335 0
M  V30 1087 O 108.098 0.921826 -1.47811 0
M  V30 1088 C 105.23 1.70754 -2.95052 0
M  V30 1089 H 106.423 -0.100058 -2.99733 0
M  V30 1090 H 103.976 -0.0896198 -1.56043 0
M  V30 1091 H 104.711 2.35474 -2.22986 0
M  V30 1092 H 104.496 1.33946 -3.68512 0
M  V30 1093 H 105.986 2.30818 -3.48013 0
M  V30 1094 N 106.423 1.57458 -0.0668435 0
M  V30 1095 C 107.651 1.97624 0.612565 0
M  V30 1096 C 108.066 0.94502 1.63447 0
M  V30 1097 O 107.423 -0.0689276 1.8237 0
M  V30 1098 C 107.474 3.37869 1.28555 0
M  V30 1099 O 107.195 4.3704 0.304557 0
M  V30 1100 C 108.696 3.92882 2.05325 0
M  V30 1101 H 105.916 0.650045 0.166381 0
M  V30 1102 H 108.46 2.04035 -0.137782 0
M  V30 1103 H 106.615 3.3256 1.98702 0
M  V30 1104 H 107.029 5.18565 0.786779 0
M  V30 1105 H 108.503 4.93247 2.47812 0
M  V30 1106 H 108.98 3.29156 2.9078 0
M  V30 1107 H 109.586 4.01577 1.40056 0
M  V30 1108 N 107.901 -0.206675 1.56239 0
M  V30 1109 C 109.129 -0.945345 1.8404 0
M  V30 1110 C 109.544 -1.77336 0.647885 0
M  V30 1111 O 108.901 -1.78425 -0.383511 0
M  V30 1112 C 108.952 -1.8509 3.10522 0
M  V30 1113 O 108.673 -1.05634 4.25174 0
M  V30 1114 C 110.174 -2.70222 3.51418 0
M  V30 1115 H 107.394 -0.276372 0.61144 0
M  V30 1116 H 109.938 -0.217417 2.03341 0
M  V30 1117 H 108.093 -2.53259 2.93153 0
M  V30 1118 H 108.507 -1.67238 4.97124 0
M  V30 1119 H 109.981 -3.29438 4.42916 0
M  V30 1120 H 110.458 -3.43358 2.73864 0
M  V30 1121 H 111.064 -2.07443 3.71278 0
M  V30 1122 N 109.379 -1.50304 -0.473955 0
M  V30 1123 C 110.309 -1.71886 -1.58042 0
M  V30 1124 C 111.29 -0.567799 -1.60344 0
M  V30 1125 O 112.475 -0.806623 -1.76656 0
M  V30 1126 C 109.605 -1.81036 -2.96384 0
M  V30 1127 C 108.559 -2.962 -3.08949 0
M  V30 1128 C 107.885 -2.9049 -4.48909 0
M  V30 1129 C 109.185 -4.36752 -2.86434 0
M  V30 1130 H 110.879 -2.64527 -1.40234 0
M  V30 1131 H 108.425 -1.27295 -0.673201 0
M  V30 1132 H 110.378 -1.94719 -3.73714 0
M  V30 1133 H 109.102 -0.850147 -3.15341 0
M  V30 1134 H 107.761 -2.82164 -2.3405 0
M  V30 1135 H 107.409 -1.92321 -4.64781 0
M  V30 1136 H 107.109 -3.67802 -4.58253 0
M  V30 1137 H 108.633 -3.06218 -5.28264 0
M  V30 1138 H 110.047 -4.5133 -3.53517 0
M  V30 1139 H 108.444 -5.15493 -3.07225 0
M  V30 1140 H 109.514 -4.49321 -1.82316 0
M  V30 1141 N 110.857 0.726932 -1.39834 0
M  V30 1142 C 111.807 1.83232 -1.35683 0
M  V30 1143 C 112.791 1.59155 -0.236295 0
M  V30 1144 O 113.983 1.70522 -0.474488 0
M  V30 1145 C 111.112 3.21246 -1.21062 0
M  V30 1146 C 110.198 3.51125 -2.37849 0
M  V30 1147 N 110.589 3.51889 -3.63329 0
M  V30 1148 C 108.887 3.81527 -2.30982 0
M  V30 1149 C 109.588 3.79791 -4.40606 0
M  V30 1150 N 108.564 3.97971 -3.70297 0
M  V30 1151 H 112.366 1.8214 -2.30656 0
M  V30 1152 H 109.88 0.925545 -1.33444 0
M  V30 1153 H 111.877 4.00387 -1.16171 0
M  V30 1154 H 110.537 3.23572 -0.270458 0
M  V30 1155 H 111.548 3.33008 -3.96643 0
M  V30 1156 H 108.225 3.91411 -1.45272 0
M  V30 1157 H 109.615 3.86783 -5.49408 0
M  V30 1158 N 112.336 1.25143 0.95797 0
M  V30 1159 C 113.582 1.09855 1.70469 0
M  V30 1160 C 113.915 -0.360187 1.90831 0
M  V30 1161 O 113.19 -1.26568 1.47685 0
M  V30 1162 C 113.473 1.8497 3.08963 0
M  V30 1163 C 113.326 3.38652 2.96032 0
M  V30 1164 C 114.645 1.63016 4.08795 0
M  V30 1165 H 111.764 0.400465 0.618706 0
M  V30 1166 H 114.406 1.53933 1.11376 0
M  V30 1167 H 112.556 1.47505 3.59409 0
M  V30 1168 H 114.228 3.85772 2.52938 0
M  V30 1169 H 112.471 3.66534 2.32025 0
M  V30 1170 H 113.142 3.8642 3.94187 0
M  V30 1171 H 115.618 1.95625 3.67247 0
M  V30 1172 H 114.494 2.18015 5.03747 0
M  V30 1173 H 114.755 0.570692 4.38401 0
M  V30 1174 N 113.814 -1.1601 1.06675 0
M  V30 1175 C 114.777 -2.18724 0.685001 0
M  V30 1176 C 115.777 -1.58496 -0.271246 0
M  V30 1177 O 116.967 -1.74119 -0.0531156 0
M  V30 1178 C 114.099 -3.40899 0.00853648 0
M  V30 1179 H 115.292 -2.54011 1.59431 0
M  V30 1180 H 112.845 -1.30352 0.862441 0
M  V30 1181 H 113.58 -3.11173 -0.913337 0
M  V30 1182 H 113.365 -3.8587 0.696204 0
M  V30 1183 H 114.855 -4.16886 -0.24414 0
M  V30 1184 N 115.292 -0.849877 -1.32721 0
M  V30 1185 C 116.703 -0.506188 -1.79707 0
M  V30 1186 C 117.054 0.975627 -1.70223 0
M  V30 1187 O 116.179 1.76078 -1.25799 0
M  V30 1188 C 116.774 -0.912044 -3.26293 0
M  V30 1189 C 115.333 -0.620326 -3.71253 0
M  V30 1190 C 114.48 -1.11439 -2.53922 0
M  V30 1191 H 117.431 -1.03754 -1.20087 0
M  V30 1192 H 117.452 -0.226493 -3.79825 0
M  V30 1193 H 116.964 -1.99057 -3.33164 0
M  V30 1194 H 115.065 0.447674 -3.69901 0
M  V30 1195 H 115.178 -1.18327 -4.64258 0
M  V30 1196 H 113.542 -0.534834 -2.49021 0
M  V30 1197 H 114.325 -2.19992 -2.6355 0
M  V30 1198 N 116.77 1.45427 -0.607355 0
M  V30 1199 C 117.702 2.2871 0.149752 0
M  V30 1200 C 118.715 1.39937 0.831958 0
M  V30 1201 O 119.904 1.64313 0.697385 0
M  V30 1202 C 117.004 3.15673 1.23304 0
M  V30 1203 C 116.177 4.32722 0.637996 0
M  V30 1204 C 115.236 5.00895 1.61215 0
M  V30 1205 O 114.262 5.57697 1.13854 0
M  V30 1206 N 115.464 5.00159 2.94655 0
M  V30 1207 H 118.229 2.94328 -0.564882 0
M  V30 1208 H 115.79 1.55612 -0.446823 0
M  V30 1209 H 117.782 3.58144 1.88454 0
M  V30 1210 H 116.352 2.51965 1.8502 0
M  V30 1211 H 115.572 3.93734 -0.191572 0
M  V30 1212 H 116.86 5.08321 0.220665 0
M  V30 1213 H 116.258 4.553 3.35735 0
M  V30 1214 H 114.815 5.46495 3.55228 0
M  V30 1215 N 118.248 0.346503 1.53744 0
M  V30 1216 C 119.496 -0.248612 2.00565 0
M  V30 1217 C 119.817 -1.5083 1.23593 0
M  V30 1218 O 119.087 -1.92858 0.343912 0
M  V30 1219 H 117.667 -0.0948564 0.740953 0
M  V30 1220 H 120.329 0.468341 1.89189 0
M  V30 1221 H 119.425 -0.488994 3.08245 0
M  V30 1222 N 119.726 -1.57421 0.075193 0
M  V30 1223 C 120.954 -1.97946 -0.602076 0
M  V30 1224 C 121.369 -0.953674 -1.62943 0
M  V30 1225 O 120.726 0.0592551 -1.82404 0
M  V30 1226 C 120.777 -3.38546 -1.26762 0
M  V30 1227 O 120.498 -4.37195 -0.281376 0
M  V30 1228 C 121.999 -3.93966 -2.03239 0
M  V30 1229 H 119.219 -0.650918 -0.162931 0
M  V30 1230 H 121.763 -2.03959 0.148601 0
M  V30 1231 H 119.918 -3.33609 -1.96936 0
M  V30 1232 H 120.332 -5.18975 -0.759267 0
M  V30 1233 H 121.806 -4.94555 -2.45193 0
M  V30 1234 H 122.283 -3.30693 -2.8903 0
M  V30 1235 H 122.889 -4.02315 -1.37924 0
M  V30 1236 N 121.204 0.198386 -1.56346 0
M  V30 1237 C 122.167 1.22952 -1.93431 0
M  V30 1238 C 123.167 1.38611 -0.815092 0
M  V30 1239 O 124.357 1.36479 -1.08255 0
M  V30 1240 C 121.489 2.59946 -2.20546 0
M  V30 1241 H 122.682 0.912626 -2.85677 0
M  V30 1242 H 120.235 0.43977 -1.49986 0
M  V30 1243 H 120.97 2.96696 -1.30927 0
M  V30 1244 H 120.755 2.49953 -3.02102 0
M  V30 1245 H 122.245 3.3431 -2.50253 0
M  V30 1246 N 122.682 1.50554 0.465978 0
M  V30 1247 C 123.615 1.64436 1.58227 0
M  V30 1248 C 124.593 0.492367 1.54966 0
M  V30 1249 O 125.777 0.712536 1.74514 0
M  V30 1250 C 122.904 1.63165 2.96808 0
M  V30 1251 C 121.95 2.83987 3.18204 0
M  V30 1252 S 122.783 4.45219 2.97557 0
M  V30 1253 C 123.939 4.46649 4.3847 0
M  V30 1254 H 124.172 2.58861 1.46213 0
M  V30 1255 H 121.705 1.3988 0.653678 0
M  V30 1256 H 123.663 1.63116 3.76701 0
M  V30 1257 H 122.324 0.69967 3.06208 0
M  V30 1258 H 121.517 2.79416 4.19455 0
M  V30 1259 H 121.119 2.81629 2.46092 0
M  V30 1260 H 123.411 4.20526 5.31191 0
M  V30 1261 H 124.354 5.48295 4.48082 0
M  V30 1262 H 124.762 3.76296 4.20787 0
M  V30 1263 N 124.16 -0.719506 1.40217 0
M  V30 1264 C 125.123 -1.8153 1.39927 0
M  V30 1265 C 126.123 -1.58095 0.293723 0
M  V30 1266 O 127.313 -1.65209 0.552429 0
M  V30 1267 C 124.445 -3.19561 1.18716 0
M  V30 1268 H 125.638 -1.83186 2.37451 0
M  V30 1269 H 123.191 -0.924746 1.26008 0
M  V30 1270 H 123.926 -3.23557 0.219366 0
M  V30 1271 H 123.711 -3.3797 1.98793 0
M  V30 1272 H 125.201 -3.99598 1.21291 0
M  V30 1273 N 125.638 -1.25649 -0.95132 0
M  V30 1274 C 126.884 -1.10757 -1.69884 0
M  V30 1275 C 127.217 0.350061 -1.91019 0
M  V30 1276 O 126.492 1.25783 -1.48354 0
M  V30 1277 C 126.775 -1.86606 -3.07978 0
M  V30 1278 C 126.628 -3.40217 -2.94232 0
M  V30 1279 C 127.947 -1.65182 -4.07925 0
M  V30 1280 H 125.066 -0.40374 -0.616574 0
M  V30 1281 H 127.708 -1.54521 -1.10558 0
M  V30 1282 H 125.858 -1.49409 -3.58621 0
M  V30 1283 H 127.53 -3.87108 -2.50889 0
M  V30 1284 H 125.773 -3.67759 -2.30078 0
M  V30 1285 H 126.444 -3.88505 -3.92133 0
M  V30 1286 H 128.92 -1.9757 -3.66204 0
M  V30 1287 H 127.796 -2.20683 -5.02583 0
M  V30 1288 H 128.057 -0.593933 -4.38092 0
M  V30 1289 N 127.117 1.15442 -1.07289 0
M  V30 1290 C 128.342 1.90638 -0.816828 0
M  V30 1291 C 128.767 1.77445 0.624083 0
M  V30 1292 O 128.125 1.10671 1.43602 0
M  V30 1293 C 128.173 3.39008 -1.22906 0
M  V30 1294 O 127.277 4.10701 -0.373975 0
M  V30 1295 H 126.618 0.593555 -0.297638 0
M  V30 1296 H 129.148 1.46198 -1.43134 0
M  V30 1297 H 129.158 3.89801 -1.20497 0
M  V30 1298 H 127.833 3.47929 -2.27856 0
M  V30 1299 H 126.41 3.70046 -0.460499 0
M  V30 1300 N 128.595 0.856903 1.32268 0
M  V30 1301 C 129.823 0.475439 2.01363 0
M  V30 1302 C 130.238 -0.928486 1.64392 0
M  V30 1303 O 129.595 -1.60624 0.866387 0
M  V30 1304 C 129.646 0.607545 3.56358 0
M  V30 1305 O 129.367 1.95617 3.92002 0
M  V30 1306 C 130.868 0.225382 4.42727 0
M  V30 1307 H 128.088 0.186636 0.644521 0
M  V30 1308 H 130.632 1.15446 1.68797 0
M  V30 1309 H 128.787 -0.0237719 3.87393 0
M  V30 1310 H 129.201 1.95455 4.86721 0
M  V30 1311 H 130.675 0.368813 5.50767 0
M  V30 1312 H 131.152 -0.834369 4.31202 0
M  V30 1313 H 131.758 0.831864 4.17085 0
M  V30 1314 N 130.073 -1.45103 0.615059 0
M  V30 1315 C 131.32 -2.02183 0.113179 0
M  V30 1316 C 131.648 -1.48249 -1.25906 0
M  V30 1317 O 130.903 -0.650265 -1.84581 0
M  V30 1318 C 131.202 -3.57386 0.0318797 0
M  V30 1319 C 130.868 -4.30505 1.34077 0
M  V30 1320 C 129.53 -4.50197 1.69929 0
M  V30 1321 C 131.882 -4.72238 2.20546 0
M  V30 1322 C 129.21 -5.08881 2.91988 0
M  V30 1323 C 131.562 -5.32272 3.41861 0
M  V30 1324 C 130.226 -5.50187 3.77956 0
M  V30 1325 H 129.496 -0.739842 0.0414151 0
M  V30 1326 H 132.143 -1.74073 0.798168 0
M  V30 1327 H 130.448 -3.84817 -0.736409 0
M  V30 1328 H 132.145 -3.99264 -0.372712 0
M  V30 1329 H 128.735 -4.15496 1.05173 0
M  V30 1330 H 132.919 -4.56751 1.94146 0
M  V30 1331 H 128.175 -5.20939 3.2005 0
M  V30 1332 H 132.349 -5.63563 4.09109 0
M  V30 1333 H 129.976 -5.95427 4.72622 0
M  V30 1334 N 131.551 -0.354651 -1.53558 0
M  V30 1335 C 132.967 -0.00315426 -1.596 0
M  V30 1336 C 133.167 1.47741 -1.37021 0
M  V30 1337 O 132.223 2.23759 -1.16996 0
M  V30 1338 C 133.536 -0.44929 -2.97325 0
M  V30 1339 C 135.084 -0.402578 -3.104 0
M  V30 1340 C 135.559 -0.824355 -4.5052 0
M  V30 1341 N 137.05 -0.778979 -4.56603 0
M  V30 1342 C 137.785 -1.07715 -5.63192 0
M  V30 1343 N 137.281 -1.44405 -6.77583 0
M  V30 1344 N 139.074 -1.00066 -5.53121 0
M  V30 1345 H 131.225 -1.31893 -1.66487 0
M  V30 1346 H 133.488 -0.538388 -0.780284 0
M  V30 1347 H 133.194 -1.48202 -3.1895 0
M  V30 1348 H 133.068 0.169772 -3.76818 0
M  V30 1349 H 135.455 0.621004 -2.88492 0
M  V30 1350 H 135.536 -1.05699 -2.32941 0
M  V30 1351 H 135.18 -1.846 -4.73165 0
M  V30 1352 H 135.11 -0.147304 -5.26394 0
M  V30 1353 H 137.601 -0.508528 -3.74463 0
M  V30 1354 H 137.914 -1.65612 -7.54846 0
M  V30 1355 H 136.259 -1.4826 -6.79002 0
M  V30 1356 H 139.45 -0.713293 -4.62633 0
M  V30 1357 H 139.623 -1.23638 -6.36096 0
M  V30 1358 N 133.029 1.57378 -0.0835403 0
M  V30 1359 C 133.976 2.13384 0.879539 0
M  V30 1360 C 134.946 1.04936 1.28754 0
M  V30 1361 O 136.131 1.32662 1.37133 0
M  V30 1362 C 133.271 2.70932 2.13752 0
M  V30 1363 C 132.384 3.93575 1.7811 0
M  V30 1364 C 131.519 4.39326 2.98607 0
M  V30 1365 C 130.558 5.54587 2.59037 0
M  V30 1366 N 129.695 5.95243 3.72331 0
M  V30 1367 H 134.535 2.9537 0.395076 0
M  V30 1368 H 132.072 1.45953 0.183349 0
M  V30 1369 H 134.03 3.02411 2.87408 0
M  V30 1370 H 132.66 1.91693 2.59718 0
M  V30 1371 H 131.712 3.68483 0.94469 0
M  V30 1372 H 133.024 4.77258 1.45005 0
M  V30 1373 H 132.178 4.72528 3.80529 0
M  V30 1374 H 130.917 3.5452 3.34913 0
M  V30 1375 H 129.922 5.21024 1.75539 0
M  V30 1376 H 131.147 6.41133 2.23887 0
M  V30 1377 H 129.093 5.13385 4.08378 0
M  V30 1378 H 129.01 6.73694 3.43034 0
M  V30 1379 H 130.278 6.33072 4.54797 0
M  V30 1380 N 134.507 -0.190092 1.56449 0
M  V30 1381 C 135.437 -1.23816 1.97969 0
M  V30 1382 C 136.418 -1.47201 0.852395 0
M  V30 1383 O 137.603 -1.58854 1.1171 0
M  V30 1384 C 134.733 -2.5813 2.3235 0
M  V30 1385 C 133.687 -2.49348 3.47864 0
M  V30 1386 C 133.013 -3.8798 3.67934 0
M  V30 1387 C 134.313 -2.01424 4.81898 0
M  V30 1388 H 136.007 -0.89311 2.85769 0
M  V30 1389 H 133.553 -0.428177 1.37487 0
M  V30 1390 H 135.506 -3.31637 2.59991 0
M  V30 1391 H 134.23 -2.94386 1.41438 0
M  V30 1392 H 132.889 -1.78297 3.20321 0
M  V30 1393 H 132.537 -4.21597 2.74344 0
M  V30 1394 H 132.237 -3.82978 4.45648 0
M  V30 1395 H 133.761 -4.63101 3.97957 0
M  V30 1396 H 135.175 -2.64693 5.08538 0
M  V30 1397 H 133.572 -2.07413 5.63116 0
M  V30 1398 H 134.642 -0.967677 4.75146 0
M  V30 1399 N 135.985 -1.50799 -0.457987 0
M  V30 1400 C 137.262 -1.52968 -1.21902 0
M  V30 1401 C 137.642 -0.281906 -2.09209 0
M  V30 1402 O 136.99 0.734076 -2.16388 0
M  V30 1403 C 137.2 -2.8326 -2.03875 0
M  V30 1404 C 138.548 -3.34425 -2.6162 0
M  V30 1405 O 139.572 -2.8467 -2.14106 0
M  V30 1406 O 138.431 -4.21188 -3.48228 0
M  V30 1407 H 135.525 -0.614129 -0.553873 0
M  V30 1408 H 138.071 -1.63098 -0.468739 0
M  V30 1409 H 136.843 -3.65543 -1.39621 0
M  V30 1410 H 136.466 -2.76195 -2.8601 0
M  V30 1411 N 137.463 0.71206 -1.40597 0
M  V30 1412 C 138.711 1.46907 -1.38791 0
M  V30 1413 C 139.032 1.94998 0.00780391 0
M  V30 1414 O 138.302 1.70587 0.963174 0
M  V30 1415 H 136.882 0.545043 -0.51082 0
M  V30 1416 H 139.544 0.843882 -1.75683 0
M  V30 1417 H 138.64 2.34021 -2.06496 0
M  V30 1418 N 138.941 1.26152 0.944643 0
M  V30 1419 C 140.19 1.10883 1.68487 0
M  V30 1420 C 140.503 -0.348153 1.92477 0
M  V30 1421 O 141.709 -0.621459 2.64292 0
M  V30 1422 C 140.165 1.93624 3.03377 0
M  V30 1423 C 139.773 3.43875 2.87148 0
M  V30 1424 C 141.517 1.86954 3.81115 0
M  V30 1425 C 139.424 4.18875 4.1749 0
M  V30 1426 H 138.354 0.41135 0.631907 0
M  V30 1427 H 141.005 1.50433 1.05082 0
M  V30 1428 H 139.387 1.46904 3.67743 0
M  V30 1429 H 140.561 3.98338 2.31653 0
M  V30 1430 H 138.876 3.51744 2.22856 0
M  V30 1431 H 141.473 2.40275 4.77673 0
M  V30 1432 H 141.816 0.839518 4.07747 0
M  V30 1433 H 142.349 2.31477 3.23517 0
M  V30 1434 H 139.088 5.22332 3.96043 0
M  V30 1435 H 138.608 3.69193 4.72712 0
M  V30 1436 H 140.287 4.27134 4.85968 0
M  V30 1437 N 140.419 -1.14872 1.07899 0
M  V30 1438 C 141.659 -1.8745 0.814965 0
M  V30 1439 C 142.023 -1.80758 -0.64733 0
M  V30 1440 O 143.224 -2.48422 -1.02664 0
M  V30 1441 C 141.495 -3.32286 1.31607 0
M  V30 1442 S 143.054 -4.22537 1.18357 0
M  V30 1443 H 139.872 -0.646833 0.295174 0
M  V30 1444 H 142.474 -1.38555 1.37923 0
M  V30 1445 H 141.178 -3.34703 2.37491 0
M  V30 1446 H 140.709 -3.86238 0.747261 0
M  V30 1447 H 142.724 -4.96044 0.124586 0
M  V30 1448 N 141.898 -0.863906 -1.31812 0
M  V30 1449 C 143.144 -0.481841 -1.9761 0
M  V30 1450 C 143.499 0.954048 -1.6708 0
M  V30 1451 O 142.792 1.66182 -0.953624 0
M  V30 1452 C 142.986 -0.668547 -3.51091 0
M  V30 1453 C 142.815 -2.12103 -3.96538 0
M  V30 1454 C 141.585 -2.76141 -4.23171 0
M  V30 1455 C 143.783 -3.09265 -4.10925 0
M  V30 1456 N 141.765 -4.12205 -4.54929 0
M  V30 1457 C 143.136 -4.30341 -4.46326 0
M  V30 1458 C 145.191 -3.05337 -3.93286 0
M  V30 1459 C 143.894 -5.48 -4.65928 0
M  V30 1460 C 145.92 -4.22248 -4.14078 0
M  V30 1461 C 145.282 -5.42085 -4.49804 0
M  V30 1462 H 141.381 -0.225238 -0.74886 0
M  V30 1463 H 143.965 -1.11723 -1.59455 0
M  V30 1464 H 142.136 -0.0627898 -3.88349 0
M  V30 1465 H 143.868 -0.255467 -4.03893 0
M  V30 1466 H 140.623 -2.27125 -4.15585 0
M  V30 1467 H 141.047 -4.82416 -4.74978 0
M  V30 1468 H 145.689 -2.138 -3.64759 0
M  V30 1469 H 143.407 -6.40059 -4.93305 0
M  V30 1470 H 146.993 -4.20654 -4.01922 0
M  V30 1471 H 145.873 -6.31044 -4.65567 0
M  V30 1472 N 143.376 1.44774 -0.622745 0
M  V30 1473 C 144.308 2.28856 0.125485 0
M  V30 1474 C 145.321 1.40811 0.817069 0
M  V30 1475 O 146.51 1.65044 0.679918 0
M  V30 1476 C 143.61 3.16963 1.19949 0
M  V30 1477 C 142.783 4.33374 0.592064 0
M  V30 1478 C 141.842 5.02577 1.55893 0
M  V30 1479 O 140.868 5.58873 1.07933 0
M  V30 1480 N 142.07 5.03256 2.89334 0
M  V30 1481 H 144.835 2.93713 -0.596068 0
M  V30 1482 H 142.396 1.55129 -0.463303 0
M  V30 1483 H 144.388 3.60123 1.84644 0
M  V30 1484 H 142.958 2.53913 1.82337 0
M  V30 1485 H 142.178 3.93509 -0.233322 0
M  V30 1486 H 143.466 5.08527 0.166738 0
M  V30 1487 H 142.864 4.58836 3.30887 0
M  V30 1488 H 141.421 5.50232 3.49412 0
M  V30 1489 N 144.854 0.36279 1.53368 0
M  V30 1490 C 146.1 -0.228113 2.01513 0
M  V30 1491 C 146.433 -1.48648 1.2497 0
M  V30 1492 O 145.708 -1.91459 0.342616 0
M  V30 1493 C 145.991 -0.522884 3.56284 0
M  V30 1494 C 145.844 0.74892 4.43521 0
M  V30 1495 C 147.163 -1.32461 4.19693 0
M  V30 1496 H 144.282 -0.0814343 0.732487 0
M  V30 1497 H 146.924 0.48713 1.83649 0
M  V30 1498 H 145.074 -1.1322 3.71636 0
M  V30 1499 H 146.746 1.38648 4.39971 0
M  V30 1500 H 144.989 1.36986 4.11603 0
M  V30 1501 H 145.66 0.497667 5.49752 0
M  V30 1502 H 148.136 -0.809203 4.08156 0
M  V30 1503 H 147.012 -1.49961 5.28018 0
M  V30 1504 H 147.273 -2.33232 3.75573 0
M  V30 1505 N 146.332 -1.57332 0.0918853 0
M  V30 1506 C 147.748 -1.57389 -0.264766 0
M  V30 1507 C 147.948 -1.10281 -1.68643 0
M  V30 1508 O 147.004 -0.777801 -2.40222 0
M  V30 1509 C 148.317 -3.00648 -0.0561195 0
M  V30 1510 C 149.865 -3.12754 -0.124116 0
M  V30 1511 C 150.34 -4.57965 0.0564972 0
M  V30 1512 N 151.831 -4.632 0.00155611 0
M  V30 1513 C 152.566 -5.73281 0.116598 0
M  V30 1514 N 152.062 -6.92208 0.286294 0
M  V30 1515 N 153.855 -5.6207 0.0580973 0
M  V30 1516 H 146.006 -1.86262 1.02079 0
M  V30 1517 H 148.269 -0.859579 0.399786 0
M  V30 1518 H 147.975 -3.393 0.925669 0
M  V30 1519 H 147.849 -3.68623 -0.799823 0
M  V30 1520 H 150.236 -2.73976 -1.09641 0
M  V30 1521 H 150.317 -2.47377 0.651024 0
M  V30 1522 H 149.961 -4.97436 1.02564 0
M  V30 1523 H 149.891 -5.21399 -0.738297 0
M  V30 1524 H 152.382 -3.77686 -0.127192 0
M  V30 1525 H 152.695 -7.71934 0.365676 0
M  V30 1526 H 151.04 -6.94254 0.32192 0
M  V30 1527 H 154.231 -4.68043 -0.0733204 0
M  V30 1528 H 154.404 -6.47824 0.151203 0
M  V30 1529 N 147.81 0.181792 -1.56548 0
M  V30 1530 C 148.742 1.24956 -1.92142 0
M  V30 1531 C 149.755 1.41022 -0.813422 0
M  V30 1532 O 150.944 1.41212 -1.09186 0
M  V30 1533 C 148.044 2.61981 -2.14987 0
M  V30 1534 C 147.217 2.6735 -3.46183 0
M  V30 1535 C 146.276 3.85664 -3.5798 0
M  V30 1536 O 145.302 3.72148 -4.30691 0
M  V30 1537 N 146.504 5.01683 -2.92053 0
M  V30 1538 H 149.269 0.947329 -2.84334 0
M  V30 1539 H 146.83 0.371629 -1.57577 0
M  V30 1540 H 148.822 3.3958 -2.20154 0
M  V30 1541 H 147.392 2.84637 -1.2923 0
M  V30 1542 H 146.612 1.75925 -3.52766 0
M  V30 1543 H 147.9 2.67939 -4.32534 0
M  V30 1544 H 147.298 5.15564 -2.32832 0
M  V30 1545 H 145.855 5.77181 -3.0283 0
M  V30 1546 N 149.288 1.51039 0.449983 0
M  V30 1547 C 150.218 1.74379 1.55288 0
M  V30 1548 C 151.199 0.593236 1.5942 0
M  V30 1549 O 152.384 0.834625 1.7535 0
M  V30 1550 C 149.514 1.85728 2.93466 0
M  V30 1551 C 148.468 3.01078 3.04197 0
M  V30 1552 C 147.794 2.97595 4.44231 0
M  V30 1553 C 149.094 4.41254 2.7945 0
M  V30 1554 H 150.788 2.66725 1.36008 0
M  V30 1555 H 148.334 1.2835 0.652864 0
M  V30 1556 H 150.287 2.0064 3.70569 0
M  V30 1557 H 149.011 0.900207 3.13949 0
M  V30 1558 H 147.67 2.85851 2.29531 0
M  V30 1559 H 147.318 1.99691 4.61663 0
M  V30 1560 H 147.018 3.75046 4.52343 0
M  V30 1561 H 148.542 3.14583 5.23326 0
M  V30 1562 H 149.956 4.56897 3.46292 0
M  V30 1563 H 148.353 5.20315 2.98985 0
M  V30 1564 H 149.423 4.52164 1.75144 0
M  V30 1565 N 150.766 -0.704594 1.40972 0
M  V30 1566 C 151.996 -1.49138 1.42974 0
M  V30 1567 C 152.404 -1.89175 0.0308406 0
M  V30 1568 O 151.747 -1.56734 -0.958138 0
M  V30 1569 C 151.809 -2.79016 2.26694 0
M  V30 1570 C 151.473 -2.61236 3.74973 0
M  V30 1571 C 152.47 -2.27773 4.67349 0
M  V30 1572 C 150.155 -2.77158 4.18914 0
M  V30 1573 C 152.149 -2.10457 6.01653 0
M  V30 1574 C 149.836 -2.59459 5.53285 0
M  V30 1575 C 150.834 -2.26158 6.4447 0
M  V30 1576 O 150.522 -2.08605 7.76363 0
M  V30 1577 H 150.254 -0.466443 0.489292 0
M  V30 1578 H 152.808 -0.8758 1.85793 0
M  V30 1579 H 151.038 -3.42947 1.78673 0
M  V30 1580 H 152.727 -3.40782 2.20504 0
M  V30 1581 H 153.493 -2.15095 4.34694 0
M  V30 1582 H 149.372 -3.02064 3.48251 0
M  V30 1583 H 152.916 -1.84387 6.72791 0
M  V30 1584 H 148.813 -2.71725 5.85522 0
M  V30 1585 H 149.581 -2.23439 7.87412 0
M  V30 1586 N 152.244 -1.26651 -0.937939 0
M  V30 1587 C 153.492 -1.12165 -1.68118 0
M  V30 1588 C 153.813 0.334983 -1.92101 0
M  V30 1589 O 153.083 1.23583 -1.52 0
M  V30 1590 H 151.663 -0.412093 -0.623048 0
M  V30 1591 H 154.325 -1.59027 -1.12678 0
M  V30 1592 H 153.421 -1.64289 -2.6536 0
M  V30 1593 N 153.722 1.14298 -1.08507 0
M  V30 1594 C 154.999 1.81544 -0.728088 0
M  V30 1595 C 155.379 1.95838 0.78808 0
M  V30 1596 O 154.727 1.51904 1.70697 0
M  V30 1597 C 154.937 3.17169 -1.45619 0
M  V30 1598 C 156.285 3.9265 -1.61591 0
M  V30 1599 O 157.309 3.26762 -1.41793 0
M  V30 1600 O 156.168 5.10807 -1.94263 0
M  V30 1601 H 153.262 0.78491 -0.260471 0
M  V30 1602 H 155.808 1.21307 -1.18671 0
M  V30 1603 H 154.58 3.01934 -2.489 0
M  V30 1604 H 154.203 3.851 -0.989124 0
M  V30 1605 N 155.201 0.870884 1.31352 0
M  V30 1606 C 156.429 0.49677 2.00848 0
M  V30 1607 C 156.844 -0.910998 1.65367 0
M  V30 1608 O 156.201 -1.59696 0.883374 0
M  V30 1609 C 156.252 0.645308 3.55694 0
M  V30 1610 O 155.973 1.99764 3.89905 0
M  V30 1611 C 157.474 0.272326 4.42463 0
M  V30 1612 H 154.694 0.193462 0.642506 0
M  V30 1613 H 157.238 1.1723 1.67563 0
M  V30 1614 H 155.393 0.0173176 3.87396 0
M  V30 1615 H 155.807 2.00607 4.84621 0
M  V30 1616 H 157.281 0.427208 5.50344 0
M  V30 1617 H 157.758 -0.788587 4.32062 0
M  V30 1618 H 158.364 0.876054 4.1618 0
M  V30 1619 N 156.679 -1.44442 0.630414 0
M  V30 1620 C 157.927 -2.01653 0.134351 0
M  V30 1621 C 158.248 -1.49836 -1.24796 0
M  V30 1622 O 157.518 -0.701684 -1.82902 0
M  V30 1623 H 156.098 -0.74554 0.0466769 0
M  V30 1624 H 158.76 -1.76952 0.816955 0
M  V30 1625 H 157.856 -3.11935 0.101498 0
M  V30 1626 N 158.157 -0.370918 -1.53173 0
M  V30 1627 C 159.403 0.217423 -2.01631 0
M  V30 1628 C 159.736 1.47983 -1.25756 0
M  V30 1629 O 159.011 1.91274 -0.352764 0
M  V30 1630 C 159.294 0.503982 -3.56556 0
M  V30 1631 C 159.147 -0.77243 -4.43118 0
M  V30 1632 C 160.466 1.30234 -4.20389 0
M  V30 1633 H 157.585 0.0775486 -0.732909 0
M  V30 1634 H 160.227 -0.496863 -1.83388 0
M  V30 1635 H 158.377 1.11248 -3.72231 0
M  V30 1636 H 160.049 -1.4098 -4.39229 0
M  V30 1637 H 158.292 -1.39167 -4.10871 0
M  V30 1638 H 158.963 -0.526815 -5.4948 0
M  V30 1639 H 161.439 0.787546 -4.08579 0
M  V30 1640 H 160.315 1.47158 -5.28806 0
M  V30 1641 H 160.576 2.31237 -3.76805 0
M  V30 1642 N 159.635 1.57281 -0.100228 0
M  V30 1643 C 160.565 2.17328 0.853857 0
M  V30 1644 C 161.546 1.10804 1.2906 0
M  V30 1645 O 162.731 1.38963 1.35657 0
M  V30 1646 C 159.861 2.75772 2.11109 0
M  V30 1647 C 158.815 3.87713 1.81279 0
M  V30 1648 C 158.141 4.32882 3.13874 0
M  V30 1649 C 159.441 5.10677 1.09574 0
M  V30 1650 H 161.135 2.97305 0.353545 0
M  V30 1651 H 158.681 1.43009 0.168612 0
M  V30 1652 H 160.634 3.16433 2.78296 0
M  V30 1653 H 159.358 1.93057 2.63432 0
M  V30 1654 H 158.017 3.476 1.16489 0
M  V30 1655 H 157.665 3.47051 3.64095 0
M  V30 1656 H 157.365 5.08358 2.94696 0
M  V30 1657 H 158.889 4.7618 3.82211 0
M  V30 1658 H 160.303 5.48474 1.66879 0
M  V30 1659 H 158.7 5.91615 1.00557 0
M  V30 1660 H 159.77 4.84835 0.0793299 0
M  V30 1661 N 161.113 -0.173488 1.56642 0
M  V30 1662 C 162.361 -0.888706 1.81512 0
M  V30 1663 C 162.682 -1.82875 0.676872 0
M  V30 1664 O 161.952 -1.93536 -0.303414 0
M  V30 1665 H 160.532 -0.331164 0.669582 0
M  V30 1666 H 163.194 -0.173823 1.94123 0
M  V30 1667 H 162.29 -1.46691 2.75478 0
M  V30 1668 N 162.591 -1.51276 -0.441967 0
M  V30 1669 C 164.007 -1.39349 -0.778083 0
M  V30 1670 C 164.207 -0.472212 -1.95889 0
M  V30 1671 O 163.263 0.0743551 -2.5239 0
M  V30 1672 C 164.576 -2.81292 -1.0628 0
M  V30 1673 C 166.124 -2.9041 -1.16751 0
M  V30 1674 C 166.599 -4.33251 -1.48519 0
M  V30 1675 N 168.09 -4.36336 -1.55453 0
M  V30 1676 C 168.825 -5.43885 -1.81596 0
M  V30 1677 N 168.321 -6.61601 -2.05562 0
M  V30 1678 N 170.114 -5.3136 -1.8334 0
M  V30 1679 H 162.265 -2.09729 0.335774 0
M  V30 1680 H 164.528 -0.943925 0.0878028 0
M  V30 1681 H 164.234 -3.50678 -0.267905 0
M  V30 1682 H 164.108 -3.20334 -1.99163 0
M  V30 1683 H 166.495 -2.21225 -1.95304 0
M  V30 1684 H 166.576 -2.54871 -0.217801 0
M  V30 1685 H 166.22 -5.02984 -0.704958 0
M  V30 1686 H 166.15 -4.66299 -2.44689 0
M  V30 1687 H 168.641 -3.51466 -1.38853 0
M  V30 1688 H 168.954 -7.39361 -2.24867 0
M  V30 1689 H 167.299 -6.64725 -2.02894 0
M  V30 1690 H 170.49 -4.38382 -1.64132 0
M  V30 1691 H 170.663 -6.15258 -2.03377 0
M  V30 1692 N 164.069 0.697108 -1.41344 0
M  V30 1693 C 165.316 1.45714 -1.40619 0
M  V30 1694 C 165.644 1.94494 -0.0147907 0
M  V30 1695 O 164.899 1.69794 0.973066 0
M  V30 1696 C 165.198 2.68553 -2.35826 0
M  V30 1697 C 164.864 2.38438 -3.82698 0
M  V30 1698 C 163.526 2.29936 -4.22709 0
M  V30 1699 C 165.878 2.13567 -4.75435 0
M  V30 1700 C 163.206 1.94656 -5.53467 0
M  V30 1701 C 165.558 1.79797 -6.06511 0
M  V30 1702 C 164.222 1.69789 -6.45545 0
M  V30 1703 H 163.492 0.533206 -0.51456 0
M  V30 1704 H 166.139 0.796901 -1.74131 0
M  V30 1705 H 164.444 3.39503 -1.95563 0
M  V30 1706 H 166.141 3.2669 -2.32539 0
M  V30 1707 H 162.731 2.4595 -3.51008 0
M  V30 1708 H 166.915 2.19082 -4.45328 0
M  V30 1709 H 162.171 1.8546 -5.82593 0
M  V30 1710 H 166.345 1.59572 -6.77872 0
M  V30 1711 H 163.972 1.4222 -7.46778 0
M  V30 1712 N 165.547 1.27147 0.931209 0
M  V30 1713 C 166.477 1.12081 2.04842 0
M  V30 1714 C 167.458 0.0232364 1.70084 0
M  V30 1715 O 168.643 0.197085 1.93197 0
M  V30 1716 C 165.773 0.76354 3.38803 0
M  V30 1717 C 164.727 1.81396 3.87659 0
M  V30 1718 C 164.053 1.31075 5.18385 0
M  V30 1719 C 165.353 3.21739 4.11438 0
M  V30 1720 H 167.047 2.05537 2.17703 0
M  V30 1721 H 164.593 0.989603 1.04608 0
M  V30 1722 H 166.546 0.644982 4.16435 0
M  V30 1723 H 165.27 -0.206727 3.25945 0
M  V30 1724 H 163.929 1.92136 3.12217 0
M  V30 1725 H 163.577 0.330037 5.01916 0
M  V30 1726 H 163.277 2.013 5.52044 0
M  V30 1727 H 164.801 1.20506 5.98591 0
M  V30 1728 H 166.215 3.14019 4.79651 0
M  V30 1729 H 164.612 3.89644 4.56397 0
M  V30 1730 H 165.682 3.67054 3.16859 0
M  V30 1731 N 167.025 -1.13721 1.09112 0
M  V30 1732 C 167.955 -2.21148 0.749385 0
M  V30 1733 C 168.936 -1.6792 -0.271475 0
M  V30 1734 O 170.121 -1.93693 -0.140251 0
M  V30 1735 C 167.251 -3.46905 0.165659 0
M  V30 1736 C 166.205 -4.13203 1.11567 0
M  V30 1737 C 165.531 -5.33248 0.393809 0
M  V30 1738 C 166.831 -4.60912 2.45678 0
M  V30 1739 H 168.525 -2.4999 1.64758 0
M  V30 1740 H 166.071 -1.20156 0.793626 0
M  V30 1741 H 168.024 -4.21313 -0.085466 0
M  V30 1742 H 166.748 -3.17449 -0.767714 0
M  V30 1743 H 165.407 -3.40758 1.35202 0
M  V30 1744 H 165.055 -5.00054 -0.543599 0
M  V30 1745 H 164.755 -5.78552 1.02721 0
M  V30 1746 H 166.279 -6.10413 0.150908 0
M  V30 1747 H 167.693 -5.26759 2.26269 0
M  V30 1748 H 166.09 -5.16944 3.04776 0
M  V30 1749 H 167.16 -3.75603 3.06677 0
M  V30 1750 N 168.503 -0.877838 -1.30888 0
M  V30 1751 C 169.435 -0.296607 -2.27273 0
M  V30 1752 C 170.448 0.544799 -1.53414 0
M  V30 1753 O 171.637 0.365511 -1.74718 0
M  V30 1754 C 168.737 0.597481 -3.33592 0
M  V30 1755 C 167.91 -0.213251 -4.3688 0
M  V30 1756 C 166.969 0.610208 -5.2265 0
M  V30 1757 O 165.995 0.035441 -5.69189 0
M  V30 1758 N 167.197 1.92071 -5.47804 0
M  V30 1759 H 169.962 -1.12492 -2.77787 0
M  V30 1760 H 167.523 -0.740105 -1.43993 0
M  V30 1761 H 169.515 1.15425 -3.87891 0
M  V30 1762 H 168.085 1.32647 -2.83061 0
M  V30 1763 H 167.305 -0.951466 -3.82545 0
M  V30 1764 H 168.593 -0.769262 -5.02951 0
M  V30 1765 H 167.991 2.4107 -5.11763 0
M  V30 1766 H 166.548 2.42508 -6.05007 0
M  V30 1767 N 169.982 1.44106 -0.638065 0
M  V30 1768 C 170.945 2.29138 0.0531013 0
M  V30 1769 C 171.945 1.41409 0.765506 0
M  V30 1770 O 173.135 1.63206 0.609046 0
M  V30 1771 C 170.267 3.23144 1.08584 0
M  V30 1772 H 171.46 2.91739 -0.694883 0
M  V30 1773 H 169.013 1.51134 -0.398538 0
M  V30 1774 H 169.748 2.65408 1.86357 0
M  V30 1775 H 169.533 3.87804 0.578852 0
M  V30 1776 H 171.023 3.87004 1.56899 0
M  V30 1777 N 171.46 0.379036 1.52974 0
M  V30 1778 C 172.876 0.0285448 1.59574 0
M  V30 1779 C 173.076 -1.45542 1.39355 0
M  V30 1780 O 172.132 -2.2187 1.20541 0
M  V30 1781 C 173.445 0.496535 2.96572 0
M  V30 1782 C 174.993 0.451909 3.0972 0
M  V30 1783 C 175.468 0.895924 4.49152 0
M  V30 1784 N 176.959 0.851522 4.55306 0
M  V30 1785 C 177.694 1.16661 5.61407 0
M  V30 1786 N 177.19 1.55166 6.752 0
M  V30 1787 N 178.983 1.08853 5.51459 0
M  V30 1788 H 171.134 1.34525 1.64367 0
M  V30 1789 H 173.397 0.550733 0.771619 0
M  V30 1790 H 173.103 1.53258 3.16552 0
M  V30 1791 H 172.977 -0.109802 3.7704 0
M  V30 1792 H 175.364 -0.575029 2.89443 0
M  V30 1793 H 175.445 1.09392 2.3123 0
M  V30 1794 H 175.089 1.92104 4.70168 0
M  V30 1795 H 175.019 0.23103 5.26093 0
M  V30 1796 H 177.51 0.568038 3.73606 0
M  V30 1797 H 177.823 1.776 7.52116 0
M  V30 1798 H 176.168 1.59044 6.76557 0
M  V30 1799 H 179.359 0.786803 4.6144 0
M  V30 1800 H 179.532 1.33742 6.34048 0
M  V30 1801 N 172.938 -1.57226 0.108567 0
M  V30 1802 C 174.215 -1.86333 -0.594939 0
M  V30 1803 C 174.595 -1.00788 -1.85486 0
M  V30 1804 O 173.943 -0.0839293 -2.28346 0
M  V30 1805 C 174.153 -3.37265 -0.897405 0
M  V30 1806 C 175.501 -4.05629 -1.25501 0
M  V30 1807 O 176.525 -3.42224 -0.987998 0
M  V30 1808 O 175.384 -5.17531 -1.75567 0
M  V30 1809 H 172.478 -0.771018 -0.2991 0
M  V30 1810 H 175.024 -1.69102 0.142283 0
M  V30 1811 H 173.796 -3.913 -0.00413806 0
M  V30 1812 H 173.419 -3.59889 -1.69014 0
M  V30 1813 N 174.416 0.165178 -1.56732 0
M  V30 1814 C 175.379 1.18822 -1.95995 0
M  V30 1815 C 176.379 1.3685 -0.84431 0
M  V30 1816 O 177.569 1.34152 -1.11126 0
M  V30 1817 C 174.701 2.5521 -2.26011 0
M  V30 1818 H 175.894 0.851825 -2.87548 0
M  V30 1819 H 173.447 0.407857 -1.50885 0
M  V30 1820 H 174.182 2.93852 -1.37191 0
M  V30 1821 H 173.967 2.43489 -3.07336 0
M  V30 1822 H 175.457 3.28927 -2.57288 0
M  V30 1823 N 175.894 1.51508 0.433938 0
M  V30 1824 C 177.31 1.39759 0.770682 0
M  V30 1825 C 177.51 0.482594 1.95636 0
M  V30 1826 O 176.566 -0.0609691 2.52426 0
M  V30 1827 C 177.879 2.81851 1.04787 0
M  V30 1828 C 179.427 2.91025 1.1521 0
M  V30 1829 C 179.902 4.34032 1.46219 0
M  V30 1830 N 181.393 4.37154 1.53136 0
M  V30 1831 C 182.128 5.4484 1.78709 0
M  V30 1832 N 181.624 6.62682 2.02051 0
M  V30 1833 N 183.417 5.32324 1.80519 0
M  V30 1834 H 175.568 2.09548 -0.346892 0
M  V30 1835 H 177.831 0.943446 -0.0928074 0
M  V30 1836 H 177.537 3.50815 0.249304 0
M  V30 1837 H 177.411 3.21386 1.97461 0
M  V30 1838 H 179.798 2.22257 1.94128 0
M  V30 1839 H 179.879 2.54983 0.204281 0
M  V30 1840 H 179.523 5.03351 0.678274 0
M  V30 1841 H 179.453 4.6759 2.42212 0
M  V30 1842 H 181.944 3.52197 1.36987 0
M  V30 1843 H 182.257 7.40543 2.20943 0
M  V30 1844 H 180.602 6.65791 1.99366 0
M  V30 1845 H 183.793 4.39246 1.61805 0
M  V30 1846 H 183.966 6.16328 2.00111 0
M  V30 1847 N 177.372 -0.689602 1.41712 0
M  V30 1848 C 178.62 -1.4468 1.4111 0
M  V30 1849 C 178.941 -1.94986 0.0232196 0
M  V30 1850 O 178.211 -1.72097 -0.935913 0
M  V30 1851 H 176.791 -0.536847 0.519427 0
M  V30 1852 H 179.453 -0.815825 1.77004 0
M  V30 1853 H 178.549 -2.30706 2.10193 0
M  V30 1854 N 178.85 -1.27639 -0.924453 0
M  V30 1855 C 179.813 -1.10681 -2.00705 0
M  V30 1856 C 180.813 -0.0497823 -1.60723 0
M  V30 1857 O 182.003 -0.294654 -1.7169 0
M  V30 1858 C 179.135 -0.687164 -3.33902 0
M  V30 1859 H 180.328 -2.06817 -2.17179 0
M  V30 1860 H 177.881 -1.10473 -1.10569 0
M  V30 1861 H 178.616 0.275439 -3.23128 0
M  V30 1862 H 178.401 -1.45061 -3.6428 0
M  V30 1863 H 179.891 -0.590853 -4.13399 0
M  V30 1864 N 180.328 1.1314 -1.09713 0
M  V30 1865 C 181.574 1.84757 -0.836224 0
M  V30 1866 C 181.907 1.8347 0.636598 0
M  V30 1867 O 181.182 1.27491 1.46889 0
M  V30 1868 C 181.465 3.32782 -1.37578 0
M  V30 1869 C 181.318 3.42567 -2.91493 0
M  V30 1870 C 182.637 4.28307 -1.01198 0
M  V30 1871 H 179.756 0.67082 -0.305236 0
M  V30 1872 H 182.398 1.3278 -1.35903 0
M  V30 1873 H 180.548 3.77177 -0.931097 0
M  V30 1874 H 182.22 3.06862 -3.44432 0
M  V30 1875 H 180.463 2.83349 -3.28475 0
M  V30 1876 H 181.134 4.46674 -3.24324 0
M  V30 1877 H 183.61 3.91999 -1.39556 0
M  V30 1878 H 182.486 5.30307 -1.41653 0
M  V30 1879 H 182.747 4.42029 0.0794833 0
M  V30 1880 N 181.806 0.884767 1.30421 0
M  V30 1881 C 182.756 0.322846 2.25703 0
M  V30 1882 C 183.74 -0.548582 1.51259 0
M  V30 1883 O 184.932 -0.39304 1.72581 0
M  V30 1884 C 182.061 -0.461787 3.4018 0
M  V30 1885 C 181.147 0.423717 4.21978 0
M  V30 1886 N 181.538 1.52408 4.82292 0
M  V30 1887 C 179.836 0.218795 4.45463 0
M  V30 1888 C 180.537 2.07136 5.43571 0
M  V30 1889 N 179.513 1.36635 5.26148 0
M  V30 1890 H 183.315 1.16363 2.69883 0
M  V30 1891 H 180.829 0.73415 1.44859 0
M  V30 1892 H 182.826 -0.880985 4.07485 0
M  V30 1893 H 181.486 -1.30001 2.9754 0
M  V30 1894 H 182.497 1.90693 4.81515 0
M  V30 1895 H 179.174 -0.582275 4.1342 0
M  V30 1896 H 180.564 2.99538 6.01437 0
M  V30 1897 N 183.284 -1.43765 0.645699 0
M  V30 1898 C 184.53 -2.02197 0.156271 0
M  V30 1899 C 184.863 -1.50776 -1.22393 0
M  V30 1900 O 184.138 -0.697771 -1.81553 0
M  V30 1901 C 184.421 -3.59749 0.158872 0
M  V30 1902 C 184.274 -4.21419 1.57245 0
M  V30 1903 C 185.593 -4.37149 -0.50879 0
M  V30 1904 H 182.712 -0.734694 0.0582602 0
M  V30 1905 H 185.354 -1.71157 0.824951 0
M  V30 1906 H 183.504 -3.86325 -0.410525 0
M  V30 1907 H 185.176 -4.059 2.19186 0
M  V30 1908 H 183.419 -3.78356 2.122 0
M  V30 1909 H 184.09 -5.30482 1.52619 0
M  V30 1910 H 186.566 -4.16093 -0.024412 0
M  V30 1911 H 185.442 -5.4683 -0.476213 0
M  V30 1912 H 185.703 -4.12839 -1.58165 0
M  V30 1913 N 184.763 -0.387143 -1.52771 0
M  V30 1914 C 186.009 0.196025 -2.0185 0
M  V30 1915 C 186.342 1.46641 -1.27319 0
M  V30 1916 O 185.617 1.90889 -0.373032 0
M  V30 1917 C 185.9 0.466136 -3.5707 0
M  V30 1918 C 185.753 -0.819385 -4.42274 0
M  V30 1919 C 187.072 1.25768 -4.21747 0
M  V30 1920 H 184.191 0.0697708 -0.73369 0
M  V30 1921 H 186.833 -0.516286 -1.82851 0
M  V30 1922 H 184.983 1.07293 -3.7339 0
M  V30 1923 H 186.655 -1.4563 -4.37709 0
M  V30 1924 H 184.898 -1.43517 -4.09372 0
M  V30 1925 H 185.569 -0.585065 -5.48891 0
M  V30 1926 H 188.045 0.744167 -4.09391 0
M  V30 1927 H 186.921 1.41541 -5.30337 0
M  V30 1928 H 187.182 2.27228 -3.79236 0
M  V30 1929 N 186.241 1.57166 -0.116904 0
M  V30 1930 C 187.487 1.95412 0.542405 0
M  V30 1931 C 187.82 1.00019 1.66463 0
M  V30 1932 O 187.095 0.0370346 1.94465 0
M  V30 1933 C 187.378 3.43615 1.07708 0
M  V30 1934 C 187.231 4.49781 -0.0415868 0
M  V30 1935 C 188.55 3.93616 1.96861 0
M  V30 1936 H 185.669 0.710543 0.195696 0
M  V30 1937 H 188.311 1.89027 -0.192038 0
M  V30 1938 H 186.461 3.49187 1.70296 0
M  V30 1939 H 188.133 4.56308 -0.676793 0
M  V30 1940 H 186.376 4.28033 -0.705019 0
M  V30 1941 H 187.047 5.50733 0.373717 0
M  V30 1942 H 189.523 3.90335 1.44146 0
M  V30 1943 H 188.399 4.97838 2.3119 0
M  V30 1944 H 188.66 3.34188 2.89432 0
M  V30 1945 N 187.719 -0.156864 1.56817 0
M  V30 1946 C 188.682 -1.17781 1.96622 0
M  V30 1947 C 189.682 -1.36401 0.851555 0
M  V30 1948 O 190.872 -1.33561 1.11836 0
M  V30 1949 C 188.004 -2.54008 2.27361 0
M  V30 1950 H 189.197 -0.836564 2.87996 0
M  V30 1951 H 186.75 -0.39985 1.51099 0
M  V30 1952 H 187.485 -2.9312 1.38748 0
M  V30 1953 H 187.27 -2.41856 3.08623 0
M  V30 1954 H 188.76 -3.27558 2.59029 0
M  V30 1955 N 189.197 -1.51736 -0.425897 0
M  V30 1956 C 190.107 -1.76738 -1.54275 0
M  V30 1957 C 191.123 -0.65211 -1.61318 0
M  V30 1958 O 192.299 -0.935654 -1.78346 0
M  V30 1959 C 189.364 -1.89755 -2.90162 0
M  V30 1960 C 188.425 -3.13633 -2.93143 0
M  V30 1961 C 187.658 -3.2602 -4.22548 0
M  V30 1962 O 187.881 -2.44067 -5.15546 0
M  V30 1963 O 186.815 -4.19071 -4.32046 0
M  V30 1964 H 190.641 -2.71502 -1.36089 0
M  V30 1965 H 188.226 -1.36376 -0.610069 0
M  V30 1966 H 190.108 -2.00236 -3.70788 0
M  V30 1967 H 188.783 -0.981785 -3.08452 0
M  V30 1968 H 187.69 -3.08622 -2.11431 0
M  V30 1969 H 189.023 -4.04936 -2.798 0
M  V30 1970 N 190.675 0.682077 -1.42076 0
M  V30 1971 C 191.903 1.47057 -1.4554 0
M  V30 1972 C 192.318 1.8869 -0.0645779 0
M  V30 1973 O 191.675 1.57666 0.919115 0
M  V30 1974 C 191.726 2.72442 -2.37609 0
M  V30 1975 O 191.447 2.32559 -3.71279 0
M  V30 1976 C 192.948 3.66069 -2.50017 0
M  V30 1977 H 190.168 0.452737 -0.495248 0
M  V30 1978 H 192.712 0.838695 -1.8651 0
M  V30 1979 H 190.867 3.31835 -1.9991 0
M  V30 1980 H 191.281 3.13475 -4.20516 0
M  V30 1981 H 192.755 4.50792 -3.18576 0
M  V30 1982 H 193.232 4.11476 -1.53572 0
M  V30 1983 H 193.838 3.12572 -2.88407 0
M  V30 1984 N 192.153 1.28127 0.917671 0
M  V30 1985 C 193.43 1.05761 1.64542 0
M  V30 1986 C 193.81 -0.404344 2.07191 0
M  V30 1987 O 193.158 -1.38963 1.81388 0
M  V30 1988 C 193.368 2.02857 2.83989 0
M  V30 1989 C 194.716 2.32786 3.551 0
M  V30 1990 O 195.74 2.0091 2.94132 0
M  V30 1991 O 194.599 2.87169 4.64969 0
M  V30 1992 H 191.693 0.403916 0.721652 0
M  V30 1993 H 194.239 1.39431 0.967322 0
M  V30 1994 H 193.011 3.01407 2.49538 0
M  V30 1995 H 192.634 1.69809 3.59514 0
M  V30 1996 N 193.631 -1.12557 1.10312 0
M  V30 1997 C 194.861 -1.87592 0.865617 0
M  V30 1998 C 195.269 -1.79851 -0.587389 0
M  V30 1999 O 194.612 -1.16949 -1.41664 0
M  V30 2000 C 194.674 -3.37665 1.23381 0
M  V30 2001 C 194.338 -3.69181 2.69359 0
M  V30 2002 C 195.335 -3.67652 3.67597 0
M  V30 2003 C 193.02 -3.98555 3.05711 0
M  V30 2004 C 195.014 -3.95053 5.00212 0
M  V30 2005 C 192.701 -4.25616 4.38514 0
M  V30 2006 C 193.699 -4.23851 5.35574 0
M  V30 2007 O 193.387 -4.50242 6.65986 0
M  V30 2008 H 193.119 -0.600442 0.310557 0
M  V30 2009 H 195.673 -1.4335 1.47105 0
M  V30 2010 H 193.903 -3.82454 0.571467 0
M  V30 2011 H 195.592 -3.94041 0.973994 0
M  V30 2012 H 196.358 -3.45024 3.40857 0
M  V30 2013 H 192.237 -3.99071 2.30789 0
M  V30 2014 H 195.781 -3.93591 5.75962 0
M  V30 2015 H 191.678 -4.47718 4.64994 0
M  V30 2016 H 192.446 -4.67867 6.71597 0
M  V30 2017 N 195.109 -0.891671 -1.2995 0
M  V30 2018 C 196.041 -0.320695 -2.26945 0
M  V30 2019 C 197.054 0.528497 -1.53983 0
M  V30 2020 O 198.243 0.346959 -1.75096 0
M  V30 2021 C 195.343 0.562066 -3.34207 0
M  V30 2022 C 194.516 -0.259576 -4.36629 0
M  V30 2023 C 193.575 0.554739 -5.23268 0
M  V30 2024 O 192.601 -0.0249311 -5.69195 0
M  V30 2025 N 193.803 1.8625 -5.4981 0
M  V30 2026 H 196.568 -1.15432 -2.76578 0
M  V30 2027 H 194.129 -0.755336 -1.432 0
M  V30 2028 H 196.121 1.11304 -3.89093 0
M  V30 2029 H 194.691 1.29637 -2.84452 0
M  V30 2030 H 193.911 -0.991986 -3.81514 0
M  V30 2031 H 195.199 -0.822564 -5.02107 0
M  V30 2032 H 194.597 2.35628 -5.14292 0
M  V30 2033 H 193.154 2.36078 -6.07545 0
M  V30 2034 N 196.587 1.43421 -0.653314 0
M  V30 2035 C 197.812 2.06678 -0.172846 0
M  V30 2036 C 198.237 1.48648 1.15262 0
M  V30 2037 O 197.595 0.596457 1.71208 0
M  V30 2038 C 197.643 3.60474 -0.0953184 0
M  V30 2039 O 196.747 4.01487 0.942442 0
M  V30 2040 H 196.088 0.657181 -0.0949155 0
M  V30 2041 H 198.618 1.83925 -0.896265 0
M  V30 2042 H 198.628 4.07905 0.0879728 0
M  V30 2043 H 197.303 4.02088 -1.06291 0
M  V30 2044 H 195.88 3.65646 0.731932 0
M  V30 2045 N 198.065 0.39524 1.52563 0
M  V30 2046 C 199.312 -0.185044 2.01653 0
M  V30 2047 C 199.64 -1.46317 1.28146 0
M  V30 2048 O 198.895 -1.9213 0.372074 0
M  V30 2049 C 199.194 -0.493444 3.53977 0
M  V30 2050 C 198.86 0.69384 4.4553 0
M  V30 2051 C 197.522 1.01954 4.70275 0
M  V30 2052 C 199.874 1.48785 4.99512 0
M  V30 2053 C 197.202 2.14069 5.46252 0
M  V30 2054 C 199.554 2.59965 5.76716 0
M  V30 2055 C 198.218 2.93037 5.99738 0
M  V30 2056 H 197.488 -0.0677123 0.7379 0
M  V30 2057 H 200.135 0.533807 1.8391 0
M  V30 2058 H 198.44 -1.29369 3.69825 0
M  V30 2059 H 200.137 -0.955163 3.89458 0
M  V30 2060 H 196.727 0.429987 4.26438 0
M  V30 2061 H 200.911 1.24946 4.80315 0
M  V30 2062 H 196.167 2.40056 5.62302 0
M  V30 2063 H 200.341 3.21887 6.17545 0
M  V30 2064 H 197.968 3.8003 6.58393 0
M  V30 2065 N 199.544 -1.57102 0.125237 0
M  V30 2066 C 200.507 -2.14471 -0.80838 0
M  V30 2067 C 201.507 -1.0811 -1.19033 0
M  V30 2068 O 202.697 -1.33856 -1.11482 0
M  V30 2069 C 199.829 -2.69005 -2.09402 0
M  V30 2070 H 201.022 -2.98297 -0.309696 0
M  V30 2071 H 198.575 -1.55807 -0.124051 0
M  V30 2072 H 199.31 -1.88785 -2.63687 0
M  V30 2073 H 199.095 -3.46799 -1.82957 0
M  V30 2074 H 200.585 -3.13278 -2.76128 0
M  V30 2075 N 201.022 0.148545 -1.56898 0
M  V30 2076 C 202.268 0.862694 -1.83536 0
M  V30 2077 C 202.601 1.80889 -0.706604 0
M  V30 2078 O 201.876 1.92328 0.289885 0
M  V30 2079 C 202.159 1.63853 -3.20662 0
M  V30 2080 C 202.012 0.713925 -4.44098 0
M  V30 2081 C 203.331 2.60133 -3.54991 0
M  V30 2082 H 200.45 0.312179 -0.667618 0
M  V30 2083 H 203.092 0.127953 -1.89569 0
M  V30 2084 H 201.242 2.26489 -3.1565 0
M  V30 2085 H 202.914 0.098686 -4.61194 0
M  V30 2086 H 201.157 0.0234019 -4.33794 0
M  V30 2087 H 201.828 1.29278 -5.36648 0
M  V30 2088 H 204.304 2.07616 -3.60603 0
M  V30 2089 H 203.18 3.11468 -4.51972 0
M  V30 2090 H 203.441 3.41417 -2.80868 0
M  V30 2091 N 202.5 1.5196 0.417844 0
M  V30 2092 C 203.43 1.77634 1.51554 0
M  V30 2093 C 204.411 0.626918 1.58126 0
M  V30 2094 O 205.596 0.871632 1.7354 0
M  V30 2095 C 202.726 1.91911 2.8946 0
M  V30 2096 C 201.68 3.07463 2.97743 0
M  V30 2097 C 201.006 3.06951 4.37819 0
M  V30 2098 C 202.306 4.47082 2.70027 0
M  V30 2099 H 204 2.6955 1.3032 0
M  V30 2100 H 201.546 1.29706 0.625492 0
M  V30 2101 H 203.499 2.08455 3.6623 0
M  V30 2102 H 202.223 0.966598 3.11969 0
M  V30 2103 H 200.882 2.90656 2.23416 0
M  V30 2104 H 200.53 2.09438 4.57323 0
M  V30 2105 H 200.23 3.84556 4.44286 0
M  V30 2106 H 201.754 3.25613 5.16535 0
M  V30 2107 H 203.168 4.6414 3.36522 0
M  V30 2108 H 201.565 5.2654 2.87881 0
M  V30 2109 H 202.635 4.55777 1.65514 0
M  V30 2110 N 203.978 -0.674533 1.42435 0
M  V30 2111 C 205.208 -1.46071 1.46105 0
M  V30 2112 C 205.616 -1.89067 0.0709605 0
M  V30 2113 O 204.959 -1.58731 -0.924677 0
M  V30 2114 C 205.021 -2.74145 2.32561 0
M  V30 2115 C 204.685 -2.53224 3.8043 0
M  V30 2116 C 205.682 -2.17809 4.72075 0
M  V30 2117 C 203.367 -2.6821 4.24698 0
M  V30 2118 C 205.361 -1.97648 6.05982 0
M  V30 2119 C 203.048 -2.47665 5.58664 0
M  V30 2120 C 204.046 -2.12437 6.49122 0
M  V30 2121 O 203.734 -1.9209 7.80613 0
M  V30 2122 H 203.466 -0.455959 0.499076 0
M  V30 2123 H 206.02 -0.836193 1.87609 0
M  V30 2124 H 204.25 -3.3908 1.85908 0
M  V30 2125 H 205.939 -3.36028 2.27683 0
M  V30 2126 H 206.705 -2.05826 4.39159 0
M  V30 2127 H 202.584 -2.94609 3.54579 0
M  V30 2128 H 206.128 -1.70075 6.7655 0
M  V30 2129 H 202.025 -2.59244 5.91154 0
M  V30 2130 H 202.793 -2.06686 7.91974 0
M  V30 2131 N 205.456 -1.28612 -0.910864 0
M  V30 2132 C 206.386 -1.15326 -2.03032 0
M  V30 2133 C 207.367 -0.0502924 -1.70026 0
M  V30 2134 O 208.552 -0.227797 -1.92859 0
M  V30 2135 C 205.682 -0.817343 -3.37545 0
M  V30 2136 C 204.636 -1.8754 -3.84724 0
M  V30 2137 C 203.962 -1.39305 -5.16235 0
M  V30 2138 C 205.262 -3.28244 -4.06267 0
M  V30 2139 H 206.956 -2.08975 -2.14406 0
M  V30 2140 H 204.502 -1.00612 -1.03021 0
M  V30 2141 H 206.455 -0.711151 -4.15356 0
M  V30 2142 H 205.179 0.154846 -3.26233 0
M  V30 2143 H 203.838 -1.97079 -3.09121 0
M  V30 2144 H 203.486 -0.409846 -5.01328 0
M  V30 2145 H 203.186 -2.10057 -5.48771 0
M  V30 2146 H 204.71 -1.30014 -5.96598 0
M  V30 2147 H 206.124 -3.21611 -4.74594 0
M  V30 2148 H 204.521 -3.96855 -4.5014 0
M  V30 2149 H 205.591 -3.72048 -3.10979 0
M  V30 2150 N 206.934 1.1197 -1.10907 0
M  V30 2151 C 207.844 2.21433 -0.774896 0
M  V30 2152 C 208.86 1.72478 0.229657 0
M  V30 2153 O 210.036 2.01288 0.0672008 0
M  V30 2154 C 207.101 3.4602 -0.216986 0
M  V30 2155 C 206.162 4.09791 -1.27944 0
M  V30 2156 C 205.395 5.28431 -0.748055 0
M  V30 2157 O 205.618 5.68823 0.423833 0
M  V30 2158 O 204.552 5.82644 -1.51027 0
M  V30 2159 H 208.378 2.5242 -1.68873 0
M  V30 2160 H 205.963 1.20399 -0.884555 0
M  V30 2161 H 207.845 4.21304 0.090059 0
M  V30 2162 H 206.52 3.16698 0.669633 0
M  V30 2163 H 205.427 3.36265 -1.63941 0
M  V30 2164 H 206.76 4.4328 -2.13925 0
M  V30 2165 N 208.412 0.89855 1.29475 0
M  V30 2166 C 209.828 0.594483 1.48115 0
M  V30 2167 C 210.028 -0.86431 1.82022 0
M  V30 2168 O 209.084 -1.64457 1.91599 0
M  V30 2169 C 210.397 1.51932 2.59494 0
M  V30 2170 C 211.945 1.5244 2.7337 0
M  V30 2171 C 212.42 2.43548 3.87877 0
M  V30 2172 N 213.911 2.41589 3.95208 0
M  V30 2173 C 214.646 3.08789 4.83153 0
M  V30 2174 N 214.142 3.85265 5.75798 0
M  V30 2175 N 215.935 2.97952 4.76635 0
M  V30 2176 H 208.086 1.84207 1.05742 0
M  V30 2177 H 210.349 0.789251 0.525154 0
M  V30 2178 H 210.055 2.55865 2.41301 0
M  V30 2179 H 209.929 1.23899 3.56271 0
M  V30 2180 H 212.316 0.492518 2.90961 0
M  V30 2181 H 212.397 1.8451 1.77172 0
M  V30 2182 H 212.041 3.46829 3.71041 0
M  V30 2183 H 211.971 2.08788 4.83441 0
M  V30 2184 H 214.462 1.86025 3.28943 0
M  V30 2185 H 214.775 4.33598 6.39697 0
M  V30 2186 H 213.12 3.89371 5.75687 0
M  V30 2187 H 216.311 2.37723 4.03244 0
M  V30 2188 H 216.484 3.50599 5.44962 0
M  V30 2189 N 209.89 -1.43072 0.660911 0
M  V30 2190 C 210.853 -2.29194 -0.0166406 0
M  V30 2191 C 211.853 -1.42609 -0.742912 0
M  V30 2192 O 213.043 -1.64155 -0.583004 0
M  V30 2193 C 210.175 -3.24831 -1.0343 0
M  V30 2194 H 211.368 -2.90596 0.741208 0
M  V30 2195 H 208.921 -1.5048 0.422532 0
M  V30 2196 H 209.656 -2.68339 -1.82111 0
M  V30 2197 H 209.441 -3.88676 -0.517082 0
M  V30 2198 H 210.931 -3.89451 -1.50723 0
M  V30 2199 N 211.368 -0.403325 -1.52352 0
M  V30 2200 C 212.616 0.174003 -2.0135 0
M  V30 2201 C 212.937 1.46139 -1.29106 0
M  V30 2202 O 212.207 1.91448 -0.415253 0
M  V30 2203 H 210.787 0.0672911 -0.743963 0
M  V30 2204 H 213.449 -0.538235 -1.87321 0
M  V30 2205 H 212.545 0.374254 -3.09848 0
M  V30 2206 N 212.846 1.57033 -0.133567 0
M  V30 2207 C 213.778 2.13176 0.841944 0
M  V30 2208 C 214.791 1.07794 1.22001 0
M  V30 2209 O 215.98 1.35117 1.16643 0
M  V30 2210 C 213.08 2.62847 2.13926 0
M  V30 2211 C 212.253 3.92486 1.93064 0
M  V30 2212 C 211.312 4.27605 3.0666 0
M  V30 2213 O 210.338 4.96168 2.78937 0
M  V30 2214 N 211.54 3.861 4.33483 0
M  V30 2215 H 214.305 2.97503 0.362192 0
M  V30 2216 H 211.866 1.61821 0.05042 0
M  V30 2217 H 213.858 2.83363 2.88942 0
M  V30 2218 H 212.428 1.83319 2.53205 0
M  V30 2219 H 211.648 3.80732 1.02159 0
M  V30 2220 H 212.936 4.77225 1.76447 0
M  V30 2221 H 212.334 3.30828 4.58878 0
M  V30 2222 H 210.891 4.11694 5.05323 0
M  V30 2223 N 214.325 -0.140222 1.56975 0
M  V30 2224 C 215.255 -1.17456 2.01808 0
M  V30 2225 C 216.236 -1.44415 0.898794 0
M  V30 2226 O 217.421 -1.5522 1.16707 0
M  V30 2227 C 214.551 -2.50607 2.40444 0
M  V30 2228 C 213.505 -2.38155 3.55621 0
M  V30 2229 C 212.831 -3.76078 3.80091 0
M  V30 2230 C 214.131 -1.85991 4.88062 0
M  V30 2231 H 215.825 -0.801743 2.88466 0
M  V30 2232 H 213.371 -0.38422 1.38779 0
M  V30 2233 H 215.324 -3.23197 2.7041 0
M  V30 2234 H 214.048 -2.89737 1.50732 0
M  V30 2235 H 212.707 -1.68016 3.25832 0
M  V30 2236 H 212.355 -4.12656 2.87618 0
M  V30 2237 H 212.055 -3.68606 4.57606 0
M  V30 2238 H 213.579 -4.50206 4.12488 0
M  V30 2239 H 214.993 -2.4838 5.16701 0
M  V30 2240 H 213.39 -1.89393 5.6943 0
M  V30 2241 H 214.46 -0.816023 4.77984 0
M  V30 2242 N 215.803 -1.52179 -0.40978 0
M  V30 2243 C 217.028 -1.70347 -1.18308 0
M  V30 2244 C 217.453 -0.411887 -1.83535 0
M  V30 2245 O 216.811 0.630587 -1.6998 0
M  V30 2246 C 216.859 -2.83977 -2.22238 0
M  V30 2247 O 215.963 -2.495 -3.28365 0
M  V30 2248 H 215.304 -0.567103 -0.345384 0
M  V30 2249 H 217.834 -1.98879 -0.480445 0
M  V30 2250 H 217.844 -3.0887 -2.66577 0
M  V30 2251 H 216.519 -3.77685 -1.74146 0
M  V30 2252 H 215.096 -2.35277 -2.89308 0
M  V30 2253 N 217.281 0.66697 -1.42791 0
M  V30 2254 C 218.527 1.4291 -1.43891 0
M  V30 2255 C 218.86 1.94114 -0.0578972 0
M  V30 2256 O 218.135 1.71414 0.91911 0
M  V30 2257 C 218.418 2.62049 -2.46987 0
M  V30 2258 C 218.271 2.16426 -3.94309 0
M  V30 2259 C 219.59 3.64266 -2.46978 0
M  V30 2260 H 216.709 0.518306 -0.523954 0
M  V30 2261 H 219.351 0.757321 -1.74255 0
M  V30 2262 H 217.501 3.19361 -2.21225 0
M  V30 2263 H 219.173 1.64221 -4.31079 0
M  V30 2264 H 217.416 1.47925 -4.078 0
M  V30 2265 H 218.087 3.02038 -4.62036 0
M  V30 2266 H 220.563 3.16686 -2.69906 0
M  V30 2267 H 219.439 4.45196 -3.21079 0
M  V30 2268 H 219.7 4.15927 -1.49857 0
M  V30 2269 N 218.759 1.29093 0.90403 0
M  V30 2270 C 219.706 1.13853 2.00764 0
M  V30 2271 C 220.676 0.0330084 1.66067 0
M  V30 2272 O 221.861 0.199733 1.89752 0
M  V30 2273 C 219.001 0.816537 3.35301 0
M  V30 2274 C 218.114 2.00206 3.82807 0
M  V30 2275 C 217.249 1.61983 5.059 0
M  V30 2276 C 216.288 2.77143 5.45764 0
M  V30 2277 N 215.425 2.39346 6.60044 0
M  V30 2278 H 220.265 2.08276 2.13132 0
M  V30 2279 H 217.802 1.03648 1.04381 0
M  V30 2280 H 219.76 0.610557 4.12708 0
M  V30 2281 H 218.39 -0.090779 3.22672 0
M  V30 2282 H 217.442 2.31988 3.01473 0
M  V30 2283 H 218.754 2.86512 4.08304 0
M  V30 2284 H 217.908 1.37649 5.90879 0
M  V30 2285 H 216.647 0.728202 4.82233 0
M  V30 2286 H 215.652 3.02165 4.59322 0
M  V30 2287 H 216.877 3.66964 5.71414 0
M  V30 2288 H 214.823 1.52665 6.37989 0
M  V30 2289 H 214.74 3.19185 6.85315 0
M  V30 2290 H 216.008 2.1832 7.48303 0
M  V30 2291 N 220.237 -1.11381 1.11499 0
M  V30 2292 C 221.167 -2.19509 0.796125 0
M  V30 2293 C 222.148 -1.68458 -0.235796 0
M  V30 2294 O 223.333 -1.93947 -0.0991344 0
M  V30 2295 C 220.463 -3.46475 0.239205 0
M  V30 2296 C 219.417 -4.10744 1.20307 0
M  V30 2297 C 218.743 -5.32293 0.50683 0
M  V30 2298 C 220.043 -4.55597 2.55399 0
M  V30 2299 H 221.737 -2.46439 1.70024 0
M  V30 2300 H 219.283 -1.18446 0.818935 0
M  V30 2301 H 221.236 -4.214 0.00392006 0
M  V30 2302 H 219.96 -3.19006 -0.700206 0
M  V30 2303 H 218.619 -3.37813 1.42399 0
M  V30 2304 H 218.267 -5.01095 -0.437408 0
M  V30 2305 H 217.967 -5.76243 1.1497 0
M  V30 2306 H 219.491 -6.09956 0.280351 0
M  V30 2307 H 220.905 -5.21841 2.37391 0
M  V30 2308 H 219.302 -5.10363 3.15673 0
M  V30 2309 H 220.372 -3.69013 3.14575 0
M  V30 2310 N 221.715 -0.905404 -1.28997 0
M  V30 2311 C 222.945 -0.549049 -1.99171 0
M  V30 2312 C 223.353 0.87203 -1.67906 0
M  V30 2313 O 222.696 1.58796 -0.923561 0
M  V30 2314 C 222.758 -0.668306 -3.53234 0
M  V30 2315 C 222.422 -2.0574 -4.08069 0
M  V30 2316 C 223.419 -3.0292 -4.22534 0
M  V30 2317 C 221.104 -2.36833 -4.42962 0
M  V30 2318 C 223.098 -4.29314 -4.71135 0
M  V30 2319 C 220.785 -3.63467 -4.91258 0
M  V30 2320 C 221.783 -4.59522 -5.053 0
M  V30 2321 O 221.471 -5.83907 -5.52546 0
M  V30 2322 H 221.203 -0.208784 -0.64295 0
M  V30 2323 H 223.757 -1.21836 -1.65363 0
M  V30 2324 H 221.987 0.0580547 -3.86656 0
M  V30 2325 H 223.676 -0.320273 -4.04634 0
M  V30 2326 H 224.442 -2.80216 -3.95859 0
M  V30 2327 H 220.321 -1.62824 -4.31288 0
M  V30 2328 H 223.865 -5.04293 -4.8201 0
M  V30 2329 H 219.762 -3.86 -5.17372 0
M  V30 2330 H 220.53 -5.86578 -5.70849 0
M  V30 2331 N 223.193 1.4272 -0.668489 0
M  V30 2332 C 224.156 2.292 0.00448567 0
M  V30 2333 C 225.156 1.43001 0.735339 0
M  V30 2334 O 226.346 1.64461 0.57429 0
M  V30 2335 C 223.478 3.25375 1.01705 0
M  V30 2336 H 224.671 2.90199 -0.756608 0
M  V30 2337 H 222.224 1.50254 -0.430506 0
M  V30 2338 H 222.959 2.69301 1.80686 0
M  V30 2339 H 222.744 3.88944 0.496463 0
M  V30 2340 H 224.234 3.90245 1.48655 0
M  V30 2341 N 224.671 0.411399 1.52136 0
M  V30 2342 C 226.087 0.0623865 1.59478 0
M  V30 2343 C 226.287 -1.42554 1.4241 0
M  V30 2344 O 225.343 -2.19263 1.2522 0
M  V30 2345 C 226.656 0.559331 2.95452 0
M  V30 2346 C 228.204 0.517503 3.08692 0
M  V30 2347 C 228.679 0.990994 4.4715 0
M  V30 2348 N 230.17 0.947908 4.53397 0
M  V30 2349 C 230.905 1.28544 5.58806 0
M  V30 2350 N 230.401 1.69454 6.71757 0
M  V30 2351 N 232.194 1.20526 5.49026 0
M  V30 2352 H 224.345 1.37982 1.61477 0
M  V30 2353 H 226.608 0.566977 0.759764 0
M  V30 2354 H 226.314 1.59938 3.1323 0
M  V30 2355 H 226.188 -0.0298014 3.77188 0
M  V30 2356 H 228.575 -0.513505 2.90598 0
M  V30 2357 H 228.656 1.14272 2.28857 0
M  V30 2358 H 228.3 2.02034 4.65988 0
M  V30 2359 H 228.23 0.34257 5.25485 0
M  V30 2360 H 230.721 0.647157 3.72317 0
M  V30 2361 H 231.034 1.93513 7.48179 0
M  V30 2362 H 229.379 1.73359 6.73032 0
M  V30 2363 H 232.57 0.884505 4.59667 0
M  V30 2364 H 232.743 1.47161 6.31069 0
M  V30 2365 N 226.149 -1.5696 0.141893 0
M  V30 2366 C 227.374 -2.00754 -0.520838 0
M  V30 2367 C 227.799 -1.0213 -1.57959 0
M  V30 2368 O 227.157 0.00371324 -1.813 0
M  V30 2369 C 227.205 -3.43318 -1.10294 0
M  V30 2370 O 226.309 -3.47679 -2.21795 0
M  V30 2371 H 225.65 -0.651564 -0.127908 0
M  V30 2372 H 228.18 -2.03221 0.23712 0
M  V30 2373 H 228.19 -3.82012 -1.43287 0
M  V30 2374 H 226.865 -4.14608 -0.327574 0
M  V30 2375 H 225.442 -3.20824 -1.9007 0
M  V30 2376 N 227.627 0.131896 -1.57047 0
M  V30 2377 C 228.557 1.16384 -2.02428 0
M  V30 2378 C 229.538 1.43936 -0.90644 0
M  V30 2379 O 230.723 1.54599 -1.17528 0
M  V30 2380 C 227.853 2.49328 -2.4177 0
M  V30 2381 C 226.807 2.36266 -3.56879 0
M  V30 2382 C 226.133 3.74057 -3.8208 0
M  V30 2383 C 227.433 1.834 -4.89042 0
M  V30 2384 H 229.127 0.786433 -2.88887 0
M  V30 2385 H 226.673 0.376855 -1.38981 0
M  V30 2386 H 228.626 3.21759 -2.7212 0
M  V30 2387 H 227.35 2.88934 -1.52266 0
M  V30 2388 H 226.009 1.66286 -3.26718 0
M  V30 2389 H 225.657 4.11125 -2.89803 0
M  V30 2390 H 225.357 3.66174 -4.59554 0
M  V30 2391 H 226.881 4.48012 -4.1487 0
M  V30 2392 H 228.295 2.45636 -5.18011 0
M  V30 2393 H 226.692 1.8637 -5.70426 0
M  V30 2394 H 227.762 0.790662 -4.7841 0
M  V30 2395 N 229.106 1.52395 0.401703 0
M  V30 2396 C 230.517 1.58899 0.980202 0
M  V30 2397 C 230.868 0.434032 1.91339 0
M  V30 2398 O 229.993 -0.444619 2.11783 0
M  V30 2399 C 230.588 2.87994 1.78451 0
M  V30 2400 C 229.147 2.96953 2.31292 0
M  V30 2401 C 228.294 2.53903 1.11483 0
M  V30 2402 H 231.245 1.57657 0.18168 0
M  V30 2403 H 231.266 2.73765 2.64259 0
M  V30 2404 H 230.778 3.72035 1.10506 0
M  V30 2405 H 228.879 2.17422 3.02586 0
M  V30 2406 H 228.992 4.01344 2.61649 0
M  V30 2407 H 227.356 2.07925 1.47104 0
M  V30 2408 H 228.139 3.40326 0.450928 0
M  V30 2409 N 230.584 -0.659388 1.43143 0
M  V30 2410 C 231.83 -1.42145 1.44647 0
M  V30 2411 C 232.163 -1.9408 0.0681907 0
M  V30 2412 O 231.438 -1.71899 -0.910007 0
M  V30 2413 C 231.721 -2.60735 2.48373 0
M  V30 2414 C 231.574 -2.14332 3.95451 0
M  V30 2415 C 232.893 -3.62951 2.48906 0
M  V30 2416 H 230.012 -0.51552 0.526696 0
M  V30 2417 H 232.654 -0.748069 1.74654 0
M  V30 2418 H 230.804 -3.18184 2.22916 0
M  V30 2419 H 232.476 -1.61932 4.31944 0
M  V30 2420 H 230.719 -1.4576 4.08578 0
M  V30 2421 H 231.39 -2.99583 4.63631 0
M  V30 2422 H 233.866 -3.1525 2.71582 0
M  V30 2423 H 232.742 -4.43487 3.23435 0
M  V30 2424 H 233.003 -4.15126 1.52061 0
M  V30 2425 N 232.062 -1.29571 -0.897171 0
M  V30 2426 C 233.287 -1.20705 -1.68656 0
M  V30 2427 C 233.712 0.228582 -1.86706 0
M  V30 2428 O 233.07 1.16494 -1.3892 0
M  V30 2429 C 233.118 -1.9282 -3.04717 0
M  V30 2430 O 232.222 -1.24697 -3.93096 0
M  V30 2431 H 231.563 -0.418126 -0.515816 0
M  V30 2432 H 234.093 -1.71183 -1.12061 0
M  V30 2433 H 234.103 -2.01372 -3.54843 0
M  V30 2434 H 232.778 -2.97239 -2.90899 0
M  V30 2435 H 231.355 -1.2442 -3.51531 0
M  V30 2436 N 233.54 1.10788 -1.12088 0
M  V30 2437 C 234.817 1.79136 -0.785476 0
M  V30 2438 C 235.197 1.98246 0.725377 0
M  V30 2439 O 234.545 1.57258 1.65778 0
M  V30 2440 C 234.755 3.12375 -1.55636 0
M  V30 2441 C 236.103 3.8731 -1.74001 0
M  V30 2442 O 237.127 3.22085 -1.52117 0
M  V30 2443 O 235.986 5.04369 -2.10415 0
M  V30 2444 H 233.08 0.776226 -0.285311 0
M  V30 2445 H 235.626 1.1747 -1.2247 0
M  V30 2446 H 234.398 2.93863 -2.5838 0
M  V30 2447 H 234.021 3.81758 -1.11114 0
M  V30 2448 N 235.018 0.912232 1.28515 0
M  V30 2449 C 236.243 0.559774 1.99703 0
M  V30 2450 C 236.668 -0.851393 1.67729 0
M  V30 2451 O 236.026 -1.56875 0.908834 0
M  V30 2452 C 236.074 0.773874 3.52198 0
M  V30 2453 O 235.178 -0.167842 4.12058 0
M  V30 2454 H 234.519 0.21723 0.627461 0
M  V30 2455 H 237.049 1.22725 1.63706 0
M  V30 2456 H 237.059 0.683386 4.02236 0
M  V30 2457 H 235.734 1.80261 3.74805 0
M  V30 2458 H 234.311 -0.0287509 3.72889 0
M  V30 2459 N 236.496 -1.42363 0.676048 0
M  V30 2460 C 237.742 -2.0182 0.199125 0
M  V30 2461 C 238.075 -1.53339 -1.19168 0
M  V30 2462 O 237.35 -0.736124 -1.80032 0
M  V30 2463 C 237.633 -3.59331 0.235144 0
M  V30 2464 C 237.486 -4.17989 1.66149 0
M  V30 2465 C 238.805 -4.3813 -0.41595 0
M  V30 2466 H 235.924 -0.733293 0.0738311 0
M  V30 2467 H 238.566 -1.69368 0.86107 0
M  V30 2468 H 236.716 -3.87109 -0.328487 0
M  V30 2469 H 238.388 -4.0116 2.27747 0
M  V30 2470 H 236.631 -3.7377 2.20178 0
M  V30 2471 H 237.302 -5.27126 1.63837 0
M  V30 2472 H 239.778 -4.16051 0.0638529 0
M  V30 2473 H 238.654 -5.47717 -0.360115 0
M  V30 2474 H 238.915 -4.16101 -1.49373 0
M  V30 2475 N 237.974 -0.419461 -1.51915 0
M  V30 2476 C 238.904 0.391813 -2.30189 0
M  V30 2477 C 239.885 1.03699 -1.34836 0
M  V30 2478 O 241.07 1.04403 -1.63748 0
M  V30 2479 C 238.2 1.50312 -3.13087 0
M  V30 2480 C 237.154 0.9824 -4.16573 0
M  V30 2481 C 236.48 2.18809 -4.8788 0
M  V30 2482 C 237.78 0.0292356 -5.22292 0
M  V30 2483 H 239.474 -0.26135 -2.98257 0
M  V30 2484 H 237.02 -0.127134 -1.43438 0
M  V30 2485 H 238.973 2.07773 -3.66617 0
M  V30 2486 H 237.697 2.18431 -2.42807 0
M  V30 2487 H 236.356 0.430119 -3.64068 0
M  V30 2488 H 236.004 2.85507 -4.14119 0
M  V30 2489 H 235.704 1.84615 -5.57845 0
M  V30 2490 H 237.228 2.76858 -5.44226 0
M  V30 2491 H 238.642 0.512976 -5.71 0
M  V30 2492 H 237.039 -0.2244 -5.9968 0
M  V30 2493 H 238.109 -0.912931 -4.76228 0
M  V30 2494 N 239.452 1.56882 -0.150215 0
M  V30 2495 C 240.677 2.01027 0.510184 0
M  V30 2496 C 241.102 1.02966 1.57415 0
M  V30 2497 O 240.46 0.00590158 1.81299 0
M  V30 2498 C 240.508 3.43899 1.08472 0
M  V30 2499 O 239.612 3.4885 2.19948 0
M  V30 2500 H 238.953 0.652233 0.124451 0
M  V30 2501 H 241.483 2.03093 -0.247894 0
M  V30 2502 H 241.493 3.82766 1.41259 0
M  V30 2503 H 240.168 4.14776 0.305582 0
M  V30 2504 H 238.745 3.21827 1.88366 0
M  V30 2505 N 240.93 -0.123565 1.57115 0
M  V30 2506 C 242.178 -0.83051 1.84247 0
M  V30 2507 C 242.499 -1.80629 0.73471 0
M  V30 2508 O 241.769 -1.94403 -0.241688 0
M  V30 2509 H 240.349 -0.309694 0.679778 0
M  V30 2510 H 243.011 -0.111976 1.94578 0
M  V30 2511 H 242.107 -1.37852 2.80006 0
M  V30 2512 N 242.408 -1.52605 -0.393616 0
M  V30 2513 C 243.655 -1.67424 -1.1391 0
M  V30 2514 C 243.983 -0.411859 -1.90089 0
M  V30 2515 O 243.238 0.605626 -1.86093 0
M  V30 2516 C 243.537 -2.85721 -2.14705 0
M  V30 2517 C 243.203 -4.23342 -1.55218 0
M  V30 2518 C 241.865 -4.60771 -1.3872 0
M  V30 2519 C 244.217 -5.09041 -1.11924 0
M  V30 2520 C 241.545 -5.81563 -0.774689 0
M  V30 2521 C 243.897 -6.30452 -0.520853 0
M  V30 2522 C 242.561 -6.66617 -0.343134 0
M  V30 2523 H 241.831 -0.612648 -0.416826 0
M  V30 2524 H 244.478 -1.8674 -0.424315 0
M  V30 2525 H 242.783 -2.60803 -2.92385 0
M  V30 2526 H 244.48 -2.94382 -2.72288 0
M  V30 2527 H 241.07 -3.93855 -1.69045 0
M  V30 2528 H 245.254 -4.80695 -1.23473 0
M  V30 2529 H 240.51 -6.08196 -0.625154 0
M  V30 2530 H 244.684 -6.96175 -0.177065 0
M  V30 2531 H 242.311 -7.60083 0.133571 0
M  V30 2532 N 243.887 0.651787 -1.4349 0
M  V30 2533 C 244.797 1.79368 -1.5121 0
M  V30 2534 C 245.813 1.69361 -0.399093 0
M  V30 2535 O 246.989 1.90505 -0.653431 0
M  V30 2536 C 244.054 3.15653 -1.43401 0
M  V30 2537 C 243.115 3.37446 -2.65384 0
M  V30 2538 C 242.348 4.67229 -2.57939 0
M  V30 2539 O 242.571 5.46676 -1.62792 0
M  V30 2540 O 241.505 4.90773 -3.48462 0
M  V30 2541 H 245.331 1.7581 -2.47638 0
M  V30 2542 H 242.916 0.810447 -1.25507 0
M  V30 2543 H 244.798 3.96935 -1.41494 0
M  V30 2544 H 243.473 3.19798 -0.501085 0
M  V30 2545 H 242.38 2.55923 -2.72863 0
M  V30 2546 H 243.713 3.38148 -3.57654 0
M  V30 2547 N 245.365 1.30045 0.890287 0
M  V30 2548 C 246.297 1.11786 2.00091 0
M  V30 2549 C 247.31 0.0626307 1.62679 0
M  V30 2550 O 248.499 0.308112 1.75821 0
M  V30 2551 C 245.599 0.681527 3.31977 0
M  V30 2552 C 244.772 1.81735 3.97858 0
M  V30 2553 C 243.831 1.37045 5.08041 0
M  V30 2554 O 242.857 2.07677 5.29961 0
M  V30 2555 N 244.059 0.246525 5.79976 0
M  V30 2556 H 246.824 2.07441 2.16306 0
M  V30 2557 H 244.385 1.2211 1.06305 0
M  V30 2558 H 246.377 0.365675 4.03045 0
M  V30 2559 H 244.947 -0.182828 3.12065 0
M  V30 2560 H 244.167 2.30159 3.20032 0
M  V30 2561 H 245.455 2.57865 4.38615 0
M  V30 2562 H 244.853 -0.34215 5.64664 0
M  V30 2563 H 243.41 -0.00990438 6.51799 0
M  V30 2564 N 246.843 -1.10192 1.12674 0
M  V30 2565 C 248.259 -1.34235 0.863317 0
M  V30 2566 C 248.459 -1.95062 -0.505277 0
M  V30 2567 O 247.515 -2.19192 -1.25345 0
M  V30 2568 C 248.828 -2.2616 1.98172 0
M  V30 2569 C 250.376 -2.3969 2.0129 0
M  V30 2570 C 250.851 -3.34946 3.1237 0
M  V30 2571 N 252.342 -3.42515 3.11829 0
M  V30 2572 C 253.077 -4.16199 3.94419 0
M  V30 2573 N 252.573 -4.92747 4.87004 0
M  V30 2574 N 254.366 -4.11843 3.82547 0
M  V30 2575 H 246.517 -0.690798 2.00853 0
M  V30 2576 H 248.78 -0.366774 0.874174 0
M  V30 2577 H 248.486 -1.8868 2.96804 0
M  V30 2578 H 248.36 -3.26488 1.88906 0
M  V30 2579 H 250.747 -2.76438 1.03276 0
M  V30 2580 H 250.828 -1.39169 2.14629 0
M  V30 2581 H 250.472 -2.98923 4.10619 0
M  V30 2582 H 250.402 -4.35353 2.96269 0
M  V30 2583 H 252.893 -2.87926 2.44759 0
M  V30 2584 H 253.206 -5.46376 5.46528 0
M  V30 2585 H 251.551 -4.91862 4.91016 0
M  V30 2586 H 254.742 -3.51136 3.0955 0
M  V30 2587 H 254.915 -4.69007 4.47142 0
M  V30 2588 N 248.321 -0.919034 -1.28029 0
M  V30 2589 C 249.567 -0.555757 -1.95036 0
M  V30 2590 C 249.9 0.899198 -1.72128 0
M  V30 2591 O 249.175 1.64023 -1.04531 0
M  V30 2592 C 249.458 -0.872024 -3.49382 0
M  V30 2593 C 249.311 -2.3801 -3.81669 0
M  V30 2594 C 250.63 -0.37185 -4.38526 0
M  V30 2595 H 247.749 -0.203386 -0.708381 0
M  V30 2596 H 250.391 -1.14924 -1.51303 0
M  V30 2597 H 248.541 -0.366946 -3.86763 0
M  V30 2598 H 250.213 -2.9562 -3.54128 0
M  V30 2599 H 248.456 -2.83289 -3.28526 0
M  V30 2600 H 249.127 -2.55192 -4.8947 0
M  V30 2601 H 251.603 -0.804602 -4.08247 0
M  V30 2602 H 250.479 -0.622173 -5.45362 0
M  V30 2603 H 250.74 0.727934 -4.36066 0
M  V30 2604 N 249.799 1.42003 -0.683588 0
M  V30 2605 C 250.731 2.29183 0.0283068 0
M  V30 2606 C 251.744 1.4415 0.756611 0
M  V30 2607 O 252.933 1.67779 0.609306 0
M  V30 2608 C 250.033 3.21765 1.06398 0
M  V30 2609 C 249.206 4.35496 0.407723 0
M  V30 2610 C 248.265 5.08737 1.34437 0
M  V30 2611 O 247.291 5.62948 0.841318 0
M  V30 2612 N 248.493 5.15075 2.67728 0
M  V30 2613 H 251.258 2.9092 -0.720105 0
M  V30 2614 H 248.819 1.53025 -0.528682 0
M  V30 2615 H 250.811 3.6763 1.69204 0
M  V30 2616 H 249.381 2.61418 1.71404 0
M  V30 2617 H 248.601 3.92165 -0.400012 0
M  V30 2618 H 249.889 5.08776 -0.0490956 0
M  V30 2619 H 249.287 4.72457 3.11129 0
M  V30 2620 H 247.844 5.64556 3.2576 0
M  V30 2621 N 251.277 0.427512 1.51691 0
M  V30 2622 C 252.187 -0.39527 2.31246 0
M  V30 2623 C 253.203 -1.03674 1.39742 0
M  V30 2624 O 254.379 -1.03425 1.72816 0
M  V30 2625 C 251.444 -1.48706 3.13189 0
M  V30 2626 C 250.505 -0.866743 4.20459 0
M  V30 2627 C 249.738 -1.90651 4.98486 0
M  V30 2628 O 249.961 -3.12733 4.77026 0
M  V30 2629 O 248.895 -1.5025 5.82845 0
M  V30 2630 H 252.721 0.253918 3.02637 0
M  V30 2631 H 250.306 0.190274 1.48183 0
M  V30 2632 H 252.188 -2.12047 3.64162 0
M  V30 2633 H 250.863 -2.12051 2.44573 0
M  V30 2634 H 249.77 -0.195544 3.73589 0
M  V30 2635 H 251.103 -0.276934 4.9142 0
M  V30 2636 N 252.755 -1.56801 0.158532 0
M  V30 2637 C 253.718 -2.16138 -0.762705 0
M  V30 2638 C 254.718 -1.1061 -1.16713 0
M  V30 2639 O 255.908 -1.36191 -1.08617 0
M  V30 2640 C 253.04 -2.73386 -2.03649 0
M  V30 2641 H 254.233 -2.98886 -0.246354 0
M  V30 2642 H 251.786 -1.56035 -0.0909744 0
M  V30 2643 H 252.521 -1.94335 -2.59623 0
M  V30 2644 H 252.306 -3.50601 -1.75559 0
M  V30 2645 H 253.796 -3.19065 -2.6942 0
M  V30 2646 N 254.233 0.115231 -1.57178 0
M  V30 2647 C 255.183 1.14707 -1.97044 0
M  V30 2648 C 256.167 1.36866 -0.845957 0
M  V30 2649 O 257.359 1.37895 -1.10968 0
M  V30 2650 C 254.488 2.47266 -2.38148 0
M  V30 2651 C 253.574 2.28566 -3.57237 0
M  V30 2652 N 253.965 1.79685 -4.72807 0
M  V30 2653 C 252.263 2.59208 -3.62943 0
M  V30 2654 C 252.964 1.74781 -5.54821 0
M  V30 2655 N 251.94 2.19264 -4.97417 0
M  V30 2656 H 255.742 0.761754 -2.83857 0
M  V30 2657 H 253.256 0.322928 -1.59157 0
M  V30 2658 H 255.253 3.219 -2.64927 0
M  V30 2659 H 253.913 2.86552 -1.52702 0
M  V30 2660 H 254.924 1.49177 -4.9595 0
M  V30 2661 H 251.601 3.02154 -2.88113 0
M  V30 2662 H 252.991 1.38212 -6.57531 0
M  V30 2663 N 255.711 1.52812 0.385517 0
M  V30 2664 C 256.641 1.80808 1.47752 0
M  V30 2665 C 257.622 0.660318 1.5676 0
M  V30 2666 O 258.807 0.908246 1.71652 0
M  V30 2667 C 255.937 1.98008 2.85324 0
M  V30 2668 C 254.891 3.13709 2.91154 0
M  V30 2669 C 254.217 3.16169 4.31209 0
M  V30 2670 C 255.517 4.52709 2.60483 0
M  V30 2671 H 257.211 2.72253 1.24573 0
M  V30 2672 H 254.757 1.31003 0.597839 0
M  V30 2673 H 256.71 2.16176 3.61726 0
M  V30 2674 H 255.434 1.03255 3.09848 0
M  V30 2675 H 254.093 2.95329 2.17201 0
M  V30 2676 H 253.741 2.19092 4.52778 0
M  V30 2677 H 253.441 3.93894 4.36029 0
M  V30 2678 H 254.965 3.36496 5.09512 0
M  V30 2679 H 256.379 4.71173 3.26602 0
M  V30 2680 H 254.776 5.32528 2.76648 0
M  V30 2681 H 255.846 4.59186 1.55809 0
M  V30 2682 N 257.189 -0.644168 1.43834 0
M  V30 2683 C 258.417 -1.43147 1.49387 0
M  V30 2684 C 258.832 -1.88452 0.114583 0
M  V30 2685 O 258.189 -1.60047 -0.876989 0
M  V30 2686 C 258.24 -2.66046 2.44748 0
M  V30 2687 O 257.961 -2.22633 3.77314 0
M  V30 2688 C 259.462 -3.59311 2.59635 0
M  V30 2689 H 256.682 -0.439447 0.507077 0
M  V30 2690 H 259.226 -0.78895 1.88669 0
M  V30 2691 H 257.381 -3.26418 2.08638 0
M  V30 2692 H 257.795 -3.02216 4.28679 0
M  V30 2693 H 259.269 -4.42187 3.30416 0
M  V30 2694 H 259.746 -4.07259 1.64427 0
M  V30 2695 H 260.352 -3.04816 2.96593 0
M  V30 2696 N 258.668 -1.30515 -0.883378 0
M  V30 2697 C 259.578 -1.18959 -2.02203 0
M  V30 2698 C 260.594 -0.109172 -1.73657 0
M  V30 2699 O 261.77 -0.324413 -1.9877 0
M  V30 2700 C 258.835 -0.883871 -3.35244 0
M  V30 2701 C 257.896 -2.04982 -3.77201 0
M  V30 2702 C 257.129 -1.75859 -5.03894 0
M  V30 2703 O 257.352 -0.687276 -5.66244 0
M  V30 2704 O 256.286 -2.61146 -5.42297 0
M  V30 2705 H 260.112 -2.14616 -2.1488 0
M  V30 2706 H 257.697 -1.10124 -1.0096 0
M  V30 2707 H 259.579 -0.728644 -4.15053 0
M  V30 2708 H 258.254 0.0427798 -3.23672 0
M  V30 2709 H 257.161 -2.26038 -2.9809 0
M  V30 2710 H 258.494 -2.95825 -3.93381 0
M  V30 2711 N 260.146 1.09593 -1.13257 0
M  V30 2712 C 261.423 1.78293 -0.804432 0
M  V30 2713 C 261.803 1.99004 0.70431 0
M  V30 2714 O 261.151 1.59007 1.641 0
M  V30 2715 C 261.361 3.10707 -1.5894 0
M  V30 2716 C 262.709 3.85443 -1.78099 0
M  V30 2717 O 263.733 3.20454 -1.55525 0
M  V30 2718 O 262.592 5.02108 -2.15753 0
M  V30 2719 H 259.686 0.773156 -0.293528 0
M  V30 2720 H 262.232 1.16164 -1.23709 0
M  V30 2721 H 261.004 2.91106 -2.61482 0
M  V30 2722 H 260.627 3.80558 -1.15157 0
M  V30 2723 N 261.624 0.925811 1.2754 0
M  V30 2724 C 262.556 0.380753 2.26015 0
M  V30 2725 C 263.569 -0.487485 1.5533 0
M  V30 2726 O 264.758 -0.300413 1.75954 0
M  V30 2727 C 261.858 -0.473259 3.35579 0
M  V30 2728 C 261.031 0.375249 4.35787 0
M  V30 2729 C 260.09 -0.415809 5.24555 0
M  V30 2730 O 259.116 0.175834 5.68928 0
M  V30 2731 N 260.318 -1.71607 5.54555 0
M  V30 2732 H 263.083 1.22725 2.73421 0
M  V30 2733 H 260.644 0.793037 1.41147 0
M  V30 2734 H 262.636 -1.00949 3.91907 0
M  V30 2735 H 261.206 -1.2205 2.87789 0
M  V30 2736 H 260.426 1.09279 3.7875 0
M  V30 2737 H 261.714 0.955399 4.99749 0
M  V30 2738 H 261.112 -2.2191 5.20358 0
M  V30 2739 H 259.669 -2.19887 6.1359 0
M  V30 2740 N 263.102 -1.41638 0.69111 0
M  V30 2741 C 264.351 -2.00526 0.217318 0
M  V30 2742 C 264.664 -1.55353 -1.18848 0
M  V30 2743 O 265.87 -2.06769 -1.75951 0
M  V30 2744 C 264.326 -3.58313 0.337639 0
M  V30 2745 C 263.934 -4.12469 1.74852 0
M  V30 2746 C 265.678 -4.24431 -0.0766066 0
M  V30 2747 C 263.585 -5.62675 1.82074 0
M  V30 2748 H 262.515 -0.750008 0.0774893 0
M  V30 2749 H 265.166 -1.6217 0.858661 0
M  V30 2750 H 263.548 -3.9425 -0.371879 0
M  V30 2751 H 264.722 -3.8796 2.48644 0
M  V30 2752 H 263.037 -3.58861 2.11205 0
M  V30 2753 H 265.634 -5.34683 -0.0430284 0
M  V30 2754 H 265.977 -4.01101 -1.1146 0
M  V30 2755 H 266.51 -3.93512 0.582476 0
M  V30 2756 H 263.249 -5.90826 2.83911 0
M  V30 2757 H 262.769 -5.89124 1.12661 0
M  V30 2758 H 264.448 -6.27371 1.58159 0
M  V30 2759 N 264.58 -0.43555 -1.51462 0
M  V30 2760 C 265.827 0.131514 -2.02072 0
M  V30 2761 C 266.155 1.42868 -1.31981 0
M  V30 2762 O 265.41 1.91076 -0.422883 0
M  V30 2763 C 265.709 0.39942 -3.55161 0
M  V30 2764 C 265.375 -0.81172 -4.43533 0
M  V30 2765 C 264.037 -1.14387 -4.67407 0
M  V30 2766 C 266.389 -1.61976 -4.95392 0
M  V30 2767 C 263.717 -2.28477 -5.40384 0
M  V30 2768 C 266.069 -2.75164 -5.6962 0
M  V30 2769 C 264.733 -3.08835 -5.91758 0
M  V30 2770 H 264.003 0.0481244 -0.739436 0
M  V30 2771 H 266.65 -0.58238 -1.8243 0
M  V30 2772 H 264.955 1.19519 -3.73125 0
M  V30 2773 H 266.652 0.85157 -3.91854 0
M  V30 2774 H 263.242 -0.542898 -4.25148 0
M  V30 2775 H 267.426 -1.37637 -4.76833 0
M  V30 2776 H 262.682 -2.5488 -5.55739 0
M  V30 2777 H 266.856 -3.38147 -6.08793 0
M  V30 2778 H 264.483 -3.97353 -6.48086 0
M  V30 2779 N 266.058 1.56714 -0.166846 0
M  V30 2780 C 267.288 2.00828 0.48494 0
M  V30 2781 C 267.696 1.04612 1.57648 0
M  V30 2782 O 267.039 0.0383201 1.8366 0
M  V30 2783 C 267.101 3.4137 1.12723 0
M  V30 2784 C 266.765 4.56654 0.177886 0
M  V30 2785 C 267.762 5.16402 -0.60207 0
M  V30 2786 C 265.447 5.02244 0.0750139 0
M  V30 2787 C 267.441 6.20167 -1.47215 0
M  V30 2788 C 265.128 6.05859 -0.798649 0
M  V30 2789 C 266.126 6.64691 -1.57082 0
M  V30 2790 O 265.814 7.66297 -2.42989 0
M  V30 2791 H 265.546 0.663587 0.128953 0
M  V30 2792 H 268.1 2.03692 -0.264365 0
M  V30 2793 H 266.33 3.35406 1.92457 0
M  V30 2794 H 268.019 3.69466 1.68076 0
M  V30 2795 H 268.785 4.82065 -0.53274 0
M  V30 2796 H 264.664 4.56167 0.665812 0
M  V30 2797 H 268.208 6.66016 -2.07531 0
M  V30 2798 H 264.105 6.39621 -0.869199 0
M  V30 2799 H 264.873 7.83601 -2.36455 0
M  V30 2800 N 267.536 -0.106894 1.57237 0
M  V30 2801 C 268.783 -0.812526 1.85484 0
M  V30 2802 C 269.111 -1.79304 0.753687 0
M  V30 2803 O 268.366 -1.94047 -0.253853 0
M  V30 2804 C 268.665 -1.58628 3.20268 0
M  V30 2805 C 268.331 -0.748967 4.44636 0
M  V30 2806 C 266.993 -0.518104 4.78403 0
M  V30 2807 C 269.345 -0.166122 5.20935 0
M  V30 2808 C 266.673 0.305659 5.85903 0
M  V30 2809 C 269.025 0.644899 6.29304 0
M  V30 2810 C 267.689 0.885965 6.61594 0
M  V30 2811 H 266.959 -0.297324 0.678734 0
M  V30 2812 H 269.606 -0.0744332 1.91355 0
M  V30 2813 H 267.911 -2.39562 3.10028 0
M  V30 2814 H 269.608 -2.13643 3.39349 0
M  V30 2815 H 266.198 -0.939006 4.18187 0
M  V30 2816 H 270.382 -0.33167 4.95191 0
M  V30 2817 H 265.638 0.501528 6.0934 0
M  V30 2818 H 269.812 1.10345 6.87602 0
M  V30 2819 H 267.439 1.52609 7.44725 0
M  V30 2820 N 269.014 -1.53014 -0.377408 0
M  V30 2821 C 270.425 -1.60438 -0.954798 0
M  V30 2822 C 270.776 -0.464418 -1.90624 0
M  V30 2823 O 269.901 0.41087 -2.12464 0
M  V30 2824 C 270.496 -2.90797 -1.73847 0
M  V30 2825 C 269.055 -3.00595 -2.26538 0
M  V30 2826 C 268.202 -2.55645 -1.07429 0
M  V30 2827 H 271.153 -1.57926 -0.156575 0
M  V30 2828 H 271.174 -2.77935 -2.5987 0
M  V30 2829 H 270.686 -3.73746 -1.04574 0
M  V30 2830 H 268.787 -2.22208 -2.99089 0
M  V30 2831 H 268.9 -4.05456 -2.5523 0
M  V30 2832 H 267.264 -2.10239 -1.43777 0
M  V30 2833 H 268.047 -3.41 -0.396728 0
M  V30 2834 N 270.492 0.636531 -1.44174 0
M  V30 2835 C 271.439 1.74875 -1.50624 0
M  V30 2836 C 272.409 1.62275 -0.35442 0
M  V30 2837 O 273.594 1.82276 -0.563908 0
M  V30 2838 C 270.734 3.13102 -1.45125 0
M  V30 2839 C 269.847 3.36717 -2.7064 0
M  V30 2840 C 268.982 4.64885 -2.57013 0
M  V30 2841 C 268.021 4.8166 -3.77717 0
M  V30 2842 N 267.158 6.01101 -3.62798 0
M  V30 2843 H 271.998 1.68697 -2.45653 0
M  V30 2844 H 269.535 0.823004 -1.21922 0
M  V30 2845 H 271.493 3.93034 -1.39929 0
M  V30 2846 H 270.123 3.18308 -0.536671 0
M  V30 2847 H 269.175 2.50763 -2.86046 0
M  V30 2848 H 270.487 3.44993 -3.60252 0
M  V30 2849 H 269.641 5.52969 -2.49619 0
M  V30 2850 H 268.38 4.58957 -1.64953 0
M  V30 2851 H 267.385 3.92007 -3.85501 0
M  V30 2852 H 268.61 4.89406 -4.70807 0
M  V30 2853 H 266.556 5.96273 -2.73486 0
M  V30 2854 H 266.473 6.10409 -4.46023 0
M  V30 2855 H 267.741 6.91761 -3.59286 0
M  V30 2856 N 271.97 1.30982 0.876444 0
M  V30 2857 C 273.2 1.23063 1.65949 0
M  V30 2858 C 273.608 -0.207537 1.88058 0
M  V30 2859 O 272.951 -1.14781 1.43426 0
M  V30 2860 C 273.013 1.89768 3.05333 0
M  V30 2861 C 272.677 3.39106 3.0636 0
M  V30 2862 C 273.674 4.3496 2.84791 0
M  V30 2863 C 271.359 3.80693 3.27686 0
M  V30 2864 C 273.353 5.70375 2.84519 0
M  V30 2865 C 271.04 5.16223 3.27043 0
M  V30 2866 C 272.038 6.10875 3.05485 0
M  V30 2867 O 271.726 7.43928 3.04674 0
M  V30 2868 H 271.458 0.426685 0.524324 0
M  V30 2869 H 274.012 1.7329 1.10271 0
M  V30 2870 H 272.242 1.34082 3.6271 0
M  V30 2871 H 273.931 1.75853 3.65829 0
M  V30 2872 H 274.697 4.0416 2.68103 0
M  V30 2873 H 270.576 3.07457 3.43499 0
M  V30 2874 H 274.12 6.44228 2.67611 0
M  V30 2875 H 270.017 5.4666 3.43269 0
M  V30 2876 H 270.785 7.53022 3.2078 0
M  V30 2877 N 273.449 -1.08991 1.13837 0
M  V30 2878 C 274.697 -1.80899 0.901098 0
M  V30 2879 C 275.018 -1.86356 -0.574134 0
M  V30 2880 O 274.288 -1.35235 -1.41733 0
M  V30 2881 H 272.868 -0.669966 0.330386 0
M  V30 2882 H 275.53 -1.318 1.43578 0
M  V30 2883 H 274.626 -2.83929 1.29578 0
M  V30 2884 N 274.927 -0.932562 -1.27047 0
M  V30 2885 C 276.174 -0.575559 -1.94148 0
M  V30 2886 C 276.502 0.883984 -1.73251 0
M  V30 2887 O 275.757 1.64655 -1.0577 0
M  V30 2888 C 276.056 -0.853713 -3.47054 0
M  V30 2889 C 275.722 -2.29577 -3.88079 0
M  V30 2890 C 274.384 -2.68999 -3.9899 0
M  V30 2891 C 276.736 -3.23331 -4.08787 0
M  V30 2892 C 274.064 -4.01289 -4.28 0
M  V30 2893 C 276.416 -4.55207 -4.39282 0
M  V30 2894 C 275.08 -4.94457 -4.48407 0
M  V30 2895 H 274.35 -0.210612 -0.710439 0
M  V30 2896 H 276.997 -1.17744 -1.51025 0
M  V30 2897 H 275.302 -0.169204 -3.91434 0
M  V30 2898 H 276.999 -0.55639 -3.97121 0
M  V30 2899 H 273.589 -1.97994 -3.80127 0
M  V30 2900 H 277.773 -2.94074 -3.99793 0
M  V30 2901 H 273.029 -4.31374 -4.33275 0
M  V30 2902 H 277.203 -5.27852 -4.54252 0
M  V30 2903 H 274.83 -5.96994 -4.7064 0
M  V30 2904 N 276.405 1.4127 -0.698611 0
M  V30 2905 C 277.645 2.03044 -0.235062 0
M  V30 2906 C 278.009 1.54146 1.14468 0
M  V30 2907 O 279.21 2.07867 1.70425 0
M  V30 2908 C 277.481 3.56192 -0.293651 0
M  V30 2909 S 279.04 4.38696 0.0954053 0
M  V30 2910 H 275.858 0.704697 -0.0944648 0
M  V30 2911 H 278.46 1.72656 -0.917064 0
M  V30 2912 H 277.164 3.89274 -1.29977 0
M  V30 2913 H 276.695 3.91285 0.407397 0
M  V30 2914 H 278.71 4.78257 1.3223 0
M  V30 2915 N 277.883 0.443576 1.51229 0
M  V30 2916 C 278.793 -0.370721 2.31652 0
M  V30 2917 C 279.809 -1.02186 1.40833 0
M  V30 2918 O 280.985 -1.01586 1.73903 0
M  V30 2919 C 278.05 -1.45376 3.14749 0
M  V30 2920 C 277.111 -0.822099 4.21355 0
M  V30 2921 C 276.344 -1.85353 5.0048 0
M  V30 2922 O 276.567 -3.07656 4.80316 0
M  V30 2923 O 275.501 -1.4406 5.84406 0
M  V30 2924 H 279.327 0.286002 3.0235 0
M  V30 2925 H 276.912 0.20598 1.47973 0
M  V30 2926 H 278.794 -2.08173 3.66391 0
M  V30 2927 H 277.469 -2.09445 2.46809 0
M  V30 2928 H 276.376 -0.155909 3.73775 0
M  V30 2929 H 277.709 -0.224797 4.91686 0
M  V30 2930 N 279.361 -1.56624 0.175154 0
M  V30 2931 C 280.324 -2.16934 -0.739738 0
M  V30 2932 C 281.324 -1.11842 -1.15533 0
M  V30 2933 O 282.514 -1.37335 -1.07167 0
M  V30 2934 C 279.646 -2.75531 -2.00738 0
M  V30 2935 H 280.839 -2.99131 -0.214639 0
M  V30 2936 H 278.392 -1.56123 -0.0744197 0
M  V30 2937 H 279.127 -1.97078 -2.57548 0
M  V30 2938 H 278.912 -3.52444 -1.71831 0
M  V30 2939 H 280.402 -3.21904 -2.66021 0
M  V30 2940 N 280.839 0.0985539 -1.57292 0
M  V30 2941 C 281.802 1.10402 -2.00858 0
M  V30 2942 C 282.802 1.33146 -0.901593 0
M  V30 2943 O 283.992 1.29318 -1.16716 0
M  V30 2944 C 281.124 2.45394 -2.36632 0
M  V30 2945 H 282.317 0.729099 -2.90902 0
M  V30 2946 H 279.87 0.343495 -1.52479 0
M  V30 2947 H 280.605 2.87769 -1.49531 0
M  V30 2948 H 280.39 2.30235 -3.17387 0
M  V30 2949 H 281.88 3.17718 -2.71007 0
M  V30 2950 N 282.317 1.53212 0.369288 0
M  V30 2951 C 283.594 1.59815 1.12776 0
M  V30 2952 C 283.974 0.403402 2.0721 0
M  V30 2953 O 283.322 -0.606667 2.20299 0
M  V30 2954 C 283.532 2.94664 1.87013 0
M  V30 2955 C 284.88 3.49109 2.41677 0
M  V30 2956 O 285.904 2.96669 1.97144 0
M  V30 2957 O 284.763 4.40775 3.23079 0
M  V30 2958 H 281.857 0.645376 0.517125 0
M  V30 2959 H 284.403 1.65553 0.37285 0
M  V30 2960 H 283.175 3.73061 1.18071 0
M  V30 2961 H 282.798 2.92401 2.69421 0
M  V30 2962 N 283.795 -0.628877 1.44509 0
M  V30 2963 C 284.727 -1.754 1.47538 0
M  V30 2964 C 285.74 -1.58575 0.368506 0
M  V30 2965 O 286.929 -1.66847 0.634376 0
M  V30 2966 C 284.029 -3.1315 1.29577 0
M  V30 2967 C 283.202 -3.56413 2.53551 0
M  V30 2968 C 282.261 -4.7305 2.30457 0
M  V30 2969 O 281.287 -4.81247 3.03957 0
M  V30 2970 N 282.489 -5.64903 1.3366 0
M  V30 2971 H 285.254 -1.73272 2.44534 0
M  V30 2972 H 282.815 -0.813512 1.39977 0
M  V30 2973 H 284.807 -3.88902 1.11971 0
M  V30 2974 H 283.377 -3.09908 0.409371 0
M  V30 2975 H 282.597 -2.70847 2.86419 0
M  V30 2976 H 283.885 -3.82071 3.36005 0
M  V30 2977 H 283.283 -5.60975 0.729604 0
M  V30 2978 H 281.84 -6.40275 1.22032 0
M  V30 2979 N 285.273 -1.31445 -0.869486 0
M  V30 2980 C 286.52 -1.21158 -1.62256 0
M  V30 2981 C 286.848 0.230155 -1.93133 0
M  V30 2982 O 286.103 1.17906 -1.56194 0
M  V30 2983 C 286.402 -2.00145 -2.96102 0
M  V30 2984 C 286.068 -3.4964 -2.84715 0
M  V30 2985 C 284.73 -3.90403 -2.81317 0
M  V30 2986 C 287.082 -4.44769 -2.71716 0
M  V30 2987 C 284.41 -5.24561 -2.62778 0
M  V30 2988 C 286.762 -5.79054 -2.54714 0
M  V30 2989 C 285.426 -6.19037 -2.49699 0
M  V30 2990 H 284.696 -0.443348 -0.593737 0
M  V30 2991 H 287.343 -1.62715 -1.00976 0
M  V30 2992 H 285.648 -1.5127 -3.6142 0
M  V30 2993 H 287.345 -1.89566 -3.53363 0
M  V30 2994 H 283.935 -3.17256 -2.88178 0
M  V30 2995 H 288.119 -4.14208 -2.73397 0
M  V30 2996 H 283.375 -5.54613 -2.57321 0
M  V30 2997 H 287.549 -6.52393 -2.43632 0
M  V30 2998 H 285.176 -7.22935 -2.35093 0
M  V30 2999 N 286.751 1.08385 -1.14413 0
M  V30 3000 C 287.701 2.13509 -0.79987 0
M  V30 3001 C 288.685 1.5951 0.211059 0
M  V30 3002 O 289.877 1.76995 0.0133694 0
M  V30 3003 C 287.006 3.42162 -0.279297 0
M  V30 3004 C 286.092 4.03042 -1.31976 0
M  V30 3005 N 286.483 4.38327 -2.52395 0
M  V30 3006 C 284.781 4.30379 -1.17004 0
M  V30 3007 C 285.482 4.86428 -3.19003 0
M  V30 3008 N 284.458 4.84547 -2.46405 0
M  V30 3009 H 288.26 2.38609 -1.7159 0
M  V30 3010 H 285.774 1.2572 -1.02802 0
M  V30 3011 H 287.771 4.16898 -0.0143688 0
M  V30 3012 H 286.431 3.18511 0.630923 0
M  V30 3013 H 287.442 4.29349 -2.89621 0
M  V30 3014 H 284.119 4.16281 -0.318854 0
M  V30 3015 H 285.509 5.23107 -4.21674 0
M  V30 3016 N 288.23 0.939286 1.26551 0
M  V30 3017 C 289.476 0.586715 1.94128 0
M  V30 3018 C 289.809 -0.8717 1.73537 0
M  V30 3019 O 289.084 -1.62339 1.07127 0
M  V30 3020 C 289.367 0.927497 3.4795 0
M  V30 3021 C 289.22 2.44052 3.77834 0
M  V30 3022 C 290.539 0.441569 4.37879 0
M  V30 3023 H 287.658 0.21463 0.705055 0
M  V30 3024 H 290.3 1.17316 1.49455 0
M  V30 3025 H 288.45 0.428431 3.8613 0
M  V30 3026 H 290.122 3.01216 3.4938 0
M  V30 3027 H 288.365 2.8848 3.23978 0
M  V30 3028 H 289.036 2.62947 4.85348 0
M  V30 3029 H 291.512 0.869448 4.06915 0
M  V30 3030 H 290.388 0.708856 5.44304 0
M  V30 3031 H 290.649 -0.658467 4.37169 0
M  V30 3032 N 289.708 -1.40897 0.706093 0
M  V30 3033 C 290.638 -2.33418 0.0620085 0
M  V30 3034 C 291.619 -1.52385 -0.755827 0
M  V30 3035 O 292.804 -1.80886 -0.706674 0
M  V30 3036 C 289.934 -3.36293 -0.867445 0
M  V30 3037 C 288.888 -4.27716 -0.155932 0
M  V30 3038 C 288.214 -5.2105 -1.20046 0
M  V30 3039 C 289.514 -5.12944 0.984149 0
M  V30 3040 H 291.208 -2.87527 0.83477 0
M  V30 3041 H 288.754 -1.38249 0.402875 0
M  V30 3042 H 290.707 -3.99949 -1.32735 0
M  V30 3043 H 289.431 -2.80556 -1.67199 0
M  V30 3044 H 288.09 -3.65498 0.284047 0
M  V30 3045 H 287.738 -4.61624 -1.99781 0
M  V30 3046 H 287.438 -5.83056 -0.729328 0
M  V30 3047 H 288.962 -5.87584 -1.66066 0
M  V30 3048 H 290.376 -5.70109 0.604048 0
M  V30 3049 H 288.773 -5.83945 1.38304 0
M  V30 3050 H 289.843 -4.49485 1.81911 0
M  V30 3051 N 291.186 -0.45159 -1.50991 0
M  V30 3052 C 292.463 0.170707 -1.94854 0
M  V30 3053 C 292.843 1.58788 -1.39103 0
M  V30 3054 O 292.191 2.20913 -0.583921 0
M  V30 3055 C 292.401 0.133929 -3.48743 0
M  V30 3056 C 293.749 0.33248 -4.23296 0
M  V30 3057 O 294.773 0.211403 -3.55572 0
M  V30 3058 O 293.632 0.57486 -5.43468 0
M  V30 3059 H 290.726 0.122264 -0.817912 0
M  V30 3060 H 293.272 -0.510594 -1.61836 0
M  V30 3061 H 292.044 -0.856283 -3.81816 0
M  V30 3062 H 291.667 0.857529 -3.88242 0
M  V30 3063 N 292.664 1.56529 -0.183458 0
M  V30 3064 C 293.574 2.22144 0.754272 0
M  V30 3065 C 294.59 1.21684 1.24374 0
M  V30 3066 O 295.766 1.54385 1.29333 0
M  V30 3067 C 292.831 2.85884 1.96141 0
M  V30 3068 C 291.892 4.01579 1.51765 0
M  V30 3069 C 291.125 4.6227 2.66725 0
M  V30 3070 O 291.348 4.21865 3.83909 0
M  V30 3071 O 290.282 5.51936 2.40104 0
M  V30 3072 H 294.108 3.02861 0.225527 0
M  V30 3073 H 291.693 1.49331 0.0453032 0
M  V30 3074 H 293.575 3.26253 2.66715 0
M  V30 3075 H 292.25 2.08154 2.47899 0
M  V30 3076 H 291.157 3.65856 0.781049 0
M  V30 3077 H 292.49 4.80938 1.04686 0
M  V30 3078 N 294.142 -0.090211 1.57342 0
M  V30 3079 C 295.388 -0.793982 1.86611 0
M  V30 3080 C 295.721 -1.78142 0.773252 0
M  V30 3081 O 294.996 -1.93271 -0.218304 0
M  V30 3082 C 295.279 -1.51839 3.26523 0
M  V30 3083 C 295.132 -0.548609 4.46442 0
M  V30 3084 C 296.451 -2.46779 3.64401 0
M  V30 3085 H 293.57 -0.287186 0.678744 0
M  V30 3086 H 296.212 -0.0575076 1.89913 0
M  V30 3087 H 294.362 -2.14617 3.23839 0
M  V30 3088 H 296.034 0.0725513 4.61243 0
M  V30 3089 H 294.277 0.137614 4.33582 0
M  V30 3090 H 294.948 -1.09271 5.41076 0
M  V30 3091 H 297.424 -1.94089 3.68061 0
M  V30 3092 H 296.3 -2.94479 4.63221 0
M  V30 3093 H 296.561 -3.30758 2.93346 0
M  V30 3094 N 295.62 -1.53406 -0.361157 0
M  V30 3095 C 297.036 -1.43277 -0.703124 0
M  V30 3096 C 297.236 -0.575384 -1.9311 0
M  V30 3097 O 296.292 -0.0595362 -2.5243 0
M  V30 3098 C 297.605 -2.8653 -0.9122 0
M  V30 3099 C 299.153 -2.96191 -1.01193 0
M  V30 3100 C 299.628 -4.40514 -1.25345 0
M  V30 3101 N 301.119 -4.43962 -1.32105 0
M  V30 3102 C 301.854 -5.52746 -1.5251 0
M  V30 3103 N 301.35 -6.71567 -1.70203 0
M  V30 3104 N 303.143 -5.40331 -1.54916 0
M  V30 3105 H 295.294 -2.07654 0.446475 0
M  V30 3106 H 297.557 -0.937944 0.137715 0
M  V30 3107 H 297.263 -3.51605 -0.0816414 0
M  V30 3108 H 297.137 -3.30441 -1.81903 0
M  V30 3109 H 299.524 -2.31266 -1.83303 0
M  V30 3110 H 299.605 -2.55667 -0.0823929 0
M  V30 3111 H 299.249 -5.06014 -0.437346 0
M  V30 3112 H 299.179 -4.78614 -2.19627 0
M  V30 3113 H 301.67 -3.58332 -1.20028 0
M  V30 3114 H 301.983 -7.50241 -1.85359 0
M  V30 3115 H 300.328 -6.74545 -1.67373 0
M  V30 3116 H 303.519 -4.46465 -1.40663 0
M  V30 3117 H 303.692 -6.25173 -1.70477 0
M  V30 3118 N 297.098 0.621204 -1.44841 0
M  V30 3119 C 298.514 0.94048 -1.28946 0
M  V30 3120 C 298.714 2.00154 -0.23249 0
M  V30 3121 O 297.77 2.49651 0.378237 0
M  V30 3122 C 299.083 1.39433 -2.66419 0
M  V30 3123 C 300.631 1.50927 -2.74208 0
M  V30 3124 C 301.106 1.99692 -4.12174 0
M  V30 3125 N 302.597 2.06947 -4.144 0
M  V30 3126 C 303.332 2.45871 -5.1801 0
M  V30 3127 N 302.828 2.83862 -6.31977 0
M  V30 3128 N 304.621 2.46092 -5.05366 0
M  V30 3129 H 296.772 -0.0803548 -2.12248 0
M  V30 3130 H 299.035 0.0266913 -0.947624 0
M  V30 3131 H 298.741 0.688925 -3.44887 0
M  V30 3132 H 298.615 2.36347 -2.93973 0
M  V30 3133 H 301.002 2.20561 -1.96053 0
M  V30 3134 H 301.083 0.523627 -2.50383 0
M  V30 3135 H 300.727 1.30649 -4.90809 0
M  V30 3136 H 300.657 2.99146 -4.33381 0
M  V30 3137 H 303.148 1.80232 -3.32152 0
M  V30 3138 H 303.461 3.12405 -7.0684 0
M  V30 3139 H 301.806 2.8159 -6.35399 0
M  V30 3140 H 304.997 2.1581 -4.15384 0
M  V30 3141 H 305.17 2.76102 -5.86235 0
M  V30 3142 O 298.615 1.4224 0.764848 0
M  V30 3143 H 299.306 1.32519 1.41274 0
M  V30 END ATOM
M  V30 BEGIN BOND
M  V30 END BOND
M  V30 END CTAB
M  END
$$$$
