drugbank_target|Q06203 Amidophosphoribosyltransferase (DB00130; DB01033; DB01254)
 OpenBabel12092119303D

  0  0  0     0  0            999 V3000
M  V30 BEGIN CTAB
M  V30 COUNTS 8085 8167 0 0 0
M  V30 BEGIN ATOM
M  V30 1 H -0.908 1.98254 -0.117106 0
M  V30 2 N 0 1.576 0 0
M  V30 3 C 0.933 2.03868 1.02534 0
M  V30 4 C 1.911 0.928543 1.3348 0
M  V30 5 O 3.095 1.19667 1.45644 0
M  V30 6 C 0.222 2.43627 2.35294 0
M  V30 7 C -0.732 3.65373 2.2001 0
M  V30 8 S 0.101 5.13292 1.52614 0
M  V30 9 C 1.257 5.56322 2.86805 0
M  V30 10 H 1.49 2.90518 0.631377 0
M  V30 11 H -0.977 1.52953 0.210867 0
M  V30 12 H 0.981 2.67203 3.11629 0
M  V30 13 H -0.358 1.57376 2.7183 0
M  V30 14 H -1.165 3.90944 3.18086 0
M  V30 15 H -1.563 3.418 1.51819 0
M  V30 16 H 0.729 5.58782 3.83104 0
M  V30 17 H 1.672 6.56266 2.65933 0
M  V30 18 H 2.08 4.83886 2.90714 0
M  V30 19 N 1.4781 -0.272755 1.55222 0
M  V30 20 C 2.3881 -1.35918 1.91216 0
M  V30 21 C 3.4041 -1.54026 0.809436 0
M  V30 22 O 4.5801 -1.68148 1.10852 0
M  V30 23 C 1.6451 -2.69834 2.17693 0
M  V30 24 C 0.7061 -2.6047 3.41253 0
M  V30 25 C -0.0609 -3.88 3.66458 0
M  V30 26 O 0.1621 -4.88693 2.94169 0
M  V30 27 O -0.9039 -3.88189 4.59992 0
M  V30 28 H 2.9221 -1.0839 2.83699 0
M  V30 29 H 0.5071 -0.471301 1.41771 0
M  V30 30 H 2.3891 -3.49017 2.36147 0
M  V30 31 H 1.0641 -2.97148 1.28392 0
M  V30 32 H -0.0289 -1.79663 3.28134 0
M  V30 33 H 1.3041 -2.38106 4.30774 0
M  V30 34 N 2.9562 -1.48159 -0.537278 0
M  V30 35 C 3.8862 -1.65029 -1.6519 0
M  V30 36 C 4.8672 -0.499281 -1.62607 0
M  V30 37 O 6.0522 -0.730972 -1.79918 0
M  V30 38 C 3.1822 -1.68303 -3.03795 0
M  V30 39 C 2.1362 -2.8283 -3.21234 0
M  V30 40 C 1.4622 -2.71189 -4.60826 0
M  V30 41 C 2.7622 -4.24211 -3.04701 0
M  V30 42 H 4.4562 -2.58341 -1.51328 0
M  V30 43 H 2.0022 -1.24325 -0.726585 0
M  V30 44 H 3.9552 -1.78693 -3.81637 0
M  V30 45 H 2.6792 -0.715635 -3.18663 0
M  V30 46 H 1.3382 -2.71983 -2.45807 0
M  V30 47 H 0.9862 -1.72435 -4.7252 0
M  V30 48 H 0.6862 -3.48035 -4.7344 0
M  V30 49 H 2.2102 -2.83537 -5.40777 0
M  V30 50 H 3.6242 -4.3593 -3.72341 0
M  V30 51 H 2.0212 -5.01998 -3.28813 0
M  V30 52 H 3.0912 -4.41184 -2.01209 0
M  V30 53 N 4.4343 0.785586 -1.36625 0
M  V30 54 C 5.3443 1.92964 -1.33425 0
M  V30 55 C 6.3603 1.72394 -0.235851 0
M  V30 56 O 7.5363 1.95866 -0.468878 0
M  V30 57 C 4.6013 3.27884 -1.12662 0
M  V30 58 C 3.6623 3.61204 -2.32013 0
M  V30 59 C 2.8953 4.89687 -2.12231 0
M  V30 60 O 3.1183 5.59704 -1.09945 0
M  V30 61 O 2.0523 5.21752 -3.00098 0
M  V30 62 H 5.8783 1.98613 -2.29753 0
M  V30 63 H 3.4633 0.926384 -1.17211 0
M  V30 64 H 5.3453 4.08614 -1.03016 0
M  V30 65 H 4.0203 3.23118 -0.193991 0
M  V30 66 H 2.9273 2.80765 -2.47228 0
M  V30 67 H 4.2603 3.70698 -3.23796 0
M  V30 68 N 5.9124 1.20967 1.01018 0
M  V30 69 C 6.8224 0.980157 2.13143 0
M  V30 70 C 7.8384 -0.0660665 1.73875 0
M  V30 71 O 9.0144 0.122821 2.01025 0
M  V30 72 C 6.0794 0.54216 3.42435 0
M  V30 73 C 5.1404 1.65999 3.95908 0
M  V30 74 C 4.3734 1.2428 5.19028 0
M  V30 75 O 4.5964 0.114196 5.70286 0
M  V30 76 O 3.5304 2.05271 5.65816 0
M  V30 77 H 7.3564 1.91913 2.35379 0
M  V30 78 H 4.9414 0.994099 1.11526 0
M  V30 79 H 6.8234 0.30744 4.20277 0
M  V30 80 H 5.4984 -0.36815 3.216 0
M  V30 81 H 4.4054 1.94906 3.19316 0
M  V30 82 H 5.7384 2.54753 4.21143 0
M  V30 83 N 7.3905 -1.2043 1.01659 0
M  V30 84 C 8.3205 -2.25466 0.607226 0
M  V30 85 C 9.3015 -1.65853 -0.377716 0
M  V30 86 O 10.4865 -1.92409 -0.263149 0
M  V30 87 C 7.6165 -3.47256 -0.0552949 0
M  V30 88 C 6.5705 -4.19462 0.850632 0
M  V30 89 C 5.8965 -5.34673 0.0538859 0
M  V30 90 C 7.1965 -4.75603 2.15868 0
M  V30 91 H 8.8905 -2.59962 1.48526 0
M  V30 92 H 6.4365 -1.2496 0.715605 0
M  V30 93 H 8.3895 -4.19917 -0.353233 0
M  V30 94 H 7.1135 -3.11924 -0.968045 0
M  V30 95 H 5.7725 -3.48667 1.13257 0
M  V30 96 H 5.4205 -4.95585 -0.860514 0
M  V30 97 H 5.1205 -5.83913 0.657192 0
M  V30 98 H 6.6445 -6.10138 -0.237598 0
M  V30 99 H 8.0585 -5.40083 1.92311 0
M  V30 100 H 6.4555 -5.3528 2.71284 0
M  V30 101 H 7.5255 -3.94346 2.82169 0
M  V30 102 N 8.8686 -0.792821 -1.36206 0
M  V30 103 C 10.1166 -0.366062 -1.98757 0
M  V30 104 C 10.4376 1.0668 -1.63231 0
M  V30 105 O 9.7076 1.73587 -0.907978 0
M  V30 106 H 8.2876 -0.132364 -0.735179 0
M  V30 107 H 10.9496 -1.01562 -1.66347 0
M  V30 108 H 10.0456 -0.460638 -3.08682 0
M  V30 109 N 10.3467 1.47872 -0.545128 0
M  V30 110 C 11.5957 2.01695 -0.0145033 0
M  V30 111 C 11.9087 1.42609 1.33873 0
M  V30 112 O 13.1147 1.88021 1.95858 0
M  V30 113 C 11.5707 3.59892 0.0245068 0
M  V30 114 C 11.1787 4.27966 -1.32475 0
M  V30 115 C 12.9227 4.21507 0.50316 0
M  V30 116 C 10.8297 5.78136 -1.2455 0
M  V30 117 H 9.7597 0.753998 -0.00165172 0
M  V30 118 H 12.4107 1.69985 -0.691175 0
M  V30 119 H 10.7927 3.88509 0.766575 0
M  V30 120 H 11.9667 4.11003 -2.08357 0
M  V30 121 H 10.2817 3.78286 -1.74036 0
M  V30 122 H 12.8787 5.31538 0.580656 0
M  V30 123 H 13.2217 3.87855 1.51243 0
M  V30 124 H 13.7547 3.97376 -0.183681 0
M  V30 125 H 10.4937 6.16388 -2.23039 0
M  V30 126 H 10.0137 5.97469 -0.528282 0
M  V30 127 H 11.6927 6.40099 -0.942488 0
M  V30 128 N 11.8248 0.280983 1.55075 0
M  V30 129 C 13.2408 -0.0729964 1.59433 0
M  V30 130 C 13.4408 -1.5411 1.29817 0
M  V30 131 O 12.4968 -2.29086 1.06187 0
M  V30 132 C 13.8098 0.306921 2.9913 0
M  V30 133 C 15.3578 0.254023 3.11968 0
M  V30 134 C 15.8328 0.608467 4.5394 0
M  V30 135 N 17.3238 0.560241 4.59799 0
M  V30 136 C 18.0588 0.80722 5.6769 0
M  V30 137 N 17.5548 1.11912 6.83701 0
M  V30 138 N 19.3478 0.735623 5.57266 0
M  V30 139 H 11.4988 1.238 1.7259 0
M  V30 140 H 13.7618 0.500547 0.805082 0
M  V30 141 H 13.4678 1.32816 3.25657 0
M  V30 142 H 13.3418 -0.349363 3.75579 0
M  V30 143 H 15.7288 -0.75794 2.852 0
M  V30 144 H 15.8098 0.944649 2.37718 0
M  V30 145 H 15.4538 1.61814 4.81434 0
M  V30 146 H 15.3838 -0.104013 5.26497 0
M  V30 147 H 17.8748 0.329288 3.76463 0
M  V30 148 H 18.1878 1.29409 7.61888 0
M  V30 149 H 16.5328 1.15695 6.85303 0
M  V30 150 H 19.7238 0.491752 4.6551 0
M  V30 151 H 19.8968 0.931482 6.4127 0
M  V30 152 N 13.3029 -1.57598 0.00835791 0
M  V30 153 C 14.2129 -2.12385 -0.996487 0
M  V30 154 C 15.2289 -1.07108 -1.37127 0
M  V30 155 O 16.4049 -1.39055 -1.4569 0
M  V30 156 C 13.4699 -2.62314 -2.26699 0
M  V30 157 C 12.5309 -3.82225 -1.95456 0
M  V30 158 C 11.7639 -4.29763 -3.16449 0
M  V30 159 O 11.9869 -3.76584 -4.28416 0
M  V30 160 O 10.9209 -5.21832 -2.99958 0
M  V30 161 H 14.7469 -2.98479 -0.560725 0
M  V30 162 H 12.3319 -1.47903 -0.210987 0
M  V30 163 H 14.2139 -2.94589 -3.01322 0
M  V30 164 H 12.8889 -1.79313 -2.69497 0
M  V30 165 H 11.7959 -3.54909 -1.18282 0
M  V30 166 H 13.1289 -4.66324 -1.57489 0
M  V30 167 N 14.781 0.264519 -1.55364 0
M  V30 168 C 15.691 1.34902 -1.91934 0
M  V30 169 C 16.707 1.53595 -0.817593 0
M  V30 170 O 17.883 1.67558 -1.11742 0
M  V30 171 C 14.948 2.68676 -2.19121 0
M  V30 172 C 14.009 2.58657 -3.4263 0
M  V30 173 C 13.242 3.86051 -3.68511 0
M  V30 174 O 13.465 4.87126 -2.96757 0
M  V30 175 O 12.399 3.85744 -4.62045 0
M  V30 176 H 16.225 1.06883 -2.8427 0
M  V30 177 H 13.81 0.463775 -1.42019 0
M  V30 178 H 15.692 3.47759 -2.37995 0
M  V30 179 H 14.367 2.96463 -1.29966 0
M  V30 180 H 13.274 1.7792 -3.29082 0
M  V30 181 H 14.607 2.35818 -4.32031 0
M  V30 182 N 16.2591 1.48442 0.529413 0
M  V30 183 C 17.4991 1.58086 1.29569 0
M  V30 184 C 17.8631 0.249302 1.90375 0
M  V30 185 O 19.0641 0.220738 2.67892 0
M  V30 186 C 17.3351 2.68793 2.35552 0
M  V30 187 S 18.8941 2.98207 3.21898 0
M  V30 188 H 15.7121 0.557922 0.440732 0
M  V30 189 H 18.3141 1.85966 0.603059 0
M  V30 190 H 17.0181 3.64102 1.89363 0
M  V30 191 H 16.5491 2.42817 3.09522 0
M  V30 192 H 18.5641 2.37548 4.35644 0
M  V30 193 N 17.7372 -0.778329 1.37039 0
M  V30 194 C 18.9852 -1.53361 1.31623 0
M  V30 195 C 19.3062 -1.94739 -0.100831 0
M  V30 196 O 18.5762 -1.65797 -1.04347 0
M  V30 197 H 17.1562 -0.568794 0.484234 0
M  V30 198 H 19.8182 -0.926742 1.71457 0
M  V30 199 H 18.9142 -2.43606 1.95096 0
M  V30 200 N 19.2153 -1.21501 -1.00376 0
M  V30 201 C 20.4613 -1.03452 -1.74429 0
M  V30 202 C 20.7943 0.430764 -1.89362 0
M  V30 203 O 20.0693 1.31962 -1.42886 0
M  V30 204 C 20.3523 -1.73375 -3.15615 0
M  V30 205 C 20.2053 -3.27431 -3.08397 0
M  V30 206 C 21.5243 -1.47732 -4.14564 0
M  V30 207 H 18.6433 -0.377226 -0.633143 0
M  V30 208 H 21.2853 -1.49693 -1.17013 0
M  V30 209 H 19.4353 -1.34064 -3.64636 0
M  V30 210 H 21.1073 -3.76119 -2.67081 0
M  V30 211 H 19.3503 -3.5767 -2.45468 0
M  V30 212 H 20.0213 -3.71524 -4.08258 0
M  V30 213 H 22.4973 -1.8186 -3.74254 0
M  V30 214 H 21.3733 -1.99169 -5.11491 0
M  V30 215 H 21.6343 -0.407589 -4.40217 0
M  V30 216 N 20.6934 1.19889 -1.02296 0
M  V30 217 C 21.9404 1.8942 -0.715972 0
M  V30 218 C 22.2684 1.79251 0.754944 0
M  V30 219 O 21.5234 1.17526 1.56481 0
M  V30 220 C 21.8224 3.39883 -1.10518 0
M  V30 221 C 21.4884 3.70254 -2.57337 0
M  V30 222 C 20.1504 3.78254 -2.97452 0
M  V30 223 C 22.5024 3.84052 -3.52354 0
M  V30 224 C 19.8304 3.97514 -4.31509 0
M  V30 225 C 22.1824 4.04824 -4.86108 0
M  V30 226 C 20.8464 4.11054 -5.25919 0
M  V30 227 H 20.1164 0.693138 -0.261993 0
M  V30 228 H 22.7634 1.42012 -1.28472 0
M  V30 229 H 21.0684 3.8915 -0.454953 0
M  V30 230 H 22.7654 3.9199 -0.845261 0
M  V30 231 H 19.3554 3.64632 -2.25258 0
M  V30 232 H 23.5394 3.77221 -3.22518 0
M  V30 233 H 18.7954 4.00574 -4.61898 0
M  V30 234 H 22.9694 4.14442 -5.59653 0
M  V30 235 H 20.5964 4.2573 -6.29808 0
M  V30 236 N 22.1715 0.800033 1.35784 0
M  V30 237 C 23.4195 0.376597 1.9856 0
M  V30 238 C 23.7405 -1.05812 1.63795 0
M  V30 239 O 23.0105 -1.73103 0.917171 0
M  V30 240 H 21.5905 0.136261 0.734467 0
M  V30 241 H 24.2525 1.02442 1.65806 0
M  V30 242 H 23.3485 0.477002 3.08433 0
M  V30 243 N 23.6496 -1.47581 0.552962 0
M  V30 244 C 24.8896 -2.04379 0.0296245 0
M  V30 245 C 25.2536 -1.4185 -1.29393 0
M  V30 246 O 26.4546 -1.89669 -1.90471 0
M  V30 247 C 24.7256 -3.57339 -0.0661371 0
M  V30 248 S 26.2846 -4.35511 -0.536213 0
M  V30 249 H 23.1026 -0.710625 0.0230991 0
M  V30 250 H 25.7046 -1.81005 0.738734 0
M  V30 251 H 24.4086 -4.00374 0.901596 0
M  V30 252 H 23.9396 -3.85202 -0.798931 0
M  V30 253 H 25.9546 -4.6253 -1.79668 0
M  V30 254 N 25.1277 -0.289203 -1.54924 0
M  V30 255 C 26.3767 0.324231 -1.99077 0
M  V30 256 C 26.6897 1.5591 -1.18117 0
M  V30 257 O 27.8957 2.24637 -1.52481 0
M  V30 258 C 26.3517 0.628209 -3.54375 0
M  V30 259 C 25.9597 -0.587647 -4.44129 0
M  V30 260 C 27.7037 1.20349 -4.07083 0
M  V30 261 C 25.6107 -0.257475 -5.90839 0
M  V30 262 H 24.5407 0.124924 -0.743579 0
M  V30 263 H 27.1917 -0.396063 -1.79175 0
M  V30 264 H 25.5737 1.40778 -3.70132 0
M  V30 265 H 26.7477 -1.36418 -4.40144 0
M  V30 266 H 25.0627 -1.08074 -4.0213 0
M  V30 267 H 27.6597 1.46456 -5.14252 0
M  V30 268 H 28.0027 2.14195 -3.56968 0
M  V30 269 H 28.5357 0.485889 -3.94821 0
M  V30 270 H 25.2747 -1.16419 -6.45079 0
M  V30 271 H 24.7947 0.482018 -5.9786 0
M  V30 272 H 26.4737 0.145238 -6.46837 0
M  V30 273 N 26.6058 1.57591 -0.0167156 0
M  V30 274 C 27.5688 2.08393 0.954204 0
M  V30 275 C 28.5688 0.996531 1.26198 0
M  V30 276 O 29.7588 1.25858 1.20438 0
M  V30 277 C 26.8908 2.5394 2.27436 0
M  V30 278 H 28.0838 2.95455 0.514451 0
M  V30 279 H 25.6368 1.54582 0.231089 0
M  V30 280 H 26.3718 1.70171 2.76066 0
M  V30 281 H 26.1568 3.33371 2.06412 0
M  V30 282 H 27.6468 2.93512 2.97053 0
M  V30 283 N 28.0839 -0.256276 1.55502 0
M  V30 284 C 29.3089 -1.00766 1.81276 0
M  V30 285 C 29.7339 -1.78524 0.59252 0
M  V30 286 O 29.0919 -1.75413 -0.45827 0
M  V30 287 C 29.1399 -1.92869 3.04687 0
M  V30 288 O 28.2439 -3.019 2.80945 0
M  V30 289 H 27.5849 -0.287224 0.598664 0
M  V30 290 H 30.1149 -0.280109 2.02674 0
M  V30 291 H 30.1249 -2.34511 3.33869 0
M  V30 292 H 28.7999 -1.35689 3.93143 0
M  V30 293 H 27.3769 -2.64454 2.62904 0
M  V30 294 N 29.562 -1.4872 -0.521534 0
M  V30 295 C 30.81 -1.56857 -1.27437 0
M  V30 296 C 31.131 -0.247982 -1.93417 0
M  V30 297 O 30.401 0.731151 -1.81744 0
M  V30 298 H 28.981 -0.577885 -0.473347 0
M  V30 299 H 31.643 -1.85233 -0.606205 0
M  V30 300 H 30.739 -2.35402 -2.0492 0
M  V30 301 N 31.0401 0.771051 -1.3745 0
M  V30 302 C 31.9501 1.91538 -1.35464 0
M  V30 303 C 32.9661 1.72134 -0.254123 0
M  V30 304 O 34.1421 1.95358 -0.489626 0
M  V30 305 C 31.2071 3.26671 -1.16134 0
M  V30 306 C 30.2681 3.58723 -2.35831 0
M  V30 307 C 29.5011 4.87409 -2.17413 0
M  V30 308 O 29.7241 5.58506 -1.15876 0
M  V30 309 O 28.6581 5.18539 -3.05615 0
M  V30 310 H 32.4841 1.96165 -2.31847 0
M  V30 311 H 30.0691 0.9139 -1.18187 0
M  V30 312 H 31.9511 4.07499 -1.07345 0
M  V30 313 H 30.6261 3.22894 -0.228251 0
M  V30 314 H 29.5331 2.78127 -2.50192 0
M  V30 315 H 30.8661 3.67243 -3.27709 0
M  V30 316 N 32.5182 1.22032 0.997298 0
M  V30 317 C 33.7642 1.05382 1.73972 0
M  V30 318 C 34.1192 -0.407419 1.88037 0
M  V30 319 O 33.4122 -1.29811 1.40924 0
M  V30 320 C 33.6062 1.69345 3.14733 0
M  V30 321 C 33.4352 3.21537 3.14395 0
M  V30 322 C 32.2052 3.9062 3.20537 0
M  V30 323 C 34.4032 4.18527 2.98897 0
M  V30 324 N 32.3852 5.29935 3.09906 0
M  V30 325 C 33.7562 5.44645 2.96247 0
M  V30 326 C 35.8112 4.09476 2.83255 0
M  V30 327 C 34.5142 6.62752 2.79557 0
M  V30 328 C 36.5402 5.27228 2.67926 0
M  V30 329 C 35.9022 6.52262 2.65959 0
M  V30 330 H 32.0012 0.440018 0.646458 0
M  V30 331 H 34.5852 1.54505 1.18475 0
M  V30 332 H 32.7562 1.22778 3.68484 0
M  V30 333 H 34.4882 1.45828 3.77513 0
M  V30 334 H 31.2432 3.41592 3.28043 0
M  V30 335 H 31.6672 6.02926 3.07912 0
M  V30 336 H 36.3092 3.13598 2.83577 0
M  V30 337 H 34.0272 7.58783 2.77982 0
M  V30 338 H 37.6132 5.22053 2.56812 0
M  V30 339 H 36.4932 7.41844 2.54239 0
M  V30 340 N 33.9963 -1.19345 1.0293 0
M  V30 341 C 35.4073 -1.70725 0.755633 0
M  V30 342 C 35.7583 -1.82326 -0.724676 0
M  V30 343 O 34.8833 -1.49471 -1.56484 0
M  V30 344 C 35.4783 -3.10084 1.36503 0
M  V30 345 C 34.0373 -3.58723 1.13994 0
M  V30 346 C 33.1843 -2.35577 1.46283 0
M  V30 347 H 36.1353 -1.0418 1.19718 0
M  V30 348 H 36.1563 -3.72787 0.762217 0
M  V30 349 H 35.6683 -3.01609 2.44241 0
M  V30 350 H 33.7693 -3.72512 0.0807901 0
M  V30 351 H 33.8823 -4.42816 1.82894 0
M  V30 352 H 32.2463 -2.38935 0.88217 0
M  V30 353 H 33.0293 -2.29731 2.55105 0
M  V30 354 N 35.4744 -0.807222 -1.35358 0
M  V30 355 C 36.7024 -0.400377 -2.02989 0
M  V30 356 C 37.1174 0.988859 -1.60832 0
M  V30 357 O 36.4744 1.63729 -0.806175 0
M  V30 358 C 36.5254 -0.474867 -3.58368 0
M  V30 359 O 36.2464 -1.80933 -3.98992 0
M  V30 360 C 37.7474 -0.0609112 -4.43258 0
M  V30 361 H 34.9674 -0.162587 -0.651004 0
M  V30 362 H 37.5114 -1.09102 -1.72965 0
M  V30 363 H 35.6664 0.167534 -3.87038 0
M  V30 364 H 36.0804 -1.77256 -4.9364 0
M  V30 365 H 37.5544 -0.164145 -5.51756 0
M  V30 366 H 38.0314 0.993831 -4.27808 0
M  V30 367 H 38.6374 -0.676492 -4.19885 0
M  V30 368 N 36.9525 1.47285 -0.560781 0
M  V30 369 C 37.8845 2.28118 0.222438 0
M  V30 370 C 38.8975 1.37219 0.876056 0
M  V30 371 O 40.0865 1.62011 0.749307 0
M  V30 372 C 37.1865 3.1159 1.33285 0
M  V30 373 C 36.3595 4.30473 0.77534 0
M  V30 374 C 35.4185 4.95513 1.77069 0
M  V30 375 O 34.4445 5.53792 1.31539 0
M  V30 376 N 35.6465 4.90531 3.10418 0
M  V30 377 H 38.4115 2.95976 -0.470958 0
M  V30 378 H 35.9725 1.56955 -0.39709 0
M  V30 379 H 37.9645 3.51967 1.99752 0
M  V30 380 H 36.5345 2.45951 1.92943 0
M  V30 381 H 35.7545 3.94144 -0.0662113 0
M  V30 382 H 37.0425 5.07362 0.382272 0
M  V30 383 H 36.4405 4.44389 3.5005 0
M  V30 384 H 34.9975 5.34917 3.72434 0
M  V30 385 N 38.4306 0.297415 1.54768 0
M  V30 386 C 39.3606 -0.573494 2.26348 0
M  V30 387 C 40.3416 -1.14085 1.26169 0
M  V30 388 O 41.5266 -1.17086 1.54934 0
M  V30 389 C 38.6566 -1.74716 3.00153 0
M  V30 390 C 37.6106 -1.31032 4.07449 0
M  V30 391 C 36.9366 -2.56887 4.68949 0
M  V30 392 C 38.2366 -0.444183 5.20408 0
M  V30 393 H 39.9306 0.0235131 2.99391 0
M  V30 394 H 37.4766 0.0127488 1.43994 0
M  V30 395 H 39.4296 -2.3625 3.48947 0
M  V30 396 H 38.1536 -2.37035 2.24682 0
M  V30 397 H 36.8126 -0.718066 3.59499 0
M  V30 398 H 36.4606 -3.17512 3.90122 0
M  V30 399 H 36.1606 -2.2836 5.41411 0
M  V30 400 H 37.6846 -3.19229 5.20505 0
M  V30 401 H 39.0986 -0.9651 5.65118 0
M  V30 402 H 37.4956 -0.252846 5.99567 0
M  V30 403 H 38.5656 0.531609 4.81977 0
M  V30 404 N 39.9087 -1.5758 0.0250728 0
M  V30 405 C 41.1857 -1.82917 -0.692873 0
M  V30 406 C 41.5657 -0.908137 -1.90568 0
M  V30 407 O 40.9137 0.0372298 -2.2847 0
M  V30 408 C 41.1237 -3.32034 -1.07492 0
M  V30 409 C 42.4717 -3.98406 -1.46826 0
M  V30 410 O 43.4957 -3.36505 -1.16801 0
M  V30 411 O 42.3547 -5.07497 -2.02754 0
M  V30 412 H 39.4487 -0.754079 -0.33955 0
M  V30 413 H 41.9947 -1.69619 0.0524456 0
M  V30 414 H 40.7667 -3.90728 -0.211552 0
M  V30 415 H 40.3897 -3.50424 -1.87854 0
M  V30 416 N 41.3868 0.248026 -1.55636 0
M  V30 417 C 42.6328 0.97767 -1.77678 0
M  V30 418 C 42.9658 1.85016 -0.590135 0
M  V30 419 O 42.2408 1.90095 0.411611 0
M  V30 420 C 42.5238 1.83914 -3.09593 0
M  V30 421 C 42.3768 0.99491 -4.38659 0
M  V30 422 C 43.6958 2.82183 -3.37729 0
M  V30 423 H 40.8148 0.354005 -0.646413 0
M  V30 424 H 43.4568 0.248253 -1.88371 0
M  V30 425 H 41.6068 2.46104 -3.00608 0
M  V30 426 H 43.2788 0.391789 -4.59633 0
M  V30 427 H 41.5218 0.299231 -4.32767 0
M  V30 428 H 42.1928 1.63145 -5.2734 0
M  V30 429 H 44.6688 2.30129 -3.4667 0
M  V30 430 H 43.5448 3.39582 -4.31249 0
M  V30 431 H 43.8058 3.58588 -2.58586 0
M  V30 432 N 42.8649 1.48995 0.513639 0
M  V30 433 C 44.2759 1.5119 1.09537 0
M  V30 434 C 44.6269 0.290906 1.94031 0
M  V30 435 O 43.7519 -0.60049 2.07902 0
M  V30 436 C 44.3469 2.73964 1.99322 0
M  V30 437 C 42.9059 2.78978 2.52682 0
M  V30 438 C 42.0529 2.44934 1.30009 0
M  V30 439 H 45.0039 1.55875 0.298125 0
M  V30 440 H 45.0249 2.53409 2.83838 0
M  V30 441 H 44.5369 3.62813 1.37799 0
M  V30 442 H 42.6379 1.94378 3.1788 0
M  V30 443 H 42.7509 3.8083 2.90698 0
M  V30 444 H 41.1149 1.9644 1.62122 0
M  V30 445 H 41.8979 3.36043 0.702131 0
M  V30 446 N 44.343 -0.763751 1.37857 0
M  V30 447 C 45.293 -1.86765 1.30777 0
M  V30 448 C 46.277 -1.59726 0.194015 0
M  V30 449 O 47.469 -1.7172 0.42911 0
M  V30 450 C 44.598 -3.24343 1.12502 0
M  V30 451 C 43.684 -3.57307 2.28456 0
M  V30 452 N 44.075 -3.61398 3.53871 0
M  V30 453 C 42.373 -3.87517 2.20786 0
M  V30 454 C 43.074 -3.91339 4.30382 0
M  V30 455 N 42.05 -4.07649 3.59615 0
M  V30 456 H 45.852 -1.88191 2.25746 0
M  V30 457 H 43.366 -0.9606 1.30944 0
M  V30 458 H 45.363 -4.03327 1.05514 0
M  V30 459 H 44.023 -3.24175 0.184574 0
M  V30 460 H 45.034 -3.43407 3.87675 0
M  V30 461 H 41.711 -3.95125 1.34844 0
M  V30 462 H 43.101 -4.01213 5.3896 0
M  V30 463 N 45.8211 -1.22559 -0.990812 0
M  V30 464 C 47.0671 -1.05297 -1.73322 0
M  V30 465 C 47.4001 0.410655 -1.89808 0
M  V30 466 O 46.6751 1.30439 -1.44277 0
M  V30 467 C 46.9581 -1.76713 -3.13759 0
M  V30 468 C 46.8111 -3.30684 -3.04907 0
M  V30 469 C 48.1301 -1.52121 -4.12974 0
M  V30 470 H 45.2491 -0.38392 -0.629106 0
M  V30 471 H 47.8911 -1.50926 -1.15418 0
M  V30 472 H 46.0411 -1.37924 -3.63193 0
M  V30 473 H 47.7131 -3.7893 -2.63077 0
M  V30 474 H 45.9561 -3.60253 -2.41661 0
M  V30 475 H 46.6271 -3.75833 -4.04294 0
M  V30 476 H 49.1031 -1.85819 -3.72304 0
M  V30 477 H 47.9791 -2.04582 -5.0935 0
M  V30 478 H 48.2401 -0.454257 -4.3976 0
M  V30 479 N 47.2992 1.18797 -1.03562 0
M  V30 480 C 48.5482 1.87978 -0.731235 0
M  V30 481 C 48.8612 1.80911 0.743671 0
M  V30 482 O 50.0672 2.45407 1.16137 0
M  V30 483 C 48.5232 3.3721 -1.25768 0
M  V30 484 C 48.1312 3.52818 -2.76085 0
M  V30 485 C 49.8752 4.11825 -1.0296 0
M  V30 486 C 47.7822 4.9598 -3.22114 0
M  V30 487 H 46.7122 0.704063 -0.269835 0
M  V30 488 H 49.3632 1.34266 -1.25079 0
M  V30 489 H 47.7452 3.90359 -0.666011 0
M  V30 490 H 48.9192 3.09965 -3.40966 0
M  V30 491 H 47.2342 2.91602 -2.97249 0
M  V30 492 H 49.8312 5.17411 -1.34869 0
M  V30 493 H 50.1742 4.16287 0.0333546 0
M  V30 494 H 50.7072 3.64833 -1.58562 0
M  V30 495 H 47.4462 4.96684 -4.27768 0
M  V30 496 H 46.9662 5.39569 -2.61965 0
M  V30 497 H 48.6452 5.6467 -3.15844 0
M  V30 498 N 48.7773 0.814389 1.34928 0
M  V30 499 C 50.0053 0.411136 2.02774 0
M  V30 500 C 50.4203 -0.980316 1.61354 0
M  V30 501 O 49.7773 -1.63299 0.814847 0
M  V30 502 C 49.8283 0.493865 3.58111 0
M  V30 503 O 49.5493 1.83047 3.98027 0
M  V30 504 C 51.0503 0.0844174 4.4322 0
M  V30 505 H 48.2703 0.166037 0.650133 0
M  V30 506 H 50.8143 1.10018 1.72384 0
M  V30 507 H 48.9693 -0.147006 3.87121 0
M  V30 508 H 49.3833 1.79872 4.92693 0
M  V30 509 H 50.8573 0.193404 5.51661 0
M  V30 510 H 51.3343 -0.97113 4.28329 0
M  V30 511 H 51.9403 0.69875 4.19521 0
M  V30 512 N 50.2554 -1.46986 0.568584 0
M  V30 513 C 51.1854 -2.32946 -0.160753 0
M  V30 514 C 52.1664 -1.44487 -0.897631 0
M  V30 515 O 53.3514 -1.73327 -0.875867 0
M  V30 516 C 50.4814 -3.26494 -1.18403 0
M  V30 517 C 49.4354 -4.24282 -0.562895 0
M  V30 518 C 48.7614 -5.07236 -1.69163 0
M  V30 519 C 50.0614 -5.19989 0.490761 0
M  V30 520 H 51.7554 -2.94175 0.556916 0
M  V30 521 H 49.3014 -1.4146 0.26927 0
M  V30 522 H 51.2544 -3.85477 -1.70251 0
M  V30 523 H 49.9784 -2.63343 -1.93179 0
M  V30 524 H 48.6374 -3.66541 -0.0656164 0
M  V30 525 H 48.2854 -4.4048 -2.42871 0
M  V30 526 H 47.9854 -5.7345 -1.28174 0
M  V30 527 H 49.5094 -5.6908 -2.21314 0
M  V30 528 H 50.9234 -5.73271 0.0579047 0
M  V30 529 H 49.3204 -5.94469 0.820165 0
M  V30 530 H 50.3904 -4.64777 1.3824 0
M  V30 531 N 51.7335 -0.305618 -1.54608 0
M  V30 532 C 52.9815 0.301701 -1.99835 0
M  V30 533 C 53.3025 1.54054 -1.19551 0
M  V30 534 O 52.5725 1.93702 -0.292658 0
M  V30 535 H 51.1525 0.114468 -0.738178 0
M  V30 536 H 53.8145 -0.418016 -1.90364 0
M  V30 537 H 52.9105 0.570548 -3.06841 0
M  V30 538 N 53.2116 1.57565 -0.0334293 0
M  V30 539 C 54.1416 2.13511 0.945265 0
M  V30 540 C 55.1226 1.05231 1.33643 0
M  V30 541 O 56.3076 1.33084 1.41429 0
M  V30 542 C 53.4376 2.6657 2.22616 0
M  V30 543 C 52.3916 3.79676 1.97561 0
M  V30 544 C 51.7176 4.1918 3.31952 0
M  V30 545 C 53.0176 5.0557 1.31135 0
M  V30 546 H 54.7116 2.95538 0.479325 0
M  V30 547 H 52.2576 1.42166 0.229115 0
M  V30 548 H 54.2106 3.04344 2.91466 0
M  V30 549 H 52.9346 1.8171 2.71384 0
M  V30 550 H 51.5936 3.42347 1.31127 0
M  V30 551 H 51.2416 3.31296 3.78487 0
M  V30 552 H 50.9416 4.95402 3.15992 0
M  V30 553 H 52.4656 4.59541 4.02063 0
M  V30 554 H 53.8796 5.40903 1.89992 0
M  V30 555 H 52.2766 5.86818 1.25559 0
M  V30 556 H 53.3466 4.84062 0.284894 0
M  V30 557 N 54.6897 -0.239769 1.55765 0
M  V30 558 C 55.9357 -0.968234 1.78194 0
M  V30 559 C 56.2687 -1.84701 0.599938 0
M  V30 560 O 55.5437 -1.9031 -0.401524 0
M  V30 561 C 55.8267 -1.8227 3.10564 0
M  V30 562 C 55.6797 -0.971633 4.3918 0
M  V30 563 C 56.9987 -2.80388 3.39221 0
M  V30 564 H 54.1177 -0.350572 0.648281 0
M  V30 565 H 56.7597 -0.238259 1.885 0
M  V30 566 H 54.9097 -2.44507 3.01908 0
M  V30 567 H 56.5817 -0.367408 4.59835 0
M  V30 568 H 54.8247 -0.276276 4.32919 0
M  V30 569 H 55.4957 -1.60346 5.28198 0
M  V30 570 H 57.9717 -2.28287 3.47885 0
M  V30 571 H 56.8477 -3.3729 4.33044 0
M  V30 572 H 57.1087 -3.57212 2.60484 0
M  V30 573 N 56.1678 -1.49265 -0.50573 0
M  V30 574 C 57.4158 -1.582 -1.25766 0
M  V30 575 C 57.7368 -0.268482 -1.93143 0
M  V30 576 O 57.0068 0.711833 -1.8251 0
M  V30 577 H 55.5868 -0.582873 -0.467191 0
M  V30 578 H 58.2488 -1.85865 -0.586525 0
M  V30 579 H 57.3448 -2.37563 -2.02412 0
M  V30 580 N 57.6459 0.756429 -1.3826 0
M  V30 581 C 58.5759 1.88374 -1.37976 0
M  V30 582 C 59.5569 1.68311 -0.246082 0
M  V30 583 O 60.7419 1.88944 -0.44874 0
M  V30 584 C 57.8719 3.25864 -1.20125 0
M  V30 585 C 56.8259 3.60523 -2.30666 0
M  V30 586 C 56.1519 4.9672 -1.97923 0
M  V30 587 C 57.4519 3.65692 -3.72916 0
M  V30 588 H 59.1459 1.88869 -2.32312 0
M  V30 589 H 56.6919 0.907272 -1.11824 0
M  V30 590 H 58.6449 4.0438 -1.18552 0
M  V30 591 H 57.3689 3.25841 -0.222498 0
M  V30 592 H 56.0279 2.84324 -2.3142 0
M  V30 593 H 55.6759 4.93253 -0.985393 0
M  V30 594 H 55.3759 5.20878 -2.71955 0
M  V30 595 H 56.8999 5.77618 -1.97964 0
M  V30 596 H 58.3139 4.34328 -3.74208 0
M  V30 597 H 56.7109 4.01358 -4.4613 0
M  V30 598 H 57.7809 2.65987 -4.05436 0
M  V30 599 N 59.124 1.23083 0.984299 0
M  V30 600 C 60.056 0.96636 2.07832 0
M  V30 601 C 61.069 -0.0582135 1.62696 0
M  V30 602 O 62.258 0.176843 1.77622 0
M  V30 603 C 59.358 0.433397 3.36117 0
M  V30 604 C 58.531 1.51722 4.10243 0
M  V30 605 C 57.59 0.989821 5.16807 0
M  V30 606 O 56.616 1.67794 5.43906 0
M  V30 607 N 57.818 -0.184367 5.80207 0
M  V30 608 H 60.583 1.90824 2.31098 0
M  V30 609 H 58.144 1.13888 1.1507 0
M  V30 610 H 60.136 0.065699 4.04647 0
M  V30 611 H 58.706 -0.413806 3.09849 0
M  V30 612 H 57.926 2.05786 3.36223 0
M  V30 613 H 59.214 2.24619 4.56534 0
M  V30 614 H 58.612 -0.760062 5.60571 0
M  V30 615 H 57.169 -0.493366 6.4993 0
M  V30 616 N 60.6021 -1.18246 1.0419 0
M  V30 617 C 61.5521 -2.19843 0.604392 0
M  V30 618 C 62.5361 -1.56962 -0.353814 0
M  V30 619 O 63.7281 -1.76156 -0.17267 0
M  V30 620 C 60.8571 -3.43287 -0.0298975 0
M  V30 621 C 59.9431 -4.13288 0.951531 0
M  V30 622 N 60.3341 -4.59271 2.11906 0
M  V30 623 C 58.6321 -4.39165 0.7778 0
M  V30 624 C 59.3331 -5.13173 2.73912 0
M  V30 625 N 58.3091 -5.04763 2.01779 0
M  V30 626 H 62.1111 -2.53089 1.4941 0
M  V30 627 H 59.6251 -1.34465 0.910658 0
M  V30 628 H 61.6221 -4.15334 -0.361037 0
M  V30 629 H 60.2821 -3.11537 -0.915127 0
M  V30 630 H 61.2931 -4.5368 2.49789 0
M  V30 631 H 57.9701 -4.17461 -0.0572331 0
M  V30 632 H 59.3601 -5.58947 3.72864 0
M  V30 633 N 62.0802 -0.821533 -1.34494 0
M  V30 634 C 63.4962 -0.507117 -1.51329 0
M  V30 635 C 63.6962 0.968964 -1.76673 0
M  V30 636 O 62.7522 1.75348 -1.81685 0
M  V30 637 C 64.0652 -1.36544 -2.67911 0
M  V30 638 C 65.6132 -1.36242 -2.81793 0
M  V30 639 C 66.0882 -2.2052 -4.01416 0
M  V30 640 N 67.5792 -2.18136 -4.08621 0
M  V30 641 C 68.3142 -2.80095 -5.00334 0
M  V30 642 N 67.8102 -3.51039 -5.9728 0
M  V30 643 N 69.6032 -2.69656 -4.93196 0
M  V30 644 H 61.7542 -1.77729 -1.16302 0
M  V30 645 H 64.0172 -0.757291 -0.570276 0
M  V30 646 H 63.7232 -2.41361 -2.55808 0
M  V30 647 H 63.5972 -1.02917 -3.62888 0
M  V30 648 H 65.9842 -0.322041 -2.93338 0
M  V30 649 H 66.0652 -1.73866 -1.87628 0
M  V30 650 H 65.7092 -3.24607 -3.90631 0
M  V30 651 H 65.6392 -1.80247 -4.94791 0
M  V30 652 H 68.1302 -1.6653 -3.39229 0
M  V30 653 H 68.4432 -3.95565 -6.63889 0
M  V30 654 H 66.7882 -3.55145 -5.97409 0
M  V30 655 H 69.9792 -2.13808 -4.16418 0
M  V30 656 H 70.1522 -3.1823 -5.64476 0
M  V30 657 N 63.5583 1.46682 -0.576371 0
M  V30 658 C 64.8063 2.02013 -0.0594163 0
M  V30 659 C 65.1273 1.45101 1.30271 0
M  V30 660 O 64.3973 0.633317 1.8538 0
M  V30 661 H 62.9773 0.746759 -0.0189745 0
M  V30 662 H 65.6393 1.79862 -0.750717 0
M  V30 663 H 64.7353 3.12097 0.014345 0
M  V30 664 N 65.0364 0.313813 1.54444 0
M  V30 665 C 65.9684 -0.590425 2.21465 0
M  V30 666 C 66.9814 -1.08753 1.21147 0
M  V30 667 O 68.1704 -1.00278 1.4767 0
M  V30 668 C 65.2704 -1.82179 2.85769 0
M  V30 669 C 64.4434 -1.46502 4.12136 0
M  V30 670 C 63.5024 -2.55288 4.60124 0
M  V30 671 O 62.5284 -2.19842 5.25032 0
M  V30 672 N 63.7304 -3.86053 4.33525 0
M  V30 673 H 66.4954 -0.0166033 2.99695 0
M  V30 674 H 64.0564 0.136578 1.61323 0
M  V30 675 H 66.0484 -2.54328 3.14801 0
M  V30 676 H 64.6184 -2.30369 2.11303 0
M  V30 677 H 63.8384 -0.575595 3.89975 0
M  V30 678 H 65.1264 -1.20221 4.94393 0
M  V30 679 H 64.5244 -4.17654 3.81552 0
M  V30 680 H 63.0814 -4.54461 4.67235 0
M  V30 681 N 66.5145 -1.57545 0.0417849 0
M  V30 682 C 67.4245 -2.14451 -0.951213 0
M  V30 683 C 68.4405 -1.09992 -1.34825 0
M  V30 684 O 69.6165 -1.42114 -1.42708 0
M  V30 685 C 66.6815 -2.67063 -2.21084 0
M  V30 686 C 65.7425 -3.86284 -1.87304 0
M  V30 687 C 64.9755 -4.36378 -3.07261 0
M  V30 688 O 65.1985 -3.85587 -4.20332 0
M  V30 689 O 64.1325 -5.28077 -2.88822 0
M  V30 690 H 67.9585 -2.99601 -0.497287 0
M  V30 691 H 65.5435 -1.48317 -0.179567 0
M  V30 692 H 67.4255 -3.00914 -2.95006 0
M  V30 693 H 66.1005 -1.84989 -2.65633 0
M  V30 694 H 65.0075 -3.57338 -1.10727 0
M  V30 695 H 66.3405 -4.6956 -1.47562 0
M  V30 696 N 67.9926 0.231505 -1.5589 0
M  V30 697 C 69.2176 0.978689 -1.82856 0
M  V30 698 C 69.6426 1.77559 -0.620846 0
M  V30 699 O 69.0006 1.76119 0.430305 0
M  V30 700 C 69.0486 1.87997 -3.07716 0
M  V30 701 O 68.1526 2.97393 -2.85712 0
M  V30 702 H 67.4936 0.277663 -0.603158 0
M  V30 703 H 70.0236 0.24783 -2.03093 0
M  V30 704 H 70.0336 2.2917 -3.37558 0
M  V30 705 H 68.7086 1.29417 -3.95252 0
M  V30 706 H 67.2856 2.60238 -2.67078 0
M  V30 707 N 69.4707 1.49531 0.497807 0
M  V30 708 C 70.4337 1.65916 1.58128 0
M  V30 709 C 71.4337 0.530825 1.51786 0
M  V30 710 O 72.6237 0.797342 1.54881 0
M  V30 711 C 69.7557 1.65951 2.9778 0
M  V30 712 H 70.9487 2.62556 1.44929 0
M  V30 713 H 68.5017 1.38611 0.722275 0
M  V30 714 H 69.2367 0.709065 3.16453 0
M  V30 715 H 69.0217 2.47897 3.03792 0
M  V30 716 H 70.5117 1.80673 3.76493 0
M  V30 717 N 70.9488 -0.749086 1.3866 0
M  V30 718 C 72.1968 -1.50535 1.34847 0
M  V30 719 C 72.5178 -1.94909 -0.0595016 0
M  V30 720 O 71.7878 -1.67973 -1.00806 0
M  V30 721 H 70.3678 -0.558395 0.49619 0
M  V30 722 H 73.0298 -0.890165 1.73384 0
M  V30 723 H 72.1258 -2.39413 2.00219 0
M  V30 724 N 72.4269 -1.23603 -0.977757 0
M  V30 725 C 73.6759 -1.06377 -1.71368 0
M  V30 726 C 73.9889 0.399062 -1.91486 0
M  V30 727 O 75.1949 0.691312 -2.62551 0
M  V30 728 C 73.6509 -1.85512 -3.08404 0
M  V30 729 C 73.2589 -3.36141 -2.96164 0
M  V30 730 C 75.0029 -1.76783 -3.85938 0
M  V30 731 C 72.9099 -4.07659 -4.28449 0
M  V30 732 H 71.8399 -0.394452 -0.642591 0
M  V30 733 H 74.4909 -1.47594 -1.09034 0
M  V30 734 H 72.8729 -1.37103 -3.71509 0
M  V30 735 H 74.0469 -3.92056 -2.42133 0
M  V30 736 H 72.3619 -3.45712 -2.32104 0
M  V30 737 H 74.9589 -2.27526 -4.83876 0
M  V30 738 H 75.3019 -0.731116 -4.0983 0
M  V30 739 H 75.8349 -2.22818 -3.2954 0
M  V30 740 H 72.5739 -5.11648 -4.09752 0
M  V30 741 H 72.0939 -3.5653 -4.82334 0
M  V30 742 H 73.7729 -4.141 -4.97122 0
M  V30 743 N 73.905 1.17692 -1.04816 0
M  V30 744 C 75.151 1.88137 -0.75711 0
M  V30 745 C 75.484 1.80604 0.713841 0
M  V30 746 O 74.759 1.21146 1.52164 0
M  V30 747 C 75.042 3.38318 -1.2334 0
M  V30 748 C 74.895 3.54622 -2.76701 0
M  V30 749 C 76.214 4.32214 -0.829415 0
M  V30 750 H 73.333 0.683163 -0.27651 0
M  V30 751 H 75.975 1.38424 -1.30149 0
M  V30 752 H 74.125 3.80787 -0.770286 0
M  V30 753 H 75.797 3.21194 -3.31107 0
M  V30 754 H 74.04 2.97026 -3.16161 0
M  V30 755 H 74.711 4.60028 -3.05088 0
M  V30 756 H 77.187 3.97565 -1.22805 0
M  V30 757 H 76.063 5.35838 -1.19033 0
M  V30 758 H 76.324 4.41294 0.266891 0
M  V30 759 N 75.3831 0.828654 1.34056 0
M  V30 760 C 76.6111 0.43262 2.02326 0
M  V30 761 C 77.0261 -0.963147 1.62385 0
M  V30 762 O 76.3831 -1.62425 0.832121 0
M  V30 763 C 76.4341 0.53182 3.57567 0
M  V30 764 O 76.1551 1.87258 3.96063 0
M  V30 765 C 77.6561 0.131422 4.43105 0
M  V30 766 H 74.8761 0.172923 0.648335 0
M  V30 767 H 77.4201 1.1184 1.71208 0
M  V30 768 H 75.5751 -0.105938 3.87255 0
M  V30 769 H 75.9891 1.85087 4.90758 0
M  V30 770 H 77.4631 0.251904 5.51425 0
M  V30 771 H 77.9401 -0.925645 4.29335 0
M  V30 772 H 78.5461 0.743207 4.18756 0
M  V30 773 N 76.8612 -1.46375 0.584142 0
M  V30 774 C 78.0862 -2.07268 0.0740405 0
M  V30 775 C 78.5112 -1.42979 -1.22223 0
M  V30 776 O 77.8692 -0.514092 -1.73859 0
M  V30 777 C 77.9172 -3.60518 -0.0767769 0
M  V30 778 O 77.0212 -3.96533 -1.13292 0
M  V30 779 H 76.3622 -0.660961 0.0634524 0
M  V30 780 H 78.8922 -1.87991 0.807492 0
M  V30 781 H 78.9022 -4.07021 -0.282489 0
M  V30 782 H 77.5772 -4.06702 0.86986 0
M  V30 783 H 76.1542 -3.61738 -0.905553 0
M  V30 784 N 78.3393 -0.321999 -1.54275 0
M  V30 785 C 79.6163 0.335232 -1.92706 0
M  V30 786 C 79.9963 1.70006 -1.25145 0
M  V30 787 O 79.3443 2.25067 -0.394596 0
M  V30 788 C 79.5543 0.429008 -3.46353 0
M  V30 789 C 80.9023 0.690029 -4.18956 0
M  V30 790 O 81.9263 0.511992 -3.52501 0
M  V30 791 O 80.7853 1.03338 -5.36641 0
M  V30 792 H 77.8793 0.191143 -0.804608 0
M  V30 793 H 80.4253 -0.3716 -1.65581 0
M  V30 794 H 79.1973 -0.529611 -3.87699 0
M  V30 795 H 78.8203 1.18348 -3.79578 0
M  V30 796 N 79.8174 1.5752 -0.0501392 0
M  V30 797 C 81.0654 1.9227 0.622642 0
M  V30 798 C 81.3864 0.929083 1.71444 0
M  V30 799 O 80.6564 -0.0262186 1.95882 0
M  V30 800 H 79.2364 0.709739 0.232981 0
M  V30 801 H 81.8984 1.94628 -0.102898 0
M  V30 802 H 80.9944 2.93479 1.06191 0
M  V30 803 N 81.2955 -0.223234 1.56011 0
M  V30 804 C 82.5205 -0.968978 1.83373 0
M  V30 805 C 82.9455 -1.77227 0.630254 0
M  V30 806 O 82.3035 -1.76345 -0.420959 0
M  V30 807 C 82.3515 -1.86363 3.08709 0
M  V30 808 O 81.4555 -2.95873 2.87285 0
M  V30 809 H 80.7965 -0.274461 0.604622 0
M  V30 810 H 83.3265 -0.237056 2.03222 0
M  V30 811 H 83.3365 -2.27376 3.38768 0
M  V30 812 H 82.0115 -1.27319 3.95933 0
M  V30 813 H 80.5885 -2.58818 2.68454 0
M  V30 814 N 82.7736 -1.49793 -0.48987 0
M  V30 815 C 83.9986 -1.63836 -1.27172 0
M  V30 816 C 84.4236 -0.31402 -1.8546 0
M  V30 817 O 83.7816 0.719803 -1.66399 0
M  V30 818 C 83.8296 -2.71797 -2.36978 0
M  V30 819 O 82.9336 -2.31744 -3.41128 0
M  V30 820 H 82.2746 -0.547997 -0.37496 0
M  V30 821 H 84.8046 -1.96053 -0.585191 0
M  V30 822 H 84.8146 -2.94305 -2.82575 0
M  V30 823 H 83.4896 -3.67923 -1.93921 0
M  V30 824 H 82.0666 -2.1961 -3.01373 0
M  V30 825 N 84.2517 0.741722 -1.39055 0
M  V30 826 C 85.4977 1.50336 -1.36113 0
M  V30 827 C 85.8307 1.94148 0.0450796 0
M  V30 828 O 85.1057 1.66301 1.00868 0
M  V30 829 C 85.3887 2.74773 -2.32749 0
M  V30 830 C 85.2417 2.37023 -3.82283 0
M  V30 831 C 86.5607 3.76846 -2.27322 0
M  V30 832 H 83.6797 0.545351 -0.495743 0
M  V30 833 H 86.3217 0.848624 -1.69995 0
M  V30 834 H 84.4717 3.30639 -2.03986 0
M  V30 835 H 86.1437 1.8684 -4.21768 0
M  V30 836 H 84.3867 1.69334 -3.99385 0
M  V30 837 H 85.0577 3.26104 -4.45376 0
M  V30 838 H 87.5337 3.30548 -2.5274 0
M  V30 839 H 86.4097 4.6159 -2.97028 0
M  V30 840 H 86.6707 4.23286 -1.27599 0
M  V30 841 N 85.7298 1.2412 0.971189 0
M  V30 842 C 87.1408 1.07236 1.52831 0
M  V30 843 C 87.4918 -0.357352 1.92918 0
M  V30 844 O 86.6168 -1.24528 1.76979 0
M  V30 845 C 87.2118 1.94043 2.77728 0
M  V30 846 C 85.7708 1.81394 3.29808 0
M  V30 847 C 84.9178 1.89189 2.02738 0
M  V30 848 H 87.8688 1.37648 0.789864 0
M  V30 849 H 87.8898 1.47066 3.5093 0
M  V30 850 H 87.4018 2.98093 2.4852 0
M  V30 851 H 85.5028 0.801634 3.63874 0
M  V30 852 H 85.6158 2.65294 3.98944 0
M  V30 853 H 83.9798 1.32877 2.17292 0
M  V30 854 H 84.7628 2.94812 1.759 0
M  V30 855 N 87.2079 -1.17134 1.05439 0
M  V30 856 C 88.4359 -1.91372 0.786414 0
M  V30 857 C 88.8509 -1.76955 -0.658202 0
M  V30 858 O 88.2079 -1.10838 -1.44987 0
M  V30 859 C 88.2589 -3.42356 1.1608 0
M  V30 860 O 87.9799 -3.56332 2.54871 0
M  V30 861 C 89.4809 -4.33663 0.919322 0
M  V30 862 H 86.7009 -0.607118 0.285743 0
M  V30 863 H 89.2449 -1.48525 1.40572 0
M  V30 864 H 87.3999 -3.82939 0.586191 0
M  V30 865 H 87.8139 -4.49896 2.69618 0
M  V30 866 H 89.2879 -5.38099 1.231 0
M  V30 867 H 89.7649 -4.38959 -0.145359 0
M  V30 868 H 90.3709 -3.98796 1.47789 0
M  V30 869 N 88.686 -0.835752 -1.33615 0
M  V30 870 C 89.933 -0.429959 -1.97883 0
M  V30 871 C 90.261 1.01006 -1.66217 0
M  V30 872 O 89.516 1.72047 -0.93265 0
M  V30 873 C 89.815 -0.593925 -3.52431 0
M  V30 874 C 89.481 -2.00158 -4.04039 0
M  V30 875 C 88.143 -2.38662 -4.17844 0
M  V30 876 C 90.495 -2.92117 -4.31644 0
M  V30 877 C 87.823 -3.68435 -4.56588 0
M  V30 878 C 90.175 -4.21368 -4.71838 0
M  V30 879 C 88.839 -4.59833 -4.83849 0
M  V30 880 H 88.109 -0.157333 -0.724104 0
M  V30 881 H 90.756 -1.06217 -1.59343 0
M  V30 882 H 89.061 0.121619 -3.91611 0
M  V30 883 H 90.758 -0.260282 -4.00154 0
M  V30 884 H 87.348 -1.69252 -3.93766 0
M  V30 885 H 91.532 -2.63608 -4.20505 0
M  V30 886 H 86.788 -3.98046 -4.64079 0
M  V30 887 H 90.962 -4.92703 -4.92155 0
M  V30 888 H 88.589 -5.60438 -5.13627 0
M  V30 889 N 90.1641 1.46063 -0.591896 0
M  V30 890 C 91.1111 2.30399 0.136069 0
M  V30 891 C 92.0811 1.41169 0.875238 0
M  V30 892 O 93.2661 1.70112 0.86409 0
M  V30 893 C 90.4061 3.25804 1.13781 0
M  V30 894 C 89.5191 4.30134 0.401137 0
M  V30 895 C 88.6541 5.12659 1.39121 0
M  V30 896 C 87.6931 6.0873 0.641462 0
M  V30 897 N 86.8301 6.8409 1.58004 0
M  V30 898 H 91.6701 2.92118 -0.589144 0
M  V30 899 H 89.2071 1.43959 -0.302342 0
M  V30 900 H 91.1651 3.79569 1.73156 0
M  V30 901 H 89.7951 2.65872 1.83062 0
M  V30 902 H 88.8471 3.79152 -0.307826 0
M  V30 903 H 90.1591 4.98458 -0.184565 0
M  V30 904 H 89.3131 5.70747 2.05749 0
M  V30 905 H 88.0521 4.44316 2.01084 0
M  V30 906 H 87.0571 5.49786 -0.0385419 0
M  V30 907 H 88.2821 6.79095 0.0270945 0
M  V30 908 H 86.2281 6.18449 2.18761 0
M  V30 909 H 86.1451 7.48709 1.04738 0
M  V30 910 H 87.4131 7.4673 2.23639 0
M  V30 911 N 91.6422 0.330177 1.54103 0
M  V30 912 C 92.8672 -0.274893 2.0557 0
M  V30 913 C 93.2922 -1.44487 1.20437 0
M  V30 914 O 92.6502 -1.80021 0.214991 0
M  V30 915 C 92.6982 -0.68079 3.54115 0
M  V30 916 O 91.8022 -1.7824 3.71893 0
M  V30 917 H 91.1432 -0.0483849 0.662235 0
M  V30 918 H 93.6732 0.480508 1.98878 0
M  V30 919 H 93.6832 -0.961635 3.96505 0
M  V30 920 H 92.3582 0.174903 4.15532 0
M  V30 921 H 90.9352 -1.49985 3.41407 0
M  V30 922 N 93.1203 -1.57491 0.0584922 0
M  V30 923 C 94.0703 -2.08474 -0.923188 0
M  V30 924 C 95.0543 -0.991479 -1.26722 0
M  V30 925 O 96.2463 -1.25473 -1.24842 0
M  V30 926 C 93.3753 -2.6392 -2.19548 0
M  V30 927 C 92.4613 -3.80227 -1.87852 0
M  V30 928 N 92.8523 -4.89714 -1.26546 0
M  V30 929 C 91.1503 -3.89271 -2.17679 0
M  V30 930 C 91.8513 -5.70689 -1.12644 0
M  V30 931 N 90.8273 -5.18531 -1.63176 0
M  V30 932 H 94.6293 -2.90517 -0.444653 0
M  V30 933 H 92.1433 -1.61745 -0.145764 0
M  V30 934 H 94.1403 -2.98752 -2.9078 0
M  V30 935 H 92.8003 -1.83318 -2.68001 0
M  V30 936 H 93.8113 -5.09358 -0.936757 0
M  V30 937 H 90.4883 -3.19623 -2.68602 0
M  V30 938 H 91.8783 -6.6875 -0.6499 0
M  V30 939 N 94.5984 0.214957 -1.56127 0
M  V30 940 C 95.5454 1.26642 -1.92952 0
M  V30 941 C 96.5154 1.46244 -0.78753 0
M  V30 942 O 97.7004 1.59704 -1.04399 0
M  V30 943 C 94.8404 2.6104 -2.25726 0
M  V30 944 C 93.9534 2.49183 -3.52891 0
M  V30 945 C 93.0884 3.76149 -3.7508 0
M  V30 946 C 92.1274 3.59041 -4.95738 0
M  V30 947 N 91.2644 4.77972 -5.14283 0
M  V30 948 H 96.1044 0.945384 -2.82607 0
M  V30 949 H 93.6414 0.455489 -1.3987 0
M  V30 950 H 95.5994 3.39313 -2.42739 0
M  V30 951 H 94.2294 2.91227 -1.39236 0
M  V30 952 H 93.2814 1.6231 -3.44034 0
M  V30 953 H 94.5934 2.32466 -4.41318 0
M  V30 954 H 93.7474 4.62865 -3.92226 0
M  V30 955 H 92.4864 3.95799 -2.84947 0
M  V30 956 H 91.4914 2.7071 -4.78535 0
M  V30 957 H 92.7164 3.40856 -5.87362 0
M  V30 958 H 90.6624 4.97923 -4.27093 0
M  V30 959 H 90.5794 4.64006 -5.96853 0
M  V30 960 H 91.8474 5.66096 -5.35869 0
M  V30 961 N 96.0765 1.50051 0.48192 0
M  V30 962 C 97.3245 1.60181 1.23234 0
M  V30 963 C 97.6455 0.299176 1.92691 0
M  V30 964 O 96.9155 -0.682708 1.83619 0
M  V30 965 H 95.4955 0.590232 0.457859 0
M  V30 966 H 98.1575 1.86775 0.556881 0
M  V30 967 H 97.2535 2.40753 1.98607 0
M  V30 968 N 97.5546 -0.734337 1.39446 0
M  V30 969 C 98.4876 -1.85715 1.32609 0
M  V30 970 C 99.4656 -1.6137 0.199636 0
M  V30 971 O 100.65 -1.84626 0.380195 0
M  V30 972 C 97.7766 -3.21709 1.05929 0
M  V30 973 C 96.8226 -3.64913 2.20773 0
M  V30 974 S 97.6556 -3.74203 3.83056 0
M  V30 975 C 98.8116 -5.12986 3.58603 0
M  V30 976 H 99.0446 -1.91232 2.27635 0
M  V30 977 H 96.5776 -0.899263 1.25509 0
M  V30 978 H 98.5356 -4.00236 0.912203 0
M  V30 979 H 97.1966 -3.13848 0.125883 0
M  V30 980 H 96.3896 -4.63606 1.97699 0
M  V30 981 H 95.9916 -2.93593 2.31688 0
M  V30 982 H 98.2836 -5.99339 3.15909 0
M  V30 983 H 99.2266 -5.41088 4.5676 0
M  V30 984 H 99.6346 -4.82694 2.9269 0
M  V30 985 N 99.0327 -1.24633 -0.964593 0
M  V30 986 C 100.281 -1.08573 -1.70459 0
M  V30 987 C 100.602 0.375655 -1.91347 0
M  V30 988 O 99.8717 1.26779 -1.49345 0
M  V30 989 H 98.4517 -0.398784 -0.631649 0
M  V30 990 H 101.114 -1.56601 -1.16026 0
M  V30 991 H 100.21 -1.58623 -2.68785 0
M  V30 992 N 100.511 1.16574 -1.06058 0
M  V30 993 C 101.441 2.23057 -0.690488 0
M  V30 994 C 102.422 1.67141 0.315901 0
M  V30 995 O 103.607 1.93253 0.191556 0
M  V30 996 C 100.737 3.47222 -0.073625 0
M  V30 997 C 99.6908 4.16016 -1.00573 0
M  V30 998 C 99.0168 5.34104 -0.252289 0
M  V30 999 C 100.317 4.67264 -2.33371 0
M  V30 1000 H 102.011 2.54271 -1.58072 0
M  V30 1001 H 99.5568 1.22218 -0.76149 0
M  V30 1002 H 101.51 4.20939 0.19714 0
M  V30 1003 H 100.234 3.15302 0.85161 0
M  V30 1004 H 98.8928 3.44223 -1.2612 0
M  V30 1005 H 98.5408 4.98437 0.675988 0
M  V30 1006 H 98.2408 5.81072 -0.873455 0
M  V30 1007 H 99.7648 6.10599 0.0109857 0
M  V30 1008 H 101.179 5.32573 -2.12223 0
M  V30 1009 H 99.5758 5.24843 -2.90963 0
M  V30 1010 H 100.646 3.83602 -2.96611 0
M  V30 1011 N 101.989 0.842826 1.3317 0
M  V30 1012 C 103.235 0.441099 1.97945 0
M  V30 1013 C 103.568 -0.998024 1.66593 0
M  V30 1014 O 102.843 -1.69839 0.947898 0
M  V30 1015 C 103.126 0.666841 3.53872 0
M  V30 1016 C 102.979 2.15352 3.94897 0
M  V30 1017 C 104.298 0.115544 4.39948 0
M  V30 1018 H 101.417 0.161739 0.719034 0
M  V30 1019 H 104.059 1.05907 1.57746 0
M  V30 1020 H 102.209 0.140828 3.88245 0
M  V30 1021 H 103.881 2.7447 3.70761 0
M  V30 1022 H 102.124 2.63653 3.44484 0
M  V30 1023 H 102.795 2.26221 5.03516 0
M  V30 1024 H 105.271 0.565213 4.12243 0
M  V30 1025 H 104.147 0.303152 5.48062 0
M  V30 1026 H 104.408 -0.980935 4.3108 0
M  V30 1027 N 103.467 -1.45747 0.599634 0
M  V30 1028 C 104.415 -2.322 -0.136426 0
M  V30 1029 C 105.409 -1.45497 -0.867583 0
M  V30 1030 O 106.615 -1.62027 -0.78405 0
M  V30 1031 H 102.99 -0.749368 -0.0628588 0
M  V30 1032 H 104.961 -2.92072 0.611281 0
M  V30 1033 C 103.71 -3.28974 -1.12567 0
M  V30 1034 H 103.033 -3.9568 -0.572484 0
M  V30 1035 H 104.473 -3.92212 -1.61077 0
M  V30 1036 C 102.932 -2.55561 -2.19523 0
M  V30 1037 O 103.462 -2.33111 -3.27143 0
M  V30 1038 N 101.668 -2.15832 -1.94589 0
M  V30 1039 H 101.215 -2.3429 -1.07078 0
M  V30 1040 H 101.173 -1.67034 -2.66359 0
M  V30 1041 N 104.945 -0.338344 -1.53925 0
M  V30 1042 C 105.895 0.536712 -2.21593 0
M  V30 1043 C 106.879 1.07015 -1.20153 0
M  V30 1044 O 108.071 1.00471 -1.45721 0
M  V30 1045 C 105.2 1.68977 -2.98834 0
M  V30 1046 C 104.286 1.17052 -4.07627 0
M  V30 1047 N 104.677 0.372085 -5.0443 0
M  V30 1048 C 102.975 1.44789 -4.21844 0
M  V30 1049 C 103.676 0.0909171 -5.81629 0
M  V30 1050 N 102.652 0.681131 -5.39316 0
M  V30 1051 H 106.454 -0.0804298 -2.9379 0
M  V30 1052 H 103.968 -0.144943 -1.61752 0
M  V30 1053 H 105.965 2.32857 -3.45808 0
M  V30 1054 H 104.625 2.31024 -2.28162 0
M  V30 1055 H 105.636 0.0136217 -5.17898 0
M  V30 1056 H 102.313 2.07313 -3.62391 0
M  V30 1057 H 103.703 -0.552817 -6.69622 0
M  V30 1058 N 106.423 1.57458 -0.0668435 0
M  V30 1059 C 107.669 1.93587 0.6043 0
M  V30 1060 C 108.002 0.946722 1.69561 0
M  V30 1061 O 107.277 -0.0248516 1.94484 0
M  V30 1062 C 107.56 3.40014 1.18585 0
M  V30 1063 C 107.413 4.49685 0.101529 0
M  V30 1064 C 108.732 3.87154 2.09284 0
M  V30 1065 H 105.851 0.703958 0.218202 0
M  V30 1066 H 108.493 1.89542 -0.131804 0
M  V30 1067 H 106.643 3.43592 1.81319 0
M  V30 1068 H 108.315 4.5823 -0.531279 0
M  V30 1069 H 106.558 4.30059 -0.568487 0
M  V30 1070 H 107.229 5.49266 0.54874 0
M  V30 1071 H 109.705 3.85551 1.56491 0
M  V30 1072 H 108.581 4.90231 2.46911 0
M  V30 1073 H 108.842 3.2481 2.99918 0
M  V30 1074 N 107.901 -0.206675 1.56239 0
M  V30 1075 C 109.148 -0.928842 1.79941 0
M  V30 1076 C 109.476 -1.83734 0.638131 0
M  V30 1077 O 108.731 -1.92039 -0.376746 0
M  V30 1078 C 109.03 -1.78675 3.09532 0
M  V30 1079 C 108.696 -1.03022 4.38973 0
M  V30 1080 C 107.358 -0.821302 4.74139 0
M  V30 1081 C 109.71 -0.497081 5.18824 0
M  V30 1082 C 107.038 -0.0675719 5.86661 0
M  V30 1083 C 109.39 0.24338 6.32132 0
M  V30 1084 C 108.054 0.463422 6.65889 0
M  V30 1085 H 107.324 -0.339887 0.658451 0
M  V30 1086 H 109.971 -0.195977 1.90495 0
M  V30 1087 H 108.276 -2.58794 2.94165 0
M  V30 1088 H 109.973 -2.34792 3.25075 0
M  V30 1089 H 106.563 -1.20306 4.11369 0
M  V30 1090 H 110.747 -0.645921 4.92079 0
M  V30 1091 H 106.003 0.112995 6.11296 0
M  V30 1092 H 110.177 0.66393 6.93228 0
M  V30 1093 H 107.804 1.04938 7.52922 0
M  V30 1094 N 109.379 -1.50304 -0.473955 0
M  V30 1095 C 110.607 -1.64902 -1.24959 0
M  V30 1096 C 111.022 -0.331198 -1.85872 0
M  V30 1097 O 110.379 0.68652 -1.69095 0
M  V30 1098 C 110.43 -2.73803 -2.36038 0
M  V30 1099 O 110.151 -4.00477 -1.77624 0
M  V30 1100 C 111.652 -2.99349 -3.26964 0
M  V30 1101 H 108.872 -0.554383 -0.378022 0
M  V30 1102 H 111.416 -1.9651 -0.566054 0
M  V30 1103 H 109.571 -2.44898 -3.00173 0
M  V30 1104 H 109.985 -4.60678 -2.5075 0
M  V30 1105 H 111.459 -3.79217 -4.01121 0
M  V30 1106 H 111.936 -2.10307 -3.85574 0
M  V30 1107 H 112.542 -3.29774 -2.68569 0
M  V30 1108 N 110.857 0.726932 -1.39834 0
M  V30 1109 C 111.767 1.87131 -1.41489 0
M  V30 1110 C 112.783 1.71239 -0.308757 0
M  V30 1111 O 113.959 1.93701 -0.551529 0
M  V30 1112 C 111.024 3.22811 -1.26468 0
M  V30 1113 C 110.085 3.51039 -2.47124 0
M  V30 1114 C 109.318 4.80245 -2.3281 0
M  V30 1115 O 109.541 5.54537 -1.33585 0
M  V30 1116 O 108.475 5.08554 -3.21957 0
M  V30 1117 H 112.301 1.8869 -2.3797 0
M  V30 1118 H 109.886 0.875837 -1.21035 0
M  V30 1119 H 111.768 4.03877 -1.20255 0
M  V30 1120 H 110.443 3.22005 -0.330862 0
M  V30 1121 H 109.35 2.70027 -2.58914 0
M  V30 1122 H 110.683 3.56632 -3.39227 0
M  V30 1123 N 112.336 1.25143 0.95797 0
M  V30 1124 C 113.613 1.00472 1.67823 0
M  V30 1125 C 113.993 -0.470056 2.058 0
M  V30 1126 O 113.341 -1.44663 1.76875 0
M  V30 1127 C 113.551 1.9372 2.90299 0
M  V30 1128 C 114.899 2.21371 3.62326 0
M  V30 1129 O 115.923 1.91451 3.00375 0
M  V30 1130 O 114.782 2.72231 4.7387 0
M  V30 1131 H 111.876 0.380752 0.734137 0
M  V30 1132 H 114.422 1.36283 1.01119 0
M  V30 1133 H 113.194 2.93316 2.59001 0
M  V30 1134 H 112.817 1.58286 3.64735 0
M  V30 1135 N 113.814 -1.1601 1.06675 0
M  V30 1136 C 114.762 -2.22586 0.675157 0
M  V30 1137 C 115.756 -1.66525 -0.310766 0
M  V30 1138 O 116.962 -1.79145 -0.175215 0
M  V30 1139 H 113.337 -0.724855 0.200223 0
M  V30 1140 H 115.308 -2.52899 1.58381 0
M  V30 1141 C 114.057 -3.47604 0.0817162 0
M  V30 1142 H 113.38 -3.91058 0.831484 0
M  V30 1143 H 114.82 -4.23718 -0.154708 0
M  V30 1144 C 113.279 -3.15718 -1.17576 0
M  V30 1145 O 113.809 -3.31878 -2.26318 0
M  V30 1146 N 112.015 -2.69816 -1.07923 0
M  V30 1147 H 111.562 -2.56866 -0.194293 0
M  V30 1148 H 111.52 -2.48855 -1.92141 0
M  V30 1149 N 115.292 -0.849877 -1.32721 0
M  V30 1150 C 116.222 -0.306308 -2.31482 0
M  V30 1151 C 117.203 0.591952 -1.59468 0
M  V30 1152 O 118.388 0.513199 -1.87296 0
M  V30 1153 C 115.518 0.510204 -3.43532 0
M  V30 1154 C 114.472 -0.293209 -4.26994 0
M  V30 1155 C 113.798 0.647743 -5.30762 0
M  V30 1156 C 115.098 -1.51634 -4.99804 0
M  V30 1157 H 116.792 -1.13153 -2.77195 0
M  V30 1158 H 114.338 -0.545553 -1.33266 0
M  V30 1159 H 116.291 0.900856 -4.11658 0
M  V30 1160 H 115.015 1.36874 -2.96535 0
M  V30 1161 H 113.674 -0.665555 -3.60508 0
M  V30 1162 H 113.322 1.50299 -4.8002 0
M  V30 1163 H 113.022 0.11422 -5.87489 0
M  V30 1164 H 114.546 1.03567 -6.01753 0
M  V30 1165 H 115.96 -1.19824 -5.60638 0
M  V30 1166 H 114.357 -1.98745 -5.66234 0
M  V30 1167 H 115.427 -2.28018 -4.27943 0
M  V30 1168 N 116.77 1.45427 -0.607355 0
M  V30 1169 C 117.717 2.3053 0.111625 0
M  V30 1170 C 118.687 1.4209 0.860216 0
M  V30 1171 O 119.872 1.71019 0.845998 0
M  V30 1172 C 117.012 3.26992 1.10319 0
M  V30 1173 C 116.125 4.30535 0.355493 0
M  V30 1174 C 115.26 5.14105 1.33676 0
M  V30 1175 C 114.299 6.09376 0.576862 0
M  V30 1176 N 113.436 6.85727 1.5074 0
M  V30 1177 H 118.276 2.91477 -0.620093 0
M  V30 1178 H 115.813 1.43631 -0.317594 0
M  V30 1179 H 117.771 3.81385 1.6912 0
M  V30 1180 H 116.401 2.67799 1.80232 0
M  V30 1181 H 115.453 3.78805 -0.348023 0
M  V30 1182 H 116.765 4.98235 -0.237423 0
M  V30 1183 H 115.919 5.72897 1.99684 0
M  V30 1184 H 114.658 4.46423 1.9636 0
M  V30 1185 H 113.663 5.49715 -0.0968519 0
M  V30 1186 H 114.888 6.79085 -0.0449341 0
M  V30 1187 H 112.834 6.20735 2.12189 0
M  V30 1188 H 112.751 7.49778 0.967913 0
M  V30 1189 H 114.019 7.4906 2.15706 0
M  V30 1190 N 118.248 0.346503 1.53744 0
M  V30 1191 C 119.195 -0.508914 2.25119 0
M  V30 1192 C 120.165 -1.09315 1.25058 0
M  V30 1193 O 121.35 -1.12921 1.53797 0
M  V30 1194 C 118.49 -1.65246 3.02965 0
M  V30 1195 C 117.603 -1.09525 4.17886 0
M  V30 1196 C 116.738 -2.20634 4.83212 0
M  V30 1197 C 115.777 -1.62279 5.90196 0
M  V30 1198 N 114.914 -2.67143 6.49291 0
M  V30 1199 H 119.754 0.106283 2.9781 0
M  V30 1200 H 117.291 0.0642227 1.4696 0
M  V30 1201 H 119.249 -2.32574 3.4636 0
M  V30 1202 H 117.879 -2.2386 2.32565 0
M  V30 1203 H 116.931 -0.312818 3.79112 0
M  V30 1204 H 118.243 -0.628444 4.94825 0
M  V30 1205 H 117.397 -2.95821 5.29693 0
M  V30 1206 H 116.136 -2.70659 4.05703 0
M  V30 1207 H 115.141 -0.855989 5.43096 0
M  V30 1208 H 116.366 -1.13102 6.69615 0
M  V30 1209 H 114.312 -3.16417 5.74645 0
M  V30 1210 H 114.229 -2.25093 7.21713 0
M  V30 1211 H 115.497 -3.4209 7.00425 0
M  V30 1212 N 119.726 -1.57421 0.075193 0
M  V30 1213 C 120.656 -2.15942 -0.888324 0
M  V30 1214 C 121.637 -1.08737 -1.30806 0
M  V30 1215 O 122.822 -1.36787 -1.37851 0
M  V30 1216 C 119.952 -2.72379 -2.1547 0
M  V30 1217 C 118.906 -3.8478 -1.87425 0
M  V30 1218 C 118.232 -4.27834 -3.20721 0
M  V30 1219 C 119.532 -5.08869 -1.17684 0
M  V30 1220 H 121.226 -2.96705 -0.400799 0
M  V30 1221 H 118.772 -1.42723 -0.191342 0
M  V30 1222 H 120.725 -3.11965 -2.83295 0
M  V30 1223 H 119.449 -1.88841 -2.6647 0
M  V30 1224 H 118.108 -3.45703 -1.22004 0
M  V30 1225 H 117.756 -3.41214 -3.6957 0
M  V30 1226 H 117.456 -5.03605 -3.02746 0
M  V30 1227 H 118.98 -4.70039 -3.89738 0
M  V30 1228 H 120.394 -5.4575 -1.75584 0
M  V30 1229 H 118.791 -5.8994 -1.09956 0
M  V30 1230 H 119.861 -4.84648 -0.156453 0
M  V30 1231 N 121.204 0.198386 -1.56346 0
M  V30 1232 C 122.434 0.934215 -1.84271 0
M  V30 1233 C 122.842 1.77496 -0.655125 0
M  V30 1234 O 122.185 1.7961 0.385488 0
M  V30 1235 C 122.247 1.88278 -3.06254 0
M  V30 1236 C 121.911 1.22431 -4.40295 0
M  V30 1237 C 122.908 0.602839 -5.16393 0
M  V30 1238 C 120.593 1.22915 -4.87029 0
M  V30 1239 C 122.587 -0.0050083 -6.374 0
M  V30 1240 C 120.274 0.617465 -6.07973 0
M  V30 1241 C 121.272 0.00146341 -6.83 0
M  V30 1242 O 120.96 -0.600642 -8.01653 0
M  V30 1243 H 120.692 0.278245 -0.616081 0
M  V30 1244 H 123.246 0.211626 -2.04307 0
M  V30 1245 H 121.476 2.64498 -2.82095 0
M  V30 1246 H 123.165 2.48612 -3.20853 0
M  V30 1247 H 123.931 0.591265 -4.81382 0
M  V30 1248 H 119.81 1.69801 -4.28589 0
M  V30 1249 H 123.354 -0.48643 -6.95902 0
M  V30 1250 H 119.251 0.62653 -6.42452 0
M  V30 1251 H 120.019 -0.497225 -8.16988 0
M  V30 1252 N 122.682 1.50554 0.465978 0
M  V30 1253 C 123.928 1.62038 1.21949 0
M  V30 1254 C 124.261 0.322116 1.9151 0
M  V30 1255 O 123.536 -0.676723 1.82348 0
M  V30 1256 C 123.819 2.80421 2.25912 0
M  V30 1257 C 123.672 4.20144 1.60622 0
M  V30 1258 C 124.991 2.94354 3.27176 0
M  V30 1259 H 122.11 0.589752 0.441998 0
M  V30 1260 H 124.752 1.82956 0.51257 0
M  V30 1261 H 122.902 2.62717 2.86203 0
M  V30 1262 H 124.574 4.49449 1.03889 0
M  V30 1263 H 122.817 4.24165 0.909211 0
M  V30 1264 H 123.488 4.98914 2.36196 0
M  V30 1265 H 125.964 3.10578 2.76913 0
M  V30 1266 H 124.84 3.788 3.97242 0
M  V30 1267 H 125.101 2.05186 3.916 0
M  V30 1268 N 124.16 -0.719506 1.40217 0
M  V30 1269 C 125.385 -1.51371 1.4178 0
M  V30 1270 C 125.81 -1.88091 0.0182355 0
M  V30 1271 O 125.168 -1.52997 -0.972707 0
M  V30 1272 C 125.216 -2.768 2.31115 0
M  V30 1273 O 124.32 -3.73349 1.7517 0
M  V30 1274 H 123.661 -0.456529 0.482159 0
M  V30 1275 H 126.191 -0.88644 1.844 0
M  V30 1276 H 126.201 -3.25371 2.46167 0
M  V30 1277 H 124.876 -2.49407 3.3282 0
M  V30 1278 H 123.453 -3.32179 1.69444 0
M  V30 1279 N 125.638 -1.25649 -0.95132 0
M  V30 1280 C 126.586 -1.06118 -2.06982 0
M  V30 1281 C 127.58 0.00889169 -1.69398 0
M  V30 1282 O 128.786 -0.146988 -1.79399 0
M  V30 1283 H 125.161 -0.326248 -0.677544 0
M  V30 1284 H 127.132 -2.00932 -2.2061 0
M  V30 1285 C 125.881 -0.700145 -3.40578 0
M  V30 1286 H 125.204 -1.51537 -3.69968 0
M  V30 1287 H 126.644 -0.603211 -4.19687 0
M  V30 1288 C 125.103 0.59403 -3.31622 0
M  V30 1289 O 125.633 1.63522 -3.66911 0
M  V30 1290 N 123.839 0.58089 -2.84735 0
M  V30 1291 H 123.386 -0.266783 -2.56215 0
M  V30 1292 H 123.344 1.44695 -2.79125 0
M  V30 1293 N 127.117 1.15442 -1.07289 0
M  V30 1294 C 128.047 2.22312 -0.714107 0
M  V30 1295 C 129.028 1.67467 0.298155 0
M  V30 1296 O 130.213 1.93445 0.171048 0
M  V30 1297 C 127.343 3.47124 -0.110448 0
M  V30 1298 C 126.297 4.14926 -1.04979 0
M  V30 1299 C 125.623 5.33807 -0.308924 0
M  V30 1300 C 126.923 4.64762 -2.38314 0
M  V30 1301 H 128.617 2.5258 -1.6076 0
M  V30 1302 H 126.163 1.21404 -0.77441 0
M  V30 1303 H 128.116 4.21124 0.152482 0
M  V30 1304 H 126.84 3.16187 0.81812 0
M  V30 1305 H 125.499 3.42866 -1.29764 0
M  V30 1306 H 125.147 4.99126 0.623084 0
M  V30 1307 H 124.847 5.80113 -0.935036 0
M  V30 1308 H 126.371 6.10576 -0.0537771 0
M  V30 1309 H 127.785 5.30292 -2.1786 0
M  V30 1310 H 126.182 5.21728 -2.96514 0
M  V30 1311 H 127.252 3.80434 -3.00663 0
M  V30 1312 N 128.595 0.856903 1.32268 0
M  V30 1313 C 129.843 0.460474 1.96784 0
M  V30 1314 C 130.164 -0.987701 1.68135 0
M  V30 1315 O 129.434 -1.69058 0.989765 0
M  V30 1316 H 128.014 0.167289 0.728027 0
M  V30 1317 H 130.676 1.09383 1.61312 0
M  V30 1318 H 129.772 0.60739 3.06133 0
M  V30 1319 N 130.073 -1.45103 0.615059 0
M  V30 1320 C 131.322 -2.01396 0.110718 0
M  V30 1321 C 131.635 -1.48834 -1.26916 0
M  V30 1322 O 132.841 -1.97152 -1.86664 0
M  V30 1323 C 131.297 -3.59599 0.14723 0
M  V30 1324 C 130.905 -4.21158 1.52743 0
M  V30 1325 C 132.649 -4.23428 -0.30148 0
M  V30 1326 C 130.556 -5.71535 1.51992 0
M  V30 1327 H 129.486 -0.753061 0.0376241 0
M  V30 1328 H 132.137 -1.66494 0.77149 0
M  V30 1329 H 130.519 -3.91724 -0.580339 0
M  V30 1330 H 131.693 -4.00594 2.2773 0
M  V30 1331 H 130.008 -3.69552 1.91886 0
M  V30 1332 H 132.605 -5.33703 -0.326392 0
M  V30 1333 H 132.948 -3.94629 -1.32565 0
M  V30 1334 H 133.481 -3.96047 0.373065 0
M  V30 1335 H 130.22 -6.05044 2.52193 0
M  V30 1336 H 129.74 -5.94268 0.81274 0
M  V30 1337 H 131.419 -6.34873 1.24681 0
M  V30 1338 N 131.551 -0.354651 -1.53558 0
M  V30 1339 C 132.799 0.237972 -2.00694 0
M  V30 1340 C 133.12 1.50173 -1.24391 0
M  V30 1341 O 132.39 1.92673 -0.354135 0
M  V30 1342 H 130.97 0.0909256 -0.741446 0
M  V30 1343 H 133.632 -0.478368 -1.88938 0
M  V30 1344 H 132.728 0.47264 -3.085 0
M  V30 1345 N 133.029 1.57378 -0.0835403 0
M  V30 1346 C 133.979 2.09916 0.889905 0
M  V30 1347 C 134.963 1.01151 1.25129 0
M  V30 1348 O 136.155 1.27443 1.2283 0
M  V30 1349 C 133.284 2.67379 2.15322 0
M  V30 1350 C 132.37 3.83167 1.81779 0
M  V30 1351 N 132.761 4.91665 1.18739 0
M  V30 1352 C 131.059 3.92685 2.11459 0
M  V30 1353 C 131.76 5.72409 1.0355 0
M  V30 1354 N 130.736 5.21062 1.54906 0
M  V30 1355 H 134.538 2.91188 0.398378 0
M  V30 1356 H 132.052 1.61956 0.120013 0
M  V30 1357 H 134.049 3.0334 2.8599 0
M  V30 1358 H 132.709 1.87558 2.65051 0
M  V30 1359 H 133.72 5.10784 0.855604 0
M  V30 1360 H 130.397 3.23856 2.63483 0
M  V30 1361 H 131.787 6.69699 0.543425 0
M  V30 1362 N 134.507 -0.190092 1.56449 0
M  V30 1363 C 135.735 -0.925772 1.85033 0
M  V30 1364 C 136.15 -1.76638 0.666658 0
M  V30 1365 O 135.507 -1.78822 -0.364565 0
M  V30 1366 C 135.558 -1.81786 3.12468 0
M  V30 1367 O 135.279 -1.01118 4.26271 0
M  V30 1368 C 136.78 -2.6648 3.54265 0
M  V30 1369 H 134 -0.269872 0.614337 0
M  V30 1370 H 136.544 -0.195837 2.0356 0
M  V30 1371 H 134.699 -2.50136 2.95822 0
M  V30 1372 H 135.113 -1.61956 4.98869 0
M  V30 1373 H 136.587 -3.24722 4.46385 0
M  V30 1374 H 137.064 -3.40434 2.77491 0
M  V30 1375 H 137.67 -2.03493 3.73458 0
M  V30 1376 N 135.985 -1.50799 -0.457987 0
M  V30 1377 C 137.401 -1.38515 -0.792819 0
M  V30 1378 C 137.601 -0.451409 -1.96379 0
M  V30 1379 O 136.657 0.10112 -2.52297 0
M  V30 1380 C 137.97 -2.80149 -1.09258 0
M  V30 1381 C 139.518 -2.89156 -1.19825 0
M  V30 1382 C 139.993 -4.31651 -1.53106 0
M  V30 1383 N 141.484 -4.34662 -1.60072 0
M  V30 1384 C 142.219 -5.41928 -1.87354 0
M  V30 1385 N 141.715 -6.59384 -2.12568 0
M  V30 1386 N 143.508 -5.29385 -1.88965 0
M  V30 1387 H 135.659 -2.10073 0.313511 0
M  V30 1388 H 137.922 -0.944803 0.0777862 0
M  V30 1389 H 137.628 -3.50374 -0.305084 0
M  V30 1390 H 137.502 -3.18204 -2.02549 0
M  V30 1391 H 139.889 -2.19141 -1.97639 0
M  V30 1392 H 139.97 -2.54626 -0.244821 0
M  V30 1393 H 139.614 -5.02208 -0.758266 0
M  V30 1394 H 139.544 -4.63678 -2.49621 0
M  V30 1395 H 142.035 -3.49973 -1.42573 0
M  V30 1396 H 142.348 -7.36934 -2.32696 0
M  V30 1397 H 140.693 -6.62535 -2.09933 0
M  V30 1398 H 143.884 -4.36616 -1.68772 0
M  V30 1399 H 144.057 -6.13066 -2.09891 0
M  V30 1400 N 137.463 0.71206 -1.40597 0
M  V30 1401 C 138.693 1.49894 -1.42181 0
M  V30 1402 C 139.101 1.89189 -0.0208078 0
M  V30 1403 O 138.444 1.56223 0.966436 0
M  V30 1404 C 138.506 2.80215 -2.25211 0
M  V30 1405 C 138.17 2.63221 -3.73582 0
M  V30 1406 C 139.167 2.30249 -4.66135 0
M  V30 1407 C 136.852 2.79376 -4.17438 0
M  V30 1408 C 138.846 2.13645 -6.00529 0
M  V30 1409 C 136.533 2.6239 -5.51901 0
M  V30 1410 C 137.531 2.29573 -6.43262 0
M  V30 1411 O 137.219 2.12719 -7.75246 0
M  V30 1412 H 136.951 0.469031 -0.486812 0
M  V30 1413 H 139.505 0.88564 -1.85326 0
M  V30 1414 H 137.735 3.4389 -1.76852 0
M  V30 1415 H 139.424 3.41947 -2.18694 0
M  V30 1416 H 140.19 2.17398 -4.33547 0
M  V30 1417 H 136.069 3.03906 -3.46644 0
M  V30 1418 H 139.613 1.87953 -6.71803 0
M  V30 1419 H 135.51 2.74826 -5.84073 0
M  V30 1420 H 136.278 2.27611 -7.86216 0
M  V30 1421 N 138.941 1.26152 0.944643 0
M  V30 1422 C 139.904 1.07474 2.0244 0
M  V30 1423 C 140.904 0.0242064 1.60782 0
M  V30 1424 O 142.094 0.267302 1.72137 0
M  V30 1425 C 139.226 0.633956 3.34953 0
M  V30 1426 H 140.419 2.03336 2.20442 0
M  V30 1427 H 137.972 1.087 1.12312 0
M  V30 1428 H 138.707 -0.326811 3.22649 0
M  V30 1429 H 138.492 1.39247 3.66542 0
M  V30 1430 H 139.982 0.52501 4.14287 0
M  V30 1431 N 140.419 -1.14872 1.07899 0
M  V30 1432 C 141.647 -1.89661 0.82683 0
M  V30 1433 C 142.062 -1.78312 -0.620519 0
M  V30 1434 O 141.419 -1.13888 -1.42604 0
M  V30 1435 C 141.47 -3.39817 1.23316 0
M  V30 1436 O 141.191 -3.50845 2.62372 0
M  V30 1437 C 142.692 -4.31615 1.0111 0
M  V30 1438 H 139.912 -0.60092 0.298557 0
M  V30 1439 H 142.456 -1.4551 1.43691 0
M  V30 1440 H 140.611 -3.8161 0.667286 0
M  V30 1441 H 141.025 -4.44076 2.79101 0
M  V30 1442 H 142.499 -5.35367 1.34486 0
M  V30 1443 H 142.976 -4.39169 -0.0522168 0
M  V30 1444 H 143.582 -3.95572 1.56215 0
M  V30 1445 N 141.898 -0.863906 -1.31812 0
M  V30 1446 C 143.126 -0.486111 -2.01108 0
M  V30 1447 C 143.541 0.919755 -1.64882 0
M  V30 1448 O 142.898 1.60162 -0.874893 0
M  V30 1449 C 142.949 -0.626435 -3.56031 0
M  V30 1450 O 142.67 -1.97693 -3.90959 0
M  V30 1451 C 144.171 -0.248857 -4.42601 0
M  V30 1452 H 141.391 -0.190052 -0.643523 0
M  V30 1453 H 143.935 -1.1634 -1.68182 0
M  V30 1454 H 142.09 0.00322717 -3.874 0
M  V30 1455 H 142.504 -1.98034 -4.85678 0
M  V30 1456 H 143.978 -0.398016 -5.50563 0
M  V30 1457 H 144.455 0.811489 -4.31638 0
M  V30 1458 H 145.061 -0.853971 -4.16638 0
M  V30 1459 N 143.376 1.44774 -0.622745 0
M  V30 1460 C 144.624 2.01721 -0.123655 0
M  V30 1461 C 144.945 1.49172 1.25589 0
M  V30 1462 O 144.215 0.691974 1.83272 0
M  V30 1463 H 142.795 0.745777 -0.0427225 0
M  V30 1464 H 145.457 1.77382 -0.807559 0
M  V30 1465 H 144.553 3.11984 -0.0849534 0
M  V30 1466 N 144.854 0.36279 1.53368 0
M  V30 1467 C 145.801 -0.485008 2.25646 0
M  V30 1468 C 146.771 -1.07982 1.2621 0
M  V30 1469 O 147.956 -1.11284 1.54986 0
M  V30 1470 C 145.096 -1.62023 3.04701 0
M  V30 1471 C 144.209 -1.05086 4.19024 0
M  V30 1472 C 143.344 -2.15496 4.85525 0
M  V30 1473 C 142.383 -1.5601 5.91884 0
M  V30 1474 N 141.52 -2.60241 6.52088 0
M  V30 1475 H 146.36 0.137864 2.97681 0
M  V30 1476 H 143.897 0.0798061 1.46883 0
M  V30 1477 H 145.855 -2.28887 3.48807 0
M  V30 1478 H 144.485 -2.2138 2.34927 0
M  V30 1479 H 143.537 -0.27259 3.79422 0
M  V30 1480 H 144.849 -0.575926 4.95464 0
M  V30 1481 H 144.003 -2.90186 5.32801 0
M  V30 1482 H 142.742 -2.66341 4.08551 0
M  V30 1483 H 141.747 -0.798338 5.43973 0
M  V30 1484 H 142.972 -1.05994 6.70777 0
M  V30 1485 H 140.918 -3.10304 5.77968 0
M  V30 1486 H 140.835 -2.17426 7.24059 0
M  V30 1487 H 142.103 -3.34641 7.04014 0
M  V30 1488 N 146.332 -1.57332 0.0918853 0
M  V30 1489 C 147.572 -1.96117 -0.575988 0
M  V30 1490 C 147.936 -0.972499 -1.65549 0
M  V30 1491 O 149.137 -1.24872 -2.38034 0
M  V30 1492 C 147.408 -3.39407 -1.11973 0
M  V30 1493 S 148.967 -4.00185 -1.79992 0
M  V30 1494 H 145.785 -0.685682 -0.188045 0
M  V30 1495 H 148.387 -1.94755 0.170525 0
M  V30 1496 H 147.091 -4.09131 -0.322504 0
M  V30 1497 H 146.622 -3.44358 -1.90214 0
M  V30 1498 H 148.637 -3.88728 -3.08391 0
M  V30 1499 N 147.81 0.181792 -1.56548 0
M  V30 1500 C 148.72 1.24538 -1.98815 0
M  V30 1501 C 149.736 1.49045 -0.897861 0
M  V30 1502 O 150.912 1.61399 -1.20467 0
M  V30 1503 C 147.977 2.56683 -2.33055 0
M  V30 1504 C 147.038 2.40131 -3.55859 0
M  V30 1505 C 146.271 3.65975 -3.88456 0
M  V30 1506 O 146.494 4.70711 -3.22161 0
M  V30 1507 O 145.428 3.6071 -4.81842 0
M  V30 1508 H 149.254 0.916647 -2.89536 0
M  V30 1509 H 146.839 0.387842 -1.44278 0
M  V30 1510 H 148.721 3.34655 -2.56094 0
M  V30 1511 H 147.396 2.89157 -1.45498 0
M  V30 1512 H 146.303 1.60226 -3.38051 0
M  V30 1513 H 147.636 2.12585 -4.43924 0
M  V30 1514 N 149.288 1.51039 0.449983 0
M  V30 1515 C 150.218 1.74379 1.55288 0
M  V30 1516 C 151.199 0.593236 1.5942 0
M  V30 1517 O 152.384 0.834625 1.7535 0
M  V30 1518 C 149.514 1.85728 2.93466 0
M  V30 1519 C 148.468 3.01078 3.04197 0
M  V30 1520 C 147.794 2.97595 4.44231 0
M  V30 1521 C 149.094 4.41254 2.7945 0
M  V30 1522 H 150.788 2.66725 1.36008 0
M  V30 1523 H 148.334 1.2835 0.652864 0
M  V30 1524 H 150.287 2.0064 3.70569 0
M  V30 1525 H 149.011 0.900207 3.13949 0
M  V30 1526 H 147.67 2.85851 2.29531 0
M  V30 1527 H 147.318 1.99691 4.61663 0
M  V30 1528 H 147.018 3.75046 4.52343 0
M  V30 1529 H 148.542 3.14583 5.23326 0
M  V30 1530 H 149.956 4.56897 3.46292 0
M  V30 1531 H 148.353 5.20315 2.98985 0
M  V30 1532 H 149.423 4.52164 1.75144 0
M  V30 1533 N 150.766 -0.704594 1.40972 0
M  V30 1534 C 151.676 -1.84856 1.44448 0
M  V30 1535 C 152.692 -1.70726 0.335961 0
M  V30 1536 O 153.868 -1.92799 0.582276 0
M  V30 1537 C 150.933 -3.20758 1.31587 0
M  V30 1538 C 149.994 -3.47063 2.52677 0
M  V30 1539 C 149.227 -4.76481 2.4042 0
M  V30 1540 O 149.45 -5.52341 1.42391 0
M  V30 1541 O 148.384 -5.03367 3.30007 0
M  V30 1542 H 152.21 -1.8488 2.40942 0
M  V30 1543 H 149.795 -0.85647 1.22413 0
M  V30 1544 H 151.677 -4.01913 1.26665 0
M  V30 1545 H 150.352 -3.21438 0.382049 0
M  V30 1546 H 149.259 -2.65873 2.63177 0
M  V30 1547 H 150.592 -3.5119 3.44858 0
M  V30 1548 N 152.244 -1.26651 -0.937939 0
M  V30 1549 C 153.192 -1.08308 -2.05845 0
M  V30 1550 C 154.186 -0.0090757 -1.69398 0
M  V30 1551 O 155.392 -0.166007 -1.79233 0
M  V30 1552 H 151.767 -0.333416 -0.674046 0
M  V30 1553 H 153.738 -2.03261 -2.18467 0
M  V30 1554 C 152.487 -0.736229 -3.39816 0
M  V30 1555 H 151.81 -1.55453 -3.6834 0
M  V30 1556 H 153.25 -0.64769 -4.19024 0
M  V30 1557 C 151.709 0.558824 -3.32233 0
M  V30 1558 O 152.239 1.59621 -3.68624 0
M  V30 1559 N 150.445 0.550657 -2.85335 0
M  V30 1560 H 149.992 -0.293943 -2.55917 0
M  V30 1561 H 149.95 1.41726 -2.80644 0
M  V30 1562 N 153.722 1.14298 -1.08507 0
M  V30 1563 C 154.962 1.87016 -0.824894 0
M  V30 1564 C 155.326 1.81099 0.637735 0
M  V30 1565 O 156.527 2.48963 1.01345 0
M  V30 1566 C 154.798 3.31584 -1.33368 0
M  V30 1567 S 156.357 4.21903 -1.20596 0
M  V30 1568 H 153.175 0.645259 -0.2986 0
M  V30 1569 H 155.777 1.37822 -1.38656 0
M  V30 1570 H 154.481 3.33439 -2.39262 0
M  V30 1571 H 154.012 3.85836 -0.767734 0
M  V30 1572 H 156.027 4.95971 -0.150891 0
M  V30 1573 N 155.201 0.870884 1.31352 0
M  V30 1574 C 156.133 0.28455 2.27427 0
M  V30 1575 C 157.146 -0.552927 1.53123 0
M  V30 1576 O 158.335 -0.374771 1.74521 0
M  V30 1577 C 155.435 -0.615164 3.3327 0
M  V30 1578 C 154.608 0.190079 4.36987 0
M  V30 1579 C 153.667 -0.637917 5.22319 0
M  V30 1580 O 152.693 -0.065626 5.69162 0
M  V30 1581 N 153.895 -1.94973 5.46778 0
M  V30 1582 H 156.66 1.11017 2.7838 0
M  V30 1583 H 154.221 0.732458 1.44384 0
M  V30 1584 H 156.213 -1.1748 3.87273 0
M  V30 1585 H 154.783 -1.34146 2.82354 0
M  V30 1586 H 154.003 0.931165 3.83044 0
M  V30 1587 H 155.291 0.742579 5.03352 0
M  V30 1588 H 154.689 -2.4378 5.10478 0
M  V30 1589 H 153.246 -2.45713 6.03712 0
M  V30 1590 N 156.679 -1.44442 0.630414 0
M  V30 1591 C 158.09 -1.85434 0.217063 0
M  V30 1592 C 158.441 -1.52748 -1.23136 0
M  V30 1593 O 157.566 -0.965205 -1.93682 0
M  V30 1594 C 158.161 -3.36581 0.387168 0
M  V30 1595 C 156.72 -3.76389 0.0283297 0
M  V30 1596 C 155.867 -2.68296 0.700889 0
M  V30 1597 H 158.818 -1.34919 0.83562 0
M  V30 1598 H 158.839 -3.78657 -0.374086 0
M  V30 1599 H 158.351 -3.60339 1.44144 0
M  V30 1600 H 156.452 -3.58246 -1.02423 0
M  V30 1601 H 156.565 -4.77095 0.437892 0
M  V30 1602 H 154.929 -2.54335 0.136267 0
M  V30 1603 H 155.712 -2.94887 1.75774 0
M  V30 1604 N 158.157 -0.370918 -1.53173 0
M  V30 1605 C 159.404 0.217102 -2.01333 0
M  V30 1606 C 159.732 1.48338 -1.25802 0
M  V30 1607 O 158.987 1.92698 -0.34146 0
M  V30 1608 C 159.286 0.549696 -3.53147 0
M  V30 1609 C 158.952 -0.622872 -4.46577 0
M  V30 1610 C 157.614 -0.944595 -4.71838 0
M  V30 1611 C 159.966 -1.40819 -5.01816 0
M  V30 1612 C 157.294 -2.05351 -5.49589 0
M  V30 1613 C 159.646 -2.50757 -5.80778 0
M  V30 1614 C 158.31 -2.83458 -6.04324 0
M  V30 1615 H 157.58 0.0794431 -0.736729 0
M  V30 1616 H 160.227 -0.504481 -1.84736 0
M  V30 1617 H 158.532 1.35237 -3.6772 0
M  V30 1618 H 160.229 1.017 -3.87889 0
M  V30 1619 H 156.819 -0.36209 -4.27068 0
M  V30 1620 H 161.003 -1.17289 -4.82242 0
M  V30 1621 H 156.259 -2.3108 -5.6605 0
M  V30 1622 H 160.433 -3.12022 -6.22588 0
M  V30 1623 H 158.06 -3.69508 -6.64355 0
M  V30 1624 N 159.635 1.57281 -0.100228 0
M  V30 1625 C 160.881 1.94826 0.563101 0
M  V30 1626 C 161.214 0.982475 1.67514 0
M  V30 1627 O 160.489 0.0164069 1.94493 0
M  V30 1628 C 160.772 3.42453 1.11346 0
M  V30 1629 C 160.625 4.498 0.00612081 0
M  V30 1630 C 161.944 3.91506 2.01024 0
M  V30 1631 H 159.063 0.708428 0.203221 0
M  V30 1632 H 161.705 1.8922 -0.171979 0
M  V30 1633 H 159.855 3.47361 1.7399 0
M  V30 1634 H 161.527 4.57 -0.628357 0
M  V30 1635 H 159.77 4.28756 -0.659581 0
M  V30 1636 H 160.441 5.50306 0.432109 0
M  V30 1637 H 162.917 3.88784 1.48278 0
M  V30 1638 H 161.793 4.95358 2.36457 0
M  V30 1639 H 162.054 3.31099 2.92961 0
M  V30 1640 N 161.113 -0.173488 1.56642 0
M  V30 1641 C 162.359 -0.891784 1.8214 0
M  V30 1642 C 162.692 -1.8199 0.677736 0
M  V30 1643 O 161.967 -1.91842 -0.320446 0
M  V30 1644 C 162.25 -1.68933 3.18015 0
M  V30 1645 C 162.103 -0.784487 4.42906 0
M  V30 1646 C 163.422 -2.65748 3.50808 0
M  V30 1647 H 160.541 -0.322761 0.662567 0
M  V30 1648 H 163.183 -0.158095 1.89341 0
M  V30 1649 H 161.333 -2.31482 3.12007 0
M  V30 1650 H 163.005 -0.172046 4.60979 0
M  V30 1651 H 161.248 -0.0924117 4.33702 0
M  V30 1652 H 161.919 -1.37799 5.34524 0
M  V30 1653 H 164.395 -2.13327 3.57255 0
M  V30 1654 H 163.271 -3.18619 4.4696 0
M  V30 1655 H 163.532 -3.45842 2.75401 0
M  V30 1656 N 162.591 -1.51276 -0.441967 0
M  V30 1657 C 163.501 -1.75092 -1.56141 0
M  V30 1658 C 164.517 -0.634963 -1.62001 0
M  V30 1659 O 165.693 -0.916686 -1.79329 0
M  V30 1660 C 162.758 -1.86666 -2.92158 0
M  V30 1661 C 161.819 -3.10506 -2.96453 0
M  V30 1662 C 161.052 -3.21519 -4.25982 0
M  V30 1663 O 161.275 -2.38586 -5.18105 0
M  V30 1664 O 160.209 -4.14465 -4.36466 0
M  V30 1665 H 164.035 -2.70044 -1.38961 0
M  V30 1666 H 161.62 -1.35722 -0.624499 0
M  V30 1667 H 163.502 -1.96292 -3.72891 0
M  V30 1668 H 162.177 -0.949014 -3.09476 0
M  V30 1669 H 161.084 -3.06363 -2.14692 0
M  V30 1670 H 162.417 -4.01945 -2.84079 0
M  V30 1671 N 164.069 0.697108 -1.41344 0
M  V30 1672 C 165.297 1.48593 -1.43972 0
M  V30 1673 C 165.712 1.88747 -0.0445612 0
M  V30 1674 O 165.069 1.56682 0.935785 0
M  V30 1675 C 165.12 2.74946 -2.34706 0
M  V30 1676 O 164.841 2.36484 -3.68791 0
M  V30 1677 C 166.342 3.687 -2.46121 0
M  V30 1678 H 163.562 0.457964 -0.490418 0
M  V30 1679 H 166.106 0.858429 -1.8561 0
M  V30 1680 H 164.261 3.33937 -1.9638 0
M  V30 1681 H 164.675 3.17918 -4.17167 0
M  V30 1682 H 166.149 4.54145 -3.13777 0
M  V30 1683 H 166.626 4.13081 -1.49199 0
M  V30 1684 H 167.232 3.15613 -2.85076 0
M  V30 1685 N 165.547 1.27147 0.931209 0
M  V30 1686 C 166.477 1.12081 2.04842 0
M  V30 1687 C 167.458 0.0232364 1.70084 0
M  V30 1688 O 168.643 0.197085 1.93197 0
M  V30 1689 C 165.773 0.76354 3.38803 0
M  V30 1690 C 164.727 1.81396 3.87659 0
M  V30 1691 C 164.053 1.31075 5.18385 0
M  V30 1692 C 165.353 3.21739 4.11438 0
M  V30 1693 H 167.047 2.05537 2.17703 0
M  V30 1694 H 164.593 0.989603 1.04608 0
M  V30 1695 H 166.546 0.644982 4.16435 0
M  V30 1696 H 165.27 -0.206727 3.25945 0
M  V30 1697 H 163.929 1.92136 3.12217 0
M  V30 1698 H 163.577 0.330037 5.01916 0
M  V30 1699 H 163.277 2.013 5.52044 0
M  V30 1700 H 164.801 1.20506 5.98591 0
M  V30 1701 H 166.215 3.14019 4.79651 0
M  V30 1702 H 164.612 3.89644 4.56397 0
M  V30 1703 H 165.682 3.67054 3.16859 0
M  V30 1704 N 167.025 -1.13721 1.09112 0
M  V30 1705 C 167.975 -2.17082 0.697091 0
M  V30 1706 C 168.959 -1.58321 -0.286923 0
M  V30 1707 O 170.151 -1.7673 -0.0978008 0
M  V30 1708 C 167.28 -3.43105 0.115729 0
M  V30 1709 C 166.366 -4.0888 1.12596 0
M  V30 1710 N 166.757 -4.4987 2.31195 0
M  V30 1711 C 165.055 -4.35471 0.963366 0
M  V30 1712 C 165.756 -5.01094 2.95431 0
M  V30 1713 N 164.732 -4.95751 2.23006 0
M  V30 1714 H 168.534 -2.46524 1.6001 0
M  V30 1715 H 166.048 -1.30481 0.966869 0
M  V30 1716 H 168.045 -4.16491 -0.184555 0
M  V30 1717 H 166.705 -3.15138 -0.78217 0
M  V30 1718 H 167.716 -4.42678 2.68806 0
M  V30 1719 H 164.393 -4.17328 0.119878 0
M  V30 1720 H 165.783 -5.4263 3.96236 0
M  V30 1721 N 168.503 -0.877838 -1.30888 0
M  V30 1722 C 169.751 -0.491723 -1.96027 0
M  V30 1723 C 170.072 0.960827 -1.69685 0
M  V30 1724 O 169.342 1.67462 -1.01654 0
M  V30 1725 H 167.922 -0.17885 -0.725273 0
M  V30 1726 H 170.584 -1.11935 -1.59551 0
M  V30 1727 H 169.68 -0.656016 -3.05128 0
M  V30 1728 N 169.982 1.44106 -0.638065 0
M  V30 1729 C 170.929 2.30715 0.062701 0
M  V30 1730 C 171.899 1.43882 0.829883 0
M  V30 1731 O 173.084 1.72775 0.809532 0
M  V30 1732 C 170.224 3.29258 1.03358 0
M  V30 1733 C 169.337 4.31192 0.26409 0
M  V30 1734 C 168.472 5.16825 1.22741 0
M  V30 1735 C 167.511 6.10462 0.447475 0
M  V30 1736 N 166.648 6.8877 1.36161 0
M  V30 1737 H 171.488 2.90096 -0.681781 0
M  V30 1738 H 169.025 1.42925 -0.347988 0
M  V30 1739 H 170.983 3.84886 1.60992 0
M  V30 1740 H 169.613 2.71562 1.74511 0
M  V30 1741 H 168.665 3.77981 -0.428295 0
M  V30 1742 H 169.977 4.97619 -0.343052 0
M  V30 1743 H 169.131 5.77004 1.87487 0
M  V30 1744 H 167.87 4.50488 1.86847 0
M  V30 1745 H 166.875 5.49386 -0.213433 0
M  V30 1746 H 168.1 6.78837 -0.188968 0
M  V30 1747 H 166.046 6.25096 1.98975 0
M  V30 1748 H 165.963 7.51663 0.808656 0
M  V30 1749 H 167.231 7.53467 1.99769 0
M  V30 1750 N 171.46 0.379036 1.52974 0
M  V30 1751 C 172.709 -0.207612 2.00629 0
M  V30 1752 C 173.022 -1.48758 1.27006 0
M  V30 1753 O 174.228 -2.15365 1.65318 0
M  V30 1754 C 172.684 -0.42053 3.57435 0
M  V30 1755 C 172.292 0.845587 4.39948 0
M  V30 1756 C 174.036 -0.964102 4.13407 0
M  V30 1757 C 171.943 0.601513 5.88333 0
M  V30 1758 H 170.873 -0.0813591 0.749598 0
M  V30 1759 H 173.524 0.499853 1.76561 0
M  V30 1760 H 171.906 -1.18959 3.7771 0
M  V30 1761 H 173.08 1.61848 4.31442 0
M  V30 1762 H 171.395 1.31336 3.95145 0
M  V30 1763 H 173.992 -1.16225 5.21916 0
M  V30 1764 H 174.335 -1.93019 3.68849 0
M  V30 1765 H 174.868 -0.25487 3.96983 0
M  V30 1766 H 171.607 1.53831 6.37194 0
M  V30 1767 H 171.127 -0.132628 5.99653 0
M  V30 1768 H 172.806 0.232134 6.46583 0
M  V30 1769 N 172.938 -1.57226 0.108567 0
M  V30 1770 C 173.901 -2.13602 -0.831082 0
M  V30 1771 C 174.901 -1.06841 -1.20173 0
M  V30 1772 O 176.091 -1.32666 -1.12895 0
M  V30 1773 C 173.223 -2.66769 -2.12243 0
M  V30 1774 H 174.416 -2.97951 -0.341317 0
M  V30 1775 H 171.969 -1.55667 -0.14057 0
M  V30 1776 H 172.704 -1.85977 -2.65675 0
M  V30 1777 H 172.489 -3.44839 -1.86625 0
M  V30 1778 H 173.979 -3.10332 -2.79435 0
M  V30 1779 N 174.416 0.165178 -1.56732 0
M  V30 1780 C 175.662 0.882112 -1.82611 0
M  V30 1781 C 175.995 1.81628 -0.687378 0
M  V30 1782 O 175.27 1.92009 0.310267 0
M  V30 1783 C 175.553 1.67245 -3.18906 0
M  V30 1784 C 175.406 0.760987 -4.43316 0
M  V30 1785 C 176.725 2.63884 -3.52212 0
M  V30 1786 H 173.844 0.319242 -0.664269 0
M  V30 1787 H 176.486 0.148052 -1.89422 0
M  V30 1788 H 174.636 2.29824 -3.1323 0
M  V30 1789 H 176.308 0.147596 -4.61064 0
M  V30 1790 H 174.551 0.0694102 -4.33744 0
M  V30 1791 H 175.222 1.34962 -5.35247 0
M  V30 1792 H 177.698 2.11429 -3.58381 0
M  V30 1793 H 176.574 3.16245 -4.48643 0
M  V30 1794 H 176.835 3.44377 -2.77231 0
M  V30 1795 N 175.894 1.51508 0.433938 0
M  V30 1796 C 176.857 1.72473 1.50949 0
M  V30 1797 C 177.857 0.594725 1.49398 0
M  V30 1798 O 179.047 0.862315 1.5136 0
M  V30 1799 C 176.179 1.78431 2.90474 0
M  V30 1800 H 177.372 2.68467 1.33662 0
M  V30 1801 H 174.925 1.41549 0.662836 0
M  V30 1802 H 175.66 0.842645 3.13161 0
M  V30 1803 H 175.445 2.60558 2.93005 0
M  V30 1804 H 176.935 1.96479 3.68491 0
M  V30 1805 N 177.372 -0.689602 1.41712 0
M  V30 1806 C 178.322 -1.79571 1.40493 0
M  V30 1807 C 179.306 -1.58473 0.278409 0
M  V30 1808 O 180.498 -1.69204 0.519532 0
M  V30 1809 C 177.627 -3.17923 1.29536 0
M  V30 1810 C 176.713 -3.44695 2.47075 0
M  V30 1811 N 177.104 -3.42132 3.72531 0
M  V30 1812 C 175.402 -3.75269 2.41017 0
M  V30 1813 C 176.103 -3.67976 4.50521 0
M  V30 1814 N 175.079 -3.88014 3.80718 0
M  V30 1815 H 178.881 -1.75961 2.35404 0
M  V30 1816 H 176.395 -0.889839 1.35851 0
M  V30 1817 H 178.392 -3.97167 1.26745 0
M  V30 1818 H 177.052 -3.22741 0.356153 0
M  V30 1819 H 178.063 -3.22375 4.05333 0
M  V30 1820 H 174.74 -3.87421 1.55599 0
M  V30 1821 H 176.13 -3.7208 5.59469 0
M  V30 1822 N 178.85 -1.27639 -0.924453 0
M  V30 1823 C 179.798 -1.10485 -2.04685 0
M  V30 1824 C 180.792 -0.0270421 -1.69378 0
M  V30 1825 O 181.998 -0.185008 -1.79047 0
M  V30 1826 H 178.373 -0.340546 -0.670472 0
M  V30 1827 H 180.344 -2.05566 -2.16298 0
M  V30 1828 C 179.093 -0.772229 -3.39016 0
M  V30 1829 H 178.416 -1.59351 -3.66671 0
M  V30 1830 H 179.856 -0.692097 -4.18313 0
M  V30 1831 C 178.315 0.523554 -3.32807 0
M  V30 1832 O 178.845 1.55702 -3.70297 0
M  V30 1833 N 177.051 0.520363 -2.85903 0
M  V30 1834 H 176.598 -0.32107 -2.55591 0
M  V30 1835 H 176.556 1.38742 -2.82131 0
M  V30 1836 N 180.328 1.1314 -1.09713 0
M  V30 1837 C 181.576 1.84119 -0.833338 0
M  V30 1838 C 181.897 1.84097 0.642904 0
M  V30 1839 O 181.167 1.29881 1.46655 0
M  V30 1840 H 179.747 0.681766 -0.305293 0
M  V30 1841 H 182.409 1.37038 -1.38588 0
M  V30 1842 H 181.505 2.88543 -1.18951 0
M  V30 1843 N 181.806 0.884767 1.30421 0
M  V30 1844 C 182.716 0.355398 2.31892 0
M  V30 1845 C 183.732 -0.542261 1.65335 0
M  V30 1846 O 184.908 -0.435432 1.96637 0
M  V30 1847 C 181.973 -0.421661 3.44126 0
M  V30 1848 C 181.034 0.505727 4.26311 0
M  V30 1849 C 180.267 -0.234343 5.33185 0
M  V30 1850 O 180.49 -1.46045 5.51386 0
M  V30 1851 O 179.424 0.415443 6.00465 0
M  V30 1852 H 183.25 1.19685 2.79122 0
M  V30 1853 H 180.835 0.648596 1.34587 0
M  V30 1854 H 182.717 -0.861641 4.12497 0
M  V30 1855 H 181.392 -1.23942 2.99032 0
M  V30 1856 H 180.299 0.994513 3.60639 0
M  V30 1857 H 181.632 1.28948 4.75009 0
M  V30 1858 N 183.284 -1.43765 0.645699 0
M  V30 1859 C 184.214 -2.33471 -0.0370477 0
M  V30 1860 C 185.195 -1.49042 -0.819779 0
M  V30 1861 O 186.38 -1.77726 -0.782758 0
M  V30 1862 C 183.51 -3.32311 -1.0093 0
M  V30 1863 C 182.464 -4.2667 -0.337201 0
M  V30 1864 C 181.79 -5.1549 -1.42037 0
M  V30 1865 C 183.09 -5.16657 0.765706 0
M  V30 1866 H 184.784 -2.90809 0.712069 0
M  V30 1867 H 182.33 -1.39834 0.343876 0
M  V30 1868 H 184.283 -3.9396 -1.49578 0
M  V30 1869 H 183.007 -2.73213 -1.78948 0
M  V30 1870 H 181.666 -3.66374 0.128771 0
M  V30 1871 H 181.314 -4.52735 -2.1918 0
M  V30 1872 H 181.014 -5.79438 -0.975966 0
M  V30 1873 H 182.538 -5.80012 -1.90838 0
M  V30 1874 H 183.952 -5.72158 0.361702 0
M  V30 1875 H 182.349 -5.89286 1.13413 0
M  V30 1876 H 183.419 -4.56796 1.62683 0
M  V30 1877 N 184.763 -0.387143 -1.52771 0
M  V30 1878 C 186.009 0.196025 -2.0185 0
M  V30 1879 C 186.342 1.46641 -1.27319 0
M  V30 1880 O 185.617 1.90889 -0.373032 0
M  V30 1881 C 185.9 0.466136 -3.5707 0
M  V30 1882 C 185.753 -0.819385 -4.42274 0
M  V30 1883 C 187.072 1.25768 -4.21747 0
M  V30 1884 H 184.191 0.0697708 -0.73369 0
M  V30 1885 H 186.833 -0.516286 -1.82851 0
M  V30 1886 H 184.983 1.07293 -3.7339 0
M  V30 1887 H 186.655 -1.4563 -4.37709 0
M  V30 1888 H 184.898 -1.43517 -4.09372 0
M  V30 1889 H 185.569 -0.585065 -5.48891 0
M  V30 1890 H 188.045 0.744167 -4.09391 0
M  V30 1891 H 186.921 1.41541 -5.30337 0
M  V30 1892 H 187.182 2.27228 -3.79236 0
M  V30 1893 N 186.241 1.57166 -0.116904 0
M  V30 1894 C 187.189 2.16457 0.851418 0
M  V30 1895 C 188.183 1.11323 1.27686 0
M  V30 1896 O 189.389 1.2963 1.24884 0
M  V30 1897 H 185.764 0.69271 0.292672 0
M  V30 1898 H 187.735 2.96605 0.32685 0
M  V30 1899 C 186.484 2.77689 2.09246 0
M  V30 1900 H 185.807 3.58285 1.77402 0
M  V30 1901 H 187.247 3.22716 2.7501 0
M  V30 1902 C 185.706 1.74667 2.88085 0
M  V30 1903 O 186.236 1.19877 3.83396 0
M  V30 1904 N 184.442 1.44656 2.52038 0
M  V30 1905 H 183.989 1.89402 1.74599 0
M  V30 1906 H 183.947 0.759675 3.05084 0
M  V30 1907 N 187.719 -0.156864 1.56817 0
M  V30 1908 C 188.682 -1.17781 1.96622 0
M  V30 1909 C 189.682 -1.36401 0.851555 0
M  V30 1910 O 190.872 -1.33561 1.11836 0
M  V30 1911 C 188.004 -2.54008 2.27361 0
M  V30 1912 H 189.197 -0.836564 2.87996 0
M  V30 1913 H 186.75 -0.39985 1.51099 0
M  V30 1914 H 187.485 -2.9312 1.38748 0
M  V30 1915 H 187.27 -2.41856 3.08623 0
M  V30 1916 H 188.76 -3.27558 2.59029 0
M  V30 1917 N 189.197 -1.51736 -0.425897 0
M  V30 1918 C 190.16 -1.73271 -1.50032 0
M  V30 1919 C 191.16 -0.602639 -1.4908 0
M  V30 1920 O 192.35 -0.87033 -1.509 0
M  V30 1921 C 189.482 -1.79969 -2.89523 0
M  V30 1922 H 190.675 -2.69172 -1.32237 0
M  V30 1923 H 188.228 -1.41899 -0.65532 0
M  V30 1924 H 188.963 -0.859241 -3.1271 0
M  V30 1925 H 188.748 -2.62109 -2.91619 0
M  V30 1926 H 190.238 -1.9843 -3.67444 0
M  V30 1927 N 190.675 0.682077 -1.42076 0
M  V30 1928 C 192.091 0.994324 -1.24841 0
M  V30 1929 C 192.291 2.0096 -0.147389 0
M  V30 1930 O 191.347 2.47822 0.483782 0
M  V30 1931 C 192.66 1.50607 -2.60265 0
M  V30 1932 C 194.208 1.62421 -2.6756 0
M  V30 1933 C 194.683 2.16994 -4.03333 0
M  V30 1934 N 196.174 2.24337 -4.0525 0
M  V30 1935 C 196.909 2.67621 -5.07116 0
M  V30 1936 N 196.405 3.1041 -6.19368 0
M  V30 1937 N 198.198 2.67305 -4.94474 0
M  V30 1938 H 190.349 0.00973908 -2.12398 0
M  V30 1939 H 192.612 0.0668593 -0.945639 0
M  V30 1940 H 192.318 0.834583 -3.41654 0
M  V30 1941 H 192.192 2.48602 -2.83684 0
M  V30 1942 H 194.579 2.28678 -1.86521 0
M  V30 1943 H 194.66 0.629352 -2.47937 0
M  V30 1944 H 194.304 1.51349 -4.84826 0
M  V30 1945 H 194.234 3.17258 -4.20304 0
M  V30 1946 H 196.725 1.94158 -3.24209 0
M  V30 1947 H 197.038 3.42103 -6.92954 0
M  V30 1948 H 195.383 3.08286 -6.22884 0
M  V30 1949 H 198.574 2.33233 -4.05857 0
M  V30 1950 H 198.747 3.00718 -5.73997 0
M  V30 1951 N 192.153 1.28127 0.917671 0
M  V30 1952 C 193.083 1.14248 2.03641 0
M  V30 1953 C 194.064 0.0412748 1.7005 0
M  V30 1954 O 195.249 0.217566 1.92977 0
M  V30 1955 C 192.379 0.799431 3.37974 0
M  V30 1956 C 191.333 1.85497 3.85713 0
M  V30 1957 C 190.659 1.36565 5.16966 0
M  V30 1958 C 191.959 3.26085 4.08002 0
M  V30 1959 H 193.653 2.07835 2.15511 0
M  V30 1960 H 191.199 1.00064 1.03553 0
M  V30 1961 H 193.152 0.689114 4.15727 0
M  V30 1962 H 191.876 -0.172145 3.26146 0
M  V30 1963 H 190.535 1.95437 3.10161 0
M  V30 1964 H 190.183 0.383253 5.01538 0
M  V30 1965 H 189.883 2.07143 5.49878 0
M  V30 1966 H 191.407 1.26848 5.97279 0
M  V30 1967 H 192.821 3.19089 4.76293 0
M  V30 1968 H 191.218 3.94462 4.52238 0
M  V30 1969 H 192.288 3.70394 3.12948 0
M  V30 1970 N 193.631 -1.12557 1.10312 0
M  V30 1971 C 195.047 -1.36036 0.834649 0
M  V30 1972 C 195.247 -1.93946 -0.546539 0
M  V30 1973 O 194.303 -2.16484 -1.29966 0
M  V30 1974 C 195.616 -2.30312 1.9333 0
M  V30 1975 C 197.164 -2.43906 1.9616 0
M  V30 1976 C 197.639 -3.41496 3.05195 0
M  V30 1977 N 199.13 -3.49053 3.04494 0
M  V30 1978 C 199.865 -4.24471 3.85502 0
M  V30 1979 N 199.361 -5.02966 4.76442 0
M  V30 1980 N 201.154 -4.19864 3.73725 0
M  V30 1981 H 193.305 -0.733246 1.99342 0
M  V30 1982 H 195.568 -0.385234 0.866198 0
M  V30 1983 H 195.274 -1.94933 2.92735 0
M  V30 1984 H 195.148 -3.30421 1.81939 0
M  V30 1985 H 197.535 -2.78567 0.973886 0
M  V30 1986 H 197.616 -1.4369 2.11629 0
M  V30 1987 H 197.26 -3.07565 4.04186 0
M  V30 1988 H 197.19 -4.41539 2.86968 0
M  V30 1989 H 199.681 -2.93053 2.38596 0
M  V30 1990 H 199.994 -5.57846 5.34815 0
M  V30 1991 H 198.339 -5.02167 4.80472 0
M  V30 1992 H 201.53 -3.57623 3.02032 0
M  V30 1993 H 201.703 -4.78386 4.37093 0
M  V30 1994 N 195.109 -0.891671 -1.2995 0
M  V30 1995 C 196.056 -0.361736 -2.27948 0
M  V30 1996 C 197.026 0.551761 -1.56668 0
M  V30 1997 O 198.211 0.478736 -1.84696 0
M  V30 1998 C 195.351 0.411825 -3.42634 0
M  V30 1999 C 194.464 -0.531651 -4.28716 0
M  V30 2000 C 193.599 0.258167 -5.30572 0
M  V30 2001 C 192.638 -0.680349 -6.08307 0
M  V30 2002 N 191.775 0.0745613 -7.0206 0
M  V30 2003 H 196.615 -1.20254 -2.72659 0
M  V30 2004 H 194.152 -0.604352 -1.34112 0
M  V30 2005 H 196.11 0.876304 -4.07893 0
M  V30 2006 H 194.74 1.21715 -2.98974 0
M  V30 2007 H 193.792 -1.11463 -3.63703 0
M  V30 2008 H 195.104 -1.25038 -4.82874 0
M  V30 2009 H 194.258 0.784204 -6.0161 0
M  V30 2010 H 192.997 1.01008 -4.77126 0
M  V30 2011 H 192.002 -1.21796 -5.3614 0
M  V30 2012 H 193.227 -1.43145 -6.63842 0
M  V30 2013 H 191.173 0.808883 -6.50994 0
M  V30 2014 H 191.09 -0.584409 -7.53738 0
M  V30 2015 H 192.358 0.581123 -7.77331 0
M  V30 2016 N 196.587 1.43421 -0.653314 0
M  V30 2017 C 197.534 2.30768 0.0382271 0
M  V30 2018 C 198.504 1.44755 0.814576 0
M  V30 2019 O 199.689 1.73624 0.791162 0
M  V30 2020 C 196.829 3.30336 0.998599 0
M  V30 2021 C 195.942 4.31448 0.218342 0
M  V30 2022 C 195.077 5.18098 1.17252 0
M  V30 2023 C 194.116 6.10902 0.382702 0
M  V30 2024 N 193.253 6.90176 1.28848 0
M  V30 2025 H 198.093 2.89357 -0.712511 0
M  V30 2026 H 195.63 1.42548 -0.363128 0
M  V30 2027 H 197.588 3.86572 1.56901 0
M  V30 2028 H 196.218 2.73397 1.71621 0
M  V30 2029 H 195.27 3.77506 -0.46836 0
M  V30 2030 H 196.582 4.97227 -0.395812 0
M  V30 2031 H 195.736 5.7896 1.81356 0
M  V30 2032 H 194.475 4.52444 1.82058 0
M  V30 2033 H 193.48 5.49128 -0.27169 0
M  V30 2034 H 194.705 6.78598 -0.260957 0
M  V30 2035 H 192.651 6.27171 1.92334 0
M  V30 2036 H 192.568 7.52478 0.728887 0
M  V30 2037 H 193.836 7.55543 1.91766 0
M  V30 2038 N 198.065 0.39524 1.52563 0
M  V30 2039 C 198.995 -0.428384 2.29537 0
M  V30 2040 C 199.976 -1.05831 1.33169 0
M  V30 2041 O 201.161 -1.06995 1.62067 0
M  V30 2042 C 198.291 -1.55274 3.10656 0
M  V30 2043 C 197.245 -1.04855 4.14957 0
M  V30 2044 C 196.571 -2.26543 4.84337 0
M  V30 2045 C 197.871 -0.112324 5.22179 0
M  V30 2046 H 199.565 0.213867 2.98635 0
M  V30 2047 H 197.111 0.104298 1.43622 0
M  V30 2048 H 199.064 -2.1358 3.63265 0
M  V30 2049 H 197.788 -2.22266 2.39302 0
M  V30 2050 H 196.447 -0.487985 3.63338 0
M  V30 2051 H 196.095 -2.92059 4.09525 0
M  V30 2052 H 195.795 -1.93466 5.54837 0
M  V30 2053 H 197.319 -2.85481 5.39753 0
M  V30 2054 H 198.733 -0.603752 5.70112 0
M  V30 2055 H 197.13 0.128968 5.99961 0
M  V30 2056 H 198.2 0.837052 4.77621 0
M  V30 2057 N 199.544 -1.57102 0.125237 0
M  V30 2058 C 200.474 -2.18659 -0.819174 0
M  V30 2059 C 201.455 -1.12843 -1.27281 0
M  V30 2060 O 202.64 -1.41104 -1.33429 0
M  V30 2061 C 199.77 -2.79096 -2.06695 0
M  V30 2062 C 198.724 -3.90548 -1.75088 0
M  V30 2063 C 198.05 -4.37821 -3.06948 0
M  V30 2064 C 199.35 -5.12356 -1.01435 0
M  V30 2065 H 201.044 -2.9783 -0.306202 0
M  V30 2066 H 198.59 -1.4326 -0.145839 0
M  V30 2067 H 200.543 -3.2082 -2.73226 0
M  V30 2068 H 199.267 -1.97223 -2.60328 0
M  V30 2069 H 197.926 -3.49409 -1.10944 0
M  V30 2070 H 197.574 -3.52799 -3.58527 0
M  V30 2071 H 197.274 -5.12982 -2.86571 0
M  V30 2072 H 198.798 -4.822 -3.74587 0
M  V30 2073 H 200.212 -5.5106 -1.58132 0
M  V30 2074 H 198.609 -5.9314 -0.911319 0
M  V30 2075 H 199.679 -4.849 -0.00218681 0
M  V30 2076 N 201.022 0.148545 -1.56898 0
M  V30 2077 C 202.438 0.501131 -1.51528 0
M  V30 2078 C 202.638 1.83458 -0.833399 0
M  V30 2079 O 201.694 2.49259 -0.40328 0
M  V30 2080 C 203.007 0.512864 -2.96294 0
M  V30 2081 C 204.555 0.598487 -3.07225 0
M  V30 2082 C 205.03 0.640897 -4.53494 0
M  V30 2083 N 206.521 0.703163 -4.57832 0
M  V30 2084 C 207.256 0.756935 -5.68382 0
M  V30 2085 N 206.752 0.770147 -6.88506 0
M  V30 2086 N 208.545 0.797698 -5.56411 0
M  V30 2087 H 200.696 -0.725532 -1.99624 0
M  V30 2088 H 202.959 -0.264358 -0.910395 0
M  V30 2089 H 202.665 -0.398691 -3.49433 0
M  V30 2090 H 202.539 1.35133 -3.52163 0
M  V30 2091 H 204.926 1.50046 -2.54106 0
M  V30 2092 H 205.007 -0.267093 -2.54402 0
M  V30 2093 H 204.651 -0.256915 -5.0725 0
M  V30 2094 H 204.581 1.52295 -5.04097 0
M  V30 2095 H 207.072 0.700314 -3.71354 0
M  V30 2096 H 207.385 0.812983 -7.68512 0
M  V30 2097 H 205.73 0.738049 -6.9107 0
M  V30 2098 H 208.921 0.784535 -4.61479 0
M  V30 2099 H 209.094 0.83614 -6.42583 0
M  V30 2100 N 202.5 1.5196 0.417844 0
M  V30 2101 C 203.45 1.7106 1.5074 0
M  V30 2102 C 204.434 0.564487 1.50673 0
M  V30 2103 O 205.626 0.821206 1.56797 0
M  V30 2104 C 202.755 1.85677 2.88754 0
M  V30 2105 C 201.841 3.06133 2.93502 0
M  V30 2106 N 202.232 4.28987 2.67962 0
M  V30 2107 C 200.53 3.05787 3.24669 0
M  V30 2108 C 201.231 5.10395 2.79055 0
M  V30 2109 N 200.207 4.45455 3.11561 0
M  V30 2110 H 204.009 2.63696 1.29775 0
M  V30 2111 H 201.523 1.49873 0.625436 0
M  V30 2112 H 203.52 1.97475 3.67164 0
M  V30 2113 H 202.18 0.942348 3.10725 0
M  V30 2114 H 203.191 4.57607 2.4252 0
M  V30 2115 H 199.868 2.2405 3.52289 0
M  V30 2116 H 201.258 6.18247 2.63097 0
M  V30 2117 N 203.978 -0.674533 1.42435 0
M  V30 2118 C 205.226 -1.43175 1.42637 0
M  V30 2119 C 205.547 -1.94951 0.0438992 0
M  V30 2120 O 204.817 -1.7308 -0.917607 0
M  V30 2121 H 203.397 -0.531307 0.525092 0
M  V30 2122 H 206.059 -0.797006 1.77859 0
M  V30 2123 H 205.155 -2.28463 2.12629 0
M  V30 2124 N 205.456 -1.28612 -0.910864 0
M  V30 2125 C 206.705 -1.15311 -1.65488 0
M  V30 2126 C 207.018 0.296999 -1.93332 0
M  V30 2127 O 208.224 0.551168 -2.65847 0
M  V30 2128 C 206.68 -2.01599 -2.98137 0
M  V30 2129 C 206.288 -3.51367 -2.7793 0
M  V30 2130 C 208.032 -1.96993 -3.76024 0
M  V30 2131 C 205.939 -4.29797 -4.06237 0
M  V30 2132 H 204.869 -0.42796 -0.620779 0
M  V30 2133 H 207.52 -1.53166 -1.01057 0
M  V30 2134 H 205.902 -1.56603 -3.63719 0
M  V30 2135 H 207.076 -4.0434 -2.21011 0
M  V30 2136 H 205.391 -3.57529 -2.13452 0
M  V30 2137 H 207.988 -2.52856 -4.71135 0
M  V30 2138 H 208.331 -0.94733 -4.05378 0
M  V30 2139 H 208.864 -2.39973 -3.17266 0
M  V30 2140 H 205.603 -5.32648 -3.82055 0
M  V30 2141 H 205.123 -3.81596 -4.62757 0
M  V30 2142 H 206.802 -4.39869 -4.74473 0
M  V30 2143 N 206.934 1.1197 -1.10907 0
M  V30 2144 C 208.182 1.83225 -0.852819 0
M  V30 2145 C 208.503 1.84769 0.623341 0
M  V30 2146 O 207.773 1.3143 1.45269 0
M  V30 2147 H 206.353 0.67849 -0.312507 0
M  V30 2148 H 209.015 1.3556 -1.40033 0
M  V30 2149 H 208.111 2.87265 -1.22005 0
M  V30 2150 N 208.412 0.89855 1.29475 0
M  V30 2151 C 209.342 0.39201 2.30186 0
M  V30 2152 C 210.323 -0.532359 1.61555 0
M  V30 2153 O 211.508 -0.443331 1.89072 0
M  V30 2154 C 208.638 -0.382353 3.45189 0
M  V30 2155 C 207.592 0.451483 4.25612 0
M  V30 2156 C 206.918 -0.450307 5.328 0
M  V30 2157 C 208.218 1.70079 4.93832 0
M  V30 2158 H 209.912 1.23362 2.72804 0
M  V30 2159 H 207.458 0.594638 1.31149 0
M  V30 2160 H 209.411 -0.747451 4.14718 0
M  V30 2161 H 208.135 -1.25774 3.01411 0
M  V30 2162 H 206.794 0.798897 3.57789 0
M  V30 2163 H 206.442 -1.32379 4.85268 0
M  V30 2164 H 206.142 0.103902 5.87508 0
M  V30 2165 H 207.666 -0.811623 6.05182 0
M  V30 2166 H 209.08 1.40549 5.55805 0
M  V30 2167 H 207.477 2.19623 5.58467 0
M  V30 2168 H 208.547 2.43744 4.19186 0
M  V30 2169 N 209.89 -1.43072 0.660911 0
M  V30 2170 C 211.115 -2.06584 0.183805 0
M  V30 2171 C 211.54 -1.49257 -1.14472 0
M  V30 2172 O 210.898 -0.605528 -1.70889 0
M  V30 2173 C 210.946 -3.60418 0.114434 0
M  V30 2174 O 210.05 -4.01981 -0.921137 0
M  V30 2175 H 209.391 -0.656669 0.0983994 0
M  V30 2176 H 211.921 -1.83447 0.906006 0
M  V30 2177 H 211.931 -4.07946 -0.0663394 0
M  V30 2178 H 210.606 -4.01519 1.08422 0
M  V30 2179 H 209.183 -3.66029 -0.71253 0
M  V30 2180 N 211.368 -0.403325 -1.52352 0
M  V30 2181 C 212.596 0.174012 -2.06167 0
M  V30 2182 C 213.011 1.39347 -1.27388 0
M  V30 2183 O 212.368 1.79597 -0.324201 0
M  V30 2184 C 212.419 0.530223 -3.5759 0
M  V30 2185 O 212.14 -0.640806 -4.33388 0
M  V30 2186 C 213.641 1.16192 -4.27802 0
M  V30 2187 H 210.861 0.0229464 -0.670608 0
M  V30 2188 H 213.405 -0.572604 -1.9632 0
M  V30 2189 H 211.56 1.22673 -3.67464 0
M  V30 2190 H 211.974 -0.344851 -5.23365 0
M  V30 2191 H 213.448 1.36141 -5.34948 0
M  V30 2192 H 213.925 2.13335 -3.83907 0
M  V30 2193 H 214.531 0.505775 -4.22282 0
M  V30 2194 N 212.846 1.57033 -0.133567 0
M  V30 2195 C 214.071 2.00475 0.531477 0
M  V30 2196 C 214.496 1.01291 1.58499 0
M  V30 2197 O 213.854 -0.0133279 1.81295 0
M  V30 2198 C 213.902 3.42729 1.12113 0
M  V30 2199 O 213.006 3.46498 2.23636 0
M  V30 2200 H 212.347 0.650876 0.131362 0
M  V30 2201 H 214.877 2.03344 -0.22634 0
M  V30 2202 H 214.887 3.81246 1.4531 0
M  V30 2203 H 213.562 4.14428 0.349557 0
M  V30 2204 H 212.139 3.19811 1.91769 0
M  V30 2205 N 214.325 -0.140222 1.56975 0
M  V30 2206 C 215.55 -0.870414 1.88251 0
M  V30 2207 C 215.975 -1.73637 0.723312 0
M  V30 2208 O 215.333 -1.78329 -0.32689 0
M  V30 2209 C 215.381 -1.69737 3.18154 0
M  V30 2210 O 214.485 -2.80229 3.02565 0
M  V30 2211 H 213.826 -0.242025 0.61832 0
M  V30 2212 H 216.356 -0.128999 2.04193 0
M  V30 2213 H 216.366 -2.09099 3.50345 0
M  V30 2214 H 215.041 -1.06152 4.02125 0
M  V30 2215 H 213.618 -2.44224 2.81796 0
M  V30 2216 N 215.803 -1.52179 -0.40978 0
M  V30 2217 C 217.08 -1.56769 -1.16974 0
M  V30 2218 C 217.46 -0.348322 -2.08206 0
M  V30 2219 O 216.808 0.664862 -2.18613 0
M  V30 2220 C 217.018 -2.89603 -1.9476 0
M  V30 2221 C 218.366 -3.42579 -2.50849 0
M  V30 2222 O 219.39 -2.91338 -2.04941 0
M  V30 2223 O 218.249 -4.32054 -3.34652 0
M  V30 2224 H 215.343 -0.631439 -0.534054 0
M  V30 2225 H 217.889 -1.64507 -0.416613 0
M  V30 2226 H 216.661 -3.698 -1.27921 0
M  V30 2227 H 216.284 -2.85155 -2.77079 0
M  V30 2228 N 217.281 0.66697 -1.42791 0
M  V30 2229 C 218.506 1.46004 -1.47301 0
M  V30 2230 C 218.931 1.87894 -0.0880317 0
M  V30 2231 O 218.289 1.56502 0.915253 0
M  V30 2232 C 218.337 2.68031 -2.41229 0
M  V30 2233 O 217.441 3.6659 -1.88906 0
M  V30 2234 H 216.782 0.43832 -0.49877 0
M  V30 2235 H 219.312 0.817391 -1.87563 0
M  V30 2236 H 219.322 3.1601 -2.58073 0
M  V30 2237 H 217.997 2.36883 -3.41847 0
M  V30 2238 H 216.574 3.25661 -1.81656 0
M  V30 2239 N 218.759 1.29093 0.90403 0
M  V30 2240 C 219.669 1.15727 2.0407 0
M  V30 2241 C 220.685 0.0815308 1.73809 0
M  V30 2242 O 221.861 0.292749 1.99261 0
M  V30 2243 C 218.926 0.830424 3.36608 0
M  V30 2244 C 217.987 1.98955 3.80415 0
M  V30 2245 C 217.22 1.6782 5.06628 0
M  V30 2246 O 217.443 0.597105 5.67266 0
M  V30 2247 O 216.377 2.52486 5.46383 0
M  V30 2248 H 220.203 2.11171 2.18267 0
M  V30 2249 H 217.788 1.08504 1.027 0
M  V30 2250 H 219.67 0.662521 4.16159 0
M  V30 2251 H 218.345 -0.0942678 3.23563 0
M  V30 2252 H 217.252 2.21267 3.01648 0
M  V30 2253 H 218.585 2.89529 3.98037 0
M  V30 2254 N 220.237 -1.11381 1.11499 0
M  V30 2255 C 221.17 -2.16621 0.71769 0
M  V30 2256 C 222.148 -1.60058 -0.286413 0
M  V30 2257 O 223.332 -1.87613 -0.182689 0
M  V30 2258 C 220.459 -3.38646 0.0607265 0
M  V30 2259 C 219.505 -4.13874 1.03008 0
M  V30 2260 S 220.338 -4.70731 2.55289 0
M  V30 2261 C 221.494 -5.96079 1.90895 0
M  V30 2262 H 221.727 -2.49987 1.60915 0
M  V30 2263 H 219.26 -1.23015 0.933092 0
M  V30 2264 H 221.218 -4.09313 -0.311965 0
M  V30 2265 H 219.879 -3.03537 -0.807702 0
M  V30 2266 H 219.072 -5.01333 0.517853 0
M  V30 2267 H 218.674 -3.4897 1.34522 0
M  V30 2268 H 220.966 -6.65948 1.24577 0
M  V30 2269 H 221.909 -6.51946 2.76354 0
M  V30 2270 H 222.317 -5.47652 1.36885 0
M  V30 2271 N 221.715 -0.905404 -1.28997 0
M  V30 2272 C 222.964 -0.530191 -1.94607 0
M  V30 2273 C 223.277 0.929185 -1.72121 0
M  V30 2274 O 224.483 1.41218 -2.31883 0
M  V30 2275 C 222.939 -0.897333 -3.48534 0
M  V30 2276 C 222.547 -2.37587 -3.79811 0
M  V30 2277 C 224.291 -0.592304 -4.20347 0
M  V30 2278 C 222.198 -2.68357 -5.27009 0
M  V30 2279 H 221.128 -0.194558 -0.728466 0
M  V30 2280 H 223.779 -1.10318 -1.46636 0
M  V30 2281 H 222.161 -0.253214 -3.9519 0
M  V30 2282 H 223.335 -3.06602 -3.43994 0
M  V30 2283 H 221.65 -2.6505 -3.2115 0
M  V30 2284 H 224.247 -0.798975 -5.28697 0
M  V30 2285 H 224.59 0.469474 -4.13644 0
M  V30 2286 H 225.123 -1.19452 -3.79442 0
M  V30 2287 H 221.862 -3.73355 -5.38782 0
M  V30 2288 H 221.382 -2.03971 -5.64053 0
M  V30 2289 H 223.061 -2.54922 -5.94663 0
M  V30 2290 N 223.193 1.4272 -0.668489 0
M  V30 2291 C 224.421 2.05966 -0.196348 0
M  V30 2292 C 224.836 1.50191 1.14403 0
M  V30 2293 O 224.193 0.639208 1.7094 0
M  V30 2294 C 224.244 3.61314 -0.115815 0
M  V30 2295 O 223.965 4.1502 -1.40322 0
M  V30 2296 C 225.466 4.41663 0.380579 0
M  V30 2297 H 222.686 0.663954 -0.0969829 0
M  V30 2298 H 225.23 1.82966 -0.913446 0
M  V30 2299 H 223.385 3.83448 0.551931 0
M  V30 2300 H 223.799 5.08832 -1.27243 0
M  V30 2301 H 225.273 5.5065 0.385848 0
M  V30 2302 H 225.75 4.15792 1.41471 0
M  V30 2303 H 226.356 4.24534 -0.255209 0
M  V30 2304 N 224.671 0.411399 1.52136 0
M  V30 2305 C 225.603 -0.448386 2.24771 0
M  V30 2306 C 226.616 -1.00828 1.27818 0
M  V30 2307 O 227.805 -0.906841 1.53749 0
M  V30 2308 C 224.905 -1.63636 2.96777 0
M  V30 2309 C 224.078 -1.19995 4.20618 0
M  V30 2310 C 223.137 -2.25509 4.75428 0
M  V30 2311 O 222.163 -1.86007 5.3795 0
M  V30 2312 N 223.365 -3.577 4.57199 0
M  V30 2313 H 226.13 0.174025 2.99194 0
M  V30 2314 H 223.691 0.238897 1.60128 0
M  V30 2315 H 225.683 -2.33793 3.30338 0
M  V30 2316 H 224.253 -2.16465 2.25526 0
M  V30 2317 H 223.473 -0.326421 3.92846 0
M  V30 2318 H 224.761 -0.885365 5.01038 0
M  V30 2319 H 224.159 -3.92543 4.07341 0
M  V30 2320 H 222.716 -4.23827 4.95191 0
M  V30 2321 N 226.149 -1.5696 0.141893 0
M  V30 2322 C 227.079 -2.19516 -0.795936 0
M  V30 2323 C 228.06 -1.14187 -1.26077 0
M  V30 2324 O 229.245 -1.42511 -1.31925 0
M  V30 2325 C 226.375 -2.81272 -2.03723 0
M  V30 2326 C 225.329 -3.92384 -1.70936 0
M  V30 2327 C 224.655 -4.41052 -3.02287 0
M  V30 2328 C 225.955 -5.13403 -0.959954 0
M  V30 2329 H 227.649 -2.98138 -0.274596 0
M  V30 2330 H 225.195 -1.43406 -0.130636 0
M  V30 2331 H 227.148 -3.237 -2.69808 0
M  V30 2332 H 225.872 -1.99973 -2.58221 0
M  V30 2333 H 224.531 -3.50566 -1.07232 0
M  V30 2334 H 224.179 -3.56582 -3.54765 0
M  V30 2335 H 223.879 -5.15993 -2.81114 0
M  V30 2336 H 225.403 -4.86146 -3.69451 0
M  V30 2337 H 226.817 -5.52706 -1.52279 0
M  V30 2338 H 225.214 -5.94073 -0.848357 0
M  V30 2339 H 226.284 -4.84875 0.0492434 0
M  V30 2340 N 227.627 0.131896 -1.57047 0
M  V30 2341 C 228.557 1.16384 -2.02428 0
M  V30 2342 C 229.538 1.43936 -0.90644 0
M  V30 2343 O 230.723 1.54599 -1.17528 0
M  V30 2344 C 227.853 2.49328 -2.4177 0
M  V30 2345 C 226.807 2.36266 -3.56879 0
M  V30 2346 C 226.133 3.74057 -3.8208 0
M  V30 2347 C 227.433 1.834 -4.89042 0
M  V30 2348 H 229.127 0.786433 -2.88887 0
M  V30 2349 H 226.673 0.376855 -1.38981 0
M  V30 2350 H 228.626 3.21759 -2.7212 0
M  V30 2351 H 227.35 2.88934 -1.52266 0
M  V30 2352 H 226.009 1.66286 -3.26718 0
M  V30 2353 H 225.657 4.11125 -2.89803 0
M  V30 2354 H 225.357 3.66174 -4.59554 0
M  V30 2355 H 226.881 4.48012 -4.1487 0
M  V30 2356 H 228.295 2.45636 -5.18011 0
M  V30 2357 H 226.692 1.8637 -5.70426 0
M  V30 2358 H 227.762 0.790662 -4.7841 0
M  V30 2359 N 229.106 1.52395 0.401703 0
M  V30 2360 C 230.069 1.75636 1.47257 0
M  V30 2361 C 231.069 0.62628 1.48103 0
M  V30 2362 O 232.259 0.894227 1.49497 0
M  V30 2363 C 229.391 1.84553 2.86624 0
M  V30 2364 H 230.584 2.71241 1.27938 0
M  V30 2365 H 228.137 1.42923 0.632662 0
M  V30 2366 H 228.872 0.908882 3.11303 0
M  V30 2367 H 228.657 2.66715 2.87412 0
M  V30 2368 H 230.147 2.04251 3.64241 0
M  V30 2369 N 230.584 -0.659388 1.43143 0
M  V30 2370 C 231.814 -1.44513 1.47646 0
M  V30 2371 C 232.222 -1.88981 0.0910095 0
M  V30 2372 O 231.565 -1.59702 -0.907789 0
M  V30 2373 C 231.627 -2.71663 2.35456 0
M  V30 2374 C 231.291 -2.49175 3.83094 0
M  V30 2375 C 232.288 -2.1279 4.74359 0
M  V30 2376 C 229.973 -2.63691 4.27519 0
M  V30 2377 C 231.967 -1.9121 6.08044 0
M  V30 2378 C 229.654 -2.41726 5.61259 0
M  V30 2379 C 230.652 -2.0554 6.51339 0
M  V30 2380 O 230.34 -1.838 7.82606 0
M  V30 2381 H 230.072 -0.45064 0.503884 0
M  V30 2382 H 232.626 -0.816248 1.88485 0
M  V30 2383 H 230.856 -3.37089 1.89493 0
M  V30 2384 H 232.545 -3.33595 2.31235 0
M  V30 2385 H 233.311 -2.01157 4.41317 0
M  V30 2386 H 229.19 -2.90832 3.57684 0
M  V30 2387 H 232.734 -1.62889 6.78316 0
M  V30 2388 H 228.631 -2.52959 5.9387 0
M  V30 2389 H 229.399 -1.98275 7.94122 0
M  V30 2390 N 232.062 -1.29571 -0.897171 0
M  V30 2391 C 233.29 -1.20583 -1.68129 0
M  V30 2392 C 233.705 0.233181 -1.87354 0
M  V30 2393 O 233.062 1.15579 -1.41236 0
M  V30 2394 C 233.113 -1.91772 -3.06441 0
M  V30 2395 O 232.834 -3.30053 -2.88091 0
M  V30 2396 C 234.335 -1.89291 -4.00854 0
M  V30 2397 H 231.555 -0.417826 -0.525036 0
M  V30 2398 H 234.099 -1.70987 -1.12177 0
M  V30 2399 H 232.254 -1.45196 -3.59161 0
M  V30 2400 H 232.668 -3.65942 -3.75748 0
M  V30 2401 H 234.142 -2.43662 -4.95311 0
M  V30 2402 H 234.619 -0.869014 -4.30517 0
M  V30 2403 H 235.225 -2.35622 -3.54066 0
M  V30 2404 N 233.54 1.10788 -1.12088 0
M  V30 2405 C 234.951 1.64181 -0.88891 0
M  V30 2406 C 235.302 1.87508 0.577498 0
M  V30 2407 O 234.427 1.61434 1.44112 0
M  V30 2408 C 235.022 2.98257 -1.60712 0
M  V30 2409 C 233.581 3.4853 -1.42139 0
M  V30 2410 C 232.728 2.23208 -1.6454 0
M  V30 2411 H 235.679 0.943368 -1.27618 0
M  V30 2412 H 235.7 3.65552 -1.05604 0
M  V30 2413 H 235.212 2.81246 -2.67436 0
M  V30 2414 H 233.313 3.70692 -0.376552 0
M  V30 2415 H 233.426 4.26882 -2.17505 0
M  V30 2416 H 231.79 2.31169 -1.06925 0
M  V30 2417 H 232.573 2.08733 -2.72554 0
M  V30 2418 N 235.018 0.912232 1.28515 0
M  V30 2419 C 236.429 0.591352 1.77087 0
M  V30 2420 C 236.78 -0.8933 1.74684 0
M  V30 2421 O 235.905 -1.69876 1.34056 0
M  V30 2422 C 236.5 1.06668 3.2157 0
M  V30 2423 C 235.059 0.79675 3.67871 0
M  V30 2424 C 234.206 1.23427 2.48316 0
M  V30 2425 H 237.157 1.09365 1.15 0
M  V30 2426 H 237.178 0.407455 3.78312 0
M  V30 2427 H 236.69 2.14726 3.23287 0
M  V30 2428 H 234.791 -0.270679 3.71616 0
M  V30 2429 H 234.904 1.40343 4.58084 0
M  V30 2430 H 233.268 0.653036 2.46186 0
M  V30 2431 H 234.051 2.32316 2.52753 0
M  V30 2432 N 236.496 -1.42363 0.676048 0
M  V30 2433 C 237.428 -2.29164 -0.0404605 0
M  V30 2434 C 238.441 -1.43747 -0.764245 0
M  V30 2435 O 239.63 -1.67453 -0.618195 0
M  V30 2436 C 236.73 -3.21196 -1.08103 0
M  V30 2437 C 235.903 -4.35273 -0.430812 0
M  V30 2438 C 234.962 -5.08017 -1.37133 0
M  V30 2439 O 233.988 -5.62494 -0.87116 0
M  V30 2440 N 235.19 -5.13647 -2.70456 0
M  V30 2441 H 237.955 -2.91298 0.704667 0
M  V30 2442 H 235.516 -1.53303 0.520559 0
M  V30 2443 H 237.508 -3.66728 -1.71152 0
M  V30 2444 H 236.078 -2.60505 -1.72788 0
M  V30 2445 H 235.298 -3.92372 0.379209 0
M  V30 2446 H 236.586 -5.08795 0.0221132 0
M  V30 2447 H 235.984 -4.708 -3.1363 0
M  V30 2448 H 234.541 -5.62821 -3.28749 0
M  V30 2449 N 237.974 -0.419461 -1.51915 0
M  V30 2450 C 238.884 0.407528 -2.31033 0
M  V30 2451 C 239.9 1.04413 -1.3919 0
M  V30 2452 O 241.076 1.0434 -1.72265 0
M  V30 2453 C 238.141 1.50365 -3.12396 0
M  V30 2454 C 237.202 0.889029 -4.19994 0
M  V30 2455 C 236.435 1.93291 -4.97468 0
M  V30 2456 O 236.658 3.15259 -4.75361 0
M  V30 2457 O 235.592 1.53339 -5.8204 0
M  V30 2458 H 239.418 -0.237865 -3.02767 0
M  V30 2459 H 237.003 -0.182413 -1.48282 0
M  V30 2460 H 238.885 2.13975 -3.63032 0
M  V30 2461 H 237.56 2.13345 -2.43445 0
M  V30 2462 H 236.467 0.215353 -3.7348 0
M  V30 2463 H 237.8 0.302991 -4.91267 0
M  V30 2464 N 239.452 1.56882 -0.150215 0
M  V30 2465 C 240.384 2.14057 0.819286 0
M  V30 2466 C 241.397 1.09082 1.20851 0
M  V30 2467 O 242.586 1.36347 1.15203 0
M  V30 2468 C 239.686 2.65102 2.11127 0
M  V30 2469 C 238.859 3.94511 1.88891 0
M  V30 2470 C 237.918 4.30834 3.02107 0
M  V30 2471 O 236.944 4.99099 2.73659 0
M  V30 2472 N 238.146 3.90676 4.29363 0
M  V30 2473 H 240.911 2.97871 0.330618 0
M  V30 2474 H 238.472 1.61866 0.0332538 0
M  V30 2475 H 240.464 2.86411 2.85921 0
M  V30 2476 H 239.034 1.85994 2.51247 0
M  V30 2477 H 238.254 3.81795 0.981152 0
M  V30 2478 H 239.542 4.7907 1.71376 0
M  V30 2479 H 238.94 3.35677 4.55343 0
M  V30 2480 H 237.497 4.1703 5.00928 0
M  V30 2481 N 240.93 -0.123565 1.57115 0
M  V30 2482 C 242.207 -0.862196 1.75572 0
M  V30 2483 C 242.587 -1.98279 0.724475 0
M  V30 2484 O 241.935 -2.27102 -0.252407 0
M  V30 2485 C 242.145 -1.38309 3.20424 0
M  V30 2486 C 243.493 -1.83724 3.82793 0
M  V30 2487 O 244.517 -1.47999 3.23998 0
M  V30 2488 O 243.376 -2.49685 4.86127 0
M  V30 2489 H 240.47 -0.409113 0.718718 0
M  V30 2490 H 243.016 -0.107661 1.69358 0
M  V30 2491 H 241.788 -0.578889 3.86994 0
M  V30 2492 H 241.411 -2.20046 3.31158 0
M  V30 2493 N 242.408 -1.52605 -0.393616 0
M  V30 2494 C 243.685 -1.58001 -1.15304 0
M  V30 2495 C 244.065 -0.370385 -2.07825 0
M  V30 2496 O 243.413 0.641638 -2.19306 0
M  V30 2497 C 243.623 -2.91652 -1.91677 0
M  V30 2498 C 244.971 -3.4522 -2.47201 0
M  V30 2499 O 245.995 -2.93495 -2.01839 0
M  V30 2500 O 244.854 -4.35579 -3.3005 0
M  V30 2501 H 241.948 -0.637068 -0.527327 0
M  V30 2502 H 244.494 -1.64939 -0.399141 0
M  V30 2503 H 243.266 -3.71136 -1.23992 0
M  V30 2504 H 242.889 -2.88077 -2.74039 0
M  V30 2505 N 243.887 0.651787 -1.4349 0
M  V30 2506 C 245.115 1.43937 -1.48626 0
M  V30 2507 C 245.53 1.8851 -0.104587 0
M  V30 2508 O 244.887 1.5958 0.885464 0
M  V30 2509 C 244.938 2.6734 -2.43334 0
M  V30 2510 O 244.659 2.24631 -3.76128 0
M  V30 2511 C 246.16 3.60683 -2.57726 0
M  V30 2512 H 243.38 0.44213 -0.504739 0
M  V30 2513 H 245.924 0.798944 -1.88248 0
M  V30 2514 H 244.079 3.2752 -2.06904 0
M  V30 2515 H 244.493 3.04485 -4.2707 0
M  V30 2516 H 245.967 4.43933 -3.28067 0
M  V30 2517 H 246.444 4.08126 -1.62265 0
M  V30 2518 H 247.05 3.06384 -2.94973 0
M  V30 2519 N 245.365 1.30045 0.890287 0
M  V30 2520 C 246.776 1.16738 1.45702 0
M  V30 2521 C 247.127 -0.233939 1.948 0
M  V30 2522 O 246.252 -1.13021 1.84541 0
M  V30 2523 C 246.847 2.11313 2.64825 0
M  V30 2524 C 245.406 2.02001 3.17604 0
M  V30 2525 C 244.553 2.01699 1.90296 0
M  V30 2526 H 247.504 1.42392 0.700726 0
M  V30 2527 H 247.525 1.69086 3.40867 0
M  V30 2528 H 247.037 3.13294 2.2906 0
M  V30 2529 H 245.138 1.03142 3.5804 0
M  V30 2530 H 245.251 2.90128 3.81264 0
M  V30 2531 H 243.615 1.46427 2.08402 0
M  V30 2532 H 244.398 3.05402 1.56795 0
M  V30 2533 N 246.843 -1.10192 1.12674 0
M  V30 2534 C 248.12 -1.78717 0.794965 0
M  V30 2535 C 248.5 -1.98628 -0.714853 0
M  V30 2536 O 247.848 -1.58135 -1.64941 0
M  V30 2537 C 248.058 -3.11546 1.5729 0
M  V30 2538 C 249.406 -3.86382 1.76052 0
M  V30 2539 O 250.43 -3.21274 1.53823 0
M  V30 2540 O 249.289 -5.03246 2.13087 0
M  V30 2541 H 246.383 -0.774702 0.289423 0
M  V30 2542 H 248.929 -1.16819 1.23091 0
M  V30 2543 H 247.701 -2.92489 2.59935 0
M  V30 2544 H 247.324 -3.81164 1.13137 0
M  V30 2545 N 248.321 -0.919034 -1.28029 0
M  V30 2546 C 249.567 -0.565221 -1.95389 0
M  V30 2547 C 249.922 0.882325 -1.70976 0
M  V30 2548 O 249.215 1.61988 -1.02325 0
M  V30 2549 C 249.409 -0.816855 -3.4794 0
M  V30 2550 C 249.238 -2.28731 -3.87185 0
M  V30 2551 C 248.008 -2.93841 -4.11079 0
M  V30 2552 C 250.206 -3.26415 -3.97439 0
M  V30 2553 N 248.188 -4.31129 -4.37037 0
M  V30 2554 C 249.559 -4.48884 -4.27672 0
M  V30 2555 C 251.614 -3.21742 -3.79982 0
M  V30 2556 C 250.317 -5.67268 -4.42266 0
M  V30 2557 C 252.343 -4.39431 -3.95796 0
M  V30 2558 C 251.705 -5.60675 -4.26407 0
M  V30 2559 H 247.804 -0.256797 -0.738633 0
M  V30 2560 H 250.388 -1.18386 -1.54573 0
M  V30 2561 H 248.559 -0.227445 -3.87733 0
M  V30 2562 H 250.291 -0.426542 -4.02446 0
M  V30 2563 H 247.046 -2.44547 -4.05578 0
M  V30 2564 H 247.47 -5.02127 -4.5409 0
M  V30 2565 H 252.112 -2.29079 -3.55363 0
M  V30 2566 H 249.83 -6.60406 -4.65714 0
M  V30 2567 H 253.416 -4.37323 -3.83719 0
M  V30 2568 H 252.296 -6.50223 -4.38383 0
M  V30 2569 N 249.799 1.42003 -0.683588 0
M  V30 2570 C 251.045 2.01712 -0.209825 0
M  V30 2571 C 251.378 1.53968 1.18353 0
M  V30 2572 O 250.653 0.745661 1.79639 0
M  V30 2573 C 250.936 3.59202 -0.254197 0
M  V30 2574 C 250.789 4.17102 -1.68363 0
M  V30 2575 C 252.108 4.38344 0.392709 0
M  V30 2576 H 249.227 0.732891 -0.0777189 0
M  V30 2577 H 251.869 1.68909 -0.87004 0
M  V30 2578 H 250.019 3.87278 0.307954 0
M  V30 2579 H 251.691 3.99946 -2.29871 0
M  V30 2580 H 249.934 3.72597 -2.22157 0
M  V30 2581 H 250.605 5.26249 -1.6663 0
M  V30 2582 H 253.081 4.16011 -0.0859162 0
M  V30 2583 H 251.957 5.47901 0.331063 0
M  V30 2584 H 252.218 4.16887 1.47164 0
M  V30 2585 N 251.277 0.427512 1.51691 0
M  V30 2586 C 252.24 -0.377132 2.26076 0
M  V30 2587 C 253.24 -0.958089 1.29141 0
M  V30 2588 O 254.43 -0.83408 1.52934 0
M  V30 2589 C 251.562 -1.53262 3.04506 0
M  V30 2590 H 252.755 0.27464 2.9864 0
M  V30 2591 H 250.308 0.180445 1.55255 0
M  V30 2592 H 251.043 -2.22072 2.36335 0
M  V30 2593 H 250.828 -1.12232 3.75694 0
M  V30 2594 H 252.318 -2.10135 3.60878 0
M  V30 2595 N 252.755 -1.56801 0.158532 0
M  V30 2596 C 254.171 -1.5837 -0.197774 0
M  V30 2597 C 254.371 -1.17334 -1.63814 0
M  V30 2598 O 253.427 -0.878988 -2.36707 0
M  V30 2599 C 254.74 -3.00615 0.0714459 0
M  V30 2600 C 256.288 -3.12999 0.00864533 0
M  V30 2601 C 256.763 -4.57313 0.250685 0
M  V30 2602 N 258.254 -4.62777 0.198014 0
M  V30 2603 C 258.989 -5.72271 0.359642 0
M  V30 2604 N 258.485 -6.90371 0.579625 0
M  V30 2605 N 260.278 -5.61318 0.296438 0
M  V30 2606 H 252.429 -1.81765 1.09887 0
M  V30 2607 H 254.692 -0.841849 0.435884 0
M  V30 2608 H 254.398 -3.35068 1.06874 0
M  V30 2609 H 254.272 -3.71683 -0.642757 0
M  V30 2610 H 256.659 -2.7838 -0.979217 0
M  V30 2611 H 256.74 -2.44393 0.755359 0
M  V30 2612 H 256.384 -4.92639 1.2357 0
M  V30 2613 H 256.314 -5.24061 -0.516489 0
M  V30 2614 H 258.805 -3.77885 0.0331115 0
M  V30 2615 H 259.118 -7.69689 0.69275 0
M  V30 2616 H 257.463 -6.92264 0.616087 0
M  V30 2617 H 260.654 -4.67932 0.125258 0
M  V30 2618 H 260.827 -6.46599 0.425831 0
M  V30 2619 N 254.233 0.115231 -1.57178 0
M  V30 2620 C 255.482 0.820945 -1.84237 0
M  V30 2621 C 255.795 1.80866 -0.744761 0
M  V30 2622 O 257.001 2.56083 -0.901871 0
M  V30 2623 C 255.457 1.51072 -3.26658 0
M  V30 2624 C 255.065 0.563795 -4.44438 0
M  V30 2625 C 256.809 2.20134 -3.62962 0
M  V30 2626 C 254.716 1.25701 -5.77887 0
M  V30 2627 H 253.646 0.310328 -0.687177 0
M  V30 2628 H 256.297 0.0737134 -1.83352 0
M  V30 2629 H 254.679 2.30471 -3.22024 0
M  V30 2630 H 255.853 -0.197247 -4.60378 0
M  V30 2631 H 254.168 -0.0200638 -4.16395 0
M  V30 2632 H 256.765 2.72696 -4.59936 0
M  V30 2633 H 257.108 2.98107 -2.90582 0
M  V30 2634 H 257.641 1.47619 -3.69396 0
M  V30 2635 H 254.38 0.518493 -6.53446 0
M  V30 2636 H 253.9 1.98997 -5.65827 0
M  V30 2637 H 255.579 1.78915 -6.2177 0
M  V30 2638 N 255.711 1.52812 0.385517 0
M  V30 2639 C 256.658 1.77838 1.47113 0
M  V30 2640 C 257.628 0.621757 1.54024 0
M  V30 2641 O 258.813 0.861846 1.70226 0
M  V30 2642 C 255.953 1.95618 2.84302 0
M  V30 2643 C 255.066 3.23316 2.86515 0
M  V30 2644 C 254.201 3.31394 4.15152 0
M  V30 2645 C 253.24 4.53201 4.1143 0
M  V30 2646 N 252.377 4.58542 5.3168 0
M  V30 2647 H 257.217 2.70482 1.25073 0
M  V30 2648 H 254.754 1.34006 0.606692 0
M  V30 2649 H 256.712 2.03912 3.63972 0
M  V30 2650 H 255.342 1.06331 3.04784 0
M  V30 2651 H 254.394 3.24076 1.99195 0
M  V30 2652 H 255.706 4.13045 2.79634 0
M  V30 2653 H 254.86 3.3889 5.03228 0
M  V30 2654 H 253.599 2.39645 4.24761 0
M  V30 2655 H 252.604 4.45827 3.21742 0
M  V30 2656 H 253.829 5.46271 4.03442 0
M  V30 2657 H 251.775 3.69686 5.41912 0
M  V30 2658 H 251.692 5.42148 5.26889 0
M  V30 2659 H 252.96 4.70296 6.21644 0
M  V30 2660 N 257.189 -0.644168 1.43834 0
M  V30 2661 C 258.137 -1.77793 1.49974 0
M  V30 2662 C 259.131 -1.65253 0.372536 0
M  V30 2663 O 260.337 -1.7149 0.546924 0
M  V30 2664 H 256.712 -0.58675 0.47035 0
M  V30 2665 H 258.683 -1.69736 2.45423 0
M  V30 2666 C 257.432 -3.16087 1.4486 0
M  V30 2667 H 256.755 -3.26378 2.30905 0
M  V30 2668 H 258.195 -3.95349 1.53217 0
M  V30 2669 C 256.654 -3.36484 0.167463 0
M  V30 2670 O 257.184 -3.94298 -0.767609 0
M  V30 2671 N 255.39 -2.90504 0.0747556 0
M  V30 2672 H 254.937 -2.4364 0.836507 0
M  V30 2673 H 254.895 -3.04527 -0.781714 0
M  V30 2674 N 258.668 -1.30515 -0.883378 0
M  V30 2675 C 259.598 -1.19607 -2.00541 0
M  V30 2676 C 260.579 -0.086346 -1.69881 0
M  V30 2677 O 261.764 -0.268654 -1.92333 0
M  V30 2678 C 258.894 -0.888758 -3.35736 0
M  V30 2679 C 257.848 -1.95659 -3.8066 0
M  V30 2680 C 257.174 -1.50224 -5.13164 0
M  V30 2681 C 258.474 -3.36788 -3.99213 0
M  V30 2682 H 260.168 -2.13476 -2.09925 0
M  V30 2683 H 257.714 -1.02775 -1.00863 0
M  V30 2684 H 259.667 -0.799094 -4.13754 0
M  V30 2685 H 258.391 0.0856125 -3.26488 0
M  V30 2686 H 257.05 -2.03591 -3.04871 0
M  V30 2687 H 256.698 -0.516092 -5.00345 0
M  V30 2688 H 256.398 -2.2165 -5.44192 0
M  V30 2689 H 257.922 -1.42639 -5.93706 0
M  V30 2690 H 259.336 -3.31605 -4.67665 0
M  V30 2691 H 257.733 -4.06314 -4.41621 0
M  V30 2692 H 258.803 -3.78561 -3.03017 0
M  V30 2693 N 260.146 1.09593 -1.13257 0
M  V30 2694 C 261.079 2.15451 -0.752061 0
M  V30 2695 C 262.057 1.60493 0.260913 0
M  V30 2696 O 263.241 1.8788 0.152819 0
M  V30 2697 C 260.368 3.38506 -0.114594 0
M  V30 2698 C 259.414 4.12183 -1.09579 0
M  V30 2699 S 260.247 4.6661 -2.62745 0
M  V30 2700 C 261.403 5.92966 -2.00354 0
M  V30 2701 H 261.636 2.47395 -1.64872 0
M  V30 2702 H 259.169 1.21515 -0.952545 0
M  V30 2703 H 261.127 4.09757 0.246808 0
M  V30 2704 H 259.788 3.04784 0.759309 0
M  V30 2705 H 258.981 5.00445 -0.597545 0
M  V30 2706 H 258.583 3.46785 -1.40057 0
M  V30 2707 H 260.875 6.63882 -1.35156 0
M  V30 2708 H 261.818 6.47467 -2.86691 0
M  V30 2709 H 262.226 5.45405 -1.4558 0
M  V30 2710 N 261.624 0.925811 1.2754 0
M  V30 2711 C 262.571 0.422045 2.26908 0
M  V30 2712 C 263.541 -0.510029 1.58076 0
M  V30 2713 O 264.726 -0.429599 1.85901 0
M  V30 2714 C 261.866 -0.320837 3.43605 0
M  V30 2715 C 260.979 0.64513 4.27156 0
M  V30 2716 C 260.114 -0.117405 5.3107 0
M  V30 2717 C 259.153 0.841391 6.0629 0
M  V30 2718 N 258.29 0.111604 7.02011 0
M  V30 2719 H 263.13 1.27441 2.69375 0
M  V30 2720 H 260.667 0.639697 1.32462 0
M  V30 2721 H 262.625 -0.76785 4.10073 0
M  V30 2722 H 261.255 -1.13745 3.02096 0
M  V30 2723 H 260.307 1.21067 3.6062 0
M  V30 2724 H 261.619 1.37797 4.79389 0
M  V30 2725 H 260.773 -0.624422 6.03478 0
M  V30 2726 H 259.512 -0.883219 4.79636 0
M  V30 2727 H 258.517 1.35967 5.32722 0
M  V30 2728 H 259.742 1.60696 6.59813 0
M  V30 2729 H 257.688 -0.635999 6.5291 0
M  V30 2730 H 257.605 0.784044 7.51923 0
M  V30 2731 H 258.873 -0.374823 7.78598 0
M  V30 2732 N 263.102 -1.41638 0.69111 0
M  V30 2733 C 264.012 -2.34588 0.0233487 0
M  V30 2734 C 265.028 -1.55987 -0.770984 0
M  V30 2735 O 266.204 -1.88486 -0.709569 0
M  V30 2736 C 263.269 -3.34684 -0.904851 0
M  V30 2737 C 262.33 -4.29176 -0.103225 0
M  V30 2738 C 261.563 -5.2449 -0.987216 0
M  V30 2739 O 261.786 -5.2514 -2.22674 0
M  V30 2740 O 260.72 -6.00295 -0.439281 0
M  V30 2741 H 264.546 -2.93261 0.789416 0
M  V30 2742 H 262.131 -1.42417 0.45142 0
M  V30 2743 H 264.013 -3.96133 -1.43724 0
M  V30 2744 H 262.688 -2.78461 -1.65049 0
M  V30 2745 H 261.595 -3.71089 0.473655 0
M  V30 2746 H 262.928 -4.88484 0.60365 0
M  V30 2747 N 264.58 -0.43555 -1.51462 0
M  V30 2748 C 265.543 0.365137 -2.26273 0
M  V30 2749 C 266.543 0.951227 -1.29647 0
M  V30 2750 O 267.733 0.825958 -1.53374 0
M  V30 2751 C 264.865 1.51645 -3.05314 0
M  V30 2752 H 266.058 -0.290474 -2.9849 0
M  V30 2753 H 263.611 -0.188676 -1.55157 0
M  V30 2754 H 264.346 2.20816 -2.3751 0
M  V30 2755 H 264.131 1.10238 -3.76284 0
M  V30 2756 H 265.621 2.08218 -3.61987 0
M  V30 2757 N 266.058 1.56714 -0.166846 0
M  V30 2758 C 267.469 1.83378 0.350646 0
M  V30 2759 C 267.82 1.08646 1.63372 0
M  V30 2760 O 266.945 0.338058 2.13743 0
M  V30 2761 C 267.54 3.32643 0.642963 0
M  V30 2762 C 266.099 3.59818 1.10491 0
M  V30 2763 C 265.246 2.76954 0.138411 0
M  V30 2764 H 268.197 1.53803 -0.391193 0
M  V30 2765 H 268.218 3.49878 1.49551 0
M  V30 2766 H 267.73 3.87007 -0.291055 0
M  V30 2767 H 265.831 3.1086 2.05418 0
M  V30 2768 H 265.944 4.68178 1.01716 0
M  V30 2769 H 264.308 2.4666 0.634911 0
M  V30 2770 H 265.091 3.34097 -0.789549 0
M  V30 2771 N 267.536 -0.106894 1.57237 0
M  V30 2772 C 268.764 -0.826389 1.8968 0
M  V30 2773 C 269.179 -1.72856 0.759353 0
M  V30 2774 O 268.536 -1.80503 -0.269263 0
M  V30 2775 C 268.587 -1.64967 3.21665 0
M  V30 2776 O 268.308 -0.783804 4.31031 0
M  V30 2777 C 269.809 -2.47326 3.67892 0
M  V30 2778 H 267.029 -0.236927 0.627779 0
M  V30 2779 H 269.573 -0.0876593 2.04312 0
M  V30 2780 H 267.728 -2.34103 3.08666 0
M  V30 2781 H 268.142 -1.35284 5.06753 0
M  V30 2782 H 269.616 -3.00604 4.6297 0
M  V30 2783 H 270.093 -3.25247 2.95146 0
M  V30 2784 H 270.699 -1.83411 3.83719 0
M  V30 2785 N 269.014 -1.53014 -0.377408 0
M  V30 2786 C 269.977 -1.77957 -1.44444 0
M  V30 2787 C 270.977 -0.649763 -1.47087 0
M  V30 2788 O 272.167 -0.917897 -1.48055 0
M  V30 2789 C 269.299 -1.89089 -2.83651 0
M  V30 2790 H 270.492 -2.73243 -1.23606 0
M  V30 2791 H 268.045 -1.43912 -0.609844 0
M  V30 2792 H 268.78 -0.958293 -3.09818 0
M  V30 2793 H 268.565 -2.71254 -2.83132 0
M  V30 2794 H 270.055 -2.1002 -3.60945 0
M  V30 2795 N 270.492 0.636531 -1.44174 0
M  V30 2796 C 271.722 1.42146 -1.49927 0
M  V30 2797 C 272.13 1.88812 -0.121063 0
M  V30 2798 O 271.473 1.61126 0.882267 0
M  V30 2799 C 271.535 2.67883 -2.39748 0
M  V30 2800 C 271.199 2.43048 -3.8701 0
M  V30 2801 C 272.196 2.05216 -4.77684 0
M  V30 2802 C 269.881 2.56856 -4.3166 0
M  V30 2803 C 271.875 1.81512 -6.11009 0
M  V30 2804 C 269.562 2.32766 -5.65034 0
M  V30 2805 C 270.56 1.95152 -6.54526 0
M  V30 2806 O 270.248 1.71326 -7.85431 0
M  V30 2807 H 269.98 0.442567 -0.51099 0
M  V30 2808 H 272.534 0.786158 -1.8976 0
M  V30 2809 H 270.764 3.34032 -1.94832 0
M  V30 2810 H 272.453 3.29874 -2.36513 0
M  V30 2811 H 273.219 1.94111 -4.44462 0
M  V30 2812 H 269.098 2.85104 -3.62266 0
M  V30 2813 H 272.642 1.52077 -6.80822 0
M  V30 2814 H 268.539 2.43479 -5.97819 0
M  V30 2815 H 269.307 1.85616 -7.97176 0
M  V30 2816 N 271.97 1.30982 0.876444 0
M  V30 2817 C 273.195 1.23373 1.66715 0
M  V30 2818 C 273.62 -0.19885 1.87046 0
M  V30 2819 O 272.978 -1.1427 1.40756 0
M  V30 2820 C 273.026 1.97644 3.01611 0
M  V30 2821 O 272.13 1.30935 3.91062 0
M  V30 2822 H 271.471 0.426279 0.509099 0
M  V30 2823 H 274.001 1.72944 1.09323 0
M  V30 2824 H 274.011 2.06992 3.51594 0
M  V30 2825 H 272.686 3.01829 2.86133 0
M  V30 2826 H 271.263 1.29996 3.49507 0
M  V30 2827 N 273.449 -1.08991 1.13837 0
M  V30 2828 C 274.379 -2.17771 0.842507 0
M  V30 2829 C 275.36 -1.6892 -0.20001 0
M  V30 2830 O 276.545 -1.94113 -0.0579731 0
M  V30 2831 C 273.675 -3.4589 0.312644 0
M  V30 2832 C 272.629 -4.08099 1.28992 0
M  V30 2833 C 271.955 -5.31098 0.619623 0
M  V30 2834 C 273.255 -4.50077 2.65005 0
M  V30 2835 H 274.949 -2.42777 1.75213 0
M  V30 2836 H 272.495 -1.16682 0.843875 0
M  V30 2837 H 274.448 -4.21297 0.0933043 0
M  V30 2838 H 273.172 -3.20419 -0.632382 0
M  V30 2839 H 271.831 -3.34717 1.49533 0
M  V30 2840 H 271.479 -5.0191 -0.33102 0
M  V30 2841 H 271.179 -5.73674 1.27167 0
M  V30 2842 H 272.703 -6.09224 0.409669 0
M  V30 2843 H 274.117 -5.16688 2.48407 0
M  V30 2844 H 272.514 -5.03553 3.26427 0
M  V30 2845 H 273.584 -3.62257 3.22332 0
M  V30 2846 N 274.927 -0.932562 -1.27047 0
M  V30 2847 C 275.857 -0.452902 -2.29066 0
M  V30 2848 C 276.838 0.489338 -1.62909 0
M  V30 2849 O 278.023 0.393046 -1.90181 0
M  V30 2850 C 275.153 0.290698 -3.46081 0
M  V30 2851 C 274.107 -0.564168 -4.24265 0
M  V30 2852 C 273.433 0.308886 -5.33807 0
M  V30 2853 C 274.733 -1.83112 -4.89149 0
M  V30 2854 H 276.427 -1.30552 -2.69437 0
M  V30 2855 H 273.973 -0.629201 -1.29526 0
M  V30 2856 H 275.926 0.637233 -4.16554 0
M  V30 2857 H 274.65 1.17738 -3.0464 0
M  V30 2858 H 273.309 -0.893477 -3.55545 0
M  V30 2859 H 272.957 1.19467 -4.88607 0
M  V30 2860 H 272.657 -0.259633 -5.87026 0
M  V30 2861 H 274.181 0.650884 -6.07121 0
M  V30 2862 H 275.595 -1.55236 -5.51883 0
M  V30 2863 H 273.992 -2.34353 -5.52448 0
M  V30 2864 H 275.062 -2.54772 -4.12576 0
M  V30 2865 N 276.405 1.4127 -0.698611 0
M  V30 2866 C 277.654 2.00408 -0.227949 0
M  V30 2867 C 277.967 1.55981 1.18023 0
M  V30 2868 O 279.173 2.07699 1.74852 0
M  V30 2869 C 277.629 3.58129 -0.356636 0
M  V30 2870 C 277.237 4.11536 -1.77037 0
M  V30 2871 C 278.981 4.24466 0.0540969 0
M  V30 2872 C 276.888 5.61701 -1.85055 0
M  V30 2873 H 275.818 0.749586 -0.0814657 0
M  V30 2874 H 278.469 1.61713 -0.867249 0
M  V30 2875 H 276.851 3.94442 0.350965 0
M  V30 2876 H 278.025 3.86636 -2.50698 0
M  V30 2877 H 276.34 3.57736 -2.13105 0
M  V30 2878 H 278.937 5.34698 0.0146723 0
M  V30 2879 H 279.28 4.01687 1.09332 0
M  V30 2880 H 279.813 3.93198 -0.603337 0
M  V30 2881 H 276.552 5.89312 -2.8704 0
M  V30 2882 H 276.072 5.88519 -1.15783 0
M  V30 2883 H 277.751 6.26524 -1.61484 0
M  V30 2884 N 277.883 0.443576 1.51229 0
M  V30 2885 C 278.816 -0.410089 2.24485 0
M  V30 2886 C 279.794 -1.01949 1.26669 0
M  V30 2887 O 280.978 -1.06075 1.55821 0
M  V30 2888 C 278.105 -1.57211 3.00004 0
M  V30 2889 C 277.151 -1.08279 4.12526 0
M  V30 2890 S 277.984 -0.0197476 5.35496 0
M  V30 2891 C 279.14 -1.18629 6.14555 0
M  V30 2892 H 279.373 0.211832 2.96544 0
M  V30 2893 H 276.906 0.228156 1.52705 0
M  V30 2894 H 278.864 -2.23825 3.44111 0
M  V30 2895 H 277.525 -2.16547 2.27522 0
M  V30 2896 H 276.718 -1.95193 4.64667 0
M  V30 2897 H 276.32 -0.494797 3.70713 0
M  V30 2898 H 278.612 -2.10344 6.4402 0
M  V30 2899 H 279.555 -0.70472 7.04584 0
M  V30 2900 H 279.963 -1.42768 5.46148 0
M  V30 2901 N 279.361 -1.56624 0.175154 0
M  V30 2902 C 280.311 -2.14747 -0.766004 0
M  V30 2903 C 281.295 -1.08275 -1.19018 0
M  V30 2904 O 282.487 -1.34388 -1.15191 0
M  V30 2905 C 279.616 -2.79478 -1.99366 0
M  V30 2906 C 278.702 -3.93114 -1.5913 0
M  V30 2907 N 279.093 -4.97752 -0.89872 0
M  V30 2908 C 277.391 -4.04345 -1.88204 0
M  V30 2909 C 278.092 -5.77473 -0.700012 0
M  V30 2910 N 277.068 -5.29207 -1.24263 0
M  V30 2911 H 280.87 -2.93015 -0.22793 0
M  V30 2912 H 278.384 -1.6238 -0.0253843 0
M  V30 2913 H 280.381 -3.19498 -2.67818 0
M  V30 2914 H 279.041 -2.02692 -2.53665 0
M  V30 2915 H 280.052 -5.14903 -0.556347 0
M  V30 2916 H 276.729 -3.38667 -2.44153 0
M  V30 2917 H 278.119 -6.71728 -0.152047 0
M  V30 2918 N 280.839 0.0985539 -1.57292 0
M  V30 2919 C 282.255 0.45267 -1.53046 0
M  V30 2920 C 282.455 1.80713 -0.891342 0
M  V30 2921 O 281.511 2.4785 -0.482375 0
M  V30 2922 C 282.824 0.418341 -2.97776 0
M  V30 2923 C 284.372 0.500443 -3.08973 0
M  V30 2924 C 284.847 0.496297 -4.55303 0
M  V30 2925 N 286.338 0.557151 -4.59837 0
M  V30 2926 C 287.073 0.575726 -5.70502 0
M  V30 2927 N 286.569 0.550714 -6.90608 0
M  V30 2928 N 288.362 0.620277 -5.58667 0
M  V30 2929 H 280.513 -0.788673 -1.97215 0
M  V30 2930 H 282.776 -0.293188 -0.901524 0
M  V30 2931 H 282.482 -0.509659 -3.47988 0
M  V30 2932 H 282.356 1.2386 -3.56284 0
M  V30 2933 H 284.743 1.41886 -2.58751 0
M  V30 2934 H 284.824 -0.347894 -2.53423 0
M  V30 2935 H 284.468 -0.418162 -5.06176 0
M  V30 2936 H 284.398 1.3618 -5.08687 0
M  V30 2937 H 286.889 0.581816 -3.73394 0
M  V30 2938 H 287.202 0.568075 -7.70709 0
M  V30 2939 H 285.547 0.517816 -6.93068 0
M  V30 2940 H 288.738 0.637322 -4.63741 0
M  V30 2941 H 288.911 0.631283 -6.44918 0
M  V30 2942 N 282.317 1.53212 0.369288 0
M  V30 2943 C 283.594 1.59815 1.12776 0
M  V30 2944 C 283.974 0.403402 2.0721 0
M  V30 2945 O 283.322 -0.606667 2.20299 0
M  V30 2946 C 283.532 2.94664 1.87013 0
M  V30 2947 C 284.88 3.49109 2.41677 0
M  V30 2948 O 285.904 2.96669 1.97144 0
M  V30 2949 O 284.763 4.40775 3.23079 0
M  V30 2950 H 281.857 0.645376 0.517125 0
M  V30 2951 H 284.403 1.65553 0.37285 0
M  V30 2952 H 283.175 3.73061 1.18071 0
M  V30 2953 H 282.798 2.92401 2.69421 0
M  V30 2954 N 283.795 -0.628877 1.44509 0
M  V30 2955 C 285.041 -1.39045 1.47629 0
M  V30 2956 C 285.374 -1.93892 0.109343 0
M  V30 2957 O 284.649 -1.7379 -0.87334 0
M  V30 2958 C 284.932 -2.55408 2.53848 0
M  V30 2959 C 284.785 -2.05896 3.99909 0
M  V30 2960 C 286.104 -3.5759 2.56549 0
M  V30 2961 H 283.223 -0.504232 0.537512 0
M  V30 2962 H 285.865 -0.710854 1.76201 0
M  V30 2963 H 284.015 -3.13384 2.29615 0
M  V30 2964 H 285.687 -1.52734 4.35282 0
M  V30 2965 H 283.93 -1.37061 4.11578 0
M  V30 2966 H 284.601 -2.89681 4.69882 0
M  V30 2967 H 287.077 -3.09419 2.78207 0
M  V30 2968 H 285.953 -4.36527 3.32769 0
M  V30 2969 H 286.214 -4.11808 1.60832 0
M  V30 2970 N 285.273 -1.31445 -0.869486 0
M  V30 2971 C 286.522 -1.20517 -1.61736 0
M  V30 2972 C 286.835 0.235341 -1.94179 0
M  V30 2973 O 288.041 0.466312 -2.67465 0
M  V30 2974 C 286.497 -2.10982 -2.91573 0
M  V30 2975 C 286.105 -3.60032 -2.66611 0
M  V30 2976 C 287.849 -2.08856 -3.69567 0
M  V30 2977 C 285.756 -4.42503 -3.92358 0
M  V30 2978 H 284.686 -0.447493 -0.606849 0
M  V30 2979 H 287.337 -1.56303 -0.96133 0
M  V30 2980 H 285.719 -1.68095 -3.58553 0
M  V30 2981 H 286.893 -4.11167 -2.08035 0
M  V30 2982 H 285.208 -3.64139 -2.0197 0
M  V30 2983 H 287.805 -2.67716 -4.62852 0
M  V30 2984 H 288.148 -1.07582 -4.02159 0
M  V30 2985 H 288.681 -2.49945 -3.09471 0
M  V30 2986 H 285.42 -5.44533 -3.64916 0
M  V30 2987 H 284.94 -3.96125 -4.50383 0
M  V30 2988 H 286.619 -4.54741 -4.60238 0
M  V30 2989 N 286.751 1.08385 -1.14413 0
M  V30 2990 C 287.981 1.8425 -0.934644 0
M  V30 2991 C 288.389 1.81907 0.520234 0
M  V30 2992 O 287.732 1.22126 1.37226 0
M  V30 2993 C 287.794 3.32853 -1.35828 0
M  V30 2994 C 287.458 3.5893 -2.82875 0
M  V30 2995 C 288.455 3.53756 -3.80989 0
M  V30 2996 C 286.14 3.86934 -3.20293 0
M  V30 2997 C 288.134 3.76216 -5.14529 0
M  V30 2998 C 285.821 4.09047 -4.54008 0
M  V30 2999 C 286.819 4.03682 -5.50936 0
M  V30 3000 O 286.507 4.25214 -6.82238 0
M  V30 3001 H 286.239 0.588502 -0.332628 0
M  V30 3002 H 288.793 1.37792 -1.52324 0
M  V30 3003 H 287.023 3.8007 -0.713019 0
M  V30 3004 H 288.712 3.90154 -1.11957 0
M  V30 3005 H 289.478 3.32135 -3.53428 0
M  V30 3006 H 285.357 3.9023 -2.45442 0
M  V30 3007 H 288.901 3.71943 -5.90173 0
M  V30 3008 H 284.798 4.30151 -4.8129 0
M  V30 3009 H 285.566 4.42619 -6.88499 0
M  V30 3010 N 288.23 0.939286 1.26551 0
M  V30 3011 C 289.193 0.451987 2.24699 0
M  V30 3012 C 290.193 -0.435869 1.5478 0
M  V30 3013 O 291.383 -0.235314 1.72603 0
M  V30 3014 C 288.515 -0.348801 3.39111 0
M  V30 3015 H 289.708 1.3193 2.69322 0
M  V30 3016 H 287.261 0.721072 1.38673 0
M  V30 3017 H 287.996 -1.23444 2.99887 0
M  V30 3018 H 287.781 0.287945 3.91041 0
M  V30 3019 H 289.271 -0.679726 4.12031 0
M  V30 3020 N 289.708 -1.40897 0.706093 0
M  V30 3021 C 290.954 -2.01352 0.241889 0
M  V30 3022 C 291.287 -1.55832 -1.15888 0
M  V30 3023 O 290.562 -0.774145 -1.7843 0
M  V30 3024 C 290.845 -3.58752 0.311311 0
M  V30 3025 C 290.698 -4.1437 1.74978 0
M  V30 3026 C 292.017 -4.38914 -0.322922 0
M  V30 3027 H 289.136 -0.731562 0.0893687 0
M  V30 3028 H 291.778 -1.67504 0.896802 0
M  V30 3029 H 289.928 -3.87718 -0.246302 0
M  V30 3030 H 291.6 -3.96239 2.36205 0
M  V30 3031 H 289.843 -3.69016 2.28057 0
M  V30 3032 H 290.514 -5.23532 1.74981 0
M  V30 3033 H 292.99 -4.15822 0.152089 0
M  V30 3034 H 291.866 -5.48358 -0.243855 0
M  V30 3035 H 292.127 -4.19176 -1.40513 0
M  V30 3036 N 291.186 -0.45159 -1.50991 0
M  V30 3037 C 292.602 -0.104647 -1.59257 0
M  V30 3038 C 292.802 1.38728 -1.4614 0
M  V30 3039 O 291.858 2.15866 -1.30989 0
M  V30 3040 C 293.171 -0.637468 -2.93865 0
M  V30 3041 C 294.719 -0.599166 -3.07212 0
M  V30 3042 C 295.194 -1.1092 -4.44366 0
M  V30 3043 N 296.685 -1.06778 -4.50725 0
M  V30 3044 C 297.42 -1.43314 -5.55201 0
M  V30 3045 N 296.916 -1.87204 -6.67028 0
M  V30 3046 N 298.709 -1.3504 -5.45638 0
M  V30 3047 H 290.86 -1.42214 -1.57762 0
M  V30 3048 H 293.123 -0.586921 -0.744465 0
M  V30 3049 H 292.829 -1.68187 -3.08879 0
M  V30 3050 H 292.703 -0.0702139 -3.77135 0
M  V30 3051 H 295.09 0.436277 -2.91857 0
M  V30 3052 H 295.171 -1.20299 -2.25747 0
M  V30 3053 H 294.815 -2.14318 -4.60467 0
M  V30 3054 H 294.745 -0.481773 -5.24392 0
M  V30 3055 H 297.236 -0.745643 -3.70471 0
M  V30 3056 H 297.549 -2.13282 -7.42786 0
M  V30 3057 H 295.894 -1.91142 -6.68199 0
M  V30 3058 H 299.085 -1.00607 -4.57161 0
M  V30 3059 H 299.258 -1.63841 -6.26945 0
M  V30 3060 N 292.664 1.56529 -0.183458 0
M  V30 3061 C 293.941 1.88959 0.50536 0
M  V30 3062 C 294.321 1.09523 1.80466 0
M  V30 3063 O 293.669 0.19278 2.27685 0
M  V30 3064 C 293.879 3.41162 0.73547 0
M  V30 3065 C 295.227 4.11155 1.06005 0
M  V30 3066 O 296.251 3.46548 0.823594 0
M  V30 3067 O 295.11 5.25318 1.50675 0
M  V30 3068 H 292.204 0.78441 0.261973 0
M  V30 3069 H 294.75 1.68231 -0.222802 0
M  V30 3070 H 293.522 3.90874 -0.182561 0
M  V30 3071 H 293.145 3.67543 1.51651 0
M  V30 3072 N 294.142 -0.090211 1.57342 0
M  V30 3073 C 295.553 -0.644173 1.75235 0
M  V30 3074 C 295.904 -1.78865 0.806335 0
M  V30 3075 O 295.029 -2.16395 -0.0140128 0
M  V30 3076 C 295.624 -1.17532 3.1776 0
M  V30 3077 C 294.183 -1.67531 3.37061 0
M  V30 3078 C 293.33 -0.58693 2.71017 0
M  V30 3079 H 296.281 0.135884 1.58117 0
M  V30 3080 H 296.302 -2.04455 3.20902 0
M  V30 3081 H 295.814 -0.342138 3.86589 0
M  V30 3082 H 293.915 -2.53234 2.73319 0
M  V30 3083 H 294.028 -1.76493 4.45406 0
M  V30 3084 H 292.392 -1.02756 2.33052 0
M  V30 3085 H 293.175 0.235758 3.4249 0
M  V30 3086 N 295.62 -1.53406 -0.361157 0
M  V30 3087 C 296.85 -1.73465 -1.1222 0
M  V30 3088 C 297.258 -0.465486 -1.83384 0
M  V30 3089 O 296.601 0.571611 -1.7458 0
M  V30 3090 C 296.663 -2.84834 -2.19339 0
M  V30 3091 C 296.327 -4.25038 -1.67903 0
M  V30 3092 C 297.324 -5.07231 -1.14074 0
M  V30 3093 C 295.009 -4.71464 -1.73282 0
M  V30 3094 C 297.003 -6.33942 -0.663068 0
M  V30 3095 C 294.69 -5.98153 -1.25127 0
M  V30 3096 C 295.688 -6.79223 -0.717296 0
M  V30 3097 O 295.376 -8.03533 -0.242865 0
M  V30 3098 H 295.108 -0.583526 -0.341283 0
M  V30 3099 H 297.662 -2.00964 -0.424591 0
M  V30 3100 H 295.892 -2.5282 -2.92607 0
M  V30 3101 H 297.581 -2.9303 -2.80871 0
M  V30 3102 H 298.347 -4.72534 -1.09254 0
M  V30 3103 H 294.226 -4.08432 -2.13786 0
M  V30 3104 H 297.77 -6.97167 -0.245612 0
M  V30 3105 H 293.667 -6.32347 -1.29642 0
M  V30 3106 H 294.435 -8.177 -0.361786 0
M  V30 3107 N 297.098 0.621204 -1.44841 0
M  V30 3108 C 298.346 1.37783 -1.47852 0
M  V30 3109 C 298.667 1.94653 -0.116224 0
M  V30 3110 O 297.937 1.76367 0.852737 0
M  V30 3111 H 296.517 0.511453 -0.544449 0
M  V30 3112 H 299.179 0.730446 -1.80694 0
M  V30 3113 H 298.275 2.20414 -2.20961 0
M  V30 3114 N 298.576 1.31904 0.862503 0
M  V30 3115 C 299.524 1.20125 1.9918 0
M  V30 3116 C 300.518 0.107824 1.69056 0
M  V30 3117 O 301.724 0.270223 1.7796 0
M  V30 3118 H 298.099 0.372148 0.65346 0
M  V30 3119 H 300.07 2.15652 2.06244 0
M  V30 3120 C 298.819 0.933099 3.34946 0
M  V30 3121 H 298.142 1.76664 3.5865 0
M  V30 3122 H 299.582 0.890892 4.14535 0
M  V30 3123 C 298.041 -0.364172 3.34926 0
M  V30 3124 O 298.571 -1.37858 3.77304 0
M  V30 3125 N 296.777 -0.383362 2.8806 0
M  V30 3126 H 296.324 0.442651 2.53768 0
M  V30 3127 H 296.282 -1.25123 2.8843 0
M  V30 3128 N 300.054 -1.07777 1.14986 0
M  V30 3129 C 301.47 -1.32373 0.891596 0
M  V30 3130 C 301.67 -1.9609 -0.463788 0
M  V30 3131 O 300.726 -2.21801 -1.20667 0
M  V30 3132 C 302.039 -2.21905 2.02925 0
M  V30 3133 C 303.587 -2.35367 2.06329 0
M  V30 3134 C 304.062 -3.28245 3.19405 0
M  V30 3135 N 305.553 -3.35824 3.19024 0
M  V30 3136 C 306.288 -4.07739 4.03158 0
M  V30 3137 N 305.784 -4.82306 4.97346 0
M  V30 3138 N 307.577 -4.03635 3.91197 0
M  V30 3139 H 299.728 -0.648039 2.02273 0
M  V30 3140 H 301.991 -0.348149 0.881757 0
M  V30 3141 H 301.697 -1.82342 3.0074 0
M  V30 3142 H 301.571 -3.22407 1.95789 0
M  V30 3143 H 303.958 -2.74186 1.09116 0
M  V30 3144 H 304.039 -1.34585 2.17533 0
M  V30 3145 H 303.683 -2.90146 4.16867 0
M  V30 3146 H 303.613 -4.28971 3.05437 0
M  V30 3147 H 306.104 -2.8267 2.50811 0
M  V30 3148 H 306.417 -5.34661 5.57994 0
M  V30 3149 H 304.762 -4.81337 5.01338 0
M  V30 3150 H 307.953 -3.44491 3.16928 0
M  V30 3151 H 308.126 -4.59417 4.5699 0
M  V30 3152 N 301.532 -0.945985 -1.26051 0
M  V30 3153 C 302.943 -0.638096 -1.75457 0
M  V30 3154 C 303.294 0.846672 -1.76991 0
M  V30 3155 O 302.419 1.66262 -1.38513 0
M  V30 3156 C 303.014 -1.15157 -3.18629 0
M  V30 3157 C 301.573 -0.894004 -3.65629 0
M  V30 3158 C 300.72 -1.29967 -2.44957 0
M  V30 3159 H 303.671 -1.12376 -1.1206 0
M  V30 3160 H 303.692 -0.507615 -3.77099 0
M  V30 3161 H 303.204 -2.23222 -3.1748 0
M  V30 3162 H 301.305 0.172057 -3.72203 0
M  V30 3163 H 301.418 -1.52439 -4.54202 0
M  V30 3164 H 299.782 -0.718078 -2.44368 0
M  V30 3165 H 300.565 -2.38935 -2.46505 0
M  V30 3166 N 303.011 1.40521 -0.713556 0
M  V30 3167 C 303.941 2.33381 -0.0743864 0
M  V30 3168 C 304.922 1.52784 0.747735 0
M  V30 3169 O 306.107 1.81258 0.697071 0
M  V30 3170 C 303.237 3.36748 0.849598 0
M  V30 3171 C 302.191 4.27793 0.133247 0
M  V30 3172 C 301.517 5.21679 1.17281 0
M  V30 3173 C 302.817 5.12415 -1.01134 0
M  V30 3174 H 304.511 2.87081 -0.850007 0
M  V30 3175 H 302.057 1.38034 -0.410201 0
M  V30 3176 H 304.01 4.00648 1.30612 0
M  V30 3177 H 302.734 2.81439 1.65709 0
M  V30 3178 H 301.393 3.65342 -0.303426 0
M  V30 3179 H 301.041 4.62677 1.9733 0
M  V30 3180 H 300.741 5.83435 0.698397 0
M  V30 3181 H 302.265 5.88456 1.62947 0
M  V30 3182 H 303.679 5.69781 -0.634274 0
M  V30 3183 H 302.076 5.83203 -1.41399 0
M  V30 3184 H 303.146 4.48514 -1.84292 0
M  V30 3185 N 304.489 0.459591 1.5075 0
M  V30 3186 C 305.729 -0.09824 2.04164 0
M  V30 3187 C 306.093 -1.3801 1.33481 0
M  V30 3188 O 307.294 -2.01959 1.77387 0
M  V30 3189 C 305.565 -0.289467 3.56226 0
M  V30 3190 S 307.124 -0.807507 4.31306 0
M  V30 3191 H 303.942 -0.0213845 0.710678 0
M  V30 3192 H 306.544 0.624098 1.85271 0
M  V30 3193 H 305.248 0.649461 4.05229 0
M  V30 3194 H 304.779 -1.03825 3.79452 0
M  V30 3195 H 306.794 -2.0824 4.50389 0
M  V30 3196 N 305.967 -1.56429 0.191757 0
M  V30 3197 C 307.216 -1.9666 -0.448088 0
M  V30 3198 C 307.529 -1.08136 -1.62991 0
M  V30 3199 O 308.735 -1.38135 -2.33733 0
M  V30 3200 C 307.191 -3.49753 -0.848585 0
M  V30 3201 C 306.799 -4.46935 0.308764 0
M  V30 3202 C 308.543 -3.9876 -1.4557 0
M  V30 3203 C 306.45 -5.91293 -0.112506 0
M  V30 3204 H 305.38 -0.734312 -0.171179 0
M  V30 3205 H 308.031 -1.81301 0.283242 0
M  V30 3206 H 306.413 -3.60604 -1.63649 0
M  V30 3207 H 307.587 -4.47813 1.08627 0
M  V30 3208 H 305.902 -4.08102 0.827158 0
M  V30 3209 H 308.499 -5.04086 -1.78328 0
M  V30 3210 H 308.842 -3.42875 -2.36099 0
M  V30 3211 H 309.375 -3.9101 -0.731836 0
M  V30 3212 H 306.114 -6.51097 0.758514 0
M  V30 3213 H 305.634 -5.93676 -0.854941 0
M  V30 3214 H 307.313 -6.44663 -0.549448 0
M  V30 3215 N 307.445 0.0818655 -1.57387 0
M  V30 3216 C 308.693 0.781368 -1.86384 0
M  V30 3217 C 309.014 1.78618 -0.782342 0
M  V30 3218 O 308.284 1.94976 0.190061 0
M  V30 3219 H 306.864 0.291562 -0.687751 0
M  V30 3220 H 309.526 0.060348 -1.94807 0
M  V30 3221 H 308.622 1.3038 -2.83562 0
M  V30 3222 N 308.923 1.53595 0.353017 0
M  V30 3223 C 310.339 1.43648 0.695516 0
M  V30 3224 C 310.539 0.585617 1.92802 0
M  V30 3225 O 309.595 0.0729223 2.52395 0
M  V30 3226 C 310.908 2.8701 0.896991 0
M  V30 3227 C 312.456 2.96723 0.996209 0
M  V30 3228 C 312.931 4.41173 1.23007 0
M  V30 3229 N 314.422 4.44657 1.29749 0
M  V30 3230 C 315.157 5.53547 1.49577 0
M  V30 3231 N 314.653 6.72461 1.66639 0
M  V30 3232 N 316.446 5.41145 1.52048 0
M  V30 3233 H 308.597 2.07415 -0.457481 0
M  V30 3234 H 310.86 0.9372 -0.142687 0
M  V30 3235 H 310.566 3.51644 0.0629938 0
M  V30 3236 H 310.44 3.31401 1.80148 0
M  V30 3237 H 312.827 2.32235 1.82074 0
M  V30 3238 H 312.908 2.55707 0.0688331 0
M  V30 3239 H 312.552 5.06238 0.410505 0
M  V30 3240 H 312.482 4.79772 2.17086 0
M  V30 3241 H 314.973 3.58963 1.18126 0
M  V30 3242 H 315.286 7.51214 1.81378 0
M  V30 3243 H 313.631 6.75423 1.63794 0
M  V30 3244 H 316.822 4.47205 1.38294 0
M  V30 3245 H 316.995 6.26068 1.67159 0
M  V30 3246 N 310.401 -0.613514 1.45168 0
M  V30 3247 C 311.331 -1.7354 1.56225 0
M  V30 3248 C 312.312 -1.64981 0.41414 0
M  V30 3249 O 313.497 -1.83472 0.636526 0
M  V30 3250 C 310.627 -3.12128 1.52295 0
M  V30 3251 C 309.581 -3.35491 2.65762 0
M  V30 3252 C 308.907 -4.74291 2.46885 0
M  V30 3253 C 310.207 -3.26325 4.0781 0
M  V30 3254 H 311.901 -1.64543 2.50132 0
M  V30 3255 H 309.447 -0.790185 1.20383 0
M  V30 3256 H 311.4 -3.90404 1.58628 0
M  V30 3257 H 310.124 -3.2195 0.549139 0
M  V30 3258 H 308.783 -2.59603 2.58847 0
M  V30 3259 H 308.431 -4.80839 1.47657 0
M  V30 3260 H 308.131 -4.9088 3.22972 0
M  V30 3261 H 309.655 -5.54775 2.55063 0
M  V30 3262 H 311.069 -3.94483 4.16 0
M  V30 3263 H 309.466 -3.54445 4.8424 0
M  V30 3264 H 310.536 -2.23855 4.30136 0
M  V30 3265 N 311.879 -1.3236 -0.855495 0
M  V30 3266 C 313.128 -1.22226 -1.60448 0
M  V30 3267 C 313.441 0.214733 -1.94418 0
M  V30 3268 O 314.647 0.437917 -2.67945 0
M  V30 3269 C 313.103 -2.14063 -2.89318 0
M  V30 3270 C 312.711 -3.62839 -2.62777 0
M  V30 3271 C 314.455 -2.12764 -3.67331 0
M  V30 3272 C 312.362 -4.4664 -3.87643 0
M  V30 3273 H 311.292 -0.453904 -0.602069 0
M  V30 3274 H 313.943 -1.57314 -0.944698 0
M  V30 3275 H 312.325 -1.71889 -3.5675 0
M  V30 3276 H 313.499 -4.1335 -2.03662 0
M  V30 3277 H 311.814 -3.66261 -1.98096 0
M  V30 3278 H 314.411 -2.72611 -4.59987 0
M  V30 3279 H 314.754 -1.11841 -4.00995 0
M  V30 3280 H 315.287 -2.53214 -3.06802 0
M  V30 3281 H 312.026 -5.48373 -3.5912 0
M  V30 3282 H 311.546 -4.0088 -4.46156 0
M  V30 3283 H 313.225 -4.59597 -4.55389 0
M  V30 3284 N 313.357 1.07166 -1.15556 0
M  V30 3285 C 314.768 1.6127 -0.940693 0
M  V30 3286 C 315.119 1.89251 0.517551 0
M  V30 3287 O 314.244 1.65937 1.38903 0
M  V30 3288 C 314.839 2.92993 -1.7012 0
M  V30 3289 C 313.398 3.43832 -1.53156 0
M  V30 3290 C 312.545 2.1786 -1.71558 0
M  V30 3291 H 315.496 0.90229 -1.30554 0
M  V30 3292 H 315.517 3.62007 -1.17181 0
M  V30 3293 H 315.029 2.72596 -2.76248 0
M  V30 3294 H 313.13 3.69307 -0.494294 0
M  V30 3295 H 313.243 4.19747 -2.30975 0
M  V30 3296 H 311.607 2.2765 -1.14225 0
M  V30 3297 H 312.39 1.99956 -2.79056 0
M  V30 3298 N 314.835 0.952656 1.25548 0
M  V30 3299 C 316.081 0.607272 1.93494 0
M  V30 3300 C 316.414 -0.853245 1.74452 0
M  V30 3301 O 315.689 -1.61194 1.08843 0
M  V30 3302 C 315.972 0.96435 3.46947 0
M  V30 3303 C 315.825 2.48045 3.75225 0
M  V30 3304 C 317.144 0.487987 4.37386 0
M  V30 3305 H 314.263 0.222096 0.702739 0
M  V30 3306 H 316.905 1.18895 1.48203 0
M  V30 3307 H 315.055 0.469361 3.85654 0
M  V30 3308 H 316.727 3.04905 3.46166 0
M  V30 3309 H 314.97 2.919 3.209 0
M  V30 3310 H 315.641 2.6808 4.82532 0
M  V30 3311 H 318.117 0.912558 4.0597 0
M  V30 3312 H 316.993 0.766547 5.43521 0
M  V30 3313 H 317.254 -0.612063 4.37843 0
M  V30 3314 N 316.313 -1.40141 0.720998 0
M  V30 3315 C 317.538 -2.05618 0.271258 0
M  V30 3316 C 317.963 -1.53978 -1.08039 0
M  V30 3317 O 317.321 -0.677463 -1.68167 0
M  V30 3318 C 317.369 -3.59609 0.267197 0
M  V30 3319 O 316.473 -4.05526 -0.749814 0
M  V30 3320 H 315.814 -0.651904 0.126162 0
M  V30 3321 H 318.344 -1.79439 0.982997 0
M  V30 3322 H 318.354 -4.0786 0.106744 0
M  V30 3323 H 317.029 -3.96559 1.25354 0
M  V30 3324 H 315.606 -3.68722 -0.556644 0
M  V30 3325 N 317.792 -0.46758 -1.50504 0
M  V30 3326 C 319.069 0.15003 -1.95024 0
M  V30 3327 C 319.449 1.57304 -1.40779 0
M  V30 3328 O 318.797 2.20281 -0.607319 0
M  V30 3329 C 319.007 0.0969324 -3.48865 0
M  V30 3330 C 320.355 0.287565 -4.23625 0
M  V30 3331 O 321.379 0.173678 -3.55776 0
M  V30 3332 O 320.238 0.517186 -5.44047 0
M  V30 3333 H 317.332 0.113582 -0.819163 0
M  V30 3334 H 319.878 -0.52773 -1.61286 0
M  V30 3335 H 318.65 -0.896732 -3.80886 0
M  V30 3336 H 318.273 0.816303 -3.8913 0
M  V30 3337 N 319.27 1.56325 -0.20005 0
M  V30 3338 C 320.519 1.96895 0.437652 0
M  V30 3339 C 320.832 1.08999 1.62415 0
M  V30 3340 O 322.038 1.39372 2.32997 0
M  V30 3341 C 320.494 3.50198 0.830025 0
M  V30 3342 C 320.102 4.46765 -0.332461 0
M  V30 3343 C 321.846 3.99526 1.43453 0
M  V30 3344 C 319.753 5.91344 0.0811468 0
M  V30 3345 H 318.683 0.735209 0.167282 0
M  V30 3346 H 321.334 1.81148 -0.292853 0
M  V30 3347 H 319.716 3.61467 1.61734 0
M  V30 3348 H 320.89 4.47231 -1.11 0
M  V30 3349 H 319.205 4.07657 -0.848789 0
M  V30 3350 H 321.802 5.05025 1.75652 0
M  V30 3351 H 322.145 3.44122 2.34277 0
M  V30 3352 H 322.678 3.91393 0.71109 0
M  V30 3353 H 319.417 6.50685 -0.793033 0
M  V30 3354 H 318.937 5.94121 0.823445 0
M  V30 3355 H 320.616 6.44945 0.515252 0
M  V30 3356 N 320.748 -0.0735177 1.57428 0
M  V30 3357 C 321.696 -1.10628 2.04607 0
M  V30 3358 C 322.69 -1.40181 0.951088 0
M  V30 3359 O 323.896 -1.39608 1.1362 0
M  V30 3360 H 320.271 -0.374088 0.652351 0
M  V30 3361 H 322.242 -0.682218 2.90497 0
M  V30 3362 C 320.991 -2.41212 2.50423 0
M  V30 3363 H 320.314 -2.19322 3.34272 0
M  V30 3364 H 321.754 -3.11927 2.87189 0
M  V30 3365 C 320.213 -3.0705 1.38644 0
M  V30 3366 O 320.743 -3.95056 0.727582 0
M  V30 3367 N 318.949 -2.67645 1.132 0
M  V30 3368 H 318.496 -1.96169 1.66959 0
M  V30 3369 H 318.454 -3.1202 0.386147 0
M  V30 3370 N 322.226 -1.5378 -0.344866 0
M  V30 3371 C 323.503 -1.61589 -1.10219 0
M  V30 3372 C 323.883 -0.436316 -2.06542 0
M  V30 3373 O 323.231 0.571543 -2.21237 0
M  V30 3374 C 323.441 -2.97602 -1.82301 0
M  V30 3375 C 324.789 -3.5291 -2.36093 0
M  V30 3376 O 325.813 -2.99768 -1.924 0
M  V30 3377 O 324.672 -4.45859 -3.16026 0
M  V30 3378 H 321.766 -0.653522 -0.506792 0
M  V30 3379 H 324.312 -1.66126 -0.346465 0
M  V30 3380 H 323.084 -3.74893 -1.12121 0
M  V30 3381 H 322.707 -2.9665 -2.64735 0
M  V30 3382 N 323.704 0.605807 -1.45491 0
M  V30 3383 C 324.651 1.7164 -1.54299 0
M  V30 3384 C 325.621 1.61486 -0.388761 0
M  V30 3385 O 326.806 1.81039 -0.602445 0
M  V30 3386 C 323.946 3.09953 -1.51734 0
M  V30 3387 C 323.059 3.309 -2.77721 0
M  V30 3388 C 322.194 4.59329 -2.66816 0
M  V30 3389 C 321.233 4.7354 -3.87848 0
M  V30 3390 N 320.37 5.9327 -3.75467 0
M  V30 3391 H 325.21 1.63449 -2.49176 0
M  V30 3392 H 322.747 0.796957 -1.23641 0
M  V30 3393 H 324.705 3.89977 -1.48235 0
M  V30 3394 H 323.335 3.17098 -0.604068 0
M  V30 3395 H 322.387 2.44639 -2.913 0
M  V30 3396 H 323.699 3.37274 -3.67488 0
M  V30 3397 H 322.853 5.4755 -2.61292 0
M  V30 3398 H 321.592 4.55355 -1.74651 0
M  V30 3399 H 320.597 3.83741 -3.93729 0
M  V30 3400 H 321.822 4.79309 -4.81082 0
M  V30 3401 H 319.768 5.90338 -2.86072 0
M  V30 3402 H 319.685 6.00811 -4.5887 0
M  V30 3403 H 320.953 6.83984 -3.73879 0
M  V30 3404 N 325.182 1.32811 0.848464 0
M  V30 3405 C 326.092 1.24278 1.98978 0
M  V30 3406 C 327.108 0.155176 1.73307 0
M  V30 3407 O 328.284 0.376999 1.9784 0
M  V30 3408 C 325.349 0.972444 3.32783 0
M  V30 3409 C 324.41 2.14911 3.71634 0
M  V30 3410 C 323.643 1.89157 4.99054 0
M  V30 3411 O 323.866 0.837165 5.64223 0
M  V30 3412 O 322.8 2.75433 5.35183 0
M  V30 3413 H 326.626 2.20238 2.09115 0
M  V30 3414 H 324.211 1.12762 0.980052 0
M  V30 3415 H 326.093 0.838432 4.12975 0
M  V30 3416 H 324.768 0.043051 3.23671 0
M  V30 3417 H 323.675 2.33862 2.91992 0
M  V30 3418 H 325.008 3.06151 3.85399 0
M  V30 3419 N 326.66 -1.06551 1.16123 0
M  V30 3420 C 327.607 -2.13961 0.865414 0
M  V30 3421 C 328.577 -1.65066 -0.185055 0
M  V30 3422 O 329.762 -1.90732 -0.05083 0
M  V30 3423 C 326.902 -3.43113 0.369776 0
M  V30 3424 C 326.015 -4.05756 1.48276 0
M  V30 3425 C 325.15 -5.22773 0.942414 0
M  V30 3426 C 324.189 -5.77395 2.03179 0
M  V30 3427 N 323.326 -6.85731 1.50721 0
M  V30 3428 H 328.166 -2.38605 1.78527 0
M  V30 3429 H 325.703 -1.17072 0.890646 0
M  V30 3430 H 327.661 -4.17151 0.0640643 0
M  V30 3431 H 326.291 -3.18695 -0.513143 0
M  V30 3432 H 325.343 -3.29292 1.9045 0
M  V30 3433 H 326.655 -4.42351 2.30493 0
M  V30 3434 H 325.809 -6.03827 0.589729 0
M  V30 3435 H 324.548 -4.87618 0.0895191 0
M  V30 3436 H 323.553 -4.94981 2.3932 0
M  V30 3437 H 324.778 -6.14603 2.8886 0
M  V30 3438 H 322.724 -6.52499 0.676811 0
M  V30 3439 H 322.641 -7.21254 2.26557 0
M  V30 3440 H 323.909 -7.7047 1.18303 0
M  V30 3441 N 328.138 -0.959301 -1.25041 0
M  V30 3442 C 329.085 -0.482057 -2.2571 0
M  V30 3443 C 330.055 0.467939 -1.59372 0
M  V30 3444 O 331.24 0.380159 -1.86974 0
M  V30 3445 C 328.38 0.229623 -3.44335 0
M  V30 3446 C 327.493 -0.758156 -4.25295 0
M  V30 3447 C 326.628 -0.0234403 -5.31195 0
M  V30 3448 C 325.667 -1.00184 -6.03846 0
M  V30 3449 N 324.804 -0.29769 -7.01469 0
M  V30 3450 H 329.644 -1.34538 -2.65901 0
M  V30 3451 H 327.181 -0.674592 -1.3072 0
M  V30 3452 H 329.139 0.658856 -4.11965 0
M  V30 3453 H 327.769 1.05696 -3.05005 0
M  V30 3454 H 326.821 -1.30586 -3.57284 0
M  V30 3455 H 328.133 -1.50458 -4.75567 0
M  V30 3456 H 327.287 0.464201 -6.04922 0
M  V30 3457 H 326.026 0.755741 -4.81809 0
M  V30 3458 H 325.031 -1.50044 -5.2893 0
M  V30 3459 H 326.256 -1.78133 -6.55321 0
M  V30 3460 H 324.202 0.462668 -6.54366 0
M  V30 3461 H 324.119 -0.983128 -7.4958 0
M  V30 3462 H 325.387 0.16826 -7.79318 0
M  V30 3463 N 329.616 1.39756 -0.72842 0
M  V30 3464 C 330.844 2.04948 -0.283528 0
M  V30 3465 C 331.259 1.54908 1.0793 0
M  V30 3466 O 330.616 0.711135 1.68075 0
M  V30 3467 C 330.667 3.60498 -0.268957 0
M  V30 3468 O 330.388 4.08695 -1.57798 0
M  V30 3469 C 331.889 4.4288 0.192912 0
M  V30 3470 H 329.109 0.659243 -0.125056 0
M  V30 3471 H 331.653 1.78927 -0.990226 0
M  V30 3472 H 329.808 3.85444 0.388801 0
M  V30 3473 H 330.222 5.02977 -1.48709 0
M  V30 3474 H 331.696 5.51791 0.151952 0
M  V30 3475 H 332.173 4.21418 1.23708 0
M  V30 3476 H 332.779 4.23069 -0.435039 0
M  V30 3477 N 331.094 0.475555 1.50254 0
M  V30 3478 C 332.319 -0.0777042 2.07254 0
M  V30 3479 C 332.744 -1.3235 1.3366 0
M  V30 3480 O 332.102 -1.77152 0.385597 0
M  V30 3481 C 332.15 -0.340169 3.58992 0
M  V30 3482 O 331.254 -1.41982 3.87188 0
M  V30 3483 H 330.595 0.0149556 0.663832 0
M  V30 3484 H 333.125 0.667878 1.93392 0
M  V30 3485 H 333.135 -0.579332 4.03866 0
M  V30 3486 H 331.81 0.570167 4.11973 0
M  V30 3487 H 330.387 -1.16762 3.54148 0
M  V30 3488 N 332.573 -1.56217 0.208337 0
M  V30 3489 C 333.483 -2.23316 -0.718836 0
M  V30 3490 C 334.499 -1.23648 -1.22422 0
M  V30 3491 O 335.675 -1.56423 -1.26861 0
M  V30 3492 C 332.74 -2.88968 -1.91568 0
M  V30 3493 C 331.801 -4.03943 -1.45357 0
M  V30 3494 C 331.034 -4.66455 -2.59337 0
M  V30 3495 O 331.257 -4.27919 -3.77149 0
M  V30 3496 O 330.191 -5.55686 -2.31293 0
M  V30 3497 H 334.017 -3.03182 -0.177315 0
M  V30 3498 H 331.602 -1.49384 -0.0215402 0
M  V30 3499 H 333.484 -3.30455 -2.61491 0
M  V30 3500 H 332.159 -2.12071 -2.44556 0
M  V30 3501 H 331.066 -3.67052 -0.722746 0
M  V30 3502 H 332.399 -4.82543 -0.970219 0
M  V30 3503 N 334.051 0.0651679 -1.57465 0
M  V30 3504 C 335.279 0.775808 -1.91804 0
M  V30 3505 C 335.694 1.70782 -0.804916 0
M  V30 3506 O 335.051 1.81153 0.221311 0
M  V30 3507 C 335.102 1.56381 -3.25925 0
M  V30 3508 O 334.823 0.669248 -4.32958 0
M  V30 3509 C 336.324 2.37485 -3.7432 0
M  V30 3510 H 333.544 0.2202 -0.63384 0
M  V30 3511 H 336.088 0.0334587 -2.04473 0
M  V30 3512 H 334.243 2.25837 -3.14764 0
M  V30 3513 H 334.657 1.21801 -5.10162 0
M  V30 3514 H 336.131 2.88223 -4.70778 0
M  V30 3515 H 336.608 3.17307 -3.03666 0
M  V30 3516 H 337.214 1.73173 -3.88447 0
M  V30 3517 N 335.529 1.53961 0.336706 0
M  V30 3518 C 336.439 1.85432 1.43708 0
M  V30 3519 C 337.455 0.745053 1.57242 0
M  V30 3520 O 338.631 1.03804 1.72588 0
M  V30 3521 C 335.696 2.06349 2.78605 0
M  V30 3522 C 334.757 3.30191 2.74358 0
M  V30 3523 C 333.99 3.50101 4.02822 0
M  V30 3524 O 334.213 2.7371 5.00439 0
M  V30 3525 O 333.147 4.43547 4.06878 0
M  V30 3526 H 336.973 2.78975 1.20028 0
M  V30 3527 H 334.558 1.39701 0.52952 0
M  V30 3528 H 336.44 2.21513 3.58483 0
M  V30 3529 H 335.115 1.15995 3.02203 0
M  V30 3530 H 334.022 3.20425 1.93078 0
M  V30 3531 H 335.355 4.2056 2.55715 0
M  V30 3532 N 337.007 -0.598083 1.45811 0
M  V30 3533 C 338.255 -1.35413 1.50026 0
M  V30 3534 C 338.576 -1.94444 0.147177 0
M  V30 3535 O 337.846 -1.77701 -0.824571 0
M  V30 3536 H 336.426 -0.502727 0.552517 0
M  V30 3537 H 339.088 -0.701606 1.81834 0
M  V30 3538 H 338.184 -2.16871 2.2444 0
M  V30 3539 N 338.485 -1.33259 -0.841409 0
M  V30 3540 C 339.731 -1.25766 -1.59857 0
M  V30 3541 C 340.086 0.175602 -1.91597 0
M  V30 3542 O 339.379 1.117 -1.55672 0
M  V30 3543 C 339.573 -2.06381 -2.9179 0
M  V30 3544 C 339.402 -3.57401 -2.72937 0
M  V30 3545 C 338.172 -4.26718 -2.70628 0
M  V30 3546 C 340.37 -4.51786 -2.45753 0
M  V30 3547 N 338.352 -5.63705 -2.43125 0
M  V30 3548 C 339.723 -5.76643 -2.27777 0
M  V30 3549 C 341.778 -4.40898 -2.31329 0
M  V30 3550 C 340.481 -6.91842 -1.96841 0
M  V30 3551 C 342.507 -5.55911 -2.01786 0
M  V30 3552 C 341.869 -6.79776 -1.8462 0
M  V30 3553 H 337.968 -0.515406 -0.588117 0
M  V30 3554 H 340.552 -1.67772 -0.987955 0
M  V30 3555 H 338.723 -1.667 -3.50807 0
M  V30 3556 H 340.455 -1.90678 -3.56965 0
M  V30 3557 H 337.21 -3.78968 -2.84043 0
M  V30 3558 H 337.634 -6.35911 -2.32265 0
M  V30 3559 H 342.276 -3.45772 -2.43314 0
M  V30 3560 H 339.994 -7.86968 -1.83594 0
M  V30 3561 H 343.58 -5.49421 -1.91384 0
M  V30 3562 H 342.46 -7.67266 -1.62088 0
M  V30 3563 N 339.963 1.05934 -1.16686 0
M  V30 3564 C 341.209 1.79065 -0.95203 0
M  V30 3565 C 341.542 1.87147 0.518629 0
M  V30 3566 O 340.817 1.36574 1.38484 0
M  V30 3567 C 341.1 3.23359 -1.58464 0
M  V30 3568 C 340.953 3.23336 -3.12689 0
M  V30 3569 C 342.272 4.21004 -1.28232 0
M  V30 3570 H 339.391 0.65005 -0.34728 0
M  V30 3571 H 342.033 1.23868 -1.44072 0
M  V30 3572 H 340.183 3.70493 -1.16908 0
M  V30 3573 H 341.855 2.84336 -3.6325 0
M  V30 3574 H 340.098 2.61886 -3.4583 0
M  V30 3575 H 340.769 4.25144 -3.52075 0
M  V30 3576 H 343.245 3.8233 -1.64203 0
M  V30 3577 H 342.121 5.20225 -1.75092 0
M  V30 3578 H 342.382 4.41639 -0.201791 0
M  V30 3579 N 341.441 0.965919 1.2453 0
M  V30 3580 C 342.687 0.62776 1.92839 0
M  V30 3581 C 343.02 -0.834694 1.75347 0
M  V30 3582 O 342.295 -1.60031 1.10546 0
M  V30 3583 C 342.578 1.00109 3.45905 0
M  V30 3584 C 342.431 2.52011 3.72573 0
M  V30 3585 C 343.75 0.53435 4.36844 0
M  V30 3586 H 340.869 0.229537 0.700344 0
M  V30 3587 H 343.511 1.2046 1.46933 0
M  V30 3588 H 341.661 0.510238 3.85135 0
M  V30 3589 H 343.333 3.08559 3.42912 0
M  V30 3590 H 341.576 2.95287 3.17786 0
M  V30 3591 H 342.247 2.73183 4.79661 0
M  V30 3592 H 344.723 0.955565 4.04979 0
M  V30 3593 H 343.599 0.824152 5.42678 0
M  V30 3594 H 343.86 -0.565589 4.38467 0
M  V30 3595 N 342.919 -1.39368 0.735821 0
M  V30 3596 C 344.144 -2.05319 0.293052 0
M  V30 3597 C 344.569 -1.55115 -1.064 0
M  V30 3598 O 343.927 -0.695261 -1.67439 0
M  V30 3599 C 343.975 -3.59305 0.305323 0
M  V30 3600 O 343.079 -4.06299 -0.706761 0
M  V30 3601 H 342.42 -0.650529 0.13307 0
M  V30 3602 H 344.95 -1.78386 1.00197 0
M  V30 3603 H 344.96 -4.07724 0.149997 0
M  V30 3604 H 343.635 -3.95207 1.29553 0
M  V30 3605 H 342.212 -3.69292 -0.517504 0
M  V30 3606 N 344.397 -0.483516 -1.5 0
M  V30 3607 C 345.622 0.0667119 -2.07293 0
M  V30 3608 C 346.047 1.3164 -1.3436 0
M  V30 3609 O 345.405 1.76945 -0.394987 0
M  V30 3610 C 345.453 0.321126 -3.59167 0
M  V30 3611 O 344.557 1.39927 -3.87936 0
M  V30 3612 H 343.898 -0.0184758 -0.663743 0
M  V30 3613 H 346.428 -0.678125 -1.93035 0
M  V30 3614 H 346.438 0.557906 -4.04168 0
M  V30 3615 H 345.113 -0.592007 -4.11665 0
M  V30 3616 H 343.69 1.14882 -3.54763 0
M  V30 3617 N 345.875 1.56104 -0.216619 0
M  V30 3618 C 346.785 2.23694 0.706982 0
M  V30 3619 C 347.801 1.24295 1.21765 0
M  V30 3620 O 348.977 1.57094 1.2603 0
M  V30 3621 C 346.042 2.8998 1.90033 0
M  V30 3622 C 345.103 4.04708 1.43213 0
M  V30 3623 C 344.336 4.67824 2.56859 0
M  V30 3624 O 344.559 4.29913 3.74874 0
M  V30 3625 O 343.493 5.56905 2.28343 0
M  V30 3626 H 347.319 3.03272 0.161235 0
M  V30 3627 H 344.904 1.49394 0.0136177 0
M  V30 3628 H 346.786 3.31837 2.59735 0
M  V30 3629 H 345.461 2.13365 2.43428 0
M  V30 3630 H 344.368 3.6743 0.70327 0
M  V30 3631 H 345.701 4.83051 0.944615 0
M  V30 3632 N 347.353 -0.0568162 1.57498 0
M  V30 3633 C 348.578 -0.769402 1.92601 0
M  V30 3634 C 349.003 -1.69559 0.814336 0
M  V30 3635 O 348.361 -1.79811 -0.231903 0
M  V30 3636 C 348.409 -1.52634 3.26704 0
M  V30 3637 O 347.513 -2.63797 3.16994 0
M  V30 3638 H 346.854 -0.208909 0.63028 0
M  V30 3639 H 349.384 -0.0205798 2.0459 0
M  V30 3640 H 349.394 -1.90234 3.60936 0
M  V30 3641 H 348.069 -0.846875 4.07186 0
M  V30 3642 H 346.646 -2.28943 2.94346 0
M  V30 3643 N 348.832 -1.54138 -0.328536 0
M  V30 3644 C 350.072 -1.73827 -1.07534 0
M  V30 3645 C 350.436 -0.498777 -1.85408 0
M  V30 3646 O 351.637 -0.572937 -2.62623 0
M  V30 3647 C 349.908 -2.97573 -1.97952 0
M  V30 3648 S 351.467 -3.38143 -2.79652 0
M  V30 3649 H 348.285 -0.611287 -0.36311 0
M  V30 3650 H 350.887 -1.92306 -0.351931 0
M  V30 3651 H 349.591 -3.85939 -1.39569 0
M  V30 3652 H 349.122 -2.81603 -2.74706 0
M  V30 3653 H 351.137 -2.93052 -4.00418 0
M  V30 3654 N 350.31 0.590341 -1.46126 0
M  V30 3655 C 351.535 1.37991 -1.54833 0
M  V30 3656 C 351.96 1.87163 -0.187506 0
M  V30 3657 O 351.318 1.61133 0.831008 0
M  V30 3658 C 351.366 2.54867 -2.55098 0
M  V30 3659 O 350.47 3.56061 -2.08073 0
M  V30 3660 H 349.811 0.411265 -0.521303 0
M  V30 3661 H 352.341 0.716819 -1.91632 0
M  V30 3662 H 352.351 3.01886 -2.74461 0
M  V30 3663 H 351.026 2.18429 -3.53923 0
M  V30 3664 H 349.603 3.15574 -1.98664 0
M  V30 3665 N 351.788 1.33704 0.83433 0
M  V30 3666 C 353.035 1.25417 1.58987 0
M  V30 3667 C 353.363 -0.178869 1.93676 0
M  V30 3668 O 352.618 -1.13723 1.59265 0
M  V30 3669 C 352.917 2.07926 2.90692 0
M  V30 3670 C 352.583 3.57066 2.75345 0
M  V30 3671 C 351.245 3.97724 2.70867 0
M  V30 3672 C 353.597 4.51817 2.59828 0
M  V30 3673 C 350.925 5.31344 2.48778 0
M  V30 3674 C 353.277 5.85604 2.39272 0
M  V30 3675 C 351.941 6.25439 2.33199 0
M  V30 3676 H 351.211 0.458934 0.581774 0
M  V30 3677 H 353.858 1.65335 0.966261 0
M  V30 3678 H 352.163 1.608 3.57282 0
M  V30 3679 H 353.86 1.98868 3.48213 0
M  V30 3680 H 350.45 3.24785 2.79665 0
M  V30 3681 H 354.634 4.21311 2.62319 0
M  V30 3682 H 349.89 5.61241 2.42526 0
M  V30 3683 H 354.064 6.58623 2.2625 0
M  V30 3684 H 351.691 7.28914 2.15843 0
M  V30 3685 N 353.266 -1.05314 1.17247 0
M  V30 3686 C 354.196 -2.1498 0.911362 0
M  V30 3687 C 355.177 -1.69471 -0.146169 0
M  V30 3688 O 356.362 -1.942 0.003812 0
M  V30 3689 C 353.492 -3.4472 0.422528 0
M  V30 3690 C 352.446 -4.03789 1.4191 0
M  V30 3691 C 351.772 -5.28858 0.788274 0
M  V30 3692 C 353.072 -4.41418 2.7919 0
M  V30 3693 H 354.766 -2.3708 1.82848 0
M  V30 3694 H 352.312 -1.13938 0.880569 0
M  V30 3695 H 354.265 -4.20787 0.227289 0
M  V30 3696 H 352.989 -3.22269 -0.530123 0
M  V30 3697 H 351.648 -3.2979 1.60106 0
M  V30 3698 H 351.296 -5.02709 -0.171173 0
M  V30 3699 H 350.996 -5.69338 1.45353 0
M  V30 3700 H 352.52 -6.07612 0.603282 0
M  V30 3701 H 353.934 -5.08524 2.64719 0
M  V30 3702 H 352.331 -4.92913 3.42282 0
M  V30 3703 H 353.401 -3.51819 3.33693 0
M  V30 3704 N 354.744 -0.972509 -1.24016 0
M  V30 3705 C 355.969 -0.654417 -1.96805 0
M  V30 3706 C 356.394 0.770398 -1.716 0
M  V30 3707 O 355.752 1.52361 -0.982647 0
M  V30 3708 C 355.8 -0.941031 -3.48105 0
M  V30 3709 O 354.904 -0.0289472 -4.1239 0
M  V30 3710 H 354.245 -0.24692 -0.616382 0
M  V30 3711 H 356.775 -1.30396 -1.57664 0
M  V30 3712 H 356.785 -0.87452 -3.98517 0
M  V30 3713 H 355.46 -1.97939 -3.65777 0
M  V30 3714 H 354.037 -0.149192 -3.72601 0
M  V30 3715 N 356.222 1.38976 -0.743202 0
M  V30 3716 C 357.471 1.99581 -0.291592 0
M  V30 3717 C 357.784 1.59656 1.13001 0
M  V30 3718 O 358.99 2.13157 1.68156 0
M  V30 3719 C 357.446 3.56813 -0.470391 0
M  V30 3720 C 357.054 4.05695 -1.90041 0
M  V30 3721 C 358.798 4.24423 -0.0809709 0
M  V30 3722 C 356.705 5.5553 -2.02832 0
M  V30 3723 H 355.635 0.746615 -0.105272 0
M  V30 3724 H 358.286 1.58872 -0.918258 0
M  V30 3725 H 356.668 3.95359 0.225299 0
M  V30 3726 H 357.842 3.78464 -2.62872 0
M  V30 3727 H 356.157 3.50775 -2.24379 0
M  V30 3728 H 358.754 5.34474 -0.155445 0
M  V30 3729 H 359.097 4.04962 0.96497 0
M  V30 3730 H 359.63 3.9108 -0.728124 0
M  V30 3731 H 356.369 5.79881 -3.05643 0
M  V30 3732 H 355.889 5.84537 -1.34448 0
M  V30 3733 H 357.568 6.21069 -1.81335 0
M  V30 3734 N 357.7 0.491464 1.49741 0
M  V30 3735 C 358.948 -0.0563141 2.02022 0
M  V30 3736 C 359.269 -1.38363 1.37407 0
M  V30 3737 O 358.539 -1.88702 0.526166 0
M  V30 3738 H 357.119 -0.0238014 0.746621 0
M  V30 3739 H 359.781 0.646533 1.83864 0
M  V30 3740 H 358.877 -0.192967 3.11503 0
M  V30 3741 N 359.178 -1.55987 0.224894 0
M  V30 3742 C 360.141 -2.19178 -0.670348 0
M  V30 3743 C 361.141 -1.15461 -1.11917 0
M  V30 3744 O 362.331 -1.40675 -1.02743 0
M  V30 3745 C 359.463 -2.81777 -1.9187 0
M  V30 3746 H 360.656 -2.99662 -0.119364 0
M  V30 3747 H 358.209 -1.5628 -0.0247128 0
M  V30 3748 H 358.944 -2.05172 -2.51147 0
M  V30 3749 H 358.729 -3.57732 -1.60531 0
M  V30 3750 H 360.219 -3.30205 -2.55645 0
M  V30 3751 N 360.656 0.0484629 -1.57525 0
M  V30 3752 C 362.072 0.40375 -1.54409 0
M  V30 3753 C 362.272 1.77786 -0.948384 0
M  V30 3754 O 361.328 2.46189 -0.560983 0
M  V30 3755 C 362.641 0.323394 -2.98956 0
M  V30 3756 C 364.189 0.401892 -3.10409 0
M  V30 3757 C 364.664 0.351195 -4.56652 0
M  V30 3758 N 366.155 0.410576 -4.61377 0
M  V30 3759 C 366.89 0.393933 -5.72045 0
M  V30 3760 N 366.386 0.330724 -6.9201 0
M  V30 3761 N 368.179 0.442227 -5.60358 0
M  V30 3762 H 360.33 -0.851016 -1.94606 0
M  V30 3763 H 362.593 -0.321721 -0.89174 0
M  V30 3764 H 362.299 -0.62011 -3.4619 0
M  V30 3765 H 362.173 1.12463 -3.60044 0
M  V30 3766 H 364.56 1.33582 -2.63134 0
M  V30 3767 H 364.641 -0.428342 -2.52188 0
M  V30 3768 H 364.285 -0.578987 -5.04589 0
M  V30 3769 H 364.215 1.19928 -5.12762 0
M  V30 3770 H 366.706 0.462729 -3.75056 0
M  V30 3771 H 367.019 0.322592 -7.72126 0
M  V30 3772 H 365.364 0.29706 -6.94365 0
M  V30 3773 H 368.555 0.489464 -4.65534 0
M  V30 3774 H 368.728 0.425788 -6.466 0
M  V30 3775 N 362.134 1.5431 0.320358 0
M  V30 3776 C 363.364 1.7638 1.07582 0
M  V30 3777 C 363.772 0.513944 1.82086 0
M  V30 3778 O 363.115 -0.525123 1.76035 0
M  V30 3779 C 363.177 2.9055 2.1171 0
M  V30 3780 C 362.841 4.2934 1.56575 0
M  V30 3781 C 363.838 5.10077 1.00586 0
M  V30 3782 C 361.523 4.75893 1.60722 0
M  V30 3783 C 363.517 6.35477 0.494756 0
M  V30 3784 C 361.204 6.0126 1.09224 0
M  V30 3785 C 362.202 6.80886 0.53696 0
M  V30 3786 O 361.89 8.03894 0.0297371 0
M  V30 3787 H 361.622 0.592369 0.325692 0
M  V30 3788 H 364.176 2.02019 0.37116 0
M  V30 3789 H 362.406 2.60489 2.85801 0
M  V30 3790 H 364.095 3.00373 2.73003 0
M  V30 3791 H 364.861 4.75265 0.966869 0
M  V30 3792 H 360.74 4.13957 2.02882 0
M  V30 3793 H 364.284 6.97574 0.0606842 0
M  V30 3794 H 360.181 6.35562 1.12831 0
M  V30 3795 H 360.949 8.18372 0.14486 0
M  V30 3796 N 363.613 -0.582584 1.46437 0
M  V30 3797 C 364.843 -1.36484 1.55099 0
M  V30 3798 C 365.251 -1.88233 0.191056 0
M  V30 3799 O 364.594 -1.6429 -0.821858 0
M  V30 3800 C 364.656 -2.588 2.49525 0
M  V30 3801 C 364.32 -2.28517 3.95764 0
M  V30 3802 C 365.317 -1.87346 4.84972 0
M  V30 3803 C 363.002 -2.40658 4.40896 0
M  V30 3804 C 364.996 -1.5871 6.17325 0
M  V30 3805 C 362.683 -2.11635 5.73284 0
M  V30 3806 C 363.681 -1.70725 6.61318 0
M  V30 3807 O 363.369 -1.42057 7.91249 0
M  V30 3808 H 363.101 -0.423297 0.527063 0
M  V30 3809 H 365.655 -0.715188 1.92547 0
M  V30 3810 H 363.885 -3.26571 2.07095 0
M  V30 3811 H 365.574 -3.20868 2.48593 0
M  V30 3812 H 366.34 -1.77481 4.5136 0
M  V30 3813 H 362.219 -2.71463 3.72598 0
M  V30 3814 H 365.763 -1.26704 6.85997 0
M  V30 3815 H 361.66 -2.21124 6.06444 0
M  V30 3816 H 362.428 -1.55901 8.03515 0
M  V30 3817 N 365.091 -1.34144 -0.827227 0
M  V30 3818 C 366.507 -1.13732 -1.11969 0
M  V30 3819 C 366.707 0.0640463 -2.01398 0
M  V30 3820 O 365.763 0.740856 -2.41387 0
M  V30 3821 C 367.076 -2.43047 -1.77055 0
M  V30 3822 C 368.624 -2.49063 -1.89569 0
M  V30 3823 C 369.099 -3.78369 -2.58072 0
M  V30 3824 N 370.59 -3.79505 -2.65575 0
M  V30 3825 C 371.325 -4.76274 -3.19297 0
M  V30 3826 N 370.821 -5.83424 -3.73616 0
M  V30 3827 N 372.614 -4.63735 -3.17658 0
M  V30 3828 H 364.765 -2.11126 -0.232296 0
M  V30 3829 H 367.028 -0.933424 -0.165602 0
M  V30 3830 H 366.734 -3.31025 -1.18807 0
M  V30 3831 H 366.608 -2.56066 -2.76966 0
M  V30 3832 H 368.995 -1.61527 -2.46968 0
M  V30 3833 H 369.076 -2.39975 -0.885745 0
M  V30 3834 H 368.72 -4.66293 -2.01329 0
M  V30 3835 H 368.65 -3.84737 -3.59562 0
M  V30 3836 H 371.141 -3.02074 -2.27068 0
M  V30 3837 H 371.454 -6.53282 -4.12846 0
M  V30 3838 H 369.799 -5.87143 -3.71871 0
M  V30 3839 H 372.99 -3.79177 -2.74486 0
M  V30 3840 H 373.163 -5.39318 -3.59221 0
M  V30 3841 N 366.569 1.04691 -1.17803 0
M  V30 3842 C 367.479 2.16057 -0.914151 0
M  V30 3843 C 368.495 1.73589 0.119503 0
M  V30 3844 O 369.671 2.01308 -0.0609468 0
M  V30 3845 C 366.736 3.4394 -0.436603 0
M  V30 3846 C 365.797 4.00825 -1.53746 0
M  V30 3847 C 365.03 5.22604 -1.0826 0
M  V30 3848 O 365.253 5.70367 0.0612244 0
M  V30 3849 O 364.187 5.7186 -1.87775 0
M  V30 3850 H 368.013 2.41169 -1.84584 0
M  V30 3851 H 365.598 1.1453 -0.959334 0
M  V30 3852 H 367.48 4.21024 -0.178057 0
M  V30 3853 H 366.155 3.20316 0.466869 0
M  V30 3854 H 365.062 3.25158 -1.84995 0
M  V30 3855 H 366.395 4.28778 -2.41683 0
M  V30 3856 N 368.047 0.979072 1.23499 0
M  V30 3857 C 369.293 0.648178 1.92163 0
M  V30 3858 C 369.626 -0.816049 1.76222 0
M  V30 3859 O 368.901 -1.58849 1.12237 0
M  V30 3860 C 369.184 1.03773 3.44824 0
M  V30 3861 C 369.037 2.55948 3.69879 0
M  V30 3862 C 370.356 0.580653 4.36253 0
M  V30 3863 H 367.475 0.236952 0.69787 0
M  V30 3864 H 370.117 1.22012 1.45647 0
M  V30 3865 H 368.267 0.551058 3.84572 0
M  V30 3866 H 369.939 3.12179 3.3962 0
M  V30 3867 H 368.182 2.98641 3.14636 0
M  V30 3868 H 368.853 2.78255 4.76737 0
M  V30 3869 H 371.329 0.998465 4.03943 0
M  V30 3870 H 370.205 0.881663 5.41773 0
M  V30 3871 H 370.466 -0.519052 4.39042 0
M  V30 3872 N 369.525 -1.3858 0.750561 0
M  V30 3873 C 370.455 -2.33102 0.136237 0
M  V30 3874 C 371.436 -1.54713 -0.706965 0
M  V30 3875 O 372.621 -1.83043 -0.648769 0
M  V30 3876 C 369.751 -3.38882 -0.760017 0
M  V30 3877 C 368.705 -4.27995 -0.0197785 0
M  V30 3878 C 368.031 -5.24605 -1.03408 0
M  V30 3879 C 369.331 -5.09554 1.14684 0
M  V30 3880 H 371.025 -2.84726 0.925822 0
M  V30 3881 H 368.571 -1.36898 0.446654 0
M  V30 3882 H 370.524 -4.0397 -1.19943 0
M  V30 3883 H 369.248 -2.85734 -1.58189 0
M  V30 3884 H 367.907 -3.64409 0.400184 0
M  V30 3885 H 367.555 -4.67746 -1.84994 0
M  V30 3886 H 367.255 -5.85081 -0.543464 0
M  V30 3887 H 368.779 -5.9257 -1.47288 0
M  V30 3888 H 370.193 -5.67899 0.785118 0
M  V30 3889 H 368.59 -5.7925 1.56812 0
M  V30 3890 H 369.66 -4.4347 1.96118 0
M  V30 3891 N 371.003 -0.499398 -1.49478 0
M  V30 3892 C 372.414 -0.051215 -1.8663 0
M  V30 3893 C 372.765 1.36238 -1.41186 0
M  V30 3894 O 371.89 2.01502 -0.789051 0
M  V30 3895 C 372.485 -0.0861651 -3.3869 0
M  V30 3896 C 371.044 0.30667 -3.75149 0
M  V30 3897 C 370.191 -0.459397 -2.73468 0
M  V30 3898 H 373.142 -0.712264 -1.41818 0
M  V30 3899 H 373.163 0.709507 -3.73826 0
M  V30 3900 H 372.675 -1.11512 -3.71735 0
M  V30 3901 H 370.776 1.33892 -3.47712 0
M  V30 3902 H 370.889 -0.0116669 -4.79099 0
M  V30 3903 H 369.253 0.0905645 -2.54539 0
M  V30 3904 H 370.036 -1.4884 -3.09357 0
M  V30 3905 N 372.481 1.55866 -0.233164 0
M  V30 3906 C 373.729 1.9821 0.394593 0
M  V30 3907 C 374.05 1.12234 1.59463 0
M  V30 3908 O 373.32 0.201981 1.94856 0
M  V30 3909 H 371.9 0.732034 0.148778 0
M  V30 3910 H 374.562 1.92107 -0.32876 0
M  V30 3911 H 373.658 3.03845 0.713063 0
M  V30 3912 N 373.959 -0.0401083 1.57549 0
M  V30 3913 C 374.869 -1.06133 2.0922 0
M  V30 3914 C 375.885 -1.40356 1.0284 0
M  V30 3915 O 377.061 -1.49897 1.34509 0
M  V30 3916 C 374.126 -2.34658 2.55218 0
M  V30 3917 C 373.187 -2.07117 3.76033 0
M  V30 3918 C 372.42 -3.29514 4.19829 0
M  V30 3919 O 372.643 -4.39794 3.63232 0
M  V30 3920 O 371.577 -3.15863 5.12362 0
M  V30 3921 H 375.403 -0.652244 2.96613 0
M  V30 3922 H 372.988 -0.256368 1.47184 0
M  V30 3923 H 374.87 -3.10239 2.85184 0
M  V30 3924 H 373.545 -2.74883 1.70941 0
M  V30 3925 H 372.452 -1.29139 3.51104 0
M  V30 3926 H 373.785 -1.71754 4.61261 0
M  V30 3927 N 375.437 -1.54477 -0.31217 0
M  V30 3928 C 376.686 -1.72438 -1.04633 0
M  V30 3929 C 376.999 -0.511163 -1.88803 0
M  V30 3930 O 378.205 -0.572341 -2.65399 0
M  V30 3931 C 376.661 -3.05043 -1.9099 0
M  V30 3932 C 376.269 -4.33806 -1.11877 0
M  V30 3933 C 378.013 -3.32364 -2.64073 0
M  V30 3934 C 375.92 -5.57467 -1.97445 0
M  V30 3935 H 374.85 -0.642647 -0.394361 0
M  V30 3936 H 377.501 -1.80966 -0.303929 0
M  V30 3937 H 375.883 -2.90451 -2.69173 0
M  V30 3938 H 377.057 -4.59199 -0.383843 0
M  V30 3939 H 375.372 -4.13336 -0.504252 0
M  V30 3940 H 377.969 -4.21951 -3.28423 0
M  V30 3941 H 378.312 -2.50745 -3.32314 0
M  V30 3942 H 378.845 -3.47875 -1.92944 0
M  V30 3943 H 375.584 -6.41722 -1.33692 0
M  V30 3944 H 375.104 -5.36277 -2.6864 0
M  V30 3945 H 376.783 -5.94303 -2.5576 0
M  V30 3946 N 376.915 0.57481 -1.46744 0
M  V30 3947 C 378.161 1.3347 -1.52688 0
M  V30 3948 C 378.494 1.93353 -0.181229 0
M  V30 3949 O 377.769 1.76912 0.808237 0
M  V30 3950 C 378.052 2.45811 -2.63152 0
M  V30 3951 C 377.905 1.90912 -4.07275 0
M  V30 3952 C 379.224 3.47822 -2.69644 0
M  V30 3953 H 376.343 0.483935 -0.555856 0
M  V30 3954 H 378.985 0.644968 -1.78718 0
M  V30 3955 H 377.135 3.04646 -2.41088 0
M  V30 3956 H 378.807 1.36473 -4.4065 0
M  V30 3957 H 377.05 1.21691 -4.16382 0
M  V30 3958 H 377.721 2.72042 -4.80309 0
M  V30 3959 H 380.197 2.9888 -2.895 0
M  V30 3960 H 379.073 4.23876 -3.48742 0
M  V30 3961 H 379.334 4.05555 -1.76005 0
M  V30 3962 N 378.394 1.34581 0.820102 0
M  V30 3963 C 379.304 1.28471 1.96297 0
M  V30 3964 C 380.32 0.191902 1.72939 0
M  V30 3965 O 381.496 0.418879 1.96996 0
M  V30 3966 C 378.561 1.04281 3.30645 0
M  V30 3967 C 377.622 2.22745 3.66992 0
M  V30 3968 C 376.855 1.997 4.9493 0
M  V30 3969 O 377.078 0.956656 5.6232 0
M  V30 3970 O 376.012 2.86723 5.2922 0
M  V30 3971 H 379.838 2.24624 2.04396 0
M  V30 3972 H 377.423 1.14816 0.955913 0
M  V30 3973 H 379.305 0.925841 4.11104 0
M  V30 3974 H 377.98 0.111697 3.23507 0
M  V30 3975 H 376.887 2.40003 2.86966 0
M  V30 3976 H 378.22 3.14257 3.78819 0
M  V30 3977 N 379.872 -1.04064 1.18357 0
M  V30 3978 C 381.121 -1.76662 0.973313 0
M  V30 3979 C 381.434 -1.89154 -0.497991 0
M  V30 3980 O 382.64 -2.58606 -0.826762 0
M  V30 3981 C 381.096 -3.17624 1.69242 0
M  V30 3982 C 380.704 -3.13225 3.20303 0
M  V30 3983 C 382.448 -3.946 1.56497 0
M  V30 3984 C 380.355 -4.49046 3.84853 0
M  V30 3985 H 379.285 -0.662214 0.36054 0
M  V30 3986 H 381.936 -1.16553 1.41731 0
M  V30 3987 H 380.318 -3.78129 1.1762 0
M  V30 3988 H 381.492 -2.62172 3.78949 0
M  V30 3989 H 379.807 -2.49749 3.33189 0
M  V30 3990 H 382.404 -4.95042 2.02084 0
M  V30 3991 H 382.747 -4.13074 0.517243 0
M  V30 3992 H 383.28 -3.4067 2.05399 0
M  V30 3993 H 380.019 -4.35777 4.89672 0
M  V30 3994 H 379.539 -5.00203 3.30994 0
M  V30 3995 H 381.218 -5.17961 3.87718 0
M  V30 3996 N 381.35 -0.985608 -1.22978 0
M  V30 3997 C 382.575 -0.675254 -1.961 0
M  V30 3998 C 383 0.752154 -1.72407 0
M  V30 3999 O 382.358 1.5131 -0.998751 0
M  V30 4000 C 382.406 -0.977899 -3.47087 0
M  V30 4001 O 381.51 -0.072685 -4.12336 0
M  V30 4002 H 380.851 -0.253443 -0.613728 0
M  V30 4003 H 383.381 -1.32061 -1.56272 0
M  V30 4004 H 383.391 -0.916739 -3.97567 0
M  V30 4005 H 382.066 -2.01807 -3.63657 0
M  V30 4006 H 380.643 -0.188703 -3.72422 0
M  V30 4007 N 382.828 1.3818 -0.7579 0
M  V30 4008 C 384.244 1.5353 -0.435972 0
M  V30 4009 C 384.444 1.71961 1.05032 0
M  V30 4010 O 383.5 1.73307 1.83633 0
M  V30 4011 C 384.813 2.73989 -1.23898 0
M  V30 4012 C 386.361 2.87841 -1.22949 0
M  V30 4013 C 386.836 4.11266 -2.01554 0
M  V30 4014 N 388.327 4.18352 -1.98837 0
M  V30 4015 C 389.062 5.12856 -2.5645 0
M  V30 4016 N 388.558 6.13005 -3.22794 0
M  V30 4017 N 390.351 5.05238 -2.46356 0
M  V30 4018 H 382.502 1.24467 -1.7211 0
M  V30 4019 H 384.765 0.604982 -0.729864 0
M  V30 4020 H 384.471 2.66789 -2.29165 0
M  V30 4021 H 384.345 3.67294 -0.858764 0
M  V30 4022 H 386.732 2.9452 -0.184854 0
M  V30 4023 H 386.813 1.95534 -1.64924 0
M  V30 4024 H 386.457 4.05349 -3.06031 0
M  V30 4025 H 386.387 5.02661 -1.5697 0
M  V30 4026 H 388.878 3.46628 -1.50524 0
M  V30 4027 H 389.191 6.81619 -3.64165 0
M  V30 4028 H 387.536 6.13325 -3.2689 0
M  V30 4029 H 390.727 4.25938 -1.9415 0
M  V30 4030 H 390.9 5.78707 -2.91552 0
M  V30 4031 N 384.306 0.507319 1.49211 0
M  V30 4032 C 385.256 -0.287112 2.26185 0
M  V30 4033 C 386.24 -0.929983 1.31302 0
M  V30 4034 O 387.432 -0.836538 1.55984 0
M  V30 4035 C 384.561 -1.34718 3.15763 0
M  V30 4036 C 383.647 -0.710235 4.18111 0
M  V30 4037 N 384.038 0.190836 5.0544 0
M  V30 4038 C 382.336 -0.97009 4.35322 0
M  V30 4039 C 383.037 0.55606 5.79036 0
M  V30 4040 N 382.013 -0.0775232 5.43545 0
M  V30 4041 H 385.815 0.406445 2.91076 0
M  V30 4042 H 383.329 0.323814 1.59139 0
M  V30 4043 H 385.326 -1.92982 3.69545 0
M  V30 4044 H 383.986 -2.04235 2.52424 0
M  V30 4045 H 384.997 0.562047 5.14841 0
M  V30 4046 H 381.674 -1.65753 3.83187 0
M  V30 4047 H 383.064 1.2936 6.5933 0
M  V30 4048 N 385.784 -1.5574 0.241426 0
M  V30 4049 C 386.732 -2.22538 -0.676718 0
M  V30 4050 C 387.726 -1.21117 -1.18436 0
M  V30 4051 O 388.932 -1.39144 -1.14188 0
M  V30 4052 H 385.307 -0.713776 -0.236701 0
M  V30 4053 H 387.278 -2.98264 -0.0901187 0
M  V30 4054 C 386.027 -2.93439 -1.86518 0
M  V30 4055 H 385.35 -3.7125 -1.4837 0
M  V30 4056 H 386.79 -3.43549 -2.48495 0
M  V30 4057 C 385.249 -1.97008 -2.73294 0
M  V30 4058 O 385.779 -1.49965 -3.72657 0
M  V30 4059 N 383.985 -1.64227 -2.39745 0
M  V30 4060 H 383.532 -2.02677 -1.58996 0
M  V30 4061 H 383.49 -0.999708 -2.98083 0
M  V30 4062 N 387.262 0.0317525 -1.57568 0
M  V30 4063 C 388.508 0.724175 -1.8943 0
M  V30 4064 C 388.841 1.75149 -0.838836 0
M  V30 4065 O 388.116 1.93948 0.146422 0
M  V30 4066 C 388.399 1.39615 -3.31933 0
M  V30 4067 C 388.252 0.382537 -4.4817 0
M  V30 4068 C 389.571 2.33084 -3.73309 0
M  V30 4069 H 386.69 0.261797 -0.688935 0
M  V30 4070 H 389.332 -0.013017 -1.89996 0
M  V30 4071 H 387.482 2.02451 -3.31581 0
M  V30 4072 H 389.154 -0.243689 -4.60656 0
M  V30 4073 H 387.397 -0.29844 -4.32772 0
M  V30 4074 H 388.068 0.891145 -5.44759 0
M  V30 4075 H 390.544 1.80295 -3.7501 0
M  V30 4076 H 389.42 2.77084 -4.73831 0
M  V30 4077 H 389.681 3.19643 -3.05419 0
M  V30 4078 N 388.74 1.54641 0.303973 0
M  V30 4079 C 389.672 1.81754 1.39636 0
M  V30 4080 C 390.685 0.70035 1.46966 0
M  V30 4081 O 391.874 0.97778 1.49338 0
M  V30 4082 C 388.974 1.93785 2.7803 0
M  V30 4083 C 388.147 3.24156 2.93669 0
M  V30 4084 C 387.206 3.26641 4.12544 0
M  V30 4085 O 386.232 4.00187 4.04771 0
M  V30 4086 N 387.434 2.5182 5.23036 0
M  V30 4087 H 390.199 2.76031 1.16734 0
M  V30 4088 H 387.76 1.54178 0.494033 0
M  V30 4089 H 389.752 1.92852 3.55795 0
M  V30 4090 H 388.322 1.06515 2.93893 0
M  V30 4091 H 387.542 3.37887 2.03042 0
M  V30 4092 H 388.83 4.10195 3.01027 0
M  V30 4093 H 388.228 1.91692 5.32232 0
M  V30 4094 H 386.785 2.56644 5.99147 0
M  V30 4095 N 390.218 -0.567019 1.47046 0
M  V30 4096 C 391.446 -1.35027 1.56765 0
M  V30 4097 C 391.861 -1.8758 0.214316 0
M  V30 4098 O 391.218 -1.64471 -0.790919 0
M  V30 4099 C 391.269 -2.52698 2.58507 0
M  V30 4100 O 390.99 -2.0232 3.88585 0
M  V30 4101 C 392.491 -3.45043 2.78316 0
M  V30 4102 H 389.711 -0.41195 0.529658 0
M  V30 4103 H 392.255 -0.687832 1.92585 0
M  V30 4104 H 390.41 -3.149 2.25648 0
M  V30 4105 H 390.824 -2.79068 4.44096 0
M  V30 4106 H 392.298 -4.2405 3.53391 0
M  V30 4107 H 392.775 -3.97971 1.85784 0
M  V30 4108 H 393.381 -2.88665 3.12334 0
M  V30 4109 N 391.696 -1.35014 -0.812953 0
M  V30 4110 C 392.626 -1.30069 -1.93919 0
M  V30 4111 C 393.607 -0.176275 -1.69184 0
M  V30 4112 O 394.792 -0.370227 -1.90638 0
M  V30 4113 C 391.922 -1.06547 -3.30552 0
M  V30 4114 C 390.876 -2.15561 -3.69753 0
M  V30 4115 C 390.202 -1.77214 -5.04479 0
M  V30 4116 C 391.502 -3.57476 -3.808 0
M  V30 4117 H 393.196 -2.24303 -1.98314 0
M  V30 4118 H 390.742 -1.07977 -0.952736 0
M  V30 4119 H 392.695 -1.01729 -4.08937 0
M  V30 4120 H 391.419 -0.0875719 -3.26483 0
M  V30 4121 H 390.078 -2.19466 -2.9365 0
M  V30 4122 H 389.726 -0.780589 -4.96906 0
M  V30 4123 H 389.426 -2.50184 -5.31678 0
M  V30 4124 H 390.95 -1.7391 -5.8531 0
M  V30 4125 H 392.364 -3.55929 -4.4943 0
M  V30 4126 H 390.761 -4.29152 -4.19462 0
M  V30 4127 H 391.831 -3.94091 -2.82525 0
M  V30 4128 N 393.175 1.03435 -1.18907 0
M  V30 4129 C 394.452 1.73778 -0.89781 0
M  V30 4130 C 394.832 2.02458 0.597832 0
M  V30 4131 O 394.18 1.67482 1.55441 0
M  V30 4132 C 394.39 3.01845 -1.75187 0
M  V30 4133 C 395.738 3.7546 -1.9828 0
M  V30 4134 O 396.762 3.11759 -1.72293 0
M  V30 4135 O 395.621 4.89966 -2.42065 0
M  V30 4136 H 392.715 0.75651 -0.334098 0
M  V30 4137 H 395.261 1.09444 -1.29693 0
M  V30 4138 H 394.033 2.76836 -2.76545 0
M  V30 4139 H 393.656 3.73919 -1.35167 0
M  V30 4140 N 394.653 0.992116 1.22453 0
M  V30 4141 C 395.902 0.662992 1.90492 0
M  V30 4142 C 396.215 -0.808407 1.78113 0
M  V30 4143 O 397.421 -1.24908 2.41061 0
M  V30 4144 C 395.877 1.1353 3.41524 0
M  V30 4145 C 395.485 2.63187 3.62542 0
M  V30 4146 C 397.229 0.880465 4.15269 0
M  V30 4147 C 395.136 3.04024 5.0727 0
M  V30 4148 H 394.066 0.244278 0.713333 0
M  V30 4149 H 396.717 1.20157 1.38688 0
M  V30 4150 H 395.099 0.52485 3.92506 0
M  V30 4151 H 396.273 3.2957 3.22056 0
M  V30 4152 H 394.588 2.86543 3.02129 0
M  V30 4153 H 397.185 1.16128 5.21937 0
M  V30 4154 H 397.528 -0.183408 4.15896 0
M  V30 4155 H 398.061 1.45307 3.70312 0
M  V30 4156 H 394.8 4.09584 5.11782 0
M  V30 4157 H 394.32 2.42343 5.48662 0
M  V30 4158 H 395.999 2.95282 5.75689 0
M  V30 4159 N 396.131 -1.37776 0.765217 0
M  V30 4160 C 397.38 -1.99092 0.323307 0
M  V30 4161 C 397.693 -1.61434 -1.10446 0
M  V30 4162 O 398.899 -2.15805 -1.64743 0
M  V30 4163 C 397.355 -3.56019 0.527098 0
M  V30 4164 C 396.963 -4.0262 1.96471 0
M  V30 4165 C 398.707 -4.2424 0.148483 0
M  V30 4166 C 396.614 -5.52233 2.11644 0
M  V30 4167 H 395.544 -0.744846 0.117137 0
M  V30 4168 H 398.195 -1.57391 0.943417 0
M  V30 4169 H 396.577 -3.95667 -0.162372 0
M  V30 4170 H 397.751 -3.74234 2.68859 0
M  V30 4171 H 396.066 -3.47161 2.29931 0
M  V30 4172 H 398.663 -5.34159 0.240456 0
M  V30 4173 H 399.006 -4.06446 -0.900422 0
M  V30 4174 H 399.539 -3.89872 0.79025 0
M  V30 4175 H 396.278 -5.74945 3.1483 0
M  V30 4176 H 395.798 -5.82324 1.4373 0
M  V30 4177 H 397.477 -6.18106 1.91193 0
M  V30 4178 N 397.609 -0.515225 -1.4894 0
M  V30 4179 C 398.834 0.022727 -2.07388 0
M  V30 4180 C 399.259 1.2876 -1.37122 0
M  V30 4181 O 398.617 1.76067 -0.432431 0
M  V30 4182 C 398.665 0.244869 -3.59768 0
M  V30 4183 O 397.769 1.31667 -3.90817 0
M  V30 4184 H 397.11 -0.0325506 -0.663202 0
M  V30 4185 H 399.64 -0.718918 -1.91553 0
M  V30 4186 H 399.65 0.47205 -4.0526 0
M  V30 4187 H 398.325 -0.679194 -4.10317 0
M  V30 4188 H 396.902 1.07331 -3.5712 0
M  V30 4189 N 399.087 1.5561 -0.249682 0
M  V30 4190 C 400.503 1.59254 0.105103 0
M  V30 4191 C 400.703 1.26685 1.56694 0
M  V30 4192 O 399.759 1.0155 2.31179 0
M  V30 4193 C 401.072 2.99687 -0.246592 0
M  V30 4194 C 402.62 3.12416 -0.191118 0
M  V30 4195 C 403.095 4.55074 -0.516885 0
M  V30 4196 N 404.586 4.60835 -0.467489 0
M  V30 4197 C 405.321 5.69201 -0.69268 0
M  V30 4198 N 404.817 6.85817 -0.981146 0
M  V30 4199 N 406.61 5.58635 -0.623198 0
M  V30 4200 H 398.761 1.75049 -1.20298 0
M  V30 4201 H 401.024 0.815003 -0.484225 0
M  V30 4202 H 400.73 3.28267 -1.26228 0
M  V30 4203 H 400.604 3.74798 0.424962 0
M  V30 4204 H 402.991 2.83615 0.815247 0
M  V30 4205 H 403.072 2.39573 -0.896563 0
M  V30 4206 H 402.716 4.84596 -1.52082 0
M  V30 4207 H 402.646 5.26181 0.210068 0
M  V30 4208 H 405.137 3.7705 -0.253373 0
M  V30 4209 H 405.45 7.64341 -1.14032 0
M  V30 4210 H 403.795 6.87494 -1.01865 0
M  V30 4211 H 406.986 4.66406 -0.397863 0
M  V30 4212 H 407.159 6.43017 -0.802093 0
M  V30 4213 N 400.565 -0.0233959 1.57583 0
M  V30 4214 C 401.79 -0.728376 1.94189 0
M  V30 4215 C 402.215 -1.67793 0.850119 0
M  V30 4216 O 401.573 -1.80262 -0.19371 0
M  V30 4217 C 401.621 -1.45669 3.29868 0
M  V30 4218 O 400.725 -2.57013 3.22518 0
M  V30 4219 H 400.066 -0.195493 0.63457 0
M  V30 4220 H 402.596 0.0228214 2.04587 0
M  V30 4221 H 402.606 -1.82535 3.6489 0
M  V30 4222 H 401.281 -0.760314 4.08891 0
M  V30 4223 H 399.858 -2.22648 2.99136 0
M  V30 4224 N 402.043 -1.548 -0.295768 0
M  V30 4225 C 402.953 -1.89177 -1.38742 0
M  V30 4226 C 403.969 -0.786481 -1.55211 0
M  V30 4227 O 405.145 -1.08344 -1.69775 0
M  V30 4228 C 402.21 -2.13663 -2.73036 0
M  V30 4229 C 401.271 -3.37349 -2.65508 0
M  V30 4230 C 400.504 -3.60658 -3.93398 0
M  V30 4231 O 400.727 -2.86882 -4.93006 0
M  V30 4232 O 399.661 -4.54179 -3.94975 0
M  V30 4233 H 403.487 -2.82059 -1.12589 0
M  V30 4234 H 401.072 -1.41056 -0.492295 0
M  V30 4235 H 402.954 -2.3094 -3.52484 0
M  V30 4236 H 401.629 -1.23967 -2.99022 0
M  V30 4237 H 400.536 -3.25431 -1.84514 0
M  V30 4238 H 401.869 -4.27192 -2.44474 0
M  V30 4239 N 403.521 0.559213 -1.47345 0
M  V30 4240 C 404.769 1.31388 -1.53563 0
M  V30 4241 C 405.09 1.93985 -0.198678 0
M  V30 4242 O 404.36 1.79825 0.777167 0
M  V30 4243 H 402.94 0.487901 -0.565652 0
M  V30 4244 H 405.602 0.65315 -1.8363 0
M  V30 4245 H 404.698 2.10844 -2.30111 0
M  V30 4246 N 404.999 1.35443 0.805782 0
M  V30 4247 C 405.947 1.28465 1.93906 0
M  V30 4248 C 406.941 0.17943 1.68447 0
M  V30 4249 O 408.147 0.345459 1.76654 0
M  V30 4250 H 404.522 0.399528 0.637088 0
M  V30 4251 H 406.493 2.24206 1.96912 0
M  V30 4252 C 405.242 1.07432 3.30687 0
M  V30 4253 H 404.565 1.91716 3.50835 0
M  V30 4254 H 406.005 1.06591 4.10383 0
M  V30 4255 C 404.464 -0.22179 3.36169 0
M  V30 4256 O 404.994 -1.21731 3.82811 0
M  V30 4257 N 403.2 -0.260841 2.89427 0
M  V30 4258 H 402.747 0.549884 2.51663 0
M  V30 4259 H 402.705 -1.12777 2.93477 0
M  V30 4260 N 406.477 -1.02803 1.19454 0
M  V30 4261 C 407.888 -1.57667 0.999899 0
M  V30 4262 C 408.239 -1.91041 -0.446956 0
M  V30 4263 O 407.364 -1.70978 -1.32648 0
M  V30 4264 C 407.959 -2.86477 1.80877 0
M  V30 4265 C 406.518 -3.37911 1.65811 0
M  V30 4266 C 405.665 -2.11343 1.79526 0
M  V30 4267 H 408.616 -0.853214 1.33813 0
M  V30 4268 H 408.637 -3.57408 1.30536 0
M  V30 4269 H 408.149 -2.62155 2.86175 0
M  V30 4270 H 406.25 -3.67218 0.63102 0
M  V30 4271 H 406.363 -4.10885 2.46395 0
M  V30 4272 H 404.727 -2.23254 1.22596 0
M  V30 4273 H 405.51 -1.89461 2.86285 0
M  V30 4274 N 407.956 -0.998596 -1.21925 0
M  V30 4275 C 409.202 -0.678667 -1.91107 0
M  V30 4276 C 409.535 0.78791 -1.77498 0
M  V30 4277 O 408.81 1.57043 -1.1475 0
M  V30 4278 C 409.093 -1.09245 -3.43129 0
M  V30 4279 C 408.946 -2.61801 -3.6576 0
M  V30 4280 C 410.265 -0.649984 -4.35274 0
M  V30 4281 H 407.384 -0.248025 -0.694012 0
M  V30 4282 H 410.026 -1.24314 -1.43688 0
M  V30 4283 H 408.176 -0.612171 -3.83647 0
M  V30 4284 H 409.848 -3.17543 -3.34611 0
M  V30 4285 H 408.091 -3.03609 -3.09845 0
M  V30 4286 H 408.762 -2.85804 -4.7225 0
M  V30 4287 H 411.238 -1.0626 -4.02303 0
M  V30 4288 H 410.114 -0.967743 -5.40302 0
M  V30 4289 H 410.375 0.449139 -4.39813 0
M  V30 4290 N 409.434 1.37368 -0.772513 0
M  V30 4291 C 410.397 2.28601 -0.165541 0
M  V30 4292 C 411.397 1.48062 0.627238 0
M  V30 4293 O 412.587 1.68268 0.450715 0
M  V30 4294 C 409.719 3.32023 0.772897 0
M  V30 4295 H 410.912 2.83787 -0.969787 0
M  V30 4296 H 408.465 1.46647 -0.540775 0
M  V30 4297 H 409.2 2.81962 1.60212 0
M  V30 4298 H 408.985 3.91555 0.206585 0
M  V30 4299 H 410.475 4.00197 1.19298 0
M  V30 4300 N 410.912 0.523116 1.48665 0
M  V30 4301 C 412.159 -0.0134763 2.02496 0
M  V30 4302 C 412.487 -1.3493 1.40086 0
M  V30 4303 O 411.742 -1.88286 0.533567 0
M  V30 4304 C 412.041 -0.191671 3.56886 0
M  V30 4305 C 411.707 1.06893 4.38046 0
M  V30 4306 C 410.369 1.41443 4.59943 0
M  V30 4307 C 412.721 1.90584 4.85106 0
M  V30 4308 C 410.049 2.59594 5.26144 0
M  V30 4309 C 412.401 3.07907 5.52609 0
M  V30 4310 C 411.065 3.42811 5.72745 0
M  V30 4311 H 410.335 -0.00493133 0.740984 0
M  V30 4312 H 412.982 0.687751 1.78724 0
M  V30 4313 H 411.287 -0.97561 3.79459 0
M  V30 4314 H 412.984 -0.621659 3.96152 0
M  V30 4315 H 409.574 0.789848 4.21259 0
M  V30 4316 H 413.758 1.65203 4.67997 0
M  V30 4317 H 409.014 2.86847 5.39934 0
M  V30 4318 H 413.188 3.73066 5.88043 0
M  V30 4319 H 410.815 4.34462 6.23816 0
M  V30 4320 N 412.39 -1.55475 0.257931 0
M  V30 4321 C 413.63 -2.01112 -0.365129 0
M  V30 4322 C 413.994 -1.1423 -1.54323 0
M  V30 4323 O 415.195 -1.49371 -2.23477 0
M  V30 4324 C 413.466 -3.49353 -0.754117 0
M  V30 4325 S 415.025 -4.16992 -1.36614 0
M  V30 4326 H 411.843 -0.701737 -0.114397 0
M  V30 4327 H 414.445 -1.91855 0.375747 0
M  V30 4328 H 413.149 -4.10246 0.112441 0
M  V30 4329 H 412.68 -3.6256 -1.52689 0
M  V30 4330 H 414.695 -4.19191 -2.65505 0
M  V30 4331 N 413.868 0.0150385 -1.57593 0
M  V30 4332 C 415.117 0.702115 -1.89085 0
M  V30 4333 C 415.43 1.75764 -0.858277 0
M  V30 4334 O 416.636 2.49829 -1.0629 0
M  V30 4335 C 415.092 1.29992 -3.35604 0
M  V30 4336 C 414.7 0.280007 -4.47124 0
M  V30 4337 C 416.444 1.96606 -3.76227 0
M  V30 4338 C 414.351 0.886949 -5.84711 0
M  V30 4339 H 413.281 0.265997 -0.705522 0
M  V30 4340 H 415.932 -0.0430408 -1.8345 0
M  V30 4341 H 414.314 2.09525 -3.36029 0
M  V30 4342 H 415.488 -0.489631 -4.58191 0
M  V30 4343 H 413.803 -0.284835 -4.15425 0
M  V30 4344 H 416.4 2.42893 -4.76347 0
M  V30 4345 H 416.743 2.79024 -3.08952 0
M  V30 4346 H 417.276 1.23828 -3.78036 0
M  V30 4347 H 414.015 0.101876 -6.55421 0
M  V30 4348 H 413.535 1.6261 -5.77337 0
M  V30 4349 H 415.214 1.39011 -6.3189 0
M  V30 4350 N 415.346 1.54954 0.287554 0
M  V30 4351 C 416.593 1.74873 1.02106 0
M  V30 4352 C 416.921 0.541829 1.86801 0
M  V30 4353 O 416.176 -0.475992 1.89823 0
M  V30 4354 C 416.475 2.99833 1.94512 0
M  V30 4355 C 416.141 4.33029 1.25686 0
M  V30 4356 C 414.803 4.69233 1.06649 0
M  V30 4357 C 417.155 5.15542 0.765913 0
M  V30 4358 C 414.483 5.85518 0.372222 0
M  V30 4359 C 416.835 6.32542 0.0853101 0
M  V30 4360 C 415.499 6.67398 -0.1169 0
M  V30 4361 H 414.769 0.639906 0.373632 0
M  V30 4362 H 417.416 1.89219 0.294665 0
M  V30 4363 H 415.721 2.80325 2.73725 0
M  V30 4364 H 417.418 3.1244 2.51361 0
M  V30 4365 H 414.008 4.04564 1.41512 0
M  V30 4366 H 418.192 4.88059 0.90066 0
M  V30 4367 H 413.448 6.11057 0.204695 0
M  V30 4368 H 417.622 6.95741 -0.302936 0
M  V30 4369 H 415.249 7.57357 -0.656859 0
M  V30 4370 N 416.824 -0.551391 1.4764 0
M  V30 4371 C 417.734 -1.68525 1.63207 0
M  V30 4372 C 418.75 -1.6621 0.514815 0
M  V30 4373 O 419.926 -1.85551 0.783113 0
M  V30 4374 C 416.991 -3.05025 1.64805 0
M  V30 4375 C 416.052 -3.18362 2.88 0
M  V30 4376 C 415.285 -4.4835 2.89513 0
M  V30 4377 O 415.508 -5.34163 2.00065 0
M  V30 4378 O 414.442 -4.65602 3.81443 0
M  V30 4379 H 418.268 -1.58333 2.59161 0
M  V30 4380 H 415.853 -0.722063 1.30792 0
M  V30 4381 H 417.735 -3.86245 1.68502 0
M  V30 4382 H 416.41 -3.15587 0.720197 0
M  V30 4383 H 415.317 -2.36518 2.89845 0
M  V30 4384 H 416.65 -3.12707 3.80099 0
M  V30 4385 N 418.302 -1.35869 -0.798587 0
M  V30 4386 C 419.532 -1.32529 -1.58491 0
M  V30 4387 C 419.94 0.0975405 -1.88948 0
M  V30 4388 O 419.283 1.06224 -1.49874 0
M  V30 4389 C 419.345 -2.07247 -2.9375 0
M  V30 4390 C 419.009 -3.56391 -2.86068 0
M  V30 4391 C 420.006 -4.50824 -2.58947 0
M  V30 4392 C 417.691 -3.9915 -3.04933 0
M  V30 4393 C 419.685 -5.85993 -2.5078 0
M  V30 4394 C 417.372 -5.34413 -2.96389 0
M  V30 4395 C 418.37 -6.27646 -2.69349 0
M  V30 4396 O 418.058 -7.60426 -2.60782 0
M  V30 4397 H 417.79 -0.456529 -0.498556 0
M  V30 4398 H 420.344 -1.79425 -0.999799 0
M  V30 4399 H 418.574 -1.55001 -3.54276 0
M  V30 4400 H 420.263 -1.96883 -3.54954 0
M  V30 4401 H 421.029 -4.19104 -2.44084 0
M  V30 4402 H 416.908 -3.26961 -3.24989 0
M  V30 4403 H 420.452 -6.58735 -2.29595 0
M  V30 4404 H 416.349 -5.65743 -3.10813 0
M  V30 4405 H 417.117 -7.70444 -2.76331 0
M  V30 4406 N 419.78 1.02168 -1.19998 0
M  V30 4407 C 421.026 1.75945 -1.00852 0
M  V30 4408 C 421.359 1.88702 0.458828 0
M  V30 4409 O 420.634 1.40911 1.34069 0
M  V30 4410 C 420.917 3.18154 -1.68671 0
M  V30 4411 C 420.77 3.13224 -3.22817 0
M  V30 4412 C 422.089 4.16711 -1.41561 0
M  V30 4413 H 419.208 0.638673 -0.367785 0
M  V30 4414 H 421.85 1.19222 -1.4794 0
M  V30 4415 H 420 3.66586 -1.28636 0
M  V30 4416 H 421.672 2.72635 -3.72112 0
M  V30 4417 H 419.915 2.50751 -3.53986 0
M  V30 4418 H 420.586 4.13728 -3.65422 0
M  V30 4419 H 423.062 3.76913 -1.76284 0
M  V30 4420 H 421.938 5.14391 -1.91553 0
M  V30 4421 H 422.199 4.40774 -0.342193 0
M  V30 4422 N 421.258 1.00505 1.21394 0
M  V30 4423 C 422.488 0.705584 1.94178 0
M  V30 4424 C 422.896 -0.735846 1.74304 0
M  V30 4425 O 422.239 -1.50954 1.04683 0
M  V30 4426 C 422.301 0.94689 3.46806 0
M  V30 4427 C 421.965 2.37517 3.90429 0
M  V30 4428 C 422.962 3.35539 3.97127 0
M  V30 4429 C 420.647 2.71284 4.22742 0
M  V30 4430 C 422.641 4.65395 4.3553 0
M  V30 4431 C 420.328 4.01356 4.60822 0
M  V30 4432 C 421.326 4.98223 4.67186 0
M  V30 4433 O 421.014 6.25969 5.04399 0
M  V30 4434 H 420.746 0.259216 0.624326 0
M  V30 4435 H 423.3 1.34592 1.55159 0
M  V30 4436 H 421.53 0.249386 3.85895 0
M  V30 4437 H 423.219 0.640804 4.0081 0
M  V30 4438 H 423.985 3.10786 3.7234 0
M  V30 4439 H 419.864 1.96581 4.16985 0
M  V30 4440 H 423.408 5.41002 4.40412 0
M  V30 4441 H 419.305 4.25893 4.85063 0
M  V30 4442 H 420.073 6.30085 5.22431 0
M  V30 4443 N 422.737 -1.36956 0.779787 0
M  V30 4444 C 423.984 -1.99491 0.347766 0
M  V30 4445 C 424.312 -1.61898 -1.07793 0
M  V30 4446 O 423.567 -0.86071 -1.75756 0
M  V30 4447 C 423.866 -3.54585 0.447686 0
M  V30 4448 C 423.532 -4.1197 1.83279 0
M  V30 4449 C 422.194 -4.27356 2.2118 0
M  V30 4450 C 424.546 -4.43354 2.74019 0
M  V30 4451 C 421.874 -4.71432 3.4924 0
M  V30 4452 C 424.226 -4.88858 4.01497 0
M  V30 4453 C 422.89 -5.0245 4.39432 0
M  V30 4454 H 422.16 -0.729991 0.127257 0
M  V30 4455 H 424.807 -1.63599 0.995376 0
M  V30 4456 H 423.112 -3.90773 -0.283447 0
M  V30 4457 H 424.809 -4.00888 0.0945948 0
M  V30 4458 H 421.399 -4.00428 1.52825 0
M  V30 4459 H 425.583 -4.31045 2.45995 0
M  V30 4460 H 420.839 -4.80141 3.78516 0
M  V30 4461 H 425.013 -5.12108 4.71931 0
M  V30 4462 H 422.64 -5.36362 5.38721 0
M  V30 4463 N 424.215 -0.530993 -1.48385 0
M  V30 4464 C 425.178 0.220497 -2.28137 0
M  V30 4465 C 426.178 0.866851 -1.35434 0
M  V30 4466 O 427.368 0.726746 -1.58316 0
M  V30 4467 C 424.5 1.31921 -3.1434 0
M  V30 4468 H 425.693 -0.479714 -2.96038 0
M  V30 4469 H 423.246 -0.286968 -1.53643 0
M  V30 4470 H 423.981 2.05264 -2.51072 0
M  V30 4471 H 423.766 0.86085 -3.82533 0
M  V30 4472 H 425.256 1.84776 -3.74497 0
M  V30 4473 N 425.693 1.55336 -0.266172 0
M  V30 4474 C 427.109 1.59356 0.0882065 0
M  V30 4475 C 427.309 1.2834 1.55342 0
M  V30 4476 O 426.365 1.03996 2.30089 0
M  V30 4477 C 427.678 2.99409 -0.278364 0
M  V30 4478 C 429.226 3.12196 -0.224243 0
M  V30 4479 C 429.701 4.545 -0.565123 0
M  V30 4480 N 431.192 4.60313 -0.51634 0
M  V30 4481 C 431.927 5.68434 -0.753013 0
M  V30 4482 N 431.423 6.84738 -1.05383 0
M  V30 4483 N 433.216 5.57942 -0.682414 0
M  V30 4484 H 425.367 1.73764 -1.22147 0
M  V30 4485 H 427.63 0.809822 -0.492841 0
M  V30 4486 H 427.336 3.2691 -1.29703 0
M  V30 4487 H 427.21 3.75228 0.385186 0
M  V30 4488 H 429.597 2.84464 0.78512 0
M  V30 4489 H 429.678 2.38609 -0.921922 0
M  V30 4490 H 429.322 4.82956 -1.57213 0
M  V30 4491 H 429.252 5.26374 0.154248 0
M  V30 4492 H 431.743 3.7676 -0.29335 0
M  V30 4493 H 432.056 7.63088 -1.22133 0
M  V30 4494 H 430.401 6.86375 -1.09151 0
M  V30 4495 H 433.592 4.65958 -0.44731 0
M  V30 4496 H 433.765 6.4213 -0.870248 0
M  V30 4497 N 427.171 -0.0066808 1.57599 0
M  V30 4498 C 428.582 -0.550379 1.78403 0
M  V30 4499 C 428.933 -1.74339 0.900014 0
M  V30 4500 O 428.058 -2.16166 0.100713 0
M  V30 4501 C 428.653 -1.00523 3.23544 0
M  V30 4502 C 427.212 -1.49428 3.45468 0
M  V30 4503 C 426.359 -0.442444 2.73748 0
M  V30 4504 H 429.31 0.219508 1.57175 0
M  V30 4505 H 429.331 -1.87157 3.31289 0
M  V30 4506 H 428.843 -0.136735 3.87859 0
M  V30 4507 H 426.944 -2.3839 2.86358 0
M  V30 4508 H 427.057 -1.52635 4.54136 0
M  V30 4509 H 425.421 -0.902578 2.38171 0
M  V30 4510 H 426.204 0.416973 3.40758 0
M  V30 4511 N 428.649 -1.55105 -0.279332 0
M  V30 4512 C 429.926 -1.66119 -1.03267 0
M  V30 4513 C 430.306 -0.523525 -2.04505 0
M  V30 4514 O 429.654 0.477194 -2.23462 0
M  V30 4515 C 429.864 -3.05067 -1.69515 0
M  V30 4516 C 431.212 -3.62606 -2.20912 0
M  V30 4517 O 432.236 -3.07659 -1.79512 0
M  V30 4518 O 431.095 -4.58861 -2.96831 0
M  V30 4519 H 428.189 -0.674429 -0.478618 0
M  V30 4520 H 430.735 -1.67446 -0.275694 0
M  V30 4521 H 429.507 -3.79311 -0.9612 0
M  V30 4522 H 429.13 -3.07611 -2.51915 0
M  V30 4523 N 430.127 0.543554 -1.4793 0
M  V30 4524 C 431.352 1.32995 -1.59145 0
M  V30 4525 C 431.777 1.86472 -0.246956 0
M  V30 4526 O 431.135 1.63696 0.779324 0
M  V30 4527 C 431.183 2.46623 -2.63077 0
M  V30 4528 O 430.287 3.49261 -2.19295 0
M  V30 4529 H 429.628 0.394472 -0.534124 0
M  V30 4530 H 432.158 0.655489 -1.93816 0
M  V30 4531 H 432.168 2.93001 -2.83926 0
M  V30 4532 H 430.843 2.07059 -3.60693 0
M  V30 4533 H 429.42 3.09094 -2.08603 0
M  V30 4534 N 431.605 1.3629 0.791371 0
M  V30 4535 C 432.538 1.24816 1.9104 0
M  V30 4536 C 433.516 0.132739 1.62057 0
M  V30 4537 O 434.7 0.303527 1.8604 0
M  V30 4538 C 431.827 0.925355 3.25814 0
M  V30 4539 C 430.873 2.05495 3.7373 0
M  V30 4540 S 431.706 3.67255 3.89723 0
M  V30 4541 C 432.862 3.37084 5.27376 0
M  V30 4542 H 433.095 2.19533 2.00481 0
M  V30 4543 H 430.628 1.21684 0.950393 0
M  V30 4544 H 432.586 0.745924 4.03666 0
M  V30 4545 H 431.247 -0.00400098 3.141 0
M  V30 4546 H 430.44 1.7836 4.71385 0
M  V30 4547 H 430.042 2.1935 3.02922 0
M  V30 4548 H 432.334 2.90856 6.1189 0
M  V30 4549 H 433.277 4.33995 5.59512 0
M  V30 4550 H 433.685 2.7248 4.94383 0
M  V30 4551 N 433.083 -1.0153 1.20538 0
M  V30 4552 C 434.33 -1.75149 1.01633 0
M  V30 4553 C 434.658 -1.89189 -0.451399 0
M  V30 4554 O 433.913 -1.41551 -1.35136 0
M  V30 4555 C 434.212 -3.17213 1.64654 0
M  V30 4556 C 433.878 -3.23146 3.14464 0
M  V30 4557 C 432.54 -3.24472 3.55347 0
M  V30 4558 C 434.892 -3.21207 4.10458 0
M  V30 4559 C 432.22 -3.21532 4.90748 0
M  V30 4560 C 434.572 -3.19808 5.45807 0
M  V30 4561 C 433.236 -3.19439 5.86102 0
M  V30 4562 H 432.506 -0.640914 0.3719 0
M  V30 4563 H 435.153 -1.19071 1.49981 0
M  V30 4564 H 433.458 -3.76457 1.08571 0
M  V30 4565 H 435.155 -3.72871 1.4754 0
M  V30 4566 H 431.745 -3.2285 2.81897 0
M  V30 4567 H 435.929 -3.19351 3.79906 0
M  V30 4568 H 431.185 -3.19578 5.21229 0
M  V30 4569 H 435.359 -3.1726 6.19935 0
M  V30 4570 H 432.986 -3.16915 6.90991 0
M  V30 4571 N 434.561 -1.01147 -1.20859 0
M  V30 4572 C 435.471 -0.58686 -2.27141 0
M  V30 4573 C 436.487 0.373198 -1.69951 0
M  V30 4574 O 437.663 0.235423 -2.00019 0
M  V30 4575 C 434.728 0.0733602 -3.46622 0
M  V30 4576 C 433.789 -0.931995 -4.19061 0
M  V30 4577 C 433.022 -0.303186 -5.32838 0
M  V30 4578 O 433.245 0.898395 -5.63281 0
M  V30 4579 O 432.179 -1.01735 -5.9324 0
M  V30 4580 H 436.005 -1.47155 -2.65667 0
M  V30 4581 H 433.59 -0.780689 -1.2738 0
M  V30 4582 H 435.472 0.442333 -4.19072 0
M  V30 4583 H 434.147 0.932329 -3.09983 0
M  V30 4584 H 433.054 -1.35224 -3.48805 0
M  V30 4585 H 434.387 -1.76076 -4.59628 0
M  V30 4586 N 436.039 1.36541 -0.78704 0
M  V30 4587 C 437.316 1.9355 -0.282424 0
M  V30 4588 C 437.696 1.71919 1.22503 0
M  V30 4589 O 437.044 1.07677 2.01539 0
M  V30 4590 C 437.254 3.4246 -0.672462 0
M  V30 4591 C 438.602 4.19582 -0.650863 0
M  V30 4592 O 439.626 3.50889 -0.612789 0
M  V30 4593 O 438.485 5.42106 -0.691623 0
M  V30 4594 H 435.579 0.824091 -0.0693 0
M  V30 4595 H 438.125 1.45736 -0.869423 0
M  V30 4596 H 436.897 3.51851 -1.71221 0
M  V30 4597 H 436.52 3.97556 -0.0592211 0
M  V30 4598 N 437.518 0.538854 1.48102 0
M  V30 4599 C 438.45 -0.256278 2.27763 0
M  V30 4600 C 439.463 -0.89633 1.35904 0
M  V30 4601 O 440.652 -0.773275 1.60881 0
M  V30 4602 C 437.752 -1.37896 3.09577 0
M  V30 4603 C 436.925 -0.839159 4.29275 0
M  V30 4604 C 435.984 -1.84405 4.9283 0
M  V30 4605 O 435.01 -1.39746 5.51779 0
M  V30 4606 N 436.212 -3.17666 4.85869 0
M  V30 4607 H 438.977 0.426968 2.96643 0
M  V30 4608 H 436.538 0.373747 1.57527 0
M  V30 4609 H 438.53 -2.04955 3.48963 0
M  V30 4610 H 437.1 -1.96572 2.4306 0
M  V30 4611 H 436.32 0.00769287 3.94199 0
M  V30 4612 H 437.608 -0.457548 5.06739 0
M  V30 4613 H 437.006 -3.56609 4.39143 0
M  V30 4614 H 435.563 -3.80334 5.29329 0
M  V30 4615 N 438.996 -1.55193 0.274407 0
M  V30 4616 C 439.929 -2.18606 -0.654712 0
M  V30 4617 C 440.907 -1.14677 -1.15273 0
M  V30 4618 O 442.091 -1.43198 -1.22583 0
M  V30 4619 C 439.218 -2.80875 -1.89281 0
M  V30 4620 C 438.264 -3.981 -1.53032 0
M  V30 4621 S 439.097 -5.32025 -0.609107 0
M  V30 4622 C 440.253 -5.97761 -1.85559 0
M  V30 4623 H 440.486 -2.97074 -0.115894 0
M  V30 4624 H 438.019 -1.54288 0.05867 0
M  V30 4625 H 439.977 -3.17381 -2.60345 0
M  V30 4626 H 438.638 -2.02302 -2.40277 0
M  V30 4627 H 437.831 -4.40356 -2.45158 0
M  V30 4628 H 437.433 -3.63013 -0.899874 0
M  V30 4629 H 439.725 -6.16951 -2.7996 0
M  V30 4630 H 440.668 -6.92545 -1.47605 0
M  V30 4631 H 441.076 -5.27113 -2.02021 0
M  V30 4632 N 440.474 -0.00167713 -1.576 0
M  V30 4633 C 441.72 0.683832 -1.90923 0
M  V30 4634 C 442.053 1.7333 -0.875799 0
M  V30 4635 O 441.328 1.94215 0.10525 0
M  V30 4636 C 441.611 1.32543 -3.3482 0
M  V30 4637 C 441.464 0.287387 -4.48881 0
M  V30 4638 C 442.783 2.25114 -3.78169 0
M  V30 4639 H 439.902 0.247125 -0.694333 0
M  V30 4640 H 442.544 -0.0533149 -1.89925 0
M  V30 4641 H 440.694 1.95372 -3.35801 0
M  V30 4642 H 442.366 -0.341346 -4.60035 0
M  V30 4643 H 440.609 -0.39017 -4.32042 0
M  V30 4644 H 441.28 0.775393 -5.46527 0
M  V30 4645 H 443.756 1.723 -3.7875 0
M  V30 4646 H 442.632 2.66971 -4.79602 0
M  V30 4647 H 442.893 3.13092 -3.12131 0
M  V30 4648 N 441.952 1.55251 0.271103 0
M  V30 4649 C 443.182 1.79713 1.01916 0
M  V30 4650 C 443.59 0.571613 1.80359 0
M  V30 4651 O 442.933 -0.468853 1.77616 0
M  V30 4652 C 442.995 2.97138 2.02359 0
M  V30 4653 C 442.659 4.34104 1.42837 0
M  V30 4654 C 443.656 5.13019 0.843071 0
M  V30 4655 C 441.341 4.80765 1.455 0
M  V30 4656 C 443.335 6.36729 0.292333 0
M  V30 4657 C 441.022 6.0443 0.900402 0
M  V30 4658 C 442.02 6.8225 0.32007 0
M  V30 4659 O 441.708 8.03582 -0.226031 0
M  V30 4660 H 441.44 0.602431 0.306681 0
M  V30 4661 H 443.994 2.03097 0.306701 0
M  V30 4662 H 442.224 2.6945 2.77369 0
M  V30 4663 H 443.913 3.08907 2.63309 0
M  V30 4664 H 444.679 4.781 0.815178 0
M  V30 4665 H 440.558 4.20202 1.89609 0
M  V30 4666 H 444.102 6.97414 -0.161274 0
M  V30 4667 H 439.999 6.3883 0.925541 0
M  V30 4668 H 440.767 8.18418 -0.115572 0
M  V30 4669 N 443.43 -0.535701 1.48216 0
M  V30 4670 C 444.658 -1.31671 1.59594 0
M  V30 4671 C 445.073 -1.87083 0.254056 0
M  V30 4672 O 444.43 -1.66112 -0.755854 0
M  V30 4673 C 444.481 -2.47158 2.63809 0
M  V30 4674 O 444.202 -1.94032 3.92789 0
M  V30 4675 C 445.703 -3.39062 2.85573 0
M  V30 4676 H 442.923 -0.400623 0.538277 0
M  V30 4677 H 445.467 -0.646827 1.94001 0
M  V30 4678 H 443.622 -3.10043 2.32276 0
M  V30 4679 H 444.036 -2.69585 4.49916 0
M  V30 4680 H 445.51 -4.16459 3.62306 0
M  V30 4681 H 445.987 -3.93941 1.94184 0
M  V30 4682 H 446.593 -2.81975 3.18387 0
M  V30 4683 N 444.908 -1.36708 -0.784132 0
M  V30 4684 C 446.154 -1.31426 -1.54451 0
M  V30 4685 C 446.487 0.10476 -1.93917 0
M  V30 4686 O 445.762 1.05934 -1.6312 0
M  V30 4687 C 446.045 -2.24189 -2.818 0
M  V30 4688 C 445.898 -3.74813 -2.48667 0
M  V30 4689 C 447.217 -2.15626 -3.83658 0
M  V30 4690 H 444.336 -0.478739 -0.560337 0
M  V30 4691 H 446.978 -1.67305 -0.900498 0
M  V30 4692 H 445.128 -1.93722 -3.36755 0
M  V30 4693 H 446.8 -4.15823 -1.99722 0
M  V30 4694 H 445.043 -3.93989 -1.81535 0
M  V30 4695 H 445.714 -4.35138 -3.39646 0
M  V30 4696 H 448.19 -2.42456 -3.38163 0
M  V30 4697 H 447.066 -2.82694 -4.70506 0
M  V30 4698 H 447.327 -1.14522 -4.27009 0
M  V30 4699 N 446.386 1.0089 -1.21074 0
M  V30 4700 C 447.802 1.2695 -0.967257 0
M  V30 4701 C 448.002 1.9846 0.348673 0
M  V30 4702 O 447.058 2.28459 1.0753 0
M  V30 4703 C 448.371 2.09697 -2.15517 0
M  V30 4704 C 449.919 2.22937 -2.197 0
M  V30 4705 C 450.394 3.09064 -3.37999 0
M  V30 4706 N 451.885 3.16653 -3.38061 0
M  V30 4707 C 452.62 3.8354 -4.26245 0
M  V30 4708 N 452.116 4.52488 -5.2462 0
M  V30 4709 N 453.909 3.80141 -4.14064 0
M  V30 4710 H 446.06 0.529005 -2.05707 0
M  V30 4711 H 448.323 0.296148 -0.900556 0
M  V30 4712 H 448.029 1.64497 -3.10859 0
M  V30 4713 H 447.903 3.10444 -2.14253 0
M  V30 4714 H 450.29 2.67357 -1.24916 0
M  V30 4715 H 450.371 1.21673 -2.2501 0
M  V30 4716 H 450.015 2.65347 -4.33074 0
M  V30 4717 H 449.945 4.10433 -3.29928 0
M  V30 4718 H 452.436 2.67566 -2.66865 0
M  V30 4719 H 452.749 5.01219 -5.88217 0
M  V30 4720 H 451.094 4.51288 -5.28549 0
M  V30 4721 H 454.285 3.25427 -3.36474 0
M  V30 4722 H 454.458 4.31992 -4.82998 0
M  V30 4723 N 447.864 1.01787 1.20321 0
M  V30 4724 C 449.094 0.72614 1.93419 0
M  V30 4725 C 449.502 -0.717317 1.75075 0
M  V30 4726 O 448.845 -1.49836 1.06278 0
M  V30 4727 C 448.907 0.983621 3.45782 0
M  V30 4728 C 448.571 2.41645 3.87888 0
M  V30 4729 C 449.568 3.39732 3.93545 0
M  V30 4730 C 447.253 2.75752 4.19841 0
M  V30 4731 C 449.247 4.69988 4.30569 0
M  V30 4732 C 446.934 4.06221 4.56539 0
M  V30 4733 C 447.932 5.0315 4.61876 0
M  V30 4734 O 447.62 6.31284 4.97731 0
M  V30 4735 H 447.352 0.265824 0.621541 0
M  V30 4736 H 449.906 1.3623 1.53722 0
M  V30 4737 H 448.136 0.290301 3.85609 0
M  V30 4738 H 449.825 0.683279 4.00108 0
M  V30 4739 H 450.591 3.14718 3.69022 0
M  V30 4740 H 446.47 2.00993 4.14877 0
M  V30 4741 H 450.014 5.45642 4.3465 0
M  V30 4742 H 445.911 4.31013 4.80518 0
M  V30 4743 H 446.679 6.35591 5.15719 0
M  V30 4744 N 449.342 -1.36122 0.79427 0
M  V30 4745 C 450.758 -1.5232 0.476525 0
M  V30 4746 C 450.958 -1.74685 -1.00436 0
M  V30 4747 O 450.014 -1.78115 -1.78973 0
M  V30 4748 C 451.327 -2.70607 1.31119 0
M  V30 4749 C 452.875 -2.8448 1.30537 0
M  V30 4750 C 453.35 -4.05778 2.12387 0
M  V30 4751 N 454.841 -4.12933 2.09859 0
M  V30 4752 C 455.576 -5.05876 2.69957 0
M  V30 4753 N 455.072 -6.04232 3.38934 0
M  V30 4754 N 456.865 -4.98528 2.59665 0
M  V30 4755 H 449.016 -1.1986 1.75349 0
M  V30 4756 H 451.279 -0.585418 0.745647 0
M  V30 4757 H 450.985 -2.60619 2.36158 0
M  V30 4758 H 450.859 -3.64888 0.955843 0
M  V30 4759 H 453.246 -2.93927 0.262876 0
M  V30 4760 H 453.327 -1.91093 1.70051 0
M  V30 4761 H 452.971 -3.97092 3.1667 0
M  V30 4762 H 452.901 -4.98323 1.70242 0
M  V30 4763 H 455.392 -3.42515 1.59662 0
M  V30 4764 H 455.705 -6.71724 3.82109 0
M  V30 4765 H 454.05 -6.04443 3.43036 0
M  V30 4766 H 457.241 -4.20641 2.05375 0
M  V30 4767 H 457.414 -5.70773 3.06793 0
M  V30 4768 N 450.82 -0.546701 -1.47814 0
M  V30 4769 C 452.06 -0.0209604 -2.04389 0
M  V30 4770 C 452.424 1.29993 -1.413 0
M  V30 4771 O 453.625 1.91273 -1.8886 0
M  V30 4772 C 451.896 0.0812844 -3.57308 0
M  V30 4773 S 453.455 0.55467 -4.3528 0
M  V30 4774 H 450.273 -0.0200865 -0.710716 0
M  V30 4775 H 452.875 -0.731055 -1.81317 0
M  V30 4776 H 451.579 -0.884616 -4.00753 0
M  V30 4777 H 451.11 0.815253 -3.8486 0
M  V30 4778 H 453.125 1.81627 -4.61764 0
M  V30 4779 N 452.299 1.55045 -0.282633 0
M  V30 4780 C 453.547 1.99365 0.331334 0
M  V30 4781 C 453.868 1.1725 1.55812 0
M  V30 4782 O 453.138 0.263871 1.94115 0
M  V30 4783 H 451.718 0.736397 0.125414 0
M  V30 4784 H 454.38 1.90964 -0.389711 0
M  V30 4785 H 453.476 3.0596 0.616036 0
M  V30 4786 N 453.777 0.010035 1.57597 0
M  V30 4787 C 454.709 -1.00649 2.05918 0
M  V30 4788 C 455.722 -1.30077 0.978964 0
M  V30 4789 O 456.911 -1.26878 1.25556 0
M  V30 4790 C 454.011 -2.33876 2.45265 0
M  V30 4791 C 453.184 -2.23242 3.7614 0
M  V30 4792 C 452.243 -3.39242 4.02245 0
M  V30 4793 O 451.269 -3.1698 4.72771 0
M  V30 4794 N 452.471 -4.6242 3.50924 0
M  V30 4795 H 455.236 -0.594333 2.93748 0
M  V30 4796 H 452.797 -0.17714 1.60928 0
M  V30 4797 H 454.789 -3.1027 2.59836 0
M  V30 4798 H 453.359 -2.66799 1.62902 0
M  V30 4799 H 452.579 -1.31696 3.71551 0
M  V30 4800 H 453.867 -2.13321 4.61922 0
M  V30 4801 H 453.265 -4.83404 2.93832 0
M  V30 4802 H 451.822 -5.36046 3.70807 0
M  V30 4803 N 455.255 -1.55392 -0.262866 0
M  V30 4804 C 456.187 -1.85392 -1.34768 0
M  V30 4805 C 457.2 -0.739069 -1.45057 0
M  V30 4806 O 458.389 -1.01703 -1.46693 0
M  V30 4807 C 455.489 -2.01088 -2.72795 0
M  V30 4808 C 454.662 -3.31828 -2.84972 0
M  V30 4809 C 453.721 -3.37464 -4.03738 0
M  V30 4810 O 452.747 -4.10778 -3.94018 0
M  V30 4811 N 453.949 -2.65599 -5.16176 0
M  V30 4812 H 456.714 -2.79029 -1.09375 0
M  V30 4813 H 454.275 -1.55434 -0.452981 0
M  V30 4814 H 456.267 -2.02217 -3.50557 0
M  V30 4815 H 454.837 -1.1427 -2.90966 0
M  V30 4816 H 454.057 -3.43152 -1.94012 0
M  V30 4817 H 455.345 -4.18032 -2.90045 0
M  V30 4818 H 454.743 -2.05736 -5.26962 0
M  V30 4819 H 453.3 -2.72439 -5.92132 0
M  V30 4820 N 456.733 0.527833 -1.48498 0
M  V30 4821 C 457.663 1.64136 -1.66077 0
M  V30 4822 C 458.644 1.62286 -0.509625 0
M  V30 4823 O 459.829 1.79449 -0.742413 0
M  V30 4824 C 456.959 3.02717 -1.70234 0
M  V30 4825 C 455.913 3.19426 -2.8487 0
M  V30 4826 C 455.239 4.5909 -2.74118 0
M  V30 4827 C 456.539 3.01993 -4.26142 0
M  V30 4828 H 458.233 1.4968 -2.593 0
M  V30 4829 H 455.779 0.718654 -1.24785 0
M  V30 4830 H 457.732 3.80491 -1.8112 0
M  V30 4831 H 456.456 3.18201 -0.735911 0
M  V30 4832 H 455.115 2.4407 -2.73542 0
M  V30 4833 H 454.763 4.71413 -1.7544 0
M  V30 4834 H 454.463 4.71214 -3.51042 0
M  V30 4835 H 455.987 5.3896 -2.86974 0
M  V30 4836 H 457.401 3.69558 -4.38292 0
M  V30 4837 H 455.798 3.2561 -5.04082 0
M  V30 4838 H 456.868 1.98396 -4.42456 0
M  V30 4839 N 458.211 1.37122 0.776871 0
M  V30 4840 C 459.174 1.32301 1.8716 0
M  V30 4841 C 460.174 0.228099 1.59174 0
M  V30 4842 O 461.364 0.483642 1.67352 0
M  V30 4843 C 458.496 1.054 3.24197 0
M  V30 4844 H 459.689 2.29673 1.92848 0
M  V30 4845 H 457.242 1.22077 0.97606 0
M  V30 4846 H 457.977 0.0853872 3.24188 0
M  V30 4847 H 457.762 1.84648 3.45901 0
M  V30 4848 H 459.252 1.04664 4.04271 0
M  V30 4849 N 459.689 -1.00246 1.21608 0
M  V30 4850 C 460.938 -1.73476 1.02902 0
M  V30 4851 C 461.251 -1.90643 -0.437561 0
M  V30 4852 O 462.457 -2.61105 -0.74407 0
M  V30 4853 C 460.913 -3.12079 1.79261 0
M  V30 4854 C 460.521 -3.02877 3.30106 0
M  V30 4855 C 462.265 -3.89421 1.68972 0
M  V30 4856 C 460.172 -4.36575 3.98944 0
M  V30 4857 H 459.102 -0.650408 0.381425 0
M  V30 4858 H 461.753 -1.11985 1.45367 0
M  V30 4859 H 460.135 -3.74196 1.2959 0
M  V30 4860 H 461.309 -2.49983 3.87098 0
M  V30 4861 H 459.624 -2.39022 3.40965 0
M  V30 4862 H 462.221 -4.88362 2.17731 0
M  V30 4863 H 462.564 -4.1122 0.648397 0
M  V30 4864 H 463.097 -3.33963 2.16133 0
M  V30 4865 H 459.836 -4.19978 5.03288 0
M  V30 4866 H 459.356 -4.8942 3.4674 0
M  V30 4867 H 461.035 -5.05364 4.04 0
M  V30 4868 N 461.167 -1.02423 -1.1978 0
M  V30 4869 C 462.077 -0.610919 -2.26506 0
M  V30 4870 C 463.093 0.355152 -1.70337 0
M  V30 4871 O 464.269 0.214195 -2.00258 0
M  V30 4872 C 461.334 0.0365921 -3.46681 0
M  V30 4873 C 460.395 -0.976389 -4.18049 0
M  V30 4874 C 459.628 -0.359683 -5.32487 0
M  V30 4875 O 459.851 0.838601 -5.64202 0
M  V30 4876 O 458.785 -1.08022 -5.92127 0
M  V30 4877 H 462.611 -1.49965 -2.64091 0
M  V30 4878 H 460.196 -0.794156 -1.26545 0
M  V30 4879 H 462.078 0.39786 -4.19518 0
M  V30 4880 H 460.753 0.899398 -3.10954 0
M  V30 4881 H 459.66 -1.38916 -3.47352 0
M  V30 4882 H 460.993 -1.80941 -4.57735 0
M  V30 4883 N 462.645 1.35699 -0.801477 0
M  V30 4884 C 463.608 2.28199 -0.213994 0
M  V30 4885 C 464.608 1.49359 0.595691 0
M  V30 4886 O 465.798 1.69186 0.414921 0
M  V30 4887 C 462.93 3.33587 0.702297 0
M  V30 4888 H 464.123 2.81666 -1.02976 0
M  V30 4889 H 461.676 1.45467 -0.571759 0
M  V30 4890 H 462.411 2.85297 1.54195 0
M  V30 4891 H 462.196 3.91906 0.123484 0
M  V30 4892 H 463.686 4.02638 1.10783 0
M  V30 4893 N 464.123 0.554532 1.47522 0
M  V30 4894 C 465.534 0.120446 1.86311 0
M  V30 4895 C 465.885 -1.30904 1.46145 0
M  V30 4896 O 465.01 -1.98434 0.863294 0
M  V30 4897 C 465.605 0.211808 3.38137 0
M  V30 4898 C 464.164 -0.167224 3.76028 0
M  V30 4899 C 463.311 0.560576 2.71575 0
M  V30 4900 H 466.262 0.764408 1.39077 0
M  V30 4901 H 466.283 -0.570275 3.76202 0
M  V30 4902 H 465.795 1.25232 3.6734 0
M  V30 4903 H 463.896 -1.20894 3.52442 0
M  V30 4904 H 464.009 0.189473 4.78725 0
M  V30 4905 H 462.373 0.00396836 2.547 0
M  V30 4906 H 463.156 1.60219 3.0362 0
M  V30 4907 N 465.601 -1.54893 0.290851 0
M  V30 4908 C 466.847 -2.0023 -0.321867 0
M  V30 4909 C 467.18 -1.179 -1.54316 0
M  V30 4910 O 466.455 -0.25293 -1.92848 0
M  V30 4911 C 466.738 -3.53456 -0.688515 0
M  V30 4912 C 466.591 -4.46532 0.541209 0
M  V30 4913 C 467.91 -4.13057 -1.51895 0
M  V30 4914 H 465.029 -0.727891 -0.115515 0
M  V30 4915 H 467.671 -1.85722 0.400931 0
M  V30 4916 H 465.821 -3.6595 -1.30433 0
M  V30 4917 H 467.493 -4.4596 1.17973 0
M  V30 4918 H 465.736 -4.17545 1.17636 0
M  V30 4919 H 466.407 -5.51475 0.240675 0
M  V30 4920 H 468.883 -4.03937 -0.99872 0
M  V30 4921 H 467.759 -5.20448 -1.74429 0
M  V30 4922 H 468.02 -3.64284 -2.50498 0
M  V30 4923 N 467.08 -0.0183926 -1.57589 0
M  V30 4924 C 468.357 0.700621 -1.82622 0
M  V30 4925 C 468.737 1.90951 -0.90005 0
M  V30 4926 O 468.085 2.28452 0.0469145 0
M  V30 4927 C 468.295 1.08899 -3.31575 0
M  V30 4928 C 469.643 1.48514 -3.9778 0
M  V30 4929 O 470.667 1.18227 -3.36007 0
M  V30 4930 O 469.526 2.04903 -5.06633 0
M  V30 4931 H 466.62 0.342743 -0.752633 0
M  V30 4932 H 469.166 -0.0452548 -1.6964 0
M  V30 4933 H 467.938 0.228113 -3.90635 0
M  V30 4934 H 467.561 1.89338 -3.49624 0
M  V30 4935 N 468.558 1.5553 0.254621 0
M  V30 4936 C 469.521 1.88872 1.29846 0
M  V30 4937 C 470.521 0.764591 1.41459 0
M  V30 4938 O 471.711 1.03265 1.40293 0
M  V30 4939 C 468.843 2.11032 2.67728 0
M  V30 4940 H 470.036 2.82201 1.01502 0
M  V30 4941 H 467.589 1.48303 0.493556 0
M  V30 4942 H 468.324 1.20146 3.01223 0
M  V30 4943 H 468.109 2.92895 2.60682 0
M  V30 4944 H 469.599 2.38038 3.43115 0
M  V30 4945 N 470.036 -0.519951 1.48776 0
M  V30 4946 C 471.313 -1.28123 1.47797 0
M  V30 4947 C 471.693 -2.10196 0.195157 0
M  V30 4948 O 471.041 -2.13167 -0.822925 0
M  V30 4949 C 471.251 -2.15413 2.74587 0
M  V30 4950 C 472.599 -2.75225 3.23321 0
M  V30 4951 O 473.623 -2.25694 2.75574 0
M  V30 4952 O 472.482 -3.65346 4.06429 0
M  V30 4953 H 469.576 -0.578793 0.590701 0
M  V30 4954 H 472.122 -0.535779 1.6102 0
M  V30 4955 H 470.894 -1.54617 3.59457 0
M  V30 4956 H 470.517 -2.97186 2.64132 0
M  V30 4957 N 471.514 -1.37532 -0.769588 0
M  V30 4958 C 472.444 -1.36172 -1.89682 0
M  V30 4959 C 473.425 -0.23001 -1.68538 0
M  V30 4960 O 474.61 -0.43069 -1.89364 0
M  V30 4961 C 471.74 -1.1701 -3.26995 0
M  V30 4962 C 470.694 -2.27216 -3.62708 0
M  V30 4963 C 470.02 -1.93174 -4.98586 0
M  V30 4964 C 471.32 -3.6941 -3.69234 0
M  V30 4965 H 473.014 -2.30499 -1.91078 0
M  V30 4966 H 470.56 -1.10953 -0.917902 0
M  V30 4967 H 472.513 -1.14688 -4.05493 0
M  V30 4968 H 471.237 -0.191395 -3.26039 0
M  V30 4969 H 469.896 -2.28697 -2.86519 0
M  V30 4970 H 469.544 -0.938281 -4.94171 0
M  V30 4971 H 469.244 -2.66973 -5.23449 0
M  V30 4972 H 470.768 -1.92443 -5.79481 0
M  V30 4973 H 472.182 -3.70047 -4.37879 0
M  V30 4974 H 470.579 -4.4228 -4.05597 0
M  V30 4975 H 471.649 -4.0288 -2.69844 0
M  V30 4976 N 472.992 0.995999 -1.22138 0
M  V30 4977 C 474.238 1.73767 -1.04561 0
M  V30 4978 C 474.571 1.89633 0.418698 0
M  V30 4979 O 473.846 1.43723 1.3105 0
M  V30 4980 C 474.129 3.14505 -1.75382 0
M  V30 4981 C 473.982 3.06306 -3.29388 0
M  V30 4982 C 475.301 4.13615 -1.50369 0
M  V30 4983 H 472.42 0.630728 -0.38125 0
M  V30 4984 H 475.062 1.16057 -1.50435 0
M  V30 4985 H 473.212 3.63775 -1.36383 0
M  V30 4986 H 474.884 2.64681 -3.77812 0
M  V30 4987 H 473.127 2.43186 -3.59226 0
M  V30 4988 H 473.798 4.05884 -3.74116 0
M  V30 4989 H 476.274 3.73089 -1.84239 0
M  V30 4990 H 475.15 5.10212 -2.02421 0
M  V30 4991 H 475.411 4.39949 -0.435611 0
M  V30 4992 N 474.47 1.03057 1.19235 0
M  V30 4993 C 475.695 0.74757 1.93458 0
M  V30 4994 C 476.12 -0.687648 1.7508 0
M  V30 4995 O 475.478 -1.47499 1.05422 0
M  V30 4996 C 475.526 1.10604 3.43219 0
M  V30 4997 O 474.63 0.225671 4.11782 0
M  V30 4998 H 473.971 0.276047 0.603899 0
M  V30 4999 H 476.501 1.3777 1.51263 0
M  V30 5000 H 476.511 1.06366 3.93891 0
M  V30 5001 H 475.186 2.15165 3.55917 0
M  V30 5002 H 473.763 0.326795 3.71465 0
M  V30 5003 N 475.948 -1.35272 0.808662 0
M  V30 5004 C 477.176 -2.02946 0.402537 0
M  V30 5005 C 477.591 -1.60937 -0.987147 0
M  V30 5006 O 476.948 -0.807917 -1.63643 0
M  V30 5007 C 476.999 -3.58317 0.47868 0
M  V30 5008 O 476.72 -3.98799 1.81358 0
M  V30 5009 C 478.221 -4.43251 0.0656281 0
M  V30 5010 H 475.441 -0.650831 0.163279 0
M  V30 5011 H 477.985 -1.72849 1.09286 0
M  V30 5012 H 476.14 -3.87055 -0.163415 0
M  V30 5013 H 476.554 -4.93451 1.77781 0
M  V30 5014 H 478.028 -5.51738 0.170017 0
M  V30 5015 H 478.505 -4.27913 -0.989278 0
M  V30 5016 H 479.111 -4.19813 0.68096 0
M  V30 5017 N 477.426 -0.562348 -1.47226 0
M  V30 5018 C 478.672 -0.0402761 -2.0276 0
M  V30 5019 C 479.005 1.30823 -1.43523 0
M  V30 5020 O 478.28 1.85249 -0.592705 0
M  V30 5021 C 478.563 0.047311 -3.60069 0
M  V30 5022 C 478.416 -1.32865 -4.29729 0
M  V30 5023 C 479.735 0.758182 -4.3352 0
M  V30 5024 H 476.854 -0.0161105 -0.736824 0
M  V30 5025 H 479.496 -0.725628 -1.75598 0
M  V30 5026 H 477.646 0.630986 -3.83342 0
M  V30 5027 H 479.318 -1.95593 -4.17781 0
M  V30 5028 H 477.561 -1.90195 -3.89882 0
M  V30 5029 H 478.232 -1.22004 -5.38349 0
M  V30 5030 H 480.708 0.262546 -4.15271 0
M  V30 5031 H 479.584 0.78844 -5.43208 0
M  V30 5032 H 479.845 1.81537 -4.03109 0
M  V30 5033 N 478.904 1.54736 -0.299062 0
M  V30 5034 C 480.315 1.8569 0.193971 0
M  V30 5035 C 480.666 1.22101 1.53577 0
M  V30 5036 O 479.791 0.51799 2.10109 0
M  V30 5037 C 480.386 3.36895 0.358733 0
M  V30 5038 C 478.945 3.67887 0.795986 0
M  V30 5039 C 478.092 2.77131 -0.096807 0
M  V30 5040 H 481.043 1.49934 -0.520134 0
M  V30 5041 H 481.064 3.61294 1.19361 0
M  V30 5042 H 480.576 3.83148 -0.617998 0
M  V30 5043 H 478.677 3.27151 1.78334 0
M  V30 5044 H 478.79 4.75114 0.616718 0
M  V30 5045 H 477.154 2.51153 0.423581 0
M  V30 5046 H 477.937 3.26204 -1.06986 0
M  V30 5047 N 480.382 0.0267497 1.57577 0
M  V30 5048 C 481.292 -0.971633 2.13533 0
M  V30 5049 C 482.308 -1.35868 1.08701 0
M  V30 5050 O 483.484 -1.44058 1.40746 0
M  V30 5051 C 480.549 -2.23622 2.64941 0
M  V30 5052 C 479.61 -1.90982 3.8448 0
M  V30 5053 C 478.843 -3.11411 4.33427 0
M  V30 5054 O 479.066 -4.23992 3.81558 0
M  V30 5055 O 478 -2.93848 5.25297 0
M  V30 5056 H 481.826 -0.525853 2.99113 0
M  V30 5057 H 479.411 -0.193712 1.48139 0
M  V30 5058 H 481.293 -2.97864 2.98086 0
M  V30 5059 H 479.968 -2.67386 1.82446 0
M  V30 5060 H 478.875 -1.14132 3.56265 0
M  V30 5061 H 480.208 -1.52036 4.6813 0
M  V30 5062 N 481.861 -1.55662 -0.24637 0
M  V30 5063 C 483.086 -1.81914 -0.996093 0
M  V30 5064 C 483.511 -0.603875 -1.78143 0
M  V30 5065 O 482.869 0.447091 -1.75701 0
M  V30 5066 C 482.917 -3.05908 -1.90925 0
M  V30 5067 O 482.021 -2.82861 -3.00105 0
M  V30 5068 H 481.362 -0.600481 -0.283406 0
M  V30 5069 H 483.892 -2.02848 -0.267199 0
M  V30 5070 H 483.902 -3.35356 -2.3238 0
M  V30 5071 H 482.577 -3.93999 -1.33183 0
M  V30 5072 H 481.154 -2.64583 -2.62775 0
M  V30 5073 N 483.339 0.512053 -1.4905 0
M  V30 5074 C 484.302 1.59704 -1.64399 0
M  V30 5075 C 485.302 1.52285 -0.516317 0
M  V30 5076 O 486.492 1.55635 -0.782527 0
M  V30 5077 C 483.624 2.9935 -1.63102 0
M  V30 5078 H 484.817 1.47428 -2.61161 0
M  V30 5079 H 482.37 0.735469 -1.37915 0
M  V30 5080 H 483.105 3.17116 -0.678836 0
M  V30 5081 H 482.89 3.06144 -2.44986 0
M  V30 5082 H 484.38 3.782 -1.77072 0
M  V30 5083 N 484.817 1.37938 0.762283 0
M  V30 5084 C 486.045 1.36883 1.55147 0
M  V30 5085 C 486.46 -0.0435348 1.8875 0
M  V30 5086 O 485.817 -1.00786 1.52146 0
M  V30 5087 C 485.868 2.21624 2.85596 0
M  V30 5088 O 485.589 3.57358 2.5343 0
M  V30 5089 C 487.09 2.28653 3.7978 0
M  V30 5090 H 484.31 0.468521 0.480343 0
M  V30 5091 H 486.854 1.81404 0.944079 0
M  V30 5092 H 485.009 1.80588 3.42734 0
M  V30 5093 H 485.423 4.01883 3.37032 0
M  V30 5094 H 486.897 2.9225 4.68288 0
M  V30 5095 H 487.374 1.29767 4.19592 0
M  V30 5096 H 487.98 2.70043 3.28568 0
M  V30 5097 N 486.295 -0.989507 1.22664 0
M  V30 5098 C 487.706 -1.54406 1.04955 0
M  V30 5099 C 488.057 -1.92366 -0.385951 0
M  V30 5100 O 487.182 -1.75111 -1.27142 0
M  V30 5101 C 487.777 -2.80578 1.89899 0
M  V30 5102 C 486.336 -3.32464 1.76478 0
M  V30 5103 C 485.483 -2.05524 1.86159 0
M  V30 5104 H 488.434 -0.810211 1.3646 0
M  V30 5105 H 488.455 -3.53075 1.4184 0
M  V30 5106 H 487.967 -2.52918 2.94371 0
M  V30 5107 H 486.068 -3.65024 0.747528 0
M  V30 5108 H 486.181 -4.02838 2.59342 0
M  V30 5109 H 484.545 -2.19241 1.29636 0
M  V30 5110 H 485.328 -1.80258 2.92168 0
M  V30 5111 N 487.773 -1.03688 -1.18687 0
M  V30 5112 C 488.736 -0.629115 -2.20397 0
M  V30 5113 C 489.736 0.311495 -1.57754 0
M  V30 5114 O 490.926 0.0974107 -1.73927 0
M  V30 5115 C 488.058 0.0782231 -3.4081 0
M  V30 5116 H 489.251 -1.52915 -2.57987 0
M  V30 5117 H 486.804 -0.828988 -1.32505 0
M  V30 5118 H 487.539 0.992233 -3.08748 0
M  V30 5119 H 487.324 -0.597776 -3.87517 0
M  V30 5120 H 488.814 0.350156 -4.16129 0
M  V30 5121 N 489.251 1.34841 -0.815825 0
M  V30 5122 C 490.214 2.27959 -0.238185 0
M  V30 5123 C 491.214 1.49983 0.579816 0
M  V30 5124 O 492.404 1.69617 0.396953 0
M  V30 5125 C 489.536 3.34314 0.666876 0
M  V30 5126 H 490.729 2.80558 -1.05958 0
M  V30 5127 H 488.282 1.44852 -0.587156 0
M  V30 5128 H 489.017 2.86916 1.5116 0
M  V30 5129 H 488.802 3.92014 0.0819106 0
M  V30 5130 H 490.292 4.0379 1.06506 0
M  V30 5131 N 490.729 0.570148 1.46925 0
M  V30 5132 C 491.659 -0.158274 2.32963 0
M  V30 5133 C 492.64 -0.896093 1.44583 0
M  V30 5134 O 493.825 -0.874022 1.7342 0
M  V30 5135 C 490.955 -1.18055 3.26619 0
M  V30 5136 C 489.909 -0.558379 4.24342 0
M  V30 5137 C 489.235 -1.68623 5.07415 0
M  V30 5138 C 490.535 0.496295 5.19937 0
M  V30 5139 H 492.229 0.560046 2.94115 0
M  V30 5140 H 489.775 0.270775 1.41431 0
M  V30 5141 H 491.728 -1.69841 3.85658 0
M  V30 5142 H 490.452 -1.92899 2.63548 0
M  V30 5143 H 489.111 -0.0617157 3.66548 0
M  V30 5144 H 488.759 -2.42402 4.40738 0
M  V30 5145 H 488.459 -1.27564 5.73586 0
M  V30 5146 H 489.983 -2.20709 5.69315 0
M  V30 5147 H 491.397 0.0640052 5.73264 0
M  V30 5148 H 489.794 0.82649 5.94381 0
M  V30 5149 H 490.864 1.38735 4.6463 0
M  V30 5150 N 492.207 -1.54576 0.307264 0
M  V30 5151 C 493.17 -2.22423 -0.553224 0
M  V30 5152 C 494.17 -1.21231 -1.05639 0
M  V30 5153 O 495.36 -1.45923 -0.951419 0
M  V30 5154 C 492.492 -2.91552 -1.76664 0
M  V30 5155 H 493.685 -2.99874 0.0396484 0
M  V30 5156 H 491.238 -1.56192 0.0581629 0
M  V30 5157 H 491.973 -2.18196 -2.39918 0
M  V30 5158 H 491.758 -3.65738 -1.41343 0
M  V30 5159 H 493.248 -3.43292 -2.37783 0
M  V30 5160 N 493.685 -0.035106 -1.57561 0
M  V30 5161 C 494.915 0.651312 -1.96065 0
M  V30 5162 C 495.323 1.6585 -0.910514 0
M  V30 5163 O 494.666 1.83336 0.11552 0
M  V30 5164 C 494.728 1.40897 -3.30739 0
M  V30 5165 C 494.392 0.559436 -4.53563 0
M  V30 5166 C 495.389 -0.16778 -5.19629 0
M  V30 5167 C 493.074 0.495079 -4.99854 0
M  V30 5168 C 495.068 -0.947963 -6.30311 0
M  V30 5169 C 492.755 -0.288804 -6.10417 0
M  V30 5170 C 493.753 -1.00903 -6.75505 0
M  V30 5171 O 493.441 -1.78005 -7.83945 0
M  V30 5172 H 493.173 0.184036 -0.650467 0
M  V30 5173 H 495.727 -0.0929677 -2.05189 0
M  V30 5174 H 493.957 2.19852 -3.18123 0
M  V30 5175 H 495.646 1.98407 -3.54104 0
M  V30 5176 H 496.412 -0.12743 -4.84833 0
M  V30 5177 H 492.291 1.04524 -4.48994 0
M  V30 5178 H 495.835 -1.51064 -6.81047 0
M  V30 5179 H 491.732 -0.33085 -6.44652 0
M  V30 5180 H 492.5 -1.70046 -8.00641 0
M  V30 5181 N 495.163 1.55791 0.238111 0
M  V30 5182 C 496.126 1.90239 1.27835 0
M  V30 5183 C 497.126 0.779552 1.4064 0
M  V30 5184 O 498.316 1.04747 1.3919 0
M  V30 5185 C 495.448 2.13859 2.65475 0
M  V30 5186 H 496.641 2.83262 0.985034 0
M  V30 5187 H 494.194 1.48818 0.477799 0
M  V30 5188 H 494.929 1.23334 2.99932 0
M  V30 5189 H 494.714 2.95643 2.57561 0
M  V30 5190 H 496.204 2.41664 3.40571 0
M  V30 5191 N 496.642 -0.504142 1.49319 0
M  V30 5192 C 497.89 -1.25598 1.58334 0
M  V30 5193 C 498.211 -1.93114 0.270538 0
M  V30 5194 O 497.481 -1.82585 -0.709891 0
M  V30 5195 H 496.061 -0.466571 0.58337 0
M  V30 5196 H 498.723 -0.584547 1.85928 0
M  V30 5197 H 497.819 -2.02159 2.37778 0
M  V30 5198 N 498.12 -1.38341 -0.754957 0
M  V30 5199 C 499.067 -1.3546 -1.86867 0
M  V30 5200 C 500.037 -0.217369 -1.64672 0
M  V30 5201 O 501.222 -0.409383 -1.86356 0
M  V30 5202 C 498.362 -1.18413 -3.24149 0
M  V30 5203 C 497.475 -2.41511 -3.58185 0
M  V30 5204 C 496.61 -2.17205 -4.84763 0
M  V30 5205 C 495.649 -3.36081 -5.11582 0
M  V30 5206 N 494.786 -3.11219 -6.29354 0
M  V30 5207 H 499.626 -2.30672 -1.88664 0
M  V30 5208 H 497.163 -1.14607 -0.922154 0
M  V30 5209 H 499.121 -1.06545 -4.03366 0
M  V30 5210 H 497.751 -0.268397 -3.21682 0
M  V30 5211 H 496.803 -2.64056 -2.73822 0
M  V30 5212 H 498.115 -3.30115 -3.73932 0
M  V30 5213 H 497.269 -2.02465 -5.7192 0
M  V30 5214 H 496.008 -1.25964 -4.71152 0
M  V30 5215 H 495.013 -3.51341 -4.22894 0
M  V30 5216 H 496.238 -4.28196 -5.27091 0
M  V30 5217 H 494.184 -2.22624 -6.17069 0
M  V30 5218 H 494.101 -3.93373 -6.45596 0
M  V30 5219 H 495.369 -3.00132 -7.19403 0
M  V30 5220 N 499.598 0.982988 -1.23187 0
M  V30 5221 C 500.838 1.73903 -1.07412 0
M  V30 5222 C 501.202 1.88146 0.382764 0
M  V30 5223 O 502.403 2.6053 0.661638 0
M  V30 5224 C 500.674 3.10105 -1.77678 0
M  V30 5225 S 502.233 4.01323 -1.77441 0
M  V30 5226 H 499.051 0.598093 -0.384456 0
M  V30 5227 H 501.653 1.17456 -1.56283 0
M  V30 5228 H 500.357 2.97388 -2.82822 0
M  V30 5229 H 499.888 3.71622 -1.29077 0
M  V30 5230 H 501.903 4.89189 -0.831162 0
M  V30 5231 N 501.076 1.04316 1.18135 0
M  V30 5232 C 502.324 0.746542 1.87806 0
M  V30 5233 C 502.645 -0.728082 1.80898 0
M  V30 5234 O 501.915 -1.52554 1.22899 0
M  V30 5235 H 500.495 0.273157 0.695265 0
M  V30 5236 H 503.157 1.32044 1.43354 0
M  V30 5237 H 502.253 1.05362 2.93778 0
M  V30 5238 N 502.554 -1.34406 0.822964 0
M  V30 5239 C 503.484 -2.32052 0.259608 0
M  V30 5240 C 504.465 -1.58243 -0.623961 0
M  V30 5241 O 505.65 -1.86224 -0.55083 0
M  V30 5242 C 502.78 -3.42434 -0.579314 0
M  V30 5243 C 501.734 -4.27499 0.20712 0
M  V30 5244 C 501.06 -5.29349 -0.754547 0
M  V30 5245 C 502.36 -5.02758 1.41533 0
M  V30 5246 H 504.054 -2.79418 1.07545 0
M  V30 5247 H 501.6 -1.34338 0.518593 0
M  V30 5248 H 503.553 -4.0976 -0.983612 0
M  V30 5249 H 502.277 -2.93717 -1.4282 0
M  V30 5250 H 500.936 -3.61776 0.592787 0
M  V30 5251 H 500.584 -4.76895 -1.59939 0
M  V30 5252 H 500.284 -5.8714 -0.232561 0
M  V30 5253 H 501.808 -5.99544 -1.1567 0
M  V30 5254 H 503.222 -5.62938 1.08504 0
M  V30 5255 H 501.619 -5.70123 1.87296 0
M  V30 5256 H 502.689 -4.32451 2.1935 0
M  V30 5257 N 504.032 -0.577932 -1.46621 0
M  V30 5258 C 505.443 -0.150071 -1.86096 0
M  V30 5259 C 505.794 1.28563 -1.48209 0
M  V30 5260 O 504.919 1.97036 -0.894754 0
M  V30 5261 C 505.514 -0.265576 -3.37758 0
M  V30 5262 C 504.073 0.10738 -3.76247 0
M  V30 5263 C 503.22 -0.603711 -2.70649 0
M  V30 5264 H 506.171 -0.786438 -1.37844 0
M  V30 5265 H 506.192 0.510352 -3.77062 0
M  V30 5266 H 505.704 -1.3106 -3.65301 0
M  V30 5267 H 503.805 1.15272 -3.54321 0
M  V30 5268 H 503.918 -0.26561 -4.78363 0
M  V30 5269 H 502.282 -0.0444884 -2.54661 0
M  V30 5270 H 503.065 -1.65029 -3.01032 0
M  V30 5271 N 505.51 1.54411 -0.315457 0
M  V30 5272 C 506.74 2.04536 0.291315 0
M  V30 5273 C 507.148 1.19162 1.4696 0
M  V30 5274 O 506.491 0.213199 1.82459 0
M  V30 5275 C 506.553 3.5056 0.796725 0
M  V30 5276 C 506.217 4.5627 -0.258178 0
M  V30 5277 C 507.214 5.08312 -1.09153 0
M  V30 5278 C 504.899 5.00672 -0.404036 0
M  V30 5279 C 506.893 6.03312 -2.05655 0
M  V30 5280 C 504.58 5.95488 -1.37248 0
M  V30 5281 C 505.578 6.46693 -2.19721 0
M  V30 5282 O 505.266 7.39648 -3.14921 0
M  V30 5283 H 504.998 0.672856 0.0651165 0
M  V30 5284 H 507.552 2.00244 -0.457308 0
M  V30 5285 H 505.782 3.52223 1.59612 0
M  V30 5286 H 507.471 3.83804 1.32096 0
M  V30 5287 H 508.237 4.74793 -0.98979 0
M  V30 5288 H 504.116 4.60436 0.22799 0
M  V30 5289 H 507.66 6.43203 -2.70067 0
M  V30 5290 H 503.557 6.28424 -1.47489 0
M  V30 5291 H 504.325 7.57496 -3.10067 0
M  V30 5292 N 506.988 0.0434614 1.5754 0
M  V30 5293 C 508.234 -0.632971 1.92669 0
M  V30 5294 C 508.567 -1.70947 0.921446 0
M  V30 5295 O 507.842 -1.94426 -0.0537202 0
M  V30 5296 C 508.125 -1.23619 3.38216 0
M  V30 5297 C 507.978 -0.168274 4.49485 0
M  V30 5298 C 509.297 -2.15008 3.84005 0
M  V30 5299 H 506.416 -0.228629 0.700641 0
M  V30 5300 H 509.058 0.103651 1.89717 0
M  V30 5301 H 507.208 -1.864 3.40863 0
M  V30 5302 H 508.88 0.463196 4.58969 0
M  V30 5303 H 507.123 0.504581 4.30855 0
M  V30 5304 H 507.794 -0.630218 5.48391 0
M  V30 5305 H 510.27 -1.62198 3.83185 0
M  V30 5306 H 509.146 -2.54161 4.86511 0
M  V30 5307 H 509.407 -3.04707 3.20322 0
M  V30 5308 N 508.466 -1.55915 -0.229846 0
M  V30 5309 C 509.376 -1.94891 -1.30593 0
M  V30 5310 C 510.392 -0.851604 -1.51736 0
M  V30 5311 O 511.568 -1.15447 -1.65027 0
M  V30 5312 C 508.633 -2.25052 -2.63728 0
M  V30 5313 C 507.694 -3.48306 -2.5096 0
M  V30 5314 C 506.927 -3.77019 -3.77747 0
M  V30 5315 O 507.15 -3.07534 -4.80395 0
M  V30 5316 O 506.084 -4.70523 -3.75356 0
M  V30 5317 H 509.91 -2.86581 -1.00525 0
M  V30 5318 H 507.495 -1.43017 -0.432025 0
M  V30 5319 H 509.377 -2.45682 -3.42372 0
M  V30 5320 H 508.052 -1.36538 -2.93495 0
M  V30 5321 H 506.959 -3.32964 -1.70546 0
M  V30 5322 H 508.292 -4.37177 -2.26136 0
M  V30 5323 N 509.944 0.496216 -1.49584 0
M  V30 5324 C 511.19 1.25189 -1.59548 0
M  V30 5325 C 511.523 1.9212 -0.283466 0
M  V30 5326 O 510.798 1.80947 0.713324 0
M  V30 5327 C 511.081 2.31516 -2.75812 0
M  V30 5328 C 510.934 1.69054 -4.16822 0
M  V30 5329 C 512.253 3.3304 -2.87702 0
M  V30 5330 H 509.372 0.45379 -0.580727 0
M  V30 5331 H 512.014 0.549327 -1.81886 0
M  V30 5332 H 510.164 2.91438 -2.56897 0
M  V30 5333 H 511.836 1.12923 -4.47265 0
M  V30 5334 H 510.079 0.994485 -4.22247 0
M  V30 5335 H 510.75 2.462 -4.94054 0
M  V30 5336 H 513.226 2.83114 -3.04936 0
M  V30 5337 H 512.102 4.04794 -3.7072 0
M  V30 5338 H 512.363 3.95655 -1.97255 0
M  V30 5339 N 511.423 1.38739 0.74761 0
M  V30 5340 C 512.353 1.39173 1.87492 0
M  V30 5341 C 513.334 0.256794 1.6815 0
M  V30 5342 O 514.519 0.460762 1.88655 0
M  V30 5343 C 511.649 1.22197 3.25093 0
M  V30 5344 C 510.603 2.32957 3.59047 0
M  V30 5345 C 509.929 2.01082 4.95449 0
M  V30 5346 C 511.229 3.75237 3.6331 0
M  V30 5347 H 512.923 2.3351 1.87386 0
M  V30 5348 H 510.469 1.12399 0.900134 0
M  V30 5349 H 512.422 1.21124 4.03617 0
M  V30 5350 H 511.146 0.243241 3.25693 0
M  V30 5351 H 509.805 2.33226 2.82845 0
M  V30 5352 H 509.453 1.01678 4.92616 0
M  V30 5353 H 509.153 2.75267 5.19136 0
M  V30 5354 H 510.677 2.01638 5.76346 0
M  V30 5355 H 512.091 3.76966 4.31937 0
M  V30 5356 H 510.488 4.48677 3.98509 0
M  V30 5357 H 511.558 4.07122 2.634 0
M  V30 5358 N 512.901 -0.976442 1.23707 0
M  V30 5359 C 514.141 -1.73331 1.08332 0
M  V30 5360 C 514.505 -1.88346 -0.372781 0
M  V30 5361 O 515.706 -2.60877 -0.647813 0
M  V30 5362 C 513.977 -3.09159 1.7932 0
M  V30 5363 S 515.536 -4.00376 1.79567 0
M  V30 5364 H 512.354 -0.596045 0.387622 0
M  V30 5365 H 514.956 -1.16625 1.56904 0
M  V30 5366 H 513.66 -2.95884 2.84395 0
M  V30 5367 H 513.191 -3.70932 1.31046 0
M  V30 5368 H 515.206 -4.88742 0.857094 0
M  V30 5369 N 514.379 -1.04941 -1.1758 0
M  V30 5370 C 515.326 -0.648155 -2.21512 0
M  V30 5371 C 516.296 0.348431 -1.62404 0
M  V30 5372 O 517.481 0.240419 -1.89279 0
M  V30 5373 C 514.621 -0.0264291 -3.4509 0
M  V30 5374 C 513.734 -1.07154 -4.185 0
M  V30 5375 C 512.869 -0.417403 -5.29558 0
M  V30 5376 C 511.908 -1.447 -5.94751 0
M  V30 5377 N 511.045 -0.817203 -6.97328 0
M  V30 5378 H 515.885 -1.53891 -2.55189 0
M  V30 5379 H 513.422 -0.769699 -1.25356 0
M  V30 5380 H 515.38 0.351456 -4.15717 0
M  V30 5381 H 514.01 0.827802 -3.12005 0
M  V30 5382 H 513.062 -1.56728 -3.46613 0
M  V30 5383 H 514.374 -1.8532 -4.63096 0
M  V30 5384 H 513.528 0.0142061 -6.06698 0
M  V30 5385 H 512.267 0.396265 -4.86087 0
M  V30 5386 H 511.272 -1.88865 -5.16343 0
M  V30 5387 H 512.497 -2.26252 -6.40302 0
M  V30 5388 H 510.443 -0.0239995 -6.55996 0
M  V30 5389 H 510.36 -1.53644 -7.40223 0
M  V30 5390 H 511.628 -0.410283 -7.7842 0
M  V30 5391 N 515.857 1.33968 -0.830081 0
M  V30 5392 C 516.805 2.31301 -0.245435 0
M  V30 5393 C 517.799 1.57734 0.617762 0
M  V30 5394 O 519.005 1.72674 0.508303 0
M  V30 5395 H 515.38 0.749552 -0.0606316 0
M  V30 5396 H 517.351 2.78129 -1.08105 0
M  V30 5397 C 516.1 3.42961 0.572084 0
M  V30 5398 H 515.423 3.99714 -0.0828118 0
M  V30 5399 H 516.863 4.13286 0.94715 0
M  V30 5400 C 515.322 2.88043 1.74737 0
M  V30 5401 O 515.852 2.83508 2.8458 0
M  V30 5402 N 514.058 2.44768 1.56642 0
M  V30 5403 H 513.605 2.48656 0.672901 0
M  V30 5404 H 513.563 2.08375 2.3543 0
M  V30 5405 N 517.335 0.585699 1.46312 0
M  V30 5406 C 518.751 0.247607 1.57668 0
M  V30 5407 C 518.951 -1.25007 1.58037 0
M  V30 5408 O 518.007 -2.03196 1.49893 0
M  V30 5409 C 519.32 0.899456 2.86933 0
M  V30 5410 C 520.868 0.873326 3.00569 0
M  V30 5411 C 521.343 1.50477 4.32574 0
M  V30 5412 N 522.834 1.46925 4.3928 0
M  V30 5413 C 523.569 1.92719 5.40044 0
M  V30 5414 N 523.065 2.46499 6.47464 0
M  V30 5415 N 524.858 1.83617 5.31264 0
M  V30 5416 H 517.009 1.55841 1.44317 0
M  V30 5417 H 519.272 0.651564 0.688599 0
M  V30 5418 H 518.978 1.95313 2.92482 0
M  V30 5419 H 518.852 0.409476 3.74971 0
M  V30 5420 H 521.239 -0.171736 2.946 0
M  V30 5421 H 521.32 1.40136 2.13999 0
M  V30 5422 H 520.964 2.54905 4.39302 0
M  V30 5423 H 520.894 0.951944 5.17924 0
M  V30 5424 H 523.385 1.07616 3.62253 0
M  V30 5425 H 523.698 2.79291 7.20567 0
M  V30 5426 H 522.043 2.50526 6.48276 0
M  V30 5427 H 525.234 1.41358 4.46246 0
M  V30 5428 H 525.407 2.19622 6.09648 0
M  V30 5429 N 518.813 -1.54241 0.323641 0
M  V30 5430 C 520.043 -2.04687 -0.280464 0
M  V30 5431 C 520.451 -1.19939 -1.46326 0
M  V30 5432 O 519.794 -0.222872 -1.82343 0
M  V30 5433 C 519.856 -3.50978 -0.778123 0
M  V30 5434 C 519.52 -4.56127 0.282371 0
M  V30 5435 C 520.517 -5.07726 1.11847 0
M  V30 5436 C 518.202 -5.00451 0.430582 0
M  V30 5437 C 520.196 -6.02212 2.08851 0
M  V30 5438 C 517.883 -5.94752 1.40404 0
M  V30 5439 C 518.881 -6.45519 2.23147 0
M  V30 5440 O 518.569 -7.37968 3.1884 0
M  V30 5441 H 518.301 -0.673192 -0.0615473 0
M  V30 5442 H 520.855 -1.99999 0.467921 0
M  V30 5443 H 519.085 -3.53064 -1.57742 0
M  V30 5444 H 520.774 -3.84499 -1.30058 0
M  V30 5445 H 521.54 -4.74261 1.01496 0
M  V30 5446 H 517.419 -4.6055 -0.203569 0
M  V30 5447 H 520.963 -6.41761 2.73474 0
M  V30 5448 H 516.86 -6.27633 1.5082 0
M  V30 5449 H 517.628 -7.55841 3.14079 0
M  V30 5450 N 520.291 -0.0518155 -1.57515 0
M  V30 5451 C 521.537 0.622745 -1.93002 0
M  V30 5452 C 521.87 1.70456 -0.930499 0
M  V30 5453 O 521.145 1.94452 0.0434086 0
M  V30 5454 C 521.428 1.21824 -3.38867 0
M  V30 5455 C 521.281 0.144434 -4.49568 0
M  V30 5456 C 522.6 2.12968 -3.8514 0
M  V30 5457 H 519.719 0.22491 -0.701844 0
M  V30 5458 H 522.361 -0.113711 -1.89659 0
M  V30 5459 H 520.511 1.8459 -3.41846 0
M  V30 5460 H 522.183 -0.48753 -4.58717 0
M  V30 5461 H 520.426 -0.527424 -4.30582 0
M  V30 5462 H 521.097 0.601127 -5.48717 0
M  V30 5463 H 523.573 1.60163 -3.8404 0
M  V30 5464 H 522.449 2.51578 -4.87852 0
M  V30 5465 H 522.71 3.03004 -3.21934 0
M  V30 5466 N 521.769 1.56035 0.221574 0
M  V30 5467 C 523.017 1.78693 0.944102 0
M  V30 5468 C 523.338 0.620317 1.8487 0
M  V30 5469 O 522.608 -0.362784 1.92512 0
M  V30 5470 H 521.188 0.659082 0.351597 0
M  V30 5471 H 523.85 1.93497 0.233435 0
M  V30 5472 H 522.946 2.70837 1.55093 0
M  V30 5473 N 523.247 -0.488276 1.49845 0
M  V30 5474 C 524.663 -0.820566 1.3689 0
M  V30 5475 C 524.863 -1.97248 0.411752 0
M  V30 5476 O 523.919 -2.52042 -0.151931 0
M  V30 5477 C 525.232 -1.1488 2.77891 0
M  V30 5478 C 526.78 -1.25626 2.86683 0
M  V30 5479 C 527.255 -1.61772 4.28479 0
M  V30 5480 N 528.746 -1.68797 4.31349 0
M  V30 5481 C 529.481 -1.98235 5.38043 0
M  V30 5482 N 528.977 -2.2581 6.54967 0
M  V30 5483 N 530.77 -1.99593 5.2547 0
M  V30 5484 H 522.921 0.271123 2.10662 0
M  V30 5485 H 525.184 0.058735 0.946179 0
M  V30 5486 H 524.89 -0.375614 3.49688 0
M  V30 5487 H 524.764 -2.08919 3.14058 0
M  V30 5488 H 527.151 -2.02014 2.15114 0
M  V30 5489 H 527.232 -0.296072 2.54081 0
M  V30 5490 H 526.876 -0.859295 5.00578 0
M  V30 5491 H 526.806 -2.58912 4.58554 0
M  V30 5492 H 529.297 -1.49595 3.4703 0
M  V30 5493 H 529.61 -2.47497 7.32096 0
M  V30 5494 H 527.955 -2.23239 6.58171 0
M  V30 5495 H 531.146 -1.77535 4.33127 0
M  V30 5496 H 531.319 -2.222 6.08713 0
M  V30 5497 N 524.725 -1.39134 -0.740242 0
M  V30 5498 C 525.953 -1.39334 -1.5295 0
M  V30 5499 C 526.368 0.0135008 -1.88795 0
M  V30 5500 O 525.725 0.983524 -1.5373 0
M  V30 5501 C 525.776 -2.2614 -2.82034 0
M  V30 5502 O 525.497 -3.61345 -2.47712 0
M  V30 5503 C 526.998 -2.34666 -3.76094 0
M  V30 5504 H 524.218 -0.476103 -0.472828 0
M  V30 5505 H 526.762 -1.82883 -0.9151 0
M  V30 5506 H 524.917 -1.86018 -3.39818 0
M  V30 5507 H 525.331 -4.07194 -3.30595 0
M  V30 5508 H 526.805 -2.99663 -4.63579 0
M  V30 5509 H 527.282 -1.36426 -4.17474 0
M  V30 5510 H 527.888 -2.75236 -3.2423 0
M  V30 5511 N 526.204 0.969867 -1.24223 0
M  V30 5512 C 527.451 1.71256 -1.08063 0
M  V30 5513 C 527.779 1.90734 0.380872 0
M  V30 5514 O 527.034 1.46469 1.29789 0
M  V30 5515 C 527.333 3.10883 -1.76314 0
M  V30 5516 C 526.999 3.11252 -3.26241 0
M  V30 5517 C 525.661 3.1106 -3.67144 0
M  V30 5518 C 528.013 3.05751 -4.22097 0
M  V30 5519 C 525.341 3.03097 -5.02344 0
M  V30 5520 C 527.693 2.9933 -5.57301 0
M  V30 5521 C 526.357 2.97466 -5.97554 0
M  V30 5522 H 525.627 0.62667 -0.395431 0
M  V30 5523 H 528.274 1.13422 -1.54297 0
M  V30 5524 H 526.579 3.72168 -1.22468 0
M  V30 5525 H 528.276 3.67138 -1.61277 0
M  V30 5526 H 524.866 3.12165 -2.93685 0
M  V30 5527 H 529.05 3.05031 -3.91497 0
M  V30 5528 H 524.306 3.00013 -5.32731 0
M  V30 5529 H 528.48 2.94033 -6.31283 0
M  V30 5530 H 526.107 2.91051 -7.02277 0
M  V30 5531 N 527.682 1.05563 1.17022 0
M  V30 5532 C 528.931 0.763036 1.8671 0
M  V30 5533 C 529.244 -0.712857 1.82147 0
M  V30 5534 O 530.45 -1.11955 2.47343 0
M  V30 5535 C 528.906 1.31474 3.35026 0
M  V30 5536 C 528.514 2.82034 3.48081 0
M  V30 5537 C 530.258 1.09935 4.10018 0
M  V30 5538 C 528.165 3.30486 4.90442 0
M  V30 5539 H 527.095 0.281747 0.699382 0
M  V30 5540 H 529.746 1.2734 1.32124 0
M  V30 5541 H 528.128 0.732171 3.89173 0
M  V30 5542 H 529.302 3.46178 3.04133 0
M  V30 5543 H 527.617 3.02156 2.86515 0
M  V30 5544 H 530.214 1.43632 5.15048 0
M  V30 5545 H 530.557 0.0373072 4.16283 0
M  V30 5546 H 531.09 1.64732 3.62089 0
M  V30 5547 H 527.829 4.36137 4.89352 0
M  V30 5548 H 527.349 2.71086 5.35044 0
M  V30 5549 H 529.028 3.25382 5.59227 0
M  V30 5550 N 529.16 -1.33526 0.837174 0
M  V30 5551 C 530.092 -2.28077 0.226579 0
M  V30 5552 C 531.105 -1.51666 -0.591717 0
M  V30 5553 O 532.294 -1.73511 -0.419064 0
M  V30 5554 C 529.394 -3.31597 -0.69978 0
M  V30 5555 C 528.567 -4.37329 0.0788067 0
M  V30 5556 C 527.626 -5.20526 -0.770637 0
M  V30 5557 O 526.652 -5.68811 -0.210453 0
M  V30 5558 N 527.854 -5.41639 -2.08825 0
M  V30 5559 H 530.619 -2.81115 1.03897 0
M  V30 5560 H 528.18 -1.46201 0.695476 0
M  V30 5561 H 530.172 -3.84158 -1.27298 0
M  V30 5562 H 528.742 -2.78848 -1.41288 0
M  V30 5563 H 527.962 -3.8529 0.833381 0
M  V30 5564 H 529.25 -5.05079 0.614238 0
M  V30 5565 H 528.648 -5.04108 -2.56693 0
M  V30 5566 H 527.205 -5.97263 -2.60998 0
M  V30 5567 N 530.638 -0.59345 -1.46 0
M  V30 5568 C 532.049 -0.169801 -1.85926 0
M  V30 5569 C 532.4 1.26984 -1.49565 0
M  V30 5570 O 531.525 1.96076 -0.915602 0
M  V30 5571 C 532.12 -0.301385 -3.37457 0
M  V30 5572 C 530.679 0.0674684 -3.7634 0
M  V30 5573 C 529.826 -0.632383 -2.69993 0
M  V30 5574 H 532.777 -0.801014 -1.37002 0
M  V30 5575 H 532.798 0.470331 -3.77582 0
M  V30 5576 H 532.31 -1.34927 -3.63891 0
M  V30 5577 H 530.411 1.11507 -3.55523 0
M  V30 5578 H 530.524 -0.316332 -4.78055 0
M  V30 5579 H 528.888 -0.0714961 -2.546 0
M  V30 5580 H 529.671 -1.68212 -2.99265 0
M  V30 5581 N 532.116 1.54067 -0.331816 0
M  V30 5582 C 533.064 2.26105 0.54582 0
M  V30 5583 C 534.058 1.27816 1.11173 0
M  V30 5584 O 535.264 1.45565 1.05882 0
M  V30 5585 H 531.639 0.726363 0.194683 0
M  V30 5586 H 533.61 2.98282 -0.083931 0
M  V30 5587 C 532.359 3.03814 1.69092 0
M  V30 5588 H 531.682 3.79269 1.26473 0
M  V30 5589 H 533.122 3.57453 2.28043 0
M  V30 5590 C 531.581 2.12606 2.61343 0
M  V30 5591 O 532.111 1.71437 3.6328 0
M  V30 5592 N 530.317 1.77925 2.29763 0
M  V30 5593 H 529.864 2.11602 1.46909 0
M  V30 5594 H 529.822 1.1718 2.91747 0
M  V30 5595 N 533.594 0.0601682 1.57485 0
M  V30 5596 C 534.527 -0.94676 2.07634 0
M  V30 5597 C 535.505 -1.29837 0.978826 0
M  V30 5598 O 536.689 -1.40969 1.2514 0
M  V30 5599 C 533.816 -2.25822 2.52433 0
M  V30 5600 C 532.862 -2.05901 3.73507 0
M  V30 5601 S 533.695 -1.32907 5.18745 0
M  V30 5602 C 534.851 -2.65356 5.66866 0
M  V30 5603 H 535.084 -0.520003 2.92717 0
M  V30 5604 H 532.617 -0.152319 1.53647 0
M  V30 5605 H 534.575 -3.01201 2.78905 0
M  V30 5606 H 533.236 -2.65624 1.67639 0
M  V30 5607 H 532.429 -3.02929 4.02803 0
M  V30 5608 H 532.031 -1.38659 3.47347 0
M  V30 5609 H 534.323 -3.61492 5.73001 0
M  V30 5610 H 535.266 -2.40685 6.6594 0
M  V30 5611 H 535.674 -2.72028 4.94632 0
M  V30 5612 N 535.072 -1.5615 -0.213296 0
M  V30 5613 C 536.488 -1.49327 -0.56336 0
M  V30 5614 C 536.688 -0.756826 -1.86747 0
M  V30 5615 O 535.744 -0.299866 -2.50713 0
M  V30 5616 C 537.057 -2.9392 -0.634944 0
M  V30 5617 C 538.605 -3.04487 -0.725013 0
M  V30 5618 C 539.08 -4.50456 -0.82787 0
M  V30 5619 N 540.571 -4.54533 -0.891876 0
M  V30 5620 C 541.306 -5.64766 -0.991315 0
M  V30 5621 N 540.802 -6.84733 -1.05419 0
M  V30 5622 N 542.595 -5.52637 -1.02709 0
M  V30 5623 H 534.746 -2.02453 0.642366 0
M  V30 5624 H 537.009 -0.920548 0.226487 0
M  V30 5625 H 536.715 -3.50783 0.253859 0
M  V30 5626 H 536.589 -3.46274 -1.49579 0
M  V30 5627 H 538.976 -2.47685 -1.60425 0
M  V30 5628 H 539.057 -2.55289 0.161669 0
M  V30 5629 H 538.701 -5.07878 0.0469464 0
M  V30 5630 H 538.631 -4.97369 -1.73009 0
M  V30 5631 H 541.122 -3.68141 -0.85327 0
M  V30 5632 H 541.435 -7.64493 -1.13007 0
M  V30 5633 H 539.78 -6.87427 -1.02318 0
M  V30 5634 H 542.971 -4.5784 -0.974687 0
M  V30 5635 H 543.144 -6.38576 -1.10113 0
M  V30 5636 N 536.55 0.480323 -1.50102 0
M  V30 5637 C 537.48 1.58769 -1.71215 0
M  V30 5638 C 538.461 1.60583 -0.560997 0
M  V30 5639 O 539.646 1.76996 -0.799127 0
M  V30 5640 C 536.776 2.97148 -1.79778 0
M  V30 5641 C 535.73 3.10201 -2.94888 0
M  V30 5642 C 535.056 4.50137 -2.88584 0
M  V30 5643 C 536.356 2.88283 -4.35534 0
M  V30 5644 H 538.05 1.41354 -2.6393 0
M  V30 5645 H 535.596 0.678591 -1.27008 0
M  V30 5646 H 537.549 3.74536 -1.93133 0
M  V30 5647 H 536.273 3.15699 -0.836772 0
M  V30 5648 H 534.932 2.35244 -2.81169 0
M  V30 5649 H 534.58 4.65593 -1.90349 0
M  V30 5650 H 534.28 4.59808 -3.65856 0
M  V30 5651 H 535.804 5.29558 -3.03976 0
M  V30 5652 H 537.218 3.55427 -4.49827 0
M  V30 5653 H 535.615 3.09408 -5.14186 0
M  V30 5654 H 536.685 1.84219 -4.48544 0
M  V30 5655 N 538.028 1.39524 0.732853 0
M  V30 5656 C 539.444 1.21176 1.03868 0
M  V30 5657 C 539.644 0.0748448 2.01361 0
M  V30 5658 O 538.7 -0.57281 2.45917 0
M  V30 5659 C 540.013 2.54667 1.59892 0
M  V30 5660 C 541.561 2.6153 1.71962 0
M  V30 5661 C 542.036 3.95248 2.31394 0
M  V30 5662 N 543.527 3.96899 2.38801 0
M  V30 5663 C 544.262 4.97138 2.85729 0
M  V30 5664 N 543.758 6.07775 3.32537 0
M  V30 5665 N 545.551 4.84516 2.84957 0
M  V30 5666 H 537.702 2.12225 0.086304 0
M  V30 5667 H 539.965 0.942614 0.100907 0
M  V30 5668 H 539.671 3.38423 0.95721 0
M  V30 5669 H 539.545 2.74538 2.58668 0
M  V30 5670 H 541.932 1.78156 2.35254 0
M  V30 5671 H 542.013 2.45507 0.718327 0
M  V30 5672 H 541.657 4.79054 1.68729 0
M  V30 5673 H 541.587 4.08593 3.32204 0
M  V30 5674 H 544.078 3.16998 2.05719 0
M  V30 5675 H 544.391 6.8017 3.66862 0
M  V30 5676 H 542.736 6.11366 3.30541 0
M  V30 5677 H 545.927 3.97185 2.47713 0
M  V30 5678 H 546.1 5.62783 3.21215 0
M  V30 5679 N 539.506 -0.963266 1.24736 0
M  V30 5680 C 540.438 -2.06162 1.0015 0
M  V30 5681 C 541.451 -1.62771 -0.0305905 0
M  V30 5682 O 542.64 -1.77296 0.206966 0
M  V30 5683 C 539.74 -3.35333 0.490385 0
M  V30 5684 C 538.913 -4.07609 1.58663 0
M  V30 5685 C 537.972 -5.15052 1.0774 0
M  V30 5686 O 536.998 -5.4098 1.77002 0
M  V30 5687 N 538.2 -5.80436 -0.0858605 0
M  V30 5688 H 540.965 -2.27825 1.94719 0
M  V30 5689 H 538.526 -1.13121 1.15825 0
M  V30 5690 H 540.518 -4.04477 0.134371 0
M  V30 5691 H 539.088 -3.10507 -0.361155 0
M  V30 5692 H 538.308 -3.32681 2.11463 0
M  V30 5693 H 539.596 -4.52656 2.32336 0
M  V30 5694 H 538.994 -5.6178 -0.664806 0
M  V30 5695 H 537.551 -6.50674 -0.382981 0
M  V30 5696 N 540.985 -1.06182 -1.16461 0
M  V30 5697 C 541.915 -0.692861 -2.22984 0
M  V30 5698 C 542.896 0.314122 -1.67174 0
M  V30 5699 O 544.081 0.189499 -1.93273 0
M  V30 5700 C 541.211 -0.07732 -3.47214 0
M  V30 5701 C 540.165 -1.01015 -4.15909 0
M  V30 5702 C 539.491 -0.257973 -5.34077 0
M  V30 5703 C 540.791 -2.33868 -4.67015 0
M  V30 5704 H 542.485 -1.58343 -2.54102 0
M  V30 5705 H 540.031 -0.76279 -1.22137 0
M  V30 5706 H 541.984 0.19266 -4.20959 0
M  V30 5707 H 540.708 0.848254 -3.15392 0
M  V30 5708 H 539.367 -1.26486 -3.44088 0
M  V30 5709 H 539.015 0.670684 -4.98509 0
M  V30 5710 H 538.715 -0.879638 -5.80979 0
M  V30 5711 H 540.239 0.00448788 -6.106 0
M  V30 5712 H 541.653 -2.1279 -5.32347 0
M  V30 5713 H 540.05 -2.91522 -5.24533 0
M  V30 5714 H 541.12 -2.97019 -3.83286 0
M  V30 5715 N 542.463 1.3308 -0.844243 0
M  V30 5716 C 543.711 1.97215 -0.441676 0
M  V30 5717 C 544.032 1.67185 1.0037 0
M  V30 5718 O 543.302 0.973588 1.69994 0
M  V30 5719 H 541.882 0.72959 -0.160335 0
M  V30 5720 H 544.544 1.62348 -1.07838 0
M  V30 5721 H 543.64 3.06698 -0.57815 0
M  V30 5722 N 543.941 0.601185 1.45683 0
M  V30 5723 C 545.187 0.0940202 2.02582 0
M  V30 5724 C 545.52 -1.26972 1.46941 0
M  V30 5725 O 544.795 -1.83613 0.641612 0
M  V30 5726 C 545.078 0.0481715 3.60068 0
M  V30 5727 C 544.931 1.44212 4.26055 0
M  V30 5728 C 546.25 -0.642975 4.35378 0
M  V30 5729 H 543.369 0.0356404 0.736138 0
M  V30 5730 H 546.011 0.771929 1.73612 0
M  V30 5731 H 544.161 -0.529128 3.8488 0
M  V30 5732 H 545.833 2.06601 4.12449 0
M  V30 5733 H 544.076 2.00465 3.84703 0
M  V30 5734 H 544.747 1.36234 5.34925 0
M  V30 5735 H 547.223 -0.152351 4.15821 0
M  V30 5736 H 546.099 -0.644141 5.45107 0
M  V30 5737 H 546.36 -1.70785 4.0778 0
M  V30 5738 N 545.419 -1.53889 0.339982 0
M  V30 5739 C 546.382 -2.23547 -0.50592 0
M  V30 5740 C 547.382 -1.23445 -1.03044 0
M  V30 5741 O 548.572 -1.47909 -0.920253 0
M  V30 5742 C 545.704 -2.95234 -1.7044 0
M  V30 5743 H 546.897 -2.99722 0.103247 0
M  V30 5744 H 544.45 -1.56033 0.0912804 0
M  V30 5745 H 545.185 -2.23236 -2.35236 0
M  V30 5746 H 544.97 -3.68654 -1.33553 0
M  V30 5747 H 546.46 -3.48258 -2.30447 0
M  V30 5748 N 546.897 -0.0685191 -1.57451 0
M  V30 5749 C 547.844 0.899861 -2.12535 0
M  V30 5750 C 548.814 1.29749 -1.03703 0
M  V30 5751 O 549.999 1.38392 -1.31348 0
M  V30 5752 C 547.139 2.16328 -2.6888 0
M  V30 5753 C 546.252 1.81857 -3.91857 0
M  V30 5754 C 545.387 3.02786 -4.36457 0
M  V30 5755 C 544.426 2.64317 -5.5209 0
M  V30 5756 N 543.563 3.77994 -5.91663 0
M  V30 5757 H 548.403 0.423243 -2.94979 0
M  V30 5758 H 545.94 0.197268 -1.45771 0
M  V30 5759 H 547.898 2.90281 -2.99655 0
M  V30 5760 H 546.528 2.61536 -1.89206 0
M  V30 5761 H 545.58 0.979808 -3.67565 0
M  V30 5762 H 546.892 1.49553 -4.75852 0
M  V30 5763 H 546.046 3.85021 -4.68875 0
M  V30 5764 H 544.785 3.38281 -3.51308 0
M  V30 5765 H 543.79 1.80503 -5.19325 0
M  V30 5766 H 545.015 2.29995 -6.38967 0
M  V30 5767 H 542.961 4.13258 -5.09464 0
M  V30 5768 H 542.878 3.49447 -6.7039 0
M  V30 5769 H 544.146 4.60818 -6.28703 0
M  V30 5770 N 548.375 1.56261 0.205012 0
M  V30 5771 C 549.322 1.93754 1.25411 0
M  V30 5772 C 550.292 0.796826 1.45739 0
M  V30 5773 O 551.477 1.05414 1.59036 0
M  V30 5774 C 548.617 2.27383 2.59598 0
M  V30 5775 C 547.73 3.5447 2.46931 0
M  V30 5776 C 546.865 3.77468 3.73753 0
M  V30 5777 C 545.904 4.98014 3.55877 0
M  V30 5778 N 545.041 5.17316 4.74688 0
M  V30 5779 H 549.881 2.83203 0.92737 0
M  V30 5780 H 547.418 1.40158 0.446574 0
M  V30 5781 H 549.376 2.44895 3.37761 0
M  V30 5782 H 548.006 1.41088 2.90335 0
M  V30 5783 H 547.058 3.45061 1.60116 0
M  V30 5784 H 548.37 4.42789 2.29651 0
M  V30 5785 H 547.524 3.95165 4.60358 0
M  V30 5786 H 546.263 2.87461 3.93976 0
M  V30 5787 H 545.268 4.80249 2.67657 0
M  V30 5788 H 546.493 5.8952 3.37109 0
M  V30 5789 H 544.439 4.30255 4.95194 0
M  V30 5790 H 544.356 5.99796 4.60197 0
M  V30 5791 H 545.624 5.39463 5.62672 0
M  V30 5792 N 549.853 -0.472356 1.50355 0
M  V30 5793 C 551.1 -1.22453 1.61281 0
M  V30 5794 C 551.428 -1.91972 0.31256 0
M  V30 5795 O 550.683 -1.82696 -0.701475 0
M  V30 5796 C 550.982 -2.29257 2.74182 0
M  V30 5797 C 550.648 -1.76999 4.14708 0
M  V30 5798 C 549.31 -1.62467 4.52944 0
M  V30 5799 C 551.662 -1.38215 5.0254 0
M  V30 5800 C 548.99 -1.07574 5.76754 0
M  V30 5801 C 551.342 -0.847638 6.26895 0
M  V30 5802 C 550.006 -0.688946 6.63935 0
M  V30 5803 H 549.276 -0.448087 0.590168 0
M  V30 5804 H 551.923 -0.520744 1.84284 0
M  V30 5805 H 550.228 -3.05538 2.45263 0
M  V30 5806 H 551.925 -2.87212 2.7984 0
M  V30 5807 H 548.515 -1.89276 3.84542 0
M  V30 5808 H 552.699 -1.48276 4.73633 0
M  V30 5809 H 547.955 -0.940237 6.04127 0
M  V30 5810 H 552.129 -0.538455 6.94315 0
M  V30 5811 H 549.756 -0.261435 7.5975 0
M  V30 5812 N 551.331 -1.39911 -0.725443 0
M  V30 5813 C 552.579 -1.37382 -1.48224 0
M  V30 5814 C 552.9 0.0264107 -1.94982 0
M  V30 5815 O 552.17 0.979408 -1.6966 0
M  V30 5816 H 550.75 -0.505596 -0.549892 0
M  V30 5817 H 553.412 -1.7487 -0.860608 0
M  V30 5818 H 552.508 -2.04254 -2.3598 0
M  V30 5819 N 552.809 0.956637 -1.25245 0
M  V30 5820 C 554.055 1.70352 -1.10036 0
M  V30 5821 C 554.388 1.90869 0.358156 0
M  V30 5822 O 553.663 1.47819 1.26411 0
M  V30 5823 C 553.946 3.08766 -1.85298 0
M  V30 5824 C 553.799 2.95672 -3.38966 0
M  V30 5825 C 555.118 4.08622 -1.63451 0
M  V30 5826 H 552.237 0.618279 -0.401123 0
M  V30 5827 H 554.879 1.11212 -1.54051 0
M  V30 5828 H 553.029 3.59252 -1.47887 0
M  V30 5829 H 554.701 2.52527 -3.86041 0
M  V30 5830 H 552.944 2.31634 -3.6678 0
M  V30 5831 H 553.615 3.93776 -3.86839 0
M  V30 5832 H 556.091 3.67038 -1.96015 0
M  V30 5833 H 554.967 5.03514 -2.18551 0
M  V30 5834 H 555.228 4.3834 -0.575357 0
M  V30 5835 N 554.287 1.06798 1.15896 0
M  V30 5836 C 555.217 0.704677 2.22613 0
M  V30 5837 C 556.198 -0.305252 1.67339 0
M  V30 5838 O 557.383 -0.179247 1.93371 0
M  V30 5839 C 554.513 0.0957325 3.47168 0
M  V30 5840 C 553.467 1.0322 4.15367 0
M  V30 5841 C 552.793 0.286293 5.33933 0
M  V30 5842 C 554.093 2.36341 4.65768 0
M  V30 5843 H 555.787 1.59688 2.53259 0
M  V30 5844 H 553.333 0.769257 1.21731 0
M  V30 5845 H 555.286 -0.170333 4.21056 0
M  V30 5846 H 554.01 -0.831516 3.15838 0
M  V30 5847 H 552.669 1.28309 3.43413 0
M  V30 5848 H 552.317 -0.644237 4.98857 0
M  V30 5849 H 552.017 0.910436 5.80504 0
M  V30 5850 H 553.541 0.0278938 6.10594 0
M  V30 5851 H 554.955 2.1561 5.31211 0
M  V30 5852 H 553.352 2.94299 5.2298 0
M  V30 5853 H 554.422 2.99047 3.81705 0
M  V30 5854 N 555.766 -1.3263 0.851289 0
M  V30 5855 C 556.991 -2.02097 0.466006 0
M  V30 5856 C 557.416 -1.63574 -0.928709 0
M  V30 5857 O 556.774 -0.834665 -1.60944 0
M  V30 5858 C 556.822 -3.55425 0.608737 0
M  V30 5859 O 555.926 -4.10827 -0.359878 0
M  V30 5860 H 555.267 -0.636911 0.187724 0
M  V30 5861 H 557.797 -1.69253 1.14955 0
M  V30 5862 H 557.807 -4.04986 0.495006 0
M  V30 5863 H 556.482 -3.82806 1.62581 0
M  V30 5864 H 555.059 -3.72349 -0.202666 0
M  V30 5865 N 557.244 -0.608902 -1.45362 0
M  V30 5866 C 558.521 -0.0365378 -1.95566 0
M  V30 5867 C 558.901 1.43169 -1.55131 0
M  V30 5868 O 558.249 2.1349 -0.814513 0
M  V30 5869 C 558.459 -0.236026 -3.48201 0
M  V30 5870 C 559.807 -0.117518 -4.24437 0
M  V30 5871 O 560.831 -0.166217 -3.55812 0
M  V30 5872 O 559.69 -0.00372127 -5.465 0
M  V30 5873 H 556.784 0.0349874 -0.82626 0
M  V30 5874 H 559.33 -0.679055 -1.55521 0
M  V30 5875 H 558.102 -1.25569 -3.70605 0
M  V30 5876 H 557.725 0.441691 -3.95139 0
M  V30 5877 N 558.722 1.53707 -0.348139 0
M  V30 5878 C 559.67 2.26671 0.521808 0
M  V30 5879 C 560.664 1.28988 1.09811 0
M  V30 5880 O 561.87 1.4668 1.04332 0
M  V30 5881 H 558.245 0.728387 0.186968 0
M  V30 5882 H 560.216 2.98176 -0.115563 0
M  V30 5883 C 558.965 3.05591 1.6586 0
M  V30 5884 H 558.288 3.80589 1.22443 0
M  V30 5885 H 559.728 3.59851 2.24239 0
M  V30 5886 C 558.187 2.15366 2.59073 0
M  V30 5887 O 558.717 1.7528 3.61441 0
M  V30 5888 N 556.923 1.80352 2.27863 0
M  V30 5889 H 556.47 2.13149 1.44656 0
M  V30 5890 H 556.428 1.20268 2.90488 0
M  V30 5891 N 560.2 0.0768682 1.57412 0
M  V30 5892 C 561.447 -0.591085 1.93681 0
M  V30 5893 C 561.775 -1.69311 0.957286 0
M  V30 5894 O 561.03 -1.95682 -0.0262428 0
M  V30 5895 C 561.329 -1.20268 3.36557 0
M  V30 5896 C 560.995 -0.226286 4.50332 0
M  V30 5897 C 559.657 0.0423142 4.81181 0
M  V30 5898 C 562.009 0.441415 5.19327 0
M  V30 5899 C 559.337 0.985616 5.78362 0
M  V30 5900 C 561.689 1.37307 6.17519 0
M  V30 5901 C 560.353 1.65009 6.46783 0
M  V30 5902 H 559.623 -0.216293 0.70873 0
M  V30 5903 H 562.27 0.148824 1.90921 0
M  V30 5904 H 560.575 -2.01844 3.35807 0
M  V30 5905 H 562.272 -1.72688 3.61911 0
M  V30 5906 H 558.862 -0.445821 4.26275 0
M  V30 5907 H 563.046 0.247023 4.95685 0
M  V30 5908 H 558.302 1.20743 5.99359 0
M  V30 5909 H 562.476 1.89637 6.70083 0
M  V30 5910 H 560.103 2.38263 7.21897 0
M  V30 5911 N 561.678 -1.56367 -0.196722 0
M  V30 5912 C 562.625 -1.94417 -1.24382 0
M  V30 5913 C 563.595 -0.804543 -1.45315 0
M  V30 5914 O 564.78 -1.06256 -1.58475 0
M  V30 5915 C 561.92 -2.28757 -2.58388 0
M  V30 5916 C 561.033 -3.55775 -2.45047 0
M  V30 5917 C 560.168 -3.79445 -3.71746 0
M  V30 5918 C 559.207 -4.99894 -3.53231 0
M  V30 5919 N 558.344 -5.19826 -4.71938 0
M  V30 5920 H 563.184 -2.83691 -0.912338 0
M  V30 5921 H 560.721 -1.40392 -0.439135 0
M  V30 5922 H 562.679 -2.46682 -3.36457 0
M  V30 5923 H 561.309 -1.42625 -2.89582 0
M  V30 5924 H 560.361 -3.45905 -1.58284 0
M  V30 5925 H 561.673 -4.44 -2.27299 0
M  V30 5926 H 560.827 -3.97601 -4.58256 0
M  V30 5927 H 559.566 -2.89546 -3.92446 0
M  V30 5928 H 558.571 -4.81662 -2.65107 0
M  V30 5929 H 559.796 -5.913 -3.33978 0
M  V30 5930 H 557.742 -4.32875 -4.92905 0
M  V30 5931 H 557.659 -6.02228 -4.57009 0
M  V30 5932 H 558.927 -5.42439 -5.59803 0
M  V30 5933 N 563.156 0.464375 -1.50603 0
M  V30 5934 C 564.404 1.21356 -1.61608 0
M  V30 5935 C 564.725 1.92329 -0.321643 0
M  V30 5936 O 563.995 1.84403 0.661232 0
M  V30 5937 H 562.575 0.45094 -0.595535 0
M  V30 5938 H 565.237 0.535046 -1.87412 0
M  V30 5939 H 564.333 1.95783 -2.43054 0
M  V30 5940 N 564.634 1.40294 0.718013 0
M  V30 5941 C 565.581 1.40367 1.8321 0
M  V30 5942 C 566.551 0.260952 1.64037 0
M  V30 5943 O 567.736 0.458648 1.85205 0
M  V30 5944 C 564.876 1.26965 3.20895 0
M  V30 5945 C 563.989 2.50922 3.51656 0
M  V30 5946 C 563.124 2.29981 4.78834 0
M  V30 5947 C 562.163 3.49527 5.02491 0
M  V30 5948 N 561.3 3.27796 6.20882 0
M  V30 5949 H 566.14 2.35593 1.82482 0
M  V30 5950 H 563.677 1.17012 0.891444 0
M  V30 5951 H 565.635 1.17202 4.00399 0
M  V30 5952 H 564.265 0.353591 3.20858 0
M  V30 5953 H 563.317 2.71223 2.66725 0
M  V30 5954 H 564.629 3.39913 3.65048 0
M  V30 5955 H 563.783 2.17558 5.66351 0
M  V30 5956 H 562.522 1.38411 4.67647 0
M  V30 5957 H 561.527 3.6243 4.1343 0
M  V30 5958 H 562.752 4.42021 5.15553 0
M  V30 5959 H 560.698 2.38906 6.1095 0
M  V30 5960 H 560.615 4.10351 6.34939 0
M  V30 5961 H 561.883 3.19101 7.11193 0
M  V30 5962 N 566.112 -0.949982 1.2575 0
M  V30 5963 C 567.528 -1.22191 1.02672 0
M  V30 5964 C 567.728 -1.99898 -0.253588 0
M  V30 5965 O 566.784 -2.33329 -0.965076 0
M  V30 5966 C 568.097 -1.99175 2.25277 0
M  V30 5967 C 569.645 -2.12201 2.30087 0
M  V30 5968 C 570.12 -2.92586 3.5236 0
M  V30 5969 N 571.611 -3.00163 3.52784 0
M  V30 5970 C 572.346 -3.62766 4.44059 0
M  V30 5971 N 571.842 -4.26943 5.45611 0
M  V30 5972 N 573.635 -3.59953 4.3173 0
M  V30 5973 H 565.786 -0.430258 2.07996 0
M  V30 5974 H 568.049 -0.252844 0.91366 0
M  V30 5975 H 567.755 -1.49479 3.18354 0
M  V30 5976 H 567.629 -2.99868 2.28821 0
M  V30 5977 H 570.016 -2.61093 1.3753 0
M  V30 5978 H 570.097 -1.10799 2.30559 0
M  V30 5979 H 569.741 -2.44383 4.45241 0
M  V30 5980 H 569.671 -3.94224 3.49134 0
M  V30 5981 H 572.162 -2.54529 2.79327 0
M  V30 5982 H 572.475 -4.72583 6.11461 0
M  V30 5983 H 570.82 -4.25557 5.49478 0
M  V30 5984 H 574.011 -3.09003 3.51617 0
M  V30 5985 H 574.184 -4.08455 5.03059 0
M  V30 5986 N 567.59 -1.07411 -1.15328 0
M  V30 5987 C 568.839 -0.792643 -1.85473 0
M  V30 5988 C 569.152 0.683789 -1.83259 0
M  V30 5989 O 570.358 1.08005 -2.49093 0
M  V30 5990 C 568.814 -1.36787 -3.32892 0
M  V30 5991 C 568.422 -2.87536 -3.43551 0
M  V30 5992 C 570.166 -1.16444 -4.08217 0
M  V30 5993 C 568.073 -3.38247 -4.85122 0
M  V30 5994 H 567.003 -0.292838 -0.694811 0
M  V30 5995 H 569.654 -1.29426 -1.30082 0
M  V30 5996 H 568.036 -0.793993 -3.87958 0
M  V30 5997 H 569.21 -3.50973 -2.98588 0
M  V30 5998 H 567.525 -3.06676 -2.81672 0
M  V30 5999 H 570.122 -1.51808 -5.12697 0
M  V30 6000 H 570.465 -0.10353 -4.16171 0
M  V30 6001 H 570.998 -1.70472 -3.59422 0
M  V30 6002 H 567.737 -4.43866 -4.82351 0
M  V30 6003 H 567.257 -2.79564 -5.30664 0
M  V30 6004 H 568.936 -3.34238 -5.5398 0
M  V30 6005 N 569.068 1.32177 -0.85831 0
M  V30 6006 C 570.314 1.97417 -0.46417 0
M  V30 6007 C 570.647 1.67746 0.978514 0
M  V30 6008 O 569.922 0.967654 1.68721 0
M  V30 6009 C 570.205 3.53069 -0.708094 0
M  V30 6010 C 570.058 3.92357 -2.19946 0
M  V30 6011 C 571.377 4.39783 -0.166881 0
M  V30 6012 H 568.496 0.717097 -0.17012 0
M  V30 6013 H 571.138 1.56499 -1.07741 0
M  V30 6014 H 569.288 3.88054 -0.186128 0
M  V30 6015 H 570.96 3.67533 -2.78779 0
M  V30 6016 H 569.203 3.41384 -2.67656 0
M  V30 6017 H 569.874 5.00841 -2.32082 0
M  V30 6018 H 572.35 4.11556 -0.613285 0
M  V30 6019 H 571.226 5.47671 -0.367093 0
M  V30 6020 H 571.487 4.32196 0.930559 0
M  V30 6021 N 570.547 0.616602 1.45037 0
M  V30 6022 C 571.477 -0.0840787 2.33349 0
M  V30 6023 C 572.458 -0.849641 1.4736 0
M  V30 6024 O 573.643 -0.818407 1.76113 0
M  V30 6025 C 570.773 -1.07604 3.3021 0
M  V30 6026 C 569.727 -0.423096 4.25904 0
M  V30 6027 C 569.053 -1.52394 5.12523 0
M  V30 6028 C 570.353 0.661457 5.18095 0
M  V30 6029 H 572.047 0.653333 2.92185 0
M  V30 6030 H 569.593 0.315634 1.40498 0
M  V30 6031 H 571.546 -1.57485 3.90866 0
M  V30 6032 H 570.27 -1.84416 2.69552 0
M  V30 6033 H 568.929 0.05493 3.66559 0
M  V30 6034 H 568.577 -2.28257 4.48227 0
M  V30 6035 H 568.277 -1.09251 5.77354 0
M  V30 6036 H 569.801 -2.02485 5.76049 0
M  V30 6037 H 571.215 0.246353 5.7277 0
M  V30 6038 H 569.612 1.01517 5.91451 0
M  V30 6039 H 570.682 1.53446 4.59981 0
M  V30 6040 N 572.025 -1.5352 0.356285 0
M  V30 6041 C 573.271 -2.01414 -0.236653 0
M  V30 6042 C 573.604 -1.24339 -1.49176 0
M  V30 6043 O 572.879 -0.334496 -1.91602 0
M  V30 6044 C 573.162 -3.56059 -0.537982 0
M  V30 6045 C 573.015 -4.43835 0.730112 0
M  V30 6046 C 574.334 -4.19127 -1.34239 0
M  V30 6047 H 571.453 -0.732135 -0.0845386 0
M  V30 6048 H 574.095 -1.83854 0.479341 0
M  V30 6049 H 572.245 -3.71153 -1.14795 0
M  V30 6050 H 573.917 -4.40555 1.36782 0
M  V30 6051 H 572.16 -4.1218 1.3524 0
M  V30 6052 H 572.831 -5.49958 0.474358 0
M  V30 6053 H 575.307 -4.07809 -0.826498 0
M  V30 6054 H 574.183 -5.27378 -1.52198 0
M  V30 6055 H 574.444 -3.74581 -2.34822 0
M  V30 6056 N 573.503 -0.0852151 -1.57369 0
M  V30 6057 C 574.78 0.622534 -1.85429 0
M  V30 6058 C 575.16 1.86962 -0.980229 0
M  V30 6059 O 574.508 2.28445 -0.0500219 0
M  V30 6060 C 574.718 0.947374 -3.35896 0
M  V30 6061 C 576.066 1.31509 -4.03721 0
M  V30 6062 O 577.09 1.03869 -3.40719 0
M  V30 6063 O 575.949 1.83231 -5.14868 0
M  V30 6064 H 573.043 0.310513 -0.766492 0
M  V30 6065 H 575.589 -0.117164 -1.69295 0
M  V30 6066 H 574.361 0.0622264 -3.91251 0
M  V30 6067 H 573.984 1.74338 -3.5734 0
M  V30 6068 N 574.981 1.5647 0.188427 0
M  V30 6069 C 576.258 1.71857 0.934058 0
M  V30 6070 C 576.638 0.641867 2.01105 0
M  V30 6071 O 575.986 -0.346098 2.25864 0
M  V30 6072 C 576.196 3.14431 1.5144 0
M  V30 6073 C 577.544 3.74869 1.99396 0
M  V30 6074 O 578.568 3.17601 1.61269 0
M  V30 6075 O 577.427 4.75387 2.69573 0
M  V30 6076 H 574.521 0.701186 0.438483 0
M  V30 6077 H 577.067 1.68768 0.177599 0
M  V30 6078 H 575.839 3.8427 0.738416 0
M  V30 6079 H 575.462 3.21775 2.33552 0
M  V30 6080 N 576.459 -0.456382 1.50847 0
M  V30 6081 C 577.684 -1.2349 1.66628 0
M  V30 6082 C 578.109 -1.84715 0.355254 0
M  V30 6083 O 577.467 -1.67961 -0.682559 0
M  V30 6084 C 577.515 -2.30865 2.77009 0
M  V30 6085 O 576.619 -3.35882 2.39285 0
M  V30 6086 H 575.96 -0.36266 0.556214 0
M  V30 6087 H 578.49 -0.541374 1.97308 0
M  V30 6088 H 578.5 -2.75949 3.00526 0
M  V30 6089 H 577.175 -1.85677 3.72152 0
M  V30 6090 H 575.752 -2.96406 2.26269 0
M  V30 6091 N 577.937 -1.40673 -0.710563 0
M  V30 6092 C 579.186 -1.38525 -1.46607 0
M  V30 6093 C 579.499 0.0077024 -1.95598 0
M  V30 6094 O 580.705 0.151792 -2.71075 0
M  V30 6095 C 579.161 -2.43489 -2.6503 0
M  V30 6096 C 578.769 -3.88619 -2.22888 0
M  V30 6097 C 580.513 -2.50456 -3.42742 0
M  V30 6098 C 578.42 -4.85168 -3.3818 0
M  V30 6099 H 577.35 -0.515092 -0.550632 0
M  V30 6100 H 580.001 -1.66431 -0.772846 0
M  V30 6101 H 578.383 -2.0869 -3.36548 0
M  V30 6102 H 579.557 -4.32588 -1.58758 0
M  V30 6103 H 577.872 -3.85174 -1.58208 0
M  V30 6104 H 580.469 -3.19776 -4.28541 0
M  V30 6105 H 580.812 -1.53665 -3.86902 0
M  V30 6106 H 581.345 -2.84271 -2.78271 0
M  V30 6107 H 578.084 -5.8331 -2.99047 0
M  V30 6108 H 577.604 -4.4586 -4.01209 0
M  V30 6109 H 579.283 -5.05225 -4.04174 0
M  V30 6110 N 579.415 0.9433 -1.26252 0
M  V30 6111 C 580.661 1.69175 -1.11837 0
M  V30 6112 C 580.994 1.91238 0.337891 0
M  V30 6113 O 580.269 1.49152 1.24836 0
M  V30 6114 C 580.552 3.06783 -1.88563 0
M  V30 6115 C 580.405 2.9206 -3.42083 0
M  V30 6116 C 581.724 4.06865 -1.67776 0
M  V30 6117 H 578.843 0.61399 -0.407658 0
M  V30 6118 H 581.485 1.09572 -1.55222 0
M  V30 6119 H 579.635 3.57663 -1.51689 0
M  V30 6120 H 581.307 2.48419 -3.88698 0
M  V30 6121 H 579.55 2.27731 -3.69217 0
M  V30 6122 H 580.221 3.89651 -3.90994 0
M  V30 6123 H 582.697 3.64939 -1.99897 0
M  V30 6124 H 581.573 5.01168 -2.23879 0
M  V30 6125 H 581.834 4.37705 -0.621816 0
M  V30 6126 N 580.893 1.08022 1.14757 0
M  V30 6127 C 582.309 0.807072 1.3769 0
M  V30 6128 C 582.509 -0.585504 1.92806 0
M  V30 6129 O 581.565 -1.34301 2.13821 0
M  V30 6130 C 582.878 1.88651 2.34161 0
M  V30 6131 C 584.426 1.91206 2.47809 0
M  V30 6132 C 584.901 2.98253 3.47576 0
M  V30 6133 N 586.392 2.974 3.55117 0
M  V30 6134 C 587.127 3.76872 4.32152 0
M  V30 6135 N 586.623 4.66212 5.12463 0
M  V30 6136 N 588.416 3.6519 4.27309 0
M  V30 6137 H 580.567 1.97824 0.77326 0
M  V30 6138 H 582.83 0.85826 0.402608 0
M  V30 6139 H 582.536 2.88749 2.00791 0
M  V30 6140 H 582.41 1.75244 3.3402 0
M  V30 6141 H 584.797 0.917564 2.80472 0
M  V30 6142 H 584.878 2.08691 1.47925 0
M  V30 6143 H 584.522 3.97907 3.15646 0
M  V30 6144 H 584.452 2.78014 4.47231 0
M  V30 6145 H 586.943 2.32643 2.97801 0
M  V30 6146 H 587.256 5.23468 5.68508 0
M  V30 6147 H 585.601 4.70257 5.11745 0
M  V30 6148 H 588.792 2.94765 3.63636 0
M  V30 6149 H 588.965 4.27366 4.87095 0
M  V30 6150 N 582.371 -1.3172 0.865308 0
M  V30 6151 C 583.619 -1.96487 0.472995 0
M  V30 6152 C 583.94 -1.68761 -0.976975 0
M  V30 6153 O 583.21 -1.00051 -1.68424 0
M  V30 6154 H 581.79 -0.726947 0.171922 0
M  V30 6155 H 584.452 -1.60612 1.10407 0
M  V30 6156 H 583.548 -3.0574 0.62687 0
M  V30 6157 N 583.85 -0.624285 -1.44708 0
M  V30 6158 C 584.798 0.0969952 -2.32398 0
M  V30 6159 C 585.792 0.842762 -1.46949 0
M  V30 6160 O 586.998 0.756436 -1.63334 0
M  V30 6161 H 583.373 0.0501306 -0.750327 0
M  V30 6162 H 585.344 -0.660767 -2.90992 0
M  V30 6163 C 584.093 1.06967 -3.30837 0
M  V30 6164 H 583.416 0.505242 -3.96595 0
M  V30 6165 H 584.856 1.54397 -3.94889 0
M  V30 6166 C 583.315 2.15153 -2.5925 0
M  V30 6167 O 583.845 3.23139 -2.3863 0
M  V30 6168 N 582.051 1.90898 -2.19103 0
M  V30 6169 H 581.598 1.03086 -2.36074 0
M  V30 6170 H 581.556 2.63485 -1.71531 0
M  V30 6171 N 585.328 1.53329 -0.364422 0
M  V30 6172 C 586.556 2.05657 0.226424 0
M  V30 6173 C 586.971 1.23801 1.42544 0
M  V30 6174 O 586.328 0.27839 1.80364 0
M  V30 6175 C 586.379 3.56125 0.621056 0
M  V30 6176 O 586.1 4.34879 -0.530304 0
M  V30 6177 C 587.601 4.24706 1.27041 0
M  V30 6178 H 584.821 0.669806 0.0400056 0
M  V30 6179 H 587.365 1.97714 -0.522456 0
M  V30 6180 H 585.52 3.64223 1.31985 0
M  V30 6181 H 585.934 5.24073 -0.211546 0
M  V30 6182 H 587.408 5.3131 1.49711 0
M  V30 6183 H 587.885 3.78354 2.23036 0
M  V30 6184 H 588.491 4.20858 0.613079 0
M  V30 6185 N 586.806 0.0935595 1.57322 0
M  V30 6186 C 588.055 -0.570191 1.93473 0
M  V30 6187 C 588.368 -1.69434 0.977318 0
M  V30 6188 O 589.574 -2.41914 1.23248 0
M  V30 6189 C 588.03 -1.06564 3.43762 0
M  V30 6190 C 587.638 0.0286723 4.47991 0
M  V30 6191 C 589.382 -1.70221 3.88877 0
M  V30 6192 C 587.289 -0.482046 5.89432 0
M  V30 6193 H 586.219 -0.216764 0.72217 0
M  V30 6194 H 588.87 0.169313 1.82717 0
M  V30 6195 H 587.252 -1.85878 3.49664 0
M  V30 6196 H 588.426 0.804106 4.5373 0
M  V30 6197 H 586.741 0.570336 4.12476 0
M  V30 6198 H 589.338 -2.09502 4.91948 0
M  V30 6199 H 589.681 -2.57078 3.27439 0
M  V30 6200 H 590.214 -0.974919 3.85668 0
M  V30 6201 H 586.953 0.349871 6.54566 0
M  V30 6202 H 586.473 -1.22452 5.87167 0
M  V30 6203 H 588.152 -0.951508 6.39965 0
M  V30 6204 N 588.284 -1.56567 -0.180126 0
M  V30 6205 C 589.509 -1.85975 -0.918041 0
M  V30 6206 C 589.934 -0.678888 -1.75422 0
M  V30 6207 O 589.292 0.372168 -1.77439 0
M  V30 6208 C 589.34 -3.13731 -1.77779 0
M  V30 6209 O 588.444 -2.95335 -2.87838 0
M  V30 6210 H 587.785 -0.61196 -0.257683 0
M  V30 6211 H 590.315 -2.03798 -0.180923 0
M  V30 6212 H 590.325 -3.4491 -2.17948 0
M  V30 6213 H 589 -3.99293 -1.16352 0
M  V30 6214 H 587.577 -2.7549 -2.51316 0
M  V30 6215 N 589.762 0.448376 -1.51087 0
M  V30 6216 C 591.173 1.0286 -1.5581 0
M  V30 6217 C 591.524 1.92583 -0.374989 0
M  V30 6218 O 590.649 2.10316 0.509533 0
M  V30 6219 C 591.244 1.87223 -2.8237 0
M  V30 6220 C 589.803 2.40314 -2.897 0
M  V30 6221 C 588.95 1.19238 -2.50355 0
M  V30 6222 H 591.901 0.230075 -1.57023 0
M  V30 6223 H 591.922 2.72553 -2.6551 0
M  V30 6224 H 591.434 1.21894 -3.68461 0
M  V30 6225 H 589.535 3.09129 -2.08014 0
M  V30 6226 H 589.648 2.73866 -3.93108 0
M  V30 6227 H 588.012 1.53428 -2.03303 0
M  V30 6228 H 588.795 0.555367 -3.38778 0
M  V30 6229 N 591.24 1.41047 0.703093 0
M  V30 6230 C 592.489 1.39301 1.4587 0
M  V30 6231 C 592.802 0.00267077 1.956 0
M  V30 6232 O 594.008 -0.137414 2.71152 0
M  V30 6233 C 592.464 2.44891 2.63735 0
M  V30 6234 C 592.072 3.89796 2.20824 0
M  V30 6235 C 593.816 2.5227 3.41409 0
M  V30 6236 C 591.723 4.86955 3.35602 0
M  V30 6237 H 590.653 0.518005 0.547893 0
M  V30 6238 H 593.304 1.66839 0.764009 0
M  V30 6239 H 591.686 2.10472 3.35436 0
M  V30 6240 H 592.86 4.33424 1.56461 0
M  V30 6241 H 591.175 3.86008 1.56163 0
M  V30 6242 H 593.772 3.22044 4.26839 0
M  V30 6243 H 594.115 1.55714 3.86081 0
M  V30 6244 H 594.648 2.85742 2.7676 0
M  V30 6245 H 591.387 5.84888 2.9595 0
M  V30 6246 H 590.907 4.47982 3.98839 0
M  V30 6247 H 592.586 5.07361 4.01489 0
M  V30 6248 N 592.718 -0.936591 1.26751 0
M  V30 6249 C 593.967 -1.67778 1.11953 0
M  V30 6250 C 594.28 -1.92694 -0.33589 0
M  V30 6251 O 595.486 -2.64682 -0.604618 0
M  V30 6252 C 593.942 -3.02138 1.95551 0
M  V30 6253 C 593.55 -2.84953 3.45696 0
M  V30 6254 C 595.294 -3.79917 1.89377 0
M  V30 6255 C 593.201 -4.14814 4.21525 0
M  V30 6256 H 592.131 -0.629275 0.415366 0
M  V30 6257 H 594.782 -1.04122 1.51099 0
M  V30 6258 H 593.164 -3.668 1.49243 0
M  V30 6259 H 594.338 -2.29112 3.99805 0
M  V30 6260 H 592.653 -2.20612 3.53156 0
M  V30 6261 H 595.25 -4.76134 2.43312 0
M  V30 6262 H 595.593 -4.07204 0.865464 0
M  V30 6263 H 596.126 -3.22037 2.33532 0
M  V30 6264 H 592.865 -3.92709 5.24843 0
M  V30 6265 H 592.385 -4.70352 3.72195 0
M  V30 6266 H 594.064 -4.83239 4.3022 0
M  V30 6267 N 594.196 -1.08629 -1.14182 0
M  V30 6268 C 595.143 -0.718299 -2.19338 0
M  V30 6269 C 596.113 0.296587 -1.63431 0
M  V30 6270 O 597.298 0.180079 -1.89948 0
M  V30 6271 C 594.438 -0.136203 -3.44831 0
M  V30 6272 C 593.551 -1.20414 -4.14879 0
M  V30 6273 C 592.686 -0.585666 -5.27962 0
M  V30 6274 C 591.725 -1.63548 -5.89846 0
M  V30 6275 N 590.862 -1.03864 -6.94375 0
M  V30 6276 H 595.702 -1.61932 -2.50164 0
M  V30 6277 H 593.239 -0.80919 -1.22844 0
M  V30 6278 H 595.197 0.219021 -4.16625 0
M  V30 6279 H 593.827 0.728121 -3.14481 0
M  V30 6280 H 592.879 -1.67676 -3.41451 0
M  V30 6281 H 594.191 -1.99959 -4.56966 0
M  V30 6282 H 593.345 -0.178818 -6.06436 0
M  V30 6283 H 592.084 0.24142 -4.87102 0
M  V30 6284 H 591.089 -2.05197 -5.10073 0
M  V30 6285 H 592.314 -2.46509 -6.3278 0
M  V30 6286 H 590.26 -0.232687 -6.55587 0
M  V30 6287 H 590.177 -1.77116 -7.3496 0
M  V30 6288 H 591.445 -0.657724 -7.7672 0
M  V30 6289 N 595.674 1.31259 -0.872281 0
M  V30 6290 C 596.604 2.30929 -0.345554 0
M  V30 6291 C 597.585 1.60449 0.5648 0
M  V30 6292 O 598.77 1.8814 0.481335 0
M  V30 6293 C 595.9 3.44348 0.451823 0
M  V30 6294 C 594.854 4.26435 -0.365641 0
M  V30 6295 C 594.18 5.31785 0.557562 0
M  V30 6296 C 595.48 4.97159 -1.60095 0
M  V30 6297 H 597.174 2.75234 -1.17841 0
M  V30 6298 H 594.72 1.3232 -0.568094 0
M  V30 6299 H 596.673 4.13128 0.830854 0
M  V30 6300 H 595.397 2.98816 1.31821 0
M  V30 6301 H 594.056 3.59326 -0.726649 0
M  V30 6302 H 593.704 4.82502 1.4213 0
M  V30 6303 H 593.404 5.87598 0.0144878 0
M  V30 6304 H 594.928 6.03424 0.933387 0
M  V30 6305 H 596.342 5.58523 -1.29323 0
M  V30 6306 H 594.739 5.62779 -2.08327 0
M  V30 6307 H 595.809 4.24012 -2.35249 0
M  V30 6308 N 597.152 0.631951 1.44375 0
M  V30 6309 C 598.082 -0.0593243 2.33425 0
M  V30 6310 C 599.063 -0.833964 1.48253 0
M  V30 6311 O 600.248 -0.799682 1.76971 0
M  V30 6312 C 597.378 -1.04096 3.31333 0
M  V30 6313 C 596.332 -0.377899 4.26328 0
M  V30 6314 C 595.658 -1.4695 5.14111 0
M  V30 6315 C 596.958 0.716371 5.17364 0
M  V30 6316 H 598.652 0.684287 2.91475 0
M  V30 6317 H 596.198 0.330518 1.40156 0
M  V30 6318 H 598.151 -1.53331 3.92514 0
M  V30 6319 H 596.875 -1.81547 2.71493 0
M  V30 6320 H 595.534 0.0938054 3.6648 0
M  V30 6321 H 595.182 -2.2349 4.50623 0
M  V30 6322 H 594.882 -1.03121 5.78481 0
M  V30 6323 H 596.406 -1.96363 5.78164 0
M  V30 6324 H 597.82 0.307089 5.72477 0
M  V30 6325 H 596.217 1.07784 5.90341 0
M  V30 6326 H 597.287 1.58316 4.58327 0
M  V30 6327 N 598.631 -1.53133 0.372548 0
M  V30 6328 C 599.578 -2.25951 -0.470631 0
M  V30 6329 C 600.548 -1.26895 -1.07176 0
M  V30 6330 O 601.733 -1.55691 -1.10294 0
M  V30 6331 C 598.873 -3.05726 -1.6008 0
M  V30 6332 C 597.986 -4.19684 -1.02416 0
M  V30 6333 C 597.121 -4.86888 -2.124 0
M  V30 6334 C 596.16 -5.92866 -1.52238 0
M  V30 6335 N 595.297 -6.53732 -2.56084 0
M  V30 6336 H 600.137 -2.97587 0.156816 0
M  V30 6337 H 597.674 -1.4683 0.0891571 0
M  V30 6338 H 599.632 -3.50258 -2.26661 0
M  V30 6339 H 598.262 -2.36331 -2.1988 0
M  V30 6340 H 597.314 -3.79588 -0.248426 0
M  V30 6341 H 598.626 -4.95821 -0.544366 0
M  V30 6342 H 597.78 -5.34638 -2.86787 0
M  V30 6343 H 596.519 -4.10239 -2.63734 0
M  V30 6344 H 595.524 -5.4447 -0.763685 0
M  V30 6345 H 596.749 -6.71439 -1.0172 0
M  V30 6346 H 594.695 -5.79932 -3.06618 0
M  V30 6347 H 594.612 -7.25429 -2.12811 0
M  V30 6348 H 595.88 -7.0613 -3.30152 0
M  V30 6349 N 600.109 -0.101901 -1.5727 0
M  V30 6350 C 601.019 0.868647 -2.17926 0
M  V30 6351 C 602.035 1.30527 -1.1506 0
M  V30 6352 O 603.211 1.37178 -1.47459 0
M  V30 6353 C 600.276 2.10727 -2.75309 0
M  V30 6354 C 599.337 1.7242 -3.93154 0
M  V30 6355 C 598.57 2.90377 -4.47791 0
M  V30 6356 O 598.793 4.05305 -4.01353 0
M  V30 6357 O 597.727 2.6845 -5.38719 0
M  V30 6358 H 601.553 0.382544 -3.01281 0
M  V30 6359 H 599.138 0.122812 -1.48894 0
M  V30 6360 H 601.02 2.83303 -3.11958 0
M  V30 6361 H 599.695 2.58376 -1.94996 0
M  V30 6362 H 598.602 0.970039 -3.61305 0
M  V30 6363 H 599.935 1.29528 -4.74851 0
M  V30 6364 N 601.587 1.56661 0.17182 0
M  V30 6365 C 602.812 1.86459 0.908165 0
M  V30 6366 C 603.237 0.688181 1.75059 0
M  V30 6367 O 602.595 -0.362753 1.77634 0
M  V30 6368 C 602.643 3.14669 1.76112 0
M  V30 6369 O 601.747 2.96858 2.86268 0
M  V30 6370 H 601.088 0.613318 0.254434 0
M  V30 6371 H 603.618 2.03892 0.170113 0
M  V30 6372 H 603.628 3.46061 2.16115 0
M  V30 6373 H 602.303 3.99905 1.14233 0
M  V30 6374 H 600.88 2.76819 2.49852 0
M  V30 6375 N 603.065 -0.440357 1.51323 0
M  V30 6376 C 604.313 -1.18769 1.63518 0
M  V30 6377 C 604.634 -1.91793 0.352201 0
M  V30 6378 O 603.904 -1.85432 -0.631811 0
M  V30 6379 H 602.484 -0.441408 0.602634 0
M  V30 6380 H 605.146 -0.505162 1.8824 0
M  V30 6381 H 604.242 -1.91892 2.46138 0
M  V30 6382 N 604.543 -1.41418 -0.695603 0
M  V30 6383 C 605.506 -1.42988 -1.79129 0
M  V30 6384 C 606.506 -0.320514 -1.57573 0
M  V30 6385 O 607.696 -0.58039 -1.64247 0
M  V30 6386 C 604.828 -1.24122 -3.175 0
M  V30 6387 H 606.021 -2.40526 -1.7913 0
M  V30 6388 H 603.574 -1.2756 -0.903225 0
M  V30 6389 H 604.309 -0.274253 -3.23138 0
M  V30 6390 H 604.094 -2.045 -3.34547 0
M  V30 6391 H 605.584 -1.28056 -3.97481 0
M  V30 6392 N 606.021 0.929856 -1.27246 0
M  V30 6393 C 606.968 2.03017 -1.09785 0
M  V30 6394 C 607.938 1.661 0.000456744 0
M  V30 6395 O 609.123 1.90116 -0.161462 0
M  V30 6396 C 606.263 3.36878 -0.748816 0
M  V30 6397 C 605.376 3.86763 -1.92453 0
M  V30 6398 C 604.511 5.09061 -1.51758 0
M  V30 6399 C 603.55 5.51237 -2.66091 0
M  V30 6400 N 602.687 6.64732 -2.25999 0
M  V30 6401 H 607.527 2.17285 -2.03939 0
M  V30 6402 H 605.064 1.06448 -1.01524 0
M  V30 6403 H 607.022 4.13855 -0.527283 0
M  V30 6404 H 605.652 3.22424 0.155771 0
M  V30 6405 H 604.704 3.06086 -2.25867 0
M  V30 6406 H 606.016 4.13994 -2.78227 0
M  V30 6407 H 605.17 5.93532 -1.25716 0
M  V30 6408 H 603.909 4.83602 -0.630896 0
M  V30 6409 H 602.914 4.65316 -2.92849 0
M  V30 6410 H 604.139 5.78692 -3.55377 0
M  V30 6411 H 602.085 6.40935 -1.3978 0
M  V30 6412 H 602.002 6.91607 -3.05313 0
M  V30 6413 H 603.27 7.52549 -2.03199 0
M  V30 6414 N 607.499 1.09233 1.13605 0
M  V30 6415 C 608.409 0.741939 2.22559 0
M  V30 6416 C 609.425 -0.255236 1.72118 0
M  V30 6417 O 610.601 -0.0970747 2.01166 0
M  V30 6418 C 607.666 0.165595 3.46304 0
M  V30 6419 C 606.727 1.21846 4.11645 0
M  V30 6420 C 605.96 0.669526 5.29484 0
M  V30 6421 O 606.183 -0.508228 5.68131 0
M  V30 6422 O 605.117 1.42361 5.84822 0
M  V30 6423 H 608.943 1.65107 2.54899 0
M  V30 6424 H 606.528 0.866584 1.21699 0
M  V30 6425 H 608.41 -0.152592 4.21124 0
M  V30 6426 H 607.085 -0.716573 3.15669 0
M  V30 6427 H 605.992 1.58931 3.38662 0
M  V30 6428 H 607.325 2.07321 4.46407 0
M  V30 6429 N 608.977 -1.30795 0.87923 0
M  V30 6430 C 610.223 -1.96653 0.495519 0
M  V30 6431 C 610.556 -1.69282 -0.951703 0
M  V30 6432 O 609.831 -0.994374 -1.6716 0
M  V30 6433 C 610.114 -3.51898 0.764174 0
M  V30 6434 C 609.967 -3.88808 2.2616 0
M  V30 6435 C 611.286 -4.39462 0.236825 0
M  V30 6436 H 608.405 -0.7143 0.181507 0
M  V30 6437 H 611.047 -1.54765 1.10217 0
M  V30 6438 H 609.197 -3.87709 0.247841 0
M  V30 6439 H 610.869 -3.63051 2.8459 0
M  V30 6440 H 609.112 -3.37082 2.73053 0
M  V30 6441 H 609.783 -4.97086 2.4002 0
M  V30 6442 H 612.259 -4.10528 0.678683 0
M  V30 6443 H 611.135 -5.47018 0.454176 0
M  V30 6444 H 611.396 -4.33621 -0.861683 0
M  V30 6445 N 610.455 -0.639598 -1.44038 0
M  V30 6446 C 611.405 0.0823038 -2.27851 0
M  V30 6447 C 612.389 0.807991 -1.39141 0
M  V30 6448 O 613.581 0.692702 -1.62882 0
M  V30 6449 C 610.71 1.05742 -3.26609 0
M  V30 6450 C 609.796 0.330911 -4.22807 0
M  V30 6451 N 610.187 -0.645126 -5.01669 0
M  V30 6452 C 608.485 0.574214 -4.42288 0
M  V30 6453 C 609.186 -1.07513 -5.71678 0
M  V30 6454 N 608.162 -0.412164 -5.42035 0
M  V30 6455 H 611.964 -0.666861 -2.86234 0
M  V30 6456 H 609.478 -0.465777 -1.55577 0
M  V30 6457 H 611.475 1.58927 -3.85419 0
M  V30 6458 H 610.135 1.80679 -2.69787 0
M  V30 6459 H 611.146 -1.02329 -5.0769 0
M  V30 6460 H 607.823 1.30581 -3.96554 0
M  V30 6461 H 609.213 -1.88196 -6.45005 0
M  V30 6462 N 611.933 1.52934 -0.380664 0
M  V30 6463 C 613.182 2.00651 0.205477 0
M  V30 6464 C 613.495 1.27164 1.48623 0
M  V30 6465 O 614.701 1.65547 2.15189 0
M  V30 6466 C 613.157 3.57479 0.416726 0
M  V30 6467 C 612.765 4.39857 -0.850268 0
M  V30 6468 C 614.509 4.13509 0.959702 0
M  V30 6469 C 612.416 5.88269 -0.607773 0
M  V30 6470 H 611.346 0.749684 0.0805614 0
M  V30 6471 H 613.997 1.76508 -0.501732 0
M  V30 6472 H 612.379 3.77836 1.18557 0
M  V30 6473 H 613.553 4.31269 -1.62307 0
M  V30 6474 H 611.868 3.95005 -1.31756 0
M  V30 6475 H 614.465 5.22039 1.15669 0
M  V30 6476 H 614.808 3.69054 1.92626 0
M  V30 6477 H 615.341 3.9701 0.250645 0
M  V30 6478 H 612.08 6.3703 -1.54509 0
M  V30 6479 H 611.6 5.99667 0.126247 0
M  V30 6480 H 613.279 6.46558 -0.239014 0
M  V30 6481 N 613.412 0.11024 1.57214 0
M  V30 6482 C 614.828 -0.24638 1.57687 0
M  V30 6483 C 615.028 -1.67344 1.12241 0
M  V30 6484 O 614.084 -2.39298 0.805783 0
M  V30 6485 C 615.397 -0.0210288 3.00693 0
M  V30 6486 C 616.945 -0.0876077 3.12877 0
M  V30 6487 C 617.42 0.10994 4.57868 0
M  V30 6488 N 618.911 0.0556135 4.63167 0
M  V30 6489 C 619.646 0.183495 5.73106 0
M  V30 6490 N 619.142 0.367058 6.91827 0
M  V30 6491 N 620.935 0.123689 5.61964 0
M  V30 6492 H 613.086 1.04246 1.85058 0
M  V30 6493 H 615.349 0.40979 0.854854 0
M  V30 6494 H 615.055 0.965203 3.38196 0
M  V30 6495 H 614.929 -0.756748 3.69531 0
M  V30 6496 H 617.316 -1.06436 2.75237 0
M  V30 6497 H 617.397 0.67985 2.466 0
M  V30 6498 H 617.041 1.08362 4.96206 0
M  V30 6499 H 616.971 -0.677397 5.22225 0
M  V30 6500 H 619.462 -0.0831062 3.77809 0
M  V30 6501 H 619.775 0.455739 7.71455 0
M  V30 6502 H 618.12 0.40292 6.93831 0
M  V30 6503 H 621.311 -0.0186928 4.68096 0
M  V30 6504 H 621.484 0.226797 6.47603 0
M  V30 6505 N 614.89 -1.56749 -0.16351 0
M  V30 6506 C 616.136 -1.82704 -0.880168 0
M  V30 6507 C 616.469 -0.689311 -1.81555 0
M  V30 6508 O 615.744 0.308224 -1.92042 0
M  V30 6509 C 616.027 -3.19084 -1.66905 0
M  V30 6510 C 615.88 -4.43397 -0.756269 0
M  V30 6511 C 617.199 -3.52493 -2.63509 0
M  V30 6512 H 614.318 -0.664608 -0.318535 0
M  V30 6513 H 616.96 -1.89438 -0.146036 0
M  V30 6514 H 615.11 -3.13475 -2.2949 0
M  V30 6515 H 616.782 -4.61079 -0.14269 0
M  V30 6516 H 615.025 -4.33752 -0.0647944 0
M  V30 6517 H 615.696 -5.3539 -1.34393 0
M  V30 6518 H 618.172 -3.58606 -2.11047 0
M  V30 6519 H 617.048 -4.48979 -3.15767 0
M  V30 6520 H 617.309 -2.77597 -3.44082 0
M  V30 6521 N 616.368 0.432326 -1.51554 0
M  V30 6522 C 617.331 1.50765 -1.72634 0
M  V30 6523 C 618.331 1.49334 -0.596314 0
M  V30 6524 O 619.521 1.51268 -0.863925 0
M  V30 6525 C 616.653 2.90284 -1.7874 0
M  V30 6526 H 617.846 1.33377 -2.68609 0
M  V30 6527 H 615.399 0.661329 -1.4162 0
M  V30 6528 H 616.134 3.13071 -0.845977 0
M  V30 6529 H 615.919 2.92727 -2.6087 0
M  V30 6530 H 617.409 3.68282 -1.96871 0
M  V30 6531 N 617.846 1.41785 0.688094 0
M  V30 6532 C 619.071 1.45117 1.48175 0
M  V30 6533 C 619.496 0.060129 1.88004 0
M  V30 6534 O 618.854 -0.938385 1.55126 0
M  V30 6535 C 618.902 2.37224 2.71583 0
M  V30 6536 O 618.006 1.83443 3.69354 0
M  V30 6537 H 617.347 0.492208 0.445676 0
M  V30 6538 H 619.877 1.86329 0.845145 0
M  V30 6539 H 619.887 2.53353 3.19806 0
M  V30 6540 H 618.562 3.38293 2.41931 0
M  V30 6541 H 617.139 1.76802 3.28322 0
M  V30 6542 N 619.324 -0.923095 1.27737 0
M  V30 6543 C 620.735 -1.48626 1.12993 0
M  V30 6544 C 621.086 -1.94142 -0.283439 0
M  V30 6545 O 620.211 -1.81605 -1.17681 0
M  V30 6546 C 620.806 -2.70117 2.04505 0
M  V30 6547 C 619.365 -3.22642 1.93853 0
M  V30 6548 C 618.512 -1.95368 1.96791 0
M  V30 6549 H 621.463 -0.736737 1.40563 0
M  V30 6550 H 621.484 -3.4506 1.60356 0
M  V30 6551 H 620.996 -2.36959 3.07363 0
M  V30 6552 H 619.097 -3.60549 0.939968 0
M  V30 6553 H 619.21 -3.88525 2.80331 0
M  V30 6554 H 617.574 -2.12061 1.41076 0
M  V30 6555 H 618.357 -1.64517 3.01312 0
M  V30 6556 N 620.802 -1.09834 -1.13024 0
M  V30 6557 C 622.213 -0.855651 -1.65938 0
M  V30 6558 C 622.564 0.615159 -1.86307 0
M  V30 6559 O 621.689 1.47335 -1.58497 0
M  V30 6560 C 622.284 -1.5467 -3.01434 0
M  V30 6561 C 620.843 -1.35088 -3.51323 0
M  V30 6562 C 619.99 -1.6001 -2.26478 0
M  V30 6563 H 622.941 -1.25691 -0.968889 0
M  V30 6564 H 622.962 -0.982179 -3.67605 0
M  V30 6565 H 622.474 -2.61715 -2.86578 0
M  V30 6566 H 620.575 -0.30179 -3.71376 0
M  V30 6567 H 620.688 -2.0886 -4.31178 0
M  V30 6568 H 619.052 -1.02246 -2.33276 0
M  V30 6569 H 619.835 -2.68293 -2.14182 0
M  V30 6570 N 622.28 1.30327 -0.886154 0
M  V30 6571 C 623.529 1.95373 -0.501243 0
M  V30 6572 C 623.842 1.70722 0.954634 0
M  V30 6573 O 625.048 2.29761 1.44644 0
M  V30 6574 C 623.504 3.49828 -0.845493 0
M  V30 6575 C 623.112 3.83296 -2.31922 0
M  V30 6576 C 624.856 4.2118 -0.529838 0
M  V30 6577 C 622.763 5.30935 -2.60504 0
M  V30 6578 H 621.693 0.731274 -0.183722 0
M  V30 6579 H 624.344 1.48258 -1.08129 0
M  V30 6580 H 622.726 3.95522 -0.19452 0
M  V30 6581 H 623.9 3.48508 -3.01461 0
M  V30 6582 H 622.215 3.2505 -2.60253 0
M  V30 6583 H 624.812 5.29825 -0.720401 0
M  V30 6584 H 625.155 4.12902 0.530828 0
M  V30 6585 H 625.688 3.81173 -1.13806 0
M  V30 6586 H 622.427 5.44265 -3.65316 0
M  V30 6587 H 621.947 5.67019 -1.95575 0
M  V30 6588 H 623.626 5.98381 -2.46066 0
M  V30 6589 N 623.758 0.647228 1.43697 0
M  V30 6590 C 624.705 -0.0480092 2.3075 0
M  V30 6591 C 625.675 -0.820705 1.44408 0
M  V30 6592 O 626.86 -0.798515 1.73287 0
M  V30 6593 C 624 -1.01259 3.2991 0
M  V30 6594 C 623.113 -0.236629 4.31351 0
M  V30 6595 C 622.248 -1.19447 5.17596 0
M  V30 6596 C 621.287 -0.408595 6.10735 0
M  V30 6597 N 620.424 -1.31772 6.89623 0
M  V30 6598 H 625.264 0.700238 2.89656 0
M  V30 6599 H 622.801 0.357082 1.427 0
M  V30 6600 H 624.759 -1.58538 3.85903 0
M  V30 6601 H 623.389 -1.72778 2.72667 0
M  V30 6602 H 622.441 0.452353 3.77701 0
M  V30 6603 H 623.753 0.374731 4.9739 0
M  V30 6604 H 622.907 -1.83809 5.78186 0
M  V30 6605 H 621.646 -1.83975 4.51669 0
M  V30 6606 H 620.651 0.24841 5.49239 0
M  V30 6607 H 621.876 0.232188 6.78703 0
M  V30 6608 H 619.822 -1.94991 6.2635 0
M  V30 6609 H 619.739 -0.760779 7.52162 0
M  V30 6610 H 621.007 -1.94967 7.54724 0
M  V30 6611 N 625.236 -1.5273 0.388769 0
M  V30 6612 C 626.466 -2.05693 -0.193397 0
M  V30 6613 C 626.874 -1.26038 -1.41107 0
M  V30 6614 O 626.217 -0.30001 -1.81234 0
M  V30 6615 C 626.279 -3.53962 -0.628561 0
M  V30 6616 C 625.943 -4.54519 0.475576 0
M  V30 6617 C 626.94 -5.02526 1.33281 0
M  V30 6618 C 624.625 -4.98174 0.642453 0
M  V30 6619 C 626.619 -5.92812 2.34205 0
M  V30 6620 C 624.306 -5.88262 1.65503 0
M  V30 6621 C 625.304 -6.35473 2.50325 0
M  V30 6622 O 624.992 -7.23781 3.49852 0
M  V30 6623 H 624.724 -0.675197 -0.0329395 0
M  V30 6624 H 627.278 -1.97835 0.552326 0
M  V30 6625 H 625.508 -3.59437 -1.42625 0
M  V30 6626 H 627.197 -3.89669 -1.13633 0
M  V30 6627 H 627.963 -4.6953 1.21519 0
M  V30 6628 H 623.842 -4.60999 -0.00805093 0
M  V30 6629 H 627.386 -6.29585 3.00447 0
M  V30 6630 H 623.283 -6.20672 1.77304 0
M  V30 6631 H 624.051 -7.4184 3.45855 0
M  V30 6632 N 626.714 -0.118576 -1.57153 0
M  V30 6633 C 628.125 0.40687 -1.82213 0
M  V30 6634 C 628.476 1.66636 -1.03571 0
M  V30 6635 O 627.601 2.14682 -0.272171 0
M  V30 6636 C 628.196 0.744949 -3.30509 0
M  V30 6637 C 626.755 1.21503 -3.5625 0
M  V30 6638 C 625.902 0.223511 -2.76398 0
M  V30 6639 H 628.853 -0.343712 -1.54933 0
M  V30 6640 H 628.874 1.6024 -3.45114 0
M  V30 6641 H 628.386 -0.171911 -3.87719 0
M  V30 6642 H 626.487 2.1488 -3.04396 0
M  V30 6643 H 626.6 1.16065 -4.64829 0
M  V30 6644 H 624.964 0.71046 -2.44591 0
M  V30 6645 H 625.747 -0.686439 -3.36367 0
M  V30 6646 N 628.193 1.56834 0.155195 0
M  V30 6647 C 629.433 1.84701 0.875488 0
M  V30 6648 C 629.797 0.701747 1.78716 0
M  V30 6649 O 630.998 0.861263 2.54629 0
M  V30 6650 C 629.269 3.1773 1.63654 0
M  V30 6651 S 630.828 3.67128 2.40338 0
M  V30 6652 H 627.646 0.647856 0.292923 0
M  V30 6653 H 630.248 1.95026 0.136024 0
M  V30 6654 H 628.952 3.99059 0.958117 0
M  V30 6655 H 628.483 3.10388 2.41708 0
M  V30 6656 H 630.498 3.35739 3.65368 0
M  V30 6657 N 629.671 -0.424282 1.51781 0
M  V30 6658 C 630.918 -1.1726 1.65095 0
M  V30 6659 C 631.246 -1.90881 0.373477 0
M  V30 6660 O 630.501 -1.84835 -0.642997 0
M  V30 6661 C 630.8 -2.20418 2.81337 0
M  V30 6662 C 630.466 -1.63715 4.20129 0
M  V30 6663 C 629.128 -1.47975 4.57883 0
M  V30 6664 C 631.48 -1.22157 5.06682 0
M  V30 6665 C 628.808 -0.891703 5.79884 0
M  V30 6666 C 631.16 -0.647767 6.29275 0
M  V30 6667 C 629.824 -0.477371 6.65791 0
M  V30 6668 H 629.094 -0.429085 0.604125 0
M  V30 6669 H 631.741 -0.461852 1.85847 0
M  V30 6670 H 630.046 -2.97581 2.54859 0
M  V30 6671 H 631.743 -2.78163 2.88836 0
M  V30 6672 H 628.333 -1.76946 3.90369 0
M  V30 6673 H 632.517 -1.33133 4.7811 0
M  V30 6674 H 627.773 -0.747563 6.06813 0
M  V30 6675 H 631.947 -0.317291 6.95677 0
M  V30 6676 H 629.574 -0.0195936 7.60197 0
M  V30 6677 N 631.149 -1.42148 -0.680565 0
M  V30 6678 C 632.082 -1.39602 -1.80517 0
M  V30 6679 C 633.06 -0.261098 -1.6049 0
M  V30 6680 O 634.244 -0.450404 -1.8304 0
M  V30 6681 C 631.371 -1.18134 -3.1743 0
M  V30 6682 C 630.417 -2.34543 -3.56219 0
M  V30 6683 S 631.25 -3.97063 -3.59306 0
M  V30 6684 C 632.406 -3.77926 -4.98921 0
M  V30 6685 H 632.639 -2.3477 -1.82402 0
M  V30 6686 H 630.172 -1.28851 -0.850691 0
M  V30 6687 H 632.13 -1.06434 -3.96462 0
M  V30 6688 H 630.791 -0.245611 -3.13138 0
M  V30 6689 H 629.984 -2.15255 -4.55721 0
M  V30 6690 H 629.586 -2.42728 -2.84533 0
M  V30 6691 H 631.878 -3.3856 -5.86842 0
M  V30 6692 H 632.821 -4.77084 -5.23256 0
M  V30 6693 H 633.229 -3.10904 -4.71167 0
M  V30 6694 N 632.627 0.916307 -1.28225 0
M  V30 6695 C 633.875 1.6619 -1.15002 0
M  V30 6696 C 634.196 1.92642 0.302329 0
M  V30 6697 O 633.466 1.54076 1.20985 0
M  V30 6698 H 632.046 0.615964 -0.422608 0
M  V30 6699 H 634.708 1.09963 -1.60917 0
M  V30 6700 H 633.804 2.62533 -1.68769 0
M  V30 6701 N 634.105 1.10431 1.1244 0
M  V30 6702 C 635.354 0.841539 1.83306 0
M  V30 6703 C 635.667 -0.634961 1.85007 0
M  V30 6704 O 636.873 -1.01363 2.51869 0
M  V30 6705 C 635.329 1.45565 3.29149 0
M  V30 6706 C 634.937 2.96544 3.35806 0
M  V30 6707 C 636.681 1.27227 4.04986 0
M  V30 6708 C 634.588 3.5099 4.75983 0
M  V30 6709 H 633.518 0.311156 0.686803 0
M  V30 6710 H 636.169 1.32829 1.26604 0
M  V30 6711 H 634.551 0.896574 3.85717 0
M  V30 6712 H 635.725 3.58766 2.89177 0
M  V30 6713 H 634.04 3.14036 2.73442 0
M  V30 6714 H 636.637 1.65348 5.08492 0
M  V30 6715 H 636.98 0.213834 4.1575 0
M  V30 6716 H 637.513 1.79941 3.54776 0
M  V30 6717 H 634.252 4.56499 4.70413 0
M  V30 6718 H 633.772 2.93535 5.23065 0
M  V30 6719 H 635.451 3.48808 5.44924 0
M  V30 6720 N 635.583 -1.29855 0.893053 0
M  V30 6721 C 636.531 -2.29867 0.355512 0
M  V30 6722 C 637.525 -1.60502 -0.541801 0
M  V30 6723 O 638.731 -1.74902 -0.425339 0
M  V30 6724 H 635.106 -0.745805 0.0963247 0
M  V30 6725 H 637.077 -2.72655 1.21252 0
M  V30 6726 C 635.826 -3.453 -0.407801 0
M  V30 6727 H 635.149 -3.98864 0.273426 0
M  V30 6728 H 636.589 -4.17334 -0.748887 0
M  V30 6729 C 635.048 -2.96051 -1.60795 0
M  V30 6730 O 635.578 -2.96763 -2.7073 0
M  V30 6731 N 633.784 -2.51963 -1.44786 0
M  V30 6732 H 633.331 -2.51583 -0.553498 0
M  V30 6733 H 633.289 -2.1937 -2.2522 0
M  V30 6734 N 637.061 -0.65484 -1.43351 0
M  V30 6735 C 638.31 -0.166215 -2.01014 0
M  V30 6736 C 638.623 1.22764 -1.52278 0
M  V30 6737 O 639.829 1.81156 -2.02224 0
M  V30 6738 C 638.285 -0.246341 -3.59056 0
M  V30 6739 C 637.893 -1.64299 -4.16785 0
M  V30 6740 C 639.637 0.184597 -4.24098 0
M  V30 6741 C 637.544 -1.67695 -5.67126 0
M  V30 6742 H 636.474 -0.0583769 -0.751737 0
M  V30 6743 H 639.125 -0.817111 -1.64303 0
M  V30 6744 H 637.507 0.472092 -3.93176 0
M  V30 6745 H 638.681 -2.3869 -3.94162 0
M  V30 6746 H 636.996 -2.02004 -3.6412 0
M  V30 6747 H 639.593 0.179088 -5.344 0
M  V30 6748 H 639.936 1.21632 -3.98135 0
M  V30 6749 H 640.469 -0.482141 -3.94867 0
M  V30 6750 H 637.208 -2.68783 -5.9786 0
M  V30 6751 H 636.728 -0.976313 -5.91801 0
M  V30 6752 H 638.407 -1.42142 -6.31193 0
M  V30 6753 N 638.539 1.52521 -0.396863 0
M  V30 6754 C 639.95 1.86547 0.0754868 0
M  V30 6755 C 640.301 1.31621 1.45501 0
M  V30 6756 O 639.426 0.650563 2.0639 0
M  V30 6757 C 640.021 3.38495 0.143754 0
M  V30 6758 C 638.58 3.72205 0.560413 0
M  V30 6759 C 637.727 2.75954 -0.272856 0
M  V30 6760 H 640.678 1.46323 -0.614434 0
M  V30 6761 H 640.699 3.68153 0.961425 0
M  V30 6762 H 640.211 3.78442 -0.860415 0
M  V30 6763 H 638.312 3.3783 1.57167 0
M  V30 6764 H 638.425 4.78074 0.313314 0
M  V30 6765 H 636.789 2.53339 0.263 0
M  V30 6766 H 637.572 3.1874 -1.27515 0
M  V30 6767 N 640.017 0.126909 1.57088 0
M  V30 6768 C 641.245 -0.53667 1.99819 0
M  V30 6769 C 641.66 -1.5972 1.00673 0
M  V30 6770 O 641.017 -1.825 0.000747365 0
M  V30 6771 C 641.068 -1.15563 3.42531 0
M  V30 6772 O 640.789 -0.137483 4.37884 0
M  V30 6773 C 642.29 -1.90176 4.00435 0
M  V30 6774 H 639.51 -0.141443 0.655923 0
M  V30 6775 H 642.054 0.215578 2.03361 0
M  V30 6776 H 640.209 -1.85861 3.39904 0
M  V30 6777 H 640.623 -0.588229 5.21191 0
M  V30 6778 H 642.097 -2.28801 5.02349 0
M  V30 6779 H 642.574 -2.78002 3.40017 0
M  V30 6780 H 643.18 -1.24623 4.06632 0
M  V30 6781 N 641.495 -1.56914 -0.146875 0
M  V30 6782 C 642.442 -1.98275 -1.18134 0
M  V30 6783 C 643.412 -0.850367 -1.42681 0
M  V30 6784 O 644.597 -1.11244 -1.55014 0
M  V30 6785 C 641.737 -2.36861 -2.5098 0
M  V30 6786 C 640.85 -3.63391 -2.33605 0
M  V30 6787 C 639.985 -3.91079 -3.59486 0
M  V30 6788 C 639.024 -5.10879 -3.37149 0
M  V30 6789 N 638.161 -5.34577 -4.55161 0
M  V30 6790 H 643.001 -2.8645 -0.821622 0
M  V30 6791 H 640.538 -1.41718 -0.394248 0
M  V30 6792 H 642.496 -2.57262 -3.28439 0
M  V30 6793 H 641.126 -1.51766 -2.84898 0
M  V30 6794 H 640.178 -3.50766 -1.47199 0
M  V30 6795 H 641.49 -4.51007 -2.13059 0
M  V30 6796 H 640.644 -4.11979 -4.45374 0
M  V30 6797 H 639.383 -3.01885 -3.83036 0
M  V30 6798 H 638.388 -4.89853 -2.49649 0
M  V30 6799 H 639.613 -6.01626 -3.14997 0
M  V30 6800 H 637.559 -4.48337 -4.78884 0
M  V30 6801 H 637.476 -6.16463 -4.37618 0
M  V30 6802 H 638.744 -5.59975 -5.42263 0
M  V30 6803 N 642.974 0.416227 -1.52004 0
M  V30 6804 C 643.884 1.53147 -1.77717 0
M  V30 6805 C 644.9 1.609 -0.662368 0
M  V30 6806 O 646.076 1.77747 -0.946991 0
M  V30 6807 C 643.141 2.88948 -1.91598 0
M  V30 6808 C 642.202 2.9114 -3.15493 0
M  V30 6809 C 641.435 4.20464 -3.28703 0
M  V30 6810 O 641.658 5.13981 -2.47345 0
M  V30 6811 O 640.592 4.29368 -4.21813 0
M  V30 6812 H 644.418 1.34357 -2.72363 0
M  V30 6813 H 642.003 0.601373 -1.36762 0
M  V30 6814 H 643.885 3.69505 -2.02593 0
M  V30 6815 H 642.56 3.07821 -1.00141 0
M  V30 6816 H 641.467 2.09461 -3.09962 0
M  V30 6817 H 642.8 2.77216 -4.06709 0
M  V30 6818 N 644.452 1.42507 0.673017 0
M  V30 6819 C 645.362 1.4853 1.81593 0
M  V30 6820 C 646.378 0.373907 1.69935 0
M  V30 6821 O 647.554 0.625078 1.91454 0
M  V30 6822 C 644.619 1.387 3.17747 0
M  V30 6823 C 643.68 2.60346 3.41348 0
M  V30 6824 C 642.913 2.50975 4.71007 0
M  V30 6825 O 643.136 1.54659 5.49033 0
M  V30 6826 O 642.07 3.41138 4.95892 0
M  V30 6827 H 645.896 2.45001 1.79467 0
M  V30 6828 H 643.481 1.2429 0.82899 0
M  V30 6829 H 645.363 1.35586 3.98992 0
M  V30 6830 H 644.038 0.453555 3.20507 0
M  V30 6831 H 642.945 2.69034 2.59945 0
M  V30 6832 H 644.278 3.52595 3.43421 0
M  V30 6833 N 645.93 -0.909495 1.28709 0
M  V30 6834 C 646.86 -2.0291 1.15542 0
M  V30 6835 C 647.841 -1.7002 0.0521017 0
M  V30 6836 O 649.026 -1.92835 0.229849 0
M  V30 6837 C 646.156 -3.37458 0.820935 0
M  V30 6838 C 645.11 -3.84524 1.87949 0
M  V30 6839 C 644.436 -5.16086 1.39854 0
M  V30 6840 C 645.736 -4.05918 3.28676 0
M  V30 6841 H 647.43 -2.14183 2.09203 0
M  V30 6842 H 644.976 -1.02913 1.00722 0
M  V30 6843 H 646.929 -4.1528 0.715571 0
M  V30 6844 H 645.653 -3.26249 -0.151374 0
M  V30 6845 H 644.312 -3.08911 1.97408 0
M  V30 6846 H 643.96 -5.01284 0.41518 0
M  V30 6847 H 643.66 -5.48547 2.1064 0
M  V30 6848 H 645.184 -5.96459 1.30649 0
M  V30 6849 H 646.598 -4.74252 3.22115 0
M  V30 6850 H 644.995 -4.49717 3.97334 0
M  V30 6851 H 646.065 -3.10583 3.72379 0
M  V30 6852 N 647.408 -1.11026 -1.11852 0
M  V30 6853 C 648.657 -0.851249 -1.82857 0
M  V30 6854 C 648.97 0.62514 -1.85341 0
M  V30 6855 O 650.176 1.00026 -2.52403 0
M  V30 6856 C 648.632 -1.47309 -3.28372 0
M  V30 6857 C 648.24 -2.9832 -3.34229 0
M  V30 6858 C 649.984 -1.29373 -4.04306 0
M  V30 6859 C 647.891 -3.53509 -4.74115 0
M  V30 6860 H 646.821 -0.314794 -0.685143 0
M  V30 6861 H 649.472 -1.33499 -1.25898 0
M  V30 6862 H 647.854 -0.917017 -3.85236 0
M  V30 6863 H 649.028 -3.60295 -2.87271 0
M  V30 6864 H 647.343 -3.15482 -2.71772 0
M  V30 6865 H 649.94 -1.68042 -5.07608 0
M  V30 6866 H 650.283 -0.235879 -4.15631 0
M  V30 6867 H 650.816 -1.8182 -3.53817 0
M  V30 6868 H 647.555 -4.58987 -4.67986 0
M  V30 6869 H 647.075 -2.96305 -5.21501 0
M  V30 6870 H 648.754 -3.51693 -5.43066 0
M  V30 6871 N 648.886 1.2938 -0.899927 0
M  V30 6872 C 649.849 2.25983 -0.382677 0
M  V30 6873 C 650.849 1.53366 0.483259 0
M  V30 6874 O 652.039 1.71798 0.28828 0
M  V30 6875 C 649.171 3.37878 0.452915 0
M  V30 6876 H 650.364 2.73252 -1.23586 0
M  V30 6877 H 647.917 1.40825 -0.678088 0
M  V30 6878 H 648.652 2.95949 1.32608 0
M  V30 6879 H 648.437 3.91742 -0.167562 0
M  V30 6880 H 649.927 4.09746 0.806107 0
M  V30 6881 N 650.364 0.662433 1.43002 0
M  V30 6882 C 651.312 -0.035345 2.32573 0
M  V30 6883 C 652.306 -0.803505 1.49131 0
M  V30 6884 O 653.512 -0.712865 1.65282 0
M  V30 6885 H 649.887 -0.0302194 0.751393 0
M  V30 6886 H 651.858 0.737686 2.89138 0
M  V30 6887 C 650.607 -0.981575 3.33557 0
M  V30 6888 H 649.93 -0.399914 3.97795 0
M  V30 6889 H 651.37 -1.43873 3.98844 0
M  V30 6890 C 649.829 -2.08204 2.64863 0
M  V30 6891 O 650.359 -3.16698 2.47113 0
M  V30 6892 N 648.565 -1.85022 2.24088 0
M  V30 6893 H 648.112 -0.967909 2.38724 0
M  V30 6894 H 648.07 -2.58845 1.78457 0
M  V30 6895 N 651.842 -1.52309 0.404946 0
M  V30 6896 C 652.789 -2.26898 -0.422597 0
M  V30 6897 C 653.759 -1.2914 -1.04461 0
M  V30 6898 O 654.944 -1.57996 -1.06967 0
M  V30 6899 C 652.084 -3.09053 -1.53559 0
M  V30 6900 C 651.197 -4.21762 -0.934908 0
M  V30 6901 C 650.332 -4.91283 -2.02025 0
M  V30 6902 C 649.371 -5.95962 -1.39628 0
M  V30 6903 N 648.508 -6.59017 -2.42159 0
M  V30 6904 H 653.348 -2.97188 0.219903 0
M  V30 6905 H 650.885 -1.46607 0.120282 0
M  V30 6906 H 652.843 -3.54987 -2.19181 0
M  V30 6907 H 651.473 -2.40942 -2.14818 0
M  V30 6908 H 650.525 -3.80029 -0.167854 0
M  V30 6909 H 651.837 -4.96864 -0.439073 0
M  V30 6910 H 650.991 -5.40601 -2.75383 0
M  V30 6911 H 649.73 -4.15741 -2.54973 0
M  V30 6912 H 648.735 -5.45968 -0.648023 0
M  V30 6913 H 649.96 -6.73445 -0.874553 0
M  V30 6914 H 647.906 -5.86306 -2.94247 0
M  V30 6915 H 647.823 -7.2978 -1.97376 0
M  V30 6916 H 649.091 -7.12974 -3.15099 0
M  V30 6917 N 653.32 -0.135238 -1.57019 0
M  V30 6918 C 654.731 0.387521 -1.82634 0
M  V30 6919 C 655.082 1.65528 -1.05332 0
M  V30 6920 O 654.207 2.14381 -0.294926 0
M  V30 6921 C 654.802 0.709852 -3.3128 0
M  V30 6922 C 653.361 1.17718 -3.57518 0
M  V30 6923 C 652.508 0.194183 -2.76619 0
M  V30 6924 H 655.459 -0.360126 -1.5456 0
M  V30 6925 H 655.48 1.5657 -3.46794 0
M  V30 6926 H 654.992 -0.213024 -3.87515 0
M  V30 6927 H 653.093 2.1164 -3.06658 0
M  V30 6928 H 653.206 1.11128 -4.66034 0
M  V30 6929 H 651.57 0.684478 -2.4533 0
M  V30 6930 H 652.353 -0.722076 -3.3562 0
M  V30 6931 N 654.798 1.5699 0.138552 0
M  V30 6932 C 655.708 2.02174 1.19008 0
M  V30 6933 C 656.724 0.938622 1.46512 0
M  V30 6934 O 657.9 1.24872 1.58016 0
M  V30 6935 C 654.965 2.40045 2.50159 0
M  V30 6936 C 654.026 3.62346 2.30226 0
M  V30 6937 C 653.259 3.98401 3.55123 0
M  V30 6938 O 653.482 3.35019 4.61647 0
M  V30 6939 O 652.416 4.91606 3.47285 0
M  V30 6940 H 656.242 2.91954 0.836452 0
M  V30 6941 H 653.827 1.45293 0.347907 0
M  V30 6942 H 655.709 2.65225 3.27465 0
M  V30 6943 H 654.384 1.53417 2.85035 0
M  V30 6944 H 653.291 3.42341 1.50843 0
M  V30 6945 H 654.624 4.49617 2.00262 0
M  V30 6946 N 656.276 -0.40816 1.52223 0
M  V30 6947 C 657.523 -1.15502 1.66329 0
M  V30 6948 C 657.851 -1.90474 0.393701 0
M  V30 6949 O 657.106 -1.85507 -0.623356 0
M  V30 6950 C 657.405 -2.17422 2.83659 0
M  V30 6951 C 657.071 -1.5925 4.21841 0
M  V30 6952 C 655.733 -1.4311 4.59427 0
M  V30 6953 C 658.085 -1.16776 5.0795 0
M  V30 6954 C 655.413 -0.830148 5.80797 0
M  V30 6955 C 657.765 -0.580988 6.29926 0
M  V30 6956 C 656.429 -0.406729 6.6626 0
M  V30 6957 H 655.699 -0.422653 0.608642 0
M  V30 6958 H 658.346 -0.442114 1.86327 0
M  V30 6959 H 656.651 -2.94861 2.58001 0
M  V30 6960 H 658.348 -2.75084 2.9177 0
M  V30 6961 H 654.938 -1.72796 3.92224 0
M  V30 6962 H 659.122 -1.28055 4.79495 0
M  V30 6963 H 654.378 -0.68316 6.07571 0
M  V30 6964 H 658.552 -0.243488 6.95974 0
M  V30 6965 H 656.179 0.0610366 7.60175 0
M  V30 6966 N 657.755 -1.42862 -0.66545 0
M  V30 6967 C 659.032 -1.3431 -1.42197 0
M  V30 6968 C 659.412 0.0150265 -2.11095 0
M  V30 6969 O 658.76 1.03101 -2.03918 0
M  V30 6970 C 658.97 -2.51783 -2.41674 0
M  V30 6971 C 660.318 -2.94321 -3.0604 0
M  V30 6972 O 661.342 -2.51741 -2.52001 0
M  V30 6973 O 660.201 -3.68047 -4.03985 0
M  V30 6974 H 657.295 -0.530159 -0.634713 0
M  V30 6975 H 659.841 -1.54888 -0.693386 0
M  V30 6976 H 658.613 -3.42282 -1.89627 0
M  V30 6977 H 658.236 -2.33241 -3.22001 0
M  V30 6978 N 659.233 0.902656 -1.29189 0
M  V30 6979 C 660.183 1.99326 -1.10695 0
M  V30 6980 C 661.167 1.60877 -0.0272521 0
M  V30 6981 O 662.359 1.75245 -0.248635 0
M  V30 6982 C 659.488 3.34265 -0.78244 0
M  V30 6983 C 658.574 3.79081 -1.90153 0
M  V30 6984 N 658.965 3.96162 -3.14466 0
M  V30 6985 C 657.263 4.08333 -1.79389 0
M  V30 6986 C 657.964 4.3388 -3.87458 0
M  V30 6987 N 656.94 4.42759 -3.15381 0
M  V30 6988 H 660.742 2.10597 -2.05003 0
M  V30 6989 H 658.256 1.09127 -1.20271 0
M  V30 6990 H 660.253 4.12097 -0.630996 0
M  V30 6991 H 658.913 3.2434 0.152754 0
M  V30 6992 H 659.924 3.81775 -3.49954 0
M  V30 6993 H 656.601 4.06982 -0.931217 0
M  V30 6994 H 657.991 4.54965 -4.94425 0
M  V30 6995 N 660.711 1.11618 1.11262 0
M  V30 6996 C 661.641 0.79846 2.19424 0
M  V30 6997 C 662.622 -0.234003 1.68483 0
M  V30 6998 O 663.807 -0.0970704 1.93957 0
M  V30 6999 C 660.937 0.242892 3.4645 0
M  V30 7000 C 659.891 1.20744 4.10615 0
M  V30 7001 C 659.217 0.512494 5.32238 0
M  V30 7002 C 660.517 2.55884 4.55325 0
M  V30 7003 H 662.211 1.70286 2.46258 0
M  V30 7004 H 659.757 0.820195 1.18359 0
M  V30 7005 H 661.71 0.00840447 4.21399 0
M  V30 7006 H 660.434 -0.696811 3.1908 0
M  V30 7007 H 659.093 1.42759 3.37662 0
M  V30 7008 H 658.741 -0.432075 5.01141 0
M  V30 7009 H 658.441 1.15583 5.7612 0
M  V30 7010 H 659.965 0.286842 6.09926 0
M  V30 7011 H 661.379 2.37946 5.21588 0
M  V30 7012 H 659.776 3.16216 5.10027 0
M  V30 7013 H 660.846 3.14968 3.68678 0
M  V30 7014 N 662.189 -1.289 0.906776 0
M  V30 7015 C 663.152 -2.25777 0.394656 0
M  V30 7016 C 664.152 -1.53621 -0.475119 0
M  V30 7017 O 665.342 -1.71949 -0.279165 0
M  V30 7018 C 662.474 -3.38113 -0.43499 0
M  V30 7019 H 663.667 -2.72592 1.25033 0
M  V30 7020 H 661.22 -1.40463 0.685547 0
M  V30 7021 H 661.955 -2.96648 -1.31036 0
M  V30 7022 H 661.74 -3.91647 0.188334 0
M  V30 7023 H 663.23 -4.10168 -0.784365 0
M  V30 7024 N 663.667 -0.670007 -1.42649 0
M  V30 7025 C 664.577 0.0114788 -2.34597 0
M  V30 7026 C 665.593 0.794055 -1.54825 0
M  V30 7027 O 666.769 0.737472 -1.87412 0
M  V30 7028 C 663.834 0.954436 -3.33304 0
M  V30 7029 C 662.895 0.166925 -4.28975 0
M  V30 7030 C 662.128 1.06497 -5.22967 0
M  V30 7031 O 662.351 2.30446 -5.21777 0
M  V30 7032 O 661.285 0.528347 -5.99577 0
M  V30 7033 H 665.111 -0.745794 -2.944 0
M  V30 7034 H 662.696 -0.430228 -1.43071 0
M  V30 7035 H 664.578 1.49589 -3.93956 0
M  V30 7036 H 663.253 1.69164 -2.7598 0
M  V30 7037 H 662.16 -0.418515 -3.71752 0
M  V30 7038 H 663.493 -0.531067 -4.89327 0
M  V30 7039 N 665.145 1.52092 -0.413018 0
M  V30 7040 C 666.375 2.05974 0.160648 0
M  V30 7041 C 666.783 1.28267 1.39084 0
M  V30 7042 O 666.126 0.328805 1.80733 0
M  V30 7043 C 666.188 3.54918 0.572169 0
M  V30 7044 C 665.852 4.53705 -0.547826 0
M  V30 7045 C 666.849 5.00342 -1.41259 0
M  V30 7046 C 664.534 4.97089 -0.721627 0
M  V30 7047 C 666.528 5.89011 -2.43607 0
M  V30 7048 C 664.215 5.85554 -1.74841 0
M  V30 7049 C 665.213 6.3141 -2.60403 0
M  V30 7050 O 664.901 7.18123 -3.61323 0
M  V30 7051 H 664.633 0.675636 0.0221936 0
M  V30 7052 H 667.187 1.96931 -0.58373 0
M  V30 7053 H 665.417 3.61661 1.36889 0
M  V30 7054 H 667.106 3.91428 1.0742 0
M  V30 7055 H 667.872 4.67537 -1.28974 0
M  V30 7056 H 663.751 4.60954 -0.0652911 0
M  V30 7057 H 667.295 6.24725 -3.10425 0
M  V30 7058 H 663.192 6.17773 -1.87156 0
M  V30 7059 H 663.96 7.36244 -3.57613 0
M  V30 7060 N 666.623 0.143563 1.56945 0
M  V30 7061 C 667.553 -0.7936 2.196 0
M  V30 7062 C 668.534 -1.25955 1.14321 0
M  V30 7063 O 669.719 -1.31773 1.42651 0
M  V30 7064 C 666.849 -2.03424 2.81489 0
M  V30 7065 C 665.803 -1.70519 3.92565 0
M  V30 7066 C 665.129 -3.01817 4.41373 0
M  V30 7067 C 666.429 -0.95449 5.13504 0
M  V30 7068 H 668.123 -0.271423 2.98167 0
M  V30 7069 H 665.669 -0.12911 1.4342 0
M  V30 7070 H 667.622 -2.69463 3.23987 0
M  V30 7071 H 666.346 -2.58008 2.00248 0
M  V30 7072 H 665.005 -1.06859 3.5068 0
M  V30 7073 H 664.653 -3.54386 3.56959 0
M  V30 7074 H 664.353 -2.80565 5.16292 0
M  V30 7075 H 665.877 -3.68934 4.86539 0
M  V30 7076 H 667.291 -1.5169 5.52868 0
M  V30 7077 H 665.688 -0.842035 5.94163 0
M  V30 7078 H 666.758 0.0544033 4.84869 0
M  V30 7079 N 668.101 -1.57061 -0.130224 0
M  V30 7080 C 669.349 -1.83893 -0.838313 0
M  V30 7081 C 669.67 -0.727046 -1.80939 0
M  V30 7082 O 668.94 0.249927 -1.94299 0
M  V30 7083 H 667.52 -0.67846 -0.312573 0
M  V30 7084 H 670.182 -1.94529 -0.120224 0
M  V30 7085 H 669.278 -2.79419 -1.39038 0
M  V30 7086 N 669.579 0.400081 -1.52437 0
M  V30 7087 C 670.542 1.4707 -1.75793 0
M  V30 7088 C 671.542 1.48036 -0.627856 0
M  V30 7089 O 672.732 1.49401 -0.895817 0
M  V30 7090 C 669.864 2.86427 -1.84858 0
M  V30 7091 H 671.057 1.27649 -2.71377 0
M  V30 7092 H 668.61 0.631141 -1.42991 0
M  V30 7093 H 669.345 3.11207 -0.912194 0
M  V30 7094 H 669.13 2.87128 -2.6702 0
M  V30 7095 H 670.62 3.64023 -2.04638 0
M  V30 7096 N 671.057 1.43213 0.657864 0
M  V30 7097 C 672.005 1.48271 1.79216 0
M  V30 7098 C 672.999 0.35675 1.65601 0
M  V30 7099 O 674.205 0.530535 1.72004 0
M  V30 7100 H 670.58 0.464729 0.591211 0
M  V30 7101 H 672.551 2.43792 1.7207 0
M  V30 7102 C 671.3 1.41837 3.17455 0
M  V30 7103 H 670.623 2.27781 3.28567 0
M  V30 7104 H 672.063 1.49438 3.96793 0
M  V30 7105 C 670.522 0.135347 3.36628 0
M  V30 7106 O 671.052 -0.805199 3.93547 0
M  V30 7107 N 669.258 0.0470316 2.90562 0
M  V30 7108 H 668.805 0.813221 2.44427 0
M  V30 7109 H 668.763 -0.810737 3.03767 0
M  V30 7110 N 672.536 -0.895792 1.29666 0
M  V30 7111 C 673.761 -1.68528 1.20885 0
M  V30 7112 C 674.186 -1.8673 -0.226595 0
M  V30 7113 O 673.544 -1.39044 -1.16347 0
M  V30 7114 C 673.592 -3.04512 1.93144 0
M  V30 7115 O 672.696 -3.92963 1.25115 0
M  V30 7116 H 672.037 -0.515371 0.418675 0
M  V30 7117 H 674.567 -1.11878 1.71302 0
M  V30 7118 H 674.577 -3.54628 2.0175 0
M  V30 7119 H 673.252 -2.90582 2.97548 0
M  V30 7120 H 671.829 -3.51399 1.24794 0
M  V30 7121 N 674.014 -1.12206 -1.10668 0
M  V30 7122 C 675.26 -0.877172 -1.82848 0
M  V30 7123 C 675.593 0.595571 -1.84842 0
M  V30 7124 O 674.868 1.44013 -1.30731 0
M  V30 7125 C 675.151 -1.44957 -3.29635 0
M  V30 7126 C 675.004 -2.99051 -3.35989 0
M  V30 7127 C 676.323 -1.10714 -4.25946 0
M  V30 7128 H 673.442 -0.320103 -0.663854 0
M  V30 7129 H 676.084 -1.38827 -1.2972 0
M  V30 7130 H 674.234 -1.01488 -3.7501 0
M  V30 7131 H 675.906 -3.51182 -2.99113 0
M  V30 7132 H 674.149 -3.34705 -2.75962 0
M  V30 7133 H 674.82 -3.34194 -4.39339 0
M  V30 7134 H 677.296 -1.48254 -3.88793 0
M  V30 7135 H 676.172 -1.5343 -5.2702 0
M  V30 7136 H 676.433 -0.019 -4.42096 0
M  V30 7137 N 675.492 1.28418 -0.913599 0
M  V30 7138 C 676.738 1.9527 -0.547484 0
M  V30 7139 C 677.071 1.71745 0.906486 0
M  V30 7140 O 676.346 1.03834 1.64465 0
M  V30 7141 C 676.629 3.49748 -0.857205 0
M  V30 7142 C 676.482 3.82675 -2.3639 0
M  V30 7143 C 677.801 4.3868 -0.353258 0
M  V30 7144 H 674.92 0.709236 -0.200381 0
M  V30 7145 H 677.562 1.51789 -1.14281 0
M  V30 7146 H 675.712 3.86915 -0.350548 0
M  V30 7147 H 677.384 3.55378 -2.94116 0
M  V30 7148 H 675.627 3.29724 -2.81894 0
M  V30 7149 H 676.298 4.90547 -2.53115 0
M  V30 7150 H 678.774 4.08584 -0.787288 0
M  V30 7151 H 677.65 5.45621 -0.599049 0
M  V30 7152 H 677.911 4.35753 0.746413 0
M  V30 7153 N 676.97 0.677563 1.42291 0
M  V30 7154 C 678.2 0.209155 2.05539 0
M  V30 7155 C 678.608 -1.13987 1.51009 0
M  V30 7156 O 677.951 -1.71976 0.645764 0
M  V30 7157 C 678.013 0.0697758 3.59432 0
M  V30 7158 C 677.677 1.34795 4.36668 0
M  V30 7159 C 678.674 2.28201 4.67141 0
M  V30 7160 C 676.359 1.59632 4.76259 0
M  V30 7161 C 678.353 3.44718 5.36142 0
M  V30 7162 C 676.04 2.76437 5.45 0
M  V30 7163 C 677.038 3.68805 5.74867 0
M  V30 7164 O 676.726 4.83567 6.42198 0
M  V30 7165 H 676.458 0.0986202 0.668768 0
M  V30 7166 H 679.012 0.925483 1.83368 0
M  V30 7167 H 677.242 -0.702157 3.80272 0
M  V30 7168 H 678.931 -0.359115 4.04308 0
M  V30 7169 H 679.697 2.10264 4.37052 0
M  V30 7170 H 675.576 0.886073 4.52404 0
M  V30 7171 H 679.12 4.16833 5.59371 0
M  V30 7172 H 675.017 2.94299 5.74507 0
M  V30 7173 H 675.785 4.83147 6.6069 0
M  V30 7174 N 678.448 -1.51871 0.421078 0
M  V30 7175 C 679.378 -2.30231 -0.389363 0
M  V30 7176 C 680.359 -1.34946 -1.03555 0
M  V30 7177 O 681.544 -1.63859 -1.04229 0
M  V30 7178 C 678.674 -3.13247 -1.49979 0
M  V30 7179 C 677.628 -4.16677 -0.977966 0
M  V30 7180 C 676.954 -4.88112 -2.1829 0
M  V30 7181 C 678.254 -5.22295 -0.0236775 0
M  V30 7182 H 679.948 -2.98229 0.264524 0
M  V30 7183 H 677.494 -1.43424 0.12866 0
M  V30 7184 H 679.447 -3.66838 -2.07383 0
M  V30 7185 H 678.171 -2.4304 -2.18173 0
M  V30 7186 H 676.83 -3.64114 -0.426245 0
M  V30 7187 H 676.478 -4.14423 -2.85066 0
M  V30 7188 H 676.178 -5.58041 -1.84021 0
M  V30 7189 H 677.702 -5.44521 -2.76278 0
M  V30 7190 H 679.116 -5.71055 -0.506899 0
M  V30 7191 H 677.513 -5.99656 0.230782 0
M  V30 7192 H 678.583 -4.76131 0.917999 0
M  V30 7193 N 679.926 -0.151884 -1.56866 0
M  V30 7194 C 681.151 0.508044 -2.01081 0
M  V30 7195 C 681.576 1.57306 -1.03134 0
M  V30 7196 O 680.934 1.81298 -0.0078309 0
M  V30 7197 C 680.982 1.08106 -3.44014 0
M  V30 7198 O 680.086 2.19577 -3.49084 0
M  V30 7199 H 679.427 0.123757 -0.652365 0
M  V30 7200 H 681.957 -0.250055 -2.03066 0
M  V30 7201 H 681.967 1.40851 -3.82916 0
M  V30 7202 H 680.642 0.301168 -4.14808 0
M  V30 7203 H 679.219 1.88023 -3.22027 0
M  V30 7204 N 681.404 1.57128 0.121893 0
M  V30 7205 C 682.65 1.84974 0.831418 0
M  V30 7206 C 682.983 0.737204 1.79663 0
M  V30 7207 O 682.258 -0.257199 1.92792 0
M  V30 7208 C 682.541 3.23397 1.58386 0
M  V30 7209 C 682.394 4.45246 0.638445 0
M  V30 7210 C 683.713 3.59355 2.54071 0
M  V30 7211 H 680.832 0.67282 0.300803 0
M  V30 7212 H 683.474 1.89759 0.0957587 0
M  V30 7213 H 681.624 3.19449 2.21098 0
M  V30 7214 H 683.296 4.61295 0.0203925 0
M  V30 7215 H 681.539 4.33771 -0.05023 0
M  V30 7216 H 682.21 5.38765 1.20151 0
M  V30 7217 H 684.686 3.64075 2.01465 0
M  V30 7218 H 683.562 4.57193 3.03752 0
M  V30 7219 H 683.823 2.86622 3.36601 0
M  V30 7220 N 682.882 -0.391992 1.52647 0
M  V30 7221 C 683.792 -1.503 1.80131 0
M  V30 7222 C 684.808 -1.59825 0.687882 0
M  V30 7223 O 685.984 -1.76218 0.975149 0
M  V30 7224 C 683.049 -2.85863 1.96171 0
M  V30 7225 C 682.11 -2.86084 3.20085 0
M  V30 7226 C 681.343 -4.15181 3.35351 0
M  V30 7227 O 681.566 -5.09981 2.55491 0
M  V30 7228 O 680.5 -4.22603 4.28591 0
M  V30 7229 H 684.326 -1.30007 2.74466 0
M  V30 7230 H 681.911 -0.579539 1.37701 0
M  V30 7231 H 683.793 -3.66236 2.08445 0
M  V30 7232 H 682.468 -3.06189 1.05025 0
M  V30 7233 H 681.375 -2.04504 3.13256 0
M  V30 7234 H 682.708 -2.7071 4.11068 0
M  V30 7235 N 684.36 -1.4356 -0.65026 0
M  V30 7236 C 685.608 -1.45046 -1.40734 0
M  V30 7237 C 685.929 -0.0769822 -1.94848 0
M  V30 7238 O 685.199 0.888098 -1.74613 0
M  V30 7239 H 683.779 -0.534034 -0.522318 0
M  V30 7240 H 686.441 -1.79186 -0.766703 0
M  V30 7241 H 685.537 -2.16476 -2.24822 0
M  V30 7242 N 685.838 0.888903 -1.30139 0
M  V30 7243 C 686.768 2.01046 -1.18755 0
M  V30 7244 C 687.749 1.69916 -0.0791438 0
M  V30 7245 O 688.934 1.92445 -0.260498 0
M  V30 7246 C 686.064 3.36109 -0.874518 0
M  V30 7247 C 685.018 3.81486 -1.94043 0
M  V30 7248 C 684.344 5.13796 -1.48047 0
M  V30 7249 C 685.644 4.00637 -3.35093 0
M  V30 7250 H 687.338 2.10828 -2.12584 0
M  V30 7251 H 684.884 1.01298 -1.02346 0
M  V30 7252 H 686.837 4.14089 -0.781548 0
M  V30 7253 H 685.561 3.26449 0.0994519 0
M  V30 7254 H 684.22 3.05731 -2.02297 0
M  V30 7255 H 683.868 5.0056 -0.494878 0
M  V30 7256 H 683.568 5.45127 -2.19341 0
M  V30 7257 H 685.092 5.94305 -1.40121 0
M  V30 7258 H 686.506 4.69067 -3.2962 0
M  V30 7259 H 684.903 4.43339 -4.04438 0
M  V30 7260 H 685.973 3.0462 -3.77273 0
M  V30 7261 N 687.317 1.12792 1.10072 0
M  V30 7262 C 688.563 0.886857 1.82381 0
M  V30 7263 C 688.896 -0.58576 1.85155 0
M  V30 7264 O 688.171 -1.43317 1.31493 0
M  V30 7265 C 688.454 1.46703 3.28862 0
M  V30 7266 C 688.307 3.00829 3.34398 0
M  V30 7267 C 689.626 1.12971 4.25353 0
M  V30 7268 H 686.745 0.32362 0.662148 0
M  V30 7269 H 689.387 1.39513 1.28982 0
M  V30 7270 H 687.537 1.03476 3.74466 0
M  V30 7271 H 689.209 3.52764 2.97247 0
M  V30 7272 H 687.452 3.36164 2.74183 0
M  V30 7273 H 688.123 3.36519 4.3756 0
M  V30 7274 H 690.599 1.50313 3.88001 0
M  V30 7275 H 689.475 1.56223 5.26199 0
M  V30 7276 H 689.736 0.0424452 4.4208 0
M  V30 7277 N 688.795 -1.27931 0.920396 0
M  V30 7278 C 690.02 -1.99343 0.572478 0
M  V30 7279 C 690.445 -1.68267 -0.840696 0
M  V30 7280 O 689.803 -0.918805 -1.56294 0
M  V30 7281 C 689.851 -3.51698 0.796284 0
M  V30 7282 O 688.955 -4.12157 -0.141602 0
M  V30 7283 H 688.296 -0.626065 0.221221 0
M  V30 7284 H 690.826 -1.62921 1.23765 0
M  V30 7285 H 690.836 -4.01793 0.708984 0
M  V30 7286 H 689.511 -3.73649 1.82644 0
M  V30 7287 H 688.088 -3.729 -0.005007 0
M  V30 7288 N 690.273 -0.685099 -1.4193 0
M  V30 7289 C 691.498 -0.218842 -2.06242 0
M  V30 7290 C 691.923 1.11923 -1.51178 0
M  V30 7291 O 691.281 1.69837 -0.634446 0
M  V30 7292 C 691.329 -0.175592 -3.60172 0
M  V30 7293 O 690.433 0.852776 -4.03487 0
M  V30 7294 H 689.774 -0.109531 -0.654904 0
M  V30 7295 H 692.304 -0.937013 -1.81882 0
M  V30 7296 H 692.314 -0.00291151 -4.08 0
M  V30 7297 H 690.989 -1.15222 -3.99621 0
M  V30 7298 H 689.566 0.650301 -3.67186 0
M  V30 7299 N 691.751 1.51645 -0.429126 0
M  V30 7300 C 692.997 2.02314 0.140286 0
M  V30 7301 C 693.33 1.31314 1.43074 0
M  V30 7302 O 692.605 0.425531 1.89788 0
M  V30 7303 C 692.888 3.5822 0.36749 0
M  V30 7304 C 692.741 4.39846 -0.941039 0
M  V30 7305 C 694.06 4.25055 1.14089 0
M  V30 7306 H 691.179 0.735335 0.0495112 0
M  V30 7307 H 693.821 1.81358 -0.566514 0
M  V30 7308 H 691.971 3.76207 0.969556 0
M  V30 7309 H 693.643 4.33527 -1.57646 0
M  V30 7310 H 691.886 4.05259 -1.54751 0
M  V30 7311 H 692.557 5.47069 -0.73621 0
M  V30 7312 H 695.033 4.11288 0.630986 0
M  V30 7313 H 693.909 5.34038 1.26863 0
M  V30 7314 H 694.17 3.85358 2.16683 0
M  V30 7315 N 693.229 0.160201 1.56784 0
M  V30 7316 C 694.161 -0.80564 2.14574 0
M  V30 7317 C 695.174 -1.20154 1.09849 0
M  V30 7318 O 696.363 -1.14333 1.37078 0
M  V30 7319 C 693.463 -2.09434 2.6644 0
M  V30 7320 C 692.636 -1.86375 3.95706 0
M  V30 7321 C 691.695 -2.99358 4.32749 0
M  V30 7322 O 690.721 -2.70475 5.00831 0
M  V30 7323 N 691.923 -4.26867 3.93402 0
M  V30 7324 H 694.688 -0.311644 2.98075 0
M  V30 7325 H 692.249 -0.0229465 1.61884 0
M  V30 7326 H 694.241 -2.84091 2.88226 0
M  V30 7327 H 692.811 -2.50057 1.8759 0
M  V30 7328 H 692.031 -0.956821 3.82412 0
M  V30 7329 H 693.319 -1.68322 4.80151 0
M  V30 7330 H 692.717 -4.53197 3.38569 0
M  V30 7331 H 691.274 -4.98263 4.20211 0
M  V30 7332 N 694.707 -1.5719 -0.113559 0
M  V30 7333 C 695.617 -2.04041 -1.15777 0
M  V30 7334 C 696.633 -0.961812 -1.45001 0
M  V30 7335 O 697.809 -1.2737 -1.56009 0
M  V30 7336 C 694.874 -2.43994 -2.46308 0
M  V30 7337 C 693.935 -3.65962 -2.24433 0
M  V30 7338 C 693.168 -4.04 -3.4874 0
M  V30 7339 O 693.391 -3.42321 -4.56259 0
M  V30 7340 O 692.325 -4.97069 -3.3942 0
M  V30 7341 H 696.151 -2.93248 -0.789899 0
M  V30 7342 H 693.736 -1.45828 -0.324748 0
M  V30 7343 H 695.618 -2.70401 -3.23204 0
M  V30 7344 H 694.293 -1.57932 -2.82558 0
M  V30 7345 H 693.2 -3.44697 -1.45377 0
M  V30 7346 H 694.533 -4.52746 -1.93084 0
M  V30 7347 N 696.185 0.383891 -1.52853 0
M  V30 7348 C 697.433 1.12619 -1.67814 0
M  V30 7349 C 697.754 1.90354 -0.423141 0
M  V30 7350 O 697.024 1.87649 0.562554 0
M  V30 7351 H 695.604 0.418738 -0.618601 0
M  V30 7352 H 698.266 0.43495 -1.89985 0
M  V30 7353 H 697.362 1.82624 -2.5309 0
M  V30 7354 N 697.663 1.43903 0.642637 0
M  V30 7355 C 698.912 1.45362 1.39831 0
M  V30 7356 C 699.225 0.0856289 1.95412 0
M  V30 7357 O 700.431 -0.0222856 2.71491 0
M  V30 7358 C 698.887 2.55857 2.53111 0
M  V30 7359 C 698.495 3.98811 2.04092 0
M  V30 7360 C 700.239 2.66524 3.30402 0
M  V30 7361 C 698.146 5.00751 3.14647 0
M  V30 7362 H 697.076 0.540777 0.52543 0
M  V30 7363 H 699.727 1.69929 0.692559 0
M  V30 7364 H 698.109 2.2451 3.26207 0
M  V30 7365 H 699.283 4.3967 1.37938 0
M  V30 7366 H 697.598 3.92284 1.39651 0
M  V30 7367 H 700.195 3.39858 4.12796 0
M  V30 7368 H 700.538 1.71949 3.79129 0
M  V30 7369 H 701.071 2.97224 2.64392 0
M  V30 7370 H 697.81 5.96914 2.70876 0
M  V30 7371 H 697.33 4.64495 3.79479 0
M  V30 7372 H 699.009 5.23933 3.79609 0
M  V30 7373 N 699.141 -0.881989 1.30609 0
M  V30 7374 C 700.088 -1.98803 1.17244 0
M  V30 7375 C 701.058 -1.65987 0.0611905 0
M  V30 7376 O 702.243 -1.89385 0.231911 0
M  V30 7377 C 699.383 -3.33867 0.87333 0
M  V30 7378 C 698.496 -3.79354 2.06675 0
M  V30 7379 C 697.631 -5.03078 1.70547 0
M  V30 7380 C 696.67 -5.40981 2.86366 0
M  V30 7381 N 695.807 -6.55886 2.50514 0
M  V30 7382 H 700.647 -2.09566 2.11863 0
M  V30 7383 H 698.184 -1.02607 1.05405 0
M  V30 7384 H 700.142 -4.11612 0.680519 0
M  V30 7385 H 698.772 -3.2278 -0.0359983 0
M  V30 7386 H 697.824 -2.97492 2.37071 0
M  V30 7387 H 699.136 -4.03382 2.93401 0
M  V30 7388 H 698.29 -5.88457 1.47658 0
M  V30 7389 H 697.029 -4.80927 0.809947 0
M  V30 7390 H 696.034 -4.54127 3.09917 0
M  V30 7391 H 697.259 -5.65104 3.76609 0
M  V30 7392 H 695.205 -6.35306 1.63471 0
M  V30 7393 H 695.122 -6.79799 3.30771 0
M  V30 7394 H 696.39 -7.44489 2.30989 0
M  V30 7395 N 700.619 -1.13374 -1.09472 0
M  V30 7396 C 701.866 -0.89519 -1.81639 0
M  V30 7397 C 702.194 0.57868 -1.85692 0
M  V30 7398 O 701.449 1.44426 -1.32059 0
M  V30 7399 C 701.748 -1.42759 -3.2765 0
M  V30 7400 C 701.414 -2.91822 -3.43731 0
M  V30 7401 C 700.076 -3.32521 -3.47827 0
M  V30 7402 C 702.428 -3.87727 -3.48307 0
M  V30 7403 C 699.756 -4.6781 -3.54078 0
M  V30 7404 C 702.108 -5.22859 -3.56091 0
M  V30 7405 C 700.772 -5.63086 -3.58456 0
M  V30 7406 H 700.042 -0.327573 -0.664663 0
M  V30 7407 H 702.689 -1.4156 -1.28969 0
M  V30 7408 H 700.994 -0.827871 -3.82954 0
M  V30 7409 H 702.691 -1.2191 -3.8202 0
M  V30 7410 H 699.281 -2.5935 -3.41226 0
M  V30 7411 H 703.465 -3.57371 -3.44383 0
M  V30 7412 H 698.721 -4.98353 -3.54195 0
M  V30 7413 H 702.895 -5.96989 -3.58577 0
M  V30 7414 H 700.522 -6.67905 -3.63052 0
M  V30 7415 N 702.098 1.27442 -0.927168 0
M  V30 7416 C 703.045 2.26863 -0.424459 0
M  V30 7417 C 704.015 1.5813 0.508346 0
M  V30 7418 O 705.2 1.85946 0.42762 0
M  V30 7419 C 702.34 3.43639 0.31718 0
M  V30 7420 C 701.453 4.27087 -0.649675 0
M  V30 7421 C 700.588 5.31082 0.111753 0
M  V30 7422 C 699.627 6.062 -0.847843 0
M  V30 7423 N 698.764 7.01999 -0.119074 0
M  V30 7424 H 703.604 2.69239 -1.27728 0
M  V30 7425 H 701.141 1.32394 -0.641106 0
M  V30 7426 H 703.099 4.10155 0.763486 0
M  V30 7427 H 701.729 3.02217 1.13424 0
M  V30 7428 H 700.781 3.60491 -1.21451 0
M  V30 7429 H 702.093 4.79242 -1.38307 0
M  V30 7430 H 701.247 6.03544 0.618 0
M  V30 7431 H 699.986 4.7973 0.878114 0
M  V30 7432 H 698.991 5.32577 -1.36534 0
M  V30 7433 H 700.216 6.59642 -1.61398 0
M  V30 7434 H 698.162 6.52977 0.629051 0
M  V30 7435 H 698.079 7.5184 -0.792046 0
M  V30 7436 H 699.347 7.78638 0.366537 0
M  V30 7437 N 703.576 0.692616 1.41565 0
M  V30 7438 C 704.523 0.0254264 2.30786 0
M  V30 7439 C 705.493 -0.774347 1.46946 0
M  V30 7440 O 706.678 -0.742981 1.7574 0
M  V30 7441 C 703.818 -0.907123 3.32964 0
M  V30 7442 C 702.931 -0.0992784 4.31886 0
M  V30 7443 C 702.066 -1.0292 5.21134 0
M  V30 7444 C 701.105 -0.214088 6.11725 0
M  V30 7445 N 700.242 -1.09766 6.93467 0
M  V30 7446 H 705.082 0.792036 2.87282 0
M  V30 7447 H 702.619 0.4023 1.41492 0
M  V30 7448 H 704.577 -1.46181 3.90752 0
M  V30 7449 H 703.207 -1.64016 2.78026 0
M  V30 7450 H 702.259 0.572287 3.76071 0
M  V30 7451 H 703.571 0.532782 4.95946 0
M  V30 7452 H 702.725 -1.65321 5.83741 0
M  V30 7453 H 701.464 -1.69512 4.57293 0
M  V30 7454 H 700.469 0.42302 5.4817 0
M  V30 7455 H 701.694 0.447995 6.77621 0
M  V30 7456 H 699.64 -1.74965 6.32237 0
M  V30 7457 H 699.557 -0.521099 7.54202 0
M  V30 7458 H 700.825 -1.70858 7.60544 0
M  V30 7459 N 705.054 -1.51416 0.437162 0
M  V30 7460 C 705.986 -2.255 -0.410171 0
M  V30 7461 C 706.999 -1.29511 -0.986444 0
M  V30 7462 O 708.188 -1.55266 -0.880614 0
M  V30 7463 C 705.288 -2.99511 -1.58575 0
M  V30 7464 C 704.461 -4.22595 -1.12839 0
M  V30 7465 C 703.52 -4.79187 -2.17407 0
M  V30 7466 O 702.546 -5.4103 -1.76849 0
M  V30 7467 N 703.748 -4.63204 -3.49889 0
M  V30 7468 H 706.513 -2.98856 0.224783 0
M  V30 7469 H 704.074 -1.59699 0.266041 0
M  V30 7470 H 706.066 -3.34258 -2.28152 0
M  V30 7471 H 704.636 -2.29167 -2.12606 0
M  V30 7472 H 703.856 -3.93344 -0.259695 0
M  V30 7473 H 705.144 -5.02468 -0.800196 0
M  V30 7474 H 704.542 -4.13945 -3.85573 0
M  V30 7475 H 703.099 -5.02313 -4.15361 0
M  V30 7476 N 706.532 -0.168513 -1.56696 0
M  V30 7477 C 707.479 0.762875 -2.17828 0
M  V30 7478 C 708.449 1.22892 -1.11745 0
M  V30 7479 O 709.634 1.29759 -1.39883 0
M  V30 7480 C 706.774 1.9879 -2.82093 0
M  V30 7481 C 705.887 1.56568 -4.02629 0
M  V30 7482 C 705.022 2.74416 -4.54829 0
M  V30 7483 C 704.061 2.28671 -5.67782 0
M  V30 7484 N 703.198 3.39602 -6.14504 0
M  V30 7485 H 708.038 0.23479 -2.97074 0
M  V30 7486 H 705.575 0.104163 -1.46731 0
M  V30 7487 H 707.533 2.70636 -3.17509 0
M  V30 7488 H 706.163 2.48973 -2.05456 0
M  V30 7489 H 705.215 0.744067 -3.73052 0
M  V30 7490 H 706.527 1.18988 -4.844 0
M  V30 7491 H 705.681 3.54423 -4.92412 0
M  V30 7492 H 704.42 3.15254 -3.7211 0
M  V30 7493 H 703.425 1.4711 -5.29753 0
M  V30 7494 H 704.65 1.88894 -6.52301 0
M  V30 7495 H 702.596 3.80021 -5.34715 0
M  V30 7496 H 702.513 3.06105 -6.91257 0
M  V30 7497 H 703.781 4.19902 -6.56737 0
M  V30 7498 N 708.01 1.57248 0.105221 0
M  V30 7499 C 708.92 2.04653 1.14693 0
M  V30 7500 C 709.936 0.969488 1.44489 0
M  V30 7501 O 711.112 1.28196 1.55331 0
M  V30 7502 C 708.177 2.45297 2.45011 0
M  V30 7503 C 707.238 3.67148 2.22489 0
M  V30 7504 C 706.471 4.05844 3.46592 0
M  V30 7505 O 706.694 3.44736 4.54437 0
M  V30 7506 O 705.628 4.98862 3.36779 0
M  V30 7507 H 709.454 2.93663 0.774336 0
M  V30 7508 H 707.039 1.45998 0.31701 0
M  V30 7509 H 708.921 2.72112 3.21766 0
M  V30 7510 H 707.596 1.59429 2.81717 0
M  V30 7511 H 706.503 3.45463 1.43547 0
M  V30 7512 H 707.836 4.53764 1.9068 0
M  V30 7513 N 709.488 -0.375779 1.53054 0
M  V30 7514 C 710.435 -1.45978 1.78771 0
M  V30 7515 C 711.405 -1.53625 0.631552 0
M  V30 7516 O 712.59 -1.69674 0.872667 0
M  V30 7517 C 709.73 -2.8305 1.97425 0
M  V30 7518 C 708.843 -2.84451 3.25134 0
M  V30 7519 C 707.978 -4.13034 3.34031 0
M  V30 7520 C 707.017 -4.08536 4.55812 0
M  V30 7521 N 706.154 -5.2875 4.61918 0
M  V30 7522 H 710.994 -1.23349 2.71273 0
M  V30 7523 H 708.531 -0.598147 1.3439 0
M  V30 7524 H 710.489 -3.62666 2.06225 0
M  V30 7525 H 709.119 -3.04101 1.0827 0
M  V30 7526 H 708.171 -1.97127 3.25338 0
M  V30 7527 H 709.483 -2.76998 4.14818 0
M  V30 7528 H 708.637 -5.0106 3.42087 0
M  V30 7529 H 707.376 -4.23226 2.42345 0
M  V30 7530 H 706.381 -3.18897 4.47867 0
M  V30 7531 H 707.606 -3.99955 5.48828 0
M  V30 7532 H 705.552 -5.39547 3.73129 0
M  V30 7533 H 705.469 -5.23426 5.45492 0
M  V30 7534 H 706.737 -6.18637 4.74245 0
M  V30 7535 N 710.966 -1.44241 -0.634997 0
M  V30 7536 C 711.913 -1.5081 -1.74714 0
M  V30 7537 C 712.883 -0.356147 -1.62237 0
M  V30 7538 O 714.068 -0.565848 -1.82216 0
M  V30 7539 C 711.208 -1.45458 -3.12947 0
M  V30 7540 C 710.321 -2.70998 -3.36428 0
M  V30 7541 C 709.456 -2.57507 -4.64611 0
M  V30 7542 C 708.495 -3.78229 -4.81258 0
M  V30 7543 N 707.632 -3.63438 -6.00714 0
M  V30 7544 H 712.472 -2.45832 -1.68436 0
M  V30 7545 H 710.009 -1.2201 -0.821706 0
M  V30 7546 H 711.967 -1.40347 -3.92885 0
M  V30 7547 H 710.597 -0.540058 -3.1825 0
M  V30 7548 H 709.649 -2.86312 -2.50458 0
M  V30 7549 H 710.961 -3.60619 -3.44609 0
M  V30 7550 H 710.115 -2.50207 -5.52703 0
M  V30 7551 H 708.854 -1.65441 -4.58782 0
M  V30 7552 H 707.859 -3.85918 -3.91596 0
M  V30 7553 H 709.084 -4.71327 -4.88904 0
M  V30 7554 H 707.03 -2.7412 -5.95982 0
M  V30 7555 H 706.947 -4.46672 -6.09934 0
M  V30 7556 H 708.215 -3.60022 -6.91378 0
M  V30 7557 N 712.444 0.87505 -1.31075 0
M  V30 7558 C 713.394 1.96933 -1.14898 0
M  V30 7559 C 714.378 1.60783 -0.0613703 0
M  V30 7560 O 715.57 1.74678 -0.285751 0
M  V30 7561 C 712.699 3.3253 -0.853166 0
M  V30 7562 C 711.785 3.74963 -1.98151 0
M  V30 7563 N 712.176 3.89403 -3.22799 0
M  V30 7564 C 710.474 4.04436 -1.8801 0
M  V30 7565 C 711.175 4.25563 -3.96574 0
M  V30 7566 N 710.151 4.3597 -3.24701 0
M  V30 7567 H 713.953 2.06201 -2.09424 0
M  V30 7568 H 711.467 1.06551 -1.22558 0
M  V30 7569 H 713.464 4.10666 -0.718266 0
M  V30 7570 H 712.124 3.24592 0.0839218 0
M  V30 7571 H 713.135 3.74266 -3.57974 0
M  V30 7572 H 709.812 4.04915 -1.01733 0
M  V30 7573 H 711.202 4.44375 -5.03965 0
M  V30 7574 N 713.922 1.13953 1.08869 0
M  V30 7575 C 715.199 0.815768 1.77777 0
M  V30 7576 C 715.579 -0.691624 1.99449 0
M  V30 7577 O 714.927 -1.63085 1.60049 0
M  V30 7578 C 715.137 1.60916 3.09689 0
M  V30 7579 C 716.485 1.80549 3.84301 0
M  V30 7580 O 717.509 1.57562 3.19457 0
M  V30 7581 O 716.368 2.18946 5.00724 0
M  V30 7582 H 713.462 0.298445 0.771271 0
M  V30 7583 H 716.008 1.24446 1.15374 0
M  V30 7584 H 714.78 2.6333 2.89435 0
M  V30 7585 H 714.403 1.17578 3.79817 0
M  V30 7586 N 715.4 -1.26948 0.933913 0
M  V30 7587 C 716.649 -1.93378 0.573409 0
M  V30 7588 C 716.962 -1.74148 -0.890614 0
M  V30 7589 O 718.168 -2.34971 -1.36017 0
M  V30 7590 C 716.624 -3.46449 0.974747 0
M  V30 7591 C 716.232 -3.74425 2.45988 0
M  V30 7592 C 717.976 -4.18924 0.685791 0
M  V30 7593 C 715.883 -5.209 2.8003 0
M  V30 7594 H 714.813 -0.723952 0.210736 0
M  V30 7595 H 717.464 -1.44143 1.13557 0
M  V30 7596 H 715.846 -3.94528 0.341181 0
M  V30 7597 H 717.02 -3.37079 3.14188 0
M  V30 7598 H 715.335 -3.15167 2.72138 0
M  V30 7599 H 717.932 -5.26786 0.916546 0
M  V30 7600 H 718.275 -4.14587 -0.377217 0
M  V30 7601 H 718.808 -3.76687 1.27874 0
M  V30 7602 H 715.547 -5.30332 3.85264 0
M  V30 7603 H 715.067 -5.59369 2.16485 0
M  V30 7604 H 716.746 -5.88837 2.68105 0
M  V30 7605 N 716.879 -0.700114 -1.41195 0
M  V30 7606 C 717.812 0.0129614 -2.28196 0
M  V30 7607 C 718.79 0.783367 -1.42486 0
M  V30 7608 O 719.974 0.773238 -1.71911 0
M  V30 7609 C 717.101 1.02575 -3.22794 0
M  V30 7610 C 716.147 0.347977 -4.25078 0
M  V30 7611 S 716.98 -0.912938 -5.27661 0
M  V30 7612 C 718.136 0.0981362 -6.25823 0
M  V30 7613 H 718.369 -0.724927 -2.88326 0
M  V30 7614 H 715.902 -0.490554 -1.464 0
M  V30 7615 H 717.86 1.60491 -3.77826 0
M  V30 7616 H 716.521 1.73624 -2.61751 0
M  V30 7617 H 715.714 1.11305 -4.91556 0
M  V30 7618 H 715.316 -0.15823 -3.73665 0
M  V30 7619 H 717.608 0.949965 -6.70807 0
M  V30 7620 H 718.551 -0.532838 -7.06092 0
M  V30 7621 H 718.959 0.454944 -5.62664 0
M  V30 7622 N 718.357 1.51182 -0.445186 0
M  V30 7623 C 719.606 2.01342 0.120189 0
M  V30 7624 C 719.919 1.33353 1.43095 0
M  V30 7625 O 721.125 1.74525 2.07974 0
M  V30 7626 C 719.581 3.58925 0.264732 0
M  V30 7627 C 719.189 4.35855 -1.03606 0
M  V30 7628 C 720.933 4.17208 0.783455 0
M  V30 7629 C 718.84 5.85162 -0.856731 0
M  V30 7630 H 717.77 0.752426 0.0486922 0
M  V30 7631 H 720.421 1.74221 -0.576143 0
M  V30 7632 H 718.803 3.82525 1.02425 0
M  V30 7633 H 719.977 4.23997 -1.80452 0
M  V30 7634 H 718.292 3.89062 -1.48391 0
M  V30 7635 H 720.889 5.26475 0.934239 0
M  V30 7636 H 721.232 3.76892 1.768 0
M  V30 7637 H 721.765 3.97715 0.0820346 0
M  V30 7638 H 718.504 6.29904 -1.81388 0
M  V30 7639 H 718.024 5.99663 -0.128206 0
M  V30 7640 H 719.703 6.44963 -0.513027 0
M  V30 7641 N 719.835 0.176821 1.56605 0
M  V30 7642 C 720.767 -0.782836 2.15417 0
M  V30 7643 C 721.78 -1.18982 1.11117 0
M  V30 7644 O 722.969 -1.12872 1.38283 0
M  V30 7645 C 720.069 -2.06596 2.68647 0
M  V30 7646 C 719.242 -1.82167 3.9766 0
M  V30 7647 C 718.301 -2.94751 4.35899 0
M  V30 7648 O 717.327 -2.65148 5.03672 0
M  V30 7649 N 718.529 -4.2267 3.97907 0
M  V30 7650 H 721.294 -0.280012 2.98389 0
M  V30 7651 H 718.855 -0.00577529 1.61899 0
M  V30 7652 H 720.847 -2.81018 2.91223 0
M  V30 7653 H 719.417 -2.48054 1.90232 0
M  V30 7654 H 718.637 -0.916208 3.83405 0
M  V30 7655 H 719.925 -1.6322 4.81909 0
M  V30 7656 H 719.323 -4.4958 3.43357 0
M  V30 7657 H 717.88 -4.93778 4.25472 0
M  V30 7658 N 721.313 -1.57302 -0.09688 0
M  V30 7659 C 722.223 -2.05258 -1.13606 0
M  V30 7660 C 723.239 -0.977137 -1.43972 0
M  V30 7661 O 724.415 -1.29018 -1.54649 0
M  V30 7662 C 721.48 -2.46593 -2.43706 0
M  V30 7663 C 720.541 -3.68322 -2.20538 0
M  V30 7664 C 719.774 -4.07676 -3.44435 0
M  V30 7665 O 719.997 -3.47141 -4.52603 0
M  V30 7666 O 718.931 -5.00641 -3.34129 0
M  V30 7667 H 722.757 -2.94069 -0.758752 0
M  V30 7668 H 720.342 -1.46164 -0.309263 0
M  V30 7669 H 722.224 -2.73814 -3.20318 0
M  V30 7670 H 720.899 -1.6092 -2.80867 0
M  V30 7671 H 719.806 -3.4622 -1.41713 0
M  V30 7672 H 721.139 -4.54769 -1.88271 0
M  V30 7673 N 722.791 0.367657 -1.53252 0
M  V30 7674 C 723.739 1.47061 -1.8021 0
M  V30 7675 C 724.733 1.55539 -0.671112 0
M  V30 7676 O 725.939 1.58451 -0.854014 0
M  V30 7677 H 722.314 0.489868 -0.570555 0
M  V30 7678 H 724.285 1.21527 -2.72532 0
M  V30 7679 C 723.034 2.83924 -2.00706 0
M  V30 7680 H 722.357 2.78158 -2.87172 0
M  V30 7681 H 723.797 3.60281 -2.23547 0
M  V30 7682 C 722.256 3.27613 -0.785568 0
M  V30 7683 O 722.786 4.01691 0.0267459 0
M  V30 7684 N 720.992 2.84134 -0.609597 0
M  V30 7685 H 720.539 2.24017 -1.27178 0
M  V30 7686 H 720.497 3.13723 0.206281 0
M  V30 7687 N 724.269 1.44576 0.627338 0
M  V30 7688 C 725.517 1.47267 1.38408 0
M  V30 7689 C 725.838 0.107971 1.94701 0
M  V30 7690 O 725.108 -0.860206 1.76004 0
M  V30 7691 H 723.688 0.542276 0.513756 0
M  V30 7692 H 726.35 1.80383 0.738099 0
M  V30 7693 H 725.446 2.20025 2.21349 0
M  V30 7694 N 725.747 -0.868086 1.31537 0
M  V30 7695 C 726.695 -1.99688 1.1928 0
M  V30 7696 C 727.689 -1.69101 0.100656 0
M  V30 7697 O 728.895 -1.78073 0.262677 0
M  V30 7698 H 725.27 -0.655032 0.369374 0
M  V30 7699 H 727.241 -2.07157 2.14776 0
M  V30 7700 C 725.99 -3.35338 0.918892 0
M  V30 7701 H 725.313 -3.59396 1.75142 0
M  V30 7702 H 726.753 -4.14909 0.873311 0
M  V30 7703 C 725.212 -3.34769 -0.378366 0
M  V30 7704 O 725.742 -3.76716 -1.39456 0
M  V30 7705 N 723.948 -2.87895 -0.39557 0
M  V30 7706 H 723.495 -2.53954 0.431889 0
M  V30 7707 H 723.453 -2.87897 -1.26344 0
M  V30 7708 N 727.225 -1.14528 -1.08264 0
M  V30 7709 C 728.473 -0.912599 -1.80322 0
M  V30 7710 C 728.794 0.562256 -1.86718 0
M  V30 7711 O 728.064 1.40869 -1.36135 0
M  V30 7712 H 726.644 -0.334645 -0.667849 0
M  V30 7713 H 729.306 -1.44415 -1.30883 0
M  V30 7714 H 728.402 -1.31384 -2.83098 0
M  V30 7715 N 728.703 1.26451 -0.940633 0
M  V30 7716 C 729.633 2.28773 -0.467479 0
M  V30 7717 C 730.614 1.63218 0.478955 0
M  V30 7718 O 731.799 1.90427 0.380929 0
M  V30 7719 C 728.929 3.46259 0.268656 0
M  V30 7720 C 727.883 4.23898 -0.591171 0
M  V30 7721 C 727.209 5.33993 0.274891 0
M  V30 7722 C 728.509 4.87974 -1.86223 0
M  V30 7723 H 730.203 2.68601 -1.32265 0
M  V30 7724 H 727.749 1.29123 -0.637436 0
M  V30 7725 H 729.702 4.16951 0.610696 0
M  V30 7726 H 728.426 3.05383 1.15796 0
M  V30 7727 H 727.085 3.54969 -0.916098 0
M  V30 7728 H 726.733 4.89358 1.16353 0
M  V30 7729 H 726.433 5.86849 -0.297006 0
M  V30 7730 H 727.957 6.07523 0.612213 0
M  V30 7731 H 729.371 5.50883 -1.58747 0
M  V30 7732 H 727.768 5.50945 -2.37866 0
M  V30 7733 H 728.838 4.10945 -2.57394 0
M  V30 7734 N 730.181 0.707592 1.40822 0
M  V30 7735 C 731.091 0.0507246 2.34545 0
M  V30 7736 C 732.107 -0.752727 1.56876 0
M  V30 7737 O 733.283 -0.687524 1.89302 0
M  V30 7738 C 730.348 -0.865731 3.35717 0
M  V30 7739 C 729.409 -0.0531313 4.29267 0
M  V30 7740 C 728.642 -0.925939 5.25606 0
M  V30 7741 O 728.865 -2.16531 5.27703 0
M  V30 7742 O 727.799 -0.369194 6.00767 0
M  V30 7743 H 731.625 0.823587 2.9232 0
M  V30 7744 H 729.21 0.46801 1.4188 0
M  V30 7745 H 731.092 -1.39091 3.97783 0
M  V30 7746 H 729.767 -1.61788 2.80368 0
M  V30 7747 H 728.674 0.516931 3.70511 0
M  V30 7748 H 730.007 0.660617 4.87747 0
M  V30 7749 N 731.66 -1.50943 0.453197 0
M  V30 7750 C 732.9 -2.0412 -0.106894 0
M  V30 7751 C 733.264 -1.32895 -1.38575 0
M  V30 7752 O 734.465 -1.76529 -2.02709 0
M  V30 7753 C 732.736 -3.561 -0.304565 0
M  V30 7754 S 734.295 -4.3096 -0.825784 0
M  V30 7755 H 731.113 -0.710581 -0.0243969 0
M  V30 7756 H 733.715 -1.85534 0.616239 0
M  V30 7757 H 732.419 -4.055 0.632277 0
M  V30 7758 H 731.95 -3.79009 -1.05433 0
M  V30 7759 H 733.965 -4.49503 -2.10147 0
M  V30 7760 N 733.138 -0.185124 -1.56509 0
M  V30 7761 C 734.385 0.456258 -1.97293 0
M  V30 7762 C 734.713 1.62314 -1.07165 0
M  V30 7763 O 733.968 1.95398 -0.108621 0
M  V30 7764 C 734.267 0.967977 -3.44042 0
M  V30 7765 C 733.933 -0.084476 -4.50821 0
M  V30 7766 C 732.595 -0.373689 -4.79747 0
M  V30 7767 C 734.947 -0.79812 -5.15053 0
M  V30 7768 C 732.275 -1.3817 -5.70198 0
M  V30 7769 C 734.627 -1.79521 -6.06593 0
M  V30 7770 C 733.291 -2.09172 -6.3388 0
M  V30 7771 H 732.561 0.166957 -0.721946 0
M  V30 7772 H 735.208 -0.279992 -1.89442 0
M  V30 7773 H 733.513 1.78231 -3.48914 0
M  V30 7774 H 735.21 1.47347 -3.72948 0
M  V30 7775 H 731.8 0.15111 -4.28334 0
M  V30 7776 H 735.984 -0.587903 -4.92806 0
M  V30 7777 H 731.24 -1.61745 -5.89617 0
M  V30 7778 H 735.414 -2.35347 -6.55427 0
M  V30 7779 H 733.041 -2.87427 -7.03768 0
M  V30 7780 N 734.616 1.57351 0.0885366 0
M  V30 7781 C 735.526 2.05858 1.12516 0
M  V30 7782 C 736.542 0.984758 1.43452 0
M  V30 7783 O 737.718 1.29836 1.53963 0
M  V30 7784 C 734.783 2.47882 2.42395 0
M  V30 7785 C 733.844 3.69487 2.18582 0
M  V30 7786 C 733.077 4.09497 3.42268 0
M  V30 7787 O 733.3 3.49536 4.50755 0
M  V30 7788 O 732.234 5.02406 3.31469 0
M  V30 7789 H 736.06 2.94467 0.743146 0
M  V30 7790 H 733.645 1.46326 0.301507 0
M  V30 7791 H 735.527 2.75509 3.18862 0
M  V30 7792 H 734.202 1.62408 2.8001 0
M  V30 7793 H 733.109 3.46967 1.39875 0
M  V30 7794 H 734.442 4.55761 1.85857 0
M  V30 7795 N 736.094 -0.359525 1.53444 0
M  V30 7796 C 737.041 -1.44073 1.8031 0
M  V30 7797 C 738.011 -1.52946 0.647811 0
M  V30 7798 O 739.196 -1.68739 0.890614 0
M  V30 7799 C 736.336 -2.80941 2.00416 0
M  V30 7800 C 735.449 -2.80986 3.28132 0
M  V30 7801 C 734.584 -4.09468 3.38393 0
M  V30 7802 C 733.623 -4.03679 4.60119 0
M  V30 7803 N 732.76 -5.23821 4.675 0
M  V30 7804 H 737.6 -1.20464 2.72566 0
M  V30 7805 H 735.137 -0.583859 1.35017 0
M  V30 7806 H 737.095 -3.60459 2.1006 0
M  V30 7807 H 735.725 -3.02936 1.11489 0
M  V30 7808 H 734.777 -1.93666 3.27411 0
M  V30 7809 H 736.089 -2.72583 4.17732 0
M  V30 7810 H 735.243 -4.97404 3.47382 0
M  V30 7811 H 733.982 -4.20632 2.4682 0
M  V30 7812 H 732.987 -3.14129 4.51224 0
M  V30 7813 H 734.212 -3.94112 5.5304 0
M  V30 7814 H 732.158 -5.35559 3.7883 0
M  V30 7815 H 732.075 -5.17611 5.51013 0
M  V30 7816 H 733.343 -6.13572 4.8078 0
M  V30 7817 N 737.572 -1.44907 -0.619662 0
M  V30 7818 C 738.797 -1.52021 -1.41083 0
M  V30 7819 C 739.222 -0.14976 -1.87503 0
M  V30 7820 O 738.58 0.863303 -1.59426 0
M  V30 7821 C 738.628 -2.49911 -2.59955 0
M  V30 7822 O 737.732 -2.00857 -3.60181 0
M  V30 7823 H 737.073 -0.512912 -0.421684 0
M  V30 7824 H 739.603 -1.90149 -0.755282 0
M  V30 7825 H 739.613 -2.68323 -3.07354 0
M  V30 7826 H 738.288 -3.4945 -2.25516 0
M  V30 7827 H 736.865 -1.92265 -3.19513 0
M  V30 7828 N 739.05 0.861098 -1.31996 0
M  V30 7829 C 740.298 1.61162 -1.21947 0
M  V30 7830 C 740.619 1.93751 0.220351 0
M  V30 7831 O 739.889 1.59069 1.14341 0
M  V30 7832 H 738.469 0.597485 -0.448353 0
M  V30 7833 H 741.131 1.03039 -1.65436 0
M  V30 7834 H 740.227 2.55138 -1.79752 0
M  V30 7835 N 740.528 1.15101 1.07655 0
M  V30 7836 C 741.478 0.813448 2.12995 0
M  V30 7837 C 742.462 -0.200899 1.59641 0
M  V30 7838 O 743.654 -0.00209918 1.77 0
M  V30 7839 C 740.783 0.301078 3.41977 0
M  V30 7840 C 739.869 1.3454 4.02194 0
M  V30 7841 N 740.26 2.55181 4.36711 0
M  V30 7842 C 738.558 1.19742 4.29625 0
M  V30 7843 C 739.259 3.22094 4.84387 0
M  V30 7844 N 738.235 2.49486 4.82968 0
M  V30 7845 H 742.037 1.73105 2.37511 0
M  V30 7846 H 739.551 1.03601 1.25063 0
M  V30 7847 H 741.548 0.040914 4.1688 0
M  V30 7848 H 740.208 -0.610629 3.18907 0
M  V30 7849 H 741.219 2.92349 4.27496 0
M  V30 7850 H 737.896 0.345353 4.16069 0
M  V30 7851 H 739.286 4.24996 5.20411 0
M  V30 7852 N 742.006 -1.2595 0.947325 0
M  V30 7853 C 743.246 -1.95218 0.605743 0
M  V30 7854 C 743.61 -1.72624 -0.84054 0
M  V30 7855 O 744.811 -2.35748 -1.29136 0
M  V30 7856 C 743.082 -3.44654 0.94596 0
M  V30 7857 S 744.641 -4.32922 0.715849 0
M  V30 7858 H 741.459 -0.675159 0.222894 0
M  V30 7859 H 744.061 -1.52766 1.21995 0
M  V30 7860 H 742.765 -3.586 1.99585 0
M  V30 7861 H 742.296 -3.92082 0.321718 0
M  V30 7862 H 744.311 -4.94445 -0.416959 0
M  V30 7863 N 743.484 -0.715051 -1.40445 0
M  V30 7864 C 744.712 -0.263959 -2.05209 0
M  V30 7865 C 745.127 1.09403 -1.53871 0
M  V30 7866 O 744.484 1.68746 -0.695064 0
M  V30 7867 C 744.535 -0.234545 -3.60738 0
M  V30 7868 O 744.256 -1.53891 -4.10182 0
M  V30 7869 C 745.757 0.235164 -4.42676 0
M  V30 7870 H 742.977 -0.11876 -0.660407 0
M  V30 7871 H 745.521 -0.973107 -1.79864 0
M  V30 7872 H 743.676 0.425563 -3.85055 0
M  V30 7873 H 744.09 -1.43903 -5.04373 0
M  V30 7874 H 745.564 0.204598 -5.51621 0
M  V30 7875 H 746.041 1.27724 -4.20218 0
M  V30 7876 H 746.647 -0.394649 -4.23465 0
M  V30 7877 N 744.962 1.50701 -0.461195 0
M  V30 7878 C 745.925 2.2686 0.326679 0
M  V30 7879 C 746.925 1.31243 0.929085 0
M  V30 7880 O 748.115 1.54754 0.799807 0
M  V30 7881 C 745.247 3.07844 1.46441 0
M  V30 7882 H 746.44 2.97954 -0.341095 0
M  V30 7883 H 743.993 1.54814 -0.214984 0
M  V30 7884 H 744.728 2.41223 2.16753 0
M  V30 7885 H 744.513 3.78101 1.03836 0
M  V30 7886 H 746.003 3.65469 2.02044 0
M  V30 7887 N 746.441 0.193421 1.56409 0
M  V30 7888 C 747.681 -0.447977 1.9943 0
M  V30 7889 C 748.045 -1.58915 1.07751 0
M  V30 7890 O 749.246 -2.29462 1.40002 0
M  V30 7891 C 747.517 -0.89793 3.45936 0
M  V30 7892 S 749.076 -1.5374 4.10986 0
M  V30 7893 H 745.894 -0.143316 0.696406 0
M  V30 7894 H 748.496 0.296093 1.93245 0
M  V30 7895 H 747.2 -0.0572927 4.1036 0
M  V30 7896 H 746.731 -1.67551 3.55936 0
M  V30 7897 H 748.746 -2.82612 4.07854 0
M  V30 7898 N 747.919 -1.57396 -0.0801906 0
M  V30 7899 C 748.849 -2.06145 -1.09665 0
M  V30 7900 C 749.83 -0.953273 -1.40878 0
M  V30 7901 O 751.015 -1.22548 -1.50651 0
M  V30 7902 C 748.145 -2.49836 -2.41245 0
M  V30 7903 C 747.099 -3.64454 -2.24405 0
M  V30 7904 C 746.425 -3.94172 -3.61293 0
M  V30 7905 C 747.725 -4.94807 -1.67223 0
M  V30 7906 H 749.419 -2.91316 -0.691028 0
M  V30 7907 H 746.965 -1.40145 -0.330957 0
M  V30 7908 H 748.918 -2.82552 -3.12638 0
M  V30 7909 H 747.642 -1.61683 -2.83771 0
M  V30 7910 H 746.301 -3.32008 -1.55454 0
M  V30 7911 H 745.949 -3.03163 -4.01374 0
M  V30 7912 H 745.649 -4.71345 -3.50867 0
M  V30 7913 H 747.173 -4.29376 -4.3413 0
M  V30 7914 H 748.587 -5.25807 -2.28472 0
M  V30 7915 H 746.984 -5.76245 -1.67515 0
M  V30 7916 H 748.054 -4.80751 -0.632944 0
M  V30 7917 N 749.397 0.351382 -1.53633 0
M  V30 7918 C 750.625 1.11275 -1.74429 0
M  V30 7919 C 751.04 1.82602 -0.479798 0
M  V30 7920 O 750.397 1.74074 0.548125 0
M  V30 7921 C 750.448 2.13223 -2.91921 0
M  V30 7922 O 750.169 1.44798 -4.13479 0
M  V30 7923 C 751.67 3.01797 -3.24706 0
M  V30 7924 H 748.89 0.332153 -0.583023 0
M  V30 7925 H 751.434 0.405974 -2.0043 0
M  V30 7926 H 749.589 2.79477 -2.68274 0
M  V30 7927 H 750.003 2.12839 -4.79374 0
M  V30 7928 H 751.477 3.69282 -4.10286 0
M  V30 7929 H 751.954 3.67387 -2.40673 0
M  V30 7930 H 752.56 2.41141 -3.5033 0
M  V30 7931 N 750.875 1.45233 0.611969 0
M  V30 7932 C 752.123 1.48727 1.36838 0
M  V30 7933 C 752.444 0.128616 1.94575 0
M  V30 7934 O 751.714 -0.84149 1.76906 0
M  V30 7935 H 750.294 0.547695 0.507976 0
M  V30 7936 H 752.956 1.81156 0.718925 0
M  V30 7937 H 752.052 2.2236 2.19003 0
M  V30 7938 N 752.353 -0.854086 1.3245 0
M  V30 7939 C 753.3 -1.96271 1.21434 0
M  V30 7940 C 754.27 -1.6582 0.0963851 0
M  V30 7941 O 755.455 -1.88851 0.27203 0
M  V30 7942 C 752.595 -3.31939 0.943952 0
M  V30 7943 C 751.708 -3.74885 2.14675 0
M  V30 7944 C 750.843 -4.99347 1.81179 0
M  V30 7945 C 749.882 -5.34785 2.97777 0
M  V30 7946 N 749.019 -6.50425 2.6437 0
M  V30 7947 H 753.859 -2.05025 2.16261 0
M  V30 7948 H 751.396 -1.00348 1.07558 0
M  V30 7949 H 753.354 -4.10076 0.767675 0
M  V30 7950 H 751.984 -3.22784 0.0324763 0
M  V30 7951 H 751.036 -2.92396 2.43328 0
M  V30 7952 H 752.348 -3.97068 3.01891 0
M  V30 7953 H 751.502 -5.85193 1.60107 0
M  V30 7954 H 750.241 -4.79101 0.911777 0
M  V30 7955 H 749.246 -4.47451 3.1948 0
M  V30 7956 H 750.471 -5.56988 3.88511 0
M  V30 7957 H 748.417 -6.31695 1.7691 0
M  V30 7958 H 748.334 -6.7263 3.45116 0
M  V30 7959 H 749.602 -7.39422 2.46729 0
M  V30 7960 N 753.831 -1.1567 -1.07043 0
M  V30 7961 C 755.061 -0.956083 -1.83146 0
M  V30 7962 C 755.469 0.498969 -1.82502 0
M  V30 7963 O 754.812 1.35791 -1.23719 0
M  V30 7964 C 754.874 -1.39704 -3.31245 0
M  V30 7965 C 754.538 -2.87045 -3.55604 0
M  V30 7966 C 755.535 -3.85092 -3.49285 0
M  V30 7967 C 753.22 -3.24787 -3.8317 0
M  V30 7968 C 755.214 -5.18885 -3.70185 0
M  V30 7969 C 752.901 -4.58751 -4.03721 0
M  V30 7970 C 753.899 -5.55609 -3.97224 0
M  V30 7971 O 753.587 -6.87154 -4.17223 0
M  V30 7972 H 753.319 -0.339473 -0.58458 0
M  V30 7973 H 755.873 -1.53922 -1.36005 0
M  V30 7974 H 754.103 -0.757326 -3.79212 0
M  V30 7975 H 755.792 -1.16503 -3.88821 0
M  V30 7976 H 756.558 -3.5728 -3.27988 0
M  V30 7977 H 752.437 -2.49979 -3.87339 0
M  V30 7978 H 755.981 -5.94473 -3.6503 0
M  V30 7979 H 751.878 -4.86277 -4.24505 0
M  V30 7980 H 752.646 -6.93618 -4.34553 0
M  V30 7981 N 755.309 1.25446 -0.953992 0
M  V30 7982 C 756.72 1.75047 -0.649255 0
M  V30 7983 C 757.071 1.77527 0.835385 0
M  V30 7984 O 756.196 1.39569 1.65377 0
M  V30 7985 C 756.791 3.17889 -1.17183 0
M  V30 7986 C 755.35 3.65052 -0.917267 0
M  V30 7987 C 754.497 2.44124 -1.31525 0
M  V30 7988 H 757.448 1.11342 -1.13087 0
M  V30 7989 H 757.469 3.76768 -0.531616 0
M  V30 7990 H 756.981 3.16052 -2.25239 0
M  V30 7991 H 755.082 3.72305 0.148354 0
M  V30 7992 H 755.195 4.53222 -1.55328 0
M  V30 7993 H 753.559 2.43906 -0.733624 0
M  V30 7994 H 754.342 2.44979 -2.405 0
M  V30 7995 N 756.787 0.722489 1.40064 0
M  V30 7996 C 758.033 0.265371 2.01056 0
M  V30 7997 C 758.366 -1.14062 1.57174 0
M  V30 7998 O 757.641 -1.77514 0.794916 0
M  V30 7999 C 757.924 0.353157 3.58364 0
M  V30 8000 C 757.777 1.79802 4.123 0
M  V30 8001 C 759.096 -0.271677 4.39261 0
M  V30 8002 H 756.215 0.0979002 0.730469 0
M  V30 8003 H 758.857 0.916289 1.66446 0
M  V30 8004 H 757.007 -0.201037 3.87979 0
M  V30 8005 H 758.679 2.40813 3.93455 0
M  V30 8006 H 756.922 2.32348 3.66329 0
M  V30 8007 H 757.593 1.81079 5.21454 0
M  V30 8008 H 760.069 0.200607 4.15616 0
M  V30 8009 H 758.945 -0.179843 5.48605 0
M  V30 8010 H 759.206 -1.35611 4.20787 0
M  V30 8011 N 758.265 -1.50454 0.469181 0
M  V30 8012 C 759.175 -2.32248 -0.331349 0
M  V30 8013 C 760.191 -1.42548 -0.997807 0
M  V30 8014 O 761.367 -1.75602 -0.9862 0
M  V30 8015 C 758.432 -3.17171 -1.40012 0
M  V30 8016 C 757.493 -4.2269 -0.750463 0
M  V30 8017 C 756.726 -5.03554 -1.76831 0
M  V30 8018 O 756.949 -4.85469 -2.99459 0
M  V30 8019 O 755.883 -5.86767 -1.3412 0
M  V30 8020 H 759.709 -3.01821 0.337279 0
M  V30 8021 H 757.294 -1.47602 0.231066 0
M  V30 8022 H 759.176 -3.69871 -2.01924 0
M  V30 8023 H 757.851 -2.50328 -2.05226 0
M  V30 8024 H 756.758 -3.73986 -0.0924446 0
M  V30 8025 H 758.091 -4.91997 -0.14131 0
M  V30 8026 N 759.743 -0.201713 -1.56304 0
M  V30 8027 C 760.673 0.71155 -2.22394 0
M  V30 8028 C 761.654 1.21625 -1.18917 0
M  V30 8029 O 762.839 1.26388 -1.47444 0
M  V30 8030 C 759.969 1.92837 -2.88845 0
M  V30 8031 C 758.923 1.55831 -3.98623 0
M  V30 8032 C 758.249 2.85228 -4.52271 0
M  V30 8033 C 759.549 0.763249 -5.16693 0
M  V30 8034 H 761.243 0.160573 -2.98969 0
M  V30 8035 H 758.789 0.0757916 -1.438 0
M  V30 8036 H 760.742 2.57253 -3.33764 0
M  V30 8037 H 759.466 2.50398 -2.09686 0
M  V30 8038 H 758.125 0.9377 -3.54405 0
M  V30 8039 H 757.773 3.40893 -3.69866 0
M  V30 8040 H 757.473 2.6121 -5.26349 0
M  V30 8041 H 758.997 3.50622 -4.99897 0
M  V30 8042 H 760.411 1.31066 -5.58117 0
M  V30 8043 H 758.808 0.620935 -5.96879 0
M  V30 8044 H 759.878 -0.234322 -4.84334 0
M  V30 8045 N 761.222 1.57436 0.0718424 0
M  V30 8046 C 762.132 2.07039 1.10326 0
M  V30 8047 C 763.148 0.999918 1.424 0
M  V30 8048 O 764.324 1.31462 1.52577 0
M  V30 8049 C 761.389 2.50439 2.39752 0
M  V30 8050 C 760.45 3.71784 2.14651 0
M  V30 8051 C 759.683 4.13104 3.37906 0
M  V30 8052 O 759.906 3.54298 4.47023 0
M  V30 8053 O 758.84 5.05894 3.26121 0
M  V30 8054 H 762.666 2.95239 0.711872 0
M  V30 8055 H 760.251 1.46638 0.28597 0
M  V30 8056 H 762.133 2.78876 3.15921 0
M  V30 8057 H 760.808 1.65368 2.78271 0
M  V30 8058 H 759.715 3.48431 1.36187 0
M  V30 8059 H 761.048 4.57707 1.81012 0
M  V30 8060 N 762.7 -0.34323 1.53817 0
M  V30 8061 C 763.946 -1.08137 1.72273 0
M  V30 8062 C 764.301 -1.86311 0.480201 0
M  V30 8063 O 763.594 -1.84204 -0.527192 0
M  V30 8064 C 763.788 -2.05195 2.92626 0
M  V30 8065 C 763.617 -1.36561 4.28464 0
M  V30 8066 C 762.387 -1.11033 4.9295 0
M  V30 8067 C 764.585 -0.791663 5.0817 0
M  V30 8068 N 762.567 -0.389839 6.12661 0
M  V30 8069 C 763.938 -0.201742 6.19672 0
M  V30 8070 C 765.993 -0.692541 4.9306 0
M  V30 8071 C 764.696 0.477661 7.17712 0
M  V30 8072 C 766.722 -0.0268775 5.91394 0
M  V30 8073 C 766.084 0.552072 7.02233 0
M  V30 8074 H 762.183 -0.380078 0.683421 0
M  V30 8075 H 764.767 -0.364925 1.9125 0
M  V30 8076 H 762.938 -2.74131 2.75149 0
M  V30 8077 H 764.67 -2.7185 2.99799 0
M  V30 8078 H 761.425 -1.39752 4.52511 0
M  V30 8079 H 761.849 -0.0443076 6.76986 0
M  V30 8080 H 766.491 -1.12589 4.07534 0
M  V30 8081 H 764.209 0.922895 8.02813 0
M  V30 8082 H 767.795 0.0491921 5.81779 0
M  V30 8083 H 766.675 1.05899 7.77017 0
M  V30 8084 O 764.217 -1.53912 -0.489205 0
M  V30 8085 H 764.908 -1.56315 -1.14391 0
M  V30 END ATOM
M  V30 BEGIN BOND
M  V30 END BOND
M  V30 END CTAB
M  END
$$$$
