drugbank_target|P21709 Ephrin type-A receptor 1 (DB12010)
 OpenBabel12092121153D

  0  0  0     0  0            999 V3000
M  V30 BEGIN CTAB
M  V30 COUNTS 15047 15234 0 0 0
M  V30 BEGIN ATOM
M  V30 1 H -0.908 1.98254 -0.117106 0
M  V30 2 N 0 1.576 0 0
M  V30 3 C 0.933 2.03868 1.02534 0
M  V30 4 C 1.911 0.928543 1.3348 0
M  V30 5 O 3.095 1.19667 1.45644 0
M  V30 6 C 0.222 2.43627 2.35294 0
M  V30 7 C -0.732 3.65373 2.2001 0
M  V30 8 S 0.101 5.13292 1.52614 0
M  V30 9 C 1.257 5.56322 2.86805 0
M  V30 10 H 1.49 2.90518 0.631377 0
M  V30 11 H -0.977 1.52953 0.210867 0
M  V30 12 H 0.981 2.67203 3.11629 0
M  V30 13 H -0.358 1.57376 2.7183 0
M  V30 14 H -1.165 3.90944 3.18086 0
M  V30 15 H -1.563 3.418 1.51819 0
M  V30 16 H 0.729 5.58782 3.83104 0
M  V30 17 H 1.672 6.56266 2.65933 0
M  V30 18 H 2.08 4.83886 2.90714 0
M  V30 19 N 1.4781 -0.272755 1.55222 0
M  V30 20 C 2.3881 -1.35918 1.91216 0
M  V30 21 C 3.4041 -1.54026 0.809436 0
M  V30 22 O 4.5801 -1.68148 1.10852 0
M  V30 23 C 1.6451 -2.69834 2.17693 0
M  V30 24 C 0.7061 -2.6047 3.41253 0
M  V30 25 C -0.0609 -3.88 3.66458 0
M  V30 26 O 0.1621 -4.88693 2.94169 0
M  V30 27 O -0.9039 -3.88189 4.59992 0
M  V30 28 H 2.9221 -1.0839 2.83699 0
M  V30 29 H 0.5071 -0.471301 1.41771 0
M  V30 30 H 2.3891 -3.49017 2.36147 0
M  V30 31 H 1.0641 -2.97148 1.28392 0
M  V30 32 H -0.0289 -1.79663 3.28134 0
M  V30 33 H 1.3041 -2.38106 4.30774 0
M  V30 34 N 2.9562 -1.48159 -0.537278 0
M  V30 35 C 4.3722 -1.34118 -0.865129 0
M  V30 36 C 4.5722 -0.346678 -1.98495 0
M  V30 37 O 3.6282 0.234715 -2.51407 0
M  V30 38 C 4.9412 -2.73963 -1.23954 0
M  V30 39 C 6.4892 -2.82397 -1.34984 0
M  V30 40 C 6.9642 -4.22928 -1.75772 0
M  V30 41 N 8.4552 -4.25566 -1.82887 0
M  V30 42 C 9.1902 -5.31235 -2.15817 0
M  V30 43 N 8.6862 -6.47189 -2.47222 0
M  V30 44 N 10.4792 -5.18624 -2.16761 0
M  V30 45 H 2.6302 -2.1144 0.201715 0
M  V30 46 H 4.8932 -0.947598 0.0275949 0
M  V30 47 H 4.5992 -3.48264 -0.490381 0
M  V30 48 H 4.4732 -3.0702 -2.19132 0
M  V30 49 H 6.8602 -2.08356 -2.08978 0
M  V30 50 H 6.9412 -2.5297 -0.379448 0
M  V30 51 H 6.5852 -4.97482 -1.02341 0
M  V30 52 H 6.5152 -4.49794 -2.73848 0
M  V30 53 H 9.0062 -3.41924 -1.60924 0
M  V30 54 H 9.3192 -7.23564 -2.71433 0
M  V30 55 H 7.6642 -6.50476 -2.44757 0
M  V30 56 H 10.8552 -4.27056 -1.91679 0
M  V30 57 H 11.0282 -6.01078 -2.42093 0
M  V30 58 N 4.4343 0.785586 -1.36625 0
M  V30 59 C 5.8503 1.08419 -1.17122 0
M  V30 60 C 6.0503 2.015 0.00208491 0
M  V30 61 O 5.1063 2.43551 0.666278 0
M  V30 62 C 6.4193 1.69498 -2.48377 0
M  V30 63 C 7.9673 1.81821 -2.54775 0
M  V30 64 C 8.4423 2.46315 -3.86126 0
M  V30 65 N 9.9333 2.53779 -3.87492 0
M  V30 66 C 10.6683 3.045 -4.85868 0
M  V30 67 N 10.1643 3.55499 -5.94637 0
M  V30 68 N 11.9573 3.03247 -4.73284 0
M  V30 69 H 4.1083 0.167264 -2.1174 0
M  V30 70 H 6.3713 0.13682 -0.938075 0
M  V30 71 H 6.0773 1.08571 -3.34522 0
M  V30 72 H 5.9513 2.6896 -2.64462 0
M  V30 73 H 8.3383 2.41884 -1.69045 0
M  V30 74 H 8.4193 0.811532 -2.42586 0
M  V30 75 H 8.0633 1.86895 -4.72263 0
M  V30 76 H 7.9933 3.47561 -3.95612 0
M  V30 77 H 10.4843 2.17672 -3.08913 0
M  V30 78 H 10.7973 3.92562 -6.65669 0
M  V30 79 H 9.1423 3.5364 -5.98301 0
M  V30 80 H 12.3333 2.62696 -3.87438 0
M  V30 81 H 12.5063 3.42467 -5.50109 0
M  V30 82 N 5.9124 1.20967 1.01018 0
M  V30 83 C 7.1584 1.0353 1.7508 0
M  V30 84 C 7.5134 -0.42734 1.87594 0
M  V30 85 O 6.8064 -1.31298 1.3954 0
M  V30 86 C 7.0004 1.65997 3.16512 0
M  V30 87 C 6.8294 3.18184 3.17788 0
M  V30 88 C 5.5994 3.87198 3.24662 0
M  V30 89 C 7.7974 4.15334 3.03319 0
M  V30 90 N 5.7794 5.26618 3.15509 0
M  V30 91 C 7.1504 5.41472 3.02007 0
M  V30 92 C 9.2054 4.06449 2.87583 0
M  V30 93 C 7.9084 6.5975 2.86571 0
M  V30 94 C 9.9344 5.24357 2.73503 0
M  V30 95 C 9.2964 6.49404 2.72862 0
M  V30 96 H 5.3954 0.433137 0.651089 0
M  V30 97 H 7.9794 1.5324 1.20107 0
M  V30 98 H 6.1504 1.18863 3.69765 0
M  V30 99 H 7.8824 1.41816 3.79039 0
M  V30 100 H 4.6374 3.38093 3.31648 0
M  V30 101 H 5.0614 5.99626 3.14289 0
M  V30 102 H 9.7034 3.10573 2.86887 0
M  V30 103 H 7.4214 7.55792 2.86015 0
M  V30 104 H 11.0074 5.19299 2.62334 0
M  V30 105 H 9.8874 7.39105 2.62093 0
M  V30 106 N 7.3905 -1.2043 1.01659 0
M  V30 107 C 8.8015 -1.71517 0.737482 0
M  V30 108 C 9.1525 -1.81547 -0.743973 0
M  V30 109 O 8.2775 -1.47803 -1.58061 0
M  V30 110 C 8.8725 -3.11515 1.33206 0
M  V30 111 C 7.4315 -3.59912 1.10183 0
M  V30 112 C 6.5785 -2.37116 1.43776 0
M  V30 113 H 9.5295 -1.05444 1.18606 0
M  V30 114 H 9.5505 -3.73575 0.722636 0
M  V30 115 H 9.0625 -3.04182 2.41028 0
M  V30 116 H 7.1635 -3.72577 0.0412756 0
M  V30 117 H 7.2765 -4.44731 1.78188 0
M  V30 118 H 5.6405 -2.39857 0.856778 0
M  V30 119 H 6.4235 -2.32424 2.52654 0
M  V30 120 N 8.8686 -0.792821 -1.36206 0
M  V30 121 C 9.7986 -0.207853 -2.32573 0
M  V30 122 C 10.7796 0.659055 -1.56813 0
M  V30 123 O 11.9646 0.592176 -1.84951 0
M  V30 124 C 9.0946 0.655449 -3.41059 0
M  V30 125 C 8.0486 -0.111842 -4.27854 0
M  V30 126 C 7.3746 0.872274 -5.27537 0
M  V30 127 C 8.6746 -1.30299 -5.05786 0
M  V30 128 H 10.3686 -1.01294 -2.81744 0
M  V30 129 H 7.9146 -0.48854 -1.3546 0
M  V30 130 H 9.8676 1.07464 -4.07467 0
M  V30 131 H 8.5916 1.49328 -2.90463 0
M  V30 132 H 7.2506 -0.512053 -3.63006 0
M  V30 133 H 6.8986 1.70523 -4.73214 0
M  V30 134 H 6.5986 0.363291 -5.86476 0
M  V30 135 H 8.1226 1.28996 -5.96818 0
M  V30 136 H 9.5366 -0.959379 -5.65216 0
M  V30 137 H 7.9336 -1.7455 -5.74154 0
M  V30 138 H 9.0036 -2.09663 -4.37229 0
M  V30 139 N 10.3467 1.47872 -0.545128 0
M  V30 140 C 11.5947 2.02093 -0.016553 0
M  V30 141 C 11.9157 1.42305 1.3332 0
M  V30 142 O 11.1857 0.593853 1.86682 0
M  V30 143 H 9.7657 0.746993 -0.00313038 0
M  V30 144 H 12.4277 1.81414 -0.712397 0
M  V30 145 H 11.5237 3.11996 0.0805422 0
M  V30 146 N 11.8248 0.280983 1.55075 0
M  V30 147 C 12.7548 -0.597469 2.25727 0
M  V30 148 C 13.7358 -1.15417 1.24952 0
M  V30 149 O 14.9208 -1.18722 1.53684 0
M  V30 150 C 12.0508 -1.7789 2.98283 0
M  V30 151 C 11.0048 -1.35347 4.06036 0
M  V30 152 C 10.3308 -2.61846 4.66198 0
M  V30 153 C 11.6308 -0.499354 5.19907 0
M  V30 154 H 13.3248 -0.00824265 2.99399 0
M  V30 155 H 10.8708 -0.0025244 1.44 0
M  V30 156 H 12.8238 -2.39937 3.46422 0
M  V30 157 H 11.5478 -2.39405 2.22155 0
M  V30 158 H 10.2068 -0.756156 3.58717 0
M  V30 159 H 9.8548 -3.21632 3.86732 0
M  V30 160 H 9.5548 -2.3409 5.38958 0
M  V30 161 H 11.0788 -3.24732 5.1709 0
M  V30 162 H 12.4928 -1.02498 5.64063 0
M  V30 163 H 10.8898 -0.316424 5.99265 0
M  V30 164 H 11.9598 0.480459 4.82514 0
M  V30 165 N 13.3029 -1.57598 0.00835791 0
M  V30 166 C 14.5509 -1.90551 -0.6734 0
M  V30 167 C 14.8719 -0.883301 -1.73847 0
M  V30 168 O 14.1419 0.0781442 -1.95744 0
M  V30 169 H 12.7219 -0.703312 -0.251717 0
M  V30 170 H 15.3839 -1.94833 0.0512592 0
M  V30 171 H 14.4799 -2.9056 -1.13935 0
M  V30 172 N 14.781 0.264519 -1.55364 0
M  V30 173 C 15.711 1.33121 -1.91836 0
M  V30 174 C 16.692 1.51101 -0.781192 0
M  V30 175 O 17.877 1.64003 -1.04003 0
M  V30 176 C 15.007 2.68921 -2.19769 0
M  V30 177 C 13.961 2.65661 -3.35571 0
M  V30 178 C 13.287 4.05093 -3.49004 0
M  V30 179 C 14.587 2.24187 -4.71739 0
M  V30 180 H 16.281 1.02844 -2.81182 0
M  V30 181 H 13.827 0.493286 -1.35287 0
M  V30 182 H 15.78 3.43663 -2.43872 0
M  V30 183 H 14.504 3.00799 -1.27231 0
M  V30 184 H 13.163 1.93377 -3.1145 0
M  V30 185 H 12.811 4.34206 -2.53917 0
M  V30 186 H 12.511 4.03804 -4.26868 0
M  V30 187 H 14.035 4.81561 -3.75408 0
M  V30 188 H 15.449 2.88654 -4.9533 0
M  V30 189 H 13.846 2.34044 -5.52579 0
M  V30 190 H 14.916 1.19327 -4.69988 0
M  V30 191 N 16.2591 1.48442 0.529413 0
M  V30 192 C 17.5051 1.5672 1.28711 0
M  V30 193 C 17.8381 0.2406 1.92704 0
M  V30 194 O 17.1131 -0.753454 1.79313 0
M  V30 195 C 17.3961 2.70587 2.37603 0
M  V30 196 C 17.2491 4.12953 1.78297 0
M  V30 197 C 18.5681 2.80212 3.39366 0
M  V30 198 H 15.6871 0.570474 0.466613 0
M  V30 199 H 18.3291 1.80617 0.589706 0
M  V30 200 H 16.4791 2.50342 2.97088 0
M  V30 201 H 18.1511 4.44639 1.22858 0
M  V30 202 H 16.3941 4.19927 1.0883 0
M  V30 203 H 17.0651 4.88448 2.57144 0
M  V30 204 H 19.5411 2.98553 2.89836 0
M  V30 205 H 18.4171 3.61611 4.12951 0
M  V30 206 H 18.6781 1.88393 3.99951 0
M  V30 207 N 17.7372 -0.778329 1.37039 0
M  V30 208 C 18.6672 -1.90546 1.34962 0
M  V30 209 C 19.6482 -1.68681 0.219274 0
M  V30 210 O 20.8332 -1.89634 0.418624 0
M  V30 211 C 17.9632 -3.27734 1.14925 0
M  V30 212 C 16.9172 -3.64147 2.24902 0
M  V30 213 C 16.2432 -4.99806 1.89996 0
M  V30 214 C 17.5432 -3.71579 3.67051 0
M  V30 215 H 19.2372 -1.92541 2.29277 0
M  V30 216 H 16.7832 -0.924948 1.10366 0
M  V30 217 H 18.7362 -4.06215 1.12104 0
M  V30 218 H 17.4602 -3.26154 0.170631 0
M  V30 219 H 16.1192 -2.8797 2.26868 0
M  V30 220 H 15.7672 -4.94759 0.906796 0
M  V30 221 H 15.4672 -5.25139 2.63634 0
M  V30 222 H 16.9912 -5.80694 1.88749 0
M  V30 223 H 18.4052 -4.40227 3.67251 0
M  V30 224 H 16.8022 -4.08405 4.39688 0
M  V30 225 H 17.8722 -2.72404 4.01154 0
M  V30 226 N 19.2153 -1.21501 -1.00376 0
M  V30 227 C 20.1453 -0.999478 -2.11028 0
M  V30 228 C 21.1263 0.0759671 -1.6993 0
M  V30 229 O 22.3113 -0.0841106 -1.94018 0
M  V30 230 C 19.4413 -0.564709 -3.42678 0
M  V30 231 C 18.3953 -1.58486 -3.97576 0
M  V30 232 C 17.7213 -1.00628 -5.25146 0
M  V30 233 C 19.0213 -2.97204 -4.29496 0
M  V30 234 H 20.7153 -1.92495 -2.29317 0
M  V30 235 H 18.2613 -0.92693 -1.102 0
M  V30 236 H 20.2143 -0.401091 -4.19487 0
M  V30 237 H 18.9383 0.396411 -3.24185 0
M  V30 238 H 17.5973 -1.73606 -3.22888 0
M  V30 239 H 17.2453 -0.0368439 -5.02987 0
M  V30 240 H 16.9453 -1.68771 -5.62841 0
M  V30 241 H 18.4693 -0.854015 -6.04598 0
M  V30 242 H 19.8833 -2.8552 -4.97143 0
M  V30 243 H 18.2803 -3.62372 -4.78338 0
M  V30 244 H 19.3503 -3.47956 -3.3772 0
M  V30 245 N 20.6934 1.19889 -1.02296 0
M  V30 246 C 21.6234 2.25141 -0.619174 0
M  V30 247 C 22.6044 1.66051 0.368915 0
M  V30 248 O 23.7894 1.92546 0.252941 0
M  V30 249 C 20.9194 3.4728 0.0368783 0
M  V30 250 C 19.8734 4.19005 -0.872865 0
M  V30 251 C 19.1994 5.34637 -0.0822402 0
M  V30 252 C 20.4994 4.74452 -2.18387 0
M  V30 253 H 22.1934 2.59171 -1.49903 0
M  V30 254 H 19.7394 1.24579 -0.722222 0
M  V30 255 H 21.6924 4.20098 0.330958 0
M  V30 256 H 20.4164 3.12433 0.95149 0
M  V30 257 H 19.0754 3.48061 -1.15105 0
M  V30 258 H 18.7234 4.96034 0.83422 0
M  V30 259 H 18.4234 5.83557 -0.688149 0
M  V30 260 H 19.9474 6.10255 0.205238 0
M  V30 261 H 21.3614 5.39055 -1.95172 0
M  V30 262 H 19.7584 5.33834 -2.74119 0
M  V30 263 H 20.8284 3.92844 -2.84257 0
M  V30 264 N 22.1715 0.800033 1.35784 0
M  V30 265 C 23.4115 0.382891 2.00782 0
M  V30 266 C 23.7755 -1.02891 1.62103 0
M  V30 267 O 24.9765 -1.54771 2.19771 0
M  V30 268 C 23.2475 0.553299 3.53091 0
M  V30 269 S 24.8065 0.225608 4.3822 0
M  V30 270 H 21.6245 0.145737 0.695904 0
M  V30 271 H 24.2265 1.04085 1.65489 0
M  V30 272 H 22.9305 1.58091 3.78729 0
M  V30 273 H 22.4615 -0.120214 3.93216 0
M  V30 274 H 24.4765 -0.969074 4.86645 0
M  V30 275 N 23.6496 -1.47581 0.552962 0
M  V30 276 C 24.6126 -2.28439 -0.186605 0
M  V30 277 C 25.6126 -1.36706 -0.84665 0
M  V30 278 O 26.8026 -1.59378 -0.703164 0
M  V30 279 C 23.9346 -3.16264 -1.2724 0
M  V30 280 H 25.1276 -2.95294 0.523609 0
M  V30 281 H 22.6806 -1.532 0.309745 0
M  V30 282 H 23.4156 -2.54091 -2.01514 0
M  V30 283 H 23.2006 -3.83769 -0.803968 0
M  V30 284 H 24.6906 -3.77198 -1.79196 0
M  V30 285 N 25.1277 -0.289203 -1.54924 0
M  V30 286 C 26.5387 0.205791 -1.85562 0
M  V30 287 C 26.8897 1.54351 -1.2112 0
M  V30 288 O 26.0147 2.10435 -0.504601 0
M  V30 289 C 26.6097 0.380177 -3.3666 0
M  V30 290 C 25.1687 0.819395 -3.67373 0
M  V30 291 C 24.3157 -0.079159 -2.77187 0
M  V30 292 H 27.2667 -0.510577 -1.50262 0
M  V30 293 H 27.2877 1.21659 -3.60526 0
M  V30 294 H 26.7997 -0.593589 -3.83534 0
M  V30 295 H 24.9007 1.80413 -3.26009 0
M  V30 296 H 25.0137 0.646957 -4.74712 0
M  V30 297 H 23.3777 0.439565 -2.50878 0
M  V30 298 H 24.1607 -1.04906 -3.26878 0
M  V30 299 N 26.6058 1.57591 -0.0167156 0
M  V30 300 C 27.5358 2.12496 0.967858 0
M  V30 301 C 28.5168 1.03807 1.34752 0
M  V30 302 O 29.7018 1.31577 1.42833 0
M  V30 303 C 26.8318 2.64194 2.25431 0
M  V30 304 C 25.7858 3.77559 2.01576 0
M  V30 305 C 25.1118 4.15636 3.36379 0
M  V30 306 C 26.4118 5.04151 1.36489 0
M  V30 307 H 28.1058 2.95013 0.510643 0
M  V30 308 H 25.6518 1.41915 0.244181 0
M  V30 309 H 27.6048 3.01236 2.94678 0
M  V30 310 H 26.3288 1.78821 2.73296 0
M  V30 311 H 24.9878 3.40937 1.34751 0
M  V30 312 H 24.6358 3.27263 3.81979 0
M  V30 313 H 24.3358 4.92022 3.21229 0
M  V30 314 H 25.8598 4.5525 4.06915 0
M  V30 315 H 27.2738 5.38857 1.95718 0
M  V30 316 H 25.6708 5.85453 1.31776 0
M  V30 317 H 26.7408 4.83733 0.336219 0
M  V30 318 N 28.0839 -0.256276 1.55502 0
M  V30 319 C 29.4949 -0.826068 1.67431 0
M  V30 320 C 29.8459 -1.86396 0.612446 0
M  V30 321 O 28.9709 -2.15031 -0.243025 0
M  V30 322 C 29.5659 -1.50512 3.03532 0
M  V30 323 C 28.1249 -2.02273 3.17431 0
M  V30 324 C 27.2719 -0.870548 2.63281 0
M  V30 325 H 30.2229 -0.0322728 1.58667 0
M  V30 326 H 30.2439 -2.37279 2.97454 0
M  V30 327 H 29.7559 -0.749484 3.80794 0
M  V30 328 H 27.8569 -2.80746 2.44974 0
M  V30 329 H 27.9699 -2.22655 4.24219 0
M  V30 330 H 26.3339 -1.26851 2.20864 0
M  V30 331 H 27.1169 -0.128149 3.43061 0
M  V30 332 N 29.562 -1.4872 -0.521534 0
M  V30 333 C 30.973 -1.50607 -1.10337 0
M  V30 334 C 31.324 -0.280612 -1.94183 0
M  V30 335 O 30.449 0.611507 -2.0758 0
M  V30 336 C 31.044 -2.72903 -2.00772 0
M  V30 337 C 29.603 -2.77634 -2.54158 0
M  V30 338 C 28.75 -2.44241 -1.31307 0
M  V30 339 H 31.701 -1.55714 -0.306388 0
M  V30 340 H 31.722 -2.519 -2.85178 0
M  V30 341 H 31.234 -3.62077 -1.39721 0
M  V30 342 H 29.335 -1.92689 -3.18907 0
M  V30 343 H 29.448 -3.79283 -2.92714 0
M  V30 344 H 27.812 -1.95577 -1.63161 0
M  V30 345 H 28.595 -3.35666 -0.719943 0
M  V30 346 N 31.0401 0.771051 -1.3745 0
M  V30 347 C 32.2881 1.52661 -1.32435 0
M  V30 348 C 32.6091 1.9479 0.0905024 0
M  V30 349 O 31.8791 1.66348 1.03466 0
M  V30 350 H 30.4591 0.566218 -0.487244 0
M  V30 351 H 33.1211 0.917636 -1.71946 0
M  V30 352 H 32.2171 2.42568 -1.96385 0
M  V30 353 N 32.5182 1.22032 0.997298 0
M  V30 354 C 33.4812 0.987909 2.06816 0
M  V30 355 C 34.4812 -0.0440084 1.6074 0
M  V30 356 O 35.6712 0.194053 1.73116 0
M  V30 357 C 32.8032 0.49132 3.37341 0
M  V30 358 H 33.9962 1.93803 2.28868 0
M  V30 359 H 31.5492 1.03838 1.16822 0
M  V30 360 H 32.2842 -0.463364 3.20973 0
M  V30 361 H 32.0692 1.23575 3.72118 0
M  V30 362 H 33.5592 0.348824 4.16141 0
M  V30 363 N 33.9963 -1.19345 1.0293 0
M  V30 364 C 35.4123 -1.41069 0.746446 0
M  V30 365 C 35.6123 -1.90078 -0.668776 0
M  V30 366 O 34.6683 -2.0778 -1.4347 0
M  V30 367 C 35.9813 -2.42141 1.78292 0
M  V30 368 C 37.5293 -2.55887 1.80252 0
M  V30 369 C 38.0043 -3.60214 2.8286 0
M  V30 370 N 39.4953 -3.67711 2.81679 0
M  V30 371 C 40.2303 -4.48128 3.57727 0
M  V30 372 N 39.7263 -5.32248 4.43491 0
M  V30 373 N 41.5193 -4.42782 3.46267 0
M  V30 374 H 33.6703 -0.858536 1.94275 0
M  V30 375 H 35.9333 -0.439541 0.839945 0
M  V30 376 H 35.6393 -2.13155 2.79746 0
M  V30 377 H 35.5133 -3.41323 1.60557 0
M  V30 378 H 37.9003 -2.84196 0.794757 0
M  V30 379 H 37.9813 -1.56858 2.02062 0
M  V30 380 H 37.6253 -3.32647 3.83807 0
M  V30 381 H 37.5553 -4.58895 2.58307 0
M  V30 382 H 40.0463 -3.07634 2.19476 0
M  V30 383 H 40.3593 -5.90729 4.98256 0
M  V30 384 H 38.7043 -5.31707 4.47564 0
M  V30 385 H 41.8953 -3.76107 2.78677 0
M  V30 386 H 42.0683 -5.05215 4.05785 0
M  V30 387 N 35.4744 -0.807222 -1.35358 0
M  V30 388 C 36.4374 -0.223665 -2.28106 0
M  V30 389 C 37.4374 0.589354 -1.4961 0
M  V30 390 O 38.6274 0.407745 -1.69361 0
M  V30 391 C 35.7594 0.688149 -3.33882 0
M  V30 392 H 36.9524 -1.04169 -2.81227 0
M  V30 393 H 34.5054 -0.577921 -1.45223 0
M  V30 394 H 35.2404 1.52984 -2.85948 0
M  V30 395 H 35.0254 0.10687 -3.91954 0
M  V30 396 H 36.5154 1.09075 -4.03104 0
M  V30 397 N 36.9525 1.47285 -0.560781 0
M  V30 398 C 37.8995 2.30058 0.18491 0
M  V30 399 C 38.8695 1.39281 0.904986 0
M  V30 400 O 40.0545 1.68241 0.899979 0
M  V30 401 C 37.1945 3.23317 1.20666 0
M  V30 402 C 36.3075 4.29186 0.492285 0
M  V30 403 C 35.4425 5.09592 1.49964 0
M  V30 404 C 34.4815 6.07232 0.770439 0
M  V30 405 N 33.6185 6.80584 1.72479 0
M  V30 406 H 38.4585 2.93302 -0.527048 0
M  V30 407 H 35.9955 1.44568 -0.271738 0
M  V30 408 H 37.9535 3.75811 1.81168 0
M  V30 409 H 36.5835 2.61929 1.88661 0
M  V30 410 H 35.6355 3.7972 -0.227333 0
M  V30 411 H 36.9475 4.98738 -0.0787929 0
M  V30 412 H 36.1015 5.66254 2.17809 0
M  V30 413 H 34.8405 4.3995 2.10464 0
M  V30 414 H 33.8455 5.49745 0.0780846 0
M  V30 415 H 35.0705 6.78884 0.171134 0
M  V30 416 H 33.0165 6.1367 2.3183 0
M  V30 417 H 32.9335 7.46319 1.20596 0
M  V30 418 H 34.2015 7.41818 2.39428 0
M  V30 419 N 38.4306 0.297415 1.54768 0
M  V30 420 C 39.3406 -0.58983 2.27064 0
M  V30 421 C 40.3566 -1.15144 1.30453 0
M  V30 422 O 41.5326 -1.17699 1.63428 0
M  V30 423 C 38.5976 -1.74714 2.9946 0
M  V30 424 C 37.6586 -1.21997 4.11601 0
M  V30 425 C 36.8916 -2.32212 4.80535 0
M  V30 426 O 37.1146 -3.52036 4.48806 0
M  V30 427 O 36.0486 -1.99106 5.68014 0
M  V30 428 H 39.8746 -0.00348199 3.037 0
M  V30 429 H 37.4596 0.0640035 1.49263 0
M  V30 430 H 39.3416 -2.42147 3.44881 0
M  V30 431 H 38.0166 -2.32016 2.25722 0
M  V30 432 H 36.9236 -0.511458 3.70587 0
M  V30 433 H 38.2566 -0.692419 4.87305 0
M  V30 434 N 39.9087 -1.5758 0.0250728 0
M  V30 435 C 41.1547 -1.91917 -0.655413 0
M  V30 436 C 41.4877 -0.901433 -1.72011 0
M  V30 437 O 40.7627 0.0764069 -1.9435 0
M  V30 438 C 41.0457 -3.36751 -1.27558 0
M  V30 439 C 40.8987 -4.49258 -0.220719 0
M  V30 440 C 42.2177 -3.81469 -2.19475 0
M  V30 441 H 39.3367 -0.697925 -0.23679 0
M  V30 442 H 41.9787 -1.89825 0.0815036 0
M  V30 443 H 40.1287 -3.38664 -1.90365 0
M  V30 444 H 41.8007 -4.59478 0.409601 0
M  V30 445 H 40.0437 -4.31415 0.454264 0
M  V30 446 H 40.7147 -5.47618 -0.694175 0
M  V30 447 H 43.1907 -3.81266 -1.66659 0
M  V30 448 H 42.0667 -4.83512 -2.59822 0
M  V30 449 H 42.3277 -3.16744 -3.08424 0
M  V30 450 N 41.3868 0.248026 -1.55636 0
M  V30 451 C 42.6148 0.993808 -1.81469 0
M  V30 452 C 43.0298 1.78991 -0.60064 0
M  V30 453 O 42.3868 1.77345 0.430682 0
M  V30 454 C 42.4378 1.93258 -3.05506 0
M  V30 455 O 42.1588 1.16869 -4.22224 0
M  V30 456 C 43.6598 2.79444 -3.4413 0
M  V30 457 H 40.8798 0.292486 -0.603898 0
M  V30 458 H 43.4238 0.271253 -2.02693 0
M  V30 459 H 41.5788 2.60943 -2.86335 0
M  V30 460 H 41.9928 1.80359 -4.92515 0
M  V30 461 H 43.4668 3.41066 -4.34026 0
M  V30 462 H 43.9438 3.50499 -2.64665 0
M  V30 463 H 44.5498 2.17214 -3.65648 0
M  V30 464 N 42.8649 1.48995 0.513639 0
M  V30 465 C 43.7949 1.67636 1.62544 0
M  V30 466 C 44.7759 0.525087 1.61793 0
M  V30 467 O 45.9609 0.759502 1.78732 0
M  V30 468 C 43.0909 1.73114 3.01079 0
M  V30 469 C 42.0449 2.87905 3.16693 0
M  V30 470 C 41.3709 2.78486 4.56453 0
M  V30 471 C 42.6709 4.29005 2.97913 0
M  V30 472 H 44.3649 2.60716 1.47198 0
M  V30 473 H 41.9109 1.25465 0.706714 0
M  V30 474 H 43.8639 1.84742 3.78746 0
M  V30 475 H 42.5879 0.766241 3.17484 0
M  V30 476 H 41.2469 2.75859 2.41448 0
M  V30 477 H 40.8949 1.7993 4.69717 0
M  V30 478 H 40.5949 3.55523 4.67843 0
M  V30 479 H 42.1189 2.92104 5.36197 0
M  V30 480 H 43.5329 4.41798 3.65359 0
M  V30 481 H 41.9299 5.07166 3.20785 0
M  V30 482 H 42.9999 4.44329 1.94165 0
M  V30 483 N 44.343 -0.763751 1.37857 0
M  V30 484 C 45.276 -1.88486 1.28639 0
M  V30 485 C 46.254 -1.61757 0.165363 0
M  V30 486 O 47.438 -1.85391 0.340948 0
M  V30 487 C 44.565 -3.23884 0.990811 0
M  V30 488 C 43.611 -3.69514 2.12983 0
M  V30 489 S 44.444 -3.82244 3.75033 0
M  V30 490 C 45.6 -5.20477 3.47641 0
M  V30 491 H 45.833 -1.96017 2.23527 0
M  V30 492 H 43.366 -0.925684 1.23574 0
M  V30 493 H 45.324 -4.02081 0.827101 0
M  V30 494 H 43.985 -3.14044 0.0592832 0
M  V30 495 H 43.178 -4.67696 1.87821 0
M  V30 496 H 42.78 -2.98441 2.25408 0
M  V30 497 H 45.072 -6.05905 3.03125 0
M  V30 498 H 46.015 -5.50655 4.4518 0
M  V30 499 H 46.423 -4.88793 2.82385 0
M  V30 500 N 45.8211 -1.22559 -0.990812 0
M  V30 501 C 47.0981 -0.959875 -1.70428 0
M  V30 502 C 47.4781 0.524455 -2.04481 0
M  V30 503 O 46.8261 1.49302 -1.72977 0
M  V30 504 C 47.0361 -1.85955 -2.95333 0
M  V30 505 C 48.3841 -2.11687 -3.68068 0
M  V30 506 O 49.4081 -1.8342 -3.05345 0
M  V30 507 O 48.2671 -2.59572 -4.80921 0
M  V30 508 H 45.3611 -0.361154 -0.743974 0
M  V30 509 H 47.9071 -1.33554 -1.04697 0
M  V30 510 H 46.6791 -2.86346 -2.66687 0
M  V30 511 H 46.3021 -1.4856 -3.68803 0
M  V30 512 N 47.2992 1.18797 -1.03562 0
M  V30 513 C 48.5272 1.92599 -0.755869 0
M  V30 514 C 48.9422 1.75886 0.686271 0
M  V30 515 O 48.2992 1.08517 1.46732 0
M  V30 516 C 48.3502 3.44159 -1.10619 0
M  V30 517 O 48.0712 3.60341 -2.4917 0
M  V30 518 C 49.5722 4.3507 -0.850214 0
M  V30 519 H 46.7922 0.611587 -0.276048 0
M  V30 520 H 49.3362 1.50742 -1.38192 0
M  V30 521 H 47.4912 3.83823 -0.525194 0
M  V30 522 H 47.9052 4.54128 -2.62427 0
M  V30 523 H 49.3792 5.39989 -1.14523 0
M  V30 524 H 49.8562 4.38673 0.215176 0
M  V30 525 H 50.4622 4.01097 -1.41426 0
M  V30 526 N 48.7773 0.814389 1.34928 0
M  V30 527 C 50.0023 0.410097 2.03305 0
M  V30 528 C 50.4273 -0.973464 1.60951 0
M  V30 529 O 49.7853 -1.63185 0.789964 0
M  V30 530 C 49.8333 0.51049 3.56968 0
M  V30 531 O 48.9373 -0.473035 4.09678 0
M  V30 532 H 48.2783 0.170088 0.641846 0
M  V30 533 H 50.8083 1.10244 1.72358 0
M  V30 534 H 50.8183 0.383135 4.06197 0
M  V30 535 H 49.4933 1.51963 3.87144 0
M  V30 536 H 48.0703 -0.305272 3.71648 0
M  V30 537 N 50.2554 -1.46986 0.568584 0
M  V30 538 C 51.2024 -2.30153 -0.172707 0
M  V30 539 C 52.1724 -1.39759 -0.897586 0
M  V30 540 O 53.3574 -1.68716 -0.891044 0
M  V30 541 C 50.4974 -3.23952 -1.1895 0
M  V30 542 C 49.6104 -4.29441 -0.469517 0
M  V30 543 C 48.7454 -5.1038 -1.47259 0
M  V30 544 C 47.7844 -6.07632 -0.738225 0
M  V30 545 N 46.9214 -6.8149 -1.68868 0
M  V30 546 H 51.7614 -2.93019 0.542596 0
M  V30 547 H 49.2984 -1.44422 0.279401 0
M  V30 548 H 51.2564 -3.76767 -1.79173 0
M  V30 549 H 49.8864 -2.62926 -1.87269 0
M  V30 550 H 48.9384 -3.79594 0.247467 0
M  V30 551 H 50.2504 -4.98689 0.105241 0
M  V30 552 H 49.4044 -5.67402 -2.14803 0
M  V30 553 H 48.1434 -4.4106 -2.08128 0
M  V30 554 H 47.1484 -5.49778 -0.0489293 0
M  V30 555 H 48.3734 -6.78966 -0.135129 0
M  V30 556 H 46.3194 -6.14891 -2.28573 0
M  V30 557 H 46.2364 -7.46948 -1.16636 0
M  V30 558 H 47.5044 -7.43078 -2.3549 0
M  V30 559 N 51.7335 -0.305618 -1.54608 0
M  V30 560 C 52.6965 0.555591 -2.22364 0
M  V30 561 C 53.6965 1.05768 -1.21119 0
M  V30 562 O 54.8865 0.952972 -1.45822 0
M  V30 563 C 52.0185 1.76974 -2.91364 0
M  V30 564 H 53.2115 -0.0364572 -2.99878 0
M  V30 565 H 50.7645 -0.0565007 -1.56198 0
M  V30 566 H 51.4995 2.40151 -2.17941 0
M  V30 567 H 51.2845 1.41732 -3.65588 0
M  V30 568 H 52.7745 2.38148 -3.43038 0
M  V30 569 N 53.2116 1.57565 -0.0334293 0
M  V30 570 C 54.1436 2.0739 0.975811 0
M  V30 571 C 55.1566 0.998166 1.2861 0
M  V30 572 O 56.3456 1.27426 1.25 0
M  V30 573 C 53.4456 2.4871 2.30209 0
M  V30 574 C 52.6186 3.79413 2.17634 0
M  V30 575 C 51.6776 4.07237 3.33233 0
M  V30 576 O 50.7036 4.77425 3.09927 0
M  V30 577 N 51.9056 3.5775 4.5716 0
M  V30 578 H 54.6706 2.94598 0.55066 0
M  V30 579 H 52.2316 1.61173 0.15323 0
M  V30 580 H 54.2236 2.64413 3.06378 0
M  V30 581 H 52.7936 1.66845 2.64351 0
M  V30 582 H 52.0136 3.73465 1.26165 0
M  V30 583 H 53.3016 4.65038 2.0644 0
M  V30 584 H 52.6996 3.00976 4.78989 0
M  V30 585 H 51.2566 3.78724 5.30482 0
M  V30 586 N 54.6897 -0.239769 1.55765 0
M  V30 587 C 55.9377 -0.964892 1.77579 0
M  V30 588 C 56.2587 -1.85582 0.598699 0
M  V30 589 O 55.5287 -1.92075 -0.385226 0
M  V30 590 H 54.1087 -0.359265 0.654933 0
M  V30 591 H 56.7707 -0.256001 1.93211 0
M  V30 592 H 55.8667 -1.58243 2.69009 0
M  V30 593 N 56.1678 -1.49265 -0.50573 0
M  V30 594 C 57.0778 -1.68312 -1.63427 0
M  V30 595 C 58.0938 -0.565682 -1.64548 0
M  V30 596 O 59.2698 -0.839801 -1.83055 0
M  V30 597 C 56.3348 -1.74107 -2.99813 0
M  V30 598 C 55.3958 -2.97653 -3.09356 0
M  V30 599 C 54.6288 -3.03163 -4.39236 0
M  V30 600 O 54.8518 -2.16396 -5.27758 0
M  V30 601 O 53.7858 -3.9558 -4.53652 0
M  V30 602 H 57.6118 -2.63907 -1.50289 0
M  V30 603 H 55.1968 -1.32951 -0.681502 0
M  V30 604 H 57.0788 -1.803 -3.80881 0
M  V30 605 H 55.7538 -0.816901 -3.13223 0
M  V30 606 H 54.6608 -2.96981 -2.27493 0
M  V30 607 H 55.9938 -3.89535 -3.00871 0
M  V30 608 N 57.6459 0.756429 -1.3826 0
M  V30 609 C 58.5759 1.88374 -1.37976 0
M  V30 610 C 59.5569 1.68311 -0.246082 0
M  V30 611 O 60.7419 1.88944 -0.44874 0
M  V30 612 C 57.8719 3.25864 -1.20125 0
M  V30 613 C 56.8259 3.60523 -2.30666 0
M  V30 614 C 56.1519 4.9672 -1.97923 0
M  V30 615 C 57.4519 3.65692 -3.72916 0
M  V30 616 H 59.1459 1.88869 -2.32312 0
M  V30 617 H 56.6919 0.907272 -1.11824 0
M  V30 618 H 58.6449 4.0438 -1.18552 0
M  V30 619 H 57.3689 3.25841 -0.222498 0
M  V30 620 H 56.0279 2.84324 -2.3142 0
M  V30 621 H 55.6759 4.93253 -0.985393 0
M  V30 622 H 55.3759 5.20878 -2.71955 0
M  V30 623 H 56.8999 5.77618 -1.97964 0
M  V30 624 H 58.3139 4.34328 -3.74208 0
M  V30 625 H 56.7109 4.01358 -4.4613 0
M  V30 626 H 57.7809 2.65987 -4.05436 0
M  V30 627 N 59.124 1.23083 0.984299 0
M  V30 628 C 60.372 1.05848 1.72165 0
M  V30 629 C 60.693 -0.406049 1.90726 0
M  V30 630 O 59.963 -1.29139 1.47309 0
M  V30 631 H 58.543 0.388685 0.637913 0
M  V30 632 H 61.205 1.54736 1.18503 0
M  V30 633 H 60.301 1.54327 2.71274 0
M  V30 634 N 60.6021 -1.18246 1.0419 0
M  V30 635 C 61.8481 -1.88793 0.75689 0
M  V30 636 C 62.2031 -1.78909 -0.707767 0
M  V30 637 O 61.4961 -1.1794 -1.50999 0
M  V30 638 C 61.6901 -3.38082 1.15911 0
M  V30 639 C 61.5191 -3.62496 2.66133 0
M  V30 640 C 60.2891 -3.7979 3.33298 0
M  V30 641 C 62.4871 -3.62976 3.64353 0
M  V30 642 N 60.4691 -3.91955 4.72487 0
M  V30 643 C 61.8401 -3.80869 4.89222 0
M  V30 644 C 63.8951 -3.46071 3.57965 0
M  V30 645 C 62.5981 -3.83608 6.08471 0
M  V30 646 C 64.6241 -3.50093 4.76643 0
M  V30 647 C 63.9861 -3.68484 6.00332 0
M  V30 648 H 60.0851 -0.709406 0.32904 0
M  V30 649 H 62.6691 -1.42022 1.33183 0
M  V30 650 H 60.8401 -3.83544 0.612238 0
M  V30 651 H 62.5721 -3.96202 0.824989 0
M  V30 652 H 59.3271 -3.79224 2.83701 0
M  V30 653 H 59.7511 -4.01857 5.44831 0
M  V30 654 H 64.3931 -3.30797 2.63311 0
M  V30 655 H 62.1111 -3.97669 7.0348 0
M  V30 656 H 65.6971 -3.38285 4.73344 0
M  V30 657 H 64.5771 -3.71488 6.90627 0
M  V30 658 N 62.0802 -0.821533 -1.34494 0
M  V30 659 C 63.0102 -0.257138 -2.3208 0
M  V30 660 C 63.9912 0.625645 -1.58176 0
M  V30 661 O 65.1762 0.552811 -1.86166 0
M  V30 662 C 62.3062 0.582958 -3.42372 0
M  V30 663 C 61.2602 -0.202571 -4.2752 0
M  V30 664 C 60.5862 0.760179 -5.29269 0
M  V30 665 C 61.8862 -1.40998 -5.02908 0
M  V30 666 H 63.5802 -1.07247 -2.79532 0
M  V30 667 H 61.1262 -0.517163 -1.34393 0
M  V30 668 H 63.0792 0.987972 -4.09655 0
M  V30 669 H 61.8032 1.43133 -2.93565 0
M  V30 670 H 60.4622 -0.588936 -3.61838 0
M  V30 671 H 60.1102 1.60447 -4.76724 0
M  V30 672 H 59.8102 0.238809 -5.87115 0
M  V30 673 H 61.3342 1.16308 -5.9942 0
M  V30 674 H 62.7482 -1.07905 -5.63054 0
M  V30 675 H 61.1452 -1.86689 -5.70322 0
M  V30 676 H 62.2152 -2.1889 -4.32684 0
M  V30 677 N 63.5583 1.46682 -0.576371 0
M  V30 678 C 64.4883 2.33028 0.148397 0
M  V30 679 C 65.4693 1.44961 0.889956 0
M  V30 680 O 66.6543 1.73789 0.866662 0
M  V30 681 C 63.7843 3.27117 1.1667 0
M  V30 682 C 62.7383 4.24575 0.540386 0
M  V30 683 C 62.0643 5.08126 1.6647 0
M  V30 684 C 63.3643 5.19722 -0.518331 0
M  V30 685 H 65.0583 2.93875 -0.572509 0
M  V30 686 H 62.6043 1.41315 -0.276768 0
M  V30 687 H 64.5573 3.86374 1.68204 0
M  V30 688 H 63.2813 2.64364 1.9178 0
M  V30 689 H 61.9403 3.66571 0.0461769 0
M  V30 690 H 61.5883 4.41762 2.40531 0
M  V30 691 H 61.2883 5.74122 1.25131 0
M  V30 692 H 62.8123 5.70246 2.18293 0
M  V30 693 H 64.2263 5.73232 -0.0883058 0
M  V30 694 H 62.6233 5.94026 -0.851679 0
M  V30 695 H 63.6933 4.64037 -1.40703 0
M  V30 696 N 65.0364 0.313813 1.54444 0
M  V30 697 C 66.3134 -0.345447 1.92525 0
M  V30 698 C 66.6934 -1.70667 1.24242 0
M  V30 699 O 66.0414 -2.25273 0.382654 0
M  V30 700 C 66.2514 -0.44737 3.46121 0
M  V30 701 C 67.5994 -0.712238 4.18584 0
M  V30 702 O 68.6234 -0.530678 3.52225 0
M  V30 703 O 67.4824 -1.06183 5.36085 0
M  V30 704 H 64.5764 -0.195407 0.803583 0
M  V30 705 H 67.1224 0.362813 1.65776 0
M  V30 706 H 65.8944 0.509043 3.87975 0
M  V30 707 H 65.5174 -1.20359 3.78945 0
M  V30 708 N 66.5145 -1.57545 0.0417849 0
M  V30 709 C 67.9255 -1.80011 -0.495259 0
M  V30 710 C 68.2765 -0.953199 -1.71489 0
M  V30 711 O 67.4015 -0.167138 -2.15754 0
M  V30 712 C 67.9965 -3.26482 -0.905265 0
M  V30 713 C 66.5555 -3.499 -1.38734 0
M  V30 714 C 65.7025 -2.74979 -0.358056 0
M  V30 715 H 68.6535 -1.56425 0.267736 0
M  V30 716 H 68.6745 -3.36887 -1.76882 0
M  V30 717 H 68.1865 -3.88096 -0.017401 0
M  V30 718 H 66.2875 -2.93553 -2.29471 0
M  V30 719 H 66.4005 -4.58615 -1.38598 0
M  V30 720 H 64.7645 -2.40834 -0.828912 0
M  V30 721 H 65.5475 -3.39315 0.521561 0
M  V30 722 N 67.9926 0.231505 -1.5589 0
M  V30 723 C 69.4036 0.799327 -1.68724 0
M  V30 724 C 69.7546 1.85398 -0.642022 0
M  V30 725 O 68.8796 2.1539 0.208784 0
M  V30 726 C 69.4746 1.45664 -3.05888 0
M  V30 727 C 68.0336 1.97197 -3.20609 0
M  V30 728 C 67.1806 0.828552 -2.64632 0
M  V30 729 H 70.1316 0.00702616 -1.58698 0
M  V30 730 H 70.1526 2.32517 -3.01191 0
M  V30 731 H 69.6646 0.688808 -3.81939 0
M  V30 732 H 67.7656 2.76813 -2.4941 0
M  V30 733 H 67.8786 2.15878 -4.27707 0
M  V30 734 H 66.2426 1.23321 -2.22854 0
M  V30 735 H 67.0256 0.0735544 -3.43221 0
M  V30 736 N 69.4707 1.49531 0.497807 0
M  V30 737 C 70.4177 1.66436 1.59899 0
M  V30 738 C 71.3877 0.505793 1.58212 0
M  V30 739 O 72.5727 0.733202 1.7615 0
M  V30 740 C 69.7127 1.7399 2.98029 0
M  V30 741 C 68.8257 3.01172 3.09708 0
M  V30 742 C 67.9607 2.99686 4.38591 0
M  V30 743 C 66.9997 4.21434 4.43914 0
M  V30 744 N 66.1367 4.1784 5.64229 0
M  V30 745 H 70.9767 2.60459 1.44793 0
M  V30 746 H 68.5137 1.29137 0.704423 0
M  V30 747 H 70.4717 1.76352 3.78095 0
M  V30 748 H 69.1017 0.834301 3.11832 0
M  V30 749 H 68.1537 3.08408 2.22685 0
M  V30 750 H 69.4657 3.91165 3.09502 0
M  V30 751 H 68.6197 3.00628 5.2698 0
M  V30 752 H 67.3587 2.07477 4.41367 0
M  V30 753 H 66.3637 4.20733 3.53926 0
M  V30 754 H 67.5887 5.14839 4.42851 0
M  V30 755 H 65.5347 3.28469 5.67841 0
M  V30 756 H 65.4517 5.01571 5.65652 0
M  V30 757 H 66.7197 4.22889 6.54817 0
M  V30 758 N 70.9488 -0.749086 1.3866 0
M  V30 759 C 72.2258 -1.4992 1.25632 0
M  V30 760 C 72.6058 -2.10633 -0.140317 0
M  V30 761 O 71.9538 -1.97437 -1.15025 0
M  V30 762 C 72.1638 -2.56195 2.36992 0
M  V30 763 C 73.5118 -3.22972 2.75634 0
M  V30 764 O 74.5358 -2.66502 2.36337 0
M  V30 765 O 73.3948 -4.25122 3.43415 0
M  V30 766 H 70.4888 -0.665067 0.491544 0
M  V30 767 H 73.0348 -0.784113 1.50498 0
M  V30 768 H 71.8068 -2.09612 3.30422 0
M  V30 769 H 71.4298 -3.35279 2.13714 0
M  V30 770 N 72.4269 -1.23603 -0.977757 0
M  V30 771 C 73.6749 -1.06759 -1.71601 0
M  V30 772 C 73.9959 0.395929 -1.90938 0
M  V30 773 O 73.2659 1.28356 -1.47992 0
M  V30 774 H 71.8459 -0.392062 -0.635843 0
M  V30 775 H 74.5079 -1.55362 -1.1768 0
M  V30 776 H 73.6039 -1.55763 -2.70452 0
M  V30 777 N 73.905 1.17692 -1.04816 0
M  V30 778 C 75.151 1.88389 -0.766892 0
M  V30 779 C 75.506 1.79282 0.698269 0
M  V30 780 O 74.799 1.18739 1.50372 0
M  V30 781 C 74.993 3.37462 -1.17703 0
M  V30 782 C 74.822 3.6108 -2.68051 0
M  V30 783 C 73.592 3.78018 -3.35307 0
M  V30 784 C 75.79 3.61039 -3.66273 0
M  V30 785 N 73.772 3.89444 -4.74559 0
M  V30 786 C 75.143 3.78269 -4.91235 0
M  V30 787 C 77.198 3.44168 -3.59796 0
M  V30 788 C 75.901 3.80376 -6.10497 0
M  V30 789 C 77.927 3.4756 -4.78493 0
M  V30 790 C 77.289 3.65295 -6.02278 0
M  V30 791 H 73.388 0.707651 -0.332798 0
M  V30 792 H 75.972 1.41314 -1.33934 0
M  V30 793 H 74.143 3.83214 -0.63257 0
M  V30 794 H 75.875 3.95759 -0.845989 0
M  V30 795 H 72.63 3.77714 -2.85708 0
M  V30 796 H 73.054 3.98962 -5.46954 0
M  V30 797 H 77.696 3.29396 -2.65062 0
M  V30 798 H 75.414 3.93933 -7.05579 0
M  V30 799 H 79 3.3577 -4.75131 0
M  V30 800 H 77.88 3.6782 -6.92588 0
M  V30 801 N 75.3831 0.828654 1.34056 0
M  V30 802 C 76.6081 0.431637 2.02859 0
M  V30 803 C 77.0331 -0.956339 1.61975 0
M  V30 804 O 76.3911 -1.62338 0.807228 0
M  V30 805 C 76.4391 0.548323 3.56407 0
M  V30 806 O 75.5431 -0.429556 4.10157 0
M  V30 807 H 74.8841 0.176886 0.640006 0
M  V30 808 H 77.4141 1.12066 1.71179 0
M  V30 809 H 77.4241 0.426196 4.05768 0
M  V30 810 H 76.0991 1.5606 3.8551 0
M  V30 811 H 74.6761 -0.265836 3.71951 0
M  V30 812 N 76.8612 -1.46375 0.584142 0
M  V30 813 C 77.7712 -2.34115 -0.150728 0
M  V30 814 C 78.7872 -1.49838 -0.884567 0
M  V30 815 O 79.9632 -1.82704 -0.847429 0
M  V30 816 C 77.0282 -3.2705 -1.15062 0
M  V30 817 C 76.0892 -4.27228 -0.421293 0
M  V30 818 C 75.3222 -5.15722 -1.37355 0
M  V30 819 O 75.5452 -5.07176 -2.61014 0
M  V30 820 O 74.4792 -5.95383 -0.883355 0
M  V30 821 H 78.3052 -2.98309 0.569708 0
M  V30 822 H 75.8902 -1.45373 0.344535 0
M  V30 823 H 77.7722 -3.84381 -1.72712 0
M  V30 824 H 76.4472 -2.65451 -1.8525 0
M  V30 825 H 75.3542 -3.7358 0.197085 0
M  V30 826 H 76.6872 -4.91616 0.239641 0
M  V30 827 N 78.3393 -0.321999 -1.54275 0
M  V30 828 C 79.2713 0.578671 -2.21775 0
M  V30 829 C 80.2843 1.08109 -1.21722 0
M  V30 830 O 81.4733 0.994938 -1.482 0
M  V30 831 C 78.5733 1.80661 -2.86731 0
M  V30 832 C 77.7463 1.44314 -4.12907 0
M  V30 833 C 76.8053 2.52845 -4.61472 0
M  V30 834 O 75.8313 2.17054 -5.2619 0
M  V30 835 N 77.0333 3.83748 -4.35566 0
M  V30 836 H 79.7983 0.000709447 -2.997 0
M  V30 837 H 77.3593 -0.145132 -1.61248 0
M  V30 838 H 79.3513 2.52655 -3.16145 0
M  V30 839 H 77.9213 2.29245 -2.12521 0
M  V30 840 H 77.1413 0.554906 -3.90275 0
M  V30 841 H 78.4293 1.17598 -4.95023 0
M  V30 842 H 77.8273 4.15625 -3.83761 0
M  V30 843 H 76.3843 4.51977 -4.69638 0
M  V30 844 N 79.8174 1.5752 -0.0501392 0
M  V30 845 C 80.7494 2.08413 0.95376 0
M  V30 846 C 81.7624 1.01175 1.27544 0
M  V30 847 O 82.9514 1.28744 1.23641 0
M  V30 848 C 80.0514 2.51138 2.27559 0
M  V30 849 C 79.2244 3.817 2.13598 0
M  V30 850 C 78.2834 4.10749 3.28895 0
M  V30 851 O 77.3094 4.80685 3.04845 0
M  V30 852 N 78.5114 3.62579 4.5334 0
M  V30 853 H 81.2764 2.95165 0.519383 0
M  V30 854 H 78.8374 1.61327 0.136127 0
M  V30 855 H 80.8294 2.67648 3.03557 0
M  V30 856 H 79.3994 1.6964 2.62567 0
M  V30 857 H 78.6194 3.74782 1.22197 0
M  V30 858 H 79.9074 4.67201 2.01496 0
M  V30 859 H 79.3054 3.06039 4.75769 0
M  V30 860 H 77.8624 3.84329 5.26436 0
M  V30 861 N 81.2955 -0.223234 1.56011 0
M  V30 862 C 82.2275 -1.30006 1.88762 0
M  V30 863 C 83.2405 -1.43129 0.775746 0
M  V30 864 O 84.4295 -1.44057 1.05403 0
M  V30 865 C 81.5295 -2.67589 2.07965 0
M  V30 866 C 80.7025 -2.76434 3.38973 0
M  V30 867 C 79.7615 -3.95019 3.47629 0
M  V30 868 O 78.7875 -3.83436 4.20672 0
M  V30 869 N 79.9895 -5.09249 2.78649 0
M  V30 870 H 82.7545 -1.02238 2.81722 0
M  V30 871 H 80.3155 -0.413278 1.56536 0
M  V30 872 H 82.3075 -3.45297 2.11073 0
M  V30 873 H 80.8775 -2.87964 1.21638 0
M  V30 874 H 80.0975 -1.85216 3.47978 0
M  V30 875 H 81.3855 -2.79313 4.25278 0
M  V30 876 H 80.7835 -5.21556 2.19081 0
M  V30 877 H 79.3405 -5.85007 2.8742 0
M  V30 878 N 82.7736 -1.49793 -0.48987 0
M  V30 879 C 84.0226 -1.59085 -1.23995 0
M  V30 880 C 84.3356 -0.287907 -1.9347 0
M  V30 881 O 85.5416 -0.259506 -2.70257 0
M  V30 882 C 83.9976 -2.80736 -2.252 0
M  V30 883 C 83.6056 -4.17833 -1.61614 0
M  V30 884 C 85.3496 -2.99364 -3.00967 0
M  V30 885 C 83.2566 -5.30693 -2.60996 0
M  V30 886 H 82.1866 -0.592372 -0.466488 0
M  V30 887 H 84.8376 -1.76197 -0.51252 0
M  V30 888 H 83.2196 -2.57142 -3.01154 0
M  V30 889 H 84.3936 -4.51608 -0.915774 0
M  V30 890 H 82.7086 -4.04656 -0.981977 0
M  V30 891 H 85.3056 -3.80851 -3.75308 0
M  V30 892 H 85.6486 -2.10356 -3.59244 0
M  V30 893 H 86.1816 -3.2305 -2.32128 0
M  V30 894 H 82.9206 -6.21796 -2.07485 0
M  V30 895 H 82.4406 -5.01359 -3.2924 0
M  V30 896 H 84.1196 -5.6049 -3.23202 0
M  V30 897 N 84.2517 0.741722 -1.39055 0
M  V30 898 C 85.1817 1.869 -1.39966 0
M  V30 899 C 86.1627 1.6804 -0.26392 0
M  V30 900 O 87.3477 1.88458 -0.468755 0
M  V30 901 C 84.4777 3.24572 -1.23574 0
M  V30 902 C 83.4317 3.58056 -2.34477 0
M  V30 903 C 82.7577 4.94593 -2.0318 0
M  V30 904 C 84.0577 3.61716 -3.76774 0
M  V30 905 H 85.7517 1.86395 -2.34302 0
M  V30 906 H 83.2977 0.895361 -1.1278 0
M  V30 907 H 85.2507 4.031 -1.22834 0
M  V30 908 H 83.9747 3.25587 -0.257045 0
M  V30 909 H 82.6337 2.81854 -2.34423 0
M  V30 910 H 82.2817 4.92181 -1.03765 0
M  V30 911 H 81.9817 5.17964 -2.77465 0
M  V30 912 H 83.5057 5.75486 -2.04079 0
M  V30 913 H 84.9197 4.30335 -3.78794 0
M  V30 914 H 83.3167 3.96603 -4.50362 0
M  V30 915 H 84.3867 2.61672 -4.08235 0
M  V30 916 N 85.7298 1.2412 0.971189 0
M  V30 917 C 86.6778 1.02812 2.08644 0
M  V30 918 C 87.6718 -0.0358403 1.69362 0
M  V30 919 O 88.8778 0.118429 1.7961 0
M  V30 920 H 85.2528 0.315428 0.682649 0
M  V30 921 H 87.2238 1.97397 2.23779 0
M  V30 922 C 85.9728 0.645874 3.41649 0
M  V30 923 H 85.2958 1.45632 3.72332 0
M  V30 924 H 86.7358 0.536366 4.20594 0
M  V30 925 C 85.1948 -0.646713 3.30635 0
M  V30 926 O 85.7248 -1.69338 3.64263 0
M  V30 927 N 83.9308 -0.626115 2.83775 0
M  V30 928 H 83.4778 0.225988 2.56607 0
M  V30 929 H 83.4358 -1.49117 2.76788 0
M  V30 930 N 87.2079 -1.17134 1.05439 0
M  V30 931 C 88.4559 -1.87085 0.764429 0
M  V30 932 C 88.7769 -1.81584 -0.710787 0
M  V30 933 O 88.0469 -1.24349 -1.51374 0
M  V30 934 H 86.6269 -0.692627 0.279779 0
M  V30 935 H 89.2889 -1.42087 1.33406 0
M  V30 936 H 88.3849 -2.92759 1.0816 0
M  V30 937 N 88.686 -0.835752 -1.33615 0
M  V30 938 C 89.914 -0.443344 -2.02094 0
M  V30 939 C 90.329 0.954522 -1.62894 0
M  V30 940 O 89.686 1.61982 -0.840723 0
M  V30 941 C 89.737 -0.550775 -3.5728 0
M  V30 942 O 89.458 -1.89356 -3.95065 0
M  V30 943 C 90.959 -0.154919 -4.43029 0
M  V30 944 H 88.179 -0.176359 -0.647409 0
M  V30 945 H 90.723 -1.12746 -1.70612 0
M  V30 946 H 88.878 0.0853997 -3.87306 0
M  V30 947 H 89.292 -1.87687 -4.89769 0
M  V30 948 H 90.766 -0.281144 -5.51284 0
M  V30 949 H 91.243 0.902863 -4.2982 0
M  V30 950 H 91.849 -0.765404 -4.18356 0
M  V30 951 N 90.1641 1.46063 -0.591896 0
M  V30 952 C 91.5751 1.85944 -0.167822 0
M  V30 953 C 91.9261 1.49429 1.27143 0
M  V30 954 O 91.0511 0.913515 1.96173 0
M  V30 955 C 91.6461 3.37489 -0.297794 0
M  V30 956 C 90.2051 3.76332 0.0714732 0
M  V30 957 C 89.3521 2.7006 -0.629509 0
M  V30 958 H 92.3031 1.37087 -0.799555 0
M  V30 959 H 92.3241 3.77532 0.474349 0
M  V30 960 H 91.8361 3.64034 -1.3454 0
M  V30 961 H 89.9371 3.55405 1.11886 0
M  V30 962 H 90.0501 4.78088 -0.311245 0
M  V30 963 H 88.4141 2.54607 -0.0687867 0
M  V30 964 H 89.1971 2.99444 -1.67894 0
M  V30 965 N 91.6422 0.330177 1.54103 0
M  V30 966 C 92.5722 -0.525353 2.27513 0
M  V30 967 C 93.5532 -1.11383 1.2856 0
M  V30 968 O 94.7382 -1.13773 1.57383 0
M  V30 969 C 91.8682 -1.6831 3.03791 0
M  V30 970 C 90.8222 -1.2236 4.10137 0
M  V30 971 C 90.1482 -2.46882 4.74293 0
M  V30 972 C 91.4482 -0.333697 5.21233 0
M  V30 973 H 93.1422 0.087013 2.99274 0
M  V30 974 H 90.6882 0.0432893 1.43935 0
M  V30 975 H 92.6412 -2.28795 3.5388 0
M  V30 976 H 91.3652 -2.32216 2.29659 0
M  V30 977 H 90.0242 -0.64165 3.60941 0
M  V30 978 H 89.6722 -3.09165 3.96769 0
M  V30 979 H 89.3722 -2.16825 5.46133 0
M  V30 980 H 90.8962 -3.08117 5.27159 0
M  V30 981 H 92.3102 -0.845013 5.67038 0
M  V30 982 H 90.7072 -0.125612 5.99969 0
M  V30 983 H 91.7772 0.633724 4.80741 0
M  V30 984 N 93.1203 -1.57491 0.0584922 0
M  V30 985 C 94.3503 -1.9701 -0.622134 0
M  V30 986 C 94.7583 -0.935034 -1.6448 0
M  V30 987 O 94.1013 0.0882904 -1.83488 0
M  V30 988 C 94.1633 -3.32794 -1.35972 0
M  V30 989 C 93.8273 -4.54343 -0.492043 0
M  V30 990 C 94.8243 -5.19323 0.244901 0
M  V30 991 C 92.5093 -5.00534 -0.420821 0
M  V30 992 C 94.5033 -6.28835 1.04143 0
M  V30 993 C 92.1903 -6.09921 0.379389 0
M  V30 994 C 93.1883 -6.73933 1.10919 0
M  V30 995 O 92.8763 -7.81216 1.89623 0
M  V30 996 H 92.6083 -0.653127 -0.174359 0
M  V30 997 H 95.1623 -2.05029 0.123418 0
M  V30 998 H 93.3923 -3.21351 -2.15105 0
M  V30 999 H 95.0813 -3.5701 -1.93129 0
M  V30 1000 H 95.8473 -4.8459 0.19939 0
M  V30 1001 H 91.7263 -4.50496 -0.978474 0
M  V30 1002 H 95.2703 -6.7873 1.61157 0
M  V30 1003 H 91.1673 -6.44089 0.426512 0
M  V30 1004 H 91.9353 -7.98029 1.81913 0
M  V30 1005 N 94.5984 0.214957 -1.56127 0
M  V30 1006 C 95.5314 1.29382 -1.87977 0
M  V30 1007 C 96.5094 1.44897 -0.737807 0
M  V30 1008 O 97.6934 1.60605 -0.986833 0
M  V30 1009 C 94.8204 2.66325 -2.09258 0
M  V30 1010 C 93.8664 2.67789 -3.31951 0
M  V30 1011 S 94.6994 2.21198 -4.8768 0
M  V30 1012 C 95.8554 3.60003 -5.12004 0
M  V30 1013 H 96.0884 1.02173 -2.79192 0
M  V30 1014 H 93.6214 0.417516 -1.48648 0
M  V30 1015 H 95.5794 3.45162 -2.22201 0
M  V30 1016 H 94.2404 2.90755 -1.18829 0
M  V30 1017 H 93.4334 3.68436 -3.43906 0
M  V30 1018 H 93.0354 1.9702 -3.17898 0
M  V30 1019 H 95.3274 4.55739 -5.01307 0
M  V30 1020 H 96.2704 3.52959 -6.13861 0
M  V30 1021 H 96.6784 3.53996 -4.39712 0
M  V30 1022 N 96.0765 1.50051 0.48192 0
M  V30 1023 C 97.3065 1.63999 1.2565 0
M  V30 1024 C 97.7145 0.318288 1.86504 0
M  V30 1025 O 97.0575 -0.708534 1.69486 0
M  V30 1026 C 97.1195 2.66504 2.4128 0
M  V30 1027 C 96.7835 4.10352 2.01148 0
M  V30 1028 C 97.7805 4.96562 1.54021 0
M  V30 1029 C 95.4655 4.56203 2.10199 0
M  V30 1030 C 97.4595 6.26668 1.16473 0
M  V30 1031 C 95.1465 5.86318 1.72264 0
M  V30 1032 C 96.1445 6.71375 1.25477 0
M  V30 1033 O 95.8325 7.99062 0.880626 0
M  V30 1034 H 95.5645 0.55456 0.386574 0
M  V30 1035 H 98.1185 1.96954 0.582944 0
M  V30 1036 H 96.3485 2.28769 3.11772 0
M  V30 1037 H 98.0375 2.69783 3.03268 0
M  V30 1038 H 98.8035 4.62358 1.46458 0
M  V30 1039 H 94.6825 3.90152 2.45566 0
M  V30 1040 H 98.2265 6.93011 0.798841 0
M  V30 1041 H 94.1235 6.20046 1.79482 0
M  V30 1042 H 94.8915 8.12239 1.01043 0
M  V30 1043 N 97.5546 -0.734337 1.39446 0
M  V30 1044 C 98.4866 -1.85861 1.34121 0
M  V30 1045 C 99.4996 -1.60871 0.249864 0
M  V30 1046 O 100.689 -1.71093 0.508865 0
M  V30 1047 C 97.7886 -3.21899 1.05991 0
M  V30 1048 C 96.9616 -3.74239 2.26415 0
M  V30 1049 C 96.0206 -4.88841 1.94733 0
M  V30 1050 O 95.0466 -5.02468 2.67422 0
M  V30 1051 N 96.2486 -5.73261 0.913884 0
M  V30 1052 H 99.0136 -1.90934 2.31007 0
M  V30 1053 H 96.5746 -0.915102 1.33557 0
M  V30 1054 H 98.5666 -3.96136 0.828147 0
M  V30 1055 H 97.1366 -3.12091 0.178361 0
M  V30 1056 H 96.3566 -2.91347 2.65539 0
M  V30 1057 H 97.6446 -4.05942 3.06738 0
M  V30 1058 H 97.0426 -5.64842 0.311476 0
M  V30 1059 H 95.5996 -6.47563 0.742015 0
M  V30 1060 N 99.0327 -1.24633 -0.964593 0
M  V30 1061 C 100.31 -0.995809 -1.68354 0
M  V30 1062 C 100.69 0.480964 -2.05548 0
M  V30 1063 O 100.038 1.45599 -1.76105 0
M  V30 1064 C 100.248 -1.92177 -2.91323 0
M  V30 1065 C 101.596 -2.19446 -3.63495 0
M  V30 1066 O 102.62 -1.89855 -3.01386 0
M  V30 1067 O 101.479 -2.69714 -4.75307 0
M  V30 1068 H 98.5727 -0.376854 -0.736146 0
M  V30 1069 H 101.119 -1.35745 -1.0184 0
M  V30 1070 H 99.8907 -2.91938 -2.60553 0
M  V30 1071 H 99.5137 -1.56349 -3.65569 0
M  V30 1072 N 100.511 1.16574 -1.06058 0
M  V30 1073 C 101.751 1.88723 -0.78504 0
M  V30 1074 C 102.115 1.79706 0.676006 0
M  V30 1075 O 103.316 2.46757 1.06603 0
M  V30 1076 C 101.587 3.34338 -1.26304 0
M  V30 1077 S 103.146 4.24366 -1.1162 0
M  V30 1078 H 99.9638 0.651448 -0.284846 0
M  V30 1079 H 102.566 1.40732 -1.35701 0
M  V30 1080 H 101.27 3.38439 -2.32136 0
M  V30 1081 H 100.801 3.87378 -0.685719 0
M  V30 1082 H 102.816 4.96179 -0.0456539 0
M  V30 1083 N 101.989 0.842826 1.3317 0
M  V30 1084 C 103.4 0.496651 1.79973 0
M  V30 1085 C 103.751 -0.984641 1.69703 0
M  V30 1086 O 102.876 -1.76743 1.24863 0
M  V30 1087 C 103.471 0.894727 3.26772 0
M  V30 1088 C 102.03 0.600629 3.71577 0
M  V30 1089 C 101.177 1.10091 2.5451 0
M  V30 1090 H 104.128 1.03116 1.20635 0
M  V30 1091 H 104.149 0.206347 3.7994 0
M  V30 1092 H 103.661 1.97287 3.34215 0
M  V30 1093 H 101.762 -0.467284 3.69658 0
M  V30 1094 H 101.875 1.15863 4.64879 0
M  V30 1095 H 100.239 0.52162 2.49301 0
M  V30 1096 H 101.022 2.18591 2.64713 0
M  V30 1097 N 103.467 -1.45747 0.599634 0
M  V30 1098 C 104.4 -2.27547 -0.172552 0
M  V30 1099 C 105.378 -1.36657 -0.881116 0
M  V30 1100 O 106.562 -1.66081 -0.891595 0
M  V30 1101 C 103.689 -3.14829 -1.24903 0
M  V30 1102 C 102.735 -4.21603 -0.644465 0
M  V30 1103 S 103.568 -5.32754 0.541606 0
M  V30 1104 C 104.724 -6.23604 -0.535656 0
M  V30 1105 H 104.957 -2.92691 0.521468 0
M  V30 1106 H 102.49 -1.49473 0.386947 0
M  V30 1107 H 104.448 -3.65675 -1.86527 0
M  V30 1108 H 103.109 -2.48965 -1.91508 0
M  V30 1109 H 102.302 -4.82566 -1.45417 0
M  V30 1110 H 101.904 -3.73857 -0.103534 0
M  V30 1111 H 104.196 -6.62519 -1.41686 0
M  V30 1112 H 105.139 -7.0809 0.0376246 0
M  V30 1113 H 105.547 -5.58103 -0.84741 0
M  V30 1114 N 104.945 -0.338344 -1.53925 0
M  V30 1115 C 105.877 0.555117 -2.22376 0
M  V30 1116 C 106.89 1.06812 -1.22862 0
M  V30 1117 O 108.079 0.979163 -1.49247 0
M  V30 1118 C 105.179 1.77609 -2.88631 0
M  V30 1119 C 104.352 1.39927 -4.14414 0
M  V30 1120 C 103.411 2.47936 -4.64127 0
M  V30 1121 O 102.437 2.11461 -5.28463 0
M  V30 1122 N 103.639 3.79107 -4.39612 0
M  V30 1123 H 106.404 -0.0310778 -2.99684 0
M  V30 1124 H 103.965 -0.162226 -1.61085 0
M  V30 1125 H 105.957 2.49287 -3.18807 0
M  V30 1126 H 104.527 2.26978 -2.14941 0
M  V30 1127 H 103.747 0.513481 -3.90841 0
M  V30 1128 H 105.035 1.12341 -4.96243 0
M  V30 1129 H 104.433 4.11531 -3.88148 0
M  V30 1130 H 102.99 4.4697 -4.74406 0
M  V30 1131 N 106.423 1.57458 -0.0668435 0
M  V30 1132 C 107.671 1.92919 0.602214 0
M  V30 1133 C 107.992 0.947215 1.70449 0
M  V30 1134 O 107.262 -0.00544117 1.95899 0
M  V30 1135 H 105.842 0.71217 0.22544 0
M  V30 1136 H 108.504 1.94508 -0.123535 0
M  V30 1137 H 107.6 2.94589 1.03073 0
M  V30 1138 N 107.901 -0.206675 1.56239 0
M  V30 1139 C 109.317 -0.557025 1.49564 0
M  V30 1140 C 109.517 -1.86424 0.764735 0
M  V30 1141 O 108.573 -2.50584 0.310491 0
M  V30 1142 C 109.886 -0.622478 2.94186 0
M  V30 1143 C 111.434 -0.712099 3.04792 0
M  V30 1144 C 111.909 -0.808767 4.50803 0
M  V30 1145 N 113.4 -0.8726 4.54907 0
M  V30 1146 C 114.135 -0.967365 5.65181 0
M  V30 1147 N 113.631 -1.02515 6.85173 0
M  V30 1148 N 115.424 -1.00366 5.53067 0
M  V30 1149 H 107.575 0.650943 2.02179 0
M  V30 1150 H 109.838 0.230387 0.919579 0
M  V30 1151 H 109.544 0.268727 3.50672 0
M  V30 1152 H 109.418 -1.4811 3.46905 0
M  V30 1153 H 111.805 -1.59374 2.48363 0
M  V30 1154 H 111.886 0.172489 2.55218 0
M  V30 1155 H 111.53 0.0684754 5.07854 0
M  V30 1156 H 111.46 -1.70899 4.98098 0
M  V30 1157 H 113.951 -0.837657 3.68499 0
M  V30 1158 H 114.264 -1.09765 7.64965 0
M  V30 1159 H 112.609 -0.994026 6.87855 0
M  V30 1160 H 115.8 -0.95527 4.58249 0
M  V30 1161 H 115.973 -1.07405 6.39037 0
M  V30 1162 N 109.379 -1.50304 -0.473955 0
M  V30 1163 C 110.795 -1.37667 -0.807466 0
M  V30 1164 C 110.995 -0.430555 -1.96846 0
M  V30 1165 O 110.051 0.127874 -2.52176 0
M  V30 1166 C 111.364 -2.78974 -1.12223 0
M  V30 1167 C 112.912 -2.87868 -1.22885 0
M  V30 1168 C 113.387 -4.30003 -1.57676 0
M  V30 1169 N 114.878 -4.3294 -1.64673 0
M  V30 1170 C 115.613 -5.3991 -1.93091 0
M  V30 1171 N 115.109 -6.57092 -2.1955 0
M  V30 1172 N 116.902 -5.27351 -1.94569 0
M  V30 1173 H 109.053 -2.10394 0.291212 0
M  V30 1174 H 111.316 -0.945575 0.0677609 0
M  V30 1175 H 111.022 -3.50031 -0.342229 0
M  V30 1176 H 110.896 -3.16038 -2.05913 0
M  V30 1177 H 113.283 -2.17032 -1.99953 0
M  V30 1178 H 113.364 -2.54352 -0.271814 0
M  V30 1179 H 113.008 -5.01375 -0.81149 0
M  V30 1180 H 112.938 -4.61004 -2.54525 0
M  V30 1181 H 115.429 -3.48441 -1.46277 0
M  V30 1182 H 115.742 -7.34425 -2.405 0
M  V30 1183 H 114.087 -6.60272 -2.16948 0
M  V30 1184 H 117.278 -4.34801 -1.73394 0
M  V30 1185 H 117.451 -6.10805 -2.16381 0
M  V30 1186 N 110.857 0.726932 -1.39834 0
M  V30 1187 C 112.134 1.47902 -1.28001 0
M  V30 1188 C 112.514 2.1083 0.106789 0
M  V30 1189 O 111.862 1.99242 1.11869 0
M  V30 1190 C 112.072 2.52392 -2.41038 0
M  V30 1191 C 113.42 3.18546 -2.80737 0
M  V30 1192 O 114.444 2.62708 -2.40547 0
M  V30 1193 O 113.303 4.19604 -3.50135 0
M  V30 1194 H 110.397 0.657163 -0.502062 0
M  V30 1195 H 112.943 0.760071 -1.51727 0
M  V30 1196 H 111.715 2.04329 -3.33715 0
M  V30 1197 H 111.338 3.31837 -2.19021 0
M  V30 1198 N 112.336 1.25143 0.95797 0
M  V30 1199 C 113.564 1.12424 1.73691 0
M  V30 1200 C 113.979 -0.322304 1.86029 0
M  V30 1201 O 113.336 -1.22186 1.35561 0
M  V30 1202 C 113.387 1.76933 3.15241 0
M  V30 1203 O 113.108 3.15932 3.03511 0
M  V30 1204 C 114.609 1.6995 4.09429 0
M  V30 1205 H 111.829 0.3923 0.544373 0
M  V30 1206 H 114.373 1.6544 1.20207 0
M  V30 1207 H 112.528 1.27895 3.6568 0
M  V30 1208 H 112.942 3.47598 3.9278 0
M  V30 1209 H 114.416 2.19753 5.06372 0
M  V30 1210 H 114.893 0.662619 4.34173 0
M  V30 1211 H 115.499 2.18461 3.64904 0
M  V30 1212 N 113.814 -1.1601 1.06675 0
M  V30 1213 C 115.091 -1.82679 0.699114 0
M  V30 1214 C 115.471 -1.94559 -0.819137 0
M  V30 1215 O 114.819 -1.49169 -1.73092 0
M  V30 1216 C 115.029 -3.19445 1.40555 0
M  V30 1217 C 116.377 -3.95171 1.55323 0
M  V30 1218 O 117.401 -3.28976 1.36577 0
M  V30 1219 O 116.26 -5.13833 1.86112 0
M  V30 1220 H 113.354 -0.788954 0.247951 0
M  V30 1221 H 115.9 -1.23179 1.16726 0
M  V30 1222 H 114.672 -3.05856 2.44065 0
M  V30 1223 H 114.295 -3.86625 0.927733 0
M  V30 1224 N 115.292 -0.849877 -1.32721 0
M  V30 1225 C 116.242 -0.262892 -2.26479 0
M  V30 1226 C 117.226 0.588493 -1.49752 0
M  V30 1227 O 118.418 0.438659 -1.71478 0
M  V30 1228 C 115.547 0.551818 -3.38836 0
M  V30 1229 C 114.633 -0.311689 -4.22953 0
M  V30 1230 N 115.024 -1.39567 -4.86163 0
M  V30 1231 C 113.322 -0.100611 -4.45887 0
M  V30 1232 C 114.023 -1.92651 -5.48872 0
M  V30 1233 N 112.999 -1.22637 -5.29586 0
M  V30 1234 H 116.801 -1.09166 -2.72873 0
M  V30 1235 H 114.315 -0.695486 -1.46754 0
M  V30 1236 H 116.312 0.988713 -4.05006 0
M  V30 1237 H 114.972 1.37844 -2.93988 0
M  V30 1238 H 115.983 -1.77859 -4.86402 0
M  V30 1239 H 112.66 0.691681 -4.11731 0
M  V30 1240 H 114.05 -2.83487 -6.09167 0
M  V30 1241 N 116.77 1.45427 -0.607355 0
M  V30 1242 C 118.016 2.03097 -0.111035 0
M  V30 1243 C 118.371 1.46735 1.24445 0
M  V30 1244 O 117.664 0.632478 1.8086 0
M  V30 1245 C 117.858 3.57398 -0.0129263 0
M  V30 1246 C 117.687 4.28726 -1.35735 0
M  V30 1247 C 116.457 4.66659 -1.93798 0
M  V30 1248 C 118.655 4.60699 -2.28607 0
M  V30 1249 N 116.637 5.22845 -3.21723 0
M  V30 1250 C 118.008 5.17716 -3.41131 0
M  V30 1251 C 120.063 4.42638 -2.27982 0
M  V30 1252 C 118.766 5.58576 -4.53194 0
M  V30 1253 C 120.792 4.84531 -3.39093 0
M  V30 1254 C 120.154 5.4164 -4.50339 0
M  V30 1255 H 116.253 0.777476 -0.083994 0
M  V30 1256 H 118.837 1.77249 -0.805655 0
M  V30 1257 H 117.008 3.82907 0.650914 0
M  V30 1258 H 118.74 4.01722 0.490033 0
M  V30 1259 H 115.495 4.50207 -1.47007 0
M  V30 1260 H 115.919 5.55438 -3.87063 0
M  V30 1261 H 120.561 3.97798 -1.43235 0
M  V30 1262 H 118.279 6.02382 -5.38667 0
M  V30 1263 H 121.865 4.72289 -3.39757 0
M  V30 1264 H 120.745 5.73461 -5.34895 0
M  V30 1265 N 118.248 0.346503 1.53744 0
M  V30 1266 C 119.178 -0.501193 2.28058 0
M  V30 1267 C 120.159 -1.10014 1.29734 0
M  V30 1268 O 121.344 -1.12097 1.58581 0
M  V30 1269 C 118.474 -1.65078 3.05559 0
M  V30 1270 C 117.428 -1.18003 4.11411 0
M  V30 1271 C 116.754 -2.41837 4.76884 0
M  V30 1272 C 118.054 -0.278394 5.21558 0
M  V30 1273 H 119.748 0.11875 2.99164 0
M  V30 1274 H 117.294 0.0585531 1.43881 0
M  V30 1275 H 119.247 -2.25028 3.56287 0
M  V30 1276 H 117.971 -2.29767 2.32109 0
M  V30 1277 H 116.63 -0.603331 3.61601 0
M  V30 1278 H 116.278 -3.0494 4.00026 0
M  V30 1279 H 115.978 -2.1102 5.48402 0
M  V30 1280 H 117.502 -3.02508 5.30397 0
M  V30 1281 H 118.916 -0.784823 5.67903 0
M  V30 1282 H 117.313 -0.0619707 6.00068 0
M  V30 1283 H 118.383 0.684677 4.80042 0
M  V30 1284 N 119.726 -1.57421 0.075193 0
M  V30 1285 C 121.142 -1.57099 -0.281444 0
M  V30 1286 C 121.342 -1.08486 -1.69803 0
M  V30 1287 O 120.398 -0.752279 -2.41033 0
M  V30 1288 C 121.711 -3.00571 -0.0880041 0
M  V30 1289 C 123.259 -3.12605 -0.157281 0
M  V30 1290 C 123.734 -4.57999 0.0079207 0
M  V30 1291 N 125.225 -4.63176 -0.0475725 0
M  V30 1292 C 125.96 -5.73373 0.0557876 0
M  V30 1293 N 125.456 -6.92473 0.21286 0
M  V30 1294 N 127.249 -5.621 -0.00152098 0
M  V30 1295 H 119.4 -1.87335 1.00098 0
M  V30 1296 H 121.663 -0.86377 0.390646 0
M  V30 1297 H 121.369 -3.40262 0.889629 0
M  V30 1298 H 121.243 -3.67754 -0.838875 0
M  V30 1299 H 123.63 -2.72798 -1.1254 0
M  V30 1300 H 123.711 -2.48053 0.62475 0
M  V30 1301 H 123.355 -4.98496 0.972824 0
M  V30 1302 H 123.285 -5.20586 -0.793556 0
M  V30 1303 H 125.776 -3.7753 -0.167244 0
M  V30 1304 H 126.089 -7.72279 0.283781 0
M  V30 1305 H 124.434 -6.94556 0.248267 0
M  V30 1306 H 127.625 -4.67938 -0.122958 0
M  V30 1307 H 127.798 -6.47948 0.0824844 0
M  V30 1308 N 121.204 0.198386 -1.56346 0
M  V30 1309 C 122.429 0.939682 -1.84891 0
M  V30 1310 C 122.854 1.76202 -0.658369 0
M  V30 1311 O 122.212 1.76993 0.392851 0
M  V30 1312 C 122.26 1.81428 -3.11635 0
M  V30 1313 O 121.364 2.91265 -2.91956 0
M  V30 1314 H 120.705 0.264807 -0.608912 0
M  V30 1315 H 123.235 0.204695 -2.03573 0
M  V30 1316 H 123.245 2.21958 -3.42343 0
M  V30 1317 H 121.92 1.21004 -3.97908 0
M  V30 1318 H 120.497 2.54514 -2.72538 0
M  V30 1319 N 122.682 1.50554 0.465978 0
M  V30 1320 C 123.63 1.70324 1.58406 0
M  V30 1321 C 124.624 0.569139 1.59553 0
M  V30 1322 O 125.83 0.749776 1.63641 0
M  V30 1323 H 122.205 0.537688 0.525734 0
M  V30 1324 H 124.176 2.64104 1.38894 0
M  V30 1325 C 122.925 1.81928 2.96307 0
M  V30 1326 H 122.248 2.68586 2.96144 0
M  V30 1327 H 123.688 1.99784 3.73982 0
M  V30 1328 C 122.147 0.572095 3.32007 0
M  V30 1329 O 122.677 -0.286416 4.00678 0
M  V30 1330 N 120.883 0.424606 2.87481 0
M  V30 1331 H 120.43 1.12427 2.31771 0
M  V30 1332 H 120.388 -0.408697 3.11732 0
M  V30 1333 N 124.16 -0.719506 1.40217 0
M  V30 1334 C 125.406 -1.48034 1.39491 0
M  V30 1335 C 125.761 -1.92399 -0.00443536 0
M  V30 1336 O 125.054 -1.64993 -0.974061 0
M  V30 1337 C 125.248 -2.72271 2.31524 0
M  V30 1338 C 125.077 -2.40055 3.80268 0
M  V30 1339 C 123.847 -2.31588 4.49105 0
M  V30 1340 C 126.045 -2.04581 4.71859 0
M  V30 1341 N 124.027 -1.92006 5.83101 0
M  V30 1342 C 125.398 -1.75568 5.94623 0
M  V30 1343 C 127.453 -1.91183 4.59732 0
M  V30 1344 C 126.156 -1.34505 7.06612 0
M  V30 1345 C 128.182 -1.51524 5.71659 0
M  V30 1346 C 127.544 -1.23406 6.93506 0
M  V30 1347 H 123.643 -0.539927 0.565688 0
M  V30 1348 H 126.227 -0.834764 1.75897 0
M  V30 1349 H 124.398 -3.34584 1.97251 0
M  V30 1350 H 126.13 -3.38584 2.21682 0
M  V30 1351 H 122.885 -2.49199 4.02737 0
M  V30 1352 H 123.309 -1.74764 6.54054 0
M  V30 1353 H 127.951 -2.11584 3.66049 0
M  V30 1354 H 125.669 -1.12846 8.00182 0
M  V30 1355 H 129.255 -1.41741 5.6427 0
M  V30 1356 H 128.135 -0.931788 7.78645 0
M  V30 1357 N 125.638 -1.25649 -0.95132 0
M  V30 1358 C 126.887 -1.09988 -1.69073 0
M  V30 1359 C 127.2 0.358355 -1.92289 0
M  V30 1360 O 128.406 0.635466 -2.63958 0
M  V30 1361 C 126.862 -1.92012 -3.044 0
M  V30 1362 C 126.47 -3.42347 -2.88968 0
M  V30 1363 C 128.214 -1.8493 -3.82101 0
M  V30 1364 C 126.121 -4.16655 -4.19705 0
M  V30 1365 H 125.051 -0.407993 -0.63408 0
M  V30 1366 H 127.702 -1.49873 -1.05879 0
M  V30 1367 H 126.084 -1.44952 -3.68517 0
M  V30 1368 H 127.258 -3.97104 -2.33762 0
M  V30 1369 H 125.573 -3.50557 -2.24719 0
M  V30 1370 H 128.17 -2.37739 -4.78941 0
M  V30 1371 H 128.513 -0.817883 -4.08187 0
M  V30 1372 H 129.046 -2.29758 -3.2474 0
M  V30 1373 H 125.785 -5.20224 -3.98807 0
M  V30 1374 H 125.305 -3.66681 -4.74663 0
M  V30 1375 H 126.984 -4.24551 -4.88227 0
M  V30 1376 N 127.117 1.15442 -1.07289 0
M  V30 1377 C 128.347 1.89821 -0.815576 0
M  V30 1378 C 128.755 1.7823 0.634867 0
M  V30 1379 O 128.098 1.13152 1.44715 0
M  V30 1380 C 128.16 3.40817 -1.14385 0
M  V30 1381 C 127.824 3.76193 -2.59476 0
M  V30 1382 C 128.821 3.77269 -3.57721 0
M  V30 1383 C 126.506 4.0652 -2.95037 0
M  V30 1384 C 128.5 4.08176 -4.89562 0
M  V30 1385 C 126.187 4.37092 -4.27076 0
M  V30 1386 C 127.185 4.37902 -5.24148 0
M  V30 1387 O 126.873 4.67741 -6.53815 0
M  V30 1388 H 126.605 0.608465 -0.294528 0
M  V30 1389 H 129.159 1.472 -1.43252 0
M  V30 1390 H 127.389 3.83835 -0.469865 0
M  V30 1391 H 129.078 3.96485 -0.869179 0
M  V30 1392 H 129.844 3.5394 -3.3159 0
M  V30 1393 H 125.723 4.05049 -2.20128 0
M  V30 1394 H 129.267 4.08723 -5.65324 0
M  V30 1395 H 125.164 4.59889 -4.5296 0
M  V30 1396 H 125.932 4.85509 -6.58957 0
M  V30 1397 N 128.595 0.856903 1.32268 0
M  V30 1398 C 130.011 0.547061 1.49931 0
M  V30 1399 C 130.211 -0.921781 1.7918 0
M  V30 1400 O 129.267 -1.70469 1.8627 0
M  V30 1401 C 130.58 1.43599 2.64196 0
M  V30 1402 C 132.128 1.43665 2.78081 0
M  V30 1403 C 132.603 2.31085 3.95428 0
M  V30 1404 N 134.094 2.28893 4.02694 0
M  V30 1405 C 134.829 2.93262 4.92732 0
M  V30 1406 N 134.325 3.66751 5.87763 0
M  V30 1407 N 136.118 2.82638 4.85873 0
M  V30 1408 H 128.269 1.8075 1.11549 0
M  V30 1409 H 130.532 0.772144 0.549997 0
M  V30 1410 H 130.238 2.48058 2.49319 0
M  V30 1411 H 130.112 1.12502 3.60032 0
M  V30 1412 H 132.499 0.399701 2.92381 0
M  V30 1413 H 132.58 1.7878 1.82952 0
M  V30 1414 H 132.224 3.34849 3.81888 0
M  V30 1415 H 132.154 1.93302 4.89839 0
M  V30 1416 H 134.645 1.75466 3.34694 0
M  V30 1417 H 134.958 4.13027 6.53168 0
M  V30 1418 H 133.303 3.70859 5.87783 0
M  V30 1419 H 136.494 2.24774 4.10602 0
M  V30 1420 H 136.667 3.33084 5.55841 0
M  V30 1421 N 130.073 -1.45103 0.615059 0
M  V30 1422 C 131.321 -2.01784 0.112955 0
M  V30 1423 C 131.642 -1.48504 -1.26378 0
M  V30 1424 O 130.912 -0.682245 -1.83636 0
M  V30 1425 H 129.492 -0.745993 0.0387668 0
M  V30 1426 H 132.154 -1.77808 0.798141 0
M  V30 1427 H 131.25 -3.12025 0.0684069 0
M  V30 1428 N 131.551 -0.354651 -1.53558 0
M  V30 1429 C 132.461 0.50515 -2.29097 0
M  V30 1430 C 133.477 1.10223 -1.34636 0
M  V30 1431 O 134.653 1.11553 -1.67684 0
M  V30 1432 C 131.718 1.63479 -3.05738 0
M  V30 1433 C 130.779 1.06636 -4.15845 0
M  V30 1434 C 130.012 2.14217 -4.88822 0
M  V30 1435 O 130.235 3.35137 -4.61562 0
M  V30 1436 O 129.169 1.77887 -5.75013 0
M  V30 1437 H 132.995 -0.109237 -3.03503 0
M  V30 1438 H 130.58 -0.119357 -1.48922 0
M  V30 1439 H 132.462 2.2918 -3.5363 0
M  V30 1440 H 131.137 2.23478 -2.34178 0
M  V30 1441 H 130.044 0.373565 -3.7223 0
M  V30 1442 H 131.377 0.511081 -4.89539 0
M  V30 1443 N 133.029 1.57378 -0.0835403 0
M  V30 1444 C 133.939 2.16897 0.894021 0
M  V30 1445 C 134.955 1.13528 1.31861 0
M  V30 1446 O 136.131 1.45848 1.3889 0
M  V30 1447 C 133.196 2.72831 2.13925 0
M  V30 1448 C 132.257 3.91115 1.76997 0
M  V30 1449 C 131.49 4.44371 2.95584 0
M  V30 1450 O 131.713 3.96596 4.09961 0
M  V30 1451 O 130.647 5.35549 2.74719 0
M  V30 1452 H 134.473 3.00814 0.417679 0
M  V30 1453 H 132.058 1.48741 0.140181 0
M  V30 1454 H 133.94 3.0863 2.86924 0
M  V30 1455 H 132.615 1.91967 2.60635 0
M  V30 1456 H 131.522 3.60148 1.01214 0
M  V30 1457 H 132.855 4.73307 1.3506 0
M  V30 1458 N 134.507 -0.190092 1.56449 0
M  V30 1459 C 135.47 -1.21925 1.9408 0
M  V30 1460 C 136.47 -1.38176 0.822431 0
M  V30 1461 O 137.66 -1.35903 1.08977 0
M  V30 1462 C 134.792 -2.58773 2.21922 0
M  V30 1463 H 135.985 -0.897464 2.86157 0
M  V30 1464 H 133.538 -0.43181 1.50217 0
M  V30 1465 H 134.273 -2.95998 1.32499 0
M  V30 1466 H 134.058 -2.48348 3.03424 0
M  V30 1467 H 135.548 -3.32978 2.52022 0
M  V30 1468 N 135.985 -1.50799 -0.457987 0
M  V30 1469 C 137.21 -1.66496 -1.23668 0
M  V30 1470 C 137.635 -0.353288 -1.84752 0
M  V30 1471 O 136.993 0.684346 -1.67888 0
M  V30 1472 C 137.041 -2.76763 -2.3116 0
M  V30 1473 O 136.145 -2.38928 -3.36136 0
M  V30 1474 H 135.486 -0.555828 -0.363252 0
M  V30 1475 H 138.016 -1.9725 -0.543474 0
M  V30 1476 H 138.026 -3.00232 -2.76269 0
M  V30 1477 H 136.701 -3.71954 -1.86073 0
M  V30 1478 H 135.278 -2.25953 -2.96647 0
M  V30 1479 N 137.463 0.71206 -1.40597 0
M  V30 1480 C 138.879 1.02058 -1.22704 0
M  V30 1481 C 139.079 2.01228 -0.104729 0
M  V30 1482 O 138.135 2.4674 0.53624 0
M  V30 1483 C 139.448 1.56094 -2.57012 0
M  V30 1484 C 140.996 1.6806 -2.64054 0
M  V30 1485 C 141.471 2.25501 -3.9864 0
M  V30 1486 N 142.962 2.32882 -4.004 0
M  V30 1487 C 143.697 2.78317 -5.01325 0
M  V30 1488 N 143.193 3.23478 -6.12645 0
M  V30 1489 N 144.986 2.77733 -4.88693 0
M  V30 1490 H 137.137 0.0547896 -2.12329 0
M  V30 1491 H 139.4 0.0869027 -0.944008 0
M  V30 1492 H 139.106 0.906865 -3.39807 0
M  V30 1493 H 138.98 2.54564 -2.78347 0
M  V30 1494 H 141.367 2.32583 -1.81629 0
M  V30 1495 H 141.448 0.681802 -2.46546 0
M  V30 1496 H 141.092 1.61598 -4.81506 0
M  V30 1497 H 141.022 3.26102 -4.13479 0
M  V30 1498 H 143.513 2.00991 -3.20017 0
M  V30 1499 H 143.826 3.56725 -6.85542 0
M  V30 1500 H 142.171 3.21429 -6.16205 0
M  V30 1501 H 145.362 2.4179 -4.00818 0
M  V30 1502 H 145.535 3.12826 -5.67489 0
M  V30 1503 N 138.941 1.26152 0.944643 0
M  V30 1504 C 140.187 1.11657 1.69294 0
M  V30 1505 C 140.52 -0.339926 1.91202 0
M  V30 1506 O 139.795 -1.24994 1.49019 0
M  V30 1507 C 140.078 1.88236 3.06984 0
M  V30 1508 C 139.931 3.41772 2.92424 0
M  V30 1509 C 141.25 1.67343 4.07043 0
M  V30 1510 H 138.369 0.407004 0.614424 0
M  V30 1511 H 141.011 1.55106 1.09737 0
M  V30 1512 H 139.161 1.51308 3.57824 0
M  V30 1513 H 140.833 3.88433 2.48832 0
M  V30 1514 H 139.076 3.68974 2.28124 0
M  V30 1515 H 139.747 3.90579 3.90067 0
M  V30 1516 H 142.223 1.99509 3.65151 0
M  V30 1517 H 141.099 2.23346 5.01406 0
M  V30 1518 H 141.36 0.617158 4.37771 0
M  V30 1519 N 140.419 -1.14872 1.07899 0
M  V30 1520 C 141.369 -2.17809 0.674027 0
M  V30 1521 C 142.353 -1.58008 -0.303699 0
M  V30 1522 O 143.545 -1.76616 -0.11654 0
M  V30 1523 C 140.674 -3.43208 0.0793318 0
M  V30 1524 C 139.76 -4.10051 1.08253 0
M  V30 1525 N 140.151 -4.52296 2.2641 0
M  V30 1526 C 138.449 -4.36469 0.917124 0
M  V30 1527 C 139.15 -5.04199 2.901 0
M  V30 1528 N 138.126 -4.98088 2.17736 0
M  V30 1529 H 141.928 -2.48207 1.57386 0
M  V30 1530 H 139.442 -1.315 0.952976 0
M  V30 1531 H 141.439 -4.16272 -0.228719 0
M  V30 1532 H 140.099 -3.14291 -0.815551 0
M  V30 1533 H 141.11 -4.45504 2.64096 0
M  V30 1534 H 137.787 -4.17432 0.0756078 0
M  V30 1535 H 139.177 -5.46802 3.90458 0
M  V30 1536 N 141.898 -0.863906 -1.31812 0
M  V30 1537 C 143.144 -0.472535 -1.97218 0
M  V30 1538 C 143.477 0.971394 -1.68159 0
M  V30 1539 O 142.752 1.68309 -0.974798 0
M  V30 1540 C 143.035 -0.723054 -3.52766 0
M  V30 1541 C 142.888 -2.21608 -3.91421 0
M  V30 1542 C 144.207 -0.185522 -4.39709 0
M  V30 1543 H 141.326 -0.173158 -0.71637 0
M  V30 1544 H 143.968 -1.08403 -1.56041 0
M  V30 1545 H 142.118 -0.202577 -3.87971 0
M  V30 1546 H 143.79 -2.80334 -3.66347 0
M  V30 1547 H 142.033 -2.691 -3.40246 0
M  V30 1548 H 142.704 -2.34203 -4.99853 0
M  V30 1549 H 145.18 -0.630726 -4.11292 0
M  V30 1550 H 144.056 -0.390306 -5.47511 0
M  V30 1551 H 144.317 0.912229 -4.32586 0
M  V30 1552 N 143.376 1.44774 -0.622745 0
M  V30 1553 C 144.286 2.34433 0.0886031 0
M  V30 1554 C 145.302 1.52131 0.844529 0
M  V30 1555 O 146.478 1.84886 0.798691 0
M  V30 1556 C 143.543 3.29986 1.0635 0
M  V30 1557 C 142.604 4.28195 0.307873 0
M  V30 1558 C 141.837 5.19183 1.23633 0
M  V30 1559 O 142.06 5.13918 2.47476 0
M  V30 1560 O 140.994 5.97515 0.725189 0
M  V30 1561 H 144.82 2.96693 -0.648599 0
M  V30 1562 H 142.405 1.44408 -0.382957 0
M  V30 1563 H 144.287 3.88825 1.6246 0
M  V30 1564 H 142.962 2.70269 1.78146 0
M  V30 1565 H 141.869 3.72927 -0.296064 0
M  V30 1566 H 143.202 4.90808 -0.3699 0
M  V30 1567 N 144.854 0.36279 1.53368 0
M  V30 1568 C 145.784 -0.476976 2.28576 0
M  V30 1569 C 146.765 -1.08631 1.30894 0
M  V30 1570 O 147.95 -1.10409 1.59761 0
M  V30 1571 C 145.08 -1.61828 3.07293 0
M  V30 1572 C 144.034 -1.13633 4.1264 0
M  V30 1573 C 143.36 -2.36766 4.79423 0
M  V30 1574 C 144.66 -0.223061 5.21823 0
M  V30 1575 H 146.354 0.150474 2.99022 0
M  V30 1576 H 143.9 0.0738103 1.43811 0
M  V30 1577 H 145.853 -2.21237 3.58653 0
M  V30 1578 H 144.577 -2.27292 2.34533 0
M  V30 1579 H 143.236 -0.564945 3.62221 0
M  V30 1580 H 142.884 -3.0068 4.03238 0
M  V30 1581 H 142.584 -2.05192 5.50609 0
M  V30 1582 H 144.108 -2.96865 5.33576 0
M  V30 1583 H 145.522 -0.724545 5.68703 0
M  V30 1584 H 143.919 0.001678 6.001 0
M  V30 1585 H 144.989 0.735553 4.79289 0
M  V30 1586 N 146.332 -1.57332 0.0918853 0
M  V30 1587 C 147.264 -2.10869 -0.898168 0
M  V30 1588 C 148.277 -1.04521 -1.24817 0
M  V30 1589 O 149.466 -1.31977 -1.20184 0
M  V30 1590 C 146.566 -2.57083 -2.2082 0
M  V30 1591 C 145.739 -3.87229 -2.03402 0
M  V30 1592 C 144.798 -4.19324 -3.17889 0
M  V30 1593 O 143.824 -4.88598 -2.91994 0
M  V30 1594 N 145.026 -3.74471 -4.43567 0
M  V30 1595 H 147.791 -2.96439 -0.440943 0
M  V30 1596 H 145.352 -1.61631 -0.0933064 0
M  V30 1597 H 147.344 -2.75602 -2.96354 0
M  V30 1598 H 145.914 -1.76541 -2.57977 0
M  V30 1599 H 145.134 -3.7789 -1.12218 0
M  V30 1600 H 146.422 -4.72379 -1.89038 0
M  V30 1601 H 145.82 -3.18546 -4.67488 0
M  V30 1602 H 144.377 -3.98151 -5.16061 0
M  V30 1603 N 147.81 0.181792 -1.56548 0
M  V30 1604 C 149.057 0.900097 -1.81396 0
M  V30 1605 C 149.385 1.82695 -0.667281 0
M  V30 1606 O 148.64 1.92614 0.346146 0
M  V30 1607 C 148.939 1.73728 -3.12335 0
M  V30 1608 C 148.605 0.960255 -4.40556 0
M  V30 1609 C 147.267 0.745766 -4.75386 0
M  V30 1610 C 149.619 0.414477 -5.19549 0
M  V30 1611 C 146.947 -0.0257694 -5.86694 0
M  V30 1612 C 149.299 -0.343916 -6.31664 0
M  V30 1613 C 147.963 -0.569301 -6.65068 0
M  V30 1614 H 147.233 0.329369 -0.663775 0
M  V30 1615 H 149.88 0.165647 -1.90782 0
M  V30 1616 H 148.185 2.54081 -2.98245 0
M  V30 1617 H 149.882 2.29591 -3.28769 0
M  V30 1618 H 146.472 1.13746 -4.13231 0
M  V30 1619 H 150.656 0.567554 -4.93044 0
M  V30 1620 H 145.912 -0.210233 -6.11038 0
M  V30 1621 H 150.086 -0.774133 -6.92084 0
M  V30 1622 H 147.713 -1.16903 -7.51158 0
M  V30 1623 N 149.288 1.51039 0.449983 0
M  V30 1624 C 150.516 1.66869 1.2232 0
M  V30 1625 C 150.931 0.360727 1.85322 0
M  V30 1626 O 150.288 -0.659531 1.70166 0
M  V30 1627 C 150.339 2.77524 2.31652 0
M  V30 1628 O 150.06 4.03252 1.7123 0
M  V30 1629 C 151.561 3.04512 3.2216 0
M  V30 1630 H 148.781 0.560326 0.369155 0
M  V30 1631 H 151.325 1.97385 0.534719 0
M  V30 1632 H 149.48 2.49642 2.96239 0
M  V30 1633 H 149.894 4.64609 2.43389 0
M  V30 1634 H 151.368 3.85551 3.95038 0
M  V30 1635 H 151.845 2.16415 3.8218 0
M  V30 1636 H 152.451 3.34005 2.63288 0
M  V30 1637 N 150.766 -0.704594 1.40972 0
M  V30 1638 C 152.012 -1.46675 1.40051 0
M  V30 1639 C 152.345 -1.94199 0.00641102 0
M  V30 1640 O 151.62 -1.68916 -0.964235 0
M  V30 1641 C 151.903 -2.68505 2.39952 0
M  V30 1642 C 151.756 -2.26805 3.88432 0
M  V30 1643 C 153.075 -3.70686 2.37233 0
M  V30 1644 H 150.194 -0.532015 0.510028 0
M  V30 1645 H 152.836 -0.803255 1.72185 0
M  V30 1646 H 150.986 -3.25114 2.1268 0
M  V30 1647 H 152.658 -1.75592 4.26574 0
M  V30 1648 H 150.901 -1.58685 4.03734 0
M  V30 1649 H 151.572 -3.14181 4.53866 0
M  V30 1650 H 154.048 -3.23731 2.61415 0
M  V30 1651 H 152.924 -4.53553 3.09162 0
M  V30 1652 H 153.185 -4.19754 1.38777 0
M  V30 1653 N 152.244 -1.26651 -0.937939 0
M  V30 1654 C 153.66 -1.03834 -1.21205 0
M  V30 1655 C 153.86 0.234502 -2.00131 0
M  V30 1656 O 152.916 0.942767 -2.3424 0
M  V30 1657 C 154.229 -2.27167 -1.97017 0
M  V30 1658 C 155.777 -2.32101 -2.09996 0
M  V30 1659 C 156.252 -3.55136 -2.8921 0
M  V30 1660 N 157.743 -3.55632 -2.96783 0
M  V30 1661 C 158.478 -4.475 -3.58512 0
M  V30 1662 N 157.974 -5.4966 -4.21717 0
M  V30 1663 N 159.767 -4.35145 -3.55816 0
M  V30 1664 H 151.918 -2.08398 -0.410391 0
M  V30 1665 H 154.181 -0.916031 -0.244114 0
M  V30 1666 H 153.887 -3.19765 -1.46434 0
M  V30 1667 H 153.761 -2.31672 -2.97671 0
M  V30 1668 H 156.148 -1.40015 -2.59769 0
M  V30 1669 H 156.229 -2.31605 -1.08594 0
M  V30 1670 H 155.873 -4.47553 -2.40123 0
M  V30 1671 H 155.803 -3.5288 -3.90875 0
M  V30 1672 H 158.294 -2.81743 -2.51852 0
M  V30 1673 H 158.607 -6.15943 -4.66727 0
M  V30 1674 H 156.952 -5.53514 -4.20294 0
M  V30 1675 H 160.143 -3.5455 -3.05634 0
M  V30 1676 H 160.316 -5.06934 -4.03636 0
M  V30 1677 N 153.722 1.14298 -1.08507 0
M  V30 1678 C 154.999 1.81544 -0.728088 0
M  V30 1679 C 155.379 1.95838 0.78808 0
M  V30 1680 O 154.727 1.51904 1.70697 0
M  V30 1681 C 154.937 3.17169 -1.45619 0
M  V30 1682 C 156.285 3.9265 -1.61591 0
M  V30 1683 O 157.309 3.26762 -1.41793 0
M  V30 1684 O 156.168 5.10807 -1.94263 0
M  V30 1685 H 153.262 0.78491 -0.260471 0
M  V30 1686 H 155.808 1.21307 -1.18671 0
M  V30 1687 H 154.58 3.01934 -2.489 0
M  V30 1688 H 154.203 3.851 -0.989124 0
M  V30 1689 N 155.201 0.870884 1.31352 0
M  V30 1690 C 156.441 0.488783 1.9847 0
M  V30 1691 C 156.805 -0.941536 1.67329 0
M  V30 1692 O 158.006 -1.42903 2.27667 0
M  V30 1693 C 156.277 0.739688 3.49662 0
M  V30 1694 S 157.836 0.457582 4.36408 0
M  V30 1695 H 154.654 0.18242 0.6872 0
M  V30 1696 H 157.256 1.12711 1.59739 0
M  V30 1697 H 155.96 1.77944 3.69816 0
M  V30 1698 H 155.491 0.0883905 3.93301 0
M  V30 1699 H 157.506 -0.709752 4.91098 0
M  V30 1700 N 156.679 -1.44442 0.630414 0
M  V30 1701 C 157.626 -2.30678 -0.0749355 0
M  V30 1702 C 158.596 -1.4344 -0.837502 0
M  V30 1703 O 159.781 -1.72343 -0.818684 0
M  V30 1704 C 156.921 -3.28706 -1.05103 0
M  V30 1705 C 156.034 -4.31046 -0.286954 0
M  V30 1706 C 155.169 -5.16167 -1.2548 0
M  V30 1707 C 154.208 -6.10216 -0.479843 0
M  V30 1708 N 153.345 -6.88039 -1.39811 0
M  V30 1709 H 158.185 -2.90454 0.666386 0
M  V30 1710 H 155.722 -1.43107 0.340404 0
M  V30 1711 H 157.68 -3.84027 -1.63031 0
M  V30 1712 H 156.31 -2.70632 -1.75949 0
M  V30 1713 H 155.362 -3.78203 0.408243 0
M  V30 1714 H 156.674 -4.97794 0.316657 0
M  V30 1715 H 155.828 -5.76002 -1.90544 0
M  V30 1716 H 154.567 -4.49491 -1.89233 0
M  V30 1717 H 153.572 -5.49491 0.184295 0
M  V30 1718 H 154.797 -6.78928 0.152965 0
M  V30 1719 H 152.743 -6.24032 -2.02287 0
M  V30 1720 H 152.66 -7.51223 -0.848508 0
M  V30 1721 H 153.928 -7.52397 -2.03762 0
M  V30 1722 N 158.157 -0.370918 -1.53173 0
M  V30 1723 C 159.382 0.220293 -2.06227 0
M  V30 1724 C 159.807 1.41243 -1.24225 0
M  V30 1725 O 159.165 1.79387 -0.262645 0
M  V30 1726 C 159.213 0.586663 -3.55796 0
M  V30 1727 O 158.317 1.68317 -3.76488 0
M  V30 1728 H 157.658 0.0308099 -0.663285 0
M  V30 1729 H 160.188 -0.533068 -1.97534 0
M  V30 1730 H 160.198 0.85617 -3.98916 0
M  V30 1731 H 158.873 -0.285013 -4.14922 0
M  V30 1732 H 157.45 1.40881 -3.45264 0
M  V30 1733 N 159.635 1.57281 -0.100228 0
M  V30 1734 C 160.882 1.94537 0.562268 0
M  V30 1735 C 161.21 0.982315 1.67871 0
M  V30 1736 O 160.465 0.00280936 1.957 0
M  V30 1737 C 160.764 3.38305 1.15259 0
M  V30 1738 C 160.43 4.50618 0.159409 0
M  V30 1739 C 159.092 4.81066 -0.113741 0
M  V30 1740 C 161.444 5.18615 -0.518461 0
M  V30 1741 C 158.772 5.76835 -1.07137 0
M  V30 1742 C 161.124 6.15412 -1.46459 0
M  V30 1743 C 159.788 6.44262 -1.74592 0
M  V30 1744 H 159.058 0.711863 0.205748 0
M  V30 1745 H 161.705 1.90679 -0.17715 0
M  V30 1746 H 160.01 3.38766 1.96836 0
M  V30 1747 H 161.707 3.64435 1.67297 0
M  V30 1748 H 158.297 4.2689 0.382491 0
M  V30 1749 H 162.481 4.95264 -0.320581 0
M  V30 1750 H 157.737 5.975 -1.29628 0
M  V30 1751 H 161.911 6.67194 -1.99564 0
M  V30 1752 H 159.538 7.1828 -2.48953 0
M  V30 1753 N 161.113 -0.173488 1.56642 0
M  V30 1754 C 162.524 -0.736155 1.71574 0
M  V30 1755 C 162.875 -1.82888 0.710389 0
M  V30 1756 O 162 -2.16017 -0.1287 0
M  V30 1757 C 162.595 -1.34211 3.11083 0
M  V30 1758 C 161.154 -1.85162 3.27707 0
M  V30 1759 C 160.301 -0.729765 2.67525 0
M  V30 1760 H 163.252 0.0518786 1.58615 0
M  V30 1761 H 163.273 -2.21178 3.09613 0
M  V30 1762 H 162.785 -0.546579 3.84232 0
M  V30 1763 H 160.886 -2.67366 2.59512 0
M  V30 1764 H 160.999 -1.99855 4.35425 0
M  V30 1765 H 159.363 -1.14965 2.27278 0
M  V30 1766 H 160.146 0.0538806 3.43258 0
M  V30 1767 N 162.591 -1.51276 -0.441967 0
M  V30 1768 C 163.839 -1.63392 -1.18943 0
M  V30 1769 C 164.16 -0.350159 -1.9183 0
M  V30 1770 O 163.43 0.633784 -1.85364 0
M  V30 1771 H 162.01 -0.602164 -0.442049 0
M  V30 1772 H 164.672 -1.88186 -0.507165 0
M  V30 1773 H 163.768 -2.45934 -1.92154 0
M  V30 1774 N 164.069 0.697108 -1.41344 0
M  V30 1775 C 165.317 1.45426 -1.40341 0
M  V30 1776 C 165.638 1.94996 -0.0128787 0
M  V30 1777 O 164.908 1.71599 0.945027 0
M  V30 1778 H 163.488 0.539594 -0.516573 0
M  V30 1779 H 166.15 0.825201 -1.76569 0
M  V30 1780 H 165.246 2.31817 -2.08967 0
M  V30 1781 N 165.547 1.27147 0.931209 0
M  V30 1782 C 166.51 1.09615 2.01289 0
M  V30 1783 C 167.51 0.0412581 1.60747 0
M  V30 1784 O 168.7 0.285545 1.71844 0
M  V30 1785 C 165.832 0.669447 3.34262 0
M  V30 1786 H 167.025 2.05662 2.18273 0
M  V30 1787 H 164.578 1.09885 1.11153 0
M  V30 1788 H 165.313 -0.292572 3.22978 0
M  V30 1789 H 165.098 1.43127 3.65044 0
M  V30 1790 H 166.588 0.568921 4.13706 0
M  V30 1791 N 167.025 -1.13721 1.09112 0
M  V30 1792 C 168.273 -1.84559 0.823562 0
M  V30 1793 C 168.594 -1.83754 -0.652658 0
M  V30 1794 O 167.864 -1.29102 -1.47342 0
M  V30 1795 H 166.444 -0.683376 0.301673 0
M  V30 1796 H 169.106 -1.37771 1.37859 0
M  V30 1797 H 168.202 -2.8917 1.17419 0
M  V30 1798 N 168.503 -0.877838 -1.30888 0
M  V30 1799 C 169.914 -0.544193 -1.78593 0
M  V30 1800 C 170.265 0.939301 -1.72254 0
M  V30 1801 O 169.39 1.7337 -1.29505 0
M  V30 1802 C 169.985 -0.98105 -3.24285 0
M  V30 1803 C 168.544 -0.698935 -3.69854 0
M  V30 1804 C 167.691 -1.168 -2.51502 0
M  V30 1805 H 170.642 -1.06278 -1.17859 0
M  V30 1806 H 170.663 -0.307009 -3.79259 0
M  V30 1807 H 170.175 -2.06079 -3.28866 0
M  V30 1808 H 168.276 0.369112 -3.70767 0
M  V30 1809 H 168.389 -1.28148 -4.61644 0
M  V30 1810 H 166.753 -0.587535 -2.47831 0
M  V30 1811 H 167.536 -2.25533 -2.58824 0
M  V30 1812 N 169.982 1.44106 -0.638065 0
M  V30 1813 C 170.912 2.33448 0.0494287 0
M  V30 1814 C 171.893 1.48606 0.827672 0
M  V30 1815 O 173.078 1.77308 0.792173 0
M  V30 1816 C 170.208 3.31771 1.02691 0
M  V30 1817 C 169.162 4.26485 0.359823 0
M  V30 1818 C 168.488 5.14729 1.44769 0
M  V30 1819 C 169.788 5.17056 -0.738296 0
M  V30 1820 H 171.482 2.91183 -0.696636 0
M  V30 1821 H 169.028 1.40014 -0.336456 0
M  V30 1822 H 170.981 3.93161 1.51666 0
M  V30 1823 H 169.705 2.7226 1.80395 0
M  V30 1824 H 168.364 3.66437 -0.10934 0
M  V30 1825 H 168.012 4.51566 2.21578 0
M  V30 1826 H 167.712 5.78913 1.00668 0
M  V30 1827 H 169.236 5.78991 1.93911 0
M  V30 1828 H 170.65 5.72342 -0.331354 0
M  V30 1829 H 169.047 5.89879 -1.10286 0
M  V30 1830 H 170.117 4.57652 -1.60258 0
M  V30 1831 N 171.46 0.379036 1.52974 0
M  V30 1832 C 172.708 -0.206014 2.01047 0
M  V30 1833 C 173.029 -1.48175 1.26765 0
M  V30 1834 O 172.299 -1.92085 0.384743 0
M  V30 1835 H 170.879 -0.0791184 0.742798 0
M  V30 1836 H 173.541 0.508366 1.88153 0
M  V30 1837 H 172.637 -0.423501 3.09213 0
M  V30 1838 N 172.938 -1.57226 0.108567 0
M  V30 1839 C 174.178 -1.96717 -0.555155 0
M  V30 1840 C 174.542 -0.990003 -1.64508 0
M  V30 1841 O 175.743 -1.2739 -2.36696 0
M  V30 1842 C 174.014 -3.40575 -1.08367 0
M  V30 1843 S 175.573 -4.02072 -1.75737 0
M  V30 1844 H 172.391 -0.687638 -0.180762 0
M  V30 1845 H 174.993 -1.94563 0.191172 0
M  V30 1846 H 173.697 -4.0945 -0.279092 0
M  V30 1847 H 173.228 -3.46356 -1.86551 0
M  V30 1848 H 175.243 -3.91977 -3.04251 0
M  V30 1849 N 174.416 0.165178 -1.56732 0
M  V30 1850 C 175.363 1.2044 -1.96883 0
M  V30 1851 C 176.333 1.43664 -0.833657 0
M  V30 1852 O 177.518 1.56302 -1.09427 0
M  V30 1853 C 174.658 2.53727 -2.33916 0
M  V30 1854 C 173.771 2.3783 -3.6064 0
M  V30 1855 C 172.906 3.64026 -3.86857 0
M  V30 1856 C 171.945 3.43088 -5.06909 0
M  V30 1857 N 171.082 4.61369 -5.29229 0
M  V30 1858 H 175.922 0.854996 -2.85471 0
M  V30 1859 H 173.459 0.41076 -1.41249 0
M  V30 1860 H 175.417 3.31419 -2.53411 0
M  V30 1861 H 174.047 2.8665 -1.48431 0
M  V30 1862 H 173.099 1.51282 -3.49024 0
M  V30 1863 H 174.411 2.18308 -4.4849 0
M  V30 1864 H 173.565 4.50152 -4.06753 0
M  V30 1865 H 172.304 3.86533 -2.97394 0
M  V30 1866 H 171.309 2.55349 -4.86906 0
M  V30 1867 H 172.534 3.21997 -5.97909 0
M  V30 1868 H 170.48 4.84084 -4.42718 0
M  V30 1869 H 170.397 4.44783 -6.11313 0
M  V30 1870 H 171.665 5.48761 -5.53608 0
M  V30 1871 N 175.894 1.51508 0.433938 0
M  V30 1872 C 176.804 1.75917 1.5521 0
M  V30 1873 C 177.82 0.643545 1.61662 0
M  V30 1874 O 178.996 0.926183 1.7884 0
M  V30 1875 C 176.061 1.88213 2.91164 0
M  V30 1876 C 175.122 3.12074 2.94802 0
M  V30 1877 C 174.355 3.23774 4.24271 0
M  V30 1878 O 174.578 2.4133 5.16833 0
M  V30 1879 O 173.512 4.16774 4.34262 0
M  V30 1880 H 177.338 2.70777 1.37527 0
M  V30 1881 H 174.923 1.36051 0.617293 0
M  V30 1882 H 176.805 1.98267 3.71845 0
M  V30 1883 H 175.48 0.965413 3.08968 0
M  V30 1884 H 174.387 3.07497 2.13065 0
M  V30 1885 H 175.72 4.03446 2.81943 0
M  V30 1886 N 177.372 -0.689602 1.41712 0
M  V30 1887 C 178.6 -1.47827 1.44758 0
M  V30 1888 C 179.015 -1.88721 0.0545703 0
M  V30 1889 O 178.372 -1.57176 -0.927463 0
M  V30 1890 C 178.423 -2.73698 2.3616 0
M  V30 1891 O 178.144 -2.34524 3.7004 0
M  V30 1892 C 179.645 -3.67389 2.48072 0
M  V30 1893 H 176.865 -0.455357 0.49284 0
M  V30 1894 H 179.409 -0.848574 1.86063 0
M  V30 1895 H 177.564 -3.32891 1.98148 0
M  V30 1896 H 177.978 -3.15701 4.18847 0
M  V30 1897 H 179.452 -4.52475 3.16181 0
M  V30 1898 H 179.929 -4.12284 1.51388 0
M  V30 1899 H 180.535 -3.14097 2.86746 0
M  V30 1900 N 178.85 -1.27639 -0.924453 0
M  V30 1901 C 180.097 -1.14167 -1.67249 0
M  V30 1902 C 180.425 0.311863 -1.91984 0
M  V30 1903 O 179.68 1.24425 -1.51053 0
M  V30 1904 C 179.979 -1.87407 -3.04325 0
M  V30 1905 C 179.645 -3.37249 -2.99289 0
M  V30 1906 C 178.307 -3.7812 -2.97622 0
M  V30 1907 C 180.659 -4.32845 -2.90336 0
M  V30 1908 C 177.987 -5.12944 -2.8479 0
M  V30 1909 C 180.339 -5.6773 -2.79045 0
M  V30 1910 C 179.003 -6.07889 -2.7573 0
M  V30 1911 H 178.273 -0.417766 -0.612007 0
M  V30 1912 H 180.92 -1.58286 -1.07786 0
M  V30 1913 H 179.225 -1.35805 -3.67511 0
M  V30 1914 H 180.922 -1.74408 -3.61086 0
M  V30 1915 H 177.512 -3.04748 -3.01374 0
M  V30 1916 H 181.696 -4.02239 -2.90719 0
M  V30 1917 H 176.952 -5.432 -2.80612 0
M  V30 1918 H 181.126 -6.41472 -2.71083 0
M  V30 1919 H 178.753 -7.12314 -2.65544 0
M  V30 1920 N 180.328 1.1314 -1.09713 0
M  V30 1921 C 181.276 2.20717 -0.733934 0
M  V30 1922 C 182.27 1.6729 0.266506 0
M  V30 1923 O 183.476 1.79547 0.127656 0
M  V30 1924 H 179.851 0.719292 -0.21937 0
M  V30 1925 H 181.822 2.48611 -1.6503 0
M  V30 1926 C 180.571 3.47265 -0.173849 0
M  V30 1927 H 179.894 3.88716 -0.934873 0
M  V30 1928 H 181.334 4.23979 0.0423126 0
M  V30 1929 C 179.793 3.18724 1.09164 0
M  V30 1930 O 180.323 3.37762 2.17439 0
M  V30 1931 N 178.529 2.72583 1.00732 0
M  V30 1932 H 178.076 2.57291 0.126121 0
M  V30 1933 H 178.034 2.53862 1.85476 0
M  V30 1934 N 181.806 0.884767 1.30421 0
M  V30 1935 C 182.736 0.367574 2.30589 0
M  V30 1936 C 183.717 -0.549464 1.60981 0
M  V30 1937 O 184.902 -0.46336 1.88591 0
M  V30 1938 C 182.032 -0.418944 3.44764 0
M  V30 1939 C 180.986 0.406316 4.26067 0
M  V30 1940 C 180.312 -0.506793 5.32293 0
M  V30 1941 C 181.612 1.64832 4.95608 0
M  V30 1942 H 183.306 1.20462 2.74097 0
M  V30 1943 H 180.852 0.580695 1.31772 0
M  V30 1944 H 182.805 -0.791395 4.13902 0
M  V30 1945 H 181.529 -1.28964 3.0006 0
M  V30 1946 H 180.188 0.760903 3.58617 0
M  V30 1947 H 179.836 -1.37519 4.83836 0
M  V30 1948 H 179.536 0.0415828 5.87585 0
M  V30 1949 H 181.06 -0.875764 6.04287 0
M  V30 1950 H 182.474 1.34646 5.57264 0
M  V30 1951 H 180.871 2.13688 5.60765 0
M  V30 1952 H 181.941 2.39284 4.21748 0
M  V30 1953 N 183.284 -1.43765 0.645699 0
M  V30 1954 C 184.214 -2.33471 -0.0370477 0
M  V30 1955 C 185.195 -1.49042 -0.819779 0
M  V30 1956 O 186.38 -1.77726 -0.782758 0
M  V30 1957 C 183.51 -3.32311 -1.0093 0
M  V30 1958 C 182.464 -4.2667 -0.337201 0
M  V30 1959 C 181.79 -5.1549 -1.42037 0
M  V30 1960 C 183.09 -5.16657 0.765706 0
M  V30 1961 H 184.784 -2.90809 0.712069 0
M  V30 1962 H 182.33 -1.39834 0.343876 0
M  V30 1963 H 184.283 -3.9396 -1.49578 0
M  V30 1964 H 183.007 -2.73213 -1.78948 0
M  V30 1965 H 181.666 -3.66374 0.128771 0
M  V30 1966 H 181.314 -4.52735 -2.1918 0
M  V30 1967 H 181.014 -5.79438 -0.975966 0
M  V30 1968 H 182.538 -5.80012 -1.90838 0
M  V30 1969 H 183.952 -5.72158 0.361702 0
M  V30 1970 H 182.349 -5.89286 1.13413 0
M  V30 1971 H 183.419 -4.56796 1.62683 0
M  V30 1972 N 184.763 -0.387143 -1.52771 0
M  V30 1973 C 185.993 0.195585 -2.05672 0
M  V30 1974 C 186.401 1.41241 -1.25887 0
M  V30 1975 O 185.744 1.81265 -0.298081 0
M  V30 1976 C 185.806 0.632327 -3.53895 0
M  V30 1977 C 185.47 -0.470739 -4.54569 0
M  V30 1978 C 186.467 -1.32746 -5.02667 0
M  V30 1979 C 184.152 -0.637151 -4.98243 0
M  V30 1980 C 186.146 -2.33574 -5.93061 0
M  V30 1981 C 183.833 -1.64877 -5.88438 0
M  V30 1982 C 184.831 -2.49649 -6.35739 0
M  V30 1983 O 184.519 -3.49082 -7.24153 0
M  V30 1984 H 184.251 0.033658 -0.675162 0
M  V30 1985 H 186.805 -0.550221 -1.97893 0
M  V30 1986 H 185.035 1.43008 -3.59285 0
M  V30 1987 H 186.724 1.14048 -3.89548 0
M  V30 1988 H 187.49 -1.21019 -4.69659 0
M  V30 1989 H 183.369 0.0129567 -4.60998 0
M  V30 1990 H 186.913 -2.99777 -6.29904 0
M  V30 1991 H 182.81 -1.76643 -6.2086 0
M  V30 1992 H 183.578 -3.45065 -7.42208 0
M  V30 1993 N 186.241 1.57166 -0.116904 0
M  V30 1994 C 187.174 2.10912 0.871291 0
M  V30 1995 C 188.152 1.025 1.26224 0
M  V30 1996 O 189.336 1.3014 1.36366 0
M  V30 1997 C 186.463 2.6041 2.16574 0
M  V30 1998 C 185.509 3.80687 1.92302 0
M  V30 1999 S 186.342 5.23199 1.14119 0
M  V30 2000 C 187.498 5.76064 2.44748 0
M  V30 2001 H 187.731 2.94401 0.414138 0
M  V30 2002 H 185.264 1.54096 0.096829 0
M  V30 2003 H 187.222 2.89583 2.9095 0
M  V30 2004 H 185.883 1.77106 2.59408 0
M  V30 2005 H 185.076 4.13462 2.8821 0
M  V30 2006 H 184.678 3.5212 1.26047 0
M  V30 2007 H 186.97 5.8566 3.406 0
M  V30 2008 H 187.913 6.74184 2.16521 0
M  V30 2009 H 188.321 5.04117 2.54019 0
M  V30 2010 N 187.719 -0.156864 1.56817 0
M  V30 2011 C 188.629 -1.2136 2.00771 0
M  V30 2012 C 189.645 -1.47598 0.921459 0
M  V30 2013 O 190.821 -1.59462 1.2302 0
M  V30 2014 C 187.886 -2.52943 2.37109 0
M  V30 2015 C 186.947 -2.34439 3.59634 0
M  V30 2016 C 186.18 -3.59748 3.94229 0
M  V30 2017 O 186.403 -4.65526 3.29609 0
M  V30 2018 O 185.337 -3.52998 4.8752 0
M  V30 2019 H 189.163 -0.870468 2.90958 0
M  V30 2020 H 186.748 -0.36484 1.44877 0
M  V30 2021 H 188.63 -3.30538 2.61386 0
M  V30 2022 H 187.305 -2.86806 1.5008 0
M  V30 2023 H 186.212 -1.54828 3.40557 0
M  V30 2024 H 187.545 -2.05496 4.4725 0
M  V30 2025 N 189.197 -1.51736 -0.425897 0
M  V30 2026 C 190.422 -1.69082 -1.20108 0
M  V30 2027 C 190.847 -0.392398 -1.83962 0
M  V30 2028 O 190.205 0.64858 -1.69302 0
M  V30 2029 C 190.253 -2.81604 -2.25237 0
M  V30 2030 O 189.357 -2.46004 -3.30992 0
M  V30 2031 H 188.698 -0.563408 -0.35138 0
M  V30 2032 H 191.228 -1.98358 -0.501512 0
M  V30 2033 H 191.238 -3.06025 -2.69838 0
M  V30 2034 H 189.913 -3.75817 -1.78142 0
M  V30 2035 H 188.49 -2.32195 -2.91787 0
M  V30 2036 N 190.675 0.682077 -1.42076 0
M  V30 2037 C 191.952 1.43755 -1.32642 0
M  V30 2038 C 192.332 2.11063 0.0396611 0
M  V30 2039 O 191.68 2.02701 1.05474 0
M  V30 2040 C 191.89 2.44596 -2.48946 0
M  V30 2041 C 193.238 3.09454 -2.9073 0
M  V30 2042 O 194.262 2.54922 -2.48783 0
M  V30 2043 O 193.121 4.08253 -3.63307 0
M  V30 2044 H 190.215 0.640857 -0.522715 0
M  V30 2045 H 192.761 0.711415 -1.54068 0
M  V30 2046 H 191.533 1.93609 -3.40046 0
M  V30 2047 H 191.156 3.24701 -2.29467 0
M  V30 2048 N 192.153 1.28127 0.917671 0
M  V30 2049 C 193.085 1.07517 2.02417 0
M  V30 2050 C 194.098 0.0281099 1.62776 0
M  V30 2051 O 195.287 0.270748 1.76435 0
M  V30 2052 C 192.387 0.610957 3.33347 0
M  V30 2053 C 191.56 1.73255 4.01624 0
M  V30 2054 C 190.619 1.26238 5.10833 0
M  V30 2055 O 189.645 1.96389 5.34247 0
M  V30 2056 N 190.847 0.123448 5.80369 0
M  V30 2057 H 193.612 2.02806 2.20658 0
M  V30 2058 H 191.173 1.19827 1.08871 0
M  V30 2059 H 193.165 0.280101 4.0373 0
M  V30 2060 H 191.735 -0.24898 3.11607 0
M  V30 2061 H 190.955 2.23319 3.24842 0
M  V30 2062 H 192.243 2.48503 4.43986 0
M  V30 2063 H 191.641 -0.461847 5.63812 0
M  V30 2064 H 190.198 -0.148158 6.51632 0
M  V30 2065 N 193.631 -1.12557 1.10312 0
M  V30 2066 C 194.908 -1.80363 0.756878 0
M  V30 2067 C 195.288 -1.97067 -0.756824 0
M  V30 2068 O 194.636 -1.54601 -1.68259 0
M  V30 2069 C 194.846 -3.14812 1.50647 0
M  V30 2070 C 196.194 -3.90029 1.67817 0
M  V30 2071 O 197.218 -3.24464 1.46974 0
M  V30 2072 O 196.077 -5.07652 2.02365 0
M  V30 2073 H 193.171 -0.780667 0.272926 0
M  V30 2074 H 195.717 -1.19404 1.20586 0
M  V30 2075 H 194.489 -2.97936 2.53672 0
M  V30 2076 H 194.112 -3.83478 1.05026 0
M  V30 2077 N 195.109 -0.891671 -1.2995 0
M  V30 2078 C 196.355 -0.514261 -1.96171 0
M  V30 2079 C 196.688 0.935506 -1.70182 0
M  V30 2080 O 195.963 1.66204 -1.01028 0
M  V30 2081 C 196.246 -0.797719 -3.51153 0
M  V30 2082 C 196.099 -2.2986 -3.86632 0
M  V30 2083 C 197.418 -0.278749 -4.39216 0
M  V30 2084 H 194.537 -0.188314 -0.712535 0
M  V30 2085 H 197.179 -1.11689 -1.53706 0
M  V30 2086 H 195.329 -0.284826 -3.87455 0
M  V30 2087 H 197.001 -2.88042 -3.60319 0
M  V30 2088 H 195.244 -2.76257 -3.34462 0
M  V30 2089 H 195.915 -2.44753 -4.94773 0
M  V30 2090 H 198.391 -0.717825 -4.09862 0
M  V30 2091 H 197.267 -0.506353 -5.46559 0
M  V30 2092 H 197.528 0.820266 -4.34424 0
M  V30 2093 N 196.587 1.43421 -0.653314 0
M  V30 2094 C 197.835 2.01414 -0.166415 0
M  V30 2095 C 198.156 1.51803 1.22397 0
M  V30 2096 O 197.426 0.730693 1.81763 0
M  V30 2097 H 196.006 0.744703 -0.0585319 0
M  V30 2098 H 198.668 1.75629 -0.845003 0
M  V30 2099 H 197.764 3.11734 -0.151111 0
M  V30 2100 N 198.065 0.39524 1.52563 0
M  V30 2101 C 199.314 -0.186321 2.00838 0
M  V30 2102 C 199.627 -1.47402 1.28577 0
M  V30 2103 O 200.833 -2.13599 1.67593 0
M  V30 2104 C 199.289 -0.382595 3.57861 0
M  V30 2105 C 198.897 0.892202 4.39026 0
M  V30 2106 C 200.641 -0.9202 4.14406 0
M  V30 2107 C 198.548 0.66388 5.87662 0
M  V30 2108 H 197.478 -0.0734041 0.750418 0
M  V30 2109 H 200.129 0.518552 1.76021 0
M  V30 2110 H 198.511 -1.14946 3.7895 0
M  V30 2111 H 199.685 1.66414 4.29701 0
M  V30 2112 H 198 1.35519 3.9373 0
M  V30 2113 H 200.597 -1.10683 5.23119 0
M  V30 2114 H 200.94 -1.89096 3.70875 0
M  V30 2115 H 201.473 -0.212751 3.97231 0
M  V30 2116 H 198.212 1.6058 6.35527 0
M  V30 2117 H 197.732 -0.0690193 5.9976 0
M  V30 2118 H 199.411 0.300699 6.46301 0
M  V30 2119 N 199.544 -1.57102 0.125237 0
M  V30 2120 C 200.476 -2.12726 -0.853237 0
M  V30 2121 C 201.489 -1.07145 -1.22571 0
M  V30 2122 O 202.678 -1.34497 -1.17358 0
M  V30 2123 C 199.778 -2.61709 -2.15317 0
M  V30 2124 C 198.951 -3.91456 -1.95143 0
M  V30 2125 C 198.01 -4.25973 -3.08923 0
M  V30 2126 O 197.036 -4.94682 -2.81564 0
M  V30 2127 N 198.238 -3.83795 -4.35524 0
M  V30 2128 H 201.003 -2.97307 -0.377964 0
M  V30 2129 H 198.564 -1.61792 -0.0590011 0
M  V30 2130 H 200.556 -2.81826 -2.90441 0
M  V30 2131 H 199.126 -1.81974 -2.54174 0
M  V30 2132 H 198.346 -3.80185 -1.04177 0
M  V30 2133 H 199.634 -4.76283 -1.78976 0
M  V30 2134 H 199.032 -3.2839 -4.60626 0
M  V30 2135 H 197.589 -4.09008 -5.07499 0
M  V30 2136 N 201.022 0.148545 -1.56898 0
M  V30 2137 C 201.952 1.18524 -2.01182 0
M  V30 2138 C 202.933 1.4489 -0.891123 0
M  V30 2139 O 204.118 1.55836 -1.15882 0
M  V30 2140 C 201.248 2.51879 -2.39112 0
M  V30 2141 C 200.202 2.40038 -3.54353 0
M  V30 2142 C 199.528 3.78089 -3.78091 0
M  V30 2143 C 200.828 1.88577 -4.87069 0
M  V30 2144 H 202.522 0.817029 -2.88036 0
M  V30 2145 H 200.068 0.391575 -1.38574 0
M  V30 2146 H 202.021 3.24627 -2.68692 0
M  V30 2147 H 200.745 2.90532 -1.49193 0
M  V30 2148 H 199.404 1.69742 -3.24936 0
M  V30 2149 H 199.052 4.14175 -2.85426 0
M  V30 2150 H 198.752 3.71028 -4.55645 0
M  V30 2151 H 200.276 4.52387 -4.10095 0
M  V30 2152 H 201.69 2.51117 -5.15377 0
M  V30 2153 H 200.087 1.9241 -5.68417 0
M  V30 2154 H 201.157 0.84136 -4.77545 0
M  V30 2155 N 202.5 1.5196 0.417844 0
M  V30 2156 C 203.916 1.40569 0.755816 0
M  V30 2157 C 204.116 0.503316 1.95113 0
M  V30 2158 O 203.172 -0.0341925 2.52477 0
M  V30 2159 C 204.485 2.82947 1.01791 0
M  V30 2160 C 206.033 2.92231 1.12116 0
M  V30 2161 C 206.508 4.35559 1.41608 0
M  V30 2162 N 207.999 4.38753 1.48491 0
M  V30 2163 C 208.734 5.46705 1.7292 0
M  V30 2164 N 208.23 6.64788 1.95011 0
M  V30 2165 N 210.023 5.34209 1.74863 0
M  V30 2166 H 202.174 2.09168 -0.369098 0
M  V30 2167 H 204.437 0.942409 -0.102809 0
M  V30 2168 H 204.143 3.5106 0.212081 0
M  V30 2169 H 204.017 3.23462 1.94042 0
M  V30 2170 H 206.404 2.24304 1.9176 0
M  V30 2171 H 206.485 2.55185 0.177225 0
M  V30 2172 H 206.129 5.04042 0.624848 0
M  V30 2173 H 206.059 4.70133 2.37239 0
M  V30 2174 H 208.55 3.5363 1.33244 0
M  V30 2175 H 208.863 7.42845 2.13076 0
M  V30 2176 H 207.208 6.67869 1.92293 0
M  V30 2177 H 210.399 4.40937 1.57137 0
M  V30 2178 H 210.572 6.18415 1.93563 0
M  V30 2179 N 203.978 -0.674533 1.42435 0
M  V30 2180 C 205.394 -0.98769 1.25367 0
M  V30 2181 C 205.594 -2.00879 0.158044 0
M  V30 2182 O 204.65 -2.48075 -0.470633 0
M  V30 2183 C 205.963 -1.49224 2.6106 0
M  V30 2184 C 207.511 -1.61 2.68417 0
M  V30 2185 C 207.986 -2.14852 4.04478 0
M  V30 2186 N 209.477 -2.22185 4.06434 0
M  V30 2187 C 210.212 -2.64928 5.08528 0
M  V30 2188 N 209.708 -3.07121 6.21006 0
M  V30 2189 N 211.501 -2.64679 4.95885 0
M  V30 2190 H 203.652 0.00152503 2.124 0
M  V30 2191 H 205.915 -0.0618434 0.945981 0
M  V30 2192 H 205.621 -0.816453 3.42092 0
M  V30 2193 H 205.495 -2.47094 2.84999 0
M  V30 2194 H 207.882 -2.27686 1.87732 0
M  V30 2195 H 207.963 -0.616195 2.48267 0
M  V30 2196 H 207.607 -1.48775 4.85622 0
M  V30 2197 H 207.537 -3.15024 4.2198 0
M  V30 2198 H 210.028 -1.92435 3.25234 0
M  V30 2199 H 210.341 -3.38423 6.94759 0
M  V30 2200 H 208.686 -3.04978 6.24511 0
M  V30 2201 H 211.877 -2.31078 4.07088 0
M  V30 2202 H 212.05 -2.9767 5.75584 0
M  V30 2203 N 205.456 -1.28612 -0.910864 0
M  V30 2204 C 206.867 -1.14406 -1.47541 0
M  V30 2205 C 207.218 0.264901 -1.94403 0
M  V30 2206 O 206.343 1.15942 -1.82719 0
M  V30 2207 C 206.938 -2.07073 -2.68153 0
M  V30 2208 C 205.497 -1.96923 -3.20778 0
M  V30 2209 C 204.644 -1.98646 -1.93481 0
M  V30 2210 H 207.595 -1.41259 -0.723291 0
M  V30 2211 H 207.616 -1.63642 -3.43514 0
M  V30 2212 H 207.128 -3.09611 -2.34015 0
M  V30 2213 H 205.229 -0.97433 -3.59635 0
M  V30 2214 H 205.342 -2.84026 -3.85832 0
M  V30 2215 H 203.706 -1.43093 -2.10705 0
M  V30 2216 H 204.489 -3.02868 -1.61634 0
M  V30 2217 N 206.934 1.1197 -1.10907 0
M  V30 2218 C 207.864 2.19928 -0.784473 0
M  V30 2219 C 208.845 1.6833 0.244726 0
M  V30 2220 O 210.03 1.93892 0.109418 0
M  V30 2221 C 207.16 3.46597 -0.220827 0
M  V30 2222 C 206.114 4.11376 -1.18127 0
M  V30 2223 C 205.44 5.32554 -0.478594 0
M  V30 2224 C 206.74 4.56945 -2.52979 0
M  V30 2225 H 208.434 2.47337 -1.68715 0
M  V30 2226 H 205.98 1.18879 -0.812642 0
M  V30 2227 H 207.933 4.21396 0.0184278 0
M  V30 2228 H 206.657 3.1863 0.717113 0
M  V30 2229 H 205.316 3.38564 -1.40606 0
M  V30 2230 H 204.964 5.00856 0.463976 0
M  V30 2231 H 204.664 5.76844 -1.11912 0
M  V30 2232 H 206.188 6.10096 -0.248 0
M  V30 2233 H 207.602 5.23093 -2.3462 0
M  V30 2234 H 205.999 5.1203 -3.12962 0
M  V30 2235 H 207.069 3.70676 -3.12614 0
M  V30 2236 N 208.412 0.89855 1.29475 0
M  V30 2237 C 209.659 0.523882 1.95606 0
M  V30 2238 C 209.987 -0.929608 1.70847 0
M  V30 2239 O 209.242 -1.67401 1.01367 0
M  V30 2240 C 209.541 0.761398 3.49195 0
M  V30 2241 C 209.207 2.19207 3.94029 0
M  V30 2242 C 207.869 2.58326 4.05982 0
M  V30 2243 C 210.221 3.12379 4.17216 0
M  V30 2244 C 207.549 3.898 4.38489 0
M  V30 2245 C 209.901 4.43401 4.51197 0
M  V30 2246 C 208.565 4.82394 4.61359 0
M  V30 2247 H 207.835 0.191702 0.715773 0
M  V30 2248 H 210.482 1.13699 1.54094 0
M  V30 2249 H 208.787 0.0653622 3.91745 0
M  V30 2250 H 210.484 0.450904 3.98457 0
M  V30 2251 H 207.074 1.87846 3.85242 0
M  V30 2252 H 211.258 2.83371 4.07449 0
M  V30 2253 H 206.514 4.19734 4.44559 0
M  V30 2254 H 210.688 5.15623 4.68087 0
M  V30 2255 H 208.315 5.84306 4.86303 0
M  V30 2256 N 209.89 -1.43072 0.660911 0
M  V30 2257 C 210.822 -2.29108 -0.0647641 0
M  V30 2258 C 211.835 -1.42928 -0.779448 0
M  V30 2259 O 213.024 -1.66788 -0.635921 0
M  V30 2260 C 210.124 -3.20032 -1.11503 0
M  V30 2261 C 209.297 -4.34792 -0.476955 0
M  V30 2262 C 208.356 -5.06534 -1.42513 0
M  V30 2263 O 207.382 -5.61538 -0.930771 0
M  V30 2264 N 208.584 -5.1075 -2.75889 0
M  V30 2265 H 211.349 -2.92029 0.673731 0
M  V30 2266 H 208.91 -1.53846 0.50427 0
M  V30 2267 H 210.902 -3.64892 -1.75032 0
M  V30 2268 H 209.472 -2.58658 -1.75541 0
M  V30 2269 H 208.692 -3.92752 0.337572 0
M  V30 2270 H 209.98 -5.0879 -0.0318525 0
M  V30 2271 H 209.378 -4.67447 -3.18606 0
M  V30 2272 H 207.935 -5.59302 -3.347 0
M  V30 2273 N 211.368 -0.403325 -1.52352 0
M  V30 2274 C 212.315 0.425011 -2.26853 0
M  V30 2275 C 213.285 1.04598 -1.29029 0
M  V30 2276 O 214.47 1.07135 -1.57882 0
M  V30 2277 C 211.61 1.53888 -3.08889 0
M  V30 2278 C 210.723 0.939396 -4.21663 0
M  V30 2279 C 209.858 2.02547 -4.91068 0
M  V30 2280 C 208.897 1.40263 -5.95813 0
M  V30 2281 N 208.034 2.4286 -6.58759 0
M  V30 2282 H 212.874 -0.21674 -2.97211 0
M  V30 2283 H 210.411 -0.118722 -1.4662 0
M  V30 2284 H 212.369 2.19558 -3.54753 0
M  V30 2285 H 210.999 2.15074 -2.40714 0
M  V30 2286 H 210.051 0.171898 -3.80011 0
M  V30 2287 H 211.363 0.44436 -4.96817 0
M  V30 2288 H 210.517 2.75958 -5.40308 0
M  V30 2289 H 209.256 2.55415 -4.15469 0
M  V30 2290 H 208.261 0.653833 -5.45898 0
M  V30 2291 H 209.486 0.881719 -6.73352 0
M  V30 2292 H 207.432 2.94871 -5.85992 0
M  V30 2293 H 207.349 1.98152 -7.2957 0
M  V30 2294 H 208.617 3.15858 -7.12639 0
M  V30 2295 N 212.846 1.57033 -0.133567 0
M  V30 2296 C 214.092 1.95976 0.521649 0
M  V30 2297 C 214.425 1.01779 1.65393 0
M  V30 2298 O 213.7 0.0576581 1.94415 0
M  V30 2299 C 213.983 3.44738 1.04057 0
M  V30 2300 C 213.836 4.49711 -0.0892897 0
M  V30 2301 C 215.155 3.95682 1.92675 0
M  V30 2302 H 212.274 0.712579 0.188149 0
M  V30 2303 H 214.916 1.88813 -0.212076 0
M  V30 2304 H 213.066 3.50973 1.66583 0
M  V30 2305 H 214.738 4.55565 -0.725152 0
M  V30 2306 H 212.981 4.27261 -0.750378 0
M  V30 2307 H 213.652 5.51099 0.315284 0
M  V30 2308 H 216.128 3.91841 1.39998 0
M  V30 2309 H 215.004 5.00262 2.25897 0
M  V30 2310 H 215.265 3.37239 2.85872 0
M  V30 2311 N 214.325 -0.140222 1.56975 0
M  V30 2312 C 215.553 -0.866437 1.87884 0
M  V30 2313 C 215.968 -1.74428 0.722517 0
M  V30 2314 O 215.325 -1.79891 -0.30749 0
M  V30 2315 C 215.376 -1.71753 3.18093 0
M  V30 2316 O 215.097 -0.875056 4.29272 0
M  V30 2317 C 216.598 -2.55074 3.62563 0
M  V30 2318 H 213.818 -0.25019 0.622612 0
M  V30 2319 H 216.362 -0.130977 2.0408 0
M  V30 2320 H 214.517 -2.40598 3.03631 0
M  V30 2321 H 214.931 -1.46002 5.03769 0
M  V30 2322 H 216.405 -3.10356 4.5649 0
M  V30 2323 H 216.882 -3.31434 2.88181 0
M  V30 2324 H 217.488 -1.91509 3.79743 0
M  V30 2325 N 215.803 -1.52179 -0.40978 0
M  V30 2326 C 217.031 -1.70054 -1.17853 0
M  V30 2327 C 217.446 -0.409735 -1.843 0
M  V30 2328 O 216.803 0.614183 -1.71855 0
M  V30 2329 C 216.854 -2.83568 -2.24213 0
M  V30 2330 O 216.575 -4.0765 -1.60478 0
M  V30 2331 C 218.076 -3.12947 -3.13973 0
M  V30 2332 H 215.296 -0.569917 -0.354169 0
M  V30 2333 H 217.84 -1.98734 -0.482198 0
M  V30 2334 H 215.995 -2.57409 -2.89516 0
M  V30 2335 H 216.409 -4.70899 -2.30986 0
M  V30 2336 H 217.883 -3.95889 -3.84677 0
M  V30 2337 H 218.36 -2.26472 -3.76307 0
M  V30 2338 H 218.966 -3.40868 -2.5434 0
M  V30 2339 N 217.281 0.66697 -1.42791 0
M  V30 2340 C 218.527 1.4291 -1.43891 0
M  V30 2341 C 218.86 1.94114 -0.0578972 0
M  V30 2342 O 218.135 1.71414 0.91911 0
M  V30 2343 C 218.418 2.62049 -2.46987 0
M  V30 2344 C 218.271 2.16426 -3.94309 0
M  V30 2345 C 219.59 3.64266 -2.46978 0
M  V30 2346 H 216.709 0.518306 -0.523954 0
M  V30 2347 H 219.351 0.757321 -1.74255 0
M  V30 2348 H 217.501 3.19361 -2.21225 0
M  V30 2349 H 219.173 1.64221 -4.31079 0
M  V30 2350 H 217.416 1.47925 -4.078 0
M  V30 2351 H 218.087 3.02038 -4.62036 0
M  V30 2352 H 220.563 3.16686 -2.69906 0
M  V30 2353 H 219.439 4.45196 -3.21079 0
M  V30 2354 H 219.7 4.15927 -1.49857 0
M  V30 2355 N 218.759 1.29093 0.90403 0
M  V30 2356 C 219.722 1.1386 1.98919 0
M  V30 2357 C 220.722 0.0753457 1.60623 0
M  V30 2358 O 221.912 0.321931 1.71199 0
M  V30 2359 C 219.044 0.740198 3.32767 0
M  V30 2360 H 220.237 2.10246 2.13861 0
M  V30 2361 H 217.79 1.12218 1.08797 0
M  V30 2362 H 218.525 -0.223997 3.23525 0
M  V30 2363 H 218.31 1.50838 3.61926 0
M  V30 2364 H 219.8 0.656546 4.12407 0
M  V30 2365 N 220.237 -1.11381 1.11499 0
M  V30 2366 C 221.2 -2.15622 0.777153 0
M  V30 2367 C 222.2 -1.59504 -0.203779 0
M  V30 2368 O 223.39 -1.74188 0.020782 0
M  V30 2369 C 220.522 -3.40556 0.153116 0
M  V30 2370 H 221.715 -2.47021 1.70061 0
M  V30 2371 H 219.268 -1.26577 0.916952 0
M  V30 2372 H 220.003 -3.14767 -0.780536 0
M  V30 2373 H 219.788 -3.8257 0.859238 0
M  V30 2374 H 221.278 -4.17546 -0.0671044 0
M  V30 2375 N 221.715 -0.905404 -1.28997 0
M  V30 2376 C 222.992 -0.453513 -1.9027 0
M  V30 2377 C 223.372 1.06721 -1.82137 0
M  V30 2378 O 222.72 1.91159 -1.25182 0
M  V30 2379 C 222.93 -0.974494 -3.35119 0
M  V30 2380 C 224.278 -1.0216 -4.12127 0
M  V30 2381 O 225.302 -0.922557 -3.44046 0
M  V30 2382 O 224.161 -1.17121 -5.33802 0
M  V30 2383 H 221.255 -0.142347 -0.814657 0
M  V30 2384 H 223.801 -0.995642 -1.37423 0
M  V30 2385 H 222.573 -2.01848 -3.35221 0
M  V30 2386 H 222.196 -0.412706 -3.95452 0
M  V30 2387 N 223.193 1.4272 -0.668489 0
M  V30 2388 C 224.125 2.2914 0.052613 0
M  V30 2389 C 225.138 1.43339 0.771857 0
M  V30 2390 O 226.327 1.67123 0.627067 0
M  V30 2391 C 223.427 3.20618 1.09804 0
M  V30 2392 C 222.6 4.35039 0.45389 0
M  V30 2393 C 221.659 5.07282 1.39825 0
M  V30 2394 O 220.685 5.62024 0.900978 0
M  V30 2395 N 221.887 5.12206 2.73176 0
M  V30 2396 H 224.652 2.91668 -0.689209 0
M  V30 2397 H 222.213 1.53577 -0.512422 0
M  V30 2398 H 224.205 3.65815 1.73094 0
M  V30 2399 H 222.775 2.59585 1.74167 0
M  V30 2400 H 221.995 3.92567 -0.358396 0
M  V30 2401 H 223.283 5.088 0.00486972 0
M  V30 2402 H 222.681 4.6913 3.16122 0
M  V30 2403 H 221.238 5.61069 3.31729 0
M  V30 2404 N 224.671 0.411399 1.52136 0
M  V30 2405 C 225.896 -0.165538 2.06738 0
M  V30 2406 C 226.321 -1.379 1.27926 0
M  V30 2407 O 225.679 -1.78628 0.310114 0
M  V30 2408 C 225.727 -0.492124 3.57226 0
M  V30 2409 O 224.831 -1.58276 3.80818 0
M  V30 2410 H 224.172 -0.0132132 0.663869 0
M  V30 2411 H 226.702 0.585253 1.96051 0
M  V30 2412 H 226.712 -0.750104 4.01045 0
M  V30 2413 H 225.387 0.394922 4.14021 0
M  V30 2414 H 223.964 -1.31677 3.48877 0
M  V30 2415 N 226.149 -1.5696 0.141893 0
M  V30 2416 C 227.396 -1.9596 -0.510492 0
M  V30 2417 C 227.724 -1.02648 -1.65208 0
M  V30 2418 O 226.979 -0.0546947 -1.95624 0
M  V30 2419 C 227.278 -3.41242 -1.06249 0
M  V30 2420 C 226.944 -4.50882 -0.0398791 0
M  V30 2421 C 225.606 -4.80595 0.241247 0
M  V30 2422 C 227.958 -5.17058 0.65578 0
M  V30 2423 C 225.286 -5.73792 1.22393 0
M  V30 2424 C 227.638 -6.11313 1.62724 0
M  V30 2425 C 226.302 -6.39407 1.91612 0
M  V30 2426 H 225.572 -0.717068 -0.186802 0
M  V30 2427 H 228.219 -1.90142 0.227643 0
M  V30 2428 H 226.524 -3.43866 -1.87785 0
M  V30 2429 H 228.221 -3.68742 -1.57576 0
M  V30 2430 H 224.811 -4.27754 -0.269174 0
M  V30 2431 H 228.995 -4.94239 0.451779 0
M  V30 2432 H 224.251 -5.93853 1.45424 0
M  V30 2433 H 228.425 -6.61668 2.17183 0
M  V30 2434 H 226.052 -7.11427 2.6791 0
M  V30 2435 N 227.627 0.131896 -1.57047 0
M  V30 2436 C 228.855 0.856461 -1.88341 0
M  V30 2437 C 229.27 1.74042 -0.731757 0
M  V30 2438 O 228.627 1.80051 0.297945 0
M  V30 2439 C 228.678 1.70064 -3.18999 0
M  V30 2440 O 228.399 0.852278 -4.2973 0
M  V30 2441 C 229.9 2.53148 -3.63911 0
M  V30 2442 H 227.12 0.246885 -0.62393 0
M  V30 2443 H 229.664 0.120152 -2.04147 0
M  V30 2444 H 227.819 2.38984 -3.04902 0
M  V30 2445 H 228.233 1.43329 -5.04537 0
M  V30 2446 H 229.707 3.07931 -4.58129 0
M  V30 2447 H 230.184 3.29901 -2.89935 0
M  V30 2448 H 230.79 1.89492 -3.80753 0
M  V30 2449 N 229.106 1.52395 0.401703 0
M  V30 2450 C 230.355 1.66044 1.14509 0
M  V30 2451 C 230.668 0.400216 1.91462 0
M  V30 2452 O 231.874 0.416632 2.68284 0
M  V30 2453 C 230.33 2.93388 2.0845 0
M  V30 2454 C 229.938 4.26545 1.36978 0
M  V30 2455 C 231.682 3.16402 2.83001 0
M  V30 2456 C 229.589 5.45007 2.29611 0
M  V30 2457 H 228.519 0.618562 0.431158 0
M  V30 2458 H 231.17 1.78886 0.40892 0
M  V30 2459 H 229.552 2.74263 2.8565 0
M  V30 2460 H 230.726 4.56179 0.650916 0
M  V30 2461 H 229.041 4.09692 0.74438 0
M  V30 2462 H 231.638 4.02085 3.52465 0
M  V30 2463 H 231.981 2.30943 3.46368 0
M  V30 2464 H 232.514 3.36034 2.12898 0
M  V30 2465 H 229.253 6.32835 1.70879 0
M  V30 2466 H 228.773 5.19702 2.9945 0
M  V30 2467 H 230.452 5.7838 2.89974 0
M  V30 2468 N 230.584 -0.659388 1.43143 0
M  V30 2469 C 232 -0.974337 1.26407 0
M  V30 2470 C 232.2 -2.007 0.179341 0
M  V30 2471 O 231.256 -2.4856 -0.444295 0
M  V30 2472 C 232.569 -1.46447 2.62628 0
M  V30 2473 C 234.117 -1.58144 2.7011 0
M  V30 2474 C 234.592 -2.1055 4.06734 0
M  V30 2475 N 236.083 -2.17861 4.08767 0
M  V30 2476 C 236.818 -2.59519 5.1131 0
M  V30 2477 N 236.314 -3.00518 6.24228 0
M  V30 2478 N 238.107 -2.59404 4.98664 0
M  V30 2479 H 230.258 0.0240528 2.12386 0
M  V30 2480 H 232.521 -0.0518065 0.946583 0
M  V30 2481 H 232.227 -0.780123 3.42939 0
M  V30 2482 H 232.101 -2.44058 2.87603 0
M  V30 2483 H 234.488 -2.25682 1.90136 0
M  V30 2484 H 234.569 -0.589828 2.48907 0
M  V30 2485 H 234.213 -1.43616 4.87172 0
M  V30 2486 H 234.143 -3.10531 4.25298 0
M  V30 2487 H 236.634 -1.88975 3.27257 0
M  V30 2488 H 236.947 -3.31036 6.98309 0
M  V30 2489 H 235.292 -2.98337 6.2771 0
M  V30 2490 H 238.483 -2.26747 4.09516 0
M  V30 2491 H 238.656 -2.91548 5.78709 0
M  V30 2492 N 232.062 -1.29571 -0.897171 0
M  V30 2493 C 233.339 -1.08365 -1.62839 0
M  V30 2494 C 233.719 0.371331 -2.07808 0
M  V30 2495 O 233.067 1.3606 -1.83576 0
M  V30 2496 C 233.277 -2.0735 -2.80726 0
M  V30 2497 C 234.625 -2.38406 -3.51351 0
M  V30 2498 O 235.649 -2.05564 -2.90898 0
M  V30 2499 O 234.508 -2.9453 -4.60341 0
M  V30 2500 H 231.602 -0.415345 -0.715134 0
M  V30 2501 H 234.148 -1.40952 -0.945018 0
M  V30 2502 H 232.92 -3.05339 -2.44711 0
M  V30 2503 H 232.543 -1.75507 -3.56767 0
M  V30 2504 N 233.54 1.10788 -1.12088 0
M  V30 2505 C 234.47 2.19083 -0.807755 0
M  V30 2506 C 235.451 1.6858 0.226859 0
M  V30 2507 O 236.636 1.93997 0.0888475 0
M  V30 2508 C 233.766 3.46344 -0.257576 0
M  V30 2509 C 232.72 4.101 -1.22483 0
M  V30 2510 C 232.046 5.32016 -0.535052 0
M  V30 2511 C 233.346 4.54236 -2.57811 0
M  V30 2512 H 235.04 2.45534 -1.71328 0
M  V30 2513 H 232.586 1.1801 -0.825205 0
M  V30 2514 H 234.539 4.21392 -0.0262679 0
M  V30 2515 H 233.263 3.19373 0.683278 0
M  V30 2516 H 231.922 3.37054 -1.44189 0
M  V30 2517 H 231.57 5.01319 0.410827 0
M  V30 2518 H 231.27 5.75625 -1.18024 0
M  V30 2519 H 232.794 6.09799 -0.312695 0
M  V30 2520 H 234.208 5.20575 -2.40155 0
M  V30 2521 H 232.605 5.08682 -3.18375 0
M  V30 2522 H 233.675 3.6734 -3.16528 0
M  V30 2523 N 235.018 0.912232 1.28515 0
M  V30 2524 C 236.264 0.545405 1.95328 0
M  V30 2525 C 236.597 -0.908313 1.71649 0
M  V30 2526 O 235.872 -1.64575 1.03659 0
M  V30 2527 C 236.155 0.853483 3.4984 0
M  V30 2528 C 236.008 2.35982 3.82926 0
M  V30 2529 C 237.327 0.348589 4.38717 0
M  V30 2530 H 234.446 0.199626 0.709449 0
M  V30 2531 H 237.088 1.1412 1.5191 0
M  V30 2532 H 235.238 0.34643 3.86952 0
M  V30 2533 H 236.91 2.93738 3.55691 0
M  V30 2534 H 235.153 2.81543 3.30024 0
M  V30 2535 H 235.824 2.52593 4.90816 0
M  V30 2536 H 238.3 0.78294 4.08668 0
M  V30 2537 H 237.176 0.593242 5.45685 0
M  V30 2538 H 237.437 -0.751049 4.35674 0
M  V30 2539 N 236.496 -1.42363 0.676048 0
M  V30 2540 C 237.721 -2.06377 0.205705 0
M  V30 2541 C 238.146 -1.50463 -1.12883 0
M  V30 2542 O 237.504 -0.623619 -1.70237 0
M  V30 2543 C 237.552 -3.60277 0.152655 0
M  V30 2544 O 236.656 -4.02935 -0.87845 0
M  V30 2545 H 235.997 -0.655588 0.105359 0
M  V30 2546 H 238.527 -1.82475 0.925412 0
M  V30 2547 H 238.537 -4.07993 -0.0230675 0
M  V30 2548 H 237.212 -4.00346 1.12675 0
M  V30 2549 H 235.789 -3.66764 -0.673668 0
M  V30 2550 N 237.974 -0.419461 -1.51915 0
M  V30 2551 C 239.222 0.152637 -2.01523 0
M  V30 2552 C 239.543 1.44762 -1.30649 0
M  V30 2553 O 238.813 1.90997 -0.435535 0
M  V30 2554 H 237.393 0.0593966 -0.744635 0
M  V30 2555 H 240.055 -0.558073 -1.86739 0
M  V30 2556 H 239.151 0.341369 -3.10227 0
M  V30 2557 N 239.452 1.56882 -0.150215 0
M  V30 2558 C 240.677 2.01027 0.510184 0
M  V30 2559 C 241.102 1.02966 1.57415 0
M  V30 2560 O 240.46 0.00590158 1.81299 0
M  V30 2561 C 240.508 3.43899 1.08472 0
M  V30 2562 O 239.612 3.4885 2.19948 0
M  V30 2563 H 238.953 0.652233 0.124451 0
M  V30 2564 H 241.483 2.03093 -0.247894 0
M  V30 2565 H 241.493 3.82766 1.41259 0
M  V30 2566 H 240.168 4.14776 0.305582 0
M  V30 2567 H 238.745 3.21827 1.88366 0
M  V30 2568 N 240.93 -0.123565 1.57115 0
M  V30 2569 C 242.176 -0.833386 1.84885 0
M  V30 2570 C 242.509 -1.79742 0.735292 0
M  V30 2571 O 241.784 -1.92764 -0.25925 0
M  V30 2572 C 242.067 -1.5873 3.23228 0
M  V30 2573 C 241.92 -0.643183 4.45178 0
M  V30 2574 C 243.239 -2.54453 3.59085 0
M  V30 2575 H 240.358 -0.301518 0.6725 0
M  V30 2576 H 243 -0.097778 1.89748 0
M  V30 2577 H 241.15 -2.21438 3.19214 0
M  V30 2578 H 242.822 -0.0253015 4.61293 0
M  V30 2579 H 241.065 0.0456139 4.33776 0
M  V30 2580 H 241.736 -1.20724 5.38637 0
M  V30 2581 H 244.212 -2.01853 3.63861 0
M  V30 2582 H 243.088 -3.04238 4.5687 0
M  V30 2583 H 243.349 -3.36906 2.86264 0
M  V30 2584 N 242.408 -1.52605 -0.393616 0
M  V30 2585 C 243.355 -1.77055 -1.48054 0
M  V30 2586 C 244.325 -0.61358 -1.54352 0
M  V30 2587 O 245.51 -0.852806 -1.70681 0
M  V30 2588 C 242.65 -1.94108 -2.85335 0
M  V30 2589 C 241.763 -3.21792 -2.88226 0
M  V30 2590 C 240.898 -3.29188 -4.16904 0
M  V30 2591 C 239.937 -4.51013 -4.13828 0
M  V30 2592 N 239.074 -4.55716 -5.34105 0
M  V30 2593 H 243.914 -2.69815 -1.26506 0
M  V30 2594 H 241.451 -1.33683 -0.61379 0
M  V30 2595 H 243.409 -2.01979 -3.65049 0
M  V30 2596 H 242.039 -1.04713 -3.05344 0
M  V30 2597 H 241.091 -3.23015 -2.00911 0
M  V30 2598 H 242.403 -4.11557 -2.8182 0
M  V30 2599 H 241.557 -3.36216 -5.05018 0
M  V30 2600 H 240.296 -2.37389 -4.26026 0
M  V30 2601 H 239.301 -4.44115 -3.24102 0
M  V30 2602 H 240.526 -5.44123 -4.06333 0
M  V30 2603 H 238.472 -3.66807 -5.43865 0
M  V30 2604 H 238.389 -5.39346 -5.29756 0
M  V30 2605 H 239.657 -4.66993 -6.2413 0
M  V30 2606 N 243.887 0.651787 -1.4349 0
M  V30 2607 C 244.817 1.77621 -1.51569 0
M  V30 2608 C 245.798 1.66022 -0.370253 0
M  V30 2609 O 246.983 1.85095 -0.587658 0
M  V30 2610 C 244.113 3.16056 -1.43966 0
M  V30 2611 C 243.067 3.4242 -2.56774 0
M  V30 2612 C 242.393 4.8067 -2.34223 0
M  V30 2613 C 243.693 3.37023 -3.99015 0
M  V30 2614 H 245.387 1.71117 -2.45681 0
M  V30 2615 H 242.933 0.821825 -1.18246 0
M  V30 2616 H 244.886 3.94472 -1.48221 0
M  V30 2617 H 243.61 3.23293 -0.463586 0
M  V30 2618 H 242.269 2.66375 -2.51873 0
M  V30 2619 H 241.917 4.84585 -1.34856 0
M  V30 2620 H 241.617 4.9927 -3.09844 0
M  V30 2621 H 243.141 5.61342 -2.40265 0
M  V30 2622 H 244.555 4.05374 -4.05395 0
M  V30 2623 H 242.952 3.67159 -4.74673 0
M  V30 2624 H 244.022 2.3518 -4.2405 0
M  V30 2625 N 245.365 1.30045 0.890287 0
M  V30 2626 C 246.313 1.15873 2.01683 0
M  V30 2627 C 247.307 0.0719403 1.69247 0
M  V30 2628 O 248.513 0.232414 1.78493 0
M  V30 2629 H 244.888 0.358203 0.661207 0
M  V30 2630 H 246.859 2.11229 2.10772 0
M  V30 2631 C 245.608 0.861842 3.36849 0
M  V30 2632 H 244.931 1.69016 3.62317 0
M  V30 2633 H 246.371 0.802762 4.16331 0
M  V30 2634 C 244.83 -0.435132 3.34078 0
M  V30 2635 O 245.36 -1.4583 3.74295 0
M  V30 2636 N 243.566 -0.444377 2.87182 0
M  V30 2637 H 243.113 0.388723 2.5465 0
M  V30 2638 H 243.071 -1.31213 2.85711 0
M  V30 2639 N 246.843 -1.10192 1.12674 0
M  V30 2640 C 248.089 -1.82475 0.884915 0
M  V30 2641 C 248.422 -1.85093 -0.58773 0
M  V30 2642 O 247.697 -1.3134 -1.43457 0
M  V30 2643 C 247.98 -3.29018 1.46353 0
M  V30 2644 C 247.833 -3.34718 3.00473 0
M  V30 2645 C 249.152 -4.25473 1.12519 0
M  V30 2646 H 246.271 -0.662492 0.322915 0
M  V30 2647 H 248.913 -1.2913 1.39375 0
M  V30 2648 H 247.063 -3.74576 1.03077 0
M  V30 2649 H 248.735 -2.97622 3.52447 0
M  V30 2650 H 246.978 -2.74541 3.35872 0
M  V30 2651 H 247.649 -4.37918 3.36053 0
M  V30 2652 H 250.125 -3.88161 1.499 0
M  V30 2653 H 249.001 -5.26365 1.55663 0
M  V30 2654 H 249.262 -4.42084 0.0377407 0
M  V30 2655 N 248.321 -0.919034 -1.28029 0
M  V30 2656 C 249.231 -0.416756 -2.30869 0
M  V30 2657 C 250.247 0.498235 -1.66714 0
M  V30 2658 O 251.423 0.383144 -1.97722 0
M  V30 2659 C 248.488 0.330274 -3.45123 0
M  V30 2660 C 247.549 -0.618578 -4.2482 0
M  V30 2661 C 246.782 0.0928959 -5.33619 0
M  V30 2662 O 247.005 1.31375 -5.55065 0
M  V30 2663 O 245.939 -0.574499 -5.99152 0
M  V30 2664 H 249.765 -1.27043 -2.75851 0
M  V30 2665 H 247.35 -0.684052 -1.3282 0
M  V30 2666 H 249.232 0.751972 -4.14636 0
M  V30 2667 H 247.907 1.1597 -3.02213 0
M  V30 2668 H 246.814 -1.08978 -3.57875 0
M  V30 2669 H 248.147 -1.41497 -4.71423 0
M  V30 2670 N 249.799 1.42003 -0.683588 0
M  V30 2671 C 251.215 1.55625 -0.353976 0
M  V30 2672 C 251.415 1.66151 1.14 0
M  V30 2673 O 250.471 1.63329 1.92561 0
M  V30 2674 C 251.784 2.80171 -1.092 0
M  V30 2675 C 253.332 2.93954 -1.07518 0
M  V30 2676 C 253.807 4.21372 -1.79471 0
M  V30 2677 N 255.298 4.28303 -1.76381 0
M  V30 2678 C 256.033 5.25729 -2.28904 0
M  V30 2679 N 255.529 6.29254 -2.89846 0
M  V30 2680 N 257.322 5.17586 -2.19228 0
M  V30 2681 H 249.473 1.33415 -1.6527 0
M  V30 2682 H 251.736 0.64282 -0.696769 0
M  V30 2683 H 251.442 2.78561 -2.14701 0
M  V30 2684 H 251.316 3.7133 -0.662862 0
M  V30 2685 H 253.703 2.95086 -0.028475 0
M  V30 2686 H 253.784 2.04002 -1.54328 0
M  V30 2687 H 253.428 4.21001 -2.84114 0
M  V30 2688 H 253.358 5.10275 -1.30104 0
M  V30 2689 H 255.849 3.54119 -1.31939 0
M  V30 2690 H 256.162 6.99964 -3.27522 0
M  V30 2691 H 254.507 6.29791 -2.93919 0
M  V30 2692 H 257.698 4.35631 -1.71299 0
M  V30 2693 H 257.871 5.93348 -2.60466 0
M  V30 2694 N 251.277 0.427512 1.51691 0
M  V30 2695 C 252.517 -0.141524 2.03909 0
M  V30 2696 C 252.881 -1.40811 1.30523 0
M  V30 2697 O 254.082 -2.05676 1.73063 0
M  V30 2698 C 252.353 -0.364962 3.55532 0
M  V30 2699 S 253.912 -0.898812 4.29496 0
M  V30 2700 H 250.73 -0.0364542 0.710065 0
M  V30 2701 H 253.332 0.584659 1.86553 0
M  V30 2702 H 252.036 0.56336 4.06515 0
M  V30 2703 H 251.567 -1.1185 3.77164 0
M  V30 2704 H 253.582 -2.17747 4.45871 0
M  V30 2705 N 252.755 -1.56801 0.158532 0
M  V30 2706 C 253.98 -2.01295 -0.499516 0
M  V30 2707 C 254.405 -1.03799 -1.56867 0
M  V30 2708 O 253.763 -0.0155162 -1.81293 0
M  V30 2709 C 253.811 -3.44469 -1.06647 0
M  V30 2710 O 252.915 -3.50012 -2.18095 0
M  V30 2711 H 252.256 -0.652884 -0.12099 0
M  V30 2712 H 254.786 -2.02958 0.258661 0
M  V30 2713 H 254.796 -3.8351 -1.39227 0
M  V30 2714 H 253.471 -4.14932 -0.283581 0
M  V30 2715 H 252.048 -3.22822 -1.86656 0
M  V30 2716 N 254.233 0.115231 -1.57178 0
M  V30 2717 C 255.163 1.1423 -2.03651 0
M  V30 2718 C 256.144 1.42967 -0.921655 0
M  V30 2719 O 257.329 1.53343 -1.19162 0
M  V30 2720 C 254.459 2.4675 -2.44401 0
M  V30 2721 C 253.413 2.32467 -3.59365 0
M  V30 2722 C 252.739 3.69984 -3.86026 0
M  V30 2723 C 254.039 1.78203 -4.90959 0
M  V30 2724 H 255.733 0.755749 -2.89705 0
M  V30 2725 H 253.279 0.362093 -1.39373 0
M  V30 2726 H 255.232 3.18854 -2.75517 0
M  V30 2727 H 253.956 2.87302 -1.55322 0
M  V30 2728 H 252.615 1.62811 -3.28463 0
M  V30 2729 H 252.263 4.08028 -2.94147 0
M  V30 2730 H 251.963 3.61279 -4.63412 0
M  V30 2731 H 253.487 4.43587 -4.19599 0
M  V30 2732 H 254.901 2.40128 -5.20587 0
M  V30 2733 H 253.298 1.8031 -5.72371 0
M  V30 2734 H 254.368 0.739876 -4.79222 0
M  V30 2735 N 255.711 1.52812 0.385517 0
M  V30 2736 C 256.959 1.67694 1.12797 0
M  V30 2737 C 257.28 0.421115 1.90399 0
M  V30 2738 O 256.55 -0.564551 1.87589 0
M  V30 2739 H 255.13 0.618155 0.419396 0
M  V30 2740 H 257.792 1.89938 0.436972 0
M  V30 2741 H 256.888 2.52896 1.82894 0
M  V30 2742 N 257.189 -0.644168 1.43834 0
M  V30 2743 C 258.605 -0.960875 1.27434 0
M  V30 2744 C 258.805 -2.00499 0.200618 0
M  V30 2745 O 257.861 -2.49018 -0.417906 0
M  V30 2746 C 259.174 -1.43653 2.64167 0
M  V30 2747 C 260.722 -1.55271 2.71772 0
M  V30 2748 C 261.197 -2.06224 4.08944 0
M  V30 2749 N 262.688 -2.13513 4.11055 0
M  V30 2750 C 263.423 -2.54081 5.14033 0
M  V30 2751 N 262.919 -2.9388 6.27381 0
M  V30 2752 N 264.712 -2.54101 5.01387 0
M  V30 2753 H 256.863 0.0465779 2.12349 0
M  V30 2754 H 259.126 -0.0417638 0.94708 0
M  V30 2755 H 258.832 -0.743706 3.43747 0
M  V30 2756 H 258.706 -2.40993 2.90176 0
M  V30 2757 H 261.093 -2.23653 1.92519 0
M  V30 2758 H 261.174 -0.563395 2.49519 0
M  V30 2759 H 260.818 -1.38441 4.88668 0
M  V30 2760 H 260.748 -3.06003 4.28567 0
M  V30 2761 H 263.239 -1.85493 3.29242 0
M  V30 2762 H 263.552 -3.2361 7.01781 0
M  V30 2763 H 261.897 -2.91663 6.30839 0
M  V30 2764 H 265.088 -2.22391 4.11898 0
M  V30 2765 H 265.261 -2.85394 5.81768 0
M  V30 2766 N 258.668 -1.30515 -0.883378 0
M  V30 2767 C 259.598 -1.19607 -2.00541 0
M  V30 2768 C 260.579 -0.086346 -1.69881 0
M  V30 2769 O 261.764 -0.268654 -1.92333 0
M  V30 2770 C 258.894 -0.888758 -3.35736 0
M  V30 2771 C 257.848 -1.95659 -3.8066 0
M  V30 2772 C 257.174 -1.50224 -5.13164 0
M  V30 2773 C 258.474 -3.36788 -3.99213 0
M  V30 2774 H 260.168 -2.13476 -2.09925 0
M  V30 2775 H 257.714 -1.02775 -1.00863 0
M  V30 2776 H 259.667 -0.799094 -4.13754 0
M  V30 2777 H 258.391 0.0856125 -3.26488 0
M  V30 2778 H 257.05 -2.03591 -3.04871 0
M  V30 2779 H 256.698 -0.516092 -5.00345 0
M  V30 2780 H 256.398 -2.2165 -5.44192 0
M  V30 2781 H 257.922 -1.42639 -5.93706 0
M  V30 2782 H 259.336 -3.31605 -4.67665 0
M  V30 2783 H 257.733 -4.06314 -4.41621 0
M  V30 2784 H 258.803 -3.78561 -3.03017 0
M  V30 2785 N 260.146 1.09593 -1.13257 0
M  V30 2786 C 261.374 1.855 -0.916378 0
M  V30 2787 C 261.789 1.81069 0.534738 0
M  V30 2788 O 261.146 1.20562 1.37007 0
M  V30 2789 C 261.197 3.33546 -1.39388 0
M  V30 2790 O 260.918 3.37927 -2.78813 0
M  V30 2791 C 262.419 4.26299 -1.21588 0
M  V30 2792 H 259.639 0.585991 -0.326887 0
M  V30 2793 H 262.183 1.38488 -1.5047 0
M  V30 2794 H 260.338 3.77992 -0.848597 0
M  V30 2795 H 260.752 4.30254 -2.9997 0
M  V30 2796 H 262.226 5.28341 -1.59876 0
M  V30 2797 H 262.703 4.38918 -0.157376 0
M  V30 2798 H 263.309 3.87668 -1.7491 0
M  V30 2799 N 261.624 0.925811 1.2754 0
M  V30 2800 C 263.04 0.625767 1.46821 0
M  V30 2801 C 263.24 -0.825506 1.83814 0
M  V30 2802 O 262.296 -1.60356 1.95044 0
M  V30 2803 C 263.609 1.57402 2.56213 0
M  V30 2804 C 265.157 1.58204 2.70075 0
M  V30 2805 C 265.632 2.51721 3.82623 0
M  V30 2806 N 267.123 2.49917 3.89994 0
M  V30 2807 C 267.858 3.18968 4.76494 0
M  V30 2808 N 267.354 3.97391 5.67496 0
M  V30 2809 N 269.147 3.07996 4.70208 0
M  V30 2810 H 261.298 1.86409 1.01811 0
M  V30 2811 H 263.561 0.800213 0.508295 0
M  V30 2812 H 263.267 2.60925 2.35819 0
M  V30 2813 H 263.141 1.31428 3.53563 0
M  V30 2814 H 265.528 0.554124 2.89851 0
M  V30 2815 H 265.609 1.88226 1.73218 0
M  V30 2816 H 265.253 3.54622 3.63601 0
M  V30 2817 H 265.183 2.18996 4.78903 0
M  V30 2818 H 267.674 1.9296 3.24923 0
M  V30 2819 H 267.987 4.4707 6.30356 0
M  V30 2820 H 266.332 4.01495 5.67298 0
M  V30 2821 H 269.523 2.46223 3.9811 0
M  V30 2822 H 269.696 3.6208 5.37403 0
M  V30 2823 N 263.102 -1.41638 0.69111 0
M  V30 2824 C 264.518 -1.55435 0.362224 0
M  V30 2825 C 264.718 -1.66754 -1.13117 0
M  V30 2826 O 263.774 -1.64348 -1.91692 0
M  V30 2827 C 265.087 -2.79588 1.10684 0
M  V30 2828 C 266.635 -2.9338 1.09075 0
M  V30 2829 C 267.11 -4.20414 1.81703 0
M  V30 2830 N 268.601 -4.27362 1.7865 0
M  V30 2831 C 269.336 -5.24507 2.31689 0
M  V30 2832 N 268.832 -6.27708 2.93179 0
M  V30 2833 N 270.625 -5.16416 2.2197 0
M  V30 2834 H 262.776 -1.32536 1.65976 0
M  V30 2835 H 265.039 -0.639115 0.700168 0
M  V30 2836 H 264.745 -2.77419 2.16175 0
M  V30 2837 H 264.619 -3.70973 0.682545 0
M  V30 2838 H 267.006 -2.95067 0.0441238 0
M  V30 2839 H 267.087 -2.0318 1.55407 0
M  V30 2840 H 266.731 -4.19488 2.86343 0
M  V30 2841 H 266.661 -5.09578 1.32808 0
M  V30 2842 H 269.152 -3.53415 1.33815 0
M  V30 2843 H 269.465 -6.98217 3.31229 0
M  V30 2844 H 267.81 -6.28223 2.97255 0
M  V30 2845 H 271.001 -4.34716 1.73607 0
M  V30 2846 H 271.174 -5.91958 2.63609 0
M  V30 2847 N 264.58 -0.43555 -1.51462 0
M  V30 2848 C 265.828 0.131254 -2.01673 0
M  V30 2849 C 266.149 1.43368 -1.32177 0
M  V30 2850 O 265.419 1.90524 -0.455769 0
M  V30 2851 H 263.999 0.0514954 -0.745223 0
M  V30 2852 H 266.661 -0.577847 -1.86137 0
M  V30 2853 H 265.757 0.308446 -3.10572 0
M  V30 2854 N 266.058 1.56714 -0.166846 0
M  V30 2855 C 266.988 2.20754 0.760913 0
M  V30 2856 C 267.969 1.16178 1.24244 0
M  V30 2857 O 269.154 1.44592 1.29641 0
M  V30 2858 C 266.284 2.84478 1.99223 0
M  V30 2859 C 265.238 3.95053 1.64672 0
M  V30 2860 C 264.564 4.45805 2.95232 0
M  V30 2861 C 265.864 5.14865 0.878155 0
M  V30 2862 H 267.558 2.98537 0.22713 0
M  V30 2863 H 265.104 1.43596 0.107805 0
M  V30 2864 H 267.057 3.27951 2.64624 0
M  V30 2865 H 265.781 2.04056 2.55007 0
M  V30 2866 H 264.44 3.52228 1.01641 0
M  V30 2867 H 264.088 3.62181 3.49047 0
M  V30 2868 H 263.788 5.204 2.7287 0
M  V30 2869 H 265.312 4.91962 3.6167 0
M  V30 2870 H 266.726 5.55059 1.43466 0
M  V30 2871 H 265.123 5.95348 0.753738 0
M  V30 2872 H 266.193 4.84735 -0.126377 0
M  V30 2873 N 267.536 -0.106894 1.57237 0
M  V30 2874 C 268.766 -0.825191 1.89405 0
M  V30 2875 C 269.174 -1.73374 0.757496 0
M  V30 2876 O 268.517 -1.81552 -0.280115 0
M  V30 2877 C 268.579 -1.70102 3.1671 0
M  V30 2878 C 268.243 -0.965523 4.46684 0
M  V30 2879 C 269.24 -0.300741 5.19029 0
M  V30 2880 C 266.925 -0.943105 4.93367 0
M  V30 2881 C 268.919 0.376622 6.36286 0
M  V30 2882 C 266.606 -0.261949 6.10538 0
M  V30 2883 C 267.604 0.396748 6.81847 0
M  V30 2884 O 267.292 1.06701 7.96787 0
M  V30 2885 H 267.024 -0.241852 0.631255 0
M  V30 2886 H 269.578 -0.0921491 2.05193 0
M  V30 2887 H 267.808 -2.47601 2.97036 0
M  V30 2888 H 269.497 -2.29483 3.34802 0
M  V30 2889 H 270.263 -0.309599 4.84011 0
M  V30 2890 H 266.142 -1.44524 4.3776 0
M  V30 2891 H 269.686 0.891334 6.91882 0
M  V30 2892 H 265.583 -0.250896 6.45012 0
M  V30 2893 H 266.351 0.972707 8.127 0
M  V30 2894 N 269.014 -1.53014 -0.377408 0
M  V30 2895 C 269.944 -1.81589 -1.46791 0
M  V30 2896 C 270.925 -0.668622 -1.56408 0
M  V30 2897 O 272.11 -0.917337 -1.71168 0
M  V30 2898 C 269.24 -1.99519 -2.8427 0
M  V30 2899 C 268.194 -3.15249 -2.89486 0
M  V30 2900 C 267.52 -3.18451 -4.29527 0
M  V30 2901 C 268.82 -4.54084 -2.58079 0
M  V30 2902 H 270.514 -2.7291 -1.23127 0
M  V30 2903 H 268.06 -1.31319 -0.590883 0
M  V30 2904 H 270.013 -2.18092 -3.60575 0
M  V30 2905 H 268.737 -1.04897 -3.09296 0
M  V30 2906 H 267.396 -2.96477 -2.15631 0
M  V30 2907 H 267.044 -2.2149 -4.5161 0
M  V30 2908 H 266.744 -3.962 -4.33934 0
M  V30 2909 H 268.268 -3.39193 -5.07721 0
M  V30 2910 H 269.682 -4.72899 -3.24098 0
M  V30 2911 H 268.079 -5.33987 -2.7382 0
M  V30 2912 H 269.149 -4.60006 -1.53372 0
M  V30 2913 N 270.492 0.636531 -1.44174 0
M  V30 2914 C 271.455 1.73063 -1.50273 0
M  V30 2915 C 272.455 1.56113 -0.385397 0
M  V30 2916 O 273.645 1.61707 -0.64781 0
M  V30 2917 C 270.777 3.12096 -1.37145 0
M  V30 2918 H 271.97 1.69031 -2.47727 0
M  V30 2919 H 269.523 0.849706 -1.31186 0
M  V30 2920 H 270.258 3.21728 -0.407636 0
M  V30 2921 H 270.043 3.25805 -2.18159 0
M  V30 2922 H 271.533 3.91846 -1.44382 0
M  V30 2923 N 271.97 1.30982 0.876444 0
M  V30 2924 C 273.217 1.20296 1.62896 0
M  V30 2925 C 273.545 -0.240395 1.93009 0
M  V30 2926 O 272.8 -1.18733 1.55567 0
M  V30 2927 C 273.099 1.98572 2.9716 0
M  V30 2928 C 272.765 3.48125 2.86566 0
M  V30 2929 C 271.427 3.88905 2.83383 0
M  V30 2930 C 273.779 4.43322 2.74071 0
M  V30 2931 C 271.107 5.2316 2.65556 0
M  V30 2932 C 273.459 5.77695 2.57781 0
M  V30 2933 C 272.123 6.17704 2.52979 0
M  V30 2934 H 271.393 0.440193 0.59608 0
M  V30 2935 H 274.04 1.62177 1.01837 0
M  V30 2936 H 272.345 1.49352 3.62217 0
M  V30 2937 H 274.042 1.8769 3.54364 0
M  V30 2938 H 270.632 3.15723 2.89856 0
M  V30 2939 H 274.816 4.12752 2.75589 0
M  V30 2940 H 270.072 5.53241 2.60259 0
M  V30 2941 H 274.246 6.51091 2.47089 0
M  V30 2942 H 271.873 7.21678 2.38924 0
M  V30 2943 N 273.449 -1.08991 1.13837 0
M  V30 2944 C 274.399 -2.1393 0.788535 0
M  V30 2945 C 275.383 -1.59396 -0.219516 0
M  V30 2946 O 276.575 -1.76985 -0.0227557 0
M  V30 2947 C 273.704 -3.42305 0.261147 0
M  V30 2948 C 272.79 -4.03736 1.29837 0
M  V30 2949 N 273.181 -4.39659 2.50067 0
M  V30 2950 C 271.479 -4.30993 1.1472 0
M  V30 2951 C 272.18 -4.88113 3.16419 0
M  V30 2952 N 271.156 -4.85846 2.43832 0
M  V30 2953 H 274.958 -2.39516 1.70322 0
M  V30 2954 H 272.472 -1.26263 1.02134 0
M  V30 2955 H 274.469 -4.16899 -0.0077405 0
M  V30 2956 H 273.129 -3.18172 -0.647805 0
M  V30 2957 H 274.14 -4.30878 2.8734 0
M  V30 2958 H 270.817 -4.16444 0.296773 0
M  V30 2959 H 272.207 -5.25336 4.18894 0
M  V30 2960 N 274.927 -0.932562 -1.27047 0
M  V30 2961 C 275.875 -0.42603 -2.28665 0
M  V30 2962 C 276.869 0.49219 -1.62092 0
M  V30 2963 O 278.075 0.371355 -1.76128 0
M  V30 2964 H 274.45 -0.119213 -0.742491 0
M  V30 2965 H 276.421 -1.29579 -2.68797 0
M  V30 2966 C 275.17 0.301426 -3.46391 0
M  V30 2967 H 274.493 -0.39595 -3.97834 0
M  V30 2968 H 275.933 0.6202 -4.1944 0
M  V30 2969 C 274.392 1.51616 -3.00856 0
M  V30 2970 O 274.922 2.61476 -3.04948 0
M  V30 2971 N 273.128 1.36969 -2.56296 0
M  V30 2972 H 272.675 0.475873 -2.53166 0
M  V30 2973 H 272.633 2.18368 -2.26192 0
M  V30 2974 N 276.405 1.4127 -0.698611 0
M  V30 2975 C 277.816 1.84187 -0.305289 0
M  V30 2976 C 278.167 1.58449 1.15708 0
M  V30 2977 O 277.292 1.05651 1.88856 0
M  V30 2978 C 277.887 3.3435 -0.547314 0
M  V30 2979 C 276.446 3.75826 -0.207878 0
M  V30 2980 C 275.593 2.64647 -0.828099 0
M  V30 2981 H 278.544 1.30778 -0.89904 0
M  V30 2982 H 278.565 3.8001 0.192998 0
M  V30 2983 H 278.077 3.53051 -1.61172 0
M  V30 2984 H 276.178 3.62725 0.852143 0
M  V30 2985 H 276.291 4.74462 -0.665021 0
M  V30 2986 H 274.655 2.53395 -0.257458 0
M  V30 2987 H 275.438 2.86165 -1.89643 0
M  V30 2988 N 277.883 0.443576 1.51229 0
M  V30 2989 C 279.131 -0.120557 2.0174 0
M  V30 2990 C 279.452 -1.42665 1.32935 0
M  V30 2991 O 278.722 -1.9028 0.465866 0
M  V30 2992 H 277.302 -0.0475426 0.745486 0
M  V30 2993 H 279.964 0.587711 1.85828 0
M  V30 2994 H 279.06 -0.291972 3.10731 0
M  V30 2995 N 279.361 -1.56624 0.175154 0
M  V30 2996 C 280.324 -2.16934 -0.739738 0
M  V30 2997 C 281.324 -1.11842 -1.15533 0
M  V30 2998 O 282.514 -1.37335 -1.07167 0
M  V30 2999 C 279.646 -2.75531 -2.00738 0
M  V30 3000 H 280.839 -2.99131 -0.214639 0
M  V30 3001 H 278.392 -1.56123 -0.0744197 0
M  V30 3002 H 279.127 -1.97078 -2.57548 0
M  V30 3003 H 278.912 -3.52444 -1.71831 0
M  V30 3004 H 280.402 -3.21904 -2.66021 0
M  V30 3005 N 280.839 0.0985539 -1.57292 0
M  V30 3006 C 282.079 0.808332 -1.87737 0
M  V30 3007 C 282.443 1.7607 -0.76572 0
M  V30 3008 O 283.644 2.51358 -0.952499 0
M  V30 3009 C 281.915 1.52093 -3.23423 0
M  V30 3010 S 283.474 2.26947 -3.75554 0
M  V30 3011 H 280.292 0.269377 -0.657995 0
M  V30 3012 H 282.894 0.0656269 -1.9539 0
M  V30 3013 H 281.598 0.81363 -4.02254 0
M  V30 3014 H 281.129 2.30361 -3.189 0
M  V30 3015 H 283.144 3.53027 -3.48692 0
M  V30 3016 N 282.317 1.53212 0.369288 0
M  V30 3017 C 283.563 1.69466 1.11397 0
M  V30 3018 C 283.896 0.443257 1.89074 0
M  V30 3019 O 283.171 -0.559386 1.86282 0
M  V30 3020 C 283.454 2.9422 2.07621 0
M  V30 3021 C 283.307 4.29508 1.33577 0
M  V30 3022 C 284.626 3.14565 3.07794 0
M  V30 3023 H 281.745 0.616667 0.403597 0
M  V30 3024 H 284.387 1.85845 0.395179 0
M  V30 3025 H 282.537 2.80387 2.68916 0
M  V30 3026 H 284.209 4.55147 0.750955 0
M  V30 3027 H 282.452 4.29088 0.637618 0
M  V30 3028 H 283.123 5.12926 2.03989 0
M  V30 3029 H 285.599 3.2756 2.56601 0
M  V30 3030 H 284.475 4.03297 3.72348 0
M  V30 3031 H 284.736 2.29675 3.77759 0
M  V30 3032 N 283.795 -0.628877 1.44509 0
M  V30 3033 C 284.758 -1.72263 1.51188 0
M  V30 3034 C 285.758 -1.55907 0.39367 0
M  V30 3035 O 286.948 -1.61361 0.656377 0
M  V30 3036 C 284.08 -3.11365 1.38798 0
M  V30 3037 H 285.273 -1.67714 2.4862 0
M  V30 3038 H 282.826 -0.842737 1.31634 0
M  V30 3039 H 283.561 -3.21507 0.424693 0
M  V30 3040 H 283.346 -3.24644 2.19884 0
M  V30 3041 H 284.836 -3.91075 1.46458 0
M  V30 3042 N 285.273 -1.31445 -0.869486 0
M  V30 3043 C 286.203 -1.21727 -1.99261 0
M  V30 3044 C 287.184 -0.104359 -1.6978 0
M  V30 3045 O 288.369 -0.289038 -1.92037 0
M  V30 3046 C 285.499 -0.924317 -3.34774 0
M  V30 3047 C 284.453 -1.99685 -3.78563 0
M  V30 3048 C 283.779 -1.55658 -5.11541 0
M  V30 3049 C 285.079 -3.41003 -3.95619 0
M  V30 3050 H 286.773 -2.1569 -2.07649 0
M  V30 3051 H 284.319 -1.03839 -0.997675 0
M  V30 3052 H 286.272 -0.842934 -4.12883 0
M  V30 3053 H 284.996 0.0509793 -3.2656 0
M  V30 3054 H 283.655 -2.06813 -3.02694 0
M  V30 3055 H 283.303 -0.569132 -4.9977 0
M  V30 3056 H 283.003 -2.27409 -5.41811 0
M  V30 3057 H 284.527 -1.48928 -5.92159 0
M  V30 3058 H 285.941 -3.36547 -4.64122 0
M  V30 3059 H 284.338 -4.10975 -4.37286 0
M  V30 3060 H 285.408 -3.81754 -2.98985 0
M  V30 3061 N 286.751 1.08385 -1.14413 0
M  V30 3062 C 287.997 1.81044 -0.913834 0
M  V30 3063 C 288.33 1.86004 0.558209 0
M  V30 3064 O 287.605 1.33606 1.4135 0
M  V30 3065 C 287.888 3.26648 -1.51569 0
M  V30 3066 C 287.741 3.29895 -3.0576 0
M  V30 3067 C 289.06 4.23629 -1.19273 0
M  V30 3068 H 286.179 0.65727 -0.333414 0
M  V30 3069 H 288.821 1.26896 -1.41412 0
M  V30 3070 H 286.971 3.72889 -1.09023 0
M  V30 3071 H 288.643 2.91977 -3.57137 0
M  V30 3072 H 286.886 2.69163 -3.40197 0
M  V30 3073 H 287.557 4.32516 -3.42977 0
M  V30 3074 H 290.033 3.85727 -1.56057 0
M  V30 3075 H 288.909 5.23822 -1.64017 0
M  V30 3076 H 289.17 4.41968 -0.108068 0
M  V30 3077 N 288.23 0.939286 1.26551 0
M  V30 3078 C 289.455 0.602008 1.98471 0
M  V30 3079 C 289.88 -0.815624 1.69497 0
M  V30 3080 O 289.238 -1.54912 0.941905 0
M  V30 3081 C 289.286 0.848407 3.50477 0
M  V30 3082 O 288.39 -0.0804009 4.12322 0
M  V30 3083 H 287.731 0.23049 0.622712 0
M  V30 3084 H 290.261 1.2617 1.61066 0
M  V30 3085 H 290.271 0.768553 4.00696 0
M  V30 3086 H 288.946 1.88171 3.70897 0
M  V30 3087 H 287.523 0.0503508 3.72866 0
M  V30 3088 N 289.708 -1.40897 0.706093 0
M  V30 3089 C 290.954 -2.01352 0.241889 0
M  V30 3090 C 291.287 -1.55832 -1.15888 0
M  V30 3091 O 290.562 -0.774145 -1.7843 0
M  V30 3092 C 290.845 -3.58752 0.311311 0
M  V30 3093 C 290.698 -4.1437 1.74978 0
M  V30 3094 C 292.017 -4.38914 -0.322922 0
M  V30 3095 H 289.136 -0.731562 0.0893687 0
M  V30 3096 H 291.778 -1.67504 0.896802 0
M  V30 3097 H 289.928 -3.87718 -0.246302 0
M  V30 3098 H 291.6 -3.96239 2.36205 0
M  V30 3099 H 289.843 -3.69016 2.28057 0
M  V30 3100 H 290.514 -5.23532 1.74981 0
M  V30 3101 H 292.99 -4.15822 0.152089 0
M  V30 3102 H 291.866 -5.48358 -0.243855 0
M  V30 3103 H 292.127 -4.19176 -1.40513 0
M  V30 3104 N 291.186 -0.45159 -1.50991 0
M  V30 3105 C 292.602 -0.104647 -1.59257 0
M  V30 3106 C 292.802 1.38728 -1.4614 0
M  V30 3107 O 291.858 2.15866 -1.30989 0
M  V30 3108 C 293.171 -0.637468 -2.93865 0
M  V30 3109 C 294.719 -0.599166 -3.07212 0
M  V30 3110 C 295.194 -1.1092 -4.44366 0
M  V30 3111 N 296.685 -1.06778 -4.50725 0
M  V30 3112 C 297.42 -1.43314 -5.55201 0
M  V30 3113 N 296.916 -1.87204 -6.67028 0
M  V30 3114 N 298.709 -1.3504 -5.45638 0
M  V30 3115 H 290.86 -1.42214 -1.57762 0
M  V30 3116 H 293.123 -0.586921 -0.744465 0
M  V30 3117 H 292.829 -1.68187 -3.08879 0
M  V30 3118 H 292.703 -0.0702139 -3.77135 0
M  V30 3119 H 295.09 0.436277 -2.91857 0
M  V30 3120 H 295.171 -1.20299 -2.25747 0
M  V30 3121 H 294.815 -2.14318 -4.60467 0
M  V30 3122 H 294.745 -0.481773 -5.24392 0
M  V30 3123 H 297.236 -0.745643 -3.70471 0
M  V30 3124 H 297.549 -2.13282 -7.42786 0
M  V30 3125 H 295.894 -1.91142 -6.68199 0
M  V30 3126 H 299.085 -1.00607 -4.57161 0
M  V30 3127 H 299.258 -1.63841 -6.26945 0
M  V30 3128 N 292.664 1.56529 -0.183458 0
M  V30 3129 C 293.91 1.97537 0.459036 0
M  V30 3130 C 294.243 1.06989 1.62071 0
M  V30 3131 O 293.518 0.11948 1.94133 0
M  V30 3132 C 293.801 3.47874 0.930368 0
M  V30 3133 C 293.654 4.492 -0.232317 0
M  V30 3134 C 294.973 4.01612 1.79989 0
M  V30 3135 H 292.092 0.718204 0.165383 0
M  V30 3136 H 294.734 1.88042 -0.272038 0
M  V30 3137 H 292.884 3.56095 1.55333 0
M  V30 3138 H 294.556 4.53027 -0.86972 0
M  V30 3139 H 292.799 4.24657 -0.885928 0
M  V30 3140 H 293.47 5.51823 0.139796 0
M  V30 3141 H 295.946 3.96097 1.27461 0
M  V30 3142 H 294.822 5.07195 2.09867 0
M  V30 3143 H 295.083 3.46163 2.74998 0
M  V30 3144 N 294.142 -0.090211 1.57342 0
M  V30 3145 C 295.389 -0.792807 1.86335 0
M  V30 3146 C 295.717 -1.78494 0.772662 0
M  V30 3147 O 294.972 -1.94305 -0.233258 0
M  V30 3148 C 295.271 -1.55222 3.21933 0
M  V30 3149 C 294.937 -0.701765 4.45406 0
M  V30 3150 C 293.599 -0.467334 4.78925 0
M  V30 3151 C 295.951 -0.11086 5.21082 0
M  V30 3152 C 293.279 0.367785 5.85546 0
M  V30 3153 C 295.631 0.711609 6.28585 0
M  V30 3154 C 294.295 0.956086 6.60617 0
M  V30 3155 H 293.565 -0.290109 0.681849 0
M  V30 3156 H 296.212 -0.0541332 1.91423 0
M  V30 3157 H 294.517 -2.3626 3.12551 0
M  V30 3158 H 296.214 -2.10032 3.41595 0
M  V30 3159 H 292.804 -0.894598 4.1916 0
M  V30 3160 H 296.988 -0.279129 4.95514 0
M  V30 3161 H 292.244 0.566128 6.08773 0
M  V30 3162 H 296.418 1.17632 6.86393 0
M  V30 3163 H 294.045 1.60499 7.43064 0
M  V30 3164 N 295.62 -1.53406 -0.361157 0
M  V30 3165 C 296.85 -1.73465 -1.1222 0
M  V30 3166 C 297.258 -0.465486 -1.83384 0
M  V30 3167 O 296.601 0.571611 -1.7458 0
M  V30 3168 C 296.663 -2.84834 -2.19339 0
M  V30 3169 C 296.327 -4.25038 -1.67903 0
M  V30 3170 C 297.324 -5.07231 -1.14074 0
M  V30 3171 C 295.009 -4.71464 -1.73282 0
M  V30 3172 C 297.003 -6.33942 -0.663068 0
M  V30 3173 C 294.69 -5.98153 -1.25127 0
M  V30 3174 C 295.688 -6.79223 -0.717296 0
M  V30 3175 O 295.376 -8.03533 -0.242865 0
M  V30 3176 H 295.108 -0.583526 -0.341283 0
M  V30 3177 H 297.662 -2.00964 -0.424591 0
M  V30 3178 H 295.892 -2.5282 -2.92607 0
M  V30 3179 H 297.581 -2.9303 -2.80871 0
M  V30 3180 H 298.347 -4.72534 -1.09254 0
M  V30 3181 H 294.226 -4.08432 -2.13786 0
M  V30 3182 H 297.77 -6.97167 -0.245612 0
M  V30 3183 H 293.667 -6.32347 -1.29642 0
M  V30 3184 H 294.435 -8.177 -0.361786 0
M  V30 3185 N 297.098 0.621204 -1.44841 0
M  V30 3186 C 298.03 1.74615 -1.48466 0
M  V30 3187 C 299.043 1.58377 -0.37691 0
M  V30 3188 O 300.232 1.66508 -0.643215 0
M  V30 3189 C 297.332 3.12459 -1.31236 0
M  V30 3190 C 296.505 3.55064 -2.55438 0
M  V30 3191 C 295.564 4.71821 -2.32963 0
M  V30 3192 O 294.59 4.79628 -3.06505 0
M  V30 3193 N 295.792 5.64186 -1.36654 0
M  V30 3194 H 298.557 1.71973 -2.45449 0
M  V30 3195 H 296.118 0.806077 -1.40407 0
M  V30 3196 H 298.11 3.88302 -1.14032 0
M  V30 3197 H 296.68 3.09686 -0.4258 0
M  V30 3198 H 295.9 2.69324 -2.87851 0
M  V30 3199 H 297.188 3.80284 -3.38026 0
M  V30 3200 H 296.586 5.6058 -0.759344 0
M  V30 3201 H 295.143 6.39618 -1.25425 0
M  V30 3202 N 298.576 1.31904 0.862503 0
M  V30 3203 C 299.992 1.10724 1.14945 0
M  V30 3204 C 300.192 -0.117421 2.01158 0
M  V30 3205 O 299.248 -0.804595 2.39338 0
M  V30 3206 C 300.561 2.38267 1.83437 0
M  V30 3207 C 302.109 2.43949 1.96106 0
M  V30 3208 C 302.584 3.71394 2.68013 0
M  V30 3209 N 304.075 3.72331 2.75543 0
M  V30 3210 C 304.81 4.67641 3.31812 0
M  V30 3211 N 304.306 5.73313 3.88953 0
M  V30 3212 N 306.099 4.5515 3.29841 0
M  V30 3213 H 298.25 2.10436 0.288191 0
M  V30 3214 H 300.513 0.928705 0.190292 0
M  V30 3215 H 300.219 3.27759 1.27542 0
M  V30 3216 H 300.093 2.48633 2.83657 0
M  V30 3217 H 302.48 1.54922 2.51164 0
M  V30 3218 H 302.561 2.37543 0.949059 0
M  V30 3219 H 302.205 4.60791 2.13621 0
M  V30 3220 H 302.135 3.75069 3.69636 0
M  V30 3221 H 304.626 2.95947 2.34997 0
M  V30 3222 H 304.939 6.42107 4.30022 0
M  V30 3223 H 303.284 5.77077 3.87308 0
M  V30 3224 H 306.475 3.71766 2.84443 0
M  V30 3225 H 306.648 5.29604 3.73394 0
M  V30 3226 N 300.054 -1.07777 1.14986 0
M  V30 3227 C 301.294 -1.81888 0.932527 0
M  V30 3228 C 301.658 -1.84509 -0.531064 0
M  V30 3229 O 302.859 -2.54448 -0.866577 0
M  V30 3230 C 301.13 -3.23244 1.52473 0
M  V30 3231 S 302.689 -4.14154 1.44989 0
M  V30 3232 H 299.507 -0.626752 0.335712 0
M  V30 3233 H 302.109 -1.29503 1.46455 0
M  V30 3234 H 300.813 -3.18922 2.58296 0
M  V30 3235 H 300.344 -3.80704 0.991381 0
M  V30 3236 H 302.359 -4.94247 0.439799 0
M  V30 3237 N 301.532 -0.945985 -1.26051 0
M  V30 3238 C 302.943 -0.638096 -1.75457 0
M  V30 3239 C 303.294 0.846672 -1.76991 0
M  V30 3240 O 302.419 1.66262 -1.38513 0
M  V30 3241 C 303.014 -1.15157 -3.18629 0
M  V30 3242 C 301.573 -0.894004 -3.65629 0
M  V30 3243 C 300.72 -1.29967 -2.44957 0
M  V30 3244 H 303.671 -1.12376 -1.1206 0
M  V30 3245 H 303.692 -0.507615 -3.77099 0
M  V30 3246 H 303.204 -2.23222 -3.1748 0
M  V30 3247 H 301.305 0.172057 -3.72203 0
M  V30 3248 H 301.418 -1.52439 -4.54202 0
M  V30 3249 H 299.782 -0.718078 -2.44368 0
M  V30 3250 H 300.565 -2.38935 -2.46505 0
M  V30 3251 N 303.011 1.40521 -0.713556 0
M  V30 3252 C 303.921 2.34522 -0.0606667 0
M  V30 3253 C 304.937 1.57193 0.74607 0
M  V30 3254 O 306.113 1.89591 0.679493 0
M  V30 3255 C 303.178 3.36081 0.851491 0
M  V30 3256 C 302.239 4.29286 0.0349339 0
M  V30 3257 C 301.472 5.25994 0.903649 0
M  V30 3258 O 301.695 5.28616 2.14292 0
M  V30 3259 O 300.629 6.00918 0.343723 0
M  V30 3260 H 304.455 2.91968 -0.835972 0
M  V30 3261 H 302.04 1.41681 -0.47402 0
M  V30 3262 H 303.922 3.98369 1.37404 0
M  V30 3263 H 302.597 2.81052 1.60598 0
M  V30 3264 H 301.504 3.70289 -0.532633 0
M  V30 3265 H 302.837 4.87462 -0.681287 0
M  V30 3266 N 304.489 0.459591 1.5075 0
M  V30 3267 C 305.717 -0.0973749 2.06671 0
M  V30 3268 C 306.132 -1.34524 1.32472 0
M  V30 3269 O 305.489 -1.7827 0.390634 0
M  V30 3270 C 305.54 -0.39714 3.59312 0
M  V30 3271 O 305.261 0.801214 4.30711 0
M  V30 3272 C 306.762 -1.00234 4.31819 0
M  V30 3273 H 303.982 0.00195854 0.670997 0
M  V30 3274 H 306.526 0.645072 1.94059 0
M  V30 3275 H 304.681 -1.08951 3.71764 0
M  V30 3276 H 305.095 0.538857 5.21725 0
M  V30 3277 H 306.569 -1.16193 5.39632 0
M  V30 3278 H 307.046 -1.98939 3.91561 0
M  V30 3279 H 307.652 -0.348699 4.23868 0
M  V30 3280 N 305.967 -1.56429 0.191757 0
M  V30 3281 C 306.897 -2.21937 -0.725696 0
M  V30 3282 C 307.878 -1.1814 -1.2238 0
M  V30 3283 O 309.063 -1.46636 -1.27325 0
M  V30 3284 C 306.193 -2.87611 -1.94672 0
M  V30 3285 C 305.147 -3.97623 -1.58366 0
M  V30 3286 C 304.473 -4.50446 -2.88102 0
M  V30 3287 C 305.773 -5.16197 -0.796133 0
M  V30 3288 H 307.467 -2.98861 -0.179606 0
M  V30 3289 H 305.013 -1.43749 -0.0849464 0
M  V30 3290 H 306.966 -3.3212 -2.59373 0
M  V30 3291 H 305.69 -2.08087 -2.51728 0
M  V30 3292 H 304.349 -3.53801 -0.960247 0
M  V30 3293 H 303.997 -3.67688 -3.43241 0
M  V30 3294 H 303.697 -5.24675 -2.64556 0
M  V30 3295 H 305.221 -4.97654 -3.53798 0
M  V30 3296 H 306.635 -5.57271 -1.34618 0
M  V30 3297 H 305.032 -5.96471 -0.658928 0
M  V30 3298 H 306.102 -4.84473 0.203478 0
M  V30 3299 N 307.445 0.0818655 -1.57387 0
M  V30 3300 C 308.393 1.11712 -2.04018 0
M  V30 3301 C 309.387 1.40683 -0.94364 0
M  V30 3302 O 310.593 1.40209 -1.12878 0
M  V30 3303 H 306.968 0.377542 -0.650358 0
M  V30 3304 H 308.939 0.697614 -2.90131 0
M  V30 3305 C 307.688 2.42537 -2.49141 0
M  V30 3306 H 307.011 2.21092 -3.33104 0
M  V30 3307 H 308.451 3.13446 -2.85531 0
M  V30 3308 C 306.91 3.0778 -1.37014 0
M  V30 3309 O 307.44 3.95436 -0.706621 0
M  V30 3310 N 305.646 2.68242 -1.11779 0
M  V30 3311 H 305.193 1.97052 -1.65917 0
M  V30 3312 H 305.151 3.1222 -0.369594 0
M  V30 3313 N 308.923 1.53595 0.353017 0
M  V30 3314 C 310.171 1.70049 1.09215 0
M  V30 3315 C 310.492 0.461406 1.89463 0
M  V30 3316 O 309.762 -0.524633 1.88744 0
M  V30 3317 H 308.342 0.626912 0.40619 0
M  V30 3318 H 311.004 1.90822 0.396585 0
M  V30 3319 H 310.1 2.56718 1.77488 0
M  V30 3320 N 310.401 -0.613514 1.45168 0
M  V30 3321 C 311.331 -1.7354 1.56225 0
M  V30 3322 C 312.312 -1.64981 0.41414 0
M  V30 3323 O 313.497 -1.83472 0.636526 0
M  V30 3324 C 310.627 -3.12128 1.52295 0
M  V30 3325 C 309.581 -3.35491 2.65762 0
M  V30 3326 C 308.907 -4.74291 2.46885 0
M  V30 3327 C 310.207 -3.26325 4.0781 0
M  V30 3328 H 311.901 -1.64543 2.50132 0
M  V30 3329 H 309.447 -0.790185 1.20383 0
M  V30 3330 H 311.4 -3.90404 1.58628 0
M  V30 3331 H 310.124 -3.2195 0.549139 0
M  V30 3332 H 308.783 -2.59603 2.58847 0
M  V30 3333 H 308.431 -4.80839 1.47657 0
M  V30 3334 H 308.131 -4.9088 3.22972 0
M  V30 3335 H 309.655 -5.54775 2.55063 0
M  V30 3336 H 311.069 -3.94483 4.16 0
M  V30 3337 H 309.466 -3.54445 4.8424 0
M  V30 3338 H 310.536 -2.23855 4.30136 0
M  V30 3339 N 311.879 -1.3236 -0.855495 0
M  V30 3340 C 312.842 -1.21164 -1.94556 0
M  V30 3341 C 313.842 -0.134908 -1.60233 0
M  V30 3342 O 315.032 -0.385249 -1.69887 0
M  V30 3343 C 312.164 -0.863192 -3.29791 0
M  V30 3344 H 313.357 -2.18038 -2.05911 0
M  V30 3345 H 310.91 -1.16179 -1.04557 0
M  V30 3346 H 311.645 0.103769 -3.24134 0
M  V30 3347 H 311.43 -1.64166 -3.56078 0
M  V30 3348 H 312.92 -0.809156 -4.09686 0
M  V30 3349 N 313.357 1.07166 -1.15556 0
M  V30 3350 C 314.289 2.14341 -0.811815 0
M  V30 3351 C 315.302 1.61835 0.177015 0
M  V30 3352 O 316.491 1.78439 -0.0464996 0
M  V30 3353 C 313.591 3.38387 -0.186481 0
M  V30 3354 C 312.764 4.20238 -1.21321 0
M  V30 3355 C 311.823 5.2266 -0.609302 0
M  V30 3356 O 310.849 5.54719 -1.27576 0
M  V30 3357 N 312.051 5.77306 0.608099 0
M  V30 3358 H 314.816 2.44431 -1.73417 0
M  V30 3359 H 312.377 1.23089 -1.0517 0
M  V30 3360 H 314.369 4.04044 0.230339 0
M  V30 3361 H 312.939 3.05994 0.639249 0
M  V30 3362 H 312.159 3.50369 -1.80652 0
M  V30 3363 H 313.447 4.71736 -1.90638 0
M  V30 3364 H 312.845 5.53513 1.1679 0
M  V30 3365 H 311.402 6.44583 0.96725 0
M  V30 3366 N 314.835 0.952656 1.25548 0
M  V30 3367 C 316.082 0.606373 1.93208 0
M  V30 3368 C 316.41 -0.85631 1.74636 0
M  V30 3369 O 315.665 -1.62951 1.08376 0
M  V30 3370 C 315.964 0.908818 3.45652 0
M  V30 3371 C 315.63 2.35722 3.84378 0
M  V30 3372 C 314.292 2.75312 3.9466 0
M  V30 3373 C 316.644 3.29793 4.03591 0
M  V30 3374 C 313.972 4.08047 4.21562 0
M  V30 3375 C 316.324 4.62138 4.31985 0
M  V30 3376 C 314.988 5.01528 4.40484 0
M  V30 3377 H 314.258 0.221888 0.706998 0
M  V30 3378 H 316.905 1.20132 1.49133 0
M  V30 3379 H 315.21 0.231456 3.91116 0
M  V30 3380 H 316.907 0.619498 3.96186 0
M  V30 3381 H 313.497 2.04017 3.76928 0
M  V30 3382 H 317.681 3.00397 3.95064 0
M  V30 3383 H 312.937 4.38212 4.26357 0
M  V30 3384 H 317.111 5.35012 4.45797 0
M  V30 3385 H 314.738 6.04406 4.61083 0
M  V30 3386 N 316.313 -1.40141 0.720998 0
M  V30 3387 C 317.724 -1.83678 0.334553 0
M  V30 3388 C 318.075 -1.6027 -1.13173 0
M  V30 3389 O 317.2 -1.08643 -1.87152 0
M  V30 3390 C 317.795 -3.33437 0.600437 0
M  V30 3391 C 316.354 -3.75447 0.267642 0
M  V30 3392 C 315.501 -2.63296 0.870097 0
M  V30 3393 H 318.452 -1.29331 0.919732 0
M  V30 3394 H 318.473 -3.80269 -0.132517 0
M  V30 3395 H 317.985 -3.50442 1.66768 0
M  V30 3396 H 316.086 -3.64035 -0.794329 0
M  V30 3397 H 316.199 -4.73344 0.74042 0
M  V30 3398 H 314.563 -2.52954 0.297739 0
M  V30 3399 H 315.346 -2.83112 1.94172 0
M  V30 3400 N 317.792 -0.46758 -1.50504 0
M  V30 3401 C 319.069 0.15003 -1.95024 0
M  V30 3402 C 319.449 1.57304 -1.40779 0
M  V30 3403 O 318.797 2.20281 -0.607319 0
M  V30 3404 C 319.007 0.0969324 -3.48865 0
M  V30 3405 C 320.355 0.287565 -4.23625 0
M  V30 3406 O 321.379 0.173678 -3.55776 0
M  V30 3407 O 320.238 0.517186 -5.44047 0
M  V30 3408 H 317.332 0.113582 -0.819163 0
M  V30 3409 H 319.878 -0.52773 -1.61286 0
M  V30 3410 H 318.65 -0.896732 -3.80886 0
M  V30 3411 H 318.273 0.816303 -3.8913 0
M  V30 3412 N 319.27 1.56325 -0.20005 0
M  V30 3413 C 320.498 2.02105 0.442874 0
M  V30 3414 C 320.913 1.08014 1.5485 0
M  V30 3415 O 320.27 0.0858797 1.82298 0
M  V30 3416 C 320.321 3.47549 0.994583 0
M  V30 3417 O 320.042 4.38049 -0.0669322 0
M  V30 3418 C 321.543 4.0887 1.7129 0
M  V30 3419 H 318.763 0.661807 0.110691 0
M  V30 3420 H 321.307 2.02134 -0.310207 0
M  V30 3421 H 319.462 3.48204 1.69803 0
M  V30 3422 H 319.876 5.23368 0.344462 0
M  V30 3423 H 321.35 5.12475 2.05118 0
M  V30 3424 H 321.827 3.52615 2.61838 0
M  V30 3425 H 322.433 4.12002 1.05518 0
M  V30 3426 N 320.748 -0.0735177 1.57428 0
M  V30 3427 C 321.678 -1.0879 2.06608 0
M  V30 3428 C 322.659 -1.40473 0.959237 0
M  V30 3429 O 323.844 -1.5013 1.23185 0
M  V30 3430 C 320.974 -2.40183 2.50857 0
M  V30 3431 C 319.928 -2.22858 3.65402 0
M  V30 3432 C 319.254 -3.59619 3.957 0
M  V30 3433 C 320.554 -1.65123 4.95511 0
M  V30 3434 H 322.248 -0.678673 2.91607 0
M  V30 3435 H 319.794 -0.325013 1.40284 0
M  V30 3436 H 321.747 -3.11437 2.83874 0
M  V30 3437 H 320.471 -2.83083 1.62885 0
M  V30 3438 H 319.13 -1.54045 3.32664 0
M  V30 3439 H 318.778 -4.00086 3.04861 0
M  V30 3440 H 318.478 -3.48866 4.72828 0
M  V30 3441 H 320.002 -4.32306 4.31212 0
M  V30 3442 H 321.416 -2.26241 5.26771 0
M  V30 3443 H 319.813 -1.65071 5.7695 0
M  V30 3444 H 320.883 -0.612559 4.81015 0
M  V30 3445 N 322.226 -1.5378 -0.344866 0
M  V30 3446 C 323.637 -1.62428 -0.920552 0
M  V30 3447 C 323.988 -0.504747 -1.89596 0
M  V30 3448 O 323.113 0.365711 -2.13287 0
M  V30 3449 C 323.708 -2.94419 -1.67639 0
M  V30 3450 C 322.267 -3.05333 -2.20111 0
M  V30 3451 C 321.414 -2.57866 -1.01982 0
M  V30 3452 H 324.365 -1.58222 -0.123042 0
M  V30 3453 H 324.386 -2.83384 -2.53917 0
M  V30 3454 H 323.898 -3.7588 -0.966224 0
M  V30 3455 H 321.999 -2.28502 -2.94308 0
M  V30 3456 H 322.112 -4.10778 -2.46573 0
M  V30 3457 H 320.476 -2.13241 -1.39285 0
M  V30 3458 H 321.259 -3.41765 -0.324308 0
M  V30 3459 N 323.704 0.605807 -1.45491 0
M  V30 3460 C 324.952 1.36207 -1.49305 0
M  V30 3461 C 325.273 1.94519 -0.136863 0
M  V30 3462 O 324.543 1.77261 0.833983 0
M  V30 3463 H 323.123 0.50565 -0.549843 0
M  V30 3464 H 325.785 0.711239 -1.81459 0
M  V30 3465 H 324.881 2.18058 -2.23287 0
M  V30 3466 N 325.182 1.32811 0.848464 0
M  V30 3467 C 326.593 1.21315 1.41914 0
M  V30 3468 C 326.944 -0.171847 1.95446 0
M  V30 3469 O 326.069 -1.07093 1.88043 0
M  V30 3470 C 326.664 2.19631 2.57968 0
M  V30 3471 C 325.223 2.12003 3.11017 0
M  V30 3472 C 324.37 2.07651 1.83783 0
M  V30 3473 H 327.321 1.44549 0.655071 0
M  V30 3474 H 327.342 1.79845 3.35315 0
M  V30 3475 H 326.854 3.20423 2.18976 0
M  V30 3476 H 324.955 1.14481 3.54577 0
M  V30 3477 H 325.068 3.02111 3.71841 0
M  V30 3478 H 323.432 1.52983 2.03638 0
M  V30 3479 H 324.215 3.10235 1.47 0
M  V30 3480 N 326.66 -1.06551 1.16123 0
M  V30 3481 C 327.623 -2.12132 0.867906 0
M  V30 3482 C 328.623 -1.60224 -0.135944 0
M  V30 3483 O 329.813 -1.73943 0.0946422 0
M  V30 3484 C 326.945 -3.396 0.297419 0
M  V30 3485 H 328.138 -2.39586 1.80385 0
M  V30 3486 H 325.691 -1.22574 0.969812 0
M  V30 3487 H 326.426 -3.17794 -0.64633 0
M  V30 3488 H 326.211 -3.78581 1.02073 0
M  V30 3489 H 327.701 -4.17455 0.110052 0
M  V30 3490 N 328.138 -0.959301 -1.25041 0
M  V30 3491 C 329.386 -0.615393 -1.92503 0
M  V30 3492 C 329.707 0.850969 -1.75452 0
M  V30 3493 O 328.977 1.60658 -1.12098 0
M  V30 3494 H 327.557 -0.224613 -0.712431 0
M  V30 3495 H 330.219 -1.21855 -1.5211 0
M  V30 3496 H 329.315 -0.848738 -3.00338 0
M  V30 3497 N 329.616 1.39756 -0.72842 0
M  V30 3498 C 330.546 2.33289 -0.0991354 0
M  V30 3499 C 331.527 1.53568 0.731489 0
M  V30 3500 O 332.712 1.81987 0.677807 0
M  V30 3501 C 329.842 3.3763 0.813834 0
M  V30 3502 C 328.796 4.2791 0.0878663 0
M  V30 3503 C 328.122 5.22894 1.11741 0
M  V30 3504 C 329.422 5.11314 -1.06563 0
M  V30 3505 H 331.116 2.86163 -0.880408 0
M  V30 3506 H 328.662 1.37591 -0.424819 0
M  V30 3507 H 330.615 4.0201 1.26355 0
M  V30 3508 H 329.339 2.83181 1.62715 0
M  V30 3509 H 327.998 3.65 -0.342159 0
M  V30 3510 H 327.646 4.64744 1.92412 0
M  V30 3511 H 327.346 5.84143 0.636477 0
M  V30 3512 H 328.87 5.90151 1.56697 0
M  V30 3513 H 330.284 5.69076 -0.694671 0
M  V30 3514 H 328.681 5.81671 -1.47577 0
M  V30 3515 H 329.751 4.46534 -1.89038 0
M  V30 3516 N 331.094 0.475555 1.50254 0
M  V30 3517 C 332.34 -0.0780073 2.0265 0
M  V30 3518 C 332.673 -1.38968 1.35652 0
M  V30 3519 O 331.948 -1.8839 0.483691 0
M  V30 3520 C 332.231 -0.257161 3.59181 0
M  V30 3521 C 332.084 1.07585 4.36744 0
M  V30 3522 C 333.403 -1.00965 4.28362 0
M  V30 3523 H 330.522 -0.0268758 0.73651 0
M  V30 3524 H 333.164 0.622015 1.7953 0
M  V30 3525 H 331.314 -0.853412 3.79011 0
M  V30 3526 H 332.986 1.70902 4.28474 0
M  V30 3527 H 331.229 1.6714 4.00308 0
M  V30 3528 H 331.9 0.904088 5.44546 0
M  V30 3529 H 334.376 -0.504214 4.13034 0
M  V30 3530 H 333.252 -1.10381 5.37687 0
M  V30 3531 H 333.513 -2.04731 3.91839 0
M  V30 3532 N 332.573 -1.56217 0.208337 0
M  V30 3533 C 333.483 -2.23316 -0.718836 0
M  V30 3534 C 334.499 -1.23648 -1.22422 0
M  V30 3535 O 335.675 -1.56423 -1.26861 0
M  V30 3536 C 332.74 -2.88968 -1.91568 0
M  V30 3537 C 331.801 -4.03943 -1.45357 0
M  V30 3538 C 331.034 -4.66455 -2.59337 0
M  V30 3539 O 331.257 -4.27919 -3.77149 0
M  V30 3540 O 330.191 -5.55686 -2.31293 0
M  V30 3541 H 334.017 -3.03182 -0.177315 0
M  V30 3542 H 331.602 -1.49384 -0.0215402 0
M  V30 3543 H 333.484 -3.30455 -2.61491 0
M  V30 3544 H 332.159 -2.12071 -2.44556 0
M  V30 3545 H 331.066 -3.67052 -0.722746 0
M  V30 3546 H 332.399 -4.82543 -0.970219 0
M  V30 3547 N 334.051 0.0651679 -1.57465 0
M  V30 3548 C 335.297 0.764193 -1.87851 0
M  V30 3549 C 335.63 1.76889 -0.801495 0
M  V30 3550 O 334.905 1.93594 0.187528 0
M  V30 3551 C 335.188 1.46625 -3.28897 0
M  V30 3552 C 335.041 0.477515 -4.47258 0
M  V30 3553 C 336.36 2.4095 -3.68281 0
M  V30 3554 H 333.479 0.276351 -0.683227 0
M  V30 3555 H 336.121 0.0272868 -1.8998 0
M  V30 3556 H 334.271 2.09438 -3.27212 0
M  V30 3557 H 335.943 -0.145922 -4.61069 0
M  V30 3558 H 334.186 -0.206576 -4.33308 0
M  V30 3559 H 334.857 1.0065 -5.42746 0
M  V30 3560 H 337.333 1.88209 -3.71102 0
M  V30 3561 H 336.209 2.87072 -4.67847 0
M  V30 3562 H 336.47 3.26049 -2.98571 0
M  V30 3563 N 335.529 1.53961 0.336706 0
M  V30 3564 C 336.492 1.81724 1.39675 0
M  V30 3565 C 337.492 0.688532 1.45313 0
M  V30 3566 O 338.682 0.956829 1.45569 0
M  V30 3567 C 335.814 1.96543 2.78538 0
M  V30 3568 H 337.007 2.76424 1.16318 0
M  V30 3569 H 334.56 1.45478 0.571474 0
M  V30 3570 H 335.295 1.0401 3.07168 0
M  V30 3571 H 335.08 2.78665 2.75841 0
M  V30 3572 H 336.57 2.19516 3.5525 0
M  V30 3573 N 337.007 -0.598083 1.45811 0
M  V30 3574 C 338.255 -1.35413 1.50026 0
M  V30 3575 C 338.576 -1.94444 0.147177 0
M  V30 3576 O 337.846 -1.77701 -0.824571 0
M  V30 3577 H 336.426 -0.502727 0.552517 0
M  V30 3578 H 339.088 -0.701606 1.81834 0
M  V30 3579 H 338.184 -2.16871 2.2444 0
M  V30 3580 N 338.485 -1.33259 -0.841409 0
M  V30 3581 C 339.713 -1.27605 -1.62864 0
M  V30 3582 C 340.128 0.153507 -1.88175 0
M  V30 3583 O 339.485 1.09485 -1.46011 0
M  V30 3584 C 339.536 -2.04596 -2.98031 0
M  V30 3585 O 339.257 -3.41975 -2.73834 0
M  V30 3586 C 340.758 -2.06122 -3.92465 0
M  V30 3587 H 337.978 -0.439718 -0.506842 0
M  V30 3588 H 340.522 -1.75591 -1.04824 0
M  V30 3589 H 338.677 -1.60299 -3.5268 0
M  V30 3590 H 339.091 -3.81549 -3.59889 0
M  V30 3591 H 340.565 -2.64451 -4.84531 0
M  V30 3592 H 341.042 -1.05083 -4.26444 0
M  V30 3593 H 341.648 -2.50427 -3.43753 0
M  V30 3594 N 339.963 1.05934 -1.16686 0
M  V30 3595 C 341.203 1.80382 -0.961345 0
M  V30 3596 C 341.567 1.85331 0.501643 0
M  V30 3597 O 342.768 2.55795 0.825986 0
M  V30 3598 C 341.039 3.20777 -1.57596 0
M  V30 3599 S 342.598 4.11795 -1.51559 0
M  V30 3600 H 339.416 0.621332 -0.345641 0
M  V30 3601 H 342.018 1.27157 -1.48497 0
M  V30 3602 H 340.722 3.14773 -2.63337 0
M  V30 3603 H 340.253 3.79078 -1.05182 0
M  V30 3604 H 342.268 4.93485 -0.518374 0
M  V30 3605 N 341.441 0.965919 1.2453 0
M  V30 3606 C 342.371 0.513476 2.27784 0
M  V30 3607 C 343.352 -0.445974 1.6415 0
M  V30 3608 O 344.537 -0.342485 1.91156 0
M  V30 3609 C 341.667 -0.198839 3.4673 0
M  V30 3610 C 340.621 0.676456 4.2262 0
M  V30 3611 C 339.947 -0.167248 5.34438 0
M  V30 3612 C 341.247 1.96017 4.84123 0
M  V30 3613 H 342.941 1.3765 2.65881 0
M  V30 3614 H 340.487 0.663321 1.27813 0
M  V30 3615 H 342.44 -0.526567 4.18097 0
M  V30 3616 H 341.164 -1.0962 3.07654 0
M  V30 3617 H 339.823 0.98743 3.53052 0
M  V30 3618 H 339.471 -1.0647 4.91603 0
M  V30 3619 H 339.171 0.415181 5.86131 0
M  V30 3620 H 340.695 -0.489688 6.08633 0
M  V30 3621 H 342.109 1.69814 5.47573 0
M  V30 3622 H 340.506 2.48918 5.4604 0
M  V30 3623 H 341.576 2.65622 4.05676 0
M  V30 3624 N 342.919 -1.39368 0.735821 0
M  V30 3625 C 344.33 -1.83313 0.354015 0
M  V30 3626 C 344.681 -1.61461 -1.11466 0
M  V30 3627 O 343.806 -1.10621 -1.85989 0
M  V30 3628 C 344.401 -3.32781 0.635769 0
M  V30 3629 C 342.96 -3.75142 0.307448 0
M  V30 3630 C 342.107 -2.62358 0.897974 0
M  V30 3631 H 345.058 -1.28349 0.933398 0
M  V30 3632 H 345.079 -3.80388 -0.0921773 0
M  V30 3633 H 344.591 -3.48654 1.70476 0
M  V30 3634 H 342.692 -3.64857 -0.755674 0
M  V30 3635 H 342.805 -4.72532 0.790583 0
M  V30 3636 H 341.169 -2.52624 0.324551 0
M  V30 3637 H 341.952 -2.81036 1.97164 0
M  V30 3638 N 344.397 -0.483516 -1.5 0
M  V30 3639 C 345.347 0.32306 -2.257 0
M  V30 3640 C 346.331 0.950755 -1.29805 0
M  V30 3641 O 347.523 0.861247 -1.54634 0
M  V30 3642 C 344.652 1.39724 -3.13579 0
M  V30 3643 C 343.738 0.776663 -4.16928 0
M  V30 3644 N 344.129 -0.1104 -5.0568 0
M  V30 3645 C 342.427 1.03922 -4.33724 0
M  V30 3646 C 343.128 -0.46387 -5.79848 0
M  V30 3647 N 342.104 0.163987 -5.43353 0
M  V30 3648 H 345.906 -0.360086 -2.91686 0
M  V30 3649 H 343.42 -0.298456 -1.59634 0
M  V30 3650 H 345.417 1.98837 -3.66428 0
M  V30 3651 H 344.077 2.08225 -2.49143 0
M  V30 3652 H 345.088 -0.480069 -5.1567 0
M  V30 3653 H 341.765 1.71829 -3.80501 0
M  V30 3654 H 343.155 -1.18854 -6.61304 0
M  V30 3655 N 345.875 1.56104 -0.216619 0
M  V30 3656 C 346.838 2.18819 0.681962 0
M  V30 3657 C 347.838 1.14866 1.12528 0
M  V30 3658 O 349.028 1.40128 1.03488 0
M  V30 3659 C 346.16 2.80756 1.93362 0
M  V30 3660 H 347.353 2.99595 0.135254 0
M  V30 3661 H 344.906 1.56265 0.0330003 0
M  V30 3662 H 345.641 2.03837 2.52232 0
M  V30 3663 H 345.426 3.56876 1.62426 0
M  V30 3664 H 346.916 3.28844 2.57393 0
M  V30 3665 N 347.353 -0.0568162 1.57498 0
M  V30 3666 C 348.769 -0.411933 1.54192 0
M  V30 3667 C 348.969 -1.78287 0.938942 0
M  V30 3668 O 348.025 -2.46483 0.547919 0
M  V30 3669 C 349.338 -0.339244 2.9878 0
M  V30 3670 C 350.886 -0.418348 3.10192 0
M  V30 3671 C 351.361 -0.375407 4.56459 0
M  V30 3672 N 352.852 -0.435038 4.61153 0
M  V30 3673 C 353.587 -0.424265 5.71828 0
M  V30 3674 N 353.083 -0.367418 6.91825 0
M  V30 3675 N 354.876 -0.471938 5.60115 0
M  V30 3676 H 347.027 0.840684 1.95055 0
M  V30 3677 H 349.29 0.316987 0.893433 0
M  V30 3678 H 348.996 0.601742 3.46514 0
M  V30 3679 H 348.87 -1.14371 3.59443 0
M  V30 3680 H 351.257 -1.34976 2.62422 0
M  V30 3681 H 351.338 0.414962 2.52412 0
M  V30 3682 H 350.982 0.552219 5.04889 0
M  V30 3683 H 350.912 -1.22645 5.12119 0
M  V30 3684 H 353.403 -0.482612 3.74806 0
M  V30 3685 H 353.716 -0.363535 7.71944 0
M  V30 3686 H 352.061 -0.333879 6.94198 0
M  V30 3687 H 355.252 -0.514145 4.65268 0
M  V30 3688 H 355.425 -0.460073 6.46365 0
M  V30 3689 N 348.832 -1.54138 -0.328536 0
M  V30 3690 C 349.795 -1.82462 -1.38709 0
M  V30 3691 C 350.795 -0.696229 -1.44946 0
M  V30 3692 O 351.985 -0.964535 -1.4506 0
M  V30 3693 C 349.117 -1.98018 -2.77492 0
M  V30 3694 H 350.31 -2.77037 -1.14851 0
M  V30 3695 H 347.863 -1.45779 -0.563751 0
M  V30 3696 H 348.598 -1.05637 -3.06613 0
M  V30 3697 H 348.383 -2.80124 -2.74359 0
M  V30 3698 H 349.873 -2.21396 -3.54081 0
M  V30 3699 N 350.31 0.590341 -1.46126 0
M  V30 3700 C 351.535 1.37991 -1.54833 0
M  V30 3701 C 351.96 1.87163 -0.187506 0
M  V30 3702 O 351.318 1.61133 0.831008 0
M  V30 3703 C 351.366 2.54867 -2.55098 0
M  V30 3704 O 350.47 3.56061 -2.08073 0
M  V30 3705 H 349.811 0.411265 -0.521303 0
M  V30 3706 H 352.341 0.716819 -1.91632 0
M  V30 3707 H 352.351 3.01886 -2.74461 0
M  V30 3708 H 351.026 2.18429 -3.53923 0
M  V30 3709 H 349.603 3.15574 -1.98664 0
M  V30 3710 N 351.788 1.33704 0.83433 0
M  V30 3711 C 353.199 1.22813 1.4062 0
M  V30 3712 C 353.55 -0.151107 1.95617 0
M  V30 3713 O 352.675 -1.05092 1.89168 0
M  V30 3714 C 353.27 2.22355 2.55624 0
M  V30 3715 C 351.829 2.1529 3.08751 0
M  V30 3716 C 350.976 2.09589 1.8157 0
M  V30 3717 H 353.927 1.45236 0.639702 0
M  V30 3718 H 353.948 1.83391 3.33389 0
M  V30 3719 H 353.46 3.22728 2.15566 0
M  V30 3720 H 351.561 1.18235 3.53343 0
M  V30 3721 H 351.674 3.06038 3.68616 0
M  V30 3722 H 350.038 1.55134 2.02004 0
M  V30 3723 H 350.821 3.11777 1.43701 0
M  V30 3724 N 353.266 -1.05314 1.17247 0
M  V30 3725 C 354.682 -1.30452 0.919473 0
M  V30 3726 C 354.882 -1.9703 -0.42209 0
M  V30 3727 O 353.938 -2.24311 -1.15935 0
M  V30 3728 C 355.251 -2.17551 2.07586 0
M  V30 3729 C 356.799 -2.30937 2.11275 0
M  V30 3730 C 357.274 -3.21396 3.26296 0
M  V30 3731 N 358.765 -3.28981 3.26076 0
M  V30 3732 C 359.5 -3.99095 4.11716 0
M  V30 3733 N 358.996 -4.71648 5.07465 0
M  V30 3734 N 360.789 -3.95247 3.9967 0
M  V30 3735 H 352.94 -0.604988 2.03602 0
M  V30 3736 H 355.203 -0.329368 0.888944 0
M  V30 3737 H 354.909 -1.75921 3.0454 0
M  V30 3738 H 354.783 -3.18182 2.02584 0
M  V30 3739 H 357.17 -2.71809 1.14907 0
M  V30 3740 H 357.251 -1.2994 2.20339 0
M  V30 3741 H 356.895 -2.81238 4.22927 0
M  V30 3742 H 356.825 -4.22395 3.14467 0
M  V30 3743 H 359.316 -2.77286 2.5675 0
M  V30 3744 H 359.629 -5.22705 5.6921 0
M  V30 3745 H 357.974 -4.70594 5.11435 0
M  V30 3746 H 361.165 -3.37691 3.24164 0
M  V30 3747 H 361.338 -4.4962 4.66632 0
M  V30 3748 N 354.744 -0.972509 -1.24016 0
M  V30 3749 C 356.155 -0.67517 -1.74064 0
M  V30 3750 C 356.506 0.808939 -1.78747 0
M  V30 3751 O 355.631 1.63286 -1.42009 0
M  V30 3752 C 356.226 -1.21889 -3.16115 0
M  V30 3753 C 354.785 -0.971358 -3.6365 0
M  V30 3754 C 353.932 -1.35134 -2.42145 0
M  V30 3755 H 356.883 -1.14727 -1.09651 0
M  V30 3756 H 356.904 -0.587489 -3.75937 0
M  V30 3757 H 356.416 -2.29906 -3.12674 0
M  V30 3758 H 354.517 0.0930686 -3.72484 0
M  V30 3759 H 354.63 -1.62039 -4.50866 0
M  V30 3760 H 352.994 -0.769751 -2.4279 0
M  V30 3761 H 353.777 -2.4411 -2.41381 0
M  V30 3762 N 356.222 1.38976 -0.743202 0
M  V30 3763 C 357.447 2.05161 -0.303936 0
M  V30 3764 C 357.872 1.55677 1.05576 0
M  V30 3765 O 357.23 0.704131 1.67068 0
M  V30 3766 C 357.278 3.59138 -0.324373 0
M  V30 3767 O 356.382 4.06668 0.685204 0
M  V30 3768 H 355.723 0.649815 -0.136518 0
M  V30 3769 H 358.253 1.77852 -1.01142 0
M  V30 3770 H 358.263 4.07639 -0.171618 0
M  V30 3771 H 356.938 3.94515 -1.31647 0
M  V30 3772 H 355.515 3.69561 0.497913 0
M  V30 3773 N 357.7 0.491464 1.49741 0
M  V30 3774 C 358.948 -0.0563141 2.02022 0
M  V30 3775 C 359.269 -1.38363 1.37407 0
M  V30 3776 O 358.539 -1.88702 0.526166 0
M  V30 3777 H 357.119 -0.0238014 0.746621 0
M  V30 3778 H 359.781 0.646533 1.83864 0
M  V30 3779 H 358.877 -0.192967 3.11503 0
M  V30 3780 N 359.178 -1.55987 0.224894 0
M  V30 3781 C 360.141 -2.19178 -0.670348 0
M  V30 3782 C 361.141 -1.15461 -1.11917 0
M  V30 3783 O 362.331 -1.40675 -1.02743 0
M  V30 3784 C 359.463 -2.81777 -1.9187 0
M  V30 3785 H 360.656 -2.99662 -0.119364 0
M  V30 3786 H 358.209 -1.5628 -0.0247128 0
M  V30 3787 H 358.944 -2.05172 -2.51147 0
M  V30 3788 H 358.729 -3.57732 -1.60531 0
M  V30 3789 H 360.219 -3.30205 -2.55645 0
M  V30 3790 N 360.656 0.0484629 -1.57525 0
M  V30 3791 C 362.067 0.597486 -1.76881 0
M  V30 3792 C 362.418 1.76664 -0.853475 0
M  V30 3793 O 361.543 2.16357 -0.0433656 0
M  V30 3794 C 362.138 1.09066 -3.20765 0
M  V30 3795 C 360.697 1.58535 -3.41385 0
M  V30 3796 C 359.844 0.514868 -2.72478 0
M  V30 3797 H 362.795 -0.177758 -1.57701 0
M  V30 3798 H 362.816 1.95875 -3.2621 0
M  V30 3799 H 362.328 0.239521 -3.8736 0
M  V30 3800 H 360.429 2.45898 -2.79937 0
M  V30 3801 H 360.542 1.64622 -4.49929 0
M  V30 3802 H 358.906 0.965407 -2.35695 0
M  V30 3803 H 359.689 -0.32648 -3.41744 0
M  V30 3804 N 362.134 1.5431 0.320358 0
M  V30 3805 C 363.55 1.45091 0.664889 0
M  V30 3806 C 363.75 0.626382 1.91517 0
M  V30 3807 O 362.806 0.126443 2.52183 0
M  V30 3808 C 364.119 2.88848 0.83591 0
M  V30 3809 C 365.667 2.9877 0.933046 0
M  V30 3810 C 366.142 4.43683 1.13621 0
M  V30 3811 N 367.633 4.47309 1.20287 0
M  V30 3812 C 368.368 5.56595 1.37801 0
M  V30 3813 N 367.864 6.75844 1.52338 0
M  V30 3814 N 369.657 5.44248 1.40535 0
M  V30 3815 H 361.808 2.06398 -0.501374 0
M  V30 3816 H 364.071 0.933963 -0.162534 0
M  V30 3817 H 363.777 3.51698 -0.0116092 0
M  V30 3818 H 363.651 3.35148 1.73078 0
M  V30 3819 H 366.038 2.36045 1.77107 0
M  V30 3820 H 366.119 2.55796 0.0145782 0
M  V30 3821 H 365.763 5.06995 0.303032 0
M  V30 3822 H 365.693 4.84269 2.0686 0
M  V30 3823 H 368.184 3.61388 1.10485 0
M  V30 3824 H 368.497 7.54892 1.65403 0
M  V30 3825 H 366.842 6.78746 1.4943 0
M  V30 3826 H 370.033 4.50038 1.28777 0
M  V30 3827 H 370.206 6.29473 1.53842 0
M  V30 3828 N 363.613 -0.582584 1.46437 0
M  V30 3829 C 364.546 -1.70633 1.51524 0
M  V30 3830 C 365.524 -1.58349 0.369351 0
M  V30 3831 O 366.708 -1.79563 0.573516 0
M  V30 3832 C 363.835 -3.08687 1.39392 0
M  V30 3833 C 362.881 -3.3949 2.58164 0
M  V30 3834 S 363.714 -3.31548 4.20519 0
M  V30 3835 C 364.87 -4.72139 4.10896 0
M  V30 3836 H 365.103 -1.66058 2.46601 0
M  V30 3837 H 362.636 -0.761337 1.34324 0
M  V30 3838 H 364.594 -3.8833 1.33079 0
M  V30 3839 H 363.255 -3.10751 0.457436 0
M  V30 3840 H 362.448 -4.40071 2.45669 0
M  V30 3841 H 362.05 -2.67415 2.61468 0
M  V30 3842 H 364.342 -5.62527 3.77584 0
M  V30 3843 H 365.285 -4.89692 5.11476 0
M  V30 3844 H 365.693 -4.48995 3.42146 0
M  V30 3845 N 365.091 -1.34144 -0.827227 0
M  V30 3846 C 366.041 -1.21923 -1.92663 0
M  V30 3847 C 367.025 -0.119294 -1.60457 0
M  V30 3848 O 368.217 -0.348539 -1.73534 0
M  V30 3849 C 365.346 -0.972492 -3.29238 0
M  V30 3850 C 364.432 -2.1154 -3.67576 0
M  V30 3851 N 364.823 -3.36627 -3.77512 0
M  V30 3852 C 363.121 -2.02468 -3.97395 0
M  V30 3853 C 363.822 -4.11658 -4.1099 0
M  V30 3854 N 362.798 -3.40207 -4.23981 0
M  V30 3855 H 366.6 -2.16721 -1.98517 0
M  V30 3856 H 364.114 -1.2632 -1.02064 0
M  V30 3857 H 366.111 -0.865847 -4.0781 0
M  V30 3858 H 364.771 -0.0331509 -3.24683 0
M  V30 3859 H 365.782 -3.71234 -3.61118 0
M  V30 3860 H 362.459 -1.16265 -4.00985 0
M  V30 3861 H 363.849 -5.19657 -4.25918 0
M  V30 3862 N 366.569 1.04691 -1.17803 0
M  V30 3863 C 367.809 1.79352 -0.980423 0
M  V30 3864 C 368.173 1.85853 0.481958 0
M  V30 3865 O 369.374 2.56656 0.798809 0
M  V30 3866 C 367.645 3.19088 -1.6099 0
M  V30 3867 S 369.204 4.10164 -1.55918 0
M  V30 3868 H 366.022 0.617631 -0.352211 0
M  V30 3869 H 368.624 1.25575 -1.49837 0
M  V30 3870 H 367.328 3.11962 -2.66661 0
M  V30 3871 H 366.859 3.77941 -1.09197 0
M  V30 3872 H 368.874 4.92907 -0.570685 0
M  V30 3873 N 368.047 0.979072 1.23499 0
M  V30 3874 C 369.272 0.664845 1.96455 0
M  V30 3875 C 369.697 -0.761287 1.72006 0
M  V30 3876 O 369.055 -1.51837 0.990713 0
M  V30 3877 C 369.103 0.959479 3.47601 0
M  V30 3878 O 368.207 0.0508168 4.12369 0
M  V30 3879 H 367.548 0.250185 0.615064 0
M  V30 3880 H 370.078 1.31231 1.5697 0
M  V30 3881 H 370.088 0.895642 3.98048 0
M  V30 3882 H 368.763 1.99876 3.64723 0
M  V30 3883 H 367.34 0.16895 3.72517 0
M  V30 3884 N 369.525 -1.3858 0.750561 0
M  V30 3885 C 370.936 -1.82927 0.373438 0
M  V30 3886 C 371.287 -1.62634 -1.09748 0
M  V30 3887 O 370.412 -1.12588 -1.84805 0
M  V30 3888 C 371.007 -3.32088 0.671029 0
M  V30 3889 C 369.566 -3.74795 0.34722 0
M  V30 3890 C 368.713 -2.61391 0.92575 0
M  V30 3891 H 371.664 -1.27351 0.946958 0
M  V30 3892 H 371.685 -3.80465 -0.0518269 0
M  V30 3893 H 371.197 -3.46826 1.74164 0
M  V30 3894 H 369.298 -3.65638 -0.716933 0
M  V30 3895 H 369.411 -4.71667 0.840656 0
M  V30 3896 H 367.775 -2.52265 0.351327 0
M  V30 3897 H 368.558 -2.78929 2.00133 0
M  V30 3898 N 371.003 -0.499398 -1.49478 0
M  V30 3899 C 372.28 0.108629 -1.95298 0
M  V30 3900 C 372.66 1.54282 -1.44084 0
M  V30 3901 O 372.008 2.18944 -0.653908 0
M  V30 3902 C 372.218 0.0229111 -3.48992 0
M  V30 3903 C 373.566 0.197643 -4.2414 0
M  V30 3904 O 374.59 0.0981735 -3.56065 0
M  V30 3905 O 373.449 0.401669 -5.45022 0
M  V30 3906 H 370.543 0.096181 -0.821388 0
M  V30 3907 H 373.089 -0.561822 -1.6013 0
M  V30 3908 H 371.861 -0.977321 -3.78899 0
M  V30 3909 H 371.484 0.733579 -3.90774 0
M  V30 3910 N 372.481 1.55866 -0.233164 0
M  V30 3911 C 373.729 1.9821 0.394593 0
M  V30 3912 C 374.05 1.12234 1.59463 0
M  V30 3913 O 373.32 0.201981 1.94856 0
M  V30 3914 H 371.9 0.732034 0.148778 0
M  V30 3915 H 374.562 1.92107 -0.32876 0
M  V30 3916 H 373.658 3.03845 0.713063 0
M  V30 3917 N 373.959 -0.0401083 1.57549 0
M  V30 3918 C 374.869 -1.06133 2.0922 0
M  V30 3919 C 375.885 -1.40356 1.0284 0
M  V30 3920 O 377.061 -1.49897 1.34509 0
M  V30 3921 C 374.126 -2.34658 2.55218 0
M  V30 3922 C 373.187 -2.07117 3.76033 0
M  V30 3923 C 372.42 -3.29514 4.19829 0
M  V30 3924 O 372.643 -4.39794 3.63232 0
M  V30 3925 O 371.577 -3.15863 5.12362 0
M  V30 3926 H 375.403 -0.652244 2.96613 0
M  V30 3927 H 372.988 -0.256368 1.47184 0
M  V30 3928 H 374.87 -3.10239 2.85184 0
M  V30 3929 H 373.545 -2.74883 1.70941 0
M  V30 3930 H 372.452 -1.29139 3.51104 0
M  V30 3931 H 373.785 -1.71754 4.61261 0
M  V30 3932 N 375.437 -1.54477 -0.31217 0
M  V30 3933 C 376.683 -1.74417 -1.04644 0
M  V30 3934 C 377.038 -0.517641 -1.85306 0
M  V30 3935 O 376.331 0.489973 -1.85229 0
M  V30 3936 C 376.525 -2.967 -1.99258 0
M  V30 3937 C 376.354 -4.31128 -1.27901 0
M  V30 3938 C 375.124 -4.95087 -1.01079 0
M  V30 3939 C 377.322 -5.09662 -0.689119 0
M  V30 3940 N 375.304 -6.13322 -0.266323 0
M  V30 3941 C 376.675 -6.19952 -0.0768523 0
M  V30 3942 C 378.73 -4.94355 -0.593061 0
M  V30 3943 C 377.433 -7.16604 0.622165 0
M  V30 3944 C 379.459 -5.91328 0.0922792 0
M  V30 3945 C 378.821 -7.00978 0.693443 0
M  V30 3946 H 374.92 -0.69094 -0.366231 0
M  V30 3947 H 377.504 -1.91946 -0.326319 0
M  V30 3948 H 375.675 -2.80616 -2.68532 0
M  V30 3949 H 377.407 -3.05216 -2.65755 0
M  V30 3950 H 374.162 -4.55235 -1.30607 0
M  V30 3951 H 374.586 -6.76937 0.0920973 0
M  V30 3952 H 379.228 -4.09719 -1.04355 0
M  V30 3953 H 376.946 -8.0079 1.08445 0
M  V30 3954 H 380.532 -5.81562 0.166396 0
M  V30 3955 H 379.412 -7.74725 1.21533 0
M  V30 3956 N 376.915 0.57481 -1.46744 0
M  V30 3957 C 377.845 1.69337 -1.60771 0
M  V30 3958 C 378.826 1.63825 -0.457736 0
M  V30 3959 O 380.011 1.8172 -0.684947 0
M  V30 3960 C 377.141 3.0798 -1.60517 0
M  V30 3961 C 376.095 3.28327 -2.74564 0
M  V30 3962 C 375.421 4.67578 -2.59373 0
M  V30 3963 C 376.721 3.15398 -4.16319 0
M  V30 3964 H 378.415 1.57853 -2.54407 0
M  V30 3965 H 375.961 0.75799 -1.22436 0
M  V30 3966 H 377.914 3.86061 -1.68923 0
M  V30 3967 H 376.638 3.20381 -0.634305 0
M  V30 3968 H 375.297 2.52649 -2.65639 0
M  V30 3969 H 374.945 4.76755 -1.60353 0
M  V30 3970 H 374.645 4.82144 -3.35873 0
M  V30 3971 H 376.169 5.47817 -2.69682 0
M  V30 3972 H 377.583 3.83315 -4.26313 0
M  V30 3973 H 375.98 3.41482 -4.93468 0
M  V30 3974 H 377.05 2.12372 -4.3592 0
M  V30 3975 N 378.394 1.34581 0.820102 0
M  V30 3976 C 379.64 1.27285 1.57881 0
M  V30 3977 C 379.973 -0.156137 1.93571 0
M  V30 3978 O 379.248 -1.10222 1.60254 0
M  V30 3979 C 379.531 2.16639 2.87645 0
M  V30 3980 C 379.384 3.68088 2.58517 0
M  V30 3981 C 380.703 2.05378 3.8924 0
M  V30 3982 H 377.822 0.463714 0.572833 0
M  V30 3983 H 380.464 1.64859 0.944539 0
M  V30 3984 H 378.614 1.84725 3.41773 0
M  V30 3985 H 380.286 4.10382 2.10676 0
M  V30 3986 H 378.529 3.89038 1.91917 0
M  V30 3987 H 379.2 4.2598 3.51063 0
M  V30 3988 H 381.676 2.33404 3.44473 0
M  V30 3989 H 380.552 2.7012 4.77835 0
M  V30 3990 H 380.813 1.0316 4.29896 0
M  V30 3991 N 379.872 -1.04064 1.18357 0
M  V30 3992 C 381.283 -1.58719 0.98312 0
M  V30 3993 C 381.634 -1.90556 -0.467193 0
M  V30 3994 O 380.759 -1.69561 -1.34454 0
M  V30 3995 C 381.354 -2.88379 1.77828 0
M  V30 3996 C 379.913 -3.3965 1.62218 0
M  V30 3997 C 379.06 -2.13235 1.77274 0
M  V30 3998 H 382.011 -0.867359 1.32901 0
M  V30 3999 H 382.032 -3.58773 1.26737 0
M  V30 4000 H 381.544 -2.65176 2.83379 0
M  V30 4001 H 379.645 -3.67866 0.592036 0
M  V30 4002 H 379.758 -4.13475 2.42023 0
M  V30 4003 H 378.122 -2.24542 1.20221 0
M  V30 4004 H 378.905 -1.92487 2.8426 0
M  V30 4005 N 381.35 -0.985608 -1.22978 0
M  V30 4006 C 382.596 -0.65836 -1.91816 0
M  V30 4007 C 382.929 0.806692 -1.76653 0
M  V30 4008 O 382.204 1.58252 -1.13078 0
M  V30 4009 C 382.487 -1.056 -3.44268 0
M  V30 4010 C 382.34 -2.57906 -3.68516 0
M  V30 4011 C 383.659 -0.603781 -4.35939 0
M  V30 4012 H 380.778 -0.24065 -0.696604 0
M  V30 4013 H 383.42 -1.22783 -1.44998 0
M  V30 4014 H 381.57 -0.571445 -3.84274 0
M  V30 4015 H 383.242 -3.13976 -3.3796 0
M  V30 4016 H 381.485 -3.00305 -3.13048 0
M  V30 4017 H 382.156 -2.80779 -4.75255 0
M  V30 4018 H 384.632 -1.01987 -4.03408 0
M  V30 4019 H 383.508 -0.910383 -5.41298 0
M  V30 4020 H 383.769 0.495761 -4.39312 0
M  V30 4021 N 382.828 1.3818 -0.7579 0
M  V30 4022 C 384.076 1.99624 -0.315361 0
M  V30 4023 C 384.397 1.60464 1.10799 0
M  V30 4024 O 383.667 0.863507 1.75842 0
M  V30 4025 H 382.247 0.73831 -0.113611 0
M  V30 4026 H 384.909 1.68878 -0.972952 0
M  V30 4027 H 384.005 3.09754 -0.381931 0
M  V30 4028 N 384.306 0.507319 1.49211 0
M  V30 4029 C 385.722 0.163682 1.58758 0
M  V30 4030 C 385.922 -1.33208 1.51188 0
M  V30 4031 O 384.978 -2.10855 1.38911 0
M  V30 4032 C 386.291 0.746095 2.91297 0
M  V30 4033 C 387.839 0.712773 3.04776 0
M  V30 4034 C 388.314 1.27336 4.39943 0
M  V30 4035 N 389.805 1.23433 4.46451 0
M  V30 4036 C 390.54 1.63821 5.495 0
M  V30 4037 N 390.036 2.11832 6.5962 0
M  V30 4038 N 391.829 1.55198 5.4025 0
M  V30 4039 H 383.98 1.47972 1.52375 0
M  V30 4040 H 386.243 0.614147 0.722168 0
M  V30 4041 H 385.949 1.79534 3.02424 0
M  V30 4042 H 385.823 0.210137 3.76614 0
M  V30 4043 H 388.21 -0.327656 2.93275 0
M  V30 4044 H 388.291 1.28595 2.21127 0
M  V30 4045 H 387.935 2.3126 4.52196 0
M  V30 4046 H 387.865 0.676066 5.22242 0
M  V30 4047 H 390.356 0.882627 3.67448 0
M  V30 4048 H 390.669 2.40703 7.34358 0
M  V30 4049 H 389.014 2.1581 6.60644 0
M  V30 4050 H 392.205 1.17505 4.53112 0
M  V30 4051 H 392.378 1.86997 6.20432 0
M  V30 4052 N 385.784 -1.5574 0.241426 0
M  V30 4053 C 387.024 -2.00714 -0.38644 0
M  V30 4054 C 387.388 -1.12586 -1.55526 0
M  V30 4055 O 388.589 -1.46992 -2.25048 0
M  V30 4056 C 386.86 -3.48534 -0.791128 0
M  V30 4057 S 388.419 -4.15519 -1.41029 0
M  V30 4058 H 385.237 -0.700484 -0.121834 0
M  V30 4059 H 387.839 -1.92243 0.355377 0
M  V30 4060 H 386.543 -4.10342 0.0689225 0
M  V30 4061 H 386.074 -3.6092 -1.56526 0
M  V30 4062 H 388.089 -4.16352 -2.69936 0
M  V30 4063 N 387.262 0.0317525 -1.57568 0
M  V30 4064 C 388.212 1.04101 -2.02847 0
M  V30 4065 C 389.196 1.3219 -0.917317 0
M  V30 4066 O 390.388 1.31819 -1.18121 0
M  V30 4067 C 387.517 2.34295 -2.5092 0
M  V30 4068 C 386.603 2.09308 -3.68851 0
M  V30 4069 N 386.994 1.5437 -4.81667 0
M  V30 4070 C 385.292 2.39604 -3.76172 0
M  V30 4071 C 385.993 1.45126 -5.63306 0
M  V30 4072 N 384.969 1.92589 -5.08341 0
M  V30 4073 H 388.771 0.610217 -2.87495 0
M  V30 4074 H 386.285 0.238108 -1.60645 0
M  V30 4075 H 388.282 3.07404 -2.81617 0
M  V30 4076 H 386.942 2.78055 -1.67677 0
M  V30 4077 H 387.953 1.22678 -5.03161 0
M  V30 4078 H 384.63 2.86457 -3.03724 0
M  V30 4079 H 386.02 1.03163 -6.63933 0
M  V30 4080 N 388.74 1.54641 0.303973 0
M  V30 4081 C 389.98 1.75516 1.04755 0
M  V30 4082 C 390.344 0.528211 1.84591 0
M  V30 4083 O 391.545 0.614645 2.61678 0
M  V30 4084 C 389.816 3.00685 1.93193 0
M  V30 4085 S 391.375 3.42549 2.74237 0
M  V30 4086 H 388.193 0.616987 0.353339 0
M  V30 4087 H 390.795 1.92842 0.321292 0
M  V30 4088 H 389.499 3.8811 1.33411 0
M  V30 4089 H 389.03 2.85937 2.70191 0
M  V30 4090 H 391.045 2.99386 3.95705 0
M  V30 4091 N 390.218 -0.567019 1.47046 0
M  V30 4092 C 391.128 -1.70247 1.6141 0
M  V30 4093 C 392.144 -1.66746 0.497157 0
M  V30 4094 O 393.32 -1.86371 0.763389 0
M  V30 4095 C 390.385 -3.06756 1.61561 0
M  V30 4096 C 389.446 -3.21399 2.84607 0
M  V30 4097 C 388.679 -4.51396 2.84741 0
M  V30 4098 O 388.902 -5.36255 1.94388 0
M  V30 4099 O 387.836 -4.69621 3.76483 0
M  V30 4100 H 391.662 -1.61073 2.57467 0
M  V30 4101 H 389.247 -0.735894 1.30019 0
M  V30 4102 H 391.129 -3.8801 1.64396 0
M  V30 4103 H 389.804 -3.16333 0.686684 0
M  V30 4104 H 388.711 -2.39579 2.8732 0
M  V30 4105 H 390.044 -3.16721 3.76761 0
M  V30 4106 N 391.696 -1.35014 -0.812953 0
M  V30 4107 C 393.107 -1.25035 -1.38648 0
M  V30 4108 C 393.458 0.119967 -1.95833 0
M  V30 4109 O 392.583 1.02069 -1.90816 0
M  V30 4110 C 393.178 -2.26394 -2.52054 0
M  V30 4111 C 391.737 -2.20175 -3.05287 0
M  V30 4112 C 390.884 -2.12451 -1.78213 0
M  V30 4113 H 393.835 -1.46235 -0.616516 0
M  V30 4114 H 393.856 -1.88672 -3.30429 0
M  V30 4115 H 393.368 -3.26116 -2.10404 0
M  V30 4116 H 391.469 -1.23841 -3.51417 0
M  V30 4117 H 391.582 -3.11863 -3.63701 0
M  V30 4118 H 389.946 -1.58328 -1.9951 0
M  V30 4119 H 390.729 -3.14024 -1.38723 0
M  V30 4120 N 393.175 1.03435 -1.18907 0
M  V30 4121 C 394.423 1.76394 -0.986382 0
M  V30 4122 C 394.744 1.88883 0.484567 0
M  V30 4123 O 394.014 1.41843 1.3512 0
M  V30 4124 H 392.594 0.65344 -0.361975 0
M  V30 4125 H 395.256 1.248 -1.49703 0
M  V30 4126 H 394.352 2.77424 -1.42978 0
M  V30 4127 N 394.653 0.992116 1.22453 0
M  V30 4128 C 395.883 0.684949 1.94915 0
M  V30 4129 C 396.291 -0.754292 1.73514 0
M  V30 4130 O 395.634 -1.52056 1.03076 0
M  V30 4131 C 395.696 0.910054 3.47791 0
M  V30 4132 C 395.36 2.33363 3.92926 0
M  V30 4133 C 396.357 3.31308 4.00663 0
M  V30 4134 C 394.042 2.66785 4.25595 0
M  V30 4135 C 396.036 4.6075 4.40441 0
M  V30 4136 C 393.723 3.96446 4.65053 0
M  V30 4137 C 394.721 4.9324 4.72444 0
M  V30 4138 O 394.409 6.20584 5.1101 0
M  V30 4139 H 394.141 0.25258 0.62704 0
M  V30 4140 H 396.695 1.32939 1.56577 0
M  V30 4141 H 394.925 0.208443 3.86138 0
M  V30 4142 H 396.614 0.598257 4.01467 0
M  V30 4143 H 397.38 3.0682 3.75615 0
M  V30 4144 H 393.259 1.92148 4.19047 0
M  V30 4145 H 396.803 5.363 4.46126 0
M  V30 4146 H 392.7 4.20724 4.89552 0
M  V30 4147 H 393.468 6.24509 5.29085 0
M  V30 4148 N 396.131 -1.37776 0.765217 0
M  V30 4149 C 397.041 -2.34135 0.147666 0
M  V30 4150 C 398.057 -1.59854 -0.687215 0
M  V30 4151 O 399.233 -1.91983 -0.608659 0
M  V30 4152 C 396.298 -3.3901 -0.72617 0
M  V30 4153 C 395.359 -4.2912 0.124417 0
M  V30 4154 C 394.592 -5.28986 -0.707807 0
M  V30 4155 O 394.815 -5.36205 -1.94525 0
M  V30 4156 O 393.749 -6.01779 -0.12046 0
M  V30 4157 H 397.575 -2.88664 0.943758 0
M  V30 4158 H 395.16 -1.39824 0.526277 0
M  V30 4159 H 397.042 -4.03195 -1.22524 0
M  V30 4160 H 395.717 -2.86819 -1.50056 0
M  V30 4161 H 394.624 -3.68057 0.669696 0
M  V30 4162 H 395.957 -4.84598 0.861736 0
M  V30 4163 N 397.609 -0.515225 -1.4894 0
M  V30 4164 C 398.519 0.259774 -2.33157 0
M  V30 4165 C 399.535 0.953501 -1.45548 0
M  V30 4166 O 400.711 0.931735 -1.78552 0
M  V30 4167 C 397.776 1.30193 -3.21326 0
M  V30 4168 C 396.837 0.620129 -4.24797 0
M  V30 4169 C 396.07 1.61263 -5.08753 0
M  V30 4170 O 396.293 2.84389 -4.94448 0
M  V30 4171 O 395.227 1.16013 -5.90614 0
M  V30 4172 H 399.053 -0.429932 -3.00641 0
M  V30 4173 H 396.638 -0.276346 -1.46822 0
M  V30 4174 H 398.52 1.90455 -3.75905 0
M  V30 4175 H 397.195 1.97431 -2.56521 0
M  V30 4176 H 396.102 -0.0226019 -3.74093 0
M  V30 4177 H 397.435 -0.0100493 -4.92199 0
M  V30 4178 N 399.087 1.5561 -0.249682 0
M  V30 4179 C 400.335 1.98618 0.373548 0
M  V30 4180 C 400.656 1.13919 1.58264 0
M  V30 4181 O 399.926 0.222637 1.94631 0
M  V30 4182 H 398.506 0.733571 0.141006 0
M  V30 4183 H 401.168 1.91748 -0.349117 0
M  V30 4184 H 400.264 3.04584 0.680796 0
M  V30 4185 N 400.565 -0.0233959 1.57583 0
M  V30 4186 C 401.813 -0.711654 1.89156 0
M  V30 4187 C 402.134 -1.75591 0.848096 0
M  V30 4188 O 401.404 -1.95547 -0.117566 0
M  V30 4189 H 399.984 -0.265835 0.698098 0
M  V30 4190 H 402.646 0.0119948 1.94896 0
M  V30 4191 H 401.742 -1.19766 2.88206 0
M  V30 4192 N 402.043 -1.548 -0.295768 0
M  V30 4193 C 403.268 -1.78653 -1.05346 0
M  V30 4194 C 403.693 -0.546894 -1.79974 0
M  V30 4195 O 403.051 0.502763 -1.7419 0
M  V30 4196 C 403.099 -2.99679 -2.00561 0
M  V30 4197 O 402.203 -2.7317 -3.08953 0
M  V30 4198 H 401.544 -0.59116 -0.302367 0
M  V30 4199 H 404.074 -2.01895 -0.331598 0
M  V30 4200 H 404.084 -3.27793 -2.42932 0
M  V30 4201 H 402.759 -3.89562 -1.4565 0
M  V30 4202 H 401.336 -2.56089 -2.71059 0
M  V30 4203 N 403.521 0.559213 -1.47345 0
M  V30 4204 C 404.769 1.31388 -1.53563 0
M  V30 4205 C 405.09 1.93985 -0.198678 0
M  V30 4206 O 404.36 1.79825 0.777167 0
M  V30 4207 H 402.94 0.487901 -0.565652 0
M  V30 4208 H 405.602 0.65315 -1.8363 0
M  V30 4209 H 404.698 2.10844 -2.30111 0
M  V30 4210 N 404.999 1.35443 0.805782 0
M  V30 4211 C 405.909 1.30546 1.94923 0
M  V30 4212 C 406.925 0.210233 1.72725 0
M  V30 4213 O 408.101 0.43975 1.9654 0
M  V30 4214 C 405.166 1.07782 3.29521 0
M  V30 4215 C 404.227 2.26625 3.64609 0
M  V30 4216 C 403.46 2.04938 4.92784 0
M  V30 4217 O 403.683 1.01624 5.61274 0
M  V30 4218 O 402.617 2.9232 5.26149 0
M  V30 4219 H 406.443 2.26779 2.02002 0
M  V30 4220 H 404.028 1.15823 0.943682 0
M  V30 4221 H 405.91 0.969392 4.10098 0
M  V30 4222 H 404.585 0.146003 3.23371 0
M  V30 4223 H 403.492 2.43033 2.84404 0
M  V30 4224 H 404.825 3.18257 3.75464 0
M  V30 4225 N 406.477 -1.02803 1.19454 0
M  V30 4226 C 407.44 -2.09264 0.934955 0
M  V30 4227 C 408.44 -1.60576 -0.0849015 0
M  V30 4228 O 409.63 -1.73554 0.149933 0
M  V30 4229 C 406.762 -3.38482 0.40531 0
M  V30 4230 H 407.955 -2.33726 1.87916 0
M  V30 4231 H 405.508 -1.19426 1.00832 0
M  V30 4232 H 406.243 -3.19689 -0.544899 0
M  V30 4233 H 406.028 -3.75142 1.14065 0
M  V30 4234 H 407.518 -4.16894 0.242806 0
M  V30 4235 N 407.956 -0.998596 -1.21925 0
M  V30 4236 C 409.196 -0.685948 -1.92546 0
M  V30 4237 C 409.56 0.768441 -1.75952 0
M  V30 4238 O 410.761 1.19277 -2.40887 0
M  V30 4239 C 409.032 -1.08767 -3.40448 0
M  V30 4240 S 410.591 -0.894251 -4.29591 0
M  V30 4241 H 407.409 -0.250622 -0.665364 0
M  V30 4242 H 410.011 -1.28207 -1.47591 0
M  V30 4243 H 408.715 -2.14242 -3.50041 0
M  V30 4244 H 408.246 -0.48357 -3.90417 0
M  V30 4245 H 410.261 0.212149 -4.95746 0
M  V30 4246 N 409.434 1.37368 -0.772513 0
M  V30 4247 C 410.68 1.99969 -0.337681 0
M  V30 4248 C 411.013 1.61184 1.08321 0
M  V30 4249 O 410.288 0.858395 1.74533 0
M  V30 4250 C 410.571 3.56858 -0.482121 0
M  V30 4251 C 410.424 4.0555 -1.94549 0
M  V30 4252 C 411.743 4.39955 0.113143 0
M  V30 4253 H 408.862 0.726464 -0.124171 0
M  V30 4254 H 411.504 1.63034 -0.975699 0
M  V30 4255 H 409.654 3.88452 0.0610361 0
M  V30 4256 H 411.326 3.84518 -2.54841 0
M  V30 4257 H 409.569 3.57715 -2.45403 0
M  V30 4258 H 410.24 5.14587 -1.9976 0
M  V30 4259 H 412.716 4.14623 -0.35031 0
M  V30 4260 H 411.592 5.48897 -0.0180514 0
M  V30 4261 H 411.853 4.25403 1.20354 0
M  V30 4262 N 410.912 0.523116 1.48665 0
M  V30 4263 C 411.875 -0.232592 2.28017 0
M  V30 4264 C 412.875 -0.874021 1.34972 0
M  V30 4265 O 414.065 -0.735132 1.57929 0
M  V30 4266 C 411.197 -1.33586 3.13636 0
M  V30 4267 H 412.39 0.464008 2.96289 0
M  V30 4268 H 409.943 0.278816 1.53793 0
M  V30 4269 H 410.678 -2.06593 2.4998 0
M  V30 4270 H 410.463 -0.881125 3.82071 0
M  V30 4271 H 411.953 -1.86759 3.73511 0
M  V30 4272 N 412.39 -1.55475 0.257931 0
M  V30 4273 C 413.63 -2.01112 -0.365129 0
M  V30 4274 C 413.994 -1.1423 -1.54323 0
M  V30 4275 O 415.195 -1.49371 -2.23477 0
M  V30 4276 C 413.466 -3.49353 -0.754117 0
M  V30 4277 S 415.025 -4.16992 -1.36614 0
M  V30 4278 H 411.843 -0.701737 -0.114397 0
M  V30 4279 H 414.445 -1.91855 0.375747 0
M  V30 4280 H 413.149 -4.10246 0.112441 0
M  V30 4281 H 412.68 -3.6256 -1.52689 0
M  V30 4282 H 414.695 -4.19191 -2.65505 0
M  V30 4283 N 413.868 0.0150385 -1.57593 0
M  V30 4284 C 415.279 0.559832 -1.78109 0
M  V30 4285 C 415.63 1.74814 -0.890756 0
M  V30 4286 O 414.755 2.16216 -0.0892482 0
M  V30 4287 C 415.35 1.02238 -3.23006 0
M  V30 4288 C 413.909 1.51258 -3.44671 0
M  V30 4289 C 413.056 0.456955 -2.73509 0
M  V30 4290 H 416.007 -0.211169 -1.57289 0
M  V30 4291 H 416.028 1.88912 -3.30292 0
M  V30 4292 H 415.54 0.157302 -3.87781 0
M  V30 4293 H 413.641 2.39905 -2.8509 0
M  V30 4294 H 413.754 1.55042 -4.5332 0
M  V30 4295 H 412.118 0.915196 -2.37689 0
M  V30 4296 H 412.901 -0.398896 -3.40975 0
M  V30 4297 N 415.346 1.54954 0.287554 0
M  V30 4298 C 416.571 1.79209 1.04397 0
M  V30 4299 C 416.996 0.556431 1.79682 0
M  V30 4300 O 416.354 -0.493518 1.74454 0
M  V30 4301 C 416.402 3.00739 1.98969 0
M  V30 4302 O 415.506 2.74805 3.075 0
M  V30 4303 H 414.847 0.592755 0.299227 0
M  V30 4304 H 417.377 2.02068 0.320886 0
M  V30 4305 H 417.387 3.29077 2.4119 0
M  V30 4306 H 416.062 3.90329 1.43582 0
M  V30 4307 H 414.639 2.57523 2.69697 0
M  V30 4308 N 416.824 -0.551391 1.4764 0
M  V30 4309 C 418.072 -1.30572 1.54258 0
M  V30 4310 C 418.393 -1.93877 0.208963 0
M  V30 4311 O 417.663 -1.80234 -0.767619 0
M  V30 4312 H 416.243 -0.484894 0.568231 0
M  V30 4313 H 418.905 -0.643402 1.83974 0
M  V30 4314 H 418.001 -2.09621 2.31226 0
M  V30 4315 N 418.302 -1.35869 -0.798587 0
M  V30 4316 C 419.527 -1.32883 -1.59238 0
M  V30 4317 C 419.952 0.0894587 -1.87887 0
M  V30 4318 O 419.31 1.05869 -1.47178 0
M  V30 4319 C 419.358 -2.14892 -2.89575 0
M  V30 4320 O 418.462 -1.53512 -3.82763 0
M  V30 4321 H 417.803 -0.455236 -0.48338 0
M  V30 4322 H 420.333 -1.79024 -0.990539 0
M  V30 4323 H 420.343 -2.27139 -3.38928 0
M  V30 4324 H 419.018 -3.17998 -2.68049 0
M  V30 4325 H 417.595 -1.50153 -3.41334 0
M  V30 4326 N 419.78 1.02168 -1.19998 0
M  V30 4327 C 421.01 1.79036 -1.031 0
M  V30 4328 C 421.418 1.84409 0.423078 0
M  V30 4329 O 420.761 1.29228 1.30559 0
M  V30 4330 C 420.823 3.25185 -1.53281 0
M  V30 4331 C 420.487 3.43431 -3.01503 0
M  V30 4332 C 421.484 3.33063 -3.99206 0
M  V30 4333 C 419.169 3.69412 -3.40353 0
M  V30 4334 C 421.163 3.48413 -5.33748 0
M  V30 4335 C 418.85 3.84406 -4.75053 0
M  V30 4336 C 419.848 3.7391 -5.71559 0
M  V30 4337 O 419.536 3.88452 -7.03818 0
M  V30 4338 H 419.268 0.570043 -0.363355 0
M  V30 4339 H 421.822 1.29524 -1.59414 0
M  V30 4340 H 420.052 3.75756 -0.913483 0
M  V30 4341 H 421.741 3.83671 -1.32481 0
M  V30 4342 H 422.507 3.12934 -3.70537 0
M  V30 4343 H 418.386 3.76671 -2.65782 0
M  V30 4344 H 421.93 3.40137 -6.09059 0
M  V30 4345 H 417.827 4.04035 -5.03415 0
M  V30 4346 H 418.595 4.055 -7.10993 0
M  V30 4347 N 421.258 1.00505 1.21394 0
M  V30 4348 C 422.674 0.717873 1.42544 0
M  V30 4349 C 422.874 -0.706936 1.88692 0
M  V30 4350 O 421.93 -1.47627 2.04847 0
M  V30 4351 C 423.243 1.73377 2.45684 0
M  V30 4352 C 424.791 1.75059 2.59467 0
M  V30 4353 C 425.266 2.75545 3.6584 0
M  V30 4354 N 426.757 2.74213 3.73311 0
M  V30 4355 C 427.492 3.48626 4.55245 0
M  V30 4356 N 426.988 4.32678 5.41075 0
M  V30 4357 N 428.781 3.37276 4.49668 0
M  V30 4358 H 420.932 1.92506 0.897503 0
M  V30 4359 H 423.195 0.830919 0.456375 0
M  V30 4360 H 422.901 2.75395 2.18748 0
M  V30 4361 H 422.775 1.53647 3.44489 0
M  V30 4362 H 425.162 0.737337 2.8574 0
M  V30 4363 H 425.243 1.98861 1.60897 0
M  V30 4364 H 424.887 3.77028 3.40313 0
M  V30 4365 H 424.817 2.49009 4.64007 0
M  V30 4366 H 427.308 2.13234 3.11993 0
M  V30 4367 H 427.621 4.86253 6.00648 0
M  V30 4368 H 425.966 4.3676 5.40616 0
M  V30 4369 H 429.157 2.71043 3.81646 0
M  V30 4370 H 429.33 3.95524 5.13288 0
M  V30 4371 N 422.737 -1.36956 0.779787 0
M  V30 4372 C 423.67 -2.27896 0.117681 0
M  V30 4373 C 424.648 -1.46736 -0.700523 0
M  V30 4374 O 425.832 -1.76055 -0.673568 0
M  V30 4375 C 422.959 -3.28136 -0.839296 0
M  V30 4376 C 422.005 -4.26373 -0.10409 0
M  V30 4377 S 422.838 -5.2157 1.21348 0
M  V30 4378 C 423.994 -6.25359 0.260249 0
M  V30 4379 H 424.227 -2.83704 0.888778 0
M  V30 4380 H 421.76 -1.43352 0.57355 0
M  V30 4381 H 423.718 -3.86394 -1.38601 0
M  V30 4382 H 422.379 -2.7126 -1.58356 0
M  V30 4383 H 421.572 -4.97121 -0.82986 0
M  V30 4384 H 421.174 -3.72147 0.371858 0
M  V30 4385 H 423.466 -6.75145 -0.564435 0
M  V30 4386 H 424.409 -7.01885 0.936135 0
M  V30 4387 H 424.817 -5.64345 -0.132127 0
M  V30 4388 N 424.215 -0.530993 -1.48385 0
M  V30 4389 C 425.492 0.0671788 -1.95485 0
M  V30 4390 C 425.872 1.51191 -1.47324 0
M  V30 4391 O 425.22 2.17507 -0.700202 0
M  V30 4392 C 425.43 -0.0511206 -3.48963 0
M  V30 4393 C 426.778 0.107632 -4.24464 0
M  V30 4394 O 427.802 0.0226248 -3.56193 0
M  V30 4395 O 426.661 0.285972 -5.45751 0
M  V30 4396 H 423.755 0.0787365 -0.823243 0
M  V30 4397 H 426.301 -0.595662 -1.58902 0
M  V30 4398 H 425.073 -1.05747 -3.7674 0
M  V30 4399 H 424.696 0.650525 -3.92242 0
M  V30 4400 N 425.693 1.55336 -0.266172 0
M  V30 4401 C 426.626 2.18256 0.666296 0
M  V30 4402 C 427.604 1.14064 1.1588 0
M  V30 4403 O 428.788 1.42546 1.23341 0
M  V30 4404 C 425.915 2.79867 1.90768 0
M  V30 4405 C 424.961 3.97283 1.55141 0
M  V30 4406 S 425.794 5.31694 0.637313 0
M  V30 4407 C 426.95 5.96769 1.88727 0
M  V30 4408 H 427.183 2.97008 0.131647 0
M  V30 4409 H 424.716 1.54317 -0.0504869 0
M  V30 4410 H 426.674 3.15996 2.62025 0
M  V30 4411 H 425.335 2.01025 2.41346 0
M  V30 4412 H 424.528 4.3905 2.4749 0
M  V30 4413 H 424.13 3.6253 0.919113 0
M  V30 4414 H 426.422 6.15458 2.83227 0
M  V30 4415 H 427.365 6.91752 1.51276 0
M  V30 4416 H 427.773 5.26034 2.04814 0
M  V30 4417 N 427.171 -0.0066808 1.57599 0
M  V30 4418 C 428.448 -0.729586 1.81484 0
M  V30 4419 C 428.828 -1.92359 0.869558 0
M  V30 4420 O 428.176 -2.28348 -0.0832533 0
M  V30 4421 C 428.386 -1.1416 3.29801 0
M  V30 4422 C 429.734 -1.54823 3.95367 0
M  V30 4423 O 430.758 -1.23558 3.34084 0
M  V30 4424 O 429.617 -2.12937 5.03309 0
M  V30 4425 H 426.711 -0.354674 0.747085 0
M  V30 4426 H 429.257 0.0182609 1.6969 0
M  V30 4427 H 428.029 -0.290231 3.90222 0
M  V30 4428 H 427.652 -1.94876 3.46568 0
M  V30 4429 N 428.649 -1.55105 -0.279332 0
M  V30 4430 C 429.877 -1.7943 -1.03017 0
M  V30 4431 C 430.292 -0.564456 -1.80165 0
M  V30 4432 O 429.649 0.466326 -1.76442 0
M  V30 4433 C 429.7 -3.0155 -1.99374 0
M  V30 4434 O 429.421 -4.19784 -1.25352 0
M  V30 4435 C 430.922 -3.3843 -2.86321 0
M  V30 4436 H 428.142 -0.597882 -0.304594 0
M  V30 4437 H 430.686 -2.02105 -0.312035 0
M  V30 4438 H 428.841 -2.81019 -2.66659 0
M  V30 4439 H 429.255 -4.88781 -1.90246 0
M  V30 4440 H 430.729 -4.27066 -3.49741 0
M  V30 4441 H 431.206 -2.57549 -3.5576 0
M  V30 4442 H 431.812 -3.61197 -2.24536 0
M  V30 4443 N 430.127 0.543554 -1.4793 0
M  V30 4444 C 431.538 1.12561 -1.48953 0
M  V30 4445 C 431.889 1.94578 -0.251754 0
M  V30 4446 O 431.014 2.0665 0.642255 0
M  V30 4447 C 431.609 2.04801 -2.69892 0
M  V30 4448 C 430.168 2.58251 -2.73831 0
M  V30 4449 C 429.315 1.34918 -2.42265 0
M  V30 4450 H 432.266 0.32947 -1.55242 0
M  V30 4451 H 432.287 2.88886 -2.47639 0
M  V30 4452 H 431.799 1.4508 -3.59963 0
M  V30 4453 H 429.9 3.21732 -1.87934 0
M  V30 4454 H 430.013 2.98312 -3.74895 0
M  V30 4455 H 428.377 1.66046 -1.93134 0
M  V30 4456 H 429.16 0.769693 -3.3456 0
M  V30 4457 N 431.605 1.3629 0.791371 0
M  V30 4458 C 432.555 1.26988 1.89362 0
M  V30 4459 C 433.539 0.161795 1.60084 0
M  V30 4460 O 434.731 0.394426 1.72549 0
M  V30 4461 C 431.86 1.05944 3.26544 0
M  V30 4462 C 430.946 2.21211 3.61838 0
M  V30 4463 N 431.337 3.46518 3.68455 0
M  V30 4464 C 429.635 2.12933 3.91887 0
M  V30 4465 C 430.336 4.2241 3.99931 0
M  V30 4466 N 429.312 3.51329 4.14812 0
M  V30 4467 H 433.114 2.21908 1.92702 0
M  V30 4468 H 430.628 1.28982 0.986787 0
M  V30 4469 H 432.625 0.973666 4.05371 0
M  V30 4470 H 431.285 0.119223 3.24481 0
M  V30 4471 H 432.296 3.80677 3.51148 0
M  V30 4472 H 428.973 1.26855 3.97761 0
M  V30 4473 H 430.363 5.30767 4.1199 0
M  V30 4474 N 433.083 -1.0153 1.20538 0
M  V30 4475 C 434.323 -1.76689 1.02763 0
M  V30 4476 C 434.687 -1.87065 -0.432513 0
M  V30 4477 O 435.888 -2.58684 -0.730481 0
M  V30 4478 C 434.159 -3.14707 1.69393 0
M  V30 4479 S 435.718 -4.05886 1.66738 0
M  V30 4480 H 432.536 -0.608076 0.368463 0
M  V30 4481 H 435.138 -1.21558 1.53114 0
M  V30 4482 H 433.842 -3.04782 2.74838 0
M  V30 4483 H 433.373 -3.74913 1.19179 0
M  V30 4484 H 435.388 -4.91221 0.70117 0
M  V30 4485 N 434.561 -1.01147 -1.20859 0
M  V30 4486 C 435.491 -0.597663 -2.25722 0
M  V30 4487 C 436.472 0.384744 -1.65692 0
M  V30 4488 O 437.657 0.271303 -1.92296 0
M  V30 4489 C 434.787 0.0700149 -3.47229 0
M  V30 4490 C 433.741 -0.832843 -4.19819 0
M  V30 4491 C 433.067 -0.0312202 -5.34691 0
M  V30 4492 C 434.367 -2.1385 -4.76514 0
M  V30 4493 H 436.061 -1.47423 -2.60589 0
M  V30 4494 H 433.607 -0.710301 -1.25263 0
M  V30 4495 H 435.56 0.37103 -4.19763 0
M  V30 4496 H 434.284 0.981259 -3.11511 0
M  V30 4497 H 432.943 -1.11778 -3.49144 0
M  V30 4498 H 432.591 0.881515 -4.95215 0
M  V30 4499 H 432.291 -0.632434 -5.84187 0
M  V30 4500 H 433.815 0.26346 -6.10031 0
M  V30 4501 H 435.229 -1.9002 -5.40893 0
M  V30 4502 H 433.626 -2.69012 -5.36426 0
M  V30 4503 H 434.696 -2.80495 -3.95538 0
M  V30 4504 N 436.039 1.36541 -0.78704 0
M  V30 4505 C 437.267 2.03561 -0.370199 0
M  V30 4506 C 437.682 1.59347 1.01263 0
M  V30 4507 O 437.039 0.781781 1.64907 0
M  V30 4508 C 437.09 3.59033 -0.421614 0
M  V30 4509 O 436.811 4.01634 -1.7499 0
M  V30 4510 C 438.312 4.433 0.00489763 0
M  V30 4511 H 435.532 0.653346 -0.152904 0
M  V30 4512 H 438.076 1.74566 -1.06522 0
M  V30 4513 H 436.231 3.86746 0.224971 0
M  V30 4514 H 436.645 4.96217 -1.69909 0
M  V30 4515 H 438.119 5.51939 -0.0822184 0
M  V30 4516 H 438.596 4.26285 1.05723 0
M  V30 4517 H 439.202 4.20843 -0.614085 0
M  V30 4518 N 437.518 0.538854 1.48102 0
M  V30 4519 C 438.758 0.0101209 2.04397 0
M  V30 4520 C 439.122 -1.30741 1.40609 0
M  V30 4521 O 440.323 -1.92272 1.87843 0
M  V30 4522 C 438.594 -0.100232 3.57259 0
M  V30 4523 S 440.153 -0.577746 4.3498 0
M  V30 4524 H 436.971 0.0163171 0.710813 0
M  V30 4525 H 439.573 0.721429 1.81702 0
M  V30 4526 H 438.277 0.863351 4.01216 0
M  V30 4527 H 437.808 -0.835651 3.84422 0
M  V30 4528 H 439.823 -1.84073 4.60794 0
M  V30 4529 N 438.996 -1.55193 0.274407 0
M  V30 4530 C 440.407 -1.85358 -0.223488 0
M  V30 4531 C 440.758 -1.19642 -1.555 0
M  V30 4532 O 439.883 -0.484498 -2.10907 0
M  V30 4533 C 440.478 -3.36282 -0.412285 0
M  V30 4534 C 439.037 -3.66574 -0.854413 0
M  V30 4535 C 438.184 -2.7725 0.0527056 0
M  V30 4536 H 441.135 -1.50743 0.496215 0
M  V30 4537 H 441.156 -3.59349 -1.25094 0
M  V30 4538 H 440.668 -3.84083 0.556965 0
M  V30 4539 H 438.769 -3.24273 -1.83516 0
M  V30 4540 H 438.882 -4.74073 -0.692226 0
M  V30 4541 H 437.246 -2.50447 -0.463484 0
M  V30 4542 H 438.029 -3.27865 1.01783 0
M  V30 4543 N 440.474 -0.00167713 -1.576 0
M  V30 4544 C 441.406 1.0174 -2.05382 0
M  V30 4545 C 442.419 1.30595 -0.972052 0
M  V30 4546 O 443.608 1.27542 -1.24882 0
M  V30 4547 C 440.708 2.35174 -2.44022 0
M  V30 4548 C 439.881 2.25234 -3.74951 0
M  V30 4549 C 438.94 3.4137 -4.00441 0
M  V30 4550 O 437.966 3.19483 -4.71083 0
M  V30 4551 N 439.168 4.64275 -3.48467 0
M  V30 4552 H 441.933 0.609902 -2.93428 0
M  V30 4553 H 439.494 0.185672 -1.60832 0
M  V30 4554 H 441.486 3.11643 -2.58187 0
M  V30 4555 H 440.056 2.67659 -1.61485 0
M  V30 4556 H 439.276 1.33664 -3.70847 0
M  V30 4557 H 440.564 2.15767 -4.60784 0
M  V30 4558 H 439.962 4.84955 -2.91264 0
M  V30 4559 H 438.519 5.38005 -3.67959 0
M  V30 4560 N 441.952 1.55251 0.271103 0
M  V30 4561 C 442.884 1.84675 1.35749 0
M  V30 4562 C 443.897 0.731366 1.45447 0
M  V30 4563 O 445.086 1.00924 1.4723 0
M  V30 4564 C 442.186 1.99638 2.73857 0
M  V30 4565 C 441.359 3.30312 2.86727 0
M  V30 4566 C 440.418 3.35318 4.05522 0
M  V30 4567 O 439.444 4.08682 3.96191 0
M  V30 4568 N 440.646 2.62857 5.17577 0
M  V30 4569 H 443.411 2.78445 1.10853 0
M  V30 4570 H 440.972 1.55191 0.461218 0
M  V30 4571 H 442.964 2.00355 3.51625 0
M  V30 4572 H 441.534 1.12725 2.91568 0
M  V30 4573 H 440.754 3.42118 1.95829 0
M  V30 4574 H 442.042 4.16488 2.92258 0
M  V30 4575 H 441.44 2.02939 5.28046 0
M  V30 4576 H 439.997 2.69295 5.93568 0
M  V30 4577 N 443.43 -0.535701 1.48216 0
M  V30 4578 C 444.655 -1.32149 1.59848 0
M  V30 4579 C 445.08 -1.86338 0.256842 0
M  V30 4580 O 444.438 -1.64107 -0.770632 0
M  V30 4581 C 444.486 -2.45224 2.64381 0
M  V30 4582 O 443.59 -3.48093 2.21144 0
M  V30 4583 H 442.931 -0.391634 0.536208 0
M  V30 4584 H 445.461 -0.645202 1.94161 0
M  V30 4585 H 445.471 -2.91491 2.85476 0
M  V30 4586 H 444.146 -2.05143 3.61786 0
M  V30 4587 H 442.723 -3.07984 2.10239 0
M  V30 4588 N 444.908 -1.36708 -0.784132 0
M  V30 4589 C 446.136 -1.34398 -1.57305 0
M  V30 4590 C 446.551 0.0735577 -1.88657 0
M  V30 4591 O 445.908 1.03193 -1.50524 0
M  V30 4592 C 445.959 -2.17053 -2.89085 0
M  V30 4593 O 445.68 -3.53281 -2.59083 0
M  V30 4594 C 447.181 -2.22583 -3.83369 0
M  V30 4595 H 444.401 -0.460819 -0.487736 0
M  V30 4596 H 446.945 -1.79879 -0.972819 0
M  V30 4597 H 445.1 -1.75113 -3.45564 0
M  V30 4598 H 445.514 -3.9647 -3.43383 0
M  V30 4599 H 446.988 -2.84763 -4.72878 0
M  V30 4600 H 447.465 -1.23075 -4.21603 0
M  V30 4601 H 448.071 -2.64781 -3.32823 0
M  V30 4602 N 446.386 1.0089 -1.21074 0
M  V30 4603 C 447.349 2.0775 -0.968129 0
M  V30 4604 C 448.349 1.6069 0.0593445 0
M  V30 4605 O 449.539 1.73293 -0.177525 0
M  V30 4606 C 446.671 3.37794 -0.459108 0
M  V30 4607 H 447.864 2.30707 -1.9161 0
M  V30 4608 H 445.417 1.17807 -1.02719 0
M  V30 4609 H 446.152 3.20516 0.49397 0
M  V30 4610 H 445.937 3.7328 -1.20019 0
M  V30 4611 H 447.427 4.16454 -0.309099 0
M  V30 4612 N 447.864 1.01787 1.20321 0
M  V30 4613 C 448.774 0.598898 2.26827 0
M  V30 4614 C 449.79 -0.36418 1.70146 0
M  V30 4615 O 450.966 -0.224812 2.00141 0
M  V30 4616 C 448.031 -0.0549769 3.46656 0
M  V30 4617 C 447.092 0.954205 4.18561 0
M  V30 4618 C 446.325 0.331439 5.3267 0
M  V30 4619 O 446.548 -0.86851 5.63749 0
M  V30 4620 O 445.482 1.0488 5.92692 0
M  V30 4621 H 449.308 1.48562 2.64883 0
M  V30 4622 H 446.893 0.787434 1.26964 0
M  V30 4623 H 448.775 -0.420102 4.19301 0
M  V30 4624 H 447.45 -0.915876 3.10473 0
M  V30 4625 H 446.357 1.37072 3.48083 0
M  V30 4626 H 447.69 1.78511 4.58688 0
M  V30 4627 N 449.342 -1.36122 0.79427 0
M  V30 4628 C 450.567 -2.03891 0.379871 0
M  V30 4629 C 450.992 -1.59488 -0.997251 0
M  V30 4630 O 450.35 -0.765652 -1.64339 0
M  V30 4631 C 450.398 -3.57687 0.457442 0
M  V30 4632 O 449.502 -4.08931 -0.5338 0
M  V30 4633 H 448.843 -0.6443 0.160541 0
M  V30 4634 H 451.373 -1.73976 1.07673 0
M  V30 4635 H 451.383 -4.06721 0.322792 0
M  V30 4636 H 450.058 -3.89357 1.46199 0
M  V30 4637 H 448.635 -3.71154 -0.360409 0
M  V30 4638 N 450.82 -0.546701 -1.47814 0
M  V30 4639 C 451.73 0.21026 -2.33656 0
M  V30 4640 C 452.746 0.922413 -1.47538 0
M  V30 4641 O 453.922 0.893652 -1.80488 0
M  V30 4642 C 450.987 1.23348 -3.24016 0
M  V30 4643 C 450.048 0.529883 -4.26017 0
M  V30 4644 C 449.281 1.50435 -5.12059 0
M  V30 4645 O 449.504 2.73837 -5.00369 0
M  V30 4646 O 448.438 1.03459 -5.92942 0
M  V30 4647 H 452.264 -0.493605 -2.99662 0
M  V30 4648 H 449.849 -0.307427 -1.46203 0
M  V30 4649 H 451.731 1.82438 -3.79861 0
M  V30 4650 H 450.406 1.91945 -2.60651 0
M  V30 4651 H 449.313 -0.101948 -3.73961 0
M  V30 4652 H 450.646 -0.11445 -4.92067 0
M  V30 4653 N 452.299 1.55045 -0.282633 0
M  V30 4654 C 453.547 1.99365 0.331334 0
M  V30 4655 C 453.868 1.1725 1.55812 0
M  V30 4656 O 453.138 0.263871 1.94115 0
M  V30 4657 H 451.718 0.736397 0.125414 0
M  V30 4658 H 454.38 1.90964 -0.389711 0
M  V30 4659 H 453.476 3.0596 0.616036 0
M  V30 4660 N 453.777 0.010035 1.57597 0
M  V30 4661 C 454.74 -0.963029 2.07986 0
M  V30 4662 C 455.74 -1.26619 0.991173 0
M  V30 4663 O 456.93 -1.2097 1.25347 0
M  V30 4664 C 454.062 -2.2851 2.52974 0
M  V30 4665 H 455.255 -0.526971 2.95234 0
M  V30 4666 H 452.808 -0.237639 1.54483 0
M  V30 4667 H 453.543 -2.76784 1.69 0
M  V30 4668 H 453.328 -2.07824 3.32493 0
M  V30 4669 H 454.818 -2.98294 2.9225 0
M  V30 4670 N 455.255 -1.55392 -0.262866 0
M  V30 4671 C 456.483 -1.80513 -1.01108 0
M  V30 4672 C 456.898 -0.583533 -1.79556 0
M  V30 4673 O 456.255 0.447585 -1.76926 0
M  V30 4674 C 456.306 -3.03648 -1.96164 0
M  V30 4675 O 456.027 -4.2109 -1.20893 0
M  V30 4676 C 457.528 -3.41448 -2.82715 0
M  V30 4677 H 454.748 -0.601079 -0.298236 0
M  V30 4678 H 457.292 -2.02425 -0.290582 0
M  V30 4679 H 455.447 -2.83832 -2.63663 0
M  V30 4680 H 455.861 -4.90771 -1.85051 0
M  V30 4681 H 457.335 -4.30751 -3.45192 0
M  V30 4682 H 457.812 -2.61308 -3.53008 0
M  V30 4683 H 458.418 -3.63559 -2.20693 0
M  V30 4684 N 456.733 0.527833 -1.48498 0
M  V30 4685 C 457.982 1.28003 -1.55878 0
M  V30 4686 C 458.295 1.9414 -0.238577 0
M  V30 4687 O 459.501 2.7083 -0.190643 0
M  V30 4688 C 457.957 2.32272 -2.74914 0
M  V30 4689 C 457.565 1.72196 -4.13585 0
M  V30 4690 C 459.309 3.08488 -2.91608 0
M  V30 4691 C 457.216 2.74417 -5.23879 0
M  V30 4692 H 456.146 0.481413 -0.580308 0
M  V30 4693 H 458.797 0.557195 -1.74836 0
M  V30 4694 H 457.179 3.07601 -2.49395 0
M  V30 4695 H 458.353 1.03041 -4.49132 0
M  V30 4696 H 456.668 1.08464 -4.02025 0
M  V30 4697 H 459.265 3.84879 -3.71177 0
M  V30 4698 H 459.608 3.64481 -2.01145 0
M  V30 4699 H 460.141 2.40274 -3.17038 0
M  V30 4700 H 456.88 2.23242 -6.16314 0
M  V30 4701 H 456.4 3.41893 -4.92818 0
M  V30 4702 H 458.079 3.37362 -5.52083 0
M  V30 4703 N 458.211 1.37122 0.776871 0
M  V30 4704 C 459.451 1.33441 1.54831 0
M  V30 4705 C 459.815 -0.0818963 1.91825 0
M  V30 4706 O 461.016 -0.24338 2.67696 0
M  V30 4707 C 459.287 2.24267 2.78279 0
M  V30 4708 S 460.846 2.38389 3.68397 0
M  V30 4709 H 457.664 0.473791 0.530135 0
M  V30 4710 H 460.266 1.7282 0.913968 0
M  V30 4711 H 458.97 3.261 2.49173 0
M  V30 4712 H 458.501 1.85953 3.46677 0
M  V30 4713 H 460.516 1.59068 4.70013 0
M  V30 4714 N 459.689 -1.00246 1.21608 0
M  V30 4715 C 460.917 -1.77631 1.06089 0
M  V30 4716 C 461.332 -1.84746 -0.38916 0
M  V30 4717 O 460.689 -1.31068 -1.26994 0
M  V30 4718 C 460.74 -3.21415 1.65453 0
M  V30 4719 O 460.461 -3.14703 3.04785 0
M  V30 4720 C 461.962 -4.15289 1.55079 0
M  V30 4721 H 459.182 -0.558162 0.37242 0
M  V30 4722 H 461.726 -1.26093 1.60999 0
M  V30 4723 H 459.881 -3.70053 1.14629 0
M  V30 4724 H 460.295 -4.05056 3.33212 0
M  V30 4725 H 461.769 -5.13965 2.01355 0
M  V30 4726 H 462.246 -4.36279 0.505665 0
M  V30 4727 H 462.852 -3.72543 2.05163 0
M  V30 4728 N 461.167 -1.02423 -1.1978 0
M  V30 4729 C 462.407 -0.726635 -1.91048 0
M  V30 4730 C 462.771 0.730947 -1.77542 0
M  V30 4731 O 463.972 1.14141 -2.43362 0
M  V30 4732 C 462.243 -1.15964 -3.38064 0
M  V30 4733 S 463.802 -0.985172 -4.27598 0
M  V30 4734 H 460.62 -0.264679 -0.659899 0
M  V30 4735 H 463.222 -1.31309 -1.44838 0
M  V30 4736 H 461.926 -2.21619 -3.45417 0
M  V30 4737 H 461.457 -0.566274 -3.89303 0
M  V30 4738 H 463.472 0.106946 -4.96085 0
M  V30 4739 N 462.645 1.35699 -0.801477 0
M  V30 4740 C 463.555 2.33661 -0.209691 0
M  V30 4741 C 464.571 1.6162 0.644591 0
M  V30 4742 O 465.747 1.93529 0.557545 0
M  V30 4743 C 462.812 3.40816 0.636033 0
M  V30 4744 C 461.873 4.28639 -0.238147 0
M  V30 4745 C 461.106 5.30676 0.567307 0
M  V30 4746 O 461.329 5.41174 1.8024 0
M  V30 4747 O 460.263 6.01887 -0.0391336 0
M  V30 4748 H 464.089 2.8606 -1.01996 0
M  V30 4749 H 461.674 1.38379 -0.563164 0
M  V30 4750 H 463.556 4.06301 1.11791 0
M  V30 4751 H 462.231 2.90696 1.42399 0
M  V30 4752 H 461.138 3.66152 -0.767044 0
M  V30 4753 H 462.471 4.82143 -0.989915 0
M  V30 4754 N 464.123 0.554532 1.47522 0
M  V30 4755 C 465.348 0.0322661 2.07375 0
M  V30 4756 C 465.773 -1.25079 1.40488 0
M  V30 4757 O 465.131 -1.74859 0.47896 0
M  V30 4758 C 465.179 -0.149397 3.6029 0
M  V30 4759 O 464.283 -1.21259 3.9417 0
M  V30 4760 H 463.624 0.0501228 0.662106 0
M  V30 4761 H 466.154 0.769452 1.8958 0
M  V30 4762 H 466.164 -0.364437 4.06369 0
M  V30 4763 H 464.839 0.787743 4.08372 0
M  V30 4764 H 463.416 -0.97825 3.5984 0
M  V30 4765 N 465.601 -1.54893 0.290851 0
M  V30 4766 C 466.849 -1.99538 -0.320756 0
M  V30 4767 C 467.17 -1.18075 -1.55188 0
M  V30 4768 O 466.44 -0.274162 -1.93972 0
M  V30 4769 H 465.02 -0.737052 -0.121507 0
M  V30 4770 H 467.682 -1.90755 0.399832 0
M  V30 4771 H 466.778 -3.06282 -0.599802 0
M  V30 4772 N 467.08 -0.0183926 -1.57589 0
M  V30 4773 C 468.03 0.975944 -2.06057 0
M  V30 4774 C 469.014 1.29204 -0.958908 0
M  V30 4775 O 470.206 1.27995 -1.22255 0
M  V30 4776 C 467.335 2.26194 -2.58247 0
M  V30 4777 C 466.421 1.97467 -3.75323 0
M  V30 4778 N 466.812 1.38968 -4.86335 0
M  V30 4779 C 465.11 2.27515 -3.83605 0
M  V30 4780 C 465.811 1.27131 -5.67638 0
M  V30 4781 N 464.787 1.76319 -5.14211 0
M  V30 4782 H 468.589 0.518444 -2.89291 0
M  V30 4783 H 466.103 0.18688 -1.61321 0
M  V30 4784 H 468.1 2.98289 -2.91255 0
M  V30 4785 H 466.76 2.7258 -1.76438 0
M  V30 4786 H 467.771 1.06608 -5.06809 0
M  V30 4787 H 464.448 2.76649 -3.12684 0
M  V30 4788 H 465.838 0.819882 -6.66879 0
M  V30 4789 N 468.558 1.5553 0.254621 0
M  V30 4790 C 469.788 1.80784 1.00004 0
M  V30 4791 C 470.196 0.59071 1.79742 0
M  V30 4792 O 469.539 -0.449988 1.78103 0
M  V30 4793 C 469.601 2.99268 1.99196 0
M  V30 4794 C 469.265 4.35595 1.38224 0
M  V30 4795 C 470.262 5.13884 0.788611 0
M  V30 4796 C 467.947 4.82281 1.40393 0
M  V30 4797 C 469.941 6.37004 0.224783 0
M  V30 4798 C 467.628 6.05351 0.836243 0
M  V30 4799 C 468.626 6.82551 0.24769 0
M  V30 4800 O 468.314 8.03297 -0.311249 0
M  V30 4801 H 468.046 0.60565 0.300274 0
M  V30 4802 H 470.6 2.03411 0.285143 0
M  V30 4803 H 468.83 2.72377 2.74496 0
M  V30 4804 H 470.519 3.11682 2.60018 0
M  V30 4805 H 471.285 4.78938 0.764423 0
M  V30 4806 H 467.164 4.22189 1.85142 0
M  V30 4807 H 470.708 6.97203 -0.235235 0
M  V30 4808 H 466.605 6.39776 0.857733 0
M  V30 4809 H 467.373 8.1825 -0.20237 0
M  V30 4810 N 470.036 -0.519951 1.48776 0
M  V30 4811 C 471.452 -0.849418 1.35119 0
M  V30 4812 C 471.652 -1.98077 0.36982 0
M  V30 4813 O 470.708 -2.51664 -0.205359 0
M  V30 4814 C 472.021 -1.20748 2.75391 0
M  V30 4815 C 473.569 -1.31679 2.83954 0
M  V30 4816 C 474.044 -1.70824 4.24951 0
M  V30 4817 N 475.535 -1.77908 4.27672 0
M  V30 4818 C 476.27 -2.09603 5.33717 0
M  V30 4819 N 475.766 -2.39652 6.5003 0
M  V30 4820 N 477.559 -2.10694 5.21119 0
M  V30 4821 H 469.71 0.226377 2.1119 0
M  V30 4822 H 471.973 0.0386519 0.947212 0
M  V30 4823 H 471.679 -0.449703 3.48813 0
M  V30 4824 H 471.553 -2.15534 3.09556 0
M  V30 4825 H 473.94 -2.06532 2.10781 0
M  V30 4826 H 474.021 -0.3499 2.53396 0
M  V30 4827 H 473.665 -0.965282 4.98643 0
M  V30 4828 H 473.595 -2.6858 4.52959 0
M  V30 4829 H 476.086 -1.56923 3.43779 0
M  V30 4830 H 476.399 -2.6297 7.26682 0
M  V30 4831 H 474.744 -2.37149 6.53288 0
M  V30 4832 H 477.935 -1.86682 4.29264 0
M  V30 4833 H 478.108 -2.35062 6.03863 0
M  V30 4834 N 471.514 -1.37532 -0.769588 0
M  V30 4835 C 472.477 -1.33292 -1.86456 0
M  V30 4836 C 473.477 -0.236537 -1.59051 0
M  V30 4837 O 474.667 -0.492511 -1.67093 0
M  V30 4838 C 471.799 -1.07118 -3.23633 0
M  V30 4839 H 472.992 -2.30692 -1.91628 0
M  V30 4840 H 470.545 -1.22593 -0.969572 0
M  V30 4841 H 471.28 -0.102578 -3.24138 0
M  V30 4842 H 471.065 -1.86479 -3.44917 0
M  V30 4843 H 472.555 -1.06806 -4.03711 0
M  V30 4844 N 472.992 0.995999 -1.22138 0
M  V30 4845 C 474.403 1.54961 -1.04135 0
M  V30 4846 C 474.754 1.92159 0.396147 0
M  V30 4847 O 473.879 1.74435 1.28069 0
M  V30 4848 C 474.474 2.81581 -1.88408 0
M  V30 4849 C 473.033 3.33396 -1.74712 0
M  V30 4850 C 472.18 2.06509 -1.85066 0
M  V30 4851 H 475.131 0.817436 -1.36028 0
M  V30 4852 H 475.152 3.53822 -1.39966 0
M  V30 4853 H 474.664 2.54476 -2.93025 0
M  V30 4854 H 472.765 3.65416 -0.728159 0
M  V30 4855 H 472.878 4.04208 -2.57202 0
M  V30 4856 H 471.242 2.19925 -1.28472 0
M  V30 4857 H 472.025 1.81804 -2.91208 0
M  V30 4858 N 474.47 1.03057 1.19235 0
M  V30 4859 C 475.718 0.726581 1.88587 0
M  V30 4860 C 476.039 -0.747227 1.80115 0
M  V30 4861 O 475.309 -1.53849 1.21274 0
M  V30 4862 H 473.889 0.265768 0.698124 0
M  V30 4863 H 476.551 1.30516 1.44746 0
M  V30 4864 H 475.647 1.0224 2.94879 0
M  V30 4865 N 475.948 -1.35272 0.808662 0
M  V30 4866 C 476.858 -2.33546 0.222079 0
M  V30 4867 C 477.874 -1.6196 -0.636011 0
M  V30 4868 O 479.05 -1.93822 -0.547274 0
M  V30 4869 C 476.115 -3.41148 -0.61795 0
M  V30 4870 C 475.176 -4.28507 0.260875 0
M  V30 4871 C 474.409 -5.3097 -0.539156 0
M  V30 4872 O 474.632 -5.42123 -1.77367 0
M  V30 4873 O 473.566 -6.01858 0.0710526 0
M  V30 4874 H 477.392 -2.85515 1.03512 0
M  V30 4875 H 474.977 -1.38079 0.570495 0
M  V30 4876 H 476.859 -4.06889 -1.09634 0
M  V30 4877 H 475.534 -2.91447 -1.40855 0
M  V30 4878 H 474.441 -3.6574 0.786451 0
M  V30 4879 H 475.774 -4.81611 1.01547 0
M  V30 4880 N 477.426 -0.562348 -1.47226 0
M  V30 4881 C 478.674 -0.0401371 -2.0206 0
M  V30 4882 C 478.995 1.3165 -1.43852 0
M  V30 4883 O 478.265 1.85976 -0.615599 0
M  V30 4884 H 476.845 -0.0118479 -0.746906 0
M  V30 4885 H 479.507 -0.73352 -1.8057 0
M  V30 4886 H 478.603 0.0441254 -3.12069 0
M  V30 4887 N 478.904 1.54736 -0.299062 0
M  V30 4888 C 480.315 1.8569 0.193971 0
M  V30 4889 C 480.666 1.22101 1.53577 0
M  V30 4890 O 479.791 0.51799 2.10109 0
M  V30 4891 C 480.386 3.36895 0.358733 0
M  V30 4892 C 478.945 3.67887 0.795986 0
M  V30 4893 C 478.092 2.77131 -0.096807 0
M  V30 4894 H 481.043 1.49934 -0.520134 0
M  V30 4895 H 481.064 3.61294 1.19361 0
M  V30 4896 H 480.576 3.83148 -0.617998 0
M  V30 4897 H 478.677 3.27151 1.78334 0
M  V30 4898 H 478.79 4.75114 0.616718 0
M  V30 4899 H 477.154 2.51153 0.423581 0
M  V30 4900 H 477.937 3.26204 -1.06986 0
M  V30 4901 N 480.382 0.0267497 1.57577 0
M  V30 4902 C 481.314 -0.984594 2.06974 0
M  V30 4903 C 482.327 -1.29032 0.992705 0
M  V30 4904 O 483.516 -1.25539 1.26895 0
M  V30 4905 C 480.616 -2.31262 2.47732 0
M  V30 4906 C 479.789 -2.1924 3.78487 0
M  V30 4907 C 478.848 -3.34956 4.05821 0
M  V30 4908 O 477.874 -3.11948 4.76106 0
M  V30 4909 N 479.076 -4.58672 3.55809 0
M  V30 4910 H 481.841 -0.563143 2.94362 0
M  V30 4911 H 479.402 -0.160061 1.61107 0
M  V30 4912 H 481.394 -3.07496 2.63112 0
M  V30 4913 H 479.964 -2.65056 1.65723 0
M  V30 4914 H 479.184 -1.27747 3.72927 0
M  V30 4915 H 480.472 -2.08409 4.64158 0
M  V30 4916 H 479.87 -4.8026 2.98942 0
M  V30 4917 H 478.427 -5.32083 3.76472 0
M  V30 4918 N 481.861 -1.55662 -0.24637 0
M  V30 4919 C 483.107 -1.77782 -0.975779 0
M  V30 4920 C 483.44 -0.592103 -1.84953 0
M  V30 4921 O 482.715 0.409588 -1.90138 0
M  V30 4922 C 482.998 -3.09788 -1.83584 0
M  V30 4923 C 482.851 -4.38764 -0.990241 0
M  V30 4924 C 484.17 -3.38029 -2.81823 0
M  V30 4925 H 481.289 -0.646789 -0.353317 0
M  V30 4926 H 483.931 -1.88398 -0.246248 0
M  V30 4927 H 482.081 -3.00869 -2.45784 0
M  V30 4928 H 483.753 -4.59675 -0.386897 0
M  V30 4929 H 481.996 -4.32798 -0.294626 0
M  V30 4930 H 482.667 -5.27514 -1.62584 0
M  V30 4931 H 485.143 -3.46915 -2.2976 0
M  V30 4932 H 484.019 -4.3161 -3.39122 0
M  V30 4933 H 484.28 -2.58968 -3.58313 0
M  V30 4934 N 483.339 0.512053 -1.4905 0
M  V30 4935 C 484.302 1.59704 -1.64399 0
M  V30 4936 C 485.302 1.52285 -0.516317 0
M  V30 4937 O 486.492 1.55635 -0.782527 0
M  V30 4938 C 483.624 2.9935 -1.63102 0
M  V30 4939 H 484.817 1.47428 -2.61161 0
M  V30 4940 H 482.37 0.735469 -1.37915 0
M  V30 4941 H 483.105 3.17116 -0.678836 0
M  V30 4942 H 482.89 3.06144 -2.44986 0
M  V30 4943 H 484.38 3.782 -1.77072 0
M  V30 4944 N 484.817 1.37938 0.762283 0
M  V30 4945 C 486.057 1.35076 1.53407 0
M  V30 4946 C 486.421 -0.061546 1.91901 0
M  V30 4947 O 487.622 -0.214973 2.67939 0
M  V30 4948 C 485.893 2.27206 2.75884 0
M  V30 4949 S 487.452 2.42283 3.65848 0
M  V30 4950 H 484.27 0.479387 0.52508 0
M  V30 4951 H 486.872 1.7378 0.895586 0
M  V30 4952 H 485.576 3.28724 2.457 0
M  V30 4953 H 485.107 1.8962 3.44685 0
M  V30 4954 H 487.122 1.64044 4.68299 0
M  V30 4955 N 486.295 -0.989507 1.22664 0
M  V30 4956 C 487.523 -1.76496 1.07967 0
M  V30 4957 C 487.938 -1.85148 -0.369543 0
M  V30 4958 O 487.295 -1.32408 -1.25596 0
M  V30 4959 C 487.346 -3.19642 1.68853 0
M  V30 4960 O 487.067 -3.11453 3.08105 0
M  V30 4961 C 488.568 -4.13621 1.59475 0
M  V30 4962 H 485.788 -0.55418 0.378319 0
M  V30 4963 H 488.332 -1.24378 1.62328 0
M  V30 4964 H 486.487 -3.68816 1.18547 0
M  V30 4965 H 486.901 -4.01499 3.37489 0
M  V30 4966 H 488.375 -5.11801 2.06795 0
M  V30 4967 H 488.852 -4.35718 0.55191 0
M  V30 4968 H 489.458 -3.70346 2.09103 0
M  V30 4969 N 487.773 -1.03688 -1.18687 0
M  V30 4970 C 489.021 -0.736572 -1.88199 0
M  V30 4971 C 489.342 0.737665 -1.80509 0
M  V30 4972 O 488.612 1.53204 -1.22088 0
M  V30 4973 H 487.192 -0.269466 -0.696704 0
M  V30 4974 H 489.854 -1.31282 -1.44052 0
M  V30 4975 H 488.95 -1.03802 -2.94332 0
M  V30 4976 N 489.251 1.34841 -0.815825 0
M  V30 4977 C 490.662 1.80937 -0.46029 0
M  V30 4978 C 491.013 1.67685 1.01863 0
M  V30 4979 O 490.138 1.21277 1.79223 0
M  V30 4980 C 490.733 3.28509 -0.828708 0
M  V30 4981 C 489.292 3.72712 -0.525644 0
M  V30 4982 C 488.439 2.56676 -1.04941 0
M  V30 4983 H 491.39 1.22688 -1.00664 0
M  V30 4984 H 491.411 3.80279 -0.129757 0
M  V30 4985 H 490.923 3.38122 -1.90513 0
M  V30 4986 H 489.024 3.68642 0.541666 0
M  V30 4987 H 489.137 4.67119 -1.06474 0
M  V30 4988 H 487.501 2.50302 -0.471286 0
M  V30 4989 H 488.284 2.69063 -2.13214 0
M  V30 4990 N 490.729 0.570148 1.46925 0
M  V30 4991 C 492.14 0.1402 1.86173 0
M  V30 4992 C 492.491 -1.29347 1.47526 0
M  V30 4993 O 491.616 -1.97508 0.884292 0
M  V30 4994 C 492.211 0.247661 3.37894 0
M  V30 4995 C 490.77 -0.127332 3.76185 0
M  V30 4996 C 489.917 0.589349 2.70965 0
M  V30 4997 H 492.868 0.779117 1.38259 0
M  V30 4998 H 492.889 -0.530341 3.76786 0
M  V30 4999 H 492.401 1.29121 3.65991 0
M  V30 5000 H 490.502 -1.17149 3.53704 0
M  V30 5001 H 490.615 0.240238 4.78497 0
M  V30 5002 H 488.979 0.0309824 2.54681 0
M  V30 5003 H 489.762 1.6343 3.01903 0
M  V30 5004 N 492.207 -1.54576 0.307264 0
M  V30 5005 C 493.432 -2.05139 -0.305379 0
M  V30 5006 C 493.857 -1.18278 -1.46259 0
M  V30 5007 O 493.215 -0.188243 -1.8032 0
M  V30 5008 C 493.263 -3.53066 -0.733283 0
M  V30 5009 O 492.367 -3.69206 -1.83741 0
M  V30 5010 H 491.708 -0.661444 -0.0582105 0
M  V30 5011 H 494.238 -1.99569 0.450931 0
M  V30 5012 H 494.248 -3.95034 -1.02039 0
M  V30 5013 H 492.923 -4.15746 0.113198 0
M  V30 5014 H 491.5 -3.39143 -1.55037 0
M  V30 5015 N 493.685 -0.035106 -1.57561 0
M  V30 5016 C 494.648 0.929819 -2.09492 0
M  V30 5017 C 495.648 1.25026 -1.01119 0
M  V30 5018 O 496.838 1.18961 -1.27255 0
M  V30 5019 C 493.97 2.24457 -2.56577 0
M  V30 5020 H 495.163 0.479935 -2.96035 0
M  V30 5021 H 492.716 0.213033 -1.54841 0
M  V30 5022 H 493.451 2.74061 -1.73382 0
M  V30 5023 H 493.236 2.02508 -3.35757 0
M  V30 5024 H 494.726 2.93607 -2.96959 0
M  V30 5025 N 495.163 1.55791 0.238111 0
M  V30 5026 C 496.574 1.68383 0.806472 0
M  V30 5027 C 496.925 0.634157 1.85669 0
M  V30 5028 O 496.05 -0.217913 2.153 0
M  V30 5029 C 496.645 3.05268 1.46959 0
M  V30 5030 C 495.204 3.1977 1.98555 0
M  V30 5031 C 494.351 2.64279 0.839763 0
M  V30 5032 H 497.302 1.58694 0.0137535 0
M  V30 5033 H 497.323 3.00203 2.33792 0
M  V30 5034 H 496.835 3.81643 0.704993 0
M  V30 5035 H 494.936 2.48234 2.77868 0
M  V30 5036 H 495.049 4.26788 2.17689 0
M  V30 5037 H 493.413 2.22329 1.24265 0
M  V30 5038 H 494.196 3.43187 0.0881032 0
M  V30 5039 N 496.642 -0.504142 1.49319 0
M  V30 5040 C 498.058 -0.835039 1.36012 0
M  V30 5041 C 498.258 -1.97674 0.390808 0
M  V30 5042 O 497.314 -2.51867 -0.178655 0
M  V30 5043 C 498.627 -1.17821 2.76656 0
M  V30 5044 C 500.175 -1.2866 2.85334 0
M  V30 5045 C 500.65 -1.66307 4.26739 0
M  V30 5046 N 502.141 -1.73362 4.29534 0
M  V30 5047 C 502.876 -2.0393 5.35911 0
M  V30 5048 N 502.372 -2.32744 6.52535 0
M  V30 5049 N 504.165 -2.05155 5.23324 0
M  V30 5050 H 496.316 0.248764 2.10938 0
M  V30 5051 H 498.579 0.0486962 0.946748 0
M  V30 5052 H 498.285 -0.412682 3.4927 0
M  V30 5053 H 498.159 -2.12239 3.11825 0
M  V30 5054 H 500.546 -2.04285 2.1296 0
M  V30 5055 H 500.627 -0.323004 2.53752 0
M  V30 5056 H 500.271 -0.91234 4.99639 0
M  V30 5057 H 500.201 -2.63761 4.55782 0
M  V30 5058 H 502.692 -1.53268 3.45424 0
M  V30 5059 H 503.005 -2.55248 7.2943 0
M  V30 5060 H 501.35 -2.30207 6.55767 0
M  V30 5061 H 504.541 -1.82119 4.3122 0
M  V30 5062 H 504.714 -2.28644 6.06322 0
M  V30 5063 N 498.12 -1.38341 -0.754957 0
M  V30 5064 C 499.068 -1.35573 -1.89005 0
M  V30 5065 C 500.062 -0.241824 -1.67665 0
M  V30 5066 O 501.268 -0.410785 -1.7525 0
M  V30 5067 H 497.643 -0.422898 -0.621821 0
M  V30 5068 H 499.614 -2.31359 -1.88455 0
M  V30 5069 C 498.363 -1.19631 -3.26471 0
M  V30 5070 H 497.686 -2.04605 -3.43477 0
M  V30 5071 H 499.126 -1.21748 -4.06144 0
M  V30 5072 C 497.585 0.0968705 -3.36761 0
M  V30 5073 O 498.115 1.07439 -3.87066 0
M  V30 5074 N 496.321 0.153242 -2.90196 0
M  V30 5075 H 495.868 -0.642908 -2.49448 0
M  V30 5076 H 495.826 1.01807 -2.9746 0
M  V30 5077 N 499.598 0.982988 -1.23187 0
M  V30 5078 C 500.528 2.09301 -1.03515 0
M  V30 5079 C 501.509 1.70035 0.0471136 0
M  V30 5080 O 502.694 1.93847 -0.117029 0
M  V30 5081 C 499.824 3.4167 -0.622791 0
M  V30 5082 C 498.778 3.94828 -1.65211 0
M  V30 5083 C 498.104 5.23362 -1.09527 0
M  V30 5084 C 499.404 4.2439 -3.04451 0
M  V30 5085 H 501.098 2.26016 -1.96359 0
M  V30 5086 H 498.644 1.08611 -0.945501 0
M  V30 5087 H 500.597 4.18746 -0.472233 0
M  V30 5088 H 499.321 3.24811 0.341329 0
M  V30 5089 H 497.98 3.19895 -1.79061 0
M  V30 5090 H 497.628 5.02852 -0.122211 0
M  V30 5091 H 497.328 5.59895 -1.783 0
M  V30 5092 H 498.852 6.03062 -0.956511 0
M  V30 5093 H 500.266 4.92225 -2.93917 0
M  V30 5094 H 498.663 4.72118 -3.70438 0
M  V30 5095 H 499.733 3.31765 -3.53638 0
M  V30 5096 N 501.076 1.04316 1.18135 0
M  V30 5097 C 502.301 0.768047 1.92655 0
M  V30 5098 C 502.726 -0.66904 1.758 0
M  V30 5099 O 502.084 -1.46372 1.06981 0
M  V30 5100 C 502.132 1.14239 3.42026 0
M  V30 5101 O 501.236 0.269333 4.1152 0
M  V30 5102 H 500.577 0.282436 0.600937 0
M  V30 5103 H 503.107 1.39367 1.49793 0
M  V30 5104 H 503.117 1.10538 3.92741 0
M  V30 5105 H 501.792 2.18928 3.53615 0
M  V30 5106 H 500.369 0.366175 3.71098 0
M  V30 5107 N 502.554 -1.34406 0.822964 0
M  V30 5108 C 503.801 -1.98284 0.411057 0
M  V30 5109 C 504.129 -1.65245 -1.02588 0
M  V30 5110 O 503.384 -0.91619 -1.72929 0
M  V30 5111 C 503.683 -3.52981 0.560268 0
M  V30 5112 C 503.349 -4.05931 1.96293 0
M  V30 5113 C 502.011 -4.20103 2.34664 0
M  V30 5114 C 504.363 -4.34412 2.87985 0
M  V30 5115 C 501.691 -4.60082 3.64062 0
M  V30 5116 C 504.043 -4.75838 4.16847 0
M  V30 5117 C 502.707 -4.88215 4.55195 0
M  V30 5118 H 501.977 -0.725573 0.150416 0
M  V30 5119 H 504.624 -1.60349 1.04692 0
M  V30 5120 H 502.929 -3.91477 -0.158982 0
M  V30 5121 H 504.626 -4.00385 0.222087 0
M  V30 5122 H 501.216 -3.95363 1.65487 0
M  V30 5123 H 505.4 -4.23001 2.59584 0
M  V30 5124 H 500.656 -4.67856 3.93599 0
M  V30 5125 H 504.83 -4.96834 4.87984 0
M  V30 5126 H 502.457 -5.18952 5.55512 0
M  V30 5127 N 504.032 -0.577932 -1.46621 0
M  V30 5128 C 505.257 -0.0652536 -2.07297 0
M  V30 5129 C 505.682 1.22828 -1.4246 0
M  V30 5130 O 505.04 1.74075 -0.506718 0
M  V30 5131 C 505.088 0.0920589 -3.60482 0
M  V30 5132 O 504.192 1.14972 -3.96049 0
M  V30 5133 H 503.533 -0.06065 -0.661224 0
M  V30 5134 H 506.063 -0.799515 -1.88332 0
M  V30 5135 H 506.073 0.299741 -4.06897 0
M  V30 5136 H 504.748 -0.852612 -4.07067 0
M  V30 5137 H 503.325 0.920879 -3.61351 0
M  V30 5138 N 505.51 1.54411 -0.315457 0
M  V30 5139 C 506.473 2.22713 0.54142 0
M  V30 5140 C 507.473 1.2179 1.04995 0
M  V30 5141 O 508.663 1.46426 0.943667 0
M  V30 5142 C 505.795 2.92485 1.75116 0
M  V30 5143 H 506.988 2.99849 -0.0555508 0
M  V30 5144 H 504.541 1.56159 -0.0664453 0
M  V30 5145 H 505.276 2.19466 2.38758 0
M  V30 5146 H 505.061 3.66483 1.39401 0
M  V30 5147 H 506.551 3.44548 2.35959 0
M  V30 5148 N 506.988 0.0434614 1.5754 0
M  V30 5149 C 508.213 -0.645358 1.97104 0
M  V30 5150 C 508.638 -1.64037 0.920521 0
M  V30 5151 O 507.996 -1.80922 -0.11708 0
M  V30 5152 C 508.044 -1.31547 3.35749 0
M  V30 5153 O 507.148 -2.43103 3.33129 0
M  V30 5154 H 506.489 -0.168403 0.64229 0
M  V30 5155 H 509.019 0.109573 2.04306 0
M  V30 5156 H 509.029 -1.66895 3.72304 0
M  V30 5157 H 507.704 -0.586205 4.11748 0
M  V30 5158 H 506.281 -2.0976 3.0831 0
M  V30 5159 N 508.466 -1.55915 -0.229846 0
M  V30 5160 C 509.714 -1.7819 -0.953565 0
M  V30 5161 C 510.035 -0.610504 -1.85197 0
M  V30 5162 O 509.305 0.372988 -1.92316 0
M  V30 5163 H 507.885 -0.657208 -0.355087 0
M  V30 5164 H 510.547 -1.9337 -0.243693 0
M  V30 5165 H 509.643 -2.70011 -1.56527 0
M  V30 5166 N 509.944 0.496216 -1.49584 0
M  V30 5167 C 511.172 1.27394 -1.63029 0
M  V30 5168 C 511.587 1.86344 -0.303569 0
M  V30 5169 O 510.944 1.68057 0.711547 0
M  V30 5170 C 510.995 2.40077 -2.70269 0
M  V30 5171 O 510.716 1.83549 -3.97796 0
M  V30 5172 C 512.217 3.31372 -2.94462 0
M  V30 5173 H 509.437 0.386211 -0.54871 0
M  V30 5174 H 511.981 0.595163 -1.95648 0
M  V30 5175 H 510.136 3.03775 -2.40415 0
M  V30 5176 H 510.55 2.57561 -4.56905 0
M  V30 5177 H 512.024 4.06707 -3.73221 0
M  V30 5178 H 512.501 3.88654 -2.0456 0
M  V30 5179 H 513.107 2.73435 -3.25751 0
M  V30 5180 N 511.423 1.38739 0.74761 0
M  V30 5181 C 512.355 1.32341 1.87132 0
M  V30 5182 C 513.368 0.234502 1.61102 0
M  V30 5183 O 514.557 0.492516 1.71571 0
M  V30 5184 C 511.657 1.02915 3.22896 0
M  V30 5185 C 510.83 2.22834 3.76383 0
M  V30 5186 C 509.889 1.90059 4.90677 0
M  V30 5187 O 508.915 2.62615 5.04997 0
M  V30 5188 N 510.117 0.859141 5.74107 0
M  V30 5189 H 512.882 2.29175 1.93129 0
M  V30 5190 H 510.443 1.32678 0.927805 0
M  V30 5191 H 512.435 0.79031 3.96908 0
M  V30 5192 H 511.005 0.148572 3.12247 0
M  V30 5193 H 510.225 2.62747 2.93867 0
M  V30 5194 H 511.513 3.02851 4.08851 0
M  V30 5195 H 510.911 0.257564 5.65113 0
M  V30 5196 H 509.468 0.680189 6.48241 0
M  V30 5197 N 512.901 -0.976442 1.23707 0
M  V30 5198 C 513.831 -2.08749 1.04624 0
M  V30 5199 C 514.812 -1.70057 -0.0380956 0
M  V30 5200 O 515.997 -1.93782 0.127308 0
M  V30 5201 C 513.127 -3.41335 0.640902 0
M  V30 5202 C 512.081 -3.93947 1.67302 0
M  V30 5203 C 511.407 -5.22774 1.12301 0
M  V30 5204 C 512.707 -4.22769 3.06697 0
M  V30 5205 H 514.401 -2.24972 1.97555 0
M  V30 5206 H 511.947 -1.08108 0.951247 0
M  V30 5207 H 513.9 -4.18489 0.494434 0
M  V30 5208 H 512.624 -3.24988 -0.324099 0
M  V30 5209 H 511.283 -3.18941 1.80755 0
M  V30 5210 H 510.931 -5.0278 0.148877 0
M  V30 5211 H 510.631 -5.58942 1.81267 0
M  V30 5212 H 512.155 -6.02546 0.988479 0
M  V30 5213 H 513.569 -4.90659 2.96524 0
M  V30 5214 H 511.966 -4.70147 3.72937 0
M  V30 5215 H 513.036 -3.29885 3.55392 0
M  V30 5216 N 514.379 -1.04941 -1.1758 0
M  V30 5217 C 515.604 -0.778253 -1.92245 0
M  V30 5218 C 516.029 0.659707 -1.76152 0
M  V30 5219 O 515.387 1.45803 -1.07755 0
M  V30 5220 C 515.435 -1.16051 -3.41416 0
M  V30 5221 O 514.539 -0.291153 -4.11371 0
M  V30 5222 H 513.88 -0.285619 -0.599431 0
M  V30 5223 H 516.41 -1.40159 -1.49052 0
M  V30 5224 H 516.42 -1.12619 -3.92149 0
M  V30 5225 H 515.095 -2.208 -3.52449 0
M  V30 5226 H 513.672 -0.385851 -3.70898 0
M  V30 5227 N 515.857 1.33968 -0.830081 0
M  V30 5228 C 516.787 2.31911 -0.271911 0
M  V30 5229 C 517.768 1.58571 0.61556 0
M  V30 5230 O 518.953 1.86514 0.540946 0
M  V30 5231 C 516.083 3.42737 0.561146 0
M  V30 5232 C 515.037 4.27383 -0.229789 0
M  V30 5233 C 514.363 5.29742 0.726463 0
M  V30 5234 C 515.663 5.02 -1.44197 0
M  V30 5235 H 517.357 2.78844 -1.09025 0
M  V30 5236 H 514.903 1.34061 -0.52571 0
M  V30 5237 H 516.856 4.10276 0.961867 0
M  V30 5238 H 515.58 2.94471 1.41261 0
M  V30 5239 H 514.239 3.61456 -0.611964 0
M  V30 5240 H 513.887 4.77736 1.57408 0
M  V30 5241 H 513.587 5.87255 0.20142 0
M  V30 5242 H 515.111 6.00149 1.12489 0
M  V30 5243 H 516.525 5.62355 -1.11488 0
M  V30 5244 H 514.922 5.69122 -1.90317 0
M  V30 5245 H 515.992 4.31281 -2.2164 0
M  V30 5246 N 517.335 0.585699 1.46312 0
M  V30 5247 C 518.751 0.247607 1.57668 0
M  V30 5248 C 518.951 -1.25007 1.58037 0
M  V30 5249 O 518.007 -2.03196 1.49893 0
M  V30 5250 C 519.32 0.899456 2.86933 0
M  V30 5251 C 520.868 0.873326 3.00569 0
M  V30 5252 C 521.343 1.50477 4.32574 0
M  V30 5253 N 522.834 1.46925 4.3928 0
M  V30 5254 C 523.569 1.92719 5.40044 0
M  V30 5255 N 523.065 2.46499 6.47464 0
M  V30 5256 N 524.858 1.83617 5.31264 0
M  V30 5257 H 517.009 1.55841 1.44317 0
M  V30 5258 H 519.272 0.651564 0.688599 0
M  V30 5259 H 518.978 1.95313 2.92482 0
M  V30 5260 H 518.852 0.409476 3.74971 0
M  V30 5261 H 521.239 -0.171736 2.946 0
M  V30 5262 H 521.32 1.40136 2.13999 0
M  V30 5263 H 520.964 2.54905 4.39302 0
M  V30 5264 H 520.894 0.951944 5.17924 0
M  V30 5265 H 523.385 1.07616 3.62253 0
M  V30 5266 H 523.698 2.79291 7.20567 0
M  V30 5267 H 522.043 2.50526 6.48276 0
M  V30 5268 H 525.234 1.41358 4.46246 0
M  V30 5269 H 525.407 2.19622 6.09648 0
M  V30 5270 N 518.813 -1.54241 0.323641 0
M  V30 5271 C 520.059 -2.01572 -0.272089 0
M  V30 5272 C 520.414 -1.20774 -1.49771 0
M  V30 5273 O 519.707 -0.281821 -1.89516 0
M  V30 5274 C 519.901 -3.5129 -0.658031 0
M  V30 5275 C 519.73 -4.46582 0.528645 0
M  V30 5276 C 518.5 -4.94737 1.02777 0
M  V30 5277 C 520.698 -4.95416 1.38086 0
M  V30 5278 N 518.68 -5.73933 2.17885 0
M  V30 5279 C 520.051 -5.72537 2.3791 0
M  V30 5280 C 522.106 -4.77559 1.40861 0
M  V30 5281 C 520.809 -6.33702 3.40314 0
M  V30 5282 C 522.835 -5.39559 2.42136 0
M  V30 5283 C 522.197 -6.16532 3.40688 0
M  V30 5284 H 518.296 -0.779425 -0.0634072 0
M  V30 5285 H 520.88 -1.8922 0.458697 0
M  V30 5286 H 519.051 -3.63888 -1.35795 0
M  V30 5287 H 520.783 -3.85388 -1.23524 0
M  V30 5288 H 517.538 -4.69796 0.599046 0
M  V30 5289 H 517.962 -6.18209 2.75947 0
M  V30 5290 H 522.604 -4.17611 0.660352 0
M  V30 5291 H 520.322 -6.9277 4.16047 0
M  V30 5292 H 523.908 -5.27659 2.45086 0
M  V30 5293 H 522.788 -6.63655 4.1777 0
M  V30 5294 N 520.291 -0.0518155 -1.57515 0
M  V30 5295 C 521.201 0.937539 -2.15052 0
M  V30 5296 C 522.217 1.34121 -1.10849 0
M  V30 5297 O 523.393 1.418 -1.4302 0
M  V30 5298 C 520.458 2.19379 -2.68466 0
M  V30 5299 C 519.519 1.84841 -3.87469 0
M  V30 5300 C 518.752 3.04477 -4.38326 0
M  V30 5301 O 518.975 4.17868 -3.88256 0
M  V30 5302 O 517.909 2.85453 -5.29906 0
M  V30 5303 H 521.735 0.478201 -2.99912 0
M  V30 5304 H 519.32 0.17012 -1.48428 0
M  V30 5305 H 521.202 2.93084 -3.02787 0
M  V30 5306 H 519.877 2.64449 -1.86677 0
M  V30 5307 H 518.784 1.08449 -3.58036 0
M  V30 5308 H 520.117 1.44569 -4.7049 0
M  V30 5309 N 521.769 1.56035 0.221574 0
M  V30 5310 C 523.18 1.69229 0.788567 0
M  V30 5311 C 523.531 0.653814 1.84986 0
M  V30 5312 O 522.656 -0.195065 2.15519 0
M  V30 5313 C 523.251 3.06809 1.43713 0
M  V30 5314 C 521.81 3.21858 1.95152 0
M  V30 5315 C 520.957 2.65155 0.811685 0
M  V30 5316 H 523.908 1.587 -0.00307894 0
M  V30 5317 H 523.929 3.02666 2.30594 0
M  V30 5318 H 523.441 3.82369 0.664475 0
M  V30 5319 H 521.542 2.51167 2.7522 0
M  V30 5320 H 521.655 4.29073 2.1315 0
M  V30 5321 H 520.019 2.23635 1.21899 0
M  V30 5322 H 520.802 3.43261 0.0516987 0
M  V30 5323 N 523.247 -0.488276 1.49845 0
M  V30 5324 C 524.658 -1.06955 1.53028 0
M  V30 5325 C 525.009 -1.9351 0.323797 0
M  V30 5326 O 524.134 -2.08891 -0.565116 0
M  V30 5327 C 524.729 -1.94643 2.77307 0
M  V30 5328 C 523.288 -2.4791 2.83227 0
M  V30 5329 C 522.435 -1.25833 2.47106 0
M  V30 5330 H 525.386 -0.271626 1.56358 0
M  V30 5331 H 525.407 -2.79496 2.5819 0
M  V30 5332 H 524.919 -1.31621 3.65099 0
M  V30 5333 H 523.02 -3.14535 1.99745 0
M  V30 5334 H 523.133 -2.84193 3.85709 0
M  V30 5335 H 521.497 -1.58764 1.99163 0
M  V30 5336 H 522.28 -0.644993 3.37186 0
M  V30 5337 N 524.725 -1.39134 -0.740242 0
M  V30 5338 C 525.688 -1.37217 -1.83587 0
M  V30 5339 C 526.688 -0.270221 -1.58513 0
M  V30 5340 O 527.878 -0.527843 -1.6601 0
M  V30 5341 C 525.01 -1.13959 -3.21288 0
M  V30 5342 H 526.203 -2.34705 -1.86691 0
M  V30 5343 H 523.756 -1.24622 -0.94335 0
M  V30 5344 H 524.491 -0.17131 -3.23847 0
M  V30 5345 H 524.276 -1.93754 -3.40884 0
M  V30 5346 H 525.766 -1.15346 -4.01354 0
M  V30 5347 N 526.204 0.969867 -1.24223 0
M  V30 5348 C 527.481 1.68774 -0.988664 0
M  V30 5349 C 527.861 2.05342 0.489673 0
M  V30 5350 O 527.209 1.75486 1.46345 0
M  V30 5351 C 527.419 2.92135 -1.90941 0
M  V30 5352 C 528.767 3.64422 -2.17903 0
M  V30 5353 O 529.791 3.02188 -1.88576 0
M  V30 5354 O 528.65 4.76446 -2.67697 0
M  V30 5355 H 525.744 0.737736 -0.37373 0
M  V30 5356 H 528.29 1.02415 -1.35312 0
M  V30 5357 H 527.062 2.61788 -2.90831 0
M  V30 5358 H 526.685 3.66228 -1.54798 0
M  V30 5359 N 527.682 1.05563 1.17022 0
M  V30 5360 C 528.91 0.78845 1.91288 0
M  V30 5361 C 529.325 -0.656318 1.77025 0
M  V30 5362 O 528.682 -1.44869 1.10992 0
M  V30 5363 C 528.733 1.16444 3.42232 0
M  V30 5364 O 528.454 2.5525 3.5606 0
M  V30 5365 C 529.955 0.923937 4.33565 0
M  V30 5366 H 527.175 0.286389 0.606813 0
M  V30 5367 H 529.719 1.4073 1.48375 0
M  V30 5368 H 527.874 0.590266 3.82877 0
M  V30 5369 H 528.288 2.70097 4.49609 0
M  V30 5370 H 529.762 1.23672 5.37968 0
M  V30 5371 H 530.239 -0.140688 4.38975 0
M  V30 5372 H 530.845 1.48214 3.98639 0
M  V30 5373 N 529.16 -1.33526 0.837174 0
M  V30 5374 C 530.408 -1.97446 0.431211 0
M  V30 5375 C 530.729 -1.6665 -1.01255 0
M  V30 5376 O 529.999 -0.964559 -1.70508 0
M  V30 5377 H 528.579 -0.73043 0.156463 0
M  V30 5378 H 531.241 -1.62918 1.06976 0
M  V30 5379 H 530.337 -3.07001 0.561877 0
M  V30 5380 N 530.638 -0.59345 -1.46 0
M  V30 5381 C 531.886 -0.082988 -2.0193 0
M  V30 5382 C 532.207 1.28569 -1.46612 0
M  V30 5383 O 531.477 1.84629 -0.654909 0
M  V30 5384 H 530.057 -0.0276882 -0.746487 0
M  V30 5385 H 532.719 -0.771657 -1.78973 0
M  V30 5386 H 531.815 -0.022079 -3.12092 0
M  V30 5387 N 532.116 1.54067 -0.331816 0
M  V30 5388 C 533.532 1.59587 0.0205388 0
M  V30 5389 C 533.732 1.34813 1.49759 0
M  V30 5390 O 532.788 1.13661 2.25471 0
M  V30 5391 C 534.101 2.97959 -0.405103 0
M  V30 5392 C 535.649 3.10964 -0.356454 0
M  V30 5393 C 536.124 4.51694 -0.757384 0
M  V30 5394 N 537.615 4.57709 -0.71111 0
M  V30 5395 C 538.35 5.64729 -0.993427 0
M  V30 5396 N 537.846 6.79652 -1.3433 0
M  V30 5397 N 539.639 5.54546 -0.918442 0
M  V30 5398 H 531.79 1.68426 -1.29407 0
M  V30 5399 H 534.053 0.78819 -0.526745 0
M  V30 5400 H 533.759 3.21115 -1.43451 0
M  V30 5401 H 533.633 3.76524 0.225692 0
M  V30 5402 H 536.02 2.87538 0.663763 0
M  V30 5403 H 536.101 2.34484 -1.02229 0
M  V30 5404 H 535.745 4.75853 -1.77555 0
M  V30 5405 H 535.675 5.26555 -0.0691444 0
M  V30 5406 H 538.166 3.75176 -0.452883 0
M  V30 5407 H 538.479 7.57221 -1.54388 0
M  V30 5408 H 536.824 6.81128 -1.38164 0
M  V30 5409 H 540.015 4.63641 -0.644536 0
M  V30 5410 H 540.188 6.37861 -1.14181 0
M  V30 5411 N 533.594 0.0601682 1.57485 0
M  V30 5412 C 534.526 -0.94047 2.09016 0
M  V30 5413 C 535.539 -1.26897 1.01985 0
M  V30 5414 O 536.728 -1.22819 1.29529 0
M  V30 5415 C 533.828 -2.25955 2.52582 0
M  V30 5416 C 533.001 -2.11163 3.83052 0
M  V30 5417 C 532.06 -3.26273 4.12835 0
M  V30 5418 O 531.086 -3.01779 4.82616 0
M  V30 5419 N 532.288 -4.51022 3.65458 0
M  V30 5420 H 535.053 -0.500578 2.9549 0
M  V30 5421 H 532.614 -0.125852 1.6141 0
M  V30 5422 H 534.606 -3.01846 2.69575 0
M  V30 5423 H 533.176 -2.61481 1.71308 0
M  V30 5424 H 532.396 -1.19808 3.75552 0
M  V30 5425 H 533.684 -1.98517 4.68475 0
M  V30 5426 H 533.082 -4.73811 3.09062 0
M  V30 5427 H 531.639 -5.23978 3.87673 0
M  V30 5428 N 535.072 -1.5615 -0.213296 0
M  V30 5429 C 536.349 -1.70349 -0.961281 0
M  V30 5430 C 536.729 -0.609791 -2.02101 0
M  V30 5431 O 536.077 0.381987 -2.25285 0
M  V30 5432 C 536.287 -3.11982 -1.56424 0
M  V30 5433 C 537.635 -3.71649 -2.05334 0
M  V30 5434 O 538.659 -3.14995 -1.66302 0
M  V30 5435 O 537.518 -4.71038 -2.77102 0
M  V30 5436 H 534.612 -0.694121 -0.449582 0
M  V30 5437 H 537.158 -1.68464 -0.204426 0
M  V30 5438 H 535.93 -3.83046 -0.799457 0
M  V30 5439 H 535.553 -3.18019 -2.38641 0
M  V30 5440 N 536.55 0.480323 -1.50102 0
M  V30 5441 C 537.796 1.23489 -1.60867 0
M  V30 5442 C 538.129 1.91809 -0.303827 0
M  V30 5443 O 537.404 1.81694 0.694092 0
M  V30 5444 C 537.687 2.28578 -2.78252 0
M  V30 5445 C 537.54 1.64624 -4.18592 0
M  V30 5446 C 538.859 3.2997 -2.91218 0
M  V30 5447 H 535.978 0.447605 -0.585507 0
M  V30 5448 H 538.62 0.530005 -1.82458 0
M  V30 5449 H 536.77 2.88697 -2.59974 0
M  V30 5450 H 538.442 1.08173 -4.48438 0
M  V30 5451 H 536.685 0.949645 -4.23278 0
M  V30 5452 H 537.356 2.40946 -4.96638 0
M  V30 5453 H 539.832 2.79864 -3.07921 0
M  V30 5454 H 538.708 4.00839 -3.74993 0
M  V30 5455 H 538.969 3.93541 -2.0144 0
M  V30 5456 N 538.028 1.39524 0.732853 0
M  V30 5457 C 539.444 1.21176 1.03868 0
M  V30 5458 C 539.644 0.0748448 2.01361 0
M  V30 5459 O 538.7 -0.57281 2.45917 0
M  V30 5460 C 540.013 2.54667 1.59892 0
M  V30 5461 C 541.561 2.6153 1.71962 0
M  V30 5462 C 542.036 3.95248 2.31394 0
M  V30 5463 N 543.527 3.96899 2.38801 0
M  V30 5464 C 544.262 4.97138 2.85729 0
M  V30 5465 N 543.758 6.07775 3.32537 0
M  V30 5466 N 545.551 4.84516 2.84957 0
M  V30 5467 H 537.702 2.12225 0.086304 0
M  V30 5468 H 539.965 0.942614 0.100907 0
M  V30 5469 H 539.671 3.38423 0.95721 0
M  V30 5470 H 539.545 2.74538 2.58668 0
M  V30 5471 H 541.932 1.78156 2.35254 0
M  V30 5472 H 542.013 2.45507 0.718327 0
M  V30 5473 H 541.657 4.79054 1.68729 0
M  V30 5474 H 541.587 4.08593 3.32204 0
M  V30 5475 H 544.078 3.16998 2.05719 0
M  V30 5476 H 544.391 6.8017 3.66862 0
M  V30 5477 H 542.736 6.11366 3.30541 0
M  V30 5478 H 545.927 3.97185 2.47713 0
M  V30 5479 H 546.1 5.62783 3.21215 0
M  V30 5480 N 539.506 -0.963266 1.24736 0
M  V30 5481 C 540.736 -1.73913 1.11524 0
M  V30 5482 C 541.144 -1.86218 -0.334612 0
M  V30 5483 O 540.487 -1.3531 -1.24245 0
M  V30 5484 C 540.549 -3.17501 1.68622 0
M  V30 5485 C 540.213 -3.28655 3.17546 0
M  V30 5486 C 541.21 -3.13637 4.14642 0
M  V30 5487 C 538.895 -3.52753 3.5759 0
M  V30 5488 C 540.889 -3.2255 5.49764 0
M  V30 5489 C 538.576 -3.61303 4.92852 0
M  V30 5490 C 539.574 -3.46214 5.88748 0
M  V30 5491 O 539.262 -3.5443 7.2155 0
M  V30 5492 H 538.994 -0.552057 0.390139 0
M  V30 5493 H 541.548 -1.2177 1.65412 0
M  V30 5494 H 539.778 -3.70969 1.09172 0
M  V30 5495 H 541.467 -3.76914 1.50635 0
M  V30 5496 H 542.233 -2.94899 3.85045 0
M  V30 5497 H 538.112 -3.63561 2.83451 0
M  V30 5498 H 541.656 -3.1069 6.24594 0
M  V30 5499 H 537.553 -3.79556 5.22118 0
M  V30 5500 H 538.321 -3.71116 7.29531 0
M  V30 5501 N 540.985 -1.06182 -1.16461 0
M  V30 5502 C 542.21 -0.798599 -1.91408 0
M  V30 5503 C 542.635 0.640987 -1.76842 0
M  V30 5504 O 541.993 1.44652 -1.09296 0
M  V30 5505 C 542.041 -1.19665 -3.40165 0
M  V30 5506 O 541.145 -0.334768 -4.11039 0
M  V30 5507 H 540.486 -0.291961 -0.596368 0
M  V30 5508 H 543.016 -1.41732 -1.47557 0
M  V30 5509 H 543.026 -1.16772 -3.90933 0
M  V30 5510 H 541.701 -2.24526 -3.50087 0
M  V30 5511 H 540.278 -0.425168 -3.70468 0
M  V30 5512 N 542.463 1.3308 -0.844243 0
M  V30 5513 C 543.709 1.97898 -0.443206 0
M  V30 5514 C 544.042 1.66699 0.99625 0
M  V30 5515 O 543.317 0.949704 1.69738 0
M  V30 5516 C 543.6 3.53801 -0.670606 0
M  V30 5517 C 543.453 3.94667 -2.15772 0
M  V30 5518 C 544.772 4.39936 -0.120226 0
M  V30 5519 H 541.891 0.718861 -0.162504 0
M  V30 5520 H 544.533 1.57633 -1.06075 0
M  V30 5521 H 542.683 3.88229 -0.14496 0
M  V30 5522 H 544.355 3.70469 -2.74865 0
M  V30 5523 H 542.598 3.44203 -2.6402 0
M  V30 5524 H 543.269 5.03275 -2.26757 0
M  V30 5525 H 545.745 4.12183 -0.5696 0
M  V30 5526 H 544.621 5.4803 -0.308984 0
M  V30 5527 H 544.882 4.31184 0.976347 0
M  V30 5528 N 543.941 0.601185 1.45683 0
M  V30 5529 C 545.357 0.264315 1.57396 0
M  V30 5530 C 545.557 -1.23324 1.59353 0
M  V30 5531 O 544.613 -2.01594 1.52039 0
M  V30 5532 C 545.926 0.929839 2.85962 0
M  V30 5533 C 547.474 0.905156 2.99626 0
M  V30 5534 C 547.949 1.55057 4.30954 0
M  V30 5535 N 549.44 1.51576 4.37697 0
M  V30 5536 C 550.175 1.98436 5.37969 0
M  V30 5537 N 549.671 2.53352 6.44813 0
M  V30 5538 N 551.464 1.89242 5.29286 0
M  V30 5539 H 543.615 1.57363 1.42656 0
M  V30 5540 H 545.878 0.658831 0.681649 0
M  V30 5541 H 545.584 1.98404 2.90394 0
M  V30 5542 H 545.458 0.449224 3.74515 0
M  V30 5543 H 547.845 -0.14048 2.94765 0
M  V30 5544 H 547.926 1.42397 2.12501 0
M  V30 5545 H 547.57 2.5955 4.36573 0
M  V30 5546 H 547.5 1.00682 5.16886 0
M  V30 5547 H 549.991 1.11452 3.61091 0
M  V30 5548 H 550.304 2.86918 7.17564 0
M  V30 5549 H 548.649 2.57388 6.45582 0
M  V30 5550 H 551.84 1.46083 4.44722 0
M  V30 5551 H 552.013 2.26075 6.07284 0
M  V30 5552 N 545.419 -1.53889 0.339982 0
M  V30 5553 C 546.659 -2.02765 -0.258011 0
M  V30 5554 C 547.023 -1.22249 -1.48051 0
M  V30 5555 O 548.224 -1.61007 -2.15245 0
M  V30 5556 C 546.495 -3.5286 -0.567872 0
M  V30 5557 S 548.054 -4.23647 -1.14318 0
M  V30 5558 H 544.872 -0.706814 -0.0770389 0
M  V30 5559 H 547.474 -1.89594 0.476917 0
M  V30 5560 H 546.178 -4.09073 0.329745 0
M  V30 5561 H 545.709 -3.70144 -1.33256 0
M  V30 5562 H 547.724 -4.32676 -2.42911 0
M  V30 5563 N 546.897 -0.0685191 -1.57451 0
M  V30 5564 C 548.122 0.613919 -1.98106 0
M  V30 5565 C 548.547 1.62551 -0.946501 0
M  V30 5566 O 547.905 1.81085 0.0882824 0
M  V30 5567 C 547.953 1.26189 -3.378 0
M  V30 5568 O 547.057 2.37773 -3.36954 0
M  V30 5569 H 546.398 0.158163 -0.644888 0
M  V30 5570 H 548.928 -0.142063 -2.04106 0
M  V30 5571 H 548.938 1.60951 -3.74912 0
M  V30 5572 H 547.613 0.520625 -4.12629 0
M  V30 5573 H 546.19 2.04829 -3.11608 0
M  V30 5574 N 548.375 1.56261 0.205012 0
M  V30 5575 C 549.307 1.90266 1.27795 0
M  V30 5576 C 550.32 0.792397 1.42214 0
M  V30 5577 O 551.509 1.07077 1.42817 0
M  V30 5578 C 548.609 2.11074 2.65143 0
M  V30 5579 C 547.782 3.42176 2.7246 0
M  V30 5580 C 546.841 3.52216 3.90936 0
M  V30 5581 O 545.867 4.25119 3.78501 0
M  V30 5582 N 547.069 2.84573 5.05963 0
M  V30 5583 H 549.834 2.82896 0.989434 0
M  V30 5584 H 547.395 1.57008 0.394981 0
M  V30 5585 H 549.387 2.15089 3.4281 0
M  V30 5586 H 547.957 1.2499 2.86524 0
M  V30 5587 H 547.177 3.50116 1.81142 0
M  V30 5588 H 548.465 4.28509 2.74331 0
M  V30 5589 H 547.863 2.25152 5.18963 0
M  V30 5590 H 546.42 2.94228 5.81613 0
M  V30 5591 N 549.853 -0.472356 1.50355 0
M  V30 5592 C 551.093 -1.23439 1.62918 0
M  V30 5593 C 551.457 -1.89284 0.321801 0
M  V30 5594 O 552.658 -2.66854 0.322852 0
M  V30 5595 C 550.929 -2.25119 2.7759 0
M  V30 5596 S 552.488 -3.10278 3.10279 0
M  V30 5597 H 549.306 -0.41911 0.574341 0
M  V30 5598 H 551.908 -0.531621 1.88133 0
M  V30 5599 H 550.612 -1.75324 3.71066 0
M  V30 5600 H 550.143 -3.00026 2.54457 0
M  V30 5601 H 552.158 -4.26257 2.54007 0
M  V30 5602 N 551.331 -1.39911 -0.725443 0
M  V30 5603 C 552.263 -1.35301 -1.85003 0
M  V30 5604 C 553.276 -0.260102 -1.60709 0
M  V30 5605 O 554.465 -0.519749 -1.70766 0
M  V30 5606 C 551.565 -1.08039 -3.21218 0
M  V30 5607 C 550.738 -2.28793 -3.7279 0
M  V30 5608 C 549.797 -1.97841 -4.87591 0
M  V30 5609 O 548.823 -2.70616 -5.00755 0
M  V30 5610 N 550.025 -0.950367 -5.72668 0
M  V30 5611 H 552.79 -2.32218 -1.89459 0
M  V30 5612 H 550.351 -1.34137 -0.90658 0
M  V30 5613 H 552.343 -0.853354 -3.95601 0
M  V30 5614 H 550.913 -0.198229 -3.11971 0
M  V30 5615 H 550.133 -2.67388 -2.8965 0
M  V30 5616 H 551.421 -3.09317 -4.03981 0
M  V30 5617 H 550.819 -0.347436 -5.64632 0
M  V30 5618 H 549.376 -0.783232 -6.47077 0
M  V30 5619 N 552.809 0.956637 -1.25245 0
M  V30 5620 C 554.057 1.69764 -1.09657 0
M  V30 5621 C 554.378 1.91583 0.363464 0
M  V30 5622 O 553.648 1.50149 1.25825 0
M  V30 5623 H 552.228 0.629097 -0.402798 0
M  V30 5624 H 554.89 1.15026 -1.57337 0
M  V30 5625 H 553.986 2.67769 -1.60331 0
M  V30 5626 N 554.287 1.06798 1.15896 0
M  V30 5627 C 555.515 0.808694 1.90441 0
M  V30 5628 C 555.93 -0.637506 1.77711 0
M  V30 5629 O 555.287 -1.43684 1.12522 0
M  V30 5630 C 555.338 1.20068 3.40978 0
M  V30 5631 O 555.059 2.59013 3.53333 0
M  V30 5632 C 556.56 0.96987 4.3256 0
M  V30 5633 H 553.78 0.292809 0.603742 0
M  V30 5634 H 556.324 1.42296 1.46874 0
M  V30 5635 H 554.479 0.630842 3.82229 0
M  V30 5636 H 554.893 2.7485 4.46719 0
M  V30 5637 H 556.367 1.29371 5.36626 0
M  V30 5638 H 556.844 -0.0941209 4.39099 0
M  V30 5639 H 557.45 1.52433 3.97044 0
M  V30 5640 N 555.766 -1.3263 0.851289 0
M  V30 5641 C 556.729 -2.27247 0.298541 0
M  V30 5642 C 557.729 -1.51467 -0.539847 0
M  V30 5643 O 558.919 -1.7061 -0.351843 0
M  V30 5644 C 556.051 -3.35964 -0.578004 0
M  V30 5645 H 557.244 -2.7765 1.13359 0
M  V30 5646 H 554.797 -1.43245 0.625354 0
M  V30 5647 H 555.532 -2.90823 -1.435 0
M  V30 5648 H 555.317 -3.92094 0.0220539 0
M  V30 5649 H 556.807 -4.06472 -0.957626 0
M  V30 5650 N 557.244 -0.608902 -1.45362 0
M  V30 5651 C 558.176 0.147318 -2.28726 0
M  V30 5652 C 559.189 0.830468 -1.40025 0
M  V30 5653 O 560.378 0.695636 -1.64387 0
M  V30 5654 C 557.478 1.22968 -3.15804 0
M  V30 5655 C 556.651 0.633391 -4.3279 0
M  V30 5656 C 555.71 1.60682 -5.01067 0
M  V30 5657 O 554.736 1.13261 -5.57818 0
M  V30 5658 N 555.938 2.94123 -5.00472 0
M  V30 5659 H 558.703 -0.568014 -2.94268 0
M  V30 5660 H 556.264 -0.448479 -1.55564 0
M  V30 5661 H 558.256 1.88072 -3.58345 0
M  V30 5662 H 556.826 1.84752 -2.52162 0
M  V30 5663 H 556.046 -0.195762 -3.93714 0
M  V30 5664 H 557.334 0.215255 -5.08344 0
M  V30 5665 H 556.732 3.3525 -4.55657 0
M  V30 5666 H 555.289 3.54646 -5.46872 0
M  V30 5667 N 558.722 1.53707 -0.348139 0
M  V30 5668 C 559.999 1.93247 0.302475 0
M  V30 5669 C 560.379 1.28012 1.67857 0
M  V30 5670 O 559.727 0.43274 2.24365 0
M  V30 5671 C 559.937 3.47031 0.370159 0
M  V30 5672 C 561.285 4.20066 0.61882 0
M  V30 5673 O 562.309 3.53319 0.452087 0
M  V30 5674 O 561.168 5.38318 0.94215 0
M  V30 5675 H 558.262 0.807736 0.177458 0
M  V30 5676 H 560.808 1.64927 -0.399651 0
M  V30 5677 H 559.58 3.86745 -0.59534 0
M  V30 5678 H 559.203 3.81532 1.11888 0
M  V30 5679 N 560.2 0.0768682 1.57412 0
M  V30 5680 C 561.448 -0.589918 1.93299 0
M  V30 5681 C 561.769 -1.69842 0.958049 0
M  V30 5682 O 561.039 -1.95899 0.00703261 0
M  V30 5683 H 559.619 -0.220901 0.713591 0
M  V30 5684 H 562.281 0.135917 1.94425 0
M  V30 5685 H 561.377 -1.01195 2.95239 0
M  V30 5686 N 561.678 -1.56367 -0.196722 0
M  V30 5687 C 562.926 -1.80172 -0.915554 0
M  V30 5688 C 563.247 -0.649649 -1.8386 0
M  V30 5689 O 562.517 0.332111 -1.93064 0
M  V30 5690 H 561.097 -0.664592 -0.341067 0
M  V30 5691 H 563.759 -1.93844 -0.202622 0
M  V30 5692 H 562.855 -2.7327 -1.50764 0
M  V30 5693 N 563.156 0.464375 -1.50603 0
M  V30 5694 C 564.567 1.04507 -1.5471 0
M  V30 5695 C 564.918 1.9297 -0.354542 0
M  V30 5696 O 564.043 2.09763 0.531812 0
M  V30 5697 C 564.638 1.90207 -2.80369 0
M  V30 5698 C 563.197 2.43373 -2.87135 0
M  V30 5699 C 562.344 1.21886 -2.49076 0
M  V30 5700 H 565.295 0.246716 -1.56771 0
M  V30 5701 H 565.316 2.75353 -2.62604 0
M  V30 5702 H 564.828 1.25796 -3.67147 0
M  V30 5703 H 562.929 3.11318 -2.04724 0
M  V30 5704 H 563.042 2.7802 -3.90181 0
M  V30 5705 H 561.406 1.55575 -2.01664 0
M  V30 5706 H 562.189 0.591268 -3.3817 0
M  V30 5707 N 564.634 1.40294 0.718013 0
M  V30 5708 C 565.874 1.39888 1.49032 0
M  V30 5709 C 566.238 -0.000462935 1.92 0
M  V30 5710 O 567.439 -0.129622 2.68487 0
M  V30 5711 C 565.71 2.35868 2.68516 0
M  V30 5712 S 567.269 2.53799 3.57954 0
M  V30 5713 H 564.087 0.495849 0.509563 0
M  V30 5714 H 566.689 1.76541 0.839846 0
M  V30 5715 H 565.393 3.36375 2.35117 0
M  V30 5716 H 564.924 2.0049 3.38478 0
M  V30 5717 H 566.939 1.78859 4.62843 0
M  V30 5718 N 566.112 -0.949982 1.2575 0
M  V30 5719 C 567.044 -2.05088 1.02331 0
M  V30 5720 C 568.057 -1.62795 -0.0133247 0
M  V30 5721 O 569.246 -1.77067 0.225759 0
M  V30 5722 C 566.346 -3.34794 0.525924 0
M  V30 5723 C 565.519 -4.05903 1.62978 0
M  V30 5724 C 564.578 -5.1388 1.13196 0
M  V30 5725 O 563.604 -5.39072 1.82729 0
M  V30 5726 N 564.806 -5.80495 -0.0242926 0
M  V30 5727 H 567.571 -2.25747 1.97125 0
M  V30 5728 H 565.132 -1.11886 1.17018 0
M  V30 5729 H 567.124 -4.04312 0.177263 0
M  V30 5730 H 565.694 -3.10872 -0.328202 0
M  V30 5731 H 564.914 -3.3042 2.1498 0
M  V30 5732 H 566.202 -4.50166 2.37124 0
M  V30 5733 H 565.6 -5.62454 -0.605184 0
M  V30 5734 H 564.157 -6.51043 -0.313947 0
M  V30 5735 N 567.59 -1.07411 -1.15328 0
M  V30 5736 C 569.001 -0.820261 -1.67716 0
M  V30 5737 C 569.352 0.654539 -1.8496 0
M  V30 5738 O 568.477 1.50664 -1.55337 0
M  V30 5739 C 569.072 -1.48242 -3.04647 0
M  V30 5740 C 567.631 -1.27606 -3.5411 0
M  V30 5741 C 566.778 -1.5517 -2.29821 0
M  V30 5742 H 569.729 -1.23608 -0.995332 0
M  V30 5743 H 569.75 -0.903984 -3.69606 0
M  V30 5744 H 569.262 -2.55578 -2.92064 0
M  V30 5745 H 567.363 -0.222948 -3.71932 0
M  V30 5746 H 567.476 -1.99667 -4.35511 0
M  V30 5747 H 565.84 -0.972747 -2.35393 0
M  V30 5748 H 566.623 -2.63689 -2.19824 0
M  V30 5749 N 569.068 1.32177 -0.85831 0
M  V30 5750 C 570.308 1.98927 -0.469822 0
M  V30 5751 C 570.672 1.66423 0.95746 0
M  V30 5752 O 571.873 2.26293 1.45069 0
M  V30 5753 C 570.144 3.50352 -0.706288 0
M  V30 5754 S 571.703 4.36824 -0.415918 0
M  V30 5755 H 568.521 0.688909 -0.175855 0
M  V30 5756 H 571.123 1.60807 -1.11181 0
M  V30 5757 H 569.827 3.71497 -1.74407 0
M  V30 5758 H 569.358 3.93367 -0.0508568 0
M  V30 5759 H 571.373 4.90398 0.756581 0
M  V30 5760 N 570.547 0.616602 1.45037 0
M  V30 5761 C 571.795 0.115103 2.01772 0
M  V30 5762 C 572.116 -1.2622 1.48639 0
M  V30 5763 O 571.386 -1.83563 0.684199 0
M  V30 5764 H 569.966 0.0395607 0.745952 0
M  V30 5765 H 572.628 0.800032 1.77723 0
M  V30 5766 H 571.724 0.0717274 3.12018 0
M  V30 5767 N 572.025 -1.5352 0.356285 0
M  V30 5768 C 573.271 -2.01414 -0.236653 0
M  V30 5769 C 573.604 -1.24339 -1.49176 0
M  V30 5770 O 572.879 -0.334496 -1.91602 0
M  V30 5771 C 573.162 -3.56059 -0.537982 0
M  V30 5772 C 573.015 -4.43835 0.730112 0
M  V30 5773 C 574.334 -4.19127 -1.34239 0
M  V30 5774 H 571.453 -0.732135 -0.0845386 0
M  V30 5775 H 574.095 -1.83854 0.479341 0
M  V30 5776 H 572.245 -3.71153 -1.14795 0
M  V30 5777 H 573.917 -4.40555 1.36782 0
M  V30 5778 H 572.16 -4.1218 1.3524 0
M  V30 5779 H 572.831 -5.49958 0.474358 0
M  V30 5780 H 575.307 -4.07809 -0.826498 0
M  V30 5781 H 574.183 -5.27378 -1.52198 0
M  V30 5782 H 574.444 -3.74581 -2.34822 0
M  V30 5783 N 573.503 -0.0852151 -1.57369 0
M  V30 5784 C 574.751 0.579658 -1.93609 0
M  V30 5785 C 575.072 1.69332 -0.967043 0
M  V30 5786 O 574.342 1.95892 -0.0174215 0
M  V30 5787 H 572.922 0.217113 -0.714752 0
M  V30 5788 H 575.584 -0.146226 -1.94351 0
M  V30 5789 H 574.68 0.996276 -2.95771 0
M  V30 5790 N 574.981 1.5647 0.188427 0
M  V30 5791 C 576.227 1.81281 0.909124 0
M  V30 5792 C 576.56 0.66034 1.82628 0
M  V30 5793 O 575.835 -0.338737 1.91528 0
M  V30 5794 C 576.118 3.16388 1.7196 0
M  V30 5795 C 575.971 4.42137 0.826714 0
M  V30 5796 C 577.29 3.48256 2.69083 0
M  V30 5797 H 574.409 0.659457 0.329068 0
M  V30 5798 H 577.051 1.89182 0.176156 0
M  V30 5799 H 575.201 3.09784 2.34448 0
M  V30 5800 H 576.873 4.60794 0.216025 0
M  V30 5801 H 575.116 4.33594 0.133792 0
M  V30 5802 H 575.787 5.33184 1.42893 0
M  V30 5803 H 578.263 3.55203 2.16726 0
M  V30 5804 H 577.139 4.43899 3.2287 0
M  V30 5805 H 577.4 2.72088 3.48455 0
M  V30 5806 N 576.459 -0.456382 1.50847 0
M  V30 5807 C 577.409 -1.55045 1.67168 0
M  V30 5808 C 578.393 -1.52061 0.525958 0
M  V30 5809 O 579.585 -1.58836 0.781036 0
M  V30 5810 C 576.714 -2.93386 1.78268 0
M  V30 5811 C 575.8 -3.01198 2.98564 0
M  V30 5812 N 576.191 -2.78792 4.22029 0
M  V30 5813 C 574.489 -3.32346 2.97426 0
M  V30 5814 C 575.19 -2.91953 5.03128 0
M  V30 5815 N 574.166 -3.22797 4.37382 0
M  V30 5816 H 577.968 -1.36444 2.60308 0
M  V30 5817 H 575.482 -0.663375 1.48233 0
M  V30 5818 H 577.479 -3.72071 1.88067 0
M  V30 5819 H 576.139 -3.13022 0.862965 0
M  V30 5820 H 577.15 -2.54087 4.51287 0
M  V30 5821 H 573.827 -3.57877 2.15012 0
M  V30 5822 H 575.217 -2.78745 6.11351 0
M  V30 5823 N 577.937 -1.40673 -0.710563 0
M  V30 5824 C 579.184 -1.39222 -1.47049 0
M  V30 5825 C 579.512 0.0037691 -1.945 0
M  V30 5826 O 578.767 0.989224 -1.68857 0
M  V30 5827 C 579.066 -2.33253 -2.70791 0
M  V30 5828 C 578.732 -3.80406 -2.42079 0
M  V30 5829 C 577.394 -4.20496 -2.33959 0
M  V30 5830 C 579.746 -4.73375 -2.18094 0
M  V30 5831 C 577.074 -5.51584 -1.99929 0
M  V30 5832 C 579.426 -6.04768 -1.85576 0
M  V30 5833 C 578.09 -6.43895 -1.75941 0
M  V30 5834 H 577.36 -0.509449 -0.538092 0
M  V30 5835 H 580.007 -1.73363 -0.81348 0
M  V30 5836 H 578.312 -1.92314 -3.41354 0
M  V30 5837 H 580.009 -2.29412 -3.28894 0
M  V30 5838 H 576.599 -3.48645 -2.49288 0
M  V30 5839 H 580.783 -4.43217 -2.23321 0
M  V30 5840 H 576.039 -5.80797 -1.91011 0
M  V30 5841 H 580.213 -6.76318 -1.66033 0
M  V30 5842 H 577.84 -7.45387 -1.4934 0
M  V30 5843 N 579.415 0.9433 -1.26252 0
M  V30 5844 C 580.64 1.72898 -1.14547 0
M  V30 5845 C 581.065 1.85761 0.295743 0
M  V30 5846 O 580.423 1.3463 1.21427 0
M  V30 5847 C 580.471 3.11471 -1.8171 0
M  V30 5848 O 579.575 3.97336 -1.10445 0
M  V30 5849 H 578.916 0.530555 -0.399259 0
M  V30 5850 H 581.446 1.18159 -1.67032 0
M  V30 5851 H 581.456 3.61872 -1.88449 0
M  V30 5852 H 580.131 3.01425 -2.86558 0
M  V30 5853 H 578.708 3.55788 -1.11666 0
M  V30 5854 N 580.893 1.08022 1.14757 0
M  V30 5855 C 582.304 0.829144 1.67279 0
M  V30 5856 C 582.655 -0.644721 1.85305 0
M  V30 5857 O 581.78 -1.49838 1.56133 0
M  V30 5858 C 582.375 1.49855 3.03857 0
M  V30 5859 C 580.934 1.29482 3.53428 0
M  V30 5860 C 580.081 1.56386 2.28995 0
M  V30 5861 H 583.032 1.24134 0.988762 0
M  V30 5862 H 583.053 0.923572 3.69121 0
M  V30 5863 H 582.565 2.57123 2.90705 0
M  V30 5864 H 580.666 0.242669 3.71809 0
M  V30 5865 H 580.779 2.01974 4.34446 0
M  V30 5866 H 579.143 0.985217 2.34874 0
M  V30 5867 H 579.926 2.64851 2.18423 0
M  V30 5868 N 582.371 -1.3172 0.865308 0
M  V30 5869 C 583.619 -1.96487 0.472995 0
M  V30 5870 C 583.94 -1.68761 -0.976975 0
M  V30 5871 O 583.21 -1.00051 -1.68424 0
M  V30 5872 H 581.79 -0.726947 0.171922 0
M  V30 5873 H 584.452 -1.60612 1.10407 0
M  V30 5874 H 583.548 -3.0574 0.62687 0
M  V30 5875 N 583.85 -0.624285 -1.44708 0
M  V30 5876 C 584.812 0.0749638 -2.29077 0
M  V30 5877 C 585.812 0.778965 -1.40673 0
M  V30 5878 O 587.003 0.624591 -1.62618 0
M  V30 5879 C 584.135 1.11663 -3.22094 0
M  V30 5880 H 585.327 -0.667013 -2.92388 0
M  V30 5881 H 582.88 -0.384098 -1.51507 0
M  V30 5882 H 583.615 1.88881 -2.63618 0
M  V30 5883 H 583.401 0.61583 -3.87234 0
M  V30 5884 H 584.891 1.60585 -3.8549 0
M  V30 5885 N 585.328 1.53329 -0.364422 0
M  V30 5886 C 586.744 1.59594 -0.0133165 0
M  V30 5887 C 586.944 1.37959 1.46865 0
M  V30 5888 O 586 1.18418 2.2301 0
M  V30 5889 C 587.313 2.97032 -0.468213 0
M  V30 5890 C 588.861 3.10138 -0.422334 0
M  V30 5891 C 589.336 4.49986 -0.853024 0
M  V30 5892 N 590.827 4.56098 -0.808037 0
M  V30 5893 C 591.562 5.62495 -1.11299 0
M  V30 5894 N 591.058 6.7665 -1.48717 0
M  V30 5895 N 592.851 5.52473 -1.03586 0
M  V30 5896 H 585.002 1.65644 -1.32951 0
M  V30 5897 H 587.265 0.77684 -0.543345 0
M  V30 5898 H 586.971 3.18 -1.5023 0
M  V30 5899 H 586.845 3.76918 0.145775 0
M  V30 5900 H 589.232 2.88881 0.602622 0
M  V30 5901 H 589.313 2.32263 -1.0718 0
M  V30 5902 H 588.957 4.7198 -1.87609 0
M  V30 5903 H 588.887 5.26289 -0.180819 0
M  V30 5904 H 591.378 3.74131 -0.532361 0
M  V30 5905 H 591.691 7.53776 -1.70415 0
M  V30 5906 H 590.036 6.78044 -1.52581 0
M  V30 5907 H 593.227 4.6217 -0.742736 0
M  V30 5908 H 593.4 6.35295 -1.27686 0
M  V30 5909 N 586.806 0.0935595 1.57322 0
M  V30 5910 C 588.054 -0.569383 1.93913 0
M  V30 5911 C 588.375 -1.68817 0.976009 0
M  V30 5912 O 587.645 -1.9588 0.0278099 0
M  V30 5913 H 586.225 -0.21332 0.715894 0
M  V30 5914 H 588.887 0.156531 1.9427 0
M  V30 5915 H 587.983 -0.980577 2.96296 0
M  V30 5916 N 588.284 -1.56567 -0.180126 0
M  V30 5917 C 589.214 -1.98753 -1.22553 0
M  V30 5918 C 590.195 -0.86175 -1.46656 0
M  V30 5919 O 591.38 -1.12719 -1.58139 0
M  V30 5920 C 588.51 -2.33988 -2.56645 0
M  V30 5921 C 587.464 -3.49445 -2.47128 0
M  V30 5922 C 586.79 -3.70397 -3.8563 0
M  V30 5923 C 588.09 -4.83171 -1.98352 0
M  V30 5924 H 589.784 -2.86332 -0.874896 0
M  V30 5925 H 587.33 -1.37757 -0.419414 0
M  V30 5926 H 589.283 -2.62097 -3.29974 0
M  V30 5927 H 588.007 -1.43309 -2.93479 0
M  V30 5928 H 586.666 -3.2145 -1.76254 0
M  V30 5929 H 586.314 -2.77023 -4.19842 0
M  V30 5930 H 586.014 -4.48077 -3.80132 0
M  V30 5931 H 587.538 -4.00897 -4.60558 0
M  V30 5932 H 588.952 -5.10213 -2.61449 0
M  V30 5933 H 587.349 -5.64425 -2.03823 0
M  V30 5934 H 588.419 -4.75753 -0.937402 0
M  V30 5935 N 589.762 0.448376 -1.51087 0
M  V30 5936 C 590.99 1.22143 -1.66999 0
M  V30 5937 C 591.405 1.85283 -0.362699 0
M  V30 5938 O 590.762 1.70236 0.65772 0
M  V30 5939 C 590.813 2.31357 -2.7777 0
M  V30 5940 O 590.534 1.70801 -4.03434 0
M  V30 5941 C 592.035 3.21836 -3.04855 0
M  V30 5942 H 589.255 0.368558 -0.560719 0
M  V30 5943 H 591.799 0.532618 -1.97442 0
M  V30 5944 H 589.954 2.95973 -2.49958 0
M  V30 5945 H 590.368 2.42895 -4.64868 0
M  V30 5946 H 591.842 3.94627 -3.85971 0
M  V30 5947 H 592.319 3.81949 -2.16821 0
M  V30 5948 H 592.925 2.62933 -3.34285 0
M  V30 5949 N 591.24 1.41047 0.703093 0
M  V30 5950 C 592.468 1.4334 1.49202 0
M  V30 5951 C 592.883 0.0365596 1.88765 0
M  V30 5952 O 592.24 -0.942419 1.56284 0
M  V30 5953 C 592.291 2.33538 2.75939 0
M  V30 5954 O 592.012 3.67786 2.38045 0
M  V30 5955 C 593.513 2.44555 3.6974 0
M  V30 5956 H 590.733 0.488472 0.460039 0
M  V30 5957 H 593.277 1.85245 0.86629 0
M  V30 5958 H 591.432 1.94962 3.34766 0
M  V30 5959 H 591.846 4.15816 3.19683 0
M  V30 5960 H 593.32 3.11849 4.55471 0
M  V30 5961 H 593.797 1.47447 4.1371 0
M  V30 5962 H 594.403 2.83735 3.16819 0
M  V30 5963 N 592.718 -0.936591 1.26751 0
M  V30 5964 C 594.129 -1.49816 1.1141 0
M  V30 5965 C 594.48 -1.9383 -0.304015 0
M  V30 5966 O 593.605 -1.80346 -1.196 0
M  V30 5967 C 594.2 -2.72271 2.01629 0
M  V30 5968 C 592.759 -3.2468 1.9042 0
M  V30 5969 C 591.906 -1.97444 1.94708 0
M  V30 5970 H 594.857 -0.751604 1.39773 0
M  V30 5971 H 594.878 -3.46741 1.56688 0
M  V30 5972 H 594.39 -2.40205 3.04833 0
M  V30 5973 H 592.491 -3.61525 0.901674 0
M  V30 5974 H 592.604 -3.91476 2.76195 0
M  V30 5975 H 590.968 -2.13545 1.38818 0
M  V30 5976 H 591.751 -1.67703 2.9955 0
M  V30 5977 N 594.196 -1.08629 -1.14182 0
M  V30 5978 C 595.159 -0.722027 -2.1753 0
M  V30 5979 C 596.159 0.244305 -1.58933 0
M  V30 5980 O 597.349 0.0235545 -1.74184 0
M  V30 5981 C 594.481 -0.0663966 -3.40835 0
M  V30 5982 H 595.674 -1.63719 -2.51269 0
M  V30 5983 H 593.227 -0.884442 -1.28869 0
M  V30 5984 H 593.962 0.860389 -3.12678 0
M  V30 5985 H 593.747 -0.761598 -3.84632 0
M  V30 5986 H 595.237 0.173346 -4.1724 0
M  V30 5987 N 595.674 1.31259 -0.872281 0
M  V30 5988 C 596.92 1.96913 -0.485083 0
M  V30 5989 C 597.253 1.68774 0.960667 0
M  V30 5990 O 596.528 0.985495 1.67685 0
M  V30 5991 C 596.811 3.52299 -0.745502 0
M  V30 5992 C 596.664 3.90002 -2.24095 0
M  V30 5993 C 597.983 4.39582 -0.213516 0
M  V30 5994 H 595.102 0.715252 -0.177716 0
M  V30 5995 H 597.744 1.55347 -1.09395 0
M  V30 5996 H 595.894 3.87835 -0.227276 0
M  V30 5997 H 597.566 3.64555 -2.82661 0
M  V30 5998 H 595.809 3.38526 -2.71261 0
M  V30 5999 H 596.48 4.98352 -2.37381 0
M  V30 6000 H 598.956 4.10882 -0.656902 0
M  V30 6001 H 597.832 5.47251 -0.42516 0
M  V30 6002 H 598.093 4.33158 0.884666 0
M  V30 6003 N 597.152 0.631951 1.44375 0
M  V30 6004 C 598.102 -0.0943862 2.27805 0
M  V30 6005 C 599.086 -0.815359 1.38711 0
M  V30 6006 O 600.278 -0.701331 1.62513 0
M  V30 6007 C 597.407 -1.07472 3.26044 0
M  V30 6008 C 596.493 -0.353329 4.22626 0
M  V30 6009 N 596.884 0.618512 5.02004 0
M  V30 6010 C 595.182 -0.597662 4.41977 0
M  V30 6011 C 595.883 1.0448 5.7224 0
M  V30 6012 N 594.859 0.383413 5.42246 0
M  V30 6013 H 598.661 0.651672 2.86584 0
M  V30 6014 H 596.175 0.45752 1.55822 0
M  V30 6015 H 598.172 -1.60969 3.84571 0
M  V30 6016 H 596.832 -1.82107 2.68825 0
M  V30 6017 H 597.843 0.996356 5.08226 0
M  V30 6018 H 594.52 -1.32682 3.95856 0
M  V30 6019 H 595.91 1.84773 6.45994 0
M  V30 6020 N 598.631 -1.53133 0.372548 0
M  V30 6021 C 599.877 -2.01654 -0.215277 0
M  V30 6022 C 600.21 -1.25914 -1.47849 0
M  V30 6023 O 599.485 -0.3548 -1.91237 0
M  V30 6024 C 599.768 -3.56609 -0.500187 0
M  V30 6025 C 599.621 -4.43036 0.777145 0
M  V30 6026 C 600.94 -4.20528 -1.29786 0
M  V30 6027 H 598.059 -0.732991 -0.0767686 0
M  V30 6028 H 600.701 -1.83335 0.498814 0
M  V30 6029 H 598.851 -3.7235 -1.10852 0
M  V30 6030 H 600.523 -4.39079 1.41447 0
M  V30 6031 H 598.766 -4.10723 1.39604 0
M  V30 6032 H 599.437 -5.49424 0.532662 0
M  V30 6033 H 601.913 -4.08663 -0.783198 0
M  V30 6034 H 600.789 -5.28962 -1.46596 0
M  V30 6035 H 601.05 -3.77051 -2.30836 0
M  V30 6036 N 600.109 -0.101901 -1.5727 0
M  V30 6037 C 601.057 0.872034 -2.15635 0
M  V30 6038 C 602.051 1.28742 -1.10099 0
M  V30 6039 O 603.257 1.26116 -1.28432 0
M  V30 6040 H 599.632 0.299269 -0.689886 0
M  V30 6041 H 601.603 0.355137 -2.96279 0
M  V30 6042 C 600.352 2.11886 -2.7568 0
M  V30 6043 H 599.675 1.80813 -3.56576 0
M  V30 6044 H 601.115 2.78077 -3.20077 0
M  V30 6045 C 599.574 2.89739 -1.7191 0
M  V30 6046 O 600.104 3.84522 -1.16213 0
M  V30 6047 N 598.31 2.53407 -1.42245 0
M  V30 6048 H 597.857 1.76398 -1.87727 0
M  V30 6049 H 597.815 3.05795 -0.730529 0
M  V30 6050 N 601.587 1.56661 0.17182 0
M  V30 6051 C 602.835 1.81606 0.886774 0
M  V30 6052 C 603.156 0.678818 1.82803 0
M  V30 6053 O 602.426 -0.301354 1.93568 0
M  V30 6054 H 601.006 0.669934 0.330451 0
M  V30 6055 H 603.668 1.94142 0.171757 0
M  V30 6056 H 602.764 2.75634 1.46398 0
M  V30 6057 N 603.065 -0.440357 1.51323 0
M  V30 6058 C 603.995 -1.54174 1.75364 0
M  V30 6059 C 604.976 -1.59039 0.603375 0
M  V30 6060 O 606.161 -1.74815 0.845774 0
M  V30 6061 C 603.291 -2.92277 1.87593 0
M  V30 6062 C 602.245 -3.02274 3.03009 0
M  V30 6063 C 601.571 -4.42327 3.00418 0
M  V30 6064 C 602.871 -2.76634 4.43024 0
M  V30 6065 H 604.565 -1.34307 2.67585 0
M  V30 6066 H 602.111 -0.644678 1.28763 0
M  V30 6067 H 604.064 -3.69284 2.02995 0
M  V30 6068 H 602.788 -3.13369 0.920179 0
M  V30 6069 H 601.447 -2.27706 2.87307 0
M  V30 6070 H 601.095 -4.60382 2.02626 0
M  V30 6071 H 600.795 -4.49946 3.77918 0
M  V30 6072 H 602.319 -5.21312 3.17909 0
M  V30 6073 H 603.733 -3.43376 4.59093 0
M  V30 6074 H 602.13 -2.95666 5.22208 0
M  V30 6075 H 603.2 -1.72262 4.5327 0
M  V30 6076 N 604.543 -1.41418 -0.695603 0
M  V30 6077 C 605.453 -1.45622 -1.83933 0
M  V30 6078 C 606.469 -0.346825 -1.70508 0
M  V30 6079 O 607.645 -0.59454 -1.92424 0
M  V30 6080 C 604.71 -1.33627 -3.19914 0
M  V30 6081 C 603.771 -2.54882 -3.45447 0
M  V30 6082 C 603.004 -2.43449 -4.7494 0
M  V30 6083 O 603.227 -1.45905 -5.51424 0
M  V30 6084 O 602.161 -3.33206 -5.01256 0
M  V30 6085 H 605.987 -2.42114 -1.83342 0
M  V30 6086 H 603.572 -1.22956 -0.848658 0
M  V30 6087 H 605.454 -1.29221 -4.01098 0
M  V30 6088 H 604.129 -0.402508 -3.21188 0
M  V30 6089 H 603.036 -2.64865 -2.64192 0
M  V30 6090 H 604.369 -3.47087 -3.48987 0
M  V30 6091 N 606.021 0.929856 -1.27246 0
M  V30 6092 C 607.432 1.49223 -1.12203 0
M  V30 6093 C 607.783 1.93989 0.293731 0
M  V30 6094 O 606.908 1.80978 1.18642 0
M  V30 6095 C 607.503 2.71198 -2.0307 0
M  V30 6096 C 606.062 3.23666 -1.92139 0
M  V30 6097 C 605.209 1.96409 -1.95752 0
M  V30 6098 H 608.16 0.744181 -1.4017 0
M  V30 6099 H 608.181 3.45905 -1.58524 0
M  V30 6100 H 607.693 2.38585 -3.06102 0
M  V30 6101 H 605.794 3.61042 -0.920834 0
M  V30 6102 H 605.907 3.90006 -2.78267 0
M  V30 6103 H 604.271 2.12806 -1.39949 0
M  V30 6104 H 605.054 1.66113 -3.00436 0
M  V30 6105 N 607.499 1.09233 1.13605 0
M  V30 6106 C 608.729 0.847677 1.88409 0
M  V30 6107 C 609.137 -0.604524 1.79282 0
M  V30 6108 O 608.48 -1.42773 1.15592 0
M  V30 6109 C 608.542 1.20153 3.38827 0
M  V30 6110 C 608.206 2.65824 3.71735 0
M  V30 6111 C 609.203 3.64072 3.71143 0
M  V30 6112 C 606.888 3.01894 4.01454 0
M  V30 6113 C 608.882 4.96419 3.99808 0
M  V30 6114 C 606.569 4.34433 4.29781 0
M  V30 6115 C 607.567 5.31505 4.28942 0
M  V30 6116 O 607.255 6.61659 4.56576 0
M  V30 6117 H 606.987 0.304813 0.603378 0
M  V30 6118 H 609.541 1.4573 1.44748 0
M  V30 6119 H 607.771 0.534946 3.82982 0
M  V30 6120 H 609.46 0.936349 3.94952 0
M  V30 6121 H 610.226 3.37549 3.4826 0
M  V30 6122 H 606.105 2.26971 4.01255 0
M  V30 6123 H 609.649 5.7218 3.99069 0
M  V30 6124 H 605.546 4.607 4.52135 0
M  V30 6125 H 606.314 6.67102 4.74254 0
M  V30 6126 N 608.977 -1.30795 0.87923 0
M  V30 6127 C 609.94 -2.26563 0.346676 0
M  V30 6128 C 610.94 -1.52578 -0.507597 0
M  V30 6129 O 612.13 -1.71318 -0.315575 0
M  V30 6130 C 609.262 -3.37115 -0.506611 0
M  V30 6131 H 610.455 -2.75183 1.19223 0
M  V30 6132 H 608.008 -1.41886 0.655598 0
M  V30 6133 H 608.743 -2.93802 -1.37299 0
M  V30 6134 H 608.528 -3.91959 0.105218 0
M  V30 6135 H 610.018 -4.08412 -0.871192 0
M  V30 6136 N 610.455 -0.639598 -1.44038 0
M  V30 6137 C 611.403 0.0723409 -2.32487 0
M  V30 6138 C 612.397 0.827129 -1.47834 0
M  V30 6139 O 613.603 0.73907 -1.64127 0
M  V30 6140 H 609.978 0.0421696 -0.750817 0
M  V30 6141 H 611.949 -0.691593 -2.90275 0
M  V30 6142 C 610.698 1.03452 -3.31953 0
M  V30 6143 H 610.021 0.46315 -3.97108 0
M  V30 6144 H 611.461 1.502 -3.96505 0
M  V30 6145 C 609.92 2.12392 -2.61518 0
M  V30 6146 O 610.45 3.2059 -2.42044 0
M  V30 6147 N 608.656 1.88563 -2.21116 0
M  V30 6148 H 608.203 1.00577 -2.37154 0
M  V30 6149 H 608.161 2.61651 -1.74316 0
M  V30 6150 N 611.933 1.52934 -0.380664 0
M  V30 6151 C 613.163 2.05587 0.204302 0
M  V30 6152 C 613.571 1.25288 1.41773 0
M  V30 6153 O 612.914 0.290394 1.8139 0
M  V30 6154 C 612.976 3.53624 0.647324 0
M  V30 6155 C 612.64 4.54765 -0.451465 0
M  V30 6156 C 613.637 5.03226 -1.30614 0
M  V30 6157 C 611.322 4.98508 -0.616025 0
M  V30 6158 C 613.316 5.94046 -2.31058 0
M  V30 6159 C 611.003 5.89131 -1.62381 0
M  V30 6160 C 612.001 6.36792 -2.46952 0
M  V30 6161 O 611.689 7.25626 -3.46009 0
M  V30 6162 H 611.421 0.675013 0.0365198 0
M  V30 6163 H 613.975 1.98125 -0.541827 0
M  V30 6164 H 612.205 3.58676 1.44529 0
M  V30 6165 H 613.894 3.89061 1.15698 0
M  V30 6166 H 614.66 4.70167 -1.19027 0
M  V30 6167 H 610.539 4.60989 0.0324987 0
M  V30 6168 H 614.083 6.3117 -2.97104 0
M  V30 6169 H 609.98 6.21603 -1.7401 0
M  V30 6170 H 610.748 7.43664 -3.41916 0
M  V30 6171 N 613.412 0.11024 1.57214 0
M  V30 6172 C 614.64 -0.557834 1.99238 0
M  V30 6173 C 615.055 -1.60778 0.989734 0
M  V30 6174 O 614.412 -1.82491 -0.0186092 0
M  V30 6175 C 614.463 -1.19189 3.41286 0
M  V30 6176 O 614.184 -0.183919 4.37714 0
M  V30 6177 C 615.685 -1.94413 3.98395 0
M  V30 6178 H 612.905 -0.148392 0.654386 0
M  V30 6179 H 615.449 0.193996 2.03578 0
M  V30 6180 H 613.604 -1.89456 3.37913 0
M  V30 6181 H 614.018 -0.643475 5.20538 0
M  V30 6182 H 615.492 -2.34116 4.99894 0
M  V30 6183 H 615.969 -2.81592 3.3705 0
M  V30 6184 H 616.575 -1.28928 4.05287 0
M  V30 6185 N 614.89 -1.56749 -0.16351 0
M  V30 6186 C 616.137 -1.82434 -0.878866 0
M  V30 6187 C 616.465 -0.688557 -1.81904 0
M  V30 6188 O 615.72 0.323644 -1.93005 0
M  V30 6189 C 616.019 -3.14342 -1.70071 0
M  V30 6190 C 615.685 -4.41647 -0.908775 0
M  V30 6191 C 614.347 -4.76224 -0.690236 0
M  V30 6192 C 616.699 -5.19998 -0.353815 0
M  V30 6193 C 614.027 -5.86624 0.0942374 0
M  V30 6194 C 616.379 -6.3122 0.41761 0
M  V30 6195 C 615.043 -6.64358 0.646879 0
M  V30 6196 H 614.313 -0.667574 -0.3216 0
M  V30 6197 H 616.96 -1.90963 -0.14337 0
M  V30 6198 H 615.265 -3.0119 -2.50583 0
M  V30 6199 H 616.962 -3.31426 -2.25738 0
M  V30 6200 H 613.552 -4.1453 -1.08916 0
M  V30 6201 H 617.736 -4.93673 -0.509975 0
M  V30 6202 H 612.992 -6.10751 0.281529 0
M  V30 6203 H 617.166 -6.91133 0.854849 0
M  V30 6204 H 614.793 -7.49742 1.25662 0
M  V30 6205 N 616.368 0.432326 -1.51554 0
M  V30 6206 C 617.316 1.54572 -1.73811 0
M  V30 6207 C 618.31 1.58246 -0.604539 0
M  V30 6208 O 619.516 1.6193 -0.786041 0
M  V30 6209 H 615.891 0.513626 -0.549265 0
M  V30 6210 H 617.862 1.32977 -2.67132 0
M  V30 6211 C 616.611 2.92181 -1.88483 0
M  V30 6212 H 615.934 2.90088 -2.75116 0
M  V30 6213 H 617.374 3.69439 -2.08065 0
M  V30 6214 C 615.833 3.3065 -0.645909 0
M  V30 6215 O 616.363 4.01216 0.197093 0
M  V30 6216 N 614.569 2.86464 -0.488538 0
M  V30 6217 H 614.116 2.29209 -1.17562 0
M  V30 6218 H 614.074 3.12565 0.339156 0
M  V30 6219 N 617.846 1.41785 0.688094 0
M  V30 6220 C 619.092 1.41753 1.4503 0
M  V30 6221 C 619.425 0.0290745 1.94178 0
M  V30 6222 O 618.7 -0.944456 1.7003 0
M  V30 6223 C 618.983 2.43069 2.65686 0
M  V30 6224 C 618.836 3.91053 2.22256 0
M  V30 6225 C 620.155 2.41543 3.67893 0
M  V30 6226 H 617.274 0.516202 0.526027 0
M  V30 6227 H 619.916 1.73111 0.783105 0
M  V30 6228 H 618.066 2.1646 3.2261 0
M  V30 6229 H 619.738 4.28594 1.70602 0
M  V30 6230 H 617.981 4.05559 1.53963 0
M  V30 6231 H 618.652 4.57501 3.08863 0
M  V30 6232 H 621.128 2.65175 3.20658 0
M  V30 6233 H 620.004 3.14434 4.49914 0
M  V30 6234 H 620.265 1.43666 4.18106 0
M  V30 6235 N 619.324 -0.923095 1.27737 0
M  V30 6236 C 620.234 -2.05765 1.12685 0
M  V30 6237 C 621.25 -1.73911 0.0557197 0
M  V30 6238 O 622.426 -1.99674 0.263137 0
M  V30 6239 C 619.491 -3.37804 0.780363 0
M  V30 6240 C 618.552 -3.83326 1.93286 0
M  V30 6241 C 617.785 -5.09064 1.60281 0
M  V30 6242 O 618.008 -5.6809 0.512828 0
M  V30 6243 O 616.942 -5.50071 2.44347 0
M  V30 6244 H 620.768 -2.21378 2.07907 0
M  V30 6245 H 618.353 -1.04299 1.06968 0
M  V30 6246 H 620.235 -4.17097 0.600668 0
M  V30 6247 H 618.91 -3.23387 -0.142291 0
M  V30 6248 H 617.817 -3.049 2.16764 0
M  V30 6249 H 619.15 -4.02292 2.83588 0
M  V30 6250 N 620.802 -1.09834 -1.13024 0
M  V30 6251 C 621.765 -0.745058 -2.16752 0
M  V30 6252 C 622.765 0.227435 -1.59183 0
M  V30 6253 O 623.955 0.0050786 -1.74199 0
M  V30 6254 C 621.087 -0.102543 -3.40746 0
M  V30 6255 H 622.28 -1.66375 -2.49518 0
M  V30 6256 H 619.833 -0.898061 -1.27924 0
M  V30 6257 H 620.568 0.827177 -3.13573 0
M  V30 6258 H 620.353 -0.80235 -3.83803 0
M  V30 6259 H 621.843 0.129082 -4.174 0
M  V30 6260 N 622.28 1.30327 -0.886154 0
M  V30 6261 C 623.212 2.27079 -0.311072 0
M  V30 6262 C 624.225 1.53758 0.53502 0
M  V30 6263 O 625.414 1.74947 0.354378 0
M  V30 6264 C 622.514 3.33965 0.576228 0
M  V30 6265 C 621.687 4.36735 -0.241064 0
M  V30 6266 C 620.746 5.23028 0.576916 0
M  V30 6267 O 619.772 5.692 -0.000802231 0
M  V30 6268 N 620.974 5.49016 1.88579 0
M  V30 6269 H 623.739 2.77065 -1.14259 0
M  V30 6270 H 621.3 1.43519 -0.749258 0
M  V30 6271 H 623.292 3.88618 1.12953 0
M  V30 6272 H 621.862 2.839 1.30842 0
M  V30 6273 H 621.082 3.81932 -0.975805 0
M  V30 6274 H 622.37 5.02451 -0.801272 0
M  V30 6275 H 621.768 5.13288 2.37806 0
M  V30 6276 H 620.325 6.06539 2.38651 0
M  V30 6277 N 623.758 0.647228 1.43697 0
M  V30 6278 C 624.706 -0.0600105 2.32523 0
M  V30 6279 C 625.7 -0.819277 1.48271 0
M  V30 6280 O 626.906 -0.730356 1.64517 0
M  V30 6281 H 623.281 -0.0381872 0.75103 0
M  V30 6282 H 625.252 0.706978 2.89904 0
M  V30 6283 C 624.001 -1.0169 3.32497 0
M  V30 6284 H 623.324 -0.442083 3.97348 0
M  V30 6285 H 624.764 -1.48095 3.97296 0
M  V30 6286 C 623.223 -2.11002 2.6264 0
M  V30 6287 O 623.753 -3.19302 2.4374 0
M  V30 6288 N 621.959 -1.87388 2.22113 0
M  V30 6289 H 621.506 -0.993174 2.37684 0
M  V30 6290 H 621.464 -2.60723 1.75701 0
M  V30 6291 N 625.236 -1.5273 0.388769 0
M  V30 6292 C 626.484 -2.01174 -0.193208 0
M  V30 6293 C 626.805 -1.27705 -1.47365 0
M  V30 6294 O 626.075 -0.396966 -1.91836 0
M  V30 6295 H 624.655 -0.743287 -0.0743871 0
M  V30 6296 H 627.317 -1.87826 0.520336 0
M  V30 6297 H 626.413 -3.09477 -0.403803 0
M  V30 6298 N 626.714 -0.118576 -1.57153 0
M  V30 6299 C 627.96 0.540326 -1.95469 0
M  V30 6300 C 628.293 1.66356 -1.00196 0
M  V30 6301 O 627.568 1.94461 -0.039104 0
M  V30 6302 C 627.851 1.07342 -3.43729 0
M  V30 6303 C 627.704 -0.0463732 -4.49776 0
M  V30 6304 C 629.023 1.96442 -3.93826 0
M  V30 6305 H 626.142 0.19494 -0.710751 0
M  V30 6306 H 628.784 -0.19405 -1.89006 0
M  V30 6307 H 626.934 1.69925 -3.49368 0
M  V30 6308 H 628.606 -0.681648 -4.56236 0
M  V30 6309 H 626.849 -0.709574 -4.27957 0
M  V30 6310 H 627.52 0.367856 -5.50773 0
M  V30 6311 H 629.996 1.43731 -3.90488 0
M  V30 6312 H 628.872 2.3066 -4.98084 0
M  V30 6313 H 629.133 2.89077 -3.34495 0
M  V30 6314 N 628.193 1.56834 0.155195 0
M  V30 6315 C 629.418 1.87412 0.888337 0
M  V30 6316 C 629.843 0.70671 1.74319 0
M  V30 6317 O 629.201 -0.343892 1.78009 0
M  V30 6318 C 629.249 3.1652 1.72765 0
M  V30 6319 O 628.353 2.99877 2.83103 0
M  V30 6320 H 627.694 0.615983 0.247914 0
M  V30 6321 H 630.224 2.04061 0.148478 0
M  V30 6322 H 630.234 3.48334 2.12433 0
M  V30 6323 H 628.909 4.01094 1.09985 0
M  V30 6324 H 627.486 2.79453 2.46902 0
M  V30 6325 N 629.671 -0.424282 1.51781 0
M  V30 6326 C 630.919 -1.17028 1.64769 0
M  V30 6327 C 631.24 -1.91409 0.372523 0
M  V30 6328 O 630.51 -1.86091 -0.612108 0
M  V30 6329 H 629.09 -0.434992 0.607282 0
M  V30 6330 H 631.752 -0.485169 1.88765 0
M  V30 6331 H 630.848 -1.8927 2.4816 0
M  V30 6332 N 631.149 -1.42148 -0.680565 0
M  V30 6333 C 632.079 -1.4796 -1.80638 0
M  V30 6334 C 633.06 -0.336728 -1.66734 0
M  V30 6335 O 634.245 -0.550247 -1.86242 0
M  V30 6336 C 631.375 -1.37569 -3.18892 0
M  V30 6337 C 630.329 -2.49823 -3.47524 0
M  V30 6338 C 629.655 -2.24491 -4.85291 0
M  V30 6339 C 630.955 -3.92144 -3.44994 0
M  V30 6340 H 632.649 -2.42184 -1.76032 0
M  V30 6341 H 630.195 -1.16566 -0.845481 0
M  V30 6342 H 632.148 -1.40243 -3.97379 0
M  V30 6343 H 630.872 -0.398357 -3.24162 0
M  V30 6344 H 629.531 -2.46455 -2.71395 0
M  V30 6345 H 629.179 -1.25066 -4.87204 0
M  V30 6346 H 628.879 -2.99722 -5.05411 0
M  V30 6347 H 630.403 -2.28906 -5.66069 0
M  V30 6348 H 631.817 -3.97145 -4.13459 0
M  V30 6349 H 630.214 -4.67179 -3.76648 0
M  V30 6350 H 631.284 -4.19225 -2.43676 0
M  V30 6351 N 632.627 0.916307 -1.28225 0
M  V30 6352 C 633.875 1.6619 -1.15002 0
M  V30 6353 C 634.196 1.92642 0.302329 0
M  V30 6354 O 633.466 1.54076 1.20985 0
M  V30 6355 H 632.046 0.615964 -0.422608 0
M  V30 6356 H 634.708 1.09963 -1.60917 0
M  V30 6357 H 633.804 2.62533 -1.68769 0
M  V30 6358 N 634.105 1.10431 1.1244 0
M  V30 6359 C 635.33 0.869089 1.88313 0
M  V30 6360 C 635.755 -0.574912 1.79099 0
M  V30 6361 O 635.113 -1.40496 1.14589 0
M  V30 6362 C 635.161 1.32208 3.3549 0
M  V30 6363 O 634.265 0.487092 4.09513 0
M  V30 6364 H 633.606 0.313894 0.585121 0
M  V30 6365 H 636.136 1.47111 1.42195 0
M  V30 6366 H 636.146 1.31201 3.86329 0
M  V30 6367 H 634.821 2.37364 3.41513 0
M  V30 6368 H 633.398 0.562372 3.68635 0
M  V30 6369 N 635.583 -1.29855 0.893053 0
M  V30 6370 C 636.808 -2.00512 0.530066 0
M  V30 6371 C 637.233 -1.66446 -0.876199 0
M  V30 6372 O 636.591 -0.885446 -1.58207 0
M  V30 6373 C 636.639 -3.53308 0.721505 0
M  V30 6374 O 635.743 -4.11764 -0.228994 0
M  V30 6375 H 635.084 -0.630617 0.207891 0
M  V30 6376 H 637.614 -1.6551 1.20282 0
M  V30 6377 H 637.624 -4.03206 0.623599 0
M  V30 6378 H 636.299 -3.77439 1.74678 0
M  V30 6379 H 634.876 -3.72805 -0.0841034 0
M  V30 6380 N 637.061 -0.65484 -1.43351 0
M  V30 6381 C 638.309 -0.168559 -2.01396 0
M  V30 6382 C 638.63 1.22235 -1.51933 0
M  V30 6383 O 637.9 1.81685 -0.732627 0
M  V30 6384 H 636.48 -0.0593244 -0.744641 0
M  V30 6385 H 639.142 -0.846871 -1.75539 0
M  V30 6386 H 638.238 -0.154428 -3.11718 0
M  V30 6387 N 638.539 1.52521 -0.396863 0
M  V30 6388 C 639.489 2.2348 0.451722 0
M  V30 6389 C 640.473 1.2415 1.0235 0
M  V30 6390 O 641.665 1.4945 0.948348 0
M  V30 6391 C 638.794 3.05067 1.57445 0
M  V30 6392 C 637.88 4.11799 1.01404 0
M  V30 6393 N 638.271 5.05482 0.179234 0
M  V30 6394 C 636.569 4.27064 1.28578 0
M  V30 6395 C 637.27 5.81552 -0.131202 0
M  V30 6396 N 636.246 5.41523 0.474735 0
M  V30 6397 H 640.048 2.93269 -0.192534 0
M  V30 6398 H 637.562 1.61081 -0.206591 0
M  V30 6399 H 639.559 3.54446 2.19485 0
M  V30 6400 H 638.219 2.36816 2.22145 0
M  V30 6401 H 639.23 5.17573 -0.18411 0
M  V30 6402 H 635.907 3.70042 1.93327 0
M  V30 6403 H 637.297 6.67023 -0.808061 0
M  V30 6404 N 640.017 0.126909 1.57088 0
M  V30 6405 C 640.98 -0.806097 2.14557 0
M  V30 6406 C 641.98 -1.18918 1.08236 0
M  V30 6407 O 643.17 -1.11339 1.33975 0
M  V30 6408 C 640.302 -2.09116 2.69227 0
M  V30 6409 H 641.495 -0.306522 2.98329 0
M  V30 6410 H 639.048 -0.122393 1.5582 0
M  V30 6411 H 639.783 -2.63486 1.89065 0
M  V30 6412 H 639.568 -1.82588 3.46993 0
M  V30 6413 H 641.058 -2.75794 3.13572 0
M  V30 6414 N 641.495 -1.56914 -0.146875 0
M  V30 6415 C 642.72 -1.87881 -0.878386 0
M  V30 6416 C 643.145 -0.715945 -1.73942 0
M  V30 6417 O 642.503 0.334447 -1.78189 0
M  V30 6418 C 642.551 -3.17431 -1.71084 0
M  V30 6419 O 641.655 -3.01374 -2.81509 0
M  V30 6420 H 640.996 -0.617289 -0.244644 0
M  V30 6421 H 643.526 -2.04136 -0.137654 0
M  V30 6422 H 643.536 -3.49455 -2.10582 0
M  V30 6423 H 642.211 -4.01671 -1.07856 0
M  V30 6424 H 640.788 -2.80758 -2.45416 0
M  V30 6425 N 642.974 0.416227 -1.52004 0
M  V30 6426 C 644.202 1.18573 -1.69553 0
M  V30 6427 C 644.617 1.84472 -0.401919 0
M  V30 6428 O 643.974 1.71593 0.621463 0
M  V30 6429 C 644.025 2.25413 -2.82615 0
M  V30 6430 O 643.746 1.62205 -4.06966 0
M  V30 6431 C 645.247 3.15297 -3.11613 0
M  V30 6432 H 642.467 0.356582 -0.56841 0
M  V30 6433 H 645.011 0.490618 -1.98528 0
M  V30 6434 H 643.166 2.90604 -2.56179 0
M  V30 6435 H 643.58 2.3298 -4.69916 0
M  V30 6436 H 645.054 3.86351 -3.94255 0
M  V30 6437 H 645.531 3.77264 -2.24874 0
M  V30 6438 H 646.137 2.55783 -3.39787 0
M  V30 6439 N 644.452 1.42507 0.673017 0
M  V30 6440 C 645.677 1.4668 1.46627 0
M  V30 6441 C 646.102 0.080066 1.8793 0
M  V30 6442 O 645.46 -0.921879 1.56112 0
M  V30 6443 C 645.508 2.40091 2.69051 0
M  V30 6444 O 644.612 1.8735 3.67387 0
M  V30 6445 H 643.953 0.496908 0.44043 0
M  V30 6446 H 646.483 1.87215 0.825334 0
M  V30 6447 H 646.493 2.56731 3.17101 0
M  V30 6448 H 645.168 3.4084 2.3833 0
M  V30 6449 H 643.745 1.80274 3.26429 0
M  V30 6450 N 645.93 -0.909495 1.28709 0
M  V30 6451 C 647.176 -1.66151 1.16283 0
M  V30 6452 C 647.509 -1.92067 -0.287069 0
M  V30 6453 O 646.784 -1.52409 -1.20837 0
M  V30 6454 C 647.067 -3.01676 1.9663 0
M  V30 6455 C 646.92 -2.82888 3.49707 0
M  V30 6456 C 648.239 -4.02274 1.78504 0
M  V30 6457 H 645.358 -0.602966 0.423793 0
M  V30 6458 H 648 -1.05418 1.58073 0
M  V30 6459 H 646.15 -3.53515 1.61119 0
M  V30 6460 H 647.822 -2.38026 3.95147 0
M  V30 6461 H 646.065 -2.17862 3.75125 0
M  V30 6462 H 646.736 -3.79147 4.01187 0
M  V30 6463 H 649.212 -3.59511 2.09503 0
M  V30 6464 H 648.088 -4.95056 2.37088 0
M  V30 6465 H 648.349 -4.35903 0.737647 0
M  V30 6466 N 647.408 -1.11026 -1.11852 0
M  V30 6467 C 648.633 -0.879064 -1.87849 0
M  V30 6468 C 649.058 0.565406 -1.79401 0
M  V30 6469 O 648.416 1.39886 -1.15333 0
M  V30 6470 C 648.464 -1.33985 -3.34784 0
M  V30 6471 O 647.568 -0.508803 -4.09249 0
M  V30 6472 H 646.909 -0.316992 -0.583448 0
M  V30 6473 H 649.439 -1.47863 -1.41413 0
M  V30 6474 H 649.449 -1.33248 -3.85628 0
M  V30 6475 H 648.124 -2.39172 -3.40249 0
M  V30 6476 H 646.701 -0.581913 -3.68332 0
M  V30 6477 N 648.886 1.2938 -0.899927 0
M  V30 6478 C 650.135 1.9483 -0.521937 0
M  V30 6479 C 650.448 1.71725 0.936473 0
M  V30 6480 O 651.654 2.31282 1.42199 0
M  V30 6481 C 650.11 3.48911 -0.88255 0
M  V30 6482 C 649.718 3.80815 -2.35974 0
M  V30 6483 C 651.462 4.20595 -0.57448 0
M  V30 6484 C 649.369 5.28142 -2.66121 0
M  V30 6485 H 648.299 0.729285 -0.191468 0
M  V30 6486 H 650.95 1.47103 -1.09695 0
M  V30 6487 H 649.332 3.95293 -0.236459 0
M  V30 6488 H 650.506 3.45291 -3.05141 0
M  V30 6489 H 648.821 3.22271 -2.63686 0
M  V30 6490 H 651.418 5.29031 -0.776556 0
M  V30 6491 H 651.761 4.13442 0.487005 0
M  V30 6492 H 652.294 3.79945 -1.17842 0
M  V30 6493 H 649.033 5.4036 -3.71068 0
M  V30 6494 H 648.553 5.64913 -2.01578 0
M  V30 6495 H 650.232 5.95738 -2.52399 0
M  V30 6496 N 650.364 0.662433 1.43002 0
M  V30 6497 C 651.589 0.186003 2.06564 0
M  V30 6498 C 652.014 -1.14314 1.49379 0
M  V30 6499 O 651.372 -1.70824 0.607346 0
M  V30 6500 C 651.42 0.118269 3.60406 0
M  V30 6501 O 650.524 -0.916859 4.02079 0
M  V30 6502 H 649.865 0.0990981 0.656563 0
M  V30 6503 H 652.395 0.907958 1.8335 0
M  V30 6504 H 652.405 -0.0619981 4.07953 0
M  V30 6505 H 651.08 1.08849 4.01403 0
M  V30 6506 H 649.657 -0.708635 3.66105 0
M  V30 6507 N 651.842 -1.52309 0.404946 0
M  V30 6508 C 652.775 -2.23369 -0.467087 0
M  V30 6509 C 653.753 -1.24034 -1.0514 0
M  V30 6510 O 654.937 -1.53071 -1.10006 0
M  V30 6511 C 652.064 -2.95906 -1.64795 0
M  V30 6512 C 651.11 -4.09637 -1.18743 0
M  V30 6513 S 651.943 -5.35273 -0.156022 0
M  V30 6514 C 653.099 -6.11337 -1.34231 0
M  V30 6515 H 653.332 -2.96987 0.136294 0
M  V30 6516 H 650.865 -1.53236 0.189219 0
M  V30 6517 H 652.823 -3.38304 -2.3251 0
M  V30 6518 H 651.484 -2.21937 -2.22267 0
M  V30 6519 H 650.677 -4.59549 -2.06955 0
M  V30 6520 H 650.279 -3.69333 -0.588981 0
M  V30 6521 H 652.571 -6.38458 -2.26665 0
M  V30 6522 H 653.514 -7.02563 -0.883804 0
M  V30 6523 H 653.922 -5.42338 -1.56621 0
M  V30 6524 N 653.32 -0.135238 -1.57019 0
M  V30 6525 C 654.568 0.51777 -1.95355 0
M  V30 6526 C 654.889 1.6617 -1.02042 0
M  V30 6527 O 654.159 1.95738 -0.0797343 0
M  V30 6528 H 652.739 0.194264 -0.721298 0
M  V30 6529 H 655.401 -0.207983 -1.93787 0
M  V30 6530 H 654.497 0.901675 -2.98791 0
M  V30 6531 N 654.798 1.5699 0.138552 0
M  V30 6532 C 655.748 1.9532 1.17619 0
M  V30 6533 C 656.732 0.825545 1.38107 0
M  V30 6534 O 657.924 1.08908 1.39528 0
M  V30 6535 C 655.053 2.34451 2.50774 0
M  V30 6536 C 654.139 3.53805 2.33844 0
M  V30 6537 N 654.53 4.70088 1.86685 0
M  V30 6538 C 652.828 3.59055 2.64567 0
M  V30 6539 C 653.529 5.52165 1.82998 0
M  V30 6540 N 652.505 4.94108 2.26624 0
M  V30 6541 H 656.307 2.82694 0.803809 0
M  V30 6542 H 653.821 1.5866 0.346519 0
M  V30 6543 H 655.818 2.60119 3.25797 0
M  V30 6544 H 654.478 1.48431 2.88788 0
M  V30 6545 H 655.489 4.93681 1.56523 0
M  V30 6546 H 652.166 2.83596 3.06398 0
M  V30 6547 H 653.556 6.55407 1.47957 0
M  V30 6548 N 656.276 -0.40816 1.52223 0
M  V30 6549 C 657.239 -1.48 1.7501 0
M  V30 6550 C 658.239 -1.48367 0.619996 0
M  V30 6551 O 659.429 -1.49874 0.887881 0
M  V30 6552 C 656.561 -2.87403 1.83336 0
M  V30 6553 H 657.754 -1.29086 2.70697 0
M  V30 6554 H 655.307 -0.638715 1.42654 0
M  V30 6555 H 656.042 -3.11686 0.895677 0
M  V30 6556 H 655.827 -2.8854 2.65494 0
M  V30 6557 H 657.317 -3.65103 2.02705 0
M  V30 6558 N 657.755 -1.42862 -0.66545 0
M  V30 6559 C 658.665 -1.49491 -1.80803 0
M  V30 6560 C 659.681 -0.382914 -1.69734 0
M  V30 6561 O 660.857 -0.635223 -1.9112 0
M  V30 6562 C 657.922 -1.40383 -3.17007 0
M  V30 6563 C 656.983 -2.62152 -3.39963 0
M  V30 6564 C 656.216 -2.53469 -4.69669 0
M  V30 6565 O 656.439 -1.57568 -5.48205 0
M  V30 6566 O 655.373 -3.43763 -4.94075 0
M  V30 6567 H 659.199 -2.45949 -1.78165 0
M  V30 6568 H 656.784 -1.24728 -0.822387 0
M  V30 6569 H 658.666 -1.377 -3.98267 0
M  V30 6570 H 657.341 -0.470546 -3.20262 0
M  V30 6571 H 656.248 -2.70409 -2.58515 0
M  V30 6572 H 657.581 -3.54411 -3.41546 0
M  V30 6573 N 659.233 0.902656 -1.29189 0
M  V30 6574 C 660.458 1.69167 -1.19989 0
M  V30 6575 C 660.883 1.86607 0.236495 0
M  V30 6576 O 660.241 1.38425 1.17082 0
M  V30 6577 C 660.289 3.05532 -1.91527 0
M  V30 6578 O 659.393 3.93621 -1.2303 0
M  V30 6579 H 658.734 0.517584 -0.415936 0
M  V30 6580 H 661.264 1.12785 -1.70706 0
M  V30 6581 H 661.274 3.55693 -1.99866 0
M  V30 6582 H 659.949 2.92156 -2.96003 0
M  V30 6583 H 658.526 3.52055 -1.22928 0
M  V30 6584 N 660.711 1.11618 1.11262 0
M  V30 6585 C 661.641 0.79846 2.19424 0
M  V30 6586 C 662.622 -0.234003 1.68483 0
M  V30 6587 O 663.807 -0.0970704 1.93957 0
M  V30 6588 C 660.937 0.242892 3.4645 0
M  V30 6589 C 659.891 1.20744 4.10615 0
M  V30 6590 C 659.217 0.512494 5.32238 0
M  V30 6591 C 660.517 2.55884 4.55325 0
M  V30 6592 H 662.211 1.70286 2.46258 0
M  V30 6593 H 659.757 0.820195 1.18359 0
M  V30 6594 H 661.71 0.00840447 4.21399 0
M  V30 6595 H 660.434 -0.696811 3.1908 0
M  V30 6596 H 659.093 1.42759 3.37662 0
M  V30 6597 H 658.741 -0.432075 5.01141 0
M  V30 6598 H 658.441 1.15583 5.7612 0
M  V30 6599 H 659.965 0.286842 6.09926 0
M  V30 6600 H 661.379 2.37946 5.21588 0
M  V30 6601 H 659.776 3.16216 5.10027 0
M  V30 6602 H 660.846 3.14968 3.68678 0
M  V30 6603 N 662.189 -1.289 0.906776 0
M  V30 6604 C 663.414 -1.99939 0.551303 0
M  V30 6605 C 663.839 -1.67366 -0.858496 0
M  V30 6606 O 663.197 -0.902176 -1.57259 0
M  V30 6607 C 663.245 -3.52523 0.758937 0
M  V30 6608 O 662.349 -4.11983 -0.185308 0
M  V30 6609 H 661.69 -0.628376 0.214568 0
M  V30 6610 H 664.22 -1.64225 1.2203 0
M  V30 6611 H 664.23 -4.02522 0.666329 0
M  V30 6612 H 662.905 -3.75566 1.78671 0
M  V30 6613 H 661.482 -3.72873 -0.0445577 0
M  V30 6614 N 663.667 -0.670007 -1.42649 0
M  V30 6615 C 664.915 -0.18991 -2.01206 0
M  V30 6616 C 665.236 1.20617 -1.53221 0
M  V30 6617 O 664.506 1.80898 -0.751856 0
M  V30 6618 H 663.086 -0.0672189 -0.743969 0
M  V30 6619 H 665.748 -0.865442 -1.74631 0
M  V30 6620 H 664.844 -0.187481 -3.11536 0
M  V30 6621 N 665.145 1.52092 -0.413018 0
M  V30 6622 C 666.075 2.30021 0.401567 0
M  V30 6623 C 667.056 1.34395 1.04269 0
M  V30 6624 O 668.241 1.63304 1.05097 0
M  V30 6625 C 665.371 3.12447 1.51638 0
M  V30 6626 C 664.325 4.16153 1.00005 0
M  V30 6627 C 663.651 4.86948 2.20875 0
M  V30 6628 C 664.951 5.22275 0.0513757 0
M  V30 6629 H 666.645 2.98365 -0.248704 0
M  V30 6630 H 664.191 1.4349 -0.121052 0
M  V30 6631 H 666.144 3.65733 2.09326 0
M  V30 6632 H 664.868 2.41879 2.19458 0
M  V30 6633 H 663.527 3.63882 0.445549 0
M  V30 6634 H 663.175 4.12905 2.8726 0
M  V30 6635 H 662.875 5.57057 1.86978 0
M  V30 6636 H 664.399 5.43048 2.79162 0
M  V30 6637 H 665.813 5.70778 0.537176 0
M  V30 6638 H 664.21 5.9977 -0.198977 0
M  V30 6639 H 665.28 4.76611 -0.892736 0
M  V30 6640 N 666.623 0.143563 1.56945 0
M  V30 6641 C 667.848 -0.518701 2.00809 0
M  V30 6642 C 668.273 -1.5785 1.02298 0
M  V30 6643 O 667.631 -1.813 -0.0017839 0
M  V30 6644 C 667.679 -1.09929 3.43436 0
M  V30 6645 O 666.783 -2.21425 3.47915 0
M  V30 6646 H 666.124 -0.127215 0.6517 0
M  V30 6647 H 668.654 0.239283 2.03196 0
M  V30 6648 H 668.664 -1.4288 3.82164 0
M  V30 6649 H 667.339 -0.323162 4.14643 0
M  V30 6650 H 665.916 -1.89728 3.21026 0
M  V30 6651 N 668.101 -1.57061 -0.130224 0
M  V30 6652 C 669.031 -2.02552 -1.16168 0
M  V30 6653 C 670.012 -0.907971 -1.4384 0
M  V30 6654 O 671.197 -1.17693 -1.54473 0
M  V30 6655 C 668.327 -2.42035 -2.49071 0
M  V30 6656 C 667.281 -3.5713 -2.35886 0
M  V30 6657 C 666.607 -3.82478 -3.7365 0
M  V30 6658 C 667.907 -4.89236 -1.8288 0
M  V30 6659 H 669.601 -2.8897 -0.783359 0
M  V30 6660 H 667.147 -1.39021 -0.375376 0
M  V30 6661 H 669.1 -2.72462 -3.21469 0
M  V30 6662 H 667.824 -1.52573 -2.88771 0
M  V30 6663 H 666.483 -3.26895 -1.65938 0
M  V30 6664 H 666.131 -2.9024 -4.10816 0
M  V30 6665 H 665.831 -4.59944 -3.65685 0
M  V30 6666 H 667.355 -4.15347 -4.47571 0
M  V30 6667 H 668.769 -5.18272 -2.45085 0
M  V30 6668 H 667.166 -5.70624 -1.85763 0
M  V30 6669 H 668.236 -4.78494 -0.785571 0
M  V30 6670 N 669.579 0.400081 -1.52437 0
M  V30 6671 C 670.995 0.739359 -1.41441 0
M  V30 6672 C 671.195 1.94512 -0.526053 0
M  V30 6673 O 670.251 2.525 0.00472502 0
M  V30 6674 C 671.564 0.984824 -2.84116 0
M  V30 6675 C 673.112 1.08698 -2.93519 0
M  V30 6676 C 673.587 1.36515 -4.37181 0
M  V30 6677 N 675.078 1.43361 -4.40457 0
M  V30 6678 C 675.813 1.66528 -5.48686 0
M  V30 6679 N 675.309 1.87239 -6.67018 0
M  V30 6680 N 677.102 1.68617 -5.36213 0
M  V30 6681 H 669.253 -0.393484 -2.08723 0
M  V30 6682 H 671.516 -0.1138 -0.941145 0
M  V30 6683 H 671.222 0.171096 -3.51284 0
M  V30 6684 H 671.096 1.90253 -3.25705 0
M  V30 6685 H 673.483 1.89129 -2.26526 0
M  V30 6686 H 673.564 0.147432 -2.55375 0
M  V30 6687 H 673.208 0.565982 -5.04737 0
M  V30 6688 H 673.138 2.31737 -4.7287 0
M  V30 6689 H 675.629 1.29108 -3.55161 0
M  V30 6690 H 675.942 2.04392 -7.45281 0
M  V30 6691 H 674.287 1.84486 -6.70067 0
M  V30 6692 H 677.478 1.5198 -4.42741 0
M  V30 6693 H 677.651 1.86332 -6.20632 0
M  V30 6694 N 671.057 1.43213 0.657864 0
M  V30 6695 C 671.987 1.50815 1.78262 0
M  V30 6696 C 672.968 0.363211 1.66177 0
M  V30 6697 O 674.153 0.579806 1.85343 0
M  V30 6698 C 671.283 1.42625 3.16663 0
M  V30 6699 C 670.237 2.5532 3.43505 0
M  V30 6700 C 669.563 2.32184 4.81658 0
M  V30 6701 C 670.863 3.97583 3.38711 0
M  V30 6702 H 672.557 2.44954 1.72157 0
M  V30 6703 H 670.103 1.17896 0.82683 0
M  V30 6704 H 672.056 1.46548 3.95097 0
M  V30 6705 H 670.78 0.449877 3.23487 0
M  V30 6706 H 669.439 2.50742 2.6744 0
M  V30 6707 H 669.087 1.32801 4.85153 0
M  V30 6708 H 668.787 3.07724 5.00579 0
M  V30 6709 H 670.311 2.37883 5.62356 0
M  V30 6710 H 671.725 4.03673 4.07089 0
M  V30 6711 H 670.122 4.73112 3.69168 0
M  V30 6712 H 671.192 4.23049 2.36976 0
M  V30 6713 N 672.536 -0.895792 1.29666 0
M  V30 6714 C 673.782 -1.64908 1.18039 0
M  V30 6715 C 674.115 -1.9236 -0.266682 0
M  V30 6716 O 673.39 -1.53682 -1.19214 0
M  V30 6717 C 673.673 -2.99574 1.99819 0
M  V30 6718 C 673.526 -2.79163 3.52687 0
M  V30 6719 C 674.845 -4.00358 1.82761 0
M  V30 6720 H 671.964 -0.598437 0.430165 0
M  V30 6721 H 674.606 -1.03736 1.59182 0
M  V30 6722 H 672.756 -3.51786 1.64859 0
M  V30 6723 H 674.428 -2.33821 3.9765 0
M  V30 6724 H 672.671 -2.13871 3.77414 0
M  V30 6725 H 673.342 -3.74871 4.05186 0
M  V30 6726 H 675.818 -3.57268 2.13304 0
M  V30 6727 H 674.694 -4.92514 2.42325 0
M  V30 6728 H 674.955 -4.35096 0.783839 0
M  V30 6729 N 674.014 -1.12206 -1.10668 0
M  V30 6730 C 674.961 -0.787716 -2.16942 0
M  V30 6731 C 675.931 0.244442 -1.64291 0
M  V30 6732 O 677.116 0.119558 -1.90425 0
M  V30 6733 C 674.256 -0.24584 -3.44223 0
M  V30 6734 C 673.369 -1.33552 -4.10838 0
M  V30 6735 C 672.504 -0.753337 -5.25831 0
M  V30 6736 C 671.543 -1.82231 -5.84344 0
M  V30 6737 N 670.68 -1.25902 -6.90719 0
M  V30 6738 H 675.52 -1.69809 -2.44885 0
M  V30 6739 H 673.057 -0.847862 -1.20207 0
M  V30 6740 H 675.015 0.0863639 -4.17111 0
M  V30 6741 H 673.645 0.627702 -3.16638 0
M  V30 6742 H 672.697 -1.78454 -3.35944 0
M  V30 6743 H 674.009 -2.14396 -4.50373 0
M  V30 6744 H 673.163 -0.37166 -6.05561 0
M  V30 6745 H 671.902 0.0863297 -4.87624 0
M  V30 6746 H 670.907 -2.2132 -5.03287 0
M  V30 6747 H 672.132 -2.66515 -6.24617 0
M  V30 6748 H 670.078 -0.44114 -6.54515 0
M  V30 6749 H 669.995 -2.00408 -7.28953 0
M  V30 6750 H 671.263 -0.904498 -7.74235 0
M  V30 6751 N 675.492 1.28418 -0.913599 0
M  V30 6752 C 676.439 2.27301 -0.400373 0
M  V30 6753 C 677.409 1.57582 0.52509 0
M  V30 6754 O 678.594 1.85482 0.447318 0
M  V30 6755 C 675.734 3.43284 0.35361 0
M  V30 6756 C 674.847 4.27752 -0.604341 0
M  V30 6757 C 673.982 5.30934 0.168075 0
M  V30 6758 C 673.021 6.07065 -0.783499 0
M  V30 6759 N 672.158 7.02086 -0.0446112 0
M  V30 6760 H 676.998 2.70579 -1.24865 0
M  V30 6761 H 674.535 1.33067 -0.627028 0
M  V30 6762 H 676.493 4.09322 0.806945 0
M  V30 6763 H 675.123 3.00997 1.16623 0
M  V30 6764 H 674.175 3.61759 -1.17621 0
M  V30 6765 H 675.487 4.80682 -1.33216 0
M  V30 6766 H 674.641 6.02855 0.681979 0
M  V30 6767 H 673.38 4.78771 0.928947 0
M  V30 6768 H 672.385 5.33995 -1.30878 0
M  V30 6769 H 673.61 6.61317 -1.54392 0
M  V30 6770 H 671.556 6.52273 0.698272 0
M  V30 6771 H 671.473 7.52637 -0.712258 0
M  V30 6772 H 672.741 7.78205 0.449102 0
M  V30 6773 N 676.97 0.677563 1.42291 0
M  V30 6774 C 677.88 0.000962654 2.346 0
M  V30 6775 C 678.896 -0.785833 1.55244 0
M  V30 6776 O 680.072 -0.727523 1.87801 0
M  V30 6777 C 677.137 -0.936746 3.33805 0
M  V30 6778 C 676.198 -0.144173 4.29058 0
M  V30 6779 C 675.431 -1.03722 5.23524 0
M  V30 6780 O 675.654 -2.27675 5.22992 0
M  V30 6781 O 674.588 -0.496542 5.99848 0
M  V30 6782 H 678.414 0.761397 2.94001 0
M  V30 6783 H 675.999 0.43781 1.42841 0
M  V30 6784 H 677.881 -1.47497 3.94744 0
M  V30 6785 H 676.556 -1.67698 2.76874 0
M  V30 6786 H 675.463 0.438224 3.71524 0
M  V30 6787 H 676.796 0.55701 4.89038 0
M  V30 6788 N 678.448 -1.51871 0.421078 0
M  V30 6789 C 679.859 -1.86644 -0.0457991 0
M  V30 6790 C 680.21 -1.33919 -1.43388 0
M  V30 6791 O 679.335 -0.683316 -2.05328 0
M  V30 6792 C 679.93 -3.38681 -0.0898844 0
M  V30 6793 C 678.489 -3.73049 -0.501127 0
M  V30 6794 C 677.636 -2.75485 0.316723 0
M  V30 6795 H 680.587 -1.45327 0.637635 0
M  V30 6796 H 680.608 -3.69636 -0.902734 0
M  V30 6797 H 680.12 -3.77025 0.920513 0
M  V30 6798 H 678.221 -3.40288 -1.51773 0
M  V30 6799 H 678.334 -4.78512 -0.237217 0
M  V30 6800 H 676.698 -2.53725 -0.222663 0
M  V30 6801 H 677.481 -3.16671 1.32569 0
M  V30 6802 N 679.926 -0.151884 -1.56866 0
M  V30 6803 C 681.342 0.204486 -1.58285 0
M  V30 6804 C 681.542 1.6431 -1.16639 0
M  V30 6805 O 680.598 2.37077 -0.868946 0
M  V30 6806 C 681.911 -0.0587019 -3.00643 0
M  V30 6807 C 683.459 0.00462303 -3.13 0
M  V30 6808 C 683.934 -0.231297 -4.57416 0
M  V30 6809 N 685.425 -0.178394 -4.62856 0
M  V30 6810 C 686.16 -0.335379 -5.72418 0
M  V30 6811 N 685.656 -0.550355 -6.90611 0
M  V30 6812 N 687.449 -0.272641 -5.61438 0
M  V30 6813 H 679.6 -1.09116 -1.82229 0
M  V30 6814 H 681.863 -0.432311 -0.843689 0
M  V30 6815 H 681.569 -1.05453 -3.35518 0
M  V30 6816 H 681.443 0.658508 -3.71407 0
M  V30 6817 H 683.83 0.991009 -2.77962 0
M  V30 6818 H 683.911 -0.744992 -2.44711 0
M  V30 6819 H 683.555 -1.2148 -4.93158 0
M  V30 6820 H 683.485 0.5387 -5.23837 0
M  V30 6821 H 685.976 -0.0170923 -3.77896 0
M  V30 6822 H 686.289 -0.660116 -7.69976 0
M  V30 6823 H 684.634 -0.586736 -6.92519 0
M  V30 6824 H 687.825 -0.105421 -4.67981 0
M  V30 6825 H 687.998 -0.398418 -6.46774 0
M  V30 6826 N 681.404 1.57128 0.121893 0
M  V30 6827 C 682.336 1.96773 1.17529 0
M  V30 6828 C 683.349 0.866668 1.37814 0
M  V30 6829 O 684.538 1.14497 1.3694 0
M  V30 6830 C 681.638 2.24832 2.53582 0
M  V30 6831 C 680.811 3.56138 2.53939 0
M  V30 6832 C 679.87 3.72443 3.71716 0
M  V30 6833 O 678.896 4.44584 3.55434 0
M  V30 6834 N 680.098 3.10993 4.90167 0
M  V30 6835 H 682.863 2.87743 0.838086 0
M  V30 6836 H 680.424 1.58881 0.311199 0
M  V30 6837 H 682.416 2.32958 3.30927 0
M  V30 6838 H 680.986 1.40002 2.79496 0
M  V30 6839 H 680.206 3.59226 1.62329 0
M  V30 6840 H 681.494 4.42448 2.51231 0
M  V30 6841 H 680.892 2.52345 5.06299 0
M  V30 6842 H 679.449 3.24644 5.65198 0
M  V30 6843 N 682.882 -0.391992 1.52647 0
M  V30 6844 C 683.812 -1.48517 1.8018 0
M  V30 6845 C 684.793 -1.57039 0.653667 0
M  V30 6846 O 685.978 -1.72036 0.900962 0
M  V30 6847 C 683.108 -2.86161 1.96797 0
M  V30 6848 C 682.062 -2.92481 3.12472 0
M  V30 6849 C 681.388 -4.32546 3.14338 0
M  V30 6850 C 682.688 -2.624 4.51601 0
M  V30 6851 H 684.382 -1.25726 2.71723 0
M  V30 6852 H 681.928 -0.603387 1.30749 0
M  V30 6853 H 683.881 -3.62639 2.14641 0
M  V30 6854 H 682.605 -3.10283 1.01941 0
M  V30 6855 H 681.264 -2.18451 2.94406 0
M  V30 6856 H 680.912 -4.53703 2.1717 0
M  V30 6857 H 680.612 -4.37695 3.92042 0
M  V30 6858 H 682.136 -5.10934 3.34333 0
M  V30 6859 H 683.55 -3.28596 4.69785 0
M  V30 6860 H 681.947 -2.78903 5.3135 0
M  V30 6861 H 683.017 -1.57754 4.58521 0
M  V30 6862 N 684.36 -1.4356 -0.65026 0
M  V30 6863 C 685.27 -1.514 -1.79207 0
M  V30 6864 C 686.286 -0.400895 -1.69319 0
M  V30 6865 O 687.462 -0.655458 -1.90436 0
M  V30 6866 C 684.527 -1.43737 -3.155 0
M  V30 6867 C 683.588 -2.65743 -3.37163 0
M  V30 6868 C 682.821 -2.58436 -4.66954 0
M  V30 6869 O 683.044 -1.63374 -5.46503 0
M  V30 6870 O 681.978 -3.48984 -4.90402 0
M  V30 6871 H 685.804 -2.47825 -1.75547 0
M  V30 6872 H 683.389 -1.25594 -0.809111 0
M  V30 6873 H 685.271 -1.41916 -3.96784 0
M  V30 6874 H 683.946 -0.504488 -3.19745 0
M  V30 6875 H 682.853 -2.73136 -2.55632 0
M  V30 6876 H 684.186 -3.58014 -3.37768 0
M  V30 6877 N 685.838 0.888903 -1.30139 0
M  V30 6878 C 686.768 2.01046 -1.18755 0
M  V30 6879 C 687.749 1.69916 -0.0791438 0
M  V30 6880 O 688.934 1.92445 -0.260498 0
M  V30 6881 C 686.064 3.36109 -0.874518 0
M  V30 6882 C 685.018 3.81486 -1.94043 0
M  V30 6883 C 684.344 5.13796 -1.48047 0
M  V30 6884 C 685.644 4.00637 -3.35093 0
M  V30 6885 H 687.338 2.10828 -2.12584 0
M  V30 6886 H 684.884 1.01298 -1.02346 0
M  V30 6887 H 686.837 4.14089 -0.781548 0
M  V30 6888 H 685.561 3.26449 0.0994519 0
M  V30 6889 H 684.22 3.05731 -2.02297 0
M  V30 6890 H 683.868 5.0056 -0.494878 0
M  V30 6891 H 683.568 5.45127 -2.19341 0
M  V30 6892 H 685.092 5.94305 -1.40121 0
M  V30 6893 H 686.506 4.69067 -3.2962 0
M  V30 6894 H 684.903 4.43339 -4.04438 0
M  V30 6895 H 685.973 3.0462 -3.77273 0
M  V30 6896 N 687.317 1.12792 1.10072 0
M  V30 6897 C 688.545 0.908506 1.85886 0
M  V30 6898 C 688.96 -0.542408 1.80841 0
M  V30 6899 O 688.317 -1.37517 1.1998 0
M  V30 6900 C 688.368 1.37973 3.34134 0
M  V30 6901 O 688.089 2.77378 3.39106 0
M  V30 6902 C 689.59 1.1978 4.26811 0
M  V30 6903 H 686.81 0.3244 0.587372 0
M  V30 6904 H 689.354 1.49882 1.39125 0
M  V30 6905 H 687.509 0.832566 3.78348 0
M  V30 6906 H 687.923 2.98144 4.31521 0
M  V30 6907 H 689.397 1.57635 5.29014 0
M  V30 6908 H 689.874 0.138768 4.38981 0
M  V30 6909 H 690.48 1.73266 3.88406 0
M  V30 6910 N 688.795 -1.27931 0.920396 0
M  V30 6911 C 690.041 -1.95329 0.5673 0
M  V30 6912 C 690.396 -1.7107 -0.880506 0
M  V30 6913 O 689.689 -1.02497 -1.61879 0
M  V30 6914 C 689.883 -3.47853 0.820558 0
M  V30 6915 C 689.712 -3.86941 2.29143 0
M  V30 6916 C 688.482 -4.10766 2.94278 0
M  V30 6917 C 690.68 -3.97091 3.26838 0
M  V30 6918 N 688.662 -4.36578 4.31594 0
M  V30 6919 C 690.033 -4.27194 4.49339 0
M  V30 6920 C 692.088 -3.79639 3.22147 0
M  V30 6921 C 690.791 -4.41662 5.67739 0
M  V30 6922 C 692.817 -3.95328 4.39852 0
M  V30 6923 C 692.179 -4.2581 5.61128 0
M  V30 6924 H 688.278 -0.73836 0.257583 0
M  V30 6925 H 690.862 -1.54447 1.1855 0
M  V30 6926 H 689.033 -3.87709 0.231571 0
M  V30 6927 H 690.765 -4.024 0.430824 0
M  V30 6928 H 687.52 -4.05318 2.44979 0
M  V30 6929 H 687.944 -4.53555 5.0261 0
M  V30 6930 H 692.586 -3.55119 2.29457 0
M  V30 6931 H 690.304 -4.65011 6.60901 0
M  V30 6932 H 693.89 -3.83253 4.37731 0
M  V30 6933 H 692.77 -4.37691 6.50689 0
M  V30 6934 N 690.273 -0.685099 -1.4193 0
M  V30 6935 C 691.236 -0.0222632 -2.29189 0
M  V30 6936 C 692.236 0.7186 -1.4385 0
M  V30 6937 O 693.426 0.555058 -1.6512 0
M  V30 6938 C 690.558 0.979013 -3.2654 0
M  V30 6939 H 691.751 -0.790424 -2.89296 0
M  V30 6940 H 689.304 -0.448012 -1.49742 0
M  V30 6941 H 690.039 1.77531 -2.71392 0
M  V30 6942 H 689.824 0.451037 -3.89497 0
M  V30 6943 H 691.314 1.44091 -3.91954 0
M  V30 6944 N 691.751 1.51645 -0.429126 0
M  V30 6945 C 692.999 2.01616 0.139802 0
M  V30 6946 C 693.32 1.31568 1.43927 0
M  V30 6947 O 692.59 0.447688 1.90716 0
M  V30 6948 H 691.17 0.744998 0.054654 0
M  V30 6949 H 693.832 1.8638 -0.569952 0
M  V30 6950 H 692.928 3.10439 0.321609 0
M  V30 6951 N 693.229 0.160201 1.56784 0
M  V30 6952 C 694.454 -0.497373 2.01348 0
M  V30 6953 C 694.879 -1.56757 1.03966 0
M  V30 6954 O 694.237 -1.81292 0.0174455 0
M  V30 6955 C 694.285 -1.0628 3.44582 0
M  V30 6956 O 693.389 -2.17723 3.50244 0
M  V30 6957 H 692.73 -0.120295 0.653012 0
M  V30 6958 H 695.26 0.260821 2.02931 0
M  V30 6959 H 695.27 -1.38819 3.83658 0
M  V30 6960 H 693.945 -0.279166 4.14962 0
M  V30 6961 H 692.522 -1.86313 3.2302 0
M  V30 6962 N 694.707 -1.5719 -0.113559 0
M  V30 6963 C 696.123 -1.52607 -0.467253 0
M  V30 6964 C 696.323 -0.874058 -1.81556 0
M  V30 6965 O 695.379 -0.458703 -2.48299 0
M  V30 6966 C 696.692 -2.97363 -0.446736 0
M  V30 6967 C 698.24 -3.08482 -0.529903 0
M  V30 6968 C 698.715 -4.54809 -0.539721 0
M  V30 6969 N 700.206 -4.59284 -0.601005 0
M  V30 6970 C 700.941 -5.69927 -0.630138 0
M  V30 6971 N 700.437 -6.90051 -0.616589 0
M  V30 6972 N 702.23 -5.5805 -0.673558 0
M  V30 6973 H 694.381 -1.97958 0.769819 0
M  V30 6974 H 696.644 -0.90428 0.284572 0
M  V30 6975 H 696.35 -3.48458 0.47643 0
M  V30 6976 H 696.224 -3.55086 -1.27254 0
M  V30 6977 H 698.611 -2.57386 -1.44349 0
M  V30 6978 H 698.692 -2.53744 0.323695 0
M  V30 6979 H 698.336 -5.06552 0.369843 0
M  V30 6980 H 698.266 -5.07364 -1.41028 0
M  V30 6981 H 700.757 -3.72822 -0.617419 0
M  V30 6982 H 701.07 -7.70132 -0.641592 0
M  V30 6983 H 699.415 -6.92543 -0.583927 0
M  V30 6984 H 702.606 -4.63112 -0.681544 0
M  V30 6985 H 702.779 -6.44286 -0.692794 0
M  V30 6986 N 696.185 0.383891 -1.52853 0
M  V30 6987 C 697.596 0.961591 -1.60032 0
M  V30 6988 C 697.947 1.90819 -0.456333 0
M  V30 6989 O 697.072 2.12288 0.419873 0
M  V30 6990 C 697.667 1.75078 -2.90057 0
M  V30 6991 C 696.226 2.2781 -2.99632 0
M  V30 6992 C 695.373 1.08512 -2.55187 0
M  V30 6993 H 698.324 0.163269 -1.57858 0
M  V30 6994 H 698.345 2.61046 -2.7683 0
M  V30 6995 H 697.857 1.06157 -3.73299 0
M  V30 6996 H 695.958 3.00028 -2.20939 0
M  V30 6997 H 696.071 2.56947 -4.0437 0
M  V30 6998 H 694.435 1.44667 -2.09627 0
M  V30 6999 H 695.218 0.41118 -3.40829 0
M  V30 7000 N 697.663 1.43903 0.642637 0
M  V30 7001 C 699.079 1.27536 0.959519 0
M  V30 7002 C 699.279 0.202751 2.00477 0
M  V30 7003 O 698.335 -0.415256 2.49062 0
M  V30 7004 C 699.648 2.6432 1.43372 0
M  V30 7005 C 701.196 2.71937 1.54981 0
M  V30 7006 C 701.671 4.09164 2.05789 0
M  V30 7007 N 703.162 4.11282 2.13076 0
M  V30 7008 C 703.897 5.14303 2.53534 0
M  V30 7009 N 703.393 6.27693 2.93212 0
M  V30 7010 N 705.186 5.01657 2.53567 0
M  V30 7011 H 697.337 2.12344 -0.0488376 0
M  V30 7012 H 699.6 0.947124 0.0407559 0
M  V30 7013 H 699.306 3.43826 0.740048 0
M  V30 7014 H 699.18 2.90432 2.40685 0
M  V30 7015 H 701.567 1.92757 2.23448 0
M  V30 7016 H 701.648 2.49578 0.560739 0
M  V30 7017 H 701.292 4.88815 1.37921 0
M  V30 7018 H 701.222 4.28893 3.05546 0
M  V30 7019 H 703.713 3.2944 1.85143 0
M  V30 7020 H 704.026 7.02125 3.22863 0
M  V30 7021 H 702.371 6.31149 2.90991 0
M  V30 7022 H 705.562 4.12134 2.21952 0
M  V30 7023 H 705.735 5.82072 2.84774 0
M  V30 7024 N 699.141 -0.881989 1.30609 0
M  V30 7025 C 700.366 -1.67236 1.22665 0
M  V30 7026 C 700.791 -1.8696 -0.206777 0
M  V30 7027 O 700.149 -1.4027 -1.14865 0
M  V30 7028 C 700.197 -3.02446 1.96363 0
M  V30 7029 O 699.301 -3.91614 1.29276 0
M  V30 7030 H 698.642 -0.510902 0.424117 0
M  V30 7031 H 701.172 -1.10055 1.72479 0
M  V30 7032 H 701.182 -3.52468 2.055 0
M  V30 7033 H 699.857 -2.8741 3.00613 0
M  V30 7034 H 698.434 -3.50055 1.28514 0
M  V30 7035 N 700.619 -1.13374 -1.09472 0
M  V30 7036 C 702.03 -0.90801 -1.63132 0
M  V30 7037 C 702.381 0.555576 -1.8817 0
M  V30 7038 O 701.506 1.42218 -1.63104 0
M  V30 7039 C 702.101 -1.64182 -2.96361 0
M  V30 7040 C 700.66 -1.46197 -3.46848 0
M  V30 7041 C 699.807 -1.67134 -2.21273 0
M  V30 7042 H 702.758 -1.2871 -0.928411 0
M  V30 7043 H 702.779 -1.09863 -3.64294 0
M  V30 7044 H 702.291 -2.707 -2.78106 0
M  V30 7045 H 700.392 -0.419788 -3.70228 0
M  V30 7046 H 700.505 -2.22472 -4.24315 0
M  V30 7047 H 698.869 -1.09616 -2.29905 0
M  V30 7048 H 699.652 -2.74971 -2.05538 0
M  V30 7049 N 702.098 1.27442 -0.927168 0
M  V30 7050 C 703.346 1.94007 -0.566203 0
M  V30 7051 C 703.667 1.7323 0.895345 0
M  V30 7052 O 702.937 1.07973 1.63459 0
M  V30 7053 H 701.517 0.717917 -0.206409 0
M  V30 7054 H 704.179 1.55161 -1.17945 0
M  V30 7055 H 703.275 3.02401 -0.772028 0
M  V30 7056 N 703.576 0.692616 1.41565 0
M  V30 7057 C 704.539 0.0344174 2.29174 0
M  V30 7058 C 705.539 -0.710961 1.44229 0
M  V30 7059 O 706.729 -0.546293 1.65412 0
M  V30 7060 C 703.861 -0.961682 3.27054 0
M  V30 7061 H 705.054 0.805755 2.88873 0
M  V30 7062 H 702.607 0.455947 1.49502 0
M  V30 7063 H 703.342 -1.76089 2.72329 0
M  V30 7064 H 703.127 -0.430375 3.89731 0
M  V30 7065 H 704.617 -1.4201 3.92712 0
M  V30 7066 N 705.054 -1.51416 0.437162 0
M  V30 7067 C 706.002 -2.29328 -0.388765 0
M  V30 7068 C 706.996 -1.35171 -1.02104 0
M  V30 7069 O 708.202 -1.52513 -0.956024 0
M  V30 7070 H 704.577 -0.738048 -0.144183 0
M  V30 7071 H 706.548 -2.96995 0.289212 0
M  V30 7072 C 705.297 -3.14741 -1.47761 0
M  V30 7073 H 704.62 -3.8708 -1.00045 0
M  V30 7074 H 706.06 -3.72313 -2.02877 0
M  V30 7075 C 704.519 -2.30105 -2.46076 0
M  V30 7076 O 705.049 -1.96055 -3.50607 0
M  V30 7077 N 703.255 -1.93331 -2.1696 0
M  V30 7078 H 702.802 -2.2122 -1.31983 0
M  V30 7079 H 702.76 -1.36999 -2.82982 0
M  V30 7080 N 706.532 -0.168513 -1.56696 0
M  V30 7081 C 707.462 0.758563 -2.20835 0
M  V30 7082 C 708.443 1.24121 -1.1631 0
M  V30 7083 O 709.628 1.29487 -1.4473 0
M  V30 7084 C 706.758 1.9892 -2.8469 0
M  V30 7085 C 705.712 1.64252 -3.95228 0
M  V30 7086 C 705.038 2.94757 -4.46119 0
M  V30 7087 C 706.338 0.872675 -5.14958 0
M  V30 7088 H 708.032 0.223953 -2.98561 0
M  V30 7089 H 705.578 0.106277 -1.43607 0
M  V30 7090 H 707.531 2.64275 -3.28233 0
M  V30 7091 H 706.255 2.5479 -2.04327 0
M  V30 7092 H 704.914 1.01266 -3.52336 0
M  V30 7093 H 704.562 3.48662 -3.62552 0
M  V30 7094 H 704.262 2.72316 -5.2069 0
M  V30 7095 H 705.786 3.61147 -4.92347 0
M  V30 7096 H 707.2 1.42875 -5.55211 0
M  V30 7097 H 705.597 0.747402 -5.95428 0
M  V30 7098 H 706.667 -0.131535 -4.84722 0
M  V30 7099 N 708.01 1.57248 0.105221 0
M  V30 7100 C 709.238 1.89768 0.82437 0
M  V30 7101 C 709.653 0.761192 1.72775 0
M  V30 7102 O 709.01 -0.267342 1.80531 0
M  V30 7103 C 709.061 3.2184 1.64625 0
M  V30 7104 O 708.782 4.31115 0.779217 0
M  V30 7105 C 710.283 3.68155 2.46935 0
M  V30 7106 H 707.503 0.628031 0.236259 0
M  V30 7107 H 710.047 2.04321 0.085485 0
M  V30 7108 H 708.202 3.08915 2.33775 0
M  V30 7109 H 708.616 5.06897 1.34745 0
M  V30 7110 H 710.09 4.6329 3.00111 0
M  V30 7111 H 710.567 2.95492 3.24932 0
M  V30 7112 H 711.173 3.83914 1.83002 0
M  V30 7113 N 709.488 -0.375779 1.53054 0
M  V30 7114 C 710.718 -1.1387 1.72386 0
M  V30 7115 C 711.126 -1.8382 0.447966 0
M  V30 7116 O 710.469 -1.74027 -0.588244 0
M  V30 7117 C 710.531 -2.22047 2.82728 0
M  V30 7118 C 710.195 -1.71951 4.23417 0
M  V30 7119 C 711.192 -1.18909 5.06119 0
M  V30 7120 C 708.877 -1.77773 4.69789 0
M  V30 7121 C 710.871 -0.723529 6.3328 0
M  V30 7122 C 708.558 -1.30829 5.96931 0
M  V30 7123 C 709.556 -0.782077 6.78508 0
M  V30 7124 O 709.244 -0.319529 8.03265 0
M  V30 7125 H 708.976 -0.346835 0.580242 0
M  V30 7126 H 711.53 -0.443748 2.00549 0
M  V30 7127 H 709.76 -2.95006 2.50017 0
M  V30 7128 H 711.449 -2.83654 2.90336 0
M  V30 7129 H 712.215 -1.13758 4.7147 0
M  V30 7130 H 708.094 -2.17673 4.06373 0
M  V30 7131 H 711.638 -0.312126 6.96901 0
M  V30 7132 H 707.535 -1.3567 6.31081 0
M  V30 7133 H 708.303 -0.439796 8.17318 0
M  V30 7134 N 710.966 -1.44241 -0.634997 0
M  V30 7135 C 711.876 -1.53293 -1.77591 0
M  V30 7136 C 712.892 -0.418831 -1.68884 0
M  V30 7137 O 714.068 -0.675619 -1.8973 0
M  V30 7138 C 711.133 -1.47075 -3.13958 0
M  V30 7139 C 710.194 -2.69304 -3.34326 0
M  V30 7140 C 709.427 -2.63374 -4.64187 0
M  V30 7141 O 709.65 -1.69161 -5.44739 0
M  V30 7142 O 708.584 -3.54166 -4.86673 0
M  V30 7143 H 712.41 -2.49673 -1.72908 0
M  V30 7144 H 709.995 -1.26445 -0.795745 0
M  V30 7145 H 711.877 -1.46117 -3.95257 0
M  V30 7146 H 710.552 -0.538373 -3.19192 0
M  V30 7147 H 709.459 -2.75831 -2.52721 0
M  V30 7148 H 710.792 -3.61576 -3.33951 0
M  V30 7149 N 712.444 0.87505 -1.31075 0
M  V30 7150 C 713.374 1.99775 -1.20881 0
M  V30 7151 C 714.355 1.69822 -0.0971612 0
M  V30 7152 O 715.54 1.92158 -0.280895 0
M  V30 7153 C 712.67 3.35163 -0.910118 0
M  V30 7154 C 711.624 3.79406 -1.98078 0
M  V30 7155 C 710.95 5.12197 -1.53488 0
M  V30 7156 C 712.25 3.97061 -3.39323 0
M  V30 7157 H 713.944 2.08562 -2.14808 0
M  V30 7158 H 711.49 1.00207 -1.03415 0
M  V30 7159 H 713.443 4.13237 -0.825423 0
M  V30 7160 H 712.167 3.26536 0.064822 0
M  V30 7161 H 710.826 3.03568 -2.05528 0
M  V30 7162 H 710.474 5.00007 -0.547941 0
M  V30 7163 H 710.174 5.4277 -2.2511 0
M  V30 7164 H 711.698 5.92785 -1.46417 0
M  V30 7165 H 713.112 4.65545 -3.34576 0
M  V30 7166 H 711.509 4.39025 -4.09118 0
M  V30 7167 H 712.579 3.00601 -3.80483 0
M  V30 7168 N 713.922 1.13953 1.08869 0
M  V30 7169 C 714.872 0.790812 2.13846 0
M  V30 7170 C 715.856 -0.217819 1.59419 0
M  V30 7171 O 717.048 -0.0208723 1.76988 0
M  V30 7172 C 714.177 0.26479 3.42277 0
M  V30 7173 C 713.263 1.30267 4.03598 0
M  V30 7174 N 713.654 2.50535 4.39393 0
M  V30 7175 C 711.952 1.15178 4.30871 0
M  V30 7176 C 712.653 3.16938 4.87776 0
M  V30 7177 N 711.629 2.44349 4.85587 0
M  V30 7178 H 715.431 1.70577 2.39334 0
M  V30 7179 H 712.945 1.02268 1.26154 0
M  V30 7180 H 714.942 -0.00330398 4.169 0
M  V30 7181 H 713.602 -0.644419 3.18241 0
M  V30 7182 H 714.613 2.87798 4.30572 0
M  V30 7183 H 711.29 0.301204 4.16412 0
M  V30 7184 H 712.68 4.19453 5.2489 0
M  V30 7185 N 715.4 -1.26948 0.933913 0
M  V30 7186 C 716.646 -1.94374 0.57848 0
M  V30 7187 C 716.979 -1.73166 -0.879048 0
M  V30 7188 O 716.254 -1.06438 -1.62792 0
M  V30 7189 C 716.537 -3.4834 0.912739 0
M  V30 7190 C 716.39 -3.78866 2.42448 0
M  V30 7191 C 717.709 -4.38062 0.423003 0
M  V30 7192 H 714.828 -0.705959 0.211639 0
M  V30 7193 H 717.47 -1.49951 1.16682 0
M  V30 7194 H 715.62 -3.86309 0.412058 0
M  V30 7195 H 717.292 -3.50654 2.99733 0
M  V30 7196 H 715.535 -3.25198 2.87104 0
M  V30 7197 H 716.206 -4.86458 2.60887 0
M  V30 7198 H 718.682 -4.0728 0.852191 0
M  V30 7199 H 717.558 -5.44599 0.685776 0
M  V30 7200 H 717.819 -4.36886 -0.676994 0
M  V30 7201 N 716.879 -0.700114 -1.41195 0
M  V30 7202 C 717.809 -0.0521132 -2.33442 0
M  V30 7203 C 718.79 0.76228 -1.52063 0
M  V30 7204 O 719.975 0.714336 -1.80585 0
M  V30 7205 C 717.105 0.881693 -3.35922 0
M  V30 7206 C 716.059 0.174062 -4.27646 0
M  V30 7207 C 715.385 1.22254 -5.20536 0
M  V30 7208 C 716.685 -0.962396 -5.13357 0
M  V30 7209 H 718.379 -0.822574 -2.87879 0
M  V30 7210 H 715.925 -0.397011 -1.38419 0
M  V30 7211 H 717.878 1.34429 -3.99383 0
M  V30 7212 H 716.602 1.68387 -2.79845 0
M  V30 7213 H 715.261 -0.268551 -3.65615 0
M  V30 7214 H 714.909 2.01736 -4.60773 0
M  V30 7215 H 714.609 0.754038 -5.82742 0
M  V30 7216 H 716.133 1.68555 -5.86874 0
M  V30 7217 H 717.547 -0.579875 -5.7036 0
M  V30 7218 H 715.944 -1.35828 -5.84526 0
M  V30 7219 H 717.014 -1.80003 -4.50252 0
M  V30 7220 N 718.357 1.51182 -0.445186 0
M  V30 7221 C 719.305 2.29531 0.376597 0
M  V30 7222 C 720.299 1.35711 1.01385 0
M  V30 7223 O 721.505 1.53018 0.947922 0
M  V30 7224 H 717.88 0.738803 0.140267 0
M  V30 7225 H 719.851 2.96838 -0.304958 0
M  V30 7226 C 718.6 3.1552 1.4609 0
M  V30 7227 H 717.923 3.87605 0.979912 0
M  V30 7228 H 719.363 3.73384 2.009 0
M  V30 7229 C 717.822 2.31406 2.44852 0
M  V30 7230 O 718.352 1.97912 3.49562 0
M  V30 7231 N 716.558 1.94478 2.15932 0
M  V30 7232 H 716.105 2.21917 1.30808 0
M  V30 7233 H 716.063 1.38498 2.82251 0
M  V30 7234 N 719.835 0.176821 1.56605 0
M  V30 7235 C 720.767 -0.782836 2.15417 0
M  V30 7236 C 721.78 -1.18982 1.11117 0
M  V30 7237 O 722.969 -1.12872 1.38283 0
M  V30 7238 C 720.069 -2.06596 2.68647 0
M  V30 7239 C 719.242 -1.82167 3.9766 0
M  V30 7240 C 718.301 -2.94751 4.35899 0
M  V30 7241 O 717.327 -2.65148 5.03672 0
M  V30 7242 N 718.529 -4.2267 3.97907 0
M  V30 7243 H 721.294 -0.280012 2.98389 0
M  V30 7244 H 718.855 -0.00577529 1.61899 0
M  V30 7245 H 720.847 -2.81018 2.91223 0
M  V30 7246 H 719.417 -2.48054 1.90232 0
M  V30 7247 H 718.637 -0.916208 3.83405 0
M  V30 7248 H 719.925 -1.6322 4.81909 0
M  V30 7249 H 719.323 -4.4958 3.43357 0
M  V30 7250 H 717.88 -4.93778 4.25472 0
M  V30 7251 N 721.313 -1.57302 -0.09688 0
M  V30 7252 C 722.59 -1.7701 -0.832272 0
M  V30 7253 C 722.97 -0.758025 -1.97021 0
M  V30 7254 O 722.318 0.213824 -2.27497 0
M  V30 7255 C 722.528 -3.22725 -1.32851 0
M  V30 7256 C 723.876 -3.85856 -1.772 0
M  V30 7257 O 724.9 -3.26464 -1.42478 0
M  V30 7258 O 723.759 -4.90295 -2.41398 0
M  V30 7259 H 720.853 -0.725558 -0.396856 0
M  V30 7260 H 723.399 -1.69516 -0.0789005 0
M  V30 7261 H 722.171 -3.87921 -0.51312 0
M  V30 7262 H 721.794 -3.34845 -2.14394 0
M  V30 7263 N 722.791 0.367657 -1.53252 0
M  V30 7264 C 723.701 1.47415 -1.82499 0
M  V30 7265 C 724.717 1.58711 -0.713222 0
M  V30 7266 O 725.893 1.74644 -1.00306 0
M  V30 7267 C 722.958 2.82706 -2.00694 0
M  V30 7268 C 722.019 2.80955 -3.24596 0
M  V30 7269 C 721.252 4.09793 -3.41914 0
M  V30 7270 O 721.475 5.05852 -2.63572 0
M  V30 7271 O 720.409 4.15731 -4.3526 0
M  V30 7272 H 724.235 1.25624 -2.765 0
M  V30 7273 H 721.82 0.557559 -1.38606 0
M  V30 7274 H 723.702 3.62873 -2.14246 0
M  V30 7275 H 722.377 3.04479 -1.09883 0
M  V30 7276 H 721.284 1.99494 -3.16469 0
M  V30 7277 H 722.617 2.64136 -4.15323 0
M  V30 7278 N 724.269 1.44576 0.627338 0
M  V30 7279 C 725.179 1.54232 1.76776 0
M  V30 7280 C 726.195 0.427782 1.6866 0
M  V30 7281 O 727.371 0.685671 1.89369 0
M  V30 7282 C 724.436 1.48738 3.13174 0
M  V30 7283 C 723.497 2.71074 3.32893 0
M  V30 7284 C 722.73 2.65832 4.62784 0
M  V30 7285 O 722.953 1.72048 5.43834 0
M  V30 7286 O 721.887 3.56742 4.84787 0
M  V30 7287 H 725.713 2.50586 1.71582 0
M  V30 7288 H 723.298 1.26865 0.789028 0
M  V30 7289 H 725.18 1.48211 3.94476 0
M  V30 7290 H 723.855 0.555292 3.18902 0
M  V30 7291 H 722.762 2.77168 2.51254 0
M  V30 7292 H 724.095 3.63342 3.32029 0
M  V30 7293 N 725.747 -0.868086 1.31537 0
M  V30 7294 C 727.163 -1.15414 1.10235 0
M  V30 7295 C 727.363 -2.01106 -0.125947 0
M  V30 7296 O 726.419 -2.38994 -0.814734 0
M  V30 7297 C 727.732 -1.84445 2.37488 0
M  V30 7298 C 729.28 -1.97139 2.43116 0
M  V30 7299 C 729.755 -2.69585 3.70254 0
M  V30 7300 N 731.246 -2.77119 3.71159 0
M  V30 7301 C 731.981 -3.33791 4.6623 0
M  V30 7302 N 731.477 -3.9138 5.71659 0
M  V30 7303 N 733.27 -3.31767 4.53747 0
M  V30 7304 H 725.421 -0.297109 2.10312 0
M  V30 7305 H 727.684 -0.194227 0.92789 0
M  V30 7306 H 727.39 -1.2893 3.27215 0
M  V30 7307 H 727.264 -2.84709 2.47428 0
M  V30 7308 H 729.651 -2.51818 1.53856 0
M  V30 7309 H 729.732 -0.95912 2.37138 0
M  V30 7310 H 729.376 -2.15572 4.59881 0
M  V30 7311 H 729.306 -3.71223 3.73499 0
M  V30 7312 H 731.797 -2.3625 2.94948 0
M  V30 7313 H 732.11 -4.3274 6.40278 0
M  V30 7314 H 730.455 -3.8975 5.7543 0
M  V30 7315 H 733.646 -2.86016 3.70557 0
M  V30 7316 H 733.819 -3.75636 5.28017 0
M  V30 7317 N 727.225 -1.14528 -1.08264 0
M  V30 7318 C 728.455 -0.936604 -1.8415 0
M  V30 7319 C 728.863 0.518298 -1.81962 0
M  V30 7320 O 728.206 1.37096 -1.22272 0
M  V30 7321 C 728.268 -1.36182 -3.32708 0
M  V30 7322 C 727.932 -2.83257 -3.58629 0
M  V30 7323 C 728.929 -3.81366 -3.5335 0
M  V30 7324 C 726.614 -3.20704 -3.86593 0
M  V30 7325 C 728.608 -5.14929 -3.75668 0
M  V30 7326 C 726.295 -4.54443 -4.08564 0
M  V30 7327 C 727.293 -5.51365 -4.03095 0
M  V30 7328 O 726.981 -6.8269 -4.24488 0
M  V30 7329 H 726.713 -0.333254 -0.588148 0
M  V30 7330 H 729.267 -1.5247 -1.3763 0
M  V30 7331 H 727.497 -0.717063 -3.79994 0
M  V30 7332 H 729.186 -1.12372 -3.90035 0
M  V30 7333 H 729.952 -3.53781 -3.31759 0
M  V30 7334 H 725.831 -2.45857 -3.89969 0
M  V30 7335 H 729.375 -5.90568 -3.71315 0
M  V30 7336 H 725.272 -4.81747 -4.29639 0
M  V30 7337 H 726.04 -6.8897 -4.41886 0
M  V30 7338 N 728.703 1.26451 -0.940633 0
M  V30 7339 C 729.635 2.25556 -0.407104 0
M  V30 7340 C 730.648 1.55888 0.469324 0
M  V30 7341 O 731.837 1.76292 0.279858 0
M  V30 7342 C 728.937 3.36109 0.434064 0
M  V30 7343 C 728.11 4.3532 -0.426082 0
M  V30 7344 C 727.169 5.25004 0.354563 0
M  V30 7345 O 726.195 5.68684 -0.242219 0
M  V30 7346 N 727.397 5.5652 1.65123 0
M  V30 7347 H 730.162 2.7197 -1.25907 0
M  V30 7348 H 727.723 1.40212 -0.809456 0
M  V30 7349 H 729.715 3.93059 0.963684 0
M  V30 7350 H 728.285 2.89194 1.18683 0
M  V30 7351 H 727.505 3.77449 -1.13692 0
M  V30 7352 H 728.793 4.986 -1.01366 0
M  V30 7353 H 728.191 5.22912 2.15822 0
M  V30 7354 H 726.748 6.16115 2.12711 0
M  V30 7355 N 730.181 0.707592 1.40822 0
M  V30 7356 C 731.114 -0.000859377 2.282 0
M  V30 7357 C 732.092 -0.7758 1.42899 0
M  V30 7358 O 733.276 -0.76411 1.72318 0
M  V30 7359 C 730.403 -1.00861 3.23334 0
M  V30 7360 C 729.449 -0.32543 4.25257 0
M  V30 7361 S 730.282 0.940908 5.27169 0
M  V30 7362 C 731.438 -0.0649459 6.25866 0
M  V30 7363 H 731.671 0.740207 2.87938 0
M  V30 7364 H 729.204 0.498311 1.46138 0
M  V30 7365 H 731.162 -1.58485 3.78672 0
M  V30 7366 H 729.823 -1.72233 2.62668 0
M  V30 7367 H 729.016 -1.08697 4.92139 0
M  V30 7368 H 728.618 0.178044 3.73576 0
M  V30 7369 H 730.91 -0.914377 6.71301 0
M  V30 7370 H 731.853 0.570276 7.058 0
M  V30 7371 H 732.261 -0.425098 5.62897 0
M  V30 7372 N 731.66 -1.50943 0.453197 0
M  V30 7373 C 732.906 -2.02512 -0.108082 0
M  V30 7374 C 733.239 -1.33574 -1.40967 0
M  V30 7375 O 732.514 -0.455671 -1.89087 0
M  V30 7376 C 732.797 -3.58759 -0.310453 0
M  V30 7377 C 732.65 -4.38293 1.0109 0
M  V30 7378 C 733.969 -4.26816 -1.07313 0
M  V30 7379 H 731.088 -0.73603 -0.0378064 0
M  V30 7380 H 733.73 -1.80433 0.595295 0
M  V30 7381 H 731.88 -3.77702 -0.909582 0
M  V30 7382 H 733.552 -4.30964 1.64523 0
M  V30 7383 H 731.795 -4.02745 1.61179 0
M  V30 7384 H 732.466 -5.45828 0.82315 0
M  V30 7385 H 734.942 -4.1224 -0.565473 0
M  V30 7386 H 733.818 -5.35989 -1.1835 0
M  V30 7387 H 734.079 -3.88757 -2.10525 0
M  V30 7388 N 733.138 -0.185124 -1.56509 0
M  V30 7389 C 734.068 0.735098 -2.21627 0
M  V30 7390 C 735.049 1.2288 -1.1762 0
M  V30 7391 O 736.234 1.27945 -1.46095 0
M  V30 7392 C 733.364 1.95889 -2.86783 0
M  V30 7393 C 732.318 1.6005 -3.96948 0
M  V30 7394 C 731.644 2.90009 -4.4922 0
M  V30 7395 C 732.944 0.818008 -5.15855 0
M  V30 7396 H 734.638 0.192274 -2.98782 0
M  V30 7397 H 732.184 0.0910393 -1.43712 0
M  V30 7398 H 734.137 2.60779 -3.31017 0
M  V30 7399 H 732.861 2.52608 -2.07018 0
M  V30 7400 H 731.52 0.975237 -3.5339 0
M  V30 7401 H 731.168 3.44797 -3.6623 0
M  V30 7402 H 730.868 2.66778 -5.23549 0
M  V30 7403 H 732.392 3.55904 -4.9615 0
M  V30 7404 H 733.806 1.36979 -5.56695 0
M  V30 7405 H 732.203 0.684207 -5.96187 0
M  V30 7406 H 733.273 -0.182939 -4.84555 0
M  V30 7407 N 734.616 1.57351 0.0885366 0
M  V30 7408 C 735.526 2.05858 1.12516 0
M  V30 7409 C 736.542 0.984758 1.43452 0
M  V30 7410 O 737.718 1.29836 1.53963 0
M  V30 7411 C 734.783 2.47882 2.42395 0
M  V30 7412 C 733.844 3.69487 2.18582 0
M  V30 7413 C 733.077 4.09497 3.42268 0
M  V30 7414 O 733.3 3.49536 4.50755 0
M  V30 7415 O 732.234 5.02406 3.31469 0
M  V30 7416 H 736.06 2.94467 0.743146 0
M  V30 7417 H 733.645 1.46326 0.301507 0
M  V30 7418 H 735.527 2.75509 3.18862 0
M  V30 7419 H 734.202 1.62408 2.8001 0
M  V30 7420 H 733.109 3.46967 1.39875 0
M  V30 7421 H 734.442 4.55761 1.85857 0
M  V30 7422 N 736.094 -0.359525 1.53444 0
M  V30 7423 C 737.505 -0.936009 1.61542 0
M  V30 7424 C 737.856 -1.90069 0.486633 0
M  V30 7425 O 736.981 -2.12929 -0.386047 0
M  V30 7426 C 737.576 -1.70441 2.92806 0
M  V30 7427 C 736.135 -2.23015 3.03218 0
M  V30 7428 C 735.282 -1.04438 2.56881 0
M  V30 7429 H 738.233 -0.138134 1.58098 0
M  V30 7430 H 738.254 -2.56609 2.80948 0
M  V30 7431 H 737.766 -1.00205 3.74941 0
M  V30 7432 H 735.867 -2.96475 2.25684 0
M  V30 7433 H 735.98 -2.50481 4.08407 0
M  V30 7434 H 734.344 -1.41314 2.11902 0
M  V30 7435 H 735.127 -0.356905 3.4144 0
M  V30 7436 N 737.572 -1.44907 -0.619662 0
M  V30 7437 C 738.988 -1.29046 -0.939107 0
M  V30 7438 C 739.188 -0.23462 -2.00129 0
M  V30 7439 O 738.244 0.37558 -2.49691 0
M  V30 7440 C 739.557 -2.66567 -1.39149 0
M  V30 7441 C 741.105 -2.74368 -1.50635 0
M  V30 7442 C 741.58 -4.12386 -1.99253 0
M  V30 7443 N 743.071 -4.1462 -2.06506 0
M  V30 7444 C 743.806 -5.18272 -2.4532 0
M  V30 7445 N 743.302 -6.32278 -2.83189 0
M  V30 7446 N 745.095 -5.05628 -2.45554 0
M  V30 7447 H 737.246 -2.12239 0.0826135 0
M  V30 7448 H 739.509 -0.947652 -0.0256829 0
M  V30 7449 H 739.215 -3.4496 -0.685254 0
M  V30 7450 H 739.089 -2.94224 -2.36034 0
M  V30 7451 H 741.476 -1.96287 -2.20353 0
M  V30 7452 H 741.557 -2.50439 -0.520963 0
M  V30 7453 H 741.201 -4.90947 -1.30127 0
M  V30 7454 H 741.131 -4.33699 -2.98684 0
M  V30 7455 H 743.622 -3.32343 -1.79878 0
M  V30 7456 H 743.935 -7.07172 -3.11652 0
M  V30 7457 H 742.28 -6.35699 -2.80913 0
M  V30 7458 H 745.471 -4.15613 -2.15367 0
M  V30 7459 H 745.644 -5.86529 -2.75478 0
M  V30 7460 N 739.05 0.861098 -1.31996 0
M  V30 7461 C 740.296 1.61721 -1.22369 0
M  V30 7462 C 740.629 1.93 0.215587 0
M  V30 7463 O 739.904 1.56789 1.15098 0
M  V30 7464 C 740.187 2.9417 -2.07691 0
M  V30 7465 C 740.04 2.69714 -3.59965 0
M  V30 7466 C 741.359 3.95372 -1.93312 0
M  V30 7467 H 738.478 0.586822 -0.44588 0
M  V30 7468 H 741.12 0.994788 -1.61876 0
M  V30 7469 H 739.27 3.47292 -1.74128 0
M  V30 7470 H 740.942 2.23196 -4.03709 0
M  V30 7471 H 739.185 2.03789 -3.82952 0
M  V30 7472 H 739.856 3.63996 -4.14983 0
M  V30 7473 H 742.332 3.51487 -2.22701 0
M  V30 7474 H 741.208 4.85916 -2.55298 0
M  V30 7475 H 741.469 4.32865 -0.898922 0
M  V30 7476 N 740.528 1.15101 1.07655 0
M  V30 7477 C 741.458 0.867864 2.16773 0
M  V30 7478 C 742.439 -0.180283 1.69142 0
M  V30 7479 O 743.624 -0.0353152 1.94168 0
M  V30 7480 C 740.754 0.35299 3.45501 0
M  V30 7481 C 739.708 1.33746 4.06566 0
M  V30 7482 C 739.034 0.681562 5.30338 0
M  V30 7483 C 740.334 2.7024 4.46954 0
M  V30 7484 H 742.028 1.78034 2.40716 0
M  V30 7485 H 739.574 0.857435 1.15689 0
M  V30 7486 H 741.527 0.142465 4.21159 0
M  V30 7487 H 740.251 -0.594945 3.21135 0
M  V30 7488 H 738.91 1.53429 3.32949 0
M  V30 7489 H 738.558 -0.272422 5.02262 0
M  V30 7490 H 738.258 1.33853 5.72151 0
M  V30 7491 H 739.782 0.48074 6.08705 0
M  V30 7492 H 741.196 2.5442 5.13754 0
M  V30 7493 H 739.593 3.32282 4.99709 0
M  V30 7494 H 740.663 3.26537 3.58471 0
M  V30 7495 N 742.006 -1.2595 0.947325 0
M  V30 7496 C 742.936 -2.28521 0.479604 0
M  V30 7497 C 743.917 -1.63469 -0.470293 0
M  V30 7498 O 745.102 -1.90627 -0.370824 0
M  V30 7499 C 742.232 -3.46397 -0.250289 0
M  V30 7500 C 741.186 -4.23578 0.613643 0
M  V30 7501 C 740.512 -5.34131 -0.246568 0
M  V30 7502 C 741.812 -4.86979 1.88809 0
M  V30 7503 H 743.506 -2.67895 1.33688 0
M  V30 7504 H 741.052 -1.28783 0.644274 0
M  V30 7505 H 743.005 -4.17269 -0.588576 0
M  V30 7506 H 741.729 -3.05993 -1.14175 0
M  V30 7507 H 740.388 -3.54478 0.93491 0
M  V30 7508 H 740.036 -4.89968 -1.13756 0
M  V30 7509 H 739.736 -5.86683 0.328123 0
M  V30 7510 H 741.26 -6.07839 -0.579986 0
M  V30 7511 H 742.674 -5.50034 1.61666 0
M  V30 7512 H 741.071 -5.49675 2.40784 0
M  V30 7513 H 742.141 -4.09575 2.5957 0
M  V30 7514 N 743.484 -0.715051 -1.40445 0
M  V30 7515 C 744.712 -0.263959 -2.05209 0
M  V30 7516 C 745.127 1.09403 -1.53871 0
M  V30 7517 O 744.484 1.68746 -0.695064 0
M  V30 7518 C 744.535 -0.234545 -3.60738 0
M  V30 7519 O 744.256 -1.53891 -4.10182 0
M  V30 7520 C 745.757 0.235164 -4.42676 0
M  V30 7521 H 742.977 -0.11876 -0.660407 0
M  V30 7522 H 745.521 -0.973107 -1.79864 0
M  V30 7523 H 743.676 0.425563 -3.85055 0
M  V30 7524 H 744.09 -1.43903 -5.04373 0
M  V30 7525 H 745.564 0.204598 -5.51621 0
M  V30 7526 H 746.041 1.27724 -4.20218 0
M  V30 7527 H 746.647 -0.394649 -4.23465 0
M  V30 7528 N 744.962 1.50701 -0.461195 0
M  V30 7529 C 745.872 2.32069 0.343661 0
M  V30 7530 C 746.888 1.42016 1.00535 0
M  V30 7531 O 748.064 1.75077 0.995498 0
M  V30 7532 C 745.129 3.16424 1.41692 0
M  V30 7533 C 744.19 4.22286 0.772869 0
M  V30 7534 C 743.423 5.02609 1.79499 0
M  V30 7535 O 743.646 4.83874 3.0203 0
M  V30 7536 O 742.58 5.86047 1.3723 0
M  V30 7537 H 746.406 3.01996 -0.321268 0
M  V30 7538 H 743.991 1.47723 -0.223235 0
M  V30 7539 H 745.873 3.68795 2.03883 0
M  V30 7540 H 744.548 2.49236 2.0655 0
M  V30 7541 H 743.455 3.73931 0.112277 0
M  V30 7542 H 744.788 4.91915 0.167399 0
M  V30 7543 N 746.441 0.193421 1.56409 0
M  V30 7544 C 747.371 -0.723334 2.22014 0
M  V30 7545 C 748.352 -1.22254 1.1827 0
M  V30 7546 O 749.537 -1.27168 1.46771 0
M  V30 7547 C 746.667 -1.94366 2.87818 0
M  V30 7548 C 745.621 -1.57943 3.97791 0
M  V30 7549 C 744.947 -2.87623 4.50752 0
M  V30 7550 C 746.247 -0.790639 5.16281 0
M  V30 7551 H 747.941 -0.176426 2.9888 0
M  V30 7552 H 745.487 -0.0834166 1.43758 0
M  V30 7553 H 747.44 -2.5902 3.32396 0
M  V30 7554 H 746.164 -2.51507 2.08355 0
M  V30 7555 H 744.823 -0.956482 3.53903 0
M  V30 7556 H 744.471 -3.4285 3.68053 0
M  V30 7557 H 744.171 -2.63998 5.24956 0
M  V30 7558 H 745.695 -3.53268 4.9803 0
M  V30 7559 H 747.109 -1.34024 5.57414 0
M  V30 7560 H 745.506 -0.65258 5.96541 0
M  V30 7561 H 746.576 0.208633 4.84451 0
M  V30 7562 N 747.919 -1.57396 -0.0801906 0
M  V30 7563 C 748.851 -1.9982 -1.12271 0
M  V30 7564 C 749.864 -0.902902 -1.35468 0
M  V30 7565 O 751.053 -1.18088 -1.33856 0
M  V30 7566 C 748.153 -2.31476 -2.47532 0
M  V30 7567 C 747.326 -3.62745 -2.44407 0
M  V30 7568 C 746.385 -3.82168 -3.6171 0
M  V30 7569 O 745.411 -4.53852 -3.43522 0
M  V30 7570 N 746.613 -3.2388 -4.81749 0
M  V30 7571 H 749.378 -2.89864 -0.761501 0
M  V30 7572 H 746.939 -1.5965 -0.268965 0
M  V30 7573 H 748.931 -2.4165 -3.24634 0
M  V30 7574 H 747.501 -1.47364 -2.75686 0
M  V30 7575 H 746.721 -3.63403 -1.52747 0
M  V30 7576 H 748.009 -4.48954 -2.39412 0
M  V30 7577 H 747.407 -2.6568 -4.9943 0
M  V30 7578 H 745.964 -3.39515 -5.56392 0
M  V30 7579 N 749.397 0.351382 -1.53633 0
M  V30 7580 C 750.808 0.927429 -1.62036 0
M  V30 7581 C 751.159 1.89809 -0.496706 0
M  V30 7582 O 750.284 2.1313 0.374749 0
M  V30 7583 C 750.879 1.68886 -2.93706 0
M  V30 7584 C 749.438 2.21404 -3.04397 0
M  V30 7585 C 748.585 1.03075 -2.57431 0
M  V30 7586 H 751.536 0.129748 -1.58169 0
M  V30 7587 H 751.557 2.55116 -2.82305 0
M  V30 7588 H 751.069 0.982149 -3.75467 0
M  V30 7589 H 749.17 2.95274 -2.27253 0
M  V30 7590 H 749.283 2.48312 -4.09729 0
M  V30 7591 H 747.647 1.40188 -2.12649 0
M  V30 7592 H 748.43 0.338793 -3.41624 0
M  V30 7593 N 750.875 1.45233 0.611969 0
M  V30 7594 C 752.152 1.39495 1.37115 0
M  V30 7595 C 752.532 0.0633303 2.11005 0
M  V30 7596 O 751.88 -0.954617 2.07604 0
M  V30 7597 C 752.09 2.60579 2.32163 0
M  V30 7598 C 753.438 3.05477 2.94905 0
M  V30 7599 O 754.462 2.60921 2.42485 0
M  V30 7600 O 753.321 3.82787 3.90047 0
M  V30 7601 H 750.415 0.55335 0.614599 0
M  V30 7602 H 752.961 1.57355 0.635423 0
M  V30 7603 H 751.733 3.49085 1.76793 0
M  V30 7604 H 751.356 2.45031 3.13122 0
M  V30 7605 N 752.353 -0.854086 1.3245 0
M  V30 7606 C 753.581 -1.64074 1.26045 0
M  V30 7607 C 753.996 -1.8802 -0.171456 0
M  V30 7608 O 753.353 -1.4496 -1.10873 0
M  V30 7609 C 753.404 -2.9997 2.01743 0
M  V30 7610 O 753.125 -2.77084 3.39346 0
M  V30 7611 C 754.626 -3.94414 2.02368 0
M  V30 7612 H 751.846 -0.511015 0.434862 0
M  V30 7613 H 754.39 -1.06494 1.74583 0
M  V30 7614 H 752.545 -3.54193 1.56926 0
M  V30 7615 H 752.959 -3.63514 3.78098 0
M  V30 7616 H 754.433 -4.87032 2.59815 0
M  V30 7617 H 754.91 -4.27427 1.01009 0
M  V30 7618 H 755.516 -3.46127 2.47135 0
M  V30 7619 N 753.831 -1.1567 -1.07043 0
M  V30 7620 C 755.059 -0.957471 -1.83412 0
M  V30 7621 C 755.474 0.494271 -1.82215 0
M  V30 7622 O 754.831 1.34288 -1.23584 0
M  V30 7623 C 754.882 -1.46784 -3.30359 0
M  V30 7624 O 754.603 -2.86271 -3.31633 0
M  V30 7625 C 756.104 -1.31054 -4.23485 0
M  V30 7626 H 753.324 -0.33986 -0.578564 0
M  V30 7627 H 755.868 -1.53518 -1.35102 0
M  V30 7628 H 754.023 -0.932586 -3.76007 0
M  V30 7629 H 754.437 -3.0948 -4.23465 0
M  V30 7630 H 755.911 -1.71605 -5.24648 0
M  V30 7631 H 756.388 -0.255107 -4.38458 0
M  V30 7632 H 756.994 -1.83503 -3.83676 0
M  V30 7633 N 755.309 1.25446 -0.953992 0
M  V30 7634 C 756.539 1.96929 -0.624688 0
M  V30 7635 C 756.947 1.71112 0.807292 0
M  V30 7636 O 756.29 0.983512 1.55154 0
M  V30 7637 C 756.352 3.50425 -0.802676 0
M  V30 7638 C 756.016 3.99916 -2.21169 0
M  V30 7639 C 757.013 4.10662 -3.18831 0
M  V30 7640 C 754.698 4.33598 -2.53571 0
M  V30 7641 C 756.692 4.54401 -4.46988 0
M  V30 7642 C 754.379 4.77024 -3.81958 0
M  V30 7643 C 755.377 4.87388 -4.78478 0
M  V30 7644 O 755.065 5.29851 -6.04577 0
M  V30 7645 H 754.797 0.634511 -0.233179 0
M  V30 7646 H 757.351 1.60591 -1.28061 0
M  V30 7647 H 755.581 3.86596 -0.0896044 0
M  V30 7648 H 757.27 4.03117 -0.47452 0
M  V30 7649 H 758.036 3.84872 -2.95124 0
M  V30 7650 H 753.915 4.24757 -1.79171 0
M  V30 7651 H 757.459 4.62406 -5.22328 0
M  V30 7652 H 753.356 5.02258 -4.05471 0
M  V30 7653 H 754.124 5.48039 -6.07944 0
M  V30 7654 N 756.787 0.722489 1.40064 0
M  V30 7655 C 758.036 0.261932 1.99992 0
M  V30 7656 C 758.349 -1.15358 1.57961 0
M  V30 7657 O 759.555 -1.71301 2.10637 0
M  V30 7658 C 758.011 0.41737 3.57472 0
M  V30 7659 C 757.619 1.83997 4.08472 0
M  V30 7660 C 759.363 0.0179561 4.24496 0
M  V30 7661 C 757.27 1.94563 5.5848 0
M  V30 7662 H 756.2 0.0941768 0.748095 0
M  V30 7663 H 758.851 0.894572 1.60218 0
M  V30 7664 H 757.233 -0.283965 3.94981 0
M  V30 7665 H 758.407 2.57224 3.82325 0
M  V30 7666 H 756.722 2.19147 3.54067 0
M  V30 7667 H 759.319 0.076085 5.34646 0
M  V30 7668 H 759.662 -1.02498 4.03485 0
M  V30 7669 H 760.195 0.669988 3.92117 0
M  V30 7670 H 756.934 2.97001 5.84355 0
M  V30 7671 H 756.454 1.25756 5.86469 0
M  V30 7672 H 758.133 1.72095 6.23692 0
M  V30 7673 N 758.265 -1.50454 0.469181 0
M  V30 7674 C 759.511 -2.02615 -0.0865971 0
M  V30 7675 C 759.844 -1.35062 -1.39542 0
M  V30 7676 O 759.119 -0.475701 -1.88593 0
M  V30 7677 C 759.402 -3.59068 -0.272385 0
M  V30 7678 C 759.255 -4.37196 1.05733 0
M  V30 7679 C 760.574 -4.2793 -1.0278 0
M  V30 7680 H 757.693 -0.736389 -0.0299977 0
M  V30 7681 H 760.335 -1.79792 0.614399 0
M  V30 7682 H 758.485 -3.78646 -0.869471 0
M  V30 7683 H 760.157 -4.29195 1.69084 0
M  V30 7684 H 758.4 -4.01013 1.65442 0
M  V30 7685 H 759.071 -5.44924 0.880997 0
M  V30 7686 H 761.547 -4.12816 -0.521718 0
M  V30 7687 H 760.423 -5.37214 -1.12659 0
M  V30 7688 H 760.684 -3.90968 -2.0639 0
M  V30 7689 N 759.743 -0.201713 -1.56304 0
M  V30 7690 C 761.159 0.154025 -1.58855 0
M  V30 7691 C 761.359 1.60516 -1.21807 0
M  V30 7692 O 760.415 2.34193 -0.94393 0
M  V30 7693 C 761.728 -0.154319 -3.00304 0
M  V30 7694 C 763.276 -0.0949578 -3.12856 0
M  V30 7695 C 763.751 -0.376703 -4.56448 0
M  V30 7696 N 765.242 -0.325558 -4.62054 0
M  V30 7697 C 765.977 -0.51732 -5.71062 0
M  V30 7698 N 765.473 -0.769789 -6.8851 0
M  V30 7699 N 767.266 -0.45112 -5.60287 0
M  V30 7700 H 759.417 -1.14858 -1.78666 0
M  V30 7701 H 761.68 -0.458934 -0.829508 0
M  V30 7702 H 761.386 -1.16074 -3.31994 0
M  V30 7703 H 761.26 0.540014 -3.73314 0
M  V30 7704 H 763.647 0.902075 -2.80974 0
M  V30 7705 H 763.728 -0.822468 -2.42217 0
M  V30 7706 H 763.372 -1.37108 -4.89044 0
M  V30 7707 H 763.302 0.371772 -5.25286 0
M  V30 7708 H 765.793 -0.137308 -3.7765 0
M  V30 7709 H 766.106 -0.904744 -7.67486 0
M  V30 7710 H 764.451 -0.806758 -6.90302 0
M  V30 7711 H 767.642 -0.254253 -4.67409 0
M  V30 7712 H 767.815 -0.603982 -6.45179 0
M  V30 7713 N 761.222 1.57436 0.0718424 0
M  V30 7714 C 762.468 1.87525 0.772149 0
M  V30 7715 C 762.801 0.79399 1.77227 0
M  V30 7716 O 762.076 -0.195733 1.93513 0
M  V30 7717 C 762.359 3.28272 1.48018 0
M  V30 7718 C 762.212 4.47052 0.49647 0
M  V30 7719 C 763.531 3.67256 2.42509 0
M  V30 7720 H 760.65 0.682049 0.279245 0
M  V30 7721 H 763.292 1.89967 0.03534 0
M  V30 7722 H 761.442 3.26321 2.10824 0
M  V30 7723 H 763.114 4.61127 -0.126375 0
M  V30 7724 H 761.357 4.33392 -0.188205 0
M  V30 7725 H 762.028 5.42315 1.02949 0
M  V30 7726 H 764.504 3.70301 1.89781 0
M  V30 7727 H 763.38 4.66626 2.89053 0
M  V30 7728 H 763.641 2.97186 3.27312 0
M  V30 7729 N 762.7 -0.34323 1.53817 0
M  V30 7730 C 764.116 -0.686355 1.44088 0
M  V30 7731 C 764.316 -1.92426 0.597882 0
M  V30 7732 O 763.372 -2.52343 0.0889918 0
M  V30 7733 C 764.685 -0.878698 2.87575 0
M  V30 7734 C 766.233 -0.977296 2.97352 0
M  V30 7735 C 766.708 -1.20195 4.41947 0
M  V30 7736 N 768.199 -1.26915 4.45474 0
M  V30 7737 C 768.934 -1.46049 5.54488 0
M  V30 7738 N 768.43 -1.62354 6.73508 0
M  V30 7739 N 770.223 -1.48599 5.42102 0
M  V30 7740 H 762.374 0.470679 2.07119 0
M  V30 7741 H 764.637 0.148652 0.936273 0
M  V30 7742 H 764.343 -0.040602 3.51677 0
M  V30 7743 H 764.217 -1.78034 3.32541 0
M  V30 7744 H 766.604 -1.80591 2.3339 0
M  V30 7745 H 766.685 -0.0525498 2.55746 0
M  V30 7746 H 766.329 -0.378262 5.06489 0
M  V30 7747 H 766.259 -2.14027 4.81145 0
M  V30 7748 H 768.75 -1.15837 3.59708 0
M  V30 7749 H 769.063 -1.76591 7.52353 0
M  V30 7750 H 767.408 -1.5949 6.76453 0
M  V30 7751 H 770.599 -1.35443 4.48077 0
M  V30 7752 H 770.772 -1.6317 6.2712 0
M  V30 7753 N 764.178 -1.45556 -0.604258 0
M  V30 7754 C 765.111 -1.48975 -1.72863 0
M  V30 7755 C 766.089 -0.345803 -1.5888 0
M  V30 7756 O 767.273 -0.546796 -1.80395 0
M  V30 7757 C 764.4 -1.34794 -3.10722 0
M  V30 7758 C 763.446 -2.53096 -3.43285 0
M  V30 7759 S 764.279 -4.15551 -3.37754 0
M  V30 7760 C 765.435 -4.03842 -4.78187 0
M  V30 7761 H 765.668 -2.44108 -1.69701 0
M  V30 7762 H 763.201 -1.33179 -0.781194 0
M  V30 7763 H 765.159 -1.273 -3.90263 0
M  V30 7764 H 763.82 -0.411254 -3.11396 0
M  V30 7765 H 763.013 -2.39109 -4.4367 0
M  V30 7766 H 762.615 -2.57469 -2.71267 0
M  V30 7767 H 764.907 -3.69191 -5.6807 0
M  V30 7768 H 765.85 -5.0415 -4.97231 0
M  V30 7769 H 766.258 -3.35443 -4.54025 0
M  V30 7770 N 765.656 0.84705 -1.32902 0
M  V30 7771 C 766.586 1.97166 -1.25091 0
M  V30 7772 C 767.567 1.69578 -0.133161 0
M  V30 7773 O 768.752 1.91519 -0.321591 0
M  V30 7774 C 765.882 3.33157 -0.981006 0
M  V30 7775 C 764.836 3.75119 -2.06082 0
M  V30 7776 C 764.162 5.08826 -1.64318 0
M  V30 7777 C 765.462 3.89774 -3.47669 0
M  V30 7778 H 767.156 2.03958 -2.19184 0
M  V30 7779 H 764.702 0.979907 -1.05517 0
M  V30 7780 H 766.655 4.11393 -0.912891 0
M  V30 7781 H 765.379 3.266 -0.00445559 0
M  V30 7782 H 764.038 2.9914 -2.11921 0
M  V30 7783 H 763.686 4.98732 -0.653876 0
M  V30 7784 H 763.386 5.37873 -2.36572 0
M  V30 7785 H 764.91 5.89546 -1.58958 0
M  V30 7786 H 766.324 4.58343 -3.44376 0
M  V30 7787 H 764.721 4.30248 -4.18338 0
M  V30 7788 H 765.791 2.92463 -3.86773 0
M  V30 7789 N 767.134 1.16236 1.06428 0
M  V30 7790 C 768.362 0.967184 1.82902 0
M  V30 7791 C 768.777 -0.484601 1.82475 0
M  V30 7792 O 768.134 -1.33631 1.24294 0
M  V30 7793 C 768.185 1.48534 3.29576 0
M  V30 7794 O 767.906 2.88026 3.3011 0
M  V30 7795 C 769.407 1.33298 4.22784 0
M  V30 7796 H 766.627 0.342923 0.576754 0
M  V30 7797 H 769.171 1.54232 1.34286 0
M  V30 7798 H 767.326 0.952513 3.75508 0
M  V30 7799 H 767.74 3.11721 4.21818 0
M  V30 7800 H 769.214 1.74385 5.23731 0
M  V30 7801 H 769.691 0.278356 4.38317 0
M  V30 7802 H 770.297 1.85535 3.82697 0
M  V30 7803 N 768.612 -1.24939 0.960631 0
M  V30 7804 C 770.023 -1.74701 0.658529 0
M  V30 7805 C 770.374 -1.77967 -0.825959 0
M  V30 7806 O 769.499 -1.40444 -1.64634 0
M  V30 7807 C 770.094 -3.17263 1.18867 0
M  V30 7808 C 768.653 -3.64561 0.936614 0
M  V30 7809 C 767.8 -2.43423 1.32817 0
M  V30 7810 H 770.751 -1.10741 1.13676 0
M  V30 7811 H 770.772 -3.76481 0.551589 0
M  V30 7812 H 770.284 -3.14854 2.26912 0
M  V30 7813 H 768.385 -3.72378 -0.128608 0
M  V30 7814 H 768.498 -4.52392 1.57729 0
M  V30 7815 H 766.862 -2.43513 0.746548 0
M  V30 7816 H 767.645 -2.437 2.41796 0
M  V30 7817 N 770.09 -0.729906 -1.39679 0
M  V30 7818 C 771.02 -0.101618 -2.33279 0
M  V30 7819 C 772.001 0.729854 -1.53646 0
M  V30 7820 O 773.186 0.67587 -1.82059 0
M  V30 7821 C 770.316 0.81024 -3.37716 0
M  V30 7822 C 769.27 0.0833126 -4.27919 0
M  V30 7823 C 768.596 1.11185 -5.23012 0
M  V30 7824 C 769.896 -1.07107 -5.112 0
M  V30 7825 H 771.59 -0.883452 -2.86069 0
M  V30 7826 H 769.136 -0.426283 -1.37546 0
M  V30 7827 H 771.089 1.25927 -4.02145 0
M  V30 7828 H 769.813 1.62413 -2.83354 0
M  V30 7829 H 768.472 -0.346043 -3.64963 0
M  V30 7830 H 768.12 1.91917 -4.64948 0
M  V30 7831 H 767.82 0.63026 -5.8421 0
M  V30 7832 H 769.344 1.56068 -5.90318 0
M  V30 7833 H 770.758 -0.700726 -5.69002 0
M  V30 7834 H 769.155 -1.48196 -5.81514 0
M  V30 7835 H 770.225 -1.89513 -4.46332 0
M  V30 7836 N 771.568 1.50203 -0.477153 0
M  V30 7837 C 772.816 2.01959 0.0755889 0
M  V30 7838 C 773.137 1.3608 1.39668 0
M  V30 7839 O 772.407 0.508136 1.89195 0
M  V30 7840 H 770.987 0.74636 0.0309248 0
M  V30 7841 H 773.649 1.84473 -0.628959 0
M  V30 7842 H 772.745 3.11305 0.222683 0
M  V30 7843 N 773.046 0.209999 1.56195 0
M  V30 7844 C 774.457 -0.299943 1.84275 0
M  V30 7845 C 774.808 -1.60314 1.1311 0
M  V30 7846 O 773.933 -2.1273 0.396874 0
M  V30 7847 C 774.528 -0.550986 3.3429 0
M  V30 7848 C 773.087 -1.00526 3.62728 0
M  V30 7849 C 772.234 -0.0619828 2.77231 0
M  V30 7850 H 775.185 0.433458 1.52666 0
M  V30 7851 H 775.206 -1.39846 3.53869 0
M  V30 7852 H 774.718 0.397669 3.86057 0
M  V30 7853 H 772.819 -1.96768 3.16407 0
M  V30 7854 H 772.932 -0.887664 4.70805 0
M  V30 7855 H 771.296 -0.566648 2.48317 0
M  V30 7856 H 772.079 0.881383 3.31793 0
M  V30 7857 N 774.524 -1.57472 -0.0634922 0
M  V30 7858 C 775.772 -1.87283 -0.759563 0
M  V30 7859 C 776.093 -0.803135 -1.77693 0
M  V30 7860 O 775.363 0.167293 -1.95184 0
M  V30 7861 H 773.943 -0.691106 -0.283516 0
M  V30 7862 H 776.605 -1.94864 -0.0376091 0
M  V30 7863 H 775.701 -2.85064 -1.27062 0
M  V30 7864 N 776.003 0.335068 -1.53997 0
M  V30 7865 C 777.414 0.910191 -1.6301 0
M  V30 7866 C 777.765 1.89271 -0.516809 0
M  V30 7867 O 776.89 2.13516 0.352123 0
M  V30 7868 C 777.485 1.65761 -2.9548 0
M  V30 7869 C 776.044 2.18163 -3.06728 0
M  V30 7870 C 775.191 1.00338 -2.5851 0
M  V30 7871 H 778.142 0.112965 -1.58297 0
M  V30 7872 H 778.163 2.52107 -2.84995 0
M  V30 7873 H 777.675 0.94227 -3.76488 0
M  V30 7874 H 775.776 2.92847 -2.30372 0
M  V30 7875 H 775.889 2.43952 -4.1234 0
M  V30 7876 H 774.253 1.37925 -2.14124 0
M  V30 7877 H 775.036 0.30254 -3.41964 0
M  V30 7878 N 777.481 1.45874 0.596531 0
M  V30 7879 C 778.728 1.50467 1.35521 0
M  V30 7880 C 779.056 0.150802 1.93915 0
M  V30 7881 O 778.311 -0.851913 1.76184 0
M  V30 7882 C 778.61 2.54034 2.51399 0
M  V30 7883 C 778.276 3.9844 2.11085 0
M  V30 7884 C 776.938 4.37758 1.99804 0
M  V30 7885 C 779.29 4.89209 1.79788 0
M  V30 7886 C 776.618 5.65727 1.55465 0
M  V30 7887 C 778.97 6.17602 1.36931 0
M  V30 7888 C 777.634 6.5584 1.24218 0
M  V30 7889 H 776.904 0.550597 0.495907 0
M  V30 7890 H 779.551 1.79279 0.673145 0
M  V30 7891 H 777.856 2.18832 3.24992 0
M  V30 7892 H 779.553 2.54822 3.09624 0
M  V30 7893 H 776.143 3.67353 2.20794 0
M  V30 7894 H 780.327 4.59562 1.87395 0
M  V30 7895 H 775.583 5.94139 1.44253 0
M  V30 7896 H 779.757 6.87373 1.11764 0
M  V30 7897 H 777.384 7.54897 0.896353 0
M  V30 7898 N 778.959 -0.83999 1.33349 0
M  V30 7899 C 780.184 -1.63249 1.27924 0
M  V30 7900 C 780.609 -1.87523 -0.147193 0
M  V30 7901 O 779.967 -1.43853 -1.10345 0
M  V30 7902 C 780.015 -2.96046 2.05886 0
M  V30 7903 O 779.119 -3.87303 1.4167 0
M  V30 7904 H 778.46 -0.49715 0.440157 0
M  V30 7905 H 780.99 -1.04512 1.75893 0
M  V30 7906 H 781 -3.45752 2.16609 0
M  V30 7907 H 779.675 -2.77701 3.09605 0
M  V30 7908 H 778.252 -3.45789 1.39585 0
M  V30 7909 N 780.437 -1.16799 -1.0581 0
M  V30 7910 C 781.848 -0.95945 -1.60161 0
M  V30 7911 C 782.199 0.49543 -1.89842 0
M  V30 7912 O 781.324 1.36957 -1.67546 0
M  V30 7913 C 781.919 -1.73527 -2.90987 0
M  V30 7914 C 780.478 -1.57158 -3.42021 0
M  V30 7915 C 779.625 -1.74089 -2.15843 0
M  V30 7916 H 782.576 -1.31598 -0.886992 0
M  V30 7917 H 782.597 -1.21397 -3.60615 0
M  V30 7918 H 782.109 -2.79411 -2.69353 0
M  V30 7919 H 780.21 -0.537361 -3.68705 0
M  V30 7920 H 780.323 -2.35858 -4.17022 0
M  V30 7921 H 778.687 -1.16874 -2.26302 0
M  V30 7922 H 779.47 -2.81371 -1.96686 0
M  V30 7923 N 781.915 1.24427 -0.967243 0
M  V30 7924 C 783.192 1.87831 -0.545776 0
M  V30 7925 C 783.572 1.87126 0.977099 0
M  V30 7926 O 782.92 1.34357 1.84826 0
M  V30 7927 C 783.13 3.29967 -1.13679 0
M  V30 7928 C 784.478 4.06654 -1.22139 0
M  V30 7929 O 785.502 3.39136 -1.08926 0
M  V30 7930 O 784.361 5.27455 -1.43017 0
M  V30 7931 H 781.455 0.806745 -0.181912 0
M  V30 7932 H 784.001 1.32403 -1.06148 0
M  V30 7933 H 782.773 3.24977 -2.17958 0
M  V30 7934 H 782.396 3.92969 -0.605093 0
M  V30 7935 N 783.393 0.737304 1.3929 0
M  V30 7936 C 784.343 0.0748537 2.27877 0
M  V30 7937 C 785.327 -0.71022 1.44377 0
M  V30 7938 O 786.519 -0.578851 1.67267 0
M  V30 7939 C 783.648 -0.82991 3.33118 0
M  V30 7940 C 782.734 -0.0388619 4.24082 0
M  V30 7941 N 783.125 0.989182 4.96033 0
M  V30 7942 C 781.423 -0.268167 4.45193 0
M  V30 7943 C 782.124 1.46639 5.62914 0
M  V30 7944 N 781.1 0.784581 5.37908 0
M  V30 7945 H 784.902 0.862457 2.80961 0
M  V30 7946 H 782.416 0.571845 1.51999 0
M  V30 7947 H 784.413 -1.31999 3.95452 0
M  V30 7948 H 783.073 -1.61665 2.81593 0
M  V30 7949 H 784.084 1.3706 4.99435 0
M  V30 7950 H 780.761 -1.02953 4.04607 0
M  V30 7951 H 782.151 2.32182 6.30508 0
M  V30 7952 N 784.871 -1.49948 0.485112 0
M  V30 7953 C 785.781 -2.32587 -0.306697 0
M  V30 7954 C 786.797 -1.43598 -0.982632 0
M  V30 7955 O 787.973 -1.76638 -0.967519 0
M  V30 7956 C 785.038 -3.18638 -1.3664 0
M  V30 7957 C 784.099 -4.23462 -0.705589 0
M  V30 7958 C 783.332 -5.05401 -1.7148 0
M  V30 7959 O 783.555 -4.88618 -2.94293 0
M  V30 7960 O 782.489 -5.88157 -1.27889 0
M  V30 7961 H 786.315 -3.01447 0.369272 0
M  V30 7962 H 783.9 -1.47349 0.246709 0
M  V30 7963 H 785.782 -3.71992 -1.9799 0
M  V30 7964 H 784.457 -2.52491 -2.02559 0
M  V30 7965 H 783.364 -3.74063 -0.0527733 0
M  V30 7966 H 784.697 -4.92119 -0.0891187 0
M  V30 7967 N 786.349 -0.21828 -1.56081 0
M  V30 7968 C 787.596 0.414307 -1.98216 0
M  V30 7969 C 787.924 1.60005 -1.10584 0
M  V30 7970 O 787.179 1.95124 -0.150043 0
M  V30 7971 C 787.478 0.894782 -3.46018 0
M  V30 7972 C 787.144 -0.180083 -4.5054 0
M  V30 7973 C 785.806 -0.475367 -4.78846 0
M  V30 7974 C 788.158 -0.907191 -5.13244 0
M  V30 7975 C 785.486 -1.50233 -5.67139 0
M  V30 7976 C 787.838 -1.92347 -6.02649 0
M  V30 7977 C 786.502 -2.22571 -6.293 0
M  V30 7978 H 785.772 0.151606 -0.725325 0
M  V30 7979 H 788.419 -0.320113 -1.88806 0
M  V30 7980 H 786.724 1.7079 -3.52616 0
M  V30 7981 H 788.421 1.39403 -3.75989 0
M  V30 7982 H 785.011 0.06022 -4.28558 0
M  V30 7983 H 789.195 -0.692303 -4.91448 0
M  V30 7984 H 784.451 -1.74215 -5.86054 0
M  V30 7985 H 788.625 -2.49197 -6.50288 0
M  V30 7986 H 786.252 -3.0229 -6.97513 0
M  V30 7987 N 787.827 1.57504 0.0551401 0
M  V30 7988 C 789.243 1.54236 0.410292 0
M  V30 7989 C 789.443 0.940839 1.78187 0
M  V30 7990 O 788.499 0.550541 2.46425 0
M  V30 7991 C 789.812 2.98816 0.336064 0
M  V30 7992 C 791.36 3.10236 0.415047 0
M  V30 7993 C 791.835 4.56499 0.37055 0
M  V30 7994 N 793.326 4.61199 0.43013 0
M  V30 7995 C 794.061 5.71873 0.418179 0
M  V30 7996 N 793.557 6.91864 0.360056 0
M  V30 7997 N 795.35 5.60165 0.465977 0
M  V30 7998 H 787.501 1.94965 -0.842759 0
M  V30 7999 H 789.764 0.893096 -0.317937 0
M  V30 8000 H 789.47 3.4645 -0.605429 0
M  V30 8001 H 789.344 3.59564 1.13988 0
M  V30 8002 H 791.731 2.62566 1.34697 0
M  V30 8003 H 791.812 2.52367 -0.417648 0
M  V30 8004 H 791.456 5.0483 -0.557592 0
M  V30 8005 H 791.386 5.12249 1.221 0
M  V30 8006 H 793.877 3.74857 0.478623 0
M  V30 8007 H 794.19 7.71983 0.35532 0
M  V30 8008 H 792.535 6.94233 0.326492 0
M  V30 8009 H 795.726 4.65322 0.509194 0
M  V30 8010 H 795.899 6.46413 0.453194 0
M  V30 8011 N 789.305 -0.326896 1.54172 0
M  V30 8012 C 790.533 -1.08486 1.76177 0
M  V30 8013 C 790.948 -1.81815 0.508788 0
M  V30 8014 O 790.305 -1.74924 -0.520362 0
M  V30 8015 C 790.356 -2.08552 2.95276 0
M  V30 8016 O 790.077 -1.38202 4.15731 0
M  V30 8017 C 791.578 -2.96593 3.29466 0
M  V30 8018 H 788.798 -0.322835 0.588233 0
M  V30 8019 H 791.342 -0.374036 2.0105 0
M  V30 8020 H 789.497 -2.75174 2.72687 0
M  V30 8021 H 789.911 -2.05186 4.827 0
M  V30 8022 H 791.385 -3.62708 4.16109 0
M  V30 8023 H 791.862 -3.63511 2.46487 0
M  V30 8024 H 792.468 -2.35537 3.54122 0
M  V30 8025 N 790.784 -1.46188 -0.588786 0
M  V30 8026 C 792.009 -1.5498 -1.37826 0
M  V30 8027 C 792.434 -0.189498 -1.87143 0
M  V30 8028 O 791.792 0.829293 -1.61222 0
M  V30 8029 C 791.84 -2.55369 -2.54596 0
M  V30 8030 O 790.944 -2.08452 -3.55839 0
M  V30 8031 H 790.285 -0.521741 -0.41071 0
M  V30 8032 H 792.815 -1.91708 -0.714779 0
M  V30 8033 H 792.825 -2.74782 -3.01594 0
M  V30 8034 H 791.5 -3.54155 -2.18052 0
M  V30 8035 H 790.077 -1.98999 -3.15363 0
M  V30 8036 N 792.262 0.832906 -1.33792 0
M  V30 8037 C 793.673 1.40489 -1.22963 0
M  V30 8038 C 794.024 1.95633 0.149026 0
M  V30 8039 O 793.149 1.8928 1.04891 0
M  V30 8040 C 793.744 2.55387 -2.22627 0
M  V30 8041 C 792.303 3.08522 -2.15618 0
M  V30 8042 C 791.45 1.81347 -2.09782 0
M  V30 8043 H 794.401 0.638156 -1.45304 0
M  V30 8044 H 794.422 3.33193 -1.83746 0
M  V30 8045 H 793.934 2.15222 -3.22957 0
M  V30 8046 H 792.035 3.53217 -1.18611 0
M  V30 8047 H 792.148 3.6829 -3.0643 0
M  V30 8048 H 790.512 2.01839 -1.55349 0
M  V30 8049 H 791.295 1.43369 -3.1193 0
M  V30 8050 N 793.74 1.17359 1.05189 0
M  V30 8051 C 795.151 0.96793 1.5965 0
M  V30 8052 C 795.502 -0.485355 1.90102 0
M  V30 8053 O 794.627 -1.36066 1.6827 0
M  V30 8054 C 795.222 1.75068 2.90063 0
M  V30 8055 C 793.781 1.58969 3.41183 0
M  V30 8056 C 792.928 1.75231 2.14917 0
M  V30 8057 H 795.879 1.32067 0.880001 0
M  V30 8058 H 795.9 1.23308 3.59966 0
M  V30 8059 H 795.412 2.80835 2.67868 0
M  V30 8060 H 793.513 0.556906 3.68415 0
M  V30 8061 H 793.626 2.38067 4.15766 0
M  V30 8062 H 791.99 1.18073 2.25679 0
M  V30 8063 H 792.773 2.8241 1.95191 0
M  V30 8064 N 795.218 -1.23913 0.973828 0
M  V30 8065 C 796.464 -1.92436 0.640026 0
M  V30 8066 C 796.797 -1.75875 -0.823512 0
M  V30 8067 O 796.072 -1.11563 -1.59323 0
M  V30 8068 C 796.355 -3.4526 1.0231 0
M  V30 8069 C 796.208 -3.70961 2.54378 0
M  V30 8070 C 797.527 -4.36495 0.562155 0
M  V30 8071 H 794.646 -0.698868 0.233992 0
M  V30 8072 H 797.288 -1.46163 1.21393 0
M  V30 8073 H 795.438 -3.84802 0.534751 0
M  V30 8074 H 797.11 -3.40941 3.10737 0
M  V30 8075 H 795.353 -3.15899 2.97305 0
M  V30 8076 H 796.024 -4.77912 2.76232 0
M  V30 8077 H 798.5 -4.04363 0.981333 0
M  V30 8078 H 797.376 -5.42142 0.858689 0
M  V30 8079 H 797.637 -4.38818 -0.537659 0
M  V30 8080 N 796.696 -0.74468 -1.38897 0
M  V30 8081 C 797.921 -0.306119 -2.05128 0
M  V30 8082 C 798.346 1.0541 -1.55789 0
M  V30 8083 O 797.704 1.66993 -0.705909 0
M  V30 8084 C 797.752 -0.328195 -3.59103 0
M  V30 8085 O 796.856 0.680876 -4.06741 0
M  V30 8086 H 796.197 -0.137209 -0.649669 0
M  V30 8087 H 798.727 -1.01331 -1.77745 0
M  V30 8088 H 798.737 -0.175956 -4.0762 0
M  V30 8089 H 797.412 -1.32067 -3.94374 0
M  V30 8090 H 795.989 0.49398 -3.69614 0
M  V30 8091 N 798.174 1.49689 -0.493057 0
M  V30 8092 C 799.59 1.58907 -0.148526 0
M  V30 8093 C 799.79 1.4991 1.34645 0
M  V30 8094 O 798.846 1.36893 2.12171 0
M  V30 8095 C 800.159 2.91996 -0.718265 0
M  V30 8096 C 801.707 3.05443 -0.683658 0
M  V30 8097 C 802.182 4.41138 -1.23132 0
M  V30 8098 N 803.673 4.47608 -1.19167 0
M  V30 8099 C 804.408 5.51038 -1.5857 0
M  V30 8100 N 803.904 6.61612 -2.05528 0
M  V30 8101 N 805.697 5.41706 -1.50036 0
M  V30 8102 H 797.848 1.5378 -1.46511 0
M  V30 8103 H 800.111 0.727996 -0.607228 0
M  V30 8104 H 799.817 3.04123 -1.7664 0
M  V30 8105 H 799.691 3.76798 -0.17419 0
M  V30 8106 H 802.078 2.92949 0.355626 0
M  V30 8107 H 802.159 2.22344 -1.26479 0
M  V30 8108 H 801.803 4.54382 -2.26935 0
M  V30 8109 H 801.733 5.22864 -0.626201 0
M  V30 8110 H 804.224 3.68274 -0.847524 0
M  V30 8111 H 804.537 7.36622 -2.33685 0
M  V30 8112 H 802.882 6.62674 -2.09497 0
M  V30 8113 H 806.073 4.54212 -1.13176 0
M  V30 8114 H 806.246 6.22188 -1.81068 0
M  V30 8115 N 799.652 0.226554 1.55963 0
M  V30 8116 C 800.9 -0.402991 1.98041 0
M  V30 8117 C 801.221 -1.59938 1.11557 0
M  V30 8118 O 800.491 -1.9494 0.193719 0
M  V30 8119 H 799.071 -0.15188 0.731397 0
M  V30 8120 H 801.733 0.320613 1.92245 0
M  V30 8121 H 800.829 -0.725937 3.0354 0
M  V30 8122 N 801.13 -1.57531 -0.0467866 0
M  V30 8123 C 802.06 -2.08425 -1.05268 0
M  V30 8124 C 803.041 -0.982941 -1.38825 0
M  V30 8125 O 804.226 -1.25716 -1.48018 0
M  V30 8126 C 801.356 -2.54897 -2.35891 0
M  V30 8127 C 800.31 -3.69132 -2.16623 0
M  V30 8128 C 799.636 -4.01747 -3.52851 0
M  V30 8129 C 800.936 -4.98243 -1.56689 0
M  V30 8130 H 802.63 -2.92716 -0.62908 0
M  V30 8131 H 800.176 -1.40816 -0.301156 0
M  V30 8132 H 802.129 -2.8912 -3.06574 0
M  V30 8133 H 800.853 -1.67666 -2.80278 0
M  V30 8134 H 799.512 -3.35231 -1.48377 0
M  V30 8135 H 799.16 -3.11608 -3.94853 0
M  V30 8136 H 798.86 -4.78681 -3.4079 0
M  V30 8137 H 800.384 -4.38487 -4.24925 0
M  V30 8138 H 801.798 -5.30535 -2.17268 0
M  V30 8139 H 800.195 -5.79669 -1.55255 0
M  V30 8140 H 801.265 -4.81986 -0.530827 0
M  V30 8141 N 802.608 0.318715 -1.54344 0
M  V30 8142 C 803.836 1.0755 -1.7675 0
M  V30 8143 C 804.251 1.81543 -0.518422 0
M  V30 8144 O 803.608 1.75198 0.511078 0
M  V30 8145 C 803.659 2.06983 -2.96378 0
M  V30 8146 O 803.38 1.35995 -4.16458 0
M  V30 8147 C 804.881 2.94841 -3.31034 0
M  V30 8148 H 802.101 0.319711 -0.589937 0
M  V30 8149 H 804.645 0.363369 -2.01246 0
M  V30 8150 H 802.8 2.73724 -2.74142 0
M  V30 8151 H 803.214 2.02623 -4.83781 0
M  V30 8152 H 804.688 3.60496 -4.18027 0
M  V30 8153 H 805.165 3.62199 -2.48412 0
M  V30 8154 H 805.771 2.33656 -3.55366 0
M  V30 8155 N 804.086 1.46499 0.581025 0
M  V30 8156 C 805.334 1.51596 1.33653 0
M  V30 8157 C 805.655 0.169859 1.94259 0
M  V30 8158 O 804.925 -0.803776 1.78651 0
M  V30 8159 H 803.505 0.558346 0.496244 0
M  V30 8160 H 806.167 1.8264 0.680338 0
M  V30 8161 H 805.263 2.26956 2.14237 0
M  V30 8162 N 805.565 -0.825799 1.34232 0
M  V30 8163 C 806.813 -1.57873 1.26177 0
M  V30 8164 C 807.134 -1.94267 -0.168904 0
M  V30 8165 O 806.404 -1.62045 -1.10084 0
M  V30 8166 H 804.984 -0.585388 0.464037 0
M  V30 8167 H 807.646 -0.986163 1.6811 0
M  V30 8168 H 806.742 -2.50283 1.86453 0
M  V30 8169 N 807.043 -1.17915 -1.04565 0
M  V30 8170 C 807.953 -0.916449 -2.15959 0
M  V30 8171 C 808.969 0.117655 -1.73602 0
M  V30 8172 O 810.145 -0.063089 -2.01301 0
M  V30 8173 C 807.21 -0.440262 -3.43893 0
M  V30 8174 C 806.271 -1.54172 -4.00661 0
M  V30 8175 C 805.504 -1.08816 -5.22489 0
M  V30 8176 O 805.727 0.0551547 -5.70373 0
M  V30 8177 O 804.661 -1.88383 -5.7166 0
M  V30 8178 H 808.487 -1.8484 -2.40972 0
M  V30 8179 H 806.072 -0.960552 -1.14428 0
M  V30 8180 H 807.954 -0.182537 -4.21004 0
M  V30 8181 H 806.629 0.46346 -3.20365 0
M  V30 8182 H 805.536 -1.85341 -3.24961 0
M  V30 8183 H 806.869 -2.42139 -4.2852 0
M  V30 8184 N 808.521 1.23394 -0.980386 0
M  V30 8185 C 809.77 1.91116 -0.644785 0
M  V30 8186 C 810.083 1.77333 0.825367 0
M  V30 8187 O 811.289 2.39858 1.27203 0
M  V30 8188 C 809.745 3.42592 -1.10266 0
M  V30 8189 C 809.353 3.65037 -2.59715 0
M  V30 8190 C 811.097 4.1609 -0.8408 0
M  V30 8191 C 809.004 5.10148 -2.9917 0
M  V30 8192 H 807.934 0.715632 -0.23746 0
M  V30 8193 H 810.585 1.39829 -1.18828 0
M  V30 8194 H 808.967 3.92989 -0.487372 0
M  V30 8195 H 810.141 3.25186 -3.26482 0
M  V30 8196 H 808.456 3.04849 -2.83647 0
M  V30 8197 H 811.053 5.23021 -1.11143 0
M  V30 8198 H 811.396 4.15702 0.223085 0
M  V30 8199 H 811.929 3.71681 -1.41767 0
M  V30 8200 H 808.668 5.15668 -4.04682 0
M  V30 8201 H 808.188 5.50949 -2.37097 0
M  V30 8202 H 809.867 5.7848 -2.89775 0
M  V30 8203 N 809.999 0.752036 1.385 0
M  V30 8204 C 811.245 0.307958 2.00448 0
M  V30 8205 C 811.578 -1.10702 1.59558 0
M  V30 8206 O 810.853 -1.75788 0.832391 0
M  V30 8207 C 811.136 0.429092 3.57534 0
M  V30 8208 C 810.989 1.88507 4.08393 0
M  V30 8209 C 812.308 -0.178442 4.39738 0
M  V30 8210 H 809.427 0.113373 0.728228 0
M  V30 8211 H 812.069 0.951389 1.64465 0
M  V30 8212 H 810.219 -0.118695 3.88319 0
M  V30 8213 H 811.891 2.49104 3.88259 0
M  V30 8214 H 810.134 2.40066 3.61318 0
M  V30 8215 H 810.805 1.92099 5.17496 0
M  V30 8216 H 813.281 0.28872 4.15097 0
M  V30 8217 H 812.157 -0.0634349 5.48863 0
M  V30 8218 H 812.418 -1.26655 4.23569 0
M  V30 8219 N 811.477 -1.49425 0.500989 0
M  V30 8220 C 812.44 -2.27646 -0.266416 0
M  V30 8221 C 813.44 -1.3366 -0.893961 0
M  V30 8222 O 814.63 -1.5682 -0.758495 0
M  V30 8223 C 811.762 -3.11618 -1.38227 0
M  V30 8224 H 812.955 -2.96945 0.419973 0
M  V30 8225 H 810.508 -1.5419 0.255954 0
M  V30 8226 H 811.243 -2.46885 -2.10281 0
M  V30 8227 H 811.028 -3.80721 -0.937746 0
M  V30 8228 H 812.518 -3.70698 -1.92283 0
M  V30 8229 N 812.955 -0.234822 -1.55841 0
M  V30 8230 C 814.201 0.393843 -1.98939 0
M  V30 8231 C 814.534 1.58466 -1.1226 0
M  V30 8232 O 813.809 1.93635 -0.183242 0
M  V30 8233 C 814.092 0.815492 -3.50745 0
M  V30 8234 C 813.945 -0.379878 -4.48193 0
M  V30 8235 C 815.264 1.66687 -4.07312 0
M  V30 8236 H 812.383 0.141681 -0.723253 0
M  V30 8237 H 815.025 -0.333716 -1.87046 0
M  V30 8238 H 813.175 1.43541 -3.6101 0
M  V30 8239 H 814.847 -1.0182 -4.49923 0
M  V30 8240 H 813.09 -1.02507 -4.21515 0
M  V30 8241 H 813.761 -0.0417069 -5.51984 0
M  V30 8242 H 816.237 1.14369 -4.00074 0
M  V30 8243 H 815.113 1.93078 -5.13821 0
M  V30 8244 H 815.374 2.63468 -3.55017 0
M  V30 8245 N 814.433 1.57553 0.0384317 0
M  V30 8246 C 815.682 1.88022 0.730108 0
M  V30 8247 C 815.995 0.83209 1.77019 0
M  V30 8248 O 817.201 1.0257 2.51379 0
M  V30 8249 C 815.657 3.33637 1.3496 0
M  V30 8250 C 815.265 4.46659 0.346352 0
M  V30 8251 C 817.009 3.73266 2.02169 0
M  V30 8252 C 814.916 5.8333 0.973652 0
M  V30 8253 H 813.846 0.701496 0.276442 0
M  V30 8254 H 816.497 1.83493 -0.0158028 0
M  V30 8255 H 814.879 3.32882 2.1449 0
M  V30 8256 H 816.053 4.58868 -0.421558 0
M  V30 8257 H 814.368 4.15802 -0.223133 0
M  V30 8258 H 816.965 4.72689 2.49938 0
M  V30 8259 H 817.308 3.04776 2.8358 0
M  V30 8260 H 817.841 3.76156 1.29427 0
M  V30 8261 H 814.58 6.55197 0.199163 0
M  V30 8262 H 814.1 5.7486 1.71162 0
M  V30 8263 H 815.779 6.29757 1.48376 0
M  V30 8264 N 815.911 -0.310526 1.54511 0
M  V30 8265 C 817.158 -1.04691 1.73338 0
M  V30 8266 C 817.486 -1.87584 0.514038 0
M  V30 8267 O 816.741 -1.89096 -0.504119 0
M  V30 8268 C 817.04 -1.98942 2.96912 0
M  V30 8269 C 816.706 -1.321 4.31115 0
M  V30 8270 C 815.368 -1.13603 4.67598 0
M  V30 8271 C 817.72 -0.842362 5.14348 0
M  V30 8272 C 815.048 -0.459102 5.84901 0
M  V30 8273 C 817.4 -0.179202 6.32346 0
M  V30 8274 C 816.064 0.0178111 6.67498 0
M  V30 8275 H 815.334 -0.38309 0.634289 0
M  V30 8276 H 817.981 -0.322723 1.88761 0
M  V30 8277 H 816.286 -2.77856 2.76231 0
M  V30 8278 H 817.983 -2.55972 3.08674 0
M  V30 8279 H 814.573 -1.47502 4.02419 0
M  V30 8280 H 818.757 -0.973013 4.86668 0
M  V30 8281 H 814.013 -0.295385 6.10686 0
M  V30 8282 H 818.187 0.199619 6.96114 0
M  V30 8283 H 815.814 0.544356 7.58249 0
M  V30 8284 N 817.389 -1.46805 -0.573248 0
M  V30 8285 C 818.637 -1.52302 -1.32847 0
M  V30 8286 C 818.958 -0.180159 -1.94166 0
M  V30 8287 O 818.228 0.794291 -1.79075 0
M  V30 8288 H 816.808 -0.56097 -0.493276 0
M  V30 8289 H 819.47 -1.82998 -0.670642 0
M  V30 8290 H 818.566 -2.28089 -2.13031 0
M  V30 8291 N 818.867 0.818669 -1.34668 0
M  V30 8292 C 819.797 1.94468 -1.29245 0
M  V30 8293 C 820.778 1.69257 -0.169101 0
M  V30 8294 O 821.963 1.90794 -0.362143 0
M  V30 8295 C 819.093 3.31001 -1.05145 0
M  V30 8296 C 818.047 3.70663 -2.13992 0
M  V30 8297 C 817.373 5.05226 -1.75074 0
M  V30 8298 C 818.673 3.82312 -3.55858 0
M  V30 8299 H 820.367 1.99263 -2.2346 0
M  V30 8300 H 817.913 0.957304 -1.07572 0
M  V30 8301 H 819.866 4.09364 -0.999949 0
M  V30 8302 H 818.59 3.26517 -0.0737312 0
M  V30 8303 H 817.249 2.94578 -2.18219 0
M  V30 8304 H 816.897 4.97233 -0.759518 0
M  V30 8305 H 816.597 5.32734 -2.47928 0
M  V30 8306 H 818.121 5.86042 -1.71427 0
M  V30 8307 H 819.535 4.50935 -3.5402 0
M  V30 8308 H 817.932 4.21278 -4.2737 0
M  V30 8309 H 819.002 2.84193 -3.9289 0
M  V30 8310 N 820.346 1.18468 1.03938 0
M  V30 8311 C 821.276 0.936389 2.13902 0
M  V30 8312 C 822.257 -0.126381 1.6963 0
M  V30 8313 O 823.442 0.0264757 1.94182 0
M  V30 8314 C 820.572 0.462729 3.44204 0
M  V30 8315 C 819.526 1.46613 4.02105 0
M  V30 8316 C 818.852 0.84994 5.27902 0
M  V30 8317 C 820.152 2.84323 4.3813 0
M  V30 8318 H 821.846 1.85602 2.3493 0
M  V30 8319 H 819.392 0.893806 1.12903 0
M  V30 8320 H 821.345 0.276382 4.20493 0
M  V30 8321 H 820.069 -0.492477 3.22866 0
M  V30 8322 H 818.728 1.63944 3.27899 0
M  V30 8323 H 818.376 -0.112493 5.02874 0
M  V30 8324 H 818.076 1.51988 5.67603 0
M  V30 8325 H 819.6 0.674152 6.06867 0
M  V30 8326 H 821.014 2.70636 5.054 0
M  V30 8327 H 819.411 3.48012 4.88884 0
M  V30 8328 H 820.481 3.37776 3.47901 0
M  V30 8329 N 821.824 -1.22873 0.986916 0
M  V30 8330 C 822.754 -2.2688 0.552064 0
M  V30 8331 C 823.735 -1.64883 -0.418048 0
M  V30 8332 O 824.92 -1.9171 -0.30999 0
M  V30 8333 C 822.05 -3.47018 -0.139959 0
M  V30 8334 C 821.004 -4.21411 0.748091 0
M  V30 8335 C 820.33 -5.34645 -0.0765132 0
M  V30 8336 C 821.63 -4.80726 2.04206 0
M  V30 8337 H 823.324 -2.63507 1.42143 0
M  V30 8338 H 820.87 -1.26668 0.68492 0
M  V30 8339 H 822.823 -4.18931 -0.455527 0
M  V30 8340 H 821.547 -3.0947 -1.04382 0
M  V30 8341 H 820.206 -3.51325 1.04721 0
M  V30 8342 H 819.854 -4.93339 -0.981109 0
M  V30 8343 H 819.554 -5.85342 0.514606 0
M  V30 8344 H 821.078 -6.09377 -0.386313 0
M  V30 8345 H 822.492 -5.44612 1.79083 0
M  V30 8346 H 820.889 -5.41737 2.5815 0
M  V30 8347 H 821.959 -4.01109 2.72469 0
M  V30 8348 N 823.302 -0.75937 -1.38099 0
M  V30 8349 C 824.55 -0.317485 -1.99591 0
M  V30 8350 C 824.871 1.10628 -1.60581 0
M  V30 8351 O 824.141 1.7575 -0.865378 0
M  V30 8352 H 822.721 -0.114397 -0.738189 0
M  V30 8353 H 825.383 -0.974749 -1.68774 0
M  V30 8354 H 824.479 -0.385227 -3.09713 0
M  V30 8355 N 824.78 1.49157 -0.508906 0
M  V30 8356 C 825.743 2.27784 0.25434 0
M  V30 8357 C 826.743 1.34132 0.88686 0
M  V30 8358 O 827.933 1.5722 0.750168 0
M  V30 8359 C 825.065 3.12347 1.36573 0
M  V30 8360 H 826.258 2.96718 -0.435714 0
M  V30 8361 H 823.811 1.54052 -0.264128 0
M  V30 8362 H 824.546 2.47997 2.08969 0
M  V30 8363 H 824.331 3.81213 0.917543 0
M  V30 8364 H 825.821 3.71712 1.90315 0
M  V30 8365 N 826.258 0.243083 1.55714 0
M  V30 8366 C 827.221 -0.644723 2.19945 0
M  V30 8367 C 828.221 -1.10562 1.16759 0
M  V30 8368 O 829.411 -1.01095 1.41865 0
M  V30 8369 C 826.543 -1.88569 2.83997 0
M  V30 8370 H 827.736 -0.0843839 2.99781 0
M  V30 8371 H 825.289 -0.00647246 1.56299 0
M  V30 8372 H 826.024 -2.48736 2.08089 0
M  V30 8373 H 825.809 -1.56345 3.59581 0
M  V30 8374 H 827.299 -2.51774 3.33166 0
M  V30 8375 N 827.736 -1.57571 -0.0300757 0
M  V30 8376 C 828.666 -2.0953 -1.03051 0
M  V30 8377 C 829.647 -0.99761 -1.37774 0
M  V30 8378 O 830.832 -1.27279 -1.46676 0
M  V30 8379 C 827.962 -2.57385 -2.33174 0
M  V30 8380 C 826.916 -3.71409 -2.12696 0
M  V30 8381 C 826.242 -4.05467 -3.4857 0
M  V30 8382 C 827.542 -4.99877 -1.51396 0
M  V30 8383 H 829.236 -2.93367 -0.597999 0
M  V30 8384 H 826.782 -1.41127 -0.286203 0
M  V30 8385 H 828.735 -2.92355 -3.03491 0
M  V30 8386 H 827.459 -1.70629 -2.78484 0
M  V30 8387 H 826.118 -3.36786 -1.44813 0
M  V30 8388 H 825.766 -3.15779 -3.91526 0
M  V30 8389 H 825.466 -4.82269 -3.35694 0
M  V30 8390 H 826.99 -4.4297 -4.2025 0
M  V30 8391 H 828.404 -5.3281 -2.11629 0
M  V30 8392 H 826.801 -5.81283 -1.49098 0
M  V30 8393 H 827.871 -4.82522 -0.479676 0
M  V30 8394 N 829.214 0.302327 -1.54673 0
M  V30 8395 C 830.144 1.37759 -1.88533 0
M  V30 8396 C 831.125 1.52961 -0.744113 0
M  V30 8397 O 832.31 1.6649 -0.999731 0
M  V30 8398 C 829.44 2.74201 -2.13146 0
M  V30 8399 C 828.394 2.73765 -3.28993 0
M  V30 8400 C 827.72 4.13483 -3.39022 0
M  V30 8401 C 829.02 2.35624 -4.66132 0
M  V30 8402 H 830.714 1.0967 -2.78591 0
M  V30 8403 H 828.26 0.52613 -1.34044 0
M  V30 8404 H 830.213 3.49508 -2.35419 0
M  V30 8405 H 828.937 3.03812 -1.19858 0
M  V30 8406 H 827.596 2.00914 -3.06642 0
M  V30 8407 H 827.244 4.40269 -2.43253 0
M  V30 8408 H 826.944 4.14093 -4.16894 0
M  V30 8409 H 828.468 4.90572 -3.63553 0
M  V30 8410 H 829.882 3.00647 -4.88143 0
M  V30 8411 H 828.279 2.47449 -5.46707 0
M  V30 8412 H 829.349 1.30753 -4.66939 0
M  V30 8413 N 830.692 1.47107 0.565454 0
M  V30 8414 C 831.622 1.61846 1.68309 0
M  V30 8415 C 832.603 0.468159 1.63531 0
M  V30 8416 O 833.788 0.696504 1.8128 0
M  V30 8417 C 830.918 1.62474 3.06952 0
M  V30 8418 C 829.872 2.76649 3.26572 0
M  V30 8419 C 829.198 2.62345 4.65917 0
M  V30 8420 C 830.498 4.18319 3.12741 0
M  V30 8421 H 832.192 2.55407 1.5623 0
M  V30 8422 H 829.738 1.22916 0.750179 0
M  V30 8423 H 831.691 1.71378 3.84977 0
M  V30 8424 H 830.415 0.654692 3.19971 0
M  V30 8425 H 829.074 2.67242 2.50952 0
M  V30 8426 H 828.722 1.63386 4.75725 0
M  V30 8427 H 828.422 3.38936 4.79996 0
M  V30 8428 H 829.946 2.73165 5.46089 0
M  V30 8429 H 831.36 4.28745 3.80593 0
M  V30 8430 H 829.757 4.95632 3.38333 0
M  V30 8431 H 830.827 4.37263 2.09592 0
M  V30 8432 N 832.17 -0.811516 1.35101 0
M  V30 8433 C 833.418 -1.56525 1.27845 0
M  V30 8434 C 833.739 -1.94435 -0.14829 0
M  V30 8435 O 833.009 -1.63203 -1.08359 0
M  V30 8436 H 831.589 -0.580433 0.47022 0
M  V30 8437 H 834.251 -0.968277 1.69146 0
M  V30 8438 H 833.347 -2.48291 1.89097 0
M  V30 8439 N 833.648 -1.19017 -1.03309 0
M  V30 8440 C 834.897 -0.984542 -1.76039 0
M  V30 8441 C 835.21 0.485937 -1.89468 0
M  V30 8442 O 836.416 0.810278 -2.59127 0
M  V30 8443 C 834.872 -1.71261 -3.1654 0
M  V30 8444 C 834.48 -3.22291 -3.11179 0
M  V30 8445 C 836.224 -1.59007 -3.93595 0
M  V30 8446 C 834.131 -3.87704 -4.46587 0
M  V30 8447 H 833.061 -0.364749 -0.659905 0
M  V30 8448 H 835.712 -1.4247 -1.15649 0
M  V30 8449 H 834.094 -1.20025 -3.77373 0
M  V30 8450 H 835.268 -3.80611 -2.59753 0
M  V30 8451 H 833.583 -3.34772 -2.47622 0
M  V30 8452 H 836.18 -2.05232 -4.93745 0
M  V30 8453 H 836.523 -0.543534 -4.12736 0
M  V30 8454 H 837.056 -2.07564 -3.39355 0
M  V30 8455 H 833.795 -4.92437 -4.3265 0
M  V30 8456 H 833.315 -3.34172 -4.98085 0
M  V30 8457 H 834.994 -3.91008 -5.15482 0
M  V30 8458 N 835.127 1.22348 -0.993418 0
M  V30 8459 C 836.057 2.26584 -0.564088 0
M  V30 8460 C 837.038 1.65102 0.409298 0
M  V30 8461 O 838.223 1.91872 0.299819 0
M  V30 8462 C 835.353 3.47087 0.121554 0
M  V30 8463 C 834.307 4.21009 -0.770429 0
M  V30 8464 C 833.633 5.34678 0.0481586 0
M  V30 8465 C 834.933 4.79636 -2.06752 0
M  V30 8466 H 836.627 2.62749 -1.43538 0
M  V30 8467 H 834.173 1.26303 -0.691628 0
M  V30 8468 H 836.126 4.19166 0.433303 0
M  V30 8469 H 834.85 3.1002 1.0274 0
M  V30 8470 H 833.509 3.50764 -1.06583 0
M  V30 8471 H 833.157 4.93852 0.954933 0
M  V30 8472 H 832.857 5.85061 -0.545641 0
M  V30 8473 H 834.381 6.09573 0.353991 0
M  V30 8474 H 835.795 5.43654 -1.81969 0
M  V30 8475 H 834.192 5.4036 -2.61019 0
M  V30 8476 H 835.262 3.99659 -2.74592 0
M  V30 8477 N 836.605 0.766683 1.37694 0
M  V30 8478 C 837.851 0.329201 2.0011 0
M  V30 8479 C 838.184 -1.09004 1.60723 0
M  V30 8480 O 837.459 -1.74895 0.850989 0
M  V30 8481 C 837.742 0.466989 3.57059 0
M  V30 8482 C 837.595 1.92828 4.06371 0
M  V30 8483 C 838.914 -0.131792 4.39903 0
M  V30 8484 H 836.033 0.12109 0.726984 0
M  V30 8485 H 838.675 0.968779 1.63446 0
M  V30 8486 H 836.825 -0.0775023 3.88423 0
M  V30 8487 H 838.497 2.53208 3.85595 0
M  V30 8488 H 836.74 2.43884 3.58752 0
M  V30 8489 H 837.411 1.97577 5.15429 0
M  V30 8490 H 839.887 0.332731 4.14768 0
M  V30 8491 H 838.763 -0.005217 5.489 0
M  V30 8492 H 839.024 -1.22156 4.24889 0
M  V30 8493 N 838.083 -1.48885 0.516809 0
M  V30 8494 C 839.33 -2.02488 -0.0220602 0
M  V30 8495 C 839.658 -1.39513 -1.35523 0
M  V30 8496 O 838.913 -0.52558 -1.8851 0
M  V30 8497 C 839.212 -3.56801 -0.206798 0
M  V30 8498 C 838.878 -4.38496 1.05035 0
M  V30 8499 C 837.54 -4.60538 1.39492 0
M  V30 8500 C 839.892 -4.85909 1.88525 0
M  V30 8501 C 837.22 -5.2724 2.57361 0
M  V30 8502 C 839.572 -5.53909 3.05561 0
M  V30 8503 C 838.236 -5.74193 3.4038 0
M  V30 8504 H 837.506 -0.740956 -0.00807238 0
M  V30 8505 H 840.153 -1.79014 0.680168 0
M  V30 8506 H 838.458 -3.79042 -0.991687 0
M  V30 8507 H 840.155 -3.95885 -0.638447 0
M  V30 8508 H 836.745 -4.2159 0.771984 0
M  V30 8509 H 840.929 -4.68694 1.63218 0
M  V30 8510 H 836.185 -5.41145 2.84556 0
M  V30 8511 H 840.359 -5.89619 3.7057 0
M  V30 8512 H 837.986 -6.25652 4.31814 0
M  V30 8513 N 839.561 -0.251338 -1.55583 0
M  V30 8514 C 840.977 0.103409 -1.59265 0
M  V30 8515 C 841.177 1.56559 -1.26852 0
M  V30 8516 O 840.233 2.31071 -1.01796 0
M  V30 8517 C 841.546 -0.249781 -2.99661 0
M  V30 8518 C 843.094 -0.194442 -3.12395 0
M  V30 8519 C 843.569 -0.521728 -4.55019 0
M  V30 8520 N 845.06 -0.472393 -4.60785 0
M  V30 8521 C 845.795 -0.698737 -5.69127 0
M  V30 8522 N 845.291 -0.988443 -6.85713 0
M  V30 8523 N 847.084 -0.629143 -5.58568 0
M  V30 8524 H 839.235 -1.20484 -1.74921 0
M  V30 8525 H 841.498 -0.485092 -0.814488 0
M  V30 8526 H 841.204 -1.26577 -3.28133 0
M  V30 8527 H 841.078 0.420973 -3.74844 0
M  V30 8528 H 843.465 0.812229 -2.83702 0
M  V30 8529 H 843.546 -0.899111 -2.39478 0
M  V30 8530 H 843.19 -1.52597 -4.84434 0
M  V30 8531 H 843.12 0.204468 -5.26203 0
M  V30 8532 H 845.611 -0.257386 -3.77022 0
M  V30 8533 H 845.924 -1.14846 -7.64219 0
M  V30 8534 H 844.269 -1.02596 -6.87386 0
M  V30 8535 H 847.46 -0.402826 -4.66364 0
M  V30 8536 H 847.633 -0.808935 -6.42931 0
M  V30 8537 N 841.039 1.57585 0.0217189 0
M  V30 8538 C 842.264 1.94267 0.726309 0
M  V30 8539 C 842.689 0.851904 1.67703 0
M  V30 8540 O 842.047 -0.191792 1.80283 0
M  V30 8541 C 842.095 3.30023 1.45318 0
M  V30 8542 O 841.199 3.22791 2.5667 0
M  V30 8543 H 840.54 0.634777 0.194818 0
M  V30 8544 H 843.07 2.04585 -0.0249985 0
M  V30 8545 H 843.08 3.65084 1.82147 0
M  V30 8546 H 841.755 4.08972 0.755962 0
M  V30 8547 H 840.332 2.99373 2.2233 0
M  V30 8548 N 842.517 -0.29412 1.54831 0
M  V30 8549 C 843.933 -0.640167 1.46199 0
M  V30 8550 C 844.133 -1.90426 0.658798 0
M  V30 8551 O 843.189 -2.51932 0.169228 0
M  V30 8552 C 844.502 -0.786763 2.90225 0
M  V30 8553 C 846.05 -0.882201 3.0031 0
M  V30 8554 C 846.525 -1.06074 4.45547 0
M  V30 8555 N 848.016 -1.12678 4.49286 0
M  V30 8556 C 848.751 -1.28334 5.58854 0
M  V30 8557 N 848.247 -1.40845 6.78332 0
M  V30 8558 N 850.04 -1.31277 5.46555 0
M  V30 8559 H 842.191 0.536334 2.05517 0
M  V30 8560 H 844.454 0.178363 0.93107 0
M  V30 8561 H 844.16 0.0713018 3.51628 0
M  V30 8562 H 844.034 -1.67364 3.38037 0
M  V30 8563 H 846.421 -1.73075 2.39017 0
M  V30 8564 H 846.502 0.0288405 2.55784 0
M  V30 8565 H 846.146 -0.216935 5.07437 0
M  V30 8566 H 846.076 -1.98611 4.8771 0
M  V30 8567 H 848.567 -1.04335 3.63212 0
M  V30 8568 H 848.88 -1.52566 7.57591 0
M  V30 8569 H 847.225 -1.37888 6.81184 0
M  V30 8570 H 850.416 -1.2112 4.52159 0
M  V30 8571 H 850.589 -1.43136 6.31994 0
M  V30 8572 N 843.995 -1.47404 -0.557645 0
M  V30 8573 C 845.411 -1.32913 -0.88353 0
M  V30 8574 C 845.611 -0.31929 -1.98954 0
M  V30 8575 O 844.667 0.26934 -2.51059 0
M  V30 8576 C 845.98 -2.72229 -1.27718 0
M  V30 8577 C 847.528 -2.8051 -1.38863 0
M  V30 8578 C 848.003 -4.20466 -1.81583 0
M  V30 8579 N 849.494 -4.23005 -1.88735 0
M  V30 8580 C 850.229 -5.2821 -2.23118 0
M  V30 8581 N 849.725 -6.4372 -2.56117 0
M  V30 8582 N 851.518 -5.15588 -2.23888 0
M  V30 8583 H 843.669 -2.11698 0.172557 0
M  V30 8584 H 845.932 -0.947889 0.0145334 0
M  V30 8585 H 845.638 -3.47556 -0.538329 0
M  V30 8586 H 845.512 -3.03971 -2.23342 0
M  V30 8587 H 847.899 -2.05457 -2.11829 0
M  V30 8588 H 847.98 -2.52423 -0.414274 0
M  V30 8589 H 847.624 -4.96025 -1.09187 0
M  V30 8590 H 847.554 -4.45977 -2.80021 0
M  V30 8591 H 850.045 -3.39674 -1.65621 0
M  V30 8592 H 850.358 -7.19754 -2.81378 0
M  V30 8593 H 848.703 -6.47041 -2.53698 0
M  V30 8594 H 851.894 -4.24374 -1.97546 0
M  V30 8595 H 852.067 -5.97685 -2.50353 0
M  V30 8596 N 845.473 0.80434 -1.35529 0
M  V30 8597 C 846.436 1.89788 -1.28503 0
M  V30 8598 C 847.436 1.59601 -0.195983 0
M  V30 8599 O 848.626 1.68292 -0.449827 0
M  V30 8600 C 845.758 3.26255 -0.98847 0
M  V30 8601 H 846.951 1.97436 -2.25741 0
M  V30 8602 H 844.504 1.00046 -1.20086 0
M  V30 8603 H 845.239 3.24294 -0.0200541 0
M  V30 8604 H 845.024 3.49551 -1.77641 0
M  V30 8605 H 846.514 4.06298 -0.964975 0
M  V30 8606 N 846.951 1.19563 1.02676 0
M  V30 8607 C 847.883 0.893054 2.11086 0
M  V30 8608 C 848.896 -0.115101 1.62393 0
M  V30 8609 O 850.085 0.11459 1.78132 0
M  V30 8610 C 847.185 0.315533 3.37428 0
M  V30 8611 C 846.358 1.37276 4.153 0
M  V30 8612 C 845.417 0.808398 5.19953 0
M  V30 8613 O 844.443 1.48661 5.49444 0
M  V30 8614 N 845.645 -0.387253 5.79207 0
M  V30 8615 H 848.41 1.82622 2.37633 0
M  V30 8616 H 845.971 1.09792 1.18984 0
M  V30 8617 H 847.963 -0.0759166 4.04629 0
M  V30 8618 H 846.533 -0.521961 3.08211 0
M  V30 8619 H 845.753 1.93897 3.43217 0
M  V30 8620 H 847.041 2.08509 4.64114 0
M  V30 8621 H 846.439 -0.955725 5.57568 0
M  V30 8622 H 844.996 -0.720457 6.47806 0
M  V30 8623 N 848.429 -1.21819 0.999893 0
M  V30 8624 C 849.845 -1.42847 0.711824 0
M  V30 8625 C 850.045 -1.88391 -0.714928 0
M  V30 8626 O 849.101 -2.0422 -1.48494 0
M  V30 8627 C 850.414 -2.46417 1.72334 0
M  V30 8628 C 851.962 -2.60207 1.73958 0
M  V30 8629 C 852.437 -3.67005 2.73992 0
M  V30 8630 N 853.928 -3.7447 2.72628 0
M  V30 8631 C 854.663 -4.56718 3.46693 0
M  V30 8632 N 854.159 -5.42904 4.3038 0
M  V30 8633 N 855.952 -4.51094 3.35366 0
M  V30 8634 H 848.103 -0.905656 1.92124 0
M  V30 8635 H 850.366 -0.459893 0.828977 0
M  V30 8636 H 850.072 -2.19914 2.74465 0
M  V30 8637 H 849.946 -3.45137 1.52186 0
M  V30 8638 H 852.333 -2.8605 0.725217 0
M  V30 8639 H 852.414 -1.61739 1.98177 0
M  V30 8640 H 852.058 -3.41908 3.75582 0
M  V30 8641 H 851.988 -4.65058 2.4704 0
M  V30 8642 H 854.479 -3.12895 2.11909 0
M  V30 8643 H 854.792 -6.02704 4.83702 0
M  V30 8644 H 853.137 -5.42463 4.34464 0
M  V30 8645 H 856.328 -3.82791 2.69423 0
M  V30 8646 H 856.501 -5.1496 3.93344 0
M  V30 8647 N 849.908 -0.773975 -1.37286 0
M  V30 8648 C 850.84 -0.119938 -2.28886 0
M  V30 8649 C 851.853 0.661822 -1.48741 0
M  V30 8650 O 853.042 0.499548 -1.71367 0
M  V30 8651 C 850.142 0.853703 -3.27971 0
M  V30 8652 C 849.315 0.125286 -4.37221 0
M  V30 8653 C 848.374 1.01261 -5.16365 0
M  V30 8654 O 847.4 0.475565 -5.6721 0
M  V30 8655 N 848.602 2.33864 -5.31308 0
M  V30 8656 H 851.367 -0.906702 -2.85655 0
M  V30 8657 H 848.928 -0.626519 -1.49286 0
M  V30 8658 H 850.92 1.4508 -3.77801 0
M  V30 8659 H 849.49 1.54142 -2.71954 0
M  V30 8660 H 848.71 -0.652742 -3.88758 0
M  V30 8661 H 849.998 -0.377959 -5.07394 0
M  V30 8662 H 849.396 2.79929 -4.91585 0
M  V30 8663 H 847.953 2.88575 -5.84438 0
M  V30 8664 N 851.386 1.48609 -0.524698 0
M  V30 8665 C 852.802 1.58557 -0.182199 0
M  V30 8666 C 853.002 1.52732 1.31435 0
M  V30 8667 O 852.058 1.41362 2.0922 0
M  V30 8668 C 853.371 2.90406 -0.78004 0
M  V30 8669 C 854.919 3.03924 -0.748293 0
M  V30 8670 C 855.394 4.38427 -1.32462 0
M  V30 8671 N 856.885 4.4498 -1.28635 0
M  V30 8672 C 857.62 5.47551 -1.70223 0
M  V30 8673 N 857.116 6.57103 -2.19515 0
M  V30 8674 N 858.909 5.38402 -1.61493 0
M  V30 8675 H 851.06 1.50638 -1.4974 0
M  V30 8676 H 853.323 0.714952 -0.622533 0
M  V30 8677 H 853.029 3.00308 -1.83052 0
M  V30 8678 H 852.903 3.76343 -0.254075 0
M  V30 8679 H 855.29 2.93638 0.293407 0
M  V30 8680 H 855.371 2.19611 -1.31167 0
M  V30 8681 H 855.015 4.49466 -2.36522 0
M  V30 8682 H 854.945 5.21418 -0.736967 0
M  V30 8683 H 857.436 3.66393 -0.92545 0
M  V30 8684 H 857.749 7.31499 -2.49257 0
M  V30 8685 H 856.094 6.58081 -2.23506 0
M  V30 8686 H 859.285 4.5171 -1.22785 0
M  V30 8687 H 859.458 6.18208 -1.94225 0
M  V30 8688 N 852.864 0.259585 1.55447 0
M  V30 8689 C 853.796 -0.667548 2.19263 0
M  V30 8690 C 854.809 -1.12925 1.17268 0
M  V30 8691 O 855.998 -1.05384 1.44071 0
M  V30 8692 C 853.098 -1.92066 2.7922 0
M  V30 8693 C 852.271 -1.60832 4.06758 0
M  V30 8694 C 851.33 -2.71231 4.50911 0
M  V30 8695 O 850.356 -2.38077 5.17019 0
M  V30 8696 N 851.558 -4.00984 4.19752 0
M  V30 8697 H 854.323 -0.121449 2.99454 0
M  V30 8698 H 851.884 0.0800519 1.61702 0
M  V30 8699 H 853.876 -2.65186 3.0571 0
M  V30 8700 H 852.446 -2.37621 2.03113 0
M  V30 8701 H 851.666 -0.711685 3.87722 0
M  V30 8702 H 852.954 -1.37445 4.89884 0
M  V30 8703 H 852.352 -4.30748 3.66706 0
M  V30 8704 H 850.909 -4.7053 4.51048 0
M  V30 8705 N 854.342 -1.57594 -0.0133615 0
M  V30 8706 C 855.274 -2.04402 -1.03695 0
M  V30 8707 C 856.287 -0.959546 -1.31516 0
M  V30 8708 O 857.476 -1.23659 -1.28727 0
M  V30 8709 C 854.576 -2.41766 -2.37491 0
M  V30 8710 C 853.749 -3.72785 -2.28802 0
M  V30 8711 C 852.808 -3.97165 -3.45176 0
M  V30 8712 O 851.834 -4.68013 -3.23963 0
M  V30 8713 N 853.036 -3.44021 -4.67579 0
M  V30 8714 H 855.801 -2.92833 -0.637874 0
M  V30 8715 H 853.362 -1.60647 -0.20101 0
M  V30 8716 H 855.354 -2.55201 -3.14093 0
M  V30 8717 H 853.924 -1.58924 -2.69188 0
M  V30 8718 H 853.144 -3.69555 -1.37197 0
M  V30 8719 H 854.432 -4.58704 -2.20154 0
M  V30 8720 H 853.83 -2.86623 -4.87713 0
M  V30 8721 H 852.387 -3.62808 -5.41492 0
M  V30 8722 N 855.82 0.285905 -1.54985 0
M  V30 8723 C 857.236 0.632405 -1.46536 0
M  V30 8724 C 857.436 1.90074 -0.668888 0
M  V30 8725 O 856.492 2.51839 -0.182586 0
M  V30 8726 C 857.805 0.771361 -2.90638 0
M  V30 8727 C 859.353 0.866262 -3.00774 0
M  V30 8728 C 859.828 1.0371 -4.46103 0
M  V30 8729 N 861.319 1.10294 -4.49877 0
M  V30 8730 C 862.054 1.25369 -5.59527 0
M  V30 8731 N 861.55 1.37246 -6.7907 0
M  V30 8732 N 863.343 1.28377 -5.47244 0
M  V30 8733 H 855.494 -0.547226 -2.0523 0
M  V30 8734 H 857.757 -0.183298 -0.930111 0
M  V30 8735 H 857.463 -0.0899485 -3.51585 0
M  V30 8736 H 857.337 1.65569 -3.3892 0
M  V30 8737 H 859.724 1.71805 -2.39931 0
M  V30 8738 H 859.805 -0.0424049 -2.55765 0
M  V30 8739 H 859.449 0.190021 -5.07544 0
M  V30 8740 H 859.379 1.96022 -4.88757 0
M  V30 8741 H 861.87 1.02407 -3.6376 0
M  V30 8742 H 862.183 1.48546 -7.58389 0
M  V30 8743 H 860.528 1.34274 -6.81906 0
M  V30 8744 H 863.719 1.1872 -4.52795 0
M  V30 8745 H 863.892 1.39782 -6.32744 0
M  V30 8746 N 857.298 1.47698 0.54982 0
M  V30 8747 C 858.23 1.56806 1.67166 0
M  V30 8748 C 859.243 0.453709 1.5635 0
M  V30 8749 O 860.432 0.723663 1.63173 0
M  V30 8750 C 857.532 1.4632 3.05686 0
M  V30 8751 C 856.705 2.72452 3.42182 0
M  V30 8752 C 855.764 2.55698 4.59897 0
M  V30 8753 O 854.79 3.29534 4.64108 0
M  V30 8754 N 855.992 1.64009 5.56849 0
M  V30 8755 H 858.757 2.53545 1.59797 0
M  V30 8756 H 856.318 1.44171 0.736635 0
M  V30 8757 H 858.31 1.32835 3.82279 0
M  V30 8758 H 856.88 0.57634 3.07241 0
M  V30 8759 H 856.1 3.00644 2.54964 0
M  V30 8760 H 857.388 3.56172 3.63344 0
M  V30 8761 H 856.786 1.03186 5.5621 0
M  V30 8762 H 855.343 1.56473 6.3274 0
M  V30 8763 N 858.776 -0.797141 1.35954 0
M  V30 8764 C 860.192 -1.09408 1.16198 0
M  V30 8765 C 860.392 -2.01491 -0.0191682 0
M  V30 8766 O 859.448 -2.42977 -0.686902 0
M  V30 8767 C 860.761 -1.71597 2.46931 0
M  V30 8768 C 862.309 -1.83974 2.53224 0
M  V30 8769 C 862.784 -2.49579 3.84024 0
M  V30 8770 N 864.275 -2.57055 3.85327 0
M  V30 8771 C 865.01 -3.08608 4.83268 0
M  V30 8772 N 864.506 -3.60527 5.91601 0
M  V30 8773 N 866.299 -3.07249 4.70696 0
M  V30 8774 H 858.45 -0.185209 2.11591 0
M  V30 8775 H 860.713 -0.144768 0.936881 0
M  V30 8776 H 860.419 -1.11404 3.3359 0
M  V30 8777 H 860.293 -2.71193 2.62172 0
M  V30 8778 H 862.68 -2.43308 1.66988 0
M  V30 8779 H 862.761 -0.83207 2.41889 0
M  V30 8780 H 862.405 -1.90892 4.70662 0
M  V30 8781 H 862.335 -3.50902 3.92651 0
M  V30 8782 H 864.826 -2.20283 3.07057 0
M  V30 8783 H 865.139 -3.98192 6.62317 0
M  V30 8784 H 863.484 -3.587 5.95281 0
M  V30 8785 H 866.675 -2.65972 3.85197 0
M  V30 8786 H 866.848 -3.47119 5.47186 0
M  V30 8787 N 860.254 -1.20106 -1.0204 0
M  V30 8788 C 861.531 -0.918029 -1.72718 0
M  V30 8789 C 861.911 0.574163 -2.03142 0
M  V30 8790 O 861.259 1.53476 -1.69285 0
M  V30 8791 C 861.469 -1.78698 -2.9978 0
M  V30 8792 C 862.817 -2.02648 -3.7312 0
M  V30 8793 O 863.841 -1.75919 -3.09727 0
M  V30 8794 O 862.7 -2.47767 -4.87107 0
M  V30 8795 H 859.794 -0.342904 -0.752559 0
M  V30 8796 H 862.34 -1.30961 -1.07923 0
M  V30 8797 H 861.112 -2.79757 -2.7359 0
M  V30 8798 H 860.735 -1.39522 -3.72316 0
M  V30 8799 N 861.732 1.21287 -1.00634 0
M  V30 8800 C 863.148 1.42467 -0.719389 0
M  V30 8801 C 863.348 1.88767 0.704927 0
M  V30 8802 O 862.404 2.05004 1.47409 0
M  V30 8803 C 863.717 2.455 -1.73639 0
M  V30 8804 C 865.265 2.59281 -1.75335 0
M  V30 8805 C 865.74 3.65547 -2.75934 0
M  V30 8806 N 867.231 3.73019 -2.74611 0
M  V30 8807 C 867.966 4.54873 -3.4911 0
M  V30 8808 N 867.462 5.40614 -4.33253 0
M  V30 8809 N 869.255 4.49309 -3.37754 0
M  V30 8810 H 861.406 0.895454 -1.92602 0
M  V30 8811 H 863.669 0.455491 -0.831404 0
M  V30 8812 H 863.375 2.18455 -2.75627 0
M  V30 8813 H 863.249 3.44325 -1.54014 0
M  V30 8814 H 865.636 2.85661 -0.740377 0
M  V30 8815 H 865.717 1.60685 -1.99032 0
M  V30 8816 H 865.361 3.39911 -3.77389 0
M  V30 8817 H 865.291 4.63741 -2.49503 0
M  V30 8818 H 867.782 3.11766 -2.13565 0
M  V30 8819 H 868.095 6.0013 -4.86892 0
M  V30 8820 H 866.44 5.40151 -4.37335 0
M  V30 8821 H 869.631 3.81357 -2.71449 0
M  V30 8822 H 869.804 5.12867 -3.9607 0
M  V30 8823 N 863.21 0.781244 1.36873 0
M  V30 8824 C 864.173 0.180094 2.28491 0
M  V30 8825 C 865.173 -0.617798 1.48458 0
M  V30 8826 O 866.363 -0.439991 1.68552 0
M  V30 8827 C 863.495 -0.751741 3.32508 0
M  V30 8828 H 864.688 0.987837 2.83164 0
M  V30 8829 H 862.241 0.550102 1.463 0
M  V30 8830 H 862.976 -1.58413 2.82977 0
M  V30 8831 H 862.761 -0.181649 3.91679 0
M  V30 8832 H 864.251 -1.16748 4.00949 0
M  V30 8833 N 864.689 -1.48329 0.532571 0
M  V30 8834 C 865.917 -2.069 0.00354299 0
M  V30 8835 C 866.332 -1.38876 -1.27902 0
M  V30 8836 O 865.689 -0.477119 -1.76153 0
M  V30 8837 C 865.74 -3.60821 -0.221416 0
M  V30 8838 O 865.461 -4.26291 1.01034 0
M  V30 8839 C 866.962 -4.36194 -0.790531 0
M  V30 8840 H 864.182 -0.670103 0.0346836 0
M  V30 8841 H 866.726 -1.90682 0.738955 0
M  V30 8842 H 864.881 -3.76636 -0.906884 0
M  V30 8843 H 865.295 -5.18475 0.792683 0
M  V30 8844 H 866.769 -5.44657 -0.897347 0
M  V30 8845 H 867.246 -4.00798 -1.79605 0
M  V30 8846 H 867.852 -4.25064 -0.141546 0
M  V30 8847 N 866.167 -0.267825 -1.55308 0
M  V30 8848 C 867.444 0.402449 -1.91415 0
M  V30 8849 C 867.824 1.7428 -1.1912 0
M  V30 8850 O 867.172 2.2631 -0.315609 0
M  V30 8851 C 867.382 0.549926 -3.4464 0
M  V30 8852 C 868.73 0.836188 -4.16285 0
M  V30 8853 O 869.754 0.635009 -3.50494 0
M  V30 8854 O 868.613 1.22051 -5.32697 0
M  V30 8855 H 865.707 0.219177 -0.797427 0
M  V30 8856 H 868.253 -0.313439 -1.6678 0
M  V30 8857 H 867.025 -0.393641 -3.89315 0
M  V30 8858 H 866.648 1.31556 -3.75205 0
M  V30 8859 N 867.645 1.57599 0.00500368 0
M  V30 8860 C 868.891 1.90631 0.691919 0
M  V30 8861 C 869.224 0.868443 1.737 0
M  V30 8862 O 868.499 -0.113482 1.94169 0
M  V30 8863 C 868.782 3.34255 1.33961 0
M  V30 8864 C 868.635 4.48755 0.306413 0
M  V30 8865 C 869.954 3.77211 2.26715 0
M  V30 8866 H 867.073 0.693279 0.250066 0
M  V30 8867 H 869.715 1.89946 -0.0452634 0
M  V30 8868 H 867.865 3.3497 1.96793 0
M  V30 8869 H 869.537 4.60176 -0.321841 0
M  V30 8870 H 867.78 4.32203 -0.371852 0
M  V30 8871 H 868.451 5.46193 0.798554 0
M  V30 8872 H 870.927 3.78017 1.73904 0
M  V30 8873 H 869.803 4.78466 2.69002 0
M  V30 8874 H 870.064 3.10801 3.14413 0
M  V30 8875 N 869.123 -0.277682 1.55134 0
M  V30 8876 C 870.4 -1.0309 1.66228 0
M  V30 8877 C 870.78 -2.0445 0.525701 0
M  V30 8878 O 870.128 -2.23512 -0.474816 0
M  V30 8879 C 870.338 -1.6919 3.05247 0
M  V30 8880 C 871.686 -2.20526 3.62841 0
M  V30 8881 O 872.71 -1.79185 3.07849 0
M  V30 8882 O 871.569 -2.96342 4.59177 0
M  V30 8883 H 868.663 -0.4779 0.674937 0
M  V30 8884 H 871.209 -0.273912 1.67475 0
M  V30 8885 H 869.981 -0.957163 3.79413 0
M  V30 8886 H 869.604 -2.51587 3.07879 0
M  V30 8887 N 870.601 -1.47988 -0.541979 0
M  V30 8888 C 872.017 -1.33843 -0.869383 0
M  V30 8889 C 872.217 -0.340374 -1.98604 0
M  V30 8890 O 871.273 0.242696 -2.51331 0
M  V30 8891 C 872.586 -2.73568 -1.24823 0
M  V30 8892 C 874.134 -2.81967 -1.3588 0
M  V30 8893 C 874.609 -4.22368 -1.77114 0
M  V30 8894 N 876.1 -4.24983 -1.84237 0
M  V30 8895 C 876.835 -5.30547 -2.17503 0
M  V30 8896 N 876.331 -6.46401 -2.49275 0
M  V30 8897 N 878.124 -5.17933 -2.18406 0
M  V30 8898 H 870.275 -2.11503 0.195001 0
M  V30 8899 H 872.538 -0.947681 0.0245862 0
M  V30 8900 H 872.244 -3.48107 -0.501435 0
M  V30 8901 H 872.118 -3.06322 -2.20106 0
M  V30 8902 H 874.505 -2.07692 -2.09638 0
M  V30 8903 H 874.586 -2.52848 -0.387478 0
M  V30 8904 H 874.23 -4.97155 -1.0392 0
M  V30 8905 H 874.16 -4.48922 -2.75275 0
M  V30 8906 H 876.651 -3.41411 -1.62009 0
M  V30 8907 H 876.964 -7.22698 -2.73729 0
M  V30 8908 H 875.309 -6.49696 -2.46821 0
M  V30 8909 H 878.5 -4.26445 -1.93034 0
M  V30 8910 H 878.673 -6.00307 -2.44 0
M  V30 8911 N 872.079 0.78992 -1.36375 0
M  V30 8912 C 872.989 1.93386 -1.32812 0
M  V30 8913 C 874.005 1.72468 -0.230377 0
M  V30 8914 O 875.181 1.96014 -0.462657 0
M  V30 8915 C 872.246 3.2824 -1.11621 0
M  V30 8916 C 871.307 3.61939 -2.30865 0
M  V30 8917 C 870.54 4.90359 -2.10675 0
M  V30 8918 O 870.763 5.6005 -1.08168 0
M  V30 8919 O 869.697 5.22702 -2.9844 0
M  V30 8920 H 873.523 1.99342 -2.29121 0
M  V30 8921 H 871.108 0.9301 -1.16917 0
M  V30 8922 H 872.99 4.08939 -1.01719 0
M  V30 8923 H 871.665 3.23178 -0.183732 0
M  V30 8924 H 870.572 2.81549 -2.46335 0
M  V30 8925 H 871.905 3.71725 -3.22617 0
M  V30 8926 N 873.557 1.20646 1.01402 0
M  V30 8927 C 874.834 0.927176 1.72229 0
M  V30 8928 C 875.214 -0.563382 2.03443 0
M  V30 8929 O 874.562 -1.52576 1.70096 0
M  V30 8930 C 874.772 1.80285 2.98828 0
M  V30 8931 C 876.12 2.04624 3.72041 0
M  V30 8932 O 877.144 1.77559 3.0879 0
M  V30 8933 O 876.003 2.50347 4.85787 0
M  V30 8934 H 873.097 0.346891 0.75073 0
M  V30 8935 H 875.643 1.31532 1.07227 0
M  V30 8936 H 874.415 2.81204 2.72102 0
M  V30 8937 H 874.038 1.41495 3.71571 0
M  V30 8938 N 875.035 -1.20752 1.01276 0
M  V30 8939 C 875.982 -2.234 0.579732 0
M  V30 8940 C 876.952 -1.61256 -0.398206 0
M  V30 8941 O 878.137 -1.8845 -0.29851 0
M  V30 8942 C 875.277 -3.45008 -0.0797006 0
M  V30 8943 C 874.39 -4.21597 0.942343 0
M  V30 8944 C 873.525 -5.30591 0.254364 0
M  V30 8945 C 872.564 -5.98919 1.26343 0
M  V30 8946 N 871.701 -6.99511 0.602384 0
M  V30 8947 H 876.541 -2.59801 1.45971 0
M  V30 8948 H 874.078 -1.27663 0.730787 0
M  V30 8949 H 876.036 -4.1444 -0.479125 0
M  V30 8950 H 874.666 -3.09312 -0.923354 0
M  V30 8951 H 873.718 -3.51268 1.45996 0
M  V30 8952 H 875.03 -4.68576 1.70992 0
M  V30 8953 H 874.184 -6.06368 -0.200763 0
M  V30 8954 H 872.923 -4.84639 -0.545553 0
M  V30 8955 H 871.928 -5.21906 1.72898 0
M  V30 8956 H 873.153 -6.46957 2.06456 0
M  V30 8957 H 871.099 -6.55759 -0.177734 0
M  V30 8958 H 871.016 -7.44597 1.30809 0
M  V30 8959 H 872.284 -7.79313 0.17072 0
M  V30 8960 N 876.513 -0.788492 -1.36457 0
M  V30 8961 C 877.443 -0.200468 -2.32638 0
M  V30 8962 C 878.424 0.664031 -1.56603 0
M  V30 8963 O 879.609 0.598045 -1.84762 0
M  V30 8964 C 876.739 0.666274 -3.40849 0
M  V30 8965 C 875.693 -0.0982574 -4.27887 0
M  V30 8966 C 875.019 0.889018 -5.27258 0
M  V30 8967 C 876.319 -1.28692 -5.06197 0
M  V30 8968 H 878.013 -1.00399 -2.82065 0
M  V30 8969 H 875.559 -0.484237 -1.35614 0
M  V30 8970 H 877.512 1.08757 -4.07124 0
M  V30 8971 H 876.236 1.50249 -2.89987 0
M  V30 8972 H 874.895 -0.500525 -3.63167 0
M  V30 8973 H 874.543 1.72024 -4.7267 0
M  V30 8974 H 874.243 0.381909 -5.86358 0
M  V30 8975 H 875.767 1.30891 -5.96406 0
M  V30 8976 H 877.181 -0.941429 -5.65517 0
M  V30 8977 H 875.578 -1.72726 -5.74705 0
M  V30 8978 H 876.648 -2.08273 -4.37893 0
M  V30 8979 N 877.991 1.48044 -0.54043 0
M  V30 8980 C 879.237 2.03392 -0.0183377 0
M  V30 8981 C 879.592 1.4091 1.31004 0
M  V30 8982 O 878.885 0.549375 1.83555 0
M  V30 8983 C 879.079 3.57085 0.150008 0
M  V30 8984 C 878.908 4.34468 -1.1605 0
M  V30 8985 C 877.678 4.75008 -1.72324 0
M  V30 8986 C 879.876 4.70641 -2.07368 0
M  V30 8987 N 877.858 5.36968 -2.97555 0
M  V30 8988 C 879.229 5.32728 -3.17176 0
M  V30 8989 C 881.284 4.52571 -2.07567 0
M  V30 8990 C 879.987 5.78654 -4.27261 0
M  V30 8991 C 882.013 4.99485 -3.16653 0
M  V30 8992 C 881.375 5.61606 -4.2518 0
M  V30 8993 H 877.474 0.780497 -0.0484652 0
M  V30 8994 H 880.058 1.80738 -0.724018 0
M  V30 8995 H 878.229 3.79542 0.824787 0
M  V30 8996 H 879.961 3.99071 0.672649 0
M  V30 8997 H 876.716 4.5644 -1.26331 0
M  V30 8998 H 877.14 5.72505 -3.61341 0
M  V30 8999 H 881.782 4.03914 -1.24952 0
M  V30 9000 H 879.5 6.26311 -5.10647 0
M  V30 9001 H 883.086 4.87286 -3.17874 0
M  V30 9002 H 881.966 5.97248 -5.08197 0
M  V30 9003 N 879.47 0.276058 1.55163 0
M  V30 9004 C 880.4 -0.604633 2.25536 0
M  V30 9005 C 881.381 -1.15813 1.24585 0
M  V30 9006 O 882.566 -1.1921 1.53306 0
M  V30 9007 C 879.696 -1.78836 2.97716 0
M  V30 9008 C 878.65 -1.36635 4.05604 0
M  V30 9009 C 877.976 -2.63325 4.65364 0
M  V30 9010 C 879.276 -0.515858 5.19746 0
M  V30 9011 H 880.97 -0.0177483 2.99395 0
M  V30 9012 H 878.516 -0.00709627 1.43998 0
M  V30 9013 H 880.469 -2.41036 3.45658 0
M  V30 9014 H 879.193 -2.40109 2.21394 0
M  V30 9015 H 877.852 -0.767541 3.58475 0
M  V30 9016 H 877.5 -3.22858 3.85709 0
M  V30 9017 H 877.2 -2.358 5.38212 0
M  V30 9018 H 878.724 -3.26372 5.16056 0
M  V30 9019 H 880.138 -1.04289 5.63735 0
M  V30 9020 H 878.535 -0.335449 5.99162 0
M  V30 9021 H 879.605 0.465137 4.82664 0
M  V30 9022 N 880.948 -1.576 0.00335426 0
M  V30 9023 C 881.895 -2.08632 -0.986975 0
M  V30 9024 C 882.865 -0.982491 -1.33927 0
M  V30 9025 O 884.05 -1.25513 -1.43705 0
M  V30 9026 C 881.19 -2.59705 -2.27261 0
M  V30 9027 C 880.303 -3.84002 -1.97905 0
M  V30 9028 C 879.438 -4.23563 -3.20574 0
M  V30 9029 C 878.477 -5.40688 -2.8692 0
M  V30 9030 N 877.614 -5.75526 -4.02136 0
M  V30 9031 H 882.454 -2.92977 -0.544855 0
M  V30 9032 H 879.991 -1.44831 -0.257376 0
M  V30 9033 H 881.949 -2.87395 -3.02423 0
M  V30 9034 H 880.579 -1.7823 -2.69136 0
M  V30 9035 H 879.631 -3.63199 -1.13096 0
M  V30 9036 H 880.943 -4.69261 -1.69102 0
M  V30 9037 H 880.097 -4.52554 -4.04079 0
M  V30 9038 H 878.836 -3.37019 -3.52518 0
M  V30 9039 H 877.841 -5.11417 -2.01822 0
M  V30 9040 H 879.066 -6.2891 -2.5622 0
M  V30 9041 H 877.012 -4.9194 -4.33971 0
M  V30 9042 H 876.929 -6.55367 -3.76869 0
M  V30 9043 H 878.197 -6.0911 -4.8642 0
M  V30 9044 N 882.426 0.269451 -1.5528 0
M  V30 9045 C 883.837 0.840233 -1.66724 0
M  V30 9046 C 884.188 1.86909 -0.596621 0
M  V30 9047 O 883.313 2.14817 0.261246 0
M  V30 9048 C 883.908 1.5308 -3.02245 0
M  V30 9049 C 882.467 2.04957 -3.15705 0
M  V30 9050 C 881.614 0.892838 -2.62533 0
M  V30 9051 H 884.565 0.0457236 -1.58634 0
M  V30 9052 H 884.586 2.39792 -2.95432 0
M  V30 9053 H 884.098 0.781741 -3.80145 0
M  V30 9054 H 882.199 2.82813 -2.42585 0
M  V30 9055 H 882.312 2.26244 -4.22316 0
M  V30 9056 H 880.676 1.28719 -2.19781 0
M  V30 9057 H 881.459 0.157229 -3.4294 0
M  V30 9058 N 883.904 1.48273 0.534124 0
M  V30 9059 C 885.134 1.59503 1.31311 0
M  V30 9060 C 885.542 0.25284 1.87503 0
M  V30 9061 O 884.885 -0.767399 1.66903 0
M  V30 9062 C 884.947 2.57899 2.50456 0
M  V30 9063 C 884.611 4.03063 2.15382 0
M  V30 9064 C 885.608 4.90869 1.713 0
M  V30 9065 C 883.293 4.4857 2.26032 0
M  V30 9066 C 885.287 6.22209 1.38328 0
M  V30 9067 C 882.974 5.79932 1.92672 0
M  V30 9068 C 883.972 6.66574 1.4889 0
M  V30 9069 O 883.66 7.95492 1.15966 0
M  V30 9070 H 883.392 0.540695 0.405739 0
M  V30 9071 H 885.946 1.94794 0.651497 0
M  V30 9072 H 884.176 2.1772 3.19585 0
M  V30 9073 H 885.865 2.59008 3.12522 0
M  V30 9074 H 886.631 4.56951 1.62545 0
M  V30 9075 H 882.51 3.81321 2.59066 0
M  V30 9076 H 886.054 6.89792 1.04082 0
M  V30 9077 H 881.951 6.13386 2.01066 0
M  V30 9078 H 882.719 8.08207 1.29399 0
M  V30 9079 N 885.382 -0.782676 1.36792 0
M  V30 9080 C 886.628 -1.54311 1.3159 0
M  V30 9081 C 886.961 -1.93928 -0.102696 0
M  V30 9082 O 886.236 -1.63233 -1.05761 0
M  V30 9083 C 886.519 -2.81561 2.24489 0
M  V30 9084 C 886.372 -2.48268 3.75078 0
M  V30 9085 C 887.691 -3.83428 2.16034 0
M  V30 9086 H 884.81 -0.559828 0.479335 0
M  V30 9087 H 887.452 -0.898717 1.67401 0
M  V30 9088 H 885.602 -3.36549 1.9408 0
M  V30 9089 H 887.274 -1.99279 4.16036 0
M  V30 9090 H 885.517 -1.81116 3.94182 0
M  V30 9091 H 886.188 -3.39183 4.35499 0
M  V30 9092 H 888.664 -3.37905 2.42815 0
M  V30 9093 H 887.54 -4.70204 2.83194 0
M  V30 9094 H 887.801 -4.26887 1.14976 0
M  V30 9095 N 886.86 -1.21182 -1.00761 0
M  V30 9096 C 888.137 -0.936297 -1.71735 0
M  V30 9097 C 888.517 0.552585 -2.03739 0
M  V30 9098 O 887.865 1.51672 -1.70903 0
M  V30 9099 C 888.075 -1.81867 -2.97868 0
M  V30 9100 C 889.423 -2.06594 -3.7095 0
M  V30 9101 O 890.447 -1.79194 -3.07844 0
M  V30 9102 O 889.306 -2.5292 -4.84452 0
M  V30 9103 H 886.4 -0.350867 -0.74888 0
M  V30 9104 H 888.946 -1.32098 -1.06527 0
M  V30 9105 H 887.718 -2.82643 -2.70607 0
M  V30 9106 H 887.341 -1.43463 -3.70815 0
M  V30 9107 N 888.338 1.20213 -1.01915 0
M  V30 9108 C 889.268 2.25336 -0.612023 0
M  V30 9109 C 890.249 1.65933 0.374186 0
M  V30 9110 O 891.434 1.92464 0.259053 0
M  V30 9111 C 888.564 3.47267 0.047904 0
M  V30 9112 C 887.518 4.1928 -0.859557 0
M  V30 9113 C 886.844 5.3466 -0.0652655 0
M  V30 9114 C 888.144 4.75143 -2.1688 0
M  V30 9115 H 889.838 2.59645 -1.49079 0
M  V30 9116 H 887.384 1.24808 -0.718263 0
M  V30 9117 H 889.337 4.19991 0.344294 0
M  V30 9118 H 888.061 3.12129 0.961404 0
M  V30 9119 H 886.72 3.48425 -1.13999 0
M  V30 9120 H 886.368 4.95767 0.849964 0
M  V30 9121 H 886.068 5.83772 -0.669618 0
M  V30 9122 H 887.592 6.10187 0.224612 0
M  V30 9123 H 889.006 5.39672 -1.9346 0
M  V30 9124 H 887.403 5.34702 -2.72422 0
M  V30 9125 H 888.473 3.93744 -2.83008 0
M  V30 9126 N 889.816 0.795718 1.36037 0
M  V30 9127 C 890.748 0.156336 2.28666 0
M  V30 9128 C 891.761 -0.638075 1.49775 0
M  V30 9129 O 892.95 -0.472222 1.7214 0
M  V30 9130 C 890.05 -0.801417 3.29288 0
M  V30 9131 C 889.223 -0.0557118 4.37365 0
M  V30 9132 C 888.282 -0.930338 5.1791 0
M  V30 9133 O 887.308 -0.385266 5.67895 0
M  V30 9134 N 888.51 -2.25382 5.34961 0
M  V30 9135 H 891.275 0.952033 2.84177 0
M  V30 9136 H 888.836 0.650189 1.48271 0
M  V30 9137 H 890.828 -1.39051 3.80062 0
M  V30 9138 H 889.398 -1.49796 2.74372 0
M  V30 9139 H 888.618 0.714508 3.87671 0
M  V30 9140 H 889.906 0.458633 5.06729 0
M  V30 9141 H 889.304 -2.72073 4.95977 0
M  V30 9142 H 887.861 -2.79241 5.88955 0
M  V30 9143 N 891.294 -1.47756 0.548274 0
M  V30 9144 C 892.257 -2.28379 -0.193857 0
M  V30 9145 C 893.257 -1.36436 -0.850986 0
M  V30 9146 O 894.447 -1.59154 -0.70822 0
M  V30 9147 C 891.579 -3.15858 -1.28243 0
M  V30 9148 H 892.772 -2.95458 0.514231 0
M  V30 9149 H 890.325 -1.53298 0.304879 0
M  V30 9150 H 891.06 -2.5345 -2.0232 0
M  V30 9151 H 890.845 -3.83512 -0.816148 0
M  V30 9152 H 892.335 -3.76627 -1.80393 0
M  V30 9153 N 892.772 -0.284283 -1.55015 0
M  V30 9154 C 894.002 0.332465 -2.03907 0
M  V30 9155 C 894.41 1.49331 -1.16177 0
M  V30 9156 O 893.753 1.82851 -0.176395 0
M  V30 9157 C 893.815 0.867193 -3.48884 0
M  V30 9158 C 893.479 -0.166198 -4.56698 0
M  V30 9159 C 894.476 -0.988898 -5.10408 0
M  V30 9160 C 892.161 -0.303081 -5.01385 0
M  V30 9161 C 894.155 -1.93458 -6.07333 0
M  V30 9162 C 891.842 -1.25223 -5.98133 0
M  V30 9163 C 892.84 -2.06647 -6.50988 0
M  V30 9164 O 892.528 -2.99955 -7.45843 0
M  V30 9165 H 892.26 0.0786597 -0.671408 0
M  V30 9166 H 894.814 -0.416871 -2.01125 0
M  V30 9167 H 893.044 1.66676 -3.48935 0
M  V30 9168 H 894.733 1.39802 -3.81065 0
M  V30 9169 H 895.499 -0.89393 -4.76691 0
M  V30 9170 H 891.378 0.320711 -4.59883 0
M  V30 9171 H 894.922 -2.57053 -6.48513 0
M  V30 9172 H 890.819 -1.34798 -6.31268 0
M  V30 9173 H 891.587 -2.94742 -7.6359 0
M  V30 9174 N 894.251 1.57596 -0.0117121 0
M  V30 9175 C 895.161 2.12596 0.991964 0
M  V30 9176 C 896.177 1.07399 1.36899 0
M  V30 9177 O 897.353 1.39365 1.45394 0
M  V30 9178 C 894.418 2.62796 2.2614 0
M  V30 9179 C 893.479 3.8264 1.94642 0
M  V30 9180 C 892.712 4.30435 3.15533 0
M  V30 9181 O 892.935 3.77495 4.27614 0
M  V30 9182 O 891.869 5.22469 2.98847 0
M  V30 9183 H 895.695 2.98597 0.554371 0
M  V30 9184 H 893.28 1.47947 0.207839 0
M  V30 9185 H 895.162 2.9523 3.00695 0
M  V30 9186 H 893.837 1.79886 2.69114 0
M  V30 9187 H 892.744 3.5516 1.17526 0
M  V30 9188 H 894.077 4.66658 1.56496 0
M  V30 9189 N 895.729 -0.261212 1.5542 0
M  V30 9190 C 897.006 -1.01321 1.67312 0
M  V30 9191 C 897.386 -2.0388 0.547356 0
M  V30 9192 O 896.734 -2.24003 -0.451083 0
M  V30 9193 C 896.944 -1.65943 3.07024 0
M  V30 9194 C 898.292 -2.16666 3.65159 0
M  V30 9195 O 899.316 -1.75909 3.09733 0
M  V30 9196 O 898.175 -2.91455 4.62294 0
M  V30 9197 H 895.269 -0.470714 0.679968 0
M  V30 9198 H 897.815 -0.256133 1.67756 0
M  V30 9199 H 896.587 -0.916868 3.80407 0
M  V30 9200 H 896.21 -2.48308 3.1053 0
M  V30 9201 N 897.207 -1.48554 -0.526253 0
M  V30 9202 C 898.618 -1.50256 -1.10815 0
M  V30 9203 C 898.969 -0.274445 -1.94271 0
M  V30 9204 O 898.094 0.618094 -2.07385 0
M  V30 9205 C 898.689 -2.72264 -2.01638 0
M  V30 9206 C 897.248 -2.76826 -2.55038 0
M  V30 9207 C 896.395 -2.43823 -1.32081 0
M  V30 9208 H 899.346 -1.55616 -0.31133 0
M  V30 9209 H 899.367 -2.50993 -2.85977 0
M  V30 9210 H 898.879 -3.61632 -1.4087 0
M  V30 9211 H 896.98 -1.91676 -3.19517 0
M  V30 9212 H 897.093 -3.78351 -2.93917 0
M  V30 9213 H 895.457 -1.95058 -1.63781 0
M  V30 9214 H 896.24 -3.35436 -0.730596 0
M  V30 9215 N 898.685 0.775411 -1.37205 0
M  V30 9216 C 899.648 1.8702 -1.325 0
M  V30 9217 C 900.648 1.5915 -0.229793 0
M  V30 9218 O 901.838 1.673 -0.485423 0
M  V30 9219 C 898.97 3.24085 -1.05745 0
M  V30 9220 H 900.163 1.92604 -2.29878 0
M  V30 9221 H 897.716 0.97476 -1.22181 0
M  V30 9222 H 898.451 3.24178 -0.0888371 0
M  V30 9223 H 898.236 3.45705 -1.85016 0
M  V30 9224 H 899.726 4.0416 -1.05094 0
M  V30 9225 N 900.163 1.21714 1.00117 0
M  V30 9226 C 901.095 0.937627 2.09144 0
M  V30 9227 C 902.108 -0.0806291 1.626 0
M  V30 9228 O 903.297 0.152348 1.77849 0
M  V30 9229 C 900.397 0.387036 3.36683 0
M  V30 9230 C 899.57 1.46054 4.12295 0
M  V30 9231 C 898.629 0.918505 5.18122 0
M  V30 9232 O 897.655 1.60282 5.46167 0
M  V30 9233 N 898.857 -0.264308 5.79898 0
M  V30 9234 H 901.622 1.87622 2.33705 0
M  V30 9235 H 899.183 1.12291 1.16629 0
M  V30 9236 H 901.175 0.00992825 4.04699 0
M  V30 9237 H 899.745 -0.456467 3.09249 0
M  V30 9238 H 898.965 2.01133 3.39027 0
M  V30 9239 H 900.253 2.18306 4.59587 0
M  V30 9240 H 899.651 -0.837242 5.5947 0
M  V30 9241 H 898.208 -0.582886 6.49188 0
M  V30 9242 N 901.641 -1.19671 1.02551 0
M  V30 9243 C 902.889 -1.88894 0.71858 0
M  V30 9244 C 903.21 -1.79797 -0.754856 0
M  V30 9245 O 902.48 -1.20621 -1.54362 0
M  V30 9246 H 901.06 -0.699244 0.262806 0
M  V30 9247 H 903.722 -1.45298 1.29902 0
M  V30 9248 H 902.818 -2.95309 1.00989 0
M  V30 9249 N 903.119 -0.802921 -1.35613 0
M  V30 9250 C 904.082 -0.216422 -2.28176 0
M  V30 9251 C 905.082 0.594101 -1.49422 0
M  V30 9252 O 906.272 0.41312 -1.6923 0
M  V30 9253 C 903.404 0.698746 -3.33662 0
M  V30 9254 H 904.597 -1.03276 -2.81557 0
M  V30 9255 H 902.15 -0.573307 -1.45406 0
M  V30 9256 H 902.885 1.53891 -2.85461 0
M  V30 9257 H 902.67 0.119314 -3.91918 0
M  V30 9258 H 904.16 1.10354 -4.02755 0
M  V30 9259 N 904.597 1.47463 -0.556102 0
M  V30 9260 C 905.527 2.32801 0.180497 0
M  V30 9261 C 906.508 1.43721 0.909848 0
M  V30 9262 O 907.693 1.72578 0.89053 0
M  V30 9263 C 904.823 3.25478 1.21167 0
M  V30 9264 C 903.777 4.2379 0.598846 0
M  V30 9265 C 903.103 5.05783 1.73457 0
M  V30 9266 C 904.403 5.20387 -0.446659 0
M  V30 9267 H 906.097 2.94636 -0.531956 0
M  V30 9268 H 903.643 1.41683 -0.257267 0
M  V30 9269 H 905.596 3.8402 1.73513 0
M  V30 9270 H 904.32 2.61695 1.95405 0
M  V30 9271 H 902.979 3.66472 0.0966897 0
M  V30 9272 H 902.627 4.38405 2.46596 0
M  V30 9273 H 902.327 5.72343 1.33031 0
M  V30 9274 H 903.851 5.67183 2.26131 0
M  V30 9275 H 905.265 5.73299 -0.00930019 0
M  V30 9276 H 903.662 5.95143 -0.769735 0
M  V30 9277 H 904.732 4.65932 -1.34295 0
M  V30 9278 N 906.075 0.2925 1.54862 0
M  V30 9279 C 907.352 -0.371946 1.92031 0
M  V30 9280 C 907.732 -1.72363 1.21878 0
M  V30 9281 O 907.08 -2.25779 0.351573 0
M  V30 9282 C 907.29 -0.495027 3.45471 0
M  V30 9283 C 908.638 -0.769855 4.17562 0
M  V30 9284 O 909.662 -0.579168 3.5146 0
M  V30 9285 O 908.521 -1.13561 5.34571 0
M  V30 9286 H 905.615 -0.206463 0.800813 0
M  V30 9287 H 908.161 0.339933 1.6626 0
M  V30 9288 H 906.933 0.455528 3.88639 0
M  V30 9289 H 906.556 -1.2557 3.7725 0
M  V30 9290 N 907.553 -1.57587 0.0200696 0
M  V30 9291 C 908.8 -1.91424 -0.660525 0
M  V30 9292 C 909.128 -0.895626 -1.72652 0
M  V30 9293 O 908.383 0.096771 -1.95461 0
M  V30 9294 C 908.682 -3.32002 -1.32323 0
M  V30 9295 C 908.348 -4.49223 -0.388487 0
M  V30 9296 C 907.01 -4.81021 -0.131184 0
M  V30 9297 C 909.362 -5.20581 0.253906 0
M  V30 9298 C 906.69 -5.81539 0.776471 0
M  V30 9299 C 909.042 -6.22067 1.14956 0
M  V30 9300 C 907.706 -6.52311 1.41584 0
M  V30 9301 H 906.976 -0.700472 -0.241703 0
M  V30 9302 H 909.623 -1.91333 0.0798991 0
M  V30 9303 H 907.928 -3.28312 -2.13819 0
M  V30 9304 H 909.625 -3.5545 -1.85623 0
M  V30 9305 H 906.215 -4.24391 -0.599207 0
M  V30 9306 H 910.399 -4.96253 0.068164 0
M  V30 9307 H 905.655 -6.03322 0.990575 0
M  V30 9308 H 909.829 -6.76484 1.65357 0
M  V30 9309 H 907.456 -7.30017 2.12083 0
M  V30 9310 N 909.032 0.252966 -1.55557 0
M  V30 9311 C 910.26 0.999565 -1.81153 0
M  V30 9312 C 910.675 1.79181 -0.594955 0
M  V30 9313 O 910.032 1.77208 0.436311 0
M  V30 9314 C 910.083 1.94227 -3.04891 0
M  V30 9315 O 909.804 1.18209 -4.21851 0
M  V30 9316 C 911.305 2.80536 -3.43241 0
M  V30 9317 H 908.525 0.294402 -0.602966 0
M  V30 9318 H 911.069 0.277686 -2.02606 0
M  V30 9319 H 909.224 2.6185 -2.85505 0
M  V30 9320 H 909.638 1.81922 -4.9194 0
M  V30 9321 H 911.112 3.42442 -4.32941 0
M  V30 9322 H 911.589 3.51337 -2.6355 0
M  V30 9323 H 912.195 2.18373 -3.64956 0
M  V30 9324 N 910.51 1.48831 0.518367 0
M  V30 9325 C 911.926 1.35209 0.847979 0
M  V30 9326 C 912.126 0.371927 1.98038 0
M  V30 9327 O 911.182 -0.202681 2.51685 0
M  V30 9328 C 912.495 2.7552 1.20455 0
M  V30 9329 C 914.043 2.84094 1.31377 0
M  V30 9330 C 914.518 4.25132 1.70372 0
M  V30 9331 N 916.009 4.27861 1.77453 0
M  V30 9332 C 916.744 5.3394 2.09035 0
M  V30 9333 N 916.24 6.50285 2.3896 0
M  V30 9334 N 918.033 5.21343 2.10139 0
M  V30 9335 H 910.184 2.11166 -0.228624 0
M  V30 9336 H 912.447 0.94717 -0.0396599 0
M  V30 9337 H 912.153 3.48861 0.445991 0
M  V30 9338 H 912.027 3.09785 2.15204 0
M  V30 9339 H 914.414 2.11001 2.06307 0
M  V30 9340 H 914.495 2.53433 0.347203 0
M  V30 9341 H 914.139 4.98745 0.959975 0
M  V30 9342 H 914.069 4.53245 2.68098 0
M  V30 9343 H 916.56 3.43945 1.56557 0
M  V30 9344 H 916.873 7.26961 2.62196 0
M  V30 9345 H 915.218 6.5354 2.36454 0
M  V30 9346 H 918.409 4.29462 1.86225 0
M  V30 9347 H 918.582 6.04112 2.34419 0
M  V30 9348 N 911.988 -0.768124 1.37614 0
M  V30 9349 C 912.898 -1.91249 1.35871 0
M  V30 9350 C 913.914 -1.7208 0.257786 0
M  V30 9351 O 915.09 -1.95253 0.493782 0
M  V30 9352 C 912.155 -3.26423 1.16829 0
M  V30 9353 C 911.216 -3.5822 2.36594 0
M  V30 9354 C 910.449 -4.86945 2.1845 0
M  V30 9355 O 910.672 -5.58258 1.17064 0
M  V30 9356 O 909.606 -5.17888 3.06718 0
M  V30 9357 H 913.432 -1.95671 2.32264 0
M  V30 9358 H 911.017 -0.911382 1.18382 0
M  V30 9359 H 912.899 -4.07269 1.08212 0
M  V30 9360 H 911.574 -3.22845 0.235123 0
M  V30 9361 H 910.481 -2.77594 2.50783 0
M  V30 9362 H 911.814 -3.66545 3.2849 0
M  V30 9363 N 913.466 -1.22244 -0.994698 0
M  V30 9364 C 914.396 -1.01513 -2.10279 0
M  V30 9365 C 915.377 0.0633365 -1.69982 0
M  V30 9366 O 916.562 -0.0985268 -1.9395 0
M  V30 9367 C 913.692 -0.59016 -3.42249 0
M  V30 9368 C 912.646 -1.61436 -3.96387 0
M  V30 9369 C 911.972 -1.04528 -5.24383 0
M  V30 9370 C 913.272 -3.00388 -4.27276 0
M  V30 9371 H 914.966 -1.94194 -2.2788 0
M  V30 9372 H 912.512 -0.935094 -1.09508 0
M  V30 9373 H 914.465 -0.432254 -4.19177 0
M  V30 9374 H 913.189 0.372308 -3.24471 0
M  V30 9375 H 911.848 -1.76001 -3.21589 0
M  V30 9376 H 911.496 -0.0742225 -5.02945 0
M  V30 9377 H 911.196 -1.72949 -5.61571 0
M  V30 9378 H 912.72 -0.898922 -6.03947 0
M  V30 9379 H 914.134 -2.89207 -4.95007 0
M  V30 9380 H 912.531 -3.65916 -4.75631 0
M  V30 9381 H 913.601 -3.50456 -3.35125 0
M  V30 9382 N 914.944 1.19125 -1.03184 0
M  V30 9383 C 916.221 1.84674 -0.644574 0
M  V30 9384 C 916.601 1.92042 0.876534 0
M  V30 9385 O 915.949 1.43965 1.77444 0
M  V30 9386 C 916.159 3.23477 -1.3101 0
M  V30 9387 C 917.507 3.99608 -1.43524 0
M  V30 9388 O 918.531 3.32886 -1.2675 0
M  V30 9389 O 917.39 5.19132 -1.70776 0
M  V30 9390 H 914.484 0.795968 -0.22442 0
M  V30 9391 H 917.03 1.2659 -1.13018 0
M  V30 9392 H 915.802 3.12967 -2.34878 0
M  V30 9393 H 915.425 3.89209 -0.812547 0
M  V30 9394 N 916.422 0.810101 1.35185 0
M  V30 9395 C 917.833 0.452616 1.81131 0
M  V30 9396 C 918.184 -1.02573 1.67252 0
M  V30 9397 O 917.309 -1.79735 1.20516 0
M  V30 9398 C 917.904 0.814775 3.28857 0
M  V30 9399 C 916.463 0.509839 3.72931 0
M  V30 9400 C 915.61 1.03852 2.57119 0
M  V30 9401 H 918.561 1.00143 1.23114 0
M  V30 9402 H 918.582 0.113635 3.8033 0
M  V30 9403 H 918.094 1.89078 3.38926 0
M  V30 9404 H 916.195 -0.557289 3.68409 0
M  V30 9405 H 916.308 1.04493 4.67566 0
M  V30 9406 H 914.672 0.460671 2.50499 0
M  V30 9407 H 915.455 2.12071 2.69964 0
M  V30 9408 N 917.9 -1.47166 0.563914 0
M  V30 9409 C 918.863 -2.28571 -0.169624 0
M  V30 9410 C 919.863 -1.37331 -0.836467 0
M  V30 9411 O 921.053 -1.59896 -0.6913 0
M  V30 9412 C 918.185 -3.17201 -1.24886 0
M  V30 9413 H 919.378 -2.94896 0.545539 0
M  V30 9414 H 916.931 -1.52966 0.321121 0
M  V30 9415 H 917.666 -2.55582 -1.99621 0
M  V30 9416 H 917.451 -3.84356 -0.775426 0
M  V30 9417 H 918.941 -3.7852 -1.76388 0
M  V30 9418 N 919.378 -0.300708 -1.54705 0
M  V30 9419 C 920.624 0.301982 -2.01146 0
M  V30 9420 C 920.979 1.51548 -1.18537 0
M  V30 9421 O 920.272 1.89914 -0.253656 0
M  V30 9422 C 920.466 0.710108 -3.50275 0
M  V30 9423 C 920.295 -0.462291 -4.47318 0
M  V30 9424 C 919.065 -0.954214 -4.96208 0
M  V30 9425 C 921.263 -1.30716 -4.97411 0
M  V30 9426 N 919.245 -2.09341 -5.77105 0
M  V30 9427 C 920.616 -2.29384 -5.76006 0
M  V30 9428 C 922.671 -1.33756 -4.79597 0
M  V30 9429 C 921.374 -3.30869 -6.38685 0
M  V30 9430 C 923.4 -2.34099 -5.43094 0
M  V30 9431 C 922.762 -3.31498 -6.21521 0
M  V30 9432 H 918.861 0.0749709 -0.778398 0
M  V30 9433 H 921.445 -0.430557 -1.8988 0
M  V30 9434 H 919.616 1.41182 -3.61832 0
M  V30 9435 H 921.348 1.29231 -3.83512 0
M  V30 9436 H 918.103 -0.529238 -4.70634 0
M  V30 9437 H 918.527 -2.66739 -6.22237 0
M  V30 9438 H 923.169 -0.598284 -4.18546 0
M  V30 9439 H 920.887 -4.05717 -6.9887 0
M  V30 9440 H 924.473 -2.37225 -5.31239 0
M  V30 9441 H 923.353 -4.07872 -6.69784 0
M  V30 9442 N 920.856 1.57574 -0.0284266 0
M  V30 9443 C 921.786 2.1321 0.952039 0
M  V30 9444 C 922.767 1.04806 1.33977 0
M  V30 9445 O 923.952 1.32635 1.41851 0
M  V30 9446 C 921.082 2.65862 2.23461 0
M  V30 9447 C 920.036 3.79047 1.98765 0
M  V30 9448 C 919.362 4.18124 3.33281 0
M  V30 9449 C 920.662 5.05151 1.32739 0
M  V30 9450 H 922.356 2.95385 0.488705 0
M  V30 9451 H 919.902 1.42092 0.233628 0
M  V30 9452 H 921.855 3.03417 2.92431 0
M  V30 9453 H 920.579 1.80848 2.71959 0
M  V30 9454 H 919.238 3.41929 1.32213 0
M  V30 9455 H 918.886 3.30092 3.79537 0
M  V30 9456 H 918.586 4.94396 3.17563 0
M  V30 9457 H 920.11 4.58262 4.0352 0
M  V30 9458 H 921.524 5.40297 1.91708 0
M  V30 9459 H 919.921 5.86416 1.27421 0
M  V30 9460 H 920.991 4.83969 0.300261 0
M  V30 9461 N 922.334 -0.244713 1.55689 0
M  V30 9462 C 923.267 -1.32946 1.85474 0
M  V30 9463 C 924.245 -1.46279 0.710021 0
M  V30 9464 O 925.429 -1.62459 0.956004 0
M  V30 9465 C 922.556 -2.7027 2.04137 0
M  V30 9466 C 921.602 -2.74075 3.2678 0
M  V30 9467 S 922.435 -2.30465 4.8337 0
M  V30 9468 C 923.591 -3.69709 5.05041 0
M  V30 9469 H 923.824 -1.07482 2.77191 0
M  V30 9470 H 921.357 -0.445807 1.47824 0
M  V30 9471 H 923.315 -3.4934 2.15574 0
M  V30 9472 H 921.976 -2.9297 1.13259 0
M  V30 9473 H 921.169 -3.74932 3.36812 0
M  V30 9474 H 920.771 -2.03051 3.1408 0
M  V30 9475 H 923.063 -4.65222 4.92518 0
M  V30 9476 H 924.006 -3.6461 6.07014 0
M  V30 9477 H 924.414 -3.62323 4.32877 0
M  V30 9478 N 923.813 -1.49104 -0.510467 0
M  V30 9479 C 925.059 -1.58346 -1.26705 0
M  V30 9480 C 925.392 -0.265121 -1.92382 0
M  V30 9481 O 924.667 0.730558 -1.80258 0
M  V30 9482 C 924.95 -2.7359 -2.34137 0
M  V30 9483 C 924.803 -4.1519 -1.73024 0
M  V30 9484 C 926.122 -2.84511 -3.3577 0
M  V30 9485 H 923.241 -0.57637 -0.459311 0
M  V30 9486 H 925.883 -1.81353 -0.566658 0
M  V30 9487 H 924.033 -2.54105 -2.93876 0
M  V30 9488 H 925.705 -4.46167 -1.17186 0
M  V30 9489 H 923.948 -4.21279 -1.03473 0
M  V30 9490 H 924.619 -4.91683 -2.50903 0
M  V30 9491 H 927.095 -3.0222 -2.86011 0
M  V30 9492 H 925.971 -3.6684 -4.08313 0
M  V30 9493 H 926.232 -1.93471 -3.97519 0
M  V30 9494 N 925.291 0.760815 -1.38019 0
M  V30 9495 C 926.568 1.5098 -1.24356 0
M  V30 9496 C 926.948 2.10507 0.158169 0
M  V30 9497 O 926.296 1.96455 1.16695 0
M  V30 9498 C 926.506 2.58195 -2.34811 0
M  V30 9499 C 927.854 3.25297 -2.72886 0
M  V30 9500 O 928.878 2.68496 -2.34069 0
M  V30 9501 O 927.737 4.28018 -3.39799 0
M  V30 9502 H 924.831 0.66921 -0.485888 0
M  V30 9503 H 927.377 0.796844 -1.49828 0
M  V30 9504 H 926.149 2.12406 -3.28633 0
M  V30 9505 H 925.772 3.37079 -2.10864 0
M  V30 9506 N 926.769 1.22769 0.988202 0
M  V30 9507 C 927.997 1.08155 1.76381 0
M  V30 9508 C 928.412 -0.367573 1.85187 0
M  V30 9509 O 927.769 -1.25455 1.32541 0
M  V30 9510 C 927.82 1.69193 3.19462 0
M  V30 9511 O 927.541 3.08437 3.11125 0
M  V30 9512 C 929.042 1.59915 4.13451 0
M  V30 9513 H 926.262 0.378908 0.553778 0
M  V30 9514 H 928.806 1.6246 1.24206 0
M  V30 9515 H 926.961 1.18939 3.6869 0
M  V30 9516 H 927.375 3.37916 4.0114 0
M  V30 9517 H 928.849 2.07339 5.1158 0
M  V30 9518 H 929.326 0.556546 4.3566 0
M  V30 9519 H 929.932 2.09497 3.70123 0
M  V30 9520 N 928.247 -1.18576 1.03814 0
M  V30 9521 C 929.493 -1.88773 0.741132 0
M  V30 9522 C 929.826 -1.79993 -0.729127 0
M  V30 9523 O 929.101 -1.19851 -1.53186 0
M  V30 9524 C 929.384 -3.39352 1.20468 0
M  V30 9525 C 929.237 -3.56955 2.73684 0
M  V30 9526 C 930.556 -4.32901 0.792741 0
M  V30 9527 H 927.675 -0.685482 0.270708 0
M  V30 9528 H 930.317 -1.39523 1.2897 0
M  V30 9529 H 928.467 -3.81427 0.737974 0
M  V30 9530 H 930.139 -3.2399 3.28372 0
M  V30 9531 H 928.382 -2.99696 3.13632 0
M  V30 9532 H 929.053 -4.62598 3.01176 0
M  V30 9533 H 931.529 -3.98592 1.1943 0
M  V30 9534 H 930.405 -5.36828 1.14486 0
M  V30 9535 H 930.666 -4.41052 -0.304295 0
M  V30 9536 N 929.725 -0.817259 -1.34754 0
M  V30 9537 C 930.974 -0.39908 -1.97713 0
M  V30 9538 C 931.287 1.04203 -1.65533 0
M  V30 9539 O 932.493 1.56384 -2.21937 0
M  V30 9540 C 930.949 -0.662634 -3.53747 0
M  V30 9541 C 930.557 -2.11699 -3.94826 0
M  V30 9542 C 932.301 -0.31034 -4.23364 0
M  V30 9543 C 930.208 -2.32573 -5.4375 0
M  V30 9544 H 929.138 -0.145488 -0.739831 0
M  V30 9545 H 931.789 -1.00282 -1.53674 0
M  V30 9546 H 930.171 0.0111972 -3.95998 0
M  V30 9547 H 931.345 -2.82951 -3.63697 0
M  V30 9548 H 929.66 -2.43017 -3.3813 0
M  V30 9549 H 932.257 -0.44421 -5.32852 0
M  V30 9550 H 932.6 0.744594 -4.09587 0
M  V30 9551 H 933.133 -0.938518 -3.8657 0
M  V30 9552 H 929.872 -3.36551 -5.62507 0
M  V30 9553 H 929.392 -1.65858 -5.76412 0
M  V30 9554 H 931.071 -2.14651 -6.10356 0
M  V30 9555 N 931.203 1.46865 -0.571711 0
M  V30 9556 C 932.451 2.0203 -0.0530022 0
M  V30 9557 C 932.772 1.44687 1.30731 0
M  V30 9558 O 932.042 0.627429 1.85581 0
M  V30 9559 H 930.622 0.746815 -0.0166035 0
M  V30 9560 H 933.284 1.80099 -0.745003 0
M  V30 9561 H 932.38 3.12091 0.0242538 0
M  V30 9562 N 932.681 0.308908 1.54543 0
M  V30 9563 C 933.591 -0.572939 2.27496 0
M  V30 9564 C 934.607 -1.14171 1.31305 0
M  V30 9565 O 935.783 -1.16481 1.64299 0
M  V30 9566 C 932.848 -1.72483 3.0075 0
M  V30 9567 C 931.909 -1.18934 4.12496 0
M  V30 9568 C 931.142 -2.28634 4.82247 0
M  V30 9569 O 931.365 -3.48691 4.5141 0
M  V30 9570 O 930.299 -1.94879 5.69478 0
M  V30 9571 H 934.125 0.0190877 3.03694 0
M  V30 9572 H 931.71 0.0750943 1.49211 0
M  V30 9573 H 933.592 -2.39578 3.46671 0
M  V30 9574 H 932.267 -2.30332 2.2744 0
M  V30 9575 H 931.174 -0.483904 3.70957 0
M  V30 9576 H 932.507 -0.656185 4.87806 0
M  V30 9577 N 934.159 -1.57557 0.0367827 0
M  V30 9578 C 935.407 -1.91735 -0.63892 0
M  V30 9579 C 935.728 -0.914515 -1.72226 0
M  V30 9580 O 934.998 0.0428248 -1.95853 0
M  V30 9581 H 933.578 -0.707738 -0.23899 0
M  V30 9582 H 936.24 -1.94708 0.0863931 0
M  V30 9583 H 935.336 -2.92568 -1.08676 0
M  V30 9584 N 935.637 0.236453 -1.55816 0
M  V30 9585 C 936.547 1.31418 -1.94336 0
M  V30 9586 C 937.563 1.52095 -0.845164 0
M  V30 9587 O 938.739 1.65515 -1.14746 0
M  V30 9588 C 935.804 2.6468 -2.23932 0
M  V30 9589 C 934.865 2.52435 -3.47239 0
M  V30 9590 C 934.098 3.79342 -3.75414 0
M  V30 9591 O 934.321 4.81694 -3.05495 0
M  V30 9592 O 933.255 3.77347 -4.68927 0
M  V30 9593 H 937.081 1.01739 -2.86152 0
M  V30 9594 H 934.666 0.438084 -1.42833 0
M  V30 9595 H 936.548 3.4341 -2.44228 0
M  V30 9596 H 935.223 2.94071 -1.35292 0
M  V30 9597 H 934.13 1.71955 -3.32238 0
M  V30 9598 H 935.463 2.27987 -4.36214 0
M  V30 9599 N 937.115 1.49373 0.502552 0
M  V30 9600 C 938.362 1.58781 1.25678 0
M  V30 9601 C 938.69 0.273819 1.92563 0
M  V30 9602 O 937.945 -0.738141 1.81246 0
M  V30 9603 C 938.244 2.69508 2.34735 0
M  V30 9604 C 937.91 4.11057 1.85318 0
M  V30 9605 C 936.572 4.49578 1.7156 0
M  V30 9606 C 938.924 4.99653 1.48312 0
M  V30 9607 C 936.252 5.74469 1.19172 0
M  V30 9608 C 938.604 6.2506 0.97377 0
M  V30 9609 C 937.268 6.62412 0.822573 0
M  V30 9610 H 936.538 0.581021 0.459887 0
M  V30 9611 H 939.185 1.83197 0.557767 0
M  V30 9612 H 937.49 2.39057 3.10418 0
M  V30 9613 H 939.187 2.73997 2.92791 0
M  V30 9614 H 935.777 3.80651 1.96985 0
M  V30 9615 H 939.961 4.70549 1.57789 0
M  V30 9616 H 935.217 6.0211 1.06176 0
M  V30 9617 H 939.391 6.93089 0.678233 0
M  V30 9618 H 937.018 7.59069 0.414453 0
M  V30 9619 N 938.594 -0.753485 1.38421 0
M  V30 9620 C 939.842 -1.50962 1.34368 0
M  V30 9621 C 940.163 -1.94889 -0.0656895 0
M  V30 9622 O 939.433 -1.67652 -1.01339 0
M  V30 9623 H 938.013 -0.559967 0.494415 0
M  V30 9624 H 940.675 -0.895665 1.73101 0
M  V30 9625 H 939.771 -2.40048 1.99458 0
M  V30 9626 N 940.072 -1.23292 -0.981677 0
M  V30 9627 C 940.982 -1.02964 -2.10798 0
M  V30 9628 C 941.998 0.0254674 -1.73981 0
M  V30 9629 O 943.174 -0.169706 -2.00684 0
M  V30 9630 C 940.239 -0.621934 -3.41076 0
M  V30 9631 C 939.3 -1.75194 -3.91926 0
M  V30 9632 C 938.533 -1.36359 -5.15986 0
M  V30 9633 O 938.756 -0.247265 -5.69864 0
M  V30 9634 O 937.69 -2.18421 -5.60871 0
M  V30 9635 H 941.516 -1.97354 -2.30836 0
M  V30 9636 H 939.101 -1.01986 -1.09175 0
M  V30 9637 H 940.983 -0.405446 -4.19445 0
M  V30 9638 H 939.658 0.29299 -3.22371 0
M  V30 9639 H 938.565 -2.02305 -3.1468 0
M  V30 9640 H 939.898 -2.64513 -4.15083 0
M  V30 9641 N 941.55 1.18024 -1.04442 0
M  V30 9642 C 942.796 1.88377 -0.751133 0
M  V30 9643 C 943.129 1.80377 0.719571 0
M  V30 9644 O 942.404 1.20662 1.52548 0
M  V30 9645 C 942.687 3.38708 -1.22265 0
M  V30 9646 C 942.54 3.55499 -2.75574 0
M  V30 9647 C 943.859 4.32475 -0.815688 0
M  V30 9648 H 940.978 0.684037 -0.27434 0
M  V30 9649 H 943.62 1.38837 -1.29709 0
M  V30 9650 H 941.77 3.8103 -0.758192 0
M  V30 9651 H 943.442 3.22244 -3.30086 0
M  V30 9652 H 941.685 2.98028 -3.15217 0
M  V30 9653 H 942.356 4.60994 -3.03625 0
M  V30 9654 H 944.832 3.97953 -1.21542 0
M  V30 9655 H 943.708 5.36213 -1.17331 0
M  V30 9656 H 943.969 4.41207 0.280901 0
M  V30 9657 N 943.028 0.824394 1.34319 0
M  V30 9658 C 944.258 0.425576 2.02169 0
M  V30 9659 C 944.666 -0.973596 1.62227 0
M  V30 9660 O 944.009 -1.64173 0.824199 0
M  V30 9661 C 944.071 0.449902 3.56674 0
M  V30 9662 C 943.735 1.80266 4.19944 0
M  V30 9663 C 944.732 2.76373 4.40357 0
M  V30 9664 C 942.417 2.09155 4.56683 0
M  V30 9665 C 944.411 3.9954 4.96635 0
M  V30 9666 C 942.098 3.32581 5.12672 0
M  V30 9667 C 943.096 4.27591 5.32592 0
M  V30 9668 O 942.784 5.48837 5.87395 0
M  V30 9669 H 942.516 0.168866 0.654569 0
M  V30 9670 H 945.07 1.11441 1.7254 0
M  V30 9671 H 943.3 -0.295631 3.85568 0
M  V30 9672 H 944.989 0.0709302 4.05838 0
M  V30 9673 H 945.755 2.55351 4.12336 0
M  V30 9674 H 941.634 1.36004 4.40481 0
M  V30 9675 H 945.178 4.73709 5.12099 0
M  V30 9676 H 941.075 3.53466 5.40122 0
M  V30 9677 H 941.843 5.50377 6.05828 0
M  V30 9678 N 944.506 -1.46559 0.579492 0
M  V30 9679 C 945.922 -1.57771 0.240921 0
M  V30 9680 C 946.122 -1.57505 -1.25676 0
M  V30 9681 O 945.178 -1.4903 -2.03829 0
M  V30 9682 C 946.491 -2.87311 0.887285 0
M  V30 9683 C 948.039 -3.00937 0.860576 0
M  V30 9684 C 948.514 -4.33208 1.48642 0
M  V30 9685 N 950.005 -4.39899 1.45062 0
M  V30 9686 C 950.74 -5.40856 1.90428 0
M  V30 9687 N 950.236 -6.48503 2.43752 0
M  V30 9688 N 952.029 -5.32037 1.81364 0
M  V30 9689 H 944.18 -1.44976 1.55228 0
M  V30 9690 H 946.443 -0.691354 0.648639 0
M  V30 9691 H 946.149 -2.93307 1.94071 0
M  V30 9692 H 946.023 -3.75141 0.393577 0
M  V30 9693 H 948.41 -2.94524 -0.184223 0
M  V30 9694 H 948.491 -2.14591 1.39227 0
M  V30 9695 H 948.135 -4.40378 2.5304 0
M  V30 9696 H 948.065 -5.18323 0.92998 0
M  V30 9697 H 950.556 -3.62706 1.0608 0
M  V30 9698 H 950.869 -7.21744 2.76234 0
M  V30 9699 H 949.214 -6.49332 2.47776 0
M  V30 9700 H 952.405 -4.46841 1.39465 0
M  V30 9701 H 952.578 -6.10573 2.17035 0
M  V30 9702 N 945.984 -0.3171 -1.54377 0
M  V30 9703 C 947.232 0.286842 -2.00054 0
M  V30 9704 C 947.553 1.53161 -1.20692 0
M  V30 9705 O 946.823 1.93479 -0.307045 0
M  V30 9706 H 945.403 0.108979 -0.739008 0
M  V30 9707 H 948.065 -0.432152 -1.90049 0
M  V30 9708 H 947.161 0.547729 -3.07256 0
M  V30 9709 N 947.462 1.57535 -0.0451378 0
M  V30 9710 C 948.69 1.96761 0.639742 0
M  V30 9711 C 949.105 0.922405 1.64734 0
M  V30 9712 O 948.462 -0.0940535 1.82257 0
M  V30 9713 C 948.513 3.36066 1.33199 0
M  V30 9714 O 948.234 4.36579 0.364757 0
M  V30 9715 C 949.735 3.90015 2.1072 0
M  V30 9716 H 946.955 0.64769 0.175324 0
M  V30 9717 H 949.499 2.04206 -0.109651 0
M  V30 9718 H 947.654 3.2979 2.03266 0
M  V30 9719 H 948.068 5.17432 0.858168 0
M  V30 9720 H 949.542 4.89785 2.54586 0
M  V30 9721 H 950.019 3.25117 2.95288 0
M  V30 9722 H 950.625 3.99609 1.45577 0
M  V30 9723 N 948.94 -0.228186 1.55939 0
M  V30 9724 C 949.87 -1.28607 1.94891 0
M  V30 9725 C 950.851 -1.49236 0.816245 0
M  V30 9726 O 952.036 -1.61531 1.07803 0
M  V30 9727 C 949.166 -2.63719 2.25986 0
M  V30 9728 C 948.12 -2.57757 3.4168 0
M  V30 9729 C 947.446 -3.96837 3.58364 0
M  V30 9730 C 948.746 -2.13116 4.76843 0
M  V30 9731 H 950.44 -0.962531 2.83506 0
M  V30 9732 H 947.986 -0.461577 1.36402 0
M  V30 9733 H 949.939 -3.37878 2.51826 0
M  V30 9734 H 948.663 -2.97747 1.34217 0
M  V30 9735 H 947.322 -1.86055 3.15878 0
M  V30 9736 H 946.97 -4.28162 2.63982 0
M  V30 9737 H 946.67 -3.93731 4.36176 0
M  V30 9738 H 948.194 -4.72668 3.86545 0
M  V30 9739 H 949.608 -2.77015 5.01932 0
M  V30 9740 H 948.005 -2.21083 5.57891 0
M  V30 9741 H 949.075 -1.08326 4.72645 0
M  V30 9742 N 950.418 -1.49637 -0.494624 0
M  V30 9743 C 951.834 -1.36541 -0.826361 0
M  V30 9744 C 952.034 -0.403386 -1.97421 0
M  V30 9745 O 951.09 0.162614 -2.51976 0
M  V30 9746 C 952.403 -2.77401 -1.16057 0
M  V30 9747 C 953.951 -2.86148 -1.26841 0
M  V30 9748 C 954.426 -4.27789 -1.63587 0
M  V30 9749 N 955.917 -4.3063 -1.70624 0
M  V30 9750 C 956.652 -5.37198 -2.00514 0
M  V30 9751 N 956.148 -6.54004 -2.28584 0
M  V30 9752 N 957.941 -5.2462 -2.01818 0
M  V30 9753 H 950.092 -2.10776 0.26219 0
M  V30 9754 H 952.355 -0.946419 0.0547235 0
M  V30 9755 H 952.061 -3.49526 -0.390434 0
M  V30 9756 H 951.935 -3.1317 -2.10249 0
M  V30 9757 H 954.322 -2.14256 -2.02925 0
M  V30 9758 H 954.403 -2.53953 -0.30684 0
M  V30 9759 H 954.047 -5.00209 -0.880507 0
M  V30 9760 H 953.977 -4.57453 -2.60854 0
M  V30 9761 H 956.468 -3.46393 -1.51065 0
M  V30 9762 H 956.781 -7.31041 -2.50598 0
M  V30 9763 H 955.126 -6.57219 -2.26027 0
M  V30 9764 H 958.317 -4.32371 -1.79369 0
M  V30 9765 H 958.49 -6.07765 -2.24778 0
M  V30 9766 N 951.896 0.746133 -1.38819 0
M  V30 9767 C 952.826 1.87344 -1.39372 0
M  V30 9768 C 953.807 1.68123 -0.258583 0
M  V30 9769 O 954.992 1.88606 -0.462769 0
M  V30 9770 C 952.122 3.24962 -1.22543 0
M  V30 9771 C 951.076 3.58799 -2.33339 0
M  V30 9772 C 950.402 4.95235 -2.01609 0
M  V30 9773 C 951.702 3.62911 -3.75624 0
M  V30 9774 H 953.396 1.87138 -2.33709 0
M  V30 9775 H 950.942 0.898937 -1.12495 0
M  V30 9776 H 952.895 4.03488 -1.21554 0
M  V30 9777 H 951.619 3.25667 -0.246707 0
M  V30 9778 H 950.278 2.82596 -2.33527 0
M  V30 9779 H 949.926 4.92508 -1.02202 0
M  V30 9780 H 949.626 5.18843 -2.75819 0
M  V30 9781 H 951.15 5.76131 -2.02251 0
M  V30 9782 H 952.564 4.31535 -3.77426 0
M  V30 9783 H 950.961 3.98031 -4.491 0
M  V30 9784 H 952.031 2.62967 -4.07402 0
M  V30 9785 N 953.375 1.23811 0.975125 0
M  V30 9786 C 954.786 1.0675 1.53171 0
M  V30 9787 C 955.137 -0.363475 1.92804 0
M  V30 9788 O 954.262 -1.25089 1.76583 0
M  V30 9789 C 954.857 1.93161 2.78342 0
M  V30 9790 C 953.416 1.80346 3.30382 0
M  V30 9791 C 952.563 1.88544 2.03338 0
M  V30 9792 H 955.514 1.37396 0.79423 0
M  V30 9793 H 955.535 1.45951 3.51395 0
M  V30 9794 H 955.047 2.97302 2.49465 0
M  V30 9795 H 953.148 0.790077 3.64127 0
M  V30 9796 H 953.261 2.64026 3.99784 0
M  V30 9797 H 951.625 1.32186 2.17713 0
M  V30 9798 H 952.408 2.94252 1.76836 0
M  V30 9799 N 954.853 -1.17469 1.05066 0
M  V30 9800 C 956.078 -1.92162 0.780298 0
M  V30 9801 C 956.503 -1.76222 -0.657832 0
M  V30 9802 O 955.861 -1.0791 -1.45688 0
M  V30 9803 C 955.909 -3.41292 1.16414 0
M  V30 9804 O 955.013 -4.1134 0.295531 0
M  V30 9805 H 954.354 -0.599127 0.286257 0
M  V30 9806 H 956.884 -1.48903 1.40318 0
M  V30 9807 H 956.894 -3.92029 1.13036 0
M  V30 9808 H 955.569 -3.52214 2.21175 0
M  V30 9809 H 954.146 -3.70857 0.389797 0
M  V30 9810 N 956.331 -0.831506 -1.3388 0
M  V30 9811 C 957.263 -0.216908 -2.28171 0
M  V30 9812 C 958.276 0.598141 -1.51414 0
M  V30 9813 O 959.465 0.426416 -1.73332 0
M  V30 9814 C 956.565 0.713831 -3.31297 0
M  V30 9815 C 955.738 -0.0602673 -4.37358 0
M  V30 9816 C 954.797 0.792696 -5.20195 0
M  V30 9817 O 953.823 0.234564 -5.68716 0
M  V30 9818 N 955.025 2.11119 -5.40748 0
M  V30 9819 H 957.79 -1.02704 -2.81553 0
M  V30 9820 H 955.351 -0.689272 -1.46495 0
M  V30 9821 H 957.343 1.28925 -3.83615 0
M  V30 9822 H 955.913 1.42469 -2.78247 0
M  V30 9823 H 955.133 -0.817041 -3.8564 0
M  V30 9824 H 956.421 -0.592822 -5.05335 0
M  V30 9825 H 955.819 2.58828 -5.03016 0
M  V30 9826 H 954.376 2.63527 -5.96151 0
M  V30 9827 N 957.809 1.4625 -0.587256 0
M  V30 9828 C 959.086 1.95599 -0.00750181 0
M  V30 9829 C 959.466 1.52989 1.45457 0
M  V30 9830 O 958.814 0.782731 2.14676 0
M  V30 9831 C 959.024 3.48513 -0.184309 0
M  V30 9832 C 960.372 4.24565 -0.0544972 0
M  V30 9833 O 961.396 3.5602 -0.113378 0
M  V30 9834 O 960.255 5.46445 0.0774075 0
M  V30 9835 H 957.349 0.825649 0.0472495 0
M  V30 9836 H 959.895 1.56512 -0.655893 0
M  V30 9837 H 958.667 3.72428 -1.20053 0
M  V30 9838 H 958.29 3.9444 0.500301 0
M  V30 9839 N 959.287 0.325282 1.54207 0
M  V30 9840 C 960.527 -0.277347 2.0251 0
M  V30 9841 C 960.891 -1.49211 1.20831 0
M  V30 9842 O 962.092 -2.16771 1.58945 0
M  V30 9843 C 960.363 -0.601517 3.52302 0
M  V30 9844 S 961.922 -1.18356 4.22537 0
M  V30 9845 H 958.74 -0.08378 0.706047 0
M  V30 9846 H 961.342 0.458804 1.9004 0
M  V30 9847 H 960.046 0.290696 4.09369 0
M  V30 9848 H 959.577 -1.36782 3.68855 0
M  V30 9849 H 961.592 -2.47029 4.30338 0
M  V30 9850 N 960.765 -1.57509 0.0534917 0
M  V30 9851 C 961.712 -2.11667 -0.920101 0
M  V30 9852 C 962.682 -1.0246 -1.30733 0
M  V30 9853 O 963.867 -1.30021 -1.39639 0
M  V30 9854 C 961.007 -2.66803 -2.18883 0
M  V30 9855 C 960.12 -3.90104 -1.85588 0
M  V30 9856 C 959.255 -4.33547 -3.06937 0
M  V30 9857 C 958.294 -5.49542 -2.69573 0
M  V30 9858 N 957.431 -5.88029 -3.83623 0
M  V30 9859 H 962.271 -2.94562 -0.451371 0
M  V30 9860 H 959.808 -1.45576 -0.211168 0
M  V30 9861 H 961.766 -2.96871 -2.93127 0
M  V30 9862 H 960.396 -1.86702 -2.63329 0
M  V30 9863 H 959.448 -3.66613 -1.01484 0
M  V30 9864 H 960.76 -4.74404 -1.54087 0
M  V30 9865 H 959.914 -4.6518 -3.89477 0
M  V30 9866 H 958.653 -3.48064 -3.41618 0
M  V30 9867 H 957.658 -5.17579 -1.8545 0
M  V30 9868 H 958.883 -6.36743 -2.36082 0
M  V30 9869 H 956.829 -5.05498 -4.181 0
M  V30 9870 H 956.746 -6.67025 -3.55828 0
M  V30 9871 H 958.014 -6.24277 -4.66796 0
M  V30 9872 N 962.243 0.219913 -1.56058 0
M  V30 9873 C 963.471 0.960915 -1.83232 0
M  V30 9874 C 963.886 1.77878 -0.632828 0
M  V30 9875 O 963.243 1.78093 0.398624 0
M  V30 9876 C 963.294 1.87716 -3.08942 0
M  V30 9877 O 963.015 1.09235 -4.24263 0
M  V30 9878 C 964.516 2.73192 -3.49115 0
M  V30 9879 H 961.736 0.281546 -0.609075 0
M  V30 9880 H 964.28 0.234648 -2.03149 0
M  V30 9881 H 962.435 2.55736 -2.90995 0
M  V30 9882 H 962.849 1.71446 -4.95688 0
M  V30 9883 H 964.323 3.33181 -4.40107 0
M  V30 9884 H 964.8 3.45668 -2.70943 0
M  V30 9885 H 965.406 2.10583 -3.69506 0
M  V30 9886 N 963.721 1.49897 0.486681 0
M  V30 9887 C 964.967 1.60342 1.2417 0
M  V30 9888 C 965.3 0.295694 1.91936 0
M  V30 9889 O 964.575 -0.701788 1.81398 0
M  V30 9890 C 964.858 2.77281 2.29755 0
M  V30 9891 C 964.711 4.1789 1.66397 0
M  V30 9892 C 966.03 2.89817 3.31201 0
M  V30 9893 H 963.149 0.583605 0.450083 0
M  V30 9894 H 965.791 1.82232 0.537734 0
M  V30 9895 H 963.941 2.58748 2.89796 0
M  V30 9896 H 965.613 4.47975 1.10073 0
M  V30 9897 H 963.856 4.22872 0.967579 0
M  V30 9898 H 964.527 4.95612 2.43049 0
M  V30 9899 H 967.003 3.06732 2.81167 0
M  V30 9900 H 965.879 3.7329 4.02425 0
M  V30 9901 H 966.14 1.9977 3.94391 0
M  V30 9902 N 965.199 -0.738761 1.39212 0
M  V30 9903 C 966.162 -1.83441 1.37412 0
M  V30 9904 C 967.162 -1.58484 0.271908 0
M  V30 9905 O 968.352 -1.65954 0.529609 0
M  V30 9906 C 965.484 -3.21167 1.143 0
M  V30 9907 H 966.677 -1.86441 2.34904 0
M  V30 9908 H 964.23 -0.942023 1.24722 0
M  V30 9909 H 964.965 -3.23829 0.174756 0
M  V30 9910 H 964.75 -3.40678 1.94116 0
M  V30 9911 H 966.24 -4.01231 1.15773 0
M  V30 9912 N 966.677 -1.24326 -0.968545 0
M  V30 9913 C 967.926 -1.07647 -1.70572 0
M  V30 9914 C 968.239 0.384821 -1.91777 0
M  V30 9915 O 969.445 0.671782 -2.63058 0
M  V30 9916 C 967.901 -1.87799 -3.07017 0
M  V30 9917 C 967.509 -3.38333 -2.93658 0
M  V30 9918 C 969.253 -1.79647 -3.84613 0
M  V30 9919 C 967.16 -4.10831 -4.25407 0
M  V30 9920 H 966.09 -0.399216 -0.639642 0
M  V30 9921 H 968.741 -1.484 -1.07934 0
M  V30 9922 H 967.123 -1.3986 -3.7048 0
M  V30 9923 H 968.297 -3.93845 -2.39213 0
M  V30 9924 H 966.612 -3.47427 -2.29528 0
M  V30 9925 H 969.209 -2.31116 -4.82172 0
M  V30 9926 H 969.552 -0.761553 -4.09275 0
M  V30 9927 H 970.085 -2.25261 -3.27875 0
M  V30 9928 H 966.824 -5.14679 -4.05939 0
M  V30 9929 H 966.344 -3.60105 -4.79671 0
M  V30 9930 H 968.023 -4.17783 -4.94031 0
M  V30 9931 N 968.156 1.1691 -1.05688 0
M  V30 9932 C 969.103 2.21095 -0.662246 0
M  V30 9933 C 970.073 1.62623 0.338083 0
M  V30 9934 O 971.258 1.89428 0.228362 0
M  V30 9935 C 968.398 3.45066 -0.0484018 0
M  V30 9936 C 967.511 4.17809 -1.09817 0
M  V30 9937 C 966.646 5.29281 -0.451114 0
M  V30 9938 C 965.685 5.93817 -1.48484 0
M  V30 9939 N 964.822 6.96793 -0.861588 0
M  V30 9940 H 969.662 2.54204 -1.55513 0
M  V30 9941 H 967.199 1.24863 -0.777665 0
M  V30 9942 H 969.157 4.15932 0.324978 0
M  V30 9943 H 967.787 3.12526 0.807918 0
M  V30 9944 H 966.839 3.45608 -1.58932 0
M  V30 9945 H 968.151 4.61907 -1.88265 0
M  V30 9946 H 967.305 6.06695 -0.0244251 0
M  V30 9947 H 966.044 4.8633 0.365306 0
M  V30 9948 H 965.049 5.1513 -1.92149 0
M  V30 9949 H 966.274 6.38848 -2.30325 0
M  V30 9950 H 964.22 6.55967 -0.0657688 0
M  V30 9951 H 964.137 7.39229 -1.58354 0
M  V30 9952 H 965.405 7.78142 -0.45984 0
M  V30 9953 N 969.634 0.838594 1.33437 0
M  V30 9954 C 970.862 0.447644 2.01999 0
M  V30 9955 C 971.277 -0.951053 1.63096 0
M  V30 9956 O 970.634 -1.61802 0.844169 0
M  V30 9957 C 970.685 0.558378 3.57162 0
M  V30 9958 O 970.406 1.90196 3.94661 0
M  V30 9959 C 971.907 0.164348 4.42995 0
M  V30 9960 H 969.127 0.177736 0.647032 0
M  V30 9961 H 971.671 1.13109 1.70372 0
M  V30 9962 H 969.826 -0.0771563 3.87323 0
M  V30 9963 H 970.24 1.88729 4.89369 0
M  V30 9964 H 971.714 0.292876 5.51222 0
M  V30 9965 H 972.191 -0.893713 4.30011 0
M  V30 9966 H 972.797 0.774306 4.18192 0
M  V30 9967 N 971.112 -1.45937 0.595003 0
M  V30 9968 C 972.042 -2.33198 -0.11871 0
M  V30 9969 C 973.023 -1.46083 -0.871423 0
M  V30 9970 O 974.208 -1.74879 -0.844461 0
M  V30 9971 C 971.338 -3.28576 -1.12495 0
M  V30 9972 C 970.292 -4.25229 -0.486275 0
M  V30 9973 C 969.618 -5.10204 -1.59986 0
M  V30 9974 C 970.918 -5.19019 0.584473 0
M  V30 9975 H 972.612 -2.93122 0.609886 0
M  V30 9976 H 970.158 -1.40951 0.294742 0
M  V30 9977 H 972.111 -3.88485 -1.6327 0
M  V30 9978 H 970.835 -2.66784 -1.88398 0
M  V30 9979 H 969.494 -3.666 0.000507962 0
M  V30 9980 H 969.142 -4.44789 -2.34886 0
M  V30 9981 H 968.842 -5.75669 -1.1781 0
M  V30 9982 H 970.366 -5.7298 -2.11014 0
M  V30 9983 H 971.78 -5.73073 0.161297 0
M  V30 9984 H 970.177 -5.92893 0.927256 0
M  V30 9985 H 971.247 -4.62208 1.46601 0
M  V30 9986 N 972.59 -0.333456 -1.54032 0
M  V30 9987 C 973.537 0.527981 -2.2468 0
M  V30 9988 C 974.507 1.10371 -1.24127 0
M  V30 9989 O 975.692 1.14221 -1.52834 0
M  V30 9990 C 972.832 1.67808 -3.01553 0
M  V30 9991 C 971.945 1.13064 -4.16942 0
M  V30 9992 C 971.08 2.24722 -4.81325 0
M  V30 9993 C 970.119 1.67277 -5.88799 0
M  V30 9994 N 969.256 2.72638 -6.47003 0
M  V30 9995 H 974.096 -0.0810308 -2.9789 0
M  V30 9996 H 971.633 -0.051761 -1.47009 0
M  V30 9997 H 973.591 2.35502 -3.44376 0
M  V30 9998 H 972.221 2.25823 -2.30659 0
M  V30 9999 H 971.273 0.344948 -3.78833 0
M  V30 10000 H 972.585 0.670373 -4.94275 0
M  V30 10001 H 971.739 3.00301 -5.27166 0
M  V30 10002 H 970.478 2.74089 -4.03394 0
M  V30 10003 H 969.483 0.902002 -5.4235 0
M  V30 10004 H 970.708 1.18775 -6.68632 0
M  V30 10005 H 968.654 3.21277 -5.71941 0
M  V30 10006 H 968.571 2.31204 -7.19778 0
M  V30 10007 H 969.839 3.48015 -6.97499 0
M  V30 10008 N 974.068 1.57479 -0.061844 0
M  V30 10009 C 975.345 1.84484 0.649993 0
M  V30 10010 C 975.725 0.952366 1.88396 0
M  V30 10011 O 975.073 0.0161035 2.28494 0
M  V30 10012 C 975.283 3.34452 0.997133 0
M  V30 10013 C 976.631 4.01724 1.37488 0
M  V30 10014 O 977.655 3.3914 1.08916 0
M  V30 10015 O 976.514 5.12091 1.90854 0
M  V30 10016 H 973.608 0.761798 0.321858 0
M  V30 10017 H 976.154 1.6945 -0.0920192 0
M  V30 10018 H 974.926 3.91115 0.120301 0
M  V30 10019 H 974.549 3.54713 1.79624 0
M  V30 10020 N 975.546 -0.211634 1.56173 0
M  V30 10021 C 976.774 -0.951184 1.83739 0
M  V30 10022 C 977.189 -1.7754 0.642252 0
M  V30 10023 O 976.546 -1.78302 -0.389174 0
M  V30 10024 C 976.597 -1.86075 3.09933 0
M  V30 10025 O 976.318 -1.06983 4.24837 0
M  V30 10026 C 977.819 -2.71337 3.50559 0
M  V30 10027 H 975.039 -0.278312 0.61056 0
M  V30 10028 H 977.583 -0.223871 2.03271 0
M  V30 10029 H 975.738 -2.54189 2.92347 0
M  V30 10030 H 976.152 -1.68815 4.9659 0
M  V30 10031 H 977.626 -3.30843 4.41868 0
M  V30 10032 H 978.103 -3.44226 2.72773 0
M  V30 10033 H 978.709 -2.0862 3.70618 0
M  V30 10034 N 977.024 -1.50153 -0.478725 0
M  V30 10035 C 978.249 -1.64776 -1.2595 0
M  V30 10036 C 978.674 -0.327794 -1.85222 0
M  V30 10037 O 978.032 0.707418 -1.66929 0
M  V30 10038 C 978.08 -2.73551 -2.34952 0
M  V30 10039 O 977.184 -2.34273 -3.39397 0
M  V30 10040 H 976.525 -0.550769 -0.370877 0
M  V30 10041 H 979.055 -1.96482 -0.570605 0
M  V30 10042 H 979.065 -2.96397 -2.8038 0
M  V30 10043 H 977.74 -3.69354 -1.91181 0
M  V30 10044 H 976.317 -2.21844 -2.99733 0
M  V30 10045 N 978.502 0.731368 -1.39602 0
M  V30 10046 C 979.913 1.30981 -1.33045 0
M  V30 10047 C 980.264 1.962 0.00349918 0
M  V30 10048 O 979.389 1.96539 0.905615 0
M  V30 10049 C 979.984 2.3817 -2.40958 0
M  V30 10050 C 978.543 2.91678 -2.3791 0
M  V30 10051 C 977.69 1.65286 -2.22656 0
M  V30 10052 H 980.641 0.528615 -1.49637 0
M  V30 10053 H 980.662 3.18645 -2.07955 0
M  V30 10054 H 980.174 1.90673 -3.38032 0
M  V30 10055 H 978.275 3.43446 -1.44485 0
M  V30 10056 H 978.388 3.44545 -3.32904 0
M  V30 10057 H 976.752 1.89759 -1.69893 0
M  V30 10058 H 977.535 1.19836 -3.21705 0
M  V30 10059 N 979.98 1.24838 0.961938 0
M  V30 10060 C 981.228 1.08936 1.70227 0
M  V30 10061 C 981.549 -0.371582 1.91427 0
M  V30 10062 O 980.819 -1.26461 1.49614 0
M  V30 10063 H 979.399 0.400128 0.630799 0
M  V30 10064 H 982.061 1.56848 1.15692 0
M  V30 10065 H 981.157 1.59195 2.68446 0
M  V30 10066 N 981.458 -1.16348 1.06306 0
M  V30 10067 C 982.706 -1.86512 0.778311 0
M  V30 10068 C 983.027 -1.82107 -0.697273 0
M  V30 10069 O 982.297 -1.2547 -1.50446 0
M  V30 10070 H 980.877 -0.690529 0.284919 0
M  V30 10071 H 983.539 -1.41092 1.34458 0
M  V30 10072 H 982.635 -2.91947 1.10333 0
M  V30 10073 N 982.937 -0.845659 -1.3299 0
M  V30 10074 C 983.869 -0.241097 -2.27928 0
M  V30 10075 C 984.882 0.582048 -1.5204 0
M  V30 10076 O 986.071 0.408008 -1.73774 0
M  V30 10077 C 983.171 0.678652 -3.32035 0
M  V30 10078 C 982.344 -0.106652 -4.3727 0
M  V30 10079 C 981.403 0.737478 -5.21006 0
M  V30 10080 O 980.429 0.174231 -5.68933 0
M  V30 10081 N 981.631 2.05372 -5.42957 0
M  V30 10082 H 984.396 -1.05685 -2.80448 0
M  V30 10083 H 981.957 -0.704771 -1.45755 0
M  V30 10084 H 983.949 1.24849 -3.84961 0
M  V30 10085 H 982.519 1.3951 -2.79742 0
M  V30 10086 H 981.739 -0.857897 -3.84752 0
M  V30 10087 H 983.027 -0.646386 -5.04677 0
M  V30 10088 H 982.425 2.53478 -5.05733 0
M  V30 10089 H 980.982 2.5719 -5.98913 0
M  V30 10090 N 984.415 1.45619 -0.602734 0
M  V30 10091 C 985.661 2.03131 -0.104587 0
M  V30 10092 C 986.016 1.4634 1.2491 0
M  V30 10093 O 985.309 0.626733 1.8106 0
M  V30 10094 C 985.503 3.574 -0.00157909 0
M  V30 10095 C 985.332 4.29155 -1.34373 0
M  V30 10096 C 984.102 4.67272 -1.92316 0
M  V30 10097 C 986.3 4.61422 -2.27143 0
M  V30 10098 N 984.282 5.23864 -3.20062 0
M  V30 10099 C 985.653 5.18796 -3.39485 0
M  V30 10100 C 987.708 4.4336 -2.26575 0
M  V30 10101 C 986.411 5.60012 -4.51419 0
M  V30 10102 C 988.437 4.85605 -3.37553 0
M  V30 10103 C 987.799 5.43068 -4.48617 0
M  V30 10104 H 983.898 0.777739 -0.0815251 0
M  V30 10105 H 986.482 1.77504 -0.800024 0
M  V30 10106 H 984.653 3.82698 0.663068 0
M  V30 10107 H 986.385 4.01565 0.502784 0
M  V30 10108 H 983.14 4.50671 -1.45577 0
M  V30 10109 H 983.564 5.56664 -3.85298 0
M  V30 10110 H 988.206 3.98251 -1.41971 0
M  V30 10111 H 985.924 6.04089 -5.36751 0
M  V30 10112 H 989.51 4.73365 -3.38255 0
M  V30 10113 H 988.39 5.75156 -5.33072 0
M  V30 10114 N 985.893 0.34162 1.53853 0
M  V30 10115 C 987.139 -0.248546 2.01876 0
M  V30 10116 C 987.494 -1.48352 1.22513 0
M  V30 10117 O 986.787 -1.89174 0.303919 0
M  V30 10118 C 986.981 -0.616989 3.52034 0
M  V30 10119 C 986.81 0.580727 4.45935 0
M  V30 10120 C 985.58 1.08544 4.93504 0
M  V30 10121 C 987.778 1.43858 4.93771 0
M  V30 10122 N 985.76 2.24568 5.71351 0
M  V30 10123 C 987.131 2.44575 5.69722 0
M  V30 10124 C 989.186 1.46425 4.75882 0
M  V30 10125 C 987.889 3.47687 6.29688 0
M  V30 10126 C 989.915 2.48416 5.36697 0
M  V30 10127 C 989.277 3.4786 6.12514 0
M  V30 10128 H 985.376 -0.0543067 0.780112 0
M  V30 10129 H 987.96 0.480749 1.88671 0
M  V30 10130 H 986.131 -1.31539 3.65448 0
M  V30 10131 H 987.863 -1.19018 3.86803 0
M  V30 10132 H 984.618 0.653832 4.69065 0
M  V30 10133 H 985.042 2.83143 6.14946 0
M  V30 10134 H 989.684 0.709044 4.16812 0
M  V30 10135 H 987.402 4.24103 6.87868 0
M  V30 10136 H 990.988 2.51227 5.24763 0
M  V30 10137 H 989.868 4.25486 6.58734 0
M  V30 10138 N 987.371 -1.57444 0.0701946 0
M  V30 10139 C 988.319 -2.13834 -0.915302 0
M  V30 10140 C 989.313 -1.07483 -1.30934 0
M  V30 10141 O 990.519 -1.25865 -1.28678 0
M  V30 10142 H 986.894 -0.683716 -0.313108 0
M  V30 10143 H 988.865 -2.95503 -0.414758 0
M  V30 10144 C 987.614 -2.71355 -2.17398 0
M  V30 10145 H 986.937 -3.52861 -1.87961 0
M  V30 10146 H 988.377 -3.1441 -2.84469 0
M  V30 10147 C 986.836 -1.66038 -2.93143 0
M  V30 10148 O 987.366 -1.08443 -3.86786 0
M  V30 10149 N 985.572 -1.3711 -2.56221 0
M  V30 10150 H 985.119 -1.84135 -1.80145 0
M  V30 10151 H 985.077 -0.66877 -3.07205 0
M  V30 10152 N 988.849 0.203349 -1.56283 0
M  V30 10153 C 990.096 0.92501 -1.80138 0
M  V30 10154 C 990.424 1.83598 -0.64204 0
M  V30 10155 O 989.679 1.92119 0.372658 0
M  V30 10156 C 989.978 1.78016 -3.09912 0
M  V30 10157 C 989.644 1.02088 -4.39191 0
M  V30 10158 C 988.306 0.811208 -4.74313 0
M  V30 10159 C 990.658 0.486037 -5.18929 0
M  V30 10160 C 987.986 0.0550856 -5.86674 0
M  V30 10161 C 990.338 -0.256833 -6.32078 0
M  V30 10162 C 989.002 -0.477594 -6.65789 0
M  V30 10163 H 988.272 0.338485 -0.659173 0
M  V30 10164 H 990.919 0.191923 -1.90536 0
M  V30 10165 H 989.224 2.58167 -2.94715 0
M  V30 10166 H 990.921 2.341 -3.25574 0
M  V30 10167 H 987.511 1.1943 -4.11624 0
M  V30 10168 H 991.695 0.635446 -4.92215 0
M  V30 10169 H 986.951 -0.126006 -6.1127 0
M  V30 10170 H 991.125 -0.678683 -6.93085 0
M  V30 10171 H 988.752 -1.0654 -7.52697 0
M  V30 10172 N 990.327 1.50405 0.470755 0
M  V30 10173 C 991.257 1.72222 1.57676 0
M  V30 10174 C 992.238 0.57121 1.60222 0
M  V30 10175 O 993.423 0.810381 1.76484 0
M  V30 10176 C 990.553 1.81666 2.95998 0
M  V30 10177 C 989.507 2.96857 3.08318 0
M  V30 10178 C 988.833 2.91445 4.4829 0
M  V30 10179 C 990.133 4.37361 2.85504 0
M  V30 10180 H 991.827 2.64825 1.39671 0
M  V30 10181 H 989.373 1.27438 0.67049 0
M  V30 10182 H 991.326 1.95514 3.73299 0
M  V30 10183 H 990.05 0.856856 3.1516 0
M  V30 10184 H 988.709 2.82661 2.33449 0
M  V30 10185 H 988.357 1.93309 4.64371 0
M  V30 10186 H 988.057 3.68776 4.57469 0
M  V30 10187 H 989.581 3.07341 5.27611 0
M  V30 10188 H 990.995 4.52081 3.52555 0
M  V30 10189 H 989.392 5.16145 3.06127 0
M  V30 10190 H 990.462 4.49708 1.81359 0
M  V30 10191 N 991.805 -0.723954 1.39988 0
M  V30 10192 C 993.221 -1.03095 1.21834 0
M  V30 10193 C 993.421 -2.01309 0.0876647 0
M  V30 10194 O 992.477 -2.46277 -0.55714 0
M  V30 10195 C 993.79 -1.58267 2.5568 0
M  V30 10196 C 995.338 -1.70293 2.6262 0
M  V30 10197 C 995.813 -2.28872 3.96713 0
M  V30 10198 N 997.304 -2.36269 3.98411 0
M  V30 10199 C 998.039 -2.82557 4.98948 0
M  V30 10200 N 997.535 -3.28661 6.0988 0
M  V30 10201 N 999.328 -2.81866 4.86321 0
M  V30 10202 H 991.479 -0.0727891 2.12275 0
M  V30 10203 H 993.742 -0.0949029 0.943238 0
M  V30 10204 H 993.448 -0.935642 3.39026 0
M  V30 10205 H 993.322 -2.56914 2.76179 0
M  V30 10206 H 995.709 -2.34115 1.7965 0
M  V30 10207 H 995.79 -0.70268 2.45959 0
M  V30 10208 H 995.434 -1.65675 4.80119 0
M  V30 10209 H 995.364 -3.29595 4.107 0
M  V30 10210 H 997.855 -2.03697 3.18302 0
M  V30 10211 H 998.168 -3.62524 6.82493 0
M  V30 10212 H 996.513 -3.26641 6.13458 0
M  V30 10213 H 999.704 -2.45179 3.98754 0
M  V30 10214 H 999.877 -3.17626 5.64817 0
M  V30 10215 N 993.283 -1.25346 -0.955304 0
M  V30 10216 C 994.193 -1.07412 -2.08566 0
M  V30 10217 C 995.209 -0.0114424 -1.73996 0
M  V30 10218 O 996.385 -0.212236 -2.00279 0
M  V30 10219 C 993.45 -0.694141 -3.3968 0
M  V30 10220 C 992.511 -1.83468 -3.88121 0
M  V30 10221 C 991.744 -1.47274 -5.12978 0
M  V30 10222 O 991.967 -0.368086 -5.69211 0
M  V30 10223 O 990.901 -2.30269 -5.56111 0
M  V30 10224 H 994.727 -2.02206 -2.26598 0
M  V30 10225 H 992.312 -1.04279 -1.06988 0
M  V30 10226 H 994.194 -0.494325 -4.18491 0
M  V30 10227 H 992.869 0.224545 -3.2292 0
M  V30 10228 H 991.776 -2.08935 -3.10318 0
M  V30 10229 H 993.109 -2.73258 -4.09379 0
M  V30 10230 N 994.761 1.15782 -1.06922 0
M  V30 10231 C 995.724 2.18578 -0.689654 0
M  V30 10232 C 996.724 1.58553 0.267872 0
M  V30 10233 O 997.914 1.7413 0.0494097 0
M  V30 10234 C 995.046 3.40896 -0.0157919 0
M  V30 10235 H 996.239 2.53672 -1.59971 0
M  V30 10236 H 993.792 1.30168 -0.865214 0
M  V30 10237 H 994.527 3.11367 0.906712 0
M  V30 10238 H 994.312 3.85721 -0.704415 0
M  V30 10239 H 995.802 4.16937 0.235266 0
M  V30 10240 N 996.239 0.8527 1.3254 0
M  V30 10241 C 997.467 0.469044 2.01513 0
M  V30 10242 C 997.882 -0.933701 1.64096 0
M  V30 10243 O 997.239 -1.60898 0.861283 0
M  V30 10244 C 997.29 0.596228 3.56549 0
M  V30 10245 O 997.011 1.94371 3.92621 0
M  V30 10246 C 998.512 0.211324 4.42796 0
M  V30 10247 H 995.732 0.184589 0.645111 0
M  V30 10248 H 998.276 1.1491 1.69163 0
M  V30 10249 H 996.431 -0.0360712 3.87383 0
M  V30 10250 H 996.845 1.93909 4.87339 0
M  V30 10251 H 998.319 0.351324 5.50881 0
M  V30 10252 H 998.796 -0.848055 4.30935 0
M  V30 10253 H 999.402 0.818617 4.17347 0
M  V30 10254 N 997.718 -1.45297 0.610449 0
M  V30 10255 C 998.967 -2.0143 0.104323 0
M  V30 10256 C 999.28 -1.48431 -1.27388 0
M  V30 10257 O 1000.49 -1.96558 -1.87289 0
M  V30 10258 C 998.942 -3.59644 0.135812 0
M  V30 10259 C 998.55 -4.2164 1.51405 0
M  V30 10260 C 1000.29 -4.2333 -0.314922 0
M  V30 10261 C 998.201 -5.72015 1.50176 0
M  V30 10262 H 997.131 -0.753176 0.035233 0
M  V30 10263 H 999.782 -1.66738 0.7662 0
M  V30 10264 H 998.164 -3.91538 -0.592773 0
M  V30 10265 H 999.338 -4.01315 2.26457 0
M  V30 10266 H 997.653 -3.70159 1.90712 0
M  V30 10267 H 1000.25 -5.33597 -0.343335 0
M  V30 10268 H 1000.59 -3.94206 -1.33817 0
M  V30 10269 H 1001.13 -3.96163 0.360489 0
M  V30 10270 H 997.865 -6.05842 2.50271 0
M  V30 10271 H 997.385 -5.94523 0.793869 0
M  V30 10272 H 999.064 -6.35266 1.22665 0
M  V30 10273 N 999.196 -0.349774 -1.5367 0
M  V30 10274 C 1000.13 0.547309 -2.2154 0
M  V30 10275 C 1001.11 1.09543 -1.20163 0
M  V30 10276 O 1002.29 1.15453 -1.49006 0
M  V30 10277 C 999.418 1.75356 -2.89772 0
M  V30 10278 C 998.464 1.33433 -4.0509 0
M  V30 10279 S 999.297 0.348891 -5.34362 0
M  V30 10280 C 1000.45 1.56183 -6.061 0
M  V30 10281 H 1000.69 -0.0291392 -2.97286 0
M  V30 10282 H 998.219 -0.133853 -1.53819 0
M  V30 10283 H 1000.18 2.44555 -3.29701 0
M  V30 10284 H 998.838 2.30123 -2.1378 0
M  V30 10285 H 998.031 2.23388 -4.5179 0
M  V30 10286 H 997.633 0.721746 -3.6697 0
M  V30 10287 H 999.925 2.49535 -6.29872 0
M  V30 10288 H 1000.87 1.13651 -6.9892 0
M  V30 10289 H 1001.28 1.76071 -5.36339 0
M  V30 10290 N 1000.67 1.57404 -0.0785433 0
M  V30 10291 C 1001.92 1.93361 0.58786 0
M  V30 10292 C 1002.24 0.959856 1.6974 0
M  V30 10293 O 1001.51 0.0091173 1.95898 0
M  V30 10294 H 1000.09 0.713825 0.220141 0
M  V30 10295 H 1002.75 1.94411 -0.137986 0
M  V30 10296 H 1001.85 2.95346 1.00881 0
M  V30 10297 N 1002.15 -0.195058 1.56388 0
M  V30 10298 C 1003.08 -1.26581 1.91076 0
M  V30 10299 C 1004.1 -1.41707 0.801436 0
M  V30 10300 O 1005.29 -1.42132 1.07985 0
M  V30 10301 C 1002.39 -2.63794 2.12758 0
M  V30 10302 C 1001.56 -2.70275 3.43904 0
M  V30 10303 C 1000.62 -3.88685 3.54698 0
M  V30 10304 O 999.644 -3.75786 4.2752 0
M  V30 10305 N 1000.85 -5.04141 2.87789 0
M  V30 10306 H 1003.61 -0.971401 2.83521 0
M  V30 10307 H 1001.17 -0.384976 1.57256 0
M  V30 10308 H 1003.16 -3.41434 2.17267 0
M  V30 10309 H 1001.73 -2.85723 1.26812 0
M  V30 10310 H 1000.95 -1.78909 3.51262 0
M  V30 10311 H 1002.24 -2.71597 4.30247 0
M  V30 10312 H 1001.64 -5.17519 2.28452 0
M  V30 10313 H 1000.2 -5.79727 2.97925 0
M  V30 10314 N 1003.63 -1.50653 -0.462772 0
M  V30 10315 C 1004.88 -1.62057 -1.21424 0
M  V30 10316 C 1005.2 -0.324778 -1.91769 0
M  V30 10317 O 1004.46 0.689828 -1.83139 0
M  V30 10318 C 1004.76 -2.75637 -2.27507 0
M  V30 10319 C 1004.42 -4.15826 -1.74354 0
M  V30 10320 C 1003.09 -4.53969 -1.5958 0
M  V30 10321 C 1005.44 -5.03409 -1.35012 0
M  V30 10322 C 1002.77 -5.77427 -1.03899 0
M  V30 10323 C 1005.12 -6.27422 -0.807704 0
M  V30 10324 C 1003.78 -6.6436 -0.646657 0
M  V30 10325 H 1003.05 -0.59301 -0.44432 0
M  V30 10326 H 1005.7 -1.84612 -0.508999 0
M  V30 10327 H 1004 -2.47203 -3.0397 0
M  V30 10328 H 1005.7 -2.81663 -2.85424 0
M  V30 10329 H 1002.29 -3.85739 -1.86823 0
M  V30 10330 H 1006.48 -4.74567 -1.45258 0
M  V30 10331 H 1001.73 -6.04713 -0.901751 0
M  V30 10332 H 1005.91 -6.94644 -0.494234 0
M  V30 10333 H 1003.53 -7.59901 -0.213053 0
M  V30 10334 N 1005.11 0.71652 -1.4037 0
M  V30 10335 C 1006.33 1.51069 -1.42102 0
M  V30 10336 C 1006.76 1.88087 -0.0222387 0
M  V30 10337 O 1006.12 1.53204 0.969448 0
M  V30 10338 C 1006.16 2.76307 -2.31704 0
M  V30 10339 O 1005.27 3.72975 -1.75964 0
M  V30 10340 H 1004.61 0.455502 -0.483129 0
M  V30 10341 H 1007.14 0.882514 -1.84588 0
M  V30 10342 H 1007.15 3.24846 -2.46859 0
M  V30 10343 H 1005.82 2.48698 -3.3335 0
M  V30 10344 H 1004.4 3.31818 -1.70151 0
M  V30 10345 N 1006.59 1.25851 0.948643 0
M  V30 10346 C 1007.54 1.03437 2.03187 0
M  V30 10347 C 1008.52 -0.0307632 1.60871 0
M  V30 10348 O 1009.71 0.185296 1.76027 0
M  V30 10349 C 1006.84 0.661426 3.36868 0
M  V30 10350 C 1005.93 1.76363 3.8569 0
M  V30 10351 N 1006.32 2.9998 4.07241 0
M  V30 10352 C 1004.62 1.64552 4.14534 0
M  V30 10353 C 1005.32 3.71564 4.47566 0
M  V30 10354 N 1004.29 2.99214 4.53841 0
M  V30 10355 H 1008.1 1.97277 2.17851 0
M  V30 10356 H 1005.61 1.16258 1.13392 0
M  V30 10357 H 1007.61 0.482021 4.14104 0
M  V30 10358 H 1006.27 -0.269582 3.23579 0
M  V30 10359 H 1007.28 3.35963 3.94143 0
M  V30 10360 H 1003.95 0.783891 4.10075 0
M  V30 10361 H 1005.34 4.77702 4.72494 0
M  V30 10362 N 1008.06 -1.15214 1.07534 0
M  V30 10363 C 1009.48 -1.67628 0.822045 0
M  V30 10364 C 1009.83 -1.8503 -0.652571 0
M  V30 10365 O 1008.95 -1.55497 -1.50498 0
M  V30 10366 C 1009.55 -3.04489 1.48566 0
M  V30 10367 C 1008.11 -3.53974 1.27983 0
M  V30 10368 C 1007.25 -2.29656 1.55414 0
M  V30 10369 H 1010.2 -0.994016 1.23713 0
M  V30 10370 H 1010.22 -3.69509 0.907916 0
M  V30 10371 H 1009.74 -2.91792 2.55888 0
M  V30 10372 H 1007.84 -3.71908 0.226906 0
M  V30 10373 H 1007.95 -4.35298 2.0013 0
M  V30 10374 H 1006.31 -2.35289 0.975251 0
M  V30 10375 H 1007.1 -2.19544 2.63923 0
M  V30 10376 N 1009.54 -0.859717 -1.32086 0
M  V30 10377 C 1010.49 -0.279715 -2.26278 0
M  V30 10378 C 1011.48 0.577348 -1.50185 0
M  V30 10379 O 1012.67 0.425903 -1.71799 0
M  V30 10380 C 1009.8 0.526622 -3.39237 0
M  V30 10381 C 1008.88 -0.343112 -4.2271 0
M  V30 10382 N 1009.27 -1.43176 -4.85113 0
M  V30 10383 C 1007.57 -0.133744 -4.45799 0
M  V30 10384 C 1008.27 -1.96725 -5.47425 0
M  V30 10385 N 1007.25 -1.26569 -5.2866 0
M  V30 10386 H 1011.05 -1.11191 -2.72055 0
M  V30 10387 H 1008.57 -0.706372 -1.46233 0
M  V30 10388 H 1010.56 0.958587 -4.0573 0
M  V30 10389 H 1009.22 1.35655 -2.95005 0
M  V30 10390 H 1010.23 -1.81469 -4.85066 0
M  V30 10391 H 1006.91 0.661064 -4.12233 0
M  V30 10392 H 1008.3 -2.88006 -6.07044 0
M  V30 10393 N 1011.02 1.44971 -0.618145 0
M  V30 10394 C 1012.27 2.01372 -0.115004 0
M  V30 10395 C 1012.58 1.49104 1.26599 0
M  V30 10396 O 1013.79 1.97549 1.86244 0
M  V30 10397 C 1012.24 3.59567 -0.154883 0
M  V30 10398 C 1011.85 4.20832 -1.53639 0
M  V30 10399 C 1013.6 4.23491 0.292468 0
M  V30 10400 C 1011.5 5.7121 -1.53208 0
M  V30 10401 H 1010.43 0.752979 -0.0392267 0
M  V30 10402 H 1013.08 1.66329 -0.775032 0
M  V30 10403 H 1011.47 3.91847 0.572001 0
M  V30 10404 H 1012.64 4.00109 -2.28582 0
M  V30 10405 H 1010.96 3.69143 -1.92672 0
M  V30 10406 H 1013.55 5.33771 0.315032 0
M  V30 10407 H 1013.9 3.9491 1.31725 0
M  V30 10408 H 1014.43 3.95967 -0.381493 0
M  V30 10409 H 1011.17 6.04506 -2.53481 0
M  V30 10410 H 1010.69 5.94094 -0.825387 0
M  V30 10411 H 1012.37 6.34606 -1.26032 0
M  V30 10412 N 1012.5 0.357919 1.53482 0
M  V30 10413 C 1013.43 -0.484231 2.28424 0
M  V30 10414 C 1014.41 -1.09046 1.30548 0
M  V30 10415 O 1015.59 -1.10916 1.59409 0
M  V30 10416 C 1012.72 -1.62803 3.06778 0
M  V30 10417 C 1011.68 -1.14943 4.12277 0
M  V30 10418 C 1011 -2.38287 4.78669 0
M  V30 10419 C 1012.3 -0.239627 5.2175 0
M  V30 10420 H 1014 0.140979 2.99068 0
M  V30 10421 H 1011.54 0.069244 1.43833 0
M  V30 10422 H 1013.5 -2.22374 3.57949 0
M  V30 10423 H 1012.22 -2.28036 2.3381 0
M  V30 10424 H 1010.88 -0.576442 3.6204 0
M  V30 10425 H 1010.53 -3.01959 4.02281 0
M  V30 10426 H 1010.23 -2.06939 5.49955 0
M  V30 10427 H 1011.75 -2.98558 5.32631 0
M  V30 10428 H 1013.17 -0.742597 5.6847 0
M  V30 10429 H 1011.56 -0.0173747 6.00097 0
M  V30 10430 H 1012.63 0.720333 4.7952 0
M  V30 10431 N 1013.98 -1.5736 0.0868897 0
M  V30 10432 C 1014.93 -2.10105 -0.885435 0
M  V30 10433 C 1015.91 -1.01417 -1.24913 0
M  V30 10434 O 1017.1 -1.27704 -1.22558 0
M  V30 10435 C 1014.23 -2.67837 -2.14752 0
M  V30 10436 C 1013.32 -3.83553 -1.80963 0
M  V30 10437 N 1013.71 -4.91917 -1.17693 0
M  V30 10438 C 1012.01 -3.93134 -2.10622 0
M  V30 10439 C 1012.71 -5.72628 -1.02332 0
M  V30 10440 N 1011.68 -5.2139 -1.53796 0
M  V30 10441 H 1015.49 -2.91272 -0.392179 0
M  V30 10442 H 1013 -1.61981 -0.116566 0
M  V30 10443 H 1015 -3.03948 -2.85344 0
M  V30 10444 H 1013.66 -1.88122 -2.64651 0
M  V30 10445 H 1014.67 -5.10964 -0.844731 0
M  V30 10446 H 1011.34 -3.24416 -2.62793 0
M  V30 10447 H 1012.73 -6.69813 -0.529171 0
M  V30 10448 N 1015.45 0.186762 -1.56489 0
M  V30 10449 C 1016.38 1.23395 -1.98232 0
M  V30 10450 C 1017.37 1.4702 -0.855526 0
M  V30 10451 O 1018.55 1.58616 -1.12048 0
M  V30 10452 C 1015.68 2.57635 -2.32898 0
M  V30 10453 C 1014.63 2.48607 -3.48394 0
M  V30 10454 C 1013.96 3.87196 -3.68759 0
M  V30 10455 C 1015.26 2.00398 -4.82325 0
M  V30 10456 H 1016.95 0.887026 -2.85958 0
M  V30 10457 H 1014.5 0.42525 -1.37578 0
M  V30 10458 H 1016.45 3.31082 -2.60696 0
M  V30 10459 H 1015.18 2.94084 -1.42064 0
M  V30 10460 H 1013.84 1.77615 -3.207 0
M  V30 10461 H 1013.48 4.21012 -2.75241 0
M  V30 10462 H 1013.18 3.82029 -4.46462 0
M  V30 10463 H 1014.71 4.62253 -3.98941 0
M  V30 10464 H 1016.12 2.6361 -5.091 0
M  V30 10465 H 1014.52 2.06214 -5.63556 0
M  V30 10466 H 1015.59 0.957562 -4.75351 0
M  V30 10467 N 1016.93 1.50896 0.454776 0
M  V30 10468 C 1017.84 1.73762 1.5762 0
M  V30 10469 C 1018.86 0.621206 1.62533 0
M  V30 10470 O 1020.03 0.901449 1.801 0
M  V30 10471 C 1017.1 1.84183 2.9373 0
M  V30 10472 C 1016.16 3.07982 2.99075 0
M  V30 10473 C 1015.39 3.17896 4.28693 0
M  V30 10474 O 1015.62 2.34184 5.20109 0
M  V30 10475 O 1014.55 4.10749 4.39964 0
M  V30 10476 H 1018.38 2.68856 1.41245 0
M  V30 10477 H 1015.96 1.35187 0.635984 0
M  V30 10478 H 1017.84 1.93123 3.74542 0
M  V30 10479 H 1016.52 0.922742 3.10269 0
M  V30 10480 H 1015.43 3.04531 2.17282 0
M  V30 10481 H 1016.76 3.99523 2.87476 0
M  V30 10482 N 1018.41 -0.709066 1.40748 0
M  V30 10483 C 1019.66 -1.46611 1.39103 0
M  V30 10484 C 1019.98 -1.95 -0.00365366 0
M  V30 10485 O 1019.25 -1.70791 -0.959541 0
M  V30 10486 H 1017.83 -0.543954 0.511979 0
M  V30 10487 H 1020.49 -0.840141 1.75863 0
M  V30 10488 H 1019.59 -2.33581 2.06994 0
M  V30 10489 N 1019.89 -1.26353 -0.941956 0
M  V30 10490 C 1021.14 -1.12017 -1.69056 0
M  V30 10491 C 1021.47 0.335856 -1.91274 0
M  V30 10492 O 1020.74 1.24677 -1.49285 0
M  V30 10493 C 1021.03 -1.88889 -3.06583 0
M  V30 10494 C 1020.88 -3.42394 -2.91696 0
M  V30 10495 C 1022.2 -1.68209 -4.06686 0
M  V30 10496 H 1019.32 -0.408311 -0.613556 0
M  V30 10497 H 1021.96 -1.55339 -1.09407 0
M  V30 10498 H 1020.11 -1.5207 -3.57501 0
M  V30 10499 H 1021.78 -3.88962 -2.48005 0
M  V30 10500 H 1020.02 -3.69459 -2.27338 0
M  V30 10501 H 1020.7 -3.91408 -3.89235 0
M  V30 10502 H 1023.17 -2.00286 -3.64726 0
M  V30 10503 H 1022.05 -2.24412 -5.00929 0
M  V30 10504 H 1022.31 -0.626474 -4.37639 0
M  V30 10505 N 1021.37 1.14642 -1.08144 0
M  V30 10506 C 1022.61 1.85892 -0.810683 0
M  V30 10507 C 1022.95 1.82575 0.661821 0
M  V30 10508 O 1022.22 1.25454 1.48632 0
M  V30 10509 C 1022.5 3.34647 -1.32979 0
M  V30 10510 C 1022.36 3.46551 -2.86744 0
M  V30 10511 C 1023.68 4.29661 -0.952864 0
M  V30 10512 H 1020.8 0.674963 -0.295963 0
M  V30 10513 H 1023.44 1.3464 -1.3406 0
M  V30 10514 H 1021.59 3.78425 -0.87903 0
M  V30 10515 H 1023.26 3.11579 -3.40171 0
M  V30 10516 H 1021.5 2.87849 -3.24539 0
M  V30 10517 H 1022.17 4.51101 -3.18138 0
M  V30 10518 H 1024.65 3.93885 -1.34141 0
M  V30 10519 H 1023.53 5.32209 -1.34331 0
M  V30 10520 H 1023.79 4.41877 0.140392 0
M  V30 10521 N 1022.85 0.866709 1.31628 0
M  V30 10522 C 1024.07 0.49039 2.01004 0
M  V30 10523 C 1024.49 -0.916244 1.65077 0
M  V30 10524 O 1023.85 -1.59975 0.8783 0
M  V30 10525 C 1023.9 0.634011 3.55897 0
M  V30 10526 O 1023.62 1.98525 3.90537 0
M  V30 10527 C 1025.12 0.258277 4.42547 0
M  V30 10528 H 1022.34 0.191421 0.643117 0
M  V30 10529 H 1024.88 1.16698 1.67934 0
M  V30 10530 H 1023.04 0.00501801 3.874 0
M  V30 10531 H 1023.45 1.99067 4.85255 0
M  V30 10532 H 1024.93 0.409733 5.50477 0
M  V30 10533 H 1025.4 -0.802301 4.3181 0
M  V30 10534 H 1026.01 0.862837 4.16456 0
M  V30 10535 N 1024.32 -1.44642 0.625825 0
M  V30 10536 C 1025.27 -2.30653 -0.082259 0
M  V30 10537 C 1026.24 -1.43174 -0.842052 0
M  V30 10538 O 1027.43 -1.72082 -0.824151 0
M  V30 10539 C 1024.57 -3.2837 -1.06146 0
M  V30 10540 C 1023.68 -4.30953 -0.300638 0
M  V30 10541 C 1022.81 -5.15766 -1.27118 0
M  V30 10542 C 1021.85 -6.10061 -0.499215 0
M  V30 10543 N 1020.99 -6.87591 -1.41995 0
M  V30 10544 H 1025.83 -2.90664 0.657161 0
M  V30 10545 H 1023.37 -1.43215 0.335859 0
M  V30 10546 H 1025.32 -3.83507 -1.6425 0
M  V30 10547 H 1023.95 -2.70072 -1.76807 0
M  V30 10548 H 1023.01 -3.78331 0.396234 0
M  V30 10549 H 1024.32 -4.97892 0.300851 0
M  V30 10550 H 1023.47 -5.75394 -1.92372 0
M  V30 10551 H 1022.21 -4.48888 -1.9066 0
M  V30 10552 H 1021.22 -5.49547 0.166848 0
M  V30 10553 H 1022.44 -6.78973 0.131409 0
M  V30 10554 H 1020.39 -6.23387 -2.04267 0
M  V30 10555 H 1020.3 -7.5095 -0.872354 0
M  V30 10556 H 1021.57 -7.51746 -2.0615 0
M  V30 10557 N 1025.8 -0.366053 -1.5329 0
M  V30 10558 C 1027.22 -0.0150149 -1.59593 0
M  V30 10559 C 1027.42 1.46719 -1.38116 0
M  V30 10560 O 1026.47 2.22884 -1.18656 0
M  V30 10561 C 1027.79 -0.471374 -2.96982 0
M  V30 10562 C 1029.33 -0.425634 -3.10092 0
M  V30 10563 C 1029.81 -0.857812 -4.49895 0
M  V30 10564 N 1031.3 -0.81289 -4.56011 0
M  V30 10565 C 1032.04 -1.11898 -5.62376 0
M  V30 10566 N 1031.53 -1.49436 -6.76491 0
M  V30 10567 N 1033.32 -1.04174 -5.52362 0
M  V30 10568 H 1025.48 -1.33127 -1.65502 0
M  V30 10569 H 1027.74 -0.544172 -0.776261 0
M  V30 10570 H 1027.44 -1.50569 -3.1784 0
M  V30 10571 H 1027.32 0.141764 -3.76934 0
M  V30 10572 H 1029.71 0.599548 -2.88945 0
M  V30 10573 H 1029.79 -1.07427 -2.32149 0
M  V30 10574 H 1029.43 -1.88111 -4.7178 0
M  V30 10575 H 1029.36 -0.186419 -5.2627 0
M  V30 10576 H 1031.85 -0.536343 -3.74075 0
M  V30 10577 H 1032.16 -1.71217 -7.53594 0
M  V30 10578 H 1030.51 -1.53302 -6.77882 0
M  V30 10579 H 1033.7 -0.747654 -4.62091 0
M  V30 10580 H 1033.87 -1.28362 -6.35159 0
M  V30 10581 N 1027.28 1.57312 -0.0952337 0
M  V30 10582 C 1028.23 2.14032 0.863657 0
M  V30 10583 C 1029.2 1.0589 1.27971 0
M  V30 10584 O 1030.38 1.33678 1.36143 0
M  V30 10585 C 1027.52 2.72513 2.11733 0
M  V30 10586 C 1026.63 3.94887 1.7518 0
M  V30 10587 C 1025.77 4.41533 2.95334 0
M  V30 10588 C 1024.81 5.56496 2.54908 0
M  V30 10589 N 1023.95 5.97993 3.67897 0
M  V30 10590 H 1028.79 2.95655 0.373115 0
M  V30 10591 H 1026.32 1.46085 0.172497 0
M  V30 10592 H 1028.28 3.04539 2.85153 0
M  V30 10593 H 1026.91 1.93618 2.58287 0
M  V30 10594 H 1025.96 3.69175 0.917279 0
M  V30 10595 H 1027.27 4.78322 1.41455 0
M  V30 10596 H 1026.43 4.75343 3.77007 0
M  V30 10597 H 1025.17 3.56999 3.3227 0
M  V30 10598 H 1024.17 5.22314 1.71662 0
M  V30 10599 H 1025.4 6.42779 2.19117 0
M  V30 10600 H 1023.34 5.16405 4.04551 0
M  V30 10601 H 1023.26 6.76225 3.38018 0
M  V30 10602 H 1024.53 6.36434 4.5008 0
M  V30 10603 N 1028.76 -0.17846 1.56586 0
M  V30 10604 C 1030.17 -0.741599 1.71339 0
M  V30 10605 C 1030.52 -1.83112 0.704579 0
M  V30 10606 O 1029.64 -2.15975 -0.135557 0
M  V30 10607 C 1030.24 -1.35198 3.10656 0
M  V30 10608 C 1028.8 -1.86202 3.27118 0
M  V30 10609 C 1027.95 -0.738255 2.67292 0
M  V30 10610 H 1030.9 0.0468424 1.58631 0
M  V30 10611 H 1030.92 -2.2216 3.0891 0
M  V30 10612 H 1030.43 -0.558776 3.84056 0
M  V30 10613 H 1028.53 -2.68188 2.58661 0
M  V30 10614 H 1028.64 -2.01237 4.34788 0
M  V30 10615 H 1027.01 -1.15686 2.26912 0
M  V30 10616 H 1027.79 0.0429821 3.43273 0
M  V30 10617 N 1030.24 -1.51135 -0.446768 0
M  V30 10618 C 1031.48 -1.62571 -1.19388 0
M  V30 10619 C 1031.8 -0.3432 -1.92566 0
M  V30 10620 O 1033 -0.336804 -2.69403 0
M  V30 10621 C 1031.46 -2.87071 -2.17068 0
M  V30 10622 C 1031.07 -4.22291 -1.49581 0
M  V30 10623 C 1032.81 -3.07862 -2.9227 0
M  V30 10624 C 1030.72 -5.3795 -2.45689 0
M  V30 10625 H 1029.65 -0.60549 -0.449331 0
M  V30 10626 H 1032.3 -1.77593 -0.461846 0
M  V30 10627 H 1030.68 -2.65662 -2.93666 0
M  V30 10628 H 1031.86 -4.54046 -0.786054 0
M  V30 10629 H 1030.17 -4.07302 -0.865677 0
M  V30 10630 H 1032.77 -3.91444 -3.64246 0
M  V30 10631 H 1033.11 -2.20559 -3.53072 0
M  V30 10632 H 1033.64 -3.29566 -2.2278 0
M  V30 10633 H 1030.38 -6.27484 -1.89591 0
M  V30 10634 H 1029.9 -5.10583 -3.14746 0
M  V30 10635 H 1031.58 -5.69517 -3.07017 0
M  V30 10636 N 1031.71 0.701592 -1.41122 0
M  V30 10637 C 1032.65 1.8257 -1.36907 0
M  V30 10638 C 1033.62 1.6086 -0.237245 0
M  V30 10639 O 1034.81 1.83688 -0.423182 0
M  V30 10640 C 1031.94 3.19149 -1.13408 0
M  V30 10641 C 1030.98 3.59661 -2.29229 0
M  V30 10642 S 1031.81 3.65161 -3.91685 0
M  V30 10643 C 1032.97 5.04477 -3.70478 0
M  V30 10644 H 1033.2 1.85867 -2.32036 0
M  V30 10645 H 1030.74 0.869726 -1.27574 0
M  V30 10646 H 1032.69 3.97998 -1.00537 0
M  V30 10647 H 1031.36 3.13468 -0.199099 0
M  V30 10648 H 1030.55 4.58866 -2.08466 0
M  V30 10649 H 1030.15 2.88105 -2.38477 0
M  V30 10650 H 1032.44 5.91803 -3.29811 0
M  V30 10651 H 1033.39 5.3028 -4.69264 0
M  V30 10652 H 1033.79 4.75731 -3.03876 0
M  V30 10653 N 1033.19 1.2685 0.935242 0
M  V30 10654 C 1034.44 1.12132 1.67658 0
M  V30 10655 C 1034.75 -0.333839 1.9273 0
M  V30 10656 O 1035.96 -0.601801 2.64746 0
M  V30 10657 C 1034.42 1.95873 3.0193 0
M  V30 10658 C 1034.02 3.46 2.84584 0
M  V30 10659 C 1035.77 1.89781 3.79715 0
M  V30 10660 C 1033.67 4.21966 4.14365 0
M  V30 10661 H 1032.6 0.416035 0.628833 0
M  V30 10662 H 1035.26 1.51209 1.03962 0
M  V30 10663 H 1033.64 1.49633 3.66641 0
M  V30 10664 H 1034.81 4.00049 2.28687 0
M  V30 10665 H 1033.13 3.53391 2.20236 0
M  V30 10666 H 1035.72 2.43819 4.75875 0
M  V30 10667 H 1036.07 0.869797 4.07112 0
M  V30 10668 H 1036.6 2.33875 3.21788 0
M  V30 10669 H 1033.34 5.2526 3.9215 0
M  V30 10670 H 1032.86 3.72696 4.69955 0
M  V30 10671 H 1034.54 4.30734 4.82781 0
M  V30 10672 N 1034.67 -1.14067 1.0875 0
M  V30 10673 C 1035.92 -1.84535 0.814235 0
M  V30 10674 C 1036.23 -1.84044 -0.662355 0
M  V30 10675 O 1037.44 -2.50336 -1.05091 0
M  V30 10676 C 1035.89 -3.31273 1.40663 0
M  V30 10677 C 1035.5 -3.40171 2.91526 0
M  V30 10678 C 1037.25 -4.0683 1.21201 0
M  V30 10679 C 1035.15 -4.81141 3.43885 0
M  V30 10680 H 1034.08 -0.691346 0.300926 0
M  V30 10681 H 1036.73 -1.28562 1.30935 0
M  V30 10682 H 1035.12 -3.87005 0.839215 0
M  V30 10683 H 1036.29 -2.94471 3.54434 0
M  V30 10684 H 1034.61 -2.78073 3.09942 0
M  V30 10685 H 1037.2 -5.10891 1.57781 0
M  V30 10686 H 1037.55 -4.16022 0.152092 0
M  V30 10687 H 1038.08 -3.57408 1.74655 0
M  V30 10688 H 1034.82 -4.77138 4.49466 0
M  V30 10689 H 1034.34 -5.27365 2.85738 0
M  V30 10690 H 1036.02 -5.50042 3.40681 0
M  V30 10691 N 1036.15 -0.873678 -1.31166 0
M  V30 10692 C 1037.38 -0.501043 -2.00742 0
M  V30 10693 C 1037.79 0.907477 -1.65561 0
M  V30 10694 O 1037.15 1.59507 -0.886771 0
M  V30 10695 C 1037.2 -0.652877 -3.55556 0
M  V30 10696 O 1036.92 -2.00593 -3.89479 0
M  V30 10697 C 1038.42 -0.281742 -4.42404 0
M  V30 10698 H 1035.64 -0.194829 -0.642092 0
M  V30 10699 H 1038.19 -1.17587 -1.67313 0
M  V30 10700 H 1036.34 -0.0255627 -3.87392 0
M  V30 10701 H 1036.75 -2.01638 -4.84193 0
M  V30 10702 H 1038.23 -0.43892 -5.50252 0
M  V30 10703 H 1038.71 0.779389 -4.32229 0
M  V30 10704 H 1039.31 -0.88491 -4.15992 0
M  V30 10705 N 1037.63 1.44308 -0.633487 0
M  V30 10706 C 1038.54 2.34492 0.0711787 0
M  V30 10707 C 1039.55 1.52754 0.8332 0
M  V30 10708 O 1040.73 1.85475 0.784929 0
M  V30 10709 C 1037.79 3.30767 1.03895 0
M  V30 10710 C 1036.85 4.28412 0.276043 0
M  V30 10711 C 1036.09 5.20087 1.19772 0
M  V30 10712 O 1036.31 5.15743 2.4365 0
M  V30 10713 O 1035.24 5.98038 0.680764 0
M  V30 10714 H 1039.07 2.96203 -0.67063 0
M  V30 10715 H 1036.66 1.4412 -0.393678 0
M  V30 10716 H 1038.54 3.90021 1.59566 0
M  V30 10717 H 1037.21 2.71586 1.76133 0
M  V30 10718 H 1036.12 3.72696 -0.32377 0
M  V30 10719 H 1037.45 4.9052 -0.406364 0
M  V30 10720 N 1039.1 0.374177 1.53094 0
M  V30 10721 C 1040.35 -0.212816 2.01379 0
M  V30 10722 C 1040.68 -1.48069 1.26118 0
M  V30 10723 O 1039.93 -1.92625 0.345561 0
M  V30 10724 C 1040.23 -0.542179 3.53264 0
M  V30 10725 C 1039.9 0.632375 4.46444 0
M  V30 10726 C 1038.56 0.954635 4.71636 0
M  V30 10727 C 1040.91 1.41887 5.01515 0
M  V30 10728 C 1038.24 2.06521 5.4915 0
M  V30 10729 C 1040.59 2.51993 5.80243 0
M  V30 10730 C 1039.26 2.84744 6.03719 0
M  V30 10731 H 1038.53 -0.0778749 0.736897 0
M  V30 10732 H 1041.17 0.508412 1.84628 0
M  V30 10733 H 1039.48 -1.34454 3.68007 0
M  V30 10734 H 1041.18 -1.00874 3.88105 0
M  V30 10735 H 1037.77 0.371179 4.2699 0
M  V30 10736 H 1041.95 1.18315 4.81991 0
M  V30 10737 H 1037.21 2.32284 5.65557 0
M  V30 10738 H 1041.38 3.13346 6.21922 0
M  V30 10739 H 1039.01 3.70921 6.63568 0
M  V30 10740 N 1040.58 -1.57259 0.103575 0
M  V30 10741 C 1041.52 -2.10165 -0.889141 0
M  V30 10742 C 1042.49 -1.01426 -1.27089 0
M  V30 10743 O 1043.68 -1.2898 -1.37465 0
M  V30 10744 C 1040.8 -2.58564 -2.18774 0
M  V30 10745 C 1039.85 -3.79043 -1.95522 0
M  V30 10746 S 1040.68 -5.22213 -1.18551 0
M  V30 10747 C 1041.84 -5.73968 -2.49623 0
M  V30 10748 H 1042.07 -2.9404 -0.439083 0
M  V30 10749 H 1039.61 -1.54008 -0.10989 0
M  V30 10750 H 1041.56 -2.87106 -2.93395 0
M  V30 10751 H 1040.22 -1.749 -2.609 0
M  V30 10752 H 1039.42 -4.11004 -2.91705 0
M  V30 10753 H 1039.02 -3.51038 -1.29028 0
M  V30 10754 H 1041.31 -5.82752 -3.45553 0
M  V30 10755 H 1042.25 -6.72324 -2.22229 0
M  V30 10756 H 1042.66 -5.01946 -2.58284 0
M  V30 10757 N 1042.06 0.170153 -1.56679 0
M  V30 10758 C 1042.97 1.23057 -1.99735 0
M  V30 10759 C 1043.99 1.48374 -0.908912 0
M  V30 10760 O 1045.16 1.60499 -1.21663 0
M  V30 10761 C 1042.23 2.54944 -2.34956 0
M  V30 10762 C 1041.29 2.3748 -3.57634 0
M  V30 10763 C 1040.52 3.63078 -3.91165 0
M  V30 10764 O 1040.74 4.68304 -3.2565 0
M  V30 10765 O 1039.68 3.57119 -4.8451 0
M  V30 10766 H 1043.5 0.895104 -2.9021 0
M  V30 10767 H 1041.09 0.377109 -1.44562 0
M  V30 10768 H 1042.97 3.32742 -2.58574 0
M  V30 10769 H 1041.65 2.88068 -1.47643 0
M  V30 10770 H 1040.55 1.57709 -3.39232 0
M  V30 10771 H 1041.89 2.0928 -4.45491 0
M  V30 10772 N 1043.54 1.5137 0.438746 0
M  V30 10773 C 1044.49 1.73154 1.55308 0
M  V30 10774 C 1045.48 0.597825 1.58501 0
M  V30 10775 O 1046.69 0.77917 1.62262 0
M  V30 10776 H 1043.06 0.547083 0.51595 0
M  V30 10777 H 1045.03 2.66566 1.34108 0
M  V30 10778 C 1043.78 1.87242 2.92977 0
M  V30 10779 H 1043.1 2.73884 2.91252 0
M  V30 10780 H 1044.54 2.06497 3.70317 0
M  V30 10781 C 1043 0.631887 3.30921 0
M  V30 10782 O 1043.53 -0.214099 4.01129 0
M  V30 10783 N 1041.74 0.47639 2.86669 0
M  V30 10784 H 1041.29 1.16589 2.29706 0
M  V30 10785 H 1041.24 -0.352403 3.12419 0
M  V30 10786 N 1045.02 -0.694098 1.41492 0
M  V30 10787 C 1046.26 -1.45127 1.4065 0
M  V30 10788 C 1046.59 -1.94993 0.0170289 0
M  V30 10789 O 1045.86 -1.71799 -0.941372 0
M  V30 10790 H 1044.44 -0.538493 0.51772 0
M  V30 10791 H 1047.1 -0.821441 1.76744 0
M  V30 10792 H 1046.19 -2.31372 2.0946 0
M  V30 10793 N 1046.49 -1.27344 -0.928501 0
M  V30 10794 C 1047.46 -1.10043 -2.01055 0
M  V30 10795 C 1048.46 -0.0446793 -1.60738 0
M  V30 10796 O 1049.65 -0.289202 -1.71783 0
M  V30 10797 C 1046.78 -0.676559 -3.34119 0
M  V30 10798 H 1047.97 -2.06126 -2.17835 0
M  V30 10799 H 1045.53 -1.10121 -1.10919 0
M  V30 10800 H 1046.26 0.285697 -3.23039 0
M  V30 10801 H 1046.05 -1.43903 -3.64739 0
M  V30 10802 H 1047.54 -0.577725 -4.13584 0
M  V30 10803 N 1047.97 1.13488 -1.09353 0
M  V30 10804 C 1048.9 2.20988 -0.75409 0
M  V30 10805 C 1049.88 1.67977 0.267901 0
M  V30 10806 O 1051.07 1.93722 0.136128 0
M  V30 10807 C 1048.2 3.46869 -0.173042 0
M  V30 10808 C 1047.15 4.12965 -1.12446 0
M  V30 10809 C 1046.48 5.33163 -0.405157 0
M  V30 10810 C 1047.78 4.60388 -2.46658 0
M  V30 10811 H 1049.47 2.49639 -1.6529 0
M  V30 10812 H 1047.02 1.19987 -0.796182 0
M  V30 10813 H 1048.97 4.21331 0.0764988 0
M  V30 10814 H 1047.7 3.17611 0.760956 0
M  V30 10815 H 1046.35 3.40469 -1.35927 0
M  V30 10816 H 1046 5.00169 0.532955 0
M  V30 10817 H 1045.7 5.78332 -1.03952 0
M  V30 10818 H 1047.23 6.1038 -0.163899 0
M  V30 10819 H 1048.64 5.26276 -2.27389 0
M  V30 10820 H 1047.04 5.16294 -3.05876 0
M  V30 10821 H 1048.11 3.74949 -3.07476 0
M  V30 10822 N 1049.45 0.880621 1.30701 0
M  V30 10823 C 1050.73 0.41712 1.91101 0
M  V30 10824 C 1051.11 -1.10177 1.80067 0
M  V30 10825 O 1050.46 -1.93513 1.21511 0
M  V30 10826 C 1050.67 0.910364 3.36917 0
M  V30 10827 C 1052.01 0.942764 4.14001 0
M  V30 10828 O 1053.04 0.856733 3.45743 0
M  V30 10829 O 1051.9 1.06913 5.3594 0
M  V30 10830 H 1048.99 0.126775 0.817225 0
M  V30 10831 H 1051.54 0.969236 1.39298 0
M  V30 10832 H 1050.31 1.95414 3.39012 0
M  V30 10833 H 1049.93 0.337164 3.96168 0
M  V30 10834 N 1050.93 -1.4397 0.641131 0
M  V30 10835 C 1051.89 -2.29149 -0.0482243 0
M  V30 10836 C 1052.89 -1.41572 -0.762495 0
M  V30 10837 O 1054.08 -1.63335 -0.605571 0
M  V30 10838 C 1051.21 -3.23375 -1.07896 0
M  V30 10839 H 1052.41 -2.9159 0.70109 0
M  V30 10840 H 1049.96 -1.51048 0.401754 0
M  V30 10841 H 1050.7 -2.65804 -1.85792 0
M  V30 10842 H 1050.48 -3.87926 -0.570597 0
M  V30 10843 H 1051.97 -3.87337 -1.56075 0
M  V30 10844 N 1052.41 -0.382291 -1.52893 0
M  V30 10845 C 1053.65 0.202133 -2.01489 0
M  V30 10846 C 1053.98 1.47399 -1.26901 0
M  V30 10847 O 1053.24 1.92439 -0.355771 0
M  V30 10848 C 1053.54 0.523437 -3.53546 0
M  V30 10849 C 1053.2 -0.656042 -4.46102 0
M  V30 10850 C 1051.86 -0.979633 -4.71123 0
M  V30 10851 C 1054.22 -1.44545 -5.00756 0
M  V30 10852 C 1051.54 -2.0943 -5.48047 0
M  V30 10853 C 1053.9 -2.55066 -5.78899 0
M  V30 10854 C 1052.56 -2.87942 -6.02201 0
M  V30 10855 H 1051.83 0.0739659 -0.737299 0
M  V30 10856 H 1054.48 -0.518196 -1.84356 0
M  V30 10857 H 1052.78 1.325 -3.68715 0
M  V30 10858 H 1054.48 0.988148 -3.88634 0
M  V30 10859 H 1051.07 -0.393818 -4.26787 0
M  V30 10860 H 1055.25 -1.20869 -4.81357 0
M  V30 10861 H 1050.51 -2.3528 -5.64317 0
M  V30 10862 H 1054.68 -3.1664 -6.20252 0
M  V30 10863 H 1052.31 -3.74435 -6.61591 0
M  V30 10864 N 1053.89 1.57202 -0.111913 0
M  V30 10865 C 1054.82 2.17957 0.837683 0
M  V30 10866 C 1055.8 1.1176 1.28233 0
M  V30 10867 O 1056.98 1.39967 1.34621 0
M  V30 10868 C 1054.11 2.77333 2.09054 0
M  V30 10869 C 1053.07 3.8905 1.78393 0
M  V30 10870 C 1052.39 4.35203 3.10649 0
M  V30 10871 C 1053.69 5.11477 1.05775 0
M  V30 10872 H 1055.39 2.9756 0.331441 0
M  V30 10873 H 1052.93 1.43131 0.157979 0
M  V30 10874 H 1054.88 3.18492 2.75936 0
M  V30 10875 H 1053.61 1.95009 2.6199 0
M  V30 10876 H 1052.27 3.48456 1.13903 0
M  V30 10877 H 1051.92 3.49747 3.61506 0
M  V30 10878 H 1051.62 5.10534 2.9091 0
M  V30 10879 H 1053.14 4.79007 3.78661 0
M  V30 10880 H 1054.55 5.497 1.62798 0
M  V30 10881 H 1052.95 5.92346 0.961573 0
M  V30 10882 H 1054.02 4.84881 0.043297 0
M  V30 10883 N 1055.36 -0.161842 1.56767 0
M  V30 10884 C 1056.78 -0.51396 1.51098 0
M  V30 10885 C 1056.98 -1.84158 0.817815 0
M  V30 10886 O 1056.04 -2.49592 0.382133 0
M  V30 10887 C 1057.35 -0.537966 2.95849 0
M  V30 10888 C 1058.9 -0.624512 3.06706 0
M  V30 10889 C 1059.37 -0.679322 4.52934 0
M  V30 10890 N 1060.86 -0.741953 4.57219 0
M  V30 10891 C 1061.6 -0.805096 5.6772 0
M  V30 10892 N 1061.09 -0.828492 6.87828 0
M  V30 10893 N 1062.89 -0.844843 5.55715 0
M  V30 10894 H 1055.04 0.708581 2.00232 0
M  V30 10895 H 1057.3 0.25663 0.912603 0
M  V30 10896 H 1057.01 0.369052 3.49758 0
M  V30 10897 H 1056.88 -1.38113 3.51005 0
M  V30 10898 H 1059.27 -1.52195 2.52825 0
M  V30 10899 H 1059.35 0.245515 2.54619 0
M  V30 10900 H 1058.99 0.213901 5.07449 0
M  V30 10901 H 1058.92 -1.56563 5.02788 0
M  V30 10902 H 1061.41 -0.731772 3.70747 0
M  V30 10903 H 1061.73 -0.878109 7.67795 0
M  V30 10904 H 1060.07 -0.796612 6.9042 0
M  V30 10905 H 1063.26 -0.823632 4.60797 0
M  V30 10906 H 1063.44 -0.890588 6.41851 0
M  V30 10907 N 1056.84 -1.516 -0.430713 0
M  V30 10908 C 1057.75 -1.76247 -1.54836 0
M  V30 10909 C 1058.77 -0.646985 -1.61524 0
M  V30 10910 O 1059.94 -0.929987 -1.78643 0
M  V30 10911 C 1057.01 -1.88833 -2.90763 0
M  V30 10912 C 1056.07 -3.12701 -2.94137 0
M  V30 10913 C 1055.3 -3.24676 -4.23581 0
M  V30 10914 O 1055.53 -2.42429 -5.16318 0
M  V30 10915 O 1054.46 -4.17697 -4.33374 0
M  V30 10916 H 1058.29 -2.71069 -1.3695 0
M  V30 10917 H 1055.87 -1.36182 -0.614396 0
M  V30 10918 H 1057.75 -1.99057 -3.71422 0
M  V30 10919 H 1056.43 -0.971987 -3.08762 0
M  V30 10920 H 1055.33 -3.0795 -2.1241 0
M  V30 10921 H 1056.67 -4.04045 -2.81084 0
M  V30 10922 N 1058.32 0.686584 -1.41858 0
M  V30 10923 C 1059.74 0.998283 -1.24525 0
M  V30 10924 C 1059.94 2.01006 -0.141007 0
M  V30 10925 O 1058.99 2.47667 0.491648 0
M  V30 10926 C 1060.3 1.51432 -2.59786 0
M  V30 10927 C 1061.85 1.6327 -2.67043 0
M  V30 10928 C 1062.33 2.18274 -4.02642 0
M  V30 10929 N 1063.82 2.25622 -4.04535 0
M  V30 10930 C 1064.55 2.69229 -5.06264 0
M  V30 10931 N 1064.05 3.12375 -6.1838 0
M  V30 10932 N 1065.84 2.68873 -4.93623 0
M  V30 10933 H 1057.99 0.0164825 -2.12394 0
M  V30 10934 H 1060.26 0.0698613 -0.945422 0
M  V30 10935 H 1059.96 0.845426 -3.41388 0
M  V30 10936 H 1059.84 2.49502 -2.82894 0
M  V30 10937 H 1062.22 2.29269 -1.85794 0
M  V30 10938 H 1062.3 0.637221 -2.47736 0
M  V30 10939 H 1061.95 1.52887 -4.84343 0
M  V30 10940 H 1061.88 3.18591 -4.19294 0
M  V30 10941 H 1064.37 1.95186 -3.23591 0
M  V30 10942 H 1064.68 3.44301 -6.91864 0
M  V30 10943 H 1063.03 3.10262 -6.21902 0
M  V30 10944 H 1066.22 2.34521 -4.05114 0
M  V30 10945 H 1066.39 3.02539 -5.7304 0
M  V30 10946 N 1059.8 1.27835 0.921735 0
M  V30 10947 C 1060.71 1.12904 2.05645 0
M  V30 10948 C 1061.72 0.0575704 1.73905 0
M  V30 10949 O 1062.9 0.265261 1.99645 0
M  V30 10950 C 1059.96 0.783957 3.3772 0
M  V30 10951 C 1059.03 1.93694 3.8312 0
M  V30 10952 C 1058.26 1.60823 5.08893 0
M  V30 10953 O 1058.48 0.518873 5.68035 0
M  V30 10954 O 1057.42 2.44932 5.49811 0
M  V30 10955 H 1061.24 2.08143 2.21157 0
M  V30 10956 H 1058.83 1.07078 1.04185 0
M  V30 10957 H 1060.71 0.605107 4.17033 0
M  V30 10958 H 1059.38 -0.138849 3.23402 0
M  V30 10959 H 1058.29 2.17089 3.04669 0
M  V30 10960 H 1059.62 2.84016 4.0199 0
M  V30 10961 N 1061.28 -1.12907 1.09954 0
M  V30 10962 C 1062.55 -1.80602 0.751148 0
M  V30 10963 C 1062.93 -1.96826 -0.763077 0
M  V30 10964 O 1062.28 -1.54066 -1.68749 0
M  V30 10965 C 1062.49 -3.15289 1.49646 0
M  V30 10966 C 1063.84 -3.9056 1.66578 0
M  V30 10967 O 1064.86 -3.24929 1.45943 0
M  V30 10968 O 1063.72 -5.08292 2.00752 0
M  V30 10969 H 1060.82 -0.781529 0.270446 0
M  V30 10970 H 1063.36 -1.19786 1.20206 0
M  V30 10971 H 1062.13 -2.9874 2.52725 0
M  V30 10972 H 1061.76 -3.83809 1.03808 0
M  V30 10973 N 1062.75 -0.88754 -1.30232 0
M  V30 10974 C 1063.69 -0.313488 -2.27046 0
M  V30 10975 C 1064.7 0.533383 -1.53814 0
M  V30 10976 O 1065.89 0.352516 -1.74984 0
M  V30 10977 C 1062.99 0.572674 -3.34026 0
M  V30 10978 C 1062.16 -0.245712 -4.36709 0
M  V30 10979 C 1061.22 0.57135 -5.23089 0
M  V30 10980 O 1060.25 -0.00685948 -5.692 0
M  V30 10981 N 1061.45 1.87994 -5.49216 0
M  V30 10982 H 1064.21 -1.14553 -2.76943 0
M  V30 10983 H 1061.77 -0.750785 -1.43439 0
M  V30 10984 H 1063.77 1.12539 -3.88738 0
M  V30 10985 H 1062.34 1.3054 -2.84039 0
M  V30 10986 H 1061.56 -0.979869 -3.81827 0
M  V30 10987 H 1062.84 -0.806618 -5.02366 0
M  V30 10988 H 1062.24 2.3726 -5.13541 0
M  V30 10989 H 1060.8 2.38005 -6.06792 0
M  V30 10990 N 1064.23 1.43628 -0.648757 0
M  V30 10991 C 1065.16 2.33478 0.0320785 0
M  V30 10992 C 1066.14 1.49217 0.816605 0
M  V30 10993 O 1067.33 1.77892 0.778974 0
M  V30 10994 C 1064.46 3.32525 1.00222 0
M  V30 10995 C 1063.41 4.2674 0.328119 0
M  V30 10996 C 1062.74 5.15791 1.4094 0
M  V30 10997 C 1064.04 5.16493 -0.776701 0
M  V30 10998 H 1065.73 2.90657 -0.718257 0
M  V30 10999 H 1063.28 1.3976 -0.346852 0
M  V30 11000 H 1065.23 3.94277 1.4874 0
M  V30 11001 H 1063.96 2.73593 1.78366 0
M  V30 11002 H 1062.61 3.66346 -0.136569 0
M  V30 11003 H 1062.26 4.53201 2.18216 0
M  V30 11004 H 1061.96 5.79645 0.963631 0
M  V30 11005 H 1063.49 5.80416 1.89603 0
M  V30 11006 H 1064.9 5.7208 -0.373878 0
M  V30 11007 H 1063.3 5.89043 -1.14667 0
M  V30 11008 H 1064.37 4.56448 -1.63654 0
M  V30 11009 N 1065.71 0.390394 1.52688 0
M  V30 11010 C 1066.96 -0.191729 2.01892 0
M  V30 11011 C 1067.29 -1.4637 1.27631 0
M  V30 11012 O 1066.56 -1.90809 0.377094 0
M  V30 11013 C 1066.85 -0.458535 3.57169 0
M  V30 11014 C 1066.7 0.828796 4.42098 0
M  V30 11015 C 1068.02 -1.2487 4.22014 0
M  V30 11016 H 1065.14 -0.0682091 0.733837 0
M  V30 11017 H 1067.78 0.520176 1.82741 0
M  V30 11018 H 1065.93 -1.06498 3.73618 0
M  V30 11019 H 1067.6 1.46562 4.37398 0
M  V30 11020 H 1065.85 1.44388 4.09066 0
M  V30 11021 H 1066.52 0.596746 5.48765 0
M  V30 11022 H 1068.99 -0.735452 4.09549 0
M  V30 11023 H 1067.87 -1.40412 5.30637 0
M  V30 11024 H 1068.13 -2.2642 3.79719 0
M  V30 11025 N 1067.19 -1.57141 0.120249 0
M  V30 11026 C 1068.6 -1.82256 -0.404931 0
M  V30 11027 C 1068.95 -1.03748 -1.66526 0
M  V30 11028 O 1068.08 -0.274456 -2.14653 0
M  V30 11029 C 1068.67 -3.30588 -0.741431 0
M  V30 11030 C 1067.23 -3.56379 -1.21124 0
M  V30 11031 C 1066.38 -2.76421 -0.220569 0
M  V30 11032 H 1069.33 -1.54897 0.345361 0
M  V30 11033 H 1069.35 -3.45284 -1.59872 0
M  V30 11034 H 1068.86 -3.87701 0.176036 0
M  V30 11035 H 1066.96 -3.04625 -2.14556 0
M  V30 11036 H 1067.07 -4.64952 -1.1557 0
M  V30 11037 H 1065.44 -2.44666 -0.707857 0
M  V30 11038 H 1066.22 -3.36294 0.690018 0
M  V30 11039 N 1068.67 0.153526 -1.5685 0
M  V30 11040 C 1069.91 0.865519 -1.82629 0
M  V30 11041 C 1070.24 1.81999 -0.700105 0
M  V30 11042 O 1069.51 1.93907 0.278744 0
M  V30 11043 H 1068.09 0.32261 -0.673745 0
M  V30 11044 H 1070.75 0.149088 -1.94329 0
M  V30 11045 H 1069.84 1.43171 -2.77324 0
M  V30 11046 N 1070.14 1.51827 0.422667 0
M  V30 11047 C 1071.08 1.70409 1.53275 0
M  V30 11048 C 1072.09 0.584584 1.51942 0
M  V30 11049 O 1073.28 0.859349 1.56453 0
M  V30 11050 C 1070.38 1.717 2.92185 0
M  V30 11051 C 1069.55 3.00472 3.17861 0
M  V30 11052 C 1068.61 2.93755 4.36571 0
M  V30 11053 O 1067.64 3.67682 4.3451 0
M  V30 11054 N 1068.84 2.10612 5.40946 0
M  V30 11055 H 1071.6 2.66176 1.37734 0
M  V30 11056 H 1069.16 1.49895 0.611799 0
M  V30 11057 H 1071.16 1.64756 3.69645 0
M  V30 11058 H 1069.73 0.834655 3.01251 0
M  V30 11059 H 1068.95 3.21171 2.28567 0
M  V30 11060 H 1070.23 3.85684 3.31851 0
M  V30 11061 H 1069.63 1.49954 5.45463 0
M  V30 11062 H 1068.19 2.09535 6.17202 0
M  V30 11063 N 1071.62 -0.679052 1.4222 0
M  V30 11064 C 1072.55 -1.80481 1.48152 0
M  V30 11065 C 1073.53 -1.66698 0.338502 0
M  V30 11066 O 1074.72 -1.86183 0.552228 0
M  V30 11067 C 1071.85 -3.18746 1.37908 0
M  V30 11068 C 1070.8 -3.47258 2.50192 0
M  V30 11069 C 1070.13 -4.85052 2.25008 0
M  V30 11070 C 1071.43 -3.44576 3.92511 0
M  V30 11071 H 1073.12 -1.75774 2.42371 0
M  V30 11072 H 1070.67 -0.844241 1.16656 0
M  V30 11073 H 1072.62 -3.97229 1.40666 0
M  V30 11074 H 1071.35 -3.24119 0.401806 0
M  V30 11075 H 1070 -2.71133 2.46744 0
M  V30 11076 H 1069.65 -4.8707 1.25584 0
M  V30 11077 H 1069.35 -5.05092 3.00259 0
M  V30 11078 H 1070.88 -5.65825 2.29508 0
M  V30 11079 H 1072.29 -4.13036 3.97585 0
M  V30 11080 H 1070.69 -3.76151 4.67579 0
M  V30 11081 H 1071.76 -2.4323 4.19484 0
M  V30 11082 N 1073.1 -1.28322 -0.914942 0
M  V30 11083 C 1074.35 -1.15578 -1.66642 0
M  V30 11084 C 1074.68 0.295209 -1.91943 0
M  V30 11085 O 1073.95 1.21482 -1.51896 0
M  V30 11086 C 1074.24 -1.9535 -3.02507 0
M  V30 11087 C 1074.09 -3.48504 -2.84367 0
M  V30 11088 C 1075.41 -1.76798 -4.03027 0
M  V30 11089 H 1072.53 -0.421234 -0.604757 0
M  V30 11090 H 1075.17 -1.57625 -1.06087 0
M  V30 11091 H 1073.32 -1.59619 -3.54195 0
M  V30 11092 H 1074.99 -3.94135 -2.39699 0
M  V30 11093 H 1073.24 -3.74198 -2.1945 0
M  V30 11094 H 1073.91 -3.99576 -3.80845 0
M  V30 11095 H 1076.38 -2.07977 -3.60395 0
M  V30 11096 H 1075.26 -2.34987 -4.96057 0
M  V30 11097 H 1075.52 -0.719162 -4.36211 0
M  V30 11098 N 1074.58 1.12322 -1.10551 0
M  V30 11099 C 1075.54 2.16273 -0.758844 0
M  V30 11100 C 1076.54 1.59325 0.217294 0
M  V30 11101 O 1077.73 1.74199 -0.00601346 0
M  V30 11102 C 1074.86 3.40674 -0.124238 0
M  V30 11103 H 1076.06 2.48454 -1.6796 0
M  V30 11104 H 1073.61 1.2735 -0.906188 0
M  V30 11105 H 1074.34 3.14094 0.807194 0
M  V30 11106 H 1074.13 3.83284 -0.826772 0
M  V30 11107 H 1075.62 4.17474 0.102502 0
M  V30 11108 N 1076.06 0.894434 1.2976 0
M  V30 11109 C 1076.99 0.312806 2.26046 0
M  V30 11110 C 1077.97 -0.572024 1.52206 0
M  V30 11111 O 1079.15 -0.520009 1.81185 0
M  V30 11112 C 1076.28 -0.554624 3.34128 0
M  V30 11113 C 1075.32 0.262168 4.25693 0
M  V30 11114 S 1076.16 1.65656 5.09233 0
M  V30 11115 C 1077.31 0.795914 6.20819 0
M  V30 11116 H 1077.55 1.12895 2.75031 0
M  V30 11117 H 1075.08 0.694446 1.37901 0
M  V30 11118 H 1077.04 -1.04933 3.96862 0
M  V30 11119 H 1075.7 -1.34495 2.83848 0
M  V30 11120 H 1074.89 -0.400216 5.02408 0
M  V30 11121 H 1074.49 0.689829 3.67583 0
M  V30 11122 H 1076.79 0.0169942 6.77498 0
M  V30 11123 H 1077.73 1.53497 6.91263 0
M  V30 11124 H 1078.14 0.35263 5.63398 0
M  V30 11125 N 1077.53 -1.43282 0.656365 0
M  V30 11126 C 1078.46 -2.33492 -0.0196962 0
M  V30 11127 C 1079.45 -1.49647 -0.80868 0
M  V30 11128 O 1080.63 -1.78303 -0.769529 0
M  V30 11129 C 1077.76 -3.33052 -0.984574 0
M  V30 11130 C 1076.71 -4.26908 -0.305483 0
M  V30 11131 C 1076.04 -5.16531 -1.38202 0
M  V30 11132 C 1077.34 -5.16073 0.804081 0
M  V30 11133 H 1079.03 -2.90272 0.733661 0
M  V30 11134 H 1076.58 -1.39574 0.354259 0
M  V30 11135 H 1078.53 -3.9506 -1.46647 0
M  V30 11136 H 1077.26 -2.74535 -1.76913 0
M  V30 11137 H 1075.92 -3.66268 0.155995 0
M  V30 11138 H 1075.56 -4.54351 -2.1581 0
M  V30 11139 H 1075.26 -5.80148 -0.932878 0
M  V30 11140 H 1076.79 -5.81414 -1.86522 0
M  V30 11141 H 1078.2 -5.71873 0.404212 0
M  V30 11142 H 1076.6 -5.88427 1.17789 0
M  V30 11143 H 1077.67 -4.55574 1.66073 0
M  V30 11144 N 1079.01 -0.398486 -1.52479 0
M  V30 11145 C 1079.95 0.467426 -2.24383 0
M  V30 11146 C 1080.96 1.01908 -1.26959 0
M  V30 11147 O 1082.15 0.919843 -1.52974 0
M  V30 11148 C 1079.25 1.66146 -2.95379 0
M  V30 11149 C 1078.42 1.23557 -4.19586 0
M  V30 11150 C 1077.48 2.29532 -4.73499 0
M  V30 11151 O 1076.51 1.90561 -5.36354 0
M  V30 11152 N 1077.71 3.61564 -4.5415 0
M  V30 11153 H 1080.47 -0.148653 -2.99331 0
M  V30 11154 H 1078.03 -0.225313 -1.60325 0
M  V30 11155 H 1080.03 2.36585 -3.28344 0
M  V30 11156 H 1078.6 2.18369 -2.23682 0
M  V30 11157 H 1077.82 0.359715 -3.92555 0
M  V30 11158 H 1079.1 0.927812 -5.00269 0
M  V30 11159 H 1078.5 3.95983 -4.03998 0
M  V30 11160 H 1077.06 4.2801 -4.9158 0
M  V30 11161 N 1080.49 1.57075 -0.12858 0
M  V30 11162 C 1081.74 1.95134 0.526046 0
M  V30 11163 C 1082.06 1.01337 1.66601 0
M  V30 11164 O 1081.33 0.0714361 1.9577 0
M  V30 11165 H 1079.91 0.720468 0.19732 0
M  V30 11166 H 1082.57 1.93874 -0.199767 0
M  V30 11167 H 1081.67 2.98406 0.914332 0
M  V30 11168 N 1081.97 -0.145205 1.5693 0
M  V30 11169 C 1083.22 -0.855955 1.82637 0
M  V30 11170 C 1083.53 -1.82255 0.710109 0
M  V30 11171 O 1084.74 -2.57758 0.852837 0
M  V30 11172 C 1083.19 -1.57278 3.23715 0
M  V30 11173 C 1082.8 -0.648507 4.43281 0
M  V30 11174 C 1084.55 -2.27021 3.58695 0
M  V30 11175 C 1082.45 -1.36706 5.75383 0
M  V30 11176 H 1081.38 -0.323385 0.68113 0
M  V30 11177 H 1084.03 -0.10869 1.83178 0
M  V30 11178 H 1082.42 -2.36574 3.17567 0
M  V30 11179 H 1083.59 0.109355 4.6067 0
M  V30 11180 H 1081.9 -0.0594029 4.16358 0
M  V30 11181 H 1084.5 -2.81423 4.54648 0
M  V30 11182 H 1084.84 -3.03598 2.8484 0
M  V30 11183 H 1085.38 -1.54642 3.66512 0
M  V30 11184 H 1082.12 -0.6431 6.52338 0
M  V30 11185 H 1081.64 -2.09759 5.61926 0
M  V30 11186 H 1083.32 -1.90748 6.18243 0
M  V30 11187 N 1083.45 -1.52049 -0.414609 0
M  V30 11188 C 1084.41 -1.74382 -1.4874 0
M  V30 11189 C 1085.41 -0.613701 -1.48628 0
M  V30 11190 O 1086.6 -0.88152 -1.50249 0
M  V30 11191 C 1083.73 -1.82116 -2.88178 0
M  V30 11192 H 1084.93 -2.70147 -1.30233 0
M  V30 11193 H 1082.48 -1.42382 -0.644756 0
M  V30 11194 H 1083.21 -0.882457 -3.12063 0
M  V30 11195 H 1083 -2.64268 -2.89663 0
M  V30 11196 H 1084.49 -2.01155 -3.65959 0
M  V30 11197 N 1084.93 0.6715 -1.42579 0
M  V30 11198 C 1086.15 1.46471 -1.46836 0
M  V30 11199 C 1086.58 1.87921 -0.0820658 0
M  V30 11200 O 1085.93 1.5621 0.920217 0
M  V30 11201 C 1085.98 2.68796 -2.40377 0
M  V30 11202 O 1085.09 3.67188 -1.87741 0
M  V30 11203 H 1084.43 0.439901 -0.497376 0
M  V30 11204 H 1086.96 0.823342 -1.87303 0
M  V30 11205 H 1086.97 3.16828 -2.57068 0
M  V30 11206 H 1085.64 2.37967 -3.41093 0
M  V30 11207 H 1084.22 3.26237 -1.80621 0
M  V30 11208 N 1086.4 1.28806 0.908124 0
M  V30 11209 C 1087.65 1.16058 1.65454 0
M  V30 11210 C 1087.97 -0.290057 1.92831 0
M  V30 11211 O 1087.24 -1.20001 1.54843 0
M  V30 11212 H 1085.82 0.426522 0.61326 0
M  V30 11213 H 1088.48 1.61614 1.08936 0
M  V30 11214 H 1087.58 1.70437 2.61453 0
M  V30 11215 N 1087.88 -1.11734 1.11145 0
M  V30 11216 C 1088.81 -2.16847 0.710809 0
M  V30 11217 C 1089.79 -1.59966 -0.291494 0
M  V30 11218 O 1090.98 -1.87554 -0.188645 0
M  V30 11219 C 1088.1 -3.38663 0.0499744 0
M  V30 11220 C 1087.15 -4.14199 1.01693 0
M  V30 11221 S 1087.98 -4.7154 2.53793 0
M  V30 11222 C 1089.14 -5.96682 1.89001 0
M  V30 11223 H 1089.37 -2.50497 1.60121 0
M  V30 11224 H 1086.9 -1.23311 0.929182 0
M  V30 11225 H 1088.86 -4.09212 -0.324959 0
M  V30 11226 H 1087.52 -3.03279 -0.817335 0
M  V30 11227 H 1086.72 -5.01494 0.501933 0
M  V30 11228 H 1086.32 -3.49395 1.33414 0
M  V30 11229 H 1088.61 -6.6634 1.22462 0
M  V30 11230 H 1089.55 -6.52821 2.74282 0
M  V30 11231 H 1089.96 -5.48084 1.35145 0
M  V30 11232 N 1089.36 -0.901303 -1.29284 0
M  V30 11233 C 1090.31 -0.370142 -2.29636 0
M  V30 11234 C 1091.3 0.53157 -1.60844 0
M  V30 11235 O 1092.51 0.414194 -1.7517 0
M  V30 11236 H 1088.88 -0.101072 -0.745177 0
M  V30 11237 H 1090.85 -1.22985 -2.71877 0
M  V30 11238 C 1089.6 0.385806 -3.45553 0
M  V30 11239 H 1088.93 -0.298818 -3.98682 0
M  V30 11240 H 1090.37 0.722299 -4.17802 0
M  V30 11241 C 1088.82 1.58907 -2.97069 0
M  V30 11242 O 1089.35 2.68835 -2.98481 0
M  V30 11243 N 1087.56 1.43178 -2.5288 0
M  V30 11244 H 1087.11 0.537467 -2.51931 0
M  V30 11245 H 1087.07 2.23819 -2.208 0
M  V30 11246 N 1090.84 1.42931 -0.663954 0
M  V30 11247 C 1092.07 2.05729 -0.189532 0
M  V30 11248 C 1092.48 1.49914 1.15423 0
M  V30 11249 O 1091.82 0.629324 1.72584 0
M  V30 11250 C 1091.88 3.59482 -0.0354748 0
M  V30 11251 C 1091.54 4.37935 -1.30622 0
M  V30 11252 C 1092.54 4.69297 -2.23733 0
M  V30 11253 C 1090.23 4.77761 -1.5508 0
M  V30 11254 C 1092.22 5.39407 -3.39586 0
M  V30 11255 C 1089.91 5.47613 -2.71224 0
M  V30 11256 C 1090.91 5.7836 -3.63302 0
M  V30 11257 O 1090.59 6.46783 -4.77417 0
M  V30 11258 H 1090.33 0.669678 -0.0922342 0
M  V30 11259 H 1092.88 1.84243 -0.907943 0
M  V30 11260 H 1091.11 3.79584 0.738412 0
M  V30 11261 H 1092.8 4.03947 0.397679 0
M  V30 11262 H 1093.56 4.39038 -2.06084 0
M  V30 11263 H 1089.44 4.53229 -0.842863 0
M  V30 11264 H 1092.99 5.63323 -4.11476 0
M  V30 11265 H 1088.88 5.77289 -2.88804 0
M  V30 11266 H 1089.65 6.6527 -4.76821 0
M  V30 11267 N 1092.32 0.406567 1.52266 0
M  V30 11268 C 1093.25 -0.411314 2.29849 0
M  V30 11269 C 1094.23 -1.04838 1.33952 0
M  V30 11270 O 1095.41 -1.05788 1.62857 0
M  V30 11271 C 1092.54 -1.52961 3.11802 0
M  V30 11272 C 1091.5 -1.01768 4.15725 0
M  V30 11273 C 1090.82 -2.22938 4.86007 0
M  V30 11274 C 1092.12 -0.073515 5.22248 0
M  V30 11275 H 1093.82 0.236054 2.98468 0
M  V30 11276 H 1091.36 0.114968 1.4354 0
M  V30 11277 H 1093.31 -2.10874 3.64843 0
M  V30 11278 H 1092.04 -2.20482 2.40947 0
M  V30 11279 H 1090.7 -0.46097 3.6369 0
M  V30 11280 H 1090.35 -2.89007 4.11684 0
M  V30 11281 H 1090.05 -1.89338 5.5626 0
M  V30 11282 H 1091.57 -2.81462 5.41859 0
M  V30 11283 H 1092.98 -0.561367 5.70545 0
M  V30 11284 H 1091.38 0.173551 5.99849 0
M  V30 11285 H 1092.45 0.872524 4.76985 0
M  V30 11286 N 1093.79 -1.57004 0.136909 0
M  V30 11287 C 1095.02 -2.00587 -0.527209 0
M  V30 11288 C 1095.44 -1.01628 -1.58283 0
M  V30 11289 O 1094.8 0.00946934 -1.81298 0
M  V30 11290 C 1094.85 -3.42967 -1.11384 0
M  V30 11291 O 1093.95 -3.46973 -2.22898 0
M  V30 11292 H 1093.3 -0.651155 -0.129976 0
M  V30 11293 H 1095.83 -2.03296 0.230667 0
M  V30 11294 H 1095.84 -3.81555 -1.44499 0
M  V30 11295 H 1094.51 -4.14502 -0.340736 0
M  V30 11296 H 1093.09 -3.20219 -1.91087 0
M  V30 11297 N 1095.27 0.136881 -1.57004 0
M  V30 11298 C 1096.22 1.18782 -1.99984 0
M  V30 11299 C 1097.21 1.43899 -0.893841 0
M  V30 11300 O 1098.42 1.44072 -1.07904 0
M  V30 11301 H 1094.8 0.400065 -0.636751 0
M  V30 11302 H 1096.77 0.798696 -2.87512 0
M  V30 11303 C 1095.52 2.51105 -2.40502 0
M  V30 11304 H 1094.84 2.32611 -3.25165 0
M  V30 11305 H 1096.28 3.23244 -2.74389 0
M  V30 11306 C 1094.74 3.12386 -1.26161 0
M  V30 11307 O 1095.27 3.97666 -0.567836 0
M  V30 11308 N 1093.47 2.71989 -1.02326 0
M  V30 11309 H 1093.02 2.02736 -1.58921 0
M  V30 11310 H 1092.98 3.13322 -0.26013 0
M  V30 11311 N 1096.75 1.52266 0.40654 0
M  V30 11312 C 1097.7 1.72175 1.49465 0
M  V30 11313 C 1098.68 0.575668 1.50249 0
M  V30 11314 O 1099.88 0.832835 1.56182 0
M  V30 11315 C 1097.01 1.87818 2.87366 0
M  V30 11316 C 1096.09 3.08305 2.91219 0
M  V30 11317 N 1096.48 4.30967 2.64766 0
M  V30 11318 C 1094.78 3.08192 3.22388 0
M  V30 11319 C 1095.48 5.12455 2.75254 0
M  V30 11320 N 1094.46 4.47758 3.08242 0
M  V30 11321 H 1098.26 2.64653 1.27812 0
M  V30 11322 H 1095.77 1.50334 0.61428 0
M  V30 11323 H 1097.77 2.00198 3.65686 0
M  V30 11324 H 1096.43 0.965414 3.10016 0
M  V30 11325 H 1097.44 4.59397 2.39113 0
M  V30 11326 H 1094.12 2.26662 3.50615 0
M  V30 11327 H 1095.51 6.20186 2.58495 0
M  V30 11328 N 1098.23 -0.663929 1.42933 0
M  V30 11329 C 1099.18 -1.79843 1.4751 0
M  V30 11330 C 1100.17 -1.65751 0.349727 0
M  V30 11331 O 1101.38 -1.72227 0.523239 0
M  V30 11332 H 1097.75 -0.593176 0.462219 0
M  V30 11333 H 1099.72 -1.73102 2.4306 0
M  V30 11334 C 1098.47 -3.18053 1.4049 0
M  V30 11335 H 1097.79 -3.29529 2.26386 0
M  V30 11336 H 1099.23 -3.97423 1.47754 0
M  V30 11337 C 1097.69 -3.36682 0.121076 0
M  V30 11338 O 1098.22 -3.93202 -0.821874 0
M  V30 11339 N 1096.43 -2.90579 0.0347141 0
M  V30 11340 H 1095.98 -2.44769 0.802852 0
M  V30 11341 H 1095.93 -3.03421 -0.823607 0
M  V30 11342 N 1099.71 -1.29285 -0.901281 0
M  V30 11343 C 1100.94 -1.19874 -1.68267 0
M  V30 11344 C 1101.34 0.243387 -1.87628 0
M  V30 11345 O 1100.69 1.17497 -1.41209 0
M  V30 11346 C 1100.75 -1.83907 -3.08899 0
M  V30 11347 C 1100.41 -3.33198 -3.12775 0
M  V30 11348 C 1101.41 -4.29446 -2.9304 0
M  V30 11349 C 1099.1 -3.7437 -3.34892 0
M  V30 11350 C 1101.09 -5.64842 -2.95352 0
M  V30 11351 C 1098.78 -5.09888 -3.36834 0
M  V30 11352 C 1099.77 -6.04934 -3.17087 0
M  V30 11353 O 1099.46 -7.37979 -3.18815 0
M  V30 11354 H 1099.19 -0.416601 -0.532372 0
M  V30 11355 H 1101.75 -1.71154 -1.13558 0
M  V30 11356 H 1099.98 -1.27136 -3.65203 0
M  V30 11357 H 1101.67 -1.6884 -3.69118 0
M  V30 11358 H 1102.43 -3.9897 -2.75767 0
M  V30 11359 H 1098.31 -3.00846 -3.49303 0
M  V30 11360 H 1101.86 -6.39004 -2.79856 0
M  V30 11361 H 1097.75 -5.40009 -3.53638 0
M  V30 11362 H 1098.52 -7.46763 -3.35092 0
M  V30 11363 N 1101.18 1.11143 -1.11736 0
M  V30 11364 C 1102.43 1.83219 -0.869413 0
M  V30 11365 C 1102.76 1.84588 0.603402 0
M  V30 11366 O 1102.04 1.30119 1.44566 0
M  V30 11367 C 1102.32 3.30247 -1.43559 0
M  V30 11368 C 1102.17 3.37253 -2.97624 0
M  V30 11369 C 1103.49 4.26412 -1.08907 0
M  V30 11370 H 1100.61 0.665205 -0.317286 0
M  V30 11371 H 1103.25 1.30307 -1.38275 0
M  V30 11372 H 1101.4 3.75437 -0.998978 0
M  V30 11373 H 1103.08 3.00599 -3.49911 0
M  V30 11374 H 1101.32 2.77378 -3.33532 0
M  V30 11375 H 1101.99 4.40752 -3.32328 0
M  V30 11376 H 1104.47 3.89418 -1.46604 0
M  V30 11377 H 1103.34 5.27666 -1.51195 0
M  V30 11378 H 1103.6 4.421 -0.000259009 0
M  V30 11379 N 1102.66 0.908147 1.28804 0
M  V30 11380 C 1103.61 0.363504 2.25084 0
M  V30 11381 C 1104.6 -0.52121 1.52224 0
M  V30 11382 O 1105.79 -0.361848 1.73262 0
M  V30 11383 C 1102.92 -0.400353 3.40958 0
M  V30 11384 C 1102 0.499761 4.21145 0
M  V30 11385 N 1102.39 1.61082 4.79464 0
M  V30 11386 C 1100.69 0.299108 4.44996 0
M  V30 11387 C 1101.39 2.16906 5.39747 0
M  V30 11388 N 1100.37 1.46103 5.23598 0
M  V30 11389 H 1104.17 1.21212 2.6774 0
M  V30 11390 H 1101.69 0.760159 1.43511 0
M  V30 11391 H 1103.68 -0.807343 4.09008 0
M  V30 11392 H 1102.34 -1.24613 2.99836 0
M  V30 11393 H 1103.35 1.99347 4.77997 0
M  V30 11394 H 1100.03 -0.507611 4.14403 0
M  V30 11395 H 1101.42 3.10338 5.95936 0
M  V30 11396 N 1104.14 -1.42577 0.671525 0
M  V30 11397 C 1105.56 -1.5592 0.340769 0
M  V30 11398 C 1105.76 -1.65179 -1.15405 0
M  V30 11399 O 1104.81 -1.61691 -1.93939 0
M  V30 11400 C 1106.13 -2.81087 1.06821 0
M  V30 11401 C 1107.67 -2.94855 1.05022 0
M  V30 11402 C 1108.15 -4.22878 1.75892 0
M  V30 11403 N 1109.64 -4.29783 1.72744 0
M  V30 11404 C 1110.37 -5.2765 2.24439 0
M  V30 11405 N 1109.87 -6.31689 2.84501 0
M  V30 11406 N 1111.66 -5.19426 2.14832 0
M  V30 11407 H 1103.81 -1.34811 1.64133 0
M  V30 11408 H 1106.08 -0.648704 0.691294 0
M  V30 11409 H 1105.78 -2.80371 2.12332 0
M  V30 11410 H 1105.66 -3.71879 0.631356 0
M  V30 11411 H 1108.04 -2.951 0.00345633 0
M  V30 11412 H 1108.13 -2.05303 1.52592 0
M  V30 11413 H 1107.77 -4.23394 2.80535 0
M  V30 11414 H 1107.7 -5.1136 1.25773 0
M  V30 11415 H 1110.19 -3.55225 1.28932 0
M  V30 11416 H 1110.5 -7.02715 3.21575 0
M  V30 11417 H 1108.85 -6.3226 2.88569 0
M  V30 11418 H 1112.04 -4.37067 1.676 0
M  V30 11419 H 1112.21 -5.95535 2.55426 0
M  V30 11420 N 1105.62 -0.414636 -1.52048 0
M  V30 11421 C 1106.9 0.218172 -1.94379 0
M  V30 11422 C 1107.28 1.62133 -1.35189 0
M  V30 11423 O 1106.62 2.22271 -0.529877 0
M  V30 11424 C 1106.83 0.218932 -3.48313 0
M  V30 11425 C 1108.18 0.435604 -4.2236 0
M  V30 11426 O 1109.21 0.298049 -3.54951 0
M  V30 11427 O 1108.06 0.707217 -5.41905 0
M  V30 11428 H 1105.16 0.142173 -0.814688 0
M  V30 11429 H 1107.7 -0.470977 -1.63033 0
M  V30 11430 H 1106.48 -0.76292 -3.83791 0
M  V30 11431 H 1106.1 0.951949 -3.86036 0
M  V30 11432 N 1107.1 1.56929 -0.145233 0
M  V30 11433 C 1108.03 2.19685 0.791263 0
M  V30 11434 C 1109.01 1.14455 1.25833 0
M  V30 11435 O 1110.19 1.42791 1.31622 0
M  V30 11436 C 1107.32 2.81705 2.03124 0
M  V30 11437 C 1106.28 3.92746 1.70101 0
M  V30 11438 C 1105.6 4.41694 3.01347 0
M  V30 11439 C 1106.9 5.13606 0.949025 0
M  V30 11440 H 1108.6 2.98196 0.26825 0
M  V30 11441 H 1106.14 1.43434 0.127584 0
M  V30 11442 H 1108.1 3.24273 2.69119 0
M  V30 11443 H 1106.82 2.00523 2.57795 0
M  V30 11444 H 1105.48 3.50794 1.06486 0
M  V30 11445 H 1105.13 3.57336 3.54006 0
M  V30 11446 H 1104.83 5.1659 2.80016 0
M  V30 11447 H 1106.35 4.86931 3.68416 0
M  V30 11448 H 1107.76 5.53029 1.51102 0
M  V30 11449 H 1106.16 5.94252 0.835711 0
M  V30 11450 H 1107.23 4.84863 -0.0595631 0
M  V30 11451 N 1108.58 -0.128553 1.57075 0
M  V30 11452 C 1109.54 -1.14215 1.98715 0
M  V30 11453 C 1110.54 -1.34843 0.876019 0
M  V30 11454 O 1111.73 -1.31522 1.14227 0
M  V30 11455 C 1108.86 -2.49865 2.31905 0
M  V30 11456 H 1110.05 -0.784481 2.89458 0
M  V30 11457 H 1107.61 -0.372531 1.51796 0
M  V30 11458 H 1108.34 -2.9057 1.44012 0
M  V30 11459 H 1108.13 -2.3625 3.12935 0
M  V30 11460 H 1109.62 -3.22832 2.64895 0
M  V30 11461 N 1110.05 -1.5248 -0.398459 0
M  V30 11462 C 1111.02 -1.75949 -1.46883 0
M  V30 11463 C 1112.02 -0.629431 -1.47969 0
M  V30 11464 O 1113.21 -0.897407 -1.49306 0
M  V30 11465 C 1110.34 -1.85162 -2.8623 0
M  V30 11466 H 1111.53 -2.71513 -1.2736 0
M  V30 11467 H 1109.08 -1.43058 -0.629619 0
M  V30 11468 H 1109.82 -0.915505 -3.11109 0
M  V30 11469 H 1109.6 -2.67326 -2.86844 0
M  V30 11470 H 1111.09 -2.05025 -3.63805 0
M  V30 11471 N 1111.53 0.65634 -1.43283 0
M  V30 11472 C 1112.95 0.971645 -1.26614 0
M  V30 11473 C 1113.15 2.00662 -0.183612 0
M  V30 11474 O 1112.2 2.48654 0.439003 0
M  V30 11475 C 1113.52 1.45888 -2.6294 0
M  V30 11476 C 1115.06 1.57569 -2.70446 0
M  V30 11477 C 1115.54 2.09684 -4.07181 0
M  V30 11478 N 1117.03 2.16991 -4.0923 0
M  V30 11479 C 1117.77 2.5843 -5.11861 0
M  V30 11480 N 1117.26 2.99188 -6.24867 0
M  V30 11481 N 1119.05 2.58342 -4.99215 0
M  V30 11482 H 1111.21 -0.028573 -2.12381 0
M  V30 11483 H 1113.47 0.0497918 -0.946691 0
M  V30 11484 H 1113.17 0.772823 -3.43104 0
M  V30 11485 H 1113.05 2.43445 -2.88122 0
M  V30 11486 H 1115.44 2.25277 -1.90616 0
M  V30 11487 H 1115.52 0.584529 -2.49032 0
M  V30 11488 H 1115.16 1.42579 -4.87477 0
M  V30 11489 H 1115.09 3.09625 -4.25958 0
M  V30 11490 H 1117.58 1.88278 -3.27658 0
M  V30 11491 H 1117.89 3.29549 -6.99012 0
M  V30 11492 H 1116.24 2.97 -6.28344 0
M  V30 11493 H 1119.43 2.25875 -4.09998 0
M  V30 11494 H 1119.6 2.90316 -5.79328 0
M  V30 11495 N 1113.01 1.29761 0.894412 0
M  V30 11496 C 1113.96 1.15232 2.0205 0
M  V30 11497 C 1114.95 0.0665664 1.69269 0
M  V30 11498 O 1116.16 0.226746 1.78566 0
M  V30 11499 H 1112.53 0.356102 0.662341 0
M  V30 11500 H 1114.5 2.10559 2.11442 0
M  V30 11501 C 1113.25 0.851143 3.37121 0
M  V30 11502 H 1112.58 1.67865 3.62852 0
M  V30 11503 H 1114.02 0.78954 4.16584 0
M  V30 11504 C 1112.47 -0.445737 3.33938 0
M  V30 11505 O 1113 -1.47017 3.7383 0
M  V30 11506 N 1111.21 -0.453493 2.8704 0
M  V30 11507 H 1110.76 0.380636 2.54772 0
M  V30 11508 H 1110.72 -1.32119 2.85293 0
M  V30 11509 N 1114.49 -1.10549 1.12324 0
M  V30 11510 C 1115.74 -1.81851 0.872531 0
M  V30 11511 C 1116.05 -1.86058 -0.603468 0
M  V30 11512 O 1117.26 -2.53553 -0.970736 0
M  V30 11513 C 1115.71 -3.26631 1.51131 0
M  V30 11514 C 1115.32 -3.30725 3.02201 0
M  V30 11515 C 1117.06 -4.02768 1.34082 0
M  V30 11516 C 1114.97 -4.69957 3.59018 0
M  V30 11517 H 1113.9 -0.681422 0.322769 0
M  V30 11518 H 1116.55 -1.24332 1.34959 0
M  V30 11519 H 1114.93 -3.8414 0.961913 0
M  V30 11520 H 1116.11 -2.83046 3.63623 0
M  V30 11521 H 1114.42 -2.68072 3.18632 0
M  V30 11522 H 1117.02 -5.05612 1.73955 0
M  V30 11523 H 1117.36 -4.15328 0.284369 0
M  V30 11524 H 1117.9 -3.51671 1.85937 0
M  V30 11525 H 1114.63 -4.62597 4.64418 0
M  V30 11526 H 1114.15 -5.18008 3.02371 0
M  V30 11527 H 1115.83 -5.38925 3.58007 0
M  V30 11528 N 1115.97 -0.914965 -1.28321 0
M  V30 11529 C 1116.9 -0.421292 -2.29668 0
M  V30 11530 C 1117.88 0.511743 -1.6222 0
M  V30 11531 O 1119.06 0.419218 -1.89621 0
M  V30 11532 C 1116.19 0.338364 -3.45648 0
M  V30 11533 C 1115.15 -0.505646 -4.25003 0
M  V30 11534 C 1114.47 0.382421 -5.33331 0
M  V30 11535 C 1115.77 -1.76354 -4.91626 0
M  V30 11536 H 1117.47 -1.26826 -2.71211 0
M  V30 11537 H 1115.01 -0.611291 -1.30381 0
M  V30 11538 H 1116.96 0.694578 -4.15636 0
M  V30 11539 H 1115.69 1.21925 -3.02988 0
M  V30 11540 H 1114.35 -0.844395 -3.56743 0
M  V30 11541 H 1114 1.26189 -4.86914 0
M  V30 11542 H 1113.7 -0.17871 -5.87328 0
M  V30 11543 H 1115.22 0.73449 -6.06166 0
M  V30 11544 H 1116.63 -1.47616 -5.5397 0
M  V30 11545 H 1115.03 -2.26717 -5.55625 0
M  V30 11546 H 1116.1 -2.49063 -4.16048 0
M  V30 11547 N 1117.44 1.42219 -0.679077 0
M  V30 11548 C 1118.69 2.01777 -0.20342 0
M  V30 11549 C 1119.02 1.53592 1.18841 0
M  V30 11550 O 1118.3 0.739954 1.79875 0
M  V30 11551 C 1118.58 3.59281 -0.242791 0
M  V30 11552 C 1118.43 4.17634 -1.67038 0
M  V30 11553 C 1119.75 4.38218 0.406624 0
M  V30 11554 H 1116.87 0.733134 -0.0753916 0
M  V30 11555 H 1119.51 1.69185 -0.864673 0
M  V30 11556 H 1117.66 3.87178 0.320248 0
M  V30 11557 H 1119.34 4.00674 -2.286 0
M  V30 11558 H 1117.58 3.73301 -2.20973 0
M  V30 11559 H 1118.25 5.26776 -1.64958 0
M  V30 11560 H 1120.73 4.16036 -0.0727077 0
M  V30 11561 H 1119.6 5.47793 0.348457 0
M  V30 11562 H 1119.86 4.16418 1.48487 0
M  V30 11563 N 1118.92 0.422693 1.51826 0
M  V30 11564 C 1119.87 -0.41063 2.28947 0
M  V30 11565 C 1120.86 -1.03389 1.34191 0
M  V30 11566 O 1122.07 -0.970533 1.51594 0
M  V30 11567 H 1118.44 -0.151219 0.736639 0
M  V30 11568 H 1120.42 0.260859 2.97258 0
M  V30 11569 C 1119.16 -1.50758 3.13317 0
M  V30 11570 H 1118.49 -1.03734 3.86108 0
M  V30 11571 H 1119.93 -2.0642 3.7036 0
M  V30 11572 C 1118.39 -2.48261 2.27746 0
M  V30 11573 O 1118.92 -3.52462 1.92701 0
M  V30 11574 N 1117.12 -2.18795 1.91251 0
M  V30 11575 H 1116.67 -1.34088 2.1995 0
M  V30 11576 H 1116.63 -2.84276 1.34293 0
M  V30 11577 N 1120.4 -1.5685 0.153553 0
M  V30 11578 C 1121.33 -2.14231 -0.814729 0
M  V30 11579 C 1122.34 -1.09339 -1.20619 0
M  V30 11580 O 1123.53 -1.36592 -1.14913 0
M  V30 11581 C 1120.63 -2.6555 -2.10562 0
M  V30 11582 C 1119.81 -3.94912 -1.8805 0
M  V30 11583 C 1118.87 -4.31476 -3.0119 0
M  V30 11584 O 1117.89 -4.9968 -2.72596 0
M  V30 11585 N 1119.09 -3.91588 -4.28531 0
M  V30 11586 H 1121.86 -2.9794 -0.324277 0
M  V30 11587 H 1119.42 -1.61873 -0.0298087 0
M  V30 11588 H 1121.41 -2.87019 -2.85311 0
M  V30 11589 H 1119.98 -1.86529 -2.5085 0
M  V30 11590 H 1119.2 -3.82002 -0.973024 0
M  V30 11591 H 1120.49 -4.79433 -1.70356 0
M  V30 11592 H 1119.89 -3.36645 -4.54628 0
M  V30 11593 H 1118.44 -4.18095 -5.00039 0
M  V30 11594 N 1121.88 0.120221 -1.57141 0
M  V30 11595 C 1122.83 1.16654 -2.01233 0
M  V30 11596 C 1123.82 1.42943 -0.909053 0
M  V30 11597 O 1125.03 1.4292 -1.09426 0
M  V30 11598 H 1121.4 0.393289 -0.640958 0
M  V30 11599 H 1123.37 0.768156 -2.88343 0
M  V30 11600 C 1122.12 2.4854 -2.43152 0
M  V30 11601 H 1121.44 2.29149 -3.27614 0
M  V30 11602 H 1122.88 3.20315 -2.77802 0
M  V30 11603 C 1121.34 3.1103 -1.29468 0
M  V30 11604 O 1121.87 3.97042 -0.609982 0
M  V30 11605 N 1120.08 2.70888 -1.05205 0
M  V30 11606 H 1119.63 2.01039 -1.61062 0
M  V30 11607 H 1119.58 3.13028 -0.293347 0
M  V30 11608 N 1123.36 1.52689 0.390367 0
M  V30 11609 C 1124.29 1.80338 1.48325 0
M  V30 11610 C 1125.27 0.655338 1.56969 0
M  V30 11611 O 1126.45 0.902792 1.7194 0
M  V30 11612 C 1123.58 1.97101 2.85952 0
M  V30 11613 C 1122.54 3.12783 2.92148 0
M  V30 11614 C 1121.86 3.14798 4.32211 0
M  V30 11615 C 1123.16 4.5188 2.61919 0
M  V30 11616 H 1124.86 2.71857 1.25437 0
M  V30 11617 H 1122.4 1.30813 0.601995 0
M  V30 11618 H 1124.36 2.15027 3.62411 0
M  V30 11619 H 1123.08 1.02271 3.10174 0
M  V30 11620 H 1121.74 2.94638 2.18137 0
M  V30 11621 H 1121.39 2.17653 4.53471 0
M  V30 11622 H 1121.09 3.92507 4.37278 0
M  V30 11623 H 1122.61 3.34877 5.10578 0
M  V30 11624 H 1124.02 4.70134 3.28096 0
M  V30 11625 H 1122.42 5.31647 2.78337 0
M  V30 11626 H 1123.49 4.58689 1.57266 0
M  V30 11627 N 1124.83 -0.648732 1.43629 0
M  V30 11628 C 1126.07 -1.42032 1.46991 0
M  V30 11629 C 1126.44 -1.91774 0.0931841 0
M  V30 11630 O 1127.64 -2.688 0.00148504 0
M  V30 11631 C 1125.91 -2.56693 2.48684 0
M  V30 11632 S 1127.47 -3.45149 2.70956 0
M  V30 11633 H 1124.29 -0.484772 0.520113 0
M  V30 11634 H 1126.89 -0.75274 1.80427 0
M  V30 11635 H 1125.59 -2.18431 3.47442 0
M  V30 11636 H 1125.12 -3.28296 2.1676 0
M  V30 11637 H 1127.14 -4.53569 2.01221 0
M  V30 11638 N 1126.31 -1.30234 -0.887518 0
M  V30 11639 C 1127.55 -1.20191 -1.65328 0
M  V30 11640 C 1127.92 0.240121 -1.90493 0
M  V30 11641 O 1129.12 0.463744 -2.64769 0
M  V30 11642 C 1127.39 -2.00506 -2.95858 0
M  V30 11643 S 1128.95 -2.07133 -3.86835 0
M  V30 11644 H 1125.77 -0.428366 -0.567472 0
M  V30 11645 H 1128.37 -1.64677 -1.05364 0
M  V30 11646 H 1127.07 -3.04396 -2.75266 0
M  V30 11647 H 1126.6 -1.56672 -3.60857 0
M  V30 11648 H 1128.62 -1.19687 -4.81549 0
M  V30 11649 N 1127.79 1.09952 -1.12909 0
M  V30 11650 C 1128.74 2.16436 -0.801514 0
M  V30 11651 C 1129.71 1.64444 0.233976 0
M  V30 11652 O 1130.89 1.90497 0.10743 0
M  V30 11653 C 1128.03 3.4406 -0.267753 0
M  V30 11654 C 1127.15 4.09979 -1.36165 0
M  V30 11655 C 1126.28 5.25341 -0.786803 0
M  V30 11656 C 1125.32 5.83172 -1.85948 0
M  V30 11657 N 1124.46 6.89904 -1.30298 0
M  V30 11658 H 1129.3 2.43799 -1.71365 0
M  V30 11659 H 1126.83 1.19665 -0.855499 0
M  V30 11660 H 1128.79 4.17157 0.0598031 0
M  V30 11661 H 1127.42 3.17031 0.607528 0
M  V30 11662 H 1126.47 3.34801 -1.8059 0
M  V30 11663 H 1127.79 4.48999 -2.17259 0
M  V30 11664 H 1126.94 6.05312 -0.410211 0
M  V30 11665 H 1125.68 4.87669 0.055279 0
M  V30 11666 H 1124.68 5.01867 -2.24521 0
M  V30 11667 H 1125.91 6.22907 -2.70487 0
M  V30 11668 H 1123.85 6.54221 -0.482806 0
M  V30 11669 H 1123.77 7.27662 -2.05046 0
M  V30 11670 H 1125.04 7.73643 -0.953779 0
M  V30 11671 N 1129.27 0.921757 1.27833 0
M  V30 11672 C 1130.51 0.559906 1.94918 0
M  V30 11673 C 1130.85 -0.895532 1.72319 0
M  V30 11674 O 1130.12 -1.638 1.04879 0
M  V30 11675 C 1130.41 0.879458 3.49196 0
M  V30 11676 C 1130.26 2.38821 3.81162 0
M  V30 11677 C 1131.58 0.381183 4.38446 0
M  V30 11678 H 1128.7 0.204893 0.707946 0
M  V30 11679 H 1131.34 1.15246 1.51058 0
M  V30 11680 H 1129.49 0.375177 3.86684 0
M  V30 11681 H 1131.16 2.96373 3.53498 0
M  V30 11682 H 1129.4 2.83988 3.27923 0
M  V30 11683 H 1130.07 2.56234 4.88926 0
M  V30 11684 H 1132.55 0.813289 4.08075 0
M  V30 11685 H 1131.43 0.633778 5.45229 0
M  V30 11686 H 1131.69 -0.718651 4.3622 0
M  V30 11687 N 1130.75 -1.41857 0.686609 0
M  V30 11688 C 1131.97 -2.06219 0.221037 0
M  V30 11689 C 1132.4 -1.51298 -1.11762 0
M  V30 11690 O 1131.75 -0.636253 -1.69769 0
M  V30 11691 C 1131.8 -3.60153 0.179425 0
M  V30 11692 O 1130.91 -4.03577 -0.848481 0
M  V30 11693 H 1130.25 -0.654787 0.110228 0
M  V30 11694 H 1132.78 -1.81783 0.938948 0
M  V30 11695 H 1132.79 -4.07999 0.00725332 0
M  V30 11696 H 1131.46 -3.99498 1.15647 0
M  V30 11697 H 1130.04 -3.67255 -0.646393 0
M  V30 11698 N 1132.22 -0.430739 -1.51599 0
M  V30 11699 C 1133.5 0.197543 -1.946 0
M  V30 11700 C 1133.88 1.6069 -1.36901 0
M  V30 11701 O 1133.23 2.21697 -0.553422 0
M  V30 11702 C 1133.44 0.181976 -3.48525 0
M  V30 11703 C 1134.79 0.390783 -4.22798 0
M  V30 11704 O 1135.81 0.260384 -3.55247 0
M  V30 11705 O 1134.67 0.649701 -5.42624 0
M  V30 11706 H 1131.76 0.133524 -0.81615 0
M  V30 11707 H 1134.31 -0.488243 -1.62525 0
M  V30 11708 H 1133.08 -0.803584 -3.8296 0
M  V30 11709 H 1132.71 0.910952 -3.87024 0
M  V30 11710 N 1133.7 1.56767 -0.161869 0
M  V30 11711 C 1134.95 1.96594 0.485496 0
M  V30 11712 C 1135.28 1.04743 1.63887 0
M  V30 11713 O 1134.53 0.079602 1.95538 0
M  V30 11714 C 1134.83 3.42567 1.01894 0
M  V30 11715 C 1134.5 4.50897 -0.0175419 0
M  V30 11716 C 1133.16 4.80249 -0.302429 0
M  V30 11717 C 1135.51 5.16181 -0.721572 0
M  V30 11718 C 1132.84 5.72187 -1.2969 0
M  V30 11719 C 1135.19 6.09191 -1.70496 0
M  V30 11720 C 1133.86 6.36915 -1.99739 0
M  V30 11721 H 1133.13 0.719388 0.177656 0
M  V30 11722 H 1135.77 1.89837 -0.251839 0
M  V30 11723 H 1134.08 3.4623 1.83391 0
M  V30 11724 H 1135.77 3.70719 1.52867 0
M  V30 11725 H 1132.36 4.28062 0.21468 0
M  V30 11726 H 1136.55 4.93624 -0.514681 0
M  V30 11727 H 1131.8 5.91953 -1.52974 0
M  V30 11728 H 1135.98 6.58849 -2.25591 0
M  V30 11729 H 1133.61 7.07958 -2.76948 0
M  V30 11730 N 1135.18 -0.111886 1.57202 0
M  V30 11731 C 1136.43 -0.816794 1.84859 0
M  V30 11732 C 1136.75 -1.80079 0.748113 0
M  V30 11733 O 1136.02 -1.94578 -0.227235 0
M  V30 11734 H 1134.6 -0.304633 0.682061 0
M  V30 11735 H 1137.26 -0.097513 1.94656 0
M  V30 11736 H 1136.36 -1.35768 2.81022 0
M  V30 11737 N 1136.66 -1.52894 -0.382264 0
M  V30 11738 C 1137.59 -1.81122 -1.47367 0
M  V30 11739 C 1138.57 -0.663653 -1.56619 0
M  V30 11740 O 1139.75 -0.911898 -1.71459 0
M  V30 11741 C 1136.88 -1.98615 -2.84902 0
M  V30 11742 C 1135.84 -3.14328 -2.90485 0
M  V30 11743 C 1135.16 -3.17086 -4.30535 0
M  V30 11744 C 1136.46 -4.53263 -2.59519 0
M  V30 11745 H 1138.16 -2.72518 -1.23993 0
M  V30 11746 H 1135.7 -1.3113 -0.595049 0
M  V30 11747 H 1137.66 -2.16946 -3.61265 0
M  V30 11748 H 1136.38 -1.03915 -3.09628 0
M  V30 11749 H 1135.04 -2.95791 -2.16572 0
M  V30 11750 H 1134.69 -2.20055 -4.52311 0
M  V30 11751 H 1134.39 -3.94821 -4.3519 0
M  V30 11752 H 1135.91 -3.3758 -5.08795 0
M  V30 11753 H 1137.33 -4.71867 -3.25598 0
M  V30 11754 H 1135.72 -5.33115 -2.75514 0
M  V30 11755 H 1136.79 -4.59516 -1.54831 0
M  V30 11756 N 1138.14 0.641106 -1.43971 0
M  V30 11757 C 1139.37 1.42829 -1.49692 0
M  V30 11758 C 1139.78 1.88427 -0.118594 0
M  V30 11759 O 1139.14 1.60234 0.873581 0
M  V30 11760 C 1139.19 2.65524 -2.45314 0
M  V30 11761 O 1138.91 2.2183 -3.77787 0
M  V30 11762 C 1140.41 3.58758 -2.60399 0
M  V30 11763 H 1137.63 0.438367 -0.508011 0
M  V30 11764 H 1140.17 0.784933 -1.88836 0
M  V30 11765 H 1138.33 3.25973 -2.09332 0
M  V30 11766 H 1138.74 3.01303 -4.29321 0
M  V30 11767 H 1140.22 4.41483 -3.31357 0
M  V30 11768 H 1140.69 4.06909 -1.65294 0
M  V30 11769 H 1141.3 3.04184 -2.97241 0
M  V30 11770 N 1139.62 1.30703 0.880598 0
M  V30 11771 C 1141.03 1.09129 1.1646 0
M  V30 11772 C 1141.23 -0.145131 2.00977 0
M  V30 11773 O 1140.29 -0.837502 2.38206 0
M  V30 11774 C 1141.6 2.35717 1.86703 0
M  V30 11775 C 1143.15 2.41224 1.9945 0
M  V30 11776 C 1143.62 3.67665 2.73105 0
M  V30 11777 N 1145.11 3.68498 2.80648 0
M  V30 11778 C 1145.85 4.63024 3.38225 0
M  V30 11779 N 1145.35 5.67898 3.96817 0
M  V30 11780 N 1147.14 4.50561 3.36082 0
M  V30 11781 H 1139.29 2.10019 0.317164 0
M  V30 11782 H 1141.55 0.925994 0.203072 0
M  V30 11783 H 1141.26 3.2597 1.32046 0
M  V30 11784 H 1141.13 2.447 2.87057 0
M  V30 11785 H 1143.52 1.51446 2.53275 0
M  V30 11786 H 1143.6 2.36212 0.981704 0
M  V30 11787 H 1143.24 4.57803 2.19951 0
M  V30 11788 H 1143.17 3.69939 3.7477 0
M  V30 11789 H 1145.67 2.92681 2.39053 0
M  V30 11790 H 1145.98 6.3612 4.3883 0
M  V30 11791 H 1144.32 5.71685 3.95223 0
M  V30 11792 H 1147.51 3.67811 2.89539 0
M  V30 11793 H 1147.69 5.24408 3.80657 0
M  V30 11794 N 1141.09 -1.09351 1.1349 0
M  V30 11795 C 1142.02 -2.18037 0.835588 0
M  V30 11796 C 1143 -1.68856 -0.205373 0
M  V30 11797 O 1144.19 -1.94094 -0.0641357 0
M  V30 11798 C 1141.32 -3.45987 0.301661 0
M  V30 11799 C 1140.27 -4.08507 1.27696 0
M  V30 11800 C 1139.6 -5.31292 0.602758 0
M  V30 11801 C 1140.9 -4.50916 2.63575 0
M  V30 11802 H 1142.59 -2.43332 1.74441 0
M  V30 11803 H 1140.14 -1.1695 0.840166 0
M  V30 11804 H 1142.09 -4.21324 0.079928 0
M  V30 11805 H 1140.82 -3.20217 -0.642552 0
M  V30 11806 H 1139.48 -3.3519 1.4847 0
M  V30 11807 H 1139.12 -5.01802 -0.346953 0
M  V30 11808 H 1138.82 -5.74075 1.25345 0
M  V30 11809 H 1140.35 -6.09351 0.390325 0
M  V30 11810 H 1141.76 -5.17474 2.46765 0
M  V30 11811 H 1140.16 -5.04586 3.24827 0
M  V30 11812 H 1141.23 -3.63279 3.2118 0
M  V30 11813 N 1142.57 -0.928524 -1.27343 0
M  V30 11814 C 1143.5 -0.445627 -2.29208 0
M  V30 11815 C 1144.48 0.494508 -1.62753 0
M  V30 11816 O 1145.67 0.399082 -1.90055 0
M  V30 11817 C 1142.8 0.301684 -3.45987 0
M  V30 11818 C 1141.75 -0.550695 -4.24442 0
M  V30 11819 C 1141.08 0.325833 -5.33706 0
M  V30 11820 C 1142.38 -1.81559 -4.89728 0
M  V30 11821 H 1144.07 -1.29696 -2.69851 0
M  V30 11822 H 1141.62 -0.625085 -1.29725 0
M  V30 11823 H 1143.57 0.650455 -4.1635 0
M  V30 11824 H 1142.29 1.18705 -3.04264 0
M  V30 11825 H 1140.95 -0.882185 -3.55827 0
M  V30 11826 H 1140.6 1.21018 -4.88225 0
M  V30 11827 H 1140.3 -0.240994 -5.87106 0
M  V30 11828 H 1141.83 0.670156 -6.06911 0
M  V30 11829 H 1143.24 -1.53483 -5.52373 0
M  V30 11830 H 1141.64 -2.32598 -5.53189 0
M  V30 11831 H 1142.71 -2.53461 -4.13383 0
M  V30 11832 N 1144.05 1.41491 -0.694123 0
M  V30 11833 C 1145.33 1.95004 -0.152571 0
M  V30 11834 C 1145.71 1.63357 1.33707 0
M  V30 11835 O 1145.05 0.939815 2.08278 0
M  V30 11836 C 1145.26 3.46186 -0.44232 0
M  V30 11837 C 1146.61 4.22991 -0.369279 0
M  V30 11838 O 1147.64 3.54198 -0.377152 0
M  V30 11839 O 1146.5 5.45514 -0.328145 0
M  V30 11840 H 1143.59 0.826879 -0.0141253 0
M  V30 11841 H 1146.14 1.51216 -0.770183 0
M  V30 11842 H 1144.91 3.62497 -1.47348 0
M  V30 11843 H 1144.53 3.97064 0.206337 0
M  V30 11844 N 1145.53 0.438773 1.51369 0
M  V30 11845 C 1146.8 -0.18722 1.94702 0
M  V30 11846 C 1147.18 -1.59962 1.37752 0
M  V30 11847 O 1146.53 -2.214 0.565171 0
M  V30 11848 C 1146.74 -0.163491 3.48617 0
M  V30 11849 C 1148.09 -0.368355 4.22999 0
M  V30 11850 O 1149.11 -0.241541 3.5538 0
M  V30 11851 O 1147.97 -0.620916 5.42961 0
M  V30 11852 H 1145.07 -0.129194 0.816846 0
M  V30 11853 H 1147.61 0.496855 1.62263 0
M  V30 11854 H 1146.39 0.823882 3.82528 0
M  V30 11855 H 1146.01 -0.890414 3.87501 0
M  V30 11856 N 1147.01 -1.56678 0.170181 0
M  V30 11857 C 1148.25 -1.96849 -0.475064 0
M  V30 11858 C 1148.58 -1.05611 -1.6333 0
M  V30 11859 O 1147.84 -0.0899708 -1.95493 0
M  V30 11860 C 1148.13 -3.43103 -1.00076 0
M  V30 11861 C 1147.8 -4.50881 0.0414538 0
M  V30 11862 C 1146.46 -4.80082 0.327894 0
M  V30 11863 C 1148.81 -5.15791 0.748936 0
M  V30 11864 C 1146.14 -5.71491 1.32722 0
M  V30 11865 C 1148.49 -6.08278 1.73724 0
M  V30 11866 C 1147.16 -6.35847 2.03114 0
M  V30 11867 H 1146.43 -0.72032 -0.173838 0
M  V30 11868 H 1149.08 -1.89701 0.261903 0
M  V30 11869 H 1147.38 -3.47197 -1.81553 0
M  V30 11870 H 1149.08 -3.71525 -1.50899 0
M  V30 11871 H 1145.67 -4.2817 -0.191976 0
M  V30 11872 H 1149.85 -4.93344 0.540852 0
M  V30 11873 H 1145.11 -5.91134 1.56112 0
M  V30 11874 H 1149.28 -6.57643 2.29082 0
M  V30 11875 H 1146.91 -7.06479 2.80698 0
M  V30 11876 N 1148.48 0.103547 -1.57259 0
M  V30 11877 C 1149.76 0.839768 -1.76656 0
M  V30 11878 C 1150.14 1.9734 -0.749666 0
M  V30 11879 O 1149.49 2.27405 0.223466 0
M  V30 11880 C 1149.7 1.34218 -3.22159 0
M  V30 11881 C 1151.05 1.78835 -3.85102 0
M  V30 11882 O 1152.07 1.43861 -3.25857 0
M  V30 11883 O 1150.93 2.43474 -4.89267 0
M  V30 11884 H 1148.02 0.399928 -0.723869 0
M  V30 11885 H 1150.57 0.0860857 -1.69482 0
M  V30 11886 H 1149.34 0.52956 -3.877 0
M  V30 11887 H 1148.96 2.15811 -3.33933 0
M  V30 11888 N 1149.96 1.53094 0.37415 0
M  V30 11889 C 1151.21 1.68527 1.11548 0
M  V30 11890 C 1151.53 0.435253 1.9008 0
M  V30 11891 O 1150.8 -0.550594 1.88003 0
M  V30 11892 H 1149.38 0.621255 0.41479 0
M  V30 11893 H 1152.04 1.90258 0.422844 0
M  V30 11894 H 1151.14 2.54248 1.81009 0
M  V30 11895 N 1151.44 -0.633461 1.44309 0
M  V30 11896 C 1152.67 -1.42033 1.50447 0
M  V30 11897 C 1153.08 -1.88362 0.128585 0
M  V30 11898 O 1152.44 -1.60695 -0.865071 0
M  V30 11899 C 1152.49 -2.6422 2.46719 0
M  V30 11900 O 1152.21 -2.19823 3.78958 0
M  V30 11901 C 1153.71 -3.57372 2.62298 0
M  V30 11902 H 1150.93 -0.435667 0.510329 0
M  V30 11903 H 1153.48 -0.774907 1.8925 0
M  V30 11904 H 1151.63 -3.24859 2.11058 0
M  V30 11905 H 1152.05 -2.99022 4.30913 0
M  V30 11906 H 1153.52 -4.39719 3.33693 0
M  V30 11907 H 1154 -4.06026 1.67449 0
M  V30 11908 H 1154.6 -3.02603 2.9885 0
M  V30 11909 N 1152.92 -1.31168 -0.873655 0
M  V30 11910 C 1154.15 -1.23416 -1.65686 0
M  V30 11911 C 1154.56 0.203534 -1.88102 0
M  V30 11912 O 1153.9 1.14476 -1.4367 0
M  V30 11913 C 1153.96 -1.90418 -3.04929 0
M  V30 11914 C 1153.63 -3.39757 -3.05637 0
M  V30 11915 C 1154.62 -4.35565 -2.83865 0
M  V30 11916 C 1152.31 -3.81389 -3.26875 0
M  V30 11917 C 1154.3 -5.70979 -2.83304 0
M  V30 11918 C 1151.99 -5.16918 -3.25943 0
M  V30 11919 C 1152.99 -6.11524 -3.04184 0
M  V30 11920 O 1152.67 -7.44575 -3.0309 0
M  V30 11921 H 1152.41 -0.4278 -0.523415 0
M  V30 11922 H 1154.96 -1.73525 -1.09902 0
M  V30 11923 H 1153.19 -1.34854 -3.62424 0
M  V30 11924 H 1154.88 -1.76631 -3.65453 0
M  V30 11925 H 1155.65 -4.0473 -2.67243 0
M  V30 11926 H 1151.52 -3.08187 -3.42844 0
M  V30 11927 H 1155.07 -6.44796 -2.66239 0
M  V30 11928 H 1150.97 -5.47389 -3.42104 0
M  V30 11929 H 1151.73 -7.53703 -3.19177 0
M  V30 11930 N 1154.4 1.08748 -1.14068 0
M  V30 11931 C 1155.31 2.19123 -0.837998 0
M  V30 11932 C 1156.32 1.73065 0.180164 0
M  V30 11933 O 1157.5 2.01398 0.00952285 0
M  V30 11934 C 1154.56 3.45257 -0.316 0
M  V30 11935 C 1153.62 4.05959 -1.39628 0
M  V30 11936 C 1152.86 5.26072 -0.899095 0
M  V30 11937 O 1153.08 5.69804 0.260744 0
M  V30 11938 O 1152.01 5.7808 -1.67652 0
M  V30 11939 H 1155.84 2.4748 -1.76033 0
M  V30 11940 H 1153.43 1.17816 -0.918675 0
M  V30 11941 H 1155.31 4.21389 -0.0306425 0
M  V30 11942 H 1153.98 3.18486 0.578654 0
M  V30 11943 H 1152.89 3.31432 -1.73505 0
M  V30 11944 H 1154.22 4.36971 -2.26533 0
M  V30 11945 N 1155.87 0.935264 1.26849 0
M  V30 11946 C 1157.1 0.596249 1.98122 0
M  V30 11947 C 1157.52 -0.827452 1.69702 0
M  V30 11948 O 1156.87 -1.55095 0.961864 0
M  V30 11949 C 1156.93 0.821773 3.52036 0
M  V30 11950 O 1156.65 2.18947 3.79465 0
M  V30 11951 C 1158.15 0.492498 4.40556 0
M  V30 11952 H 1155.37 0.225242 0.632066 0
M  V30 11953 H 1157.91 1.25435 1.61512 0
M  V30 11954 H 1156.07 0.210363 3.86828 0
M  V30 11955 H 1156.48 2.24509 4.74021 0
M  V30 11956 H 1157.95 0.700953 5.47531 0
M  V30 11957 H 1158.43 -0.57228 4.35456 0
M  V30 11958 H 1159.04 1.08238 4.11296 0
M  V30 11959 N 1157.35 -1.41121 0.701616 0
M  V30 11960 C 1158.28 -2.292 0.000880842 0
M  V30 11961 C 1159.3 -1.45102 -0.738192 0
M  V30 11962 O 1160.49 -1.68541 -0.587891 0
M  V30 11963 C 1157.59 -3.23094 -1.02292 0
M  V30 11964 C 1156.76 -4.35979 -0.352231 0
M  V30 11965 C 1155.82 -5.10408 -1.27947 0
M  V30 11966 O 1154.84 -5.63974 -0.769561 0
M  V30 11967 N 1156.05 -5.18442 -2.61147 0
M  V30 11968 H 1158.81 -2.8998 0.757094 0
M  V30 11969 H 1156.37 -1.52339 0.548126 0
M  V30 11970 H 1158.36 -3.69755 -1.64509 0
M  V30 11971 H 1156.93 -2.6358 -1.68061 0
M  V30 11972 H 1156.15 -3.91624 0.44992 0
M  V30 11973 H 1157.44 -5.08673 0.113882 0
M  V30 11974 H 1156.84 -4.76381 -3.05087 0
M  V30 11975 H 1155.4 -5.68659 -3.18544 0
M  V30 11976 N 1158.83 -0.446794 -1.51134 0
M  V30 11977 C 1160.08 0.116263 -2.01765 0
M  V30 11978 C 1160.4 1.42382 -1.33238 0
M  V30 11979 O 1159.67 1.9018 -0.469915 0
M  V30 11980 H 1158.25 0.0459558 -0.745585 0
M  V30 11981 H 1160.91 -0.591664 -1.85702 0
M  V30 11982 H 1160.01 0.285358 -3.10793 0
M  V30 11983 N 1160.31 1.56586 -0.178487 0
M  V30 11984 C 1161.56 1.96709 0.4637 0
M  V30 11985 C 1161.88 1.06586 1.63292 0
M  V30 11986 O 1161.15 0.133683 1.95443 0
M  V30 11987 H 1159.73 0.726381 0.174299 0
M  V30 11988 H 1162.39 1.9314 -0.261345 0
M  V30 11989 H 1161.49 3.01164 0.818934 0
M  V30 11990 N 1161.79 -0.095206 1.57312 0
M  V30 11991 C 1162.73 -1.11551 2.02052 0
M  V30 11992 C 1163.7 -1.39808 0.896818 0
M  V30 11993 O 1164.89 -1.51273 1.1628 0
M  V30 11994 C 1162.03 -2.43056 2.44985 0
M  V30 11995 C 1161.14 -2.21531 3.70875 0
M  V30 11996 C 1160.28 -3.46434 4.02687 0
M  V30 11997 C 1159.32 -3.2017 5.21687 0
M  V30 11998 N 1158.45 -4.37339 5.49253 0
M  V30 11999 H 1163.29 -0.727 2.88996 0
M  V30 12000 H 1160.83 -0.347441 1.42938 0
M  V30 12001 H 1162.79 -3.19803 2.67921 0
M  V30 12002 H 1161.42 -2.79754 1.61051 0
M  V30 12003 H 1160.47 -1.35587 3.55416 0
M  V30 12004 H 1161.78 -1.98116 4.57768 0
M  V30 12005 H 1160.94 -4.31589 4.26399 0
M  V30 12006 H 1159.67 -3.72904 3.14315 0
M  V30 12007 H 1158.68 -2.33409 4.97796 0
M  V30 12008 H 1159.9 -2.95047 6.11657 0
M  V30 12009 H 1157.85 -4.63885 4.6384 0
M  V30 12010 H 1157.77 -4.17114 6.30517 0
M  V30 12011 H 1159.04 -5.23559 5.775 0
M  V30 12012 N 1163.26 -1.53291 -0.366026 0
M  V30 12013 C 1164.51 -1.68671 -1.10602 0
M  V30 12014 C 1164.83 -0.444793 -1.90476 0
M  V30 12015 O 1166.03 -0.479135 -2.67239 0
M  V30 12016 C 1164.49 -2.98174 -2.01545 0
M  V30 12017 C 1164.1 -4.29626 -1.26986 0
M  V30 12018 C 1165.84 -3.22921 -2.7554 0
M  V30 12019 C 1163.75 -5.50218 -2.16828 0
M  V30 12020 H 1162.68 -0.628456 -0.416604 0
M  V30 12021 H 1165.33 -1.79791 -0.367058 0
M  V30 12022 H 1163.71 -2.80855 -2.79171 0
M  V30 12023 H 1164.88 -4.57574 -0.544269 0
M  V30 12024 H 1163.2 -4.11318 -0.648558 0
M  V30 12025 H 1165.8 -4.10202 -3.42985 0
M  V30 12026 H 1166.14 -2.38964 -3.40884 0
M  V30 12027 H 1166.67 -3.40912 -2.04997 0
M  V30 12028 H 1163.41 -6.36651 -1.56063 0
M  V30 12029 H 1162.93 -5.26549 -2.87238 0
M  V30 12030 H 1164.61 -5.84991 -2.76396 0
M  V30 12031 N 1164.74 0.6258 -1.44643 0
M  V30 12032 C 1166.15 1.20751 -1.42394 0
M  V30 12033 C 1166.5 1.95685 -0.142047 0
M  V30 12034 O 1165.63 2.02715 0.757332 0
M  V30 12035 C 1166.22 2.1964 -2.57961 0
M  V30 12036 C 1164.78 2.73227 -2.5889 0
M  V30 12037 C 1163.93 1.48315 -2.34303 0
M  V30 12038 H 1166.88 0.416162 -1.53146 0
M  V30 12039 H 1166.9 3.02342 -2.31019 0
M  V30 12040 H 1166.41 1.65073 -3.51244 0
M  V30 12041 H 1164.52 3.31782 -1.69563 0
M  V30 12042 H 1164.63 3.18902 -3.57545 0
M  V30 12043 H 1162.99 1.76634 -1.83501 0
M  V30 12044 H 1163.78 0.956427 -3.29708 0
M  V30 12045 N 1166.22 1.31629 0.866686 0
M  V30 12046 C 1167.47 1.20861 1.61479 0
M  V30 12047 C 1167.78 -0.231208 1.94229 0
M  V30 12048 O 1168.99 -0.460618 2.67564 0
M  V30 12049 C 1167.44 2.11602 2.91123 0
M  V30 12050 C 1167.05 3.60598 2.65844 0
M  V30 12051 C 1168.8 2.09642 3.69121 0
M  V30 12052 C 1166.7 4.43337 3.91415 0
M  V30 12053 H 1165.63 0.448783 0.605896 0
M  V30 12054 H 1168.28 1.56507 0.958001 0
M  V30 12055 H 1166.67 1.68858 3.58194 0
M  V30 12056 H 1167.84 4.11609 2.07159 0
M  V30 12057 H 1166.16 3.64568 2.01194 0
M  V30 12058 H 1168.75 2.68701 4.62281 0
M  V30 12059 H 1169.1 1.08438 4.01929 0
M  V30 12060 H 1169.63 2.50603 3.08938 0
M  V30 12061 H 1166.37 5.45309 3.63756 0
M  V30 12062 H 1165.89 3.97083 4.49539 0
M  V30 12063 H 1167.57 4.5572 4.5927 0
M  V30 12064 N 1167.7 -1.08142 1.14644 0
M  V30 12065 C 1169.12 -1.32656 0.887388 0
M  V30 12066 C 1169.32 -1.95942 -0.470012 0
M  V30 12067 O 1168.37 -2.21417 -1.21371 0
M  V30 12068 C 1169.68 -2.22549 2.02219 0
M  V30 12069 C 1171.23 -2.36021 2.0558 0
M  V30 12070 C 1171.71 -3.29257 3.18361 0
M  V30 12071 N 1173.2 -3.36835 3.17957 0
M  V30 12072 C 1173.93 -4.09017 4.01862 0
M  V30 12073 N 1173.43 -4.83882 4.95812 0
M  V30 12074 N 1175.22 -4.04875 3.89913 0
M  V30 12075 H 1167.37 -0.654457 2.02066 0
M  V30 12076 H 1169.64 -0.350947 0.880648 0
M  V30 12077 H 1169.34 -1.83296 3.00159 0
M  V30 12078 H 1169.22 -3.23027 1.94765 0
M  V30 12079 H 1171.6 -2.74531 1.08245 0
M  V30 12080 H 1171.68 -1.35275 2.17105 0
M  V30 12081 H 1171.33 -2.91468 4.15944 0
M  V30 12082 H 1171.26 -4.29938 3.04074 0
M  V30 12083 H 1173.75 -2.83465 2.49912 0
M  V30 12084 H 1174.06 -5.3643 5.56294 0
M  V30 12085 H 1172.41 -4.82926 4.99808 0
M  V30 12086 H 1175.6 -3.45496 3.15833 0
M  V30 12087 H 1175.77 -4.60866 4.55529 0
M  V30 12088 N 1169.18 -0.941978 -1.26351 0
M  V30 12089 C 1170.42 -0.600372 -1.94338 0
M  V30 12090 C 1170.78 0.851343 -1.7254 0
M  V30 12091 O 1170.07 1.60116 -1.0523 0
M  V30 12092 C 1170.27 -0.879481 -3.4641 0
M  V30 12093 C 1170.09 -2.35678 -3.82996 0
M  V30 12094 C 1168.86 -3.01208 -4.05712 0
M  V30 12095 C 1171.06 -3.33531 -3.91486 0
M  V30 12096 N 1169.04 -4.38942 -4.29189 0
M  V30 12097 C 1170.42 -4.56525 -4.19506 0
M  V30 12098 C 1172.47 -3.28544 -3.74117 0
M  V30 12099 C 1171.17 -5.75153 -4.31962 0
M  V30 12100 C 1173.2 -4.46498 -3.87806 0
M  V30 12101 C 1172.56 -5.68275 -4.16225 0
M  V30 12102 H 1168.66 -0.270078 -0.733881 0
M  V30 12103 H 1171.24 -1.21155 -1.52413 0
M  V30 12104 H 1169.42 -0.297345 -3.8726 0
M  V30 12105 H 1171.15 -0.499062 -4.01611 0
M  V30 12106 H 1167.9 -2.51823 -4.01101 0
M  V30 12107 H 1168.33 -5.10236 -4.44959 0
M  V30 12108 H 1172.97 -2.35451 -3.51173 0
M  V30 12109 H 1170.69 -6.68699 -4.53727 0
M  V30 12110 H 1174.27 -4.44173 -3.75768 0
M  V30 12111 H 1173.15 -6.58024 -4.26584 0
M  V30 12112 N 1170.66 1.40747 -0.709091 0
M  V30 12113 C 1171.88 2.05319 -0.255258 0
M  V30 12114 C 1172.3 1.53406 1.10054 0
M  V30 12115 O 1171.66 0.687905 1.69039 0
M  V30 12116 C 1171.71 3.60835 -0.219251 0
M  V30 12117 O 1171.43 4.1083 -1.52151 0
M  V30 12118 C 1172.93 4.42572 0.253927 0
M  V30 12119 H 1170.15 0.660904 -0.115959 0
M  V30 12120 H 1172.69 1.80274 -0.965474 0
M  V30 12121 H 1170.85 3.84872 0.441882 0
M  V30 12122 H 1171.26 5.04979 -1.41764 0
M  V30 12123 H 1172.74 5.51529 0.22798 0
M  V30 12124 H 1173.21 4.19673 1.29504 0
M  V30 12125 H 1173.82 4.23629 -0.376694 0
M  V30 12126 N 1172.13 0.454803 1.50895 0
M  V30 12127 C 1173.1 -0.336293 2.26719 0
M  V30 12128 C 1174.1 -0.93464 1.30848 0
M  V30 12129 O 1175.29 -0.80636 1.54413 0
M  V30 12130 C 1172.42 -1.47744 3.07221 0
M  V30 12131 H 1173.61 0.328462 2.98096 0
M  V30 12132 H 1171.16 0.208419 1.54904 0
M  V30 12133 H 1171.9 -2.17773 2.40302 0
M  V30 12134 H 1171.68 -1.05438 3.77658 0
M  V30 12135 H 1173.17 -2.03592 3.6461 0
M  V30 12136 N 1173.61 -1.56489 0.186789 0
M  V30 12137 C 1175.02 -1.83809 -0.327265 0
M  V30 12138 C 1175.37 -1.10718 -1.61976 0
M  V30 12139 O 1174.5 -0.36525 -2.13295 0
M  V30 12140 C 1175.09 -3.33435 -0.600551 0
M  V30 12141 C 1173.65 -3.61195 -1.059 0
M  V30 12142 C 1172.8 -2.77108 -0.103131 0
M  V30 12143 H 1175.75 -1.53292 0.410747 0
M  V30 12144 H 1175.77 -3.51754 -1.45084 0
M  V30 12145 H 1175.28 -3.86605 0.340315 0
M  V30 12146 H 1173.38 -3.13451 -2.01443 0
M  V30 12147 H 1173.5 -4.69435 -0.957458 0
M  V30 12148 H 1171.86 -2.47448 -0.603449 0
M  V30 12149 H 1172.64 -3.33065 0.832031 0
M  V30 12150 N 1175.09 0.086862 -1.5736 0
M  V30 12151 C 1176 1.12297 -2.05977 0
M  V30 12152 C 1177.02 1.43347 -0.986284 0
M  V30 12153 O 1178.19 1.53825 -1.3 0
M  V30 12154 C 1175.26 2.42131 -2.4814 0
M  V30 12155 C 1174.32 2.18189 -3.69719 0
M  V30 12156 C 1173.55 3.41833 -4.09861 0
M  V30 12157 O 1173.77 4.50383 -3.50016 0
M  V30 12158 O 1172.71 3.30934 -5.02759 0
M  V30 12159 H 1176.53 0.740012 -2.94546 0
M  V30 12160 H 1174.12 0.29995 -1.46358 0
M  V30 12161 H 1176 3.18568 -2.75848 0
M  V30 12162 H 1174.68 2.79837 -1.62705 0
M  V30 12163 H 1173.58 1.39506 -3.47115 0
M  V30 12164 H 1174.92 1.85372 -4.55959 0
M  V30 12165 N 1176.57 1.53483 0.357892 0
M  V30 12166 C 1177.53 1.79782 1.42166 0
M  V30 12167 C 1178.53 0.668441 1.46248 0
M  V30 12168 O 1179.72 0.936677 1.46874 0
M  V30 12169 C 1176.85 1.92686 2.8122 0
M  V30 12170 H 1178.05 2.74794 1.20117 0
M  V30 12171 H 1175.6 1.44677 0.591468 0
M  V30 12172 H 1176.33 0.997669 3.08573 0
M  V30 12173 H 1176.12 2.74837 2.79655 0
M  V30 12174 H 1177.61 2.14599 3.58242 0
M  V30 12175 N 1178.05 -0.61812 1.44973 0
M  V30 12176 C 1179.29 -1.37343 1.47715 0
M  V30 12177 C 1179.61 -1.95239 0.118784 0
M  V30 12178 O 1180.81 -2.7149 0.0237981 0
M  V30 12179 C 1179.27 -2.48732 2.60116 0
M  V30 12180 C 1178.88 -1.97294 4.02218 0
M  V30 12181 C 1180.62 -3.25831 2.72093 0
M  V30 12182 C 1178.53 -3.06102 5.06019 0
M  V30 12183 H 1177.46 -0.516175 0.549617 0
M  V30 12184 H 1180.11 -0.663617 1.7108 0
M  V30 12185 H 1178.49 -3.2235 2.30014 0
M  V30 12186 H 1179.67 -1.30455 4.41948 0
M  V30 12187 H 1177.98 -1.32972 3.94598 0
M  V30 12188 H 1180.58 -4.06968 3.46815 0
M  V30 12189 H 1180.92 -3.76156 1.7836 0
M  V30 12190 H 1181.45 -2.59309 3.01668 0
M  V30 12191 H 1178.19 -2.60706 6.01426 0
M  V30 12192 H 1177.71 -3.71541 4.70869 0
M  V30 12193 H 1179.39 -3.70662 5.30301 0
M  V30 12194 N 1179.52 -1.32087 -0.859693 0
M  V30 12195 C 1180.49 -1.20546 -1.94939 0
M  V30 12196 C 1181.49 -0.12982 -1.60275 0
M  V30 12197 O 1182.68 -0.379853 -1.70008 0
M  V30 12198 C 1179.81 -0.852717 -3.30063 0
M  V30 12199 H 1181 -2.17384 -2.06602 0
M  V30 12200 H 1178.55 -1.15846 -1.04926 0
M  V30 12201 H 1179.29 0.114059 -3.24099 0
M  V30 12202 H 1179.07 -1.63035 -3.56598 0
M  V30 12203 H 1180.56 -0.796145 -4.09941 0
M  V30 12204 N 1181 1.07532 -1.15215 0
M  V30 12205 C 1181.95 2.12909 -0.815714 0
M  V30 12206 C 1182.94 1.59662 0.1992 0
M  V30 12207 O 1184.13 1.77 0.000215597 0
M  V30 12208 C 1181.26 3.41945 -0.304717 0
M  V30 12209 C 1180.34 4.0205 -1.34968 0
M  V30 12210 N 1180.73 4.36439 -2.55646 0
M  V30 12211 C 1179.03 4.29498 -1.20199 0
M  V30 12212 C 1179.73 4.84044 -3.22609 0
M  V30 12213 N 1178.71 4.82702 -2.5 0
M  V30 12214 H 1182.51 2.37327 -1.73358 0
M  V30 12215 H 1180.02 1.24952 -1.03734 0
M  V30 12216 H 1182.02 4.16875 -0.0453503 0
M  V30 12217 H 1180.68 3.18971 0.607235 0
M  V30 12218 H 1181.69 4.27184 -2.92804 0
M  V30 12219 H 1178.37 4.16032 -0.349781 0
M  V30 12220 H 1179.76 5.19959 -4.2555 0
M  V30 12221 N 1182.48 0.948665 1.2585 0
M  V30 12222 C 1183.9 0.652147 1.45668 0
M  V30 12223 C 1184.1 -0.792217 1.85273 0
M  V30 12224 O 1183.15 -1.56812 1.97905 0
M  V30 12225 C 1184.47 1.61998 2.53332 0
M  V30 12226 C 1186.01 1.6305 2.67178 0
M  V30 12227 C 1186.49 2.58582 3.78021 0
M  V30 12228 N 1187.98 2.56911 3.85423 0
M  V30 12229 C 1188.71 3.27511 4.70664 0
M  V30 12230 N 1188.21 4.07563 5.60236 0
M  V30 12231 N 1190 3.16427 4.64576 0
M  V30 12232 H 1182.15 1.88215 0.984325 0
M  V30 12233 H 1184.42 0.809251 0.493778 0
M  V30 12234 H 1184.12 2.65137 2.31075 0
M  V30 12235 H 1184 1.37784 3.51134 0
M  V30 12236 H 1186.38 0.606315 2.88804 0
M  V30 12237 H 1186.47 1.9132 1.69795 0
M  V30 12238 H 1186.11 3.61122 3.57146 0
M  V30 12239 H 1186.04 2.27598 4.74875 0
M  V30 12240 H 1188.53 1.9879 3.21389 0
M  V30 12241 H 1188.84 4.58367 6.22189 0
M  V30 12242 H 1187.19 4.11662 5.59964 0
M  V30 12243 H 1190.38 2.53364 3.93604 0
M  V30 12244 H 1190.55 3.71714 5.30785 0
M  V30 12245 N 1183.96 -1.40369 0.716545 0
M  V30 12246 C 1185.21 -2.00101 0.253452 0
M  V30 12247 C 1185.52 -1.57471 -1.16027 0
M  V30 12248 O 1186.73 -2.09909 -1.72193 0
M  V30 12249 C 1185.18 -3.57645 0.402213 0
M  V30 12250 C 1184.79 -4.09248 1.82264 0
M  V30 12251 C 1186.53 -4.245 -3.88526e-05 0
M  V30 12252 C 1184.44 -5.59299 1.92193 0
M  V30 12253 H 1183.37 -0.748488 0.0910047 0
M  V30 12254 H 1186.02 -1.60595 0.887772 0
M  V30 12255 H 1184.4 -3.94857 -0.300706 0
M  V30 12256 H 1185.58 -3.83412 2.55601 0
M  V30 12257 H 1183.89 -3.54993 2.17644 0
M  V30 12258 H 1186.49 -5.34673 0.0534202 0
M  V30 12259 H 1186.83 -4.03046 -1.04208 0
M  V30 12260 H 1187.37 -3.92398 0.65336 0
M  V30 12261 H 1184.11 -5.85608 2.94522 0
M  V30 12262 H 1183.63 -5.86997 1.23268 0
M  V30 12263 H 1185.3 -6.24416 1.6945 0
M  V30 12264 N 1185.44 -0.462799 -1.50652 0
M  V30 12265 C 1186.68 0.0950445 -2.02277 0
M  V30 12266 C 1187.01 1.40465 -1.34536 0
M  V30 12267 O 1186.27 1.90283 -0.457279 0
M  V30 12268 C 1186.57 0.335294 -3.55824 0
M  V30 12269 C 1186.23 -0.891589 -4.41997 0
M  V30 12270 C 1184.89 -1.22799 -4.65268 0
M  V30 12271 C 1187.25 -1.70885 -4.9239 0
M  V30 12272 C 1184.57 -2.38186 -5.36175 0
M  V30 12273 C 1186.93 -2.85394 -5.64564 0
M  V30 12274 C 1185.59 -3.19458 -5.86091 0
M  V30 12275 H 1184.86 0.0347793 -0.740183 0
M  V30 12276 H 1187.51 -0.61519 -1.8135 0
M  V30 12277 H 1185.81 1.12769 -3.7522 0
M  V30 12278 H 1187.51 0.780752 -3.93326 0
M  V30 12279 H 1184.1 -0.619495 -4.24099 0
M  V30 12280 H 1188.28 -1.46215 -4.74273 0
M  V30 12281 H 1183.54 -2.64862 -5.51052 0
M  V30 12282 H 1187.71 -3.49073 -6.02595 0
M  V30 12283 H 1185.34 -4.08978 -6.40813 0
M  V30 12284 N 1186.91 1.56388 -0.195085 0
M  V30 12285 C 1188.14 2.01963 0.449289 0
M  V30 12286 C 1188.56 1.07522 1.55192 0
M  V30 12287 O 1187.91 0.0800915 1.82324 0
M  V30 12288 C 1187.97 3.47231 1.00561 0
M  V30 12289 O 1187.69 4.38068 -0.0530241 0
M  V30 12290 C 1189.19 4.08324 1.72587 0
M  V30 12291 H 1186.41 0.661452 0.112792 0
M  V30 12292 H 1188.95 2.02231 -0.303788 0
M  V30 12293 H 1187.11 3.47663 1.70907 0
M  V30 12294 H 1187.52 5.23256 0.361076 0
M  V30 12295 H 1188.99 5.11821 2.06744 0
M  V30 12296 H 1189.47 3.51782 2.62956 0
M  V30 12297 H 1190.08 4.11665 1.06826 0
M  V30 12298 N 1188.39 -0.0785156 1.57404 0
M  V30 12299 C 1189.62 -0.792042 1.9114 0
M  V30 12300 C 1190.04 -1.71458 0.790408 0
M  V30 12301 O 1189.39 -1.80959 -0.236662 0
M  V30 12302 C 1189.44 -1.59138 3.24588 0
M  V30 12303 O 1189.16 -0.705931 4.32375 0
M  V30 12304 C 1190.67 -2.4065 3.72293 0
M  V30 12305 H 1187.89 -0.225566 0.63195 0
M  V30 12306 H 1190.43 -0.0507929 2.04437 0
M  V30 12307 H 1188.58 -2.28498 3.12838 0
M  V30 12308 H 1189 -1.26121 5.09111 0
M  V30 12309 H 1190.47 -2.92204 4.68317 0
M  V30 12310 H 1190.95 -3.1987 3.00965 0
M  V30 12311 H 1191.56 -1.7646 3.86965 0
M  V30 12312 N 1189.87 -1.5367 -0.349747 0
M  V30 12313 C 1190.83 -1.80533 -1.41211 0
M  V30 12314 C 1191.83 -0.676188 -1.45892 0
M  V30 12315 O 1193.02 -0.944453 -1.46375 0
M  V30 12316 C 1190.16 -1.94175 -2.80195 0
M  V30 12317 H 1191.35 -2.75428 -1.18658 0
M  V30 12318 H 1188.9 -1.44988 -0.583787 0
M  V30 12319 H 1189.64 -1.01402 -3.08039 0
M  V30 12320 H 1189.42 -2.76316 -2.78194 0
M  V30 12321 H 1190.91 -2.16496 -3.57098 0
M  V30 12322 N 1191.35 0.610423 -1.45298 0
M  V30 12323 C 1192.57 1.40112 -1.52917 0
M  V30 12324 C 1193 1.87404 -0.161696 0
M  V30 12325 O 1192.36 1.59973 0.853135 0
M  V30 12326 C 1192.4 2.58359 -2.51561 0
M  V30 12327 O 1191.51 3.58895 -2.03146 0
M  V30 12328 H 1190.85 0.41841 -0.515586 0
M  V30 12329 H 1193.38 0.743159 -1.90626 0
M  V30 12330 H 1193.39 3.0564 -2.70275 0
M  V30 12331 H 1192.06 2.23286 -3.50879 0
M  V30 12332 H 1190.64 3.18282 -1.94296 0
M  V30 12333 N 1192.83 1.32541 0.852676 0
M  V30 12334 C 1194.1 1.1383 1.59067 0
M  V30 12335 C 1194.48 -0.300584 2.08949 0
M  V30 12336 O 1193.83 -1.29751 1.88088 0
M  V30 12337 C 1194.04 2.16758 2.73527 0
M  V30 12338 C 1195.39 2.50194 3.43057 0
M  V30 12339 O 1196.41 2.15319 2.83754 0
M  V30 12340 O 1195.27 3.09985 4.50079 0
M  V30 12341 H 1192.37 0.439379 0.700625 0
M  V30 12342 H 1194.91 1.44078 0.896632 0
M  V30 12343 H 1193.68 3.13469 2.34207 0
M  V30 12344 H 1193.31 1.87515 3.50605 0
M  V30 12345 N 1194.3 -1.0692 1.15784 0
M  V30 12346 C 1195.55 -1.79866 0.936815 0
M  V30 12347 C 1195.88 -1.867 -0.534477 0
M  V30 12348 O 1195.16 -1.35395 -1.39637 0
M  V30 12349 C 1195.44 -3.24691 1.55717 0
M  V30 12350 C 1195.29 -3.25975 3.09936 0
M  V30 12351 C 1196.61 -4.22076 1.24658 0
M  V30 12352 H 1193.73 -0.652971 0.341756 0
M  V30 12353 H 1196.37 -1.25085 1.43016 0
M  V30 12354 H 1194.52 -3.7147 1.13763 0
M  V30 12355 H 1196.2 -2.87405 3.60827 0
M  V30 12356 H 1194.44 -2.64808 3.43597 0
M  V30 12357 H 1195.11 -4.28114 3.48458 0
M  V30 12358 H 1197.59 -3.83709 1.60956 0
M  V30 12359 H 1196.46 -5.21691 1.70675 0
M  V30 12360 H 1196.72 -4.41794 0.164341 0
M  V30 12361 N 1195.78 -0.955326 -1.25345 0
M  V30 12362 C 1197.03 -0.62095 -1.9369 0
M  V30 12363 C 1197.38 0.832995 -1.73433 0
M  V30 12364 O 1196.68 1.58991 -1.06922 0
M  V30 12365 C 1196.87 -0.916173 -3.45458 0
M  V30 12366 C 1196.7 -2.39726 -3.80475 0
M  V30 12367 C 1195.47 -3.05494 -4.02494 0
M  V30 12368 C 1197.67 -3.37664 -3.87927 0
M  V30 12369 N 1195.65 -4.43469 -4.2451 0
M  V30 12370 C 1197.02 -4.60949 -4.1464 0
M  V30 12371 C 1199.08 -3.32493 -3.70611 0
M  V30 12372 C 1197.78 -5.79703 -4.25837 0
M  V30 12373 C 1199.8 -4.50586 -3.83048 0
M  V30 12374 C 1199.17 -5.72657 -4.10174 0
M  V30 12375 H 1195.27 -0.277847 -0.730976 0
M  V30 12376 H 1197.85 -1.22764 -1.51119 0
M  V30 12377 H 1196.02 -0.338402 -3.86923 0
M  V30 12378 H 1197.75 -0.54163 -4.01059 0
M  V30 12379 H 1194.51 -2.56063 -3.98408 0
M  V30 12380 H 1194.93 -5.14927 -4.39522 0
M  V30 12381 H 1199.57 -2.39163 -3.48656 0
M  V30 12382 H 1197.29 -6.73473 -4.46609 0
M  V30 12383 H 1200.88 -4.48133 -3.71036 0
M  V30 12384 H 1199.76 -6.62512 -4.19581 0
M  V30 12385 N 1197.26 1.39987 -0.723979 0
M  V30 12386 C 1198.49 2.0556 -0.275634 0
M  V30 12387 C 1198.91 1.54207 1.07711 0
M  V30 12388 O 1198.27 0.681041 1.68022 0
M  V30 12389 C 1198.32 3.59551 -0.27485 0
M  V30 12390 O 1197.42 4.05685 0.741182 0
M  V30 12391 H 1196.76 0.651634 -0.12755 0
M  V30 12392 H 1199.29 1.79229 -0.986814 0
M  V30 12393 H 1199.3 4.07837 -0.115425 0
M  V30 12394 H 1197.98 3.96291 -1.26198 0
M  V30 12395 H 1196.55 3.6884 0.548795 0
M  V30 12396 N 1198.74 0.470782 1.50404 0
M  V30 12397 C 1199.99 -0.084316 2.02324 0
M  V30 12398 C 1200.31 -1.39749 1.35279 0
M  V30 12399 O 1199.57 -1.90037 0.467364 0
M  V30 12400 C 1199.87 -0.316419 3.55997 0
M  V30 12401 C 1199.53 0.915017 4.41518 0
M  V30 12402 C 1198.2 1.25265 4.6461 0
M  V30 12403 C 1200.55 1.73494 4.91477 0
M  V30 12404 C 1197.88 2.41027 5.34905 0
M  V30 12405 C 1200.23 2.88384 5.63043 0
M  V30 12406 C 1198.89 3.22562 5.84389 0
M  V30 12407 H 1198.16 -0.0308534 0.740357 0
M  V30 12408 H 1200.81 0.624799 1.81021 0
M  V30 12409 H 1199.11 -1.10778 3.75813 0
M  V30 12410 H 1200.81 -0.759882 3.93734 0
M  V30 12411 H 1197.4 0.641977 4.23765 0
M  V30 12412 H 1201.59 1.48728 4.73491 0
M  V30 12413 H 1196.84 2.67781 5.49639 0
M  V30 12414 H 1201.02 3.52264 6.00735 0
M  V30 12415 H 1198.64 4.1237 6.38635 0
M  V30 12416 N 1200.22 -1.56282 0.203376 0
M  V30 12417 C 1201.47 -1.97421 -0.432346 0
M  V30 12418 C 1201.79 -1.0917 -1.61576 0
M  V30 12419 O 1201.06 -0.164759 -1.95206 0
M  V30 12420 H 1199.64 -0.729062 -0.162721 0
M  V30 12421 H 1202.3 -1.927 0.292039 0
M  V30 12422 H 1201.39 -3.02429 -0.770918 0
M  V30 12423 N 1201.7 0.070167 -1.57444 0
M  V30 12424 C 1202.94 0.767842 -1.86513 0
M  V30 12425 C 1203.26 1.78659 -0.796257 0
M  V30 12426 O 1204.46 2.53395 -0.974845 0
M  V30 12427 C 1202.92 1.41654 -3.30851 0
M  V30 12428 C 1202.53 0.436273 -4.45871 0
M  V30 12429 C 1204.27 2.09649 -3.69117 0
M  V30 12430 C 1202.18 1.09098 -5.8125 0
M  V30 12431 H 1201.11 0.290519 -0.695784 0
M  V30 12432 H 1203.76 0.0211697 -1.83488 0
M  V30 12433 H 1202.14 2.21153 -3.28493 0
M  V30 12434 H 1203.32 -0.329022 -4.59624 0
M  V30 12435 H 1201.63 -0.139314 -4.16167 0
M  V30 12436 H 1204.23 2.59411 -4.67558 0
M  V30 12437 H 1204.57 2.89663 -2.99 0
M  V30 12438 H 1205.1 1.36979 -3.73472 0
M  V30 12439 H 1201.84 0.331128 -6.54663 0
M  V30 12440 H 1201.36 1.8271 -5.71294 0
M  V30 12441 H 1203.04 1.61034 -6.2664 0
M  V30 12442 N 1203.17 1.53854 0.341593 0
M  V30 12443 C 1204.42 1.71447 1.08322 0
M  V30 12444 C 1204.75 0.477289 1.88243 0
M  V30 12445 O 1204.03 -0.525695 1.87261 0
M  V30 12446 C 1204.31 2.97917 2.02281 0
M  V30 12447 C 1204.16 4.31847 1.25809 0
M  V30 12448 C 1205.48 3.20065 3.0207 0
M  V30 12449 H 1202.6 0.623847 0.392408 0
M  V30 12450 H 1205.24 1.86527 0.361594 0
M  V30 12451 H 1203.39 2.85191 2.63815 0
M  V30 12452 H 1205.07 4.56427 0.668737 0
M  V30 12453 H 1203.31 4.30169 0.560119 0
M  V30 12454 H 1203.98 5.16522 1.94704 0
M  V30 12455 H 1206.46 3.32135 2.50651 0
M  V30 12456 H 1205.33 4.09947 3.65013 0
M  V30 12457 H 1205.59 2.36452 3.73554 0
M  V30 12458 N 1204.65 -0.602709 1.4562 0
M  V30 12459 C 1205.58 -1.72705 1.49159 0
M  V30 12460 C 1206.56 -1.58843 0.347494 0
M  V30 12461 O 1207.75 -1.80337 0.548716 0
M  V30 12462 C 1204.87 -3.10579 1.35125 0
M  V30 12463 C 1203.92 -3.43016 2.53461 0
M  V30 12464 S 1204.75 -3.37311 4.1591 0
M  V30 12465 C 1205.91 -4.77757 4.0435 0
M  V30 12466 H 1206.14 -1.69441 2.44289 0
M  V30 12467 H 1203.67 -0.779776 1.33262 0
M  V30 12468 H 1205.63 -3.90127 1.27715 0
M  V30 12469 H 1204.29 -3.11352 0.414568 0
M  V30 12470 H 1203.49 -4.43415 2.39581 0
M  V30 12471 H 1203.09 -2.70993 2.57757 0
M  V30 12472 H 1205.38 -5.67677 3.69796 0
M  V30 12473 H 1206.32 -4.96694 5.04679 0
M  V30 12474 H 1206.73 -4.53667 3.35926 0
M  V30 12475 N 1206.13 -1.32992 -0.845635 0
M  V30 12476 C 1207.38 -1.25258 -1.60256 0
M  V30 12477 C 1207.73 0.181685 -1.9154 0
M  V30 12478 O 1207.02 1.12193 -1.55316 0
M  V30 12479 C 1207.22 -2.05454 -2.92444 0
M  V30 12480 C 1207.05 -3.56533 -2.7407 0
M  V30 12481 C 1205.82 -4.25857 -2.71981 0
M  V30 12482 C 1208.01 -4.51003 -2.47186 0
M  V30 12483 N 1206 -5.6293 -2.44913 0
M  V30 12484 C 1207.37 -5.75917 -2.29607 0
M  V30 12485 C 1209.42 -4.40162 -2.32727 0
M  V30 12486 C 1208.13 -6.91214 -1.99037 0
M  V30 12487 C 1210.15 -5.55267 -2.0355 0
M  V30 12488 C 1209.51 -6.79186 -1.86777 0
M  V30 12489 H 1205.61 -0.513536 -0.58975 0
M  V30 12490 H 1208.2 -1.67458 -0.993277 0
M  V30 12491 H 1206.37 -1.65585 -3.51335 0
M  V30 12492 H 1208.1 -1.89543 -3.57569 0
M  V30 12493 H 1204.85 -3.78064 -2.85245 0
M  V30 12494 H 1205.28 -6.3517 -2.34282 0
M  V30 12495 H 1209.92 -3.44998 -2.4441 0
M  V30 12496 H 1207.64 -7.86381 -1.86091 0
M  V30 12497 H 1211.22 -5.48811 -1.93127 0
M  V30 12498 H 1210.1 -7.66748 -1.64523 0
M  V30 12499 N 1207.61 1.06304 -1.1635 0
M  V30 12500 C 1208.52 2.17296 -0.884289 0
M  V30 12501 C 1209.53 1.73408 0.143414 0
M  V30 12502 O 1210.71 2.01373 -0.0331987 0
M  V30 12503 C 1207.77 3.44509 -0.389163 0
M  V30 12504 C 1206.84 4.02906 -1.48208 0
M  V30 12505 C 1206.07 5.24047 -1.01048 0
M  V30 12506 O 1206.29 5.70229 0.139821 0
M  V30 12507 O 1205.23 5.74394 -1.79876 0
M  V30 12508 H 1209.05 2.4369 -1.81243 0
M  V30 12509 H 1206.64 1.15841 -0.943459 0
M  V30 12510 H 1208.52 4.21229 -0.120018 0
M  V30 12511 H 1207.19 3.19642 0.510968 0
M  V30 12512 H 1206.1 3.27677 -1.80496 0
M  V30 12513 H 1207.43 4.32068 -2.35751 0
M  V30 12514 N 1209.09 0.96196 1.24836 0
M  V30 12515 C 1210.33 0.621634 1.93038 0
M  V30 12516 C 1210.66 -0.840257 1.75081 0
M  V30 12517 O 1209.94 -1.60381 1.10038 0
M  V30 12518 C 1210.22 0.990107 3.46221 0
M  V30 12519 C 1210.08 2.50827 3.73371 0
M  V30 12520 C 1211.39 0.520478 4.37011 0
M  V30 12521 H 1208.51 0.227312 0.701069 0
M  V30 12522 H 1211.16 1.19993 1.47315 0
M  V30 12523 H 1209.31 0.498008 3.85295 0
M  V30 12524 H 1210.98 3.07469 3.4389 0
M  V30 12525 H 1209.22 2.94277 3.18722 0
M  V30 12526 H 1209.89 2.71659 4.80526 0
M  V30 12527 H 1212.37 0.942703 4.05281 0
M  V30 12528 H 1211.24 0.806918 5.42937 0
M  V30 12529 H 1211.5 -0.579507 4.38285 0
M  V30 12530 N 1210.56 -1.39601 0.731392 0
M  V30 12531 C 1211.49 -2.33268 0.1041 0
M  V30 12532 C 1212.47 -1.53724 -0.728219 0
M  V30 12533 O 1213.66 -1.82131 -0.673933 0
M  V30 12534 C 1210.79 -3.37802 -0.806646 0
M  V30 12535 C 1209.74 -4.27928 -0.0787588 0
M  V30 12536 C 1209.07 -5.23131 -1.10628 0
M  V30 12537 C 1210.37 -5.11086 1.07651 0
M  V30 12538 H 1212.06 -2.85975 0.886496 0
M  V30 12539 H 1209.61 -1.375 0.427746 0
M  V30 12540 H 1211.56 -4.02278 -1.25499 0
M  V30 12541 H 1210.29 -2.83527 -1.62112 0
M  V30 12542 H 1208.95 -3.64926 0.349926 0
M  V30 12543 H 1208.59 -4.65152 -1.91422 0
M  V30 12544 H 1208.29 -5.84277 -0.624043 0
M  V30 12545 H 1209.82 -5.90483 -1.5544 0
M  V30 12546 H 1211.23 -5.68927 0.706781 0
M  V30 12547 H 1209.63 -5.81356 1.48814 0
M  V30 12548 H 1210.7 -4.46131 1.89988 0
M  V30 12549 N 1212.04 -0.478751 -1.50152 0
M  V30 12550 C 1213.27 0.0732929 -2.0727 0
M  V30 12551 C 1213.69 1.32066 -1.33941 0
M  V30 12552 O 1213.05 1.7707 -0.389367 0
M  V30 12553 C 1213.1 0.332528 -3.59064 0
M  V30 12554 O 1212.2 1.41158 -3.8749 0
M  V30 12555 H 1211.54 -0.0163684 -0.663798 0
M  V30 12556 H 1214.07 -0.671993 -1.9325 0
M  V30 12557 H 1214.08 0.570735 -4.03988 0
M  V30 12558 H 1212.76 -0.578934 -4.11851 0
M  V30 12559 H 1211.34 1.16008 -3.54396 0
M  V30 12560 N 1213.52 1.56172 -0.211661 0
M  V30 12561 C 1214.77 1.98039 0.422706 0
M  V30 12562 C 1215.1 1.09904 1.60472 0
M  V30 12563 O 1214.35 0.141771 1.95186 0
M  V30 12564 C 1214.65 3.45636 0.909442 0
M  V30 12565 C 1214.32 4.50613 -0.160982 0
M  V30 12566 C 1212.98 4.79043 -0.455064 0
M  V30 12567 C 1215.33 5.13624 -0.885426 0
M  V30 12568 C 1212.66 5.67771 -1.47828 0
M  V30 12569 C 1215.01 6.03459 -1.8979 0
M  V30 12570 C 1213.67 6.30238 -2.19901 0
M  V30 12571 H 1212.94 0.724676 0.154679 0
M  V30 12572 H 1215.59 1.8894 -0.312106 0
M  V30 12573 H 1213.9 3.51889 1.72283 0
M  V30 12574 H 1215.59 3.75395 1.40995 0
M  V30 12575 H 1212.18 4.28528 0.0783864 0
M  V30 12576 H 1216.37 4.91737 -0.671463 0
M  V30 12577 H 1211.62 5.86787 -1.7173 0
M  V30 12578 H 1215.8 6.51338 -2.46438 0
M  V30 12579 H 1213.42 6.98788 -2.9933 0
M  V30 12580 N 1215 -0.0618163 1.57479 0
M  V30 12581 C 1216.25 -0.757569 1.87364 0
M  V30 12582 C 1216.57 -1.77607 0.805025 0
M  V30 12583 O 1215.84 -1.95202 -0.165216 0
M  V30 12584 H 1214.42 -0.28278 0.691408 0
M  V30 12585 H 1217.08 -0.0355354 1.94868 0
M  V30 12586 H 1216.18 -1.26758 2.85199 0
M  V30 12587 N 1216.48 -1.54033 -0.333429 0
M  V30 12588 C 1217.75 -1.62404 -1.09015 0
M  V30 12589 C 1218.13 -0.451653 -2.06212 0
M  V30 12590 O 1217.48 0.555086 -2.21655 0
M  V30 12591 C 1217.69 -2.98949 -1.80085 0
M  V30 12592 C 1219.04 -3.54655 -2.33464 0
M  V30 12593 O 1220.06 -3.0119 -1.90166 0
M  V30 12594 O 1218.92 -4.48195 -3.12703 0
M  V30 12595 H 1216.02 -0.65727 -0.501921 0
M  V30 12596 H 1218.56 -1.66378 -0.33411 0
M  V30 12597 H 1217.33 -3.75716 -1.09332 0
M  V30 12598 H 1216.96 -2.98609 -2.62523 0
M  V30 12599 N 1217.95 0.594978 -1.45938 0
M  V30 12600 C 1218.9 1.70489 -1.5557 0
M  V30 12601 C 1219.87 1.61193 -0.400751 0
M  V30 12602 O 1221.06 1.80587 -0.615882 0
M  V30 12603 C 1218.2 3.08817 -1.54033 0
M  V30 12604 C 1217.31 3.28827 -2.80173 0
M  V30 12605 C 1216.44 4.57333 -2.70222 0
M  V30 12606 C 1215.48 4.70644 -3.91357 0
M  V30 12607 N 1214.62 5.90463 -3.79865 0
M  V30 12608 H 1219.46 1.61593 -2.50383 0
M  V30 12609 H 1217 0.787747 -1.24229 0
M  V30 12610 H 1218.96 3.88865 -1.51129 0
M  V30 12611 H 1217.59 3.1664 -0.627617 0
M  V30 12612 H 1216.64 2.42467 -2.9311 0
M  V30 12613 H 1217.95 3.34534 -3.69985 0
M  V30 12614 H 1217.1 5.45593 -2.65354 0
M  V30 12615 H 1215.84 4.54045 -1.7803 0
M  V30 12616 H 1214.85 3.80805 -3.9657 0
M  V30 12617 H 1216.07 4.75721 -4.8463 0
M  V30 12618 H 1214.02 5.88196 -2.90451 0
M  V30 12619 H 1213.94 5.97385 -4.63322 0
M  V30 12620 H 1215.2 6.81187 -3.78952 0
M  V30 12621 N 1219.43 1.33438 0.838571 0
M  V30 12622 C 1220.84 1.22366 1.41009 0
M  V30 12623 C 1221.19 -0.157317 1.95568 0
M  V30 12624 O 1220.32 -1.05692 1.88834 0
M  V30 12625 C 1220.91 2.21542 2.56329 0
M  V30 12626 C 1219.47 2.14309 3.09433 0
M  V30 12627 C 1218.62 2.09012 1.82235 0
M  V30 12628 H 1221.57 1.45032 0.64431 0
M  V30 12629 H 1221.59 1.82332 3.33969 0
M  V30 12630 H 1221.1 3.22042 2.16589 0
M  V30 12631 H 1219.21 1.17113 3.53717 0
M  V30 12632 H 1219.32 3.04866 3.69586 0
M  V30 12633 H 1217.68 1.54492 2.02495 0
M  V30 12634 H 1218.47 3.11319 1.4469 0
M  V30 12635 N 1220.91 -1.05686 1.16912 0
M  V30 12636 C 1222.14 -1.82018 0.977392 0
M  V30 12637 C 1222.55 -1.83072 -0.477636 0
M  V30 12638 O 1221.89 -1.25296 -1.34338 0
M  V30 12639 C 1221.95 -3.29592 1.4356 0
M  V30 12640 C 1221.62 -3.5223 2.91175 0
M  V30 12641 C 1222.61 -3.44767 3.89142 0
M  V30 12642 C 1220.3 -3.79353 3.29236 0
M  V30 12643 C 1222.29 -3.64104 5.2317 0
M  V30 12644 C 1219.98 -3.98339 4.63432 0
M  V30 12645 C 1220.98 -3.90713 5.60207 0
M  V30 12646 O 1220.67 -4.09175 6.91976 0
M  V30 12647 H 1220.4 -0.580578 0.346273 0
M  V30 12648 H 1222.95 -1.34199 1.55498 0
M  V30 12649 H 1221.18 -3.78302 0.80153 0
M  V30 12650 H 1222.87 -3.87435 1.21032 0
M  V30 12651 H 1223.64 -3.23796 3.61083 0
M  V30 12652 H 1219.52 -3.84395 2.54482 0
M  V30 12653 H 1223.06 -3.58068 5.98693 0
M  V30 12654 H 1218.96 -4.18801 4.91198 0
M  V30 12655 H 1219.73 -4.26429 6.98642 0
M  V30 12656 N 1222.39 -0.968567 -1.24324 0
M  V30 12657 C 1223.64 -0.629682 -1.9204 0
M  V30 12658 C 1223.96 0.837906 -1.7608 0
M  V30 12659 O 1223.23 1.5982 -1.13289 0
M  V30 12660 H 1221.81 -0.229901 -0.710742 0
M  V30 12661 H 1224.47 -1.22982 -1.512 0
M  V30 12662 H 1223.57 -0.871034 -2.99699 0
M  V30 12663 N 1223.87 1.39211 -0.738786 0
M  V30 12664 C 1224.78 2.34374 -0.102958 0
M  V30 12665 C 1225.79 1.58514 0.717596 0
M  V30 12666 O 1226.97 1.90786 0.645186 0
M  V30 12667 C 1224.03 3.37562 0.790733 0
M  V30 12668 C 1223.09 4.29279 -0.0425028 0
M  V30 12669 C 1222.33 5.27539 0.808628 0
M  V30 12670 O 1222.55 5.32396 2.04722 0
M  V30 12671 O 1221.48 6.0144 0.235279 0
M  V30 12672 H 1225.31 2.90412 -0.888498 0
M  V30 12673 H 1222.9 1.40803 -0.499498 0
M  V30 12674 H 1224.78 4.00783 1.30196 0
M  V30 12675 H 1223.45 2.83903 1.55502 0
M  V30 12676 H 1222.36 3.69268 -0.599335 0
M  V30 12677 H 1223.69 4.86154 -0.7691 0
M  V30 12678 N 1225.34 0.486708 1.49896 0
M  V30 12679 C 1226.28 -0.345627 2.25567 0
M  V30 12680 C 1227.26 -0.982794 1.29537 0
M  V30 12681 O 1228.44 -1.01569 1.58796 0
M  V30 12682 C 1225.57 -1.48555 3.04383 0
M  V30 12683 C 1224.61 -0.964196 4.15458 0
M  V30 12684 S 1225.45 0.133631 5.35333 0
M  V30 12685 C 1226.6 -1.00979 6.17701 0
M  V30 12686 H 1226.83 0.296677 2.95816 0
M  V30 12687 H 1224.37 0.271798 1.51989 0
M  V30 12688 H 1226.33 -2.13878 3.50381 0
M  V30 12689 H 1224.99 -2.09942 2.33631 0
M  V30 12690 H 1224.18 -1.81804 4.70067 0
M  V30 12691 H 1223.78 -0.388419 3.71978 0
M  V30 12692 H 1226.07 -1.91812 6.4978 0
M  V30 12693 H 1227.02 -0.502633 7.06314 0
M  V30 12694 H 1227.42 -1.27067 5.50013 0
M  V30 12695 N 1226.82 -1.56058 0.219941 0
M  V30 12696 C 1228.05 -2.031 -0.42014 0
M  V30 12697 C 1228.47 -1.09875 -1.52673 0
M  V30 12698 O 1227.83 -0.0866458 -1.81093 0
M  V30 12699 C 1227.88 -3.48389 -0.93047 0
M  V30 12700 O 1226.98 -3.583 -2.04192 0
M  V30 12701 H 1226.32 -0.657129 -0.0952772 0
M  V30 12702 H 1228.85 -2.01787 0.338105 0
M  V30 12703 H 1228.86 -3.88678 -1.2407 0
M  V30 12704 H 1227.54 -4.15725 -0.120539 0
M  V30 12705 H 1226.12 -3.29898 -1.73845 0
M  V30 12706 N 1228.3 0.053464 -1.57509 0
M  V30 12707 C 1229.25 1.08014 -2.05999 0
M  V30 12708 C 1230.24 1.38958 -0.968862 0
M  V30 12709 O 1231.45 1.3815 -1.15389 0
M  V30 12710 H 1227.82 0.36575 -0.657062 0
M  V30 12711 H 1229.8 0.645169 -2.91342 0
M  V30 12712 C 1228.54 2.38004 -2.53475 0
M  V30 12713 H 1227.87 2.15048 -3.37038 0
M  V30 12714 H 1229.31 3.08244 -2.91138 0
M  V30 12715 C 1227.77 3.05259 -1.42543 0
M  V30 12716 O 1228.3 3.94097 -0.777832 0
M  V30 12717 N 1226.5 2.66182 -1.16599 0
M  V30 12718 H 1226.05 1.94027 -1.69444 0
M  V30 12719 H 1226.01 3.11503 -0.42585 0
M  V30 12720 N 1229.78 1.54207 0.325255 0
M  V30 12721 C 1230.71 1.79812 1.42128 0
M  V30 12722 C 1231.72 0.68003 1.47917 0
M  V30 12723 O 1232.91 0.957107 1.50671 0
M  V30 12724 C 1230.01 1.89935 2.80674 0
M  V30 12725 C 1229.19 3.20078 2.98108 0
M  V30 12726 C 1228.25 3.20924 4.17006 0
M  V30 12727 O 1227.27 3.94571 4.10247 0
M  V30 12728 N 1228.47 2.44588 5.26457 0
M  V30 12729 H 1231.24 2.74396 1.20527 0
M  V30 12730 H 1228.8 1.53483 0.515233 0
M  V30 12731 H 1230.79 1.8793 3.58419 0
M  V30 12732 H 1229.36 1.02455 2.95333 0
M  V30 12733 H 1228.58 3.35057 2.07679 0
M  V30 12734 H 1229.87 4.06008 3.06651 0
M  V30 12735 H 1229.27 1.8434 5.34823 0
M  V30 12736 H 1227.82 2.48363 6.02627 0
M  V30 12737 N 1231.26 -0.58723 1.46251 0
M  V30 12738 C 1232.17 -1.72455 1.59048 0
M  V30 12739 C 1233.18 -1.67416 0.47413 0
M  V30 12740 O 1234.36 -1.87406 0.737633 0
M  V30 12741 C 1231.42 -3.08953 1.57318 0
M  V30 12742 C 1230.49 -3.25291 2.80151 0
M  V30 12743 C 1229.72 -4.55277 2.78493 0
M  V30 12744 O 1229.94 -5.38883 1.8698 0
M  V30 12745 O 1228.88 -4.74765 3.69975 0
M  V30 12746 H 1232.7 -1.64606 2.55223 0
M  V30 12747 H 1230.29 -0.753742 1.28993 0
M  V30 12748 H 1232.17 -3.90239 1.59033 0
M  V30 12749 H 1230.84 -3.17249 0.643025 0
M  V30 12750 H 1229.75 -2.43515 2.83991 0
M  V30 12751 H 1231.08 -3.21883 3.7236 0
M  V30 12752 N 1232.74 -1.33881 -0.831482 0
M  V30 12753 C 1233.98 -1.25942 -1.58955 0
M  V30 12754 C 1234.31 0.172542 -1.93432 0
M  V30 12755 O 1233.59 1.11577 -1.59314 0
M  V30 12756 C 1233.87 -2.14193 -2.89471 0
M  V30 12757 C 1233.73 -3.65883 -2.61628 0
M  V30 12758 C 1235.04 -2.02071 -3.90967 0
M  V30 12759 H 1232.16 -0.458841 -0.576744 0
M  V30 12760 H 1234.81 -1.64052 -0.958482 0
M  V30 12761 H 1232.96 -1.81821 -3.43327 0
M  V30 12762 H 1234.63 -4.08581 -2.14148 0
M  V30 12763 H 1232.87 -3.87397 -1.95208 0
M  V30 12764 H 1233.54 -4.22988 -3.54662 0
M  V30 12765 H 1236.02 -2.30476 -3.46439 0
M  V30 12766 H 1234.89 -2.66059 -4.80108 0
M  V30 12767 H 1235.15 -0.995121 -4.30755 0
M  V30 12768 N 1234.21 1.05064 -1.1747 0
M  V30 12769 C 1235.15 2.12334 -0.836028 0
M  V30 12770 C 1236.12 1.61393 0.197733 0
M  V30 12771 O 1237.31 1.88334 0.0789748 0
M  V30 12772 C 1234.44 3.37796 -0.24734 0
M  V30 12773 C 1233.48 4.07565 -1.25669 0
M  V30 12774 S 1234.31 4.55941 -2.80853 0
M  V30 12775 C 1235.47 5.84648 -2.23468 0
M  V30 12776 H 1235.7 2.40735 -1.74453 0
M  V30 12777 H 1233.24 1.17684 -0.999495 0
M  V30 12778 H 1235.19 4.1041 0.0858241 0
M  V30 12779 H 1233.86 3.07529 0.639124 0
M  V30 12780 H 1233.05 4.97715 -0.793465 0
M  V30 12781 H 1232.65 3.41022 -1.53557 0
M  V30 12782 H 1234.94 6.58067 -1.61104 0
M  V30 12783 H 1235.89 6.35719 -3.11877 0
M  V30 12784 H 1236.29 5.39272 -1.6687 0
M  V30 12785 N 1235.69 0.975146 1.23809 0
M  V30 12786 C 1236.64 0.510761 2.25077 0
M  V30 12787 C 1237.61 -0.447605 1.59955 0
M  V30 12788 O 1238.79 -0.356318 1.87443 0
M  V30 12789 C 1235.93 -0.185755 3.446 0
M  V30 12790 C 1235.05 0.812254 4.24295 0
M  V30 12791 C 1234.18 0.0910835 5.31122 0
M  V30 12792 C 1233.22 1.07866 6.02521 0
M  V30 12793 N 1232.36 0.386995 7.01033 0
M  V30 12794 H 1237.2 1.37913 2.64166 0
M  V30 12795 H 1234.73 0.691184 1.2985 0
M  V30 12796 H 1236.69 -0.606341 4.1277 0
M  V30 12797 H 1235.32 -1.01803 3.06327 0
M  V30 12798 H 1234.37 1.35125 3.55592 0
M  V30 12799 H 1235.69 1.56502 4.73612 0
M  V30 12800 H 1234.84 -0.387129 6.05464 0
M  V30 12801 H 1233.58 -0.694324 4.82732 0
M  V30 12802 H 1232.58 1.56767 5.26976 0
M  V30 12803 H 1233.81 1.86464 6.52999 0
M  V30 12804 H 1231.76 -0.3793 6.54903 0
M  V30 12805 H 1231.67 1.0785 7.48268 0
M  V30 12806 H 1232.94 -0.0690036 7.79469 0
M  V30 12807 N 1237.17 -1.38817 0.746158 0
M  V30 12808 C 1238.39 -2.05096 0.308302 0
M  V30 12809 C 1238.82 -1.55902 -1.05244 0
M  V30 12810 O 1238.18 -0.707685 -1.66918 0
M  V30 12811 C 1238.23 -3.59068 0.332016 0
M  V30 12812 O 1237.33 -4.06813 -0.676547 0
M  V30 12813 H 1236.67 -0.649523 0.1379 0
M  V30 12814 H 1239.2 -1.77637 1.0152 0
M  V30 12815 H 1239.21 -4.07601 0.180293 0
M  V30 12816 H 1237.89 -3.94234 1.32487 0
M  V30 12817 H 1236.46 -3.69666 -0.490046 0
M  V30 12818 N 1238.65 -0.49465 -1.49636 0
M  V30 12819 C 1239.9 0.0539277 -2.01628 0
M  V30 12820 C 1240.21 1.38634 -1.37986 0
M  V30 12821 O 1241.42 2.02123 -1.81269 0
M  V30 12822 C 1239.87 0.146582 -3.59601 0
M  V30 12823 C 1239.48 -1.1788 -4.32213 0
M  V30 12824 C 1241.22 0.645862 -4.19558 0
M  V30 12825 C 1239.13 -1.04866 -5.82028 0
M  V30 12826 H 1238.06 0.0239278 -0.75362 0
M  V30 12827 H 1240.71 -0.633112 -1.72232 0
M  V30 12828 H 1239.09 0.897931 -3.85685 0
M  V30 12829 H 1240.27 -1.94295 -4.17835 0
M  V30 12830 H 1238.58 -1.61102 -3.83973 0
M  V30 12831 H 1241.18 0.76064 -5.29262 0
M  V30 12832 H 1241.52 1.64313 -3.82501 0
M  V30 12833 H 1242.06 -0.04877 -3.9777 0
M  V30 12834 H 1238.79 -2.02 -6.23599 0
M  V30 12835 H 1238.31 -0.325293 -5.98917 0
M  V30 12836 H 1239.99 -0.724799 -6.42927 0
M  V30 12837 N 1240.13 1.55939 -0.228214 0
M  V30 12838 C 1241.04 2.24213 0.690339 0
M  V30 12839 C 1242.05 1.25197 1.20838 0
M  V30 12840 O 1243.23 1.58026 1.24859 0
M  V30 12841 C 1240.29 2.91384 1.87873 0
M  V30 12842 C 1239.35 4.05761 1.40201 0
M  V30 12843 C 1238.59 4.6972 2.53376 0
M  V30 12844 O 1238.81 4.32687 3.71669 0
M  V30 12845 O 1237.74 5.58587 2.24198 0
M  V30 12846 H 1241.57 3.03383 0.138692 0
M  V30 12847 H 1239.15 1.494 0.00251504 0
M  V30 12848 H 1241.04 3.33758 2.57262 0
M  V30 12849 H 1239.71 2.15168 2.41835 0
M  V30 12850 H 1238.62 3.67943 0.675945 0
M  V30 12851 H 1239.95 4.83739 0.908691 0
M  V30 12852 N 1241.6 -0.0451101 1.57535 0
M  V30 12853 C 1242.88 -0.773625 1.79651 0
M  V30 12854 C 1243.26 -1.94422 0.822391 0
M  V30 12855 O 1242.61 -2.28077 -0.138913 0
M  V30 12856 C 1242.82 -1.22168 3.26919 0
M  V30 12857 C 1244.17 -1.64419 3.91474 0
M  V30 12858 O 1245.19 -1.31668 3.30971 0
M  V30 12859 O 1244.05 -2.25148 4.97967 0
M  V30 12860 H 1241.14 -0.372786 0.738214 0
M  V30 12861 H 1243.69 -0.0231245 1.69684 0
M  V30 12862 H 1242.46 -0.385302 3.89398 0
M  V30 12863 H 1242.09 -2.03269 3.41713 0
M  V30 12864 N 1243.08 -1.54377 -0.317073 0
M  V30 12865 C 1244.33 -1.72551 -1.05216 0
M  V30 12866 C 1244.65 -0.5055 -1.88334 0
M  V30 12867 O 1243.92 0.480439 -1.89917 0
M  V30 12868 H 1242.5 -0.636222 -0.391447 0
M  V30 12869 H 1245.16 -1.91696 -0.35194 0
M  V30 12870 H 1244.26 -2.60791 -1.71448 0
M  V30 12871 N 1244.56 0.579466 -1.4656 0
M  V30 12872 C 1245.79 1.36153 -1.55389 0
M  V30 12873 C 1246.2 1.88192 -0.195062 0
M  V30 12874 O 1245.54 1.64464 0.81836 0
M  V30 12875 C 1245.6 2.58269 -2.50075 0
M  V30 12876 C 1245.27 2.27675 -3.96249 0
M  V30 12877 C 1246.26 1.86313 -4.85369 0
M  V30 12878 C 1243.95 2.39719 -4.41407 0
M  V30 12879 C 1245.94 1.57395 -6.17661 0
M  V30 12880 C 1243.63 2.10414 -5.73733 0
M  V30 12881 C 1244.63 1.69317 -6.6168 0
M  V30 12882 O 1244.32 1.40373 -7.9155 0
M  V30 12883 H 1244.05 0.422174 -0.527963 0
M  V30 12884 H 1246.6 0.711089 -1.92698 0
M  V30 12885 H 1244.83 3.26129 -2.0779 0
M  V30 12886 H 1246.52 3.20339 -2.49275 0
M  V30 12887 H 1247.29 1.7652 -4.51736 0
M  V30 12888 H 1243.17 2.70669 -3.73175 0
M  V30 12889 H 1246.71 1.25244 -6.86265 0
M  V30 12890 H 1242.61 2.19833 -6.06913 0
M  V30 12891 H 1243.38 1.54191 -8.03845 0
M  V30 12892 N 1246.04 1.3432 0.824371 0
M  V30 12893 C 1247.45 1.1397 1.11727 0
M  V30 12894 C 1247.65 -0.0597597 2.01411 0
M  V30 12895 O 1246.71 -0.735717 2.41544 0
M  V30 12896 C 1248.02 2.43423 1.76538 0
M  V30 12897 C 1249.57 2.49466 1.89039 0
M  V30 12898 C 1250.05 3.78917 2.57266 0
M  V30 12899 N 1251.54 3.8007 2.64767 0
M  V30 12900 C 1252.27 4.76953 3.18282 0
M  V30 12901 N 1251.77 5.84217 3.72373 0
M  V30 12902 N 1253.56 4.6441 3.1667 0
M  V30 12903 H 1245.71 2.11175 0.227802 0
M  V30 12904 H 1247.98 0.933774 0.163615 0
M  V30 12905 H 1247.68 3.31278 1.18102 0
M  V30 12906 H 1247.56 2.56655 2.7642 0
M  V30 12907 H 1249.94 1.62052 2.46623 0
M  V30 12908 H 1250.02 2.40163 0.880635 0
M  V30 12909 H 1249.67 4.6672 2.00336 0
M  V30 12910 H 1249.6 3.85502 3.58742 0
M  V30 12911 H 1252.09 3.02556 2.26425 0
M  V30 12912 H 1252.4 6.54159 4.11455 0
M  V30 12913 H 1250.75 5.87933 3.70621 0
M  V30 12914 H 1253.94 3.7976 2.73678 0
M  V30 12915 H 1254.11 5.40081 3.58073 0
M  V30 12916 N 1247.52 -1.0444 1.18026 0
M  V30 12917 C 1248.45 -2.14297 0.927314 0
M  V30 12918 C 1249.43 -1.69575 -0.13357 0
M  V30 12919 O 1250.61 -1.94191 0.0182439 0
M  V30 12920 C 1247.74 -3.44397 0.448134 0
M  V30 12921 C 1246.7 -4.02723 1.44907 0
M  V30 12922 C 1246.02 -5.28257 0.827555 0
M  V30 12923 C 1247.32 -4.39331 2.82463 0
M  V30 12924 H 1249.02 -2.35715 1.84605 0
M  V30 12925 H 1246.56 -1.13281 0.889012 0
M  V30 12926 H 1248.52 -4.20606 0.258554 0
M  V30 12927 H 1247.24 -3.22654 -0.506159 0
M  V30 12928 H 1245.9 -3.28591 1.62552 0
M  V30 12929 H 1245.55 -5.02822 -0.13381 0
M  V30 12930 H 1245.25 -5.68242 1.49581 0
M  V30 12931 H 1246.77 -6.07147 0.64842 0
M  V30 12932 H 1248.18 -5.06543 2.68491 0
M  V30 12933 H 1246.58 -4.90355 3.45936 0
M  V30 12934 H 1247.65 -3.4933 3.36299 0
M  V30 12935 N 1248.99 -0.981699 -1.2329 0
M  V30 12936 C 1250.41 -0.688087 -1.73558 0
M  V30 12937 C 1250.76 0.795633 -1.79344 0
M  V30 12938 O 1249.88 1.62227 -1.43218 0
M  V30 12939 C 1250.48 -1.24235 -3.152 0
M  V30 12940 C 1249.04 -0.998356 -3.62918 0
M  V30 12941 C 1248.18 -1.3693 -2.41134 0
M  V30 12942 H 1251.13 -1.15539 -1.08795 0
M  V30 12943 H 1251.15 -0.61541 -3.7549 0
M  V30 12944 H 1250.67 -2.32223 -3.10957 0
M  V30 12945 H 1248.77 0.0653847 -3.72543 0
M  V30 12946 H 1248.88 -1.65385 -4.49649 0
M  V30 12947 H 1247.24 -0.787773 -2.42211 0
M  V30 12948 H 1248.03 -2.45898 -2.39561 0
M  V30 12949 N 1250.47 1.3842 -0.753509 0
M  V30 12950 C 1251.88 1.82847 -0.377331 0
M  V30 12951 C 1252.23 1.62867 1.09401 0
M  V30 12952 O 1251.36 1.12981 1.84565 0
M  V30 12953 C 1251.95 3.31945 -0.678095 0
M  V30 12954 C 1250.51 3.7472 -0.355196 0
M  V30 12955 C 1249.66 2.61193 -0.931311 0
M  V30 12956 H 1252.61 1.2715 -0.949667 0
M  V30 12957 H 1252.63 3.80475 0.0437292 0
M  V30 12958 H 1252.14 3.46455 -1.74902 0
M  V30 12959 H 1250.25 3.65789 0.70915 0
M  V30 12960 H 1250.36 4.71487 -0.850693 0
M  V30 12961 H 1248.72 2.5219 -0.356695 0
M  V30 12962 H 1249.51 2.78503 -2.00727 0
M  V30 12963 N 1251.95 0.502579 1.49372 0
M  V30 12964 C 1253.36 0.055187 1.86618 0
M  V30 12965 C 1253.71 -1.35938 1.41476 0
M  V30 12966 O 1252.84 -2.01333 0.793338 0
M  V30 12967 C 1253.43 0.0933734 3.38671 0
M  V30 12968 C 1251.99 -0.298685 3.75213 0
M  V30 12969 C 1251.14 0.465216 2.7337 0
M  V30 12970 H 1254.09 0.715281 1.41667 0
M  V30 12971 H 1254.11 -0.701549 3.73977 0
M  V30 12972 H 1253.62 1.12303 3.71497 0
M  V30 12973 H 1251.72 -1.33151 3.47996 0
M  V30 12974 H 1251.84 0.0218637 4.79095 0
M  V30 12975 H 1250.2 -0.0851469 2.54558 0
M  V30 12976 H 1250.98 1.49498 3.09039 0
M  V30 12977 N 1253.43 -1.55816 0.23648 0
M  V30 12978 C 1254.67 -1.98981 -0.391725 0
M  V30 12979 C 1255.01 -1.12428 -1.58346 0
M  V30 12980 O 1254.28 -0.185303 -1.93615 0
M  V30 12981 C 1254.57 -3.50831 -0.811759 0
M  V30 12982 C 1254.42 -4.48152 0.384648 0
M  V30 12983 C 1255.74 -4.07489 -1.66254 0
M  V30 12984 H 1252.86 -0.723404 -0.140911 0
M  V30 12985 H 1255.5 -1.87011 0.335706 0
M  V30 12986 H 1253.65 -3.61162 -1.43157 0
M  V30 12987 H 1255.32 -4.49814 1.02298 0
M  V30 12988 H 1253.56 -4.21406 1.02955 0
M  V30 12989 H 1254.23 -5.51979 0.0475809 0
M  V30 12990 H 1256.71 -4.00195 -1.13944 0
M  V30 12991 H 1255.59 -5.14026 -1.92531 0
M  V30 12992 H 1255.85 -3.55297 -2.6309 0
M  V30 12993 N 1254.91 0.036755 -1.57557 0
M  V30 12994 C 1256.18 0.764087 -1.80059 0
M  V30 12995 C 1256.56 1.93983 -0.83269 0
M  V30 12996 O 1255.91 2.28148 0.126815 0
M  V30 12997 C 1256.12 1.20433 -3.27562 0
M  V30 12998 C 1257.47 1.6234 -3.9234 0
M  V30 12999 O 1258.49 1.29911 -3.31665 0
M  V30 13000 O 1257.35 2.22504 -4.99154 0
M  V30 13001 H 1254.45 0.368866 -0.74018 0
M  V30 13002 H 1256.99 0.0141254 -1.69694 0
M  V30 13003 H 1255.76 0.364646 -3.89597 0
M  V30 13004 H 1255.39 2.01454 -3.42786 0
M  V30 13005 N 1256.39 1.54543 0.308881 0
M  V30 13006 C 1257.63 1.75182 1.05312 0
M  V30 13007 C 1257.99 0.522347 1.84758 0
M  V30 13008 O 1259.19 0.606334 2.61872 0
M  V30 13009 C 1257.46 3.0007 1.94147 0
M  V30 13010 S 1259.02 3.41676 2.75323 0
M  V30 13011 H 1255.84 0.615862 0.355296 0
M  V30 13012 H 1258.44 1.92739 0.327413 0
M  V30 13013 H 1257.14 3.87685 1.34643 0
M  V30 13014 H 1256.68 2.85078 2.71098 0
M  V30 13015 H 1258.69 2.98128 3.96654 0
M  V30 13016 N 1257.86 -0.571685 1.46866 0
M  V30 13017 C 1259.27 -1.15383 1.46778 0
M  V30 13018 C 1259.63 -1.95023 0.214576 0
M  V30 13019 O 1258.75 -2.05386 -0.681574 0
M  V30 13020 C 1259.35 -2.09915 2.65935 0
M  V30 13021 C 1257.9 -2.6343 2.68852 0
M  V30 13022 C 1257.05 -1.39517 2.39646 0
M  V30 13023 H 1260 -0.359036 1.54585 0
M  V30 13024 H 1260.02 -2.9356 2.42081 0
M  V30 13025 H 1259.54 -1.51923 3.57129 0
M  V30 13026 H 1257.64 -3.2526 1.8176 0
M  V30 13027 H 1257.75 -3.05412 3.69134 0
M  V30 13028 H 1256.11 -1.69702 1.8993 0
M  V30 13029 H 1256.9 -0.833399 3.33031 0
M  V30 13030 N 1259.34 -1.34755 -0.817236 0
M  V30 13031 C 1260.3 -1.26687 -1.91006 0
M  V30 13032 C 1261.3 -0.180745 -1.59781 0
M  V30 13033 O 1262.49 -0.433748 -1.68714 0
M  V30 13034 C 1259.63 -0.957293 -3.27183 0
M  V30 13035 H 1260.82 -2.23846 -1.99582 0
M  V30 13036 H 1258.37 -1.19125 -1.01187 0
M  V30 13037 H 1259.11 0.0108917 -3.24298 0
M  V30 13038 H 1258.89 -1.74297 -3.5123 0
M  V30 13039 H 1260.38 -0.926161 -4.072 0
M  V30 13040 N 1260.82 1.03812 -1.18578 0
M  V30 13041 C 1262.23 1.58509 -0.986496 0
M  V30 13042 C 1262.58 1.90655 0.463136 0
M  V30 13043 O 1261.71 1.69847 1.34093 0
M  V30 13044 C 1262.3 2.88 -1.78441 0
M  V30 13045 C 1260.86 3.39304 -1.6294 0
M  V30 13046 C 1260.01 2.12857 -1.77727 0
M  V30 13047 H 1262.96 0.864528 -1.33085 0
M  V30 13048 H 1262.98 3.58502 -1.27501 0
M  V30 13049 H 1262.49 2.64572 -2.83942 0
M  V30 13050 H 1260.59 3.6774 -0.599864 0
M  V30 13051 H 1260.71 4.12959 -2.42902 0
M  V30 13052 H 1259.07 2.24285 -1.20699 0
M  V30 13053 H 1259.85 1.91882 -2.84669 0
M  V30 13054 N 1262.3 0.988223 1.22768 0
M  V30 13055 C 1263.23 0.554478 2.26821 0
M  V30 13056 C 1264.21 -0.416293 1.64927 0
M  V30 13057 O 1265.39 -0.30795 1.91743 0
M  V30 13058 C 1262.52 -0.136266 3.47033 0
M  V30 13059 C 1261.48 0.752575 4.21332 0
M  V30 13060 C 1260.8 -0.0708236 5.34653 0
M  V30 13061 C 1262.1 2.04717 4.80508 0
M  V30 13062 H 1263.8 1.42423 2.63355 0
M  V30 13063 H 1261.34 0.686267 1.26595 0
M  V30 13064 H 1263.3 -0.451068 4.18979 0
M  V30 13065 H 1262.02 -1.04053 3.09581 0
M  V30 13066 H 1260.68 1.05095 3.51213 0
M  V30 13067 H 1260.33 -0.975859 4.93443 0
M  V30 13068 H 1260.03 0.520835 5.85287 0
M  V30 13069 H 1261.55 -0.379828 6.09417 0
M  V30 13070 H 1262.97 1.79663 5.44421 0
M  V30 13071 H 1261.36 2.58726 5.41462 0
M  V30 13072 H 1262.43 2.72896 4.00819 0
M  V30 13073 N 1263.78 -1.38018 0.760839 0
M  V30 13074 C 1265.01 -2.03934 0.330804 0
M  V30 13075 C 1265.41 -1.57509 -1.04821 0
M  V30 13076 O 1264.76 -0.746718 -1.67839 0
M  V30 13077 C 1264.82 -3.58384 0.28303 0
M  V30 13078 C 1264.48 -4.27896 1.6048 0
M  V30 13079 C 1265.48 -4.52769 2.5553 0
M  V30 13080 C 1263.16 -4.65943 1.87624 0
M  V30 13081 C 1265.16 -5.14732 3.75938 0
M  V30 13082 C 1262.85 -5.27629 3.08304 0
M  V30 13083 C 1263.84 -5.51959 4.02281 0
M  V30 13084 O 1263.53 -6.12358 5.20838 0
M  V30 13085 H 1263.26 -0.661733 0.138148 0
M  V30 13086 H 1265.82 -1.77551 1.03271 0
M  V30 13087 H 1264.05 -3.83769 -0.47517 0
M  V30 13088 H 1265.74 -4.05727 -0.118464 0
M  V30 13089 H 1266.5 -4.23798 2.35839 0
M  V30 13090 H 1262.38 -4.46346 1.15308 0
M  V30 13091 H 1265.93 -5.33639 4.49305 0
M  V30 13092 H 1261.82 -5.56023 3.27886 0
M  V30 13093 H 1262.59 -6.30842 5.21517 0
M  V30 13094 N 1265.25 -0.510493 -1.49103 0
M  V30 13095 C 1266.16 0.267176 -2.33074 0
M  V30 13096 C 1267.18 0.958117 -1.45245 0
M  V30 13097 O 1268.36 0.937399 -1.78255 0
M  V30 13098 C 1265.42 1.31212 -3.20911 0
M  V30 13099 C 1264.48 0.633613 -4.24598 0
M  V30 13100 C 1263.71 1.62878 -5.08239 0
M  V30 13101 O 1263.94 2.85958 -4.93543 0
M  V30 13102 O 1262.87 1.17887 -5.90242 0
M  V30 13103 H 1266.7 -0.420384 -3.00776 0
M  V30 13104 H 1264.28 -0.271683 -1.46909 0
M  V30 13105 H 1266.16 1.91647 -3.75299 0
M  V30 13106 H 1264.84 1.98244 -2.55892 0
M  V30 13107 H 1263.75 -0.0107246 -3.74098 0
M  V30 13108 H 1265.08 0.0055777 -4.922 0
M  V30 13109 N 1266.73 1.55688 -0.24474 0
M  V30 13110 C 1267.66 2.24272 0.64995 0
M  V30 13111 C 1268.64 1.22226 1.183 0
M  V30 13112 O 1269.83 1.50873 1.22274 0
M  V30 13113 C 1266.96 2.94053 1.84798 0
M  V30 13114 C 1265.91 4.02769 1.44779 0
M  V30 13115 C 1265.24 4.59965 2.72647 0
M  V30 13116 C 1266.54 5.18601 0.62047 0
M  V30 13117 H 1268.23 2.99298 0.0780654 0
M  V30 13118 H 1265.78 1.43955 0.0361069 0
M  V30 13119 H 1267.73 3.40732 2.47951 0
M  V30 13120 H 1266.45 2.16511 2.44521 0
M  V30 13121 H 1265.11 3.56856 0.839609 0
M  V30 13122 H 1264.76 3.79126 3.30564 0
M  V30 13123 H 1264.46 5.33352 2.46596 0
M  V30 13124 H 1265.99 5.09376 3.36703 0
M  V30 13125 H 1267.4 5.61519 1.15625 0
M  V30 13126 H 1265.8 5.98364 0.456097 0
M  V30 13127 H 1266.87 4.83503 -0.367798 0
M  V30 13128 N 1268.21 -0.0283989 1.57574 0
M  V30 13129 C 1269.14 -1.06191 2.01987 0
M  V30 13130 C 1270.12 -1.35131 0.90434 0
M  V30 13131 O 1271.3 -1.47777 1.17023 0
M  V30 13132 C 1268.43 -2.39646 2.39348 0
M  V30 13133 C 1267.48 -2.26558 3.6135 0
M  V30 13134 S 1268.31 -1.61839 5.10459 0
M  V30 13135 C 1269.47 -2.96783 5.51063 0
M  V30 13136 H 1269.7 -0.683625 2.89333 0
M  V30 13137 H 1267.23 -0.238394 1.52548 0
M  V30 13138 H 1269.19 -3.16394 2.61544 0
M  V30 13139 H 1267.85 -2.74622 1.52452 0
M  V30 13140 H 1267.04 -3.25079 3.85149 0
M  V30 13141 H 1266.65 -1.57954 3.39008 0
M  V30 13142 H 1268.94 -3.93111 5.51788 0
M  V30 13143 H 1269.88 -2.77716 6.51367 0
M  V30 13144 H 1270.29 -2.99386 4.78569 0
M  V30 13145 N 1269.69 -1.54705 -0.300681 0
M  V30 13146 C 1270.63 -1.85678 -1.37084 0
M  V30 13147 C 1271.6 -0.70573 -1.50362 0
M  V30 13148 O 1272.79 -0.954385 -1.65215 0
M  V30 13149 C 1269.93 -2.10995 -2.73084 0
M  V30 13150 C 1269.04 -3.38621 -2.68254 0
M  V30 13151 C 1268.18 -3.53779 -3.9625 0
M  V30 13152 C 1267.22 -4.75195 -3.85818 0
M  V30 13153 N 1266.35 -4.87157 -5.05591 0
M  V30 13154 H 1271.19 -2.76967 -1.09971 0
M  V30 13155 H 1268.73 -1.37147 -0.531887 0
M  V30 13156 H 1270.69 -2.23669 -3.52176 0
M  V30 13157 H 1269.32 -1.22973 -2.98458 0
M  V30 13158 H 1268.37 -3.34566 -1.81025 0
M  V30 13159 H 1269.68 -4.27834 -2.56436 0
M  V30 13160 H 1268.84 -3.66119 -4.83779 0
M  V30 13161 H 1267.58 -2.62699 -4.10902 0
M  V30 13162 H 1266.58 -4.62888 -2.96673 0
M  V30 13163 H 1267.81 -5.67683 -3.72711 0
M  V30 13164 H 1265.75 -3.99001 -5.20706 0
M  V30 13165 H 1265.67 -5.70372 -4.96197 0
M  V30 13166 H 1266.94 -5.03854 -5.9477 0
M  V30 13167 N 1271.17 0.563888 -1.47167 0
M  V30 13168 C 1272.11 1.69254 -1.59549 0
M  V30 13169 C 1273.11 1.62948 -0.463078 0
M  V30 13170 O 1274.31 1.68214 -0.640639 0
M  V30 13171 H 1270.69 0.559925 -0.501984 0
M  V30 13172 H 1272.66 1.55946 -2.54408 0
M  V30 13173 C 1271.41 3.0762 -1.62066 0
M  V30 13174 H 1270.73 3.13151 -2.48549 0
M  V30 13175 H 1272.17 3.863 -1.74781 0
M  V30 13176 C 1270.63 3.35048 -0.352721 0
M  V30 13177 O 1271.16 3.9793 0.549053 0
M  V30 13178 N 1269.37 2.8965 -0.234805 0
M  V30 13179 H 1268.91 2.38657 -0.969561 0
M  V30 13180 H 1268.87 3.08373 0.61263 0
M  V30 13181 N 1272.64 1.35187 0.810078 0
M  V30 13182 C 1273.88 1.29626 1.58039 0
M  V30 13183 C 1274.25 -0.12865 1.91569 0
M  V30 13184 O 1275.45 -0.308587 2.67023 0
M  V30 13185 C 1273.72 2.17414 2.83665 0
M  V30 13186 S 1275.28 2.29334 3.741 0
M  V30 13187 H 1272.1 0.460722 0.541531 0
M  V30 13188 H 1274.7 1.7054 0.955839 0
M  V30 13189 H 1273.4 3.19927 2.57051 0
M  V30 13190 H 1272.93 1.77444 3.51108 0
M  V30 13191 H 1274.95 1.47559 4.73752 0
M  V30 13192 N 1274.12 -1.03182 1.19127 0
M  V30 13193 C 1275.37 -1.76917 1.00359 0
M  V30 13194 C 1275.72 -1.86794 -0.461075 0
M  V30 13195 O 1275.02 -1.37151 -1.33791 0
M  V30 13196 C 1275.21 -3.19452 1.60267 0
M  V30 13197 C 1275.04 -3.2347 3.12406 0
M  V30 13198 C 1273.81 -3.31587 3.81285 0
M  V30 13199 C 1276.01 -3.10754 4.09801 0
M  V30 13200 N 1273.99 -3.24948 5.20848 0
M  V30 13201 C 1275.36 -3.11715 5.35942 0
M  V30 13202 C 1277.42 -2.9486 4.01201 0
M  V30 13203 C 1276.12 -2.98413 6.54479 0
M  V30 13204 C 1278.14 -2.82907 5.19344 0
M  V30 13205 C 1277.51 -2.8452 6.44382 0
M  V30 13206 H 1273.61 -0.658788 0.421334 0
M  V30 13207 H 1276.19 -1.22849 1.51051 0
M  V30 13208 H 1274.36 -3.71847 1.1218 0
M  V30 13209 H 1276.09 -3.81533 1.34963 0
M  V30 13210 H 1272.85 -3.37686 3.32062 0
M  V30 13211 H 1273.27 -3.25043 5.93865 0
M  V30 13212 H 1277.91 -2.92437 3.05353 0
M  V30 13213 H 1275.63 -2.99587 7.50515 0
M  V30 13214 H 1279.22 -2.71649 5.14488 0
M  V30 13215 H 1278.1 -2.75369 7.34263 0
M  V30 13216 N 1275.6 -0.99472 -1.22242 0
M  V30 13217 C 1276.56 -0.551619 -2.22463 0
M  V30 13218 C 1277.56 0.366498 -1.56568 0
M  V30 13219 O 1278.75 0.158204 -1.7348 0
M  V30 13220 C 1275.89 0.197416 -3.40328 0
M  V30 13221 H 1277.08 -1.43795 -2.63179 0
M  V30 13222 H 1274.63 -0.782121 -1.35324 0
M  V30 13223 H 1275.37 1.09965 -3.05087 0
M  V30 13224 H 1275.15 -0.461829 -3.89371 0
M  V30 13225 H 1276.64 0.495534 -4.1465 0
M  V30 13226 N 1277.08 1.37613 -0.768148 0
M  V30 13227 C 1278.31 2.03756 -0.341615 0
M  V30 13228 C 1278.72 1.58063 1.03984 0
M  V30 13229 O 1278.06 0.755609 1.6744 0
M  V30 13230 C 1278.12 3.58229 -0.302032 0
M  V30 13231 C 1277.79 4.27039 -1.62747 0
M  V30 13232 C 1278.78 4.51408 -2.57928 0
M  V30 13233 C 1276.47 4.64941 -1.90092 0
M  V30 13234 C 1278.46 5.12731 -3.78663 0
M  V30 13235 C 1276.15 5.25986 -3.11098 0
M  V30 13236 C 1277.15 5.49818 -4.05203 0
M  V30 13237 O 1276.83 6.09588 -5.24078 0
M  V30 13238 H 1276.57 0.660992 -0.141655 0
M  V30 13239 H 1279.12 1.77001 -1.04211 0
M  V30 13240 H 1277.35 3.84016 0.454811 0
M  V30 13241 H 1279.04 4.05784 0.0969452 0
M  V30 13242 H 1279.81 4.22542 -2.38083 0
M  V30 13243 H 1275.68 4.45729 -1.17674 0
M  V30 13244 H 1279.23 5.31249 -4.52129 0
M  V30 13245 H 1275.13 5.54276 -3.3083 0
M  V30 13246 H 1275.89 6.28068 -5.24855 0
M  V30 13247 N 1278.56 0.518393 1.4883 0
M  V30 13248 C 1279.83 -0.0837498 1.95421 0
M  V30 13249 C 1280.21 -1.52435 1.46037 0
M  V30 13250 O 1279.56 -2.18093 0.681736 0
M  V30 13251 C 1279.77 0.0215333 3.48993 0
M  V30 13252 C 1281.12 -0.143615 4.24357 0
M  V30 13253 O 1282.14 -0.0528223 3.56161 0
M  V30 13254 O 1281 -0.332231 5.45489 0
M  V30 13255 H 1278.1 -0.0857132 0.822546 0
M  V30 13256 H 1280.64 0.582169 1.59402 0
M  V30 13257 H 1279.41 1.02549 3.77623 0
M  V30 13258 H 1279.04 -0.683756 3.91677 0
M  V30 13259 N 1280.03 -1.55556 0.252993 0
M  V30 13260 C 1281.45 -1.59276 -0.101714 0
M  V30 13261 C 1281.65 -1.27018 -1.56424 0
M  V30 13262 O 1280.71 -1.02042 -2.30963 0
M  V30 13263 C 1282.02 -2.99634 0.252969 0
M  V30 13264 C 1283.57 -3.12375 0.197767 0
M  V30 13265 C 1284.04 -4.54963 0.52657 0
M  V30 13266 N 1285.53 -4.60734 0.477296 0
M  V30 13267 C 1286.27 -5.69052 0.704793 0
M  V30 13268 N 1285.76 -6.85607 0.99574 0
M  V30 13269 N 1287.56 -5.58501 0.635086 0
M  V30 13270 H 1279.71 -1.74793 1.2067 0
M  V30 13271 H 1281.97 -0.813971 0.485958 0
M  V30 13272 H 1281.68 -3.27998 1.26926 0
M  V30 13273 H 1281.55 -3.74888 -0.416984 0
M  V30 13274 H 1283.94 -2.83788 -0.809209 0
M  V30 13275 H 1284.02 -2.39382 0.901659 0
M  V30 13276 H 1283.66 -4.84271 1.53113 0
M  V30 13277 H 1283.59 -5.26224 -0.198869 0
M  V30 13278 H 1286.08 -3.76995 0.261398 0
M  V30 13279 H 1286.4 -7.64096 1.15659 0
M  V30 13280 H 1284.74 -6.87276 1.03328 0
M  V30 13281 H 1287.93 -4.6632 0.407789 0
M  V30 13282 H 1288.11 -6.42845 0.815777 0
M  V30 13283 N 1281.51 0.0200419 -1.57587 0
M  V30 13284 C 1282.48 1.00255 -2.06111 0
M  V30 13285 C 1283.48 1.28488 -0.966829 0
M  V30 13286 O 1284.67 1.2334 -1.23015 0
M  V30 13287 C 1281.8 2.33296 -2.48567 0
M  V30 13288 H 1282.99 0.583216 -2.94174 0
M  V30 13289 H 1280.54 0.267077 -1.54001 0
M  V30 13290 H 1281.28 2.79959 -1.63687 0
M  V30 13291 H 1281.06 2.14131 -3.28467 0
M  V30 13292 H 1282.55 3.03817 -2.86505 0
M  V30 13293 N 1282.99 1.54862 0.292472 0
M  V30 13294 C 1284.41 1.46267 0.638611 0
M  V30 13295 C 1284.61 0.660824 1.90356 0
M  V30 13296 O 1283.66 0.171909 2.51914 0
M  V30 13297 C 1284.98 2.90309 0.783675 0
M  V30 13298 C 1286.52 3.00404 0.879004 0
M  V30 13299 C 1287 4.4566 1.056 0
M  V30 13300 N 1288.49 4.49406 1.122 0
M  V30 13301 C 1289.22 5.5899 1.2774 0
M  V30 13302 N 1288.72 6.78482 1.40123 0
M  V30 13303 N 1290.51 5.46695 1.30696 0
M  V30 13304 H 1282.66 2.0546 -0.538521 0
M  V30 13305 H 1284.93 0.930879 -0.179354 0
M  V30 13306 H 1284.63 3.5162 -0.0750437 0
M  V30 13307 H 1284.51 3.38215 1.67004 0
M  V30 13308 H 1286.89 2.39201 1.7282 0
M  V30 13309 H 1286.98 2.55781 -0.0315624 0
M  V30 13310 H 1286.62 5.07459 0.211535 0
M  V30 13311 H 1286.55 4.87921 1.98092 0
M  V30 13312 H 1289.04 3.63322 1.03948 0
M  V30 13313 H 1289.35 7.57752 1.5176 0
M  V30 13314 H 1287.7 6.81331 1.37163 0
M  V30 13315 H 1290.89 4.52288 1.20638 0
M  V30 13316 H 1291.06 6.32146 1.42463 0
M  V30 13317 N 1284.47 -0.556076 1.47464 0
M  V30 13318 C 1285.88 -0.882115 1.33007 0
M  V30 13319 C 1286.08 -1.9892 0.321407 0
M  V30 13320 O 1285.14 -2.51088 -0.266668 0
M  V30 13321 C 1286.45 -1.27428 2.72365 0
M  V30 13322 C 1288 -1.38564 2.80658 0
M  V30 13323 C 1288.48 -1.81136 4.20659 0
M  V30 13324 N 1289.97 -1.88284 4.23206 0
M  V30 13325 C 1290.7 -2.22555 5.28447 0
M  V30 13326 N 1290.2 -2.55432 6.43993 0
M  V30 13327 N 1291.99 -2.23339 5.15826 0
M  V30 13328 H 1284.14 0.17481 2.11679 0
M  V30 13329 H 1286.41 0.0155421 0.947873 0
M  V30 13330 H 1286.11 -0.53463 3.47613 0
M  V30 13331 H 1285.99 -2.23019 3.04208 0
M  V30 13332 H 1288.37 -2.1161 2.05682 0
M  V30 13333 H 1288.45 -0.411588 2.52467 0
M  V30 13334 H 1288.1 -1.08659 4.96141 0
M  V30 13335 H 1288.03 -2.79546 4.46275 0
M  V30 13336 H 1290.52 -1.65259 3.3985 0
M  V30 13337 H 1290.83 -2.80612 7.20053 0
M  V30 13338 H 1289.18 -2.5301 6.47311 0
M  V30 13339 H 1292.37 -1.97094 4.24584 0
M  V30 13340 H 1292.54 -2.49717 5.97951 0
M  V30 13341 N 1285.95 -1.35615 -0.802897 0
M  V30 13342 C 1287.36 -1.26062 -1.37715 0
M  V30 13343 C 1287.71 0.105411 -1.95917 0
M  V30 13344 O 1286.83 1.00648 -1.91569 0
M  V30 13345 C 1287.43 -2.28261 -2.50365 0
M  V30 13346 C 1285.99 -2.22437 -3.03642 0
M  V30 13347 C 1285.14 -2.1377 -1.76629 0
M  V30 13348 H 1288.09 -1.46689 -0.605631 0
M  V30 13349 H 1288.11 -1.91122 -3.29017 0
M  V30 13350 H 1287.62 -3.27671 -2.07975 0
M  V30 13351 H 1285.72 -1.2645 -3.50487 0
M  V30 13352 H 1285.83 -3.14558 -3.61373 0
M  V30 13353 H 1284.2 -1.59806 -1.98328 0
M  V30 13354 H 1284.98 -3.15046 -1.36385 0
M  V30 13355 N 1287.43 1.02549 -1.19673 0
M  V30 13356 C 1288.38 2.09257 -0.905282 0
M  V30 13357 C 1289.36 1.60363 0.131302 0
M  V30 13358 O 1290.55 1.76842 -0.0748563 0
M  V30 13359 C 1287.68 3.40345 -0.449474 0
M  V30 13360 C 1286.77 3.95964 -1.51899 0
M  V30 13361 N 1287.16 4.25203 -2.73926 0
M  V30 13362 C 1285.46 4.24013 -1.38307 0
M  V30 13363 C 1286.16 4.69925 -3.42849 0
M  V30 13364 N 1285.13 4.71664 -2.70248 0
M  V30 13365 H 1288.93 2.29761 -1.83268 0
M  V30 13366 H 1286.45 1.2044 -1.0894 0
M  V30 13367 H 1288.45 4.16308 -0.222121 0
M  V30 13368 H 1287.11 3.2126 0.471402 0
M  V30 13369 H 1288.12 4.14381 -3.10658 0
M  V30 13370 H 1284.79 4.14174 -0.52592 0
M  V30 13371 H 1286.18 5.01442 -4.4722 0
M  V30 13372 N 1288.9 1.00119 1.21713 0
M  V30 13373 C 1290.15 0.681723 1.9068 0
M  V30 13374 C 1290.48 -0.787121 1.77861 0
M  V30 13375 O 1289.73 -1.58573 1.14687 0
M  V30 13376 C 1290.03 1.04376 3.41819 0
M  V30 13377 C 1289.7 2.50624 3.74831 0
M  V30 13378 C 1288.36 2.90587 3.83552 0
M  V30 13379 C 1290.71 3.45377 3.90339 0
M  V30 13380 C 1288.04 4.24276 4.05225 0
M  V30 13381 C 1290.39 4.78734 4.13517 0
M  V30 13382 C 1289.06 5.18427 4.20464 0
M  V30 13383 H 1288.33 0.24946 0.697747 0
M  V30 13384 H 1290.97 1.25892 1.44304 0
M  V30 13385 H 1289.28 0.384756 3.89906 0
M  V30 13386 H 1290.98 0.774488 3.9345 0
M  V30 13387 H 1287.57 2.18651 3.68632 0
M  V30 13388 H 1291.75 3.15669 3.82971 0
M  V30 13389 H 1287.01 4.54605 4.08833 0
M  V30 13390 H 1291.18 5.52094 4.24459 0
M  V30 13391 H 1288.81 6.22034 4.3701 0
M  V30 13392 N 1290.38 -1.37203 0.775435 0
M  V30 13393 C 1291.31 -2.28873 0.122374 0
M  V30 13394 C 1292.33 -1.48811 -0.660239 0
M  V30 13395 O 1293.52 -1.7142 -0.497724 0
M  V30 13396 C 1290.62 -3.28062 -0.850212 0
M  V30 13397 C 1289.79 -4.37234 -0.120633 0
M  V30 13398 C 1288.85 -5.16472 -1.00712 0
M  V30 13399 O 1287.87 -5.6726 -0.469528 0
M  V30 13400 N 1289.08 -5.31556 -2.33299 0
M  V30 13401 H 1291.84 -2.85559 0.909741 0
M  V30 13402 H 1289.4 -1.49219 0.628107 0
M  V30 13403 H 1291.39 -3.77956 -1.44678 0
M  V30 13404 H 1289.96 -2.72118 -1.53853 0
M  V30 13405 H 1289.18 -3.88688 0.656879 0
M  V30 13406 H 1290.47 -5.07354 0.383358 0
M  V30 13407 H 1289.87 -4.91883 -2.79406 0
M  V30 13408 H 1288.43 -5.84745 -2.87953 0
M  V30 13409 N 1291.86 -0.526279 -1.48553 0
M  V30 13410 C 1292.81 0.238513 -2.29564 0
M  V30 13411 C 1293.78 0.937222 -1.37133 0
M  V30 13412 O 1294.96 0.93897 -1.66096 0
M  V30 13413 C 1292.1 1.28173 -3.20415 0
M  V30 13414 C 1291.21 0.592244 -4.27921 0
M  V30 13415 C 1290.35 1.61808 -5.05956 0
M  V30 13416 C 1289.39 0.911846 -6.0527 0
M  V30 13417 N 1288.53 1.88305 -6.76377 0
M  V30 13418 H 1293.37 -0.458502 -2.94452 0
M  V30 13419 H 1290.9 -0.237948 -1.45163 0
M  V30 13420 H 1292.86 1.89883 -3.71484 0
M  V30 13421 H 1291.49 1.94718 -2.57458 0
M  V30 13422 H 1290.54 -0.138714 -3.80147 0
M  V30 13423 H 1291.85 0.0375427 -4.98786 0
M  V30 13424 H 1291.01 2.30956 -5.61021 0
M  V30 13425 H 1289.75 2.20667 -4.34922 0
M  V30 13426 H 1288.75 0.206273 -5.49413 0
M  V30 13427 H 1289.98 0.329415 -6.78301 0
M  V30 13428 H 1287.92 2.46079 -6.08096 0
M  V30 13429 H 1287.84 1.37969 -7.43304 0
M  V30 13430 H 1289.11 2.56663 -7.36033 0
M  V30 13431 N 1293.34 1.5542 -0.261239 0
M  V30 13432 C 1294.27 2.24949 0.626126 0
M  V30 13433 C 1295.25 1.23474 1.16997 0
M  V30 13434 O 1296.43 1.52161 1.20667 0
M  V30 13435 C 1293.56 2.95996 1.81669 0
M  V30 13436 C 1292.52 4.04282 1.40499 0
M  V30 13437 C 1291.84 4.62831 2.67753 0
M  V30 13438 C 1293.14 5.1923 0.56543 0
M  V30 13439 H 1294.84 2.99364 0.0463164 0
M  V30 13440 H 1292.38 1.43985 0.0208366 0
M  V30 13441 H 1294.34 3.43343 2.44323 0
M  V30 13442 H 1293.06 2.19093 2.42211 0
M  V30 13443 H 1291.72 3.57726 0.801712 0
M  V30 13444 H 1291.37 3.82611 3.26524 0
M  V30 13445 H 1291.07 5.35938 2.40925 0
M  V30 13446 H 1292.59 5.12918 3.31281 0
M  V30 13447 H 1294.01 5.62714 1.09663 0
M  V30 13448 H 1292.4 5.98814 0.392607 0
M  V30 13449 H 1293.47 4.83086 -0.419059 0
M  V30 13450 N 1294.82 -0.0116844 1.57596 0
M  V30 13451 C 1295.75 -1.03477 2.04512 0
M  V30 13452 C 1296.76 -1.31414 0.960945 0
M  V30 13453 O 1297.95 -1.28596 1.23796 0
M  V30 13454 C 1295.05 -2.37234 2.42019 0
M  V30 13455 C 1294.22 -2.28405 3.73028 0
M  V30 13456 C 1293.28 -3.44753 3.97532 0
M  V30 13457 O 1292.31 -3.23465 4.68358 0
M  V30 13458 N 1293.51 -4.67212 3.44518 0
M  V30 13459 H 1296.27 -0.634758 2.92901 0
M  V30 13460 H 1293.84 -0.1993 1.60669 0
M  V30 13461 H 1295.83 -3.13821 2.55535 0
M  V30 13462 H 1294.4 -2.69018 1.5921 0
M  V30 13463 H 1293.62 -1.36804 3.697 0
M  V30 13464 H 1294.91 -2.19666 4.58938 0
M  V30 13465 H 1294.3 -4.87407 2.87142 0
M  V30 13466 H 1292.86 -5.41105 3.63384 0
M  V30 13467 N 1296.29 -1.55015 -0.284256 0
M  V30 13468 C 1297.26 -1.8636 -1.33426 0
M  V30 13469 C 1298.26 -0.737457 -1.42892 0
M  V30 13470 O 1299.45 -1.00569 -1.42238 0
M  V30 13471 C 1296.58 -2.05884 -2.71707 0
M  V30 13472 H 1297.77 -2.80212 -1.06869 0
M  V30 13473 H 1295.32 -1.47334 -0.521767 0
M  V30 13474 H 1296.06 -1.14376 -3.03461 0
M  V30 13475 H 1295.84 -2.87867 -2.66224 0
M  V30 13476 H 1297.33 -2.31447 -3.47595 0
M  V30 13477 N 1297.77 0.548248 -1.47757 0
M  V30 13478 C 1298.72 1.65028 -1.57321 0
M  V30 13479 C 1299.71 1.55006 -0.431489 0
M  V30 13480 O 1300.9 1.63337 -0.681919 0
M  V30 13481 C 1298.03 3.0379 -1.59896 0
M  V30 13482 C 1297.11 3.18982 -2.79484 0
M  V30 13483 N 1297.5 3.04208 -4.04093 0
M  V30 13484 C 1295.8 3.50001 -2.76433 0
M  V30 13485 C 1296.5 3.2233 -4.8423 0
M  V30 13486 N 1295.48 3.49073 -4.16712 0
M  V30 13487 H 1299.28 1.52187 -2.51428 0
M  V30 13488 H 1296.79 0.753242 -1.43875 0
M  V30 13489 H 1298.79 3.82928 -1.64839 0
M  V30 13490 H 1297.45 3.17735 -0.668912 0
M  V30 13491 H 1298.46 2.81348 -4.34814 0
M  V30 13492 H 1295.14 3.70418 -1.92606 0
M  V30 13493 H 1296.53 3.15799 -5.9306 0
M  V30 13494 N 1299.25 1.36039 0.795694 0
M  V30 13495 C 1300.18 1.32528 1.92246 0
M  V30 13496 C 1301.16 0.197805 1.68946 0
M  V30 13497 O 1302.35 0.394474 1.90151 0
M  V30 13498 C 1299.48 1.10748 3.29169 0
M  V30 13499 C 1298.43 2.20253 3.66978 0
M  V30 13500 C 1297.76 1.83624 5.02181 0
M  V30 13501 C 1299.06 3.62296 3.76216 0
M  V30 13502 H 1300.75 2.2681 1.95442 0
M  V30 13503 H 1298.3 1.09181 0.938908 0
M  V30 13504 H 1300.25 1.06929 4.07608 0
M  V30 13505 H 1298.97 0.129141 3.26345 0
M  V30 13506 H 1297.63 2.23187 2.90832 0
M  V30 13507 H 1297.28 0.843804 4.95872 0
M  V30 13508 H 1296.98 2.56935 5.28449 0
M  V30 13509 H 1298.5 1.81349 5.83048 0
M  V30 13510 H 1299.92 3.61623 4.44861 0
M  V30 13511 H 1298.31 4.34459 4.13963 0
M  V30 13512 H 1299.38 3.97657 2.77483 0
M  V30 13513 N 1300.73 -1.01913 1.20215 0
M  V30 13514 C 1301.64 -2.13864 0.964328 0
M  V30 13515 C 1302.65 -1.73821 -0.0789556 0
M  V30 13516 O 1303.83 -2.01111 0.107914 0
M  V30 13517 C 1300.9 -3.42827 0.516757 0
M  V30 13518 C 1299.96 -3.97127 1.63059 0
M  V30 13519 C 1299.19 -5.19935 1.20428 0
M  V30 13520 O 1299.41 -5.70355 0.0719119 0
M  V30 13521 O 1298.35 -5.67322 2.01071 0
M  V30 13522 H 1302.17 -2.36795 1.90162 0
M  V30 13523 H 1299.76 -1.1226 0.985803 0
M  V30 13524 H 1301.64 -4.20493 0.276272 0
M  V30 13525 H 1300.31 -3.21318 -0.391983 0
M  V30 13526 H 1299.22 -3.20752 1.92533 0
M  V30 13527 H 1300.55 -4.2302 2.51624 0
M  V30 13528 N 1302.21 -1.00763 -1.2118 0
M  V30 13529 C 1303.14 -0.528468 -2.23024 0
M  V30 13530 C 1304.15 0.384348 -1.58198 0
M  V30 13531 O 1305.34 0.184127 -1.77548 0
M  V30 13532 C 1302.44 0.251693 -3.37964 0
M  V30 13533 C 1301.61 -0.660838 -4.32379 0
M  V30 13534 C 1300.67 0.0701723 -5.26153 0
M  V30 13535 O 1299.7 -0.549355 -5.66543 0
M  V30 13536 N 1300.9 1.34791 -5.64634 0
M  V30 13537 H 1303.67 -1.40428 -2.64764 0
M  V30 13538 H 1301.23 -0.884085 -1.3563 0
M  V30 13539 H 1303.22 0.749746 -3.97694 0
M  V30 13540 H 1301.79 1.02872 -2.95188 0
M  V30 13541 H 1301.01 -1.33934 -3.7075 0
M  V30 13542 H 1302.3 -1.28177 -4.9239 0
M  V30 13543 H 1301.69 1.87232 -5.33817 0
M  V30 13544 H 1300.25 1.79086 -6.26715 0
M  V30 13545 N 1303.68 1.3679 -0.7827 0
M  V30 13546 C 1304.61 2.32721 -0.190604 0
M  V30 13547 C 1305.6 1.56321 0.670663 0
M  V30 13548 O 1306.78 1.84507 0.605871 0
M  V30 13549 C 1303.91 3.40564 0.680717 0
M  V30 13550 C 1302.86 4.27925 -0.080118 0
M  V30 13551 C 1302.19 5.26876 0.911361 0
M  V30 13552 C 1303.49 5.06738 -1.26545 0
M  V30 13553 H 1305.18 2.82488 -0.992023 0
M  V30 13554 H 1302.73 1.35818 -0.478484 0
M  V30 13555 H 1304.68 4.06659 1.10482 0
M  V30 13556 H 1303.41 2.89348 1.51477 0
M  V30 13557 H 1302.07 3.63376 -0.485125 0
M  V30 13558 H 1301.71 4.71936 1.74026 0
M  V30 13559 H 1301.41 5.8619 0.406762 0
M  V30 13560 H 1302.94 5.95846 1.33418 0
M  V30 13561 H 1304.35 5.65911 -0.917448 0
M  V30 13562 H 1302.75 5.75432 -1.70289 0
M  V30 13563 H 1303.82 4.38772 -2.06415 0
M  V30 13564 N 1305.16 0.53415 1.48272 0
M  V30 13565 C 1306.09 -0.215037 2.32508 0
M  V30 13566 C 1307.07 -0.931083 1.42355 0
M  V30 13567 O 1308.26 -0.916051 1.71237 0
M  V30 13568 C 1305.39 -1.25985 3.23643 0
M  V30 13569 C 1304.34 -0.661692 4.22854 0
M  V30 13570 C 1303.67 -1.80946 5.03153 0
M  V30 13571 C 1304.97 0.369358 5.20992 0
M  V30 13572 H 1306.66 0.488158 2.95394 0
M  V30 13573 H 1304.21 0.236206 1.4205 0
M  V30 13574 H 1306.16 -1.79195 3.81402 0
M  V30 13575 H 1304.89 -1.99268 2.58766 0
M  V30 13576 H 1303.54 -0.151082 3.66289 0
M  V30 13577 H 1303.19 -2.53077 4.34696 0
M  V30 13578 H 1302.89 -1.41513 5.70305 0
M  V30 13579 H 1304.42 -2.34526 5.63764 0
M  V30 13580 H 1305.83 -0.0758076 5.7325 0
M  V30 13581 H 1304.23 0.681301 5.9622 0
M  V30 13582 H 1305.3 1.27363 4.67875 0
M  V30 13583 N 1306.64 -1.55279 0.269478 0
M  V30 13584 C 1307.6 -2.21008 -0.607299 0
M  V30 13585 C 1308.6 -1.18619 -1.08564 0
M  V30 13586 O 1309.79 -1.4356 -0.986721 0
M  V30 13587 C 1306.93 -2.87157 -1.83721 0
M  V30 13588 H 1308.12 -2.99881 -0.0334894 0
M  V30 13589 H 1305.67 -1.56287 0.0200573 0
M  V30 13590 H 1306.41 -2.12281 -2.45168 0
M  V30 13591 H 1306.19 -3.62183 -1.5022 0
M  V30 13592 H 1307.68 -3.37391 -2.46083 0
M  V30 13593 N 1308.12 0.00332656 -1.576 0
M  V30 13594 C 1309.07 1.01406 -2.09331 0
M  V30 13595 C 1310.06 1.35806 -1.01258 0
M  V30 13596 O 1311.27 1.34409 -1.19726 0
M  V30 13597 H 1307.64 0.344661 -0.668366 0
M  V30 13598 H 1309.61 0.552154 -2.93247 0
M  V30 13599 C 1308.36 2.29819 -2.60918 0
M  V30 13600 H 1307.68 2.04216 -3.43709 0
M  V30 13601 H 1309.12 2.98826 -3.00797 0
M  V30 13602 C 1307.58 3.0057 -1.52182 0
M  V30 13603 O 1308.11 3.91423 -0.902817 0
M  V30 13604 N 1306.32 2.62338 -1.25009 0
M  V30 13605 H 1305.87 1.88538 -1.75531 0
M  V30 13606 H 1305.82 3.0999 -0.524736 0
M  V30 13607 N 1309.6 1.55164 0.276031 0
M  V30 13608 C 1311.01 1.66367 0.847293 0
M  V30 13609 C 1311.36 0.588692 1.8716 0
M  V30 13610 O 1310.48 -0.27035 2.14705 0
M  V30 13611 C 1311.08 3.01593 1.5436 0
M  V30 13612 C 1309.64 3.14833 2.06293 0
M  V30 13613 C 1308.78 2.62152 0.903959 0
M  V30 13614 H 1311.74 1.58613 0.0524478 0
M  V30 13615 H 1311.76 2.94412 2.41043 0
M  V30 13616 H 1311.27 3.7981 0.797849 0
M  V30 13617 H 1309.37 2.41384 2.83839 0
M  V30 13618 H 1309.48 4.21353 2.28032 0
M  V30 13619 H 1307.85 2.19233 1.29649 0
M  V30 13620 H 1308.63 3.4287 0.171765 0
M  V30 13621 N 1311.07 -0.540404 1.48045 0
M  V30 13622 C 1312.02 -1.64191 1.58194 0
M  V30 13623 C 1313.01 -1.54775 0.439703 0
M  V30 13624 O 1314.2 -1.62973 0.690572 0
M  V30 13625 C 1311.33 -3.02937 1.61505 0
M  V30 13626 C 1310.42 -3.17495 2.81172 0
M  V30 13627 N 1310.81 -3.02061 4.05701 0
M  V30 13628 C 1309.1 -3.4853 2.78286 0
M  V30 13629 C 1309.81 -3.19757 4.85932 0
M  V30 13630 N 1308.78 -3.46859 4.18557 0
M  V30 13631 H 1312.58 -1.50852 2.52232 0
M  V30 13632 H 1310.1 -0.745602 1.44272 0
M  V30 13633 H 1312.09 -3.82048 1.66868 0
M  V30 13634 H 1310.75 -3.17376 0.685753 0
M  V30 13635 H 1311.77 -2.79038 4.363 0
M  V30 13636 H 1308.44 -3.69391 1.94567 0
M  V30 13637 H 1309.83 -3.1265 5.94727 0
M  V30 13638 N 1312.55 -1.36459 -0.788468 0
M  V30 13639 C 1313.78 -1.34063 -1.58246 0
M  V30 13640 C 1314.2 0.0754933 -1.87948 0
M  V30 13641 O 1313.56 1.04772 -1.47961 0
M  V30 13642 C 1313.61 -2.17038 -2.8797 0
M  V30 13643 O 1312.71 -1.56353 -3.81612 0
M  V30 13644 H 1312.05 -0.458816 -0.479983 0
M  V30 13645 H 1314.58 -1.79755 -0.977207 0
M  V30 13646 H 1314.59 -2.29651 -3.3723 0
M  V30 13647 H 1313.27 -3.19981 -2.65678 0
M  V30 13648 H 1311.85 -1.52685 -3.40208 0
M  V30 13649 N 1314.03 1.01274 -1.20754 0
M  V30 13650 C 1314.96 2.11763 -0.983805 0
M  V30 13651 C 1315.94 1.69869 0.0885635 0
M  V30 13652 O 1317.13 1.94075 -0.0697239 0
M  V30 13653 C 1314.26 3.43087 -0.539287 0
M  V30 13654 C 1313.21 3.9874 -1.55534 0
M  V30 13655 C 1312.54 5.25877 -0.967322 0
M  V30 13656 C 1313.84 4.31688 -2.94012 0
M  V30 13657 H 1315.53 2.30737 -1.90789 0
M  V30 13658 H 1313.08 1.10884 -0.918734 0
M  V30 13659 H 1315.03 4.19773 -0.369979 0
M  V30 13660 H 1313.75 3.23883 0.420435 0
M  V30 13661 H 1312.41 3.24166 -1.71207 0
M  V30 13662 H 1312.06 5.03 0.000448307 0
M  V30 13663 H 1311.76 5.64077 -1.64594 0
M  V30 13664 H 1313.28 6.05215 -0.809167 0
M  V30 13665 H 1314.7 4.99246 -2.81827 0
M  V30 13666 H 1313.1 4.81011 -3.58815 0
M  V30 13667 H 1314.17 3.4029 -3.45442 0
M  V30 13668 N 1315.51 1.01404 1.20644 0
M  V30 13669 C 1316.93 0.728446 1.42006 0
M  V30 13670 C 1317.13 -0.692894 1.89212 0
M  V30 13671 O 1316.18 -1.46101 2.05939 0
M  V30 13672 C 1317.49 1.75198 2.44389 0
M  V30 13673 C 1319.04 1.76983 2.58159 0
M  V30 13674 C 1319.52 2.78256 3.63782 0
M  V30 13675 N 1321.01 2.7698 3.71263 0
M  V30 13676 C 1321.74 3.51999 4.52641 0
M  V30 13677 N 1321.24 4.36687 5.37844 0
M  V30 13678 N 1323.03 3.40608 4.47149 0
M  V30 13679 H 1315.18 1.93168 0.883172 0
M  V30 13680 H 1317.45 0.834287 0.450187 0
M  V30 13681 H 1317.15 2.77013 2.16695 0
M  V30 13682 H 1317.03 1.56203 3.43337 0
M  V30 13683 H 1319.41 0.758551 2.85184 0
M  V30 13684 H 1319.49 2.00051 1.59415 0
M  V30 13685 H 1319.14 3.79546 3.37501 0
M  V30 13686 H 1319.07 2.5245 4.62143 0
M  V30 13687 H 1321.56 2.15546 3.104 0
M  V30 13688 H 1321.87 4.90703 5.97018 0
M  V30 13689 H 1320.22 4.40766 5.37355 0
M  V30 13690 H 1323.41 2.73872 3.79621 0
M  V30 13691 H 1323.58 3.99327 5.10335 0
M  V30 13692 N 1316.99 -1.36373 0.789944 0
M  V30 13693 C 1318.22 -2.03482 0.37453 0
M  V30 13694 C 1318.63 -1.59562 -1.00923 0
M  V30 13695 O 1317.99 -0.785289 -1.64741 0
M  V30 13696 C 1318.04 -3.58942 0.429255 0
M  V30 13697 O 1317.76 -4.01261 1.75845 0
M  V30 13698 C 1319.26 -4.433 0.00453729 0
M  V30 13699 H 1316.48 -0.653019 0.154295 0
M  V30 13700 H 1319.02 -1.74339 1.06894 0
M  V30 13701 H 1317.18 -3.86793 -0.21674 0
M  V30 13702 H 1317.59 -4.95854 1.70964 0
M  V30 13703 H 1319.07 -5.5192 0.0939653 0
M  V30 13704 H 1319.54 -4.26509 -1.04816 0
M  V30 13705 H 1320.15 -4.20712 0.623041 0
M  V30 13706 N 1318.47 -0.542005 -1.47987 0
M  V30 13707 C 1319.71 -0.010246 -2.01697 0
M  V30 13708 C 1320.03 1.34173 -1.42327 0
M  V30 13709 O 1321.23 1.96254 -1.87607 0
M  V30 13710 C 1319.69 0.0321032 -3.59886 0
M  V30 13711 C 1319.3 -1.31571 -4.28244 0
M  V30 13712 C 1321.04 0.512056 -4.214 0
M  V30 13713 C 1318.95 -1.23329 -5.78398 0
M  V30 13714 H 1317.88 -6.02097e-05 -0.754 0
M  V30 13715 H 1320.53 -0.687586 -1.70131 0
M  V30 13716 H 1318.91 0.774774 -3.88347 0
M  V30 13717 H 1320.09 -2.07489 -4.11442 0
M  V30 13718 H 1318.4 -1.73237 -3.78653 0
M  V30 13719 H 1321 0.591875 -5.31414 0
M  V30 13720 H 1321.34 1.52061 -3.87535 0
M  V30 13721 H 1321.87 -0.175293 -3.97414 0
M  V30 13722 H 1318.61 -2.21737 -6.16857 0
M  V30 13723 H 1318.13 -0.51567 -5.97579 0
M  V30 13724 H 1319.81 -0.928975 -6.40296 0
M  V30 13725 N 1319.94 1.55134 -0.277709 0
M  V30 13726 C 1320.91 2.21327 0.595569 0
M  V30 13727 C 1321.91 1.19193 1.07933 0
M  V30 13728 O 1323.1 1.44081 0.979093 0
M  V30 13729 C 1320.23 2.88127 1.82196 0
M  V30 13730 H 1321.42 2.99895 0.0175855 0
M  V30 13731 H 1318.97 1.56274 -0.0283453 0
M  V30 13732 H 1319.71 2.13578 2.44039 0
M  V30 13733 H 1319.49 3.62974 1.48297 0
M  V30 13734 H 1320.98 3.38691 2.44291 0
M  V30 13735 N 1321.42 0.00503138 1.57599 0
M  V30 13736 C 1322.37 -1.00294 2.09866 0
M  V30 13737 C 1323.36 -1.35267 1.01977 0
M  V30 13738 O 1324.57 -1.33772 1.20437 0
M  V30 13739 H 1320.94 -0.341112 0.670184 0
M  V30 13740 H 1322.92 -0.536595 2.93536 0
M  V30 13741 C 1321.66 -2.28432 2.62133 0
M  V30 13742 H 1320.99 -2.02391 3.44787 0
M  V30 13743 H 1322.43 -2.97227 3.02378 0
M  V30 13744 C 1320.89 -2.99758 1.53774 0
M  V30 13745 O 1321.42 -3.90939 0.923563 0
M  V30 13746 N 1319.62 -2.61671 1.26398 0
M  V30 13747 H 1319.17 -1.87605 1.76528 0
M  V30 13748 H 1319.13 -3.09707 0.541168 0
M  V30 13749 N 1322.9 -1.55308 -0.267798 0
M  V30 13750 C 1324.15 -1.76159 -0.998707 0
M  V30 13751 C 1324.47 -0.565573 -1.86095 0
M  V30 13752 O 1323.73 0.45178 -1.90414 0
M  V30 13753 C 1324.03 -3.02286 -1.90678 0
M  V30 13754 C 1323.69 -4.34594 -1.20161 0
M  V30 13755 C 1322.36 -4.70553 -1.00664 0
M  V30 13756 C 1324.71 -5.16475 -0.7002 0
M  V30 13757 C 1322.04 -5.85945 -0.297629 0
M  V30 13758 C 1324.39 -6.326 -0.00475187 0
M  V30 13759 C 1323.05 -6.67195 0.20188 0
M  V30 13760 H 1322.32 -0.644613 -0.365453 0
M  V30 13761 H 1324.97 -1.89579 -0.270545 0
M  V30 13762 H 1323.27 -2.83788 -2.70133 0
M  V30 13763 H 1324.97 -3.15615 -2.47362 0
M  V30 13764 H 1321.56 -4.06334 -1.36348 0
M  V30 13765 H 1325.75 -4.89167 -0.838435 0
M  V30 13766 H 1321 -6.11268 -0.126864 0
M  V30 13767 H 1325.18 -6.95299 0.39151 0
M  V30 13768 H 1322.8 -7.56459 0.753252 0
M  V30 13769 N 1324.38 0.532545 -1.4833 0
M  V30 13770 C 1325.65 1.29371 -1.46705 0
M  V30 13771 C 1326.03 2.10354 -0.177329 0
M  V30 13772 O 1325.38 2.12462 0.840968 0
M  V30 13773 C 1325.59 2.17733 -2.72751 0
M  V30 13774 C 1326.94 2.77956 -3.20976 0
M  V30 13775 O 1327.96 2.28022 -2.7365 0
M  V30 13776 O 1326.82 3.68779 -4.03317 0
M  V30 13777 H 1323.92 0.58378 -0.585773 0
M  V30 13778 H 1326.46 0.549411 -1.6056 0
M  V30 13779 H 1325.24 1.57659 -3.58133 0
M  V30 13780 H 1324.86 2.99415 -2.61603 0
M  V30 13781 N 1325.86 1.36875 0.78122 0
M  V30 13782 C 1327.27 1.28236 1.35692 0
M  V30 13783 C 1327.62 -0.0742286 1.9606 0
M  V30 13784 O 1326.74 -0.97588 1.93146 0
M  V30 13785 C 1327.34 2.32215 2.46702 0
M  V30 13786 C 1325.9 2.2724 3.00065 0
M  V30 13787 C 1325.04 2.16553 1.73206 0
M  V30 13788 H 1327.99 1.47634 0.582217 0
M  V30 13789 H 1328.02 1.96333 3.25935 0
M  V30 13790 H 1327.53 3.30938 2.02735 0
M  V30 13791 H 1325.63 1.3201 3.48431 0
M  V30 13792 H 1325.74 3.20267 3.56323 0
M  V30 13793 H 1324.11 1.62941 1.95761 0
M  V30 13794 H 1324.89 3.17176 1.31356 0
M  V30 13795 N 1327.33 -1.00632 1.21289 0
M  V30 13796 C 1328.75 -1.26744 0.969956 0
M  V30 13797 C 1328.95 -1.98534 -0.344449 0
M  V30 13798 O 1328.01 -2.28687 -1.07044 0
M  V30 13799 C 1329.32 -2.09238 2.15963 0
M  V30 13800 C 1330.87 -2.22469 2.20174 0
M  V30 13801 C 1331.34 -3.08344 3.38656 0
M  V30 13802 N 1332.83 -3.15932 3.38734 0
M  V30 13803 C 1333.57 -3.82632 4.2706 0
M  V30 13804 N 1333.06 -4.51371 5.25582 0
M  V30 13805 N 1334.86 -3.79259 4.14872 0
M  V30 13806 H 1327.01 -0.524626 2.05819 0
M  V30 13807 H 1329.27 -0.294231 0.901184 0
M  V30 13808 H 1328.98 -1.63835 3.11209 0
M  V30 13809 H 1328.85 -3.09987 2.14914 0
M  V30 13810 H 1331.24 -2.67091 1.25485 0
M  V30 13811 H 1331.32 -1.21194 2.25268 0
M  V30 13812 H 1330.96 -2.64425 4.33638 0
M  V30 13813 H 1330.89 -4.0973 3.30801 0
M  V30 13814 H 1333.38 -2.66998 2.67434 0
M  V30 13815 H 1333.7 -4.99966 5.89283 0
M  V30 13816 H 1332.04 -4.50162 5.29508 0
M  V30 13817 H 1335.23 -3.2471 3.37166 0
M  V30 13818 H 1335.41 -4.30963 4.83916 0
M  V30 13819 N 1328.81 -1.02043 -1.20104 0
M  V30 13820 C 1329.74 -0.538603 -2.21753 0
M  V30 13821 C 1330.72 0.416016 -1.57188 0
M  V30 13822 O 1331.91 0.335114 -1.85497 0
M  V30 13823 C 1329.03 0.215706 -3.38012 0
M  V30 13824 C 1328.08 -0.68905 -4.20897 0
M  V30 13825 S 1328.91 -2.16041 -4.89986 0
M  V30 13826 C 1330.07 -1.41637 -6.09664 0
M  V30 13827 H 1330.3 -1.39988 -2.6228 0
M  V30 13828 H 1327.83 -0.829641 -1.30216 0
M  V30 13829 H 1329.79 0.644798 -4.05404 0
M  V30 13830 H 1328.45 1.0526 -2.95938 0
M  V30 13831 H 1327.65 -0.107195 -5.03886 0
M  V30 13832 H 1327.25 -1.05609 -3.5878 0
M  V30 13833 H 1329.54 -0.698414 -6.73891 0
M  V30 13834 H 1330.48 -2.22254 -6.72316 0
M  V30 13835 H 1330.89 -0.917572 -5.56993 0
M  V30 13836 N 1330.29 1.35952 -0.797165 0
M  V30 13837 C 1331.52 2.0328 -0.385316 0
M  V30 13838 C 1331.93 1.60095 1.00076 0
M  V30 13839 O 1331.29 0.794014 1.64322 0
M  V30 13840 C 1331.34 3.5871 -0.448284 0
M  V30 13841 O 1331.06 4.00323 -1.7797 0
M  V30 13842 C 1332.56 4.43291 -0.0280465 0
M  V30 13843 H 1329.78 0.652192 -0.157756 0
M  V30 13844 H 1332.33 1.73769 -1.07817 0
M  V30 13845 H 1330.48 3.86903 0.196224 0
M  V30 13846 H 1330.9 4.94941 -1.73592 0
M  V30 13847 H 1332.37 5.51862 -0.123234 0
M  V30 13848 H 1332.85 4.27059 1.02552 0
M  V30 13849 H 1333.45 4.20375 -0.645343 0
M  V30 13850 N 1331.77 0.549846 1.47697 0
M  V30 13851 C 1332.7 -0.190364 2.32723 0
M  V30 13852 C 1333.68 -0.915933 1.43334 0
M  V30 13853 O 1334.86 -0.897838 1.72199 0
M  V30 13854 C 1331.99 -1.22545 3.24961 0
M  V30 13855 C 1330.95 -0.616805 4.23532 0
M  V30 13856 C 1330.27 -1.75599 5.05044 0
M  V30 13857 C 1331.57 0.424595 5.20571 0
M  V30 13858 H 1333.27 0.519461 2.94859 0
M  V30 13859 H 1330.81 0.251259 1.41791 0
M  V30 13860 H 1332.77 -1.75139 3.83281 0
M  V30 13861 H 1331.49 -1.96512 2.60865 0
M  V30 13862 H 1330.15 -0.112224 3.66428 0
M  V30 13863 H 1329.8 -2.48453 4.37356 0
M  V30 13864 H 1329.5 -1.35456 5.71774 0
M  V30 13865 H 1331.02 -2.28533 5.6622 0
M  V30 13866 H 1332.44 -0.0150025 5.73298 0
M  V30 13867 H 1330.83 0.7445 5.95464 0
M  V30 13868 H 1331.9 1.32318 4.66497 0
M  V30 13869 N 1333.25 -1.54984 0.285932 0
M  V30 13870 C 1334.66 -1.59455 -0.0679061 0
M  V30 13871 C 1334.86 -1.30308 -1.53695 0
M  V30 13872 O 1333.92 -1.06918 -2.28746 0
M  V30 13873 C 1335.23 -2.9903 0.316469 0
M  V30 13874 C 1336.78 -3.11885 0.263982 0
M  V30 13875 C 1337.25 -4.53744 0.622956 0
M  V30 13876 N 1338.75 -4.59618 0.574917 0
M  V30 13877 C 1339.48 -5.67429 0.825339 0
M  V30 13878 N 1338.98 -6.83341 1.14094 0
M  V30 13879 N 1340.77 -5.57028 0.75341 0
M  V30 13880 H 1332.92 -1.72194 1.2435 0
M  V30 13881 H 1335.18 -0.80348 0.503114 0
M  V30 13882 H 1334.89 -3.25232 1.33855 0
M  V30 13883 H 1334.76 -3.75688 -0.337371 0
M  V30 13884 H 1337.15 -2.85441 -0.748832 0
M  V30 13885 H 1337.23 -2.37416 0.952233 0
M  V30 13886 H 1336.88 -4.80915 1.63351 0
M  V30 13887 H 1336.81 -5.26528 -0.0872039 0
M  V30 13888 H 1339.3 -3.76356 0.341305 0
M  V30 13889 H 1339.61 -7.61471 1.3184 0
M  V30 13890 H 1337.95 -6.8493 1.17883 0
M  V30 13891 H 1341.15 -4.6535 0.506611 0
M  V30 13892 H 1341.32 -6.4097 0.95195 0
M  V30 13893 N 1334.72 -0.0133892 -1.57594 0
M  V30 13894 C 1335.65 0.972341 -2.12292 0
M  V30 13895 C 1336.64 1.34971 -1.03522 0
M  V30 13896 O 1337.82 1.4311 -1.31275 0
M  V30 13897 C 1334.95 2.25988 -2.63717 0
M  V30 13898 C 1333.9 2.02373 -3.77133 0
M  V30 13899 C 1333.23 3.37256 -4.14925 0
M  V30 13900 C 1334.53 1.37553 -5.03861 0
M  V30 13901 H 1336.22 0.516869 -2.94905 0
M  V30 13902 H 1333.77 0.247176 -1.41863 0
M  V30 13903 H 1335.72 2.95313 -3.00613 0
M  V30 13904 H 1334.45 2.73672 -1.78244 0
M  V30 13905 H 1333.11 1.3547 -3.40651 0
M  V30 13906 H 1332.75 3.82669 -3.26456 0
M  V30 13907 H 1332.45 3.22267 -4.91343 0
M  V30 13908 H 1333.98 4.07875 -4.5439 0
M  V30 13909 H 1335.39 1.96855 -5.38443 0
M  V30 13910 H 1333.79 1.33011 -5.85174 0
M  V30 13911 H 1334.86 0.346429 -4.83661 0
M  V30 13912 N 1336.2 1.55448 0.259558 0
M  V30 13913 C 1337.61 1.67256 0.8296 0
M  V30 13914 C 1337.96 0.60851 1.86525 0
M  V30 13915 O 1337.09 -0.247563 2.14979 0
M  V30 13916 C 1337.68 3.03213 1.51152 0
M  V30 13917 C 1336.24 3.17004 2.02943 0
M  V30 13918 C 1335.39 2.63096 0.876103 0
M  V30 13919 H 1338.34 1.5866 0.0356218 0
M  V30 13920 H 1338.36 2.96952 2.37906 0
M  V30 13921 H 1337.87 3.80635 0.75752 0
M  V30 13922 H 1335.98 2.44381 2.81263 0
M  V30 13923 H 1336.09 4.23748 2.2355 0
M  V30 13924 H 1334.45 2.20596 1.27317 0
M  V30 13925 H 1335.24 3.43033 0.13539 0
M  V30 13926 N 1337.68 -0.524672 1.4861 0
M  V30 13927 C 1338.91 -1.30958 1.60825 0
M  V30 13928 C 1339.33 -1.86142 0.270682 0
M  V30 13929 O 1338.69 -1.64675 -0.758415 0
M  V30 13930 C 1338.74 -2.43252 2.66197 0
M  V30 13931 O 1337.84 -3.4644 2.23725 0
M  V30 13932 H 1337.18 -0.387638 0.539104 0
M  V30 13933 H 1339.71 -0.630755 1.94635 0
M  V30 13934 H 1339.72 -2.89362 2.87635 0
M  V30 13935 H 1338.4 -2.02449 3.63301 0
M  V30 13936 H 1336.97 -3.06413 2.12522 0
M  V30 13937 N 1339.16 -1.37287 -0.77395 0
M  V30 13938 C 1340.09 -1.35569 -1.90114 0
M  V30 13939 C 1341.07 -0.224658 -1.6861 0
M  V30 13940 O 1342.25 -0.424676 -1.895 0
M  V30 13941 C 1339.38 -1.15971 -3.27365 0
M  V30 13942 C 1338.34 -2.26063 -3.63427 0
M  V30 13943 C 1337.66 -1.9159 -4.99197 0
M  V30 13944 C 1338.96 -3.68236 -3.70405 0
M  V30 13945 H 1340.66 -2.29891 -1.91808 0
M  V30 13946 H 1338.2 -1.10661 -0.92142 0
M  V30 13947 H 1340.16 -1.134 -4.05855 0
M  V30 13948 H 1338.88 -0.181043 -3.26098 0
M  V30 13949 H 1337.54 -2.27786 -2.87244 0
M  V30 13950 H 1337.19 -0.922586 -4.94467 0
M  V30 13951 H 1336.89 -2.65309 -5.24294 0
M  V30 13952 H 1338.41 -1.90602 -5.80089 0
M  V30 13953 H 1339.83 -3.68655 -4.39052 0
M  V30 13954 H 1338.22 -4.4099 -4.06999 0
M  V30 13955 H 1339.29 -4.02021 -2.71122 0
M  V30 13956 N 1340.64 0.999871 -1.21821 0
M  V30 13957 C 1341.86 1.7794 -1.06546 0
M  V30 13958 C 1342.29 1.84219 0.380115 0
M  V30 13959 O 1341.64 1.28955 1.27438 0
M  V30 13960 C 1341.69 3.1943 -1.67322 0
M  V30 13961 O 1340.8 4.01957 -0.922171 0
M  V30 13962 H 1340.14 0.548204 -0.374658 0
M  V30 13963 H 1342.67 1.2565 -1.61472 0
M  V30 13964 H 1342.68 3.70086 -1.71757 0
M  V30 13965 H 1341.35 3.14175 -2.7252 0
M  V30 13966 H 1339.93 3.60509 -0.95331 0
M  V30 13967 N 1342.11 1.02678 1.19562 0
M  V30 13968 C 1343.36 0.72059 1.88817 0
M  V30 13969 C 1343.68 -0.752942 1.79877 0
M  V30 13970 O 1342.95 -1.54233 1.20785 0
M  V30 13971 H 1341.53 0.26355 0.698964 0
M  V30 13972 H 1344.2 1.30056 1.4516 0
M  V30 13973 H 1343.29 1.01303 2.95202 0
M  V30 13974 N 1343.59 -1.35528 0.804364 0
M  V30 13975 C 1344.82 -2.03604 0.395013 0
M  V30 13976 C 1345.24 -1.60225 -0.985371 0
M  V30 13977 O 1344.6 -0.777844 -1.63766 0
M  V30 13978 C 1344.65 -3.57337 0.484011 0
M  V30 13979 O 1343.75 -4.09316 -0.503395 0
M  V30 13980 H 1343.09 -0.643089 0.165325 0
M  V30 13981 H 1345.62 -1.73171 1.08963 0
M  V30 13982 H 1345.63 -4.0647 0.353009 0
M  V30 13983 H 1344.31 -3.8826 1.49088 0
M  V30 13984 H 1342.89 -3.71412 -0.332817 0
M  V30 13985 N 1345.07 -0.557671 -1.47404 0
M  V30 13986 C 1346.35 0.031908 -1.95574 0
M  V30 13987 C 1346.73 1.48509 -1.50027 0
M  V30 13988 O 1346.08 2.16209 -0.73932 0
M  V30 13989 C 1346.29 -0.114055 -3.48814 0
M  V30 13990 C 1347.63 0.0310533 -4.24589 0
M  V30 13991 O 1348.66 -0.041626 -3.56176 0
M  V30 13992 O 1347.52 0.187487 -5.46178 0
M  V30 13993 H 1344.61 0.0638747 -0.82453 0
M  V30 13994 H 1347.16 -0.624227 -1.57802 0
M  V30 13995 H 1345.93 -1.12525 -3.74772 0
M  V30 13996 H 1345.55 0.57967 -3.93352 0
M  V30 13997 N 1346.55 1.54831 -0.294147 0
M  V30 13998 C 1347.8 1.99606 0.316509 0
M  V30 13999 C 1348.12 1.18405 1.54936 0
M  V30 14000 O 1347.39 0.278289 1.93913 0
M  V30 14001 H 1345.97 0.737309 0.119938 0
M  V30 14002 H 1348.63 1.90669 -0.403891 0
M  V30 14003 H 1347.73 3.06409 0.593282 0
M  V30 14004 N 1348.03 0.0217466 1.57585 0
M  V30 14005 C 1349.28 -0.657793 1.90672 0
M  V30 14006 C 1349.59 -1.73713 0.899066 0
M  V30 14007 O 1350.8 -2.4728 1.12092 0
M  V30 14008 C 1349.25 -1.22124 3.38547 0
M  V30 14009 C 1348.86 -0.175575 4.47656 0
M  V30 14010 C 1350.6 -1.87771 3.80713 0
M  V30 14011 C 1348.51 -0.750239 5.86622 0
M  V30 14012 H 1347.44 -0.249459 0.711538 0
M  V30 14013 H 1350.09 0.0858449 1.83299 0
M  V30 14014 H 1348.47 -2.01625 3.40828 0
M  V30 14015 H 1349.65 0.596436 4.56924 0
M  V30 14016 H 1347.96 0.381715 4.14647 0
M  V30 14017 H 1350.56 -2.3171 4.81887 0
M  V30 14018 H 1350.9 -2.71737 3.1538 0
M  V30 14019 H 1351.44 -1.14971 3.80823 0
M  V30 14020 H 1348.17 0.0511222 6.5548 0
M  V30 14021 H 1347.69 -1.49091 5.80975 0
M  V30 14022 H 1349.37 -1.24225 6.34962 0
M  V30 14023 N 1349.51 -1.55583 -0.251311 0
M  V30 14024 C 1350.92 -1.67693 -0.820719 0
M  V30 14025 C 1351.27 -0.618393 -1.862 0
M  V30 14026 O 1350.39 0.236158 -2.15108 0
M  V30 14027 C 1350.99 -3.04011 -1.49542 0
M  V30 14028 C 1349.55 -3.18075 -2.01259 0
M  V30 14029 C 1348.69 -2.63557 -0.862138 0
M  V30 14030 H 1351.64 -1.58677 -0.0272072 0
M  V30 14031 H 1351.67 -2.9821 -2.36328 0
M  V30 14032 H 1351.18 -3.81032 -0.737323 0
M  V30 14033 H 1349.28 -2.45869 -2.79963 0
M  V30 14034 H 1349.39 -4.24927 -2.213 0
M  V30 14035 H 1347.76 -2.21268 -1.26145 0
M  V30 14036 H 1348.54 -3.431 -0.117196 0
M  V30 14037 N 1350.98 0.516783 -1.48886 0
M  V30 14038 C 1352.21 1.2944 -1.61024 0
M  V30 14039 C 1352.62 1.87195 -0.274705 0
M  V30 14040 O 1351.96 1.67787 0.747868 0
M  V30 14041 C 1352.03 2.4743 -2.60804 0
M  V30 14042 C 1351.69 2.10663 -4.05549 0
M  V30 14043 C 1352.69 1.65559 -4.92835 0
M  V30 14044 C 1350.37 2.20782 -4.51177 0
M  V30 14045 C 1352.37 1.31057 -6.23781 0
M  V30 14046 C 1350.05 1.85891 -5.82141 0
M  V30 14047 C 1351.05 1.41101 -6.68266 0
M  V30 14048 O 1350.74 1.06674 -7.96791 0
M  V30 14049 H 1350.47 0.399402 -0.545394 0
M  V30 14050 H 1353.03 0.628719 -1.95541 0
M  V30 14051 H 1351.26 3.17023 -2.21435 0
M  V30 14052 H 1352.94 3.09478 -2.62637 0
M  V30 14053 H 1353.71 1.57201 -4.58817 0
M  V30 14054 H 1349.59 2.54598 -3.84319 0
M  V30 14055 H 1353.13 0.960245 -6.9096 0
M  V30 14056 H 1349.03 1.93894 -6.15691 0
M  V30 14057 H 1349.8 1.19958 -8.09662 0
M  V30 14058 N 1352.46 1.37696 0.766659 0
M  V30 14059 C 1353.88 1.18607 1.06792 0
M  V30 14060 C 1354.08 0.0257195 2.01484 0
M  V30 14061 O 1353.13 -0.632608 2.44447 0
M  V30 14062 C 1354.45 2.50692 1.66054 0
M  V30 14063 C 1355.99 2.57259 1.78288 0
M  V30 14064 C 1356.47 3.89488 2.40963 0
M  V30 14065 N 1357.96 3.90957 2.48408 0
M  V30 14066 C 1358.7 4.90023 2.97767 0
M  V30 14067 N 1358.19 5.99485 3.4726 0
M  V30 14068 N 1359.98 4.77423 2.96688 0
M  V30 14069 H 1352.14 2.11951 0.138031 0
M  V30 14070 H 1354.4 0.939873 0.123863 0
M  V30 14071 H 1354.1 3.35989 1.03945 0
M  V30 14072 H 1353.98 2.68148 2.65286 0
M  V30 14073 H 1356.37 1.72366 2.39528 0
M  V30 14074 H 1356.45 2.43682 0.777981 0
M  V30 14075 H 1356.09 4.74797 1.8036 0
M  V30 14076 H 1356.02 4.0037 3.42069 0
M  V30 14077 H 1358.51 3.11888 2.13388 0
M  V30 14078 H 1358.82 6.71022 3.8334 0
M  V30 14079 H 1357.17 6.03123 3.45351 0
M  V30 14080 H 1360.36 3.91026 2.57325 0
M  V30 14081 H 1360.53 5.54783 3.34844 0
M  V30 14082 N 1353.94 -0.993397 1.22349 0
M  V30 14083 C 1355.17 -1.76838 1.07406 0
M  V30 14084 C 1355.58 -1.8503 -0.37542 0
M  V30 14085 O 1354.94 -1.32008 -1.26016 0
M  V30 14086 C 1354.99 -3.20177 1.67837 0
M  V30 14087 O 1354.71 -3.12429 3.07115 0
M  V30 14088 C 1356.21 -4.14125 1.58161 0
M  V30 14089 H 1353.43 -0.555379 0.376557 0
M  V30 14090 H 1355.98 -1.24893 1.61932 0
M  V30 14091 H 1354.13 -3.69191 1.17375 0
M  V30 14092 H 1354.55 -4.02568 3.36213 0
M  V30 14093 H 1356.02 -5.12455 2.05169 0
M  V30 14094 H 1356.5 -4.35892 0.538073 0
M  V30 14095 H 1357.1 -3.71008 2.07926 0
M  V30 14096 N 1355.42 -1.03311 -1.19015 0
M  V30 14097 C 1356.66 -0.733124 -1.89085 0
M  V30 14098 C 1357 0.73675 -1.79682 0
M  V30 14099 O 1356.27 1.53692 -1.19201 0
M  V30 14100 C 1356.55 -1.19028 -3.39859 0
M  V30 14101 C 1356.41 -2.72169 -3.58112 0
M  V30 14102 C 1357.73 -0.774383 -4.33234 0
M  V30 14103 H 1354.85 -0.2678 -0.686624 0
M  V30 14104 H 1357.49 -1.28378 -1.40068 0
M  V30 14105 H 1355.64 -0.721799 -3.81736 0
M  V30 14106 H 1357.31 -3.26996 -3.25379 0
M  V30 14107 H 1355.55 -3.12358 -3.01023 0
M  V30 14108 H 1356.22 -2.99213 -4.6387 0
M  V30 14109 H 1358.7 -1.17739 -3.99095 0
M  V30 14110 H 1357.58 -1.12209 -5.37308 0
M  V30 14111 H 1357.84 0.322989 -4.40919 0
M  V30 14112 N 1356.9 1.35099 -0.81154 0
M  V30 14113 C 1358.12 2.03391 -0.405805 0
M  V30 14114 C 1358.55 1.60745 0.97686 0
M  V30 14115 O 1357.9 0.786518 1.63351 0
M  V30 14116 C 1357.95 3.57075 -0.502954 0
M  V30 14117 O 1357.06 4.09577 0.481681 0
M  V30 14118 H 1356.4 0.642203 -0.168733 0
M  V30 14119 H 1358.93 1.72591 -1.0988 0
M  V30 14120 H 1358.94 4.06277 -0.37456 0
M  V30 14121 H 1357.61 3.87463 -1.51145 0
M  V30 14122 H 1356.19 3.71583 0.313115 0
M  V30 14123 N 1358.37 0.56548 1.47106 0
M  V30 14124 C 1359.28 -0.180488 2.33905 0
M  V30 14125 C 1360.3 -0.90355 1.48701 0
M  V30 14126 O 1361.48 -0.870595 1.81611 0
M  V30 14127 C 1358.54 -1.19212 3.2556 0
M  V30 14128 C 1357.6 -0.475589 4.26658 0
M  V30 14129 C 1356.83 -1.43902 5.13934 0
M  V30 14130 O 1357.06 -2.67443 5.03816 0
M  V30 14131 O 1355.99 -0.958998 5.94211 0
M  V30 14132 H 1359.82 0.531726 2.99009 0
M  V30 14133 H 1357.4 0.32602 1.45799 0
M  V30 14134 H 1359.28 -1.77586 3.82153 0
M  V30 14135 H 1357.96 -1.8861 2.63074 0
M  V30 14136 H 1356.87 0.149561 3.73801 0
M  V30 14137 H 1358.2 0.177103 4.91881 0
M  V30 14138 N 1359.85 -1.54672 0.302354 0
M  V30 14139 C 1361.1 -2.01178 -0.299842 0
M  V30 14140 C 1361.45 -1.18698 -1.51422 0
M  V30 14141 O 1360.75 -0.255677 -1.89886 0
M  V30 14142 C 1360.94 -3.5035 -0.70638 0
M  V30 14143 C 1360.77 -4.47268 0.467051 0
M  V30 14144 C 1359.54 -4.96107 0.959494 0
M  V30 14145 C 1361.74 -4.97272 1.31245 0
M  V30 14146 N 1359.72 -5.76881 2.09955 0
M  V30 14147 C 1361.09 -5.75761 2.29997 0
M  V30 14148 C 1363.15 -4.79455 1.34267 0
M  V30 14149 C 1361.85 -6.38332 3.31549 0
M  V30 14150 C 1363.87 -5.42845 2.34677 0
M  V30 14151 C 1363.24 -6.21168 3.32159 0
M  V30 14152 H 1359.34 -0.778477 -0.0741425 0
M  V30 14153 H 1361.92 -1.89834 0.432577 0
M  V30 14154 H 1360.09 -3.61982 -1.40797 0
M  V30 14155 H 1361.82 -3.83649 -1.28823 0
M  V30 14156 H 1358.58 -4.70577 0.534246 0
M  V30 14157 H 1359 -6.21953 2.67401 0
M  V30 14158 H 1363.64 -4.18482 0.602738 0
M  V30 14159 H 1361.36 -6.98438 4.0646 0
M  V30 14160 H 1364.95 -5.30987 2.37791 0
M  V30 14161 H 1363.83 -6.69349 4.08584 0
M  V30 14162 N 1361.33 -0.0301034 -1.57571 0
M  V30 14163 C 1362.26 0.94977 -2.13311 0
M  V30 14164 C 1363.24 1.33865 -1.04948 0
M  V30 14165 O 1364.43 1.4171 -1.32786 0
M  V30 14166 C 1361.56 2.23178 -2.66099 0
M  V30 14167 C 1360.51 1.98362 -3.79258 0
M  V30 14168 C 1359.84 3.32836 -4.18479 0
M  V30 14169 C 1361.14 1.32201 -5.05292 0
M  V30 14170 H 1362.83 0.485562 -2.95436 0
M  V30 14171 H 1360.38 0.232116 -1.42117 0
M  V30 14172 H 1362.33 2.92108 -3.03728 0
M  V30 14173 H 1361.05 2.71766 -1.81137 0
M  V30 14174 H 1359.71 1.31849 -3.42069 0
M  V30 14175 H 1359.36 3.79185 -3.30496 0
M  V30 14176 H 1359.06 3.17037 -4.94733 0
M  V30 14177 H 1360.58 4.03032 -4.58691 0
M  V30 14178 H 1362 1.91133 -5.40501 0
M  V30 14179 H 1360.4 1.26797 -5.86551 0
M  V30 14180 H 1361.47 0.29511 -4.84001 0
M  V30 14181 N 1362.81 1.55714 0.243056 0
M  V30 14182 C 1363.72 1.93777 1.32241 0
M  V30 14183 C 1364.73 0.838709 1.52452 0
M  V30 14184 O 1365.91 1.14044 1.66 0
M  V30 14185 C 1362.98 2.22808 2.65627 0
M  V30 14186 C 1362.04 3.46166 2.53904 0
M  V30 14187 C 1361.27 3.73802 3.8093 0
M  V30 14188 O 1361.49 3.0345 4.82985 0
M  V30 14189 O 1360.43 4.67323 3.79332 0
M  V30 14190 H 1364.25 2.85718 1.02951 0
M  V30 14191 H 1361.84 1.42646 0.444135 0
M  V30 14192 H 1363.72 2.4277 3.44442 0
M  V30 14193 H 1362.39 1.34045 2.94642 0
M  V30 14194 H 1361.3 3.31506 1.73362 0
M  V30 14195 H 1362.63 4.35244 2.29834 0
M  V30 14196 N 1364.29 -0.50888 1.49158 0
M  V30 14197 C 1365.51 -1.29245 1.62205 0
M  V30 14198 C 1365.94 -1.85845 0.29041 0
M  V30 14199 O 1365.29 -1.6547 -0.740906 0
M  V30 14200 C 1365.34 -2.40415 2.68762 0
M  V30 14201 O 1364.45 -3.44048 2.27387 0
M  V30 14202 H 1363.79 -0.381898 0.543185 0
M  V30 14203 H 1366.32 -0.610076 1.95293 0
M  V30 14204 H 1366.33 -2.86295 2.90688 0
M  V30 14205 H 1365 -1.98584 3.65427 0
M  V30 14206 H 1363.58 -3.04141 2.1576 0
M  V30 14207 N 1365.76 -1.381 -0.759346 0
M  V30 14208 C 1367.01 -1.33311 -1.51364 0
M  V30 14209 C 1367.33 0.0761325 -1.95452 0
M  V30 14210 O 1368.53 0.246541 -2.70378 0
M  V30 14211 C 1366.99 -2.34067 -2.73387 0
M  V30 14212 C 1366.6 -3.80583 -2.36348 0
M  V30 14213 C 1368.34 -2.38311 -3.51295 0
M  V30 14214 C 1366.25 -4.73039 -3.54948 0
M  V30 14215 H 1365.18 -0.495512 -0.568317 0
M  V30 14216 H 1367.83 -1.63625 -0.830602 0
M  V30 14217 H 1366.21 -1.96788 -3.43643 0
M  V30 14218 H 1367.38 -4.26769 -1.73796 0
M  V30 14219 H 1365.7 -3.79403 -1.71587 0
M  V30 14220 H 1368.3 -3.04586 -4.39467 0
M  V30 14221 H 1368.64 -1.40034 -3.92041 0
M  V30 14222 H 1369.17 -2.74361 -2.88047 0
M  V30 14223 H 1365.91 -5.7249 -3.19273 0
M  V30 14224 H 1365.43 -4.3155 -4.16563 0
M  V30 14225 H 1367.11 -4.90775 -4.21603 0
M  V30 14226 N 1367.24 0.986894 -1.22875 0
M  V30 14227 C 1368.66 1.25185 -0.989997 0
M  V30 14228 C 1368.86 1.99057 0.31282 0
M  V30 14229 O 1367.91 2.30361 1.03392 0
M  V30 14230 C 1369.23 2.05775 -2.19265 0
M  V30 14231 C 1370.78 2.18938 -2.23686 0
M  V30 14232 C 1371.25 3.02917 -3.43519 0
M  V30 14233 N 1372.74 3.10503 -3.43718 0
M  V30 14234 C 1373.48 3.75789 -4.33094 0
M  V30 14235 N 1372.97 4.42952 -5.32696 0
M  V30 14236 N 1374.77 3.72611 -4.20854 0
M  V30 14237 H 1366.92 0.491816 -2.06628 0
M  V30 14238 H 1369.18 0.279856 -0.905751 0
M  V30 14239 H 1368.89 1.58864 -3.13776 0
M  V30 14240 H 1368.76 3.06529 -2.19818 0
M  V30 14241 H 1371.15 2.65061 -1.29718 0
M  V30 14242 H 1371.23 1.17595 -2.27168 0
M  V30 14243 H 1370.87 2.57493 -4.3779 0
M  V30 14244 H 1370.8 4.04415 -3.37277 0
M  V30 14245 H 1373.29 2.62709 -2.71647 0
M  V30 14246 H 1373.61 4.90527 -5.97162 0
M  V30 14247 H 1371.95 4.41681 -5.36603 0
M  V30 14248 H 1375.14 3.19305 -3.42289 0
M  V30 14249 H 1375.31 4.2321 -4.90711 0
M  V30 14250 N 1368.72 1.0394 1.18466 0
M  V30 14251 C 1369.65 0.573814 2.20868 0
M  V30 14252 C 1370.63 -0.390956 1.5783 0
M  V30 14253 O 1371.82 -0.305561 1.86007 0
M  V30 14254 C 1368.94 -0.161904 3.38313 0
M  V30 14255 C 1367.99 0.755924 4.19748 0
M  V30 14256 S 1368.82 2.23809 4.86487 0
M  V30 14257 C 1369.98 1.51318 6.07333 0
M  V30 14258 H 1370.21 1.44143 2.60019 0
M  V30 14259 H 1367.74 0.850252 1.2888 0
M  V30 14260 H 1369.7 -0.58022 4.06379 0
M  V30 14261 H 1368.36 -1.00539 2.97575 0
M  V30 14262 H 1367.56 0.187345 5.03652 0
M  V30 14263 H 1367.16 1.11303 3.57054 0
M  V30 14264 H 1369.45 0.805536 6.72694 0
M  V30 14265 H 1370.39 2.32922 6.68695 0
M  V30 14266 H 1370.8 1.00607 5.55462 0
M  V30 14267 N 1370.2 -1.34667 0.818693 0
M  V30 14268 C 1371.15 -2.29595 0.235551 0
M  V30 14269 C 1372.12 -1.53389 -0.63727 0
M  V30 14270 O 1373.3 -1.81777 -0.579804 0
M  V30 14271 C 1370.44 -3.39843 -0.600043 0
M  V30 14272 C 1369.55 -4.30995 0.294553 0
M  V30 14273 C 1368.69 -5.28343 -0.550203 0
M  V30 14274 C 1367.73 -6.11132 0.344043 0
M  V30 14275 N 1366.86 -7.00582 -0.461392 0
M  V30 14276 H 1371.7 -2.78872 1.05044 0
M  V30 14277 H 1369.24 -1.37239 0.529517 0
M  V30 14278 H 1371.2 -4.02443 -1.09978 0
M  V30 14279 H 1369.83 -2.91811 -1.38008 0
M  V30 14280 H 1368.88 -3.69294 0.912483 0
M  V30 14281 H 1370.19 -4.89031 0.982341 0
M  V30 14282 H 1369.35 -5.96374 -1.11459 0
M  V30 14283 H 1368.09 -4.70833 -1.27151 0
M  V30 14284 H 1367.09 -5.42038 0.920608 0
M  V30 14285 H 1368.32 -6.70722 1.0634 0
M  V30 14286 H 1366.26 -6.45546 -1.16645 0
M  V30 14287 H 1366.18 -7.55813 0.168095 0
M  V30 14288 H 1367.45 -7.72946 -1.00867 0
M  V30 14289 N 1371.68 -0.573274 -1.46804 0
M  V30 14290 C 1373.09 -0.23423 -1.57872 0
M  V30 14291 C 1373.29 1.26342 -1.56971 0
M  V30 14292 O 1372.35 2.04459 -1.48165 0
M  V30 14293 C 1373.66 -0.875097 -2.87685 0
M  V30 14294 C 1375.21 -0.847812 -3.01299 0
M  V30 14295 C 1375.68 -1.46804 -4.33835 0
M  V30 14296 N 1377.18 -1.43196 -4.4051 0
M  V30 14297 C 1377.91 -1.88133 -5.41658 0
M  V30 14298 N 1377.41 -2.41001 -6.49531 0
M  V30 14299 N 1379.2 -1.79107 -5.32801 0
M  V30 14300 H 1371.35 -1.54612 -1.45633 0
M  V30 14301 H 1373.61 -0.645703 -0.694098 0
M  V30 14302 H 1373.32 -1.92826 -2.94127 0
M  V30 14303 H 1373.19 -0.377671 -3.75305 0
M  V30 14304 H 1375.58 0.196707 -2.94444 0
M  V30 14305 H 1375.66 -1.38316 -2.1518 0
M  V30 14306 H 1375.31 -2.51171 -4.41447 0
M  V30 14307 H 1375.24 -0.908 -5.18713 0
M  V30 14308 H 1377.73 -1.04541 -3.63152 0
M  V30 14309 H 1378.04 -2.73172 -7.22908 0
M  V30 14310 H 1376.38 -2.45021 -6.50377 0
M  V30 14311 H 1379.58 -1.37569 -4.47429 0
M  V30 14312 H 1379.75 -2.14445 -6.11488 0
M  V30 14313 N 1373.15 1.5451 -0.310553 0
M  V30 14314 C 1374.38 2.04442 0.297807 0
M  V30 14315 C 1374.79 1.18695 1.47337 0
M  V30 14316 O 1374.14 0.207405 1.82525 0
M  V30 14317 C 1374.2 3.50306 0.807851 0
M  V30 14318 C 1373.86 4.5635 -0.24369 0
M  V30 14319 C 1374.86 5.08656 -1.07539 0
M  V30 14320 C 1372.54 5.00798 -0.388138 0
M  V30 14321 C 1374.54 6.03961 -2.03738 0
M  V30 14322 C 1372.22 5.95921 -1.35357 0
M  V30 14323 C 1373.22 6.47387 -2.17667 0
M  V30 14324 O 1372.91 7.40644 -3.12571 0
M  V30 14325 H 1372.64 0.672646 0.0672525 0
M  V30 14326 H 1375.2 2.00389 -0.450948 0
M  V30 14327 H 1373.43 3.51714 1.6073 0
M  V30 14328 H 1375.12 3.83383 1.33314 0
M  V30 14329 H 1375.88 4.75105 -0.97471 0
M  V30 14330 H 1371.76 4.60361 0.242608 0
M  V30 14331 H 1375.3 6.44057 -2.68023 0
M  V30 14332 H 1371.2 6.2889 -1.45493 0
M  V30 14333 H 1371.97 7.58477 -3.0766 0
M  V30 14334 N 1374.63 0.0384594 1.57553 0
M  V30 14335 C 1375.88 -0.637533 1.91359 0
M  V30 14336 C 1376.2 -1.7275 0.91744 0
M  V30 14337 O 1377.4 -2.46078 1.14709 0
M  V30 14338 C 1375.86 -1.18526 3.39823 0
M  V30 14339 C 1375.47 -0.128086 4.47817 0
M  V30 14340 C 1377.21 -1.83723 3.82683 0
M  V30 14341 C 1375.12 -0.687978 5.87385 0
M  V30 14342 H 1374.05 -0.241898 0.714144 0
M  V30 14343 H 1376.7 0.105281 1.83198 0
M  V30 14344 H 1375.08 -1.97999 3.42947 0
M  V30 14345 H 1376.25 0.644865 4.56265 0
M  V30 14346 H 1374.57 0.425672 4.14219 0
M  V30 14347 H 1377.17 -2.26585 4.84317 0
M  V30 14348 H 1377.51 -2.68377 3.18244 0
M  V30 14349 H 1378.04 -1.10926 3.82021 0
M  V30 14350 H 1374.78 0.120642 6.55389 0
M  V30 14351 H 1374.3 -1.4292 5.82524 0
M  V30 14352 H 1375.98 -1.17483 6.36244 0
M  V30 14353 N 1376.11 -1.55841 -0.234795 0
M  V30 14354 C 1377.04 -1.94344 -1.29432 0
M  V30 14355 C 1378.02 -0.809912 -1.49581 0
M  V30 14356 O 1379.21 -1.07117 -1.61986 0
M  V30 14357 C 1376.34 -2.24866 -2.64675 0
M  V30 14358 C 1375.29 -3.40584 -2.59203 0
M  V30 14359 C 1374.62 -3.56678 -3.98353 0
M  V30 14360 C 1375.92 -4.75935 -2.15135 0
M  V30 14361 H 1377.61 -2.83096 -0.97454 0
M  V30 14362 H 1375.16 -1.36205 -0.467355 0
M  V30 14363 H 1377.11 -2.50392 -3.38942 0
M  V30 14364 H 1375.83 -1.32953 -2.98314 0
M  V30 14365 H 1374.49 -3.15087 -1.87393 0
M  V30 14366 H 1374.14 -2.62164 -4.29277 0
M  V30 14367 H 1373.84 -4.34503 -3.95577 0
M  V30 14368 H 1375.37 -3.84538 -4.74302 0
M  V30 14369 H 1376.78 -5.00753 -2.7914 0
M  V30 14370 H 1375.18 -5.56949 -2.23446 0
M  V30 14371 H 1376.25 -4.72182 -1.10328 0
M  V30 14372 N 1377.59 0.500963 -1.49426 0
M  V30 14373 C 1378.54 1.59939 -1.62492 0
M  V30 14374 C 1379.52 1.53555 -0.480584 0
M  V30 14375 O 1380.72 1.61085 -0.733538 0
M  V30 14376 C 1377.84 2.98549 -1.6948 0
M  V30 14377 C 1376.93 3.09929 -2.89491 0
M  V30 14378 N 1377.32 2.91198 -4.13567 0
M  V30 14379 C 1375.62 3.41029 -2.87428 0
M  V30 14380 C 1376.32 3.06761 -4.94239 0
M  V30 14381 N 1375.3 3.35639 -4.27606 0
M  V30 14382 H 1379.1 1.44111 -2.56143 0
M  V30 14383 H 1376.61 0.707088 -1.46199 0
M  V30 14384 H 1378.61 3.7749 -1.76938 0
M  V30 14385 H 1377.27 3.15446 -0.769658 0
M  V30 14386 H 1378.28 2.67373 -4.43545 0
M  V30 14387 H 1374.96 3.64103 -2.04293 0
M  V30 14388 H 1376.35 2.96772 -6.02807 0
M  V30 14389 N 1379.07 1.38501 0.752011 0
M  V30 14390 C 1380.31 1.34795 1.51118 0
M  V30 14391 C 1380.64 -0.0615084 1.94403 0
M  V30 14392 O 1379.9 -1.03892 1.65846 0
M  V30 14393 C 1380.2 2.25111 2.77596 0
M  V30 14394 C 1379.86 3.73052 2.53265 0
M  V30 14395 C 1378.52 4.13365 2.46339 0
M  V30 14396 C 1380.88 4.66692 2.32051 0
M  V30 14397 C 1378.2 5.45406 2.16216 0
M  V30 14398 C 1380.56 5.98992 2.03448 0
M  V30 14399 C 1379.22 6.38388 1.94979 0
M  V30 14400 H 1378.49 0.49325 0.552979 0
M  V30 14401 H 1381.14 1.70872 0.864588 0
M  V30 14402 H 1379.44 1.82096 3.46913 0
M  V30 14403 H 1381.14 2.19547 3.3556 0
M  V30 14404 H 1377.73 3.41091 2.59528 0
M  V30 14405 H 1381.91 4.36392 2.3638 0
M  V30 14406 H 1377.17 5.7487 2.08168 0
M  V30 14407 H 1381.34 6.71091 1.86037 0
M  V30 14408 H 1378.97 7.40625 1.71402 0
M  V30 14409 N 1380.55 -0.980364 1.23396 0
M  V30 14410 C 1381.5 -2.05753 0.982323 0
M  V30 14411 C 1382.48 -1.6074 -0.0716939 0
M  V30 14412 O 1383.67 -1.76442 0.140438 0
M  V30 14413 C 1380.8 -3.38442 0.575481 0
M  V30 14414 C 1379.89 -3.90054 1.6649 0
M  V30 14415 N 1380.28 -4.14744 2.89519 0
M  V30 14416 C 1378.58 -4.18588 1.53949 0
M  V30 14417 C 1379.28 -4.56877 3.60053 0
M  V30 14418 N 1378.25 -4.61309 2.87567 0
M  V30 14419 H 1382.05 -2.22801 1.91669 0
M  V30 14420 H 1379.57 -1.16314 1.13335 0
M  V30 14421 H 1381.57 -4.15197 0.376477 0
M  V30 14422 H 1380.23 -3.22788 -0.351844 0
M  V30 14423 H 1381.24 -4.02566 3.25824 0
M  V30 14424 H 1377.91 -4.11937 0.679275 0
M  V30 14425 H 1379.3 -4.84498 4.65523 0
M  V30 14426 N 1382.02 -1.04567 -1.17913 0
M  V30 14427 C 1383.25 -0.772146 -1.92491 0
M  V30 14428 C 1383.67 0.665297 -1.75942 0
M  V30 14429 O 1383.03 1.46144 -1.07292 0
M  V30 14430 C 1383.08 -1.14966 -3.41782 0
M  V30 14431 O 1382.18 -0.278091 -4.11461 0
M  V30 14432 H 1381.52 -0.283715 -0.600335 0
M  V30 14433 H 1384.05 -1.39685 -1.49496 0
M  V30 14434 H 1384.06 -1.11374 -3.92505 0
M  V30 14435 H 1382.74 -2.1968 -3.53148 0
M  V30 14436 H 1381.32 -0.374073 -3.71019 0
M  V30 14437 N 1383.5 1.34231 -0.825823 0
M  V30 14438 C 1384.46 2.27776 -0.25512 0
M  V30 14439 C 1385.46 1.50409 0.568654 0
M  V30 14440 O 1386.65 1.69907 0.384337 0
M  V30 14441 C 1383.79 3.348 0.642013 0
M  V30 14442 H 1384.98 2.79763 -1.0804 0
M  V30 14443 H 1382.53 1.44412 -0.597904 0
M  V30 14444 H 1383.27 2.88032 1.49024 0
M  V30 14445 H 1383.05 3.92064 0.0527756 0
M  V30 14446 H 1384.54 4.0457 1.03502 0
M  V30 14447 N 1384.98 0.581051 1.46498 0
M  V30 14448 C 1386.23 0.0658652 2.01993 0
M  V30 14449 C 1386.55 -1.29807 1.45516 0
M  V30 14450 O 1385.82 -1.85177 0.639233 0
M  V30 14451 H 1384.4 0.0213584 0.746695 0
M  V30 14452 H 1387.06 0.756456 1.79621 0
M  V30 14453 H 1386.16 -0.00438128 3.121 0
M  V30 14454 N 1386.46 -1.54343 0.318742 0
M  V30 14455 C 1387.39 -2.27118 -0.542206 0
M  V30 14456 C 1388.37 -1.27731 -1.12334 0
M  V30 14457 O 1389.55 -1.56535 -1.14937 0
M  V30 14458 C 1386.68 -3.02535 -1.70558 0
M  V30 14459 C 1385.64 -4.09218 -1.25398 0
M  V30 14460 C 1384.96 -4.72449 -2.50391 0
M  V30 14461 C 1386.26 -5.20971 -0.372332 0
M  V30 14462 H 1387.96 -2.9933 0.0648226 0
M  V30 14463 H 1385.5 -1.43963 0.0326168 0
M  V30 14464 H 1387.46 -3.52174 -2.31412 0
M  V30 14465 H 1386.18 -2.27931 -2.33912 0
M  V30 14466 H 1384.84 -3.60455 -0.668392 0
M  V30 14467 H 1384.49 -3.94466 -3.12099 0
M  V30 14468 H 1384.19 -5.4451 -2.20868 0
M  V30 14469 H 1385.71 -5.2486 -3.12016 0
M  V30 14470 H 1387.13 -5.66396 -0.887029 0
M  V30 14471 H 1385.52 -5.99859 -0.17009 0
M  V30 14472 H 1386.59 -4.81198 0.598064 0
M  V30 14473 N 1387.94 -0.0468143 -1.5753 0
M  V30 14474 C 1389.21 0.667567 -1.83856 0
M  V30 14475 C 1389.59 1.89297 -0.934346 0
M  V30 14476 O 1388.94 2.28499 0.00570067 0
M  V30 14477 C 1389.15 1.029 -3.33485 0
M  V30 14478 C 1390.5 1.41315 -4.00394 0
M  V30 14479 O 1391.52 1.12147 -3.38085 0
M  V30 14480 O 1390.38 1.95732 -5.10246 0
M  V30 14481 H 1387.48 0.329112 -0.758692 0
M  V30 14482 H 1390.02 -0.0758456 -1.6953 0
M  V30 14483 H 1388.79 0.157617 -3.90982 0
M  V30 14484 H 1388.42 1.83 -3.52982 0
M  V30 14485 N 1389.41 1.55964 0.226527 0
M  V30 14486 C 1390.64 1.82823 0.968673 0
M  V30 14487 C 1391.06 0.625281 1.78145 0
M  V30 14488 O 1390.41 -0.40617 1.77923 0
M  V30 14489 C 1390.47 3.08143 1.89024 0
M  V30 14490 O 1390.19 4.23797 1.11032 0
M  V30 14491 C 1391.69 3.47954 2.74669 0
M  V30 14492 H 1388.91 0.607876 0.284126 0
M  V30 14493 H 1391.45 2.03048 0.243258 0
M  V30 14494 H 1389.61 2.89908 2.56967 0
M  V30 14495 H 1390.02 4.94957 1.73546 0
M  V30 14496 H 1391.49 4.38691 3.35044 0
M  V30 14497 H 1391.97 2.69476 3.46813 0
M  V30 14498 H 1392.58 3.6861 2.12147 0
M  V30 14499 N 1390.89 -0.493031 1.4969 0
M  V30 14500 C 1391.83 -1.61165 1.61558 0
M  V30 14501 C 1392.8 -1.55828 0.464363 0
M  V30 14502 O 1393.99 -1.7577 0.680973 0
M  V30 14503 C 1391.11 -2.997 1.5779 0
M  V30 14504 C 1390.16 -3.2327 2.78207 0
M  V30 14505 S 1390.99 -3.05531 4.39785 0
M  V30 14506 C 1392.15 -4.46447 4.38675 0
M  V30 14507 H 1392.38 -1.50854 2.56185 0
M  V30 14508 H 1389.92 -0.678777 1.38679 0
M  V30 14509 H 1391.87 -3.79579 1.56302 0
M  V30 14510 H 1390.53 -3.07419 0.644379 0
M  V30 14511 H 1389.73 -4.24422 2.71812 0
M  V30 14512 H 1389.33 -2.51126 2.77149 0
M  V30 14513 H 1391.62 -5.38683 4.10886 0
M  V30 14514 H 1392.56 -4.5789 5.40132 0
M  V30 14515 H 1392.97 -4.27499 3.68652 0
M  V30 14516 N 1392.37 -1.38898 -0.744656 0
M  V30 14517 C 1393.28 -1.39098 -1.88915 0
M  V30 14518 C 1394.3 -0.286956 -1.71617 0
M  V30 14519 O 1395.47 -0.526852 -1.94387 0
M  V30 14520 C 1392.54 -1.22352 -3.24393 0
M  V30 14521 C 1391.6 -2.4264 -3.54153 0
M  V30 14522 C 1390.83 -2.26683 -4.83167 0
M  V30 14523 O 1391.05 -1.26523 -5.56191 0
M  V30 14524 O 1389.99 -3.15464 -5.12607 0
M  V30 14525 H 1393.81 -2.35551 -1.91701 0
M  V30 14526 H 1391.4 -1.19911 -0.891158 0
M  V30 14527 H 1393.28 -1.15109 -4.05374 0
M  V30 14528 H 1391.96 -0.289886 -3.22399 0
M  V30 14529 H 1390.86 -2.55459 -2.73298 0
M  V30 14530 H 1392.2 -3.34664 -3.60917 0
M  V30 14531 N 1393.85 0.973806 -1.23914 0
M  V30 14532 C 1395.09 1.731 -1.08701 0
M  V30 14533 C 1395.45 1.88425 0.368772 0
M  V30 14534 O 1396.65 2.61014 0.642259 0
M  V30 14535 C 1394.92 3.08777 -1.79977 0
M  V30 14536 S 1396.48 3.99993 -1.80419 0
M  V30 14537 H 1393.3 0.595219 -0.38889 0
M  V30 14538 H 1395.9 1.16291 -1.57152 0
M  V30 14539 H 1394.61 2.95278 -2.85024 0
M  V30 14540 H 1394.14 3.70652 -1.31835 0
M  V30 14541 H 1396.15 4.88558 -0.867494 0
M  V30 14542 N 1395.33 1.05191 1.17357 0
M  V30 14543 C 1396.57 0.763113 1.87895 0
M  V30 14544 C 1396.91 -0.708071 1.80831 0
M  V30 14545 O 1396.18 -1.51777 1.21631 0
M  V30 14546 C 1396.46 1.2442 3.37923 0
M  V30 14547 C 1396.32 2.77832 3.53737 0
M  V30 14548 C 1397.64 0.843209 4.31947 0
M  V30 14549 H 1394.75 0.27869 0.682276 0
M  V30 14550 H 1397.4 1.3059 1.38008 0
M  V30 14551 H 1395.55 0.782438 3.80539 0
M  V30 14552 H 1397.22 3.32131 3.20135 0
M  V30 14553 H 1395.46 3.17108 2.96015 0
M  V30 14554 H 1396.13 3.06555 4.59052 0
M  V30 14555 H 1398.61 1.24073 3.97171 0
M  V30 14556 H 1397.48 1.20743 5.35455 0
M  V30 14557 H 1397.75 -0.252802 4.41377 0
M  V30 14558 N 1396.8 -1.33791 0.83293 0
M  V30 14559 C 1397.73 -2.31853 0.276846 0
M  V30 14560 C 1398.72 -1.58702 -0.612184 0
M  V30 14561 O 1399.9 -1.86629 -0.536975 0
M  V30 14562 C 1397.03 -3.42855 -0.55385 0
M  V30 14563 C 1395.98 -4.27333 0.238884 0
M  V30 14564 C 1395.31 -5.29895 -0.715187 0
M  V30 14565 C 1396.61 -5.01692 1.45265 0
M  V30 14566 H 1398.3 -2.78611 1.09618 0
M  V30 14567 H 1395.85 -1.33949 0.528562 0
M  V30 14568 H 1397.8 -4.10479 -0.953133 0
M  V30 14569 H 1396.53 -2.94771 -1.40634 0
M  V30 14570 H 1395.19 -3.61325 0.619656 0
M  V30 14571 H 1394.83 -4.7807 -1.56391 0
M  V30 14572 H 1394.53 -5.87296 -0.188921 0
M  V30 14573 H 1396.06 -6.00387 -1.11211 0
M  V30 14574 H 1397.47 -5.62117 1.12685 0
M  V30 14575 H 1395.87 -5.68715 1.91528 0
M  V30 14576 H 1396.94 -4.30809 2.22558 0
M  V30 14577 N 1398.28 -0.588812 -1.46187 0
M  V30 14578 C 1399.19 0.143253 -2.34162 0
M  V30 14579 C 1400.21 0.879779 -1.5012 0
M  V30 14580 O 1401.38 0.841592 -1.82973 0
M  V30 14581 C 1398.45 1.14017 -3.27416 0
M  V30 14582 C 1397.51 0.407651 -4.2736 0
M  V30 14583 C 1396.74 1.35708 -5.16158 0
M  V30 14584 O 1396.97 2.59394 -5.08007 0
M  V30 14585 O 1395.9 0.864343 -5.95662 0
M  V30 14586 H 1399.73 -0.579228 -2.98125 0
M  V30 14587 H 1397.31 -0.349174 -1.45262 0
M  V30 14588 H 1399.19 1.71484 -3.8493 0
M  V30 14589 H 1397.87 1.84401 -2.66041 0
M  V30 14590 H 1396.78 -0.209011 -3.73516 0
M  V30 14591 H 1398.11 -0.255334 -4.91537 0
M  V30 14592 N 1399.76 1.54172 -0.326923 0
M  V30 14593 C 1400.69 2.27402 0.530154 0
M  V30 14594 C 1401.67 1.28325 1.11655 0
M  V30 14595 O 1402.86 1.57142 1.14105 0
M  V30 14596 C 1399.99 3.03435 1.68951 0
M  V30 14597 C 1398.94 4.09877 1.23226 0
M  V30 14598 C 1398.27 4.7377 2.47882 0
M  V30 14599 C 1399.57 5.21161 0.344698 0
M  V30 14600 H 1401.26 2.99291 -0.0806959 0
M  V30 14601 H 1398.81 1.43944 -0.0402511 0
M  V30 14602 H 1400.76 3.53396 2.29541 0
M  V30 14603 H 1399.48 2.29169 2.327 0
M  V30 14604 H 1398.14 3.60805 0.649267 0
M  V30 14605 H 1397.79 3.96116 3.10002 0
M  V30 14606 H 1397.49 5.45674 2.17977 0
M  V30 14607 H 1399.01 5.26507 3.09229 0
M  V30 14608 H 1400.43 5.66859 0.856979 0
M  V30 14609 H 1398.83 5.99941 0.138276 0
M  V30 14610 H 1399.9 4.80874 -0.623575 0
M  V30 14611 N 1401.24 0.0551678 1.57503 0
M  V30 14612 C 1402.47 -0.6272 1.97164 0
M  V30 14613 C 1402.88 -1.64143 0.932876 0
M  V30 14614 O 1402.24 -1.82314 -0.0824465 0
M  V30 14615 C 1402.29 -1.31057 3.36907 0
M  V30 14616 O 1402.01 -0.336951 4.36802 0
M  V30 14617 C 1403.51 -2.08232 3.91349 0
M  V30 14618 H 1400.73 -0.171196 0.648793 0
M  V30 14619 H 1403.28 0.122651 2.04132 0
M  V30 14620 H 1401.43 -2.01162 3.31078 0
M  V30 14621 H 1401.84 -0.825204 5.17968 0
M  V30 14622 H 1403.32 -2.51463 4.91397 0
M  V30 14623 H 1403.8 -2.93212 3.26991 0
M  V30 14624 H 1404.4 -1.43029 4.00528 0
M  V30 14625 N 1402.72 -1.56081 -0.218252 0
M  V30 14626 C 1403.68 -1.91851 -1.25402 0
M  V30 14627 C 1404.68 -0.797399 -1.39636 0
M  V30 14628 O 1405.87 -1.06511 -1.37844 0
M  V30 14629 C 1403 -2.17223 -2.6273 0
M  V30 14630 H 1404.19 -2.84493 -0.948882 0
M  V30 14631 H 1401.75 -1.49414 -0.458809 0
M  V30 14632 H 1402.48 -1.27144 -2.98337 0
M  V30 14633 H 1402.27 -2.98899 -2.53775 0
M  V30 14634 H 1403.76 -2.45981 -3.37466 0
M  V30 14635 N 1404.2 0.485086 -1.49949 0
M  V30 14636 C 1405.11 1.61089 -1.70551 0
M  V30 14637 C 1406.12 1.63752 -0.588333 0
M  V30 14638 O 1407.3 1.81879 -0.86498 0
M  V30 14639 C 1404.36 2.97382 -1.78227 0
M  V30 14640 C 1403.42 3.05219 -3.01894 0
M  V30 14641 C 1402.66 4.35011 -3.09195 0
M  V30 14642 O 1402.88 5.24722 -2.23658 0
M  V30 14643 O 1401.81 4.48151 -4.01802 0
M  V30 14644 H 1405.64 1.46633 -2.65956 0
M  V30 14645 H 1403.22 0.663091 -1.33879 0
M  V30 14646 H 1405.11 3.78356 -1.85538 0
M  V30 14647 H 1403.78 3.12066 -0.860043 0
M  V30 14648 H 1402.69 2.23373 -3.00092 0
M  V30 14649 H 1404.02 2.95467 -3.93649 0
M  V30 14650 N 1405.67 1.39291 0.737279 0
M  V30 14651 C 1406.95 1.26901 1.48847 0
M  V30 14652 C 1407.33 -0.122417 2.10745 0
M  V30 14653 O 1406.68 -1.13343 1.98408 0
M  V30 14654 C 1406.89 2.3916 2.54172 0
M  V30 14655 C 1408.24 2.78368 3.20619 0
M  V30 14656 O 1409.26 2.38593 2.64484 0
M  V30 14657 O 1408.12 3.47014 4.22189 0
M  V30 14658 H 1405.21 0.497176 0.660867 0
M  V30 14659 H 1407.76 1.51159 0.771299 0
M  V30 14660 H 1406.53 3.3219 2.06797 0
M  V30 14661 H 1406.15 2.16555 3.33451 0
M  V30 14662 N 1407.15 -0.967221 1.24429 0
M  V30 14663 C 1408.08 -2.07966 1.06172 0
M  V30 14664 C 1409.06 -1.70081 -0.0254566 0
M  V30 14665 O 1410.25 -1.93682 0.141705 0
M  V30 14666 C 1407.38 -3.4085 0.666251 0
M  V30 14667 C 1406.33 -3.92692 1.70225 0
M  V30 14668 C 1405.66 -5.21925 1.16183 0
M  V30 14669 C 1406.96 -4.20478 3.09831 0
M  V30 14670 H 1408.65 -2.23497 1.99222 0
M  V30 14671 H 1406.2 -1.07398 0.959255 0
M  V30 14672 H 1408.15 -4.1811 0.52552 0
M  V30 14673 H 1406.87 -3.2522 -0.299939 0
M  V30 14674 H 1405.53 -3.17588 1.83121 0
M  V30 14675 H 1405.18 -5.02655 0.186237 0
M  V30 14676 H 1404.88 -5.57579 1.85416 0
M  V30 14677 H 1406.41 -6.01795 1.03323 0
M  V30 14678 H 1407.82 -4.88442 3.00162 0
M  V30 14679 H 1406.22 -4.67362 3.7642 0
M  V30 14680 H 1407.29 -3.27235 3.57834 0
M  V30 14681 N 1408.63 -1.05812 -1.16797 0
M  V30 14682 C 1409.86 -0.792519 -1.9112 0
M  V30 14683 C 1410.27 0.652549 -1.77164 0
M  V30 14684 O 1409.63 1.44633 -1.113 0
M  V30 14685 C 1409.68 -1.17172 -3.41984 0
M  V30 14686 O 1409.4 -2.56008 -3.55516 0
M  V30 14687 C 1410.9 -0.933162 -4.33367 0
M  V30 14688 H 1408.12 -0.28768 -0.606202 0
M  V30 14689 H 1410.67 -1.41046 -1.48075 0
M  V30 14690 H 1408.82 -0.598413 -3.8275 0
M  V30 14691 H 1409.24 -2.71053 -4.49033 0
M  V30 14692 H 1410.71 -1.24817 -5.37703 0
M  V30 14693 H 1411.19 0.131345 -4.39004 0
M  V30 14694 H 1411.79 -1.49062 -3.98322 0
M  V30 14695 N 1410.11 1.33347 -0.840014 0
M  V30 14696 C 1411.04 2.28029 -0.231432 0
M  V30 14697 C 1412.05 1.51792 0.588488 0
M  V30 14698 O 1413.24 1.736 0.415371 0
M  V30 14699 C 1410.34 3.31745 0.692721 0
M  V30 14700 C 1409.51 4.37311 -0.0881144 0
M  V30 14701 C 1408.57 5.20689 0.759557 0
M  V30 14702 O 1407.6 5.68854 0.198347 0
M  V30 14703 N 1408.8 5.42082 2.07672 0
M  V30 14704 H 1411.57 2.80893 -1.04495 0
M  V30 14705 H 1409.13 1.46053 -0.698586 0
M  V30 14706 H 1411.12 3.84428 1.2648 0
M  V30 14707 H 1409.69 2.79148 1.40695 0
M  V30 14708 H 1408.91 3.85112 -0.841579 0
M  V30 14709 H 1410.2 5.04947 -0.624986 0
M  V30 14710 H 1409.6 5.04654 2.55619 0
M  V30 14711 H 1408.15 5.97817 2.59726 0
M  V30 14712 N 1411.59 0.596556 1.45873 0
M  V30 14713 C 1412.52 -0.177354 2.2751 0
M  V30 14714 C 1413.5 -0.883999 1.36471 0
M  V30 14715 O 1414.68 -0.895098 1.65892 0
M  V30 14716 C 1411.81 -1.25567 3.14564 0
M  V30 14717 C 1410.85 -0.653363 4.21466 0
M  V30 14718 S 1411.69 0.53036 5.32867 0
M  V30 14719 C 1412.84 -0.548817 6.23489 0
M  V30 14720 H 1413.08 0.515289 2.928 0
M  V30 14721 H 1410.61 0.383791 1.49554 0
M  V30 14722 H 1412.57 -1.87298 3.6528 0
M  V30 14723 H 1411.23 -1.92033 2.4856 0
M  V30 14724 H 1410.42 -1.46435 4.82258 0
M  V30 14725 H 1410.02 -0.111425 3.73834 0
M  V30 14726 H 1412.31 -1.43085 6.62218 0
M  V30 14727 H 1413.26 0.0226785 7.08096 0
M  V30 14728 H 1413.67 -0.859188 5.57923 0
M  V30 14729 N 1413.06 -1.53996 0.335095 0
M  V30 14730 C 1414.31 -2.00375 -0.263475 0
M  V30 14731 C 1414.63 -1.22471 -1.51742 0
M  V30 14732 O 1413.9 -0.329604 -1.93107 0
M  V30 14733 H 1412.48 -0.740229 -0.100347 0
M  V30 14734 H 1415.14 -1.89531 0.454302 0
M  V30 14735 H 1414.24 -3.07874 -0.511834 0
M  V30 14736 N 1414.54 -0.0635198 -1.57472 0
M  V30 14737 C 1415.79 0.607008 -1.92349 0
M  V30 14738 C 1416.1 1.71268 -0.944806 0
M  V30 14739 O 1417.31 2.44221 -1.18609 0
M  V30 14740 C 1415.77 1.13105 -3.41666 0
M  V30 14741 C 1415.37 0.0568256 -4.47964 0
M  V30 14742 C 1417.12 1.77611 -3.85557 0
M  V30 14743 C 1415.02 0.594443 -5.88405 0
M  V30 14744 H 1413.95 0.230506 -0.717902 0
M  V30 14745 H 1416.61 -0.134413 -1.83007 0
M  V30 14746 H 1414.99 1.92517 -3.46054 0
M  V30 14747 H 1416.16 -0.717371 -4.55182 0
M  V30 14748 H 1414.48 -0.491517 -4.13489 0
M  V30 14749 H 1417.07 2.18852 -4.87861 0
M  V30 14750 H 1417.42 2.6328 -3.22474 0
M  V30 14751 H 1417.95 1.04834 -3.83738 0
M  V30 14752 H 1414.69 -0.224893 -6.55114 0
M  V30 14753 H 1414.21 1.33635 -5.84724 0
M  V30 14754 H 1415.89 1.07346 -6.38033 0
M  V30 14755 N 1416.02 1.56195 0.209972 0
M  V30 14756 C 1417.25 1.8384 0.949228 0
M  V30 14757 C 1417.66 0.644141 1.77472 0
M  V30 14758 O 1417.02 -0.387276 1.78344 0
M  V30 14759 C 1417.07 3.10131 1.85745 0
M  V30 14760 O 1416.79 4.2495 1.06531 0
M  V30 14761 C 1418.29 3.50847 2.70963 0
M  V30 14762 H 1415.51 0.610856 0.277662 0
M  V30 14763 H 1418.06 2.03295 0.221708 0
M  V30 14764 H 1416.21 2.92618 2.53877 0
M  V30 14765 H 1416.63 4.96769 1.68287 0
M  V30 14766 H 1418.1 4.4222 3.30372 0
M  V30 14767 H 1418.58 2.73139 3.43936 0
M  V30 14768 H 1419.18 3.7084 2.08226 0
M  V30 14769 N 1417.5 -0.477127 1.50204 0
M  V30 14770 C 1418.43 -1.58405 1.71552 0
M  V30 14771 C 1419.41 -1.60463 0.564413 0
M  V30 14772 O 1420.59 -1.76826 0.802893 0
M  V30 14773 C 1417.72 -2.96765 1.8041 0
M  V30 14774 C 1416.68 -3.09573 2.95548 0
M  V30 14775 C 1416 -4.49522 2.89542 0
M  V30 14776 C 1417.3 -2.87356 4.36147 0
M  V30 14777 H 1419 -1.40792 2.64231 0
M  V30 14778 H 1416.54 -0.675886 1.27153 0
M  V30 14779 H 1418.5 -3.74125 1.9393 0
M  V30 14780 H 1417.22 -3.1552 0.843489 0
M  V30 14781 H 1415.88 -2.34645 2.81669 0
M  V30 14782 H 1415.53 -4.65186 1.91339 0
M  V30 14783 H 1415.23 -4.59028 3.66834 0
M  V30 14784 H 1416.75 -5.28909 3.05102 0
M  V30 14785 H 1418.17 -3.54469 4.50583 0
M  V30 14786 H 1416.56 -3.08313 5.14843 0
M  V30 14787 H 1417.63 -1.83264 4.48935 0
M  V30 14788 N 1418.98 -1.3968 -0.729882 0
M  V30 14789 C 1420.39 -1.33184 -1.30839 0
M  V30 14790 C 1420.74 0.00141129 -1.962 0
M  V30 14791 O 1419.86 0.903523 -1.96635 0
M  V30 14792 C 1420.46 -2.41211 -2.37913 0
M  V30 14793 C 1419.02 -2.3822 -2.91424 0
M  V30 14794 C 1418.16 -2.22832 -1.65049 0
M  V30 14795 H 1421.12 -1.49694 -0.527023 0
M  V30 14796 H 1421.14 -2.08294 -3.18424 0
M  V30 14797 H 1420.65 -3.38234 -1.90313 0
M  V30 14798 H 1418.75 -1.4485 -3.43292 0
M  V30 14799 H 1418.86 -3.33271 -3.44191 0
M  V30 14800 H 1417.23 -1.70095 -1.89578 0
M  V30 14801 H 1418.01 -3.21832 -1.19494 0
M  V30 14802 N 1420.45 0.960609 -1.2494 0
M  V30 14803 C 1421.7 1.70111 -1.09117 0
M  V30 14804 C 1422.02 1.91466 0.369544 0
M  V30 14805 O 1421.29 1.49749 1.26302 0
M  V30 14806 H 1419.87 0.630372 -0.400799 0
M  V30 14807 H 1422.54 1.15525 -1.56971 0
M  V30 14808 H 1421.63 2.68277 -1.5948 0
M  V30 14809 N 1421.93 1.0643 1.16234 0
M  V30 14810 C 1422.88 0.646274 2.18649 0
M  V30 14811 C 1423.87 -0.323768 1.57609 0
M  V30 14812 O 1425.06 -0.138991 1.76453 0
M  V30 14813 C 1422.19 0.0356797 3.43281 0
M  V30 14814 C 1421.27 1.0303 4.11395 0
M  V30 14815 N 1421.66 2.2064 4.55139 0
M  V30 14816 C 1419.96 0.861544 4.376 0
M  V30 14817 C 1420.66 2.83665 5.07848 0
M  V30 14818 N 1419.64 2.11384 5.00817 0
M  V30 14819 H 1423.44 1.54217 2.50189 0
M  V30 14820 H 1420.96 0.936176 1.32701 0
M  V30 14821 H 1422.95 -0.281637 4.15948 0
M  V30 14822 H 1421.61 -0.855453 3.13228 0
M  V30 14823 H 1422.62 2.58409 4.48826 0
M  V30 14824 H 1419.3 0.0225171 4.17494 0
M  V30 14825 H 1420.69 3.83473 5.51723 0
M  V30 14826 N 1423.41 -1.329 0.847073 0
M  V30 14827 C 1424.34 -2.27903 0.243522 0
M  V30 14828 C 1425.36 -1.52101 -0.58043 0
M  V30 14829 O 1426.54 -1.73818 -0.406158 0
M  V30 14830 C 1423.64 -3.32107 -0.675118 0
M  V30 14831 C 1422.82 -4.37258 0.111305 0
M  V30 14832 C 1421.88 -5.21085 -0.731933 0
M  V30 14833 O 1420.9 -5.68951 -0.168176 0
M  V30 14834 N 1422.1 -5.43175 -2.04794 0
M  V30 14835 H 1424.87 -2.80335 1.05983 0
M  V30 14836 H 1422.43 -1.4568 0.706322 0
M  V30 14837 H 1424.42 -3.85093 -1.2444 0
M  V30 14838 H 1422.99 -2.79891 -1.39212 0
M  V30 14839 H 1422.21 -3.8466 0.861991 0
M  V30 14840 H 1423.5 -5.04608 0.651756 0
M  V30 14841 H 1422.9 -5.06002 -2.5294 0
M  V30 14842 H 1421.46 -5.99186 -2.56552 0
M  V30 14843 N 1424.89 -0.604284 -1.45555 0
M  V30 14844 C 1425.84 0.116491 -2.30506 0
M  V30 14845 C 1426.81 0.863214 -1.41908 0
M  V30 14846 O 1427.99 0.849606 -1.7084 0
M  V30 14847 C 1425.13 1.11009 -3.26758 0
M  V30 14848 C 1424.24 0.36458 -4.30459 0
M  V30 14849 C 1423.38 1.34761 -5.13822 0
M  V30 14850 C 1422.42 0.589724 -6.09253 0
M  V30 14851 N 1421.55 1.52187 -6.85408 0
M  V30 14852 H 1426.39 -0.61394 -2.91607 0
M  V30 14853 H 1423.93 -0.314561 -1.43697 0
M  V30 14854 H 1425.89 1.69925 -3.81027 0
M  V30 14855 H 1424.52 1.80797 -2.67418 0
M  V30 14856 H 1423.57 -0.340026 -3.78877 0
M  V30 14857 H 1424.88 -0.226906 -4.98284 0
M  V30 14858 H 1424.04 2.00893 -5.72474 0
M  V30 14859 H 1422.78 1.97302 -4.46008 0
M  V30 14860 H 1421.78 -0.0852486 -5.49734 0
M  V30 14861 H 1423.01 -0.0306001 -6.79093 0
M  V30 14862 H 1420.95 2.13499 -6.20286 0
M  V30 14863 H 1420.87 0.983737 -7.49572 0
M  V30 14864 H 1422.14 2.17287 -7.48603 0
M  V30 14865 N 1426.37 1.53816 -0.343257 0
M  V30 14866 C 1427.78 1.59598 0.00867849 0
M  V30 14867 C 1427.98 1.35922 1.48753 0
M  V30 14868 O 1427.04 1.15334 2.2462 0
M  V30 14869 C 1428.35 2.97649 -0.427234 0
M  V30 14870 C 1429.9 3.1069 -0.379554 0
M  V30 14871 C 1430.37 4.51119 -0.79093 0
M  V30 14872 N 1431.87 4.57168 -0.745105 0
M  V30 14873 C 1432.6 5.63975 -1.03537 0
M  V30 14874 N 1432.1 6.78635 -1.39377 0
M  V30 14875 N 1433.89 5.53848 -0.959628 0
M  V30 14876 H 1426.04 1.6746 -1.30656 0
M  V30 14877 H 1428.3 0.784254 -0.532588 0
M  V30 14878 H 1428.01 3.2004 -1.45834 0
M  V30 14879 H 1427.88 3.76682 0.197704 0
M  V30 14880 H 1430.27 2.88024 0.642376 0
M  V30 14881 H 1430.35 2.33718 -1.03969 0
M  V30 14882 H 1430 4.74521 -1.81087 0
M  V30 14883 H 1429.93 5.26489 -0.108274 0
M  V30 14884 H 1432.42 3.7483 -0.480752 0
M  V30 14885 H 1432.73 7.56053 -1.60011 0
M  V30 14886 H 1431.07 6.80083 -1.43222 0
M  V30 14887 H 1434.27 4.6315 -0.678974 0
M  V30 14888 H 1434.44 6.36995 -1.18919 0
M  V30 14889 N 1427.84 0.0718701 1.57436 0
M  V30 14890 C 1429.09 -0.596799 1.92669 0
M  V30 14891 C 1429.41 -1.70765 0.953876 0
M  V30 14892 O 1430.61 -2.43589 1.19903 0
M  V30 14893 C 1429.07 -1.11291 3.42261 0
M  V30 14894 C 1428.68 -0.0330681 4.47988 0
M  V30 14895 C 1430.42 -1.75564 3.86494 0
M  V30 14896 C 1428.33 -0.56323 5.88712 0
M  V30 14897 H 1427.26 -0.226695 0.719114 0
M  V30 14898 H 1429.91 0.144117 1.82933 0
M  V30 14899 H 1428.29 -1.9068 3.4707 0
M  V30 14900 H 1429.46 0.741501 4.54795 0
M  V30 14901 H 1427.78 0.513438 4.13222 0
M  V30 14902 H 1430.38 -2.16261 4.89014 0
M  V30 14903 H 1430.72 -2.61566 3.23865 0
M  V30 14904 H 1431.25 -1.02798 3.84288 0
M  V30 14905 H 1427.99 0.259632 6.54986 0
M  V30 14906 H 1427.51 -1.30532 5.85424 0
M  V30 14907 H 1429.19 -1.03961 6.38593 0
M  V30 14908 N 1429.32 -1.56304 -0.201686 0
M  V30 14909 C 1430.25 -1.97046 -1.25281 0
M  V30 14910 C 1431.23 -0.841458 -1.47829 0
M  V30 14911 O 1432.42 -1.10529 -1.59678 0
M  V30 14912 C 1429.55 -2.30429 -2.59845 0
M  V30 14913 C 1428.5 -3.46006 -2.5192 0
M  V30 14914 C 1427.83 -3.65047 -3.90697 0
M  V30 14915 C 1429.13 -4.80391 -2.04992 0
M  V30 14916 H 1430.82 -2.85099 -0.914272 0
M  V30 14917 H 1428.37 -1.37166 -0.438359 0
M  V30 14918 H 1430.32 -2.57525 -3.33555 0
M  V30 14919 H 1429.05 -1.39251 -2.95426 0
M  V30 14920 H 1427.7 -3.18991 -1.80667 0
M  V30 14921 H 1427.35 -2.71211 -4.2362 0
M  V30 14922 H 1427.05 -4.42796 -3.86271 0
M  V30 14923 H 1428.58 -3.94512 -4.66039 0
M  V30 14924 H 1429.99 -5.06561 -2.68456 0
M  V30 14925 H 1428.39 -5.61563 -2.11582 0
M  V30 14926 H 1429.46 -4.74416 -1.00288 0
M  V30 14927 N 1430.8 0.469154 -1.50455 0
M  V30 14928 C 1432.04 1.23092 -1.6318 0
M  V30 14929 C 1432.4 1.89215 -0.325829 0
M  V30 14930 O 1433.61 2.66785 -0.328531 0
M  V30 14931 C 1431.88 2.24527 -2.78069 0
M  V30 14932 S 1433.44 3.09617 -3.10938 0
M  V30 14933 H 1430.25 0.417887 -0.575232 0
M  V30 14934 H 1432.86 0.527616 -1.88246 0
M  V30 14935 H 1431.56 1.74534 -3.71438 0
M  V30 14936 H 1431.09 2.99483 -2.55095 0
M  V30 14937 H 1433.11 4.25716 -2.54913 0
M  V30 14938 N 1432.28 1.40065 0.722464 0
M  V30 14939 C 1433.5 1.4146 1.5167 0
M  V30 14940 C 1433.93 0.0142653 1.88095 0
M  V30 14941 O 1433.29 -0.975934 1.52791 0
M  V30 14942 C 1433.33 2.30531 2.77287 0
M  V30 14943 O 1432.44 1.74382 3.73717 0
M  V30 14944 H 1431.78 0.481194 0.457546 0
M  V30 14945 H 1434.31 1.84213 0.890331 0
M  V30 14946 H 1434.32 2.45479 3.25889 0
M  V30 14947 H 1432.99 3.32292 2.50109 0
M  V30 14948 H 1431.57 1.68743 3.32536 0
M  V30 14949 N 1433.76 -0.95397 1.25448 0
M  V30 14950 C 1435.01 -1.69305 1.09631 0
M  V30 14951 C 1435.32 -1.92213 -0.362413 0
M  V30 14952 O 1436.53 -2.63824 -0.641036 0
M  V30 14953 C 1434.98 -3.04805 1.91369 0
M  V30 14954 C 1434.59 -2.8969 3.41737 0
M  V30 14955 C 1436.33 -3.82491 1.84123 0
M  V30 14956 C 1434.24 -4.20584 4.15768 0
M  V30 14957 H 1433.17 -0.63494 0.406654 0
M  V30 14958 H 1435.82 -1.06195 1.49649 0
M  V30 14959 H 1434.2 -3.68822 1.44174 0
M  V30 14960 H 1435.38 -2.346 3.9661 0
M  V30 14961 H 1433.69 -2.25458 3.50082 0
M  V30 14962 H 1436.29 -4.79442 2.36727 0
M  V30 14963 H 1436.63 -4.08358 0.809265 0
M  V30 14964 H 1437.17 -3.25224 2.29072 0
M  V30 14965 H 1433.9 -3.99905 5.19381 0
M  V30 14966 H 1433.42 -4.75436 3.65678 0
M  V30 14967 H 1435.1 -4.89122 4.2352 0
M  V30 14968 N 1435.24 -1.07045 -1.15668 0
M  V30 14969 C 1436.17 -0.645945 -2.1991 0
M  V30 14970 C 1437.18 0.29995 -1.60013 0
M  V30 14971 O 1438.37 0.0897537 -1.78274 0
M  V30 14972 C 1435.47 0.0721917 -3.38823 0
M  V30 14973 C 1434.64 -0.889103 -4.28268 0
M  V30 14974 C 1433.7 -0.208829 -5.25785 0
M  V30 14975 O 1432.73 -0.848894 -5.62834 0
M  V30 14976 N 1433.93 1.04671 -5.70985 0
M  V30 14977 H 1436.69 -1.54266 -2.56948 0
M  V30 14978 H 1434.26 -0.954736 -1.30753 0
M  V30 14979 H 1436.25 0.537882 -4.0111 0
M  V30 14980 H 1434.82 0.870805 -3.00226 0
M  V30 14981 H 1434.04 -1.53399 -3.63129 0
M  V30 14982 H 1435.33 -1.54097 -4.84904 0
M  V30 14983 H 1434.72 1.58673 -5.42991 0
M  V30 14984 H 1433.28 1.45613 -6.35327 0
M  V30 14985 N 1436.71 1.32449 -0.85411 0
M  V30 14986 C 1437.96 1.96881 -0.45632 0
M  V30 14987 C 1438.28 1.67926 0.991248 0
M  V30 14988 O 1437.55 0.986195 1.69266 0
M  V30 14989 H 1436.13 0.728378 -0.165752 0
M  V30 14990 H 1438.79 1.61542 -1.09042 0
M  V30 14991 H 1437.89 3.0626 -0.600927 0
M  V30 14992 N 1438.19 0.611994 1.45232 0
M  V30 14993 C 1439.44 0.108911 2.02207 0
M  V30 14994 C 1439.77 -1.26219 1.47983 0
M  V30 14995 O 1439.02 -1.84718 0.646368 0
M  V30 14996 C 1439.32 0.0243361 3.57392 0
M  V30 14997 C 1438.99 1.33168 4.30787 0
M  V30 14998 C 1437.65 1.68978 4.50555 0
M  V30 14999 C 1440 2.19549 4.72703 0
M  V30 15000 C 1437.33 2.90913 5.09496 0
M  V30 15001 C 1439.68 3.40737 5.32993 0
M  V30 15002 C 1438.34 3.76794 5.50983 0
M  V30 15003 H 1437.61 0.0398534 0.739927 0
M  V30 15004 H 1440.26 0.794492 1.74241 0
M  V30 15005 H 1438.57 -0.74453 3.84661 0
M  V30 15006 H 1440.26 -0.381139 3.99185 0
M  V30 15007 H 1436.85 1.04296 4.15717 0
M  V30 15008 H 1441.04 1.93181 4.57159 0
M  V30 15009 H 1436.29 3.1895 5.21614 0
M  V30 15010 H 1440.47 4.07919 5.64425 0
M  V30 15011 H 1438.09 4.71364 5.96423 0
M  V30 15012 N 1439.67 -1.53632 0.351409 0
M  V30 15013 C 1440.62 -2.25281 -0.501724 0
M  V30 15014 C 1441.59 -1.25406 -1.08915 0
M  V30 15015 O 1442.77 -1.54157 -1.1243 0
M  V30 15016 C 1439.91 -3.03491 -1.64278 0
M  V30 15017 C 1439.02 -4.18233 -1.0819 0
M  V30 15018 C 1438.16 -4.83914 -2.1909 0
M  V30 15019 C 1437.2 -5.90712 -1.60394 0
M  V30 15020 N 1436.34 -6.50141 -2.65068 0
M  V30 15021 H 1441.18 -2.97775 0.11579 0
M  V30 15022 H 1438.71 -1.46938 0.0689141 0
M  V30 15023 H 1440.67 -3.47101 -2.31467 0
M  V30 15024 H 1439.3 -2.33279 -2.23116 0
M  V30 15025 H 1438.35 -3.7921 -0.300713 0
M  V30 15026 H 1439.66 -4.95023 -0.612644 0
M  V30 15027 H 1438.82 -5.30635 -2.94128 0
M  V30 15028 H 1437.56 -4.06565 -2.69362 0
M  V30 15029 H 1436.56 -5.43366 -0.838646 0
M  V30 15030 H 1437.79 -6.69973 -1.10964 0
M  V30 15031 H 1435.73 -5.75652 -3.14581 0
M  V30 15032 H 1435.65 -7.22427 -2.22788 0
M  V30 15033 H 1436.92 -7.01513 -3.39852 0
M  V30 15034 N 1441.15 -0.0802183 -1.57396 0
M  V30 15035 C 1442.42 0.628419 -1.8523 0
M  V30 15036 C 1442.8 1.87272 -0.974288 0
M  V30 15037 O 1442.15 2.2846 -0.0427687 0
M  V30 15038 C 1442.36 0.958033 -3.35593 0
M  V30 15039 C 1443.71 1.3279 -4.03301 0
M  V30 15040 O 1444.73 1.04951 -3.40388 0
M  V30 15041 O 1443.59 1.84865 -5.14283 0
M  V30 15042 H 1440.69 0.312945 -0.765503 0
M  V30 15043 H 1443.23 -0.111788 -1.69331 0
M  V30 15044 H 1442.01 0.074648 -3.91229 0
M  V30 15045 H 1441.63 1.75472 -3.56785 0
M  V30 15046 O 1442.66 1.61388 0.0601961 0
M  V30 15047 H 1443.36 1.81196 0.684678 0
M  V30 END ATOM
M  V30 BEGIN BOND
M  V30 END BOND
M  V30 END CTAB
M  END
$$$$
