drugbank_target|O75311 Glycine receptor subunit alpha-3 (DB00145; DB00431; DB00466; DB00602; DB01956; DB09061; DB14009; DB14011)
 OpenBabel12092119313D

  0  0  0     0  0            999 V3000
M  V30 BEGIN CTAB
M  V30 COUNTS 7562 7660 0 0 0
M  V30 BEGIN ATOM
M  V30 1 H -0.908 1.98254 -0.117106 0
M  V30 2 N 0 1.576 0 0
M  V30 3 C 0.933 2.03868 1.02534 0
M  V30 4 C 1.911 0.928543 1.3348 0
M  V30 5 O 3.095 1.19667 1.45644 0
M  V30 6 C 0.222 2.43627 2.35294 0
M  V30 7 C -0.732 3.65373 2.2001 0
M  V30 8 S 0.101 5.13292 1.52614 0
M  V30 9 C 1.257 5.56322 2.86805 0
M  V30 10 H 1.49 2.90518 0.631377 0
M  V30 11 H -0.977 1.52953 0.210867 0
M  V30 12 H 0.981 2.67203 3.11629 0
M  V30 13 H -0.358 1.57376 2.7183 0
M  V30 14 H -1.165 3.90944 3.18086 0
M  V30 15 H -1.563 3.418 1.51819 0
M  V30 16 H 0.729 5.58782 3.83104 0
M  V30 17 H 1.672 6.56266 2.65933 0
M  V30 18 H 2.08 4.83886 2.90714 0
M  V30 19 N 1.4781 -0.272755 1.55222 0
M  V30 20 C 2.4411 -1.32041 1.87344 0
M  V30 21 C 3.4411 -1.42342 0.74803 0
M  V30 22 O 4.6311 -1.41488 1.0162 0
M  V30 23 C 1.7631 -2.70173 2.07893 0
M  V30 24 H 2.9561 -1.04789 2.80997 0
M  V30 25 H 0.5091 -0.51083 1.47717 0
M  V30 26 H 1.2441 -3.02605 1.16622 0
M  V30 27 H 1.0291 -2.64082 2.89833 0
M  V30 28 H 2.5191 -3.45869 2.34017 0
M  V30 29 N 2.9562 -1.48159 -0.537278 0
M  V30 30 C 3.9062 -1.5854 -1.63857 0
M  V30 31 C 4.8902 -0.442969 -1.54682 0
M  V30 32 O 6.0822 -0.69401 -1.62827 0
M  V30 33 C 3.2112 -1.62144 -3.02596 0
M  V30 34 C 2.2972 -2.81841 -3.16901 0
M  V30 35 N 2.6882 -4.06337 -3.01204 0
M  V30 36 C 0.9862 -2.79021 -3.47942 0
M  V30 37 C 1.6872 -4.86606 -3.18731 0
M  V30 38 N 0.6632 -4.19288 -3.45974 0
M  V30 39 H 4.4652 -2.5255 -1.50319 0
M  V30 40 H 1.9792 -1.4443 -0.742555 0
M  V30 41 H 3.9762 -1.67674 -3.81695 0
M  V30 42 H 2.6362 -0.69245 -3.17231 0
M  V30 43 H 3.6472 -4.36888 -2.78117 0
M  V30 44 H 0.3242 -1.95347 -3.6898 0
M  V30 45 H 1.7142 -5.95385 -3.11394 0
M  V30 46 N 4.4343 0.785586 -1.36625 0
M  V30 47 C 5.6803 1.54591 -1.31261 0
M  V30 48 C 6.0133 1.93906 0.106823 0
M  V30 49 O 5.2883 1.63007 1.06108 0
M  V30 50 C 5.5713 2.82038 -2.23889 0
M  V30 51 C 5.4243 2.49066 -3.74548 0
M  V30 52 C 6.7433 3.83887 -2.15217 0
M  V30 53 H 3.8623 0.560846 -0.478143 0
M  V30 54 H 6.5043 0.902278 -1.67209 0
M  V30 55 H 4.6543 3.36961 -1.93363 0
M  V30 56 H 6.3263 2.00164 -4.15611 0
M  V30 57 H 4.5693 1.81954 -3.93796 0
M  V30 58 H 5.2403 3.40109 -4.34776 0
M  V30 59 H 7.7163 3.38421 -2.42096 0
M  V30 60 H 6.5923 4.70806 -2.82193 0
M  V30 61 H 6.8533 4.27131 -1.14068 0
M  V30 62 N 5.9124 1.20967 1.01018 0
M  V30 63 C 7.3284 0.965905 1.27053 0
M  V30 64 C 7.5284 -0.350785 1.98423 0
M  V30 65 O 6.5844 -1.07773 2.28344 0
M  V30 66 C 7.8974 2.15294 2.09926 0
M  V30 67 C 9.4454 2.19463 2.23171 0
M  V30 68 C 9.9204 3.3767 3.09424 0
M  V30 69 N 11.4114 3.37724 3.17012 0
M  V30 70 C 12.1464 4.25837 3.83993 0
M  V30 71 N 11.6424 5.24138 4.53047 0
M  V30 72 N 13.4354 4.1366 3.80581 0
M  V30 73 H 5.5864 2.0565 0.531194 0
M  V30 74 H 7.8494 0.90024 0.297106 0
M  V30 75 H 7.5554 3.10684 1.64828 0
M  V30 76 H 7.4294 2.13923 3.10672 0
M  V30 77 H 9.8164 1.24632 2.6749 0
M  V30 78 H 9.8974 2.2488 1.21912 0
M  V30 79 H 9.5414 4.32791 2.65808 0
M  V30 80 H 9.4714 3.29491 4.10784 0
M  V30 81 H 11.9624 2.6658 2.6785 0
M  V30 82 H 12.2754 5.87684 5.01844 0
M  V30 83 H 10.6204 5.28068 4.5185 0
M  V30 84 H 13.8114 3.36127 3.25785 0
M  V30 85 H 13.9844 4.82538 4.32505 0
M  V30 86 N 7.3905 -1.2043 1.01659 0
M  V30 87 C 8.3405 -2.21076 0.557623 0
M  V30 88 C 9.3245 -1.56176 -0.387029 0
M  V30 89 O 10.5165 -1.7575 -0.209996 0
M  V30 90 C 7.6455 -3.43146 -0.102707 0
M  V30 91 C 6.7315 -4.15213 0.863652 0
M  V30 92 N 7.1225 -4.63662 2.02117 0
M  V30 93 C 5.4205 -4.40716 0.684472 0
M  V30 94 C 6.1215 -5.18868 2.62966 0
M  V30 95 N 5.0975 -5.0893 1.91027 0
M  V30 96 H 8.8995 -2.56201 1.44008 0
M  V30 97 H 6.4135 -1.36366 0.881931 0
M  V30 98 H 8.4105 -4.14475 -0.449054 0
M  V30 99 H 7.0705 -3.09526 -0.981003 0
M  V30 100 H 8.0815 -4.58877 2.40109 0
M  V30 101 H 4.7585 -4.17245 -0.14577 0
M  V30 102 H 6.1485 -5.6673 3.60924 0
M  V30 103 N 8.8686 -0.792821 -1.36206 0
M  V30 104 C 10.1156 -0.366786 -1.99151 0
M  V30 105 C 10.4436 1.06243 -1.62919 0
M  V30 106 O 9.6986 1.74927 -0.877442 0
M  V30 107 C 9.9976 -0.481501 -3.54142 0
M  V30 108 C 9.6636 -1.87202 -4.10203 0
M  V30 109 C 8.3256 -2.25248 -4.25226 0
M  V30 110 C 10.6776 -2.78237 -4.40719 0
M  V30 111 C 8.0056 -3.53723 -4.68078 0
M  V30 112 C 10.3576 -4.06144 -4.85005 0
M  V30 113 C 9.0216 -4.44207 -4.98234 0
M  V30 114 H 8.2916 -0.134217 -0.728743 0
M  V30 115 H 10.9386 -1.01094 -1.62641 0
M  V30 116 H 9.2436 0.246146 -3.91026 0
M  V30 117 H 10.9406 -0.132844 -4.0078 0
M  V30 118 H 7.5306 -1.56639 -3.98951 0
M  V30 119 H 11.7146 -2.50097 -4.28679 0
M  V30 120 H 6.9706 -3.8308 -4.76508 0
M  V30 121 H 11.1446 -4.76796 -5.07581 0
M  V30 122 H 8.7716 -5.43814 -5.31197 0
M  V30 123 N 10.3467 1.47872 -0.545128 0
M  V30 124 C 11.7627 1.5829 -0.204032 0
M  V30 125 C 11.9627 1.54529 1.29317 0
M  V30 126 O 11.0187 1.44232 2.07252 0
M  V30 127 C 12.3317 2.89304 -0.819987 0
M  V30 128 C 13.8797 3.02864 -0.790105 0
M  V30 129 C 14.3547 4.3656 -1.38491 0
M  V30 130 N 15.8457 4.43165 -1.34755 0
M  V30 131 C 16.5807 5.45153 -1.77753 0
M  V30 132 N 16.0767 6.54016 -2.2855 0
M  V30 133 N 17.8697 5.36125 -1.68897 0
M  V30 134 H 10.0207 1.4856 -1.51802 0
M  V30 135 H 12.2837 0.706305 -0.632327 0
M  V30 136 H 11.9897 2.97757 -1.87173 0
M  V30 137 H 11.8637 3.75957 -0.305915 0
M  V30 138 H 14.2507 2.94014 0.252913 0
M  V30 139 H 14.3317 2.17782 -1.34181 0
M  V30 140 H 13.9757 4.46164 -2.42693 0
M  V30 141 H 13.9057 5.20353 -0.808754 0
M  V30 142 H 16.3967 3.65083 -0.975855 0
M  V30 143 H 16.7097 7.27994 -2.59314 0
M  V30 144 H 15.0547 6.54938 -2.32553 0
M  V30 145 H 18.2457 4.49975 -1.28998 0
M  V30 146 H 18.4187 6.15472 -2.02726 0
M  V30 147 N 11.8248 0.280983 1.55075 0
M  V30 148 C 13.0528 -0.337293 2.04132 0
M  V30 149 C 13.4678 -1.4903 1.15912 0
M  V30 150 O 12.8248 -1.81606 0.180459 0
M  V30 151 C 12.8758 -0.812706 3.52246 0
M  V30 152 O 12.5968 0.294387 4.3711 0
M  V30 153 C 14.0978 -1.4982 4.17216 0
M  V30 154 H 11.3178 -0.0761638 0.666663 0
M  V30 155 H 13.8618 0.414787 2.00249 0
M  V30 156 H 12.0168 -1.51486 3.56554 0
M  V30 157 H 12.4308 -0.0721325 5.2445 0
M  V30 158 H 13.9048 -1.7822 5.22438 0
M  V30 159 H 14.3818 -2.43168 3.65741 0
M  V30 160 H 14.9878 -0.839742 4.16927 0
M  V30 161 N 13.3029 -1.57598 0.00835791 0
M  V30 162 C 14.2329 -2.1198 -0.979113 0
M  V30 163 C 15.2139 -1.03091 -1.35301 0
M  V30 164 O 16.3989 -1.30818 -1.43528 0
M  V30 165 C 13.5289 -2.62995 -2.26828 0
M  V30 166 C 12.4829 -3.76485 -2.03576 0
M  V30 167 C 11.8089 -4.13846 -3.38579 0
M  V30 168 C 13.1089 -5.0342 -1.39161 0
M  V30 169 H 14.8029 -2.94738 -0.526281 0
M  V30 170 H 12.3489 -1.41783 -0.251704 0
M  V30 171 H 14.3019 -2.99669 -2.96271 0
M  V30 172 H 13.0259 -1.7737 -2.7424 0
M  V30 173 H 11.6849 -3.40217 -1.36557 0
M  V30 174 H 11.3329 -3.25232 -3.83709 0
M  V30 175 H 11.0329 -4.90312 -3.23834 0
M  V30 176 H 12.5569 -4.53086 -4.09323 0
M  V30 177 H 13.9709 -5.37812 -1.98573 0
M  V30 178 H 12.3679 -5.84746 -1.34878 0
M  V30 179 H 13.4379 -4.83548 -0.361868 0
M  V30 180 N 14.781 0.264519 -1.55364 0
M  V30 181 C 16.027 0.99646 -1.76631 0
M  V30 182 C 16.36 1.85632 -0.570478 0
M  V30 183 O 15.635 1.89647 0.43175 0
M  V30 184 C 15.918 1.87187 -3.07625 0
M  V30 185 C 15.771 1.04138 -4.37579 0
M  V30 186 C 17.09 2.85749 -3.34717 0
M  V30 187 H 14.209 0.360841 -0.642622 0
M  V30 188 H 16.851 0.268218 -1.88097 0
M  V30 189 H 15.001 2.49279 -2.9798 0
M  V30 190 H 16.673 0.440517 -4.59192 0
M  V30 191 H 14.916 0.345115 -4.32425 0
M  V30 192 H 15.587 1.68729 -5.2558 0
M  V30 193 H 18.063 2.33793 -3.4421 0
M  V30 194 H 16.939 3.44136 -4.27623 0
M  V30 195 H 17.2 3.61311 -2.54768 0
M  V30 196 N 16.2591 1.48442 0.529413 0
M  V30 197 C 17.4841 1.60406 1.31471 0
M  V30 198 C 17.9091 0.264738 1.86228 0
M  V30 199 O 17.2671 -0.763668 1.64432 0
M  V30 200 C 17.3151 2.65419 2.44101 0
M  V30 201 O 16.4191 2.22618 3.47153 0
M  V30 202 H 15.7601 0.537863 0.389357 0
M  V30 203 H 18.2901 1.94432 0.636965 0
M  V30 204 H 18.3001 2.86709 2.90279 0
M  V30 205 H 16.9751 3.62652 2.03608 0
M  V30 206 H 15.5521 2.11543 3.0709 0
M  V30 207 N 17.7372 -0.778329 1.37039 0
M  V30 208 C 18.9852 -1.53361 1.31623 0
M  V30 209 C 19.3062 -1.94739 -0.100831 0
M  V30 210 O 18.5762 -1.65797 -1.04347 0
M  V30 211 H 17.1562 -0.568794 0.484234 0
M  V30 212 H 19.8182 -0.926742 1.71457 0
M  V30 213 H 18.9142 -2.43606 1.95096 0
M  V30 214 N 19.2153 -1.21501 -1.00376 0
M  V30 215 C 20.4623 -1.03299 -1.74171 0
M  V30 216 C 20.7903 0.433326 -1.89612 0
M  V30 217 O 20.0453 1.33779 -1.42834 0
M  V30 218 C 20.3443 -1.67673 -3.15627 0
M  V30 219 C 20.0103 -3.17533 -3.2013 0
M  V30 220 C 18.6723 -3.58427 -3.21067 0
M  V30 221 C 21.0243 -4.13504 -3.17275 0
M  V30 222 C 18.3523 -4.93794 -3.16835 0
M  V30 223 C 20.7043 -5.48834 -3.14585 0
M  V30 224 C 19.3683 -5.89123 -3.13831 0
M  V30 225 H 18.6383 -0.377999 -0.637336 0
M  V30 226 H 21.2853 -1.51111 -1.17634 0
M  V30 227 H 19.5903 -1.12158 -3.75404 0
M  V30 228 H 21.2873 -1.51091 -3.71446 0
M  V30 229 H 17.8773 -2.84965 -3.20145 0
M  V30 230 H 22.0613 -3.82936 -3.15711 0
M  V30 231 H 17.3173 -5.24255 -3.1459 0
M  V30 232 H 21.4913 -6.22934 -3.1133 0
M  V30 233 H 19.1183 -6.93984 -3.10307 0
M  V30 234 N 20.6934 1.19889 -1.02296 0
M  V30 235 C 21.9234 1.93109 -0.734332 0
M  V30 236 C 22.3314 1.75377 0.709889 0
M  V30 237 O 21.6744 1.06912 1.49384 0
M  V30 238 C 21.7364 3.45362 -0.99827 0
M  V30 239 C 21.4004 3.8686 -2.43287 0
M  V30 240 C 22.3974 3.92102 -3.41397 0
M  V30 241 C 20.0824 4.18668 -2.77529 0
M  V30 242 C 22.0764 4.28573 -4.71809 0
M  V30 243 C 19.7634 4.54813 -4.08153 0
M  V30 244 C 20.7614 4.59739 -5.05103 0
M  V30 245 O 20.4494 4.95051 -6.33388 0
M  V30 246 H 20.1814 0.620409 -0.268456 0
M  V30 247 H 22.7354 1.53144 -1.3688 0
M  V30 248 H 20.9654 3.85482 -0.306645 0
M  V30 249 H 22.6544 3.99814 -0.700234 0
M  V30 250 H 23.4204 3.67685 -3.1628 0
M  V30 251 H 19.2994 4.14021 -2.0275 0
M  V30 252 H 22.8434 4.32333 -5.4748 0
M  V30 253 H 18.7404 4.78687 -4.33047 0
M  V30 254 H 19.5084 5.1302 -6.37772 0
M  V30 255 N 22.1715 0.800033 1.35784 0
M  V30 256 C 23.4185 0.377342 1.98953 0
M  V30 257 C 23.7465 -1.05378 1.6348 0
M  V30 258 O 23.0015 -1.74459 0.886707 0
M  V30 259 C 23.3005 0.500276 3.53881 0
M  V30 260 C 22.9665 1.89375 4.09204 0
M  V30 261 C 21.6285 2.27499 4.24025 0
M  V30 262 C 23.9805 2.8057 4.39238 0
M  V30 263 C 21.3085 3.562 4.66195 0
M  V30 264 C 23.6605 4.0871 4.82844 0
M  V30 265 C 22.3245 4.46843 4.95871 0
M  V30 266 H 21.5945 0.138079 0.728021 0
M  V30 267 H 24.2415 1.01955 1.62103 0
M  V30 268 H 22.5465 -0.225405 3.91151 0
M  V30 269 H 24.2435 0.154097 4.00704 0
M  V30 270 H 20.8335 1.58753 3.98115 0
M  V30 271 H 25.0175 2.52367 4.27346 0
M  V30 272 H 20.2735 3.85602 4.74469 0
M  V30 273 H 24.4475 4.79481 5.05046 0
M  V30 274 H 22.0745 5.46623 5.28306 0
M  V30 275 N 23.6496 -1.47581 0.552962 0
M  V30 276 C 24.8956 -2.03369 0.0355807 0
M  V30 277 C 25.2506 -1.42016 -1.29805 0
M  V30 278 O 24.5436 -0.564917 -1.83083 0
M  V30 279 C 24.7376 -3.57199 -0.119728 0
M  V30 280 C 24.5666 -4.33468 1.1973 0
M  V30 281 C 23.3366 -4.7353 1.76345 0
M  V30 282 C 25.5346 -4.68866 2.11351 0
M  V30 283 N 23.5166 -5.34426 3.02097 0
M  V30 284 C 24.8876 -5.3002 3.21681 0
M  V30 285 C 26.9426 -4.50795 2.11397 0
M  V30 286 C 25.6456 -5.75011 4.32151 0
M  V30 287 C 27.6716 -4.96782 3.20876 0
M  V30 288 C 27.0336 -5.57981 4.29926 0
M  V30 289 H 23.1326 -0.780058 0.0550806 0
M  V30 290 H 25.7166 -1.80117 0.739315 0
M  V30 291 H 23.8876 -3.80227 -0.792579 0
M  V30 292 H 25.6196 -3.99627 -0.638792 0
M  V30 293 H 22.3746 -4.55352 1.30196 0
M  V30 294 H 22.7986 -5.69421 3.66182 0
M  V30 295 H 27.4406 -4.0284 1.28372 0
M  V30 296 H 25.1586 -6.21959 5.15938 0
M  V30 297 H 28.7446 -4.84573 3.21994 0
M  V30 298 H 27.6246 -5.92918 5.13243 0
M  V30 299 N 25.1277 -0.289203 -1.54924 0
M  V30 300 C 26.0377 0.601863 -2.26748 0
M  V30 301 C 27.0537 1.15834 -1.2984 0
M  V30 302 O 28.2297 1.18564 -1.62802 0
M  V30 303 C 25.2947 1.76299 -2.98529 0
M  V30 304 C 24.3557 1.24178 -4.10948 0
M  V30 305 C 23.5887 2.34757 -4.79296 0
M  V30 306 O 23.8117 3.54411 -4.46933 0
M  V30 307 O 22.7457 2.02115 -5.66951 0
M  V30 308 H 26.5717 0.0195879 -3.03694 0
M  V30 309 H 24.1567 -0.0560868 -1.49295 0
M  V30 310 H 26.0387 2.43973 -3.43592 0
M  V30 311 H 24.7137 2.33209 -2.24488 0
M  V30 312 H 23.6207 0.531104 -3.70311 0
M  V30 313 H 24.9537 0.718252 -4.86931 0
M  V30 314 N 26.6058 1.57591 -0.0167156 0
M  V30 315 C 27.5688 2.08393 0.954204 0
M  V30 316 C 28.5688 0.996531 1.26198 0
M  V30 317 O 29.7588 1.25858 1.20438 0
M  V30 318 C 26.8908 2.5394 2.27436 0
M  V30 319 H 28.0838 2.95455 0.514451 0
M  V30 320 H 25.6368 1.54582 0.231089 0
M  V30 321 H 26.3718 1.70171 2.76066 0
M  V30 322 H 26.1568 3.33371 2.06412 0
M  V30 323 H 27.6468 2.93512 2.97053 0
M  V30 324 N 28.0839 -0.256276 1.55502 0
M  V30 325 C 29.0469 -1.30047 1.88734 0
M  V30 326 C 30.0469 -1.4154 0.763086 0
M  V30 327 O 31.2369 -1.40403 1.03115 0
M  V30 328 C 28.3689 -2.67953 2.10747 0
M  V30 329 H 29.5619 -1.01802 2.82093 0
M  V30 330 H 27.1149 -0.495134 1.4825 0
M  V30 331 H 27.8499 -3.01351 1.19825 0
M  V30 332 H 27.6349 -2.60993 2.92617 0
M  V30 333 H 29.1249 -3.43368 2.37673 0
M  V30 334 N 29.562 -1.4872 -0.521534 0
M  V30 335 C 30.492 -1.66771 -1.63431 0
M  V30 336 C 31.473 -0.516499 -1.62069 0
M  V30 337 O 32.658 -0.750013 -1.79132 0
M  V30 338 C 29.788 -1.71515 -3.01993 0
M  V30 339 C 28.742 -2.86222 -3.18216 0
M  V30 340 C 28.068 -2.76061 -4.57924 0
M  V30 341 C 29.368 -4.27419 -3.00184 0
M  V30 342 H 31.062 -2.59932 -1.48579 0
M  V30 343 H 28.608 -1.25089 -0.713358 0
M  V30 344 H 30.561 -1.82731 -3.7972 0
M  V30 345 H 29.285 -0.749393 -3.17886 0
M  V30 346 H 27.944 -2.74575 -2.42908 0
M  V30 347 H 27.592 -1.77437 -4.70665 0
M  V30 348 H 27.292 -3.53037 -4.69722 0
M  V30 349 H 28.816 -2.89256 -5.37739 0
M  V30 350 H 30.23 -4.39855 -3.67697 0
M  V30 351 H 28.627 -5.05458 -3.2347 0
M  V30 352 H 29.697 -4.43293 -1.96518 0
M  V30 353 N 31.0401 0.771051 -1.3745 0
M  V30 354 C 31.9701 1.89827 -1.3597 0
M  V30 355 C 32.9511 1.68562 -0.228216 0
M  V30 356 O 34.1361 1.8941 -0.428675 0
M  V30 357 C 31.2661 3.2712 -1.16662 0
M  V30 358 C 30.2201 3.6295 -2.2683 0
M  V30 359 C 29.5461 4.98791 -1.92644 0
M  V30 360 C 30.8461 3.69627 -3.69017 0
M  V30 361 H 32.5401 1.91323 -2.30295 0
M  V30 362 H 30.0861 0.919082 -1.10855 0
M  V30 363 H 32.0391 4.05615 -1.14256 0
M  V30 364 H 30.7631 3.26059 -0.187926 0
M  V30 365 H 29.4221 2.86763 -2.28392 0
M  V30 366 H 29.0701 4.94271 -0.933021 0
M  V30 367 H 28.7701 5.23733 -2.66416 0
M  V30 368 H 30.2941 5.79685 -1.91826 0
M  V30 369 H 31.7081 4.38273 -3.69581 0
M  V30 370 H 30.1051 4.06067 -4.41848 0
M  V30 371 H 31.1751 2.70273 -4.02592 0
M  V30 372 N 32.5182 1.22032 0.997298 0
M  V30 373 C 33.4482 1.01065 2.10495 0
M  V30 374 C 34.4292 -0.0669542 1.69968 0
M  V30 375 O 35.6142 0.0943987 1.9397 0
M  V30 376 C 32.7442 0.582874 3.42374 0
M  V30 377 C 31.6982 1.60592 3.96729 0
M  V30 378 C 31.0242 1.03412 5.24605 0
M  V30 379 C 32.3242 2.99478 4.27914 0
M  V30 380 H 34.0182 1.93708 2.28292 0
M  V30 381 H 31.5642 0.932761 1.09707 0
M  V30 382 H 33.5172 0.423332 4.19268 0
M  V30 383 H 32.2412 -0.379213 3.24391 0
M  V30 384 H 30.9002 1.75316 3.21963 0
M  V30 385 H 30.5482 0.063518 5.0296 0
M  V30 386 H 30.2482 1.71754 5.61938 0
M  V30 387 H 31.7722 0.886066 6.04137 0
M  V30 388 H 33.1862 2.88153 4.95622 0
M  V30 389 H 31.5832 3.64903 4.76409 0
M  V30 390 H 32.6532 3.49742 3.3587 0
M  V30 391 N 33.9963 -1.19345 1.0293 0
M  V30 392 C 35.2213 -1.93538 0.745511 0
M  V30 393 C 35.6463 -1.75007 -0.689511 0
M  V30 394 O 35.0043 -1.05265 -1.47611 0
M  V30 395 C 35.0523 -3.43336 1.10239 0
M  V30 396 O 34.1563 -4.11806 0.221289 0
M  V30 397 H 33.4973 -0.604193 0.275404 0
M  V30 398 H 36.0273 -1.5141 1.37609 0
M  V30 399 H 36.0373 -3.94004 1.05947 0
M  V30 400 H 34.7123 -3.56146 2.14786 0
M  V30 401 H 33.2893 -3.715 0.322842 0
M  V30 402 N 35.4744 -0.807222 -1.35358 0
M  V30 403 C 36.4044 -0.232509 -2.3234 0
M  V30 404 C 37.3854 0.642386 -1.57504 0
M  V30 405 O 38.5704 0.572526 -1.85569 0
M  V30 406 C 35.7004 0.619238 -3.41735 0
M  V30 407 C 34.6544 -0.157215 -4.27711 0
M  V30 408 C 33.9804 0.816273 -5.28433 0
M  V30 409 C 35.2804 -1.35656 -5.04376 0
M  V30 410 H 36.9744 -1.04276 -2.80654 0
M  V30 411 H 34.5204 -0.50288 -1.34934 0
M  V30 412 H 36.4734 1.03137 -4.08584 0
M  V30 413 H 35.1974 1.46239 -2.92031 0
M  V30 414 H 33.8564 -0.550525 -3.62443 0
M  V30 415 H 33.5044 1.65494 -4.74996 0
M  V30 416 H 33.2044 0.301067 -5.86828 0
M  V30 417 H 34.7284 1.22659 -5.98153 0
M  V30 418 H 36.1424 -1.01927 -5.64166 0
M  V30 419 H 34.5394 -1.8063 -5.7227 0
M  V30 420 H 35.6094 -2.14288 -4.34981 0
M  V30 421 N 36.9525 1.47285 -0.560781 0
M  V30 422 C 38.1985 2.02764 -0.0381184 0
M  V30 423 C 38.5315 1.43384 1.30976 0
M  V30 424 O 37.8065 0.590733 1.85312 0
M  V30 425 C 38.0895 3.60064 0.0511427 0
M  V30 426 C 37.9425 4.2987 -1.32408 0
M  V30 427 C 39.2615 4.33439 0.762795 0
M  V30 428 H 36.3805 0.736841 -0.0153264 0
M  V30 429 H 39.0225 1.75675 -0.723759 0
M  V30 430 H 37.1725 3.83274 0.635065 0
M  V30 431 H 38.8445 4.17989 -1.95148 0
M  V30 432 H 37.0875 3.90085 -1.8978 0
M  V30 433 H 37.7585 5.38478 -1.21431 0
M  V30 434 H 40.2345 4.15243 0.266965 0
M  V30 435 H 39.1105 5.43124 0.794221 0
M  V30 436 H 39.3715 4.02915 1.81966 0
M  V30 437 N 38.4306 0.297415 1.54768 0
M  V30 438 C 39.3936 -0.567375 2.22066 0
M  V30 439 C 40.3936 -1.06409 1.20556 0
M  V30 440 O 41.5836 -0.960691 1.45315 0
M  V30 441 C 38.7156 -1.78517 2.90421 0
M  V30 442 H 39.9086 0.0205534 2.99893 0
M  V30 443 H 37.4616 0.0482163 1.56226 0
M  V30 444 H 38.1966 -2.41303 2.16664 0
M  V30 445 H 37.9816 -1.43669 3.64831 0
M  V30 446 H 39.4716 -2.39964 3.41771 0
M  V30 447 N 39.9087 -1.5758 0.0250728 0
M  V30 448 C 41.1367 -1.9593 -0.664747 0
M  V30 449 C 41.5517 -0.901352 -1.65895 0
M  V30 450 O 40.9087 0.117255 -1.82123 0
M  V30 451 C 40.9597 -3.34342 -1.37468 0
M  V30 452 O 40.6807 -4.36079 -0.420324 0
M  V30 453 C 42.1817 -3.873 -2.1567 0
M  V30 454 H 39.4017 -0.645405 -0.183557 0
M  V30 455 H 41.9457 -2.04329 0.0836372 0
M  V30 456 H 40.1007 -3.27175 -2.0745 0
M  V30 457 H 40.5147 -5.16297 -0.923991 0
M  V30 458 H 41.9887 -4.86504 -2.60803 0
M  V30 459 H 42.4657 -3.21331 -2.99405 0
M  V30 460 H 43.0717 -3.97723 -1.50654 0
M  V30 461 N 41.3868 0.248026 -1.55636 0
M  V30 462 C 42.3338 1.30707 -1.90222 0
M  V30 463 C 43.3038 1.47881 -0.756332 0
M  V30 464 O 44.4888 1.61883 -1.00988 0
M  V30 465 C 41.6288 2.65769 -2.20138 0
M  V30 466 C 40.7418 2.56612 -3.47526 0
M  V30 467 C 39.8768 3.8402 -3.67017 0
M  V30 468 C 38.9158 3.69476 -4.8801 0
M  V30 469 N 38.0528 4.88774 -5.04029 0
M  V30 470 H 42.8928 1.00512 -2.80538 0
M  V30 471 H 40.4298 0.485055 -1.38873 0
M  V30 472 H 42.3878 3.44386 -2.35487 0
M  V30 473 H 41.0178 2.94115 -1.33027 0
M  V30 474 H 40.0698 1.69571 -3.40514 0
M  V30 475 H 41.3818 2.41774 -4.36287 0
M  V30 476 H 40.5358 4.7108 -3.8232 0
M  V30 477 H 39.2748 4.01754 -2.76487 0
M  V30 478 H 38.2798 2.80799 -4.72686 0
M  V30 479 H 39.5048 3.53238 -5.8 0
M  V30 480 H 37.4508 5.0687 -4.16435 0
M  V30 481 H 37.3678 4.76562 -5.86877 0
M  V30 482 H 38.6358 5.77335 -5.23741 0
M  V30 483 N 42.8649 1.48995 0.513639 0
M  V30 484 C 43.7749 1.67443 1.64317 0
M  V30 485 C 44.7909 0.556947 1.64846 0
M  V30 486 O 45.9669 0.830082 1.83498 0
M  V30 487 C 43.0319 1.72515 3.00732 0
M  V30 488 C 42.0929 2.96009 3.1093 0
M  V30 489 C 41.3259 3.00829 4.40837 0
M  V30 490 O 41.5489 2.13594 5.28898 0
M  V30 491 O 40.4829 3.93168 4.55744 0
M  V30 492 H 44.3089 2.63106 1.51687 0
M  V30 493 H 41.8939 1.32588 0.688543 0
M  V30 494 H 43.7759 1.78277 3.81831 0
M  V30 495 H 42.4509 0.800278 3.13651 0
M  V30 496 H 41.3579 2.9577 2.29065 0
M  V30 497 H 42.6909 3.87934 3.02933 0
M  V30 498 N 44.343 -0.763751 1.37857 0
M  V30 499 C 45.571 -1.55293 1.36718 0
M  V30 500 C 45.986 -1.88745 -0.0455434 0
M  V30 501 O 45.343 -1.52039 -1.00947 0
M  V30 502 C 45.394 -2.85831 2.2132 0
M  V30 503 O 45.115 -2.5381 3.57089 0
M  V30 504 C 46.616 -3.80023 2.28249 0
M  V30 505 H 43.836 -0.480841 0.468009 0
M  V30 506 H 46.38 -0.946009 1.81303 0
M  V30 507 H 44.535 -3.42926 1.80223 0
M  V30 508 H 44.949 -3.37459 4.01524 0
M  V30 509 H 46.423 -4.68599 2.91752 0
M  V30 510 H 46.9 -4.1973 1.2932 0
M  V30 511 H 47.506 -3.28855 2.69693 0
M  V30 512 N 45.8211 -1.22559 -0.990812 0
M  V30 513 C 47.0981 -0.959875 -1.70428 0
M  V30 514 C 47.4781 0.524455 -2.04481 0
M  V30 515 O 46.8261 1.49302 -1.72977 0
M  V30 516 C 47.0361 -1.85955 -2.95333 0
M  V30 517 C 48.3841 -2.11687 -3.68068 0
M  V30 518 O 49.4081 -1.8342 -3.05345 0
M  V30 519 O 48.2671 -2.59572 -4.80921 0
M  V30 520 H 45.3611 -0.361154 -0.743974 0
M  V30 521 H 47.9071 -1.33554 -1.04697 0
M  V30 522 H 46.6791 -2.86346 -2.66687 0
M  V30 523 H 46.3021 -1.4856 -3.68803 0
M  V30 524 N 47.2992 1.18797 -1.03562 0
M  V30 525 C 48.5242 1.9314 -0.755764 0
M  V30 526 C 48.9492 1.7537 0.68022 0
M  V30 527 O 48.3072 1.06046 1.47051 0
M  V30 528 C 48.3552 3.42747 -1.12058 0
M  V30 529 O 47.4592 4.11683 -0.243124 0
M  V30 530 H 46.8002 0.602724 -0.278604 0
M  V30 531 H 49.3302 1.50678 -1.3841 0
M  V30 532 H 49.3402 3.93437 -1.08035 0
M  V30 533 H 48.0152 3.55002 -2.16672 0
M  V30 534 H 46.5922 3.71323 -0.342539 0
M  V30 535 N 48.7773 0.814389 1.34928 0
M  V30 536 C 49.7403 0.235759 2.27984 0
M  V30 537 C 50.7403 -0.581412 1.49921 0
M  V30 538 O 51.9303 -0.398758 1.69575 0
M  V30 539 C 49.0623 -0.670433 3.34242 0
M  V30 540 H 50.2553 1.05659 2.80671 0
M  V30 541 H 47.8083 0.585614 1.44915 0
M  V30 542 H 48.5433 -1.51466 2.86755 0
M  V30 543 H 48.3283 -0.0860822 3.92005 0
M  V30 544 H 49.8183 -1.06935 4.03676 0
M  V30 545 N 50.2554 -1.46986 0.568584 0
M  V30 546 C 51.6714 -1.57946 0.229189 0
M  V30 547 C 51.8714 -1.56567 -1.26843 0
M  V30 548 O 50.9274 -1.47511 -2.04931 0
M  V30 549 C 52.2404 -2.87963 0.865909 0
M  V30 550 C 53.7884 -3.01568 0.838188 0
M  V30 551 C 54.2634 -4.34301 1.45419 0
M  V30 552 N 55.7544 -4.40965 1.41788 0
M  V30 553 C 56.4894 -5.42256 1.86403 0
M  V30 554 N 55.9854 -6.50297 2.38926 0
M  V30 555 N 57.7784 -5.3337 1.77405 0
M  V30 556 H 49.9294 -1.46126 1.54146 0
M  V30 557 H 52.1924 -0.696156 0.643484 0
M  V30 558 H 51.8984 -2.94742 1.91886 0
M  V30 559 H 51.7724 -3.75423 0.365687 0
M  V30 560 H 54.1594 -2.94379 -0.206106 0
M  V30 561 H 54.2404 -2.1562 1.37629 0
M  V30 562 H 53.8844 -4.42247 2.49761 0
M  V30 563 H 53.8144 -5.19 0.891435 0
M  V30 564 H 56.3054 -3.63484 1.03381 0
M  V30 565 H 56.6184 -7.23777 2.70863 0
M  V30 566 H 54.9634 -6.51155 2.42944 0
M  V30 567 H 58.1544 -4.47865 1.3614 0
M  V30 568 H 58.3274 -6.12169 2.12492 0
M  V30 569 N 51.7335 -0.305618 -1.54608 0
M  V30 570 C 52.9585 0.307562 -2.05107 0
M  V30 571 C 53.3835 1.46385 -1.18123 0
M  V30 572 O 52.7415 1.8034 -0.186324 0
M  V30 573 C 52.7895 0.73704 -3.52987 0
M  V30 574 O 51.8935 1.84134 -3.6901 0
M  V30 575 H 51.2345 0.0589143 -0.661381 0
M  V30 576 H 53.7645 -0.448807 -1.99617 0
M  V30 577 H 53.7745 1.02459 -3.94925 0
M  V30 578 H 52.4495 -0.108773 -4.15758 0
M  V30 579 H 51.0265 1.55398 -3.38978 0
M  V30 580 N 53.2116 1.57565 -0.0334293 0
M  V30 581 C 54.6276 1.56297 0.322997 0
M  V30 582 C 54.8276 1.03945 1.7262 0
M  V30 583 O 53.8836 0.688109 2.42943 0
M  V30 584 C 55.1966 3.00232 0.167664 0
M  V30 585 C 56.7446 3.12078 0.240107 0
M  V30 586 C 57.2196 4.57859 0.113513 0
M  V30 587 N 58.7106 4.62887 0.170359 0
M  V30 588 C 59.4456 5.73319 0.0962517 0
M  V30 589 N 58.9416 6.92794 -0.0291881 0
M  V30 590 N 60.7346 5.61898 0.150551 0
M  V30 591 H 52.8856 1.89923 -0.950956 0
M  V30 592 H 55.1486 0.873824 -0.367608 0
M  V30 593 H 54.8546 3.42501 -0.799102 0
M  V30 594 H 54.7286 3.654 0.936083 0
M  V30 595 H 57.1156 2.69718 1.19733 0
M  V30 596 H 57.1966 2.49623 -0.558763 0
M  V30 597 H 56.8406 5.009 -0.840314 0
M  V30 598 H 56.7706 5.18299 0.931302 0
M  V30 599 H 59.2616 3.76954 0.26728 0
M  V30 600 H 59.5746 7.7276 -0.0789252 0
M  V30 601 H 57.9196 6.94971 -0.0640299 0
M  V30 602 H 61.1106 4.67448 0.246981 0
M  V30 603 H 61.2836 6.47938 0.0893365 0
M  V30 604 N 54.6897 -0.239769 1.55765 0
M  V30 605 C 55.9147 -0.988373 1.82335 0
M  V30 606 C 56.3397 -1.77886 0.611421 0
M  V30 607 O 55.6977 -1.75889 -0.439639 0
M  V30 608 C 55.7457 -1.89627 3.06715 0
M  V30 609 O 54.8497 -2.98904 2.84131 0
M  V30 610 H 54.1907 -0.280858 0.601677 0
M  V30 611 H 56.7207 -0.258597 2.02959 0
M  V30 612 H 56.7307 -2.30957 3.36338 0
M  V30 613 H 55.4057 -1.31511 3.9456 0
M  V30 614 H 53.9827 -2.61651 2.65694 0
M  V30 615 N 56.1678 -1.49265 -0.50573 0
M  V30 616 C 57.1308 -1.65075 -1.59006 0
M  V30 617 C 58.1308 -0.522768 -1.52065 0
M  V30 618 O 59.3208 -0.789117 -1.55302 0
M  V30 619 C 56.4528 -1.64369 -2.98656 0
M  V30 620 H 57.6458 -2.61784 -1.46319 0
M  V30 621 H 55.1988 -1.38226 -0.729616 0
M  V30 622 H 55.9338 -0.692272 -3.16825 0
M  V30 623 H 55.7188 -2.46282 -3.05103 0
M  V30 624 H 57.2088 -1.78674 -3.77446 0
M  V30 625 N 57.6459 0.756429 -1.3826 0
M  V30 626 C 59.0569 1.33359 -1.30661 0
M  V30 627 C 59.4079 1.96161 0.0388875 0
M  V30 628 O 58.5329 1.94874 0.940918 0
M  V30 629 C 59.1279 2.42477 -2.36622 0
M  V30 630 C 57.6869 2.95922 -2.3261 0
M  V30 631 C 56.8339 1.69275 -2.19639 0
M  V30 632 H 59.7849 0.55552 -1.4866 0
M  V30 633 H 59.8059 3.22345 -2.02174 0
M  V30 634 H 59.3179 1.96739 -3.34538 0
M  V30 635 H 57.4189 3.45996 -1.38267 0
M  V30 636 H 57.5319 3.50494 -3.26636 0
M  V30 637 H 55.8959 1.92793 -1.66442 0
M  V30 638 H 56.6789 1.25619 -3.19491 0
M  V30 639 N 59.124 1.23083 0.984299 0
M  V30 640 C 60.057 0.951786 2.07404 0
M  V30 641 C 61.035 -0.10848 1.62238 0
M  V30 642 O 62.219 0.0249467 1.88483 0
M  V30 643 C 59.346 0.433142 3.35919 0
M  V30 644 C 58.392 1.47941 4.0002 0
M  V30 645 S 59.225 3.05556 4.39768 0
M  V30 646 C 60.381 2.55351 5.71442 0
M  V30 647 H 60.614 1.87456 2.30754 0
M  V30 648 H 58.147 1.06284 1.11996 0
M  V30 649 H 60.105 0.140506 4.10259 0
M  V30 650 H 58.766 -0.468656 3.10584 0
M  V30 651 H 57.959 1.06658 4.92585 0
M  V30 652 H 57.561 1.7212 3.3204 0
M  V30 653 H 59.853 1.97128 6.48187 0
M  V30 654 H 60.796 3.46441 6.17563 0
M  V30 655 H 61.204 1.96339 5.29255 0
M  V30 656 N 60.6021 -1.18246 1.0419 0
M  V30 657 C 61.8271 -1.92736 0.765996 0
M  V30 658 C 62.2521 -1.75728 -0.67091 0
M  V30 659 O 61.6101 -1.06825 -1.46486 0
M  V30 660 C 61.6581 -3.42148 1.13875 0
M  V30 661 O 60.7621 -4.11548 0.264954 0
M  V30 662 H 60.1031 -0.601238 0.281797 0
M  V30 663 H 62.6331 -1.49942 1.39207 0
M  V30 664 H 62.6431 -3.92858 1.1012 0
M  V30 665 H 61.3181 -3.53848 2.18551 0
M  V30 666 H 59.8951 -3.71137 0.362226 0
M  V30 667 N 62.0802 -0.821533 -1.34494 0
M  V30 668 C 63.4912 -0.467956 -1.8074 0
M  V30 669 C 63.8422 1.01151 -1.68116 0
M  V30 670 O 62.9672 1.78707 -1.22036 0
M  V30 671 C 63.5622 -0.842627 -3.28154 0
M  V30 672 C 62.1212 -0.541439 -3.72485 0
M  V30 673 C 61.2682 -1.06028 -2.56229 0
M  V30 674 H 64.2192 -1.01183 -1.22261 0
M  V30 675 H 64.2402 -0.145876 -3.8022 0
M  V30 676 H 63.7522 -1.91945 -3.37311 0
M  V30 677 H 61.8532 0.526034 -3.68868 0
M  V30 678 H 61.9662 -1.08453 -4.66663 0
M  V30 679 H 60.3302 -0.481892 -2.501 0
M  V30 680 H 61.1132 -2.14352 -2.68157 0
M  V30 681 N 63.5583 1.46682 -0.576371 0
M  V30 682 C 64.7833 2.07304 -0.0630475 0
M  V30 683 C 65.2083 1.42329 1.2298 0
M  V30 684 O 64.5663 0.504865 1.74129 0
M  V30 685 C 64.6143 3.60472 0.095895 0
M  V30 686 O 63.7183 3.95927 1.15394 0
M  V30 687 H 63.0593 0.661288 -0.0599463 0
M  V30 688 H 65.5893 1.88417 -0.797511 0
M  V30 689 H 65.5993 4.06865 0.304071 0
M  V30 690 H 64.2743 4.07157 -0.84828 0
M  V30 691 H 62.8513 3.61252 0.924724 0
M  V30 692 N 65.0364 0.313813 1.54444 0
M  V30 693 C 66.3134 -0.345447 1.92525 0
M  V30 694 C 66.6934 -1.70667 1.24242 0
M  V30 695 O 66.0414 -2.25273 0.382654 0
M  V30 696 C 66.2514 -0.44737 3.46121 0
M  V30 697 C 67.5994 -0.712238 4.18584 0
M  V30 698 O 68.6234 -0.530678 3.52225 0
M  V30 699 O 67.4824 -1.06183 5.36085 0
M  V30 700 H 64.5764 -0.195407 0.803583 0
M  V30 701 H 67.1224 0.362813 1.65776 0
M  V30 702 H 65.8944 0.509043 3.87975 0
M  V30 703 H 65.5174 -1.20359 3.78945 0
M  V30 704 N 66.5145 -1.57545 0.0417849 0
M  V30 705 C 67.7615 -1.92317 -0.634082 0
M  V30 706 C 68.0895 -0.919334 -1.71402 0
M  V30 707 O 67.3445 0.0698253 -1.95575 0
M  V30 708 C 67.6435 -3.33794 -1.27735 0
M  V30 709 C 67.3095 -4.49716 -0.326543 0
M  V30 710 C 65.9715 -4.81156 -0.0648814 0
M  V30 711 C 68.3235 -5.20182 0.325623 0
M  V30 712 C 65.6515 -5.80414 0.856539 0
M  V30 713 C 68.0035 -6.20424 1.23518 0
M  V30 714 C 66.6675 -6.50298 1.5056 0
M  V30 715 H 65.9375 -0.703736 -0.232027 0
M  V30 716 H 68.5845 -1.91205 0.106259 0
M  V30 717 H 66.8895 -3.31228 -2.09274 0
M  V30 718 H 68.5865 -3.57975 -1.80707 0
M  V30 719 H 65.1765 -4.25176 -0.540665 0
M  V30 720 H 69.3605 -4.96112 0.136546 0
M  V30 721 H 64.6165 -6.019 1.07363 0
M  V30 722 H 68.7905 -6.74141 1.74664 0
M  V30 723 H 66.4175 -7.27025 2.22123 0
M  V30 724 N 67.9926 0.231505 -1.5589 0
M  V30 725 C 68.9226 1.29022 -1.94617 0
M  V30 726 C 69.9036 1.4941 -0.813067 0
M  V30 727 O 71.0886 1.6176 -1.07459 0
M  V30 728 C 68.2186 2.64199 -2.25424 0
M  V30 729 C 67.1726 2.58484 -3.41131 0
M  V30 730 C 66.4986 3.97599 -3.57518 0
M  V30 731 C 67.7986 2.1413 -4.76388 0
M  V30 732 H 69.4926 0.968563 -2.83301 0
M  V30 733 H 67.0386 0.464479 -1.36303 0
M  V30 734 H 68.9916 3.38413 -2.51107 0
M  V30 735 H 67.7156 2.98032 -1.33583 0
M  V30 736 H 66.3746 1.86727 -3.15481 0
M  V30 737 H 66.0226 4.28723 -2.6307 0
M  V30 738 H 65.7226 3.94659 -4.35337 0
M  V30 739 H 67.2466 4.7349 -3.85538 0
M  V30 740 H 68.6606 2.78083 -5.01341 0
M  V30 741 H 67.0576 2.2227 -5.57419 0
M  V30 742 H 68.1276 1.09331 -4.72414 0
M  V30 743 N 69.4707 1.49531 0.497807 0
M  V30 744 C 70.7477 1.49682 1.25915 0
M  V30 745 C 71.1277 0.226339 2.09883 0
M  V30 746 O 70.4757 -0.791189 2.14365 0
M  V30 747 C 70.6857 2.77755 2.11313 0
M  V30 748 C 72.0337 3.27371 2.70395 0
M  V30 749 O 73.0577 2.78894 2.21578 0
M  V30 750 O 71.9167 4.11808 3.59272 0
M  V30 751 H 69.0107 0.599228 0.56996 0
M  V30 752 H 71.5567 1.61798 0.511816 0
M  V30 753 H 70.3287 3.61713 1.49264 0
M  V30 754 H 69.9517 2.68515 2.93233 0
M  V30 755 N 70.9488 -0.749086 1.3866 0
M  V30 756 C 71.8958 -1.86291 1.36251 0
M  V30 757 C 72.8658 -1.64578 0.224347 0
M  V30 758 O 74.0508 -1.86181 0.417279 0
M  V30 759 C 71.1908 -3.23644 1.19786 0
M  V30 760 C 70.3038 -3.57158 2.43027 0
M  V30 761 C 69.4388 -4.83838 2.19258 0
M  V30 762 C 68.4778 -5.10152 3.38247 0
M  V30 763 N 67.6148 -6.28029 3.13884 0
M  V30 764 H 72.4548 -1.87685 2.3147 0
M  V30 765 H 69.9918 -0.917287 1.14997 0
M  V30 766 H 71.9498 -4.0291 1.08254 0
M  V30 767 H 70.5798 -3.21566 0.282031 0
M  V30 768 H 69.6318 -2.72701 2.65214 0
M  V30 769 H 70.9438 -3.7253 3.31697 0
M  V30 770 H 70.0978 -5.71057 2.04888 0
M  V30 771 H 68.8368 -4.70614 1.2796 0
M  V30 772 H 67.8418 -4.21401 3.53131 0
M  V30 773 H 69.0668 -5.25271 4.30427 0
M  V30 774 H 67.0128 -6.1612 2.25238 0
M  V30 775 H 66.9298 -6.43922 3.96106 0
M  V30 776 H 68.1978 -7.18124 3.03179 0
M  V30 777 N 72.4269 -1.23603 -0.977757 0
M  V30 778 C 73.3569 -1.04401 -2.0886 0
M  V30 779 C 74.3379 0.0399052 -1.70053 0
M  V30 780 O 75.5229 -0.125246 -1.93796 0
M  V30 781 C 72.6529 -0.637269 -3.41403 0
M  V30 782 C 71.6069 -1.66883 -3.94124 0
M  V30 783 C 70.9329 -1.11745 -5.22893 0
M  V30 784 C 72.2329 -3.06247 -4.23096 0
M  V30 785 H 73.9269 -1.97316 -2.25182 0
M  V30 786 H 71.4729 -0.950096 -1.08209 0
M  V30 787 H 73.4259 -0.48998 -4.18542 0
M  V30 788 H 72.1499 0.327557 -3.24953 0
M  V30 789 H 70.8089 -1.80416 -3.19133 0
M  V30 790 H 70.4569 -0.143527 -5.02795 0
M  V30 791 H 70.1569 -1.80672 -5.59134 0
M  V30 792 H 71.6809 -0.982067 -6.02651 0
M  V30 793 H 73.0949 -2.96001 -4.90975 0
M  V30 794 H 71.4919 -3.72436 -4.70544 0
M  V30 795 H 72.5619 -3.55041 -3.30263 0
M  V30 796 N 73.905 1.17692 -1.04816 0
M  V30 797 C 74.838 2.20436 -0.590173 0
M  V30 798 C 75.816 1.58115 0.379244 0
M  V30 799 O 77 1.86228 0.291762 0
M  V30 800 C 74.127 3.38424 0.136817 0
M  V30 801 C 73.173 4.19176 -0.787023 0
M  V30 802 S 74.006 4.84815 -2.27409 0
M  V30 803 C 75.162 6.06195 -1.55817 0
M  V30 804 H 75.395 2.58944 -1.46067 0
M  V30 805 H 72.928 1.28246 -0.859784 0
M  V30 806 H 74.886 4.06798 0.550076 0
M  V30 807 H 73.547 2.98312 0.983299 0
M  V30 808 H 72.74 5.03499 -0.224681 0
M  V30 809 H 72.342 3.56219 -1.13947 0
M  V30 810 H 74.634 6.72078 -0.855387 0
M  V30 811 H 75.577 6.6695 -2.37873 0
M  V30 812 H 75.985 5.54701 -1.04722 0
M  V30 813 N 75.3831 0.828654 1.34056 0
M  V30 814 C 76.6311 0.41863 1.97717 0
M  V30 815 C 76.9521 -1.02314 1.66002 0
M  V30 816 O 76.2221 -1.71119 0.953683 0
M  V30 817 H 74.8021 0.151809 0.731412 0
M  V30 818 H 77.4641 1.05936 1.63596 0
M  V30 819 H 76.5601 0.542318 3.07352 0
M  V30 820 N 76.8612 -1.46375 0.584142 0
M  V30 821 C 78.2772 -1.57694 0.245929 0
M  V30 822 C 78.4772 -1.57903 -1.25175 0
M  V30 823 O 77.5332 -1.49676 -2.03355 0
M  V30 824 C 78.8462 -2.87028 0.896402 0
M  V30 825 C 80.3942 -3.00662 0.870127 0
M  V30 826 C 80.8692 -4.32734 1.50017 0
M  V30 827 N 82.3602 -4.39436 1.46458 0
M  V30 828 C 83.0952 -5.40248 1.92144 0
M  V30 829 N 82.5912 -6.47726 2.4581 0
M  V30 830 N 84.3842 -5.31459 1.83052 0
M  V30 831 H 76.5352 -1.44483 1.55687 0
M  V30 832 H 78.7982 -0.689291 0.650831 0
M  V30 833 H 78.5042 -2.9269 1.95002 0
M  V30 834 H 78.3782 -3.75014 0.405486 0
M  V30 835 H 80.7652 -2.94581 -0.174871 0
M  V30 836 H 80.8462 -2.14148 1.39908 0
M  V30 837 H 80.4902 -4.39573 2.54437 0
M  V30 838 H 80.4202 -5.18025 0.946432 0
M  V30 839 H 82.9112 -3.62367 1.07231 0
M  V30 840 H 83.2242 -7.20863 2.78525 0
M  V30 841 H 81.5692 -6.48542 2.49836 0
M  V30 842 H 84.7602 -4.46396 1.40883 0
M  V30 843 H 84.9332 -6.09881 2.18973 0
M  V30 844 N 78.3393 -0.321999 -1.54275 0
M  V30 845 C 79.5673 0.283052 -2.04955 0
M  V30 846 C 79.9823 1.45904 -1.19823 0
M  V30 847 O 79.3393 1.81063 -0.228545 0
M  V30 848 C 79.3903 0.719028 -3.54277 0
M  V30 849 O 79.1113 -0.410175 -4.36176 0
M  V30 850 C 80.6123 1.38705 -4.21041 0
M  V30 851 H 77.8323 0.0584616 -0.668448 0
M  V30 852 H 80.3763 -0.467734 -1.99079 0
M  V30 853 H 78.5313 1.41979 -3.60445 0
M  V30 854 H 78.9453 -0.0669416 -5.24457 0
M  V30 855 H 80.4193 1.64306 -5.2698 0
M  V30 856 H 80.8963 2.33385 -3.72059 0
M  V30 857 H 81.5023 0.728906 -4.19007 0
M  V30 858 N 79.8174 1.5752 -0.0501392 0
M  V30 859 C 81.0424 1.97376 0.636997 0
M  V30 860 C 81.4674 0.927466 1.63645 0
M  V30 861 O 80.8254 -0.10941 1.8097 0
M  V30 862 C 80.8734 3.36304 1.30123 0
M  V30 863 O 79.9774 3.34156 2.41689 0
M  V30 864 H 79.3184 0.642998 0.165679 0
M  V30 865 H 81.8484 2.04258 -0.118233 0
M  V30 866 H 81.8584 3.73008 1.65315 0
M  V30 867 H 80.5334 4.11993 0.568746 0
M  V30 868 H 79.1104 3.09196 2.08451 0
M  V30 869 N 81.2955 -0.223234 1.56011 0
M  V30 870 C 82.5435 -0.946003 1.78592 0
M  V30 871 C 82.8645 -1.84936 0.618349 0
M  V30 872 O 82.1345 -1.92473 -0.364833 0
M  V30 873 H 80.7145 -0.352298 0.658707 0
M  V30 874 H 83.3765 -0.235494 1.93472 0
M  V30 875 H 82.4725 -1.55381 2.70672 0
M  V30 876 N 82.7736 -1.49793 -0.48987 0
M  V30 877 C 84.0036 -1.6333 -1.26518 0
M  V30 878 C 84.4116 -0.308392 -1.8667 0
M  V30 879 O 83.7546 0.717512 -1.69108 0
M  V30 880 C 83.8166 -2.6522 -2.4269 0
M  V30 881 C 83.4806 -4.09279 -2.03321 0
M  V30 882 C 84.4776 -4.95738 -1.56652 0
M  V30 883 C 82.1626 -4.55082 -2.12616 0
M  V30 884 C 84.1566 -6.26041 -1.19795 0
M  V30 885 C 81.8436 -5.85396 -1.75371 0
M  V30 886 C 82.8416 -6.707 -1.29036 0
M  V30 887 O 82.5296 -7.98584 -0.92299 0
M  V30 888 H 82.2616 -0.552502 -0.389509 0
M  V30 889 H 84.8156 -1.96642 -0.593381 0
M  V30 890 H 83.0456 -2.27112 -3.12981 0
M  V30 891 H 84.7346 -2.68171 -3.04695 0
M  V30 892 H 85.5006 -4.61575 -1.48908 0
M  V30 893 H 81.3796 -3.88844 -2.47631 0
M  V30 894 H 84.9236 -6.92578 -0.835582 0
M  V30 895 H 80.8206 -6.19085 -1.82768 0
M  V30 896 H 81.5886 -8.11692 -1.05349 0
M  V30 897 N 84.2517 0.741722 -1.39055 0
M  V30 898 C 85.5287 1.49252 -1.26425 0
M  V30 899 C 85.9087 2.10705 0.129144 0
M  V30 900 O 85.2567 1.98045 1.13976 0
M  V30 901 C 85.4667 2.54934 -2.38347 0
M  V30 902 C 86.8147 3.21506 -2.77343 0
M  V30 903 O 87.8387 2.65245 -2.37747 0
M  V30 904 O 86.6977 4.23294 -3.45665 0
M  V30 905 H 83.7917 0.662451 -0.495064 0
M  V30 906 H 86.3377 0.776121 -1.50912 0
M  V30 907 H 85.1097 2.07857 -3.31529 0
M  V30 908 H 84.7327 3.34141 -2.15489 0
M  V30 909 N 85.7298 1.2412 0.971189 0
M  V30 910 C 86.6928 1.03156 2.04674 0
M  V30 911 C 87.6928 -0.00990322 1.60797 0
M  V30 912 O 88.8828 0.230729 1.72665 0
M  V30 913 C 86.0148 0.562765 3.36223 0
M  V30 914 H 87.2078 1.98614 2.24705 0
M  V30 915 H 84.7608 1.06293 1.14593 0
M  V30 916 H 85.4958 -0.395176 3.21883 0
M  V30 917 H 85.2808 1.31441 3.69413 0
M  V30 918 H 86.7708 0.437015 4.15307 0
M  V30 919 N 87.2079 -1.17134 1.05439 0
M  V30 920 C 88.6239 -1.39454 0.776201 0
M  V30 921 C 88.8239 -1.91454 -0.628307 0
M  V30 922 O 87.8799 -2.10777 -1.39031 0
M  V30 923 C 89.1929 -2.38305 1.83388 0
M  V30 924 C 90.7409 -2.52006 1.85639 0
M  V30 925 C 91.2159 -3.54133 2.90437 0
M  V30 926 N 92.7069 -3.61653 2.89415 0
M  V30 927 C 93.4419 -4.4044 3.67152 0
M  V30 928 N 92.9379 -5.22721 4.54681 0
M  V30 929 N 94.7309 -4.35337 3.55581 0
M  V30 930 H 86.8819 -0.817134 1.96053 0
M  V30 931 H 89.1449 -0.421626 0.849079 0
M  V30 932 H 88.8509 -2.07173 2.84204 0
M  V30 933 H 88.7249 -3.37841 1.67761 0
M  V30 934 H 91.1119 -2.82447 0.85486 0
M  V30 935 H 91.1929 -1.52537 2.05344 0
M  V30 936 H 90.8369 -3.24431 3.90777 0
M  V30 937 H 90.7669 -4.53313 2.67983 0
M  V30 938 H 93.2579 -3.02909 2.25952 0
M  V30 939 H 93.5709 -5.80027 5.10674 0
M  V30 940 H 91.9159 -5.22093 4.58741 0
M  V30 941 H 95.1069 -3.70112 2.86592 0
M  V30 942 H 95.2799 -4.96494 4.1641 0
M  V30 943 N 88.686 -0.835752 -1.33615 0
M  V30 944 C 89.935 -0.426289 -1.97144 0
M  V30 945 C 90.248 1.01912 -1.66953 0
M  V30 946 O 91.454 1.53311 -2.24072 0
M  V30 947 C 89.91 -0.711321 -3.52801 0
M  V30 948 C 89.518 -2.1712 -3.91871 0
M  V30 949 C 91.262 -0.368654 -4.22896 0
M  V30 950 C 89.169 -2.40044 -5.40493 0
M  V30 951 H 88.099 -0.15567 -0.737755 0
M  V30 952 H 90.75 -1.0239 -1.52278 0
M  V30 953 H 89.132 -0.0433766 -3.95976 0
M  V30 954 H 90.306 -2.87936 -3.59763 0
M  V30 955 H 88.621 -2.47654 -3.34749 0
M  V30 956 H 91.218 -0.517601 -5.32189 0
M  V30 957 H 91.561 0.688078 -4.10574 0
M  V30 958 H 92.094 -0.991702 -3.8524 0
M  V30 959 H 88.833 -3.44271 -5.57815 0
M  V30 960 H 88.353 -1.73785 -5.74072 0
M  V30 961 H 90.032 -2.23042 -6.0734 0
M  V30 962 N 90.1641 1.46063 -0.591896 0
M  V30 963 C 91.5801 1.57561 -0.254288 0
M  V30 964 C 91.7801 1.58565 1.24336 0
M  V30 965 O 90.8361 1.50753 2.02558 0
M  V30 966 C 92.1491 2.86549 -0.911611 0
M  V30 967 C 93.6971 3.00197 -0.886059 0
M  V30 968 C 94.1721 4.31933 -1.5231 0
M  V30 969 N 95.6631 4.38654 -1.48786 0
M  V30 970 C 96.3981 5.39222 -1.95006 0
M  V30 971 N 95.8941 6.46414 -2.49241 0
M  V30 972 N 97.6871 5.3048 -1.85868 0
M  V30 973 H 89.8381 1.43655 -1.56451 0
M  V30 974 H 92.1011 0.68583 -0.654478 0
M  V30 975 H 91.8071 2.91651 -1.96551 0
M  V30 976 H 91.6811 3.74794 -0.425368 0
M  V30 977 H 94.0681 2.9467 0.159246 0
M  V30 978 H 94.1491 2.13403 -1.41041 0
M  V30 979 H 93.7931 4.38217 -2.56765 0
M  V30 980 H 93.7231 5.17516 -0.973891 0
M  V30 981 H 96.2141 3.61793 -1.09151 0
M  V30 982 H 96.5271 7.19376 -2.82344 0
M  V30 983 H 94.8721 6.47208 -2.53272 0
M  V30 984 H 98.0631 4.45643 -1.43248 0
M  V30 985 H 98.2361 6.08711 -2.22204 0
M  V30 986 N 91.6422 0.330177 1.54103 0
M  V30 987 C 93.0532 -0.15652 1.86043 0
M  V30 988 C 93.4042 -1.51086 1.2517 0
M  V30 989 O 92.5292 -2.09023 0.560217 0
M  V30 990 C 93.1242 -0.290784 3.3755 0
M  V30 991 C 91.6832 -0.721705 3.69416 0
M  V30 992 C 90.8302 0.152622 2.7688 0
M  V30 993 H 93.7812 0.550237 1.48856 0
M  V30 994 H 93.8022 -1.12058 3.63625 0
M  V30 995 H 93.3142 0.695068 3.81825 0
M  V30 996 H 91.4152 -1.71706 3.30678 0
M  V30 997 H 91.5282 -0.520869 4.7626 0
M  V30 998 H 89.8922 -0.372894 2.51956 0
M  V30 999 H 90.6752 1.13536 3.23982 0
M  V30 1000 N 93.1203 -1.57491 0.0584922 0
M  V30 1001 C 94.0683 -2.13148 -0.931168 0
M  V30 1002 C 95.0623 -1.06507 -1.31729 0
M  V30 1003 O 96.2683 -1.24906 -1.29609 0
M  V30 1004 H 92.6433 -0.68137 -0.31818 0
M  V30 1005 H 94.6143 -2.95187 -0.436707 0
M  V30 1006 C 93.3633 -2.69732 -2.19408 0
M  V30 1007 H 92.6863 -3.51454 -1.90578 0
M  V30 1008 H 94.1263 -3.12287 -2.86798 0
M  V30 1009 C 92.5853 -1.63855 -2.94369 0
M  V30 1010 O 93.1153 -1.05565 -3.87581 0
M  V30 1011 N 91.3213 -1.35202 -2.57233 0
M  V30 1012 H 90.8683 -1.82791 -1.81508 0
M  V30 1013 H 90.8263 -0.645922 -3.07693 0
M  V30 1014 N 94.5984 0.214957 -1.56127 0
M  V30 1015 C 95.8454 0.938372 -1.79446 0
M  V30 1016 C 96.1734 1.8407 -0.628378 0
M  V30 1017 O 95.4284 1.91837 0.386925 0
M  V30 1018 C 95.7274 1.80314 -3.0858 0
M  V30 1019 C 95.3934 1.05349 -4.3842 0
M  V30 1020 C 94.0554 0.846435 -4.73697 0
M  V30 1021 C 96.4074 0.524588 -5.18553 0
M  V30 1022 C 93.7354 0.098683 -5.86617 0
M  V30 1023 C 96.0874 -0.209853 -6.32252 0
M  V30 1024 C 94.7514 -0.428102 -6.66126 0
M  V30 1025 H 94.0214 0.343375 -0.656639 0
M  V30 1026 H 96.6684 0.206077 -1.90388 0
M  V30 1027 H 94.9734 2.6035 -2.92789 0
M  V30 1028 H 96.6704 2.36513 -3.23825 0
M  V30 1029 H 93.2604 1.22486 -4.10725 0
M  V30 1030 H 97.4444 0.672008 -4.91729 0
M  V30 1031 H 92.7004 -0.0805753 -6.11347 0
M  V30 1032 H 96.8744 -0.627157 -6.9357 0
M  V30 1033 H 94.5014 -1.00944 -7.53468 0
M  V30 1034 N 96.0765 1.50051 0.48192 0
M  V30 1035 C 97.0235 1.68122 1.58125 0
M  V30 1036 C 97.9935 0.522545 1.57666 0
M  V30 1037 O 99.1785 0.751844 1.75362 0
M  V30 1038 C 96.3185 1.77142 2.96167 0
M  V30 1039 C 95.4315 3.0444 3.06497 0
M  V30 1040 C 94.5665 3.04321 4.35387 0
M  V30 1041 C 93.6055 4.26118 4.3942 0
M  V30 1042 N 92.7425 4.238 5.59766 0
M  V30 1043 H 97.5825 2.6198 1.42022 0
M  V30 1044 H 95.1195 1.29877 0.690687 0
M  V30 1045 H 97.0775 1.80352 3.76203 0
M  V30 1046 H 95.7075 0.867329 3.1093 0
M  V30 1047 H 94.7595 3.10752 2.19402 0
M  V30 1048 H 96.0715 3.94426 3.05336 0
M  V30 1049 H 95.2255 3.062 5.23762 0
M  V30 1050 H 93.9645 2.12147 4.39141 0
M  V30 1051 H 92.9695 4.24463 3.49444 0
M  V30 1052 H 94.1945 5.19507 4.37366 0
M  V30 1053 H 92.1405 3.34474 5.64326 0
M  V30 1054 H 92.0575 5.07542 5.60301 0
M  V30 1055 H 93.3255 4.2981 6.50295 0
M  V30 1056 N 97.5546 -0.734337 1.39446 0
M  V30 1057 C 98.8026 -1.49096 1.36436 0
M  V30 1058 C 99.1236 -1.94961 -0.0388255 0
M  V30 1059 O 98.3936 -1.69033 -0.990191 0
M  V30 1060 H 96.9736 -0.5531 0.502085 0
M  V30 1061 H 99.6356 -0.871725 1.74319 0
M  V30 1062 H 98.7316 -2.37276 2.02747 0
M  V30 1063 N 99.0327 -1.24633 -0.964593 0
M  V30 1064 C 100.444 -1.08045 -1.5226 0
M  V30 1065 C 100.795 0.347116 -1.93105 0
M  V30 1066 O 99.9197 1.23588 -1.77637 0
M  V30 1067 C 100.515 -1.95514 -2.76695 0
M  V30 1068 C 99.0737 -1.8314 -3.28841 0
M  V30 1069 C 98.2207 -1.90262 -2.01732 0
M  V30 1070 H 101.172 -1.38064 -0.782553 0
M  V30 1071 H 101.193 -1.48925 -3.50145 0
M  V30 1072 H 100.705 -2.99407 -2.46936 0
M  V30 1073 H 98.8057 -0.82092 -3.63444 0
M  V30 1074 H 98.9187 -2.67406 -3.97531 0
M  V30 1075 H 97.2827 -1.34027 -2.16584 0
M  V30 1076 H 98.0657 -2.9574 -1.74334 0
M  V30 1077 N 100.511 1.16574 -1.06058 0
M  V30 1078 C 101.922 1.68662 -0.800632 0
M  V30 1079 C 102.273 1.84184 0.67608 0
M  V30 1080 O 101.398 1.53568 1.52466 0
M  V30 1081 C 101.993 3.06356 -1.44676 0
M  V30 1082 C 100.552 3.55575 -1.23465 0
M  V30 1083 C 99.6988 2.31616 -1.52477 0
M  V30 1084 H 102.65 1.00969 -1.22438 0
M  V30 1085 H 102.671 3.70636 -0.860788 0
M  V30 1086 H 102.183 2.95027 -2.52152 0
M  V30 1087 H 100.284 3.72167 -0.179527 0
M  V30 1088 H 100.397 4.37812 -1.94571 0
M  V30 1089 H 98.7608 2.36512 -0.945209 0
M  V30 1090 H 99.5438 2.22887 -2.61106 0
M  V30 1091 N 101.989 0.842826 1.3317 0
M  V30 1092 C 103.235 0.441099 1.97945 0
M  V30 1093 C 103.568 -0.998024 1.66593 0
M  V30 1094 O 102.843 -1.69839 0.947898 0
M  V30 1095 C 103.126 0.666841 3.53872 0
M  V30 1096 C 102.979 2.15352 3.94897 0
M  V30 1097 C 104.298 0.115544 4.39948 0
M  V30 1098 H 101.417 0.161739 0.719034 0
M  V30 1099 H 104.059 1.05907 1.57746 0
M  V30 1100 H 102.209 0.140828 3.88245 0
M  V30 1101 H 103.881 2.7447 3.70761 0
M  V30 1102 H 102.124 2.63653 3.44484 0
M  V30 1103 H 102.795 2.26221 5.03516 0
M  V30 1104 H 105.271 0.565213 4.12243 0
M  V30 1105 H 104.147 0.303152 5.48062 0
M  V30 1106 H 104.408 -0.980935 4.3108 0
M  V30 1107 N 103.467 -1.45747 0.599634 0
M  V30 1108 C 104.415 -2.322 -0.136426 0
M  V30 1109 C 105.409 -1.45497 -0.867583 0
M  V30 1110 O 106.615 -1.62027 -0.78405 0
M  V30 1111 H 102.99 -0.749368 -0.0628588 0
M  V30 1112 H 104.961 -2.92072 0.611281 0
M  V30 1113 C 103.71 -3.28974 -1.12567 0
M  V30 1114 H 103.033 -3.9568 -0.572484 0
M  V30 1115 H 104.473 -3.92212 -1.61077 0
M  V30 1116 C 102.932 -2.55561 -2.19523 0
M  V30 1117 O 103.462 -2.33111 -3.27143 0
M  V30 1118 N 101.668 -2.15832 -1.94589 0
M  V30 1119 H 101.215 -2.3429 -1.07078 0
M  V30 1120 H 101.173 -1.67034 -2.66359 0
M  V30 1121 N 104.945 -0.338344 -1.53925 0
M  V30 1122 C 106.191 0.260143 -2.01125 0
M  V30 1123 C 106.524 1.50617 -1.22589 0
M  V30 1124 O 105.799 1.91979 -0.312113 0
M  V30 1125 C 106.082 0.579499 -3.55407 0
M  V30 1126 C 105.935 -0.678264 -4.44657 0
M  V30 1127 C 107.254 1.39122 -4.17532 0
M  V30 1128 H 104.373 0.0930772 -0.731099 0
M  V30 1129 H 107.015 -0.457852 -1.84401 0
M  V30 1130 H 105.165 1.19118 -3.69788 0
M  V30 1131 H 106.837 -1.31631 -4.42121 0
M  V30 1132 H 105.08 -1.3042 -4.13731 0
M  V30 1133 H 105.751 -0.410143 -5.50474 0
M  V30 1134 H 108.227 0.874035 -4.06817 0
M  V30 1135 H 107.103 1.58342 -5.25565 0
M  V30 1136 H 107.364 2.39178 -3.71815 0
M  V30 1137 N 106.423 1.57458 -0.0668435 0
M  V30 1138 C 107.651 1.97624 0.612565 0
M  V30 1139 C 108.066 0.94502 1.63447 0
M  V30 1140 O 107.423 -0.0689276 1.8237 0
M  V30 1141 C 107.474 3.37869 1.28555 0
M  V30 1142 O 107.195 4.3704 0.304557 0
M  V30 1143 C 108.696 3.92882 2.05325 0
M  V30 1144 H 105.916 0.650045 0.166381 0
M  V30 1145 H 108.46 2.04035 -0.137782 0
M  V30 1146 H 106.615 3.3256 1.98702 0
M  V30 1147 H 107.029 5.18565 0.786779 0
M  V30 1148 H 108.503 4.93247 2.47812 0
M  V30 1149 H 108.98 3.29156 2.9078 0
M  V30 1150 H 109.586 4.01577 1.40056 0
M  V30 1151 N 107.901 -0.206675 1.56239 0
M  V30 1152 C 109.141 -0.93574 1.81723 0
M  V30 1153 C 109.505 -1.80927 0.642609 0
M  V30 1154 O 110.706 -2.57323 0.777081 0
M  V30 1155 C 108.977 -1.74012 3.12177 0
M  V30 1156 S 110.536 -2.52279 3.59028 0
M  V30 1157 H 107.354 -0.314065 0.637875 0
M  V30 1158 H 109.956 -0.200071 1.94474 0
M  V30 1159 H 108.66 -1.0888 3.95693 0
M  V30 1160 H 108.191 -2.51782 3.02274 0
M  V30 1161 H 110.206 -3.76209 3.23545 0
M  V30 1162 N 109.379 -1.50304 -0.473955 0
M  V30 1163 C 110.327 -1.69482 -1.59307 0
M  V30 1164 C 111.321 -0.560669 -1.59853 0
M  V30 1165 O 112.527 -0.741087 -1.64036 0
M  V30 1166 H 108.902 -0.534892 -0.528578 0
M  V30 1167 H 110.873 -2.63364 -1.40293 0
M  V30 1168 C 109.622 -1.80354 -2.97267 0
M  V30 1169 H 108.945 -2.67012 -2.97564 0
M  V30 1170 H 110.385 -1.97798 -3.75036 0
M  V30 1171 C 108.844 -0.55448 -3.32306 0
M  V30 1172 O 109.374 0.307661 -4.0052 0
M  V30 1173 N 107.58 -0.409354 -2.87702 0
M  V30 1174 H 107.127 -1.11196 -2.32364 0
M  V30 1175 H 107.085 0.425223 -3.11511 0
M  V30 1176 N 110.857 0.726932 -1.39834 0
M  V30 1177 C 112.106 1.48214 -1.36805 0
M  V30 1178 C 112.419 1.95576 0.0305291 0
M  V30 1179 O 113.625 2.7088 0.183417 0
M  V30 1180 C 112.081 2.67854 -2.40379 0
M  V30 1181 C 111.689 2.27408 -3.85992 0
M  V30 1182 C 113.433 3.45641 -2.46439 0
M  V30 1183 C 111.34 3.43819 -4.81189 0
M  V30 1184 H 110.27 0.556606 -0.508631 0
M  V30 1185 H 112.921 0.792216 -1.65518 0
M  V30 1186 H 111.303 3.3896 -2.04749 0
M  V30 1187 H 112.477 1.63795 -4.30706 0
M  V30 1188 H 110.792 1.62692 -3.83302 0
M  V30 1189 H 113.389 4.32244 -3.14753 0
M  V30 1190 H 113.732 3.88669 -1.49139 0
M  V30 1191 H 114.265 2.8157 -2.81004 0
M  V30 1192 H 111.004 3.05834 -5.79781 0
M  V30 1193 H 110.524 4.06385 -4.41148 0
M  V30 1194 H 112.203 4.10043 -5.00474 0
M  V30 1195 N 112.336 1.25143 0.95797 0
M  V30 1196 C 113.583 1.09692 1.70217 0
M  V30 1197 C 113.911 -0.362654 1.91089 0
M  V30 1198 O 113.166 -1.28386 1.47701 0
M  V30 1199 C 113.465 1.79272 3.09187 0
M  V30 1200 C 113.131 3.29196 3.08125 0
M  V30 1201 C 111.793 3.70096 3.07543 0
M  V30 1202 C 114.145 4.24995 3.0171 0
M  V30 1203 C 111.473 5.05213 2.9829 0
M  V30 1204 C 113.825 5.60132 2.93999 0
M  V30 1205 C 112.489 6.00365 2.9175 0
M  V30 1206 H 111.759 0.401393 0.622868 0
M  V30 1207 H 114.406 1.55372 1.11945 0
M  V30 1208 H 112.711 1.26014 3.70982 0
M  V30 1209 H 114.408 1.64773 3.65583 0
M  V30 1210 H 110.998 2.96651 3.09348 0
M  V30 1211 H 115.182 3.9439 3.01281 0
M  V30 1212 H 110.438 5.35569 2.94916 0
M  V30 1213 H 114.612 6.3406 2.87996 0
M  V30 1214 H 112.239 7.05023 2.84336 0
M  V30 1215 N 113.814 -1.1601 1.06675 0
M  V30 1216 C 115.063 -1.85973 0.780818 0
M  V30 1217 C 115.376 -1.82819 -0.695444 0
M  V30 1218 O 116.582 -2.484 -1.09589 0
M  V30 1219 C 115.038 -3.33757 1.34665 0
M  V30 1220 C 114.646 -3.45374 2.85343 0
M  V30 1221 C 116.39 -4.0895 1.13843 0
M  V30 1222 C 114.297 -4.87266 3.35151 0
M  V30 1223 H 113.227 -0.696661 0.288407 0
M  V30 1224 H 115.878 -1.30903 1.28595 0
M  V30 1225 H 114.26 -3.88456 0.769274 0
M  V30 1226 H 115.434 -3.00816 3.49065 0
M  V30 1227 H 113.749 -2.83619 3.04876 0
M  V30 1228 H 116.346 -5.13654 1.4854 0
M  V30 1229 H 116.689 -4.16229 0.0770282 0
M  V30 1230 H 117.222 -3.605 1.68179 0
M  V30 1231 H 113.961 -4.85168 4.40786 0
M  V30 1232 H 113.481 -5.32433 2.76179 0
M  V30 1233 H 115.16 -5.56097 3.30704 0
M  V30 1234 N 115.292 -0.849877 -1.32721 0
M  V30 1235 C 116.24 -0.279745 -2.30912 0
M  V30 1236 C 117.234 0.594278 -1.58634 0
M  V30 1237 O 118.44 0.482613 -1.73409 0
M  V30 1238 H 114.815 -0.0717521 -0.748569 0
M  V30 1239 H 116.786 -1.12222 -2.76494 0
M  V30 1240 C 115.535 0.521108 -3.43773 0
M  V30 1241 H 114.858 -0.142141 -3.99547 0
M  V30 1242 H 116.298 0.885693 -4.14646 0
M  V30 1243 C 114.757 1.70442 -2.90605 0
M  V30 1244 O 115.287 2.8034 -2.87702 0
M  V30 1245 N 113.493 1.52991 -2.47067 0
M  V30 1246 H 113.04 0.635914 -2.49628 0
M  V30 1247 H 112.998 2.32311 -2.11847 0
M  V30 1248 N 116.77 1.45427 -0.607355 0
M  V30 1249 C 117.995 2.07124 -0.107006 0
M  V30 1250 C 118.42 1.44906 1.19933 0
M  V30 1251 O 117.778 0.541687 1.73019 0
M  V30 1252 C 117.826 3.60595 0.0194119 0
M  V30 1253 O 116.93 3.98285 1.0697 0
M  V30 1254 H 116.271 0.659868 -0.0739597 0
M  V30 1255 H 118.801 1.86683 -0.837297 0
M  V30 1256 H 118.811 4.07419 0.2177 0
M  V30 1257 H 117.486 4.05266 -0.934453 0
M  V30 1258 H 116.063 3.63133 0.847889 0
M  V30 1259 N 118.248 0.346503 1.53744 0
M  V30 1260 C 119.495 -0.249104 2.00962 0
M  V30 1261 C 119.823 -1.5032 1.23426 0
M  V30 1262 O 119.078 -1.93217 0.310761 0
M  V30 1263 C 119.377 -0.605809 3.52228 0
M  V30 1264 C 119.043 0.551747 4.47512 0
M  V30 1265 C 117.705 0.86941 4.73281 0
M  V30 1266 C 120.057 1.32818 5.03993 0
M  V30 1267 C 117.385 1.96582 5.52786 0
M  V30 1268 C 119.737 2.41486 5.84694 0
M  V30 1269 C 118.401 2.73808 6.08757 0
M  V30 1270 H 117.671 -0.0911538 0.735372 0
M  V30 1271 H 120.318 0.475027 1.85515 0
M  V30 1272 H 118.623 -1.4107 3.65522 0
M  V30 1273 H 120.32 -1.07858 3.86222 0
M  V30 1274 H 116.91 0.294102 4.2759 0
M  V30 1275 H 121.094 1.09602 4.84047 0
M  V30 1276 H 116.35 2.22045 5.69654 0
M  V30 1277 H 120.524 3.02078 6.27473 0
M  V30 1278 H 118.151 3.58892 6.7015 0
M  V30 1279 N 119.726 -1.57421 0.075193 0
M  V30 1280 C 120.974 -1.93236 -0.591974 0
M  V30 1281 C 121.295 -0.956241 -1.69944 0
M  V30 1282 O 120.565 -0.00494792 -1.95899 0
M  V30 1283 H 119.145 -0.713355 -0.22166 0
M  V30 1284 H 121.807 -1.9444 0.133848 0
M  V30 1285 H 120.903 -2.95131 -1.01509 0
M  V30 1286 N 121.204 0.198386 -1.56346 0
M  V30 1287 C 122.429 0.939682 -1.84891 0
M  V30 1288 C 122.854 1.76202 -0.658369 0
M  V30 1289 O 122.212 1.76993 0.392851 0
M  V30 1290 C 122.26 1.81428 -3.11635 0
M  V30 1291 O 121.364 2.91265 -2.91956 0
M  V30 1292 H 120.705 0.264807 -0.608912 0
M  V30 1293 H 123.235 0.204695 -2.03573 0
M  V30 1294 H 123.245 2.21958 -3.42343 0
M  V30 1295 H 121.92 1.21004 -3.97908 0
M  V30 1296 H 120.497 2.54514 -2.72538 0
M  V30 1297 N 122.682 1.50554 0.465978 0
M  V30 1298 C 123.931 1.61038 1.21448 0
M  V30 1299 C 124.244 0.31865 1.92987 0
M  V30 1300 O 125.45 0.302469 2.6981 0
M  V30 1301 C 123.906 2.84283 2.20706 0
M  V30 1302 C 123.514 4.20352 1.54946 0
M  V30 1303 C 125.258 3.04115 2.96166 0
M  V30 1304 C 123.165 5.34778 2.5252 0
M  V30 1305 H 122.095 0.599718 0.457005 0
M  V30 1306 H 124.746 1.7699 0.484424 0
M  V30 1307 H 123.128 2.61901 2.97025 0
M  V30 1308 H 124.302 4.53008 0.843811 0
M  V30 1309 H 122.617 4.06167 0.917475 0
M  V30 1310 H 125.214 3.86774 3.69202 0
M  V30 1311 H 125.557 2.16045 3.55852 0
M  V30 1312 H 126.09 3.26702 2.26959 0
M  V30 1313 H 122.829 6.25018 1.97566 0
M  V30 1314 H 122.349 5.06534 3.21222 0
M  V30 1315 H 124.028 5.65561 3.14245 0
M  V30 1316 N 124.16 -0.719506 1.40217 0
M  V30 1317 C 125.123 -1.8153 1.39927 0
M  V30 1318 C 126.123 -1.58095 0.293723 0
M  V30 1319 O 127.313 -1.65209 0.552429 0
M  V30 1320 C 124.445 -3.19561 1.18716 0
M  V30 1321 H 125.638 -1.83186 2.37451 0
M  V30 1322 H 123.191 -0.924746 1.26008 0
M  V30 1323 H 123.926 -3.23557 0.219366 0
M  V30 1324 H 123.711 -3.3797 1.98793 0
M  V30 1325 H 125.201 -3.99598 1.21291 0
M  V30 1326 N 125.638 -1.25649 -0.95132 0
M  V30 1327 C 126.548 -1.08073 -2.08224 0
M  V30 1328 C 127.564 -0.0169666 -1.73992 0
M  V30 1329 O 128.74 -0.218593 -2.0021 0
M  V30 1330 C 125.805 -0.704922 -3.39458 0
M  V30 1331 C 124.866 -1.84699 -3.87537 0
M  V30 1332 C 124.099 -1.48902 -5.12508 0
M  V30 1333 O 124.322 -0.386156 -5.69091 0
M  V30 1334 O 123.256 -2.32033 -5.55378 0
M  V30 1335 H 127.082 -2.02924 -2.25954 0
M  V30 1336 H 124.667 -1.04618 -1.06656 0
M  V30 1337 H 126.549 -0.507609 -4.18332 0
M  V30 1338 H 125.224 0.214291 -3.2299 0
M  V30 1339 H 124.131 -2.09919 -3.09653 0
M  V30 1340 H 125.464 -2.74557 -4.08509 0
M  V30 1341 N 127.117 1.15442 -1.07289 0
M  V30 1342 C 128.345 1.90096 -0.81676 0
M  V30 1343 C 128.76 1.7798 0.629966 0
M  V30 1344 O 128.117 1.1313 1.43206 0
M  V30 1345 C 128.168 3.40466 -1.21512 0
M  V30 1346 O 127.889 3.52232 -2.60508 0
M  V30 1347 C 129.39 4.32145 -0.988198 0
M  V30 1348 H 126.61 0.602495 -0.295366 0
M  V30 1349 H 129.154 1.4627 -1.42918 0
M  V30 1350 H 127.309 3.81958 -0.647039 0
M  V30 1351 H 127.723 4.45549 -2.76742 0
M  V30 1352 H 129.197 5.36072 -1.31645 0
M  V30 1353 H 129.674 4.39135 0.0755063 0
M  V30 1354 H 130.28 3.96395 -1.54115 0
M  V30 1355 N 128.595 0.856903 1.32268 0
M  V30 1356 C 129.823 0.475439 2.01363 0
M  V30 1357 C 130.238 -0.928486 1.64392 0
M  V30 1358 O 129.595 -1.60624 0.866387 0
M  V30 1359 C 129.646 0.607545 3.56358 0
M  V30 1360 O 129.367 1.95617 3.92002 0
M  V30 1361 C 130.868 0.225382 4.42727 0
M  V30 1362 H 128.088 0.186636 0.644521 0
M  V30 1363 H 130.632 1.15446 1.68797 0
M  V30 1364 H 128.787 -0.0237719 3.87393 0
M  V30 1365 H 129.201 1.95455 4.86721 0
M  V30 1366 H 130.675 0.368813 5.50767 0
M  V30 1367 H 131.152 -0.834369 4.31202 0
M  V30 1368 H 131.758 0.831864 4.17085 0
M  V30 1369 N 130.073 -1.45103 0.615059 0
M  V30 1370 C 131.006 -2.27717 -0.148408 0
M  V30 1371 C 131.984 -1.37584 -0.866572 0
M  V30 1372 O 133.168 -1.67017 -0.87393 0
M  V30 1373 C 130.295 -3.16136 -1.21557 0
M  V30 1374 C 129.341 -4.22263 -0.599712 0
M  V30 1375 S 130.174 -5.3215 0.598081 0
M  V30 1376 C 131.33 -6.24137 -0.469484 0
M  V30 1377 H 131.563 -2.92121 0.552483 0
M  V30 1378 H 129.096 -1.49054 0.402778 0
M  V30 1379 H 131.054 -3.67633 -1.82638 0
M  V30 1380 H 129.715 -2.50982 -1.88857 0
M  V30 1381 H 128.908 -4.84081 -1.4029 0
M  V30 1382 H 128.51 -3.73945 -0.063876 0
M  V30 1383 H 130.802 -6.63984 -1.34652 0
M  V30 1384 H 131.745 -7.0801 0.112725 0
M  V30 1385 H 132.153 -5.58971 -0.788168 0
M  V30 1386 N 131.551 -0.354651 -1.53558 0
M  V30 1387 C 132.828 0.294281 -1.93374 0
M  V30 1388 C 133.208 1.67313 -1.28723 0
M  V30 1389 O 132.556 2.24179 -0.442247 0
M  V30 1390 C 132.766 0.355445 -3.47185 0
M  V30 1391 C 134.114 0.601007 -4.20325 0
M  V30 1392 O 135.138 0.437106 -3.53508 0
M  V30 1393 O 133.997 0.919322 -5.38712 0
M  V30 1394 H 131.091 0.174033 -0.808481 0
M  V30 1395 H 133.637 -0.406638 -1.64756 0
M  V30 1396 H 132.409 -0.611729 -3.86489 0
M  V30 1397 H 132.032 1.1027 -3.82003 0
M  V30 1398 N 133.029 1.57378 -0.0835403 0
M  V30 1399 C 134.259 1.97975 0.590713 0
M  V30 1400 C 134.667 0.961083 1.62972 0
M  V30 1401 O 134.01 -0.0590879 1.83605 0
M  V30 1402 C 134.072 3.34915 1.3066 0
M  V30 1403 C 133.736 4.55069 0.419698 0
M  V30 1404 C 134.733 5.18868 -0.32749 0
M  V30 1405 C 132.418 5.0114 0.341137 0
M  V30 1406 C 134.412 6.27098 -1.14134 0
M  V30 1407 C 132.099 6.0924 -0.476374 0
M  V30 1408 C 133.097 6.72083 -1.21627 0
M  V30 1409 O 132.785 7.781 -2.02028 0
M  V30 1410 H 132.517 0.655818 0.163947 0
M  V30 1411 H 135.071 2.04807 -0.156021 0
M  V30 1412 H 133.301 3.24733 2.09966 0
M  V30 1413 H 134.99 3.60037 1.87424 0
M  V30 1414 H 135.756 4.84211 -0.276459 0
M  V30 1415 H 131.635 4.51996 0.90668 0
M  V30 1416 H 135.179 6.7608 -1.71935 0
M  V30 1417 H 131.076 6.43329 -0.528927 0
M  V30 1418 H 131.844 7.95034 -1.94586 0
M  V30 1419 N 134.507 -0.190092 1.56449 0
M  V30 1420 C 135.923 -0.54113 1.50146 0
M  V30 1421 C 136.123 -1.85603 0.784465 0
M  V30 1422 O 135.179 -2.5024 0.337051 0
M  V30 1423 C 136.492 -0.591241 2.9483 0
M  V30 1424 C 138.04 -0.679732 3.0553 0
M  V30 1425 C 138.515 -0.760908 4.51635 0
M  V30 1426 N 140.006 -0.824302 4.55806 0
M  V30 1427 C 140.741 -0.907365 5.66175 0
M  V30 1428 N 140.237 -0.952422 6.86222 0
M  V30 1429 N 142.03 -0.94494 5.541 0
M  V30 1430 H 134.181 0.67235 2.01478 0
M  V30 1431 H 136.444 0.240127 0.917084 0
M  V30 1432 H 136.15 0.305905 3.50367 0
M  V30 1433 H 136.024 -1.44422 3.48457 0
M  V30 1434 H 138.411 -1.56731 2.50039 0
M  V30 1435 H 138.492 0.199549 2.5502 0
M  V30 1436 H 138.136 0.122336 5.07753 0
M  V30 1437 H 138.066 -1.65606 4.99882 0
M  V30 1438 H 140.557 -0.798526 3.69367 0
M  V30 1439 H 140.87 -1.01645 7.66086 0
M  V30 1440 H 139.215 -0.921014 6.8887 0
M  V30 1441 H 142.406 -0.906612 4.59236 0
M  V30 1442 H 142.579 -1.00622 6.4014 0
M  V30 1443 N 135.985 -1.50799 -0.457987 0
M  V30 1444 C 137.231 -1.62683 -1.21088 0
M  V30 1445 C 137.564 -0.332268 -1.91336 0
M  V30 1446 O 136.839 0.667043 -1.82704 0
M  V30 1447 C 137.122 -2.81615 -2.24422 0
M  V30 1448 C 136.975 -4.20989 -1.58392 0
M  V30 1449 C 138.294 -2.96085 -3.2561 0
M  V30 1450 H 135.413 -0.592087 -0.438864 0
M  V30 1451 H 138.055 -1.83225 -0.50286 0
M  V30 1452 H 136.205 -2.64231 -2.84806 0
M  V30 1453 H 137.877 -4.49994 -1.01504 0
M  V30 1454 H 136.12 -4.24641 -0.886704 0
M  V30 1455 H 136.791 -5.0016 -2.33547 0
M  V30 1456 H 139.267 -3.12042 -2.75262 0
M  V30 1457 H 138.143 -3.80902 -3.95228 0
M  V30 1458 H 138.404 -2.0726 -3.90507 0
M  V30 1459 N 137.463 0.71206 -1.40597 0
M  V30 1460 C 138.411 1.84746 -1.41321 0
M  V30 1461 C 139.405 1.66842 -0.293268 0
M  V30 1462 O 140.611 1.73904 -0.464481 0
M  V30 1463 H 136.986 0.608522 -0.441819 0
M  V30 1464 H 138.957 1.81252 -2.37045 0
M  V30 1465 C 137.706 3.22638 -1.29614 0
M  V30 1466 H 137.029 3.37023 -2.15071 0
M  V30 1467 H 138.469 4.02209 -1.3418 0
M  V30 1468 C 136.928 3.36899 -0.00673121 0
M  V30 1469 O 137.458 3.90186 0.954859 0
M  V30 1470 N 135.664 2.9053 0.0639327 0
M  V30 1471 H 135.211 2.47353 -0.719311 0
M  V30 1472 H 135.169 3.0045 0.926118 0
M  V30 1473 N 138.941 1.26152 0.944643 0
M  V30 1474 C 140.19 1.10883 1.68487 0
M  V30 1475 C 140.503 -0.348153 1.92477 0
M  V30 1476 O 141.709 -0.621459 2.64292 0
M  V30 1477 C 140.165 1.93624 3.03377 0
M  V30 1478 C 139.773 3.43875 2.87148 0
M  V30 1479 C 141.517 1.86954 3.81115 0
M  V30 1480 C 139.424 4.18875 4.1749 0
M  V30 1481 H 138.354 0.41135 0.631907 0
M  V30 1482 H 141.005 1.50433 1.05082 0
M  V30 1483 H 139.387 1.46904 3.67743 0
M  V30 1484 H 140.561 3.98338 2.31653 0
M  V30 1485 H 138.876 3.51744 2.22856 0
M  V30 1486 H 141.473 2.40275 4.77673 0
M  V30 1487 H 141.816 0.839518 4.07747 0
M  V30 1488 H 142.349 2.31477 3.23517 0
M  V30 1489 H 139.088 5.22332 3.96043 0
M  V30 1490 H 138.608 3.69193 4.72712 0
M  V30 1491 H 140.287 4.27134 4.85968 0
M  V30 1492 N 140.419 -1.14872 1.07899 0
M  V30 1493 C 141.666 -1.85789 0.805532 0
M  V30 1494 C 141.994 -1.82649 -0.668561 0
M  V30 1495 O 141.249 -1.24858 -1.50695 0
M  V30 1496 C 141.548 -3.34223 1.26609 0
M  V30 1497 C 141.214 -3.57555 2.74709 0
M  V30 1498 C 139.876 -3.63631 3.1516 0
M  V30 1499 C 142.228 -3.66803 3.70277 0
M  V30 1500 C 139.556 -3.76473 4.49983 0
M  V30 1501 C 141.908 -3.8117 5.04869 0
M  V30 1502 C 140.572 -3.85494 5.44932 0
M  V30 1503 H 139.842 -0.679849 0.294765 0
M  V30 1504 H 142.489 -1.3572 1.35101 0
M  V30 1505 H 140.794 -3.86536 0.640103 0
M  V30 1506 H 142.491 -3.87511 1.03132 0
M  V30 1507 H 139.081 -3.5347 2.42398 0
M  V30 1508 H 143.265 -3.61404 3.40149 0
M  V30 1509 H 138.521 -3.7808 4.80484 0
M  V30 1510 H 142.695 -3.87268 5.78789 0
M  V30 1511 H 140.322 -3.95197 6.49403 0
M  V30 1512 N 141.898 -0.863906 -1.31812 0
M  V30 1513 C 142.828 -0.330843 -2.31144 0
M  V30 1514 C 143.809 0.575005 -1.60087 0
M  V30 1515 O 144.994 0.493304 -1.8783 0
M  V30 1516 C 142.124 0.47374 -3.44054 0
M  V30 1517 C 141.078 -0.338481 -4.26659 0
M  V30 1518 C 140.404 0.591412 -5.31419 0
M  V30 1519 C 141.704 -1.56926 -4.98168 0
M  V30 1520 H 143.398 -1.16086 -2.75979 0
M  V30 1521 H 140.944 -0.559657 -1.32679 0
M  V30 1522 H 142.897 0.857143 -4.12591 0
M  V30 1523 H 141.621 1.33721 -2.9797 0
M  V30 1524 H 140.28 -0.703754 -3.59782 0
M  V30 1525 H 139.928 1.45199 -4.81587 0
M  V30 1526 H 139.628 0.0519022 -5.87577 0
M  V30 1527 H 141.152 0.97179 -6.02817 0
M  V30 1528 H 142.566 -1.25764 -5.59336 0
M  V30 1529 H 140.963 -2.04739 -5.64094 0
M  V30 1530 H 142.033 -2.32544 -4.25501 0
M  V30 1531 N 143.376 1.44774 -0.622745 0
M  V30 1532 C 144.792 1.56986 -0.287652 0
M  V30 1533 C 144.992 1.61167 1.20944 0
M  V30 1534 O 144.048 1.55015 1.99315 0
M  V30 1535 C 145.361 2.84551 -0.972188 0
M  V30 1536 C 146.909 2.9825 -0.949536 0
M  V30 1537 C 147.384 4.28605 -1.61437 0
M  V30 1538 N 148.875 4.35399 -1.58057 0
M  V30 1539 C 149.61 5.34964 -2.064 0
M  V30 1540 N 149.106 6.40981 -2.62897 0
M  V30 1541 N 150.899 5.26419 -1.97078 0
M  V30 1542 H 143.05 1.40304 -1.59463 0
M  V30 1543 H 145.313 0.671794 -0.668878 0
M  V30 1544 H 145.019 2.87417 -2.02693 0
M  V30 1545 H 144.893 3.73807 -0.504771 0
M  V30 1546 H 147.28 2.94941 0.0967067 0
M  V30 1547 H 147.361 2.10364 -1.45536 0
M  V30 1548 H 147.005 4.32672 -2.66002 0
M  V30 1549 H 146.935 5.15334 -1.08344 0
M  V30 1550 H 149.426 3.59397 -1.16801 0
M  V30 1551 H 149.739 7.13225 -2.97539 0
M  V30 1552 H 148.084 6.4169 -2.66943 0
M  V30 1553 H 151.275 4.42504 -1.52669 0
M  V30 1554 H 151.448 6.03861 -2.35066 0
M  V30 1555 N 144.854 0.36279 1.53368 0
M  V30 1556 C 145.786 -0.519668 2.23231 0
M  V30 1557 C 146.799 -1.04844 1.24546 0
M  V30 1558 O 147.988 -0.955296 1.50786 0
M  V30 1559 C 145.088 -1.72995 2.9142 0
M  V30 1560 C 144.261 -1.33316 4.16588 0
M  V30 1561 C 143.32 -2.40521 4.68013 0
M  V30 1562 O 142.346 -2.03027 5.3176 0
M  V30 1563 N 143.548 -3.72065 4.45587 0
M  V30 1564 H 146.313 0.078751 2.99597 0
M  V30 1565 H 143.874 0.187833 1.60807 0
M  V30 1566 H 145.866 -2.44184 3.22733 0
M  V30 1567 H 144.436 -2.2353 2.18525 0
M  V30 1568 H 143.656 -0.451236 3.91609 0
M  V30 1569 H 144.944 -1.04432 4.97967 0
M  V30 1570 H 144.342 -4.05304 3.94646 0
M  V30 1571 H 142.899 -4.39366 4.81457 0
M  V30 1572 N 146.332 -1.57332 0.0918853 0
M  V30 1573 C 147.279 -2.13847 -0.868211 0
M  V30 1574 C 148.249 -1.05618 -1.28196 0
M  V30 1575 O 149.434 -1.33387 -1.36427 0
M  V30 1576 C 146.574 -2.72062 -2.12312 0
M  V30 1577 C 145.687 -3.94514 -1.7602 0
M  V30 1578 C 144.822 -4.40903 -2.96273 0
M  V30 1579 C 143.861 -5.55953 -2.56092 0
M  V30 1580 N 142.998 -5.97209 -3.69169 0
M  V30 1581 H 147.838 -2.95575 -0.379406 0
M  V30 1582 H 145.375 -1.46048 -0.175606 0
M  V30 1583 H 147.333 -3.03931 -2.858 0
M  V30 1584 H 145.963 -1.93068 -2.58698 0
M  V30 1585 H 145.015 -3.68979 -0.925135 0
M  V30 1586 H 146.327 -4.7802 -1.42472 0
M  V30 1587 H 145.481 -4.74539 -3.78018 0
M  V30 1588 H 144.22 -3.56291 -3.33029 0
M  V30 1589 H 143.225 -5.21948 -1.72773 0
M  V30 1590 H 144.45 -6.42311 -2.20484 0
M  V30 1591 H 142.396 -5.15543 -4.05649 0
M  V30 1592 H 142.313 -6.75504 -3.39456 0
M  V30 1593 H 143.581 -6.35475 -4.51434 0
M  V30 1594 N 147.81 0.181792 -1.56548 0
M  V30 1595 C 149.056 0.896803 -1.82562 0
M  V30 1596 C 149.411 1.80324 -0.670908 0
M  V30 1597 O 148.704 1.8868 0.333235 0
M  V30 1598 C 148.898 1.73728 -3.12335 0
M  V30 1599 C 148.727 0.913714 -4.4032 0
M  V30 1600 C 147.497 0.592903 -5.01809 0
M  V30 1601 C 149.695 0.260164 -5.13642 0
M  V30 1602 N 147.677 -0.247901 -6.13399 0
M  V30 1603 C 149.048 -0.442256 -6.18421 0
M  V30 1604 C 151.103 0.177253 -4.97584 0
M  V30 1605 C 149.806 -1.21971 -7.08883 0
M  V30 1606 C 151.832 -0.586839 -5.88481 0
M  V30 1607 C 151.194 -1.27766 -6.92716 0
M  V30 1608 H 147.293 0.307122 -0.719166 0
M  V30 1609 H 149.877 0.164535 -1.94004 0
M  V30 1610 H 148.048 2.44105 -3.02105 0
M  V30 1611 H 149.78 2.39279 -3.26386 0
M  V30 1612 H 146.535 0.920502 -4.64568 0
M  V30 1613 H 146.959 -0.658304 -6.73792 0
M  V30 1614 H 151.601 0.696993 -4.17015 0
M  V30 1615 H 149.319 -1.75083 -7.88905 0
M  V30 1616 H 152.905 -0.652522 -5.78129 0
M  V30 1617 H 151.785 -1.85943 -7.61836 0
M  V30 1618 N 149.288 1.51039 0.449983 0
M  V30 1619 C 150.236 1.71995 1.5659 0
M  V30 1620 C 151.23 0.586029 1.5894 0
M  V30 1621 O 152.436 0.76709 1.62837 0
M  V30 1622 H 148.811 0.543233 0.520001 0
M  V30 1623 H 150.782 2.65562 1.36085 0
M  V30 1624 C 149.531 1.8506 2.9436 0
M  V30 1625 H 148.854 2.71712 2.93279 0
M  V30 1626 H 150.294 2.0374 3.71842 0
M  V30 1627 C 148.753 0.607277 3.31382 0
M  V30 1628 O 149.283 -0.243903 4.00959 0
M  V30 1629 N 147.489 0.455073 2.87015 0
M  V30 1630 H 147.036 1.14879 2.30566 0
M  V30 1631 H 146.994 -0.375611 3.12148 0
M  V30 1632 N 150.766 -0.704594 1.40972 0
M  V30 1633 C 152.043 -1.45847 1.30338 0
M  V30 1634 C 152.423 -2.10973 -0.0732344 0
M  V30 1635 O 151.771 -2.00997 -1.08685 0
M  V30 1636 C 151.981 -2.48525 2.45023 0
M  V30 1637 C 153.329 -3.1404 2.8577 0
M  V30 1638 O 154.353 -2.58848 2.44696 0
M  V30 1639 O 153.212 -4.13981 3.56766 0
M  V30 1640 H 150.306 -0.649092 0.512454 0
M  V30 1641 H 152.852 -0.735836 1.52917 0
M  V30 1642 H 151.624 -1.98994 3.36923 0
M  V30 1643 H 151.247 -3.2831 2.24272 0
M  V30 1644 N 152.244 -1.26651 -0.937939 0
M  V30 1645 C 153.655 -1.1125 -1.49934 0
M  V30 1646 C 154.006 0.306077 -1.93798 0
M  V30 1647 O 153.131 1.19792 -1.80219 0
M  V30 1648 C 153.726 -2.01339 -2.72485 0
M  V30 1649 C 152.285 -1.90074 -3.24883 0
M  V30 1650 C 151.432 -1.94498 -1.97651 0
M  V30 1651 H 154.383 -1.39693 -0.753091 0
M  V30 1652 H 154.404 -1.56319 -3.46907 0
M  V30 1653 H 153.916 -3.04577 -2.40529 0
M  V30 1654 H 152.017 -0.897827 -3.61621 0
M  V30 1655 H 152.13 -2.75778 -3.9177 0
M  V30 1656 H 150.494 -1.38591 -2.13693 0
M  V30 1657 H 151.277 -2.99372 -1.68022 0
M  V30 1658 N 153.722 1.14298 -1.08507 0
M  V30 1659 C 155.138 1.37347 -0.812901 0
M  V30 1660 C 155.338 1.93052 0.577325 0
M  V30 1661 O 154.394 2.14389 1.33393 0
M  V30 1662 C 155.707 2.33359 -1.89642 0
M  V30 1663 C 157.255 2.46996 -1.92255 0
M  V30 1664 C 157.73 3.46309 -2.99724 0
M  V30 1665 N 159.221 3.53853 -2.98902 0
M  V30 1666 C 159.956 4.3055 -3.787 0
M  V30 1667 N 159.452 5.10482 -4.6838 0
M  V30 1668 N 161.245 4.25757 -3.66998 0
M  V30 1669 H 153.396 0.764867 -1.9815 0
M  V30 1670 H 155.659 0.398966 -0.859959 0
M  V30 1671 H 155.365 1.99565 -2.89597 0
M  V30 1672 H 155.239 3.33274 -1.76659 0
M  V30 1673 H 157.626 2.80081 -0.929445 0
M  V30 1674 H 157.707 1.47039 -2.09316 0
M  V30 1675 H 157.351 3.13957 -3.99241 0
M  V30 1676 H 157.281 4.46049 -2.79907 0
M  V30 1677 H 159.772 2.96812 -2.33904 0
M  V30 1678 H 160.085 5.66284 -5.25873 0
M  V30 1679 H 158.43 5.09747 -4.72422 0
M  V30 1680 H 161.621 3.62383 -2.96304 0
M  V30 1681 H 161.794 4.85279 -4.29427 0
M  V30 1682 N 155.201 0.870884 1.31352 0
M  V30 1683 C 156.131 0.343096 2.30966 0
M  V30 1684 C 157.112 -0.566507 1.60389 0
M  V30 1685 O 158.297 -0.483336 1.88089 0
M  V30 1686 C 155.427 -0.455487 3.443 0
M  V30 1687 C 154.381 0.361103 4.26474 0
M  V30 1688 C 153.707 -0.563221 5.31725 0
M  V30 1689 C 155.007 1.59566 4.97329 0
M  V30 1690 H 156.701 1.17548 2.75359 0
M  V30 1691 H 154.247 0.566686 1.32381 0
M  V30 1692 H 156.2 -0.83525 4.13039 0
M  V30 1693 H 154.924 -1.32139 2.98675 0
M  V30 1694 H 153.583 0.722825 3.59403 0
M  V30 1695 H 153.231 -1.42643 4.82351 0
M  V30 1696 H 152.931 -0.0207409 5.87596 0
M  V30 1697 H 154.455 -0.939808 6.03324 0
M  V30 1698 H 155.869 1.28728 5.58661 0
M  V30 1699 H 154.266 2.07728 5.63 0
M  V30 1700 H 155.336 2.34798 4.24262 0
M  V30 1701 N 156.679 -1.44442 0.630414 0
M  V30 1702 C 157.642 -2.29107 -0.0652523 0
M  V30 1703 C 158.642 -1.41002 -0.772995 0
M  V30 1704 O 159.832 -1.62881 -0.617692 0
M  V30 1705 C 156.964 -3.22564 -1.10296 0
M  V30 1706 H 158.157 -2.92103 0.679401 0
M  V30 1707 H 155.71 -1.51343 0.390517 0
M  V30 1708 H 156.445 -2.64416 -1.87762 0
M  V30 1709 H 156.23 -3.87491 -0.59941 0
M  V30 1710 H 157.72 -3.86167 -1.5895 0
M  V30 1711 N 158.157 -0.370918 -1.53173 0
M  V30 1712 C 159.387 0.217389 -2.05453 0
M  V30 1713 C 159.795 1.42568 -1.24382 0
M  V30 1714 O 159.138 1.81571 -0.278839 0
M  V30 1715 C 159.2 0.669827 -3.53205 0
M  V30 1716 C 158.864 -0.4225 -4.55043 0
M  V30 1717 C 159.861 -1.27407 -5.04047 0
M  V30 1718 C 157.546 -0.58427 -4.9889 0
M  V30 1719 C 159.54 -2.27271 -5.95505 0
M  V30 1720 C 157.227 -1.58627 -5.90153 0
M  V30 1721 C 158.225 -2.42892 -6.38351 0
M  V30 1722 O 157.913 -3.41382 -7.27814 0
M  V30 1723 H 157.645 0.0408171 -0.674767 0
M  V30 1724 H 160.199 -0.5292 -1.98466 0
M  V30 1725 H 158.429 1.4681 -3.57748 0
M  V30 1726 H 160.118 1.18173 -3.88317 0
M  V30 1727 H 160.884 -1.16031 -4.70916 0
M  V30 1728 H 156.763 0.061851 -4.60959 0
M  V30 1729 H 160.307 -2.93079 -6.33049 0
M  V30 1730 H 156.204 -1.70048 -6.22699 0
M  V30 1731 H 156.972 -3.37173 -7.45826 0
M  V30 1732 N 159.635 1.57281 -0.100228 0
M  V30 1733 C 160.86 1.99302 0.573881 0
M  V30 1734 C 161.285 0.979059 1.60611 0
M  V30 1735 O 160.643 -0.0517803 1.81226 0
M  V30 1736 C 160.691 3.40274 1.19358 0
M  V30 1737 O 159.795 3.41676 2.30935 0
M  V30 1738 H 159.136 0.647944 0.145138 0
M  V30 1739 H 161.666 2.03779 -0.183156 0
M  V30 1740 H 161.676 3.78078 1.53365 0
M  V30 1741 H 160.351 4.13594 0.437385 0
M  V30 1742 H 158.928 3.15672 1.98509 0
M  V30 1743 N 161.113 -0.173488 1.56642 0
M  V30 1744 C 162.023 -1.23482 1.99473 0
M  V30 1745 C 163.039 -1.48567 0.905752 0
M  V30 1746 O 164.215 -1.60758 1.21321 0
M  V30 1747 C 161.28 -2.55444 2.34413 0
M  V30 1748 C 160.341 -2.38241 3.57127 0
M  V30 1749 C 159.574 -3.63909 3.90392 0
M  V30 1750 O 159.797 -4.68996 3.24653 0
M  V30 1751 O 158.731 -3.58149 4.83749 0
M  V30 1752 H 162.557 -0.901279 2.90018 0
M  V30 1753 H 160.142 -0.380185 1.44482 0
M  V30 1754 H 162.024 -3.33292 2.57865 0
M  V30 1755 H 160.699 -2.88382 1.4703 0
M  V30 1756 H 159.606 -1.58431 3.38896 0
M  V30 1757 H 160.939 -2.10228 4.45045 0
M  V30 1758 N 162.591 -1.51276 -0.441967 0
M  V30 1759 C 163.821 -1.67273 -1.21257 0
M  V30 1760 C 164.229 -0.367624 -1.85594 0
M  V30 1761 O 163.572 0.663349 -1.71305 0
M  V30 1762 C 163.634 -2.72807 -2.34129 0
M  V30 1763 C 163.298 -4.1554 -1.90198 0
M  V30 1764 C 164.295 -5.00471 -1.40801 0
M  V30 1765 C 161.98 -4.61616 -1.9803 0
M  V30 1766 C 163.974 -6.29536 -0.998174 0
M  V30 1767 C 161.661 -5.90679 -1.56658 0
M  V30 1768 C 162.659 -6.74466 -1.07633 0
M  V30 1769 O 162.347 -8.01116 -0.668459 0
M  V30 1770 H 162.079 -0.564614 -0.371734 0
M  V30 1771 H 164.633 -1.9843 -0.530521 0
M  V30 1772 H 162.863 -2.36954 -3.05597 0
M  V30 1773 H 164.552 -2.77729 -2.96009 0
M  V30 1774 H 165.318 -4.66079 -1.34148 0
M  V30 1775 H 161.197 -3.96526 -2.35135 0
M  V30 1776 H 164.741 -6.94885 -0.61482 0
M  V30 1777 H 160.638 -6.24586 -1.62979 0
M  V30 1778 H 161.406 -8.14633 -0.794722 0
M  V30 1779 N 164.069 0.697108 -1.41344 0
M  V30 1780 C 165.48 1.27697 -1.36199 0
M  V30 1781 C 165.831 1.9615 -0.0443463 0
M  V30 1782 O 164.956 1.98689 0.857419 0
M  V30 1783 C 165.551 2.32223 -2.46694 0
M  V30 1784 C 164.11 2.8579 -2.44952 0
M  V30 1785 C 163.257 1.59807 -2.26621 0
M  V30 1786 H 166.208 0.491968 -1.50882 0
M  V30 1787 H 166.229 3.1348 -2.15664 0
M  V30 1788 H 165.741 1.82373 -3.42581 0
M  V30 1789 H 163.842 3.3982 -1.52817 0
M  V30 1790 H 163.955 3.36325 -3.41207 0
M  V30 1791 H 162.319 1.8556 -1.7447 0
M  V30 1792 H 163.102 1.11956 -3.24532 0
M  V30 1793 N 165.547 1.27147 0.931209 0
M  V30 1794 C 166.824 1.0401 1.65654 0
M  V30 1795 C 167.204 -0.426297 2.06751 0
M  V30 1796 O 166.552 -1.40879 1.79904 0
M  V30 1797 C 166.762 1.99834 2.86125 0
M  V30 1798 C 168.11 2.29007 3.57549 0
M  V30 1799 O 169.134 1.97779 2.96246 0
M  V30 1800 O 167.993 2.82222 4.67989 0
M  V30 1801 H 165.087 0.396239 0.725895 0
M  V30 1802 H 167.633 1.38397 0.982056 0
M  V30 1803 H 166.405 2.98744 2.52721 0
M  V30 1804 H 166.028 1.65987 3.61295 0
M  V30 1805 N 167.025 -1.13721 1.09112 0
M  V30 1806 C 168.302 -1.81155 0.737706 0
M  V30 1807 C 168.682 -1.96253 -0.777683 0
M  V30 1808 O 168.03 -1.52807 -1.69889 0
M  V30 1809 C 168.24 -3.16392 1.47299 0
M  V30 1810 C 169.588 -3.91787 1.63671 0
M  V30 1811 O 170.612 -3.26005 1.43524 0
M  V30 1812 O 169.471 -5.0977 1.96969 0
M  V30 1813 H 166.565 -0.783518 0.26463 0
M  V30 1814 H 169.111 -1.20676 1.19312 0
M  V30 1815 H 167.883 -3.0061 2.50498 0
M  V30 1816 H 167.506 -3.8457 1.00953 0
M  V30 1817 N 168.503 -0.877838 -1.30888 0
M  V30 1818 C 169.728 -0.506629 -2.01117 0
M  V30 1819 C 170.153 0.895564 -1.65412 0
M  V30 1820 O 169.511 1.5923 -0.866922 0
M  V30 1821 C 169.559 -0.680223 -3.54126 0
M  V30 1822 O 168.663 0.277033 -4.11468 0
M  V30 1823 H 168.004 -0.200518 -0.633 0
M  V30 1824 H 170.534 -1.18342 -1.66902 0
M  V30 1825 H 170.544 -0.5765 -4.03907 0
M  V30 1826 H 169.219 -1.70261 -3.79452 0
M  V30 1827 H 167.796 0.127606 -3.72682 0
M  V30 1828 N 169.982 1.44106 -0.638065 0
M  V30 1829 C 170.912 2.33448 0.0494287 0
M  V30 1830 C 171.893 1.48606 0.827672 0
M  V30 1831 O 173.078 1.77308 0.792173 0
M  V30 1832 C 170.208 3.31771 1.02691 0
M  V30 1833 C 169.162 4.26485 0.359823 0
M  V30 1834 C 168.488 5.14729 1.44769 0
M  V30 1835 C 169.788 5.17056 -0.738296 0
M  V30 1836 H 171.482 2.91183 -0.696636 0
M  V30 1837 H 169.028 1.40014 -0.336456 0
M  V30 1838 H 170.981 3.93161 1.51666 0
M  V30 1839 H 169.705 2.7226 1.80395 0
M  V30 1840 H 168.364 3.66437 -0.10934 0
M  V30 1841 H 168.012 4.51566 2.21578 0
M  V30 1842 H 167.712 5.78913 1.00668 0
M  V30 1843 H 169.236 5.78991 1.93911 0
M  V30 1844 H 170.65 5.72342 -0.331354 0
M  V30 1845 H 169.047 5.89879 -1.10286 0
M  V30 1846 H 170.117 4.57652 -1.60258 0
M  V30 1847 N 171.46 0.379036 1.52974 0
M  V30 1848 C 172.737 -0.263479 1.93817 0
M  V30 1849 C 173.117 -1.65244 1.31368 0
M  V30 1850 O 172.465 -2.23448 0.477856 0
M  V30 1851 C 172.675 -0.300166 3.47707 0
M  V30 1852 C 174.023 -0.534061 4.21228 0
M  V30 1853 O 175.047 -0.38081 3.54159 0
M  V30 1854 O 173.906 -0.833501 5.40106 0
M  V30 1855 H 171 -0.161149 0.811147 0
M  V30 1856 H 173.546 0.432798 1.64088 0
M  V30 1857 H 172.318 0.673138 3.85467 0
M  V30 1858 H 171.941 -1.04179 3.83709 0
M  V30 1859 N 172.938 -1.57226 0.108567 0
M  V30 1860 C 173.868 -2.17778 -0.84232 0
M  V30 1861 C 174.849 -1.11487 -1.2847 0
M  V30 1862 O 176.034 -1.39681 -1.34918 0
M  V30 1863 C 173.164 -2.76888 -2.09644 0
M  V30 1864 C 172.118 -3.88669 -1.79221 0
M  V30 1865 C 171.444 -4.34541 -3.11574 0
M  V30 1866 C 172.744 -5.11251 -1.06864 0
M  V30 1867 H 174.438 -2.97489 -0.337774 0
M  V30 1868 H 171.984 -1.43097 -0.161025 0
M  V30 1869 H 173.937 -3.17904 -2.76614 0
M  V30 1870 H 172.661 -1.94451 -2.62405 0
M  V30 1871 H 171.32 -3.48213 -1.14644 0
M  V30 1872 H 170.968 -3.48977 -3.62249 0
M  V30 1873 H 170.668 -5.09914 -2.91996 0
M  V30 1874 H 172.192 -4.782 -3.7968 0
M  V30 1875 H 173.606 -5.49352 -1.63968 0
M  V30 1876 H 172.003 -5.9214 -0.974178 0
M  V30 1877 H 173.073 -4.8487 -0.0536168 0
M  V30 1878 N 174.416 0.165178 -1.56732 0
M  V30 1879 C 175.693 0.908443 -1.73224 0
M  V30 1880 C 176.073 2.0013 -0.67165 0
M  V30 1881 O 175.421 2.26353 0.31253 0
M  V30 1882 C 175.631 1.46756 -3.16644 0
M  V30 1883 C 176.979 1.93809 -3.77787 0
M  V30 1884 O 178.003 1.56537 -3.1996 0
M  V30 1885 O 176.862 2.62486 -4.79336 0
M  V30 1886 H 173.956 0.428025 -0.707618 0
M  V30 1887 H 176.502 0.152526 -1.69013 0
M  V30 1888 H 175.274 0.68129 -3.85323 0
M  V30 1889 H 174.897 2.28749 -3.25207 0
M  V30 1890 N 175.894 1.51508 0.433938 0
M  V30 1891 C 177.305 1.56784 1.01369 0
M  V30 1892 C 177.656 0.393349 1.92217 0
M  V30 1893 O 176.781 -0.489441 2.10792 0
M  V30 1894 C 177.376 2.84144 1.8452 0
M  V30 1895 C 175.935 2.9198 2.37539 0
M  V30 1896 C 175.082 2.51482 1.16843 0
M  V30 1897 H 178.033 1.57236 0.215081 0
M  V30 1898 H 178.054 2.68098 2.70007 0
M  V30 1899 H 177.566 3.69607 1.18373 0
M  V30 1900 H 175.667 2.10955 3.0713 0
M  V30 1901 H 175.78 3.95704 2.70103 0
M  V30 1902 H 174.144 2.04758 1.51481 0
M  V30 1903 H 174.927 3.39293 0.523015 0
M  V30 1904 N 177.372 -0.689602 1.41712 0
M  V30 1905 C 178.597 -1.48329 1.44959 0
M  V30 1906 C 179.022 -1.8801 0.0581283 0
M  V30 1907 O 178.38 -1.55026 -0.940035 0
M  V30 1908 C 178.428 -2.71835 2.36935 0
M  V30 1909 O 177.532 -3.69549 1.8305 0
M  V30 1910 H 176.873 -0.446199 0.491734 0
M  V30 1911 H 179.403 -0.847127 1.86239 0
M  V30 1912 H 179.413 -3.20076 2.53013 0
M  V30 1913 H 178.088 -2.42291 3.38035 0
M  V30 1914 H 176.665 -3.2851 1.76452 0
M  V30 1915 N 178.85 -1.27639 -0.924453 0
M  V30 1916 C 179.783 -1.04966 -2.02626 0
M  V30 1917 C 180.761 0.0309505 -1.62571 0
M  V30 1918 O 181.945 -0.114846 -1.8815 0
M  V30 1919 C 179.072 -0.59292 -3.3347 0
M  V30 1920 C 178.118 -1.66858 -3.92506 0
M  V30 1921 S 178.951 -3.2619 -4.24689 0
M  V30 1922 C 180.107 -2.82325 -5.58609 0
M  V30 1923 H 180.34 -1.98252 -2.21547 0
M  V30 1924 H 177.873 -1.11506 -1.06798 0
M  V30 1925 H 179.831 -0.336086 -4.09122 0
M  V30 1926 H 178.492 0.319939 -3.12466 0
M  V30 1927 H 177.685 -1.30038 -4.86935 0
M  V30 1928 H 177.287 -1.87766 -3.2345 0
M  V30 1929 H 179.579 -2.2783 -6.38044 0
M  V30 1930 H 180.522 -3.75511 -6.00331 0
M  V30 1931 H 180.93 -2.21367 -5.19285 0
M  V30 1932 N 180.328 1.1314 -1.09713 0
M  V30 1933 C 181.258 2.20748 -0.761102 0
M  V30 1934 C 182.239 1.68061 0.262566 0
M  V30 1935 O 183.424 1.93765 0.129977 0
M  V30 1936 C 180.554 3.46812 -0.184054 0
M  V30 1937 C 179.508 4.12606 -1.13757 0
M  V30 1938 C 178.834 5.33031 -0.422083 0
M  V30 1939 C 180.134 4.59603 -2.48118 0
M  V30 1940 H 181.828 2.49113 -1.66082 0
M  V30 1941 H 179.374 1.19734 -0.799987 0
M  V30 1942 H 181.327 4.21353 0.0631215 0
M  V30 1943 H 180.051 3.17851 0.750868 0
M  V30 1944 H 178.71 3.40036 -1.37007 0
M  V30 1945 H 178.358 5.00335 0.517072 0
M  V30 1946 H 178.058 5.77999 -1.05788 0
M  V30 1947 H 179.582 6.10325 -0.183277 0
M  V30 1948 H 180.996 5.25552 -2.29059 0
M  V30 1949 H 179.393 5.15321 -3.07514 0
M  V30 1950 H 180.463 3.73971 -3.08665 0
M  V30 1951 N 181.806 0.884767 1.30421 0
M  V30 1952 C 183.083 0.423185 1.90967 0
M  V30 1953 C 183.463 -1.09605 1.80416 0
M  V30 1954 O 182.811 -1.93126 1.22125 0
M  V30 1955 C 183.021 0.921056 3.36627 0
M  V30 1956 C 184.369 0.955903 4.137 0
M  V30 1957 O 185.393 0.867706 3.4547 0
M  V30 1958 O 184.252 1.08614 5.35598 0
M  V30 1959 H 181.346 0.129369 0.816819 0
M  V30 1960 H 183.892 0.973653 1.3899 0
M  V30 1961 H 182.664 1.96489 3.3839 0
M  V30 1962 H 182.287 0.349741 3.96059 0
M  V30 1963 N 183.284 -1.43765 0.645699 0
M  V30 1964 C 184.509 -2.06767 0.161883 0
M  V30 1965 C 184.934 -1.48034 -1.16049 0
M  V30 1966 O 184.292 -0.587369 -1.71522 0
M  V30 1967 C 184.34 -3.60519 0.0762003 0
M  V30 1968 O 183.444 -4.00982 -0.963721 0
M  V30 1969 H 182.785 -0.657675 0.091429 0
M  V30 1970 H 185.315 -1.84397 0.886499 0
M  V30 1971 H 185.325 -4.07853 -0.109604 0
M  V30 1972 H 184 -4.02646 1.04157 0
M  V30 1973 H 182.577 -3.65253 -0.751312 0
M  V30 1974 N 184.763 -0.387143 -1.52771 0
M  V30 1975 C 186.012 0.19697 -2.00736 0
M  V30 1976 C 186.325 1.48082 -1.27793 0
M  V30 1977 O 187.531 2.14485 -1.66458 0
M  V30 1978 C 185.987 0.401568 -3.57653 0
M  V30 1979 C 185.595 -0.868907 -4.39493 0
M  V30 1980 C 187.339 0.942164 -4.13912 0
M  V30 1981 C 185.246 -0.632705 -5.88006 0
M  V30 1982 H 184.176 0.0773827 -0.750019 0
M  V30 1983 H 186.827 -0.50921 -1.76293 0
M  V30 1984 H 185.209 1.16954 -3.78335 0
M  V30 1985 H 186.383 -1.64133 -4.30577 0
M  V30 1986 H 184.698 -1.33429 -3.94443 0
M  V30 1987 H 187.295 1.13455 -5.22525 0
M  V30 1988 H 187.638 1.9106 -3.69867 0
M  V30 1989 H 188.171 0.233814 -3.97112 0
M  V30 1990 H 184.91 -1.57208 -6.36369 0
M  V30 1991 H 184.43 0.100825 -5.99715 0
M  V30 1992 H 186.109 -0.26642 -6.46451 0
M  V30 1993 N 186.241 1.57166 -0.116904 0
M  V30 1994 C 187.487 1.96206 0.536166 0
M  V30 1995 C 187.842 0.99915 1.64422 0
M  V30 1996 O 187.135 0.0288195 1.91578 0
M  V30 1997 C 187.329 3.39508 1.11664 0
M  V30 1998 C 187.158 4.49651 0.0663474 0
M  V30 1999 C 185.928 5.03982 -0.36474 0
M  V30 2000 C 188.126 5.09322 -0.713829 0
M  V30 2001 N 186.108 5.97699 -1.40102 0
M  V30 2002 C 187.479 5.98963 -1.60136 0
M  V30 2003 C 189.534 4.91989 -0.764948 0
M  V30 2004 C 188.237 6.73128 -2.53556 0
M  V30 2005 C 190.263 5.66833 -1.68685 0
M  V30 2006 C 189.625 6.56158 -2.56196 0
M  V30 2007 H 185.724 0.764203 0.165886 0
M  V30 2008 H 188.308 1.93623 -0.204535 0
M  V30 2009 H 186.479 3.42743 1.82707 0
M  V30 2010 H 188.211 3.65677 1.73386 0
M  V30 2011 H 184.966 4.73592 0.027252 0
M  V30 2012 H 185.39 6.49262 -1.91802 0
M  V30 2013 H 190.032 4.22676 -0.102501 0
M  V30 2014 H 187.75 7.41689 -3.20816 0
M  V30 2015 H 191.336 5.55427 -1.73181 0
M  V30 2016 H 190.216 7.13057 -3.26372 0
M  V30 2017 N 187.719 -0.156864 1.56817 0
M  V30 2018 C 188.666 -1.19394 1.97519 0
M  V30 2019 C 189.636 -1.4322 0.841265 0
M  V30 2020 O 190.821 -1.55719 1.10255 0
M  V30 2021 C 187.961 -2.52483 2.35258 0
M  V30 2022 C 187.074 -2.35914 3.61896 0
M  V30 2023 C 186.209 -3.61969 3.88782 0
M  V30 2024 C 185.248 -3.40395 5.08722 0
M  V30 2025 N 184.385 -4.58556 5.31668 0
M  V30 2026 H 189.225 -0.839845 2.85921 0
M  V30 2027 H 186.762 -0.403264 1.41464 0
M  V30 2028 H 188.72 -3.30071 2.55165 0
M  V30 2029 H 187.35 -2.85859 1.49949 0
M  V30 2030 H 186.402 -1.49429 3.49821 0
M  V30 2031 H 187.714 -2.15926 4.49641 0
M  V30 2032 H 186.868 -4.47989 4.09135 0
M  V30 2033 H 185.607 -3.84951 2.9944 0
M  V30 2034 H 184.612 -2.52763 4.88253 0
M  V30 2035 H 185.837 -3.18822 5.99608 0
M  V30 2036 H 183.783 -4.81729 4.45279 0
M  V30 2037 H 183.7 -4.41535 6.13664 0
M  V30 2038 H 184.968 -5.45817 5.5651 0
M  V30 2039 N 189.197 -1.51736 -0.425897 0
M  V30 2040 C 190.608 -1.5732 -1.00536 0
M  V30 2041 C 190.959 -0.403537 -1.92005 0
M  V30 2042 O 190.084 0.478256 -2.11049 0
M  V30 2043 C 190.679 -2.85119 -1.8301 0
M  V30 2044 C 189.238 -2.93236 -2.35987 0
M  V30 2045 C 188.385 -2.52098 -1.15508 0
M  V30 2046 H 191.336 -1.57348 -0.206739 0
M  V30 2047 H 191.357 -2.69526 -2.68581 0
M  V30 2048 H 190.869 -3.7023 -1.16411 0
M  V30 2049 H 188.97 -2.12581 -3.06007 0
M  V30 2050 H 189.083 -3.9713 -2.68001 0
M  V30 2051 H 187.447 -2.05558 -1.50393 0
M  V30 2052 H 188.23 -3.39565 -0.505014 0
M  V30 2053 N 190.675 0.682077 -1.42076 0
M  V30 2054 C 191.952 1.43755 -1.32642 0
M  V30 2055 C 192.332 2.11063 0.0396611 0
M  V30 2056 O 191.68 2.02701 1.05474 0
M  V30 2057 C 191.89 2.44596 -2.48946 0
M  V30 2058 C 193.238 3.09454 -2.9073 0
M  V30 2059 O 194.262 2.54922 -2.48783 0
M  V30 2060 O 193.121 4.08253 -3.63307 0
M  V30 2061 H 190.215 0.640857 -0.522715 0
M  V30 2062 H 192.761 0.711415 -1.54068 0
M  V30 2063 H 191.533 1.93609 -3.40046 0
M  V30 2064 H 191.156 3.24701 -2.29467 0
M  V30 2065 N 192.153 1.28127 0.917671 0
M  V30 2066 C 193.083 1.14248 2.03641 0
M  V30 2067 C 194.064 0.0412748 1.7005 0
M  V30 2068 O 195.249 0.217566 1.92977 0
M  V30 2069 C 192.379 0.799431 3.37974 0
M  V30 2070 C 191.333 1.85497 3.85713 0
M  V30 2071 C 190.659 1.36565 5.16966 0
M  V30 2072 C 191.959 3.26085 4.08002 0
M  V30 2073 H 193.653 2.07835 2.15511 0
M  V30 2074 H 191.199 1.00064 1.03553 0
M  V30 2075 H 193.152 0.689114 4.15727 0
M  V30 2076 H 191.876 -0.172145 3.26146 0
M  V30 2077 H 190.535 1.95437 3.10161 0
M  V30 2078 H 190.183 0.383253 5.01538 0
M  V30 2079 H 189.883 2.07143 5.49878 0
M  V30 2080 H 191.407 1.26848 5.97279 0
M  V30 2081 H 192.821 3.19089 4.76293 0
M  V30 2082 H 191.218 3.94462 4.52238 0
M  V30 2083 H 192.288 3.70394 3.12948 0
M  V30 2084 N 193.631 -1.12557 1.10312 0
M  V30 2085 C 194.878 -1.84038 0.844759 0
M  V30 2086 C 195.206 -1.84026 -0.629668 0
M  V30 2087 O 194.461 -1.28026 -1.48013 0
M  V30 2088 C 194.76 -3.31462 1.33669 0
M  V30 2089 C 194.426 -3.51647 2.82232 0
M  V30 2090 C 193.088 -3.56864 3.22802 0
M  V30 2091 C 195.44 -3.58867 3.77974 0
M  V30 2092 C 192.768 -3.66844 4.57867 0
M  V30 2093 C 195.12 -3.70375 5.1284 0
M  V30 2094 C 193.784 -3.73848 5.52986 0
M  V30 2095 H 193.054 -0.673444 0.309119 0
M  V30 2096 H 195.701 -1.32824 1.37949 0
M  V30 2097 H 194.006 -3.85091 0.721949 0
M  V30 2098 H 195.703 -3.85236 1.11329 0
M  V30 2099 H 192.293 -3.48249 2.49842 0
M  V30 2100 H 196.477 -3.54107 3.47738 0
M  V30 2101 H 191.733 -3.67804 4.88396 0
M  V30 2102 H 195.907 -3.74904 5.86873 0
M  V30 2103 H 193.534 -3.81333 6.57639 0
M  V30 2104 N 195.109 -0.891671 -1.2995 0
M  V30 2105 C 196.356 -0.513501 -1.95881 0
M  V30 2106 C 196.684 0.938655 -1.70351 0
M  V30 2107 O 195.939 1.67936 -1.00478 0
M  V30 2108 C 196.238 -0.742868 -3.49594 0
M  V30 2109 C 195.904 -2.17114 -3.95186 0
M  V30 2110 C 194.566 -2.56169 -4.07346 0
M  V30 2111 C 196.918 -3.10162 -4.18866 0
M  V30 2112 C 194.246 -3.87469 -4.4055 0
M  V30 2113 C 196.598 -4.41001 -4.53542 0
M  V30 2114 C 195.262 -4.79941 -4.63911 0
M  V30 2115 H 194.532 -0.187903 -0.71678 0
M  V30 2116 H 197.179 -1.1288 -1.54694 0
M  V30 2117 H 195.484 -0.044586 -3.91775 0
M  V30 2118 H 197.181 -0.429767 -3.9869 0
M  V30 2119 H 193.771 -1.85801 -3.86233 0
M  V30 2120 H 197.955 -2.81206 -4.08946 0
M  V30 2121 H 193.211 -4.17371 -4.46779 0
M  V30 2122 H 197.385 -5.13133 -4.70815 0
M  V30 2123 H 195.012 -5.81719 -4.89395 0
M  V30 2124 N 196.587 1.43421 -0.653314 0
M  V30 2125 C 197.55 2.29182 0.0287951 0
M  V30 2126 C 198.55 1.42213 0.750465 0
M  V30 2127 O 199.74 1.63843 0.591701 0
M  V30 2128 C 196.872 3.24278 1.05151 0
M  V30 2129 H 198.065 2.90985 -0.725786 0
M  V30 2130 H 195.618 1.50702 -0.414545 0
M  V30 2131 H 196.353 2.6737 1.83532 0
M  V30 2132 H 196.138 3.88396 0.537687 0
M  V30 2133 H 197.628 3.88647 1.52786 0
M  V30 2134 N 198.065 0.39524 1.52563 0
M  V30 2135 C 199.013 -0.451859 2.28169 0
M  V30 2136 C 200.007 -1.05792 1.32304 0
M  V30 2137 O 201.213 -0.997718 1.49818 0
M  V30 2138 H 197.588 -0.164481 0.733792 0
M  V30 2139 H 199.559 0.207199 2.9768 0
M  V30 2140 C 198.308 -1.56385 3.10546 0
M  V30 2141 H 197.631 -1.10682 3.84174 0
M  V30 2142 H 199.071 -2.13067 3.66577 0
M  V30 2143 C 197.53 -2.52328 2.23231 0
M  V30 2144 O 198.06 -3.5588 1.86312 0
M  V30 2145 N 196.266 -2.22209 1.87274 0
M  V30 2146 H 195.813 -1.38033 2.17496 0
M  V30 2147 H 195.771 -2.86652 1.29143 0
M  V30 2148 N 199.544 -1.57102 0.125237 0
M  V30 2149 C 200.454 -2.19191 -0.8362 0
M  V30 2150 C 201.47 -1.16985 -1.28805 0
M  V30 2151 O 202.646 -1.49479 -1.34974 0
M  V30 2152 C 199.711 -2.78407 -2.06617 0
M  V30 2153 C 198.772 -3.9567 -1.66565 0
M  V30 2154 C 198.005 -4.52052 -2.83698 0
M  V30 2155 O 198.228 -4.07326 -3.99302 0
M  V30 2156 O 197.162 -5.42645 -2.60423 0
M  V30 2157 H 200.988 -3.01816 -0.337776 0
M  V30 2158 H 198.573 -1.4906 -0.100695 0
M  V30 2159 H 200.455 -3.16129 -2.7864 0
M  V30 2160 H 199.13 -1.9881 -2.55453 0
M  V30 2161 H 198.037 -3.62705 -0.916296 0
M  V30 2162 H 199.37 -4.76722 -1.22464 0
M  V30 2163 N 201.022 0.148545 -1.56898 0
M  V30 2164 C 201.969 1.18345 -1.98149 0
M  V30 2165 C 202.939 1.42772 -0.848848 0
M  V30 2166 O 204.124 1.55132 -1.11079 0
M  V30 2167 C 201.264 2.51231 -2.36594 0
M  V30 2168 C 200.377 2.33991 -3.63142 0
M  V30 2169 C 199.512 3.59902 -3.90697 0
M  V30 2170 C 198.551 3.37692 -5.1052 0
M  V30 2171 N 197.688 4.5573 -5.34092 0
M  V30 2172 H 202.528 0.82467 -2.86362 0
M  V30 2173 H 200.065 0.395756 -1.41676 0
M  V30 2174 H 202.023 3.28713 -2.56912 0
M  V30 2175 H 200.653 2.85059 -1.51463 0
M  V30 2176 H 199.705 1.47572 -3.50609 0
M  V30 2177 H 201.017 2.13539 -4.5078 0
M  V30 2178 H 200.171 4.45813 -4.11505 0
M  V30 2179 H 198.91 3.83357 -3.01477 0
M  V30 2180 H 197.915 2.5017 -4.89587 0
M  V30 2181 H 199.14 3.15637 -6.0129 0
M  V30 2182 H 197.086 4.79361 -4.47827 0
M  V30 2183 H 197.003 4.38274 -6.15996 0
M  V30 2184 H 198.271 5.42858 -5.59397 0
M  V30 2185 N 202.5 1.5196 0.417844 0
M  V30 2186 C 203.748 1.65263 1.16329 0
M  V30 2187 C 204.069 0.380634 1.91249 0
M  V30 2188 O 203.339 -0.604214 1.86349 0
M  V30 2189 H 201.919 0.60912 0.432414 0
M  V30 2190 H 204.581 1.88969 0.477162 0
M  V30 2191 H 203.677 2.4896 1.88217 0
M  V30 2192 N 203.978 -0.674533 1.42435 0
M  V30 2193 C 204.941 -1.76986 1.45632 0
M  V30 2194 C 205.941 -1.5708 0.343871 0
M  V30 2195 O 207.131 -1.63367 0.604709 0
M  V30 2196 C 204.263 -3.15623 1.28822 0
M  V30 2197 H 205.456 -1.75539 2.43158 0
M  V30 2198 H 203.009 -0.884189 1.28887 0
M  V30 2199 H 203.744 -3.22696 0.322193 0
M  V30 2200 H 203.529 -3.31475 2.09444 0
M  V30 2201 H 205.019 -3.95537 1.33942 0
M  V30 2202 N 205.456 -1.28612 -0.910864 0
M  V30 2203 C 206.404 -1.1265 -2.03501 0
M  V30 2204 C 207.398 -0.0450054 -1.6934 0
M  V30 2205 O 208.604 -0.203988 -1.7884 0
M  V30 2206 H 204.979 -0.347639 -0.666822 0
M  V30 2207 H 206.95 -2.07849 -2.14106 0
M  V30 2208 C 205.699 -0.808143 -3.38178 0
M  V30 2209 H 205.022 -1.63231 -3.6496 0
M  V30 2210 H 206.462 -0.736426 -4.17556 0
M  V30 2211 C 204.921 0.488226 -3.33344 0
M  V30 2212 O 205.451 1.51766 -3.71927 0
M  V30 2213 N 203.657 0.490009 -2.86439 0
M  V30 2214 H 203.204 -0.348161 -2.55236 0
M  V30 2215 H 203.162 1.35741 -2.83587 0
M  V30 2216 N 206.934 1.1197 -1.10907 0
M  V30 2217 C 208.181 1.83588 -0.854507 0
M  V30 2218 C 208.509 1.84357 0.6199 0
M  V30 2219 O 207.764 1.28809 1.47332 0
M  V30 2220 C 208.063 3.30749 -1.35425 0
M  V30 2221 C 207.729 3.50146 -2.84093 0
M  V30 2222 C 206.391 3.55148 -3.2469 0
M  V30 2223 C 208.743 3.56857 -3.79872 0
M  V30 2224 C 206.071 3.6441 -4.59806 0
M  V30 2225 C 208.423 3.6765 -5.14797 0
M  V30 2226 C 207.087 3.7091 -5.54961 0
M  V30 2227 H 206.357 0.671795 -0.312686 0
M  V30 2228 H 209.004 1.32091 -1.38652 0
M  V30 2229 H 207.309 3.84703 -0.742361 0
M  V30 2230 H 209.006 3.8464 -1.1337 0
M  V30 2231 H 205.596 3.46919 -2.51685 0
M  V30 2232 H 209.78 3.52258 -3.49611 0
M  V30 2233 H 205.036 3.65208 -4.9034 0
M  V30 2234 H 209.21 3.71786 -5.88853 0
M  V30 2235 H 206.837 3.7784 -6.59652 0
M  V30 2236 N 208.412 0.89855 1.29475 0
M  V30 2237 C 209.362 0.346767 2.25348 0
M  V30 2238 C 210.346 -0.532509 1.51833 0
M  V30 2239 O 211.538 -0.374714 1.72988 0
M  V30 2240 C 208.667 -0.425681 3.40651 0
M  V30 2241 C 207.753 0.46845 4.21505 0
M  V30 2242 N 208.144 1.57514 4.80648 0
M  V30 2243 C 206.442 0.26603 4.45206 0
M  V30 2244 C 207.143 2.12889 5.41344 0
M  V30 2245 N 206.119 1.42208 5.24669 0
M  V30 2246 H 209.921 1.19219 2.68634 0
M  V30 2247 H 207.435 0.749473 1.44072 0
M  V30 2248 H 209.432 -0.837716 4.08397 0
M  V30 2249 H 208.092 -1.26838 2.98902 0
M  V30 2250 H 209.103 1.95789 4.79465 0
M  V30 2251 H 205.78 -0.538394 4.14014 0
M  V30 2252 H 207.17 3.05901 5.98226 0
M  V30 2253 N 209.89 -1.43072 0.660911 0
M  V30 2254 C 210.8 -2.34585 -0.0264163 0
M  V30 2255 C 211.816 -1.54316 -0.803898 0
M  V30 2256 O 212.992 -1.86939 -0.749391 0
M  V30 2257 C 210.057 -3.32689 -0.975639 0
M  V30 2258 C 209.118 -4.2886 -0.194236 0
M  V30 2259 C 208.351 -5.22278 -1.09825 0
M  V30 2260 O 208.574 -5.20299 -2.33763 0
M  V30 2261 O 207.508 -5.99228 -0.566513 0
M  V30 2262 H 211.334 -2.94869 0.727034 0
M  V30 2263 H 208.919 -1.43342 0.42111 0
M  V30 2264 H 210.801 -3.92995 -1.52094 0
M  V30 2265 H 209.476 -2.74898 -1.70918 0
M  V30 2266 H 208.383 -3.72011 0.394835 0
M  V30 2267 H 209.716 -4.89655 0.499899 0
M  V30 2268 N 211.368 -0.403325 -1.52352 0
M  V30 2269 C 212.614 0.174605 -2.02047 0
M  V30 2270 C 212.947 1.45282 -1.28867 0
M  V30 2271 O 212.222 1.90483 -0.393257 0
M  V30 2272 C 212.505 0.428238 -3.57545 0
M  V30 2273 C 212.358 -0.866248 -4.4138 0
M  V30 2274 C 213.677 1.21287 -4.23057 0
M  V30 2275 H 210.796 0.0619851 -0.734389 0
M  V30 2276 H 213.438 -0.53565 -1.82293 0
M  V30 2277 H 211.588 1.03327 -3.74507 0
M  V30 2278 H 213.26 -1.50265 -4.3614 0
M  V30 2279 H 211.503 -1.47851 -4.07827 0
M  V30 2280 H 212.174 -0.643249 -5.48239 0
M  V30 2281 H 214.65 0.700703 -4.10158 0
M  V30 2282 H 213.526 1.35909 -5.31808 0
M  V30 2283 H 213.787 2.23193 -3.81625 0
M  V30 2284 N 212.846 1.57033 -0.133567 0
M  V30 2285 C 214.074 2.00044 0.528195 0
M  V30 2286 C 214.489 1.01349 1.59291 0
M  V30 2287 O 213.846 0.00848369 1.82498 0
M  V30 2288 C 213.897 3.43018 1.1411 0
M  V30 2289 O 213.618 4.37939 0.11892 0
M  V30 2290 C 215.119 4.01237 1.88477 0
M  V30 2291 H 212.339 0.656517 0.138661 0
M  V30 2292 H 214.883 2.03267 -0.224196 0
M  V30 2293 H 213.038 3.40688 1.84418 0
M  V30 2294 H 213.452 5.21436 0.56613 0
M  V30 2295 H 214.926 5.03314 2.26669 0
M  V30 2296 H 215.403 3.41193 2.76558 0
M  V30 2297 H 216.009 4.07156 1.22898 0
M  V30 2298 N 214.325 -0.140222 1.56975 0
M  V30 2299 C 215.553 -0.866437 1.87884 0
M  V30 2300 C 215.968 -1.74428 0.722517 0
M  V30 2301 O 215.325 -1.79891 -0.30749 0
M  V30 2302 C 215.376 -1.71753 3.18093 0
M  V30 2303 O 215.097 -0.875056 4.29272 0
M  V30 2304 C 216.598 -2.55074 3.62563 0
M  V30 2305 H 213.818 -0.25019 0.622612 0
M  V30 2306 H 216.362 -0.130977 2.0408 0
M  V30 2307 H 214.517 -2.40598 3.03631 0
M  V30 2308 H 214.931 -1.46002 5.03769 0
M  V30 2309 H 216.405 -3.10356 4.5649 0
M  V30 2310 H 216.882 -3.31434 2.88181 0
M  V30 2311 H 217.488 -1.91509 3.79743 0
M  V30 2312 N 215.803 -1.52179 -0.40978 0
M  V30 2313 C 217.08 -1.56769 -1.16974 0
M  V30 2314 C 217.46 -0.348322 -2.08206 0
M  V30 2315 O 216.808 0.664862 -2.18613 0
M  V30 2316 C 217.018 -2.89603 -1.9476 0
M  V30 2317 C 218.366 -3.42579 -2.50849 0
M  V30 2318 O 219.39 -2.91338 -2.04941 0
M  V30 2319 O 218.249 -4.32054 -3.34652 0
M  V30 2320 H 215.343 -0.631439 -0.534054 0
M  V30 2321 H 217.889 -1.64507 -0.416613 0
M  V30 2322 H 216.661 -3.698 -1.27921 0
M  V30 2323 H 216.284 -2.85155 -2.77079 0
M  V30 2324 N 217.281 0.66697 -1.42791 0
M  V30 2325 C 218.229 1.80157 -1.47127 0
M  V30 2326 C 219.223 1.65825 -0.346199 0
M  V30 2327 O 220.429 1.72338 -0.519572 0
M  V30 2328 H 216.804 0.594158 -0.460956 0
M  V30 2329 H 218.775 1.73619 -2.42692 0
M  V30 2330 C 217.524 3.18351 -1.39813 0
M  V30 2331 H 216.847 3.3001 -2.25684 0
M  V30 2332 H 218.287 3.97736 -1.46908 0
M  V30 2333 C 216.746 3.36707 -0.11391 0
M  V30 2334 O 217.276 3.93027 0.830241 0
M  V30 2335 N 215.482 2.90586 -0.0285295 0
M  V30 2336 H 215.029 2.4494 -0.79764 0
M  V30 2337 H 214.987 3.03245 0.830063 0
M  V30 2338 N 218.759 1.29093 0.90403 0
M  V30 2339 C 219.706 1.13853 2.00764 0
M  V30 2340 C 220.676 0.0330084 1.66067 0
M  V30 2341 O 221.861 0.199733 1.89752 0
M  V30 2342 C 219.001 0.816537 3.35301 0
M  V30 2343 C 218.114 2.00206 3.82807 0
M  V30 2344 C 217.249 1.61983 5.059 0
M  V30 2345 C 216.288 2.77143 5.45764 0
M  V30 2346 N 215.425 2.39346 6.60044 0
M  V30 2347 H 220.265 2.08276 2.13132 0
M  V30 2348 H 217.802 1.03648 1.04381 0
M  V30 2349 H 219.76 0.610557 4.12708 0
M  V30 2350 H 218.39 -0.090779 3.22672 0
M  V30 2351 H 217.442 2.31988 3.01473 0
M  V30 2352 H 218.754 2.86512 4.08304 0
M  V30 2353 H 217.908 1.37649 5.90879 0
M  V30 2354 H 216.647 0.728202 4.82233 0
M  V30 2355 H 215.652 3.02165 4.59322 0
M  V30 2356 H 216.877 3.66964 5.71414 0
M  V30 2357 H 214.823 1.52665 6.37989 0
M  V30 2358 H 214.74 3.19185 6.85315 0
M  V30 2359 H 216.008 2.1832 7.48303 0
M  V30 2360 N 220.237 -1.11381 1.11499 0
M  V30 2361 C 221.167 -2.19509 0.796125 0
M  V30 2362 C 222.148 -1.68458 -0.235796 0
M  V30 2363 O 223.333 -1.93947 -0.0991344 0
M  V30 2364 C 220.463 -3.46475 0.239205 0
M  V30 2365 C 219.417 -4.10744 1.20307 0
M  V30 2366 C 218.743 -5.32293 0.50683 0
M  V30 2367 C 220.043 -4.55597 2.55399 0
M  V30 2368 H 221.737 -2.46439 1.70024 0
M  V30 2369 H 219.283 -1.18446 0.818935 0
M  V30 2370 H 221.236 -4.214 0.00392006 0
M  V30 2371 H 219.96 -3.19006 -0.700206 0
M  V30 2372 H 218.619 -3.37813 1.42399 0
M  V30 2373 H 218.267 -5.01095 -0.437408 0
M  V30 2374 H 217.967 -5.76243 1.1497 0
M  V30 2375 H 219.491 -6.09956 0.280351 0
M  V30 2376 H 220.905 -5.21841 2.37391 0
M  V30 2377 H 219.302 -5.10363 3.15673 0
M  V30 2378 H 220.372 -3.69013 3.14575 0
M  V30 2379 N 221.715 -0.905404 -1.28997 0
M  V30 2380 C 222.645 -0.404212 -2.29975 0
M  V30 2381 C 223.626 0.523784 -1.61835 0
M  V30 2382 O 224.811 0.433298 -1.89304 0
M  V30 2383 C 221.941 0.364042 -3.45387 0
M  V30 2384 C 220.895 -0.474048 -4.25367 0
M  V30 2385 C 220.221 0.422045 -5.33032 0
M  V30 2386 C 221.521 -1.72696 -4.92923 0
M  V30 2387 H 223.215 -1.24807 -2.72146 0
M  V30 2388 H 220.761 -0.601585 -1.30832 0
M  V30 2389 H 222.714 0.725447 -4.15109 0
M  V30 2390 H 221.438 1.24174 -3.02074 0
M  V30 2391 H 220.097 -0.81786 -3.57361 0
M  V30 2392 H 219.745 1.29804 -4.85963 0
M  V30 2393 H 219.445 -0.135057 -5.87445 0
M  V30 2394 H 220.969 0.779517 -6.05604 0
M  V30 2395 H 222.383 -1.43495 -5.55051 0
M  V30 2396 H 220.78 -2.22582 -5.57295 0
M  V30 2397 H 221.85 -2.45964 -4.17887 0
M  V30 2398 N 223.193 1.4272 -0.668489 0
M  V30 2399 C 224.609 1.55992 -0.33745 0
M  V30 2400 C 224.809 1.64933 1.15756 0
M  V30 2401 O 223.865 1.61278 1.94282 0
M  V30 2402 C 225.178 2.81314 -1.06222 0
M  V30 2403 C 226.726 2.95078 -1.04394 0
M  V30 2404 C 227.201 4.23252 -1.74991 0
M  V30 2405 N 228.692 4.3015 -1.71829 0
M  V30 2406 C 229.427 5.28127 -2.23315 0
M  V30 2407 N 228.923 6.32293 -2.83156 0
M  V30 2408 N 230.716 5.19882 -2.13726 0
M  V30 2409 H 222.867 1.3516 -1.63846 0
M  V30 2410 H 225.13 0.650174 -0.689912 0
M  V30 2411 H 224.836 2.80823 -2.11734 0
M  V30 2412 H 224.71 3.72012 -0.62344 0
M  V30 2413 H 227.097 2.951 0.0028244 0
M  V30 2414 H 227.178 2.05627 -1.52155 0
M  V30 2415 H 226.822 4.2399 -2.79633 0
M  V30 2416 H 226.752 5.11626 -1.24685 0
M  V30 2417 H 229.243 3.55499 -1.28175 0
M  V30 2418 H 229.556 7.03398 -3.20079 0
M  V30 2419 H 227.901 6.32873 -2.87223 0
M  V30 2420 H 231.092 4.37423 -1.66669 0
M  V30 2421 H 231.265 5.96077 -2.54158 0
M  V30 2422 N 224.671 0.411399 1.52136 0
M  V30 2423 C 225.92 -0.165009 2.01024 0
M  V30 2424 C 226.233 -1.4603 1.30133 0
M  V30 2425 O 227.439 -2.1181 1.69849 0
M  V30 2426 C 225.895 -0.344618 3.58246 0
M  V30 2427 C 225.503 0.938716 4.38055 0
M  V30 2428 C 227.247 -0.876195 4.15359 0
M  V30 2429 C 225.154 0.726172 5.86925 0
M  V30 2430 H 224.084 -0.0654407 0.751155 0
M  V30 2431 H 226.735 0.537192 1.75461 0
M  V30 2432 H 225.117 -1.10921 3.80148 0
M  V30 2433 H 226.291 1.70963 4.27912 0
M  V30 2434 H 224.606 1.39688 3.92271 0
M  V30 2435 H 227.203 -1.05128 5.24263 0
M  V30 2436 H 227.546 -1.85152 3.7286 0
M  V30 2437 H 228.079 -0.170607 3.97434 0
M  V30 2438 H 224.818 1.67312 6.33788 0
M  V30 2439 H 224.338 -0.00540283 5.998 0
M  V30 2440 H 226.017 0.369231 6.45946 0
M  V30 2441 N 226.149 -1.5696 0.141893 0
M  V30 2442 C 227.396 -1.9596 -0.510492 0
M  V30 2443 C 227.724 -1.02648 -1.65208 0
M  V30 2444 O 226.979 -0.0546947 -1.95624 0
M  V30 2445 C 227.278 -3.41242 -1.06249 0
M  V30 2446 C 226.944 -4.50882 -0.0398791 0
M  V30 2447 C 225.606 -4.80595 0.241247 0
M  V30 2448 C 227.958 -5.17058 0.65578 0
M  V30 2449 C 225.286 -5.73792 1.22393 0
M  V30 2450 C 227.638 -6.11313 1.62724 0
M  V30 2451 C 226.302 -6.39407 1.91612 0
M  V30 2452 H 225.572 -0.717068 -0.186802 0
M  V30 2453 H 228.219 -1.90142 0.227643 0
M  V30 2454 H 226.524 -3.43866 -1.87785 0
M  V30 2455 H 228.221 -3.68742 -1.57576 0
M  V30 2456 H 224.811 -4.27754 -0.269174 0
M  V30 2457 H 228.995 -4.94239 0.451779 0
M  V30 2458 H 224.251 -5.93853 1.45424 0
M  V30 2459 H 228.425 -6.61668 2.17183 0
M  V30 2460 H 226.052 -7.11427 2.6791 0
M  V30 2461 N 227.627 0.131896 -1.57047 0
M  V30 2462 C 228.574 1.16236 -1.99393 0
M  V30 2463 C 229.544 1.41863 -0.863943 0
M  V30 2464 O 230.729 1.53946 -1.12718 0
M  V30 2465 C 227.869 2.48708 -2.39245 0
M  V30 2466 C 226.982 2.30127 -3.65603 0
M  V30 2467 C 226.117 3.55738 -3.94492 0
M  V30 2468 C 225.156 3.32259 -5.14073 0
M  V30 2469 N 224.293 4.50039 -5.38896 0
M  V30 2470 H 229.133 0.794251 -2.87221 0
M  V30 2471 H 226.67 0.380707 -1.42088 0
M  V30 2472 H 228.628 3.25969 -2.60384 0
M  V30 2473 H 227.258 2.83437 -1.54478 0
M  V30 2474 H 226.31 1.43845 -3.52154 0
M  V30 2475 H 227.622 2.08746 -4.5302 0
M  V30 2476 H 226.776 4.41423 -4.1621 0
M  V30 2477 H 225.515 3.80138 -3.05526 0
M  V30 2478 H 224.52 2.44963 -4.92212 0
M  V30 2479 H 225.745 3.09242 -6.04604 0
M  V30 2480 H 223.691 4.74584 -4.52886 0
M  V30 2481 H 223.608 4.31716 -6.2061 0
M  V30 2482 H 224.876 5.36895 -5.65123 0
M  V30 2483 N 229.106 1.52395 0.401703 0
M  V30 2484 C 230.054 1.7689 1.51039 0
M  V30 2485 C 231.048 0.636298 1.56996 0
M  V30 2486 O 232.254 0.818507 1.60314 0
M  V30 2487 H 228.629 0.559502 0.502456 0
M  V30 2488 H 230.6 2.69757 1.27568 0
M  V30 2489 C 229.349 1.94331 2.88324 0
M  V30 2490 H 228.672 2.80905 2.84486 0
M  V30 2491 H 230.112 2.15466 3.65172 0
M  V30 2492 C 228.571 0.712396 3.29282 0
M  V30 2493 O 229.101 -0.116218 4.01532 0
M  V30 2494 N 227.307 0.546154 2.85422 0
M  V30 2495 H 226.854 1.22156 2.26794 0
M  V30 2496 H 226.812 -0.276113 3.13185 0
M  V30 2497 N 230.584 -0.659388 1.43143 0
M  V30 2498 C 231.832 -1.41654 1.44147 0
M  V30 2499 C 232.153 -1.94893 0.0645739 0
M  V30 2500 O 231.423 -1.74044 -0.899198 0
M  V30 2501 H 230.003 -0.525708 0.530697 0
M  V30 2502 H 232.665 -0.778097 1.78694 0
M  V30 2503 H 231.761 -2.26195 2.1504 0
M  V30 2504 N 232.062 -1.29571 -0.897171 0
M  V30 2505 C 233.01 -1.14802 -2.02295 0
M  V30 2506 C 234.004 -0.0629637 -1.69283 0
M  V30 2507 O 235.21 -0.222945 -1.78614 0
M  V30 2508 H 231.585 -0.354692 -0.663097 0
M  V30 2509 H 233.556 -2.10108 -2.11889 0
M  V30 2510 C 232.305 -0.843966 -3.37302 0
M  V30 2511 H 231.628 -1.67093 -3.63208 0
M  V30 2512 H 233.068 -0.780672 -4.16751 0
M  V30 2513 C 231.527 0.452843 -3.33843 0
M  V30 2514 O 232.057 1.47813 -3.73516 0
M  V30 2515 N 230.263 0.459601 -2.86943 0
M  V30 2516 H 229.81 -0.375213 -2.54853 0
M  V30 2517 H 229.768 1.32726 -2.85011 0
M  V30 2518 N 233.54 1.10788 -1.12088 0
M  V30 2519 C 234.786 1.82942 -0.875226 0
M  V30 2520 C 235.119 1.84779 0.597538 0
M  V30 2521 O 234.394 1.30578 1.44152 0
M  V30 2522 C 234.677 3.29789 -1.44606 0
M  V30 2523 C 234.53 3.36307 -2.98693 0
M  V30 2524 C 235.849 4.26064 -1.10261 0
M  V30 2525 H 232.968 0.664195 -0.319397 0
M  V30 2526 H 235.61 1.29867 -1.38689 0
M  V30 2527 H 233.76 3.75118 -1.01089 0
M  V30 2528 H 235.432 2.99487 -3.50864 0
M  V30 2529 H 233.675 2.76318 -3.34411 0
M  V30 2530 H 234.346 4.39694 -3.33726 0
M  V30 2531 H 236.822 3.88951 -1.4784 0
M  V30 2532 H 235.698 5.27183 -1.52869 0
M  V30 2533 H 235.959 4.42098 -0.0142953 0
M  V30 2534 N 235.018 0.912232 1.28515 0
M  V30 2535 C 235.948 0.416403 2.29757 0
M  V30 2536 C 236.929 -0.515194 1.6211 0
M  V30 2537 O 238.114 -0.423253 1.89532 0
M  V30 2538 C 235.244 -0.34572 3.45575 0
M  V30 2539 C 234.198 0.496599 4.25109 0
M  V30 2540 C 233.524 -0.393771 5.33248 0
M  V30 2541 C 234.824 1.75307 4.92001 0
M  V30 2542 H 236.518 1.26249 2.7148 0
M  V30 2543 H 234.064 0.608515 1.30511 0
M  V30 2544 H 236.017 -0.703422 4.15488 0
M  V30 2545 H 234.741 -1.2257 3.02728 0
M  V30 2546 H 233.4 0.8368 3.56922 0
M  V30 2547 H 233.048 -1.27225 4.86644 0
M  V30 2548 H 232.748 0.166209 5.87365 0
M  V30 2549 H 234.272 -0.747389 6.06009 0
M  V30 2550 H 235.686 1.46437 5.54283 0
M  V30 2551 H 234.083 2.25534 5.56106 0
M  V30 2552 H 235.153 2.48176 4.16577 0
M  V30 2553 N 236.496 -1.42363 0.676048 0
M  V30 2554 C 237.726 -2.05561 0.206967 0
M  V30 2555 C 238.134 -1.50887 -1.14148 0
M  V30 2556 O 237.477 -0.643933 -1.72044 0
M  V30 2557 C 237.539 -3.5944 0.0659508 0
M  V30 2558 C 237.203 -4.36812 1.34331 0
M  V30 2559 C 238.2 -4.67383 2.27704 0
M  V30 2560 C 235.885 -4.76429 1.59125 0
M  V30 2561 C 237.879 -5.36509 3.44147 0
M  V30 2562 C 235.566 -5.45294 2.75857 0
M  V30 2563 C 236.564 -5.75259 3.68193 0
M  V30 2564 O 236.252 -6.42712 4.82883 0
M  V30 2565 H 235.984 -0.668872 0.0979084 0
M  V30 2566 H 238.538 -1.83467 0.923531 0
M  V30 2567 H 236.768 -3.80197 -0.706204 0
M  V30 2568 H 238.457 -4.0427 -0.363418 0
M  V30 2569 H 239.223 -4.37275 2.09799 0
M  V30 2570 H 235.102 -4.52498 0.881258 0
M  V30 2571 H 238.646 -5.59814 4.16238 0
M  V30 2572 H 234.543 -5.7482 2.93688 0
M  V30 2573 H 235.311 -6.61204 4.82444 0
M  V30 2574 N 237.974 -0.419461 -1.51915 0
M  V30 2575 C 239.199 0.154572 -2.06823 0
M  V30 2576 C 239.624 1.3722 -1.28656 0
M  V30 2577 O 238.982 1.78461 -0.319583 0
M  V30 2578 C 239.03 0.473172 -3.57482 0
M  V30 2579 O 238.134 1.56255 -3.81652 0
M  V30 2580 H 237.475 0.0096924 -0.663929 0
M  V30 2581 H 240.005 -0.595642 -1.95738 0
M  V30 2582 H 240.015 0.728825 -4.01438 0
M  V30 2583 H 238.69 -0.416873 -4.13805 0
M  V30 2584 H 237.267 1.29825 -3.49571 0
M  V30 2585 N 239.452 1.56882 -0.150215 0
M  V30 2586 C 240.701 1.95403 0.500071 0
M  V30 2587 C 241.014 1.03777 1.658 0
M  V30 2588 O 242.22 1.31889 2.37313 0
M  V30 2589 C 240.676 3.4738 0.941018 0
M  V30 2590 C 240.284 4.47596 -0.190158 0
M  V30 2591 C 242.028 3.9476 1.56091 0
M  V30 2592 C 239.935 5.90787 0.269237 0
M  V30 2593 H 238.865 0.729515 0.190588 0
M  V30 2594 H 241.516 1.81988 -0.235074 0
M  V30 2595 H 239.898 3.56138 1.73152 0
M  V30 2596 H 241.072 4.50536 -0.967157 0
M  V30 2597 H 239.387 4.10151 -0.718666 0
M  V30 2598 H 241.984 4.99181 1.9163 0
M  V30 2599 H 242.327 3.36494 2.45107 0
M  V30 2600 H 242.86 3.88932 0.835249 0
M  V30 2601 H 239.599 6.52879 -0.585621 0
M  V30 2602 H 239.119 5.912 1.01204 0
M  V30 2603 H 240.798 6.42979 0.720176 0
M  V30 2604 N 240.93 -0.123565 1.57115 0
M  V30 2605 C 242.346 -0.476961 1.52306 0
M  V30 2606 C 242.546 -1.82109 0.86248 0
M  V30 2607 O 241.602 -2.48586 0.442884 0
M  V30 2608 C 242.915 -0.465661 2.97073 0
M  V30 2609 C 244.463 -0.549534 3.08138 0
M  V30 2610 C 244.938 -0.568669 4.54456 0
M  V30 2611 N 246.429 -0.630237 4.58892 0
M  V30 2612 C 247.164 -0.666415 5.69514 0
M  V30 2613 N 246.66 -0.660514 6.89644 0
M  V30 2614 N 248.453 -0.709077 5.5761 0
M  V30 2615 H 240.604 0.757198 1.98445 0
M  V30 2616 H 242.867 0.278808 0.906074 0
M  V30 2617 H 242.573 0.454232 3.48754 0
M  V30 2618 H 242.447 -1.29513 3.54269 0
M  V30 2619 H 244.834 -1.45985 2.56461 0
M  V30 2620 H 244.915 0.307532 2.53945 0
M  V30 2621 H 244.559 0.337581 5.06777 0
M  V30 2622 H 244.489 -1.44256 5.06456 0
M  V30 2623 H 246.98 -0.641146 3.72421 0
M  V30 2624 H 247.293 -0.690616 7.69708 0
M  V30 2625 H 245.638 -0.628012 6.92157 0
M  V30 2626 H 248.829 -0.711019 4.62668 0
M  V30 2627 H 249.002 -0.733804 6.43832 0
M  V30 2628 N 242.408 -1.52605 -0.393616 0
M  V30 2629 C 243.338 -1.80022 -1.48709 0
M  V30 2630 C 244.319 -0.651995 -1.57108 0
M  V30 2631 O 245.504 -0.89913 -1.72132 0
M  V30 2632 C 242.634 -1.96492 -2.86371 0
M  V30 2633 C 241.588 -3.12161 -2.92813 0
M  V30 2634 C 240.914 -3.13877 -4.3288 0
M  V30 2635 C 242.214 -4.51322 -2.6288 0
M  V30 2636 H 243.908 -2.71589 -1.26015 0
M  V30 2637 H 241.454 -1.30684 -0.604778 0
M  V30 2638 H 243.407 -2.14255 -3.62867 0
M  V30 2639 H 242.131 -1.01611 -3.10391 0
M  V30 2640 H 240.79 -2.94173 -2.18764 0
M  V30 2641 H 240.438 -2.16687 -4.53933 0
M  V30 2642 H 240.138 -3.91576 -4.38112 0
M  V30 2643 H 241.662 -3.33789 -5.1129 0
M  V30 2644 H 243.076 -4.69435 -3.29096 0
M  V30 2645 H 241.473 -5.31053 -2.79468 0
M  V30 2646 H 242.543 -4.58353 -1.58242 0
M  V30 2647 N 243.887 0.651787 -1.4349 0
M  V30 2648 C 245.115 1.43937 -1.48626 0
M  V30 2649 C 245.53 1.8851 -0.104587 0
M  V30 2650 O 244.887 1.5958 0.885464 0
M  V30 2651 C 244.938 2.6734 -2.43334 0
M  V30 2652 O 244.659 2.24631 -3.76128 0
M  V30 2653 C 246.16 3.60683 -2.57726 0
M  V30 2654 H 243.38 0.44213 -0.504739 0
M  V30 2655 H 245.924 0.798944 -1.88248 0
M  V30 2656 H 244.079 3.2752 -2.06904 0
M  V30 2657 H 244.493 3.04485 -4.2707 0
M  V30 2658 H 245.967 4.43933 -3.28067 0
M  V30 2659 H 246.444 4.08126 -1.62265 0
M  V30 2660 H 247.05 3.06384 -2.94973 0
M  V30 2661 N 245.365 1.30045 0.890287 0
M  V30 2662 C 246.295 1.18541 2.01172 0
M  V30 2663 C 247.276 0.0773356 1.69924 0
M  V30 2664 O 248.461 0.25845 1.92473 0
M  V30 2665 C 245.591 0.870941 3.36202 0
M  V30 2666 C 244.545 1.93637 3.81692 0
M  V30 2667 C 243.871 1.475 5.13953 0
M  V30 2668 C 245.171 3.34666 4.00994 0
M  V30 2669 H 246.865 2.12359 2.11054 0
M  V30 2670 H 244.411 1.02238 1.01407 0
M  V30 2671 H 246.364 0.777141 4.14172 0
M  V30 2672 H 245.088 -0.102926 3.26438 0
M  V30 2673 H 243.747 2.01972 3.05946 0
M  V30 2674 H 243.395 0.489551 5.00612 0
M  V30 2675 H 243.095 2.1876 5.4536 0
M  V30 2676 H 244.619 1.39489 5.94454 0
M  V30 2677 H 246.033 3.2912 4.69417 0
M  V30 2678 H 244.43 4.03966 4.43769 0
M  V30 2679 H 245.5 3.76949 3.05021 0
M  V30 2680 N 246.843 -1.10192 1.12674 0
M  V30 2681 C 248.071 -1.85983 0.906527 0
M  V30 2682 C 248.486 -1.80783 -0.544333 0
M  V30 2683 O 247.843 -1.19834 -1.37645 0
M  V30 2684 C 247.894 -3.34281 1.37618 0
M  V30 2685 O 247.615 -3.39401 2.77017 0
M  V30 2686 C 249.116 -4.26938 1.19325 0
M  V30 2687 H 246.336 -0.587716 0.323775 0
M  V30 2688 H 248.88 -1.39284 1.49734 0
M  V30 2689 H 247.035 -3.78436 0.828539 0
M  V30 2690 H 247.449 -4.31838 2.97684 0
M  V30 2691 H 248.923 -5.29181 1.57071 0
M  V30 2692 H 249.4 -4.38995 0.134097 0
M  V30 2693 H 250.006 -3.8859 1.72852 0
M  V30 2694 N 248.321 -0.919034 -1.28029 0
M  V30 2695 C 249.251 -0.428581 -2.29533 0
M  V30 2696 C 250.232 0.50659 -1.62381 0
M  V30 2697 O 251.417 0.413195 -1.89753 0
M  V30 2698 C 248.547 0.327388 -3.45753 0
M  V30 2699 C 247.501 -0.519137 -4.2484 0
M  V30 2700 C 246.827 0.365486 -5.33449 0
M  V30 2701 C 248.127 -1.77914 -4.91064 0
M  V30 2702 H 249.821 -1.27687 -2.70807 0
M  V30 2703 H 247.367 -0.615428 -1.30186 0
M  V30 2704 H 249.32 0.681378 -4.15855 0
M  V30 2705 H 248.044 1.20963 -3.03374 0
M  V30 2706 H 246.703 -0.855717 -3.56473 0
M  V30 2707 H 246.351 1.24642 -4.87312 0
M  V30 2708 H 246.051 -0.197356 -5.87268 0
M  V30 2709 H 247.575 0.715241 -6.06396 0
M  V30 2710 H 248.989 -1.49374 -5.53498 0
M  V30 2711 H 247.386 -2.2848 -5.54903 0
M  V30 2712 H 248.456 -2.50382 -4.15255 0
M  V30 2713 N 249.799 1.42003 -0.683588 0
M  V30 2714 C 251.024 2.06265 -0.216647 0
M  V30 2715 C 251.449 1.51059 1.12083 0
M  V30 2716 O 250.807 0.632638 1.69904 0
M  V30 2717 C 250.855 3.60191 -0.171759 0
M  V30 2718 O 249.959 4.03396 0.857069 0
M  V30 2719 H 249.3 0.65502 -0.108834 0
M  V30 2720 H 251.83 1.81982 -0.935077 0
M  V30 2721 H 251.84 4.08 0.0014303 0
M  V30 2722 H 250.515 3.99743 -1.14796 0
M  V30 2723 H 249.092 3.67117 0.654208 0
M  V30 2724 N 251.277 0.427512 1.51691 0
M  V30 2725 C 252.517 -0.141524 2.03909 0
M  V30 2726 C 252.881 -1.40811 1.30523 0
M  V30 2727 O 254.082 -2.05676 1.73063 0
M  V30 2728 C 252.353 -0.364962 3.55532 0
M  V30 2729 S 253.912 -0.898812 4.29496 0
M  V30 2730 H 250.73 -0.0364542 0.710065 0
M  V30 2731 H 253.332 0.584659 1.86553 0
M  V30 2732 H 252.036 0.56336 4.06515 0
M  V30 2733 H 251.567 -1.1185 3.77164 0
M  V30 2734 H 253.582 -2.17747 4.45871 0
M  V30 2735 N 252.755 -1.56801 0.158532 0
M  V30 2736 C 254.166 -1.83189 -0.360366 0
M  V30 2737 C 254.517 -1.07778 -1.63946 0
M  V30 2738 O 253.642 -0.326718 -2.13919 0
M  V30 2739 C 254.237 -3.32297 -0.660595 0
M  V30 2740 C 252.796 -3.59227 -1.12398 0
M  V30 2741 C 251.943 -2.76877 -0.153097 0
M  V30 2742 H 254.894 -1.54008 0.383031 0
M  V30 2743 H 254.915 -3.4908 -1.51405 0
M  V30 2744 H 254.427 -3.87156 0.270527 0
M  V30 2745 H 252.528 -3.09766 -2.07064 0
M  V30 2746 H 252.641 -4.67632 -1.04197 0
M  V30 2747 H 251.005 -2.46319 -0.647983 0
M  V30 2748 H 251.788 -3.34511 0.77182 0
M  V30 2749 N 254.233 0.115231 -1.57178 0
M  V30 2750 C 255.166 1.17166 -1.95825 0
M  V30 2751 C 256.144 1.39912 -0.828463 0
M  V30 2752 O 257.328 1.54004 -1.08697 0
M  V30 2753 C 254.455 2.52478 -2.25771 0
M  V30 2754 C 253.501 2.46136 -3.48309 0
M  V30 2755 S 254.334 1.89736 -5.0076 0
M  V30 2756 C 255.49 3.26713 -5.33863 0
M  V30 2757 H 255.723 0.842103 -2.85124 0
M  V30 2758 H 253.256 0.322136 -1.51002 0
M  V30 2759 H 255.214 3.30332 -2.43702 0
M  V30 2760 H 253.875 2.82609 -1.37079 0
M  V30 2761 H 253.068 3.45819 -3.66641 0
M  V30 2762 H 252.67 1.76404 -3.29784 0
M  V30 2763 H 254.962 4.22935 -5.29275 0
M  V30 2764 H 255.905 3.13205 -6.35065 0
M  V30 2765 H 256.313 3.25316 -4.61335 0
M  V30 2766 N 255.711 1.52812 0.385517 0
M  V30 2767 C 256.988 1.5861 1.14465 0
M  V30 2768 C 257.368 0.381402 2.07626 0
M  V30 2769 O 256.716 -0.629999 2.19643 0
M  V30 2770 C 256.926 2.92664 1.90128 0
M  V30 2771 C 258.274 3.46526 2.45367 0
M  V30 2772 O 259.298 2.94562 2.0028 0
M  V30 2773 O 258.157 4.37323 3.27736 0
M  V30 2774 H 255.251 0.639855 0.523941 0
M  V30 2775 H 257.797 1.65149 0.390389 0
M  V30 2776 H 256.569 3.71788 1.22022 0
M  V30 2777 H 256.192 2.89527 2.72507 0
M  V30 2778 N 257.189 -0.644168 1.43834 0
M  V30 2779 C 258.119 -1.76814 1.52509 0
M  V30 2780 C 259.1 -1.65823 0.379052 0
M  V30 2781 O 260.285 -1.84781 0.597466 0
M  V30 2782 C 257.415 -3.15288 1.4564 0
M  V30 2783 C 256.369 -3.41053 2.58586 0
M  V30 2784 C 255.695 -4.79421 2.36769 0
M  V30 2785 C 256.995 -3.34902 4.00797 0
M  V30 2786 H 258.689 -1.69812 2.46586 0
M  V30 2787 H 256.235 -0.815542 1.1868 0
M  V30 2788 H 258.188 -3.93681 1.50311 0
M  V30 2789 H 256.912 -3.23043 0.480725 0
M  V30 2790 H 255.571 -2.65035 2.53282 0
M  V30 2791 H 255.219 -4.83863 1.37424 0
M  V30 2792 H 254.919 -4.9762 3.12487 0
M  V30 2793 H 256.443 -5.6006 2.43238 0
M  V30 2794 H 257.857 -4.03218 4.07539 0
M  V30 2795 H 256.254 -3.64637 4.76613 0
M  V30 2796 H 257.324 -2.32928 4.25291 0
M  V30 2797 N 258.668 -1.30515 -0.883378 0
M  V30 2798 C 259.615 -1.17032 -1.98927 0
M  V30 2799 C 260.585 -0.0594241 -1.65994 0
M  V30 2800 O 261.77 -0.229895 -1.8941 0
M  V30 2801 C 258.91 -0.869777 -3.33959 0
M  V30 2802 C 258.023 -2.06271 -3.79574 0
M  V30 2803 C 257.158 -1.70011 -5.03259 0
M  V30 2804 C 256.197 -2.8579 -5.41286 0
M  V30 2805 N 255.334 -2.49816 -6.56153 0
M  V30 2806 H 260.174 -2.1164 -2.09792 0
M  V30 2807 H 257.711 -1.05296 -1.02719 0
M  V30 2808 H 259.669 -0.676138 -4.11685 0
M  V30 2809 H 258.299 0.0394332 -3.22776 0
M  V30 2810 H 257.351 -2.36755 -2.97744 0
M  V30 2811 H 258.663 -2.92971 -4.03694 0
M  V30 2812 H 257.817 -1.47032 -5.88614 0
M  V30 2813 H 256.556 -0.804829 -4.81013 0
M  V30 2814 H 255.561 -3.09434 -4.54456 0
M  V30 2815 H 256.786 -3.76008 -5.65504 0
M  V30 2816 H 254.732 -1.62795 -6.35479 0
M  V30 2817 H 254.649 -3.30048 -6.8015 0
M  V30 2818 H 255.917 -2.30197 -7.44735 0
M  V30 2819 N 260.146 1.09593 -1.13257 0
M  V30 2820 C 261.094 2.18271 -0.803783 0
M  V30 2821 C 262.088 1.68054 0.213148 0
M  V30 2822 O 263.294 1.79862 0.0704699 0
M  V30 2823 H 259.669 0.711949 -0.242143 0
M  V30 2824 H 261.64 2.43235 -1.72856 0
M  V30 2825 C 260.389 3.46536 -0.28424 0
M  V30 2826 H 259.712 3.85545 -1.05807 0
M  V30 2827 H 261.152 4.23899 -0.0925945 0
M  V30 2828 C 259.611 3.22036 0.989684 0
M  V30 2829 O 260.141 3.44509 2.06584 0
M  V30 2830 N 258.347 2.7565 0.920086 0
M  V30 2831 H 257.894 2.57562 0.0442019 0
M  V30 2832 H 257.852 2.59635 1.77306 0
M  V30 2833 N 261.624 0.925811 1.2754 0
M  V30 2834 C 262.871 0.565255 1.94451 0
M  V30 2835 C 263.199 -0.89316 1.7278 0
M  V30 2836 O 262.454 -1.65213 1.04895 0
M  V30 2837 C 262.753 0.835296 3.47502 0
M  V30 2838 C 262.419 2.27515 3.89291 0
M  V30 2839 C 261.081 2.66879 4.00411 0
M  V30 2840 C 263.433 3.21158 4.10496 0
M  V30 2841 C 260.761 3.99014 4.30122 0
M  V30 2842 C 263.113 4.52871 4.4169 0
M  V30 2843 C 261.777 4.92072 4.51023 0
M  V30 2844 H 261.047 0.206841 0.711546 0
M  V30 2845 H 263.694 1.16942 1.51647 0
M  V30 2846 H 261.999 0.148442 3.91519 0
M  V30 2847 H 263.696 0.535322 3.97411 0
M  V30 2848 H 260.286 1.95976 3.81171 0
M  V30 2849 H 264.47 2.9195 4.01346 0
M  V30 2850 H 259.726 4.2907 4.35556 0
M  V30 2851 H 263.9 5.25436 4.57045 0
M  V30 2852 H 261.527 5.9449 4.738 0
M  V30 2853 N 263.102 -1.41638 0.69111 0
M  V30 2854 C 264.513 -1.84346 0.295517 0
M  V30 2855 C 264.864 -1.57833 -1.16547 0
M  V30 2856 O 263.989 -1.04648 -1.89414 0
M  V30 2857 C 264.584 -3.34636 0.529575 0
M  V30 2858 C 263.143 -3.7593 0.187944 0
M  V30 2859 C 262.29 -2.65082 0.814052 0
M  V30 2860 H 265.241 -1.31253 0.892092 0
M  V30 2861 H 265.262 -3.79903 -0.213148 0
M  V30 2862 H 264.774 -3.53901 1.59297 0
M  V30 2863 H 262.875 -3.62268 -0.871367 0
M  V30 2864 H 262.988 -4.74808 0.63985 0
M  V30 2865 H 261.352 -2.53528 0.244017 0
M  V30 2866 H 262.135 -2.87167 1.88123 0
M  V30 2867 N 264.58 -0.43555 -1.51462 0
M  V30 2868 C 265.513 0.421989 -2.24264 0
M  V30 2869 C 266.491 1.02619 -1.26127 0
M  V30 2870 O 267.675 1.069 -1.55257 0
M  V30 2871 C 264.802 1.588 -2.99166 0
M  V30 2872 C 263.848 1.10465 -4.11946 0
M  V30 2873 S 264.681 0.048146 -5.35478 0
M  V30 2874 C 265.837 1.21887 -6.13917 0
M  V30 2875 H 266.07 -0.196102 -2.96653 0
M  V30 2876 H 263.603 -0.220054 -1.52824 0
M  V30 2877 H 265.561 2.25647 -3.42919 0
M  V30 2878 H 264.222 2.1775 -2.26371 0
M  V30 2879 H 263.415 1.97654 -4.63626 0
M  V30 2880 H 263.017 0.51445 -3.70445 0
M  V30 2881 H 265.309 2.13756 -6.42895 0
M  V30 2882 H 266.252 0.742076 -7.04201 0
M  V30 2883 H 266.66 1.45663 -5.45383 0
M  V30 2884 N 266.058 1.56714 -0.166846 0
M  V30 2885 C 267.335 1.88412 0.525373 0
M  V30 2886 C 267.715 1.07602 1.81618 0
M  V30 2887 O 267.063 0.168621 2.27877 0
M  V30 2888 C 267.273 3.40363 0.771613 0
M  V30 2889 C 268.621 4.10007 1.1036 0
M  V30 2890 O 269.645 3.45655 0.860304 0
M  V30 2891 O 268.504 5.2369 1.56239 0
M  V30 2892 H 265.598 0.781587 0.270278 0
M  V30 2893 H 268.144 1.68458 -0.204946 0
M  V30 2894 H 266.916 3.91046 -0.141093 0
M  V30 2895 H 266.539 3.65914 1.55541 0
M  V30 2896 N 267.536 -0.106894 1.57237 0
M  V30 2897 C 268.782 -0.81373 1.85759 0
M  V30 2898 C 269.115 -1.78952 0.754315 0
M  V30 2899 O 268.39 -1.93029 -0.23879 0
M  V30 2900 C 268.673 -1.55293 3.24894 0
M  V30 2901 C 268.526 -0.595929 4.45835 0
M  V30 2902 C 269.845 -2.5063 3.61763 0
M  V30 2903 H 266.964 -0.294369 0.67566 0
M  V30 2904 H 269.606 -0.0776472 1.89841 0
M  V30 2905 H 267.756 -2.1804 3.21544 0
M  V30 2906 H 269.428 0.0236262 4.61294 0
M  V30 2907 H 267.671 0.0916191 4.33703 0
M  V30 2908 H 268.342 -1.15004 5.39887 0
M  V30 2909 H 270.818 -1.97982 3.65981 0
M  V30 2910 H 269.694 -2.99376 4.60071 0
M  V30 2911 H 269.955 -3.3385 2.89821 0
M  V30 2912 N 269.014 -1.53014 -0.377408 0
M  V30 2913 C 269.946 -1.74884 -1.48149 0
M  V30 2914 C 270.959 -0.629433 -1.5014 0
M  V30 2915 O 272.148 -0.905416 -1.53833 0
M  V30 2916 C 269.248 -1.80299 -2.86959 0
M  V30 2917 C 268.421 -3.09776 -3.08801 0
M  V30 2918 C 267.48 -3.06586 -4.27658 0
M  V30 2919 O 266.506 -3.80419 -4.23403 0
M  V30 2920 N 267.708 -2.26578 -5.34455 0
M  V30 2921 H 270.473 -2.70147 -1.29771 0
M  V30 2922 H 268.034 -1.51646 -0.56703 0
M  V30 2923 H 270.026 -1.75657 -3.64591 0
M  V30 2924 H 268.596 -0.92372 -2.98641 0
M  V30 2925 H 267.816 -3.27815 -2.18931 0
M  V30 2926 H 269.104 -3.95366 -3.20255 0
M  V30 2927 H 268.502 -1.66081 -5.40771 0
M  V30 2928 H 267.059 -2.27766 -6.10709 0
M  V30 2929 N 270.492 0.636531 -1.44174 0
M  V30 2930 C 271.72 1.42353 -1.50144 0
M  V30 2931 C 272.135 1.88389 -0.124575 0
M  V30 2932 O 271.492 1.6051 0.868489 0
M  V30 2933 C 271.543 2.64744 -2.46156 0
M  V30 2934 O 271.264 2.20629 -3.7849 0
M  V30 2935 C 272.765 3.57929 -2.61537 0
M  V30 2936 H 269.985 0.436752 -0.5094 0
M  V30 2937 H 272.529 0.778933 -1.89084 0
M  V30 2938 H 270.684 3.25307 -2.10366 0
M  V30 2939 H 271.098 2.99938 -4.30276 0
M  V30 2940 H 272.572 4.40428 -3.32757 0
M  V30 2941 H 273.049 4.06382 -1.66585 0
M  V30 2942 H 273.655 3.03238 -2.98206 0
M  V30 2943 N 271.97 1.30982 0.876444 0
M  V30 2944 C 273.21 1.21589 1.64303 0
M  V30 2945 C 273.574 -0.223962 1.90689 0
M  V30 2946 O 274.775 -0.44128 2.65153 0
M  V30 2947 C 273.046 2.03007 2.94148 0
M  V30 2948 S 274.605 2.10405 3.85065 0
M  V30 2949 H 271.423 0.433161 0.563819 0
M  V30 2950 H 274.025 1.65565 1.03964 0
M  V30 2951 H 272.729 3.06719 2.72675 0
M  V30 2952 H 272.26 1.59725 3.59515 0
M  V30 2953 H 274.275 1.23765 4.80517 0
M  V30 2954 N 273.449 -1.08991 1.13837 0
M  V30 2955 C 274.698 -1.80631 0.897509 0
M  V30 2956 C 275.011 -1.86872 -0.57777 0
M  V30 2957 O 276.217 -2.54866 -0.935701 0
M  V30 2958 C 274.673 -3.24517 1.55618 0
M  V30 2959 C 274.281 -3.26529 3.0673 0
M  V30 2960 C 276.025 -4.00882 1.3962 0
M  V30 2961 C 273.932 -4.64965 3.65461 0
M  V30 2962 H 272.862 -0.67691 0.332129 0
M  V30 2963 H 275.513 -1.2246 1.3666 0
M  V30 2964 H 273.895 -3.82778 1.01476 0
M  V30 2965 H 275.069 -2.78008 3.67489 0
M  V30 2966 H 273.384 -2.63656 3.22296 0
M  V30 2967 H 275.981 -5.03167 1.80906 0
M  V30 2968 H 276.324 -4.14896 0.341578 0
M  V30 2969 H 276.857 -3.49075 1.90766 0
M  V30 2970 H 273.596 -4.56153 4.70749 0
M  V30 2971 H 273.116 -5.13792 3.09481 0
M  V30 2972 H 274.795 -5.3394 3.654 0
M  V30 2973 N 274.927 -0.932562 -1.27047 0
M  V30 2974 C 275.86 -0.379774 -2.25018 0
M  V30 2975 C 276.838 0.526587 -1.53837 0
M  V30 2976 O 278.022 0.465992 -1.82649 0
M  V30 2977 C 275.149 0.455187 -3.35627 0
M  V30 2978 C 274.195 -0.388428 -4.24728 0
M  V30 2979 S 275.028 -1.80701 -5.04091 0
M  V30 2980 C 276.184 -0.979865 -6.18182 0
M  V30 2981 H 276.417 -1.2101 -2.71558 0
M  V30 2982 H 273.95 -0.735078 -1.35779 0
M  V30 2983 H 275.908 0.931052 -3.99802 0
M  V30 2984 H 274.569 1.26009 -2.87716 0
M  V30 2985 H 273.762 0.25089 -5.03375 0
M  V30 2986 H 273.364 -0.798649 -3.65373 0
M  V30 2987 H 275.656 -0.218115 -6.77149 0
M  V30 2988 H 276.599 -1.73951 -6.86401 0
M  V30 2989 H 277.007 -0.51973 -5.62102 0
M  V30 2990 N 276.405 1.4127 -0.698611 0
M  V30 2991 C 277.337 2.292 0.00399731 0
M  V30 2992 C 278.35 1.44944 0.741279 0
M  V30 2993 O 279.539 1.68416 0.591477 0
M  V30 2994 C 276.639 3.22875 1.02979 0
M  V30 2995 C 275.812 4.35904 0.36151 0
M  V30 2996 C 274.871 5.10134 1.29033 0
M  V30 2997 O 273.897 5.63809 0.781562 0
M  V30 2998 N 275.099 5.17885 2.6225 0
M  V30 2999 H 277.864 2.9014 -0.750921 0
M  V30 3000 H 275.425 1.52455 -0.544882 0
M  V30 3001 H 277.417 3.69404 1.65296 0
M  V30 3002 H 275.987 2.63221 1.68622 0
M  V30 3003 H 275.207 3.91719 -0.441584 0
M  V30 3004 H 276.495 5.08696 -0.103055 0
M  V30 3005 H 275.893 4.7573 3.061 0
M  V30 3006 H 274.45 5.6798 3.19754 0
M  V30 3007 N 277.883 0.443576 1.51229 0
M  V30 3008 C 278.813 -0.355142 2.30783 0
M  V30 3009 C 279.794 -1.0154 1.36468 0
M  V30 3010 O 280.979 -1.01785 1.65389 0
M  V30 3011 C 278.109 -1.45312 3.15439 0
M  V30 3012 C 277.063 -0.916002 4.18083 0
M  V30 3013 C 276.389 -2.1102 4.91299 0
M  V30 3014 C 277.689 0.0538602 5.22272 0
M  V30 3015 H 279.383 0.308767 2.97804 0
M  V30 3016 H 276.929 0.149937 1.43217 0
M  V30 3017 H 278.882 -2.01914 3.69876 0
M  V30 3018 H 277.606 -2.14541 2.46252 0
M  V30 3019 H 276.265 -0.372145 3.64706 0
M  V30 3020 H 275.913 -2.78882 4.18609 0
M  V30 3021 H 275.613 -1.75717 5.60712 0
M  V30 3022 H 277.137 -2.68164 5.48562 0
M  V30 3023 H 278.551 -0.422069 5.71744 0
M  V30 3024 H 276.948 0.319776 5.99247 0
M  V30 3025 H 278.018 0.98858 4.74716 0
M  V30 3026 N 279.361 -1.56624 0.175154 0
M  V30 3027 C 280.271 -2.21741 -0.766042 0
M  V30 3028 C 281.287 -1.21023 -1.25018 0
M  V30 3029 O 282.463 -1.53697 -1.3015 0
M  V30 3030 C 279.528 -2.84839 -1.97655 0
M  V30 3031 C 278.589 -4.00769 -1.53892 0
M  V30 3032 C 277.822 -4.60849 -2.69173 0
M  V30 3033 O 278.045 -4.19823 -3.86141 0
M  V30 3034 O 276.979 -5.50655 -2.43028 0
M  V30 3035 H 280.805 -3.02738 -0.241585 0
M  V30 3036 H 278.39 -1.49305 -0.053222 0
M  V30 3037 H 280.272 -3.24834 -2.68442 0
M  V30 3038 H 278.947 -2.06836 -2.48999 0
M  V30 3039 H 277.854 -3.65436 -0.80044 0
M  V30 3040 H 279.187 -4.80376 -1.07236 0
M  V30 3041 N 280.839 0.0985539 -1.57292 0
M  V30 3042 C 282.064 0.820196 -1.90493 0
M  V30 3043 C 282.489 1.71658 -0.769094 0
M  V30 3044 O 281.847 1.79133 0.279495 0
M  V30 3045 C 281.895 1.61242 -3.22542 0
M  V30 3046 O 280.999 2.72108 -3.09888 0
M  V30 3047 H 280.34 0.225547 -0.62452 0
M  V30 3048 H 282.87 0.0748159 -2.04463 0
M  V30 3049 H 282.88 1.99737 -3.55766 0
M  V30 3050 H 281.555 0.954535 -4.04798 0
M  V30 3051 H 280.132 2.36667 -2.88172 0
M  V30 3052 N 282.317 1.53212 0.369288 0
M  V30 3053 C 283.564 1.69215 1.11232 0
M  V30 3054 C 283.892 0.442048 1.8941 0
M  V30 3055 O 283.147 -0.575944 1.87033 0
M  V30 3056 C 283.446 2.89101 2.10132 0
M  V30 3057 C 283.112 4.25758 1.48463 0
M  V30 3058 C 281.774 4.6292 1.31372 0
M  V30 3059 C 284.126 5.10757 1.03811 0
M  V30 3060 C 281.454 5.82722 0.68207 0
M  V30 3061 C 283.806 6.31201 0.420487 0
M  V30 3062 C 282.47 6.67079 0.237038 0
M  V30 3063 H 281.74 0.619201 0.407027 0
M  V30 3064 H 284.387 1.87391 0.394552 0
M  V30 3065 H 282.692 2.65421 2.88199 0
M  V30 3066 H 284.389 2.98676 2.6757 0
M  V30 3067 H 280.979 3.96494 1.62758 0
M  V30 3068 H 285.163 4.82599 1.1581 0
M  V30 3069 H 280.419 6.09113 0.528316 0
M  V30 3070 H 284.593 6.96368 0.0662874 0
M  V30 3071 H 282.22 7.59774 -0.254477 0
M  V30 3072 N 283.795 -0.628877 1.44509 0
M  V30 3073 C 285.043 -1.38565 1.4712 0
M  V30 3074 C 285.364 -1.94712 0.105899 0
M  V30 3075 O 284.634 -1.75912 -0.862079 0
M  V30 3076 H 283.214 -0.514333 0.541729 0
M  V30 3077 H 285.876 -0.740018 1.80305 0
M  V30 3078 H 284.972 -2.21583 2.19789 0
M  V30 3079 N 285.273 -1.31445 -0.869486 0
M  V30 3080 C 286.503 -1.23942 -1.65294 0
M  V30 3081 C 286.911 0.197561 -1.88166 0
M  V30 3082 O 286.254 1.14019 -1.44033 0
M  V30 3083 C 286.316 -1.91385 -3.04322 0
M  V30 3084 C 285.98 -3.40726 -3.04557 0
M  V30 3085 C 286.977 -4.36464 -2.82481 0
M  V30 3086 C 284.662 -3.82425 -3.25663 0
M  V30 3087 C 286.656 -5.71876 -2.8149 0
M  V30 3088 C 284.343 -5.1795 -3.243 0
M  V30 3089 C 285.341 -6.12486 -3.02241 0
M  V30 3090 O 285.029 -7.45534 -3.00724 0
M  V30 3091 H 284.761 -0.429459 -0.522054 0
M  V30 3092 H 287.315 -1.73873 -1.0935 0
M  V30 3093 H 285.545 -1.36004 -3.61994 0
M  V30 3094 H 287.234 -1.77791 -3.64891 0
M  V30 3095 H 288 -4.05576 -2.65956 0
M  V30 3096 H 283.879 -3.09274 -3.41863 0
M  V30 3097 H 287.423 -6.45638 -2.64191 0
M  V30 3098 H 283.32 -5.48473 -3.40365 0
M  V30 3099 H 284.088 -7.54713 -3.16782 0
M  V30 3100 N 286.751 1.08385 -1.14413 0
M  V30 3101 C 287.979 1.84517 -0.936001 0
M  V30 3102 C 288.394 1.81626 0.515503 0
M  V30 3103 O 287.751 1.22008 1.35721 0
M  V30 3104 C 287.802 3.32049 -1.42918 0
M  V30 3105 O 287.523 3.34951 -2.82381 0
M  V30 3106 C 289.024 4.24986 -1.26103 0
M  V30 3107 H 286.244 0.582491 -0.333084 0
M  V30 3108 H 288.788 1.36885 -1.5193 0
M  V30 3109 H 286.943 3.7707 -0.888641 0
M  V30 3110 H 287.357 4.27048 -3.04517 0
M  V30 3111 H 288.831 5.26615 -1.6547 0
M  V30 3112 H 289.308 4.38726 -0.20392 0
M  V30 3113 H 289.914 3.85791 -1.79012 0
M  V30 3114 N 288.23 0.939286 1.26551 0
M  V30 3115 C 289.163 0.391702 2.24813 0
M  V30 3116 C 290.141 -0.518421 1.54114 0
M  V30 3117 O 291.325 -0.456299 1.82894 0
M  V30 3118 C 288.452 -0.437382 3.35864 0
M  V30 3119 C 287.498 0.410946 4.24516 0
M  V30 3120 S 288.331 1.83372 5.03125 0
M  V30 3121 C 289.487 1.01264 6.17654 0
M  V30 3122 H 289.72 1.22448 2.70913 0
M  V30 3123 H 287.253 0.742269 1.35387 0
M  V30 3124 H 289.211 -0.909837 4.0029 0
M  V30 3125 H 287.872 -1.24482 2.8838 0
M  V30 3126 H 287.065 -0.224191 5.03501 0
M  V30 3127 H 286.667 0.818014 3.64945 0
M  V30 3128 H 288.959 0.254023 6.77024 0
M  V30 3129 H 289.902 1.77589 6.85469 0
M  V30 3130 H 290.31 0.549532 5.61819 0
M  V30 3131 N 289.708 -1.40897 0.706093 0
M  V30 3132 C 290.656 -2.32572 0.0361893 0
M  V30 3133 C 291.65 -1.51532 -0.757266 0
M  V30 3134 O 292.856 -1.67396 -0.661703 0
M  V30 3135 H 289.231 -0.751966 -0.00709935 0
M  V30 3136 H 291.202 -2.86733 0.826249 0
M  V30 3137 C 289.951 -3.36418 -0.87854 0
M  V30 3138 H 289.274 -3.98836 -0.277401 0
M  V30 3139 H 290.714 -4.0308 -1.3154 0
M  V30 3140 C 289.173 -2.71141 -1.99961 0
M  V30 3141 O 289.703 -2.56735 -3.0895 0
M  V30 3142 N 287.909 -2.29671 -1.78043 0
M  V30 3143 H 287.456 -2.41588 -0.894042 0
M  V30 3144 H 287.414 -1.86332 -2.53235 0
M  V30 3145 N 291.186 -0.45159 -1.50991 0
M  V30 3146 C 292.463 0.170707 -1.94854 0
M  V30 3147 C 292.843 1.58788 -1.39103 0
M  V30 3148 O 292.191 2.20913 -0.583921 0
M  V30 3149 C 292.401 0.133929 -3.48743 0
M  V30 3150 C 293.749 0.33248 -4.23296 0
M  V30 3151 O 294.773 0.211403 -3.55572 0
M  V30 3152 O 293.632 0.57486 -5.43468 0
M  V30 3153 H 290.726 0.122264 -0.817912 0
M  V30 3154 H 293.272 -0.510594 -1.61836 0
M  V30 3155 H 292.044 -0.856283 -3.81816 0
M  V30 3156 H 291.667 0.857529 -3.88242 0
M  V30 3157 N 292.664 1.56529 -0.183458 0
M  V30 3158 C 293.594 2.21549 0.737456 0
M  V30 3159 C 294.575 1.17489 1.23005 0
M  V30 3160 O 295.76 1.45959 1.281 0
M  V30 3161 C 292.89 2.86575 1.96194 0
M  V30 3162 C 291.844 3.96778 1.60473 0
M  V30 3163 C 291.17 4.48911 2.90487 0
M  V30 3164 C 292.47 5.15767 0.823497 0
M  V30 3165 H 294.164 2.98761 0.195453 0
M  V30 3166 H 291.71 1.43702 0.0925686 0
M  V30 3167 H 293.663 3.30739 2.61131 0
M  V30 3168 H 292.387 2.06749 2.52828 0
M  V30 3169 H 291.046 3.53286 0.978997 0
M  V30 3170 H 290.694 3.65862 3.45186 0
M  V30 3171 H 290.394 5.23265 2.67335 0
M  V30 3172 H 291.918 4.95771 3.56432 0
M  V30 3173 H 293.332 5.56549 1.37571 0
M  V30 3174 H 291.729 5.96114 0.690551 0
M  V30 3175 H 292.799 4.84574 -0.177782 0
M  V30 3176 N 294.142 -0.090211 1.57342 0
M  V30 3177 C 295.391 -0.791531 1.8552 0
M  V30 3178 C 295.704 -1.79659 0.773441 0
M  V30 3179 O 296.91 -2.54616 0.942497 0
M  V30 3180 C 295.366 -1.45856 3.2902 0
M  V30 3181 C 294.974 -0.493017 4.45279 0
M  V30 3182 C 296.718 -2.14332 3.66418 0
M  V30 3183 C 294.625 -1.16491 5.79814 0
M  V30 3184 H 293.555 -0.299356 0.692027 0
M  V30 3185 H 296.206 -0.0445343 1.83446 0
M  V30 3186 H 294.588 -2.25318 3.2565 0
M  V30 3187 H 295.762 0.270464 4.60006 0
M  V30 3188 H 294.077 0.0863061 4.16311 0
M  V30 3189 H 296.674 -2.65344 4.64216 0
M  V30 3190 H 297.017 -2.93447 2.95287 0
M  V30 3191 H 297.55 -1.41724 3.71698 0
M  V30 3192 H 294.289 -0.41447 6.54188 0
M  V30 3193 H 293.809 -1.8997 5.68921 0
M  V30 3194 H 295.488 -1.69001 6.24538 0
M  V30 3195 N 295.62 -1.53406 -0.361157 0
M  V30 3196 C 296.867 -1.69802 -1.10333 0
M  V30 3197 C 297.195 -0.452087 -1.89173 0
M  V30 3198 O 296.45 0.566017 -1.87336 0
M  V30 3199 C 296.749 -2.90211 -2.08596 0
M  V30 3200 C 296.415 -4.26539 -1.46203 0
M  V30 3201 C 295.077 -4.6361 -1.28915 0
M  V30 3202 C 297.429 -5.113 -1.01101 0
M  V30 3203 C 294.757 -5.83075 -0.651157 0
M  V30 3204 C 297.109 -6.31415 -0.387007 0
M  V30 3205 C 295.773 -6.67195 -0.201657 0
M  V30 3206 H 295.043 -0.621351 -0.403737 0
M  V30 3207 H 297.69 -1.87598 -0.384609 0
M  V30 3208 H 295.995 -2.66946 -2.86788 0
M  V30 3209 H 297.692 -3.00091 -2.65982 0
M  V30 3210 H 294.282 -3.97352 -1.60653 0
M  V30 3211 H 298.466 -4.83206 -1.13249 0
M  V30 3212 H 293.722 -6.09385 -0.496006 0
M  V30 3213 H 297.896 -6.96394 -0.0293563 0
M  V30 3214 H 295.523 -7.59628 0.294766 0
M  V30 3215 N 297.098 0.621204 -1.44841 0
M  V30 3216 C 298.008 1.7612 -1.5498 0
M  V30 3217 C 299.024 1.68477 -0.434927 0
M  V30 3218 O 300.2 1.89076 -0.693693 0
M  V30 3219 C 297.265 3.1254 -1.50065 0
M  V30 3220 C 296.326 3.31741 -2.72482 0
M  V30 3221 C 295.559 4.61653 -2.67792 0
M  V30 3222 O 295.782 5.431 -1.74352 0
M  V30 3223 O 294.716 4.83271 -3.58794 0
M  V30 3224 H 298.542 1.70518 -2.51311 0
M  V30 3225 H 296.127 0.783643 -1.27198 0
M  V30 3226 H 298.009 3.93844 -1.49882 0
M  V30 3227 H 296.684 3.18663 -0.568806 0
M  V30 3228 H 295.591 2.50077 -2.7823 0
M  V30 3229 H 296.924 3.30486 -3.64746 0
M  V30 3230 N 298.576 1.31904 0.862503 0
M  V30 3231 C 299.822 1.23207 1.61838 0
M  V30 3232 C 300.177 -0.206062 1.91293 0
M  V30 3233 O 299.47 -1.14162 1.53875 0
M  V30 3234 C 299.664 2.01713 2.95037 0
M  V30 3235 C 299.493 3.53014 2.78588 0
M  V30 3236 C 298.263 4.22359 2.77382 0
M  V30 3237 C 300.461 4.47819 2.52909 0
M  V30 3238 N 298.443 5.59766 2.52062 0
M  V30 3239 C 299.814 5.72947 2.36922 0
M  V30 3240 C 301.869 4.37162 2.38314 0
M  V30 3241 C 300.572 6.88623 2.07823 0
M  V30 3242 C 302.598 5.5263 2.10604 0
M  V30 3243 C 301.96 6.76752 1.95411 0
M  V30 3244 H 298.059 0.505984 0.596242 0
M  V30 3245 H 300.643 1.66179 1.01452 0
M  V30 3246 H 298.814 1.61098 3.53415 0
M  V30 3247 H 300.546 1.84975 3.59953 0
M  V30 3248 H 297.301 3.74401 2.90036 0
M  V30 3249 H 297.725 6.32135 2.42352 0
M  V30 3250 H 302.367 3.41857 2.48784 0
M  V30 3251 H 300.085 7.83948 1.9609 0
M  V30 3252 H 303.671 5.46307 2.00101 0
M  V30 3253 H 302.551 7.6459 1.74274 0
M  V30 3254 N 300.054 -1.07777 1.14986 0
M  V30 3255 C 300.986 -2.14769 0.800436 0
M  V30 3256 C 301.999 -1.61739 -0.185595 0
M  V30 3257 O 303.188 -1.78462 0.0370358 0
M  V30 3258 C 300.288 -3.38481 0.168533 0
M  V30 3259 C 299.461 -4.20876 1.1909 0
M  V30 3260 C 298.52 -5.22976 0.581575 0
M  V30 3261 O 297.546 -5.55388 1.24633 0
M  V30 3262 N 298.748 -5.76976 -0.638706 0
M  V30 3263 H 301.513 -2.45348 1.72118 0
M  V30 3264 H 299.074 -1.23645 1.04515 0
M  V30 3265 H 301.066 -4.03916 -0.251764 0
M  V30 3266 H 299.636 -3.05651 -0.655467 0
M  V30 3267 H 298.856 -3.51322 1.78791 0
M  V30 3268 H 300.144 -4.7274 1.88133 0
M  V30 3269 H 299.542 -5.52886 -1.19723 0
M  V30 3270 H 298.099 -6.44061 -1.00142 0
M  V30 3271 N 301.532 -0.945985 -1.26051 0
M  V30 3272 C 302.809 -0.513816 -1.88731 0
M  V30 3273 C 303.189 1.00872 -1.8544 0
M  V30 3274 O 302.537 1.8708 -1.312 0
M  V30 3275 C 302.747 -1.08062 -3.31849 0
M  V30 3276 C 304.095 -1.1522 -4.08668 0
M  V30 3277 O 305.119 -1.03155 -3.40936 0
M  V30 3278 O 303.978 -1.34044 -5.29806 0
M  V30 3279 H 301.072 -0.168193 -0.809716 0
M  V30 3280 H 303.618 -1.03886 -1.34186 0
M  V30 3281 H 302.39 -2.1241 -3.2863 0
M  V30 3282 H 302.013 -0.538307 -3.93939 0
M  V30 3283 N 303.011 1.40521 -0.713556 0
M  V30 3284 C 303.921 2.34522 -0.0606667 0
M  V30 3285 C 304.937 1.57193 0.74607 0
M  V30 3286 O 306.113 1.89591 0.679493 0
M  V30 3287 C 303.178 3.36081 0.851491 0
M  V30 3288 C 302.239 4.29286 0.0349339 0
M  V30 3289 C 301.472 5.25994 0.903649 0
M  V30 3290 O 301.695 5.28616 2.14292 0
M  V30 3291 O 300.629 6.00918 0.343723 0
M  V30 3292 H 304.455 2.91968 -0.835972 0
M  V30 3293 H 302.04 1.41681 -0.47402 0
M  V30 3294 H 303.922 3.98369 1.37404 0
M  V30 3295 H 302.597 2.81052 1.60598 0
M  V30 3296 H 301.504 3.70289 -0.532633 0
M  V30 3297 H 302.837 4.87462 -0.681287 0
M  V30 3298 N 304.489 0.459591 1.5075 0
M  V30 3299 C 305.452 -0.329093 2.26825 0
M  V30 3300 C 306.452 -0.930481 1.31144 0
M  V30 3301 O 307.642 -0.801453 1.54669 0
M  V30 3302 C 304.774 -1.46768 3.07688 0
M  V30 3303 H 305.967 0.337924 2.9799 0
M  V30 3304 H 303.52 0.213336 1.54837 0
M  V30 3305 H 304.255 -2.17009 2.40993 0
M  V30 3306 H 304.04 -1.04238 3.77991 0
M  V30 3307 H 305.53 -2.02433 3.65254 0
M  V30 3308 N 305.967 -1.56429 0.191757 0
M  V30 3309 C 307.378 -1.83912 -0.321428 0
M  V30 3310 C 307.729 -1.11231 -1.61623 0
M  V30 3311 O 306.854 -0.37202 -2.13178 0
M  V30 3312 C 307.449 -3.33624 -0.589961 0
M  V30 3313 C 306.008 -3.6153 -1.04753 0
M  V30 3314 C 305.155 -2.7714 -0.0943327 0
M  V30 3315 H 308.106 -1.53161 0.415612 0
M  V30 3316 H 308.127 -3.52213 -1.43966 0
M  V30 3317 H 307.639 -3.86495 0.352588 0
M  V30 3318 H 305.74 -3.14089 -2.00447 0
M  V30 3319 H 305.853 -4.69737 -0.942549 0
M  V30 3320 H 304.217 -2.47638 -0.595589 0
M  V30 3321 H 305 -3.32799 0.842601 0
M  V30 3322 N 307.445 0.0818655 -1.57387 0
M  V30 3323 C 308.691 0.784074 -1.8703 0
M  V30 3324 C 309.024 1.77729 -0.782689 0
M  V30 3325 O 308.299 1.93384 0.208051 0
M  V30 3326 C 308.582 1.50105 -3.27323 0
M  V30 3327 C 308.435 0.524925 -4.46727 0
M  V30 3328 C 309.754 2.44843 -3.65705 0
M  V30 3329 H 306.873 0.283582 -0.680257 0
M  V30 3330 H 309.515 0.0474352 -1.89941 0
M  V30 3331 H 307.665 2.12897 -3.24972 0
M  V30 3332 H 309.337 -0.0970111 -4.61198 0
M  V30 3333 H 307.58 -0.160606 -4.33503 0
M  V30 3334 H 308.251 1.064 -5.41648 0
M  V30 3335 H 310.727 1.92135 -3.69085 0
M  V30 3336 H 309.603 2.92018 -4.64776 0
M  V30 3337 H 309.864 3.29197 -2.95096 0
M  V30 3338 N 308.923 1.53595 0.353017 0
M  V30 3339 C 309.855 1.77219 1.45348 0
M  V30 3340 C 310.868 0.65324 1.49119 0
M  V30 3341 O 312.057 0.929775 1.52373 0
M  V30 3342 C 309.157 1.84841 2.84055 0
M  V30 3343 C 308.33 3.14649 3.03833 0
M  V30 3344 C 307.389 3.13351 4.22727 0
M  V30 3345 O 306.415 3.87107 4.17297 0
M  V30 3346 N 307.617 2.35052 5.30783 0
M  V30 3347 H 310.382 2.72178 1.25457 0
M  V30 3348 H 307.943 1.52528 0.542833 0
M  V30 3349 H 309.935 1.81435 3.61751 0
M  V30 3350 H 308.505 0.971114 2.97133 0
M  V30 3351 H 307.725 3.31256 2.13689 0
M  V30 3352 H 309.013 4.00411 3.13925 0
M  V30 3353 H 308.411 1.74663 5.38061 0
M  V30 3354 H 306.968 2.37453 6.07009 0
M  V30 3355 N 310.401 -0.613514 1.45168 0
M  V30 3356 C 311.647 -1.37471 1.49096 0
M  V30 3357 C 311.98 -1.93765 0.129901 0
M  V30 3358 O 311.255 -1.74707 -0.854858 0
M  V30 3359 C 311.538 -2.52701 2.56542 0
M  V30 3360 C 311.391 -2.01643 4.0207 0
M  V30 3361 C 312.71 -3.54849 2.60327 0
M  V30 3362 H 309.829 -0.498502 0.54283 0
M  V30 3363 H 312.471 -0.692125 1.76945 0
M  V30 3364 H 310.621 -3.10931 2.32926 0
M  V30 3365 H 312.293 -1.48108 4.36877 0
M  V30 3366 H 310.536 -1.32688 4.13009 0
M  V30 3367 H 311.207 -2.84681 4.72928 0
M  V30 3368 H 313.683 -3.0645 2.81474 0
M  V30 3369 H 312.559 -4.32973 3.37381 0
M  V30 3370 H 312.82 -4.10079 1.6519 0
M  V30 3371 N 311.879 -1.3236 -0.855495 0
M  V30 3372 C 312.842 -1.21164 -1.94556 0
M  V30 3373 C 313.842 -0.134908 -1.60233 0
M  V30 3374 O 315.032 -0.385249 -1.69887 0
M  V30 3375 C 312.164 -0.863192 -3.29791 0
M  V30 3376 H 313.357 -2.18038 -2.05911 0
M  V30 3377 H 310.91 -1.16179 -1.04557 0
M  V30 3378 H 311.645 0.103769 -3.24134 0
M  V30 3379 H 311.43 -1.64166 -3.56078 0
M  V30 3380 H 312.92 -0.809156 -4.09686 0
M  V30 3381 N 313.357 1.07166 -1.15556 0
M  V30 3382 C 314.267 2.17947 -0.868116 0
M  V30 3383 C 315.283 1.73297 0.156297 0
M  V30 3384 O 316.459 2.01392 -0.0182327 0
M  V30 3385 C 313.524 3.44789 -0.36355 0
M  V30 3386 C 312.585 4.03996 -1.45209 0
M  V30 3387 C 311.818 5.24783 -0.971508 0
M  V30 3388 O 312.041 5.70109 0.182194 0
M  V30 3389 O 310.975 5.75715 -1.75603 0
M  V30 3390 H 314.801 2.4503 -1.79427 0
M  V30 3391 H 312.386 1.16539 -0.934824 0
M  V30 3392 H 314.268 4.21307 -0.0887113 0
M  V30 3393 H 312.943 3.19253 0.534708 0
M  V30 3394 H 311.85 3.29009 -1.78056 0
M  V30 3395 H 313.183 4.33808 -2.32533 0
M  V30 3396 N 314.835 0.952656 1.25548 0
M  V30 3397 C 316.083 0.605176 1.92826 0
M  V30 3398 C 316.404 -0.860261 1.74999 0
M  V30 3399 O 315.674 -1.6125 1.11244 0
M  V30 3400 H 314.254 0.220832 0.713612 0
M  V30 3401 H 316.916 1.21047 1.52754 0
M  V30 3402 H 316.012 0.832798 3.00784 0
M  V30 3403 N 316.313 -1.40141 0.720998 0
M  V30 3404 C 317.243 -2.33339 0.0867621 0
M  V30 3405 C 318.224 -1.53178 -0.739622 0
M  V30 3406 O 319.409 -1.81625 -0.687449 0
M  V30 3407 C 316.539 -3.37194 -0.831728 0
M  V30 3408 C 315.493 -4.27857 -0.110558 0
M  V30 3409 C 314.819 -5.22294 -1.14513 0
M  V30 3410 C 316.119 -5.11872 1.0385 0
M  V30 3411 H 317.813 -2.86626 0.865219 0
M  V30 3412 H 315.359 -1.37814 0.417516 0
M  V30 3413 H 317.312 -4.01335 -1.28485 0
M  V30 3414 H 316.036 -2.82314 -1.64214 0
M  V30 3415 H 314.695 -3.65176 0.322797 0
M  V30 3416 H 314.343 -4.63717 -1.94874 0
M  V30 3417 H 314.043 -5.83797 -0.667446 0
M  V30 3418 H 315.567 -5.89312 -1.59824 0
M  V30 3419 H 316.981 -5.69436 0.664482 0
M  V30 3420 H 315.378 -5.82445 1.4449 0
M  V30 3421 H 316.448 -4.4753 1.86668 0
M  V30 3422 N 317.792 -0.46758 -1.50504 0
M  V30 3423 C 319.02 0.0864133 -2.06719 0
M  V30 3424 C 319.435 1.33819 -1.33184 0
M  V30 3425 O 318.792 1.78061 -0.400083 0
M  V30 3426 C 318.843 0.378079 -3.59517 0
M  V30 3427 O 318.564 -0.824044 -4.3028 0
M  V30 3428 C 320.065 0.979426 -4.32345 0
M  V30 3429 H 317.285 -0.00551697 -0.670977 0
M  V30 3430 H 319.829 -0.655354 -1.93715 0
M  V30 3431 H 317.984 1.06977 -3.72337 0
M  V30 3432 H 318.398 -0.566518 -5.21432 0
M  V30 3433 H 319.872 1.1333 -5.40241 0
M  V30 3434 H 320.349 1.9686 -3.9261 0
M  V30 3435 H 320.955 0.326216 -4.24047 0
M  V30 3436 N 319.27 1.56325 -0.20005 0
M  V30 3437 C 320.2 2.22318 0.713916 0
M  V30 3438 C 321.181 1.18788 1.21752 0
M  V30 3439 O 322.366 1.47309 1.26545 0
M  V30 3440 C 319.496 2.88639 1.93144 0
M  V30 3441 C 318.45 3.98457 1.56255 0
M  V30 3442 C 317.776 4.51967 2.85709 0
M  V30 3443 C 319.076 5.16612 0.768747 0
M  V30 3444 H 320.77 2.98952 0.163755 0
M  V30 3445 H 318.316 1.43792 0.0773219 0
M  V30 3446 H 320.269 3.33491 2.57608 0
M  V30 3447 H 318.993 2.09419 2.50621 0
M  V30 3448 H 317.652 3.54305 0.941471 0
M  V30 3449 H 317.3 3.69503 3.41287 0
M  V30 3450 H 317 5.26071 2.6177 0
M  V30 3451 H 318.524 4.99523 3.51154 0
M  V30 3452 H 319.938 5.57977 1.3166 0
M  V30 3453 H 318.335 5.96812 0.627286 0
M  V30 3454 H 319.405 4.84358 -0.229168 0
M  V30 3455 N 320.748 -0.0735177 1.57428 0
M  V30 3456 C 322.159 -0.625551 1.75908 0
M  V30 3457 C 322.51 -1.78 0.825261 0
M  V30 3458 O 321.635 -2.16398 0.00893964 0
M  V30 3459 C 322.23 -1.14155 3.18989 0
M  V30 3460 C 320.789 -1.63946 3.38819 0
M  V30 3461 C 319.936 -0.558151 2.71625 0
M  V30 3462 H 322.887 0.152647 1.57964 0
M  V30 3463 H 322.908 -2.0104 3.23053 0
M  V30 3464 H 322.42 -0.301116 3.8693 0
M  V30 3465 H 320.521 -2.50321 2.7599 0
M  V30 3466 H 320.634 -1.71759 4.47253 0
M  V30 3467 H 318.998 -1.00278 2.34129 0
M  V30 3468 H 319.781 0.272071 3.4222 0
M  V30 3469 N 322.226 -1.5378 -0.344866 0
M  V30 3470 C 323.158 -1.77988 -1.44406 0
M  V30 3471 C 324.171 -0.661138 -1.48771 0
M  V30 3472 O 325.36 -0.937842 -1.51877 0
M  V30 3473 C 322.46 -1.86345 -2.8307 0
M  V30 3474 C 321.633 -3.16256 -3.0216 0
M  V30 3475 C 320.692 -3.15588 -4.21059 0
M  V30 3476 O 319.718 -3.89314 -4.15239 0
M  V30 3477 N 320.92 -2.37864 -5.29529 0
M  V30 3478 H 323.685 -2.72839 -1.24012 0
M  V30 3479 H 321.246 -1.52814 -0.534737 0
M  V30 3480 H 323.238 -1.83351 -3.60783 0
M  V30 3481 H 321.808 -0.986858 -2.96614 0
M  V30 3482 H 321.028 -3.32385 -2.11929 0
M  V30 3483 H 322.316 -4.0207 -3.11797 0
M  V30 3484 H 321.714 -1.77514 -5.37127 0
M  V30 3485 H 320.271 -2.40668 -6.05741 0
M  V30 3486 N 323.704 0.605807 -1.45491 0
M  V30 3487 C 324.951 1.36476 -1.49601 0
M  V30 3488 C 325.279 1.94007 -0.138452 0
M  V30 3489 O 324.534 1.75638 0.863114 0
M  V30 3490 C 324.833 2.53012 -2.52428 0
M  V30 3491 C 324.499 2.13617 -3.97087 0
M  V30 3492 C 323.161 2.02587 -4.36477 0
M  V30 3493 C 325.513 1.82899 -4.88055 0
M  V30 3494 C 322.841 1.59064 -5.64726 0
M  V30 3495 C 325.193 1.40861 -6.16718 0
M  V30 3496 C 323.857 1.28391 -6.55036 0
M  V30 3497 H 323.127 0.499402 -0.547429 0
M  V30 3498 H 325.774 0.684546 -1.78847 0
M  V30 3499 H 324.079 3.26379 -2.16758 0
M  V30 3500 H 325.776 3.1124 -2.52845 0
M  V30 3501 H 322.366 2.23129 -3.65939 0
M  V30 3502 H 326.55 1.90317 -4.58359 0
M  V30 3503 H 321.806 1.48034 -5.93208 0
M  V30 3504 H 325.98 1.16138 -6.86648 0
M  V30 3505 H 323.607 0.944403 -7.54311 0
M  V30 3506 N 325.182 1.32811 0.848464 0
M  V30 3507 C 326.112 1.24882 1.97299 0
M  V30 3508 C 327.093 0.131357 1.69592 0
M  V30 3509 O 328.278 0.319553 1.91553 0
M  V30 3510 C 325.408 0.97746 3.33261 0
M  V30 3511 C 324.362 2.05682 3.75338 0
M  V30 3512 C 323.688 1.63777 5.09 0
M  V30 3513 C 324.988 3.47254 3.90144 0
M  V30 3514 H 326.682 2.18966 2.04191 0
M  V30 3515 H 324.228 1.05413 0.981029 0
M  V30 3516 H 326.181 0.908513 4.1149 0
M  V30 3517 H 324.905 0.000980011 3.266 0
M  V30 3518 H 323.564 2.11603 2.99366 0
M  V30 3519 H 323.212 0.648569 4.98801 0
M  V30 3520 H 322.912 2.36 5.38124 0
M  V30 3521 H 324.436 1.5833 5.89715 0
M  V30 3522 H 325.85 3.43888 4.58709 0
M  V30 3523 H 324.247 4.1788 4.30693 0
M  V30 3524 H 325.317 3.86462 2.92874 0
M  V30 3525 N 326.66 -1.06551 1.16123 0
M  V30 3526 C 327.59 -2.15935 0.88851 0
M  V30 3527 C 328.571 -1.69306 -0.164135 0
M  V30 3528 O 329.756 -1.94193 -0.0167857 0
M  V30 3529 C 326.886 -3.45149 0.385942 0
M  V30 3530 C 325.84 -4.05271 1.3762 0
M  V30 3531 C 325.166 -5.29664 0.732137 0
M  V30 3532 C 326.466 -4.44355 2.74493 0
M  V30 3533 H 328.16 -2.39006 1.80323 0
M  V30 3534 H 325.706 -1.14866 0.868435 0
M  V30 3535 H 327.659 -4.21004 0.182647 0
M  V30 3536 H 326.383 -3.21689 -0.564274 0
M  V30 3537 H 325.042 -3.3147 1.56599 0
M  V30 3538 H 324.69 -5.02499 -0.224483 0
M  V30 3539 H 324.39 -5.70848 1.39307 0
M  V30 3540 H 325.914 -6.08218 0.538802 0
M  V30 3541 H 327.328 -5.11303 2.59311 0
M  V30 3542 H 325.725 -4.96515 3.37035 0
M  V30 3543 H 326.795 -3.55339 3.29943 0
M  V30 3544 N 328.138 -0.959301 -1.25041 0
M  V30 3545 C 329.085 -0.482057 -2.2571 0
M  V30 3546 C 330.055 0.467939 -1.59372 0
M  V30 3547 O 331.24 0.380159 -1.86974 0
M  V30 3548 C 328.38 0.229623 -3.44335 0
M  V30 3549 C 327.493 -0.758156 -4.25295 0
M  V30 3550 C 326.628 -0.0234403 -5.31195 0
M  V30 3551 C 325.667 -1.00184 -6.03846 0
M  V30 3552 N 324.804 -0.29769 -7.01469 0
M  V30 3553 H 329.644 -1.34538 -2.65901 0
M  V30 3554 H 327.181 -0.674592 -1.3072 0
M  V30 3555 H 329.139 0.658856 -4.11965 0
M  V30 3556 H 327.769 1.05696 -3.05005 0
M  V30 3557 H 326.821 -1.30586 -3.57284 0
M  V30 3558 H 328.133 -1.50458 -4.75567 0
M  V30 3559 H 327.287 0.464201 -6.04922 0
M  V30 3560 H 326.026 0.755741 -4.81809 0
M  V30 3561 H 325.031 -1.50044 -5.2893 0
M  V30 3562 H 326.256 -1.78133 -6.55321 0
M  V30 3563 H 324.202 0.462668 -6.54366 0
M  V30 3564 H 324.119 -0.983128 -7.4958 0
M  V30 3565 H 325.387 0.16826 -7.79318 0
M  V30 3566 N 329.616 1.39756 -0.72842 0
M  V30 3567 C 330.526 2.34444 -0.0855374 0
M  V30 3568 C 331.542 1.57976 0.729356 0
M  V30 3569 O 332.718 1.90301 0.659346 0
M  V30 3570 C 329.783 3.36965 0.815798 0
M  V30 3571 C 328.844 4.29299 -0.0105996 0
M  V30 3572 C 328.077 5.26923 0.84781 0
M  V30 3573 O 328.3 5.30859 2.08673 0
M  V30 3574 O 327.234 6.01249 0.279969 0
M  V30 3575 H 331.06 2.91065 -0.866892 0
M  V30 3576 H 328.645 1.4117 -0.48902 0
M  V30 3577 H 330.527 3.99804 1.33171 0
M  V30 3578 H 329.202 2.82739 1.57608 0
M  V30 3579 H 328.109 3.69703 -0.571877 0
M  V30 3580 H 329.442 4.86712 -0.73295 0
M  V30 3581 N 331.094 0.475555 1.50254 0
M  V30 3582 C 332.004 -0.321501 2.32387 0
M  V30 3583 C 333.02 -0.991755 1.42969 0
M  V30 3584 O 334.196 -0.978747 1.76018 0
M  V30 3585 C 331.261 -1.38667 3.17762 0
M  V30 3586 C 330.322 -0.732538 4.23004 0
M  V30 3587 C 329.555 -1.74695 5.04299 0
M  V30 3588 O 329.778 -2.97399 4.86734 0
M  V30 3589 O 328.712 -1.31631 5.8733 0
M  V30 3590 H 332.538 0.350071 3.01676 0
M  V30 3591 H 330.123 0.237321 1.47503 0
M  V30 3592 H 332.005 -2.00354 3.70724 0
M  V30 3593 H 330.68 -2.04163 2.51196 0
M  V30 3594 H 329.587 -0.0765902 3.74022 0
M  V30 3595 H 330.92 -0.120452 4.92053 0
M  V30 3596 N 332.573 -1.56217 0.208337 0
M  V30 3597 C 333.52 -2.19699 -0.707192 0
M  V30 3598 C 334.49 -1.14836 -1.20008 0
M  V30 3599 O 335.675 -1.4314 -1.26157 0
M  V30 3600 C 332.815 -2.87061 -1.91546 0
M  V30 3601 C 331.928 -4.06483 -1.46271 0
M  V30 3602 C 331.063 -4.61665 -2.62752 0
M  V30 3603 C 330.102 -5.73417 -2.14147 0
M  V30 3604 N 329.239 -6.22948 -3.23853 0
M  V30 3605 H 334.079 -2.97575 -0.159111 0
M  V30 3606 H 331.616 -1.46948 -0.0667874 0
M  V30 3607 H 333.574 -3.24294 -2.62468 0
M  V30 3608 H 332.204 -2.11725 -2.43664 0
M  V30 3609 H 331.256 -3.74825 -0.648886 0
M  V30 3610 H 332.568 -4.87271 -1.06622 0
M  V30 3611 H 331.722 -5.01272 -3.41776 0
M  V30 3612 H 330.461 -3.80013 -3.05682 0
M  V30 3613 H 329.466 -5.33326 -1.33581 0
M  V30 3614 H 330.691 -6.56897 -1.72232 0
M  V30 3615 H 328.637 -5.44213 -3.6629 0
M  V30 3616 H 328.554 -6.98823 -2.88414 0
M  V30 3617 H 329.822 -6.6721 -4.03052 0
M  V30 3618 N 334.051 0.0651679 -1.57465 0
M  V30 3619 C 335.328 0.79644 -1.78651 0
M  V30 3620 C 335.708 1.95454 -0.797566 0
M  V30 3621 O 335.056 2.27882 0.167946 0
M  V30 3622 C 335.266 1.26322 -3.25337 0
M  V30 3623 C 336.614 1.6939 -3.89348 0
M  V30 3624 O 337.638 1.35872 -3.29268 0
M  V30 3625 O 336.497 2.31471 -4.95059 0
M  V30 3626 H 333.591 0.382157 -0.733407 0
M  V30 3627 H 336.137 0.0447311 -1.69641 0
M  V30 3628 H 334.909 0.434859 -3.88876 0
M  V30 3629 H 334.532 2.07604 -3.39096 0
M  V30 3630 N 335.529 1.53961 0.336706 0
M  V30 3631 C 336.459 1.85417 1.41925 0
M  V30 3632 C 337.44 0.709856 1.5458 0
M  V30 3633 O 338.625 0.962396 1.68676 0
M  V30 3634 C 335.755 2.06985 2.78881 0
M  V30 3635 C 334.709 3.22813 2.81026 0
M  V30 3636 C 334.035 3.29727 4.20932 0
M  V30 3637 C 335.335 4.60767 2.45949 0
M  V30 3638 H 337.029 2.76079 1.15848 0
M  V30 3639 H 334.575 1.32839 0.555859 0
M  V30 3640 H 336.528 2.27575 3.54665 0
M  V30 3641 H 335.252 1.13061 3.06406 0
M  V30 3642 H 333.911 3.0209 2.07695 0
M  V30 3643 H 333.559 2.33385 4.45579 0
M  V30 3644 H 333.259 4.07566 4.23277 0
M  V30 3645 H 334.783 3.52536 4.98549 0
M  V30 3646 H 336.197 4.81325 3.11446 0
M  V30 3647 H 334.594 5.4106 2.59566 0
M  V30 3648 H 335.664 4.6391 1.41122 0
M  V30 3649 N 337.007 -0.598083 1.45811 0
M  V30 3650 C 338.423 -0.919847 1.30426 0
M  V30 3651 C 338.623 -1.99759 0.264303 0
M  V30 3652 O 337.679 -2.50221 -0.338472 0
M  V30 3653 C 338.992 -1.35176 2.68603 0
M  V30 3654 C 340.54 -1.46546 2.76574 0
M  V30 3655 C 341.015 -1.9311 4.15298 0
M  V30 3656 N 342.506 -2.00328 4.1764 0
M  V30 3657 C 343.241 -2.37599 5.21856 0
M  V30 3658 N 342.737 -2.73771 6.36413 0
M  V30 3659 N 344.53 -2.38021 5.09218 0
M  V30 3660 H 336.681 0.114111 2.12093 0
M  V30 3661 H 338.944 -0.0116121 0.947929 0
M  V30 3662 H 338.65 -0.633969 3.45939 0
M  V30 3663 H 338.524 -2.3164 2.97696 0
M  V30 3664 H 340.911 -2.17415 1.99537 0
M  V30 3665 H 340.992 -0.483727 2.51185 0
M  V30 3666 H 340.636 -1.22824 4.92825 0
M  V30 3667 H 340.566 -2.92213 4.38086 0
M  V30 3668 H 343.057 -1.74925 3.34977 0
M  V30 3669 H 343.37 -3.0112 7.11721 0
M  V30 3670 H 341.715 -2.71445 6.39799 0
M  V30 3671 H 344.906 -2.09174 4.18765 0
M  V30 3672 H 345.079 -2.66741 5.90554 0
M  V30 3673 N 338.485 -1.33259 -0.841409 0
M  V30 3674 C 339.715 -1.2742 -1.62628 0
M  V30 3675 C 340.123 0.157604 -1.88542 0
M  V30 3676 O 339.466 1.10938 -1.46419 0
M  V30 3677 C 339.528 -1.97797 -3.00194 0
M  V30 3678 C 339.192 -3.47109 -2.97261 0
M  V30 3679 C 340.189 -4.42358 -2.73159 0
M  V30 3680 C 337.874 -3.89247 -3.17478 0
M  V30 3681 C 339.868 -5.77718 -2.69296 0
M  V30 3682 C 337.555 -5.24713 -3.13241 0
M  V30 3683 C 338.553 -6.1876 -2.89181 0
M  V30 3684 O 338.241 -7.51745 -2.84843 0
M  V30 3685 H 337.973 -0.440436 -0.512827 0
M  V30 3686 H 340.527 -1.76153 -1.05638 0
M  V30 3687 H 338.757 -1.43652 -3.59028 0
M  V30 3688 H 340.446 -1.8549 -3.61038 0
M  V30 3689 H 341.212 -4.11127 -2.57294 0
M  V30 3690 H 337.091 -3.16456 -3.35226 0
M  V30 3691 H 340.635 -6.51097 -2.50436 0
M  V30 3692 H 336.532 -5.55569 -3.28654 0
M  V30 3693 H 337.3 -7.61262 -3.00702 0
M  V30 3694 N 339.963 1.05934 -1.16686 0
M  V30 3695 C 341.203 1.80382 -0.961345 0
M  V30 3696 C 341.567 1.85331 0.501643 0
M  V30 3697 O 342.768 2.55795 0.825986 0
M  V30 3698 C 341.039 3.20777 -1.57596 0
M  V30 3699 S 342.598 4.11795 -1.51559 0
M  V30 3700 H 339.416 0.621332 -0.345641 0
M  V30 3701 H 342.018 1.27157 -1.48497 0
M  V30 3702 H 340.722 3.14773 -2.63337 0
M  V30 3703 H 340.253 3.79078 -1.05182 0
M  V30 3704 H 342.268 4.93485 -0.518374 0
M  V30 3705 N 341.441 0.965919 1.2453 0
M  V30 3706 C 342.669 0.644385 1.96609 0
M  V30 3707 C 343.084 -0.785823 1.71669 0
M  V30 3708 O 342.441 -1.52703 0.999399 0
M  V30 3709 C 342.492 0.907375 3.49927 0
M  V30 3710 O 342.213 2.28136 3.74013 0
M  V30 3711 C 343.714 0.599784 4.39224 0
M  V30 3712 H 340.934 0.240588 0.626385 0
M  V30 3713 H 343.478 1.29337 1.58405 0
M  V30 3714 H 341.633 0.304631 3.862 0
M  V30 3715 H 342.047 2.36002 4.68405 0
M  V30 3716 H 343.521 0.834263 5.45659 0
M  V30 3717 H 343.998 -0.465921 4.36722 0
M  V30 3718 H 344.604 1.18235 4.08535 0
M  V30 3719 N 342.919 -1.39368 0.735821 0
M  V30 3720 C 343.866 -2.30599 0.0963825 0
M  V30 3721 C 344.836 -1.49257 -0.728794 0
M  V30 3722 O 346.021 -1.77941 -0.688588 0
M  V30 3723 C 343.161 -3.35596 -0.804305 0
M  V30 3724 C 342.274 -4.31987 0.0335761 0
M  V30 3725 C 341.409 -5.24053 -0.868461 0
M  V30 3726 C 340.448 -6.12095 -0.0258776 0
M  V30 3727 N 339.585 -6.96514 -0.883893 0
M  V30 3728 H 344.425 -2.8471 0.880002 0
M  V30 3729 H 341.962 -1.40188 0.445619 0
M  V30 3730 H 343.92 -3.95062 -1.34096 0
M  V30 3731 H 342.55 -2.82938 -1.55389 0
M  V30 3732 H 341.602 -3.74133 0.68766 0
M  V30 3733 H 342.914 -4.94074 0.685036 0
M  V30 3734 H 342.068 -5.88549 -1.47293 0
M  V30 3735 H 340.807 -4.62289 -1.5537 0
M  V30 3736 H 339.812 -5.4661 0.591386 0
M  V30 3737 H 341.037 -6.75923 0.656156 0
M  V30 3738 H 338.983 -6.37318 -1.55441 0
M  V30 3739 H 338.9 -7.55448 -0.288931 0
M  V30 3740 H 340.168 -7.65439 -1.4739 0
M  V30 3741 N 344.397 -0.483516 -1.5 0
M  V30 3742 C 345.347 0.32306 -2.257 0
M  V30 3743 C 346.331 0.950755 -1.29805 0
M  V30 3744 O 347.523 0.861247 -1.54634 0
M  V30 3745 C 344.652 1.39724 -3.13579 0
M  V30 3746 C 343.738 0.776663 -4.16928 0
M  V30 3747 N 344.129 -0.1104 -5.0568 0
M  V30 3748 C 342.427 1.03922 -4.33724 0
M  V30 3749 C 343.128 -0.46387 -5.79848 0
M  V30 3750 N 342.104 0.163987 -5.43353 0
M  V30 3751 H 345.906 -0.360086 -2.91686 0
M  V30 3752 H 343.42 -0.298456 -1.59634 0
M  V30 3753 H 345.417 1.98837 -3.66428 0
M  V30 3754 H 344.077 2.08225 -2.49143 0
M  V30 3755 H 345.088 -0.480069 -5.1567 0
M  V30 3756 H 341.765 1.71829 -3.80501 0
M  V30 3757 H 343.155 -1.18854 -6.61304 0
M  V30 3758 N 345.875 1.56104 -0.216619 0
M  V30 3759 C 347.105 2.02269 0.420802 0
M  V30 3760 C 347.513 1.09575 1.5424 0
M  V30 3761 O 346.856 0.0967308 1.83445 0
M  V30 3762 C 346.918 3.44784 1.01806 0
M  V30 3763 C 346.582 4.56988 0.0325154 0
M  V30 3764 C 347.579 5.14225 -0.766055 0
M  V30 3765 C 345.264 5.02228 -0.0848092 0
M  V30 3766 C 347.258 6.15169 -1.6687 0
M  V30 3767 C 344.945 6.03011 -0.990994 0
M  V30 3768 C 345.943 6.59357 -1.78149 0
M  V30 3769 O 345.631 7.58179 -2.67245 0
M  V30 3770 H 345.363 0.667353 0.107776 0
M  V30 3771 H 347.917 2.02747 -0.329034 0
M  V30 3772 H 346.147 3.41359 1.81689 0
M  V30 3773 H 347.836 3.74626 1.56237 0
M  V30 3774 H 348.602 4.80126 -0.685836 0
M  V30 3775 H 344.481 4.58054 0.520349 0
M  V30 3776 H 348.025 6.59076 -2.28615 0
M  V30 3777 H 343.922 6.36532 -1.07225 0
M  V30 3778 H 344.69 7.75682 -2.61265 0
M  V30 3779 N 347.353 -0.0568162 1.57498 0
M  V30 3780 C 348.301 -1.08452 2.05769 0
M  V30 3781 C 349.295 -1.39164 0.965903 0
M  V30 3782 O 350.501 -1.38395 1.15095 0
M  V30 3783 H 346.876 -0.367148 0.656282 0
M  V30 3784 H 348.847 -0.651368 2.91204 0
M  V30 3785 C 347.596 -2.38543 2.52968 0
M  V30 3786 H 346.919 -2.15765 3.36579 0
M  V30 3787 H 348.359 -3.08863 2.90481 0
M  V30 3788 C 346.818 -3.05562 1.41893 0
M  V30 3789 O 347.348 -3.94262 0.769442 0
M  V30 3790 N 345.554 -2.6643 1.16032 0
M  V30 3791 H 345.101 -1.94387 1.6903 0
M  V30 3792 H 345.059 -3.11593 0.419219 0
M  V30 3793 N 348.832 -1.54138 -0.328536 0
M  V30 3794 C 350.06 -1.76062 -1.08673 0
M  V30 3795 C 350.475 -0.506852 -1.81869 0
M  V30 3796 O 349.832 0.522223 -1.74869 0
M  V30 3797 C 349.883 -2.95054 -2.08866 0
M  V30 3798 O 349.604 -4.15583 -1.38644 0
M  V30 3799 C 351.105 -3.2915 -2.96943 0
M  V30 3800 H 348.325 -0.587889 -0.323461 0
M  V30 3801 H 350.869 -2.0101 -0.376175 0
M  V30 3802 H 349.024 -2.72394 -2.75464 0
M  V30 3803 H 349.438 -4.82481 -2.05699 0
M  V30 3804 H 350.912 -4.15723 -3.63151 0
M  V30 3805 H 351.389 -2.461 -3.63774 0
M  V30 3806 H 351.995 -3.53871 -2.35914 0
M  V30 3807 N 350.31 0.590341 -1.46126 0
M  V30 3808 C 351.558 1.34616 -1.50742 0
M  V30 3809 C 351.879 1.94363 -0.157486 0
M  V30 3810 O 351.149 1.78136 0.815136 0
M  V30 3811 H 349.729 0.499789 -0.555175 0
M  V30 3812 H 352.391 0.691953 -1.82203 0
M  V30 3813 H 351.487 2.15678 -2.25587 0
M  V30 3814 N 351.788 1.33704 0.83433 0
M  V30 3815 C 352.735 1.24335 1.94447 0
M  V30 3816 C 353.705 0.120991 1.65659 0
M  V30 3817 O 354.89 0.300035 1.88426 0
M  V30 3818 C 352.03 0.993124 3.30501 0
M  V30 3819 C 351.143 2.20217 3.71657 0
M  V30 3820 C 350.278 1.88572 4.96602 0
M  V30 3821 C 349.317 3.05683 5.30306 0
M  V30 3822 N 348.454 2.73997 6.46429 0
M  V30 3823 H 353.294 2.1928 2.01792 0
M  V30 3824 H 350.831 1.09035 0.987404 0
M  V30 3825 H 352.789 0.828467 4.08892 0
M  V30 3826 H 351.419 0.0803902 3.227 0
M  V30 3827 H 350.471 2.47642 2.88752 0
M  V30 3828 H 351.783 3.07752 3.92543 0
M  V30 3829 H 350.937 1.68776 5.82752 0
M  V30 3830 H 349.676 0.982799 4.77695 0
M  V30 3831 H 348.681 3.26088 4.42659 0
M  V30 3832 H 349.906 3.96737 5.51159 0
M  V30 3833 H 347.852 1.86268 6.28999 0
M  V30 3834 H 347.769 3.55064 6.67432 0
M  V30 3835 H 349.037 2.57679 7.35678 0
M  V30 3836 N 353.266 -1.05314 1.17247 0
M  V30 3837 C 354.513 -1.78293 0.960091 0
M  V30 3838 C 354.841 -1.87658 -0.51136 0
M  V30 3839 O 354.096 -1.3718 -1.39571 0
M  V30 3840 C 354.395 -3.2229 1.54479 0
M  V30 3841 C 354.061 -3.32987 3.04024 0
M  V30 3842 C 352.723 -3.35613 3.44844 0
M  V30 3843 C 355.075 -3.34102 4.00031 0
M  V30 3844 C 352.403 -3.36982 4.8027 0
M  V30 3845 C 354.755 -3.3701 5.35357 0
M  V30 3846 C 353.419 -3.37923 5.75642 0
M  V30 3847 H 352.689 -0.652422 0.351322 0
M  V30 3848 H 355.336 -1.23782 1.46117 0
M  V30 3849 H 353.641 -3.7972 0.965391 0
M  V30 3850 H 355.338 -3.77376 1.35603 0
M  V30 3851 H 351.928 -3.31655 2.71483 0
M  V30 3852 H 356.112 -3.31276 3.69554 0
M  V30 3853 H 351.368 -3.35999 5.10798 0
M  V30 3854 H 355.542 -3.36822 6.09528 0
M  V30 3855 H 353.169 -3.38738 6.80559 0
M  V30 3856 N 354.744 -0.972509 -1.24016 0
M  V30 3857 C 355.972 -0.654803 -1.96265 0
M  V30 3858 C 356.387 0.776708 -1.72083 0
M  V30 3859 O 355.744 1.52171 -1.00748 0
M  V30 3860 C 355.795 -0.92592 -3.49441 0
M  V30 3861 O 355.516 -2.30116 -3.72798 0
M  V30 3862 C 357.017 -0.623068 -4.38899 0
M  V30 3863 H 354.237 -0.243907 -0.6251 0
M  V30 3864 H 356.781 -1.30175 -1.57717 0
M  V30 3865 H 354.936 -0.325108 -3.86033 0
M  V30 3866 H 355.35 -2.38483 -4.67147 0
M  V30 3867 H 356.824 -0.863189 -5.45209 0
M  V30 3868 H 357.301 0.442754 -4.36963 0
M  V30 3869 H 357.907 -1.204 -4.07902 0
M  V30 3870 N 356.222 1.38976 -0.743202 0
M  V30 3871 C 357.462 2.02193 -0.29954 0
M  V30 3872 C 357.826 1.5771 1.09506 0
M  V30 3873 O 359.027 2.13184 1.63726 0
M  V30 3874 C 357.298 3.55077 -0.406822 0
M  V30 3875 S 358.857 4.38778 -0.0442109 0
M  V30 3876 H 355.675 0.701335 -0.116836 0
M  V30 3877 H 358.277 1.69651 -0.971529 0
M  V30 3878 H 356.981 3.84942 -1.42295 0
M  V30 3879 H 356.512 3.92383 0.282707 0
M  V30 3880 H 358.527 4.82222 1.16947 0
M  V30 3881 N 357.7 0.491464 1.49741 0
M  V30 3882 C 358.949 -0.0582189 2.01616 0
M  V30 3883 C 359.262 -1.38927 1.3769 0
M  V30 3884 O 360.468 -2.02509 1.80838 0
M  V30 3885 C 358.924 -0.154235 3.59569 0
M  V30 3886 C 358.532 1.1696 4.32463 0
M  V30 3887 C 360.276 -0.65479 4.1942 0
M  V30 3888 C 358.183 1.03627 5.8225 0
M  V30 3889 H 357.113 -0.0255317 0.753568 0
M  V30 3890 H 359.764 0.629445 1.72367 0
M  V30 3891 H 358.146 -0.906138 3.85493 0
M  V30 3892 H 359.32 1.93405 4.18248 0
M  V30 3893 H 357.635 1.60285 3.84315 0
M  V30 3894 H 360.232 -0.771903 5.29099 0
M  V30 3895 H 360.575 -1.65127 3.8215 0
M  V30 3896 H 361.108 0.040304 3.9778 0
M  V30 3897 H 357.847 2.00672 6.24028 0
M  V30 3898 H 357.367 0.312546 5.98985 0
M  V30 3899 H 359.046 0.711114 6.4308 0
M  V30 3900 N 359.178 -1.55987 0.224894 0
M  V30 3901 C 360.088 -2.24066 -0.69511 0
M  V30 3902 C 361.104 -1.24939 -1.21104 0
M  V30 3903 O 362.28 -1.5776 -1.25195 0
M  V30 3904 C 359.345 -2.90983 -1.88493 0
M  V30 3905 C 358.406 -4.05462 -1.41064 0
M  V30 3906 C 357.639 -4.69179 -2.54375 0
M  V30 3907 O 357.862 -4.31895 -3.72589 0
M  V30 3908 O 356.796 -5.58108 -2.25386 0
M  V30 3909 H 360.622 -3.03353 -0.145149 0
M  V30 3910 H 358.207 -1.49399 -0.00569476 0
M  V30 3911 H 360.089 -3.33209 -2.57972 0
M  V30 3912 H 358.764 -2.14653 -2.42293 0
M  V30 3913 H 357.671 -3.67798 -0.683774 0
M  V30 3914 H 359.004 -4.83545 -0.918985 0
M  V30 3915 N 360.656 0.0484629 -1.57525 0
M  V30 3916 C 361.902 0.744226 -1.88651 0
M  V30 3917 C 362.235 1.76029 -0.820212 0
M  V30 3918 O 361.51 1.93782 0.166985 0
M  V30 3919 C 361.793 1.43128 -3.30434 0
M  V30 3920 C 361.646 0.43005 -4.47739 0
M  V30 3921 C 362.965 2.37031 -3.70816 0
M  V30 3922 H 360.084 0.269089 -0.68612 0
M  V30 3923 H 362.726 0.00713532 -1.89999 0
M  V30 3924 H 360.876 2.05956 -3.29415 0
M  V30 3925 H 362.548 -0.194816 -4.60888 0
M  V30 3926 H 360.791 -0.252522 -4.33064 0
M  V30 3927 H 361.462 0.948874 -5.43783 0
M  V30 3928 H 363.938 1.84263 -3.73077 0
M  V30 3929 H 362.814 2.82094 -4.70865 0
M  V30 3930 H 363.075 3.22864 -3.02012 0
M  V30 3931 N 362.134 1.5431 0.320358 0
M  V30 3932 C 363.55 1.45091 0.664889 0
M  V30 3933 C 363.75 0.626382 1.91517 0
M  V30 3934 O 362.806 0.126443 2.52183 0
M  V30 3935 C 364.119 2.88848 0.83591 0
M  V30 3936 C 365.667 2.9877 0.933046 0
M  V30 3937 C 366.142 4.43683 1.13621 0
M  V30 3938 N 367.633 4.47309 1.20287 0
M  V30 3939 C 368.368 5.56595 1.37801 0
M  V30 3940 N 367.864 6.75844 1.52338 0
M  V30 3941 N 369.657 5.44248 1.40535 0
M  V30 3942 H 361.808 2.06398 -0.501374 0
M  V30 3943 H 364.071 0.933963 -0.162534 0
M  V30 3944 H 363.777 3.51698 -0.0116092 0
M  V30 3945 H 363.651 3.35148 1.73078 0
M  V30 3946 H 366.038 2.36045 1.77107 0
M  V30 3947 H 366.119 2.55796 0.0145782 0
M  V30 3948 H 365.763 5.06995 0.303032 0
M  V30 3949 H 365.693 4.84269 2.0686 0
M  V30 3950 H 368.184 3.61388 1.10485 0
M  V30 3951 H 368.497 7.54892 1.65403 0
M  V30 3952 H 366.842 6.78746 1.4943 0
M  V30 3953 H 370.033 4.50038 1.28777 0
M  V30 3954 H 370.206 6.29473 1.53842 0
M  V30 3955 N 363.613 -0.582584 1.46437 0
M  V30 3956 C 364.86 -1.34079 1.51753 0
M  V30 3957 C 365.188 -1.93762 0.169299 0
M  V30 3958 O 364.443 -1.76989 -0.835062 0
M  V30 3959 C 364.742 -2.48964 2.56421 0
M  V30 3960 C 364.408 -2.07273 4.00436 0
M  V30 3961 C 363.07 -1.95618 4.39644 0
M  V30 3962 C 365.422 -1.75111 4.90903 0
M  V30 3963 C 362.75 -1.5006 5.67185 0
M  V30 3964 C 365.102 -1.31032 6.18881 0
M  V30 3965 C 363.766 -1.17954 6.56996 0
M  V30 3966 H 363.036 -0.49063 0.555304 0
M  V30 3967 H 365.683 -0.656007 1.79913 0
M  V30 3968 H 363.988 -3.22889 2.21923 0
M  V30 3969 H 365.685 -3.07178 2.57765 0
M  V30 3970 H 362.275 -2.17279 3.69443 0
M  V30 3971 H 366.459 -1.83001 4.61329 0
M  V30 3972 H 361.715 -1.38577 5.95488 0
M  V30 3973 H 365.889 -1.052 6.88408 0
M  V30 3974 H 363.516 -0.824279 7.55718 0
M  V30 3975 N 365.091 -1.34144 -0.827227 0
M  V30 3976 C 366.041 -1.21923 -1.92663 0
M  V30 3977 C 367.025 -0.119294 -1.60457 0
M  V30 3978 O 368.217 -0.348539 -1.73534 0
M  V30 3979 C 365.346 -0.972492 -3.29238 0
M  V30 3980 C 364.432 -2.1154 -3.67576 0
M  V30 3981 N 364.823 -3.36627 -3.77512 0
M  V30 3982 C 363.121 -2.02468 -3.97395 0
M  V30 3983 C 363.822 -4.11658 -4.1099 0
M  V30 3984 N 362.798 -3.40207 -4.23981 0
M  V30 3985 H 366.6 -2.16721 -1.98517 0
M  V30 3986 H 364.114 -1.2632 -1.02064 0
M  V30 3987 H 366.111 -0.865847 -4.0781 0
M  V30 3988 H 364.771 -0.0331509 -3.24683 0
M  V30 3989 H 365.782 -3.71234 -3.61118 0
M  V30 3990 H 362.459 -1.16265 -4.00985 0
M  V30 3991 H 363.849 -5.19657 -4.25918 0
M  V30 3992 N 366.569 1.04691 -1.17803 0
M  V30 3993 C 367.499 2.14494 -0.92275 0
M  V30 3994 C 368.48 1.69546 0.137179 0
M  V30 3995 O 369.665 1.94195 -0.0141108 0
M  V30 3996 C 366.795 3.44491 -0.440803 0
M  V30 3997 C 365.749 4.03031 -1.4405 0
M  V30 3998 C 365.075 5.28432 -0.81631 0
M  V30 3999 C 366.375 4.39932 -2.81527 0
M  V30 4000 H 368.069 2.36107 -1.84103 0
M  V30 4001 H 365.615 1.1347 -0.886599 0
M  V30 4002 H 367.568 4.2066 -0.249602 0
M  V30 4003 H 366.292 3.22546 0.513025 0
M  V30 4004 H 364.951 3.28937 -1.61853 0
M  V30 4005 H 364.599 5.02792 0.144511 0
M  V30 4006 H 364.299 5.68559 -1.48371 0
M  V30 4007 H 365.823 6.07284 -0.635496 0
M  V30 4008 H 367.237 5.07113 -2.67412 0
M  V30 4009 H 365.634 4.9109 -3.44892 0
M  V30 4010 H 366.704 3.50045 -3.35554 0
M  V30 4011 N 368.047 0.979072 1.23499 0
M  V30 4012 C 368.957 0.526431 2.28617 0
M  V30 4013 C 369.973 -0.418126 1.68901 0
M  V30 4014 O 371.149 -0.288372 1.99325 0
M  V30 4015 C 368.214 -0.165235 3.46306 0
M  V30 4016 C 367.275 0.82056 4.21385 0
M  V30 4017 C 366.508 0.161807 5.33455 0
M  V30 4018 O 366.731 -1.04742 5.60701 0
M  V30 4019 O 365.665 0.859708 5.95729 0
M  V30 4020 H 369.491 1.4006 2.69475 0
M  V30 4021 H 367.076 0.746643 1.29405 0
M  V30 4022 H 368.958 -0.553287 4.17752 0
M  V30 4023 H 367.633 -1.01419 3.07402 0
M  V30 4024 H 366.54 1.25929 3.52268 0
M  V30 4025 H 367.873 1.63828 4.64135 0
M  V30 4026 N 369.525 -1.3858 0.750561 0
M  V30 4027 C 370.941 -1.53759 0.427824 0
M  V30 4028 C 371.141 -1.71401 -1.05943 0
M  V30 4029 O 370.197 -1.72331 -1.84549 0
M  V30 4030 C 371.51 -2.74642 1.22443 0
M  V30 4031 C 373.058 -2.88489 1.2142 0
M  V30 4032 C 373.533 -4.12329 1.9937 0
M  V30 4033 N 375.024 -4.194 1.96616 0
M  V30 4034 C 375.759 -5.14209 2.53727 0
M  V30 4035 N 375.255 -6.14709 3.19539 0
M  V30 4036 N 377.048 -5.06537 2.43673 0
M  V30 4037 H 369.199 -1.25377 1.71447 0
M  V30 4038 H 371.462 -0.608844 0.726645 0
M  V30 4039 H 371.168 -2.68 2.27747 0
M  V30 4040 H 371.042 -3.67745 0.839273 0
M  V30 4041 H 373.429 -2.94614 0.169232 0
M  V30 4042 H 373.51 -1.96406 1.63885 0
M  V30 4043 H 373.154 -4.06966 3.03877 0
M  V30 4044 H 373.084 -5.03486 1.54302 0
M  V30 4045 H 375.575 -3.47421 1.48684 0
M  V30 4046 H 375.888 -6.8354 3.60545 0
M  V30 4047 H 374.233 -6.1505 3.23633 0
M  V30 4048 H 377.424 -4.26962 1.91889 0
M  V30 4049 H 377.597 -5.80245 2.88479 0
M  V30 4050 N 371.003 -0.499398 -1.49478 0
M  V30 4051 C 371.935 0.316575 -2.27003 0
M  V30 4052 C 372.948 0.932047 -1.33479 0
M  V30 4053 O 374.137 0.815658 -1.58774 0
M  V30 4054 C 371.237 1.46055 -3.05812 0
M  V30 4055 C 370.41 0.952679 -4.26899 0
M  V30 4056 C 369.469 1.97407 -4.87767 0
M  V30 4057 O 368.495 1.54326 -5.4788 0
M  V30 4058 N 369.697 3.30436 -4.77276 0
M  V30 4059 H 372.462 -0.348168 -2.97671 0
M  V30 4060 H 370.023 -0.33185 -1.58463 0
M  V30 4061 H 372.015 2.14135 -3.43407 0
M  V30 4062 H 370.585 2.02948 -2.37762 0
M  V30 4063 H 369.805 0.0968248 -3.94081 0
M  V30 4064 H 371.093 0.59174 -5.05347 0
M  V30 4065 H 370.491 3.68126 -4.29534 0
M  V30 4066 H 369.048 3.94235 -5.19059 0
M  V30 4067 N 372.481 1.55866 -0.233164 0
M  V30 4068 C 373.414 2.16794 0.712442 0
M  V30 4069 C 374.392 1.1158 1.18273 0
M  V30 4070 O 375.576 1.39897 1.26337 0
M  V30 4071 C 372.703 2.75757 1.96661 0
M  V30 4072 C 371.749 3.93902 1.63533 0
M  V30 4073 S 372.582 5.30223 0.74995 0
M  V30 4074 C 373.738 5.92631 2.01343 0
M  V30 4075 H 373.971 2.96662 0.194617 0
M  V30 4076 H 371.504 1.5439 -0.0177425 0
M  V30 4077 H 373.462 3.10367 2.68668 0
M  V30 4078 H 372.123 1.9586 2.45556 0
M  V30 4079 H 371.316 4.33702 2.56747 0
M  V30 4080 H 370.918 3.60499 0.995804 0
M  V30 4081 H 373.21 6.09312 2.96219 0
M  V30 4082 H 374.153 6.88388 1.65915 0
M  V30 4083 H 374.561 5.21571 2.15925 0
M  V30 4084 N 373.959 -0.0401083 1.57549 0
M  V30 4085 C 375.207 -0.731677 1.8839 0
M  V30 4086 C 375.528 -1.76481 0.829425 0
M  V30 4087 O 374.798 -1.95411 -0.1383 0
M  V30 4088 H 373.378 -0.273225 0.695239 0
M  V30 4089 H 376.04 -0.00867725 1.94898 0
M  V30 4090 H 375.136 -1.22816 2.86919 0
M  V30 4091 N 375.437 -1.54477 -0.31217 0
M  V30 4092 C 376.667 -1.76948 -1.06645 0
M  V30 4093 C 377.075 -0.523593 -1.81811 0
M  V30 4094 O 376.418 0.51578 -1.76311 0
M  V30 4095 C 376.48 -2.91668 -2.10166 0
M  V30 4096 C 376.144 -4.30165 -1.54296 0
M  V30 4097 C 377.141 -5.10603 -0.978793 0
M  V30 4098 C 374.826 -4.76738 -1.58196 0
M  V30 4099 C 376.82 -6.3573 -0.461048 0
M  V30 4100 C 374.507 -6.01831 -1.06034 0
M  V30 4101 C 375.505 -6.81161 -0.500844 0
M  V30 4102 O 375.193 -8.03899 0.0128958 0
M  V30 4103 H 374.925 -0.594088 -0.322546 0
M  V30 4104 H 377.479 -2.02213 -0.360441 0
M  V30 4105 H 375.709 -2.62001 -2.84416 0
M  V30 4106 H 377.398 -3.01817 -2.71406 0
M  V30 4107 H 378.164 -4.75771 -0.941651 0
M  V30 4108 H 374.043 -4.15027 -2.00683 0
M  V30 4109 H 377.587 -6.97596 -0.0236894 0
M  V30 4110 H 373.484 -6.36152 -1.09459 0
M  V30 4111 H 374.252 -8.18437 -0.101457 0
M  V30 4112 N 376.915 0.57481 -1.46744 0
M  V30 4113 C 378.145 1.35659 -1.55821 0
M  V30 4114 C 378.553 1.88129 -0.201036 0
M  V30 4115 O 377.896 1.64723 0.813134 0
M  V30 4116 C 377.958 2.57473 -2.50894 0
M  V30 4117 C 377.622 2.26415 -3.9697 0
M  V30 4118 C 378.619 1.84771 -4.85958 0
M  V30 4119 C 376.304 2.38316 -4.42166 0
M  V30 4120 C 378.298 1.55434 -6.18158 0
M  V30 4121 C 375.985 2.08591 -5.74398 0
M  V30 4122 C 376.983 1.67216 -6.62214 0
M  V30 4123 O 376.671 1.37859 -7.91991 0
M  V30 4124 H 376.403 0.420496 -0.529301 0
M  V30 4125 H 378.957 0.704967 -1.92923 0
M  V30 4126 H 377.187 3.25468 -2.08824 0
M  V30 4127 H 378.876 3.19546 -2.50291 0
M  V30 4128 H 379.642 1.75085 -4.52295 0
M  V30 4129 H 375.521 2.69483 -3.74032 0
M  V30 4130 H 379.065 1.23065 -6.86659 0
M  V30 4131 H 374.962 2.17905 -6.07608 0
M  V30 4132 H 375.73 1.51638 -8.04331 0
M  V30 4133 N 378.394 1.34581 0.820102 0
M  V30 4134 C 379.324 1.29038 1.94606 0
M  V30 4135 C 380.305 0.1673 1.69275 0
M  V30 4136 O 381.49 0.360112 1.90832 0
M  V30 4137 C 378.62 1.04793 3.31113 0
M  V30 4138 C 377.574 2.13597 3.70891 0
M  V30 4139 C 376.9 1.74537 5.05412 0
M  V30 4140 C 378.2 3.55451 3.8269 0
M  V30 4141 H 379.894 2.23248 1.99501 0
M  V30 4142 H 377.44 1.0747 0.958449 0
M  V30 4143 H 379.393 0.995592 4.0947 0
M  V30 4144 H 378.117 0.0702565 3.26524 0
M  V30 4145 H 376.776 2.17905 2.9481 0
M  V30 4146 H 376.424 0.754226 4.97313 0
M  V30 4147 H 376.124 2.47361 5.32997 0
M  V30 4148 H 377.648 1.70803 5.86224 0
M  V30 4149 H 379.062 3.5354 4.51312 0
M  V30 4150 H 377.459 4.26922 4.21732 0
M  V30 4151 H 378.529 3.92587 2.84611 0
M  V30 4152 N 379.872 -1.04064 1.18357 0
M  V30 4153 C 381.121 -1.76662 0.973313 0
M  V30 4154 C 381.434 -1.89154 -0.497991 0
M  V30 4155 O 382.64 -2.58606 -0.826762 0
M  V30 4156 C 381.096 -3.17624 1.69242 0
M  V30 4157 C 380.704 -3.13225 3.20303 0
M  V30 4158 C 382.448 -3.946 1.56497 0
M  V30 4159 C 380.355 -4.49046 3.84853 0
M  V30 4160 H 379.285 -0.662214 0.36054 0
M  V30 4161 H 381.936 -1.16553 1.41731 0
M  V30 4162 H 380.318 -3.78129 1.1762 0
M  V30 4163 H 381.492 -2.62172 3.78949 0
M  V30 4164 H 379.807 -2.49749 3.33189 0
M  V30 4165 H 382.404 -4.95042 2.02084 0
M  V30 4166 H 382.747 -4.13074 0.517243 0
M  V30 4167 H 383.28 -3.4067 2.05399 0
M  V30 4168 H 380.019 -4.35777 4.89672 0
M  V30 4169 H 379.539 -5.00203 3.30994 0
M  V30 4170 H 381.218 -5.17961 3.87718 0
M  V30 4171 N 381.35 -0.985608 -1.22978 0
M  V30 4172 C 382.282 -0.488154 -2.23941 0
M  V30 4173 C 383.295 0.41282 -1.57479 0
M  V30 4174 O 384.484 0.216121 -1.77187 0
M  V30 4175 C 381.584 0.312611 -3.37455 0
M  V30 4176 C 380.757 -0.582741 -4.33501 0
M  V30 4177 C 379.816 0.165064 -5.25941 0
M  V30 4178 O 378.842 -0.447077 -5.67442 0
M  V30 4179 N 380.044 1.44953 -5.62111 0
M  V30 4180 H 382.809 -1.3563 -2.67254 0
M  V30 4181 H 380.37 -0.859477 -1.37203 0
M  V30 4182 H 382.362 0.821357 -3.96277 0
M  V30 4183 H 380.932 1.0818 -2.93285 0
M  V30 4184 H 380.152 -1.27225 -3.73105 0
M  V30 4185 H 381.44 -1.19275 -4.94622 0
M  V30 4186 H 380.838 1.9683 -5.30353 0
M  V30 4187 H 379.395 1.90361 -6.23383 0
M  V30 4188 N 382.828 1.3818 -0.7579 0
M  V30 4189 C 383.761 2.28055 -0.0814093 0
M  V30 4190 C 384.739 1.45603 0.723779 0
M  V30 4191 O 385.923 1.74961 0.701491 0
M  V30 4192 C 383.05 3.2676 0.891394 0
M  V30 4193 C 382.096 4.26153 0.171909 0
M  V30 4194 S 382.929 5.23434 -1.13035 0
M  V30 4195 C 384.085 6.25694 -0.160727 0
M  V30 4196 H 384.318 2.85082 -0.84353 0
M  V30 4197 H 381.851 1.44246 -0.550671 0
M  V30 4198 H 383.809 3.8414 1.44731 0
M  V30 4199 H 382.47 2.68706 1.62652 0
M  V30 4200 H 381.663 4.95738 0.908843 0
M  V30 4201 H 381.265 3.72691 -0.312606 0
M  V30 4202 H 383.557 6.74161 0.671773 0
M  V30 4203 H 384.5 7.03285 -0.824353 0
M  V30 4204 H 384.908 5.64064 0.221892 0
M  V30 4205 N 384.306 0.507319 1.49211 0
M  V30 4206 C 385.536 -0.0315292 2.06576 0
M  V30 4207 C 385.944 -1.30791 1.36713 0
M  V30 4208 O 385.287 -1.78324 0.441181 0
M  V30 4209 C 385.349 -0.349104 3.57801 0
M  V30 4210 C 385.013 0.830475 4.49391 0
M  V30 4211 C 386.01 1.72271 4.90529 0
M  V30 4212 C 383.695 1.03107 4.91604 0
M  V30 4213 C 385.689 2.79964 5.72625 0
M  V30 4214 C 383.376 2.11116 5.73475 0
M  V30 4215 C 384.374 2.99379 6.1389 0
M  V30 4216 O 384.062 4.05523 6.94123 0
M  V30 4217 H 383.794 0.0201002 0.675701 0
M  V30 4218 H 386.348 0.705737 1.92895 0
M  V30 4219 H 384.578 -1.14005 3.69513 0
M  V30 4220 H 386.267 -0.827319 3.97379 0
M  V30 4221 H 387.033 1.57958 4.58557 0
M  V30 4222 H 382.912 0.353417 4.59643 0
M  V30 4223 H 386.456 3.48884 6.04091 0
M  V30 4224 H 382.353 2.25421 6.0486 0
M  V30 4225 H 383.121 4.02953 7.1244 0
M  V30 4226 N 385.784 -1.5574 0.241426 0
M  V30 4227 C 387.033 -1.97986 -0.385295 0
M  V30 4228 C 387.346 -1.13267 -1.59468 0
M  V30 4229 O 388.552 -1.45501 -2.2922 0
M  V30 4230 C 387.008 -3.52275 -0.736884 0
M  V30 4231 C 386.616 -4.45726 0.450796 0
M  V30 4232 C 388.36 -4.03189 -1.3281 0
M  V30 4233 C 386.267 -5.91352 0.0756662 0
M  V30 4234 H 385.197 -0.739386 -0.147731 0
M  V30 4235 H 387.848 -1.80308 0.340779 0
M  V30 4236 H 386.23 -3.65628 -1.52094 0
M  V30 4237 H 387.404 -4.44131 1.22819 0
M  V30 4238 H 385.719 -4.05264 0.956573 0
M  V30 4239 H 388.316 -5.09505 -1.62201 0
M  V30 4240 H 388.659 -3.50212 -2.25071 0
M  V30 4241 H 389.192 -3.93141 -0.607069 0
M  V30 4242 H 385.931 -6.48354 0.965272 0
M  V30 4243 H 385.451 -5.96095 -0.665635 0
M  V30 4244 H 387.13 -6.46084 -0.344075 0
M  V30 4245 N 387.262 0.0317525 -1.57568 0
M  V30 4246 C 388.673 0.578692 -1.77505 0
M  V30 4247 C 389.024 1.75749 -0.872164 0
M  V30 4248 O 388.149 2.16298 -0.0663106 0
M  V30 4249 C 388.744 1.05658 -3.21904 0
M  V30 4250 C 387.303 1.54906 -3.43047 0
M  V30 4251 C 386.45 0.485939 -2.73009 0
M  V30 4252 H 389.401 -0.194475 -1.57504 0
M  V30 4253 H 389.422 1.92404 -3.28269 0
M  V30 4254 H 388.934 0.198422 -3.87592 0
M  V30 4255 H 387.035 2.42915 -2.82529 0
M  V30 4256 H 387.148 1.59841 -4.5165 0
M  V30 4257 H 385.512 0.940354 -2.36705 0
M  V30 4258 H 386.295 -0.362709 -3.41379 0
M  V30 4259 N 388.74 1.54641 0.303973 0
M  V30 4260 C 389.965 1.78092 1.06292 0
M  V30 4261 C 390.39 0.537342 1.80262 0
M  V30 4262 O 389.748 -0.511993 1.7392 0
M  V30 4263 C 389.796 2.98612 2.02147 0
M  V30 4264 O 388.9 2.71528 3.10397 0
M  V30 4265 H 388.241 0.589548 0.305497 0
M  V30 4266 H 390.771 2.01716 0.3423 0
M  V30 4267 H 390.781 3.265 2.44667 0
M  V30 4268 H 389.456 3.88785 1.47714 0
M  V30 4269 H 388.033 2.54648 2.72413 0
M  V30 4270 N 390.218 -0.567019 1.47046 0
M  V30 4271 C 391.148 -1.68482 1.61667 0
M  V30 4272 C 392.129 -1.6358 0.466418 0
M  V30 4273 O 393.314 -1.81354 0.694574 0
M  V30 4274 C 390.444 -3.07124 1.62148 0
M  V30 4275 C 389.398 -3.26867 2.76301 0
M  V30 4276 C 388.724 -4.66196 2.61849 0
M  V30 4277 C 390.024 -3.13186 4.17986 0
M  V30 4278 H 391.718 -1.56502 2.5524 0
M  V30 4279 H 389.264 -0.751486 1.22836 0
M  V30 4280 H 391.217 -3.8516 1.70968 0
M  V30 4281 H 389.941 -3.2004 0.651287 0
M  V30 4282 H 388.6 -2.51237 2.66975 0
M  V30 4283 H 388.248 -4.75898 1.62879 0
M  V30 4284 H 387.948 -4.80356 3.38425 0
M  V30 4285 H 389.472 -5.46379 2.72584 0
M  V30 4286 H 390.886 -3.81049 4.2834 0
M  V30 4287 H 389.283 -3.3886 4.95272 0
M  V30 4288 H 390.353 -2.10057 4.3704 0
M  V30 4289 N 391.696 -1.35014 -0.812953 0
M  V30 4290 C 392.626 -1.30069 -1.93919 0
M  V30 4291 C 393.607 -0.176275 -1.69184 0
M  V30 4292 O 394.792 -0.370227 -1.90638 0
M  V30 4293 C 391.922 -1.06547 -3.30552 0
M  V30 4294 C 390.876 -2.15561 -3.69753 0
M  V30 4295 C 390.202 -1.77214 -5.04479 0
M  V30 4296 C 391.502 -3.57476 -3.808 0
M  V30 4297 H 393.196 -2.24303 -1.98314 0
M  V30 4298 H 390.742 -1.07977 -0.952736 0
M  V30 4299 H 392.695 -1.01729 -4.08937 0
M  V30 4300 H 391.419 -0.0875719 -3.26483 0
M  V30 4301 H 390.078 -2.19466 -2.9365 0
M  V30 4302 H 389.726 -0.780589 -4.96906 0
M  V30 4303 H 389.426 -2.50184 -5.31678 0
M  V30 4304 H 390.95 -1.7391 -5.8531 0
M  V30 4305 H 392.364 -3.55929 -4.4943 0
M  V30 4306 H 390.761 -4.29152 -4.19462 0
M  V30 4307 H 391.831 -3.94091 -2.82525 0
M  V30 4308 N 393.175 1.03435 -1.18907 0
M  V30 4309 C 394.424 1.76143 -0.982669 0
M  V30 4310 C 394.737 1.89416 0.487953 0
M  V30 4311 O 395.943 2.59041 0.813036 0
M  V30 4312 C 394.399 3.16722 -1.70924 0
M  V30 4313 C 394.007 3.11522 -3.21959 0
M  V30 4314 C 395.751 3.93764 -1.58588 0
M  V30 4315 C 393.658 4.46999 -3.87228 0
M  V30 4316 H 392.588 0.660292 -0.364047 0
M  V30 4317 H 395.239 1.158 -1.42347 0
M  V30 4318 H 393.621 3.775 -1.19623 0
M  V30 4319 H 394.795 2.60158 -3.80335 0
M  V30 4320 H 393.11 2.47978 -3.34508 0
M  V30 4321 H 395.707 4.93963 -2.04707 0
M  V30 4322 H 396.05 4.12794 -0.539142 0
M  V30 4323 H 396.583 3.39576 -2.07203 0
M  V30 4324 H 393.322 4.33174 -4.91976 0
M  V30 4325 H 392.842 4.98441 -3.33642 0
M  V30 4326 H 394.521 5.15898 -3.90459 0
M  V30 4327 N 394.653 0.992116 1.22453 0
M  V30 4328 C 395.899 0.668523 1.91464 0
M  V30 4329 C 396.232 -0.797313 1.77078 0
M  V30 4330 O 395.507 -1.5765 1.13916 0
M  V30 4331 C 395.79 1.07424 3.43703 0
M  V30 4332 C 395.643 2.59857 3.67143 0
M  V30 4333 C 396.962 0.626891 4.35612 0
M  V30 4334 H 394.081 0.244341 0.695318 0
M  V30 4335 H 396.723 1.2355 1.44345 0
M  V30 4336 H 394.873 0.591816 3.83966 0
M  V30 4337 H 396.545 3.15764 3.3629 0
M  V30 4338 H 394.788 3.01961 3.11451 0
M  V30 4339 H 395.459 2.83296 4.73759 0
M  V30 4340 H 397.935 1.04125 4.02861 0
M  V30 4341 H 396.811 0.939076 5.40807 0
M  V30 4342 H 397.072 -0.472457 4.39568 0
M  V30 4343 N 396.131 -1.37776 0.765217 0
M  V30 4344 C 397.38 -1.99092 0.323307 0
M  V30 4345 C 397.693 -1.61434 -1.10446 0
M  V30 4346 O 398.899 -2.15805 -1.64743 0
M  V30 4347 C 397.355 -3.56019 0.527098 0
M  V30 4348 C 396.963 -4.0262 1.96471 0
M  V30 4349 C 398.707 -4.2424 0.148483 0
M  V30 4350 C 396.614 -5.52233 2.11644 0
M  V30 4351 H 395.544 -0.744846 0.117137 0
M  V30 4352 H 398.195 -1.57391 0.943417 0
M  V30 4353 H 396.577 -3.95667 -0.162372 0
M  V30 4354 H 397.751 -3.74234 2.68859 0
M  V30 4355 H 396.066 -3.47161 2.29931 0
M  V30 4356 H 398.663 -5.34159 0.240456 0
M  V30 4357 H 399.006 -4.06446 -0.900422 0
M  V30 4358 H 399.539 -3.89872 0.79025 0
M  V30 4359 H 396.278 -5.74945 3.1483 0
M  V30 4360 H 395.798 -5.82324 1.4373 0
M  V30 4361 H 397.477 -6.18106 1.91193 0
M  V30 4362 N 397.609 -0.515225 -1.4894 0
M  V30 4363 C 398.539 0.244628 -2.32215 0
M  V30 4364 C 399.52 0.949136 -1.41157 0
M  V30 4365 O 400.705 0.937783 -1.70057 0
M  V30 4366 C 397.835 1.30096 -3.22013 0
M  V30 4367 C 396.789 0.715486 -4.21977 0
M  V30 4368 C 396.115 1.87339 -5.00808 0
M  V30 4369 C 397.415 -0.302982 -5.2142 0
M  V30 4370 H 399.109 -0.450501 -2.95991 0
M  V30 4371 H 396.655 -0.218098 -1.42339 0
M  V30 4372 H 398.608 1.84037 -3.79089 0
M  V30 4373 H 397.332 2.02547 -2.56207 0
M  V30 4374 H 395.991 0.197715 -3.66066 0
M  V30 4375 H 395.639 2.58592 -4.31438 0
M  V30 4376 H 395.339 1.48764 -5.68457 0
M  V30 4377 H 396.863 2.41686 -5.60732 0
M  V30 4378 H 398.277 0.148802 -5.73107 0
M  V30 4379 H 396.674 -0.60532 -5.97039 0
M  V30 4380 H 397.744 -1.21395 -4.69459 0
M  V30 4381 N 399.087 1.5561 -0.249682 0
M  V30 4382 C 400.312 2.03865 0.381305 0
M  V30 4383 C 400.737 1.12769 1.50548 0
M  V30 4384 O 400.095 0.121189 1.80895 0
M  V30 4385 C 400.143 3.50101 0.863816 0
M  V30 4386 O 399.247 3.62132 1.97318 0
M  V30 4387 H 398.588 0.658827 0.0827194 0
M  V30 4388 H 401.118 2.01105 -0.376552 0
M  V30 4389 H 401.128 3.90975 1.1663 0
M  V30 4390 H 399.803 4.1588 0.0411816 0
M  V30 4391 H 398.38 3.33155 1.67517 0
M  V30 4392 N 400.565 -0.0233959 1.57583 0
M  V30 4393 C 401.811 -0.708611 1.90657 0
M  V30 4394 C 402.166 -1.7266 0.848895 0
M  V30 4395 O 401.459 -1.91075 -0.141749 0
M  V30 4396 C 401.653 -1.41428 3.28227 0
M  V30 4397 C 401.482 -0.466155 4.47277 0
M  V30 4398 C 400.252 -0.085117 5.05228 0
M  V30 4399 C 402.45 0.257836 5.13653 0
M  V30 4400 N 400.432 0.863672 6.07794 0
M  V30 4401 C 401.803 1.06209 6.10835 0
M  V30 4402 C 403.858 0.324174 4.96844 0
M  V30 4403 C 402.561 1.9266 6.93018 0
M  V30 4404 C 404.587 1.17583 5.79593 0
M  V30 4405 C 403.949 1.96799 6.7635 0
M  V30 4406 H 400.048 -0.233222 0.746412 0
M  V30 4407 H 402.632 0.0314512 1.94675 0
M  V30 4408 H 400.803 -2.12477 3.25128 0
M  V30 4409 H 402.535 -2.05233 3.488 0
M  V30 4410 H 399.29 -0.448516 4.71471 0
M  V30 4411 H 399.714 1.33274 6.63752 0
M  V30 4412 H 404.356 -0.273975 4.21911 0
M  V30 4413 H 402.074 2.53552 7.67292 0
M  V30 4414 H 405.66 1.23076 5.68633 0
M  V30 4415 H 404.54 2.61635 7.39268 0
M  V30 4416 N 402.043 -1.548 -0.295768 0
M  V30 4417 C 403.289 -1.74588 -1.03184 0
M  V30 4418 C 403.622 -0.532962 -1.86744 0
M  V30 4419 O 402.897 0.469872 -1.88739 0
M  V30 4420 C 403.18 -3.03791 -1.93347 0
M  V30 4421 C 403.033 -4.35392 -1.12933 0
M  V30 4422 C 404.352 -3.28892 -2.92435 0
M  V30 4423 H 401.471 -0.635221 -0.373715 0
M  V30 4424 H 404.113 -1.87519 -0.30606 0
M  V30 4425 H 402.263 -2.92898 -2.55232 0
M  V30 4426 H 403.935 -4.58211 -0.532943 0
M  V30 4427 H 402.178 -4.31642 -0.432168 0
M  V30 4428 H 402.849 -5.22074 -1.79284 0
M  V30 4429 H 405.325 -3.39429 -2.4068 0
M  V30 4430 H 404.201 -4.20603 -3.52682 0
M  V30 4431 H 404.462 -2.47437 -3.6637 0
M  V30 4432 N 403.521 0.559213 -1.47345 0
M  V30 4433 C 404.746 1.34676 -1.57725 0
M  V30 4434 C 405.171 1.86723 -0.227164 0
M  V30 4435 O 404.529 1.6286 0.796642 0
M  V30 4436 C 404.577 2.49399 -2.60447 0
M  V30 4437 O 403.681 3.51567 -2.15578 0
M  V30 4438 H 403.022 0.400115 -0.52991 0
M  V30 4439 H 405.552 0.676009 -1.93109 0
M  V30 4440 H 405.562 2.95996 -2.80803 0
M  V30 4441 H 404.237 2.10873 -3.58477 0
M  V30 4442 H 402.814 3.11289 -2.05313 0
M  V30 4443 N 404.999 1.35443 0.805782 0
M  V30 4444 C 406.246 1.28761 1.56291 0
M  V30 4445 C 406.574 -0.137747 1.94012 0
M  V30 4446 O 405.829 -1.1032 1.61642 0
M  V30 4447 C 406.128 2.14045 2.86216 0
M  V30 4448 C 405.794 3.62826 2.67709 0
M  V30 4449 C 404.456 4.0338 2.6237 0
M  V30 4450 C 406.808 4.57227 2.50186 0
M  V30 4451 C 404.136 5.36501 2.37451 0
M  V30 4452 C 406.488 5.90547 2.26797 0
M  V30 4453 C 405.152 6.30245 2.1988 0
M  V30 4454 H 404.422 0.471171 0.571908 0
M  V30 4455 H 407.069 1.67347 0.930974 0
M  V30 4456 H 405.374 1.68342 3.53791 0
M  V30 4457 H 407.071 2.0621 3.43917 0
M  V30 4458 H 403.661 3.30644 2.72713 0
M  V30 4459 H 407.845 4.2678 2.53323 0
M  V30 4460 H 403.101 5.66259 2.30567 0
M  V30 4461 H 407.275 6.63274 2.12228 0
M  V30 4462 H 404.902 7.33328 2.00333 0
M  V30 4463 N 406.477 -1.02803 1.19454 0
M  V30 4464 C 407.723 -1.76598 1.0092 0
M  V30 4465 C 408.078 -1.86939 -0.455142 0
M  V30 4466 O 407.371 -1.37575 -1.33355 0
M  V30 4467 C 407.565 -3.18941 1.6128 0
M  V30 4468 C 407.394 -3.22476 3.13431 0
M  V30 4469 C 406.164 -3.30375 3.82336 0
M  V30 4470 C 408.362 -3.09451 4.10785 0
M  V30 4471 N 406.344 -3.23292 5.21877 0
M  V30 4472 C 407.715 -3.10012 5.36929 0
M  V30 4473 C 409.77 -2.93585 4.02135 0
M  V30 4474 C 408.473 -2.96334 6.55423 0
M  V30 4475 C 410.499 -2.81256 5.20239 0
M  V30 4476 C 409.861 -2.82472 6.45282 0
M  V30 4477 H 405.96 -0.657447 0.423424 0
M  V30 4478 H 408.544 -1.22369 1.5144 0
M  V30 4479 H 406.715 -3.71489 1.1336 0
M  V30 4480 H 408.447 -3.81102 1.36173 0
M  V30 4481 H 405.202 -3.3663 3.33132 0
M  V30 4482 H 405.626 -3.23156 5.94894 0
M  V30 4483 H 410.268 -2.91466 3.0628 0
M  V30 4484 H 407.986 -2.97203 7.51463 0
M  V30 4485 H 411.572 -2.70014 5.15348 0
M  V30 4486 H 410.452 -2.73036 7.35133 0
M  V30 4487 N 407.956 -0.998596 -1.21925 0
M  V30 4488 C 409.205 -0.673085 -1.90138 0
M  V30 4489 C 409.518 0.79895 -1.78539 0
M  V30 4490 O 410.724 1.23628 -2.4172 0
M  V30 4491 C 409.18 -1.15339 -3.40918 0
M  V30 4492 C 408.788 -2.65106 -3.61141 0
M  V30 4493 C 410.532 -0.902476 -4.14796 0
M  V30 4494 C 408.439 -3.0671 -5.05651 0
M  V30 4495 H 407.369 -0.248057 -0.712028 0
M  V30 4496 H 410.02 -1.20891 -1.38049 0
M  V30 4497 H 408.402 -0.545658 -3.92223 0
M  V30 4498 H 409.576 -3.31274 -3.20304 0
M  V30 4499 H 407.891 -2.88142 -3.00605 0
M  V30 4500 H 410.488 -1.18895 -5.21314 0
M  V30 4501 H 410.831 0.161349 -4.15987 0
M  V30 4502 H 411.364 -1.47269 -3.69536 0
M  V30 4503 H 408.103 -4.12292 -5.09603 0
M  V30 4504 H 407.623 -2.45249 -5.47369 0
M  V30 4505 H 409.302 -2.9833 -5.74115 0
M  V30 4506 N 409.434 1.37368 -0.772513 0
M  V30 4507 C 410.382 2.32134 -0.147111 0
M  V30 4508 C 411.376 1.54972 0.684106 0
M  V30 4509 O 412.582 1.70363 0.581083 0
M  V30 4510 H 408.957 0.751449 -0.028786 0
M  V30 4511 H 410.928 2.82464 -0.962112 0
M  V30 4512 C 409.677 3.40226 0.71703 0
M  V30 4513 H 409 3.99706 0.0867951 0
M  V30 4514 H 410.44 4.08897 1.12159 0
M  V30 4515 C 408.899 2.80372 1.86797 0
M  V30 4516 O 409.429 2.71183 2.96349 0
M  V30 4517 N 407.635 2.37904 1.66883 0
M  V30 4518 H 407.182 2.45578 0.777759 0
M  V30 4519 H 407.14 1.98202 2.44056 0
M  V30 4520 N 410.912 0.523116 1.48665 0
M  V30 4521 C 411.845 -0.290518 2.26343 0
M  V30 4522 C 412.823 -0.950913 1.31895 0
M  V30 4523 O 414.007 -0.976662 1.61225 0
M  V30 4524 C 411.134 -1.41088 3.07915 0
M  V30 4525 C 410.18 -0.862597 4.17686 0
M  V30 4526 S 411.013 0.264135 5.34848 0
M  V30 4527 C 412.169 -0.858864 6.19979 0
M  V30 4528 H 412.402 0.368726 2.95005 0
M  V30 4529 H 409.935 0.30878 1.51281 0
M  V30 4530 H 411.893 -2.0527 3.55492 0
M  V30 4531 H 410.554 -2.04182 2.38681 0
M  V30 4532 H 409.747 -1.70287 4.74361 0
M  V30 4533 H 409.349 -0.297595 3.72814 0
M  V30 4534 H 411.641 -1.7591 6.54264 0
M  V30 4535 H 412.584 -0.330244 7.07329 0
M  V30 4536 H 412.992 -1.13617 5.52948 0
M  V30 4537 N 412.39 -1.55475 0.257931 0
M  V30 4538 C 413.667 -1.91155 -0.414629 0
M  V30 4539 C 414.047 -1.18008 -1.75035 0
M  V30 4540 O 413.395 -0.301193 -2.26506 0
M  V30 4541 C 413.605 -3.44283 -0.571859 0
M  V30 4542 C 414.953 -4.15744 -0.862678 0
M  V30 4543 O 415.977 -3.50083 -0.657314 0
M  V30 4544 O 414.836 -5.31909 -1.2544 0
M  V30 4545 H 411.93 -0.796016 -0.22425 0
M  V30 4546 H 414.476 -1.66976 0.302814 0
M  V30 4547 H 413.248 -3.89558 0.368844 0
M  V30 4548 H 412.871 -3.7436 -1.33943 0
M  V30 4549 N 413.868 0.0150385 -1.57593 0
M  V30 4550 C 414.831 0.995996 -2.06428 0
M  V30 4551 C 415.831 1.2818 -0.970903 0
M  V30 4552 O 417.021 1.22949 -1.23406 0
M  V30 4553 C 414.153 2.32506 -2.49307 0
M  V30 4554 H 415.346 0.573873 -2.94358 0
M  V30 4555 H 412.899 0.262186 -1.54085 0
M  V30 4556 H 413.634 2.79438 -1.64575 0
M  V30 4557 H 413.419 2.13087 -3.29145 0
M  V30 4558 H 414.909 3.02906 -2.87468 0
M  V30 4559 N 415.346 1.54954 0.287554 0
M  V30 4560 C 416.309 1.86076 1.33823 0
M  V30 4561 C 417.309 0.734414 1.43049 0
M  V30 4562 O 418.499 1.00266 1.42452 0
M  V30 4563 C 415.631 2.05305 2.72144 0
M  V30 4564 H 416.824 2.79984 1.07465 0
M  V30 4565 H 414.377 1.47223 0.524902 0
M  V30 4566 H 415.112 1.1373 3.03704 0
M  V30 4567 H 414.897 2.873 2.66836 0
M  V30 4568 H 416.387 2.30706 3.48087 0
M  V30 4569 N 416.824 -0.551391 1.4764 0
M  V30 4570 C 418.235 -1.13349 1.48354 0
M  V30 4571 C 418.586 -1.94709 0.241432 0
M  V30 4572 O 417.711 -2.06306 -0.653205 0
M  V30 4573 C 418.306 -2.0623 2.68802 0
M  V30 4574 C 416.865 -2.597 2.72457 0
M  V30 4575 C 416.012 -1.36201 2.41546 0
M  V30 4576 H 418.963 -0.337698 1.55065 0
M  V30 4577 H 418.984 -2.90196 2.46103 0
M  V30 4578 H 418.496 -1.46987 3.59188 0
M  V30 4579 H 416.597 -3.22724 1.86225 0
M  V30 4580 H 416.71 -3.00296 3.73308 0
M  V30 4581 H 415.074 -1.67068 1.9225 0
M  V30 4582 H 415.857 -0.787425 3.34147 0
M  V30 4583 N 418.302 -1.35869 -0.798587 0
M  V30 4584 C 419.265 -1.29307 -1.89242 0
M  V30 4585 C 420.265 -0.202747 -1.59517 0
M  V30 4586 O 421.455 -0.456957 -1.681 0
M  V30 4587 C 418.587 -1.00229 -3.25833 0
M  V30 4588 H 419.78 -2.26576 -1.96478 0
M  V30 4589 H 417.333 -1.20509 -0.995358 0
M  V30 4590 H 418.068 -0.033801 -3.24282 0
M  V30 4591 H 417.853 -1.79121 -3.48795 0
M  V30 4592 H 419.343 -0.98219 -4.05885 0
M  V30 4593 N 419.78 1.02168 -1.19998 0
M  V30 4594 C 421.196 1.27969 -0.953737 0
M  V30 4595 C 421.396 1.98079 0.369703 0
M  V30 4596 O 420.452 2.27306 1.09947 0
M  V30 4597 C 421.765 2.11971 -2.13281 0
M  V30 4598 C 423.313 2.25255 -2.17323 0
M  V30 4599 C 423.788 3.12632 -3.34702 0
M  V30 4600 N 425.279 3.2022 -3.34684 0
M  V30 4601 C 426.014 3.88039 -4.22153 0
M  V30 4602 N 425.51 4.58027 -5.19791 0
M  V30 4603 N 427.303 3.84511 -4.10009 0
M  V30 4604 H 419.454 0.550794 -2.05134 0
M  V30 4605 H 421.717 0.305683 -0.897364 0
M  V30 4606 H 421.423 1.67785 -3.09097 0
M  V30 4607 H 421.297 3.12699 -2.10949 0
M  V30 4608 H 423.684 2.68667 -1.22073 0
M  V30 4609 H 423.765 1.24053 -2.23706 0
M  V30 4610 H 423.409 2.69926 -4.30235 0
M  V30 4611 H 423.339 4.13909 -3.25556 0
M  V30 4612 H 425.83 2.70382 -2.64012 0
M  V30 4613 H 426.143 5.07429 -5.82868 0
M  V30 4614 H 424.488 4.56869 -5.23733 0
M  V30 4615 H 427.679 3.28978 -3.33003 0
M  V30 4616 H 427.852 4.3709 -4.78389 0
M  V30 4617 N 421.258 1.00505 1.21394 0
M  V30 4618 C 422.504 0.688793 1.90745 0
M  V30 4619 C 422.837 -0.778486 1.77914 0
M  V30 4620 O 422.112 -1.56433 1.15581 0
M  V30 4621 C 422.395 1.11063 3.42545 0
M  V30 4622 C 422.248 2.63737 3.64367 0
M  V30 4623 C 423.567 0.673059 4.34923 0
M  V30 4624 H 420.686 0.251702 0.692687 0
M  V30 4625 H 423.328 1.25074 1.43026 0
M  V30 4626 H 421.478 0.632508 3.83317 0
M  V30 4627 H 423.15 3.19313 3.32922 0
M  V30 4628 H 421.393 3.05248 3.08231 0
M  V30 4629 H 422.064 2.88305 4.70727 0
M  V30 4630 H 424.54 1.08392 4.01734 0
M  V30 4631 H 423.416 0.996383 5.39781 0
M  V30 4632 H 423.677 -0.425808 4.40045 0
M  V30 4633 N 422.737 -1.36956 0.779787 0
M  V30 4634 C 423.7 -2.2851 0.177662 0
M  V30 4635 C 424.7 -1.48393 -0.619377 0
M  V30 4636 O 425.89 -1.68505 -0.441785 0
M  V30 4637 C 423.022 -3.32428 -0.755279 0
M  V30 4638 H 424.215 -2.83269 0.984823 0
M  V30 4639 H 421.768 -1.46358 0.548544 0
M  V30 4640 H 422.503 -2.82808 -1.58714 0
M  V30 4641 H 422.288 -3.91659 -0.185817 0
M  V30 4642 H 423.778 -4.00824 -1.17174 0
M  V30 4643 N 424.215 -0.530993 -1.48385 0
M  V30 4644 C 425.145 0.219985 -2.32461 0
M  V30 4645 C 426.126 0.934111 -1.42156 0
M  V30 4646 O 427.311 0.919694 -1.71042 0
M  V30 4647 C 424.441 1.26674 -3.23375 0
M  V30 4648 C 423.395 0.67069 -4.22712 0
M  V30 4649 C 422.721 1.82017 -5.02766 0
M  V30 4650 C 424.021 -0.358268 -5.2107 0
M  V30 4651 H 425.715 -0.48187 -2.95497 0
M  V30 4652 H 423.261 -0.233182 -1.42099 0
M  V30 4653 H 425.214 1.80006 -3.81019 0
M  V30 4654 H 423.938 1.99818 -2.58341 0
M  V30 4655 H 422.597 0.158878 -3.66256 0
M  V30 4656 H 422.245 2.54002 -4.34157 0
M  V30 4657 H 421.945 1.42727 -5.70003 0
M  V30 4658 H 423.469 2.35725 -5.63264 0
M  V30 4659 H 424.883 0.0880081 -5.73232 0
M  V30 4660 H 423.28 -0.66861 -5.96364 0
M  V30 4661 H 424.35 -1.26367 -4.68145 0
M  V30 4662 N 425.693 1.55336 -0.266172 0
M  V30 4663 C 426.941 1.99003 0.35246 0
M  V30 4664 C 427.262 1.15591 1.57047 0
M  V30 4665 O 426.532 0.243268 1.94384 0
M  V30 4666 H 425.112 0.735025 0.133217 0
M  V30 4667 H 427.774 1.91367 -0.369434 0
M  V30 4668 H 426.87 3.05289 0.648453 0
M  V30 4669 N 427.171 -0.0066808 1.57599 0
M  V30 4670 C 428.42 -0.692078 1.89455 0
M  V30 4671 C 428.733 -1.75306 0.867586 0
M  V30 4672 O 429.939 -2.49262 1.07614 0
M  V30 4673 C 428.395 -1.2821 3.36289 0
M  V30 4674 C 428.003 -0.256291 4.47266 0
M  V30 4675 C 429.747 -1.94608 3.77264 0
M  V30 4676 C 427.654 -0.855927 5.85173 0
M  V30 4677 H 426.584 -0.262252 0.706923 0
M  V30 4678 H 429.235 0.052769 1.83424 0
M  V30 4679 H 427.617 -2.0774 3.37135 0
M  V30 4680 H 428.791 0.513923 4.57925 0
M  V30 4681 H 427.106 0.306862 4.15268 0
M  V30 4682 H 429.703 -2.40364 4.77629 0
M  V30 4683 H 430.046 -2.77382 3.10427 0
M  V30 4684 H 430.579 -1.21822 3.78688 0
M  V30 4685 H 427.318 -0.0671161 6.55466 0
M  V30 4686 H 426.838 -1.59546 5.78191 0
M  V30 4687 H 428.517 -1.35658 6.32618 0
M  V30 4688 N 428.649 -1.55105 -0.279332 0
M  V30 4689 C 429.877 -1.7943 -1.03017 0
M  V30 4690 C 430.292 -0.564456 -1.80165 0
M  V30 4691 O 429.649 0.466326 -1.76442 0
M  V30 4692 C 429.7 -3.0155 -1.99374 0
M  V30 4693 O 429.421 -4.19784 -1.25352 0
M  V30 4694 C 430.922 -3.3843 -2.86321 0
M  V30 4695 H 428.142 -0.597882 -0.304594 0
M  V30 4696 H 430.686 -2.02105 -0.312035 0
M  V30 4697 H 428.841 -2.81019 -2.66659 0
M  V30 4698 H 429.255 -4.88781 -1.90246 0
M  V30 4699 H 430.729 -4.27066 -3.49741 0
M  V30 4700 H 431.206 -2.57549 -3.5576 0
M  V30 4701 H 431.812 -3.61197 -2.24536 0
M  V30 4702 N 430.127 0.543554 -1.4793 0
M  V30 4703 C 431.355 1.32516 -1.58894 0
M  V30 4704 C 431.77 1.87215 -0.244131 0
M  V30 4705 O 431.127 1.65709 0.764652 0
M  V30 4706 C 431.178 2.48554 -2.62494 0
M  V30 4707 O 430.899 1.96112 -3.91755 0
M  V30 4708 C 432.4 3.40572 -2.8377 0
M  V30 4709 H 429.62 0.403472 -0.536145 0
M  V30 4710 H 432.164 0.657106 -1.93655 0
M  V30 4711 H 430.319 3.1127 -2.30629 0
M  V30 4712 H 430.733 2.71967 -4.4848 0
M  V30 4713 H 432.207 4.18375 -3.60093 0
M  V30 4714 H 432.684 3.94965 -1.92092 0
M  V30 4715 H 433.29 2.8366 -3.16887 0
M  V30 4716 N 431.605 1.3629 0.791371 0
M  V30 4717 C 432.851 1.30605 1.55146 0
M  V30 4718 C 433.184 -0.115042 1.93859 0
M  V30 4719 O 432.459 -1.06798 1.62556 0
M  V30 4720 C 432.742 2.22692 2.82985 0
M  V30 4721 C 432.595 3.73489 2.50651 0
M  V30 4722 C 433.914 2.13588 3.84796 0
M  V30 4723 H 431.033 0.475761 0.562868 0
M  V30 4724 H 433.675 1.66825 0.909358 0
M  V30 4725 H 431.825 1.91933 3.37778 0
M  V30 4726 H 433.497 4.14758 2.01924 0
M  V30 4727 H 431.74 3.93021 1.83622 0
M  V30 4728 H 432.411 4.3333 3.41949 0
M  V30 4729 H 434.887 2.40659 3.39445 0
M  V30 4730 H 433.763 2.80195 4.71998 0
M  V30 4731 H 434.024 1.12256 4.27611 0
M  V30 4732 N 433.083 -1.0153 1.20538 0
M  V30 4733 C 434.013 -2.11972 0.979295 0
M  V30 4734 C 434.994 -1.6985 -0.0921787 0
M  V30 4735 O 436.179 -1.94089 0.0655932 0
M  V30 4736 C 433.309 -3.43201 0.531984 0
M  V30 4737 C 432.263 -3.9907 1.54685 0
M  V30 4738 C 431.589 -5.26082 0.956127 0
M  V30 4739 C 432.889 -4.32313 2.93092 0
M  V30 4740 H 434.583 -2.31143 1.90298 0
M  V30 4741 H 432.129 -1.11079 0.916372 0
M  V30 4742 H 434.082 -4.1985 0.361044 0
M  V30 4743 H 432.806 -3.23792 -0.427327 0
M  V30 4744 H 431.465 -3.2453 1.70517 0
M  V30 4745 H 431.113 -5.02999 -0.0111538 0
M  V30 4746 H 430.813 -5.64426 1.63393 0
M  V30 4747 H 432.337 -6.05386 0.796284 0
M  V30 4748 H 433.751 -4.99845 2.80763 0
M  V30 4749 H 432.148 -4.81774 3.57791 0
M  V30 4750 H 433.218 -3.41025 3.44717 0
M  V30 4751 N 434.561 -1.01147 -1.20859 0
M  V30 4752 C 435.789 -0.716911 -1.94082 0
M  V30 4753 C 436.204 0.721568 -1.74467 0
M  V30 4754 O 435.561 1.48889 -1.05539 0
M  V30 4755 C 435.612 -1.03662 -3.46318 0
M  V30 4756 O 435.333 -2.4186 -3.65288 0
M  V30 4757 C 436.834 -0.762386 -4.36695 0
M  V30 4758 H 434.054 -0.26367 -0.617024 0
M  V30 4759 H 436.598 -1.35127 -1.53496 0
M  V30 4760 H 434.753 -0.447757 -3.84804 0
M  V30 4761 H 435.167 -2.53224 -4.59323 0
M  V30 4762 H 436.641 -1.03621 -5.42187 0
M  V30 4763 H 437.118 0.303514 -4.3815 0
M  V30 4764 H 437.724 -1.33316 -4.03865 0
M  V30 4765 N 436.039 1.36541 -0.78704 0
M  V30 4766 C 436.972 2.27831 -0.129765 0
M  V30 4767 C 437.95 1.47105 0.692732 0
M  V30 4768 O 439.134 1.7641 0.664222 0
M  V30 4769 C 436.261 3.28577 0.821883 0
M  V30 4770 C 435.307 4.26422 0.0814771 0
M  V30 4771 S 436.14 5.20919 -1.24112 0
M  V30 4772 C 437.296 6.25212 -0.293409 0
M  V30 4773 H 437.529 2.83229 -0.903811 0
M  V30 4774 H 435.062 1.43046 -0.581144 0
M  V30 4775 H 437.02 3.87123 1.3655 0
M  V30 4776 H 435.681 2.72096 1.56916 0
M  V30 4777 H 434.874 4.97554 0.803485 0
M  V30 4778 H 434.476 3.71944 -0.391589 0
M  V30 4779 H 436.768 6.75435 0.528622 0
M  V30 4780 H 437.711 7.01378 -0.973344 0
M  V30 4781 H 438.119 5.64407 0.102196 0
M  V30 4782 N 437.518 0.538854 1.48102 0
M  V30 4783 C 438.746 0.0123136 2.06896 0
M  V30 4784 C 439.161 -1.27312 1.39417 0
M  V30 4785 O 438.518 -1.75949 0.484582 0
M  V30 4786 C 438.569 -0.206118 3.60912 0
M  V30 4787 O 438.29 1.0284 4.25859 0
M  V30 4788 C 439.791 -0.772033 4.36526 0
M  V30 4789 H 437.011 0.0375239 0.66995 0
M  V30 4790 H 439.555 0.747032 1.90367 0
M  V30 4791 H 437.71 -0.89091 3.77017 0
M  V30 4792 H 438.124 0.814654 5.18135 0
M  V30 4793 H 439.598 -0.874251 5.45033 0
M  V30 4794 H 440.075 -1.77904 4.01555 0
M  V30 4795 H 440.681 -0.123526 4.25121 0
M  V30 4796 N 438.996 -1.55193 0.274407 0
M  V30 4797 C 440.224 -2.03987 -0.345943 0
M  V30 4798 C 440.639 -1.15279 -1.4952 0
M  V30 4799 O 439.996 -0.172759 -1.8168 0
M  V30 4800 C 440.047 -3.51898 -0.827631 0
M  V30 4801 O 439.768 -4.37231 0.275855 0
M  V30 4802 C 441.269 -4.16577 -1.51587 0
M  V30 4803 H 438.489 -0.666335 -0.0789892 0
M  V30 4804 H 441.033 -2.00423 0.406294 0
M  V30 4805 H 439.188 -3.55909 -1.52996 0
M  V30 4806 H 439.602 -5.24415 -0.0943638 0
M  V30 4807 H 441.076 -5.21678 -1.80433 0
M  V30 4808 H 441.553 -3.64707 -2.44716 0
M  V30 4809 H 442.159 -4.16568 -0.857409 0
M  V30 4810 N 440.474 -0.00167713 -1.576 0
M  V30 4811 C 441.406 1.0174 -2.05382 0
M  V30 4812 C 442.419 1.30595 -0.972052 0
M  V30 4813 O 443.608 1.27542 -1.24882 0
M  V30 4814 C 440.708 2.35174 -2.44022 0
M  V30 4815 C 439.881 2.25234 -3.74951 0
M  V30 4816 C 438.94 3.4137 -4.00441 0
M  V30 4817 O 437.966 3.19483 -4.71083 0
M  V30 4818 N 439.168 4.64275 -3.48467 0
M  V30 4819 H 441.933 0.609902 -2.93428 0
M  V30 4820 H 439.494 0.185672 -1.60832 0
M  V30 4821 H 441.486 3.11643 -2.58187 0
M  V30 4822 H 440.056 2.67659 -1.61485 0
M  V30 4823 H 439.276 1.33664 -3.70847 0
M  V30 4824 H 440.564 2.15767 -4.60784 0
M  V30 4825 H 439.962 4.84955 -2.91264 0
M  V30 4826 H 438.519 5.38005 -3.67959 0
M  V30 4827 N 441.952 1.55251 0.271103 0
M  V30 4828 C 443.177 1.80306 1.02491 0
M  V30 4829 C 443.602 0.575457 1.79081 0
M  V30 4830 O 442.96 -0.474987 1.74967 0
M  V30 4831 C 443.008 3.02832 1.95768 0
M  V30 4832 O 442.112 2.78051 3.04568 0
M  V30 4833 H 441.453 0.595896 0.292923 0
M  V30 4834 H 443.983 2.02397 0.299436 0
M  V30 4835 H 443.993 3.31616 2.37686 0
M  V30 4836 H 442.668 3.9183 1.39434 0
M  V30 4837 H 441.245 2.60369 2.66951 0
M  V30 4838 N 443.43 -0.535701 1.48216 0
M  V30 4839 C 444.655 -1.32149 1.59848 0
M  V30 4840 C 445.08 -1.86338 0.256842 0
M  V30 4841 O 444.438 -1.64107 -0.770632 0
M  V30 4842 C 444.486 -2.45224 2.64381 0
M  V30 4843 O 443.59 -3.48093 2.21144 0
M  V30 4844 H 442.931 -0.391634 0.536208 0
M  V30 4845 H 445.461 -0.645202 1.94161 0
M  V30 4846 H 445.471 -2.91491 2.85476 0
M  V30 4847 H 444.146 -2.05143 3.61786 0
M  V30 4848 H 442.723 -3.07984 2.10239 0
M  V30 4849 N 444.908 -1.36708 -0.784132 0
M  V30 4850 C 446.156 -1.30972 -1.53918 0
M  V30 4851 C 446.477 0.109086 -1.94695 0
M  V30 4852 O 445.747 1.05048 -1.65353 0
M  V30 4853 H 444.327 -0.481819 -0.570841 0
M  V30 4854 H 446.989 -1.71063 -0.934002 0
M  V30 4855 H 446.085 -1.94061 -2.44431 0
M  V30 4856 N 446.386 1.0089 -1.21074 0
M  V30 4857 C 447.611 1.78727 -1.05221 0
M  V30 4858 C 448.036 1.83932 0.393795 0
M  V30 4859 O 447.394 1.28004 1.28393 0
M  V30 4860 C 447.442 3.20665 -1.64944 0
M  V30 4861 O 446.546 4.02632 -0.892273 0
M  V30 4862 H 445.887 0.550973 -0.370574 0
M  V30 4863 H 448.417 1.26847 -1.60534 0
M  V30 4864 H 448.427 3.71352 -1.69002 0
M  V30 4865 H 447.102 3.16191 -2.70177 0
M  V30 4866 H 445.679 3.61207 -0.926492 0
M  V30 4867 N 447.864 1.01787 1.20321 0
M  V30 4868 C 449.28 0.732951 1.41774 0
M  V30 4869 C 449.48 -0.686883 1.89431 0
M  V30 4870 O 448.536 -1.45446 2.06402 0
M  V30 4871 C 449.849 1.75973 2.43832 0
M  V30 4872 C 451.397 1.77802 2.57596 0
M  V30 4873 C 451.872 2.7941 3.62897 0
M  V30 4874 N 453.363 2.78157 3.70382 0
M  V30 4875 C 454.098 3.53434 4.51521 0
M  V30 4876 N 453.594 4.38392 5.36455 0
M  V30 4877 N 455.387 3.42026 4.46066 0
M  V30 4878 H 447.538 1.93447 0.877035 0
M  V30 4879 H 449.801 0.835712 0.447536 0
M  V30 4880 H 449.507 2.77699 2.15815 0
M  V30 4881 H 449.381 1.57292 3.4284 0
M  V30 4882 H 451.768 0.767602 2.84942 0
M  V30 4883 H 451.849 2.00557 1.58779 0
M  V30 4884 H 451.493 3.80616 3.36295 0
M  V30 4885 H 451.423 2.53916 4.61339 0
M  V30 4886 H 453.914 2.16531 3.09714 0
M  V30 4887 H 454.227 4.92596 5.95457 0
M  V30 4888 H 452.572 4.4247 5.35953 0
M  V30 4889 H 455.763 2.75075 3.78749 0
M  V30 4890 H 455.936 4.00946 5.09064 0
M  V30 4891 N 449.342 -1.36122 0.79427 0
M  V30 4892 C 450.305 -2.28309 0.201889 0
M  V30 4893 C 451.305 -1.49041 -0.603603 0
M  V30 4894 O 452.495 -1.68964 -0.423888 0
M  V30 4895 C 449.627 -3.3321 -0.719978 0
M  V30 4896 H 450.82 -2.82208 1.01481 0
M  V30 4897 H 448.373 -1.45768 0.564037 0
M  V30 4898 H 449.108 -2.84475 -1.55706 0
M  V30 4899 H 448.893 -3.91835 -0.144266 0
M  V30 4900 H 450.383 -4.02044 -1.12916 0
M  V30 4901 N 450.82 -0.546701 -1.47814 0
M  V30 4902 C 452.045 -0.021268 -2.07389 0
M  V30 4903 C 452.47 1.25822 -1.39822 0
M  V30 4904 O 451.828 1.75111 -0.46968 0
M  V30 4905 C 451.876 0.168502 -3.60206 0
M  V30 4906 O 450.98 1.23347 -3.93522 0
M  V30 4907 H 450.321 -0.0466108 -0.662362 0
M  V30 4908 H 452.851 -0.759387 -1.89985 0
M  V30 4909 H 452.861 0.385982 -4.0617 0
M  V30 4910 H 451.536 -0.766075 -4.08784 0
M  V30 4911 H 450.113 0.997319 -3.59316 0
M  V30 4912 N 452.299 1.55045 -0.282633 0
M  V30 4913 C 453.229 2.2579 0.595066 0
M  V30 4914 C 454.21 1.25074 1.15284 0
M  V30 4915 O 455.395 1.5381 1.18559 0
M  V30 4916 C 452.525 2.98472 1.77572 0
M  V30 4917 C 451.479 4.0618 1.34914 0
M  V30 4918 C 450.805 4.66477 2.6135 0
M  V30 4919 C 452.105 5.1996 0.493821 0
M  V30 4920 H 453.799 2.994 0.00505653 0
M  V30 4921 H 451.345 1.44 0.000992001 0
M  V30 4922 H 453.298 3.46677 2.39568 0
M  V30 4923 H 452.022 2.2241 2.39168 0
M  V30 4924 H 450.681 3.58797 0.752338 0
M  V30 4925 H 450.329 3.87074 3.2122 0
M  V30 4926 H 450.029 5.39207 2.33516 0
M  V30 4927 H 451.553 5.17435 3.24181 0
M  V30 4928 H 452.967 5.64172 1.01898 0
M  V30 4929 H 451.364 5.99299 0.310047 0
M  V30 4930 H 452.434 4.82462 -0.485593 0
M  V30 4931 N 453.777 0.010035 1.57597 0
M  V30 4932 C 455.188 -0.531426 1.78977 0
M  V30 4933 C 455.539 -1.73375 0.918454 0
M  V30 4934 O 454.664 -2.16047 0.123635 0
M  V30 4935 C 455.259 -0.97086 3.24592 0
M  V30 4936 C 453.818 -1.45756 3.47033 0
M  V30 4937 C 452.965 -0.413384 2.74201 0
M  V30 4938 H 455.916 0.236166 1.56933 0
M  V30 4939 H 455.937 -1.83633 3.33255 0
M  V30 4940 H 455.449 -0.0955893 3.87982 0
M  V30 4941 H 453.55 -2.35339 2.88871 0
M  V30 4942 H 453.663 -1.4781 4.55729 0
M  V30 4943 H 452.027 -0.877266 2.39115 0
M  V30 4944 H 452.81 0.453092 3.40297 0
M  V30 4945 N 455.255 -1.55392 -0.262866 0
M  V30 4946 C 456.202 -1.88966 -1.32516 0
M  V30 4947 C 457.172 -0.742187 -1.48596 0
M  V30 4948 O 458.357 -0.99439 -1.62839 0
M  V30 4949 C 455.497 -2.17592 -2.67858 0
M  V30 4950 C 454.61 -3.45061 -2.59917 0
M  V30 4951 C 453.745 -3.63336 -3.87505 0
M  V30 4952 C 452.784 -4.84462 -3.74116 0
M  V30 4953 N 451.921 -4.99342 -4.93561 0
M  V30 4954 H 456.761 -2.79566 -1.03184 0
M  V30 4955 H 454.298 -1.38404 -0.498285 0
M  V30 4956 H 456.256 -2.3219 -3.46617 0
M  V30 4957 H 454.886 -1.30215 -2.95371 0
M  V30 4958 H 453.938 -3.38881 -1.72812 0
M  V30 4959 H 455.25 -4.3396 -2.45926 0
M  V30 4960 H 454.404 -3.77807 -4.74707 0
M  V30 4961 H 453.143 -2.72641 -4.04374 0
M  V30 4962 H 452.148 -4.69985 -2.85297 0
M  V30 4963 H 453.373 -5.76603 -3.58757 0
M  V30 4964 H 451.319 -4.1158 -5.10821 0
M  V30 4965 H 451.236 -5.82303 -4.82141 0
M  V30 4966 H 452.504 -5.18208 -5.82306 0
M  V30 4967 N 456.733 0.527833 -1.48498 0
M  V30 4968 C 457.979 1.28545 -1.56857 0
M  V30 4969 C 458.312 1.92678 -0.242651 0
M  V30 4970 O 457.587 1.79394 0.751545 0
M  V30 4971 C 457.87 2.37314 -2.70839 0
M  V30 4972 C 457.723 1.77858 -4.13142 0
M  V30 4973 C 459.042 3.39068 -2.80573 0
M  V30 4974 H 456.161 0.466006 -0.570971 0
M  V30 4975 H 458.803 0.587784 -1.8068 0
M  V30 4976 H 456.953 2.96821 -2.50658 0
M  V30 4977 H 458.625 1.22385 -4.44769 0
M  V30 4978 H 456.868 1.08383 -4.20042 0
M  V30 4979 H 457.539 2.56624 -4.88721 0
M  V30 4980 H 460.015 2.89518 -2.98862 0
M  V30 4981 H 458.891 4.12566 -3.6205 0
M  V30 4982 H 459.152 3.9975 -1.88818 0
M  V30 4983 N 458.211 1.37122 0.776871 0
M  V30 4984 C 459.436 1.354 1.57104 0
M  V30 4985 C 459.861 -0.0595562 1.88006 0
M  V30 4986 O 459.219 -1.03514 1.48844 0
M  V30 4987 C 459.267 2.19472 2.8612 0
M  V30 4988 O 458.371 1.59582 3.80273 0
M  V30 4989 H 457.712 0.462869 0.476076 0
M  V30 4990 H 460.242 1.80577 0.961932 0
M  V30 4991 H 460.252 2.32502 3.35271 0
M  V30 4992 H 458.927 3.22222 2.62956 0
M  V30 4993 H 457.504 1.55564 3.38902 0
M  V30 4994 N 459.689 -1.00246 1.21608 0
M  V30 4995 C 460.919 -1.77373 1.05935 0
M  V30 4996 C 461.327 -1.85059 -0.393686 0
M  V30 4997 O 460.67 -1.31289 -1.28487 0
M  V30 4998 C 460.732 -3.22705 1.58435 0
M  V30 4999 C 460.396 -3.38591 3.06929 0
M  V30 5000 C 461.393 -3.2667 4.04454 0
M  V30 5001 C 459.078 -3.6395 3.46187 0
M  V30 5002 C 461.072 -3.39877 5.39224 0
M  V30 5003 C 458.759 -3.768 4.81108 0
M  V30 5004 C 459.757 -3.6477 5.77436 0
M  V30 5005 O 459.445 -3.77206 7.09909 0
M  V30 5006 H 459.177 -0.56419 0.372378 0
M  V30 5007 H 461.731 -1.26971 1.61454 0
M  V30 5008 H 459.961 -3.74255 0.973147 0
M  V30 5009 H 461.65 -3.81515 1.38568 0
M  V30 5010 H 462.416 -3.06999 3.75468 0
M  V30 5011 H 458.295 -3.72395 2.71741 0
M  V30 5012 H 461.839 -3.30404 6.14393 0
M  V30 5013 H 457.736 -3.95975 5.09779 0
M  V30 5014 H 458.504 -3.94138 7.17355 0
M  V30 5015 N 461.167 -1.02423 -1.1978 0
M  V30 5016 C 462.413 -0.719051 -1.89625 0
M  V30 5017 C 462.746 0.750083 -1.7913 0
M  V30 5018 O 462.021 1.54574 -1.18056 0
M  V30 5019 C 462.304 -1.16499 -3.40735 0
M  V30 5020 C 462.157 -2.695 -3.60125 0
M  V30 5021 C 463.476 -0.742166 -4.33797 0
M  V30 5022 H 460.595 -0.26269 -0.688595 0
M  V30 5023 H 463.237 -1.27333 -1.41018 0
M  V30 5024 H 461.387 -0.69341 -3.82262 0
M  V30 5025 H 463.059 -3.24569 -3.278 0
M  V30 5026 H 461.302 -3.10113 -3.03336 0
M  V30 5027 H 461.973 -2.95757 -4.66081 0
M  V30 5028 H 464.449 -1.1477 -3.99959 0
M  V30 5029 H 463.325 -1.08213 -5.38127 0
M  V30 5030 H 463.586 0.355747 -4.40666 0
M  V30 5031 N 462.645 1.35699 -0.801477 0
M  V30 5032 C 463.592 2.29876 -0.206294 0
M  V30 5033 C 464.562 1.52565 0.656752 0
M  V30 5034 O 465.747 1.81024 0.602906 0
M  V30 5035 C 462.887 3.39052 0.643272 0
M  V30 5036 C 462 4.31335 -0.239644 0
M  V30 5037 C 461.135 5.27599 0.61744 0
M  V30 5038 C 460.174 6.11521 -0.26619 0
M  V30 5039 N 459.311 6.99938 0.550571 0
M  V30 5040 H 464.151 2.80187 -1.01484 0
M  V30 5041 H 461.688 1.37902 -0.511997 0
M  V30 5042 H 463.646 4.0101 1.15094 0
M  V30 5043 H 462.276 2.9003 1.41713 0
M  V30 5044 H 461.328 3.70426 -0.865381 0
M  V30 5045 H 462.64 4.90243 -0.919985 0
M  V30 5046 H 461.794 5.94906 1.19045 0
M  V30 5047 H 460.533 4.69176 1.33137 0
M  V30 5048 H 459.538 5.43166 -0.851507 0
M  V30 5049 H 460.763 6.72022 -0.9779 0
M  V30 5050 H 458.709 6.44008 1.24856 0
M  V30 5051 H 458.626 7.55966 -0.071832 0
M  V30 5052 H 459.894 7.71599 1.10702 0
M  V30 5053 N 464.123 0.554532 1.47522 0
M  V30 5054 C 465.086 -0.184174 2.28459 0
M  V30 5055 C 466.086 -0.845195 1.36796 0
M  V30 5056 O 467.276 -0.701467 1.59452 0
M  V30 5057 C 464.408 -1.26903 3.16399 0
M  V30 5058 H 465.601 0.526751 2.95238 0
M  V30 5059 H 463.154 0.311375 1.53167 0
M  V30 5060 H 463.889 -2.01244 2.54306 0
M  V30 5061 H 463.674 -0.799883 3.83854 0
M  V30 5062 H 465.164 -1.78794 3.77389 0
M  V30 5063 N 465.601 -1.54893 0.290851 0
M  V30 5064 C 466.85 -1.99111 -0.322113 0
M  V30 5065 C 467.163 -1.18283 -1.55784 0
M  V30 5066 O 468.369 -1.5272 -2.24475 0
M  V30 5067 C 466.825 -3.54442 -0.624438 0
M  V30 5068 C 466.433 -4.44066 0.592373 0
M  V30 5069 C 468.177 -4.07211 -1.19916 0
M  V30 5070 C 466.084 -5.90812 0.263762 0
M  V30 5071 H 465.014 -0.743712 -0.124133 0
M  V30 5072 H 467.665 -1.79132 0.39797 0
M  V30 5073 H 466.047 -3.70281 -1.40384 0
M  V30 5074 H 467.221 -4.39999 1.36886 0
M  V30 5075 H 465.536 -4.02015 1.08502 0
M  V30 5076 H 468.133 -5.14407 -1.45909 0
M  V30 5077 H 468.476 -3.57196 -2.13815 0
M  V30 5078 H 469.009 -3.94873 -0.481687 0
M  V30 5079 H 465.748 -6.44955 1.17105 0
M  V30 5080 H 465.268 -5.97911 -0.475655 0
M  V30 5081 H 466.947 -6.46852 -0.138354 0
M  V30 5082 N 467.08 -0.0183926 -1.57589 0
M  V30 5083 C 468.357 0.700621 -1.82622 0
M  V30 5084 C 468.737 1.90951 -0.90005 0
M  V30 5085 O 468.085 2.28452 0.0469145 0
M  V30 5086 C 468.295 1.08899 -3.31575 0
M  V30 5087 C 469.643 1.48514 -3.9778 0
M  V30 5088 O 470.667 1.18227 -3.36007 0
M  V30 5089 O 469.526 2.04903 -5.06633 0
M  V30 5090 H 466.62 0.342743 -0.752633 0
M  V30 5091 H 469.166 -0.0452548 -1.6964 0
M  V30 5092 H 467.938 0.228113 -3.90635 0
M  V30 5093 H 467.561 1.89338 -3.49624 0
M  V30 5094 N 468.558 1.5553 0.254621 0
M  V30 5095 C 469.807 1.76202 0.981612 0
M  V30 5096 C 470.12 0.580883 1.86776 0
M  V30 5097 O 471.326 0.670448 2.63092 0
M  V30 5098 C 469.782 3.11921 1.79537 0
M  V30 5099 C 469.39 4.37659 0.956991 0
M  V30 5100 C 471.134 3.41936 2.51555 0
M  V30 5101 C 469.041 5.64411 1.76619 0
M  V30 5102 H 467.971 0.656841 0.370237 0
M  V30 5103 H 470.622 1.81969 0.236556 0
M  V30 5104 H 469.004 3.00241 2.58208 0
M  V30 5105 H 470.178 4.60307 0.21315 0
M  V30 5106 H 468.493 4.14922 0.350497 0
M  V30 5107 H 471.09 4.33849 3.12536 0
M  V30 5108 H 471.433 2.62905 3.22779 0
M  V30 5109 H 471.966 3.54797 1.799 0
M  V30 5110 H 468.705 6.46241 1.09783 0
M  V30 5111 H 468.225 5.45877 2.48551 0
M  V30 5112 H 469.904 6.03386 2.33527 0
M  V30 5113 N 470.036 -0.519951 1.48776 0
M  V30 5114 C 471.282 -1.27456 1.58514 0
M  V30 5115 C 471.637 -1.90634 0.260057 0
M  V30 5116 O 470.93 -1.76815 -0.738036 0
M  V30 5117 C 471.124 -2.37864 2.6675 0
M  V30 5118 C 470.953 -1.85509 4.09654 0
M  V30 5119 C 469.723 -1.67661 4.76674 0
M  V30 5120 C 471.921 -1.37783 4.955 0
M  V30 5121 N 469.903 -1.10037 6.03958 0
M  V30 5122 C 471.274 -0.921714 6.1311 0
M  V30 5123 C 473.329 -1.26179 4.81646 0
M  V30 5124 C 472.032 -0.361057 7.18393 0
M  V30 5125 C 474.058 -0.715121 5.8706 0
M  V30 5126 C 473.42 -0.269132 7.03886 0
M  V30 5127 H 469.519 -0.457049 0.634531 0
M  V30 5128 H 472.103 -0.585073 1.85701 0
M  V30 5129 H 470.274 -3.04296 2.41367 0
M  V30 5130 H 472.006 -3.04901 2.66116 0
M  V30 5131 H 468.761 -1.91478 4.33166 0
M  V30 5132 H 469.185 -0.832067 6.71867 0
M  V30 5133 H 473.827 -1.59263 3.91657 0
M  V30 5134 H 471.545 -0.0179127 8.08098 0
M  V30 5135 H 475.131 -0.628376 5.78397 0
M  V30 5136 H 474.011 0.14729 7.84062 0
M  V30 5137 N 471.514 -1.37532 -0.769588 0
M  V30 5138 C 472.447 -1.27839 -1.8903 0
M  V30 5139 C 473.425 -0.158504 -1.61826 0
M  V30 5140 O 474.609 -0.333086 -1.85534 0
M  V30 5141 C 471.736 -0.977072 -3.24301 0
M  V30 5142 C 470.782 -2.11414 -3.70414 0
M  V30 5143 S 471.615 -3.73409 -3.83831 0
M  V30 5144 C 472.771 -3.45432 -5.21946 0
M  V30 5145 H 473.004 -2.22694 -1.96963 0
M  V30 5146 H 470.537 -1.2318 -0.930914 0
M  V30 5147 H 472.495 -0.810049 -4.02428 0
M  V30 5148 H 471.156 -0.0459701 -3.14066 0
M  V30 5149 H 470.349 -1.85837 -4.68488 0
M  V30 5150 H 469.951 -2.24141 -2.99394 0
M  V30 5151 H 472.243 -3.00554 -6.07185 0
M  V30 5152 H 473.186 -4.42841 -5.52537 0
M  V30 5153 H 473.594 -2.80311 -4.89986 0
M  V30 5154 N 472.992 0.995999 -1.22138 0
M  V30 5155 C 473.955 2.06711 -0.990109 0
M  V30 5156 C 474.955 1.60744 0.0422978 0
M  V30 5157 O 476.145 1.73095 -0.195895 0
M  V30 5158 C 473.277 3.37288 -0.49491 0
M  V30 5159 H 474.47 2.28661 -1.94047 0
M  V30 5160 H 472.023 1.16711 -1.03963 0
M  V30 5161 H 472.758 3.21022 0.459948 0
M  V30 5162 H 472.543 3.71986 -1.23971 0
M  V30 5163 H 474.033 4.16103 -0.353253 0
M  V30 5164 N 474.47 1.03057 1.19235 0
M  V30 5165 C 475.716 0.729098 1.89241 0
M  V30 5166 C 476.049 -0.740573 1.79525 0
M  V30 5167 O 475.324 -1.53946 1.18874 0
M  V30 5168 C 475.607 1.18304 3.40112 0
M  V30 5169 C 475.46 2.71406 3.5869 0
M  V30 5170 C 476.779 0.765161 4.33397 0
M  V30 5171 H 473.898 0.266338 0.687192 0
M  V30 5172 H 476.54 1.28079 1.40341 0
M  V30 5173 H 474.69 0.713672 3.81889 0
M  V30 5174 H 476.362 3.26303 3.26074 0
M  V30 5175 H 474.605 3.11717 3.01687 0
M  V30 5176 H 475.276 2.98225 4.64506 0
M  V30 5177 H 477.752 1.16889 3.99345 0
M  V30 5178 H 476.628 1.11065 5.37546 0
M  V30 5179 H 476.889 -0.332372 4.40849 0
M  V30 5180 N 475.948 -1.35272 0.808662 0
M  V30 5181 C 477.188 -2.00534 0.395668 0
M  V30 5182 C 477.552 -1.62755 -1.01857 0
M  V30 5183 O 478.753 -2.20752 -1.53368 0
M  V30 5184 C 477.024 -3.52732 0.575771 0
M  V30 5185 S 478.583 -4.38067 0.253507 0
M  V30 5186 H 475.401 -0.694962 0.150165 0
M  V30 5187 H 478.003 -1.64823 1.05137 0
M  V30 5188 H 476.707 -3.77714 1.60499 0
M  V30 5189 H 476.238 -3.93285 -0.0951739 0
M  V30 5190 H 478.253 -4.87252 -0.938068 0
M  V30 5191 N 477.426 -0.562348 -1.47226 0
M  V30 5192 C 478.356 0.170627 -2.32876 0
M  V30 5193 C 479.337 0.903748 -1.44106 0
M  V30 5194 O 480.522 0.883206 -1.72954 0
M  V30 5195 C 477.652 1.19786 -3.25989 0
M  V30 5196 C 476.606 0.580875 -4.2404 0
M  V30 5197 C 475.932 1.71311 -5.06514 0
M  V30 5198 C 477.232 -0.468714 -5.20193 0
M  V30 5199 H 478.926 -0.544441 -2.94408 0
M  V30 5200 H 476.472 -0.263271 -1.41573 0
M  V30 5201 H 478.425 1.71884 -3.84752 0
M  V30 5202 H 477.149 1.94294 -2.62521 0
M  V30 5203 H 475.808 0.0811538 -3.6651 0
M  V30 5204 H 475.456 2.44736 -4.39447 0
M  V30 5205 H 475.156 1.30604 -5.72902 0
M  V30 5206 H 476.68 2.23725 -5.68137 0
M  V30 5207 H 478.094 -0.0336028 -5.7329 0
M  V30 5208 H 476.491 -0.794957 -5.94811 0
M  V30 5209 H 477.561 -1.36269 -4.65359 0
M  V30 5210 N 478.904 1.54736 -0.299062 0
M  V30 5211 C 479.834 2.26409 0.571085 0
M  V30 5212 C 480.815 1.2629 1.13951 0
M  V30 5213 O 482 1.55059 1.16921 0
M  V30 5214 C 479.13 3.00338 1.74396 0
M  V30 5215 C 478.084 4.07588 1.30599 0
M  V30 5216 C 477.41 4.69222 2.56387 0
M  V30 5217 C 478.71 5.20455 0.438645 0
M  V30 5218 H 480.404 2.99388 -0.0266991 0
M  V30 5219 H 477.95 1.43993 -0.0142812 0
M  V30 5220 H 479.903 3.49198 2.35878 0
M  V30 5221 H 478.627 2.24934 2.36796 0
M  V30 5222 H 477.286 3.59575 0.71424 0
M  V30 5223 H 476.934 3.9046 3.17097 0
M  V30 5224 H 476.634 5.41653 2.27784 0
M  V30 5225 H 478.158 5.20844 3.18675 0
M  V30 5226 H 479.572 5.65221 0.959085 0
M  V30 5227 H 477.969 5.99594 0.246466 0
M  V30 5228 H 479.039 4.8192 -0.536738 0
M  V30 5229 N 480.382 0.0267497 1.57577 0
M  V30 5230 C 481.629 -0.652404 1.91703 0
M  V30 5231 C 481.957 -1.72271 0.902936 0
M  V30 5232 O 481.212 -1.955 -0.0884843 0
M  V30 5233 C 481.511 -1.30914 3.3256 0
M  V30 5234 C 481.177 -0.369441 4.49384 0
M  V30 5235 C 479.839 -0.110791 4.81072 0
M  V30 5236 C 482.191 0.275971 5.20469 0
M  V30 5237 C 479.519 0.801116 5.81205 0
M  V30 5238 C 481.871 1.17592 6.21575 0
M  V30 5239 C 480.535 1.44348 6.51705 0
M  V30 5240 H 479.805 -0.238732 0.70149 0
M  V30 5241 H 482.452 0.0880091 1.91298 0
M  V30 5242 H 480.757 -2.12425 3.29216 0
M  V30 5243 H 482.454 -1.84115 3.56234 0
M  V30 5244 H 479.044 -0.581211 4.24641 0
M  V30 5245 H 483.228 0.0892 4.9622 0
M  V30 5246 H 478.484 1.01614 6.02897 0
M  V30 5247 H 482.658 1.68223 6.75777 0
M  V30 5248 H 480.285 2.15176 7.29111 0
M  V30 5249 N 481.861 -1.55662 -0.24637 0
M  V30 5250 C 483.107 -1.77782 -0.975779 0
M  V30 5251 C 483.44 -0.592103 -1.84953 0
M  V30 5252 O 482.715 0.409588 -1.90138 0
M  V30 5253 C 482.998 -3.09788 -1.83584 0
M  V30 5254 C 482.851 -4.38764 -0.990241 0
M  V30 5255 C 484.17 -3.38029 -2.81823 0
M  V30 5256 H 481.289 -0.646789 -0.353317 0
M  V30 5257 H 483.931 -1.88398 -0.246248 0
M  V30 5258 H 482.081 -3.00869 -2.45784 0
M  V30 5259 H 483.753 -4.59675 -0.386897 0
M  V30 5260 H 481.996 -4.32798 -0.294626 0
M  V30 5261 H 482.667 -5.27514 -1.62584 0
M  V30 5262 H 485.143 -3.46915 -2.2976 0
M  V30 5263 H 484.019 -4.3161 -3.39122 0
M  V30 5264 H 484.28 -2.58968 -3.58313 0
M  V30 5265 N 483.339 0.512053 -1.4905 0
M  V30 5266 C 484.586 1.26686 -1.57978 0
M  V30 5267 C 484.914 1.92733 -0.261553 0
M  V30 5268 O 484.169 1.80772 0.749667 0
M  V30 5269 C 484.468 2.36446 -2.68008 0
M  V30 5270 C 484.134 1.87932 -4.09869 0
M  V30 5271 C 482.796 1.74419 -4.48477 0
M  V30 5272 C 485.148 1.5149 -4.98698 0
M  V30 5273 C 482.476 1.22827 -5.73699 0
M  V30 5274 C 484.828 1.01355 -6.24428 0
M  V30 5275 C 483.492 0.864735 -6.61875 0
M  V30 5276 H 482.762 0.463577 -0.578081 0
M  V30 5277 H 485.409 0.569421 -1.82838 0
M  V30 5278 H 483.714 3.11933 -2.37076 0
M  V30 5279 H 485.411 2.9453 -2.72127 0
M  V30 5280 H 482.001 1.99405 -3.79389 0
M  V30 5281 H 486.185 1.60782 -4.69535 0
M  V30 5282 H 481.441 1.10008 -6.01422 0
M  V30 5283 H 485.615 0.722351 -6.92644 0
M  V30 5284 H 483.242 0.462777 -7.5879 0
M  V30 5285 N 484.817 1.37938 0.762283 0
M  V30 5286 C 486.042 1.37059 1.55659 0
M  V30 5287 C 486.467 -0.0396123 1.88058 0
M  V30 5288 O 485.825 -1.01929 1.49934 0
M  V30 5289 C 485.873 2.22494 2.83776 0
M  V30 5290 O 484.977 1.63607 3.78559 0
M  V30 5291 H 484.318 0.467892 0.47114 0
M  V30 5292 H 486.848 1.81587 0.942725 0
M  V30 5293 H 486.858 2.36045 3.32786 0
M  V30 5294 H 485.533 3.24993 2.59524 0
M  V30 5295 H 484.11 1.5915 3.37233 0
M  V30 5296 N 486.295 -0.989507 1.22664 0
M  V30 5297 C 487.258 -2.06183 1.00106 0
M  V30 5298 C 488.258 -1.60765 -0.0337726 0
M  V30 5299 O 489.448 -1.72989 0.205072 0
M  V30 5300 C 486.58 -3.37021 0.51279 0
M  V30 5301 H 487.773 -2.27629 1.95256 0
M  V30 5302 H 485.326 -1.16158 1.0458 0
M  V30 5303 H 486.061 -3.21261 -0.442917 0
M  V30 5304 H 485.846 -3.71323 1.25942 0
M  V30 5305 H 487.336 -4.1591 0.375315 0
M  V30 5306 N 487.773 -1.03688 -1.18687 0
M  V30 5307 C 488.703 -0.645407 -2.24403 0
M  V30 5308 C 489.684 0.349511 -1.66471 0
M  V30 5309 O 490.869 0.230453 -1.92828 0
M  V30 5310 C 487.999 -0.00365337 -3.473 0
M  V30 5311 C 486.953 -0.921705 -4.17958 0
M  V30 5312 C 486.279 -0.144629 -5.34504 0
M  V30 5313 C 487.579 -2.23909 -4.71871 0
M  V30 5314 H 489.273 -1.52917 -2.57404 0
M  V30 5315 H 486.819 -0.736711 -1.23728 0
M  V30 5316 H 488.772 0.281908 -4.20456 0
M  V30 5317 H 487.496 0.914963 -3.13522 0
M  V30 5318 H 486.155 -1.19159 -3.46694 0
M  V30 5319 H 485.803 0.776274 -4.96974 0
M  V30 5320 H 485.503 -0.756206 -5.82714 0
M  V30 5321 H 487.027 0.134004 -6.10453 0
M  V30 5322 H 488.441 -2.0145 -5.36741 0
M  V30 5323 H 486.838 -2.8033 -5.30599 0
M  V30 5324 H 487.908 -2.88822 -3.895 0
M  V30 5325 N 489.251 1.34841 -0.815825 0
M  V30 5326 C 490.181 2.32187 -0.247298 0
M  V30 5327 C 491.162 1.5791 0.632344 0
M  V30 5328 O 492.347 1.8593 0.560698 0
M  V30 5329 C 489.477 3.42122 0.597466 0
M  V30 5330 C 488.431 4.27602 -0.184446 0
M  V30 5331 C 487.757 5.28942 0.782609 0
M  V30 5332 C 489.057 5.03502 -1.38865 0
M  V30 5333 H 490.751 2.79985 -1.06061 0
M  V30 5334 H 488.297 1.34611 -0.511461 0
M  V30 5335 H 490.25 4.09232 1.00533 0
M  V30 5336 H 488.974 2.92956 1.44376 0
M  V30 5337 H 487.633 3.62085 -0.573592 0
M  V30 5338 H 487.281 4.7604 1.62466 0
M  V30 5339 H 486.981 5.87008 0.263695 0
M  V30 5340 H 488.505 5.98922 1.18848 0
M  V30 5341 H 489.919 5.63506 -1.05518 0
M  V30 5342 H 488.316 5.71108 -1.8427 0
M  V30 5343 H 489.386 4.33608 -2.17054 0
M  V30 5344 N 490.729 0.570148 1.46925 0
M  V30 5345 C 491.639 -0.173061 2.33961 0
M  V30 5346 C 492.655 -0.898825 1.48987 0
M  V30 5347 O 493.831 -0.864825 1.81887 0
M  V30 5348 C 490.896 -1.18177 3.25937 0
M  V30 5349 C 489.957 -0.462041 4.26806 0
M  V30 5350 C 489.19 -1.4227 5.14388 0
M  V30 5351 O 489.413 -2.65842 5.04662 0
M  V30 5352 O 488.347 -0.940127 5.94513 0
M  V30 5353 H 492.173 0.541216 2.98839 0
M  V30 5354 H 489.758 0.330647 1.45695 0
M  V30 5355 H 491.64 -1.76372 3.82715 0
M  V30 5356 H 490.315 -1.87774 2.63671 0
M  V30 5357 H 489.222 0.161429 3.73752 0
M  V30 5358 H 490.555 0.192719 4.91823 0
M  V30 5359 N 492.207 -1.54576 0.307264 0
M  V30 5360 C 493.437 -2.04378 -0.302158 0
M  V30 5361 C 493.845 -1.18381 -1.47589 0
M  V30 5362 O 493.188 -0.20352 -1.82569 0
M  V30 5363 C 493.25 -3.50133 -0.815305 0
M  V30 5364 C 492.914 -4.56401 0.233977 0
M  V30 5365 C 493.911 -5.08884 1.06456 0
M  V30 5366 C 491.596 -5.0088 0.377478 0
M  V30 5367 C 493.59 -6.04394 2.02452 0
M  V30 5368 C 491.277 -5.96208 1.34088 0
M  V30 5369 C 492.275 -6.47849 2.16288 0
M  V30 5370 O 491.963 -7.41308 3.10994 0
M  V30 5371 H 491.695 -0.672502 -0.0686839 0
M  V30 5372 H 494.249 -2.00484 0.446682 0
M  V30 5373 H 492.479 -3.51371 -1.61478 0
M  V30 5374 H 494.168 -3.83098 -1.34129 0
M  V30 5375 H 494.934 -4.75311 0.964596 0
M  V30 5376 H 490.813 -4.60309 -0.252405 0
M  V30 5377 H 494.357 -6.44626 2.66652 0
M  V30 5378 H 490.254 -6.29198 1.44154 0
M  V30 5379 H 491.022 -7.5913 3.06045 0
M  V30 5380 N 493.685 -0.035106 -1.57561 0
M  V30 5381 C 494.648 0.929819 -2.09492 0
M  V30 5382 C 495.648 1.25026 -1.01119 0
M  V30 5383 O 496.838 1.18961 -1.27255 0
M  V30 5384 C 493.97 2.24457 -2.56577 0
M  V30 5385 H 495.163 0.479935 -2.96035 0
M  V30 5386 H 492.716 0.213033 -1.54841 0
M  V30 5387 H 493.451 2.74061 -1.73382 0
M  V30 5388 H 493.236 2.02508 -3.35757 0
M  V30 5389 H 494.726 2.93607 -2.96959 0
M  V30 5390 N 495.163 1.55791 0.238111 0
M  V30 5391 C 496.126 1.90239 1.27835 0
M  V30 5392 C 497.126 0.779552 1.4064 0
M  V30 5393 O 498.316 1.04747 1.3919 0
M  V30 5394 C 495.448 2.13859 2.65475 0
M  V30 5395 H 496.641 2.83262 0.985034 0
M  V30 5396 H 494.194 1.48818 0.477799 0
M  V30 5397 H 494.929 1.23334 2.99932 0
M  V30 5398 H 494.714 2.95643 2.57561 0
M  V30 5399 H 496.204 2.41664 3.40571 0
M  V30 5400 N 496.642 -0.504142 1.49319 0
M  V30 5401 C 497.888 -1.26033 1.58882 0
M  V30 5402 C 498.221 -1.92268 0.273274 0
M  V30 5403 O 497.496 -1.80567 -0.72291 0
M  V30 5404 C 497.779 -2.32976 2.7458 0
M  V30 5405 C 497.632 -1.71263 4.1592 0
M  V30 5406 C 498.951 -3.34561 2.85932 0
M  V30 5407 H 496.07 -0.456863 0.578312 0
M  V30 5408 H 498.712 -0.558965 1.81592 0
M  V30 5409 H 496.862 -2.92796 2.55348 0
M  V30 5410 H 498.534 -1.15294 4.4666 0
M  V30 5411 H 496.777 -1.01686 4.21714 0
M  V30 5412 H 497.448 -2.48816 4.92742 0
M  V30 5413 H 499.924 -2.84727 3.0343 0
M  V30 5414 H 498.8 -4.06754 3.68568 0
M  V30 5415 H 499.061 -3.96695 1.95154 0
M  V30 5416 N 498.12 -1.38341 -0.754957 0
M  V30 5417 C 499.068 -1.35573 -1.89005 0
M  V30 5418 C 500.062 -0.241824 -1.67665 0
M  V30 5419 O 501.268 -0.410785 -1.7525 0
M  V30 5420 H 497.643 -0.422898 -0.621821 0
M  V30 5421 H 499.614 -2.31359 -1.88455 0
M  V30 5422 C 498.363 -1.19631 -3.26471 0
M  V30 5423 H 497.686 -2.04605 -3.43477 0
M  V30 5424 H 499.126 -1.21748 -4.06144 0
M  V30 5425 C 497.585 0.0968705 -3.36761 0
M  V30 5426 O 498.115 1.07439 -3.87066 0
M  V30 5427 N 496.321 0.153242 -2.90196 0
M  V30 5428 H 495.868 -0.642908 -2.49448 0
M  V30 5429 H 495.826 1.01807 -2.9746 0
M  V30 5430 N 499.598 0.982988 -1.23187 0
M  V30 5431 C 500.845 1.72392 -1.06241 0
M  V30 5432 C 501.173 1.9032 0.40108 0
M  V30 5433 O 500.428 1.45084 1.31336 0
M  V30 5434 C 500.727 3.12736 -1.73006 0
M  V30 5435 C 500.393 3.14695 -3.22921 0
M  V30 5436 C 499.055 3.14937 -3.63824 0
M  V30 5437 C 501.407 3.10211 -4.1883 0
M  V30 5438 C 498.735 3.08408 -4.99101 0
M  V30 5439 C 501.087 3.05224 -5.54095 0
M  V30 5440 C 499.751 3.03787 -5.94365 0
M  V30 5441 H 499.021 0.630829 -0.388762 0
M  V30 5442 H 501.668 1.15053 -1.53085 0
M  V30 5443 H 499.973 3.73446 -1.18514 0
M  V30 5444 H 501.67 3.68828 -1.57374 0
M  V30 5445 H 498.26 3.15262 -2.90358 0
M  V30 5446 H 502.444 3.09166 -3.8824 0
M  V30 5447 H 497.7 3.05646 -5.29519 0
M  V30 5448 H 501.874 3.00712 -6.28128 0
M  V30 5449 H 499.501 2.98483 -6.99151 0
M  V30 5450 N 501.076 1.04316 1.18135 0
M  V30 5451 C 502.322 0.749128 1.88457 0
M  V30 5452 C 502.655 -0.72149 1.803 0
M  V30 5453 O 501.93 -1.52676 1.205 0
M  V30 5454 C 502.213 1.21905 3.38838 0
M  V30 5455 C 502.066 2.75195 3.55792 0
M  V30 5456 C 503.385 0.811085 4.32561 0
M  V30 5457 H 500.504 0.273611 0.684329 0
M  V30 5458 H 503.146 1.29561 1.38975 0
M  V30 5459 H 501.296 0.754137 3.8111 0
M  V30 5460 H 502.968 3.29743 3.22595 0
M  V30 5461 H 501.211 3.14899 2.98364 0
M  V30 5462 H 501.882 3.03135 4.61317 0
M  V30 5463 H 504.358 1.21118 3.98082 0
M  V30 5464 H 503.234 1.16761 5.36338 0
M  V30 5465 H 503.495 -0.285596 4.41177 0
M  V30 5466 N 502.554 -1.34406 0.822964 0
M  V30 5467 C 503.779 -2.0304 0.423034 0
M  V30 5468 C 504.204 -1.61568 -0.963196 0
M  V30 5469 O 503.562 -0.800339 -1.62678 0
M  V30 5470 C 503.61 -3.56636 0.53321 0
M  V30 5471 O 502.714 -4.09971 -0.446939 0
M  V30 5472 H 502.055 -0.64075 0.174171 0
M  V30 5473 H 504.585 -1.71653 1.11339 0
M  V30 5474 H 504.595 -4.05945 0.408991 0
M  V30 5475 H 503.27 -3.86168 1.54425 0
M  V30 5476 H 501.847 -3.71835 -0.281601 0
M  V30 5477 N 504.032 -0.577932 -1.46621 0
M  V30 5478 C 505.448 -0.239242 -1.57797 0
M  V30 5479 C 505.648 1.25843 -1.57371 0
M  V30 5480 O 504.704 2.03988 -1.48813 0
M  V30 5481 C 506.017 -0.884227 -2.87405 0
M  V30 5482 C 507.565 -0.857373 -3.01028 0
M  V30 5483 C 508.04 -1.48181 -4.33366 0
M  V30 5484 N 509.531 -1.44593 -4.40053 0
M  V30 5485 C 510.266 -1.89852 -5.41058 0
M  V30 5486 N 509.762 -2.43062 -6.48762 0
M  V30 5487 N 511.555 -1.80797 -5.3223 0
M  V30 5488 H 503.706 -1.55073 -1.45142 0
M  V30 5489 H 505.969 -0.647903 -0.692044 0
M  V30 5490 H 505.675 -1.93759 -2.93514 0
M  V30 5491 H 505.549 -0.389585 -3.75183 0
M  V30 5492 H 507.936 0.187357 -2.94505 0
M  V30 5493 H 508.017 -1.38999 -2.14739 0
M  V30 5494 H 507.661 -2.52572 -4.40647 0
M  V30 5495 H 507.591 -0.924464 -5.18422 0
M  V30 5496 H 510.082 -1.05694 -3.62819 0
M  V30 5497 H 510.395 -2.75466 -7.22038 0
M  V30 5498 H 508.74 -2.47085 -6.49595 0
M  V30 5499 H 511.931 -1.38989 -4.46989 0
M  V30 5500 H 512.104 -2.16385 -6.10804 0
M  V30 5501 N 505.51 1.54411 -0.315457 0
M  V30 5502 C 506.442 2.21527 0.588067 0
M  V30 5503 C 507.455 1.21263 1.08624 0
M  V30 5504 O 508.644 1.47777 1.00121 0
M  V30 5505 C 505.744 2.85963 1.81875 0
M  V30 5506 C 504.917 4.12291 1.46063 0
M  V30 5507 C 503.976 4.60396 2.54799 0
M  V30 5508 O 503.002 5.25265 2.19283 0
M  V30 5509 N 504.204 4.33935 3.85591 0
M  V30 5510 H 506.969 2.99697 0.013414 0
M  V30 5511 H 504.53 1.61308 -0.138295 0
M  V30 5512 H 506.522 3.15071 2.53993 0
M  V30 5513 H 505.092 2.11548 2.30144 0
M  V30 5514 H 504.312 3.90036 0.571445 0
M  V30 5515 H 505.6 4.9452 1.19695 0
M  V30 5516 H 504.998 3.81996 4.17248 0
M  V30 5517 H 503.555 4.67718 4.53964 0
M  V30 5518 N 506.988 0.0434614 1.5754 0
M  V30 5519 C 507.938 -0.943039 2.07583 0
M  V30 5520 C 508.922 -1.27662 0.979342 0
M  V30 5521 O 510.114 -1.26034 1.24276 0
M  V30 5522 C 507.243 -2.22056 2.61813 0
M  V30 5523 C 506.329 -1.91471 3.78417 0
M  V30 5524 N 506.72 -1.31214 4.88484 0
M  V30 5525 C 505.018 -2.21384 3.87176 0
M  V30 5526 C 505.719 -1.18084 5.69588 0
M  V30 5527 N 504.695 -1.68116 5.16951 0
M  V30 5528 H 508.497 -0.472354 2.90079 0
M  V30 5529 H 506.011 -0.161191 1.61598 0
M  V30 5530 H 508.008 -2.93618 2.95963 0
M  V30 5531 H 506.668 -2.69738 1.80752 0
M  V30 5532 H 507.679 -0.985318 5.08441 0
M  V30 5533 H 504.356 -2.7164 3.17046 0
M  V30 5534 H 505.746 -0.713684 6.68099 0
M  V30 5535 N 508.466 -1.55915 -0.229846 0
M  V30 5536 C 509.413 -1.91734 -1.28478 0
M  V30 5537 C 510.383 -0.773539 -1.46988 0
M  V30 5538 O 511.568 -1.02871 -1.60693 0
M  V30 5539 C 508.708 -2.23224 -2.63182 0
M  V30 5540 C 507.821 -3.50497 -2.52539 0
M  V30 5541 C 506.956 -3.71474 -3.79711 0
M  V30 5542 C 505.995 -4.92289 -3.63755 0
M  V30 5543 N 505.132 -5.09698 -4.82858 0
M  V30 5544 H 509.972 -2.81692 -0.972308 0
M  V30 5545 H 507.509 -1.39429 -0.468815 0
M  V30 5546 H 509.467 -2.3949 -3.41614 0
M  V30 5547 H 508.097 -1.36451 -2.92542 0
M  V30 5548 H 507.149 -3.4247 -1.65585 0
M  V30 5549 H 508.461 -4.39079 -2.36666 0
M  V30 5550 H 507.615 -3.87791 -4.66586 0
M  V30 5551 H 506.354 -2.81157 -3.985 0
M  V30 5552 H 505.359 -4.7593 -2.75264 0
M  V30 5553 H 506.584 -5.84083 -3.46445 0
M  V30 5554 H 504.53 -4.22322 -5.01976 0
M  V30 5555 H 504.447 -5.92399 -4.69681 0
M  V30 5556 H 505.715 -5.30443 -5.71183 0
M  V30 5557 N 509.944 0.496216 -1.49584 0
M  V30 5558 C 510.854 1.62352 -1.69349 0
M  V30 5559 C 511.87 1.64184 -0.576147 0
M  V30 5560 O 513.046 1.82517 -0.85144 0
M  V30 5561 C 510.111 2.98698 -1.76013 0
M  V30 5562 C 509.172 3.07454 -2.99617 0
M  V30 5563 C 508.405 4.37296 -3.05953 0
M  V30 5564 O 508.628 5.2637 -2.19752 0
M  V30 5565 O 507.562 4.51124 -3.9846 0
M  V30 5566 H 511.388 1.48606 -2.64859 0
M  V30 5567 H 508.973 0.673022 -1.33382 0
M  V30 5568 H 510.855 3.79725 -1.82721 0
M  V30 5569 H 509.53 3.12696 -0.836828 0
M  V30 5570 H 508.437 2.25597 -2.98424 0
M  V30 5571 H 509.77 2.98385 -3.91443 0
M  V30 5572 N 511.423 1.38739 0.74761 0
M  V30 5573 C 512.353 1.39173 1.87492 0
M  V30 5574 C 513.334 0.256794 1.6815 0
M  V30 5575 O 514.519 0.460762 1.88655 0
M  V30 5576 C 511.649 1.22197 3.25093 0
M  V30 5577 C 510.603 2.32957 3.59047 0
M  V30 5578 C 509.929 2.01082 4.95449 0
M  V30 5579 C 511.229 3.75237 3.6331 0
M  V30 5580 H 512.923 2.3351 1.87386 0
M  V30 5581 H 510.469 1.12399 0.900134 0
M  V30 5582 H 512.422 1.21124 4.03617 0
M  V30 5583 H 511.146 0.243241 3.25693 0
M  V30 5584 H 509.805 2.33226 2.82845 0
M  V30 5585 H 509.453 1.01678 4.92616 0
M  V30 5586 H 509.153 2.75267 5.19136 0
M  V30 5587 H 510.677 2.01638 5.76346 0
M  V30 5588 H 512.091 3.76966 4.31937 0
M  V30 5589 H 510.488 4.48677 3.98509 0
M  V30 5590 H 511.558 4.07122 2.634 0
M  V30 5591 N 512.901 -0.976442 1.23707 0
M  V30 5592 C 513.831 -2.08749 1.04624 0
M  V30 5593 C 514.812 -1.70057 -0.0380956 0
M  V30 5594 O 515.997 -1.93782 0.127308 0
M  V30 5595 C 513.127 -3.41335 0.640902 0
M  V30 5596 C 512.081 -3.93947 1.67302 0
M  V30 5597 C 511.407 -5.22774 1.12301 0
M  V30 5598 C 512.707 -4.22769 3.06697 0
M  V30 5599 H 514.401 -2.24972 1.97555 0
M  V30 5600 H 511.947 -1.08108 0.951247 0
M  V30 5601 H 513.9 -4.18489 0.494434 0
M  V30 5602 H 512.624 -3.24988 -0.324099 0
M  V30 5603 H 511.283 -3.18941 1.80755 0
M  V30 5604 H 510.931 -5.0278 0.148877 0
M  V30 5605 H 510.631 -5.58942 1.81267 0
M  V30 5606 H 512.155 -6.02546 0.988479 0
M  V30 5607 H 513.569 -4.90659 2.96524 0
M  V30 5608 H 511.966 -4.70147 3.72937 0
M  V30 5609 H 513.036 -3.29885 3.55392 0
M  V30 5610 N 514.379 -1.04941 -1.1758 0
M  V30 5611 C 515.795 -0.770282 -1.39781 0
M  V30 5612 C 515.995 0.636417 -1.91186 0
M  V30 5613 O 515.051 1.39923 -2.10185 0
M  V30 5614 C 516.364 -1.82376 -2.3908 0
M  V30 5615 C 517.912 -1.84569 -2.52791 0
M  V30 5616 C 518.387 -2.88933 -3.55361 0
M  V30 5617 N 519.878 -2.8788 -3.62877 0
M  V30 5618 C 520.613 -3.65282 -4.41992 0
M  V30 5619 N 520.109 -4.52461 -5.24643 0
M  V30 5620 N 521.902 -3.53732 -4.36841 0
M  V30 5621 H 514.053 -1.95705 -0.825438 0
M  V30 5622 H 516.316 -0.847284 -0.425222 0
M  V30 5623 H 516.022 -2.83323 -2.08376 0
M  V30 5624 H 515.896 -1.66327 -3.38549 0
M  V30 5625 H 518.283 -0.842879 -2.82807 0
M  V30 5626 H 518.364 -2.04696 -1.53406 0
M  V30 5627 H 518.008 -3.89398 -3.26085 0
M  V30 5628 H 517.938 -2.66059 -4.54445 0
M  V30 5629 H 520.429 -2.24666 -3.03864 0
M  V30 5630 H 520.742 -5.08211 -5.82187 0
M  V30 5631 H 519.087 -4.56524 -5.24033 0
M  V30 5632 H 522.278 -2.85021 -3.71323 0
M  V30 5633 H 522.451 -4.14302 -4.98255 0
M  V30 5634 N 515.857 1.33968 -0.830081 0
M  V30 5635 C 517.104 1.98063 -0.421566 0
M  V30 5636 C 517.432 1.65787 1.0171 0
M  V30 5637 O 516.687 0.925348 1.72441 0
M  V30 5638 C 516.986 3.52679 -0.57898 0
M  V30 5639 C 516.652 4.04884 -1.98443 0
M  V30 5640 C 515.314 4.18852 -2.36888 0
M  V30 5641 C 517.666 4.32879 -2.90285 0
M  V30 5642 C 514.994 4.58145 -3.66497 0
M  V30 5643 C 517.346 4.7362 -4.19364 0
M  V30 5644 C 516.01 4.85794 -4.57778 0
M  V30 5645 H 515.28 0.724765 -0.154262 0
M  V30 5646 H 517.927 1.59792 -1.05541 0
M  V30 5647 H 516.232 3.91556 0.138219 0
M  V30 5648 H 517.929 4.00261 -0.243317 0
M  V30 5649 H 514.519 3.9448 -1.67581 0
M  V30 5650 H 518.703 4.21619 -2.61823 0
M  V30 5651 H 513.959 4.65762 -3.96075 0
M  V30 5652 H 518.133 4.9424 -4.90612 0
M  V30 5653 H 515.76 5.15998 -5.58256 0
M  V30 5654 N 517.335 0.585699 1.46312 0
M  V30 5655 C 518.751 0.247607 1.57668 0
M  V30 5656 C 518.951 -1.25007 1.58037 0
M  V30 5657 O 518.007 -2.03196 1.49893 0
M  V30 5658 C 519.32 0.899456 2.86933 0
M  V30 5659 C 520.868 0.873326 3.00569 0
M  V30 5660 C 521.343 1.50477 4.32574 0
M  V30 5661 N 522.834 1.46925 4.3928 0
M  V30 5662 C 523.569 1.92719 5.40044 0
M  V30 5663 N 523.065 2.46499 6.47464 0
M  V30 5664 N 524.858 1.83617 5.31264 0
M  V30 5665 H 517.009 1.55841 1.44317 0
M  V30 5666 H 519.272 0.651564 0.688599 0
M  V30 5667 H 518.978 1.95313 2.92482 0
M  V30 5668 H 518.852 0.409476 3.74971 0
M  V30 5669 H 521.239 -0.171736 2.946 0
M  V30 5670 H 521.32 1.40136 2.13999 0
M  V30 5671 H 520.964 2.54905 4.39302 0
M  V30 5672 H 520.894 0.951944 5.17924 0
M  V30 5673 H 523.385 1.07616 3.62253 0
M  V30 5674 H 523.698 2.79291 7.20567 0
M  V30 5675 H 522.043 2.50526 6.48276 0
M  V30 5676 H 525.234 1.41358 4.46246 0
M  V30 5677 H 525.407 2.19622 6.09648 0
M  V30 5678 N 518.813 -1.54241 0.323641 0
M  V30 5679 C 520.229 -1.59574 -0.0290018 0
M  V30 5680 C 520.429 -1.34017 -1.50472 0
M  V30 5681 O 519.485 -1.12464 -2.26071 0
M  V30 5682 C 520.798 -2.98169 0.389295 0
M  V30 5683 C 522.346 -3.11148 0.339958 0
M  V30 5684 C 522.821 -4.5209 0.733418 0
M  V30 5685 N 524.312 -4.5808 0.686827 0
M  V30 5686 C 525.047 -5.65248 0.963464 0
M  V30 5687 N 524.543 -6.80355 1.30724 0
M  V30 5688 N 526.336 -5.55025 0.88902 0
M  V30 5689 H 518.487 -1.6911 1.28512 0
M  V30 5690 H 520.75 -0.790972 0.522558 0
M  V30 5691 H 520.456 -3.21871 1.41746 0
M  V30 5692 H 520.33 -3.76399 -0.245657 0
M  V30 5693 H 522.717 -2.87182 -0.679002 0
M  V30 5694 H 522.798 -2.35023 1.00985 0
M  V30 5695 H 522.442 -4.76788 1.75029 0
M  V30 5696 H 522.372 -5.26584 0.0412189 0
M  V30 5697 H 524.863 -3.75411 0.43298 0
M  V30 5698 H 525.176 -7.58029 1.5037 0
M  V30 5699 H 523.521 -6.81851 1.3455 0
M  V30 5700 H 526.712 -4.63977 0.619939 0
M  V30 5701 H 526.885 -6.38458 1.10797 0
M  V30 5702 N 520.291 -0.0518155 -1.57515 0
M  V30 5703 C 521.238 0.922352 -2.11569 0
M  V30 5704 C 522.208 1.30842 -1.02321 0
M  V30 5705 O 523.393 1.39778 -1.29872 0
M  V30 5706 C 520.533 2.19167 -2.6657 0
M  V30 5707 C 519.646 1.86003 -3.89906 0
M  V30 5708 C 518.781 3.07398 -4.33221 0
M  V30 5709 C 517.82 2.70158 -5.49255 0
M  V30 5710 N 516.957 3.84248 -5.8762 0
M  V30 5711 H 521.797 0.454506 -2.94514 0
M  V30 5712 H 519.334 0.212718 -1.45554 0
M  V30 5713 H 521.292 2.93443 -2.96559 0
M  V30 5714 H 519.922 2.63528 -1.86421 0
M  V30 5715 H 518.974 1.01874 -3.66505 0
M  V30 5716 H 520.286 1.54592 -4.74239 0
M  V30 5717 H 519.44 3.89972 -4.64765 0
M  V30 5718 H 518.179 3.41988 -3.477 0
M  V30 5719 H 517.184 1.86001 -5.17382 0
M  V30 5720 H 518.409 2.36759 -6.36492 0
M  V30 5721 H 516.355 4.18638 -5.05053 0
M  V30 5722 H 516.272 3.56538 -6.66646 0
M  V30 5723 H 517.54 4.6746 -6.2378 0
M  V30 5724 N 521.769 1.56035 0.221574 0
M  V30 5725 C 523.185 1.49026 0.571271 0
M  V30 5726 C 523.385 0.746912 1.87146 0
M  V30 5727 O 522.441 0.286566 2.50869 0
M  V30 5728 C 523.754 2.93579 0.650522 0
M  V30 5729 C 525.302 3.04099 0.741151 0
M  V30 5730 C 525.777 4.5001 0.851747 0
M  V30 5731 N 527.268 4.54053 0.915968 0
M  V30 5732 C 528.003 5.64232 1.02125 0
M  V30 5733 N 527.499 6.84164 1.09049 0
M  V30 5734 N 529.292 5.52084 1.05639 0
M  V30 5735 H 521.443 2.02791 -0.63162 0
M  V30 5736 H 523.706 0.921736 -0.221602 0
M  V30 5737 H 523.412 3.50912 -0.235253 0
M  V30 5738 H 523.286 3.45476 1.51413 0
M  V30 5739 H 525.673 2.4683 1.61737 0
M  V30 5740 H 525.754 2.55371 -0.148128 0
M  V30 5741 H 525.398 5.07896 -0.0200117 0
M  V30 5742 H 525.328 4.96444 1.75644 0
M  V30 5743 H 527.819 3.67683 0.872782 0
M  V30 5744 H 528.132 7.63883 1.1706 0
M  V30 5745 H 526.477 6.86875 1.05962 0
M  V30 5746 H 529.668 4.57317 0.998953 0
M  V30 5747 H 529.841 6.37983 1.13498 0
M  V30 5748 N 523.247 -0.488276 1.49845 0
M  V30 5749 C 524.194 -1.58836 1.67451 0
M  V30 5750 C 525.164 -1.57886 0.515857 0
M  V30 5751 O 526.349 -1.75679 0.744403 0
M  V30 5752 C 523.489 -2.96915 1.75885 0
M  V30 5753 C 522.602 -3.07784 3.03138 0
M  V30 5754 C 521.737 -4.36673 3.02473 0
M  V30 5755 C 520.776 -4.41222 4.24252 0
M  V30 5756 N 519.913 -5.61557 4.21424 0
M  V30 5757 H 524.753 -1.43131 2.61376 0
M  V30 5758 H 522.29 -0.696186 1.29583 0
M  V30 5759 H 524.248 -3.76965 1.78755 0
M  V30 5760 H 522.878 -3.11295 0.85414 0
M  V30 5761 H 521.93 -2.20717 3.09819 0
M  V30 5762 H 523.242 -3.07005 3.93128 0
M  V30 5763 H 522.396 -5.25055 3.03977 0
M  V30 5764 H 521.135 -4.40037 2.10283 0
M  V30 5765 H 520.14 -3.5124 4.22978 0
M  V30 5766 H 521.365 -4.39564 5.17649 0
M  V30 5767 H 519.311 -5.65738 3.32078 0
M  V30 5768 H 519.228 -5.62447 5.05163 0
M  V30 5769 H 520.496 -6.52111 4.2705 0
M  V30 5770 N 524.725 -1.39134 -0.740242 0
M  V30 5771 C 525.673 -1.3757 -1.87556 0
M  V30 5772 C 526.667 -0.259593 -1.67399 0
M  V30 5773 O 527.873 -0.429349 -1.74804 0
M  V30 5774 H 524.248 -0.42947 -0.6173 0
M  V30 5775 H 526.219 -2.33345 -1.85991 0
M  V30 5776 C 524.968 -1.23087 -3.25184 0
M  V30 5777 H 524.291 -2.08237 -3.41288 0
M  V30 5778 H 525.731 -1.26049 -4.0483 0
M  V30 5779 C 524.19 0.0611471 -3.36845 0
M  V30 5780 O 524.72 1.03328 -3.88183 0
M  V30 5781 N 522.926 0.122454 -2.90342 0
M  V30 5782 H 522.473 -0.669329 -2.48752 0
M  V30 5783 H 522.431 0.986463 -2.98523 0
M  V30 5784 N 526.204 0.969867 -1.24223 0
M  V30 5785 C 527.151 2.06407 -1.0327 0
M  V30 5786 C 528.121 1.66014 0.0533 0
M  V30 5787 O 529.306 1.90533 -0.100896 0
M  V30 5788 C 526.446 3.3909 -0.641262 0
M  V30 5789 C 525.559 3.9269 -1.80051 0
M  V30 5790 C 524.694 5.13631 -1.35486 0
M  V30 5791 C 523.733 5.59423 -2.48419 0
M  V30 5792 N 522.87 6.71586 -2.04737 0
M  V30 5793 H 527.71 2.23663 -1.96923 0
M  V30 5794 H 525.247 1.09624 -0.980862 0
M  V30 5795 H 527.205 4.15323 -0.395351 0
M  V30 5796 H 525.835 3.21765 0.258269 0
M  V30 5797 H 524.887 3.13116 -2.16014 0
M  V30 5798 H 526.199 4.22636 -2.64916 0
M  V30 5799 H 525.353 5.97231 -1.0677 0
M  V30 5800 H 524.092 4.85364 -0.476722 0
M  V30 5801 H 523.097 4.74398 -2.77897 0
M  V30 5802 H 524.322 5.89705 -3.36786 0
M  V30 5803 H 522.268 6.45058 -1.19318 0
M  V30 5804 H 522.185 7.0097 -2.83156 0
M  V30 5805 H 523.453 7.58633 -1.79154 0
M  V30 5806 N 527.682 1.05563 1.17022 0
M  V30 5807 C 528.91 0.78845 1.91288 0
M  V30 5808 C 529.325 -0.656318 1.77025 0
M  V30 5809 O 528.682 -1.44869 1.10992 0
M  V30 5810 C 528.733 1.16444 3.42232 0
M  V30 5811 O 528.454 2.5525 3.5606 0
M  V30 5812 C 529.955 0.923937 4.33565 0
M  V30 5813 H 527.175 0.286389 0.606813 0
M  V30 5814 H 529.719 1.4073 1.48375 0
M  V30 5815 H 527.874 0.590266 3.82877 0
M  V30 5816 H 528.288 2.70097 4.49609 0
M  V30 5817 H 529.762 1.23672 5.37968 0
M  V30 5818 H 530.239 -0.140688 4.38975 0
M  V30 5819 H 530.845 1.48214 3.98639 0
M  V30 5820 N 529.16 -1.33526 0.837174 0
M  V30 5821 C 530.07 -2.33023 0.271568 0
M  V30 5822 C 531.086 -1.63272 -0.601514 0
M  V30 5823 O 532.262 -1.94939 -0.506038 0
M  V30 5824 C 529.327 -3.42382 -0.545448 0
M  V30 5825 C 528.388 -4.27857 0.351709 0
M  V30 5826 C 527.621 -5.31994 -0.426409 0
M  V30 5827 O 527.844 -5.45763 -1.65828 0
M  V30 5828 O 526.778 -6.01572 0.1987 0
M  V30 5829 H 530.604 -2.83256 1.09545 0
M  V30 5830 H 528.189 -1.36837 0.599655 0
M  V30 5831 H 530.071 -4.09122 -1.00979 0
M  V30 5832 H 528.746 -2.94369 -1.34641 0
M  V30 5833 H 527.653 -3.6399 0.863853 0
M  V30 5834 H 528.986 -4.79349 1.1174 0
M  V30 5835 N 530.638 -0.59345 -1.46 0
M  V30 5836 C 531.601 0.123538 -2.28867 0
M  V30 5837 C 532.601 0.808628 -1.38989 0
M  V30 5838 O 533.791 0.658945 -1.61256 0
M  V30 5839 C 530.923 1.1847 -3.19653 0
M  V30 5840 H 532.116 -0.604843 -2.93737 0
M  V30 5841 H 529.669 -0.351875 -1.52288 0
M  V30 5842 H 530.404 1.94431 -2.59552 0
M  V30 5843 H 530.189 0.69783 -3.8584 0
M  V30 5844 H 531.679 1.68726 -3.81997 0
M  V30 5845 N 532.116 1.54067 -0.331816 0
M  V30 5846 C 533.363 2.00715 0.268269 0
M  V30 5847 C 533.691 1.21986 1.51491 0
M  V30 5848 O 532.946 0.292309 1.93505 0
M  V30 5849 C 533.245 3.51634 0.639392 0
M  V30 5850 C 532.911 4.48018 -0.509019 0
M  V30 5851 C 531.573 4.74089 -0.824209 0
M  V30 5852 C 533.925 5.05237 -1.28003 0
M  V30 5853 C 531.253 5.54637 -1.91298 0
M  V30 5854 C 533.605 5.86972 -2.35895 0
M  V30 5855 C 532.269 6.11342 -2.67987 0
M  V30 5856 H 531.539 0.734469 0.0981667 0
M  V30 5857 H 534.186 1.8596 -0.457304 0
M  V30 5858 H 532.491 3.6416 1.44551 0
M  V30 5859 H 534.188 3.85175 1.11539 0
M  V30 5860 H 530.778 4.27851 -0.253287 0
M  V30 5861 H 534.962 4.8507 -1.04978 0
M  V30 5862 H 530.218 5.71747 -2.16599 0
M  V30 5863 H 534.392 6.30327 -2.96076 0
M  V30 5864 H 532.019 6.73544 -3.5248 0
M  V30 5865 N 533.594 0.0601682 1.57485 0
M  V30 5866 C 534.557 -0.896373 2.10945 0
M  V30 5867 C 535.557 -1.23402 1.03095 0
M  V30 5868 O 536.747 -1.16921 1.29132 0
M  V30 5869 C 533.879 -2.20346 2.60116 0
M  V30 5870 H 535.072 -0.432778 2.96761 0
M  V30 5871 H 532.625 -0.188372 1.55161 0
M  V30 5872 H 533.36 -2.71268 1.7772 0
M  V30 5873 H 533.145 -1.9714 3.38937 0
M  V30 5874 H 534.635 -2.88846 3.01592 0
M  V30 5875 N 535.072 -1.5615 -0.213296 0
M  V30 5876 C 536.002 -1.96109 -1.26742 0
M  V30 5877 C 536.983 -0.830448 -1.48451 0
M  V30 5878 O 538.168 -1.09339 -1.60495 0
M  V30 5879 C 535.298 -2.28492 -2.61551 0
M  V30 5880 C 534.252 -3.44124 -2.54485 0
M  V30 5881 C 533.578 -3.62134 -3.93399 0
M  V30 5882 C 534.878 -4.78855 -2.08556 0
M  V30 5883 H 536.572 -2.84412 -0.935434 0
M  V30 5884 H 534.118 -1.36836 -0.44854 0
M  V30 5885 H 536.071 -2.55039 -3.3546 0
M  V30 5886 H 534.795 -1.37052 -2.96453 0
M  V30 5887 H 533.454 -3.17639 -1.83033 0
M  V30 5888 H 533.102 -2.68055 -4.25623 0
M  V30 5889 H 532.802 -4.39913 -3.89551 0
M  V30 5890 H 534.326 -3.91038 -4.68958 0
M  V30 5891 H 535.74 -5.04552 -2.72213 0
M  V30 5892 H 534.137 -5.59975 -2.1575 0
M  V30 5893 H 535.207 -4.73657 -1.03811 0
M  V30 5894 N 536.55 0.480323 -1.50102 0
M  V30 5895 C 537.46 1.60547 -1.71061 0
M  V30 5896 C 538.476 1.63564 -0.593529 0
M  V30 5897 O 539.652 1.81604 -0.870751 0
M  V30 5898 C 536.717 2.96814 -1.79171 0
M  V30 5899 C 535.778 3.04259 -3.02861 0
M  V30 5900 C 535.011 4.34027 -3.10574 0
M  V30 5901 O 535.234 5.24009 -2.25323 0
M  V30 5902 O 534.168 4.46873 -4.03223 0
M  V30 5903 H 537.994 1.45788 -2.6642 0
M  V30 5904 H 535.579 0.658838 -1.34088 0
M  V30 5905 H 537.461 3.77765 -1.86738 0
M  V30 5906 H 536.136 3.11791 -0.869947 0
M  V30 5907 H 535.043 2.22419 -3.008 0
M  V30 5908 H 536.376 2.94216 -3.94586 0
M  V30 5909 N 538.028 1.39524 0.732853 0
M  V30 5910 C 538.975 1.38416 1.84688 0
M  V30 5911 C 539.945 0.243539 1.64305 0
M  V30 5912 O 541.13 0.438979 1.85681 0
M  V30 5913 C 538.27 1.23555 3.22224 0
M  V30 5914 C 537.383 2.47179 3.54298 0
M  V30 5915 C 536.518 2.2489 4.81246 0
M  V30 5916 C 535.557 3.44178 5.0617 0
M  V30 5917 N 534.694 3.21192 6.24323 0
M  V30 5918 H 539.534 2.33645 1.84971 0
M  V30 5919 H 537.071 1.16059 0.903804 0
M  V30 5920 H 539.029 1.12949 4.0162 0
M  V30 5921 H 537.659 0.31954 3.21215 0
M  V30 5922 H 536.711 2.68379 2.69587 0
M  V30 5923 H 538.023 3.36022 3.68633 0
M  V30 5924 H 537.177 2.11538 5.68627 0
M  V30 5925 H 535.916 1.33443 4.69089 0
M  V30 5926 H 534.921 3.58025 4.17251 0
M  V30 5927 H 536.146 4.36528 5.20212 0
M  V30 5928 H 534.092 2.32413 6.1345 0
M  V30 5929 H 534.009 4.03594 6.39256 0
M  V30 5930 H 535.277 3.1154 7.14537 0
M  V30 5931 N 539.506 -0.963266 1.24736 0
M  V30 5932 C 540.753 -1.7068 1.0897 0
M  V30 5933 C 541.081 -1.90934 -0.370751 0
M  V30 5934 O 540.336 -1.47155 -1.29011 0
M  V30 5935 C 540.635 -3.09944 1.7796 0
M  V30 5936 C 540.301 -3.09518 3.27887 0
M  V30 5937 C 538.963 -3.09109 3.68789 0
M  V30 5938 C 541.315 -3.03509 4.23712 0
M  V30 5939 C 538.643 -3.00429 5.03944 0
M  V30 5940 C 540.995 -2.96371 5.5888 0
M  V30 5941 C 539.659 -2.94293 5.99123 0
M  V30 5942 H 538.929 -0.624564 0.398749 0
M  V30 5943 H 541.576 -1.12603 1.54896 0
M  V30 5944 H 539.881 -3.71513 1.2444 0
M  V30 5945 H 541.578 -3.66278 1.63222 0
M  V30 5946 H 538.168 -3.10603 2.95337 0
M  V30 5947 H 542.352 -3.0295 3.93109 0
M  V30 5948 H 537.608 -2.97183 5.34314 0
M  V30 5949 H 541.782 -2.90681 6.32833 0
M  V30 5950 H 539.409 -2.87322 7.03811 0
M  V30 5951 N 540.985 -1.06182 -1.16461 0
M  V30 5952 C 542.215 -0.797425 -1.9059 0
M  V30 5953 C 542.623 0.651845 -1.77616 0
M  V30 5954 O 541.966 1.45788 -1.11766 0
M  V30 5955 C 542.028 -1.11128 -3.41893 0
M  V30 5956 C 541.692 -2.55874 -3.78652 0
M  V30 5957 C 542.689 -3.54104 -3.80665 0
M  V30 5958 C 540.374 -2.91144 -4.09317 0
M  V30 5959 C 542.368 -4.85645 -4.12829 0
M  V30 5960 C 540.055 -4.22885 -4.41148 0
M  V30 5961 C 541.053 -5.19945 -4.42883 0
M  V30 5962 O 540.741 -6.49322 -4.73959 0
M  V30 5963 H 540.473 -0.288709 -0.611247 0
M  V30 5964 H 543.027 -1.41841 -1.4856 0
M  V30 5965 H 541.257 -0.433217 -3.84266 0
M  V30 5966 H 542.946 -0.831306 -3.97296 0
M  V30 5967 H 543.712 -3.28197 -3.57088 0
M  V30 5968 H 539.591 -2.16252 -4.07131 0
M  V30 5969 H 543.135 -5.61398 -4.14099 0
M  V30 5970 H 539.032 -4.48551 -4.6419 0
M  V30 5971 H 539.8 -6.54294 -4.91774 0
M  V30 5972 N 542.463 1.3308 -0.844243 0
M  V30 5973 C 543.879 1.50447 -0.532729 0
M  V30 5974 C 544.079 1.78292 0.938837 0
M  V30 5975 O 543.135 1.84635 1.72239 0
M  V30 5976 C 544.448 2.65555 -1.41072 0
M  V30 5977 C 545.996 2.7944 -1.41005 0
M  V30 5978 C 546.471 3.97616 -2.27301 0
M  V30 5979 N 547.962 4.0486 -2.2504 0
M  V30 5980 C 548.697 4.95508 -2.88547 0
M  V30 5981 N 548.193 5.91236 -3.61126 0
M  V30 5982 N 549.986 4.88548 -2.77989 0
M  V30 5983 H 542.137 1.13269 -1.79677 0
M  V30 5984 H 544.4 0.55734 -0.766861 0
M  V30 5985 H 544.106 2.51675 -2.45668 0
M  V30 5986 H 543.98 3.61089 -1.09061 0
M  V30 5987 H 546.367 2.92749 -0.371784 0
M  V30 5988 H 546.448 1.8465 -1.77026 0
M  V30 5989 H 546.092 3.85066 -3.3119 0
M  V30 5990 H 546.022 4.91661 -1.88619 0
M  V30 5991 H 548.513 3.36353 -1.72264 0
M  V30 5992 H 548.826 6.57079 -4.06776 0
M  V30 5993 H 547.171 5.91295 -3.65234 0
M  V30 5994 H 550.362 4.12729 -2.20846 0
M  V30 5995 H 550.535 5.58994 -3.27765 0
M  V30 5996 N 543.941 0.601185 1.45683 0
M  V30 5997 C 545.188 0.0938811 2.02282 0
M  V30 5998 C 545.516 -1.27315 1.47041 0
M  V30 5999 O 544.771 -1.85193 0.632623 0
M  V30 6000 C 545.07 -0.00222425 3.574 0
M  V30 6001 C 544.736 1.29963 4.31764 0
M  V30 6002 C 543.398 1.65625 4.51798 0
M  V30 6003 C 545.75 2.1603 4.74321 0
M  V30 6004 C 543.078 2.87119 5.11644 0
M  V30 6005 C 545.43 3.36766 5.3551 0
M  V30 6006 C 544.094 3.72689 5.53768 0
M  V30 6007 H 543.364 0.0343535 0.740203 0
M  V30 6008 H 546.011 0.781522 1.74827 0
M  V30 6009 H 544.316 -0.773096 3.84097 0
M  V30 6010 H 546.013 -0.410794 3.9889 0
M  V30 6011 H 542.603 1.01204 4.1648 0
M  V30 6012 H 546.787 1.89778 4.58582 0
M  V30 6013 H 542.043 3.15065 5.2397 0
M  V30 6014 H 546.217 4.03713 5.67441 0
M  V30 6015 H 543.844 4.66918 5.99909 0
M  V30 6016 N 545.419 -1.53889 0.339982 0
M  V30 6017 C 546.644 -2.05741 -0.261798 0
M  V30 6018 C 547.069 -1.21354 -1.43718 0
M  V30 6019 O 546.427 -0.22645 -1.7988 0
M  V30 6020 C 546.475 -3.54542 -0.658228 0
M  V30 6021 O 545.579 -3.7302 -1.75869 0
M  V30 6022 H 544.92 -0.662529 -0.0441672 0
M  V30 6023 H 547.45 -1.98568 0.493161 0
M  V30 6024 H 547.46 -3.9711 -0.936368 0
M  V30 6025 H 546.135 -4.15412 0.201358 0
M  V30 6026 H 544.712 -3.42355 -1.47809 0
M  V30 6027 N 546.897 -0.0685191 -1.57451 0
M  V30 6028 C 548.174 0.642167 -1.84758 0
M  V30 6029 C 548.554 1.87991 -0.960344 0
M  V30 6030 O 547.902 2.28485 -0.0257894 0
M  V30 6031 C 548.112 0.982946 -3.34872 0
M  V30 6032 C 549.46 1.35784 -4.02303 0
M  V30 6033 O 550.484 1.07477 -3.39598 0
M  V30 6034 O 549.343 1.88681 -5.12895 0
M  V30 6035 H 546.437 0.318625 -0.763156 0
M  V30 6036 H 548.983 -0.0992015 -1.6941 0
M  V30 6037 H 547.755 0.10372 -3.91163 0
M  V30 6038 H 547.378 1.78119 -3.55471 0
M  V30 6039 N 548.375 1.56261 0.205012 0
M  V30 6040 C 549.308 1.88797 1.28183 0
M  V30 6041 C 550.286 0.747018 1.44424 0
M  V30 6042 O 551.47 0.997039 1.59973 0
M  V30 6043 C 548.597 2.10949 2.64987 0
M  V30 6044 C 547.643 3.33649 2.6567 0
M  V30 6045 S 548.476 4.89078 2.18088 0
M  V30 6046 C 549.632 5.14286 3.56736 0
M  V30 6047 H 549.865 2.79837 1.00393 0
M  V30 6048 H 547.398 1.48911 0.408042 0
M  V30 6049 H 549.356 2.24395 3.4374 0
M  V30 6050 H 548.017 1.20678 2.89993 0
M  V30 6051 H 547.21 3.46245 3.66239 0
M  V30 6052 H 546.812 3.19146 1.94992 0
M  V30 6053 H 549.104 5.04198 4.52537 0
M  V30 6054 H 550.047 6.16096 3.49043 0
M  V30 6055 H 550.455 4.41957 3.51189 0
M  V30 6056 N 549.853 -0.472356 1.50355 0
M  V30 6057 C 551.13 -1.23356 1.51798 0
M  V30 6058 C 551.51 -2.09469 0.26193 0
M  V30 6059 O 550.858 -2.15677 -0.754691 0
M  V30 6060 C 551.068 -2.06568 2.81302 0
M  V30 6061 C 552.416 -2.648 3.31913 0
M  V30 6062 O 553.44 -2.16812 2.82614 0
M  V30 6063 O 552.299 -3.52231 4.17846 0
M  V30 6064 H 549.393 -0.559707 0.608816 0
M  V30 6065 H 551.939 -0.48428 1.62643 0
M  V30 6066 H 550.711 -1.43103 3.64194 0
M  V30 6067 H 550.334 -2.88633 2.73454 0
M  V30 6068 N 551.331 -1.39911 -0.725443 0
M  V30 6069 C 552.608 -1.28158 -1.47766 0
M  V30 6070 C 552.988 0.104545 -2.10841 0
M  V30 6071 O 552.336 1.11657 -1.99361 0
M  V30 6072 C 552.546 -2.41306 -2.52135 0
M  V30 6073 C 553.894 -2.81076 -3.18247 0
M  V30 6074 O 554.918 -2.40827 -2.62452 0
M  V30 6075 O 553.777 -3.50581 -4.19231 0
M  V30 6076 H 550.871 -0.502761 -0.656628 0
M  V30 6077 H 553.417 -1.51808 -0.758456 0
M  V30 6078 H 552.189 -3.33932 -2.03974 0
M  V30 6079 H 551.812 -2.19374 -3.31603 0
M  V30 6080 N 552.809 0.956637 -1.25245 0
M  V30 6081 C 553.719 2.0868 -1.0719 0
M  V30 6082 C 554.735 1.73997 -0.00959074 0
M  V30 6083 O 555.911 2.00301 -0.210104 0
M  V30 6084 C 552.976 3.39754 -0.690526 0
M  V30 6085 C 552.037 3.88316 -1.83055 0
M  V30 6086 C 551.27 5.13134 -1.46728 0
M  V30 6087 O 551.493 5.6925 -0.362029 0
M  V30 6088 O 550.427 5.56356 -2.29677 0
M  V30 6089 H 554.253 2.26813 -2.01965 0
M  V30 6090 H 551.838 1.07098 -1.04165 0
M  V30 6091 H 553.72 4.18543 -0.489871 0
M  V30 6092 H 552.395 3.22896 0.227981 0
M  V30 6093 H 551.302 3.1054 -2.08604 0
M  V30 6094 H 552.635 4.09669 -2.72822 0
M  V30 6095 N 554.287 1.06798 1.15896 0
M  V30 6096 C 555.533 0.788934 1.86825 0
M  V30 6097 C 555.866 -0.683084 1.8179 0
M  V30 6098 O 555.141 -1.50086 1.23711 0
M  V30 6099 C 555.424 1.29065 3.36176 0
M  V30 6100 C 555.277 2.8268 3.49874 0
M  V30 6101 C 556.596 0.902655 4.30744 0
M  V30 6102 H 553.715 0.288066 0.678371 0
M  V30 6103 H 556.357 1.32479 1.36195 0
M  V30 6104 H 554.507 0.834806 3.79425 0
M  V30 6105 H 556.179 3.36511 3.15528 0
M  V30 6106 H 554.422 3.21157 2.91617 0
M  V30 6107 H 555.093 3.12852 4.54783 0
M  V30 6108 H 557.569 1.29535 3.95424 0
M  V30 6109 H 556.445 1.28111 5.3374 0
M  V30 6110 H 556.706 -0.191951 4.41683 0
M  V30 6111 N 555.766 -1.3263 0.851289 0
M  V30 6112 C 557.182 -1.50162 0.5407 0
M  V30 6113 C 557.382 -1.78788 -0.929369 0
M  V30 6114 O 556.438 -1.85545 -1.71258 0
M  V30 6115 C 557.751 -2.64803 1.42478 0
M  V30 6116 C 559.299 -2.78688 1.42485 0
M  V30 6117 C 559.774 -3.96405 2.29407 0
M  V30 6118 N 561.265 -4.0366 2.27184 0
M  V30 6119 C 562 -4.93971 2.9117 0
M  V30 6120 N 561.496 -5.89313 3.64256 0
M  V30 6121 N 563.289 -4.87066 2.80576 0
M  V30 6122 H 555.44 -1.12315 1.80275 0
M  V30 6123 H 557.703 -0.553266 0.769806 0
M  V30 6124 H 557.409 -2.50368 2.46999 0
M  V30 6125 H 557.283 -3.60506 1.10974 0
M  V30 6126 H 559.67 -2.92547 0.387304 0
M  V30 6127 H 559.751 -1.83708 1.78002 0
M  V30 6128 H 559.395 -3.83304 3.33228 0
M  V30 6129 H 559.325 -4.90654 1.91224 0
M  V30 6130 H 561.816 -3.35435 1.74045 0
M  V30 6131 H 562.129 -6.54913 4.10255 0
M  V30 6132 H 560.474 -5.8935 3.68364 0
M  V30 6133 H 563.665 -4.11552 2.23031 0
M  V30 6134 H 563.838 -5.57248 3.30725 0
M  V30 6135 N 557.244 -0.608902 -1.45362 0
M  V30 6136 C 558.154 0.110969 -2.34337 0
M  V30 6137 C 559.17 0.859007 -1.51318 0
M  V30 6138 O 560.346 0.816296 -1.84116 0
M  V30 6139 C 557.411 1.09494 -3.28956 0
M  V30 6140 C 556.472 0.348718 -4.27881 0
M  V30 6141 C 555.705 1.28582 -5.17979 0
M  V30 6142 O 555.928 2.52369 -5.11533 0
M  V30 6143 O 554.862 0.782172 -5.96796 0
M  V30 6144 H 558.688 -0.620258 -2.97299 0
M  V30 6145 H 556.273 -0.36916 -1.44767 0
M  V30 6146 H 558.155 1.66163 -3.87257 0
M  V30 6147 H 556.83 1.80717 -2.68557 0
M  V30 6148 H 555.737 -0.260465 -3.73192 0
M  V30 6149 H 557.07 -0.323049 -4.91139 0
M  V30 6150 N 558.722 1.53707 -0.348139 0
M  V30 6151 C 559.947 2.05877 0.250883 0
M  V30 6152 C 560.372 1.22115 1.43072 0
M  V30 6153 O 559.73 0.235986 1.79758 0
M  V30 6154 C 559.778 3.54886 0.639416 0
M  V30 6155 O 558.882 3.73948 1.73888 0
M  V30 6156 H 558.223 0.662754 0.040653 0
M  V30 6157 H 560.753 1.98303 -0.503685 0
M  V30 6158 H 560.763 3.97601 0.915295 0
M  V30 6159 H 559.438 4.153 -0.223386 0
M  V30 6160 H 558.015 3.43134 1.45991 0
M  V30 6161 N 560.2 0.0768682 1.57412 0
M  V30 6162 C 561.616 -0.279772 1.57129 0
M  V30 6163 C 561.816 -1.69688 1.08666 0
M  V30 6164 O 560.872 -2.40953 0.754843 0
M  V30 6165 C 562.185 -0.0848055 3.0058 0
M  V30 6166 C 563.733 -0.153954 3.12621 0
M  V30 6167 C 564.208 0.0127946 4.57998 0
M  V30 6168 N 565.699 -0.0426435 4.6318 0
M  V30 6169 C 566.434 0.0618892 5.73367 0
M  V30 6170 N 565.93 0.220229 6.9245 0
M  V30 6171 N 567.723 0.00446072 5.621 0
M  V30 6172 H 559.874 1.00297 1.87228 0
M  V30 6173 H 562.137 0.391565 0.863354 0
M  V30 6174 H 561.843 0.89325 3.40168 0
M  V30 6175 H 561.717 -0.834961 3.67843 0
M  V30 6176 H 564.104 -1.1225 2.72917 0
M  V30 6177 H 564.185 0.627389 2.47987 0
M  V30 6178 H 563.829 0.978128 4.98392 0
M  V30 6179 H 563.759 -0.788016 5.20671 0
M  V30 6180 H 566.25 -0.163226 3.77547 0
M  V30 6181 H 566.563 0.291999 7.72248 0
M  V30 6182 H 564.908 0.255658 6.9453 0
M  V30 6183 H 568.099 -0.117979 4.67951 0
M  V30 6184 H 568.272 0.0893796 6.47938 0
M  V30 6185 N 561.678 -1.56367 -0.196722 0
M  V30 6186 C 562.925 -1.80529 -0.917366 0
M  V30 6187 C 563.253 -0.649817 -1.83324 0
M  V30 6188 O 562.508 0.36451 -1.92275 0
M  V30 6189 C 562.807 -3.10663 -1.767 0
M  V30 6190 C 562.473 -4.3962 -1.00225 0
M  V30 6191 C 561.135 -4.74653 -0.791095 0
M  V30 6192 C 563.487 -5.1913 -0.464035 0
M  V30 6193 C 560.815 -5.86692 -0.0302155 0
M  V30 6194 C 563.167 -6.31964 0.283625 0
M  V30 6195 C 561.831 -6.65581 0.505813 0
M  V30 6196 H 561.101 -0.660602 -0.335688 0
M  V30 6197 H 563.748 -1.90615 -0.183844 0
M  V30 6198 H 562.053 -2.95807 -2.56915 0
M  V30 6199 H 563.75 -3.26563 -2.32718 0
M  V30 6200 H 560.34 -4.12127 -1.17684 0
M  V30 6201 H 564.524 -4.9248 -0.614575 0
M  V30 6202 H 559.78 -6.11211 0.151917 0
M  V30 6203 H 563.954 -6.92791 0.708057 0
M  V30 6204 H 561.581 -7.52239 1.0973 0
M  V30 6205 N 563.156 0.464375 -1.50603 0
M  V30 6206 C 564.381 1.24372 -1.65971 0
M  V30 6207 C 564.806 1.84901 -0.345453 0
M  V30 6208 O 564.164 1.67596 0.691457 0
M  V30 6209 C 564.212 2.32331 -2.7578 0
M  V30 6210 O 563.316 3.37146 -2.375 0
M  V30 6211 H 562.657 0.365604 -0.554283 0
M  V30 6212 H 565.187 0.55183 -1.97018 0
M  V30 6213 H 565.197 2.77539 -2.99059 0
M  V30 6214 H 563.872 1.87648 -3.71162 0
M  V30 6215 H 562.449 2.97602 -2.24694 0
M  V30 6216 N 564.634 1.40294 0.718013 0
M  V30 6217 C 565.881 1.3844 1.47786 0
M  V30 6218 C 566.209 -0.0140838 1.94495 0
M  V30 6219 O 565.464 -0.998165 1.68331 0
M  V30 6220 C 565.763 2.31814 2.72024 0
M  V30 6221 C 565.429 3.79117 2.44093 0
M  V30 6222 C 564.091 4.19249 2.36185 0
M  V30 6223 C 566.443 4.72212 2.20602 0
M  V30 6224 C 563.771 5.50516 2.02851 0
M  V30 6225 C 566.123 6.03775 1.88781 0
M  V30 6226 C 564.787 6.42953 1.79354 0
M  V30 6227 H 564.057 0.506588 0.540786 0
M  V30 6228 H 566.704 1.72929 0.822663 0
M  V30 6229 H 565.009 1.90501 3.42369 0
M  V30 6230 H 566.706 2.27664 3.30106 0
M  V30 6231 H 563.296 3.47318 2.51133 0
M  V30 6232 H 567.48 4.42026 2.25669 0
M  V30 6233 H 562.736 5.79776 1.94088 0
M  V30 6234 H 566.91 6.75428 1.69617 0
M  V30 6235 H 564.537 7.44584 1.53291 0
M  V30 6236 N 566.112 -0.949982 1.2575 0
M  V30 6237 C 567.34 -1.72972 1.13527 0
M  V30 6238 C 567.755 -1.8623 -0.310453 0
M  V30 6239 O 567.112 -1.36336 -1.2132 0
M  V30 6240 C 567.163 -3.14108 1.78936 0
M  V30 6241 O 566.884 -3.01493 3.17858 0
M  V30 6242 C 568.385 -4.08338 1.72554 0
M  V30 6243 H 565.605 -0.541864 0.395758 0
M  V30 6244 H 568.149 -1.19151 1.66202 0
M  V30 6245 H 566.304 -3.64858 1.30221 0
M  V30 6246 H 566.718 -3.90559 3.50092 0
M  V30 6247 H 568.192 -5.04963 2.22973 0
M  V30 6248 H 568.669 -4.33742 0.690251 0
M  V30 6249 H 569.275 -3.63506 2.2078 0
M  V30 6250 N 567.59 -1.07411 -1.15328 0
M  V30 6251 C 568.553 -0.698914 -2.18284 0
M  V30 6252 C 569.553 0.261149 -1.58665 0
M  V30 6253 O 570.743 0.0420277 -1.74149 0
M  V30 6254 C 567.875 -0.0302427 -3.40887 0
M  V30 6255 H 569.068 -1.61045 -2.52991 0
M  V30 6256 H 566.621 -0.870724 -1.298 0
M  V30 6257 H 567.356 0.893505 -3.11748 0
M  V30 6258 H 567.141 -0.720759 -3.85419 0
M  V30 6259 H 568.631 0.21759 -4.17033 0
M  V30 6260 N 569.068 1.32177 -0.85831 0
M  V30 6261 C 570.298 2.01021 -0.476889 0
M  V30 6262 C 570.706 1.64653 0.931995 0
M  V30 6263 O 570.049 0.865713 1.62022 0
M  V30 6264 C 570.111 3.55413 -0.540528 0
M  V30 6265 C 569.775 4.1522 -1.90895 0
M  V30 6266 C 570.772 4.3318 -2.87491 0
M  V30 6267 C 568.457 4.51212 -2.20709 0
M  V30 6268 C 570.451 4.86306 -4.1205 0
M  V30 6269 C 568.138 5.04042 -3.45521 0
M  V30 6270 C 569.136 5.21538 -4.41007 0
M  V30 6271 O 568.824 5.73238 -5.63608 0
M  V30 6272 H 568.556 0.650059 -0.18547 0
M  V30 6273 H 571.11 1.69648 -1.15796 0
M  V30 6274 H 569.34 3.86196 0.19741 0
M  V30 6275 H 571.029 4.05526 -0.174191 0
M  V30 6276 H 571.795 4.05704 -2.65762 0
M  V30 6277 H 567.674 4.36878 -1.4717 0
M  V30 6278 H 571.218 4.99877 -4.86589 0
M  V30 6279 H 567.115 5.30952 -3.67098 0
M  V30 6280 H 567.883 5.91625 -5.65617 0
M  V30 6281 N 570.547 0.616602 1.45037 0
M  V30 6282 C 571.795 0.115103 2.01772 0
M  V30 6283 C 572.116 -1.2622 1.48639 0
M  V30 6284 O 571.386 -1.83563 0.684199 0
M  V30 6285 H 569.966 0.0395607 0.745952 0
M  V30 6286 H 572.628 0.800032 1.77723 0
M  V30 6287 H 571.724 0.0717274 3.12018 0
M  V30 6288 N 572.025 -1.5352 0.356285 0
M  V30 6289 C 572.958 -2.2177 -0.537913 0
M  V30 6290 C 573.936 -1.20626 -1.09033 0
M  V30 6291 O 575.12 -1.49494 -1.1482 0
M  V30 6292 C 572.247 -2.90513 -1.74126 0
M  V30 6293 C 571.293 -4.05652 -1.31715 0
M  V30 6294 S 572.126 -5.34505 -0.326236 0
M  V30 6295 C 573.282 -6.06757 -1.53612 0
M  V30 6296 H 573.515 -2.97271 0.0417411 0
M  V30 6297 H 571.048 -1.53761 0.140372 0
M  V30 6298 H 573.006 -3.30735 -2.43155 0
M  V30 6299 H 571.667 -2.14754 -2.29215 0
M  V30 6300 H 570.86 -4.52733 -2.21471 0
M  V30 6301 H 570.462 -3.67272 -0.706183 0
M  V30 6302 H 572.754 -6.30924 -2.46863 0
M  V30 6303 H 573.697 -6.99395 -1.10687 0
M  V30 6304 H 574.105 -5.3708 -1.73796 0
M  V30 6305 N 573.503 -0.0852151 -1.57369 0
M  V30 6306 C 574.751 0.579658 -1.93609 0
M  V30 6307 C 575.072 1.69332 -0.967043 0
M  V30 6308 O 574.342 1.95892 -0.0174215 0
M  V30 6309 H 572.922 0.217113 -0.714752 0
M  V30 6310 H 575.584 -0.146226 -1.94351 0
M  V30 6311 H 574.68 0.996276 -2.95771 0
M  V30 6312 N 574.981 1.5647 0.188427 0
M  V30 6313 C 576.392 1.70864 0.752494 0
M  V30 6314 C 576.743 0.692905 1.83557 0
M  V30 6315 O 575.868 -0.149307 2.15884 0
M  V30 6316 C 576.463 3.09789 1.37173 0
M  V30 6317 C 575.022 3.25925 1.88281 0
M  V30 6318 C 574.169 2.66817 0.755259 0
M  V30 6319 H 577.12 1.58657 -0.0367408 0
M  V30 6320 H 577.141 3.07489 2.24122 0
M  V30 6321 H 576.653 3.83693 0.583219 0
M  V30 6322 H 574.754 2.56948 2.6983 0
M  V30 6323 H 574.867 4.33498 2.04001 0
M  V30 6324 H 573.231 2.2617 1.17128 0
M  V30 6325 H 574.014 3.43294 -0.0211237 0
M  V30 6326 N 576.459 -0.456382 1.50847 0
M  V30 6327 C 577.699 -1.21704 1.64218 0
M  V30 6328 C 578.063 -1.88932 0.341859 0
M  V30 6329 O 579.264 -2.66497 0.351137 0
M  V30 6330 C 577.535 -2.22162 2.79962 0
M  V30 6331 S 579.094 -3.0697 3.13552 0
M  V30 6332 H 575.912 -0.412995 0.578754 0
M  V30 6333 H 578.514 -0.511637 1.88686 0
M  V30 6334 H 577.218 -1.71379 3.72904 0
M  V30 6335 H 576.749 -2.9731 2.57624 0
M  V30 6336 H 578.764 -4.23539 2.58513 0
M  V30 6337 N 577.937 -1.40673 -0.710563 0
M  V30 6338 C 578.867 -1.44095 -1.83736 0
M  V30 6339 C 579.848 -0.301286 -1.67411 0
M  V30 6340 O 581.033 -0.510618 -1.87367 0
M  V30 6341 C 578.163 -1.30773 -3.21738 0
M  V30 6342 C 577.117 -2.42395 -3.52745 0
M  V30 6343 C 576.443 -2.14147 -4.89944 0
M  V30 6344 C 577.743 -3.84738 -3.53234 0
M  V30 6345 H 579.437 -2.38396 -1.81129 0
M  V30 6346 H 576.983 -1.14746 -0.870017 0
M  V30 6347 H 578.936 -1.31783 -4.00264 0
M  V30 6348 H 577.66 -0.329507 -3.24934 0
M  V30 6349 H 576.319 -2.40643 -2.76562 0
M  V30 6350 H 575.967 -1.14703 -4.89747 0
M  V30 6351 H 575.667 -2.88934 -5.11655 0
M  V30 6352 H 577.191 -2.16848 -5.70797 0
M  V30 6353 H 578.605 -3.88286 -4.2179 0
M  V30 6354 H 577.002 -4.59085 -3.86473 0
M  V30 6355 H 578.072 -4.13962 -2.52514 0
M  V30 6356 N 579.415 0.9433 -1.26252 0
M  V30 6357 C 580.347 2.04542 -1.03417 0
M  V30 6358 C 581.36 1.62799 0.0046911 0
M  V30 6359 O 582.549 1.76944 -0.235146 0
M  V30 6360 C 579.649 3.34511 -0.543671 0
M  V30 6361 C 578.822 4.05033 -1.65128 0
M  V30 6362 C 577.881 5.13273 -1.1592 0
M  V30 6363 O 576.907 5.38095 -1.85586 0
M  V30 6364 N 578.109 5.805 -0.00649279 0
M  V30 6365 H 580.874 2.24699 -1.98319 0
M  V30 6366 H 578.435 1.11264 -1.1761 0
M  V30 6367 H 580.427 4.04212 -0.198703 0
M  V30 6368 H 578.997 3.11042 0.311711 0
M  V30 6369 H 578.217 3.29275 -2.16729 0
M  V30 6370 H 579.505 4.48903 -2.39508 0
M  V30 6371 H 578.903 5.62767 0.575347 0
M  V30 6372 H 577.46 6.51201 0.279416 0
M  V30 6373 N 580.893 1.08022 1.14757 0
M  V30 6374 C 581.856 0.71048 2.1791 0
M  V30 6375 C 582.856 -0.252731 1.58801 0
M  V30 6376 O 584.046 -0.0327915 1.74169 0
M  V30 6377 C 581.178 0.0483203 3.40866 0
M  V30 6378 H 582.371 1.62384 2.52134 0
M  V30 6379 H 579.924 0.877595 1.29337 0
M  V30 6380 H 580.659 -0.876959 3.12218 0
M  V30 6381 H 580.444 0.741189 3.85031 0
M  V30 6382 H 581.934 -0.195471 4.17142 0
M  V30 6383 N 582.371 -1.3172 0.865308 0
M  V30 6384 C 583.318 -2.2863 0.315736 0
M  V30 6385 C 584.288 -1.55524 -0.583213 0
M  V30 6386 O 585.473 -1.83694 -0.51585 0
M  V30 6387 C 582.613 -3.41735 -0.480773 0
M  V30 6388 C 581.726 -4.297 0.445167 0
M  V30 6389 C 580.861 -5.29944 -0.365012 0
M  V30 6390 C 579.9 -6.09554 0.557651 0
M  V30 6391 N 579.037 -7.01768 -0.215994 0
M  V30 6392 H 583.877 -2.75026 1.14736 0
M  V30 6393 H 581.414 -1.35302 0.577209 0
M  V30 6394 H 583.372 -4.06045 -0.958306 0
M  V30 6395 H 582.002 -2.96461 -1.27714 0
M  V30 6396 H 581.054 -3.65875 1.04113 0
M  V30 6397 H 582.366 -4.85295 1.15284 0
M  V30 6398 H 581.52 -5.99908 -0.905255 0
M  V30 6399 H 580.259 -4.74994 -1.106 0
M  V30 6400 H 579.264 -5.38485 1.10969 0
M  V30 6401 H 580.489 -6.66591 1.29742 0
M  V30 6402 H 578.435 -6.49232 -0.939878 0
M  V30 6403 H 578.352 -7.54762 0.432431 0
M  V30 6404 H 579.62 -7.76002 -0.737618 0
M  V30 6405 N 583.85 -0.624285 -1.44708 0
M  V30 6406 C 585.127 -0.0572781 -1.95516 0
M  V30 6407 C 585.507 1.41516 -1.56641 0
M  V30 6408 O 584.855 2.12614 -0.837111 0
M  V30 6409 C 585.065 -0.272944 -3.47931 0
M  V30 6410 C 586.413 -0.162529 -4.24289 0
M  V30 6411 O 587.437 -0.203946 -3.55616 0
M  V30 6412 O 586.296 -0.0616847 -5.46465 0
M  V30 6413 H 583.389 0.0262219 -0.826584 0
M  V30 6414 H 585.936 -0.695512 -1.54793 0
M  V30 6415 H 584.707 -1.29492 -3.69253 0
M  V30 6416 H 584.331 0.399756 -3.95585 0
M  V30 6417 N 585.328 1.53329 -0.364422 0
M  V30 6418 C 586.576 2.00842 0.225189 0
M  V30 6419 C 586.897 1.25345 1.49378 0
M  V30 6420 O 586.167 0.366396 1.92443 0
M  V30 6421 H 584.747 0.742009 0.0862027 0
M  V30 6422 H 587.409 1.8863 -0.490389 0
M  V30 6423 H 586.505 3.08795 0.452987 0
M  V30 6424 N 586.806 0.0935595 1.57322 0
M  V30 6425 C 587.739 -0.902505 2.09595 0
M  V30 6426 C 588.717 -1.27732 1.00615 0
M  V30 6427 O 589.901 -1.38283 1.28102 0
M  V30 6428 C 587.028 -2.20416 2.57166 0
M  V30 6429 C 586.074 -1.97932 3.7779 0
M  V30 6430 S 586.907 -1.21873 5.21447 0
M  V30 6431 C 588.063 -2.53273 5.72367 0
M  V30 6432 H 588.296 -0.457797 2.93754 0
M  V30 6433 H 585.829 -0.119694 1.53935 0
M  V30 6434 H 587.787 -2.95217 2.85232 0
M  V30 6435 H 586.448 -2.62008 1.73235 0
M  V30 6436 H 585.641 -2.94316 4.09138 0
M  V30 6437 H 585.243 -1.3126 3.5021 0
M  V30 6438 H 587.535 -3.49256 5.8054 0
M  V30 6439 H 588.478 -2.26505 6.70896 0
M  V30 6440 H 588.886 -2.61475 5.00291 0
M  V30 6441 N 588.284 -1.56567 -0.180126 0
M  V30 6442 C 589.512 -1.85618 -0.913972 0
M  V30 6443 C 589.927 -0.677892 -1.7621 0
M  V30 6444 O 589.284 0.353171 -1.7905 0
M  V30 6445 C 589.335 -3.13619 -1.79793 0
M  V30 6446 O 589.056 -4.26906 -0.98402 0
M  V30 6447 C 590.557 -3.55954 -2.64219 0
M  V30 6448 H 587.777 -0.616043 -0.265954 0
M  V30 6449 H 590.321 -2.03681 -0.182872 0
M  V30 6450 H 588.476 -2.97409 -2.48247 0
M  V30 6451 H 588.89 -4.9989 -1.58776 0
M  V30 6452 H 590.364 -4.48444 -3.21873 0
M  V30 6453 H 590.841 -2.79653 -3.38661 0
M  V30 6454 H 591.447 -3.74746 -2.01111 0
M  V30 6455 N 589.762 0.448376 -1.51087 0
M  V30 6456 C 591.173 1.0286 -1.5581 0
M  V30 6457 C 591.524 1.92583 -0.374989 0
M  V30 6458 O 590.649 2.10316 0.509533 0
M  V30 6459 C 591.244 1.87223 -2.8237 0
M  V30 6460 C 589.803 2.40314 -2.897 0
M  V30 6461 C 588.95 1.19238 -2.50355 0
M  V30 6462 H 591.901 0.230075 -1.57023 0
M  V30 6463 H 591.922 2.72553 -2.6551 0
M  V30 6464 H 591.434 1.21894 -3.68461 0
M  V30 6465 H 589.535 3.09129 -2.08014 0
M  V30 6466 H 589.648 2.73866 -3.93108 0
M  V30 6467 H 588.012 1.53428 -2.03303 0
M  V30 6468 H 588.795 0.555367 -3.38778 0
M  V30 6469 N 591.24 1.41047 0.703093 0
M  V30 6470 C 592.187 1.42302 1.81711 0
M  V30 6471 C 593.157 0.278336 1.63751 0
M  V30 6472 O 594.342 0.478266 1.84709 0
M  V30 6473 C 591.482 1.30362 3.19531 0
M  V30 6474 C 590.595 2.54638 3.48975 0
M  V30 6475 C 589.73 2.35047 4.76368 0
M  V30 6476 C 588.769 3.54837 4.98756 0
M  V30 6477 N 587.906 3.34363 6.1737 0
M  V30 6478 H 592.746 2.37516 1.79973 0
M  V30 6479 H 590.283 1.1795 0.878983 0
M  V30 6480 H 592.241 1.21443 3.99134 0
M  V30 6481 H 590.871 0.387602 3.20464 0
M  V30 6482 H 589.923 2.74037 2.63833 0
M  V30 6483 H 591.235 3.43766 3.61423 0
M  V30 6484 H 590.389 2.23552 5.64012 0
M  V30 6485 H 589.128 1.43363 4.66153 0
M  V30 6486 H 588.133 3.66795 4.09563 0
M  V30 6487 H 589.358 4.47464 5.10835 0
M  V30 6488 H 587.304 2.45373 6.08382 0
M  V30 6489 H 587.221 4.17063 6.30551 0
M  V30 6490 H 588.489 3.26626 7.07768 0
M  V30 6491 N 592.718 -0.936591 1.26751 0
M  V30 6492 C 593.966 -1.67998 1.12343 0
M  V30 6493 C 594.287 -1.92137 -0.332938 0
M  V30 6494 O 593.557 -1.52132 -1.23421 0
M  V30 6495 H 592.137 -0.622609 0.412756 0
M  V30 6496 H 594.799 -1.12509 1.59147 0
M  V30 6497 H 593.895 -2.65185 1.64571 0
M  V30 6498 N 594.196 -1.08629 -1.14182 0
M  V30 6499 C 595.607 -0.838003 -1.66836 0
M  V30 6500 C 595.958 0.634885 -1.85644 0
M  V30 6501 O 595.083 1.49008 -1.56926 0
M  V30 6502 C 595.678 -1.51465 -3.03058 0
M  V30 6503 C 594.237 -1.31355 -3.52736 0
M  V30 6504 C 593.384 -1.57599 -2.28162 0
M  V30 6505 H 596.335 -1.24656 -0.982165 0
M  V30 6506 H 596.356 -0.943134 -3.68626 0
M  V30 6507 H 595.868 -2.58661 -2.89337 0
M  V30 6508 H 593.969 -0.262384 -3.71675 0
M  V30 6509 H 594.082 -2.04275 -4.33369 0
M  V30 6510 H 592.446 -0.997659 -2.34348 0
M  V30 6511 H 593.229 -2.66006 -2.17015 0
M  V30 6512 N 595.674 1.31259 -0.872281 0
M  V30 6513 C 596.622 2.30404 -0.318897 0
M  V30 6514 C 597.616 1.5962 0.567267 0
M  V30 6515 O 598.822 1.74204 0.453111 0
M  V30 6516 H 595.197 0.747243 -0.0844474 0
M  V30 6517 H 597.168 2.74549 -1.16899 0
M  V30 6518 C 595.917 3.44608 0.462683 0
M  V30 6519 H 595.24 3.99248 -0.209936 0
M  V30 6520 H 596.68 4.1609 0.815187 0
M  V30 6521 C 595.139 2.93456 1.65485 0
M  V30 6522 O 595.669 2.92418 2.75417 0
M  V30 6523 N 593.875 2.49628 1.48776 0
M  V30 6524 H 593.422 2.50671 0.593452 0
M  V30 6525 H 593.38 2.15759 2.28682 0
M  V30 6526 N 597.152 0.631951 1.44375 0
M  V30 6527 C 598.102 -0.0943862 2.27805 0
M  V30 6528 C 599.086 -0.815359 1.38711 0
M  V30 6529 O 600.278 -0.701331 1.62513 0
M  V30 6530 C 597.407 -1.07472 3.26044 0
M  V30 6531 C 596.493 -0.353329 4.22626 0
M  V30 6532 N 596.884 0.618512 5.02004 0
M  V30 6533 C 595.182 -0.597662 4.41977 0
M  V30 6534 C 595.883 1.0448 5.7224 0
M  V30 6535 N 594.859 0.383413 5.42246 0
M  V30 6536 H 598.661 0.651672 2.86584 0
M  V30 6537 H 596.175 0.45752 1.55822 0
M  V30 6538 H 598.172 -1.60969 3.84571 0
M  V30 6539 H 596.832 -1.82107 2.68825 0
M  V30 6540 H 597.843 0.996356 5.08226 0
M  V30 6541 H 594.52 -1.32682 3.95856 0
M  V30 6542 H 595.91 1.84773 6.45994 0
M  V30 6543 N 598.631 -1.53133 0.372548 0
M  V30 6544 C 600.042 -1.86404 -0.105155 0
M  V30 6545 C 600.393 -1.29289 -1.47576 0
M  V30 6546 O 599.518 -0.617646 -2.07398 0
M  V30 6547 C 600.113 -3.38223 -0.197588 0
M  V30 6548 C 598.672 -3.71266 -0.619556 0
M  V30 6549 C 597.819 -2.76353 0.228919 0
M  V30 6550 H 600.77 -1.47282 0.591077 0
M  V30 6551 H 600.791 -3.66577 -1.01987 0
M  V30 6552 H 600.303 -3.79763 0.800099 0
M  V30 6553 H 598.404 -3.35287 -1.62522 0
M  V30 6554 H 598.517 -4.77515 -0.389332 0
M  V30 6555 H 596.881 -2.52888 -0.303271 0
M  V30 6556 H 597.664 -3.20728 1.22428 0
M  V30 6557 N 600.109 -0.101901 -1.5727 0
M  V30 6558 C 601.355 0.561027 -1.94885 0
M  V30 6559 C 601.688 1.6741 -0.984258 0
M  V30 6560 O 600.963 1.94491 -0.0184767 0
M  V30 6561 C 601.246 1.10982 -3.42571 0
M  V30 6562 C 601.099 0.00133418 -4.498 0
M  V30 6563 C 602.418 2.00608 -3.9172 0
M  V30 6564 H 599.537 0.202467 -0.708644 0
M  V30 6565 H 602.179 -0.173992 -1.89202 0
M  V30 6566 H 600.329 1.73621 -3.47546 0
M  V30 6567 H 602.001 -0.63322 -4.56933 0
M  V30 6568 H 600.244 -0.664143 -4.28686 0
M  V30 6569 H 600.915 0.426253 -5.50352 0
M  V30 6570 H 603.391 1.47864 -3.88941 0
M  V30 6571 H 602.267 2.3593 -4.95609 0
M  V30 6572 H 602.528 2.92608 -3.3141 0
M  V30 6573 N 601.587 1.56661 0.17182 0
M  V30 6574 C 602.519 1.92934 1.2373 0
M  V30 6575 C 603.532 0.822385 1.40502 0
M  V30 6576 O 604.721 1.10083 1.40514 0
M  V30 6577 C 601.821 2.16651 2.60607 0
M  V30 6578 C 600.994 3.47878 2.6514 0
M  V30 6579 C 600.053 3.60429 3.83377 0
M  V30 6580 O 599.079 4.33051 3.69398 0
M  V30 6581 N 600.281 2.95241 4.99813 0
M  V30 6582 H 603.046 2.84931 0.929205 0
M  V30 6583 H 600.607 1.5781 0.361588 0
M  V30 6584 H 602.599 2.22312 3.38171 0
M  V30 6585 H 601.169 1.3104 2.83809 0
M  V30 6586 H 600.389 3.53879 1.73675 0
M  V30 6587 H 601.677 4.34232 2.6518 0
M  V30 6588 H 601.075 2.3611 5.14071 0
M  V30 6589 H 599.632 3.06499 5.75241 0
M  V30 6590 N 603.065 -0.440357 1.51323 0
M  V30 6591 C 604.311 -1.19181 1.64085 0
M  V30 6592 C 604.644 -1.90936 0.354575 0
M  V30 6593 O 603.919 -1.8347 -0.645675 0
M  V30 6594 C 604.202 -2.2112 2.84215 0
M  V30 6595 C 604.055 -1.53468 4.22809 0
M  V30 6596 C 605.374 -3.22133 2.99864 0
M  V30 6597 H 602.493 -0.431924 0.597169 0
M  V30 6598 H 605.135 -0.481443 1.83799 0
M  V30 6599 H 603.285 -2.81703 2.67537 0
M  V30 6600 H 604.957 -0.962455 4.51148 0
M  V30 6601 H 603.2 -0.837086 4.25647 0
M  V30 6602 H 603.871 -2.27694 5.02852 0
M  V30 6603 H 606.347 -2.71601 3.15233 0
M  V30 6604 H 605.223 -3.90756 3.85488 0
M  V30 6605 H 605.484 -3.88061 2.11804 0
M  V30 6606 N 604.543 -1.41418 -0.695603 0
M  V30 6607 C 605.476 -1.3768 -1.81988 0
M  V30 6608 C 606.454 -0.244061 -1.60758 0
M  V30 6609 O 607.638 -0.430965 -1.83507 0
M  V30 6610 C 604.765 -1.1476 -3.18666 0
M  V30 6611 C 603.811 -2.30752 -3.58686 0
M  V30 6612 S 604.644 -3.9323 -3.63498 0
M  V30 6613 C 605.8 -3.72613 -5.02902 0
M  V30 6614 H 606.033 -2.32822 -1.84882 0
M  V30 6615 H 603.566 -1.27942 -0.86431 0
M  V30 6616 H 605.524 -1.02223 -3.97569 0
M  V30 6617 H 604.185 -0.212385 -3.13381 0
M  V30 6618 H 603.378 -2.10409 -4.57978 0
M  V30 6619 H 602.98 -2.39696 -2.87092 0
M  V30 6620 H 605.272 -3.32317 -5.904 0
M  V30 6621 H 606.215 -4.71507 -5.28286 0
M  V30 6622 H 606.623 -3.0589 -4.74438 0
M  V30 6623 N 606.021 0.929856 -1.27246 0
M  V30 6624 C 607.432 1.49223 -1.12203 0
M  V30 6625 C 607.783 1.93989 0.293731 0
M  V30 6626 O 606.908 1.80978 1.18642 0
M  V30 6627 C 607.503 2.71198 -2.0307 0
M  V30 6628 C 606.062 3.23666 -1.92139 0
M  V30 6629 C 605.209 1.96409 -1.95752 0
M  V30 6630 H 608.16 0.744181 -1.4017 0
M  V30 6631 H 608.181 3.45905 -1.58524 0
M  V30 6632 H 607.693 2.38585 -3.06102 0
M  V30 6633 H 605.794 3.61042 -0.920834 0
M  V30 6634 H 605.907 3.90006 -2.78267 0
M  V30 6635 H 604.271 2.12806 -1.39949 0
M  V30 6636 H 605.054 1.66113 -3.00436 0
M  V30 6637 N 607.499 1.09233 1.13605 0
M  V30 6638 C 608.446 0.729921 2.18954 0
M  V30 6639 C 609.416 -0.287916 1.63586 0
M  V30 6640 O 610.601 -0.170003 1.90041 0
M  V30 6641 C 607.741 0.154489 3.44754 0
M  V30 6642 C 606.854 1.22613 4.14234 0
M  V30 6643 C 605.989 0.613657 5.27644 0
M  V30 6644 C 605.028 1.66674 5.8897 0
M  V30 6645 N 604.165 1.07545 6.93814 0
M  V30 6646 H 609.005 1.63257 2.49302 0
M  V30 6647 H 606.542 0.815693 1.22413 0
M  V30 6648 H 608.5 -0.196923 4.16735 0
M  V30 6649 H 607.13 -0.711433 3.14863 0
M  V30 6650 H 606.182 1.69485 3.40557 0
M  V30 6651 H 607.494 2.0238 4.55899 0
M  V30 6652 H 606.648 0.210976 6.06333 0
M  V30 6653 H 605.387 -0.215584 4.87223 0
M  V30 6654 H 604.392 2.07899 5.08978 0
M  V30 6655 H 605.617 2.49861 6.31464 0
M  V30 6656 H 603.563 0.267451 6.55455 0
M  V30 6657 H 603.48 1.81011 7.3401 0
M  V30 6658 H 604.748 0.698906 7.7636 0
M  V30 6659 N 608.977 -1.30795 0.87923 0
M  V30 6660 C 610.202 -2.01063 0.508769 0
M  V30 6661 C 610.627 -1.65508 -0.893803 0
M  V30 6662 O 609.985 -0.868616 -1.59138 0
M  V30 6663 C 610.033 -3.54054 0.683991 0
M  V30 6664 O 609.137 -4.11498 -0.272654 0
M  V30 6665 H 608.478 -0.632786 0.201191 0
M  V30 6666 H 611.008 -1.66776 1.18519 0
M  V30 6667 H 611.018 -4.03845 0.580798 0
M  V30 6668 H 609.693 -3.79271 1.70665 0
M  V30 6669 H 608.27 -3.72695 -0.12364 0
M  V30 6670 N 610.455 -0.639598 -1.44038 0
M  V30 6671 C 611.866 -0.228866 -1.85292 0
M  V30 6672 C 612.217 1.22161 -1.53529 0
M  V30 6673 O 611.342 1.93064 -0.977518 0
M  V30 6674 C 611.937 -0.408592 -3.36327 0
M  V30 6675 C 610.496 -0.0522953 -3.76364 0
M  V30 6676 C 609.643 -0.717959 -2.67844 0
M  V30 6677 H 612.594 -0.844194 -1.34384 0
M  V30 6678 H 612.615 0.349968 -3.78887 0
M  V30 6679 H 612.127 -1.46435 -3.59414 0
M  V30 6680 H 610.228 1.0014 -3.58891 0
M  V30 6681 H 610.341 -0.468261 -4.76806 0
M  V30 6682 H 608.705 -0.152459 -2.54243 0
M  V30 6683 H 609.488 -1.77648 -2.93762 0
M  V30 6684 N 611.933 1.52934 -0.380664 0
M  V30 6685 C 613.21 1.93845 0.261417 0
M  V30 6686 C 613.59 1.31544 1.65104 0
M  V30 6687 O 612.938 0.480234 2.23397 0
M  V30 6688 C 613.148 3.47739 0.296466 0
M  V30 6689 C 614.496 4.21284 0.529578 0
M  V30 6690 O 615.52 3.54199 0.377041 0
M  V30 6691 O 614.379 5.40195 0.827753 0
M  V30 6692 H 611.473 0.811318 0.160285 0
M  V30 6693 H 614.019 1.64042 -0.434544 0
M  V30 6694 H 612.791 3.85395 -0.67724 0
M  V30 6695 H 612.414 3.8382 1.0377 0
M  V30 6696 N 613.412 0.11024 1.57214 0
M  V30 6697 C 614.322 -0.857077 2.18383 0
M  V30 6698 C 615.338 -1.29915 1.1575 0
M  V30 6699 O 616.514 -1.36394 1.48184 0
M  V30 6700 C 613.579 -2.09264 2.76423 0
M  V30 6701 C 612.64 -1.70333 3.94063 0
M  V30 6702 C 611.873 -2.87999 4.49324 0
M  V30 6703 O 612.096 -4.0317 4.03497 0
M  V30 6704 O 611.03 -2.6559 5.40135 0
M  V30 6705 H 614.856 -0.366561 3.0148 0
M  V30 6706 H 612.441 -0.114914 1.48957 0
M  V30 6707 H 614.323 -2.81644 3.13456 0
M  V30 6708 H 612.998 -2.57339 1.96363 0
M  V30 6709 H 611.905 -0.950864 3.61814 0
M  V30 6710 H 613.238 -1.27007 4.75531 0
M  V30 6711 N 614.89 -1.56749 -0.16351 0
M  V30 6712 C 615.823 -1.9213 -1.23132 0
M  V30 6713 C 616.801 -0.785047 -1.42393 0
M  V30 6714 O 617.985 -1.0391 -1.57273 0
M  V30 6715 C 615.112 -2.17901 -2.59301 0
M  V30 6716 C 614.158 -3.40576 -2.5673 0
M  V30 6717 S 614.991 -4.94689 -2.05045 0
M  V30 6718 C 616.147 -5.23564 -3.42975 0
M  V30 6719 H 616.38 -2.824 -0.929383 0
M  V30 6720 H 613.913 -1.4994 -0.368418 0
M  V30 6721 H 615.871 -2.33429 -3.3767 0
M  V30 6722 H 614.532 -1.28324 -2.86691 0
M  V30 6723 H 613.725 -3.55833 -3.5693 0
M  V30 6724 H 613.327 -3.24204 -1.86462 0
M  V30 6725 H 615.619 -5.16019 -4.3901 0
M  V30 6726 H 616.562 -6.25134 -3.32586 0
M  V30 6727 H 616.97 -4.51113 -3.39348 0
M  V30 6728 N 616.368 0.432326 -1.51554 0
M  V30 6729 C 617.784 0.769195 -1.39841 0
M  V30 6730 C 617.984 1.95584 -0.484675 0
M  V30 6731 O 617.04 2.52433 0.0582829 0
M  V30 6732 C 618.353 1.04487 -2.81963 0
M  V30 6733 C 619.901 1.149 -2.91148 0
M  V30 6734 C 620.376 1.45758 -4.34187 0
M  V30 6735 N 621.867 1.52671 -4.37317 0
M  V30 6736 C 622.602 1.78129 -5.4503 0
M  V30 6737 N 622.098 2.01345 -6.62897 0
M  V30 6738 N 623.891 1.79953 -5.32516 0
M  V30 6739 H 616.042 -0.349122 -2.09511 0
M  V30 6740 H 618.305 -0.0938113 -0.943347 0
M  V30 6741 H 618.011 0.24557 -3.50842 0
M  V30 6742 H 617.885 1.97119 -3.21596 0
M  V30 6743 H 620.272 1.93891 -2.22464 0
M  V30 6744 H 620.353 0.201568 -2.55005 0
M  V30 6745 H 619.997 0.672917 -5.03423 0
M  V30 6746 H 619.927 2.41715 -4.67848 0
M  V30 6747 H 622.418 1.36612 -3.52343 0
M  V30 6748 H 622.731 2.20155 -7.40778 0
M  V30 6749 H 621.076 1.98657 -6.66003 0
M  V30 6750 H 624.267 1.61337 -4.39418 0
M  V30 6751 H 624.44 1.99455 -6.1654 0
M  V30 6752 N 617.846 1.41785 0.688094 0
M  V30 6753 C 618.793 1.44221 1.80191 0
M  V30 6754 C 619.763 0.295688 1.63447 0
M  V30 6755 O 620.948 0.49783 1.84191 0
M  V30 6756 C 618.088 1.33743 3.1813 0
M  V30 6757 C 617.201 2.58325 3.46254 0
M  V30 6758 C 616.336 2.40086 4.73848 0
M  V30 6759 C 615.375 3.60107 4.94964 0
M  V30 6760 N 614.512 3.40892 6.13789 0
M  V30 6761 H 619.352 2.39411 1.77444 0
M  V30 6762 H 616.889 1.18876 0.866423 0
M  V30 6763 H 618.847 1.25669 3.97823 0
M  V30 6764 H 617.477 0.42157 3.20035 0
M  V30 6765 H 616.529 2.7682 2.60912 0
M  V30 6766 H 617.841 3.4758 3.57756 0
M  V30 6767 H 616.995 2.29522 5.61609 0
M  V30 6768 H 615.734 1.483 4.64606 0
M  V30 6769 H 614.739 3.71118 4.05649 0
M  V30 6770 H 615.964 4.52857 5.06061 0
M  V30 6771 H 613.91 2.51812 6.05745 0
M  V30 6772 H 613.827 4.23727 6.26092 0
M  V30 6773 H 615.095 3.34114 7.04264 0
M  V30 6774 N 619.324 -0.923095 1.27737 0
M  V30 6775 C 620.57 -1.67375 1.14514 0
M  V30 6776 C 620.903 -1.91751 -0.307424 0
M  V30 6777 O 620.178 -1.51119 -1.22447 0
M  V30 6778 C 620.461 -3.03745 1.9342 0
M  V30 6779 C 620.314 -2.86581 3.46686 0
M  V30 6780 C 621.633 -4.04144 1.74228 0
M  V30 6781 H 618.752 -0.607427 0.417374 0
M  V30 6782 H 621.394 -1.07089 1.56946 0
M  V30 6783 H 619.544 -3.55204 1.5736 0
M  V30 6784 H 621.216 -2.42203 3.92601 0
M  V30 6785 H 619.459 -2.21829 3.72793 0
M  V30 6786 H 620.13 -3.83381 3.97143 0
M  V30 6787 H 622.606 -3.61712 2.05678 0
M  V30 6788 H 621.482 -4.97543 2.31824 0
M  V30 6789 H 621.743 -4.36661 0.691373 0
M  V30 6790 N 620.802 -1.09834 -1.13024 0
M  V30 6791 C 622.049 -0.83695 -1.84395 0
M  V30 6792 C 622.377 0.637463 -1.83757 0
M  V30 6793 O 621.632 1.48554 -1.27398 0
M  V30 6794 C 621.931 -1.32263 -3.32026 0
M  V30 6795 C 621.597 -2.80739 -3.52841 0
M  V30 6796 C 620.259 -3.21286 -3.5823 0
M  V30 6797 C 622.611 -3.76449 -3.60466 0
M  V30 6798 C 619.939 -4.56308 -3.68781 0
M  V30 6799 C 622.291 -5.11266 -3.72546 0
M  V30 6800 C 620.955 -5.51397 -3.76189 0
M  V30 6801 H 620.225 -0.306262 -0.674748 0
M  V30 6802 H 622.872 -1.37385 -1.33408 0
M  V30 6803 H 621.177 -0.705618 -3.85394 0
M  V30 6804 H 622.874 -1.09695 -3.85705 0
M  V30 6805 H 619.464 -2.48363 -3.49305 0
M  V30 6806 H 623.648 -3.46234 -3.55578 0
M  V30 6807 H 618.904 -4.86832 -3.69871 0
M  V30 6808 H 623.078 -5.85279 -3.77388 0
M  V30 6809 H 620.705 -6.56017 -3.84117 0
M  V30 6810 N 622.28 1.30327 -0.886154 0
M  V30 6811 C 623.529 1.95373 -0.501243 0
M  V30 6812 C 623.842 1.70722 0.954634 0
M  V30 6813 O 625.048 2.29761 1.44644 0
M  V30 6814 C 623.504 3.49828 -0.845493 0
M  V30 6815 C 623.112 3.83296 -2.31922 0
M  V30 6816 C 624.856 4.2118 -0.529838 0
M  V30 6817 C 622.763 5.30935 -2.60504 0
M  V30 6818 H 621.693 0.731274 -0.183722 0
M  V30 6819 H 624.344 1.48258 -1.08129 0
M  V30 6820 H 622.726 3.95522 -0.19452 0
M  V30 6821 H 623.9 3.48508 -3.01461 0
M  V30 6822 H 622.215 3.2505 -2.60253 0
M  V30 6823 H 624.812 5.29825 -0.720401 0
M  V30 6824 H 625.155 4.12902 0.530828 0
M  V30 6825 H 625.688 3.81173 -1.13806 0
M  V30 6826 H 622.427 5.44265 -3.65316 0
M  V30 6827 H 621.947 5.67019 -1.95575 0
M  V30 6828 H 623.626 5.98381 -2.46066 0
M  V30 6829 N 623.758 0.647228 1.43697 0
M  V30 6830 C 625.035 0.0883758 1.954 0
M  V30 6831 C 625.415 -1.39006 1.58873 0
M  V30 6832 O 624.763 -2.11255 0.87083 0
M  V30 6833 C 624.973 0.328263 3.47453 0
M  V30 6834 C 626.321 0.230009 4.23977 0
M  V30 6835 O 627.345 0.260496 3.55246 0
M  V30 6836 O 626.204 0.148615 5.46298 0
M  V30 6837 H 623.298 -0.0130683 0.826897 0
M  V30 6838 H 625.844 0.72005 1.53666 0
M  V30 6839 H 624.616 1.3535 3.67146 0
M  V30 6840 H 624.239 -0.336772 3.96171 0
M  V30 6841 N 625.236 -1.5273 0.388769 0
M  V30 6842 C 626.652 -1.59553 0.0387049 0
M  V30 6843 C 626.852 -1.40278 -1.44652 0
M  V30 6844 O 625.908 -1.21951 -2.21098 0
M  V30 6845 C 627.221 -2.9625 0.515409 0
M  V30 6846 C 628.769 -3.09426 0.471621 0
M  V30 6847 C 629.244 -4.48572 0.924505 0
M  V30 6848 N 630.735 -4.54754 0.880496 0
M  V30 6849 C 631.47 -5.60653 1.20234 0
M  V30 6850 N 630.966 -6.74198 1.59463 0
M  V30 6851 N 632.759 -5.50755 1.12363 0
M  V30 6852 H 624.91 -1.63508 1.35569 0
M  V30 6853 H 627.173 -0.768097 0.555636 0
M  V30 6854 H 626.879 -3.15569 1.5527 0
M  V30 6855 H 626.753 -3.77102 -0.085792 0
M  V30 6856 H 629.14 -2.89804 -0.556588 0
M  V30 6857 H 629.221 -2.30528 1.10862 0
M  V30 6858 H 628.865 -4.68936 1.95094 0
M  V30 6859 H 628.795 -5.25935 0.264524 0
M  V30 6860 H 631.286 -3.73237 0.591815 0
M  V30 6861 H 631.599 -7.5097 1.82385 0
M  V30 6862 H 629.944 -6.75531 1.63349 0
M  V30 6863 H 633.135 -4.6093 0.816169 0
M  V30 6864 H 633.308 -6.33184 1.37777 0
M  V30 6865 N 626.714 -0.118576 -1.57153 0
M  V30 6866 C 627.677 0.817464 -2.14127 0
M  V30 6867 C 628.677 1.1949 -1.07604 0
M  V30 6868 O 629.867 1.12048 -1.33382 0
M  V30 6869 C 626.999 2.10541 -2.68115 0
M  V30 6870 H 628.192 0.322339 -2.98163 0
M  V30 6871 H 625.745 0.130655 -1.55753 0
M  V30 6872 H 626.48 2.64485 -1.87665 0
M  V30 6873 H 626.265 1.84425 -3.4602 0
M  V30 6874 H 627.755 2.77453 -3.12105 0
M  V30 6875 N 628.193 1.56834 0.155195 0
M  V30 6876 C 629.14 1.97646 1.19184 0
M  V30 6877 C 630.11 0.842788 1.4313 0
M  V30 6878 O 631.295 1.1042 1.55602 0
M  V30 6879 C 628.435 2.35527 2.52232 0
M  V30 6880 C 627.548 3.62147 2.35529 0
M  V30 6881 C 626.683 3.89167 3.61555 0
M  V30 6882 C 625.722 5.09084 3.39853 0
M  V30 6883 N 624.859 5.32156 4.5799 0
M  V30 6884 H 629.699 2.8601 0.836802 0
M  V30 6885 H 627.236 1.41507 0.401758 0
M  V30 6886 H 629.194 2.55516 3.29799 0
M  V30 6887 H 627.824 1.50253 2.85699 0
M  V30 6888 H 626.876 3.4998 1.49057 0
M  V30 6889 H 628.188 4.49871 2.15448 0
M  V30 6890 H 627.342 4.09611 4.47553 0
M  V30 6891 H 626.081 2.9985 3.84632 0
M  V30 6892 H 625.086 4.88522 2.52243 0
M  V30 6893 H 626.311 5.99947 3.18183 0
M  V30 6894 H 624.257 4.45791 4.81255 0
M  V30 6895 H 624.174 6.14133 4.40882 0
M  V30 6896 H 625.442 5.57091 5.45225 0
M  V30 6897 N 629.671 -0.424282 1.51781 0
M  V30 6898 C 630.618 -1.51591 1.74037 0
M  V30 6899 C 631.588 -1.55556 0.582358 0
M  V30 6900 O 632.773 -1.72364 0.818245 0
M  V30 6901 C 629.913 -2.89188 1.8832 0
M  V30 6902 C 629.026 -2.9465 3.1592 0
M  V30 6903 C 628.161 -4.23452 3.20721 0
M  V30 6904 C 627.2 -4.22831 4.42584 0
M  V30 6905 N 626.337 -5.43178 4.44862 0
M  V30 6906 H 631.177 -1.31917 2.67212 0
M  V30 6907 H 628.714 -0.640599 1.32419 0
M  V30 6908 H 630.672 -3.69044 1.94583 0
M  V30 6909 H 629.302 -3.07392 0.985402 0
M  V30 6910 H 628.354 -2.07378 3.18902 0
M  V30 6911 H 629.666 -2.90055 4.05795 0
M  V30 6912 H 628.82 -5.1169 3.25973 0
M  V30 6913 H 627.559 -4.30722 2.28757 0
M  V30 6914 H 626.564 -3.32984 4.37495 0
M  V30 6915 H 627.789 -4.17213 5.35826 0
M  V30 6916 H 625.735 -5.51145 3.55775 0
M  V30 6917 H 625.652 -5.40515 5.28563 0
M  V30 6918 H 626.92 -6.33412 4.54324 0
M  V30 6919 N 631.149 -1.42148 -0.680565 0
M  V30 6920 C 632.398 -1.41604 -1.43636 0
M  V30 6921 C 632.711 -0.0337887 -1.95571 0
M  V30 6922 O 633.917 0.0942588 -2.71336 0
M  V30 6923 C 632.373 -2.49056 -2.59806 0
M  V30 6924 C 631.981 -3.9326 -2.14594 0
M  V30 6925 C 633.725 -2.5767 -3.37352 0
M  V30 6926 C 631.632 -4.92232 -3.27813 0
M  V30 6927 H 630.562 -0.526656 -0.539583 0
M  V30 6928 H 633.213 -1.68033 -0.737369 0
M  V30 6929 H 631.595 -2.15782 -3.32045 0
M  V30 6930 H 632.769 -4.35858 -1.49546 0
M  V30 6931 H 631.084 -3.88443 -1.50002 0
M  V30 6932 H 633.681 -3.28794 -4.21662 0
M  V30 6933 H 634.024 -1.61837 -3.83555 0
M  V30 6934 H 634.557 -2.90109 -2.72179 0
M  V30 6935 H 631.296 -5.89522 -2.86607 0
M  V30 6936 H 630.816 -4.5427 -3.91661 0
M  V30 6937 H 632.495 -5.13684 -3.93367 0
M  V30 6938 N 632.627 0.916307 -1.28225 0
M  V30 6939 C 633.904 1.64429 -1.05936 0
M  V30 6940 C 634.284 2.07234 0.402139 0
M  V30 6941 O 633.632 1.81535 1.3877 0
M  V30 6942 C 633.842 2.83773 -2.03159 0
M  V30 6943 C 635.19 3.54852 -2.33164 0
M  V30 6944 O 636.214 2.93918 -2.01223 0
M  V30 6945 O 635.073 4.64663 -2.87664 0
M  V30 6946 H 632.167 0.721221 -0.404683 0
M  V30 6947 H 634.713 0.965838 -1.39534 0
M  V30 6948 H 633.485 2.49217 -3.01673 0
M  V30 6949 H 633.108 3.59333 -1.70192 0
M  V30 6950 N 634.105 1.10431 1.1244 0
M  V30 6951 C 635.333 0.868872 1.87772 0
M  V30 6952 C 635.748 -0.580645 1.7965 0
M  V30 6953 O 635.105 -1.40031 1.17036 0
M  V30 6954 C 635.156 1.30855 3.36986 0
M  V30 6955 O 634.877 2.70123 3.44914 0
M  V30 6956 C 636.378 1.107 4.29256 0
M  V30 6957 H 633.598 0.311868 0.59412 0
M  V30 6958 H 636.142 1.46897 1.42273 0
M  V30 6959 H 634.297 0.752126 3.80029 0
M  V30 6960 H 634.711 2.88923 4.37748 0
M  V30 6961 H 636.185 1.46378 5.32238 0
M  V30 6962 H 636.662 0.0456228 4.39176 0
M  V30 6963 H 637.268 1.64988 3.91994 0
M  V30 6964 N 635.583 -1.29855 0.893053 0
M  V30 6965 C 636.832 -1.95104 0.511597 0
M  V30 6966 C 637.145 -1.71226 -0.945567 0
M  V30 6967 O 638.351 -2.30525 -1.43424 0
M  V30 6968 C 636.807 -3.49374 0.864034 0
M  V30 6969 C 636.415 -3.82061 2.33952 0
M  V30 6970 C 638.159 -4.20894 0.552167 0
M  V30 6971 C 636.066 -5.29546 2.63316 0
M  V30 6972 H 634.996 -0.73029 0.187597 0
M  V30 6973 H 637.647 -1.47682 1.08914 0
M  V30 6974 H 636.029 -3.95413 0.215493 0
M  V30 6975 H 637.203 -3.46904 3.03305 0
M  V30 6976 H 635.518 -3.23665 2.61973 0
M  V30 6977 H 638.115 -5.29435 0.748489 0
M  V30 6978 H 638.458 -4.13178 -0.508924 0
M  V30 6979 H 638.991 -3.80564 1.15825 0
M  V30 6980 H 635.73 -5.4232 3.68197 0
M  V30 6981 H 635.25 -5.65974 1.9858 0
M  V30 6982 H 636.929 -5.97068 2.49236 0
M  V30 6983 N 637.061 -0.65484 -1.43351 0
M  V30 6984 C 638.286 -0.175046 -2.0666 0
M  V30 6985 C 638.711 1.15104 -1.4877 0
M  V30 6986 O 638.069 1.71144 -0.598279 0
M  V30 6987 C 638.117 -0.0991544 -3.60464 0
M  V30 6988 O 637.221 0.938169 -4.01587 0
M  V30 6989 H 636.562 -0.0956148 -0.65708 0
M  V30 6990 H 639.092 -0.898222 -1.83829 0
M  V30 6991 H 639.102 0.083632 -4.07914 0
M  V30 6992 H 637.777 -1.06719 -4.01975 0
M  V30 6993 H 636.354 0.72804 -3.65724 0
M  V30 6994 N 638.539 1.52521 -0.396863 0
M  V30 6995 C 639.955 1.5953 -0.0471659 0
M  V30 6996 C 640.155 1.41044 1.43906 0
M  V30 6997 O 639.211 1.23122 2.20448 0
M  V30 6998 C 640.524 2.95972 -0.531113 0
M  V30 6999 C 642.072 3.09172 -0.488024 0
M  V30 7000 C 642.547 4.48075 -0.948281 0
M  V30 7001 N 644.038 4.54281 -0.9046 0
M  V30 7002 C 644.773 5.60007 -1.23205 0
M  V30 7003 N 644.269 6.73343 -1.63036 0
M  V30 7004 N 646.062 5.50151 -1.15282 0
M  V30 7005 H 638.213 1.62786 -1.36435 0
M  V30 7006 H 640.476 0.76514 -0.559701 0
M  V30 7007 H 640.182 3.14741 -1.56942 0
M  V30 7008 H 640.056 3.77143 0.0657922 0
M  V30 7009 H 642.443 2.90095 0.541211 0
M  V30 7010 H 642.524 2.29937 -1.12083 0
M  V30 7011 H 642.168 4.67894 -1.97578 0
M  V30 7012 H 642.098 5.25788 -0.292412 0
M  V30 7013 H 644.589 3.72918 -0.6116 0
M  V30 7014 H 644.902 7.49992 -1.86365 0
M  V30 7015 H 643.247 6.74655 -1.66929 0
M  V30 7016 H 646.438 4.6049 -0.840602 0
M  V30 7017 H 646.611 6.32444 -1.41133 0
M  V30 7018 N 640.017 0.126909 1.57088 0
M  V30 7019 C 640.98 -0.806097 2.14557 0
M  V30 7020 C 641.98 -1.18918 1.08236 0
M  V30 7021 O 643.17 -1.11339 1.33975 0
M  V30 7022 C 640.302 -2.09116 2.69227 0
M  V30 7023 H 641.495 -0.306522 2.98329 0
M  V30 7024 H 639.048 -0.122393 1.5582 0
M  V30 7025 H 639.783 -2.63486 1.89065 0
M  V30 7026 H 639.568 -1.82588 3.46993 0
M  V30 7027 H 641.058 -2.75794 3.13572 0
M  V30 7028 N 641.495 -1.56914 -0.146875 0
M  V30 7029 C 642.735 -1.85163 -0.86568 0
M  V30 7030 C 643.099 -0.711215 -1.78342 0
M  V30 7031 O 644.3 -0.874754 -2.54168 0
M  V30 7032 C 642.571 -3.18593 -1.61967 0
M  V30 7033 S 644.13 -3.68397 -2.38388 0
M  V30 7034 H 640.948 -0.6494 -0.289483 0
M  V30 7035 H 643.55 -1.95096 -0.125679 0
M  V30 7036 H 642.254 -3.99562 -0.93694 0
M  V30 7037 H 641.785 -3.11666 -2.40058 0
M  V30 7038 H 643.8 -3.37672 -3.63582 0
M  V30 7039 N 642.974 0.416227 -1.52004 0
M  V30 7040 C 644.221 1.16383 -1.65714 0
M  V30 7041 C 644.549 1.9068 -0.383594 0
M  V30 7042 O 643.804 1.85174 0.633185 0
M  V30 7043 C 644.103 2.18923 -2.82502 0
M  V30 7044 C 643.769 1.61485 -4.20991 0
M  V30 7045 C 642.431 1.45545 -4.58661 0
M  V30 7046 C 644.783 1.19468 -5.07323 0
M  V30 7047 C 642.111 0.860937 -5.80349 0
M  V30 7048 C 644.463 0.614386 -6.29609 0
M  V30 7049 C 643.127 0.442056 -6.66035 0
M  V30 7050 H 642.397 0.425875 -0.606392 0
M  V30 7051 H 645.044 0.45199 -1.8609 0
M  V30 7052 H 643.349 2.96225 -2.56433 0
M  V30 7053 H 645.046 2.76628 -2.90307 0
M  V30 7054 H 641.636 1.74873 -3.91302 0
M  V30 7055 H 645.82 1.30596 -4.78809 0
M  V30 7056 H 641.076 0.715372 -6.072 0
M  V30 7057 H 645.25 0.280393 -6.95835 0
M  V30 7058 H 642.877 -0.0207218 -7.60197 0
M  V30 7059 N 644.452 1.42507 0.673017 0
M  V30 7060 C 645.863 1.38347 1.25367 0
M  V30 7061 C 646.214 0.0776327 1.96046 0
M  V30 7062 O 645.339 -0.823571 2.00116 0
M  V30 7063 C 645.934 2.506 2.28002 0
M  V30 7064 C 644.493 2.49767 2.81591 0
M  V30 7065 C 643.64 2.293 1.55938 0
M  V30 7066 H 646.591 1.51695 0.466288 0
M  V30 7067 H 646.612 2.20953 3.09774 0
M  V30 7068 H 646.124 3.45627 1.76532 0
M  V30 7069 H 644.225 1.58563 3.37177 0
M  V30 7070 H 644.338 3.46867 3.30485 0
M  V30 7071 H 642.702 1.77594 1.82572 0
M  V30 7072 H 643.485 3.26385 1.06431 0
M  V30 7073 N 645.93 -0.909495 1.28709 0
M  V30 7074 C 646.86 -2.0291 1.15542 0
M  V30 7075 C 647.841 -1.7002 0.0521017 0
M  V30 7076 O 649.026 -1.92835 0.229849 0
M  V30 7077 C 646.156 -3.37458 0.820935 0
M  V30 7078 C 645.11 -3.84524 1.87949 0
M  V30 7079 C 644.436 -5.16086 1.39854 0
M  V30 7080 C 645.736 -4.05918 3.28676 0
M  V30 7081 H 647.43 -2.14183 2.09203 0
M  V30 7082 H 644.976 -1.02913 1.00722 0
M  V30 7083 H 646.929 -4.1528 0.715571 0
M  V30 7084 H 645.653 -3.26249 -0.151374 0
M  V30 7085 H 644.312 -3.08911 1.97408 0
M  V30 7086 H 643.96 -5.01284 0.41518 0
M  V30 7087 H 643.66 -5.48547 2.1064 0
M  V30 7088 H 645.184 -5.96459 1.30649 0
M  V30 7089 H 646.598 -4.74252 3.22115 0
M  V30 7090 H 644.995 -4.49717 3.97334 0
M  V30 7091 H 646.065 -3.10583 3.72379 0
M  V30 7092 N 647.408 -1.11026 -1.11852 0
M  V30 7093 C 648.371 -0.768006 -2.1595 0
M  V30 7094 C 649.371 0.210538 -1.59416 0
M  V30 7095 O 650.561 -0.0133978 -1.74195 0
M  V30 7096 C 647.693 -0.138678 -3.40618 0
M  V30 7097 H 648.886 -1.69012 -2.4774 0
M  V30 7098 H 646.439 -0.911578 -1.26964 0
M  V30 7099 H 647.174 0.793872 -3.14433 0
M  V30 7100 H 646.959 -0.843012 -3.8293 0
M  V30 7101 H 648.449 0.0848039 -4.17514 0
M  V30 7102 N 648.886 1.2938 -0.899927 0
M  V30 7103 C 650.133 1.9555 -0.525963 0
M  V30 7104 C 650.461 1.70945 0.927789 0
M  V30 7105 O 649.716 1.01545 1.67293 0
M  V30 7106 C 650.015 3.49114 -0.765113 0
M  V30 7107 C 649.681 3.93796 -2.19626 0
M  V30 7108 C 648.343 4.05707 -2.58758 0
M  V30 7109 C 650.695 4.16883 -3.12823 0
M  V30 7110 C 648.023 4.38074 -3.90267 0
M  V30 7111 C 650.375 4.50725 -4.4388 0
M  V30 7112 C 649.039 4.60845 -4.82885 0
M  V30 7113 H 648.309 0.715569 -0.192463 0
M  V30 7114 H 650.956 1.53972 -1.13863 0
M  V30 7115 H 649.261 3.91738 -0.069531 0
M  V30 7116 H 650.958 3.98409 -0.455144 0
M  V30 7117 H 647.548 3.85042 -1.88256 0
M  V30 7118 H 651.732 4.07147 -2.83804 0
M  V30 7119 H 646.988 4.44112 -4.20207 0
M  V30 7120 H 651.162 4.67538 -5.16121 0
M  V30 7121 H 648.789 4.85681 -5.84823 0
M  V30 7122 N 650.364 0.662433 1.43002 0
M  V30 7123 C 651.294 -0.00979809 2.33498 0
M  V30 7124 C 652.275 -0.802329 1.49989 0
M  V30 7125 O 653.46 -0.761964 1.78627 0
M  V30 7126 C 650.59 -0.970446 3.33466 0
M  V30 7127 C 649.544 -0.287383 4.27034 0
M  V30 7128 C 648.87 -1.36012 5.17112 0
M  V30 7129 C 650.17 0.82595 5.15728 0
M  V30 7130 H 651.864 0.745959 2.89958 0
M  V30 7131 H 649.41 0.360172 1.39423 0
M  V30 7132 H 651.363 -1.44971 3.95679 0
M  V30 7133 H 650.087 -1.75748 2.75282 0
M  V30 7134 H 648.746 0.17152 3.66199 0
M  V30 7135 H 648.394 -2.13882 4.55262 0
M  V30 7136 H 648.094 -0.908276 5.80538 0
M  V30 7137 H 649.618 -1.84056 5.82199 0
M  V30 7138 H 651.032 0.42845 5.71697 0
M  V30 7139 H 649.429 1.20282 5.87922 0
M  V30 7140 H 650.499 1.68003 4.54866 0
M  V30 7141 N 651.842 -1.52309 0.404946 0
M  V30 7142 C 653.091 -2.00952 -0.173529 0
M  V30 7143 C 653.404 -1.29512 -1.46581 0
M  V30 7144 O 654.61 -1.6895 -2.12528 0
M  V30 7145 C 653.066 -3.58097 -0.359801 0
M  V30 7146 C 652.674 -4.38449 0.920138 0
M  V30 7147 C 654.418 -4.14984 -0.893794 0
M  V30 7148 C 652.325 -5.87227 0.701285 0
M  V30 7149 H 651.255 -0.750871 -0.0686244 0
M  V30 7150 H 653.906 -1.75687 0.529749 0
M  V30 7151 H 652.288 -3.79675 -1.12531 0
M  V30 7152 H 653.462 -4.28633 1.69147 0
M  V30 7153 H 651.777 -3.92859 1.38024 0
M  V30 7154 H 654.374 -5.23813 -1.0735 0
M  V30 7155 H 654.717 -3.72072 -1.8673 0
M  V30 7156 H 655.25 -3.97358 -0.187453 0
M  V30 7157 H 651.989 -6.34491 1.64624 0
M  V30 7158 H 651.509 -5.99792 -0.0308288 0
M  V30 7159 H 653.188 -6.46096 0.341846 0
M  V30 7160 N 653.32 -0.135238 -1.57019 0
M  V30 7161 C 654.567 0.518794 -1.95742 0
M  V30 7162 C 654.895 1.65642 -1.01947 0
M  V30 7163 O 654.15 1.95645 -0.0464016 0
M  V30 7164 C 654.449 1.07694 -3.40788 0
M  V30 7165 C 654.115 0.058992 -4.50861 0
M  V30 7166 C 652.777 -0.220872 -4.80693 0
M  V30 7167 C 655.129 -0.633856 -5.17331 0
M  V30 7168 C 652.457 -1.19959 -5.74305 0
M  V30 7169 C 654.809 -1.60131 -6.11997 0
M  V30 7170 C 653.473 -1.889 -6.40213 0
M  V30 7171 H 652.743 0.18984 -0.716269 0
M  V30 7172 H 655.39 -0.219581 -1.90237 0
M  V30 7173 H 653.695 1.89241 -3.43067 0
M  V30 7174 H 655.392 1.59137 -3.68071 0
M  V30 7175 H 651.982 0.287304 -4.27636 0
M  V30 7176 H 656.166 -0.430823 -4.94427 0
M  V30 7177 H 651.422 -1.42905 -5.94465 0
M  V30 7178 H 655.596 -2.14376 -6.62583 0
M  V30 7179 H 653.223 -2.64891 -7.12556 0
M  V30 7180 N 654.798 1.5699 0.138552 0
M  V30 7181 C 655.746 1.99858 1.18994 0
M  V30 7182 C 656.74 0.89231 1.43994 0
M  V30 7183 O 657.946 1.0775 1.44187 0
M  V30 7184 H 654.321 0.636325 0.400743 0
M  V30 7185 H 656.292 2.87427 0.801755 0
M  V30 7186 C 655.041 2.40235 2.51361 0
M  V30 7187 H 654.364 3.24917 2.32957 0
M  V30 7188 H 655.804 2.74045 3.23535 0
M  V30 7189 C 654.263 1.25829 3.1252 0
M  V30 7190 O 654.793 0.563604 3.97727 0
M  V30 7191 N 652.999 1.02036 2.72097 0
M  V30 7192 H 652.546 1.58705 2.02905 0
M  V30 7193 H 652.504 0.256796 3.1335 0
M  V30 7194 N 656.276 -0.40816 1.52223 0
M  V30 7195 C 657.525 -1.15212 1.65557 0
M  V30 7196 C 657.838 -1.9163 0.392096 0
M  V30 7197 O 659.044 -2.68458 0.405256 0
M  V30 7198 C 657.5 -2.09691 2.92502 0
M  V30 7199 C 657.108 -1.38785 4.25961 0
M  V30 7200 C 658.852 -2.8434 3.152 0
M  V30 7201 C 656.759 -2.31919 5.44029 0
M  V30 7202 H 655.689 -0.433776 0.616729 0
M  V30 7203 H 658.34 -0.4165 1.78711 0
M  V30 7204 H 656.722 -2.8681 2.7305 0
M  V30 7205 H 657.896 -0.670248 4.55899 0
M  V30 7206 H 656.211 -0.761741 4.09373 0
M  V30 7207 H 658.808 -3.54166 4.00587 0
M  V30 7208 H 659.151 -3.47344 2.29473 0
M  V30 7209 H 659.684 -2.14321 3.35129 0
M  V30 7210 H 656.423 -1.7356 6.32105 0
M  V30 7211 H 655.943 -3.0165 5.18428 0
M  V30 7212 H 657.622 -2.92424 5.77146 0
M  V30 7213 N 657.755 -1.42862 -0.66545 0
M  V30 7214 C 659.002 -1.4383 -1.42546 0
M  V30 7215 C 659.33 -0.0581114 -1.94413 0
M  V30 7216 O 658.585 0.935002 -1.71919 0
M  V30 7217 C 658.884 -2.4175 -2.63233 0
M  V30 7218 C 658.55 -3.87915 -2.29854 0
M  V30 7219 C 657.212 -4.27726 -2.20463 0
M  V30 7220 C 659.564 -4.80074 -2.02924 0
M  V30 7221 C 656.892 -5.57666 -1.82279 0
M  V30 7222 C 659.244 -6.10366 -1.66242 0
M  V30 7223 C 657.908 -6.49167 -1.55367 0
M  V30 7224 H 657.178 -0.52631 -0.521612 0
M  V30 7225 H 659.825 -1.75863 -0.757914 0
M  V30 7226 H 658.13 -2.03077 -3.35063 0
M  V30 7227 H 659.827 -2.39759 -3.21429 0
M  V30 7228 H 656.417 -3.564 -2.3807 0
M  V30 7229 H 660.601 -4.50097 -2.09108 0
M  V30 7230 H 655.857 -5.8658 -1.72436 0
M  V30 7231 H 660.031 -6.81258 -1.44432 0
M  V30 7232 H 657.658 -7.49761 -1.2555 0
M  V30 7233 N 659.233 0.902656 -1.29189 0
M  V30 7234 C 660.463 1.68394 -1.19695 0
M  V30 7235 C 660.871 1.87602 0.245384 0
M  V30 7236 O 660.214 1.41084 1.17648 0
M  V30 7237 C 660.276 3.09094 -1.83578 0
M  V30 7238 C 659.94 3.1313 -3.32864 0
M  V30 7239 C 660.937 2.93497 -4.29134 0
M  V30 7240 C 658.622 3.3529 -3.74013 0
M  V30 7241 C 660.616 2.95953 -5.64527 0
M  V30 7242 C 658.303 3.37377 -5.09529 0
M  V30 7243 C 659.301 3.1773 -6.04596 0
M  V30 7244 O 658.989 3.196 -7.37639 0
M  V30 7245 H 658.721 0.532815 -0.416034 0
M  V30 7246 H 661.275 1.1374 -1.71033 0
M  V30 7247 H 659.505 3.65338 -1.26747 0
M  V30 7248 H 661.194 3.69297 -1.68447 0
M  V30 7249 H 661.96 2.76192 -3.98677 0
M  V30 7250 H 657.839 3.49623 -3.00474 0
M  V30 7251 H 661.383 2.80536 -6.38706 0
M  V30 7252 H 657.28 3.54213 -5.39633 0
M  V30 7253 H 658.048 3.35887 -7.46406 0
M  V30 7254 N 660.711 1.11618 1.11262 0
M  V30 7255 C 661.957 0.877377 1.83504 0
M  V30 7256 C 662.312 -0.590606 1.83111 0
M  V30 7257 O 661.605 -1.43057 1.27456 0
M  V30 7258 C 661.799 1.37529 3.2988 0
M  V30 7259 C 661.628 2.89014 3.4453 0
M  V30 7260 C 660.398 3.57157 3.57445 0
M  V30 7261 C 662.596 3.8706 3.38658 0
M  V30 7262 N 660.578 4.96842 3.60585 0
M  V30 7263 C 661.949 5.12825 3.4844 0
M  V30 7264 C 664.004 3.79593 3.22201 0
M  V30 7265 C 662.707 6.32002 3.43462 0
M  V30 7266 C 664.733 4.98282 3.18542 0
M  V30 7267 C 664.095 6.22901 3.28897 0
M  V30 7268 H 660.194 0.37422 0.686646 0
M  V30 7269 H 662.778 1.42087 1.33114 0
M  V30 7270 H 660.949 0.85895 3.78783 0
M  V30 7271 H 662.681 1.07944 3.90039 0
M  V30 7272 H 659.436 3.07628 3.60086 0
M  V30 7273 H 659.86 5.69674 3.65788 0
M  V30 7274 H 664.502 2.84149 3.1308 0
M  V30 7275 H 662.22 7.27721 3.51352 0
M  V30 7276 H 665.806 4.94226 3.06972 0
M  V30 7277 H 664.686 7.13202 3.26056 0
M  V30 7278 N 662.189 -1.289 0.906776 0
M  V30 7279 C 663.435 -1.95558 0.53712 0
M  V30 7280 C 663.768 -1.71262 -0.915582 0
M  V30 7281 O 663.043 -1.02961 -1.65013 0
M  V30 7282 C 663.326 -3.50198 0.838645 0
M  V30 7283 C 663.179 -3.83923 2.34357 0
M  V30 7284 C 664.498 -4.38861 0.329988 0
M  V30 7285 H 661.617 -0.710289 0.196617 0
M  V30 7286 H 664.259 -1.52392 1.13475 0
M  V30 7287 H 662.409 -3.87096 0.330024 0
M  V30 7288 H 664.081 -3.56933 2.92227 0
M  V30 7289 H 662.324 -3.31215 2.80141 0
M  V30 7290 H 662.995 -4.91883 2.5051 0
M  V30 7291 H 665.471 -4.08996 0.765609 0
M  V30 7292 H 664.347 -5.45931 0.570105 0
M  V30 7293 H 664.608 -4.35352 -0.769511 0
M  V30 7294 N 663.667 -0.670007 -1.42649 0
M  V30 7295 C 664.916 -0.187526 -2.00826 0
M  V30 7296 C 665.229 1.21142 -1.53571 0
M  V30 7297 O 666.435 1.79001 -2.04134 0
M  V30 7298 C 664.891 -0.284409 -3.58774 0
M  V30 7299 C 664.499 -1.6871 -4.15019 0
M  V30 7300 C 666.243 0.139605 -4.2427 0
M  V30 7301 C 664.15 -1.73701 -5.65316 0
M  V30 7302 H 663.08 -0.0663468 -0.751075 0
M  V30 7303 H 665.731 -0.834492 -1.63427 0
M  V30 7304 H 664.113 0.430364 -3.93655 0
M  V30 7305 H 665.287 -2.42857 -3.91608 0
M  V30 7306 H 663.602 -2.05855 -3.61957 0
M  V30 7307 H 666.199 0.122398 -5.3456 0
M  V30 7308 H 666.542 1.17403 -3.99402 0
M  V30 7309 H 667.075 -0.523995 -3.94334 0
M  V30 7310 H 663.814 -2.75109 -5.94975 0
M  V30 7311 H 663.334 -1.03903 -5.90732 0
M  V30 7312 H 665.013 -1.48829 -6.2965 0
M  V30 7313 N 665.145 1.52092 -0.413018 0
M  V30 7314 C 666.375 2.05974 0.160648 0
M  V30 7315 C 666.783 1.28267 1.39084 0
M  V30 7316 O 666.126 0.328805 1.80733 0
M  V30 7317 C 666.188 3.54918 0.572169 0
M  V30 7318 C 665.852 4.53705 -0.547826 0
M  V30 7319 C 666.849 5.00342 -1.41259 0
M  V30 7320 C 664.534 4.97089 -0.721627 0
M  V30 7321 C 666.528 5.89011 -2.43607 0
M  V30 7322 C 664.215 5.85554 -1.74841 0
M  V30 7323 C 665.213 6.3141 -2.60403 0
M  V30 7324 O 664.901 7.18123 -3.61323 0
M  V30 7325 H 664.633 0.675636 0.0221936 0
M  V30 7326 H 667.187 1.96931 -0.58373 0
M  V30 7327 H 665.417 3.61661 1.36889 0
M  V30 7328 H 667.106 3.91428 1.0742 0
M  V30 7329 H 667.872 4.67537 -1.28974 0
M  V30 7330 H 663.751 4.60954 -0.0652911 0
M  V30 7331 H 667.295 6.24725 -3.10425 0
M  V30 7332 H 663.192 6.17773 -1.87156 0
M  V30 7333 H 663.96 7.36244 -3.57613 0
M  V30 7334 N 666.623 0.143563 1.56945 0
M  V30 7335 C 667.57 -0.797433 2.16586 0
M  V30 7336 C 668.54 -1.24654 1.09775 0
M  V30 7337 O 669.725 -1.31968 1.37801 0
M  V30 7338 C 666.865 -2.03253 2.78895 0
M  V30 7339 C 665.978 -1.62954 4.00087 0
M  V30 7340 C 665.113 -2.81617 4.50406 0
M  V30 7341 C 664.152 -2.37675 5.64072 0
M  V30 7342 N 663.289 -3.49335 6.09023 0
M  V30 7343 H 668.129 -0.282023 2.96662 0
M  V30 7344 H 665.666 -0.127494 1.46546 0
M  V30 7345 H 667.624 -2.75653 3.13163 0
M  V30 7346 H 666.254 -2.52211 2.01469 0
M  V30 7347 H 665.306 -0.803322 3.71821 0
M  V30 7348 H 666.618 -1.26679 4.82446 0
M  V30 7349 H 665.772 -3.62212 4.86711 0
M  V30 7350 H 664.511 -3.21134 3.67048 0
M  V30 7351 H 663.516 -1.55519 5.27346 0
M  V30 7352 H 664.741 -1.99247 6.49213 0
M  V30 7353 H 662.687 -3.8848 5.28601 0
M  V30 7354 H 662.604 -3.17064 6.86299 0
M  V30 7355 H 663.872 -4.30297 6.49973 0
M  V30 7356 N 668.101 -1.57061 -0.130224 0
M  V30 7357 C 669.35 -1.83446 -0.838488 0
M  V30 7358 C 669.663 -0.727468 -1.81569 0
M  V30 7359 O 670.869 -0.877394 -2.56932 0
M  V30 7360 C 669.325 -3.25201 -1.54182 0
M  V30 7361 C 668.933 -4.4388 -0.606178 0
M  V30 7362 C 670.677 -3.60844 -2.23588 0
M  V30 7363 C 668.584 -5.76661 -1.31209 0
M  V30 7364 H 667.514 -0.684185 -0.316871 0
M  V30 7365 H 670.165 -1.83273 -0.0912059 0
M  V30 7366 H 668.547 -3.1981 -2.33533 0
M  V30 7367 H 669.721 -4.60545 0.153308 0
M  V30 7368 H 668.036 -4.16395 -0.0196705 0
M  V30 7369 H 670.633 -4.57313 -2.77072 0
M  V30 7370 H 670.976 -2.87724 -3.00867 0
M  V30 7371 H 671.509 -3.67971 -1.51137 0
M  V30 7372 H 668.248 -6.52922 -0.580823 0
M  V30 7373 H 667.768 -5.63902 -2.04387 0
M  V30 7374 H 669.447 -6.20035 -1.8484 0
M  V30 7375 N 669.579 0.400081 -1.52437 0
M  V30 7376 C 670.509 1.4947 -1.7939 0
M  V30 7377 C 671.49 1.57383 -0.645329 0
M  V30 7378 O 672.675 1.72511 -0.891826 0
M  V30 7379 C 669.805 2.87201 -1.95276 0
M  V30 7380 C 668.759 2.94134 -3.10917 0
M  V30 7381 C 668.085 4.34207 -3.1204 0
M  V30 7382 C 669.385 2.64791 -4.50203 0
M  V30 7383 H 671.079 1.27165 -2.71052 0
M  V30 7384 H 668.625 0.610312 -1.30427 0
M  V30 7385 H 670.578 3.63772 -2.12715 0
M  V30 7386 H 669.302 3.10819 -1.00294 0
M  V30 7387 H 667.961 2.20009 -2.93243 0
M  V30 7388 H 667.609 4.54848 -2.14761 0
M  V30 7389 H 667.309 4.39768 -3.89715 0
M  V30 7390 H 668.833 5.127 -3.31619 0
M  V30 7391 H 670.247 3.31083 -4.68035 0
M  V30 7392 H 668.644 2.81717 -5.29864 0
M  V30 7393 H 669.714 1.60184 -4.57678 0
M  V30 7394 N 671.057 1.43213 0.657864 0
M  V30 7395 C 672.473 1.26511 0.972992 0
M  V30 7396 C 672.673 0.181477 2.00681 0
M  V30 7397 O 671.729 -0.441649 2.48608 0
M  V30 7398 C 673.042 2.62784 1.46168 0
M  V30 7399 C 674.59 2.70278 1.57857 0
M  V30 7400 C 675.065 4.06958 2.10117 0
M  V30 7401 N 676.556 4.08999 2.17426 0
M  V30 7402 C 677.291 5.11585 2.58975 0
M  V30 7403 N 676.787 6.24548 2.99853 0
M  V30 7404 N 678.58 4.9894 2.58873 0
M  V30 7405 H 670.731 2.12384 -0.0263129 0
M  V30 7406 H 672.994 0.946638 0.0507992 0
M  V30 7407 H 672.7 3.43022 0.776474 0
M  V30 7408 H 672.574 2.87863 2.43751 0
M  V30 7409 H 674.961 1.90376 2.25479 0
M  V30 7410 H 675.042 2.4897 0.587179 0
M  V30 7411 H 674.686 4.87325 1.43098 0
M  V30 7412 H 674.616 4.25628 3.10078 0
M  V30 7413 H 677.107 3.27457 1.88627 0
M  V30 7414 H 677.42 6.98661 3.30292 0
M  V30 7415 H 675.765 6.28027 2.97669 0
M  V30 7416 H 678.956 4.09757 2.26311 0
M  V30 7417 H 679.129 5.79019 2.90932 0
M  V30 7418 N 672.536 -0.895792 1.29666 0
M  V30 7419 C 673.486 -1.98736 1.1175 0
M  V30 7420 C 674.47 -1.6086 0.0357834 0
M  V30 7421 O 675.662 -1.75111 0.257926 0
M  V30 7422 C 672.791 -3.33845 0.800156 0
M  V30 7423 C 671.877 -3.78068 1.9216 0
M  V30 7424 N 672.268 -3.94489 3.16563 0
M  V30 7425 C 670.566 -4.07376 1.81552 0
M  V30 7426 C 671.267 -4.31819 3.89753 0
M  V30 7427 N 670.243 -4.41081 3.17724 0
M  V30 7428 H 674.045 -2.09507 2.06117 0
M  V30 7429 H 671.559 -1.08488 1.20848 0
M  V30 7430 H 673.556 -4.11757 0.652841 0
M  V30 7431 H 672.216 -3.24417 -0.135551 0
M  V30 7432 H 673.227 -3.79914 3.51974 0
M  V30 7433 H 669.904 -4.06483 0.952787 0
M  V30 7434 H 671.294 -4.52337 4.96831 0
M  V30 7435 N 674.014 -1.12206 -1.10668 0
M  V30 7436 C 674.924 -0.800686 -2.20513 0
M  V30 7437 C 675.94 0.209512 -1.72734 0
M  V30 7438 O 677.116 0.043705 -2.01353 0
M  V30 7439 C 674.181 -0.257353 -3.45744 0
M  V30 7440 C 673.242 -1.32718 -4.0827 0
M  V30 7441 C 672.475 -0.809674 -5.27522 0
M  V30 7442 O 672.698 0.35742 -5.69279 0
M  V30 7443 O 671.632 -1.57816 -5.80842 0
M  V30 7444 H 675.458 -1.71807 -2.50432 0
M  V30 7445 H 673.043 -0.898546 -1.19359 0
M  V30 7446 H 674.925 0.0408849 -4.2138 0
M  V30 7447 H 673.6 0.632627 -3.17458 0
M  V30 7448 H 672.507 -1.67855 -3.34329 0
M  V30 7449 H 673.84 -2.19083 -4.40753 0
M  V30 7450 N 675.492 1.28418 -0.913599 0
M  V30 7451 C 676.769 1.89977 -0.465619 0
M  V30 7452 C 677.149 1.82813 1.05559 0
M  V30 7453 O 676.497 1.26397 1.90358 0
M  V30 7454 C 676.707 3.34492 -0.995813 0
M  V30 7455 C 678.055 4.11468 -1.04782 0
M  V30 7456 O 679.079 3.43451 -0.944445 0
M  V30 7457 O 677.938 5.33046 -1.20518 0
M  V30 7458 H 675.032 0.813734 -0.147532 0
M  V30 7459 H 677.578 1.36786 -1.00437 0
M  V30 7460 H 676.35 3.33929 -2.03978 0
M  V30 7461 H 675.973 3.95181 -0.437878 0
M  V30 7462 N 676.97 0.677563 1.42291 0
M  V30 7463 C 678.219 0.198173 2.00724 0
M  V30 7464 C 678.532 -1.20325 1.54211 0
M  V30 7465 O 679.738 -1.77916 2.05081 0
M  V30 7466 C 678.194 0.303432 3.58619 0
M  V30 7467 C 677.802 1.70909 4.14119 0
M  V30 7468 C 679.546 -0.117103 4.24338 0
M  V30 7469 C 677.453 1.76696 5.64387 0
M  V30 7470 H 676.383 0.070329 0.750713 0
M  V30 7471 H 679.034 0.843147 1.62982 0
M  V30 7472 H 677.416 -0.409482 3.93877 0
M  V30 7473 H 678.59 2.44931 3.90315 0
M  V30 7474 H 676.905 2.07771 3.6086 0
M  V30 7475 H 679.502 -0.0940471 5.34617 0
M  V30 7476 H 679.845 -1.15283 4.00019 0
M  V30 7477 H 680.378 0.5449 3.9405 0
M  V30 7478 H 677.117 2.7826 5.93508 0
M  V30 7479 H 676.637 1.07034 5.90173 0
M  V30 7480 H 678.316 1.52166 6.28852 0
M  V30 7481 N 678.448 -1.51871 0.421078 0
M  V30 7482 C 679.398 -2.24171 -0.416111 0
M  V30 7483 C 680.382 -1.25763 -1.00362 0
M  V30 7484 O 681.574 -1.5094 -0.924452 0
M  V30 7485 C 678.703 -3.07533 -1.52571 0
M  V30 7486 C 677.789 -4.1336 -0.948399 0
M  V30 7487 N 678.18 -5.05704 -0.0987933 0
M  V30 7488 C 676.478 -4.29055 -1.21768 0
M  V30 7489 C 677.179 -5.8127 0.223705 0
M  V30 7490 N 676.155 -5.4221 -0.388524 0
M  V30 7491 H 679.957 -2.92925 0.239166 0
M  V30 7492 H 677.471 -1.60732 0.232191 0
M  V30 7493 H 679.468 -3.57893 -2.13819 0
M  V30 7494 H 678.128 -2.4032 -2.18349 0
M  V30 7495 H 679.139 -5.17214 0.266428 0
M  V30 7496 H 675.816 -3.73071 -1.87416 0
M  V30 7497 H 677.206 -6.65653 0.914076 0
M  V30 7498 N 679.926 -0.151884 -1.56866 0
M  V30 7499 C 680.858 0.817008 -2.14144 0
M  V30 7500 C 681.871 1.20735 -1.0921 0
M  V30 7501 O 683.06 1.15058 -1.36469 0
M  V30 7502 C 680.16 2.10844 -2.65326 0
M  V30 7503 C 679.333 1.88471 -3.94712 0
M  V30 7504 C 678.392 3.01649 -4.31155 0
M  V30 7505 O 677.418 2.73127 -4.9939 0
M  V30 7506 N 678.62 4.28947 -3.91132 0
M  V30 7507 H 681.385 0.327448 -2.97906 0
M  V30 7508 H 678.946 0.0315313 -1.61869 0
M  V30 7509 H 680.938 2.85616 -2.86715 0
M  V30 7510 H 679.508 2.51049 -1.86262 0
M  V30 7511 H 678.728 0.977088 -3.81899 0
M  V30 7512 H 680.016 1.70866 -4.79252 0
M  V30 7513 H 679.414 4.54986 -3.36161 0
M  V30 7514 H 677.971 5.00484 -4.17563 0
M  V30 7515 N 681.404 1.57128 0.121893 0
M  V30 7516 C 682.336 1.96773 1.17529 0
M  V30 7517 C 683.349 0.866668 1.37814 0
M  V30 7518 O 684.538 1.14497 1.3694 0
M  V30 7519 C 681.638 2.24832 2.53582 0
M  V30 7520 C 680.811 3.56138 2.53939 0
M  V30 7521 C 679.87 3.72443 3.71716 0
M  V30 7522 O 678.896 4.44584 3.55434 0
M  V30 7523 N 680.098 3.10993 4.90167 0
M  V30 7524 H 682.863 2.87743 0.838086 0
M  V30 7525 H 680.424 1.58881 0.311199 0
M  V30 7526 H 682.416 2.32958 3.30927 0
M  V30 7527 H 680.986 1.40002 2.79496 0
M  V30 7528 H 680.206 3.59226 1.62329 0
M  V30 7529 H 681.494 4.42448 2.51231 0
M  V30 7530 H 680.892 2.52345 5.06299 0
M  V30 7531 H 679.449 3.24644 5.65198 0
M  V30 7532 N 682.882 -0.391992 1.52647 0
M  V30 7533 C 683.814 -1.49811 1.73463 0
M  V30 7534 C 684.827 -1.50734 0.615078 0
M  V30 7535 O 686.016 -1.5469 0.890696 0
M  V30 7536 C 683.116 -2.88667 1.77552 0
M  V30 7537 C 682.289 -3.11743 3.06815 0
M  V30 7538 C 681.348 -4.30564 3.02491 0
M  V30 7539 O 680.374 -4.27014 3.76361 0
M  V30 7540 N 681.576 -5.36593 2.21468 0
M  V30 7541 H 684.341 -1.32343 2.68897 0
M  V30 7542 H 681.902 -0.581475 1.51098 0
M  V30 7543 H 683.894 -3.66251 1.7217 0
M  V30 7544 H 682.464 -2.99508 0.895181 0
M  V30 7545 H 681.684 -2.2205 3.25711 0
M  V30 7546 H 682.972 -3.24013 3.92292 0
M  V30 7547 H 682.37 -5.42332 1.60913 0
M  V30 7548 H 680.927 -6.12855 2.21928 0
M  V30 7549 N 684.36 -1.4356 -0.65026 0
M  V30 7550 C 685.637 -1.35811 -1.40765 0
M  V30 7551 C 686.017 -0.00736379 -2.11099 0
M  V30 7552 O 685.365 1.00932 -2.05 0
M  V30 7553 C 685.575 -2.54332 -2.3899 0
M  V30 7554 C 686.923 -2.97551 -3.02901 0
M  V30 7555 O 687.947 -2.544 -2.49317 0
M  V30 7556 O 686.806 -3.72311 -4.00059 0
M  V30 7557 H 683.9 -0.536861 -0.629054 0
M  V30 7558 H 686.446 -1.55615 -0.676919 0
M  V30 7559 H 685.218 -3.44274 -1.85986 0
M  V30 7560 H 684.841 -2.36643 -3.19509 0
M  V30 7561 O 685.877 0.793351 -1.40671 0
M  V30 7562 H 686.568 1.43915 -1.29646 0
M  V30 END ATOM
M  V30 BEGIN BOND
M  V30 END BOND
M  V30 END CTAB
M  END
$$$$
